
#######################################################################
#
#                 Cambridge Crystallographic Data Centre
#                                CCDC 
#
#######################################################################
#
# If this CIF has been generated from an entry in the Cambridge 
# Structural Database, then it will include bibliographic, chemical, 
# crystal, experimental, refinement or atomic coordinate data resulting 
# from the CCDC's data processing and validation procedures.
#
#######################################################################

data_DICSUG
_chemical_formula_moiety         'C29 H25 N3 O4'
_chemical_name_systematic        
"ethyl 1-methyl-2-oxo-1',3'-diphenyl-1,2,5',6'-tetrahydro-1'H-spiro[indole-3,4'-pyrano[2,3-c]pyrazole]-5'-carboxylate"
_symmetry_cell_setting           monoclinic
_symmetry_space_group_name_H-M   'P 21/c'
_symmetry_Int_Tables_number      14
_space_group_name_Hall           '-P 2ybc'
loop_
_symmetry_equiv_pos_site_id
_symmetry_equiv_pos_as_xyz
1 x,y,z
2 -x,1/2+y,1/2-z
3 -x,-y,-z
4 x,1/2-y,1/2+z
_cell_length_a                   7.7236(3)
_cell_length_b                   20.0982(9)
_cell_length_c                   15.7470(6)
_cell_angle_alpha                90
_cell_angle_beta                 90.183(3)
_cell_angle_gamma                90
_cell_volume                     2444.4
_exptl_crystal_colour            colorless
_exptl_crystal_description       block
_cell_formula_units_Z            4
loop_
_atom_site_label
_atom_site_type_symbol
_atom_site_fract_x
_atom_site_fract_y
_atom_site_fract_z
O1 O 0.8186(2) 0.47873(9) 0.67314(11)
O2 O 0.8674(3) 0.41297(16) 0.42398(13)
O3 O 0.5806(3) 0.42417(12) 0.40147(11)
O4 O 0.2836(2) 0.42801(10) 0.55886(11)
N1 N 0.5190(3) 0.41450(10) 0.81863(12)
N2 N 0.6594(3) 0.45255(10) 0.79513(12)
N3 N 0.3631(3) 0.32632(12) 0.50475(13)
C1 C 0.6952(3) 0.44310(12) 0.71165(14)
C2 C 0.5819(3) 0.39781(12) 0.67903(14)
C3 C 0.5762(3) 0.38230(13) 0.58529(15)
C4 C 0.6813(3) 0.43928(13) 0.54153(15)
H1 H 0.6097 0.4795 0.5425
C5 C 0.8500(3) 0.45495(15) 0.58763(15)
H2 H 0.9210 0.4152 0.5901
H3 H 0.9131 0.4885 0.5561
C6 C 0.4735(3) 0.38128(12) 0.74857(15)
C7 C 0.7238(4) 0.42437(16) 0.44975(16)
C8 C 0.6209(9) 0.4241(4) 0.3080(4)
H4 H 0.5688 0.4623 0.2802
H5 H 0.7450 0.4253 0.2988
C9 C 0.555(2) 0.3687(6) 0.2788(6)
H6 H 0.5759 0.3655 0.2189
H7 H 0.6070 0.3315 0.3073
H8 H 0.4320 0.3684 0.2888
C10 C 0.6363(3) 0.31393(13) 0.55915(15)
C11 C 0.7861(4) 0.27938(14) 0.57676(18)
H9 H 0.8719 0.2981 0.6107
C12 C 0.8071(4) 0.21609(16) 0.5430(2)
H10 H 0.9074 0.1922 0.5551
C13 C 0.6824(4) 0.18820(16) 0.4919(2)
H11 H 0.7008 0.1462 0.4689
C14 C 0.5284(4) 0.22185(15) 0.47395(18)
H12 H 0.4430 0.2030 0.4399
C15 C 0.5082(3) 0.28458(14) 0.50908(15)
C16 C 0.2065(4) 0.31118(18) 0.4576(2)
H13 H 0.2179 0.2684 0.4310
H14 H 0.1096 0.3105 0.4956
H15 H 0.1881 0.3445 0.4149
C17 C 0.3883(3) 0.38341(13) 0.54978(15)
C18 C 0.3237(3) 0.33628(13) 0.75162(15)
C19 C 0.3258(4) 0.27489(14) 0.70983(17)
H16 H 0.4232 0.2621 0.6793
C20 C 0.1825(5) 0.23288(17) 0.7138(2)
H17 H 0.1845 0.1922 0.6856
C21 C 0.0383(5) 0.2510(2) 0.7590(2)
H18 H -0.0565 0.2226 0.7618
C22 C 0.0342(4) 0.3117(2) 0.8005(2)
H19 H -0.0637 0.3241 0.8308
C23 C 0.1756(4) 0.35377(17) 0.79694(18)
H20 H 0.1718 0.3944 0.8252
C24 C 0.7377(3) 0.49707(12) 0.85394(15)
C25 C 0.6389(4) 0.52311(13) 0.91873(16)
H21 H 0.5218 0.5128 0.9224
C26 C 0.7149(5) 0.56482(14) 0.97845(18)
H22 H 0.6488 0.5820 1.0226
C27 C 0.8869(5) 0.58080(15) 0.97262(19)
H23 H 0.9379 0.6082 1.0132
C28 C 0.9844(4) 0.55611(15) 0.9065(2)
H24 H 1.1002 0.5682 0.9018
C29 C 0.9115(4) 0.51338(14) 0.84685(17)
H25 H 0.9781 0.4961 0.8030
C30? C 0.6734(12) 0.4338(6) 0.2581(7)
H26? H 0.6794 0.4134 0.2031
H27? H 0.6104 0.4749 0.2541
H28? H 0.7884 0.4426 0.2785
C31? C 0.5816(13) 0.3872(8) 0.3195(6)
H29? H 0.4645 0.3780 0.3004
H30? H 0.6438 0.3455 0.3250
loop_
_geom_bond_atom_site_label_1
_geom_bond_atom_site_label_2
_geom_bond_site_symmetry_1
_geom_bond_site_symmetry_2
O1 C1 1_555 1_555
O2 C7 1_555 1_555
O3 C7 1_555 1_555
O4 C17 1_555 1_555
N1 N2 1_555 1_555
N2 C1 1_555 1_555
N3 C15 1_555 1_555
C1 C2 1_555 1_555
C2 C3 1_555 1_555
C3 C4 1_555 1_555
C4 H1 1_555 1_555
C5 O1 1_555 1_555
H2 C5 1_555 1_555
H3 C5 1_555 1_555
C6 N1 1_555 1_555
C7 C4 1_555 1_555
C8 O3 1_555 1_555
H4 C8 1_555 1_555
H5 C8 1_555 1_555
C9 C8 1_555 1_555
H6 C9 1_555 1_555
H7 C9 1_555 1_555
H8 C9 1_555 1_555
C10 C3 1_555 1_555
C11 C10 1_555 1_555
H9 C11 1_555 1_555
C12 C11 1_555 1_555
H10 C12 1_555 1_555
C13 C12 1_555 1_555
H11 C13 1_555 1_555
C14 C13 1_555 1_555
H12 C14 1_555 1_555
C15 C10 1_555 1_555
C16 N3 1_555 1_555
H13 C16 1_555 1_555
H14 C16 1_555 1_555
H15 C16 1_555 1_555
C17 N3 1_555 1_555
C18 C6 1_555 1_555
C19 C18 1_555 1_555
H16 C19 1_555 1_555
C20 C19 1_555 1_555
H17 C20 1_555 1_555
C21 C20 1_555 1_555
H18 C21 1_555 1_555
C22 C21 1_555 1_555
H19 C22 1_555 1_555
C23 C18 1_555 1_555
H20 C23 1_555 1_555
C24 N2 1_555 1_555
C25 C24 1_555 1_555
H21 C25 1_555 1_555
C26 C25 1_555 1_555
H22 C26 1_555 1_555
C27 C26 1_555 1_555
H23 C27 1_555 1_555
C28 C27 1_555 1_555
H24 C28 1_555 1_555
C29 C24 1_555 1_555
H25 C29 1_555 1_555
C2 C6 1_555 1_555
C3 C17 1_555 1_555
C4 C5 1_555 1_555
C14 C15 1_555 1_555
C22 C23 1_555 1_555
C28 C29 1_555 1_555

#END
