
#######################################################################
#
#                 Cambridge Crystallographic Data Centre
#                                CCDC 
#
#######################################################################
#
# If this CIF has been generated from an entry in the Cambridge 
# Structural Database, then it will include bibliographic, chemical, 
# crystal, experimental, refinement or atomic coordinate data resulting 
# from the CCDC's data processing and validation procedures.
#
#######################################################################

data_DIDCUQ
_chemical_formula_moiety         'C23 H22 N2 O3 S1'
_chemical_name_systematic        
6-Methyl-5-((4-methylphenyl)sulfonyl)-5,5a,6,11-tetrahydro-10bH-indolo[2,3-b]quinolin-10b-ol
_symmetry_cell_setting           triclinic
_symmetry_space_group_name_H-M   'P -1'
_symmetry_Int_Tables_number      2
_space_group_name_Hall           '-P 1'
loop_
_symmetry_equiv_pos_site_id
_symmetry_equiv_pos_as_xyz
1 x,y,z
2 -x,-y,-z
_cell_length_a                   8.0741(13)
_cell_length_b                   8.6288(14)
_cell_length_c                   15.527(3)
_cell_angle_alpha                89.179(3)
_cell_angle_beta                 86.540(3)
_cell_angle_gamma                67.496(2)
_cell_volume                     997.523
_exptl_crystal_colour            colorless
_exptl_crystal_description       plate
_cell_formula_units_Z            2
loop_
_atom_site_label
_atom_site_type_symbol
_atom_site_fract_x
_atom_site_fract_y
_atom_site_fract_z
S1 S 0.31764(8) 0.87775(8) 0.19043(4)
O1 O 0.4536(2) 0.7995(3) 0.24983(12)
O2 O 0.3333(3) 1.0069(3) 0.13626(13)
O3 O -0.2700(3) 1.0218(3) 0.13596(11)
H1 H -0.3753 1.0323 0.1428
N1 N 0.1264(3) 0.9638(2) 0.24901(12)
N2 N -0.1092(3) 1.2388(3) 0.23492(16)
C1 C 0.2549(5) 0.3374(5) -0.0319(2)
H2 H 0.3417 0.2302 -0.0165
H3 H 0.2760 0.3587 -0.0916
H4 H 0.1363 0.3374 -0.0227
C2 C 0.2718(3) 0.4718(4) 0.02290(17)
C3 C 0.3243(4) 0.4401(3) 0.10695(18)
H5 H 0.3506 0.3333 0.1292
C4 C 0.3386(3) 0.5624(3) 0.15807(16)
H6 H 0.3731 0.5391 0.2144
C5 C 0.3007(3) 0.7212(3) 0.12442(14)
C6 C 0.2508(4) 0.7564(3) 0.03989(16)
H7 H 0.2267 0.8627 0.0173
C7 C 0.2377(4) 0.6307(4) -0.00974(17)
H8 H 0.2052 0.6532 -0.0664
C8 C 0.0995(3) 0.8839(3) 0.32780(14)
C9 C -0.0275(3) 0.8114(3) 0.32912(15)
C10 C -0.0595(4) 0.7382(4) 0.40554(19)
H9 H -0.1452 0.6905 0.4084
C11 C 0.0349(5) 0.7360(4) 0.47719(19)
H10 H 0.0152 0.6837 0.5273
C12 C 0.1591(4) 0.8115(4) 0.47471(17)
H11 H 0.2207 0.8117 0.5234
C13 C 0.1909(4) 0.8861(3) 0.39992(15)
H12 H 0.2733 0.9377 0.3980
C14 C -0.1306(3) 0.8274(3) 0.24937(16)
H13 H -0.2328 0.7964 0.2624
H14 H -0.0540 0.7528 0.2044
C15 C -0.1944(3) 1.0074(3) 0.21882(14)
C16 C -0.0363(3) 1.0680(3) 0.20379(15)
H15 H -0.0049 1.0667 0.1418
C17 C -0.0025(5) 1.3387(4) 0.2382(2)
H16 H -0.0764 1.4543 0.2290
H17 H 0.0932 1.3014 0.1941
H18 H 0.0471 1.3272 0.2937
C18 C -0.2645(3) 1.2698(3) 0.28717(15)
C19 C -0.3207(3) 1.1369(3) 0.28185(16)
C20 C -0.4714(4) 1.1397(4) 0.32817(19)
H19 H -0.5071 1.0495 0.3253
C21 C -0.5711(4) 1.2790(5) 0.3797(2)
H20 H -0.6740 1.2827 0.4114
C22 C -0.5159(4) 1.4108(4) 0.3833(2)
H21 H -0.5837 1.5037 0.4175
C23 C -0.3628(4) 1.4097(3) 0.33784(18)
H22 H -0.3270 1.4997 0.3411
loop_
_geom_bond_atom_site_label_1
_geom_bond_atom_site_label_2
_geom_bond_site_symmetry_1
_geom_bond_site_symmetry_2
S1 O1 1_555 1_555
O2 S1 1_555 1_555
O3 H1 1_555 1_555
N1 S1 1_555 1_555
N2 C16 1_555 1_555
C1 H2 1_555 1_555
H3 C1 1_555 1_555
H4 C1 1_555 1_555
C2 C1 1_555 1_555
C3 C2 1_555 1_555
H5 C3 1_555 1_555
C4 C3 1_555 1_555
H6 C4 1_555 1_555
C5 S1 1_555 1_555
C6 C5 1_555 1_555
H7 C6 1_555 1_555
C7 C2 1_555 1_555
H8 C7 1_555 1_555
C8 N1 1_555 1_555
C9 C8 1_555 1_555
C10 C9 1_555 1_555
H9 C10 1_555 1_555
C11 C10 1_555 1_555
H10 C11 1_555 1_555
C12 C11 1_555 1_555
H11 C12 1_555 1_555
C13 C8 1_555 1_555
H12 C13 1_555 1_555
C14 C9 1_555 1_555
H13 C14 1_555 1_555
H14 C14 1_555 1_555
C15 O3 1_555 1_555
C16 N1 1_555 1_555
H15 C16 1_555 1_555
C17 N2 1_555 1_555
H16 C17 1_555 1_555
H17 C17 1_555 1_555
H18 C17 1_555 1_555
C18 N2 1_555 1_555
C19 C15 1_555 1_555
C20 C19 1_555 1_555
H19 C20 1_555 1_555
C21 C20 1_555 1_555
H20 C21 1_555 1_555
C22 C21 1_555 1_555
H21 C22 1_555 1_555
C23 C18 1_555 1_555
H22 C23 1_555 1_555
C4 C5 1_555 1_555
C6 C7 1_555 1_555
C12 C13 1_555 1_555
C14 C15 1_555 1_555
C15 C16 1_555 1_555
C18 C19 1_555 1_555
C22 C23 1_555 1_555

#END
