
#######################################################################
#
#                 Cambridge Crystallographic Data Centre
#                                CCDC 
#
#######################################################################
#
# If this CIF has been generated from an entry in the Cambridge 
# Structural Database, then it will include bibliographic, chemical, 
# crystal, experimental, refinement or atomic coordinate data resulting 
# from the CCDC's data processing and validation procedures.
#
#######################################################################

data_DIDGUV
_chemical_formula_moiety         'C28 H18 N2 O2'
_chemical_name_systematic        
3-hydroxy-N'-((pyren-1-yl)methylidene)naphthalene-2-carbohydrazide
_symmetry_cell_setting           monoclinic
_symmetry_space_group_name_H-M   'P 21/c'
_symmetry_Int_Tables_number      14
_space_group_name_Hall           '-P 2ybc'
loop_
_symmetry_equiv_pos_site_id
_symmetry_equiv_pos_as_xyz
1 x,y,z
2 -x,1/2+y,1/2-z
3 -x,-y,-z
4 x,1/2-y,1/2+z
_cell_length_a                   7.8925(5)
_cell_length_b                   17.2011(10)
_cell_length_c                   17.0173(10)
_cell_angle_alpha                90
_cell_angle_beta                 96.342(2)
_cell_angle_gamma                90
_cell_volume                     2296.12
_cell_formula_units_Z            4
loop_
_atom_site_label
_atom_site_type_symbol
_atom_site_fract_x
_atom_site_fract_y
_atom_site_fract_z
O1 O 0.7338(9) 0.3539(3) 0.7896(4)
H1 H 0.7105 0.3401 0.7435
O2 O 0.5502(9) 0.3614(4) 0.6558(4)
N1 N 0.4325(9) 0.4725(4) 0.6093(4)
H2 H 0.4205 0.5218 0.6147
N2 N 0.3485(9) 0.4328(4) 0.5435(4)
C1 C 0.6756(10) 0.5960(5) 0.8094(5)
C2 C 0.0482(10) 0.4862(4) 0.3733(5)
C3 C 0.7105(10) 0.4307(4) 0.7949(5)
C4 C 0.1453(10) 0.4390(5) 0.4316(5)
C5 C -0.0409(10) 0.4491(5) 0.3074(5)
C6 C 0.7741(10) 0.5515(4) 0.8682(4)
C7 C 0.5966(10) 0.5521(4) 0.7408(5)
H3 H 0.5319 0.5794 0.7010
C8 C 0.6128(9) 0.4731(4) 0.7320(5)
C9 C 0.7815(12) 0.4693(5) 0.8585(6)
H4 H 0.8396 0.4405 0.8992
C10 C 0.2399(10) 0.4727(5) 0.4990(5)
H5 H 0.2225 0.5247 0.5109
C11 C -0.0338(11) 0.3680(5) 0.2999(5)
C12 C 0.6596(12) 0.6724(5) 0.8193(5)
H6 H 0.6008 0.7013 0.7789
C13 C -0.1312(12) 0.4952(6) 0.2478(5)
C14 C 0.1416(12) 0.3596(5) 0.4213(6)
H7 H 0.2016 0.3290 0.4600
C15 C 0.5328(11) 0.4304(6) 0.6637(5)
C16 C 0.0364(12) 0.5666(5) 0.3748(6)
H8 H 0.0957 0.5918 0.4177
C17 C 0.0562(13) 0.3236(6) 0.3589(6)
H9 H 0.0574 0.2697 0.3551
C18 C 0.8465(12) 0.5918(7) 0.9347(6)
H10 H 0.9146 0.5646 0.9735
C19 C -0.1379(13) 0.5756(6) 0.2551(6)
C20 C 0.7245(13) 0.7091(5) 0.8848(6)
H11 H 0.7054 0.7620 0.8908
C21 C -0.2188(12) 0.4569(6) 0.1780(7)
C22 C 0.8226(13) 0.6671(6) 0.9452(6)
H12 H 0.8692 0.6919 0.9911
C23 C -0.1314(12) 0.3311(6) 0.2356(6)
H13 H -0.1372 0.2771 0.2342
C24 C -0.0530(14) 0.6121(6) 0.3199(8)
H14 H -0.0569 0.6658 0.3258
C25 C -0.2180(14) 0.3736(6) 0.1750(6)
H15 H -0.2762 0.3480 0.1320
C26 C -0.3122(13) 0.4996(11) 0.1191(6)
H16 H -0.3688 0.4754 0.0749
C27 C -0.2377(15) 0.6174(7) 0.1933(8)
H17 H -0.2475 0.6710 0.1977
C28 C -0.3188(14) 0.5816(10) 0.1283(8)
H18 H -0.3797 0.6114 0.0893
loop_
_geom_bond_atom_site_label_1
_geom_bond_atom_site_label_2
_geom_bond_site_symmetry_1
_geom_bond_site_symmetry_2
O1 H1 1_555 1_555
O2 C15 1_555 1_555
N1 H2 1_555 1_555
N2 N1 1_555 1_555
C1 C6 1_555 1_555
C2 C4 1_555 1_555
C3 O1 1_555 1_555
C4 C10 1_555 1_555
C5 C2 1_555 1_555
C6 C9 1_555 1_555
C7 C1 1_555 1_555
H3 C7 1_555 1_555
C8 C3 1_555 1_555
C9 C3 1_555 1_555
H4 C9 1_555 1_555
C10 N2 1_555 1_555
H5 C10 1_555 1_555
C11 C5 1_555 1_555
C12 C1 1_555 1_555
H6 C12 1_555 1_555
C13 C5 1_555 1_555
C14 C4 1_555 1_555
H7 C14 1_555 1_555
C15 N1 1_555 1_555
C16 C2 1_555 1_555
H8 C16 1_555 1_555
C17 C11 1_555 1_555
H9 C17 1_555 1_555
C18 C6 1_555 1_555
H10 C18 1_555 1_555
C19 C13 1_555 1_555
C20 C12 1_555 1_555
H11 C20 1_555 1_555
C21 C13 1_555 1_555
C22 C18 1_555 1_555
H12 C22 1_555 1_555
C23 C11 1_555 1_555
H13 C23 1_555 1_555
C24 C16 1_555 1_555
H14 C24 1_555 1_555
C25 C21 1_555 1_555
H15 C25 1_555 1_555
C26 C21 1_555 1_555
H16 C26 1_555 1_555
C27 C19 1_555 1_555
H17 C27 1_555 1_555
C28 C26 1_555 1_555
H18 C28 1_555 1_555
C7 C8 1_555 1_555
C8 C15 1_555 1_555
C14 C17 1_555 1_555
C19 C24 1_555 1_555
C20 C22 1_555 1_555
C23 C25 1_555 1_555
C27 C28 1_555 1_555

#END
