
#######################################################################
#
#                 Cambridge Crystallographic Data Centre
#                                CCDC 
#
#######################################################################
#
# If this CIF has been generated from an entry in the Cambridge 
# Structural Database, then it will include bibliographic, chemical, 
# crystal, experimental, refinement or atomic coordinate data resulting 
# from the CCDC's data processing and validation procedures.
#
#######################################################################

data_DIDHAB
_chemical_formula_moiety         'C6 H16 N2 O1 2+,2(N1 O3 1-)'
_chemical_name_systematic        '1-(2-Hydroxyethyl)piperazinedi-ium dinitrate'
_symmetry_cell_setting           orthorhombic
_symmetry_space_group_name_H-M   'P b c a'
_symmetry_Int_Tables_number      61
_space_group_name_Hall           '-P 2ac 2ab'
loop_
_symmetry_equiv_pos_site_id
_symmetry_equiv_pos_as_xyz
1 x,y,z
2 1/2-x,-y,1/2+z
3 1/2+x,1/2-y,-z
4 -x,1/2+y,1/2-z
5 -x,-y,-z
6 1/2+x,y,1/2-z
7 1/2-x,1/2+y,z
8 x,1/2-y,1/2+z
_cell_length_a                   12.4554(4)
_cell_length_b                   12.9959(3)
_cell_length_c                   13.4074(4)
_cell_angle_alpha                90
_cell_angle_beta                 90
_cell_angle_gamma                90
_cell_volume                     2170.24
_exptl_crystal_colour            colorless
_exptl_crystal_description       block
_cell_formula_units_Z            8
loop_
_atom_site_label
_atom_site_type_symbol
_atom_site_fract_x
_atom_site_fract_y
_atom_site_fract_z
O1 O 0.86884(8) 0.06860(8) 0.45790(8)
O2 O 0.96020(8) 0.09994(8) 0.32295(8)
N1 N 0.91318(9) 0.03650(9) 0.37891(9)
O3 O 0.90931(10) -0.05546(8) 0.35698(9)
O4 O 0.61568(8) 0.07800(8) 0.41393(8)
N2 N 0.65881(9) 0.12608(9) 0.34456(8)
O5 O 0.71599(8) 0.08040(9) 0.28138(8)
O6 O 0.64662(9) 0.22134(8) 0.33628(9)
O7 O 0.39093(8) 0.20749(8) 0.63226(7)
H1 H 0.4071 0.2699 0.6389
N3 N 0.29925(9) 0.24471(9) 0.83500(8)
H2 H 0.2762 0.2853 0.7821
N4 N 0.25595(9) 0.38639(10) 0.99714(8)
H3 H 0.2313 0.4491 1.0191
H4 H 0.2783 0.3494 1.0518
C1 C 0.33550(12) 0.14294(10) 0.79404(10)
H5 H 0.2734 0.1082 0.7625
H6 H 0.3602 0.0992 0.8499
C2 C 0.34849(12) 0.40252(11) 0.92854(11)
H7 H 0.4075 0.4372 0.9648
H8 H 0.3263 0.4474 0.8726
C3 C 0.42483(12) 0.15167(11) 0.71834(10)
H9 H 0.4870 0.1870 0.7490
H10 H 0.4482 0.0819 0.6982
C4 C 0.20648(11) 0.22932(11) 0.90480(11)
H11 H 0.2289 0.1840 0.9603
H12 H 0.1472 0.1948 0.8688
C5 C 0.16696(11) 0.33025(12) 0.94651(11)
H13 H 0.1379 0.3731 0.8918
H14 H 0.1084 0.3172 0.9948
C6 C 0.38752(11) 0.30080(11) 0.88831(10)
H15 H 0.4479 0.3128 0.8417
H16 H 0.4143 0.2579 0.9440
loop_
_geom_bond_atom_site_label_1
_geom_bond_atom_site_label_2
_geom_bond_site_symmetry_1
_geom_bond_site_symmetry_2
O1 N1 1_555 1_555
O2 N1 1_555 1_555
N1 O3 1_555 1_555
O4 N2 1_555 1_555
N2 O5 1_555 1_555
O6 N2 1_555 1_555
O7 H1 1_555 1_555
N3 H2 1_555 1_555
N4 H3 1_555 1_555
H4 N4 1_555 1_555
C1 N3 1_555 1_555
H5 C1 1_555 1_555
H6 C1 1_555 1_555
C2 N4 1_555 1_555
H7 C2 1_555 1_555
H8 C2 1_555 1_555
C3 O7 1_555 1_555
H9 C3 1_555 1_555
H10 C3 1_555 1_555
C4 N3 1_555 1_555
H11 C4 1_555 1_555
H12 C4 1_555 1_555
C5 N4 1_555 1_555
H13 C5 1_555 1_555
H14 C5 1_555 1_555
C6 N3 1_555 1_555
H15 C6 1_555 1_555
H16 C6 1_555 1_555
C1 C3 1_555 1_555
C2 C6 1_555 1_555
C4 C5 1_555 1_555

#END
