
#######################################################################
#
#                 Cambridge Crystallographic Data Centre
#                                CCDC 
#
#######################################################################
#
# If this CIF has been generated from an entry in the Cambridge 
# Structural Database, then it will include bibliographic, chemical, 
# crystal, experimental, refinement or atomic coordinate data resulting 
# from the CCDC's data processing and validation procedures.
#
#######################################################################

data_DIDKUX
_chemical_formula_moiety         'C18 H19 Br1 N2 O4'
_chemical_name_systematic        
rac-N-(5-Bromo-2,6-dimethyl-1,3-dioxo-2,3,3a,4,7,7a-hexahydro-1H-isoindol-4-yl)-4-methoxybenzamide
_symmetry_cell_setting           monoclinic
_symmetry_space_group_name_H-M   'P 21/n'
_symmetry_Int_Tables_number      14
_space_group_name_Hall           '-P 2yn'
loop_
_symmetry_equiv_pos_site_id
_symmetry_equiv_pos_as_xyz
1 x,y,z
2 1/2-x,1/2+y,1/2-z
3 -x,-y,-z
4 1/2+x,1/2-y,1/2+z
_cell_length_a                   12.2876(11)
_cell_length_b                   7.5901(5)
_cell_length_c                   19.7222(16)
_cell_angle_alpha                90
_cell_angle_beta                 99.469(7)
_cell_angle_gamma                90
_cell_volume                     1814.31
_exptl_crystal_colour            colorless
_exptl_crystal_description       prism
_cell_formula_units_Z            4
loop_
_atom_site_label
_atom_site_type_symbol
_atom_site_fract_x
_atom_site_fract_y
_atom_site_fract_z
Br1 Br 0.85402(4) 0.10467(8) 0.113651(18)
C1 C 0.7779(3) 0.1114(5) -0.16114(16)
C2 C 0.7545(3) 0.3233(4) -0.08348(16)
C3 C 0.6697(2) 0.1841(4) -0.07524(14)
H1 H 0.5963 0.2294 -0.0941
C4 C 0.6717(2) 0.1344(4) -0.00006(14)
H2 H 0.6115 0.0506 0.0016
C5 C 0.7792(2) 0.0392(4) 0.02540(15)
C6 C 0.8165(2) -0.0847(4) -0.01152(17)
C7 C 0.7465(3) -0.1293(4) -0.07930(17)
H3 H 0.6867 -0.2054 -0.0709
H4 H 0.7911 -0.1949 -0.1068
C8 C 0.6974(2) 0.0316(4) -0.12053(15)
H5 H 0.6307 -0.0038 -0.1519
C9 C 0.8869(3) 0.3898(6) -0.1626(2)
H6 H 0.8937 0.4990 -0.1377
H7 H 0.8622 0.4130 -0.2105
H8 H 0.9574 0.3321 -0.1568
C10 C 0.9182(3) -0.1934(5) 0.0098(2)
H9 H 0.9561 -0.1527 0.0534
H10 H 0.9658 -0.1825 -0.0240
H11 H 0.8978 -0.3147 0.0136
C11 C 0.5767(2) 0.2939(4) 0.08095(14)
C12 C 0.5714(2) 0.4606(4) 0.12037(13)
C13 C 0.6296(2) 0.6121(4) 0.11034(14)
H12 H 0.6706 0.6157 0.0747
C14 C 0.6281(2) 0.7581(4) 0.15218(15)
H13 H 0.6676 0.8587 0.1446
C15 C 0.5677(2) 0.7535(4) 0.20520(13)
C16 C 0.5055(2) 0.6071(4) 0.21423(14)
H14 H 0.4618 0.6060 0.2485
C17 C 0.5082(2) 0.4623(4) 0.17253(14)
H15 H 0.4667 0.3634 0.1795
C18 C 0.6416(3) 1.0257(5) 0.25243(19)
H16 H 0.6286 1.1126 0.2856
H17 H 0.6361 1.0798 0.2080
H18 H 0.7141 0.9769 0.2655
N1 N 0.8072(2) 0.2764(4) -0.13644(13)
N2 N 0.6500(3) 0.2871(4) 0.03848(15)
H19 H 0.684(3) 0.369(5) 0.0369(17)
O1 O 0.8142(3) 0.0440(4) -0.20823(15)
O2 O 0.7743(3) 0.4559(3) -0.04976(14)
O3 O 0.5196(2) 0.1673(3) 0.08869(14)
O4 O 0.56143(18) 0.8889(3) 0.24979(11)
loop_
_geom_bond_atom_site_label_1
_geom_bond_atom_site_label_2
_geom_bond_site_symmetry_1
_geom_bond_site_symmetry_2
Br1 C5 1_555 1_555
C1 C8 1_555 1_555
C2 C3 1_555 1_555
C3 H1 1_555 1_555
C4 C3 1_555 1_555
H2 C4 1_555 1_555
C5 C4 1_555 1_555
C6 C5 1_555 1_555
C7 C6 1_555 1_555
H3 C7 1_555 1_555
H4 C7 1_555 1_555
C8 C3 1_555 1_555
H5 C8 1_555 1_555
C9 H6 1_555 1_555
H7 C9 1_555 1_555
H8 C9 1_555 1_555
C10 C6 1_555 1_555
H9 C10 1_555 1_555
H10 C10 1_555 1_555
H11 C10 1_555 1_555
C11 C12 1_555 1_555
C12 C13 1_555 1_555
C13 H12 1_555 1_555
C14 C13 1_555 1_555
H13 C14 1_555 1_555
C15 C14 1_555 1_555
C16 C15 1_555 1_555
H14 C16 1_555 1_555
C17 C12 1_555 1_555
H15 C17 1_555 1_555
C18 H16 1_555 1_555
H17 C18 1_555 1_555
H18 C18 1_555 1_555
N1 C1 1_555 1_555
N2 C4 1_555 1_555
H19 N2 1_555 1_555
O1 C1 1_555 1_555
O2 C2 1_555 1_555
O3 C11 1_555 1_555
O4 C15 1_555 1_555
C2 N1 1_555 1_555
C7 C8 1_555 1_555
C9 N1 1_555 1_555
C11 N2 1_555 1_555
C16 C17 1_555 1_555
C18 O4 1_555 1_555

#END
