
#######################################################################
#
#                 Cambridge Crystallographic Data Centre
#                                CCDC 
#
#######################################################################
#
# If this CIF has been generated from an entry in the Cambridge 
# Structural Database, then it will include bibliographic, chemical, 
# crystal, experimental, refinement or atomic coordinate data resulting 
# from the CCDC's data processing and validation procedures.
#
#######################################################################

data_DIDNIP
_chemical_formula_moiety         'C13 H11 N1 O1'
_chemical_name_systematic        2-(Benzylideneamino)phenol
_symmetry_cell_setting           orthorhombic
_symmetry_space_group_name_H-M   'P c a 21'
_symmetry_Int_Tables_number      29
_space_group_name_Hall           'P 2c -2ac'
loop_
_symmetry_equiv_pos_site_id
_symmetry_equiv_pos_as_xyz
1 x,y,z
2 -x,-y,1/2+z
3 1/2-x,y,1/2+z
4 1/2+x,-y,z
_cell_length_a                   12.304(2)
_cell_length_b                   6.0943(11)
_cell_length_c                   13.967(2)
_cell_angle_alpha                90
_cell_angle_beta                 90
_cell_angle_gamma                90
_cell_volume                     1047.31
_exptl_crystal_colour            colorless
_exptl_crystal_description       block
_cell_formula_units_Z            4
loop_
_atom_site_label
_atom_site_type_symbol
_atom_site_fract_x
_atom_site_fract_y
_atom_site_fract_z
N1 N 0.60519(11) 0.6526(3) 0.22854(11)
C1 C 0.90609(17) 0.6723(4) 0.37792(16)
H1 H 0.9553 0.5564 0.3768
C2 C 0.42694(14) 0.8046(3) 0.17057(15)
H2 H 0.4356 0.9366 0.2031
C3 C 0.50618(12) 0.6434(3) 0.17675(12)
C4 C 0.73777(14) 0.8288(3) 0.32647(13)
C5 C 0.63529(15) 0.8192(3) 0.27353(14)
H3 H 0.5906 0.9423 0.2733
C6 C 0.76255(16) 1.0146(4) 0.37886(16)
H4 H 0.7143 1.1321 0.3792
C7 C 0.92889(17) 0.8547(4) 0.43040(14)
H5 H 0.9926 0.8621 0.4661
C8 C 0.85726(18) 1.0284(4) 0.43041(17)
H6 H 0.8730 1.1546 0.4652
C9 C 0.39846(15) 0.4104(4) 0.07380(14)
H7 H 0.3887 0.2784 0.0415
C10 C 0.33524(15) 0.7686(3) 0.11596(17)
H8 H 0.2823 0.8770 0.1114
C11 C 0.32168(15) 0.5726(4) 0.06812(15)
H9 H 0.2595 0.5502 0.0315
C12 C 0.81068(16) 0.6576(3) 0.32641(14)
H10 H 0.7956 0.5313 0.2915
C13 C 0.49088(13) 0.4458(3) 0.12845(13)
O1 O 0.56701(11) 0.2875(2) 0.13616(13)
H11 H 0.6184 0.3337 0.1676
loop_
_geom_bond_atom_site_label_1
_geom_bond_atom_site_label_2
_geom_bond_site_symmetry_1
_geom_bond_site_symmetry_2
N1 C3 1_555 1_555
C1 H1 1_555 1_555
C2 H2 1_555 1_555
C3 C2 1_555 1_555
C4 C5 1_555 1_555
C5 N1 1_555 1_555
H3 C5 1_555 1_555
C6 C4 1_555 1_555
H4 C6 1_555 1_555
C7 C1 1_555 1_555
H5 C7 1_555 1_555
C8 C6 1_555 1_555
H6 C8 1_555 1_555
C9 H7 1_555 1_555
C10 C2 1_555 1_555
H8 C10 1_555 1_555
C11 C9 1_555 1_555
H9 C11 1_555 1_555
C12 C1 1_555 1_555
H10 C12 1_555 1_555
C13 C3 1_555 1_555
O1 C13 1_555 1_555
H11 O1 1_555 1_555
C4 C12 1_555 1_555
C7 C8 1_555 1_555
C9 C13 1_555 1_555
C10 C11 1_555 1_555

#END
