
#######################################################################
#
#                 Cambridge Crystallographic Data Centre
#                                CCDC 
#
#######################################################################
#
# If this CIF has been generated from an entry in the Cambridge 
# Structural Database, then it will include bibliographic, chemical, 
# crystal, experimental, refinement or atomic coordinate data resulting 
# from the CCDC's data processing and validation procedures.
#
#######################################################################

data_DIDQIR
_chemical_formula_moiety         'C17 H32 O3 Si1'
_chemical_name_systematic        
(1R,2R,3S,4S,6S)-3-(t-Butyl(dimethyl)silyloxymethyl)-1-methyl-4-(1-methylethenyl)-7-oxabicyclo(4.1.0)heptan-2-ol
_symmetry_cell_setting           orthorhombic
_symmetry_space_group_name_H-M   'P 21 21 21'
_symmetry_Int_Tables_number      19
_space_group_name_Hall           'P 2ac 2ab'
loop_
_symmetry_equiv_pos_site_id
_symmetry_equiv_pos_as_xyz
1 x,y,z
2 1/2-x,-y,1/2+z
3 -x,1/2+y,1/2-z
4 1/2+x,1/2-y,-z
_cell_length_a                   6.5659(19)
_cell_length_b                   8.378(2)
_cell_length_c                   37.112(3)
_cell_angle_alpha                90
_cell_angle_beta                 90
_cell_angle_gamma                90
_cell_volume                     2041.5
_exptl_crystal_colour            colorless
_exptl_crystal_description       needle
_chemical_melting_point          65-68deg.C
_cell_formula_units_Z            4
loop_
_atom_site_label
_atom_site_type_symbol
_atom_site_fract_x
_atom_site_fract_y
_atom_site_fract_z
Si1 Si 0.7817(3) 0.7218(3) 0.17370(5)
O1 O 0.5770(6) 0.8472(4) 0.05425(10)
H1 H 0.5375 0.8719 0.0340
O2 O 0.2545(6) 0.7324(4) 0.01506(8)
O3 O 0.6680(7) 0.7378(5) 0.13561(10)
C1 C 0.6656(10) 0.6195(7) 0.10752(15)
H2 H 0.6931 0.5150 0.1176
H3 H 0.7705 0.6433 0.0899
C2 C 0.4608(9) 0.6198(6) 0.08971(14)
H4 H 0.3592 0.5971 0.1084
C3 C 0.4121(8) 0.7818(6) 0.07425(13)
H5 H 0.3891 0.8533 0.0948
C4 C 0.2188(9) 0.7860(7) 0.05159(13)
C5 C 0.1332(9) 0.6339(7) 0.03898(13)
H6 H -0.0136 0.6346 0.0343
C6 C 0.2196(10) 0.4776(7) 0.04822(16)
H7 H 0.2125 0.4085 0.0273
H8 H 0.1384 0.4295 0.0672
C7 C 0.4422(10) 0.4889(6) 0.06086(15)
H9 H 0.5223 0.5244 0.0401
C8 C 0.0909(11) 0.9345(8) 0.05397(17)
H10 H 0.1728 1.0212 0.0627
H11 H -0.0205 0.9166 0.0702
H12 H 0.0389 0.9605 0.0305
C9 C 0.5247(14) 0.3314(8) 0.0718(2)
C10 C 0.6690(15) 0.2604(11) 0.0532(3)
H13 H 0.7124 0.1587 0.0597
H14 H 0.7277 0.3119 0.0336
C11 C 0.4302(18) 0.2513(9) 0.1030(2)
H15 H 0.3277 0.3194 0.1132
H16 H 0.5325 0.2294 0.1208
H17 H 0.3689 0.1530 0.0953
C12 C 0.6357(16) 0.5753(14) 0.2016(2)
H18 H 0.6439 0.4715 0.1907
H19 H 0.4957 0.6079 0.2029
H20 H 0.6925 0.5713 0.2254
C13 C 1.0398(15) 0.6400(14) 0.1687(2)
H21 H 1.0322 0.5353 0.1582
H22 H 1.1036 0.6333 0.1919
H23 H 1.1185 0.7084 0.1533
C14 C 0.7752(17) 0.9207(13) 0.1936(2)
C15 C 0.5570(18) 0.9890(13) 0.1960(2)
H24 H 0.4986 0.9937 0.1723
H25 H 0.5615 1.0943 0.2061
H26 H 0.4752 0.9212 0.2111
C16 C 0.895(2) 1.0340(15) 0.1689(3)
H27 H 1.0334 0.9974 0.1669
H28 H 0.8940 1.1397 0.1789
H29 H 0.8336 1.0357 0.1455
C17 C 0.876(2) 0.9173(16) 0.2305(2)
H30 H 1.0126 0.8769 0.2282
H31 H 0.7999 0.8494 0.2463
H32 H 0.8806 1.0235 0.2402
loop_
_geom_bond_atom_site_label_1
_geom_bond_atom_site_label_2
_geom_bond_site_symmetry_1
_geom_bond_site_symmetry_2
Si1 O3 1_555 1_555
O1 H1 1_555 1_555
O2 C4 1_555 1_555
O3 C1 1_555 1_555
C1 H2 1_555 1_555
H3 C1 1_555 1_555
C2 C1 1_555 1_555
H4 C2 1_555 1_555
C3 O1 1_555 1_555
H5 C3 1_555 1_555
C4 C3 1_555 1_555
C5 O2 1_555 1_555
H6 C5 1_555 1_555
C6 C5 1_555 1_555
H7 C6 1_555 1_555
H8 C6 1_555 1_555
C7 C2 1_555 1_555
H9 C7 1_555 1_555
C8 C4 1_555 1_555
H10 C8 1_555 1_555
H11 C8 1_555 1_555
H12 C8 1_555 1_555
C9 C7 1_555 1_555
C10 C9 1_555 1_555
H13 C10 1_555 1_555
H14 C10 1_555 1_555
C11 C9 1_555 1_555
H15 C11 1_555 1_555
H16 C11 1_555 1_555
H17 C11 1_555 1_555
C12 Si1 1_555 1_555
H18 C12 1_555 1_555
H19 C12 1_555 1_555
H20 C12 1_555 1_555
C13 Si1 1_555 1_555
H21 C13 1_555 1_555
H22 C13 1_555 1_555
H23 C13 1_555 1_555
C14 Si1 1_555 1_555
C15 C14 1_555 1_555
H24 C15 1_555 1_555
H25 C15 1_555 1_555
H26 C15 1_555 1_555
C16 C14 1_555 1_555
H27 C16 1_555 1_555
H28 C16 1_555 1_555
H29 C16 1_555 1_555
C17 C14 1_555 1_555
H30 C17 1_555 1_555
H31 C17 1_555 1_555
H32 C17 1_555 1_555
C2 C3 1_555 1_555
C4 C5 1_555 1_555
C6 C7 1_555 1_555

#END
