
#######################################################################
#
#                 Cambridge Crystallographic Data Centre
#                                CCDC 
#
#######################################################################
#
# If this CIF has been generated from an entry in the Cambridge 
# Structural Database, then it will include bibliographic, chemical, 
# crystal, experimental, refinement or atomic coordinate data resulting 
# from the CCDC's data processing and validation procedures.
#
#######################################################################

data_DIFFOO
_chemical_formula_moiety         'C20 H14 O2,C6 H14 N2'
_chemical_name_systematic        
"(R,R)-(-)-1,2-Diaminocyclohexane (R)-(-)-1,1'-bi-2-naphthol"
_symmetry_cell_setting           orthorhombic
_symmetry_space_group_name_H-M   'P 21 21 21'
_symmetry_Int_Tables_number      19
_space_group_name_Hall           'P 2ac 2ab'
loop_
_symmetry_equiv_pos_site_id
_symmetry_equiv_pos_as_xyz
1 x,y,z
2 1/2-x,-y,1/2+z
3 -x,1/2+y,1/2-z
4 1/2+x,1/2-y,-z
_cell_length_a                   15.397(2)
_cell_length_b                   28.663(3)
_cell_length_c                   9.962(6)
_cell_angle_alpha                90
_cell_angle_beta                 90
_cell_angle_gamma                90
_cell_volume                     4396.47
_exptl_crystal_colour            colorless
_cell_formula_units_Z            8
loop_
_atom_site_label
_atom_site_type_symbol
_atom_site_fract_x
_atom_site_fract_y
_atom_site_fract_z
O1 O 0.77724(16) 0.96038(10) 0.6244(3)
H1 H 0.8234 0.9747 0.6235
C1 C 0.6313(2) 0.97031(12) 0.6829(4)
C2 C 0.7127(2) 0.98917(13) 0.6661(4)
C3 C 0.7279(3) 1.03712(15) 0.6928(5)
H2 H 0.7837 1.0493 0.6848
C4 C 0.6606(3) 1.06560(15) 0.7305(5)
H3 H 0.6711 1.0971 0.7452
C5 C 0.5038(3) 1.07687(15) 0.7817(5)
H4 H 0.5118 1.1088 0.7928
C6 C 0.4229(3) 1.05790(18) 0.7986(5)
H5 H 0.3762 1.0771 0.8194
C7 C 0.4102(3) 1.01047(16) 0.7849(4)
H6 H 0.3553 0.9980 0.7996
C8 C 0.4773(2) 0.98157(13) 0.7502(4)
H7 H 0.4674 0.9497 0.7415
C9 C 0.5625(2) 0.99979(13) 0.7272(4)
C10 C 0.5757(3) 1.04800(13) 0.7473(4)
O2 O 0.61271(18) 0.93538(9) 0.4099(3)
H8 H 0.6130 0.9625 0.4358
C11 C 0.6162(2) 0.92022(12) 0.6509(4)
C12 C 0.6075(2) 0.90617(13) 0.5184(4)
C13 C 0.5929(2) 0.85907(13) 0.4853(4)
H9 H 0.5883 0.8503 0.3957
C14 C 0.5855(2) 0.82641(13) 0.5827(5)
H10 H 0.5753 0.7955 0.5589
C15 C 0.5852(3) 0.80515(15) 0.8244(5)
H11 H 0.5726 0.7743 0.8029
C16 C 0.5955(3) 0.81731(19) 0.9551(5)
H12 H 0.5897 0.7949 1.0220
C17 C 0.6148(3) 0.86305(19) 0.9890(5)
H13 H 0.6231 0.8710 1.0786
C18 C 0.6219(2) 0.89705(16) 0.8910(4)
H14 H 0.6343 0.9276 0.9156
C19 C 0.6105(2) 0.88578(13) 0.7533(4)
C20 C 0.5930(2) 0.83835(13) 0.7205(4)
N1 N 0.9419(2) 0.98954(17) 0.5901(4)
H15 H 0.947(3) 1.0195(16) 0.540(5)
H16 H 0.957(3) 0.9611(17) 0.582(6)
C21 C 1.0031(2) 1.00136(14) 0.7006(4)
H17 H 0.981(2) 1.0337(13) 0.732(4)
C22 C 1.0956(3) 1.00566(18) 0.6470(5)
H18 H 1.097(3) 1.0326(15) 0.568(5)
H19 H 1.106(3) 0.9756(16) 0.606(5)
C23 C 1.1607(3) 1.0160(2) 0.7594(6)
H20 H 1.149(3) 1.0495(19) 0.810(6)
H21 H 1.222(4) 1.0120(16) 0.704(6)
C24 C 1.1563(3) 0.9778(2) 0.8639(6)
H22 H 1.167(4) 0.9460(19) 0.828(6)
H23 H 1.195(4) 0.9858(17) 0.945(6)
C25 C 1.0646(3) 0.97475(19) 0.9221(5)
H24 H 1.057(3) 0.9430(17) 0.985(5)
H25 H 1.051(3) 1.0074(17) 0.963(5)
C26 C 0.9963(2) 0.96592(14) 0.8125(4)
H26 H 1.008(3) 0.9337(14) 0.778(5)
N2 N 0.9093(3) 0.96848(13) 0.8772(4)
H27 H 0.867(3) 0.9587(15) 0.801(5)
H28 H 0.908(3) 0.9456(16) 0.949(5)
O3 O 0.58270(16) 0.77831(8) 0.2653(3)
H29 H 0.5372 0.7713 0.3030
C27 C 0.6268(2) 0.70178(12) 0.3418(4)
C28 C 0.6447(2) 0.74576(12) 0.2937(4)
C29 C 0.7303(2) 0.75938(15) 0.2640(4)
H30 H 0.7413 0.7891 0.2305
C30 C 0.7967(2) 0.72935(17) 0.2841(5)
H31 H 0.8530 0.7389 0.2642
C31 C 0.8522(2) 0.65196(19) 0.3604(5)
H32 H 0.9089 0.6607 0.3407
C32 C 0.8376(3) 0.60930(19) 0.4127(6)
H33 H 0.8837 0.5892 0.4294
C33 C 0.7530(3) 0.59570(15) 0.4414(5)
H34 H 0.7429 0.5662 0.4772
C34 C 0.6842(2) 0.62501(13) 0.4179(5)
H35 H 0.6282 0.6149 0.4372
C35 C 0.6969(2) 0.67012(12) 0.3650(4)
C36 C 0.7835(2) 0.68426(15) 0.3341(4)
O4 O 0.54569(16) 0.69512(9) 0.6094(3)
H36 H 0.5922 0.7074 0.5906
C37 C 0.5348(2) 0.68730(11) 0.3669(4)
C38 C 0.5017(2) 0.68535(12) 0.4950(5)
C39 C 0.4130(2) 0.67287(13) 0.5167(5)
H37 H 0.3907 0.6720 0.6034
C40 C 0.3614(3) 0.66225(14) 0.4111(6)
H38 H 0.3043 0.6531 0.4272
C41 C 0.3378(3) 0.65586(16) 0.1647(7)
H39 H 0.2802 0.6474 0.1789
C42 C 0.3679(3) 0.6594(2) 0.0367(8)
H40 H 0.3308 0.6544 -0.0355
C43 C 0.4553(3) 0.6706(2) 0.0148(6)
H41 H 0.4766 0.6720 -0.0725
C44 C 0.5097(3) 0.67940(15) 0.1204(5)
H42 H 0.5674 0.6871 0.1035
C45 C 0.4801(2) 0.67700(12) 0.2554(5)
C46 C 0.3914(2) 0.66461(13) 0.2762(6)
N3 N 0.4130(2) 0.78466(13) 0.3469(4)
H43 H 0.389(3) 0.7579(15) 0.378(5)
H44 H 0.420(3) 0.8091(15) 0.391(5)
C47 C 0.3569(2) 0.79730(13) 0.2320(4)
H45 H 0.353(2) 0.7684(14) 0.176(4)
C48 C 0.3970(3) 0.83771(17) 0.1558(5)
H46 H 0.396(3) 0.8643(16) 0.220(5)
H47 H 0.464(3) 0.8327(15) 0.162(5)
C49 C 0.3468(4) 0.8503(2) 0.0302(6)
H48 H 0.346(3) 0.8191(19) -0.047(6)
H49 H 0.370(4) 0.8780(19) -0.020(6)
C50 C 0.2512(4) 0.8604(2) 0.0648(7)
H50 H 0.250(4) 0.892(2) 0.108(6)
H51 H 0.223(4) 0.868(2) -0.011(7)
C51 C 0.2110(3) 0.82114(19) 0.1435(5)
H52 H 0.151(3) 0.8279(16) 0.165(6)
H53 H 0.203(3) 0.7891(17) 0.087(5)
C52 C 0.2626(2) 0.80937(13) 0.2702(4)
H54 H 0.266(2) 0.8363(13) 0.319(4)
N4 N 0.2163(2) 0.77359(12) 0.3479(4)
H55 H 0.245(3) 0.7689(15) 0.427(5)
H56 H 0.215(3) 0.7455(14) 0.305(5)
loop_
_geom_bond_atom_site_label_1
_geom_bond_atom_site_label_2
_geom_bond_site_symmetry_1
_geom_bond_site_symmetry_2
O1 H1 1_555 1_555
C1 C2 1_555 1_555
C2 O1 1_555 1_555
C3 C2 1_555 1_555
H2 C3 1_555 1_555
C4 C3 1_555 1_555
H3 C4 1_555 1_555
C5 H4 1_555 1_555
C6 C5 1_555 1_555
H5 C6 1_555 1_555
C7 C6 1_555 1_555
H6 C7 1_555 1_555
C8 C7 1_555 1_555
H7 C8 1_555 1_555
C9 C1 1_555 1_555
C10 C4 1_555 1_555
O2 H8 1_555 1_555
C11 C1 1_555 1_555
C12 O2 1_555 1_555
C13 C12 1_555 1_555
H9 C13 1_555 1_555
C14 C13 1_555 1_555
H10 C14 1_555 1_555
C15 H11 1_555 1_555
C16 C15 1_555 1_555
H12 C16 1_555 1_555
C17 C16 1_555 1_555
H13 C17 1_555 1_555
C18 C17 1_555 1_555
H14 C18 1_555 1_555
C19 C11 1_555 1_555
C20 C14 1_555 1_555
N1 H15 1_555 1_555
H16 N1 1_555 1_555
C21 N1 1_555 1_555
H17 C21 1_555 1_555
C22 C21 1_555 1_555
H18 C22 1_555 1_555
H19 C22 1_555 1_555
C23 C22 1_555 1_555
H20 C23 1_555 1_555
H21 C23 1_555 1_555
C24 C23 1_555 1_555
H22 C24 1_555 1_555
H23 C24 1_555 1_555
C25 C24 1_555 1_555
H24 C25 1_555 1_555
H25 C25 1_555 1_555
C26 C21 1_555 1_555
H26 C26 1_555 1_555
N2 C26 1_555 1_555
H27 N2 1_555 1_555
H28 N2 1_555 1_555
O3 H29 1_555 1_555
C27 C28 1_555 1_555
C28 O3 1_555 1_555
C29 C28 1_555 1_555
H30 C29 1_555 1_555
C30 C29 1_555 1_555
H31 C30 1_555 1_555
C31 H32 1_555 1_555
C32 C31 1_555 1_555
H33 C32 1_555 1_555
C33 C32 1_555 1_555
H34 C33 1_555 1_555
C34 C33 1_555 1_555
H35 C34 1_555 1_555
C35 C27 1_555 1_555
C36 C30 1_555 1_555
O4 H36 1_555 1_555
C37 C27 1_555 1_555
C38 O4 1_555 1_555
C39 C38 1_555 1_555
H37 C39 1_555 1_555
C40 C39 1_555 1_555
H38 C40 1_555 1_555
C41 H39 1_555 1_555
C42 C41 1_555 1_555
H40 C42 1_555 1_555
C43 C42 1_555 1_555
H41 C43 1_555 1_555
C44 C43 1_555 1_555
H42 C44 1_555 1_555
C45 C37 1_555 1_555
C46 C40 1_555 1_555
N3 H43 1_555 1_555
H44 N3 1_555 1_555
C47 N3 1_555 1_555
H45 C47 1_555 1_555
C48 C47 1_555 1_555
H46 C48 1_555 1_555
H47 C48 1_555 1_555
C49 C48 1_555 1_555
H48 C49 1_555 1_555
H49 C49 1_555 1_555
C50 C49 1_555 1_555
H50 C50 1_555 1_555
H51 C50 1_555 1_555
C51 C50 1_555 1_555
H52 C51 1_555 1_555
H53 C51 1_555 1_555
C52 C47 1_555 1_555
H54 C52 1_555 1_555
N4 C52 1_555 1_555
H55 N4 1_555 1_555
H56 N4 1_555 1_555
C5 C10 1_555 1_555
C8 C9 1_555 1_555
C9 C10 1_555 1_555
C11 C12 1_555 1_555
C15 C20 1_555 1_555
C18 C19 1_555 1_555
C19 C20 1_555 1_555
C25 C26 1_555 1_555
C31 C36 1_555 1_555
C34 C35 1_555 1_555
C35 C36 1_555 1_555
C37 C38 1_555 1_555
C41 C46 1_555 1_555
C44 C45 1_555 1_555
C45 C46 1_555 1_555
C51 C52 1_555 1_555

#END
