
#######################################################################
#
#                 Cambridge Crystallographic Data Centre
#                                CCDC 
#
#######################################################################
#
# If this CIF has been generated from an entry in the Cambridge 
# Structural Database, then it will include bibliographic, chemical, 
# crystal, experimental, refinement or atomic coordinate data resulting 
# from the CCDC's data processing and validation procedures.
#
#######################################################################

data_DIFMIQ
_chemical_formula_moiety         'C15 H11 N3 O1'
_chemical_name_systematic        N-(Quinolin-3-yl)nicotinamide
_symmetry_cell_setting           monoclinic
_symmetry_space_group_name_H-M   'P 21'
_symmetry_Int_Tables_number      4
_space_group_name_Hall           'P 2yb'
loop_
_symmetry_equiv_pos_site_id
_symmetry_equiv_pos_as_xyz
1 x,y,z
2 -x,1/2+y,-z
_cell_length_a                   8.5100(17)
_cell_length_b                   6.4230(13)
_cell_length_c                   11.620(2)
_cell_angle_alpha                90
_cell_angle_beta                 110.39(3)
_cell_angle_gamma                90
_cell_volume                     595.35
_cell_formula_units_Z            2
loop_
_atom_site_label
_atom_site_type_symbol
_atom_site_fract_x
_atom_site_fract_y
_atom_site_fract_z
C1 C 0.2063(4) 0.4989(6) 0.6142(3)
H1 H 0.2098 0.4025 0.5555
C2 C 0.2908(4) 0.4525(6) 0.7355(3)
C3 C 0.2807(4) 0.5931(6) 0.8228(3)
H2 H 0.3338 0.5665 0.9061
C4 C 0.1901(4) 0.7738(6) 0.7837(3)
H3 H 0.1812 0.8710 0.8404
C5 C 0.1136(4) 0.8086(7) 0.6608(3)
H4 H 0.0549 0.9324 0.6360
C6 C 0.3957(4) 0.2592(5) 0.7785(3)
C7 C 0.5425(4) -0.0196(5) 0.7065(3)
C8 C 0.6070(4) -0.1374(6) 0.8107(3)
H5 H 0.5884 -0.1005 0.8822
C9 C 0.7024(4) -0.3156(6) 0.8074(3)
C10 C 0.7697(5) -0.4497(7) 0.9098(3)
H6 H 0.7538 -0.4181 0.9831
C11 C 0.8567(5) -0.6231(7) 0.9027(4)
H7 H 0.8997 -0.7091 0.9709
C12 C 0.8821(5) -0.6733(7) 0.7934(4)
H8 H 0.9422 -0.7925 0.7897
C13 C 0.8200(4) -0.5502(6) 0.6924(3)
H9 H 0.8367 -0.5855 0.6198
C14 C 0.7295(4) -0.3669(5) 0.6985(3)
C15 C 0.5803(4) -0.0808(6) 0.6029(3)
H10 H 0.5394 0.0023 0.5332
N1 N 0.1187(4) 0.6753(6) 0.5751(3)
N2 N 0.4405(3) 0.1575(4) 0.6915(2)
H11 H 0.4014 0.2080 0.6184
N3 N 0.6684(3) -0.2450(5) 0.5960(2)
O1 O 0.4389(3) 0.2022(5) 0.88494(19)
loop_
_geom_bond_atom_site_label_1
_geom_bond_atom_site_label_2
_geom_bond_site_symmetry_1
_geom_bond_site_symmetry_2
C1 H1 1_555 1_555
C2 C1 1_555 1_555
C3 C2 1_555 1_555
H2 C3 1_555 1_555
C4 C3 1_555 1_555
H3 C4 1_555 1_555
C5 C4 1_555 1_555
H4 C5 1_555 1_555
C6 C2 1_555 1_555
C7 C8 1_555 1_555
C8 H5 1_555 1_555
C9 C8 1_555 1_555
C10 C9 1_555 1_555
H6 C10 1_555 1_555
C11 C10 1_555 1_555
H7 C11 1_555 1_555
C12 C11 1_555 1_555
H8 C12 1_555 1_555
C13 C12 1_555 1_555
H9 C13 1_555 1_555
C14 C9 1_555 1_555
C15 C7 1_555 1_555
H10 C15 1_555 1_555
N1 C1 1_555 1_555
N2 C6 1_555 1_555
H11 N2 1_555 1_555
N3 C14 1_555 1_555
O1 C6 1_555 1_555
C5 N1 1_555 1_555
C7 N2 1_555 1_555
C13 C14 1_555 1_555
C15 N3 1_555 1_555

#END
