
#######################################################################
#
#                 Cambridge Crystallographic Data Centre
#                                CCDC 
#
#######################################################################
#
# If this CIF has been generated from an entry in the Cambridge 
# Structural Database, then it will include bibliographic, chemical, 
# crystal, experimental, refinement or atomic coordinate data resulting 
# from the CCDC's data processing and validation procedures.
#
#######################################################################

data_DIFQOB
_chemical_formula_moiety         'C10 H8 Cl1 N3 O1'
_chemical_name_systematic        
4-chloro-6-(2-oxopyrrolidin-1-yl)pyridine-3-carbonitrile
_symmetry_cell_setting           triclinic
_symmetry_space_group_name_H-M   'P -1'
_symmetry_Int_Tables_number      2
_space_group_name_Hall           '-P 1'
loop_
_symmetry_equiv_pos_site_id
_symmetry_equiv_pos_as_xyz
1 x,y,z
2 -x,-y,-z
_cell_length_a                   6.35870(10)
_cell_length_b                   7.2260(2)
_cell_length_c                   11.2058(3)
_cell_angle_alpha                94.095(2)
_cell_angle_beta                 101.312(2)
_cell_angle_gamma                103.109(2)
_cell_volume                     488.09
_exptl_crystal_colour            colorless
_exptl_crystal_description       rod
_cell_formula_units_Z            2
loop_
_atom_site_label
_atom_site_type_symbol
_atom_site_fract_x
_atom_site_fract_y
_atom_site_fract_z
C1 C 0.0658(2) 0.1838(2) 0.19617(12)
H1 H -0.037529 0.218409 0.244363
H2 H 0.035759 0.042594 0.181186
C2 C 0.0462(2) 0.2720(2) 0.07584(13)
H3 H -0.060230 0.181885 0.008559
H4 H -0.002582 0.392097 0.083839
C3 C 0.2789(2) 0.3109(2) 0.05229(13)
H5 H 0.299106 0.199913 0.002679
H6 H 0.309506 0.425328 0.008853
C4 C 0.4280(2) 0.34407(19) 0.17854(13)
C5 C 0.3732(2) 0.24820(18) 0.38134(12)
C6 C 0.5950(2) 0.31782(18) 0.44412(12)
H7 H 0.703977 0.383005 0.404440
C7 C 0.6487(2) 0.28819(18) 0.56512(12)
C8 C 0.4856(2) 0.19226(18) 0.62238(12)
C9 C 0.2722(2) 0.12824(19) 0.55137(12)
H8 H 0.160357 0.061856 0.588782
C10 C 0.5323(2) 0.1546(2) 0.74753(13)
N1 N 0.29844(19) 0.26931(16) 0.25938(10)
N2 N 0.21446(19) 0.15409(16) 0.43411(11)
N3 N 0.5627(2) 0.11802(19) 0.84660(11)
O1 O 0.62509(16) 0.41944(15) 0.20678(9)
Cl1 Cl 0.91745(5) 0.36864(4) 0.64828(3)
loop_
_geom_bond_atom_site_label_1
_geom_bond_atom_site_label_2
_geom_bond_site_symmetry_1
_geom_bond_site_symmetry_2
C1 H1 1_555 1_555
H2 C1 1_555 1_555
C2 C1 1_555 1_555
H3 C2 1_555 1_555
H4 C2 1_555 1_555
C3 C2 1_555 1_555
H5 C3 1_555 1_555
H6 C3 1_555 1_555
C4 C3 1_555 1_555
C5 C6 1_555 1_555
C6 H7 1_555 1_555
C7 C6 1_555 1_555
C8 C7 1_555 1_555
C9 C8 1_555 1_555
H8 C9 1_555 1_555
C10 C8 1_555 1_555
N1 C1 1_555 1_555
N2 C5 1_555 1_555
N3 C10 1_555 1_555
O1 C4 1_555 1_555
Cl1 C7 1_555 1_555
C4 N1 1_555 1_555
C5 N1 1_555 1_555
C9 N2 1_555 1_555

#END
