
#######################################################################
#
#                 Cambridge Crystallographic Data Centre
#                                CCDC 
#
#######################################################################
#
# If this CIF has been generated from an entry in the Cambridge 
# Structural Database, then it will include bibliographic, chemical, 
# crystal, experimental, refinement or atomic coordinate data resulting 
# from the CCDC's data processing and validation procedures.
#
#######################################################################

data_DIFWIZ
_chemical_formula_moiety         'C30 H25 O1 P1'
_chemical_name_systematic        
"(S,S,S~a~)-3,5-Dimethyl-4-phenyl-4,5-dihydro-3H-dinaphtho(2,1-c:1',2'-e)phosphepine oxide"
_symmetry_cell_setting           monoclinic
_symmetry_space_group_name_H-M   'P 21'
_symmetry_Int_Tables_number      4
_space_group_name_Hall           'P 2yb'
loop_
_symmetry_equiv_pos_site_id
_symmetry_equiv_pos_as_xyz
1 x,y,z
2 -x,1/2+y,-z
_cell_length_a                   7.9851(16)
_cell_length_b                   11.407(2)
_cell_length_c                   12.625(3)
_cell_angle_alpha                90
_cell_angle_beta                 98.27(3)
_cell_angle_gamma                90
_cell_volume                     1138
_exptl_crystal_colour            colorless
_exptl_crystal_description       prism
_chemical_melting_point          '565-578 K'
_cell_formula_units_Z            2
loop_
_atom_site_label
_atom_site_type_symbol
_atom_site_fract_x
_atom_site_fract_y
_atom_site_fract_z
C1 C -0.3143(3) -0.6796(2) -0.47332(19)
H1 H -0.3347 -0.6151 -0.5249
C2 C -0.2524(3) -0.62154(19) -0.3679(2)
C3 C -0.2227(3) -0.4981(2) -0.3679(2)
H2 H -0.2495 -0.4562 -0.4313
C4 C -0.1568(3) -0.4411(2) -0.2783(2)
H3 H -0.1453 -0.3600 -0.2800
C5 C -0.1051(3) -0.5015(2) -0.1824(2)
C6 C -0.0239(4) -0.4456(2) -0.0899(2)
H4 H -0.0080 -0.3649 -0.0911
C7 C 0.0322(4) -0.5054(3) 0.0012(3)
H5 H 0.0846 -0.4665 0.0618
C8 C 0.0093(4) -0.6276(2) 0.0021(2)
H6 H 0.0486 -0.6703 0.0635
C9 C -0.0687(3) -0.6831(2) -0.0849(2)
H7 H -0.0819 -0.7640 -0.0820
C10 C -0.1310(3) -0.62472(18) -0.17996(19)
C11 C -0.2103(3) -0.6827(2) -0.2735(2)
C12 C -0.2515(3) -0.81190(18) -0.26953(18)
C13 C -0.3739(3) -0.84839(18) -0.20422(17)
C14 C -0.4605(3) -0.7708(2) -0.14429(17)
H8 H -0.4363 -0.6911 -0.1465
C15 C -0.5769(4) -0.8070(3) -0.0839(2)
H9 H -0.6321 -0.7525 -0.0463
C16 C -0.6148(4) -0.9267(3) -0.0777(2)
H10 H -0.6936 -0.9521 -0.0352
C17 C -0.5359(4) -1.0042(2) -0.1339(2)
H11 H -0.5610 -1.0834 -0.1288
C18 C -0.4168(3) -0.9702(2) -0.20010(19)
C19 C -0.3353(4) -1.0488(2) -0.2609(2)
H12 H -0.3593 -1.1283 -0.2574
C20 C -0.2243(3) -1.0134(2) -0.3237(2)
H13 H -0.1755 -1.0684 -0.3643
C21 C -0.1790(3) -0.89275(19) -0.32981(17)
C22 C -0.0518(3) -0.8604(2) -0.40360(18)
H14 H -0.0252 -0.9335 -0.4385
C23 C -0.4839(3) -0.7463(3) -0.48267(19)
H15 H -0.5690 -0.6960 -0.4608
H16 H -0.4707 -0.8143 -0.4375
H17 H -0.5174 -0.7701 -0.5556
C24 C 0.1158(3) -0.8165(2) -0.3416(2)
H18 H 0.1557 -0.8714 -0.2860
H19 H 0.0984 -0.7415 -0.3104
H20 H 0.1981 -0.8091 -0.3896
C25 C -0.2215(3) -0.8440(2) -0.62653(19)
C26 C -0.2573(4) -0.7854(2) -0.7217(2)
H21 H -0.2322 -0.7059 -0.7244
C27 C -0.3296(4) -0.8415(3) -0.8135(2)
H22 H -0.3524 -0.8001 -0.8775
C28 C -0.3677(4) -0.9577(3) -0.8106(2)
H23 H -0.4176 -0.9957 -0.8723
C29 C -0.3321(4) -1.0186(2) -0.7165(2)
H24 H -0.3578 -1.0979 -0.7143
C30 C -0.2587(3) -0.9624(2) -0.6258(2)
H25 H -0.2333 -1.0047 -0.5625
O1 O -0.0018(2) -0.67639(16) -0.53770(14)
P1 P -0.13289(8) -0.75940(6) -0.51174(5)
loop_
_geom_bond_atom_site_label_1
_geom_bond_atom_site_label_2
_geom_bond_site_symmetry_1
_geom_bond_site_symmetry_2
C1 H1 1_555 1_555
C2 C1 1_555 1_555
C3 C2 1_555 1_555
H2 C3 1_555 1_555
C4 C3 1_555 1_555
H3 C4 1_555 1_555
C5 C4 1_555 1_555
C6 C5 1_555 1_555
H4 C6 1_555 1_555
C7 C6 1_555 1_555
H5 C7 1_555 1_555
C8 C7 1_555 1_555
H6 C8 1_555 1_555
C9 C8 1_555 1_555
H7 C9 1_555 1_555
C10 C5 1_555 1_555
C11 C2 1_555 1_555
C12 C11 1_555 1_555
C13 C12 1_555 1_555
C14 C13 1_555 1_555
H8 C14 1_555 1_555
C15 C14 1_555 1_555
H9 C15 1_555 1_555
C16 C15 1_555 1_555
H10 C16 1_555 1_555
C17 C16 1_555 1_555
H11 C17 1_555 1_555
C18 C13 1_555 1_555
C19 C18 1_555 1_555
H12 C19 1_555 1_555
C20 C19 1_555 1_555
H13 C20 1_555 1_555
C21 C12 1_555 1_555
C22 C21 1_555 1_555
H14 C22 1_555 1_555
C23 C1 1_555 1_555
H15 C23 1_555 1_555
H16 C23 1_555 1_555
H17 C23 1_555 1_555
C24 C22 1_555 1_555
H18 C24 1_555 1_555
H19 C24 1_555 1_555
H20 C24 1_555 1_555
C25 C26 1_555 1_555
C26 H21 1_555 1_555
C27 C26 1_555 1_555
H22 C27 1_555 1_555
C28 C27 1_555 1_555
H23 C28 1_555 1_555
C29 C28 1_555 1_555
H24 C29 1_555 1_555
C30 C25 1_555 1_555
H25 C30 1_555 1_555
O1 P1 1_555 1_555
P1 C1 1_555 1_555
C9 C10 1_555 1_555
C10 C11 1_555 1_555
C17 C18 1_555 1_555
C20 C21 1_555 1_555
C22 P1 1_555 1_555
C25 P1 1_555 1_555
C29 C30 1_555 1_555

#END
