
#######################################################################
#
#                 Cambridge Crystallographic Data Centre
#                                CCDC 
#
#######################################################################
#
# If this CIF has been generated from an entry in the Cambridge 
# Structural Database, then it will include bibliographic, chemical, 
# crystal, experimental, refinement or atomic coordinate data resulting 
# from the CCDC's data processing and validation procedures.
#
#######################################################################

data_DIFYAT
_chemical_formula_moiety         'C34 H45 Cl1 Si4'
_chemical_name_systematic        
6-chloro-2,3,9,10-tetrakis(trimethylsilyl)pentacene
_symmetry_cell_setting           triclinic
_symmetry_space_group_name_H-M   'P -1'
_symmetry_Int_Tables_number      2
_space_group_name_Hall           '-P 1'
loop_
_symmetry_equiv_pos_site_id
_symmetry_equiv_pos_as_xyz
1 x,y,z
2 -x,-y,-z
_cell_length_a                   9.584(2)
_cell_length_b                   12.072(3)
_cell_length_c                   15.685(4)
_cell_angle_alpha                89.654(6)
_cell_angle_beta                 78.430(5)
_cell_angle_gamma                80.523(5)
_cell_volume                     1752.9
_exptl_crystal_colour            black
_exptl_crystal_description       Block
_chemical_melting_point          '320 deg.C (dec.)'
_cell_formula_units_Z            2
loop_
_atom_site_label
_atom_site_type_symbol
_atom_site_fract_x
_atom_site_fract_y
_atom_site_fract_z
Cl1 Cl 0.27079(10) 0.78140(9) 0.44061(7)
Si1 Si 0.70340(11) 1.18902(8) 0.16117(7)
Si2 Si 1.04626(10) 1.13548(8) 0.25295(7)
Si3 Si 0.07831(11) 0.34222(8) 0.78614(7)
Si4 Si 0.42519(11) 0.30007(9) 0.87582(7)
C1 C 0.4295(3) 0.7574(3) 0.4812(2)
C2 C 0.5339(3) 0.8254(3) 0.4531(2)
C3 C 0.5198(4) 0.9128(3) 0.3939(2)
H1 H 0.4342 0.9303 0.3737
C4 C 0.6295(3) 0.9733(3) 0.3653(2)
C5 C 0.6238(4) 1.0555(3) 0.2986(2)
H2 H 0.5367 1.0755 0.2803
C6 C 0.7361(4) 1.1058(3) 0.2605(2)
C7 C 0.8712(3) 1.0819(3) 0.2937(2)
C8 C 0.8751(4) 1.0097(3) 0.3604(2)
H3 H 0.9580 0.9977 0.3837
C9 C 0.7601(4) 0.9510(3) 0.3970(2)
C10 C 0.7743(4) 0.8682(3) 0.4582(2)
H4 H 0.8579 0.8557 0.4809
C11 C 0.6663(4) 0.8030(3) 0.4867(2)
C12 C 0.6841(4) 0.7167(3) 0.5439(2)
H5 H 0.7699 0.7020 0.5641
C13 C 0.5793(4) 0.6515(3) 0.5722(2)
C14 C 0.5957(4) 0.5669(3) 0.6335(2)
H6 H 0.6823 0.5521 0.6530
C15 C 0.4893(4) 0.5055(3) 0.6656(2)
C16 C 0.4978(4) 0.4300(3) 0.7358(2)
H7 H 0.5844 0.4153 0.7552
C17 C 0.3867(4) 0.3782(3) 0.7763(2)
C18 C 0.2550(4) 0.3927(3) 0.7402(2)
C19 C 0.2492(4) 0.4599(3) 0.6695(2)
H8 H 0.1686 0.4645 0.6442
C20 C 0.3588(3) 0.5230(3) 0.6323(2)
C21 C 0.3413(4) 0.6018(3) 0.5701(2)
H9 H 0.2578 0.6105 0.5473
C22 C 0.4467(3) 0.6699(3) 0.5396(2)
C23 C 0.7743(5) 1.0959(3) 0.0619(3)
H10 H 0.7583 1.1371 0.0112
H11 H 0.7250 1.0324 0.0664
H12 H 0.8759 1.0704 0.0572
C24 C 0.5048(4) 1.2299(4) 0.1702(3)
H13 H 0.4863 1.2721 0.1204
H14 H 0.4646 1.2752 0.2222
H15 H 0.4611 1.1636 0.1726
C25 C 0.7785(5) 1.3221(3) 0.1455(3)
H16 H 0.7557 1.3569 0.0937
H17 H 0.8814 1.3060 0.1399
H18 H 0.7370 1.3720 0.1948
C26 C 1.1105(5) 1.1144(4) 0.1335(3)
H19 H 1.1995 1.1429 0.1160
H20 H 1.0393 1.1538 0.1041
H21 H 1.1261 1.0357 0.1186
C27 C 1.0351(5) 1.2839(4) 0.2881(4)
H22 H 1.1258 1.3081 0.2663
H23 H 1.0136 1.2898 0.3505
H24 H 0.9602 1.3304 0.2657
C28 C 1.1910(4) 1.0517(4) 0.3020(3)
H25 H 1.2806 1.0783 0.2817
H26 H 1.2018 0.9739 0.2852
H27 H 1.1650 1.0598 0.3643
C29 C -0.0287(5) 0.3436(4) 0.6989(3)
H28 H -0.1183 0.3182 0.7218
H29 H 0.0252 0.2948 0.6514
H30 H -0.0482 0.4187 0.6786
C30 C -0.0281(4) 0.4428(3) 0.8738(3)
H31 H -0.1179 0.4183 0.8976
H32 H -0.0471 0.5160 0.8501
H33 H 0.0257 0.4462 0.9189
C31 C 0.0951(5) 0.1971(3) 0.8272(3)
H34 H 0.0006 0.1793 0.8490
H35 H 0.1483 0.1917 0.8733
H36 H 0.1451 0.1451 0.7807
C32 C 0.2770(5) 0.3372(5) 0.9721(3)
H37 H 0.3009 0.2958 1.0211
H38 H 0.1892 0.3188 0.9598
H39 H 0.2641 0.4162 0.9852
C33 C 0.4707(6) 0.1465(4) 0.8546(4)
H40 H 0.4895 0.1098 0.9066
H41 H 0.5550 0.1299 0.8089
H42 H 0.3912 0.1200 0.8372
C34 C 0.5869(5) 0.3442(5) 0.9070(3)
H43 H 0.6071 0.3048 0.9577
H44 H 0.5678 0.4236 0.9196
H45 H 0.6687 0.3268 0.8598
loop_
_geom_bond_atom_site_label_1
_geom_bond_atom_site_label_2
_geom_bond_site_symmetry_1
_geom_bond_site_symmetry_2
Cl1 C1 1_555 1_555
Si1 C6 1_555 1_555
Si2 C7 1_555 1_555
Si3 C18 1_555 1_555
Si4 C17 1_555 1_555
C1 C2 1_555 1_555
C2 C3 1_555 1_555
C3 H1 1_555 1_555
C4 C3 1_555 1_555
C5 C4 1_555 1_555
H2 C5 1_555 1_555
C6 C5 1_555 1_555
C7 C6 1_555 1_555
C8 C7 1_555 1_555
H3 C8 1_555 1_555
C9 C4 1_555 1_555
C10 C9 1_555 1_555
H4 C10 1_555 1_555
C11 C2 1_555 1_555
C12 C11 1_555 1_555
H5 C12 1_555 1_555
C13 C12 1_555 1_555
C14 C13 1_555 1_555
H6 C14 1_555 1_555
C15 C14 1_555 1_555
C16 C15 1_555 1_555
H7 C16 1_555 1_555
C17 C16 1_555 1_555
C18 C17 1_555 1_555
C19 C18 1_555 1_555
H8 C19 1_555 1_555
C20 C15 1_555 1_555
C21 C20 1_555 1_555
H9 C21 1_555 1_555
C22 C1 1_555 1_555
C23 Si1 1_555 1_555
H10 C23 1_555 1_555
H11 C23 1_555 1_555
H12 C23 1_555 1_555
C24 Si1 1_555 1_555
H13 C24 1_555 1_555
H14 C24 1_555 1_555
H15 C24 1_555 1_555
C25 Si1 1_555 1_555
H16 C25 1_555 1_555
H17 C25 1_555 1_555
H18 C25 1_555 1_555
C26 Si2 1_555 1_555
H19 C26 1_555 1_555
H20 C26 1_555 1_555
H21 C26 1_555 1_555
C27 Si2 1_555 1_555
H22 C27 1_555 1_555
H23 C27 1_555 1_555
H24 C27 1_555 1_555
C28 Si2 1_555 1_555
H25 C28 1_555 1_555
H26 C28 1_555 1_555
H27 C28 1_555 1_555
C29 Si3 1_555 1_555
H28 C29 1_555 1_555
H29 C29 1_555 1_555
H30 C29 1_555 1_555
C30 Si3 1_555 1_555
H31 C30 1_555 1_555
H32 C30 1_555 1_555
H33 C30 1_555 1_555
C31 Si3 1_555 1_555
H34 C31 1_555 1_555
H35 C31 1_555 1_555
H36 C31 1_555 1_555
C32 Si4 1_555 1_555
H37 C32 1_555 1_555
H38 C32 1_555 1_555
H39 C32 1_555 1_555
C33 Si4 1_555 1_555
H40 C33 1_555 1_555
H41 C33 1_555 1_555
H42 C33 1_555 1_555
C34 Si4 1_555 1_555
H43 C34 1_555 1_555
H44 C34 1_555 1_555
H45 C34 1_555 1_555
C8 C9 1_555 1_555
C10 C11 1_555 1_555
C13 C22 1_555 1_555
C19 C20 1_555 1_555
C21 C22 1_555 1_555

#END
