
#######################################################################
#
#                 Cambridge Crystallographic Data Centre
#                                CCDC 
#
#######################################################################
#
# If this CIF has been generated from an entry in the Cambridge 
# Structural Database, then it will include bibliographic, chemical, 
# crystal, experimental, refinement or atomic coordinate data resulting 
# from the CCDC's data processing and validation procedures.
#
#######################################################################

data_DIGSOE
_chemical_formula_moiety         'C14 H8 N2 O2 S1'
_chemical_name_systematic        4,7-bis(furan-2-yl)-2,1,3-benzothiadiazole
_symmetry_cell_setting           monoclinic
_symmetry_space_group_name_H-M   'P 21/n'
_symmetry_Int_Tables_number      14
_space_group_name_Hall           '-P 2yn'
loop_
_symmetry_equiv_pos_site_id
_symmetry_equiv_pos_as_xyz
1 x,y,z
2 1/2-x,1/2+y,1/2-z
3 -x,-y,-z
4 1/2+x,1/2-y,1/2+z
_cell_length_a                   14.145(5)
_cell_length_b                   4.5741(18)
_cell_length_c                   18.057(7)
_cell_angle_alpha                90
_cell_angle_beta                 100.225(10)
_cell_angle_gamma                90
_cell_volume                     1149.74
_exptl_crystal_colour            red
_exptl_crystal_description       tablet
_cell_formula_units_Z            4
_exptl_crystal_recrystallization_method 
'Re-crystallisation from solvent: Ethanol'
loop_
_atom_site_label
_atom_site_type_symbol
_atom_site_fract_x
_atom_site_fract_y
_atom_site_fract_z
S1 S 0.09724(4) 0.49199(13) 0.60944(3)
O1 O 0.24700(9) 0.9616(3) 0.34975(7)
O2 O 0.48140(10) -0.0192(3) 0.61904(8)
N1 N 0.11462(12) 0.6687(4) 0.53552(9)
N2 N 0.19577(12) 0.3067(4) 0.62936(9)
C1 C 0.20157(13) 0.5864(4) 0.52281(10)
C2 C 0.24692(13) 0.6882(4) 0.46276(10)
C3 C 0.33620(13) 0.5728(4) 0.46006(11)
H1 H 0.368751 0.635621 0.421169
C4 C 0.38148(14) 0.3654(4) 0.51254(11)
H2 H 0.442661 0.292450 0.506824
C5 C 0.34121(13) 0.2640(4) 0.57148(10)
C6 C 0.24795(13) 0.3767(4) 0.57654(10)
C7 C 0.19994(13) 0.8990(4) 0.40852(10)
C8 C 0.11739(14) 1.0551(4) 0.40071(11)
H3 H 0.071830 1.052102 0.433539
C9 C 0.11189(14) 1.2246(4) 0.33387(11)
H4 H 0.062206 1.356785 0.313545
C10 C 0.19089(14) 1.1606(4) 0.30527(11)
H5 H 0.205792 1.242224 0.260347
C11 C 0.38857(13) 0.0537(4) 0.62574(11)
C12 C 0.36277(15) -0.0957(4) 0.68402(11)
H6 H 0.302904 -0.084628 0.700793
C13 C 0.44315(15) -0.2728(5) 0.71514(11)
H7 H 0.447072 -0.403613 0.756424
C14 C 0.51188(15) -0.2183(5) 0.67477(12)
H8 H 0.573708 -0.306229 0.683627
loop_
_geom_bond_atom_site_label_1
_geom_bond_atom_site_label_2
_geom_bond_site_symmetry_1
_geom_bond_site_symmetry_2
S1 N1 1_555 1_555
O1 C7 1_555 1_555
O2 C11 1_555 1_555
N1 C1 1_555 1_555
N2 S1 1_555 1_555
C1 C2 1_555 1_555
C2 C3 1_555 1_555
C3 H1 1_555 1_555
C4 C3 1_555 1_555
H2 C4 1_555 1_555
C5 C4 1_555 1_555
C6 N2 1_555 1_555
C7 C2 1_555 1_555
C8 C7 1_555 1_555
H3 C8 1_555 1_555
C9 C8 1_555 1_555
H4 C9 1_555 1_555
C10 O1 1_555 1_555
H5 C10 1_555 1_555
C11 C5 1_555 1_555
C12 C11 1_555 1_555
H6 C12 1_555 1_555
C13 C12 1_555 1_555
H7 C13 1_555 1_555
C14 O2 1_555 1_555
H8 C14 1_555 1_555
C1 C6 1_555 1_555
C5 C6 1_555 1_555
C9 C10 1_555 1_555
C13 C14 1_555 1_555

#END
