
#######################################################################
#
#                 Cambridge Crystallographic Data Centre
#                                CCDC 
#
#######################################################################
#
# If this CIF has been generated from an entry in the Cambridge 
# Structural Database, then it will include bibliographic, chemical, 
# crystal, experimental, refinement or atomic coordinate data resulting 
# from the CCDC's data processing and validation procedures.
#
#######################################################################

data_DIGYIC
_chemical_formula_moiety         'C20 H23 N1 O4'
_chemical_name_systematic        
5-Benzyl-9a,10-dihydroxy-3-methyl-5,5a,6,7,8,9,9a,10-octahydro-1H-pyrano[4,3-b]quinolin-1-one
_symmetry_cell_setting           orthorhombic
_symmetry_space_group_name_H-M   'P b c a'
_symmetry_Int_Tables_number      61
_space_group_name_Hall           '-P 2ac 2ab'
loop_
_symmetry_equiv_pos_site_id
_symmetry_equiv_pos_as_xyz
1 x,y,z
2 1/2-x,-y,1/2+z
3 -x,1/2+y,1/2-z
4 1/2+x,1/2-y,-z
5 -x,-y,-z
6 1/2+x,y,1/2-z
7 x,1/2-y,1/2+z
8 1/2-x,1/2+y,z
_cell_length_a                   8.5483(2)
_cell_length_b                   12.1475(3)
_cell_length_c                   33.4688(8)
_cell_angle_alpha                90
_cell_angle_beta                 90
_cell_angle_gamma                90
_cell_volume                     3475.42
_exptl_crystal_colour            colorless
_exptl_crystal_description       block
_cell_formula_units_Z            8
loop_
_atom_site_label
_atom_site_type_symbol
_atom_site_fract_x
_atom_site_fract_y
_atom_site_fract_z
O1 O 0.14513(13) 0.44388(10) 0.41662(4)
O2 O 0.25063(14) 0.32659(10) 0.37425(3)
O3 O 0.30017(14) 0.62932(10) 0.43325(4)
H1 H 0.2195 0.5923 0.4282
O4 O 0.53754(13) 0.67526(9) 0.38203(3)
H2 H 0.4570 0.7146 0.3837
N1 N 0.68680(15) 0.46616(10) 0.38702(4)
C1 C 0.26762(19) 0.41506(14) 0.40042(5)
C2 C 0.41598(18) 0.46260(13) 0.40500(5)
C3 C 0.43312(18) 0.55888(13) 0.43321(5)
H3 H 0.4514 0.5307 0.4609
C4 C 0.57258(19) 0.62908(13) 0.42038(5)
C5 C 0.6088(2) 0.72166(13) 0.44993(5)
H4 H 0.6839 0.7731 0.4374
H5 H 0.5113 0.7631 0.4553
C6 C 0.6765(2) 0.68232(14) 0.48953(5)
H6 H 0.7055 0.7467 0.5061
H7 H 0.5966 0.6394 0.5042
C7 C 0.8202(2) 0.61104(15) 0.48249(5)
H8 H 0.8579 0.5817 0.5083
H9 H 0.9046 0.6565 0.4708
C8 C 0.7830(2) 0.51567(14) 0.45444(5)
H10 H 0.7059 0.4662 0.4673
H11 H 0.8794 0.4728 0.4493
C9 C 0.71685(18) 0.55769(13) 0.41476(5)
H12 H 0.7991 0.6051 0.4023
C10 C 0.54338(18) 0.42197(13) 0.38361(4)
C11 C 0.5183(2) 0.32881(13) 0.35774(5)
H13 H 0.6032 0.2988 0.3430
C12 C 0.3763(2) 0.28472(14) 0.35450(5)
C13 C 0.3317(2) 0.18763(18) 0.32976(6)
H14 H 0.4239 0.1603 0.3155
H15 H 0.2512 0.2093 0.3104
H16 H 0.2905 0.1295 0.3471
C14 C 0.82201(18) 0.42219(14) 0.36564(5)
H17 H 0.8182 0.3408 0.3669
H18 H 0.9182 0.4462 0.3796
C15 C 0.83386(19) 0.45621(14) 0.32237(5)
C16 C 0.9248(3) 0.39339(19) 0.29697(6)
H19 H 0.9731 0.3282 0.3067
C17 C 0.9463(3) 0.4244(2) 0.25762(7)
H20 H 1.0090 0.3806 0.2404
C18 C 0.8772(3) 0.5183(2) 0.24339(7)
H21 H 0.8921 0.5398 0.2164
C19 C 0.7866(3) 0.5812(2) 0.26827(6)
H22 H 0.7390 0.6465 0.2584
C20 C 0.7638(2) 0.55035(16) 0.30771(5)
H23 H 0.6999 0.5940 0.3247
loop_
_geom_bond_atom_site_label_1
_geom_bond_atom_site_label_2
_geom_bond_site_symmetry_1
_geom_bond_site_symmetry_2
O1 C1 1_555 1_555
O2 C1 1_555 1_555
O3 H1 1_555 1_555
O4 H2 1_555 1_555
N1 C9 1_555 1_555
C1 C2 1_555 1_555
C2 C3 1_555 1_555
C3 O3 1_555 1_555
H3 C3 1_555 1_555
C4 O4 1_555 1_555
C5 C4 1_555 1_555
H4 C5 1_555 1_555
H5 C5 1_555 1_555
C6 C5 1_555 1_555
H6 C6 1_555 1_555
H7 C6 1_555 1_555
C7 C6 1_555 1_555
H8 C7 1_555 1_555
H9 C7 1_555 1_555
C8 C7 1_555 1_555
H10 C8 1_555 1_555
H11 C8 1_555 1_555
C9 C4 1_555 1_555
H12 C9 1_555 1_555
C10 N1 1_555 1_555
C11 C10 1_555 1_555
H13 C11 1_555 1_555
C12 O2 1_555 1_555
C13 C12 1_555 1_555
H14 C13 1_555 1_555
H15 C13 1_555 1_555
H16 C13 1_555 1_555
C14 N1 1_555 1_555
H17 C14 1_555 1_555
H18 C14 1_555 1_555
C15 C14 1_555 1_555
C16 C15 1_555 1_555
H19 C16 1_555 1_555
C17 C16 1_555 1_555
H20 C17 1_555 1_555
C18 C17 1_555 1_555
H21 C18 1_555 1_555
C19 C18 1_555 1_555
H22 C19 1_555 1_555
C20 C15 1_555 1_555
H23 C20 1_555 1_555
C2 C10 1_555 1_555
C3 C4 1_555 1_555
C8 C9 1_555 1_555
C11 C12 1_555 1_555
C19 C20 1_555 1_555

#END
