
#######################################################################
#
#                 Cambridge Crystallographic Data Centre
#                                CCDC 
#
#######################################################################
#
# If this CIF has been generated from an entry in the Cambridge 
# Structural Database, then it will include bibliographic, chemical, 
# crystal, experimental, refinement or atomic coordinate data resulting 
# from the CCDC's data processing and validation procedures.
#
#######################################################################

data_DIHFEI
_chemical_formula_moiety         'C30 H23 N2 1+,B1 F4 1-,C1 H2 Cl2'
_chemical_name_systematic        
'9-methyl-2,3,4-triphenyl-9H-\b-carbolin-2-ium tetrafluoroborate dichloromethane solvate'
_symmetry_cell_setting           triclinic
_symmetry_space_group_name_H-M   'P -1'
_symmetry_Int_Tables_number      2
_space_group_name_Hall           '-P 1'
loop_
_symmetry_equiv_pos_site_id
_symmetry_equiv_pos_as_xyz
1 x,y,z
2 -x,-y,-z
_cell_length_a                   8.8458(7)
_cell_length_b                   12.0478(9)
_cell_length_c                   13.9043(10)
_cell_angle_alpha                89.408(6)
_cell_angle_beta                 83.302(6)
_cell_angle_gamma                72.134(7)
_cell_volume                     1400.22
_exptl_crystal_colour            green
_exptl_crystal_description       block
_cell_formula_units_Z            2
loop_
_atom_site_label
_atom_site_type_symbol
_atom_site_fract_x
_atom_site_fract_y
_atom_site_fract_z
N1 N 0.4176(2) 0.22239(16) 0.68764(14)
N2 N 0.0755(3) 0.26665(17) 0.55059(15)
C1 C 0.5702(3) 0.1358(2) 0.70112(18)
C2 C 0.5678(3) 0.0385(2) 0.75238(19)
H1 H 0.4713 0.0280 0.7780
C3 C 0.7122(4) -0.0441(2) 0.7653(2)
H2 H 0.7133 -0.1109 0.7997
C4 C 0.8537(3) -0.0270(2) 0.7274(2)
H3 H 0.9505 -0.0822 0.7365
C5 C 0.8530(3) 0.0713(2) 0.6760(2)
H4 H 0.9492 0.0823 0.6505
C6 C 0.7095(3) 0.1541(2) 0.6619(2)
H5 H 0.7080 0.2205 0.6268
C7 C 0.3302(3) 0.1951(2) 0.62300(17)
H6 H 0.3676 0.1248 0.5879
C8 C 0.1850(3) 0.2743(2) 0.61081(17)
C9 C -0.0510(3) 0.3697(2) 0.56194(18)
C10 C -0.1875(3) 0.4032(2) 0.51376(19)
H7 H -0.2056 0.3543 0.4681
C11 C -0.2943(3) 0.5127(2) 0.53738(19)
H8 H -0.3862 0.5377 0.5064
C12 C -0.2693(3) 0.5871(2) 0.60604(19)
H9 H -0.3441 0.6601 0.6197
C13 C -0.1352(3) 0.5536(2) 0.65369(18)
H10 H -0.1191 0.6031 0.6996
C14 C -0.0227(3) 0.4429(2) 0.63181(17)
C15 C 0.1287(3) 0.3813(2) 0.66311(17)
C16 C 0.2216(3) 0.4070(2) 0.72978(17)
C17 C 0.3674(3) 0.3252(2) 0.74146(17)
C18 C 0.0996(4) 0.1753(2) 0.47754(19)
H11 H 0.1486 0.1962 0.4177
H12 H -0.0018 0.1663 0.4679
H13 H 0.1678 0.1032 0.4988
C19 C 0.4707(3) 0.3425(2) 0.81372(18)
C20 C 0.4665(3) 0.2920(2) 0.90401(19)
H14 H 0.4023 0.2443 0.9186
C21 C 0.5579(4) 0.3125(2) 0.9726(2)
H15 H 0.5550 0.2786 1.0328
C22 C 0.6530(4) 0.3833(2) 0.9510(2)
H16 H 0.7138 0.3974 0.9969
C23 C 0.6581(4) 0.4329(3) 0.8618(2)
H17 H 0.7225 0.4805 0.8476
C24 C 0.5682(3) 0.4126(2) 0.7932(2)
H18 H 0.5730 0.4461 0.7328
C25 C 0.1594(3) 0.5176(2) 0.78894(17)
C26 C 0.0360(3) 0.5298(2) 0.86332(18)
H19 H -0.0020 0.4671 0.8787
C27 C -0.0312(3) 0.6345(2) 0.91479(19)
H20 H -0.1144 0.6422 0.9642
C28 C 0.0259(3) 0.7273(2) 0.89248(19)
H21 H -0.0197 0.7980 0.9265
C29 C 0.1504(3) 0.7153(2) 0.81975(19)
H22 H 0.1898 0.7776 0.8058
C30 C 0.2169(3) 0.6114(2) 0.76751(18)
H23 H 0.3000 0.6042 0.7180
Cl1 Cl 0.90637(10) -0.18817(6) 0.15215(5)
Cl2 Cl 0.76316(12) 0.01167(7) 0.03766(6)
C31 C 0.8803(4) -0.0395(2) 0.1320(2)
H24 H 0.8293 0.0054 0.1909
H25 H 0.9841 -0.0281 0.1160
F1 F 0.7756(3) 0.04859(19) 0.36284(17)
F2 F 0.5855(2) 0.16811(15) 0.28532(12)
F3 F 0.5237(2) 0.09667(16) 0.42987(13)
F4 F 0.6477(3) 0.23306(16) 0.42172(15)
B1 B 0.6343(4) 0.1373(3) 0.3759(2)
loop_
_geom_bond_atom_site_label_1
_geom_bond_atom_site_label_2
_geom_bond_site_symmetry_1
_geom_bond_site_symmetry_2
N1 C1 1_555 1_555
N2 C8 1_555 1_555
C1 C2 1_555 1_555
C2 H1 1_555 1_555
C3 C2 1_555 1_555
H2 C3 1_555 1_555
C4 C3 1_555 1_555
H3 C4 1_555 1_555
C5 C4 1_555 1_555
H4 C5 1_555 1_555
C6 C1 1_555 1_555
H5 C6 1_555 1_555
C7 N1 1_555 1_555
H6 C7 1_555 1_555
C8 C7 1_555 1_555
C9 N2 1_555 1_555
C10 C9 1_555 1_555
H7 C10 1_555 1_555
C11 C10 1_555 1_555
H8 C11 1_555 1_555
C12 C11 1_555 1_555
H9 C12 1_555 1_555
C13 C12 1_555 1_555
H10 C13 1_555 1_555
C14 C9 1_555 1_555
C15 C8 1_555 1_555
C16 C15 1_555 1_555
C17 N1 1_555 1_555
C18 N2 1_555 1_555
H11 C18 1_555 1_555
H12 C18 1_555 1_555
H13 C18 1_555 1_555
C19 C17 1_555 1_555
C20 C19 1_555 1_555
H14 C20 1_555 1_555
C21 C20 1_555 1_555
H15 C21 1_555 1_555
C22 C21 1_555 1_555
H16 C22 1_555 1_555
C23 C22 1_555 1_555
H17 C23 1_555 1_555
C24 C19 1_555 1_555
H18 C24 1_555 1_555
C25 C16 1_555 1_555
C26 C25 1_555 1_555
H19 C26 1_555 1_555
C27 C26 1_555 1_555
H20 C27 1_555 1_555
C28 C27 1_555 1_555
H21 C28 1_555 1_555
C29 C28 1_555 1_555
H22 C29 1_555 1_555
C30 C25 1_555 1_555
H23 C30 1_555 1_555
Cl1 C31 1_555 1_555
Cl2 C31 1_555 1_555
C31 H24 1_555 1_555
H25 C31 1_555 1_555
F1 B1 1_555 1_555
F2 B1 1_555 1_555
F3 B1 1_555 1_555
F4 B1 1_555 1_555
C5 C6 1_555 1_555
C13 C14 1_555 1_555
C14 C15 1_555 1_555
C16 C17 1_555 1_555
C23 C24 1_555 1_555
C29 C30 1_555 1_555

#END
