
#######################################################################
#
#                 Cambridge Crystallographic Data Centre
#                                CCDC 
#
#######################################################################
#
# If this CIF has been generated from an entry in the Cambridge 
# Structural Database, then it will include bibliographic, chemical, 
# crystal, experimental, refinement or atomic coordinate data resulting 
# from the CCDC's data processing and validation procedures.
#
#######################################################################

data_DIHQIX
_chemical_formula_moiety         'C15 H20 O3'
_chemical_name_systematic        
7,7a-dihydroxy-3,6,6,7b-tetramethyl-1,2,6,7,7a,7b-hexahydro-4H-cyclobuta[e]inden-4-one
_symmetry_cell_setting           orthorhombic
_symmetry_space_group_name_H-M   'P 21 21 21'
_symmetry_Int_Tables_number      19
_space_group_name_Hall           'P 2ac 2ab'
loop_
_symmetry_equiv_pos_site_id
_symmetry_equiv_pos_as_xyz
1 x,y,z
2 1/2+x,1/2-y,-z
3 -x,1/2+y,1/2-z
4 1/2-x,-y,1/2+z
_cell_length_a                   7.9251(3)
_cell_length_b                   11.9865(4)
_cell_length_c                   14.2732(5)
_cell_angle_alpha                90
_cell_angle_beta                 90
_cell_angle_gamma                90
_cell_volume                     1355.87
_exptl_crystal_colour            colorless
_exptl_crystal_description       prism
_cell_formula_units_Z            4
loop_
_atom_site_label
_atom_site_type_symbol
_atom_site_fract_x
_atom_site_fract_y
_atom_site_fract_z
O1 O 1.0615(3) 0.51666(19) 0.47067(15)
H1 H 1.0183 0.5374 0.5215
O2 O 0.9108(3) 0.63930(17) 0.34126(16)
H2 H 0.9838 0.6514 0.3827
O3 O 0.6417(3) 0.46923(17) 0.12839(14)
C1 C 0.4249(5) 0.6552(3) 0.1696(2)
H3 H 0.3635 0.7160 0.2003
H4 H 0.3442 0.6020 0.1429
H5 H 0.4958 0.6857 0.1195
C2 C 0.5342(4) 0.5967(2) 0.2402(2)
C3 C 0.6505(4) 0.5104(2) 0.2070(2)
C4 C 0.7853(4) 0.4752(2) 0.27366(19)
C5 C 0.8199(4) 0.5395(2) 0.3636(2)
C6 C 0.9387(3) 0.4585(2) 0.41668(19)
H6 H 0.8693 0.4114 0.4598
C7 C 0.5323(4) 0.6157(2) 0.3320(2)
C8 C 0.6477(4) 0.5688(2) 0.4070(2)
C9 C 0.6157(5) 0.6809(3) 0.4606(2)
H7 H 0.5881 0.6709 0.5277
H8 H 0.7063 0.7369 0.4522
C10 C 0.4582(6) 0.7009(3) 0.3969(2)
H9 H 0.3498 0.6783 0.4256
H10 H 0.4514 0.7769 0.3701
C11 C 0.5657(4) 0.4719(3) 0.4599(2)
H11 H 0.4482 0.4905 0.4743
H12 H 0.6274 0.4584 0.5183
H13 H 0.5691 0.4046 0.4210
C12 C 0.8889(4) 0.3889(2) 0.2642(2)
H14 H 0.8817 0.3369 0.2141
C13 C 1.0192(4) 0.3818(3) 0.34076(19)
C14 C 1.1854(4) 0.4273(4) 0.3026(2)
H15 H 1.2246 0.3798 0.2511
H16 H 1.2701 0.4279 0.3526
H17 H 1.1683 0.5034 0.2795
C15 C 1.0456(5) 0.2636(3) 0.3784(2)
H18 H 0.9393 0.2354 0.4043
H19 H 1.1318 0.2648 0.4276
H20 H 1.0828 0.2147 0.3273
loop_
_geom_bond_atom_site_label_1
_geom_bond_atom_site_label_2
_geom_bond_site_symmetry_1
_geom_bond_site_symmetry_2
O1 H1 1_555 1_555
O2 H2 1_555 1_555
O3 C3 1_555 1_555
C1 H3 1_555 1_555
H4 C1 1_555 1_555
H5 C1 1_555 1_555
C2 C1 1_555 1_555
C3 C2 1_555 1_555
C4 C3 1_555 1_555
C5 O2 1_555 1_555
C6 O1 1_555 1_555
H6 C6 1_555 1_555
C7 C2 1_555 1_555
C8 C5 1_555 1_555
C9 C8 1_555 1_555
H7 C9 1_555 1_555
H8 C9 1_555 1_555
C10 C7 1_555 1_555
H9 C10 1_555 1_555
H10 C10 1_555 1_555
C11 C8 1_555 1_555
H11 C11 1_555 1_555
H12 C11 1_555 1_555
H13 C11 1_555 1_555
C12 C4 1_555 1_555
H14 C12 1_555 1_555
C13 C6 1_555 1_555
C14 C13 1_555 1_555
H15 C14 1_555 1_555
H16 C14 1_555 1_555
H17 C14 1_555 1_555
C15 C13 1_555 1_555
H18 C15 1_555 1_555
H19 C15 1_555 1_555
H20 C15 1_555 1_555
C4 C5 1_555 1_555
C5 C6 1_555 1_555
C7 C8 1_555 1_555
C9 C10 1_555 1_555
C12 C13 1_555 1_555

#END
