
#######################################################################
#
#                 Cambridge Crystallographic Data Centre
#                                CCDC 
#
#######################################################################
#
# If this CIF has been generated from an entry in the Cambridge 
# Structural Database, then it will include bibliographic, chemical, 
# crystal, experimental, refinement or atomic coordinate data resulting 
# from the CCDC's data processing and validation procedures.
#
#######################################################################

data_DIHQUJ
_chemical_formula_moiety         'C16 H24 O3'
_chemical_name_systematic        
6-(2-hydroxyethyl)-1-methoxy-2,2,5,7-tetramethyl-2,3-dihydro-1H-inden-4-ol
_symmetry_cell_setting           triclinic
_symmetry_space_group_name_H-M   'P -1'
_symmetry_Int_Tables_number      2
_space_group_name_Hall           '-P 1'
loop_
_symmetry_equiv_pos_site_id
_symmetry_equiv_pos_as_xyz
1 x,y,z
2 -x,-y,-z
_cell_length_a                   8.7757(12)
_cell_length_b                   9.1560(12)
_cell_length_c                   9.8895(13)
_cell_angle_alpha                73.107(4)
_cell_angle_beta                 85.312(6)
_cell_angle_gamma                82.044(5)
_cell_volume                     752.294
_exptl_crystal_colour            colorless
_exptl_crystal_description       prism
_cell_formula_units_Z            2
loop_
_atom_site_label
_atom_site_type_symbol
_atom_site_fract_x
_atom_site_fract_y
_atom_site_fract_z
O1 O 0.1150(3) -0.3427(3) 1.1962(2)
H1 H 0.0319 -0.3550 1.2443
O2 O 0.1625(3) 0.3754(3) 0.6663(2)
O3 O 0.1705(3) 0.3587(3) 1.2211(2)
H2 H 0.1678 0.4537 1.1828
C1 C 0.1146(4) -0.1845(4) 1.1190(3)
H3 H 0.0378 -0.1204 1.1630
H4 H 0.0862 -0.1685 1.0205
C2 C 0.2751(4) -0.1375(4) 1.1196(3)
H5 H 0.3137 -0.1765 1.2164
H6 H 0.3470 -0.1834 1.0564
C3 C 0.2690(4) 0.0373(4) 1.0696(3)
C4 C 0.2980(4) 0.1104(4) 0.9247(3)
C5 C 0.2838(4) 0.2716(4) 0.8848(3)
C6 C 0.2984(4) 0.3788(4) 0.7369(3)
H7 H 0.3930 0.3444 0.6854
C7 C 0.1863(5) 0.3826(4) 0.5202(3)
H8 H 0.2173 0.4830 0.4672
H9 H 0.0905 0.3683 0.4838
H10 H 0.2674 0.3012 0.5092
C8 C 0.3382(5) 0.0230(4) 0.8172(4)
H11 H 0.3616 0.0945 0.7251
H12 H 0.2510 -0.0300 0.8096
H13 H 0.4284 -0.0528 0.8466
C9 C 0.3112(4) 0.5368(4) 0.7609(3)
C10 C 0.2256(4) 0.5271(4) 0.9070(3)
H14 H 0.2750 0.5823 0.9607
H15 H 0.1161 0.5706 0.8955
C11 C 0.2407(4) 0.3563(4) 0.9798(3)
C12 C 0.2128(4) 0.2820(4) 1.1220(3)
C13 C 0.2265(4) 0.1204(4) 1.1672(3)
C14 C 0.1945(5) 0.0449(4) 1.3233(4)
H16 H 0.1593 -0.0554 1.3356
H17 H 0.1145 0.1105 1.3608
H18 H 0.2890 0.0308 1.3744
C15 C 0.2425(5) 0.6743(4) 0.6438(3)
H19 H 0.2464 0.7694 0.6692
H20 H 0.1352 0.6630 0.6324
H21 H 0.3018 0.6784 0.5547
C16 C 0.4800(4) 0.5489(4) 0.7742(4)
H22 H 0.5378 0.5419 0.6868
H23 H 0.5211 0.4649 0.8539
H24 H 0.4898 0.6477 0.7905
loop_
_geom_bond_atom_site_label_1
_geom_bond_atom_site_label_2
_geom_bond_site_symmetry_1
_geom_bond_site_symmetry_2
O1 H1 1_555 1_555
O2 C6 1_555 1_555
O3 H2 1_555 1_555
C1 O1 1_555 1_555
H3 C1 1_555 1_555
H4 C1 1_555 1_555
C2 C1 1_555 1_555
H5 C2 1_555 1_555
H6 C2 1_555 1_555
C3 C2 1_555 1_555
C4 C3 1_555 1_555
C5 C4 1_555 1_555
C6 C5 1_555 1_555
H7 C6 1_555 1_555
C7 O2 1_555 1_555
H8 C7 1_555 1_555
H9 C7 1_555 1_555
H10 C7 1_555 1_555
C8 C4 1_555 1_555
H11 C8 1_555 1_555
H12 C8 1_555 1_555
H13 C8 1_555 1_555
C9 C6 1_555 1_555
C10 C9 1_555 1_555
H14 C10 1_555 1_555
H15 C10 1_555 1_555
C11 C5 1_555 1_555
C12 O3 1_555 1_555
C13 C3 1_555 1_555
C14 C13 1_555 1_555
H16 C14 1_555 1_555
H17 C14 1_555 1_555
H18 C14 1_555 1_555
C15 C9 1_555 1_555
H19 C15 1_555 1_555
H20 C15 1_555 1_555
H21 C15 1_555 1_555
C16 C9 1_555 1_555
H22 C16 1_555 1_555
H23 C16 1_555 1_555
H24 C16 1_555 1_555
C10 C11 1_555 1_555
C11 C12 1_555 1_555
C12 C13 1_555 1_555

#END
