
#######################################################################
#
#                 Cambridge Crystallographic Data Centre
#                                CCDC 
#
#######################################################################
#
# If this CIF has been generated from an entry in the Cambridge 
# Structural Database, then it will include bibliographic, chemical, 
# crystal, experimental, refinement or atomic coordinate data resulting 
# from the CCDC's data processing and validation procedures.
#
#######################################################################

data_DIHRES
_chemical_formula_moiety         'C48 H54 N6 O6'
_chemical_name_systematic        
5,11,17,23-Tetra-t-butyl-25,27-bis(benzyloxy)-2,8,14,20-tetraoxacalix(2)arene(2)triazine
_symmetry_cell_setting           triclinic
_symmetry_space_group_name_H-M   'P -1'
_symmetry_Int_Tables_number      2
_space_group_name_Hall           '-P 1'
loop_
_symmetry_equiv_pos_site_id
_symmetry_equiv_pos_as_xyz
1 x,y,z
2 -x,-y,-z
_cell_length_a                   14.451(3)
_cell_length_b                   17.782(4)
_cell_length_c                   19.083(4)
_cell_angle_alpha                89.89(3)
_cell_angle_beta                 107.15(3)
_cell_angle_gamma                90.21(3)
_cell_volume                     4685.64
_exptl_crystal_colour            colorless
_exptl_crystal_description       block
_chemical_melting_point          'above 300 deg.C'
_cell_formula_units_Z            4
_exptl_crystal_recrystallization_method acetone
loop_
_atom_site_label
_atom_site_type_symbol
_atom_site_fract_x
_atom_site_fract_y
_atom_site_fract_z
N1 N 0.7298(4) -0.6040(3) 0.3366(3)
N2 N 0.6627(4) -0.7237(3) 0.3483(3)
N3 N 0.7300(4) -0.6494(3) 0.4544(3)
N4 N 0.6501(4) -0.4044(3) 0.1788(3)
N5 N 0.5662(4) -0.2889(3) 0.1765(3)
N6 N 0.5341(4) -0.3636(3) 0.0689(3)
O1 O 0.7957(4) -0.5373(3) 0.4427(2)
O2 O 0.6725(3) -0.3296(2) 0.2810(2)
O3 O 0.6140(4) -0.4721(2) 0.0719(2)
O4 O 0.6635(4) -0.6818(2) 0.2380(2)
O5 O 0.6480(4) -0.4439(3) 0.3813(3)
O6 O 0.5545(3) -0.5569(3) 0.1746(2)
C1 C 0.6872(4) -0.6679(3) 0.3106(3)
C2 C 0.6857(5) -0.7104(3) 0.4201(3)
C3 C 0.7498(5) -0.5987(3) 0.4087(3)
C4 C 0.7314(5) -0.4327(4) 0.3633(4)
C5 C 0.8105(5) -0.4789(3) 0.3970(3)
C6 C 0.8994(5) -0.4701(4) 0.3873(3)
H1 H 0.9498 -0.5013 0.4123
C7 C 0.9159(5) -0.4151(3) 0.3406(3)
C8 C 0.8372(5) -0.3691(3) 0.3061(3)
H2 H 0.8457 -0.3309 0.2752
C9 C 0.7485(5) -0.3785(3) 0.3165(3)
C10 C 0.6279(5) -0.3423(3) 0.2089(3)
C11 C 0.5211(4) -0.3025(3) 0.1054(4)
C12 C 0.5996(5) -0.4114(3) 0.1095(3)
C13 C 0.6390(5) -0.5732(3) 0.1592(3)
C14 C 0.6731(5) -0.5301(3) 0.1116(3)
C15 C 0.7585(5) -0.5461(3) 0.0965(4)
H3 H 0.7775 -0.5168 0.0627
C16 C 0.8170(5) -0.6059(3) 0.1314(4)
C17 C 0.7836(5) -0.6487(3) 0.1803(4)
H4 H 0.8200 -0.6893 0.2041
C18 C 0.6981(5) -0.6319(3) 0.1939(3)
C19 C 0.5565(6) -0.4516(5) 0.3253(4)
H5 H 0.5634 -0.4835 0.2860
H6 H 0.5333 -0.4028 0.3049
C20 C 0.4870(5) -0.4861(6) 0.3607(4)
C21 C 0.4338(7) -0.4435(7) 0.3924(6)
H7 H 0.4394 -0.3914 0.3913
C22 C 0.3712(9) -0.4751(10) 0.4265(7)
H8 H 0.3352 -0.4444 0.4479
C23 C 0.3625(9) -0.5481(11) 0.4288(7)
H9 H 0.3212 -0.5695 0.4526
C24 C 0.4142(10) -0.5931(8) 0.3961(9)
H10 H 0.4066 -0.6450 0.3972
C25 C 0.4773(8) -0.5632(7) 0.3616(7)
H11 H 0.5124 -0.5941 0.3396
C26 C 0.4685(6) -0.5897(5) 0.1240(5)
H12 H 0.4692 -0.6439 0.1299
H13 H 0.4666 -0.5783 0.0739
C27 C 0.3829(6) -0.5578(5) 0.1401(5)
C28 C 0.3488(8) -0.4890(8) 0.1114(8)
H14 H 0.3802 -0.4637 0.0823
C29 C 0.2701(12) -0.4564(11) 0.1245(11)
H15 H 0.2462 -0.4105 0.1036
C30 C 0.2267(16) -0.4952(19) 0.1708(18)
H16 H 0.1766 -0.4724 0.1842
C31 C 0.2556(14) -0.5648(18) 0.1964(12)
H17 H 0.2226 -0.5913 0.2238
C32 C 0.3353(9) -0.5960(9) 0.1813(7)
H18 H 0.3567 -0.6435 0.1994
C65 C 0.6612(6) -0.7730(4) 0.4673(4)
C66 C 0.7252(12) -0.8388(7) 0.4648(8)
H37 H 0.7917 -0.8249 0.4869
H38 H 0.7159 -0.8532 0.4147
H39 H 0.7089 -0.8803 0.4912
C67 C 0.6727(10) -0.7463(6) 0.5446(5)
H40 H 0.7389 -0.7320 0.5674
H41 H 0.6553 -0.7862 0.5723
H42 H 0.6314 -0.7039 0.5433
C68 C 0.5558(9) -0.7969(7) 0.4324(6)
H43 H 0.5392 -0.8360 0.4613
H44 H 0.5479 -0.8152 0.3836
H45 H 0.5141 -0.7545 0.4302
C69 C 1.0129(5) -0.4053(4) 0.3251(4)
C70 C 1.0495(11) -0.3255(8) 0.3431(12)
H46 H 1.0612 -0.3165 0.3946
H47 H 1.0018 -0.2907 0.3155
H48 H 1.1086 -0.3188 0.3305
C71 C 0.9951(10) -0.4176(10) 0.2433(6)
H49 H 0.9720 -0.4679 0.2306
H50 H 1.0545 -0.4102 0.2313
H51 H 0.9477 -0.3824 0.2163
C72 C 1.0885(8) -0.4604(9) 0.3653(8)
H52 H 1.1018 -0.4531 0.4172
H53 H 1.1467 -0.4526 0.3518
H54 H 1.0653 -0.5107 0.3528
C73 C 0.4497(5) -0.2430(4) 0.0654(4)
C74 C 0.3735(8) -0.2304(8) 0.1048(6)
H55 H 0.3377 -0.2760 0.1042
H56 H 0.3301 -0.1913 0.0803
H57 H 0.4046 -0.2158 0.1546
C75 C 0.5064(9) -0.1700(5) 0.0667(7)
H58 H 0.5543 -0.1774 0.0417
H59 H 0.5376 -0.1557 0.1166
H60 H 0.4627 -0.1309 0.0426
C76 C 0.4003(7) -0.2655(5) -0.0140(5)
H61 H 0.3640 -0.3110 -0.0150
H62 H 0.4484 -0.2734 -0.0387
H63 H 0.3574 -0.2261 -0.0382
C77 C 0.9095(6) -0.6293(4) 0.1137(4)
C78 C 0.9900(7) -0.6469(7) 0.1840(6)
H64 H 0.9683 -0.6852 0.2111
H65 H 1.0063 -0.6023 0.2133
H66 H 1.0461 -0.6644 0.1717
C79 C 0.8877(8) -0.7010(6) 0.0675(7)
H67 H 0.8654 -0.7395 0.0940
H68 H 0.9456 -0.7177 0.0573
H69 H 0.8386 -0.6909 0.0222
C80 C 0.9464(7) -0.5676(5) 0.0718(5)
H70 H 0.9606 -0.5229 0.1012
H71 H 0.8976 -0.5569 0.0265
H72 H 1.0041 -0.5846 0.0616
N7 N 0.8497(4) 0.0960(3) 0.3208(3)
N8 N 0.9339(4) 0.2108(3) 0.3236(3)
N9 N 0.9655(4) 0.1369(3) 0.4310(3)
N10 N 0.7697(4) -0.1039(3) 0.1634(3)
N11 N 0.8384(4) -0.2238(3) 0.1520(3)
N12 N 0.7695(4) -0.1493(3) 0.0460(3)
O7 O 0.8863(3) 0.0280(2) 0.4281(2)
O8 O 0.8361(3) -0.1818(2) 0.2616(2)
O9 O 0.7046(4) -0.0371(3) 0.0573(2)
O10 O 0.8273(3) 0.1700(2) 0.2194(2)
O11 O 0.9462(3) -0.0569(2) 0.3262(2)
O12 O 0.8521(4) 0.0570(3) 0.1182(3)
C33 C 0.8719(5) 0.1581(3) 0.2912(3)
C34 C 0.9797(4) 0.1967(3) 0.3944(3)
C35 C 0.9015(4) 0.0882(3) 0.3911(3)
C36 C 0.8609(5) -0.0733(3) 0.3408(3)
C37 C 0.8270(5) -0.0303(3) 0.3878(3)
C38 C 0.7423(5) -0.0463(4) 0.4035(4)
H19 H 0.7239 -0.0173 0.4376
C39 C 0.6836(5) -0.1057(3) 0.3685(3)
C40 C 0.7169(5) -0.1488(3) 0.3202(4)
H20 H 0.6802 -0.1896 0.2967
C41 C 0.8026(5) -0.1323(3) 0.3064(3)
C42 C 0.8125(4) -0.1681(3) 0.1890(3)
C43 C 0.8135(5) -0.2103(4) 0.0788(4)
C44 C 0.7498(5) -0.0988(4) 0.0912(3)
C45 C 0.7688(5) 0.0672(3) 0.1368(3)
C46 C 0.6901(5) 0.0211(3) 0.1032(3)
C47 C 0.6007(5) 0.0292(4) 0.1128(3)
H21 H 0.5506 -0.0029 0.0885
C48 C 0.5837(5) 0.0857(4) 0.1592(3)
C49 C 0.6627(5) 0.1304(3) 0.1943(3)
H22 H 0.6552 0.1675 0.2265
C50 C 0.7514(5) 0.1216(3) 0.1830(3)
C51 C 1.0318(6) -0.0895(5) 0.3769(5)
H23 H 1.0302 -0.1439 0.3719
H24 H 1.0346 -0.0771 0.4269
C52 C 1.1169(6) -0.0585(5) 0.3592(4)
C53 C 1.1642(9) -0.0954(9) 0.3183(7)
H25 H 1.1432 -0.1434 0.3013
C54 C 1.2425(14) -0.0647(17) 0.3009(12)
H26 H 1.2717 -0.0895 0.2702
C55 C 1.2745(15) 0.002(2) 0.3301(17)
H27 H 1.3289 0.0227 0.3207
C56 C 1.2313(12) 0.0417(11) 0.3732(13)
H28 H 1.2556 0.0882 0.3923
C57 C 1.1517(8) 0.0116(7) 0.3877(7)
H29 H 1.1209 0.0379 0.4165
C58 C 0.9428(5) 0.0497(5) 0.1744(4)
H30 H 0.9349 0.0191 0.2144
H31 H 0.9669 0.0988 0.1935
C59 C 1.0121(5) 0.0130(5) 0.1403(4)
C60 C 1.0233(8) -0.0637(7) 0.1378(7)
H32 H 0.9879 -0.0947 0.1597
C61 C 1.0853(9) -0.0958(9) 0.1041(9)
H33 H 1.0920 -0.1478 0.1028
C62 C 1.1376(9) -0.0486(11) 0.0719(7)
H34 H 1.1805 -0.0694 0.0494
C63 C 1.1280(9) 0.0245(11) 0.0725(8)
H35 H 1.1630 0.0549 0.0496
C64 C 1.0665(7) 0.0570(7) 0.1067(6)
H36 H 1.0613 0.1091 0.1073
C81 C 1.0498(5) 0.2573(4) 0.4354(4)
C82 C 1.1259(8) 0.2687(8) 0.3944(6)
H73 H 1.1614 0.2229 0.3958
H74 H 1.1697 0.3082 0.4176
H75 H 1.0941 0.2821 0.3444
C83 C 0.9946(8) 0.3303(5) 0.4329(7)
H76 H 0.9470 0.3240 0.4584
H77 H 0.9630 0.3436 0.3827
H78 H 1.0390 0.3696 0.4558
C84 C 1.0998(7) 0.2346(5) 0.5138(5)
H79 H 1.0524 0.2281 0.5396
H80 H 1.1450 0.2731 0.5373
H81 H 1.1336 0.1882 0.5142
C85 C 0.5900(6) -0.1288(4) 0.3861(5)
C86 C 0.6132(8) -0.2013(6) 0.4334(7)
H82 H 0.6630 -0.1908 0.4782
H83 H 0.6351 -0.2398 0.4067
H84 H 0.5560 -0.2183 0.4444
C87 C 0.5100(7) -0.1480(7) 0.3158(6)
H85 H 0.4940 -0.1039 0.2855
H86 H 0.4537 -0.1653 0.3280
H87 H 0.5321 -0.1868 0.2897
C88 C 0.5541(7) -0.0687(5) 0.4274(5)
H88 H 0.5394 -0.0240 0.3980
H89 H 0.6034 -0.0577 0.4724
H90 H 0.4969 -0.0863 0.4381
C89 C 0.8377(6) -0.2728(4) 0.0323(4)
C90 C 0.7730(13) -0.3387(7) 0.0353(8)
H91 H 0.7066 -0.3246 0.0136
H92 H 0.7827 -0.3531 0.0855
H93 H 0.7885 -0.3802 0.0087
C91 C 0.9445(9) -0.2961(8) 0.0668(6)
H94 H 0.9606 -0.3354 0.0380
H95 H 0.9534 -0.3139 0.1158
H96 H 0.9859 -0.2535 0.0679
C92 C 0.8289(10) -0.2473(6) -0.0437(5)
H97 H 0.7631 -0.2330 -0.0677
H98 H 0.8471 -0.2874 -0.0705
H99 H 0.8708 -0.2048 -0.0420
C93 C 0.4860(5) 0.0948(4) 0.1753(4)
C94 C 0.5052(10) 0.0821(11) 0.2576(6)
H100 H 0.4458 0.0872 0.2700
H101 H 0.5512 0.1187 0.2843
H102 H 0.5308 0.0325 0.2703
C95 C 0.4508(10) 0.1730(8) 0.1571(11)
H103 H 0.4384 0.1815 0.1055
H104 H 0.4992 0.2078 0.1840
H105 H 0.3922 0.1801 0.1702
C96 C 0.4111(8) 0.0406(9) 0.1348(7)
H106 H 0.3978 0.0488 0.0831
H107 H 0.3529 0.0478 0.1485
H108 H 0.4341 -0.0098 0.1467
loop_
_geom_bond_atom_site_label_1
_geom_bond_atom_site_label_2
_geom_bond_site_symmetry_1
_geom_bond_site_symmetry_2
N1 C1 1_555 1_555
N2 C1 1_555 1_555
N3 C2 1_555 1_555
N4 C10 1_555 1_555
N5 C10 1_555 1_555
N6 C11 1_555 1_555
N7 C33 1_555 1_555
N8 C33 1_555 1_555
N9 C34 1_555 1_555
N10 C42 1_555 1_555
N11 C42 1_555 1_555
N12 C43 1_555 1_555
O1 C3 1_555 1_555
O2 C9 1_555 1_555
O3 C12 1_555 1_555
O4 C1 1_555 1_555
O5 C4 1_555 1_555
O6 C13 1_555 1_555
O7 C35 1_555 1_555
O8 C41 1_555 1_555
O9 C44 1_555 1_555
O10 C33 1_555 1_555
O11 C36 1_555 1_555
O12 C45 1_555 1_555
C2 N2 1_555 1_555
C3 N1 1_555 1_555
C4 C5 1_555 1_555
C5 O1 1_555 1_555
C6 C5 1_555 1_555
H1 C6 1_555 1_555
C7 C6 1_555 1_555
C8 C7 1_555 1_555
H2 C8 1_555 1_555
C9 C4 1_555 1_555
C10 O2 1_555 1_555
C11 N5 1_555 1_555
C12 N4 1_555 1_555
C13 C14 1_555 1_555
C14 O3 1_555 1_555
C15 C14 1_555 1_555
H3 C15 1_555 1_555
C16 C15 1_555 1_555
C17 C16 1_555 1_555
H4 C17 1_555 1_555
C18 O4 1_555 1_555
C19 O5 1_555 1_555
H5 C19 1_555 1_555
H6 C19 1_555 1_555
C20 C19 1_555 1_555
C21 C20 1_555 1_555
H7 C21 1_555 1_555
C22 C21 1_555 1_555
H8 C22 1_555 1_555
C23 C22 1_555 1_555
H9 C23 1_555 1_555
C24 C23 1_555 1_555
H10 C24 1_555 1_555
C25 C20 1_555 1_555
H11 C25 1_555 1_555
C26 O6 1_555 1_555
H12 C26 1_555 1_555
H13 C26 1_555 1_555
C27 C26 1_555 1_555
C28 C27 1_555 1_555
H14 C28 1_555 1_555
C29 C28 1_555 1_555
H15 C29 1_555 1_555
C30 C29 1_555 1_555
H16 C30 1_555 1_555
C31 C30 1_555 1_555
H17 C31 1_555 1_555
C32 C27 1_555 1_555
H18 C32 1_555 1_555
C34 N8 1_555 1_555
C35 N7 1_555 1_555
C36 C37 1_555 1_555
C37 O7 1_555 1_555
C38 C37 1_555 1_555
H19 C38 1_555 1_555
C39 C38 1_555 1_555
C40 C39 1_555 1_555
H20 C40 1_555 1_555
C41 C36 1_555 1_555
C42 O8 1_555 1_555
C43 N11 1_555 1_555
C44 N10 1_555 1_555
C45 C46 1_555 1_555
C46 O9 1_555 1_555
C47 C46 1_555 1_555
H21 C47 1_555 1_555
C48 C47 1_555 1_555
C49 C48 1_555 1_555
H22 C49 1_555 1_555
C50 O10 1_555 1_555
C51 O11 1_555 1_555
H23 C51 1_555 1_555
H24 C51 1_555 1_555
C52 C51 1_555 1_555
C53 C52 1_555 1_555
H25 C53 1_555 1_555
C54 C53 1_555 1_555
H26 C54 1_555 1_555
C55 C54 1_555 1_555
H27 C55 1_555 1_555
C56 C55 1_555 1_555
H28 C56 1_555 1_555
C57 C52 1_555 1_555
H29 C57 1_555 1_555
C58 O12 1_555 1_555
H30 C58 1_555 1_555
H31 C58 1_555 1_555
C59 C58 1_555 1_555
C60 C59 1_555 1_555
H32 C60 1_555 1_555
C61 C60 1_555 1_555
H33 C61 1_555 1_555
C62 C61 1_555 1_555
H34 C62 1_555 1_555
C63 C62 1_555 1_555
H35 C63 1_555 1_555
C64 C59 1_555 1_555
H36 C64 1_555 1_555
C65 C2 1_555 1_555
C66 C65 1_555 1_555
H37 C66 1_555 1_555
H38 C66 1_555 1_555
H39 C66 1_555 1_555
C67 C65 1_555 1_555
H40 C67 1_555 1_555
H41 C67 1_555 1_555
H42 C67 1_555 1_555
C68 C65 1_555 1_555
H43 C68 1_555 1_555
H44 C68 1_555 1_555
H45 C68 1_555 1_555
C69 C7 1_555 1_555
C70 C69 1_555 1_555
H46 C70 1_555 1_555
H47 C70 1_555 1_555
H48 C70 1_555 1_555
C71 C69 1_555 1_555
H49 C71 1_555 1_555
H50 C71 1_555 1_555
H51 C71 1_555 1_555
C72 C69 1_555 1_555
H52 C72 1_555 1_555
H53 C72 1_555 1_555
H54 C72 1_555 1_555
C73 C11 1_555 1_555
C74 C73 1_555 1_555
H55 C74 1_555 1_555
H56 C74 1_555 1_555
H57 C74 1_555 1_555
C75 C73 1_555 1_555
H58 C75 1_555 1_555
H59 C75 1_555 1_555
H60 C75 1_555 1_555
C76 C73 1_555 1_555
H61 C76 1_555 1_555
H62 C76 1_555 1_555
H63 C76 1_555 1_555
C77 C16 1_555 1_555
C78 C77 1_555 1_555
H64 C78 1_555 1_555
H65 C78 1_555 1_555
H66 C78 1_555 1_555
C79 C77 1_555 1_555
H67 C79 1_555 1_555
H68 C79 1_555 1_555
H69 C79 1_555 1_555
C80 C77 1_555 1_555
H70 C80 1_555 1_555
H71 C80 1_555 1_555
H72 C80 1_555 1_555
C81 C34 1_555 1_555
C82 C81 1_555 1_555
H73 C82 1_555 1_555
H74 C82 1_555 1_555
H75 C82 1_555 1_555
C83 C81 1_555 1_555
H76 C83 1_555 1_555
H77 C83 1_555 1_555
H78 C83 1_555 1_555
C84 C81 1_555 1_555
H79 C84 1_555 1_555
H80 C84 1_555 1_555
H81 C84 1_555 1_555
C85 C39 1_555 1_555
C86 C85 1_555 1_555
H82 C86 1_555 1_555
H83 C86 1_555 1_555
H84 C86 1_555 1_555
C87 C85 1_555 1_555
H85 C87 1_555 1_555
H86 C87 1_555 1_555
H87 C87 1_555 1_555
C88 C85 1_555 1_555
H88 C88 1_555 1_555
H89 C88 1_555 1_555
H90 C88 1_555 1_555
C89 C43 1_555 1_555
C90 C89 1_555 1_555
H91 C90 1_555 1_555
H92 C90 1_555 1_555
H93 C90 1_555 1_555
C91 C89 1_555 1_555
H94 C91 1_555 1_555
H95 C91 1_555 1_555
H96 C91 1_555 1_555
C92 C89 1_555 1_555
H97 C92 1_555 1_555
H98 C92 1_555 1_555
H99 C92 1_555 1_555
C93 C48 1_555 1_555
C94 C93 1_555 1_555
H100 C94 1_555 1_555
H101 C94 1_555 1_555
H102 C94 1_555 1_555
C95 C93 1_555 1_555
H103 C95 1_555 1_555
H104 C95 1_555 1_555
H105 C95 1_555 1_555
C96 C93 1_555 1_555
H106 C96 1_555 1_555
H107 C96 1_555 1_555
H108 C96 1_555 1_555
N3 C3 1_555 1_555
N6 C12 1_555 1_555
N9 C35 1_555 1_555
N12 C44 1_555 1_555
C8 C9 1_555 1_555
C13 C18 1_555 1_555
C17 C18 1_555 1_555
C24 C25 1_555 1_555
C31 C32 1_555 1_555
C40 C41 1_555 1_555
C45 C50 1_555 1_555
C49 C50 1_555 1_555
C56 C57 1_555 1_555
C63 C64 1_555 1_555

#END
