
#######################################################################
#
#                 Cambridge Crystallographic Data Centre
#                                CCDC 
#
#######################################################################
#
# If this CIF has been generated from an entry in the Cambridge 
# Structural Database, then it will include bibliographic, chemical, 
# crystal, experimental, refinement or atomic coordinate data resulting 
# from the CCDC's data processing and validation procedures.
#
#######################################################################

data_DIJBAC
_chemical_formula_moiety         'C21 H23 N1 O6'
_chemical_name_systematic        
'ethyl 6-(furan-2-yl)-2-hydroxy-2-methyl-4-oxo-5-(phenylcarbamoyl)cyclohexane-1-carboxylate'
_symmetry_cell_setting           monoclinic
_symmetry_space_group_name_H-M   'P 21/c'
_symmetry_Int_Tables_number      14
_space_group_name_Hall           '-P 2ybc'
loop_
_symmetry_equiv_pos_site_id
_symmetry_equiv_pos_as_xyz
1 x,y,z
2 -x,1/2+y,1/2-z
3 -x,-y,-z
4 x,1/2-y,1/2+z
_cell_length_a                   9.0316(18)
_cell_length_b                   22.760(5)
_cell_length_c                   9.7266(19)
_cell_angle_alpha                90
_cell_angle_beta                 98.26(3)
_cell_angle_gamma                90
_cell_volume                     1978.65
_exptl_crystal_colour            colorless
_exptl_crystal_description       needle
_cell_formula_units_Z            4
loop_
_atom_site_label
_atom_site_type_symbol
_atom_site_fract_x
_atom_site_fract_y
_atom_site_fract_z
C1 C -0.1422(3) 0.64928(12) 0.8137(3)
H1 H -0.165(3) 0.6505(11) 0.714(3)
C2 C -0.2509(3) 0.69043(12) 0.8753(2)
C3 C -0.2316(3) 0.75241(13) 0.8237(3)
H2 H -0.262(3) 0.7524(12) 0.728(3)
H3 H -0.293(3) 0.7769(13) 0.870(3)
C4 C -0.0743(3) 0.77292(12) 0.8498(3)
C5 C 0.0442(3) 0.73160(11) 0.8075(3)
H4 H 0.029(3) 0.7305(11) 0.710(3)
C6 C 0.0226(3) 0.66858(11) 0.8578(3)
H5 H 0.043(3) 0.6689(10) 0.957(3)
H6 H -0.206(3) 0.6580(14) 1.051(3)
O1 O -0.2091(2) 0.69365(10) 1.02313(19)
C7 C -0.4122(4) 0.67159(19) 0.8395(4)
H7 H -0.477(4) 0.6963(15) 0.883(3)
H8 H -0.444(4) 0.6730(14) 0.744(4)
H9 H -0.429(4) 0.6333(17) 0.866(4)
O2 O -0.0398(3) 0.81951(11) 0.9029(3)
C8 C -0.1623(3) 0.58681(13) 0.8571(3)
O3 O -0.1752(3) 0.57221(9) 0.9747(2)
O4 O -0.1629(3) 0.54958(8) 0.7536(2)
C9 C -0.1648(6) 0.48710(15) 0.7864(4)
H10 H -0.107832 0.480081 0.877309
H11 H -0.266876 0.474289 0.788463
C10 C -0.1018(7) 0.45504(19) 0.6849(6)
H12 H -0.165905 0.457894 0.597393
H13 H -0.091641 0.414564 0.712374
H14 H -0.005193 0.470862 0.675812
C11 C 0.1323(3) 0.62755(11) 0.8099(3)
O5 O 0.1815(3) 0.58408(9) 0.9008(2)
C12 C 0.2741(4) 0.54985(16) 0.8353(4)
H15 H 0.322(4) 0.5202(15) 0.890(3)
C13 C 0.2843(4) 0.57009(15) 0.7109(4)
H16 H 0.351(4) 0.5525(16) 0.653(4)
C14 C 0.1915(4) 0.62057(15) 0.6933(3)
H17 H 0.173(4) 0.6466(18) 0.619(4)
C15 C 0.1956(3) 0.75636(11) 0.8658(2)
O6 O 0.2446(2) 0.75066(8) 0.98923(17)
H18 H 0.231(3) 0.7795(13) 0.686(3)
N1 N 0.2635(3) 0.78817(10) 0.7756(2)
C16 C 0.3857(3) 0.82710(11) 0.8038(2)
C17 C 0.4387(3) 0.85224(13) 0.6912(3)
H19 H 0.396(3) 0.8395(13) 0.602(3)
C18 C 0.5532(4) 0.89261(14) 0.7102(3)
H20 H 0.587(4) 0.9107(14) 0.627(3)
C19 C 0.6158(4) 0.90885(14) 0.8408(4)
H21 H 0.699(4) 0.9364(14) 0.858(3)
C20 C 0.5635(4) 0.88407(14) 0.9533(3)
H22 H 0.609(3) 0.8967(13) 1.048(3)
C21 C 0.4493(3) 0.84327(14) 0.9362(3)
H23 H 0.419(4) 0.8238(14) 1.011(3)
loop_
_geom_bond_atom_site_label_1
_geom_bond_atom_site_label_2
_geom_bond_site_symmetry_1
_geom_bond_site_symmetry_2
C1 H1 1_555 1_555
C2 C1 1_555 1_555
C3 C2 1_555 1_555
H2 C3 1_555 1_555
H3 C3 1_555 1_555
C4 C3 1_555 1_555
C5 C4 1_555 1_555
H4 C5 1_555 1_555
C6 C1 1_555 1_555
H5 C6 1_555 1_555
H6 O1 1_555 1_555
O1 C2 1_555 1_555
C7 C2 1_555 1_555
H7 C7 1_555 1_555
H8 C7 1_555 1_555
H9 C7 1_555 1_555
O2 C4 1_555 1_555
C8 C1 1_555 1_555
O3 C8 1_555 1_555
O4 C8 1_555 1_555
C9 O4 1_555 1_555
H10 C9 1_555 1_555
H11 C9 1_555 1_555
C10 C9 1_555 1_555
H12 C10 1_555 1_555
H13 C10 1_555 1_555
H14 C10 1_555 1_555
C11 C6 1_555 1_555
O5 C11 1_555 1_555
C12 O5 1_555 1_555
H15 C12 1_555 1_555
C13 C12 1_555 1_555
H16 C13 1_555 1_555
C14 C11 1_555 1_555
H17 C14 1_555 1_555
C15 C5 1_555 1_555
O6 C15 1_555 1_555
H18 N1 1_555 1_555
N1 C15 1_555 1_555
C16 N1 1_555 1_555
C17 C16 1_555 1_555
H19 C17 1_555 1_555
C18 C17 1_555 1_555
H20 C18 1_555 1_555
C19 C18 1_555 1_555
H21 C19 1_555 1_555
C20 C19 1_555 1_555
H22 C20 1_555 1_555
C21 C16 1_555 1_555
H23 C21 1_555 1_555
C5 C6 1_555 1_555
C13 C14 1_555 1_555
C20 C21 1_555 1_555

#END
