
#######################################################################
#
#                 Cambridge Crystallographic Data Centre
#                                CCDC 
#
#######################################################################
#
# If this CIF has been generated from an entry in the Cambridge 
# Structural Database, then it will include bibliographic, chemical, 
# crystal, experimental, refinement or atomic coordinate data resulting 
# from the CCDC's data processing and validation procedures.
#
#######################################################################

data_DIJCEH
_chemical_formula_moiety         'C44 H42 N2 O4 S2'
_chemical_name_systematic        
8,20-bis(4-t-butylphenyl)-2,14-dithia-8,20-diazapentacyclo[19.3.1.1^3,7^.1^9,13^.1^15,19^]octacosa-1(25),3(28),4,6,9(27),10,12,15(26),16,18,21,23-dodecaene-2,2,14,14-tetrone
_symmetry_cell_setting           triclinic
_symmetry_space_group_name_H-M   'P -1'
_symmetry_Int_Tables_number      2
_space_group_name_Hall           '-P 1'
loop_
_symmetry_equiv_pos_site_id
_symmetry_equiv_pos_as_xyz
1 x,y,z
2 -x,-y,-z
_cell_length_a                   7.2994(2)
_cell_length_b                   9.0319(3)
_cell_length_c                   14.3088(3)
_cell_angle_alpha                84.935(2)
_cell_angle_beta                 77.163(2)
_cell_angle_gamma                84.614(2)
_cell_volume                     913.492
_exptl_crystal_colour            colorless
_exptl_crystal_description       block
_cell_formula_units_Z            1
loop_
_atom_site_label
_atom_site_type_symbol
_atom_site_fract_x
_atom_site_fract_y
_atom_site_fract_z
S1 S 0.65840(5) 0.14970(4) 1.05906(3)
O1 O 0.76866(18) 0.01194(13) 1.07214(9)
O2 O 0.46433(16) 0.16735(14) 1.10942(9)
N1 N 0.3469(2) 0.35800(16) 0.78135(10)
C1 C 0.5085(2) 0.25978(18) 0.90738(12)
H1 H 0.405731 0.293532 0.953561
C2 C 0.3104(2) 0.33336(19) 0.69021(12)
C3 C 0.2233(2) 0.70614(18) 0.90902(11)
C4 C 0.6645(2) 0.18459(17) 0.93489(12)
C5 C 0.8213(2) 0.13112(18) 0.86826(13)
H2 H 0.924937 0.080742 0.887805
C6 C 0.3006(2) 0.18963(19) 0.66530(12)
H3 H 0.311990 0.108869 0.709222
C7 C 0.2414(2) 0.47748(18) 0.83233(11)
C8 C 0.0276(2) 0.72000(19) 0.92316(12)
H4 H -0.042763 0.800782 0.952913
C9 C 0.3313(2) 0.58613(18) 0.86448(11)
H5 H 0.461731 0.578651 0.856321
C10 C 0.0454(2) 0.49027(19) 0.84659(12)
H6 H -0.015274 0.417658 0.825606
C11 C -0.0595(2) 0.6092(2) 0.89140(12)
H7 H -0.190108 0.615515 0.900550
C12 C 0.2738(3) 0.1666(2) 0.57491(12)
H8 H 0.268009 0.069625 0.559198
C13 C 0.6635(2) 0.23105(19) 0.74268(12)
H9 H 0.664496 0.246400 0.677447
C14 C 0.5066(2) 0.28449(17) 0.81015(12)
C15 C 0.8167(2) 0.15582(19) 0.77217(13)
H10 H 0.919227 0.120968 0.726227
C16 C 0.2554(2) 0.28441(19) 0.50664(12)
C17 C 0.2331(3) 0.2537(2) 0.40604(13)
C18 C 0.2613(3) 0.4270(2) 0.53434(13)
H11 H 0.246503 0.508248 0.491284
C19 C 0.2887(3) 0.4518(2) 0.62426(13)
H12 H 0.292552 0.548780 0.640442
C20 C 0.2396(3) 0.3951(2) 0.33882(13)
H13 H 0.134860 0.463926 0.363017
H14 H 0.232801 0.370289 0.275878
H15 H 0.355227 0.440107 0.335311
C21 C 0.0426(4) 0.1890(3) 0.41313(17)
H16 H 0.042494 0.092323 0.446925
H17 H 0.023171 0.180328 0.349709
H18 H -0.056815 0.253949 0.447190
C22 C 0.3933(4) 0.1426(3) 0.36157(15)
H19 H 0.512153 0.180580 0.360793
H20 H 0.384427 0.128632 0.297026
H21 H 0.383718 0.048955 0.398967
S1A S 0.34160(5) 0.85030(4) 0.94094(3)
O1A O 0.23134(18) 0.98806(13) 0.92786(9)
O2A O 0.53567(16) 0.83265(14) 0.89058(9)
N1A N 0.6531(2) 0.64200(16) 1.21865(10)
C1A C 0.4915(2) 0.74022(18) 1.09262(12)
H1A H 0.594269 0.706468 1.046439
C2A C 0.6896(2) 0.66664(19) 1.30979(12)
C3A C 0.7767(2) 0.29386(18) 1.09098(11)
C4A C 0.3355(2) 0.81541(17) 1.06511(12)
C5A C 0.1787(2) 0.86888(18) 1.13174(13)
H2A H 0.075063 0.919258 1.112195
C6A C 0.6994(2) 0.81037(19) 1.33470(12)
H3A H 0.688010 0.891131 1.290778
C7A C 0.7586(2) 0.52252(18) 1.16767(11)
C8A C 0.9724(2) 0.28000(19) 1.07684(12)
H4A H 1.042763 0.199218 1.047087
C9A C 0.6687(2) 0.41387(18) 1.13552(11)
H5A H 0.538269 0.421349 1.143679
C10A C 0.9546(2) 0.50973(19) 1.15341(12)
H6A H 1.015274 0.582342 1.174394
C11A C 1.0595(2) 0.3908(2) 1.10860(12)
H7A H 1.190108 0.384485 1.099450
C12A C 0.7262(3) 0.8334(2) 1.42509(12)
H8A H 0.731991 0.930375 1.440802
C13A C 0.3365(2) 0.76895(19) 1.25732(12)
H9A H 0.335504 0.753600 1.322553
C14A C 0.4934(2) 0.71551(17) 1.18985(12)
C15A C 0.1833(2) 0.84418(19) 1.22783(13)
H10A H 0.080773 0.879032 1.273773
C16A C 0.7446(2) 0.71559(19) 1.49336(12)
C17A C 0.7669(3) 0.7463(2) 1.59396(13)
C18A C 0.7387(3) 0.5730(2) 1.46566(13)
H11A H 0.753497 0.491752 1.508716
C19A C 0.7113(3) 0.5482(2) 1.37574(13)
H12A H 0.707448 0.451220 1.359558
C20A C 0.7604(3) 0.6049(2) 1.66118(13)
H13A H 0.865140 0.536074 1.636983
H14A H 0.767199 0.629711 1.724122
H15A H 0.644773 0.559893 1.664689
C21A C 0.9574(4) 0.8110(3) 1.58687(17)
H16A H 0.957506 0.907677 1.553075
H17A H 0.976829 0.819672 1.650291
H18A H 1.056815 0.746051 1.552810
C22A C 0.6067(4) 0.8574(3) 1.63843(15)
H19A H 0.487847 0.819420 1.639207
H20A H 0.615573 0.871368 1.702974
H21A H 0.616282 0.951045 1.601033
loop_
_geom_bond_atom_site_label_1
_geom_bond_atom_site_label_2
_geom_bond_site_symmetry_1
_geom_bond_site_symmetry_2
S1 O1 1_555 1_555
O2 S1 1_555 1_555
N1 C2 1_555 1_555
C1 H1 1_555 1_555
C2 C6 1_555 1_555
C3 C8 1_555 1_555
C4 S1 1_555 1_555
C5 C4 1_555 1_555
H2 C5 1_555 1_555
C6 H3 1_555 1_555
C7 N1 1_555 1_555
C8 H4 1_555 1_555
C9 C3 1_555 1_555
H5 C9 1_555 1_555
C10 C7 1_555 1_555
H6 C10 1_555 1_555
C11 C8 1_555 1_555
H7 C11 1_555 1_555
C12 C6 1_555 1_555
H8 C12 1_555 1_555
C13 H9 1_555 1_555
C14 N1 1_555 1_555
C15 C5 1_555 1_555
H10 C15 1_555 1_555
C16 C12 1_555 1_555
C17 C16 1_555 1_555
C18 C16 1_555 1_555
H11 C18 1_555 1_555
C19 C2 1_555 1_555
H12 C19 1_555 1_555
C20 C17 1_555 1_555
H13 C20 1_555 1_555
H14 C20 1_555 1_555
H15 C20 1_555 1_555
C21 C17 1_555 1_555
H16 C21 1_555 1_555
H17 C21 1_555 1_555
H18 C21 1_555 1_555
C22 C17 1_555 1_555
H19 C22 1_555 1_555
H20 C22 1_555 1_555
H21 C22 1_555 1_555
S1A C3 1_555 1_555
O1A S1A 1_555 1_555
O2A S1A 1_555 1_555
N1A C2A 1_555 1_555
C1A H1A 1_555 1_555
C2A C6A 1_555 1_555
C3A S1 1_555 1_555
C4A S1A 1_555 1_555
C5A C4A 1_555 1_555
H2A C5A 1_555 1_555
C6A H3A 1_555 1_555
C7A N1A 1_555 1_555
C8A C3A 1_555 1_555
H4A C8A 1_555 1_555
C9A C3A 1_555 1_555
H5A C9A 1_555 1_555
C10A C7A 1_555 1_555
H6A C10A 1_555 1_555
C11A C8A 1_555 1_555
H7A C11A 1_555 1_555
C12A C6A 1_555 1_555
H8A C12A 1_555 1_555
C13A H9A 1_555 1_555
C14A N1A 1_555 1_555
C15A C5A 1_555 1_555
H10A C15A 1_555 1_555
C16A C12A 1_555 1_555
C17A C16A 1_555 1_555
C18A C16A 1_555 1_555
H11A C18A 1_555 1_555
C19A C2A 1_555 1_555
H12A C19A 1_555 1_555
C20A C17A 1_555 1_555
H13A C20A 1_555 1_555
H14A C20A 1_555 1_555
H15A C20A 1_555 1_555
C21A C17A 1_555 1_555
H16A C21A 1_555 1_555
H17A C21A 1_555 1_555
H18A C21A 1_555 1_555
C22A C17A 1_555 1_555
H19A C22A 1_555 1_555
H20A C22A 1_555 1_555
H21A C22A 1_555 1_555
C1 C4 1_555 1_555
C1 C14 1_555 1_555
C7 C9 1_555 1_555
C10 C11 1_555 1_555
C13 C14 1_555 1_555
C13 C15 1_555 1_555
C18 C19 1_555 1_555
C1A C4A 1_555 1_555
C1A C14A 1_555 1_555
C7A C9A 1_555 1_555
C10A C11A 1_555 1_555
C13A C14A 1_555 1_555
C13A C15A 1_555 1_555
C18A C19A 1_555 1_555

#END
