
#######################################################################
#
#                 Cambridge Crystallographic Data Centre
#                                CCDC 
#
#######################################################################
#
# If this CIF has been generated from an entry in the Cambridge 
# Structural Database, then it will include bibliographic, chemical, 
# crystal, experimental, refinement or atomic coordinate data resulting 
# from the CCDC's data processing and validation procedures.
#
#######################################################################

data_DIJLEO
_chemical_formula_moiety         'C13 H14 O3'
_chemical_name_systematic        'Ethyl 2,6-dimethylbenzofuran-3-carboxylate'
_symmetry_cell_setting           monoclinic
_symmetry_space_group_name_H-M   'P 21/c'
_symmetry_Int_Tables_number      14
_space_group_name_Hall           '-P 2ybc'
loop_
_symmetry_equiv_pos_site_id
_symmetry_equiv_pos_as_xyz
1 x,y,z
2 -x,1/2+y,1/2-z
3 -x,-y,-z
4 x,1/2-y,1/2+z
_cell_length_a                   8.0203(12)
_cell_length_b                   19.603(3)
_cell_length_c                   7.4796(11)
_cell_angle_alpha                90
_cell_angle_beta                 95.030(3)
_cell_angle_gamma                90
_cell_volume                     1171.43
_exptl_crystal_colour            colorless
_exptl_crystal_description       prismatic
_chemical_melting_point          '65-67 deg.C'
_cell_formula_units_Z            4
loop_
_atom_site_label
_atom_site_type_symbol
_atom_site_fract_x
_atom_site_fract_y
_atom_site_fract_z
O1 O 1.03447(19) 0.73685(7) 0.2762(2)
O2 O 0.5388(2) 0.72032(9) 0.0278(2)
O3 O 0.55851(18) 0.83363(8) 0.0181(2)
C1 C 0.8795(3) 0.71853(11) 0.1977(3)
C2 C 0.7862(3) 0.77416(11) 0.1477(3)
C3 C 0.8906(3) 0.83327(11) 0.1983(3)
C4 C 1.0395(3) 0.80733(11) 0.2756(3)
C5 C 1.1733(3) 0.84617(12) 0.3425(3)
H1 H 1.2708 0.8261 0.3945
C6 C 1.1574(3) 0.91625(12) 0.3296(3)
C7 C 1.0083(3) 0.94360(12) 0.2522(3)
H2 H 0.9982 0.9908 0.2439
C8 C 0.8747(3) 0.90379(12) 0.1872(3)
H3 H 0.7762 0.9237 0.1371
C9 C 0.6175(3) 0.77132(13) 0.0601(3)
C10 C 0.8494(3) 0.64439(11) 0.1851(3)
H4 H 0.9262 0.6242 0.1090
H5 H 0.7367 0.6362 0.1356
H6 H 0.8656 0.6245 0.3027
C11 C 1.3015(3) 0.96217(14) 0.3957(4)
H7 H 1.3221 0.9945 0.3038
H8 H 1.3999 0.9351 0.4242
H9 H 1.2737 0.9861 0.5011
C12 C 0.3913(3) 0.83681(14) -0.0725(4)
H10 H 0.3107 0.8178 0.0031
H11 H 0.3860 0.8111 -0.1836
C13 C 0.3539(4) 0.91024(16) -0.1102(4)
H12 H 0.3632 0.9354 0.0003
H13 H 0.2422 0.9146 -0.1668
H14 H 0.4321 0.9280 -0.1885
loop_
_geom_bond_atom_site_label_1
_geom_bond_atom_site_label_2
_geom_bond_site_symmetry_1
_geom_bond_site_symmetry_2
O1 C1 1_555 1_555
O2 C9 1_555 1_555
O3 C9 1_555 1_555
C1 C2 1_555 1_555
C2 C3 1_555 1_555
C3 C4 1_555 1_555
C4 O1 1_555 1_555
C5 C4 1_555 1_555
H1 C5 1_555 1_555
C6 C5 1_555 1_555
C7 C6 1_555 1_555
H2 C7 1_555 1_555
C8 C3 1_555 1_555
H3 C8 1_555 1_555
C9 C2 1_555 1_555
C10 C1 1_555 1_555
H4 C10 1_555 1_555
H5 C10 1_555 1_555
H6 C10 1_555 1_555
C11 C6 1_555 1_555
H7 C11 1_555 1_555
H8 C11 1_555 1_555
H9 C11 1_555 1_555
C12 O3 1_555 1_555
H10 C12 1_555 1_555
H11 C12 1_555 1_555
C13 C12 1_555 1_555
H12 C13 1_555 1_555
H13 C13 1_555 1_555
H14 C13 1_555 1_555
C7 C8 1_555 1_555

#END
