
#######################################################################
#
#                 Cambridge Crystallographic Data Centre
#                                CCDC 
#
#######################################################################
#
# If this CIF has been generated from an entry in the Cambridge 
# Structural Database, then it will include bibliographic, chemical, 
# crystal, experimental, refinement or atomic coordinate data resulting 
# from the CCDC's data processing and validation procedures.
#
#######################################################################

data_DILYEC01
_chemical_formula_moiety         'C21 H28 O3'
_chemical_name_systematic        16\a,17-Epoxy-4-pregnene-3,20-dione
_symmetry_cell_setting           orthorhombic
_symmetry_space_group_name_H-M   'P 21 21 21'
_symmetry_Int_Tables_number      19
_space_group_name_Hall           'P 2ac 2ab'
loop_
_symmetry_equiv_pos_site_id
_symmetry_equiv_pos_as_xyz
1 x,y,z
2 1/2-x,-y,1/2+z
3 -x,1/2+y,1/2-z
4 1/2+x,1/2-y,-z
_cell_length_a                   7.33570(10)
_cell_length_b                   12.1537(2)
_cell_length_c                   20.32040(10)
_cell_angle_alpha                90
_cell_angle_beta                 90
_cell_angle_gamma                90
_cell_volume                     1811.68
_exptl_crystal_colour            colorless
_exptl_crystal_description       block
_chemical_melting_point          '482.8 K'
_cell_formula_units_Z            4
_exptl_crystal_recrystallization_method toluene
loop_
_atom_site_label
_atom_site_type_symbol
_atom_site_fract_x
_atom_site_fract_y
_atom_site_fract_z
O1 O 0.4158(5) 0.77332(17) 0.34341(11)
O2 O 0.4033(3) 0.02549(14) 0.50258(8)
O3 O -0.0240(4) -0.0678(2) 0.45860(15)
C1 C 0.3715(6) 0.6768(3) 0.33546(13)
C2 C 0.5035(4) 0.5912(3) 0.32515(12)
H1 H 0.6252 0.6118 0.3213
C3 C 0.4643(3) 0.4843(2) 0.32066(10)
C4 C 0.6073(3) 0.4026(2) 0.30313(12)
H2 H 0.7258 0.4378 0.3054
H3 H 0.5884 0.3786 0.2581
C5 C 0.6071(3) 0.3026(2) 0.34798(12)
H4 H 0.6919 0.2483 0.3310
H5 H 0.6481 0.3241 0.3915
C6 C 0.4189(3) 0.25162(17) 0.35307(9)
H6 H 0.3825 0.2244 0.3096
C7 C 0.4148(3) 0.15726(17) 0.40137(9)
H7 H 0.4403 0.1905 0.4443
C8 C 0.5467(3) 0.0608(2) 0.39586(15)
H8 H 0.5515 0.0325 0.3512
H9 H 0.6685 0.0815 0.4097
C9 C 0.4644(4) -0.0211(2) 0.44183(14)
H10 H 0.5038 -0.0981 0.4403
C10 C 0.2700(3) 0.0053(2) 0.45194(11)
C11 C 0.2270(3) 0.10261(19) 0.40878(9)
C12 C 0.0992(3) 0.18906(19) 0.43530(11)
H11 H 0.1392 0.2115 0.4788
H12 H -0.0223 0.1583 0.4393
C13 C 0.0934(3) 0.28926(19) 0.38992(12)
H13 H 0.0171 0.3452 0.4099
H14 H 0.0375 0.2681 0.3486
C14 C 0.2813(3) 0.33877(18) 0.37578(9)
H15 H 0.3267 0.3659 0.4181
C15 C 0.2728(3) 0.4407(2) 0.32986(11)
C16 C 0.1540(4) 0.5286(2) 0.36257(13)
H16 H 0.0270 0.5074 0.3585
H17 H 0.1831 0.5316 0.4091
C17 C 0.1791(5) 0.6433(3) 0.33289(17)
H18 H 0.1379 0.6430 0.2875
H19 H 0.1055 0.6959 0.3571
C18 C 0.1340(5) -0.0789(2) 0.47311(14)
C19 C 0.1963(5) -0.1744(2) 0.51246(16)
H20 H 0.0942 -0.2211 0.5222
H21 H 0.2498 -0.1489 0.5528
H22 H 0.2854 -0.2152 0.4879
C20 C 0.1572(4) 0.0554(2) 0.34354(11)
H23 H 0.0400 0.0222 0.3503
H24 H 0.2413 0.0010 0.3277
H25 H 0.1467 0.1135 0.3118
C21 C 0.1973(3) 0.4112(2) 0.26136(11)
H26 H 0.1940 0.4761 0.2344
H27 H 0.0763 0.3820 0.2658
H28 H 0.2746 0.3571 0.2412
loop_
_geom_bond_atom_site_label_1
_geom_bond_atom_site_label_2
_geom_bond_site_symmetry_1
_geom_bond_site_symmetry_2
O1 C1 1_555 1_555
O2 C9 1_555 1_555
O3 C18 1_555 1_555
C1 C2 1_555 1_555
C2 H1 1_555 1_555
C3 C2 1_555 1_555
C4 C3 1_555 1_555
H2 C4 1_555 1_555
H3 C4 1_555 1_555
C5 C4 1_555 1_555
H4 C5 1_555 1_555
H5 C5 1_555 1_555
C6 C5 1_555 1_555
H6 C6 1_555 1_555
C7 C6 1_555 1_555
H7 C7 1_555 1_555
C8 C7 1_555 1_555
H8 C8 1_555 1_555
H9 C8 1_555 1_555
C9 C8 1_555 1_555
H10 C9 1_555 1_555
C10 O2 1_555 1_555
C11 C7 1_555 1_555
C12 C11 1_555 1_555
H11 C12 1_555 1_555
H12 C12 1_555 1_555
C13 C12 1_555 1_555
H13 C13 1_555 1_555
H14 C13 1_555 1_555
C14 C6 1_555 1_555
H15 C14 1_555 1_555
C15 C3 1_555 1_555
C16 C15 1_555 1_555
H16 C16 1_555 1_555
H17 C16 1_555 1_555
C17 C1 1_555 1_555
H18 C17 1_555 1_555
H19 C17 1_555 1_555
C18 C10 1_555 1_555
C19 C18 1_555 1_555
H20 C19 1_555 1_555
H21 C19 1_555 1_555
H22 C19 1_555 1_555
C20 C11 1_555 1_555
H23 C20 1_555 1_555
H24 C20 1_555 1_555
H25 C20 1_555 1_555
C21 C15 1_555 1_555
H26 C21 1_555 1_555
H27 C21 1_555 1_555
H28 C21 1_555 1_555
C9 C10 1_555 1_555
C10 C11 1_555 1_555
C13 C14 1_555 1_555
C14 C15 1_555 1_555
C16 C17 1_555 1_555

#END
