
#######################################################################
#
#                 Cambridge Crystallographic Data Centre
#                                CCDC 
#
#######################################################################
#
# If this CIF has been generated from an entry in the Cambridge 
# Structural Database, then it will include bibliographic, chemical, 
# crystal, experimental, refinement or atomic coordinate data resulting 
# from the CCDC's data processing and validation procedures.
#
#######################################################################

data_DIMFAJ
_chemical_formula_moiety         'C6 H8 N3 1+,C4 N3 1-'
_chemical_name_systematic        
'1-(cyanomethyl)-3-methyl-1H-imidazol-3-ium tricyanomethanide'
_symmetry_cell_setting           monoclinic
_symmetry_space_group_name_H-M   'P 21/c'
_symmetry_Int_Tables_number      14
_space_group_name_Hall           '-P 2ybc'
loop_
_symmetry_equiv_pos_site_id
_symmetry_equiv_pos_as_xyz
1 x,y,z
2 -x,1/2+y,1/2-z
3 -x,-y,-z
4 x,1/2-y,1/2+z
_cell_length_a                   7.2430(6)
_cell_length_b                   9.9804(7)
_cell_length_c                   15.4008(13)
_cell_angle_alpha                90
_cell_angle_beta                 97.788(8)
_cell_angle_gamma                90
_cell_volume                     1103.02
_exptl_crystal_colour            colorless
_exptl_crystal_description       prism
_cell_formula_units_Z            4
loop_
_atom_site_label
_atom_site_type_symbol
_atom_site_fract_x
_atom_site_fract_y
_atom_site_fract_z
N1 N 0.23099(17) 0.12256(12) 0.67027(8)
N2 N 0.03469(17) 0.09867(12) 0.76324(8)
N3 N 0.6159(2) -0.04330(15) 0.61184(9)
C1 C -0.1239(2) 0.05204(18) 0.80580(11)
H1 H -0.192(3) 0.134(2) 0.8243(12)
H2 H -0.077(3) 0.002(2) 0.8599(13)
H3 H -0.205(3) 0.000(2) 0.7670(14)
C2 C 0.0740(2) 0.06106(15) 0.68493(10)
H4 H 0.005(2) 0.0022(17) 0.6470(11)
C3 C 0.1715(2) 0.18596(15) 0.80044(10)
H5 H 0.168(3) 0.2229(18) 0.8589(12)
C4 C 0.2949(2) 0.20150(15) 0.74259(10)
H6 H 0.405(3) 0.2536(18) 0.7443(11)
C5 C 0.3190(2) 0.10958(15) 0.59009(10)
H7 H 0.230(2) 0.0722(16) 0.5439(11)
H8 H 0.356(2) 0.2006(18) 0.5703(11)
C6 C 0.4847(2) 0.02232(15) 0.60391(9)
N4 N 0.3012(2) 0.67497(14) 0.29176(9)
N5 N 0.2910(2) 0.41787(14) 0.52688(10)
N6 N 0.08354(19) 0.83601(13) 0.53101(9)
C7 C 0.2705(2) 0.66318(15) 0.36338(10)
C8 C 0.2662(2) 0.52058(16) 0.49255(10)
C9 C 0.1499(2) 0.75086(15) 0.49406(10)
C10 C 0.2307(2) 0.64614(15) 0.45016(10)
loop_
_geom_bond_atom_site_label_1
_geom_bond_atom_site_label_2
_geom_bond_site_symmetry_1
_geom_bond_site_symmetry_2
N1 C2 1_555 1_555
N2 C1 1_555 1_555
N3 C6 1_555 1_555
C1 H1 1_555 1_555
H2 C1 1_555 1_555
H3 C1 1_555 1_555
C2 N2 1_555 1_555
H4 C2 1_555 1_555
C3 N2 1_555 1_555
H5 C3 1_555 1_555
C4 N1 1_555 1_555
H6 C4 1_555 1_555
C5 N1 1_555 1_555
H7 C5 1_555 1_555
H8 C5 1_555 1_555
C6 C5 1_555 1_555
N4 C7 1_555 1_555
N5 C8 1_555 1_555
N6 C9 1_555 1_555
C7 C10 1_555 1_555
C8 C10 1_555 1_555
C9 C10 1_555 1_555
C3 C4 1_555 1_555

#END
