
#######################################################################
#
#                 Cambridge Crystallographic Data Centre
#                                CCDC 
#
#######################################################################
#
# If this CIF has been generated from an entry in the Cambridge 
# Structural Database, then it will include bibliographic, chemical, 
# crystal, experimental, refinement or atomic coordinate data resulting 
# from the CCDC's data processing and validation procedures.
#
#######################################################################

data_DIMYED10
_chemical_formula_moiety         'C5 H3 I1 N2 O4 S1'
_chemical_name_systematic        2-Iodo-4-methyl-3,5-dinitrothiophene
_symmetry_cell_setting           orthorhombic
_symmetry_space_group_name_H-M   'P 21 21 21'
_symmetry_Int_Tables_number      19
_space_group_name_Hall           'P 2ac 2ab'
loop_
_symmetry_equiv_pos_site_id
_symmetry_equiv_pos_as_xyz
1 x,y,z
2 1/2-x,-y,1/2+z
3 1/2+x,1/2-y,-z
4 -x,1/2+y,1/2-z
_cell_length_a                   7.173(2)
_cell_length_b                   9.276(3)
_cell_length_c                   13.550(6)
_cell_angle_alpha                90
_cell_angle_beta                 90
_cell_angle_gamma                90
_cell_volume                     901.573
_exptl_crystal_colour            'light yellow'
_chemical_melting_point          109deg.C
_cell_formula_units_Z            4
loop_
_atom_site_label
_atom_site_type_symbol
_atom_site_fract_x
_atom_site_fract_y
_atom_site_fract_z
I1 I 0.4132 0.6125 1.0069
S1 S 0.3694(2) 0.2859(1) 0.9243(1)
C1 C 0.5055(6) 0.4350(4) 0.9295(3)
C2 C 0.6720(5) 0.4124(4) 0.8823(3)
C3 C 0.6963(6) 0.2730(4) 0.8396(3)
C4 C 0.5387(7) 0.1962(4) 0.8596(3)
C5 C 0.8614(8) 0.2262(6) 0.7806(4)
N1 N 0.8144(5) 0.5232(48) 0.8785(3)
N2 N 0.4950(7) 0.0494(4) 0.8320(3)
O1 O 0.7668(6) 0.6447(3) 0.8594(3)
O2 O 0.9748(5) 0.4855(5) 0.8959(4)
O3 O 0.6119(7) -0.0207(4) 0.7884(3)
O4 O 0.3423(7) 0.0047(5) 0.8555(3)
H1 H 0.944 0.172 0.822
H2 H 0.925 0.309 0.756
H3 H 0.821 0.167 0.726
loop_
_geom_bond_atom_site_label_1
_geom_bond_atom_site_label_2
_geom_bond_site_symmetry_1
_geom_bond_site_symmetry_2
I1 C1 1_555 1_555
S1 C1 1_555 1_555
C1 C2 1_555 1_555
C2 C3 1_555 1_555
C3 C4 1_555 1_555
C4 S1 1_555 1_555
C5 C3 1_555 1_555
N1 C2 1_555 1_555
N2 C4 1_555 1_555
O1 N1 1_555 1_555
O2 N1 1_555 1_555
O3 N2 1_555 1_555
O4 N2 1_555 1_555
H1 C5 1_555 1_555
H2 C5 1_555 1_555
H3 C5 1_555 1_555

#END
