
#######################################################################
#
#                 Cambridge Crystallographic Data Centre
#                                CCDC 
#
#######################################################################
#
# If this CIF has been generated from an entry in the Cambridge 
# Structural Database, then it will include bibliographic, chemical, 
# crystal, experimental, refinement or atomic coordinate data resulting 
# from the CCDC's data processing and validation procedures.
#
#######################################################################

data_DIMZEH
_chemical_formula_moiety         'C54 H61 B2 F1 N4 Si2'
_chemical_name_systematic        
2-{2-[1,3-bis(2,6-dimethylphenyl)-2-fluoro-2,3-dihydro-1H-1,3,2-diazasilol-2-yl]-5,7-dimethyl-1-(2,4,6-trimethylphenyl)-2,3-dihydro-1H-1,2-benzodiborol-2-yl}-1,3-bis(2,6-dimethylphenyl)-1H-1,3,2-diazasilole
_symmetry_cell_setting           triclinic
_symmetry_space_group_name_H-M   'P -1'
_symmetry_Int_Tables_number      2
_space_group_name_Hall           '-P 1'
loop_
_symmetry_equiv_pos_site_id
_symmetry_equiv_pos_as_xyz
1 x,y,z
2 -x,-y,-z
_cell_length_a                   10.439(3)
_cell_length_b                   12.848(5)
_cell_length_c                   17.699(5)
_cell_angle_alpha                85.27(2)
_cell_angle_beta                 82.060(12)
_cell_angle_gamma                81.96(2)
_cell_volume                     2323.1
_exptl_crystal_colour            orange
_exptl_crystal_description       block
_cell_formula_units_Z            2
loop_
_atom_site_label
_atom_site_type_symbol
_atom_site_fract_x
_atom_site_fract_y
_atom_site_fract_z
F1 F 0.35936(13) 0.34105(11) 0.11615(8)
B1 B 0.2734(3) 0.4035(2) 0.31768(16)
B2 B 0.3370(3) 0.2823(2) 0.27942(16)
Si1 Si 0.44411(7) 0.27442(5) 0.17739(4)
C1 C 0.6450(2) 0.1398(2) 0.13088(15)
H1 H 0.6964 0.0781 0.1156
N1 N 0.6005(2) 0.31255(16) 0.16252(12)
C2 C 0.4498(3) 0.0561(2) 0.14032(15)
C3 C 0.3800(3) 0.0544(2) 0.07856(15)
C4 C 0.3362(3) -0.0399(2) 0.06608(17)
H2 H 0.2892 -0.0426 0.0255
C5 C 0.3618(3) -0.1292(2) 0.11336(18)
H3 H 0.3329 -0.1916 0.1040
C6 C 0.4296(3) -0.1264(2) 0.17404(18)
H4 H 0.4461 -0.1871 0.2054
C7 C 0.4744(3) -0.0339(2) 0.18952(16)
C8 C 0.5494(3) -0.0326(2) 0.25566(17)
H5 H 0.5303 -0.0895 0.2923
H6 H 0.5247 0.0331 0.2792
H7 H 0.6411 -0.0406 0.2378
C9 C 0.3573(3) 0.1482(2) 0.02314(15)
H8 H 0.3387 0.1253 -0.0240
H9 H 0.4340 0.1832 0.0136
H10 H 0.2848 0.1960 0.0444
C10 C 0.6416(2) 0.41572(19) 0.14890(15)
C11 C 0.6713(2) 0.4665(2) 0.20956(15)
C12 C 0.7098(2) 0.5667(2) 0.19507(16)
H11 H 0.7283 0.6021 0.2352
C13 C 0.7207(3) 0.6138(2) 0.12250(17)
H12 H 0.7448 0.6812 0.1139
C14 C 0.6961(3) 0.5614(2) 0.06230(16)
H13 H 0.7054 0.5934 0.0131
C15 C 0.6575(2) 0.4609(2) 0.07404(15)
C16 C 0.6653(3) 0.4138(2) 0.28862(15)
H14 H 0.7171 0.4464 0.3183
H15 H 0.6985 0.3405 0.2857
H16 H 0.5765 0.4207 0.3125
C17 C 0.6371(3) 0.4038(2) 0.00699(15)
H17 H 0.6428 0.4503 -0.0383
H18 H 0.5525 0.3805 0.0159
H19 H 0.7030 0.3439 0.0005
C18 C 0.6931(2) 0.2290(2) 0.13707(15)
H20 H 0.7815 0.2353 0.1254
N2 N 0.5076(2) 0.14820(16) 0.14995(12)
Si2 Si 0.18092(7) 0.21351(5) 0.28472(4)
C19 C -0.0216(2) 0.1367(2) 0.35321(15)
H21 H -0.0795 0.1064 0.3904
N3 N 0.0491(2) 0.21433(16) 0.23580(12)
C20 C 0.1634(2) 0.0869(2) 0.42683(15)
C21 C 0.2159(3) -0.0177(2) 0.41427(15)
C22 C 0.2792(3) -0.0759(2) 0.47143(16)
H22 H 0.3150 -0.1454 0.4642
C23 C 0.2897(3) -0.0323(2) 0.53844(16)
H23 H 0.3375 -0.0704 0.5746
C24 C 0.2292(3) 0.0679(2) 0.55175(15)
H24 H 0.2328 0.0955 0.5982
C25 C 0.1626(2) 0.1290(2) 0.49686(15)
C26 C 0.2044(3) -0.0669(2) 0.34194(16)
H25 H 0.2417 -0.1395 0.3450
H26 H 0.2501 -0.0304 0.2993
H27 H 0.1141 -0.0622 0.3351
C27 C 0.0917(3) 0.2356(2) 0.51558(16)
H28 H 0.0678 0.2372 0.5699
H29 H 0.0146 0.2493 0.4906
H30 H 0.1475 0.2884 0.4983
C28 C 0.0379(2) 0.2260(2) 0.15500(14)
C29 C 0.0283(2) 0.32632(19) 0.11661(15)
C30 C 0.0107(2) 0.3338(2) 0.03988(15)
H31 H 0.0035 0.3998 0.0138
C31 C 0.0036(3) 0.2463(2) 0.00126(16)
H32 H -0.0075 0.2530 -0.0502
C32 C 0.0132(3) 0.1488(2) 0.04023(16)
H33 H 0.0082 0.0897 0.0143
C33 C 0.0300(2) 0.1362(2) 0.11699(15)
C34 C 0.0341(3) 0.4233(2) 0.15666(15)
H34 H 0.0064 0.4845 0.1251
H35 H 0.1220 0.4254 0.1662
H36 H -0.0224 0.4224 0.2043
C35 C 0.0369(3) 0.0279(2) 0.15694(16)
H37 H 0.0563 -0.0241 0.1196
H38 H -0.0454 0.0197 0.1870
H39 H 0.1041 0.0191 0.1897
C36 C -0.0520(2) 0.1718(2) 0.28492(15)
H40 H -0.1335 0.1687 0.2703
N4 N 0.1063(2) 0.14905(16) 0.36499(12)
C37 C 0.1757(2) 0.50232(19) 0.29333(14)
C38 C 0.0454(2) 0.51685(19) 0.32708(14)
C39 C -0.0366(2) 0.60736(19) 0.30958(14)
H41 H -0.1226 0.6149 0.3328
C40 C 0.0052(3) 0.68700(19) 0.25864(15)
C41 C 0.1346(2) 0.6734(2) 0.22572(15)
H42 H 0.1654 0.7260 0.1915
C42 C 0.2193(2) 0.5838(2) 0.24229(14)
C43 C -0.0083(3) 0.4350(2) 0.38387(15)
H43 H -0.0945 0.4618 0.4061
H44 H 0.0472 0.4183 0.4233
H45 H -0.0118 0.3725 0.3584
C44 C -0.0850(3) 0.7851(2) 0.24068(17)
H46 H -0.0770 0.8005 0.1864
H47 H -0.0624 0.8430 0.2648
H48 H -0.1733 0.7744 0.2594
C45 C 0.3609(2) 0.5752(2) 0.20884(15)
H49 H 0.3752 0.6358 0.1747
H50 H 0.3836 0.5127 0.1812
H51 H 0.4142 0.5718 0.2493
C46 C 0.3288(2) 0.39680(19) 0.39537(14)
C47 C 0.3138(2) 0.4726(2) 0.45126(15)
C48 C 0.3574(2) 0.4430(2) 0.52123(15)
H52 H 0.3486 0.4929 0.5574
C49 C 0.4144(2) 0.3402(2) 0.53928(15)
C50 C 0.4345(2) 0.2678(2) 0.48407(15)
H53 H 0.4747 0.1999 0.4947
C51 C 0.3949(2) 0.2961(2) 0.41265(14)
C52 C 0.4175(2) 0.22277(19) 0.34846(14)
H54 H 0.3856 0.1564 0.3659
H55 H 0.5099 0.2088 0.3303
C53 C 0.4485(3) 0.3099(2) 0.61892(16)
H56 H 0.5216 0.2553 0.6168
H57 H 0.3751 0.2849 0.6503
H58 H 0.4707 0.3703 0.6403
C54 C 0.2509(3) 0.5847(2) 0.43835(15)
H59 H 0.2692 0.6265 0.4772
H60 H 0.1583 0.5860 0.4407
H61 H 0.2854 0.6130 0.3890
loop_
_geom_bond_atom_site_label_1
_geom_bond_atom_site_label_2
_geom_bond_site_symmetry_1
_geom_bond_site_symmetry_2
F1 Si1 1_555 1_555
B1 B2 1_555 1_555
B2 Si1 1_555 1_555
Si1 N1 1_555 1_555
C1 H1 1_555 1_555
N1 C10 1_555 1_555
C2 C3 1_555 1_555
C3 C4 1_555 1_555
C4 H2 1_555 1_555
C5 C4 1_555 1_555
H3 C5 1_555 1_555
C6 C5 1_555 1_555
H4 C6 1_555 1_555
C7 C2 1_555 1_555
C8 C7 1_555 1_555
H5 C8 1_555 1_555
H6 C8 1_555 1_555
H7 C8 1_555 1_555
C9 C3 1_555 1_555
H8 C9 1_555 1_555
H9 C9 1_555 1_555
H10 C9 1_555 1_555
C10 C11 1_555 1_555
C11 C12 1_555 1_555
C12 H11 1_555 1_555
C13 C12 1_555 1_555
H12 C13 1_555 1_555
C14 C13 1_555 1_555
H13 C14 1_555 1_555
C15 C10 1_555 1_555
C16 C11 1_555 1_555
H14 C16 1_555 1_555
H15 C16 1_555 1_555
H16 C16 1_555 1_555
C17 C15 1_555 1_555
H17 C17 1_555 1_555
H18 C17 1_555 1_555
H19 C17 1_555 1_555
C18 C1 1_555 1_555
H20 C18 1_555 1_555
N2 Si1 1_555 1_555
Si2 B2 1_555 1_555
C19 H21 1_555 1_555
N3 Si2 1_555 1_555
C20 C21 1_555 1_555
C21 C22 1_555 1_555
C22 H22 1_555 1_555
C23 C22 1_555 1_555
H23 C23 1_555 1_555
C24 C23 1_555 1_555
H24 C24 1_555 1_555
C25 C20 1_555 1_555
C26 C21 1_555 1_555
H25 C26 1_555 1_555
H26 C26 1_555 1_555
H27 C26 1_555 1_555
C27 C25 1_555 1_555
H28 C27 1_555 1_555
H29 C27 1_555 1_555
H30 C27 1_555 1_555
C28 N3 1_555 1_555
C29 C28 1_555 1_555
C30 C29 1_555 1_555
H31 C30 1_555 1_555
C31 C30 1_555 1_555
H32 C31 1_555 1_555
C32 C31 1_555 1_555
H33 C32 1_555 1_555
C33 C28 1_555 1_555
C34 C29 1_555 1_555
H34 C34 1_555 1_555
H35 C34 1_555 1_555
H36 C34 1_555 1_555
C35 C33 1_555 1_555
H37 C35 1_555 1_555
H38 C35 1_555 1_555
H39 C35 1_555 1_555
C36 C19 1_555 1_555
H40 C36 1_555 1_555
N4 Si2 1_555 1_555
C37 B1 1_555 1_555
C38 C37 1_555 1_555
C39 C38 1_555 1_555
H41 C39 1_555 1_555
C40 C39 1_555 1_555
C41 C40 1_555 1_555
H42 C41 1_555 1_555
C42 C37 1_555 1_555
C43 C38 1_555 1_555
H43 C43 1_555 1_555
H44 C43 1_555 1_555
H45 C43 1_555 1_555
C44 C40 1_555 1_555
H46 C44 1_555 1_555
H47 C44 1_555 1_555
H48 C44 1_555 1_555
C45 C42 1_555 1_555
H49 C45 1_555 1_555
H50 C45 1_555 1_555
H51 C45 1_555 1_555
C46 B1 1_555 1_555
C47 C46 1_555 1_555
C48 C47 1_555 1_555
H52 C48 1_555 1_555
C49 C48 1_555 1_555
C50 C49 1_555 1_555
H53 C50 1_555 1_555
C51 C46 1_555 1_555
C52 B2 1_555 1_555
H54 C52 1_555 1_555
H55 C52 1_555 1_555
C53 C49 1_555 1_555
H56 C53 1_555 1_555
H57 C53 1_555 1_555
H58 C53 1_555 1_555
C54 C47 1_555 1_555
H59 C54 1_555 1_555
H60 C54 1_555 1_555
H61 C54 1_555 1_555
C1 N2 1_555 1_555
N1 C18 1_555 1_555
C2 N2 1_555 1_555
C6 C7 1_555 1_555
C14 C15 1_555 1_555
C19 N4 1_555 1_555
N3 C36 1_555 1_555
C20 N4 1_555 1_555
C24 C25 1_555 1_555
C32 C33 1_555 1_555
C41 C42 1_555 1_555
C50 C51 1_555 1_555
C51 C52 1_555 1_555

#END
