
#######################################################################
#
#                 Cambridge Crystallographic Data Centre
#                                CCDC 
#
#######################################################################
#
# If this CIF has been generated from an entry in the Cambridge 
# Structural Database, then it will include bibliographic, chemical, 
# crystal, experimental, refinement or atomic coordinate data resulting 
# from the CCDC's data processing and validation procedures.
#
#######################################################################

data_DINICA11
_chemical_name_common            'Dinicotinic acid'
_chemical_formula_moiety         'C7 H5 N1 O4'
_chemical_name_systematic        'Pyridine-3,5-dicarboxylic acid'
_symmetry_cell_setting           monoclinic
_symmetry_space_group_name_H-M   'P 21/c'
_symmetry_Int_Tables_number      14
_space_group_name_Hall           '-P 2ybc'
loop_
_symmetry_equiv_pos_site_id
_symmetry_equiv_pos_as_xyz
1 x,y,z
2 -x,1/2+y,1/2-z
3 -x,-y,-z
4 x,1/2-y,1/2+z
_cell_length_a                   9.7116(13)
_cell_length_b                   11.1347(17)
_cell_length_c                   6.4421(13)
_cell_angle_alpha                90
_cell_angle_beta                 108.595(10)
_cell_angle_gamma                90
_cell_volume                     660.255
_exptl_crystal_colour            colorless
_exptl_crystal_description       plate
_cell_formula_units_Z            4
loop_
_atom_site_label
_atom_site_type_symbol
_atom_site_fract_x
_atom_site_fract_y
_atom_site_fract_z
C1 C -0.31763(18) -0.34420(15) 0.2204(3)
C2 C -0.38927(17) -0.44817(13) 0.2512(3)
C3 C -0.31924(17) -0.55882(14) 0.2659(3)
C4 C -0.17975(16) -0.56379(14) 0.2482(3)
C5 C -0.11471(17) -0.45622(14) 0.2178(3)
C6 C -0.54046(17) -0.44232(14) 0.2647(3)
C7 C -0.09453(17) -0.67859(14) 0.2645(3)
H1 H -0.3661(4) -0.2548(3) 0.2097(7)
H2 H -0.3745(4) -0.6396(3) 0.2918(8)
H3 H -0.0055(4) -0.4526(3) 0.2066(8)
H4 H -0.6899(4) -0.3215(4) 0.2673(7)
H5 H -0.1152(4) -0.2608(4) 0.1989(7)
N1 N -0.18382(13) -0.35111(10) 0.2044(2)
O1 O -0.5837(2) -0.33069(17) 0.2730(4)
O2 O -0.6118(2) -0.53203(17) 0.2659(4)
O3 O -0.1542(2) -0.77867(17) 0.2495(4)
O4 O 0.0405(2) -0.66193(16) 0.2941(4)
loop_
_geom_bond_atom_site_label_1
_geom_bond_atom_site_label_2
_geom_bond_site_symmetry_1
_geom_bond_site_symmetry_2
C1 C2 1_555 1_555
C2 C3 1_555 1_555
C3 C4 1_555 1_555
C4 C5 1_555 1_555
C5 H3 1_555 1_555
C6 C2 1_555 1_555
C7 C4 1_555 1_555
H1 C1 1_555 1_555
H2 C3 1_555 1_555
H4 O1 1_555 1_555
H5 N1 1_555 1_555
N1 C1 1_555 1_555
O1 C6 1_555 1_555
O2 C6 1_555 1_555
O3 C7 1_555 1_555
O4 C7 1_555 1_555
C5 N1 1_555 1_555

#END
