
#######################################################################
#
#                 Cambridge Crystallographic Data Centre
#                                CCDC 
#
#######################################################################
#
# If this CIF has been generated from an entry in the Cambridge 
# Structural Database, then it will include bibliographic, chemical, 
# crystal, experimental, refinement or atomic coordinate data resulting 
# from the CCDC's data processing and validation procedures.
#
#######################################################################

data_DINZAE
_chemical_formula_moiety         'C25 H25 N9 O9,C2 H6 O1 S1'
_chemical_name_systematic        
"N',N''-[{[(3-nitrophenyl)carbamoyl]azanediyl}bis(ethane-2,1-diyl)]bis[N'-(3-nitrophenyl)urea] dimethyl sulfoxide solvate"
_symmetry_cell_setting           triclinic
_symmetry_space_group_name_H-M   'P -1'
_symmetry_Int_Tables_number      2
_space_group_name_Hall           '-P 1'
loop_
_symmetry_equiv_pos_site_id
_symmetry_equiv_pos_as_xyz
1 x,y,z
2 -x,-y,-z
_cell_length_a                   10.7261(5)
_cell_length_b                   12.0465(6)
_cell_length_c                   14.5821(5)
_cell_angle_alpha                83.686(3)
_cell_angle_beta                 74.878(4)
_cell_angle_gamma                79.380(4)
_cell_volume                     1783.97
_exptl_crystal_colour            'yellowish yellow'
_exptl_crystal_description       block
_cell_formula_units_Z            2
loop_
_atom_site_label
_atom_site_type_symbol
_atom_site_fract_x
_atom_site_fract_y
_atom_site_fract_z
O1 O 0.28520(18) 0.74172(13) 1.07251(12)
O2 O 0.08155(17) 1.02623(15) 0.85104(12)
O3 O 0.46739(18) 1.23502(17) 0.69457(11)
N1 N 0.21207(17) 1.04011(15) 0.94664(12)
N2 N 0.34896(17) 1.17234(16) 0.60792(12)
H1 H 0.271499 1.160564 0.610182
N3 N 0.17154(18) 0.86492(16) 0.92248(13)
H2 H 0.221231 0.839118 0.960313
O4 O 0.5136(2) 1.03727(18) 0.21309(12)
N4 N 0.33798(19) 0.87635(15) 1.14438(13)
H3 H 0.384696 0.893123 1.179058
N5 N 0.26838(18) 1.19132(16) 0.76668(12)
H4 H 0.199693 1.168680 0.760484
N6 N 0.4419(2) 1.04840(17) 0.29209(13)
N7 N 0.41343(19) 0.69006(14) 1.17800(13)
H5 H 0.445807 0.716449 1.217539
O5 O 0.3365(2) 1.0177(2) 0.31450(15)
O6 O 0.2844(3) 0.39257(19) 1.02129(18)
C1 C 0.4397(2) 1.15928(16) 0.52003(13)
N8 N 0.3601(3) 0.33824(19) 1.06482(17)
C2 C 0.3988(2) 1.11658(17) 0.45030(14)
H6 H 0.314072 1.101006 0.462028
C3 C 0.15078(19) 0.97978(18) 0.90351(13)
C4 C 0.3425(2) 0.76761(18) 1.12795(14)
C5 C 0.4857(2) 1.09760(16) 0.36339(13)
C6 C 0.3676(2) 1.20140(16) 0.69062(13)
C7 C 0.3118(2) 0.98989(17) 0.99727(14)
H7 H 0.374152 1.041210 0.989757
H8 H 0.358697 0.920082 0.969143
C8 C 0.1198(2) 0.7850(2) 0.88632(15)
C9 C 0.4395(2) 0.57276(17) 1.17232(14)
C10 C 0.3848(2) 0.51407(19) 1.12010(16)
H9 H 0.326858 0.552362 1.085231
C11 C 0.2750(2) 1.21822(19) 0.86015(14)
H10 H 0.255639 1.299635 0.864510
H11 H 0.363097 1.192568 0.867788
C12 C 0.5660(2) 1.1841(2) 0.49958(15)
H12 H 0.593691 1.215507 0.544829
C13 C 0.1800(2) 1.16343(18) 0.93888(14)
H13 H 0.178236 1.192342 0.998802
H14 H 0.093034 1.184584 0.928009
C14 C 0.2537(2) 0.96489(18) 1.10310(14)
H15 H 0.240320 1.033310 1.136217
H16 H 0.169114 0.941960 1.111707
C15 C 0.4180(2) 0.39830(19) 1.12096(16)
O7 O 0.3889(3) 0.23611(19) 1.0643(2)
C16 C 0.0554(2) 0.8099(2) 0.81378(17)
H17 H 0.045705 0.882298 0.784106
C17 C 0.6120(2) 1.1182(2) 0.34237(16)
H18 H 0.669322 1.103121 0.283535
C18 C 0.1351(3) 0.6755(2) 0.92659(19)
H19 H 0.179548 0.658149 0.974553
C19 C 0.6504(2) 1.1620(2) 0.41157(17)
H20 H 0.735383 1.177160 0.399093
C20 C 0.5265(3) 0.5119(2) 1.22235(19)
H21 H 0.564202 0.549981 1.257496
N9 N -0.0665(4) 0.7514(4) 0.7126(3)
C21 C 0.5035(3) 0.3367(2) 1.1701(2)
H22 H 0.523832 0.258282 1.169146
C22 C 0.0061(3) 0.7236(3) 0.7870(2)
O8 O -0.0482(5) 0.8356(4) 0.6591(3)
C23 C 0.0857(3) 0.5915(3) 0.8969(2)
H23 H 0.097836 0.518177 0.924289
C24 C 0.5579(3) 0.3958(2) 1.2207(2)
H24 H 0.616882 0.356888 1.254427
C25 C 0.0186(3) 0.6163(3) 0.8270(2)
H25 H -0.017278 0.561014 0.807516
O9 O -0.1353(5) 0.6865(4) 0.7046(3)
S1 S -0.02872(12) 1.12067(17) 0.66714(10)
O10 O 0.1118(3) 1.1053(4) 0.6203(3)
C26 C -0.0562(5) 1.2659(7) 0.6977(4)
H26 H -0.146526 1.287554 0.729640
H27 H -0.002028 1.273285 0.739015
H28 H -0.034678 1.313964 0.640809
C27 C -0.1142(6) 1.1368(7) 0.5822(5)
H29 H -0.206224 1.146940 0.611933
H30 H -0.094222 1.201896 0.540368
H31 H -0.090366 1.070625 0.546289
H32? H 0.005302 1.309787 0.706733
H33? H -0.139294 1.313490 0.700869
H34? H -0.066033 1.205703 0.746720
H35? H -0.086060 1.103898 0.521642
H36? H -0.123504 1.077773 0.632223
H37? H -0.196765 1.185560 0.586372
S2? S -0.0025(3) 1.2122(4) 0.5933(2)
loop_
_geom_bond_atom_site_label_1
_geom_bond_atom_site_label_2
_geom_bond_site_symmetry_1
_geom_bond_site_symmetry_2
O1 C4 1_555 1_555
O2 C3 1_555 1_555
O3 C6 1_555 1_555
N1 C3 1_555 1_555
N2 H1 1_555 1_555
N3 H2 1_555 1_555
O4 N6 1_555 1_555
N4 H3 1_555 1_555
N5 H4 1_555 1_555
N6 O5 1_555 1_555
N7 H5 1_555 1_555
O6 N8 1_555 1_555
C1 N2 1_555 1_555
N8 C15 1_555 1_555
C2 C1 1_555 1_555
H6 C2 1_555 1_555
C3 N3 1_555 1_555
C4 N4 1_555 1_555
C5 N6 1_555 1_555
C6 N2 1_555 1_555
C7 N1 1_555 1_555
H7 C7 1_555 1_555
H8 C7 1_555 1_555
C8 N3 1_555 1_555
C9 N7 1_555 1_555
C10 C9 1_555 1_555
H9 C10 1_555 1_555
C11 N5 1_555 1_555
H10 C11 1_555 1_555
H11 C11 1_555 1_555
C12 C1 1_555 1_555
H12 C12 1_555 1_555
C13 N1 1_555 1_555
H13 C13 1_555 1_555
H14 C13 1_555 1_555
C14 N4 1_555 1_555
H15 C14 1_555 1_555
H16 C14 1_555 1_555
C15 C10 1_555 1_555
O7 N8 1_555 1_555
C16 C8 1_555 1_555
H17 C16 1_555 1_555
C17 C5 1_555 1_555
H18 C17 1_555 1_555
C18 C8 1_555 1_555
H19 C18 1_555 1_555
C19 C12 1_555 1_555
H20 C19 1_555 1_555
C20 C9 1_555 1_555
H21 C20 1_555 1_555
N9 C22 1_555 1_555
C21 C15 1_555 1_555
H22 C21 1_555 1_555
C22 C16 1_555 1_555
O8 N9 1_555 1_555
C23 C18 1_555 1_555
H23 C23 1_555 1_555
C24 C20 1_555 1_555
H24 C24 1_555 1_555
C25 C22 1_555 1_555
H25 C25 1_555 1_555
O9 N9 1_555 1_555
S1 O10 1_555 1_555
C26 S1 1_555 1_555
H26 C26 1_555 1_555
H27 C26 1_555 1_555
H28 C26 1_555 1_555
C27 S1 1_555 1_555
H29 C27 1_555 1_555
H30 C27 1_555 1_555
H31 C27 1_555 1_555
N5 C6 1_555 1_555
N7 C4 1_555 1_555
C2 C5 1_555 1_555
C7 C14 1_555 1_555
C11 C13 1_555 1_555
C17 C19 1_555 1_555
C21 C24 1_555 1_555
C23 C25 1_555 1_555

#END
