
#######################################################################
#
#                 Cambridge Crystallographic Data Centre
#                                CCDC 
#
#######################################################################
#
# If this CIF has been generated from an entry in the Cambridge 
# Structural Database, then it will include bibliographic, chemical, 
# crystal, experimental, refinement or atomic coordinate data resulting 
# from the CCDC's data processing and validation procedures.
#
#######################################################################

data_DIQYUZ
_chemical_formula_moiety         'C32 H29 N1 O2 S1'
_chemical_name_systematic        
3-Methyl-1'-((4-methylphenyl)sulfonyl)-2,4'-diphenylspiro[indene-1,2'-pyrrolidine]
_symmetry_cell_setting           triclinic
_symmetry_space_group_name_H-M   'P -1'
_symmetry_Int_Tables_number      2
_space_group_name_Hall           '-P 1'
loop_
_symmetry_equiv_pos_site_id
_symmetry_equiv_pos_as_xyz
1 x,y,z
2 -x,-y,-z
_cell_length_a                   9.2771(14)
_cell_length_b                   14.690(2)
_cell_length_c                   20.191(3)
_cell_angle_alpha                109.015(2)
_cell_angle_beta                 90.405(3)
_cell_angle_gamma                93.977(2)
_cell_volume                     2593.95
_exptl_crystal_colour            colorless
_exptl_crystal_description       Block
_cell_formula_units_Z            4
loop_
_atom_site_label
_atom_site_type_symbol
_atom_site_fract_x
_atom_site_fract_y
_atom_site_fract_z
S1 S 0.79572(7) 0.51826(4) 0.19076(3)
O1 O 0.8039(2) 0.44272(13) 0.12553(10)
O2 O 0.6792(2) 0.51552(15) 0.23567(11)
N1 N 0.7913(2) 0.61619(14) 0.17111(10)
C1 C 1.3524(5) 0.5195(3) 0.3512(2)
H1 H 1.3672 0.5777 0.3906
H2 H 1.4327 0.5144 0.3207
H3 H 1.3448 0.4648 0.3674
C2 C 1.2152(4) 0.5220(2) 0.31163(18)
C3 C 1.0836(5) 0.5338(2) 0.34468(17)
H4 H 1.0816 0.5415 0.3922
C4 C 0.9558(4) 0.5345(2) 0.30940(15)
H5 H 0.8694 0.5431 0.3330
C5 C 0.9580(3) 0.52218(17) 0.23806(13)
C6 C 1.0887(3) 0.5121(2) 0.20453(15)
H6 H 1.0916 0.5050 0.1571
C7 C 1.2135(3) 0.5124(2) 0.24128(18)
H7 H 1.3003 0.5060 0.2180
C8 C 0.8690(3) 0.62915(18) 0.11165(13)
H8 H 0.8520 0.5729 0.0700
H9 H 0.9722 0.6414 0.1221
C9 C 0.8042(3) 0.71738(17) 0.10229(12)
H10 H 0.7087 0.6968 0.0791
C10 C 0.7835(3) 0.77926(17) 0.17797(13)
H11 H 0.7082 0.8228 0.1804
H12 H 0.8724 0.8172 0.1980
C11 C 0.7397(3) 0.70804(17) 0.21814(12)
C12 C 0.8068(3) 0.74297(18) 0.29174(13)
C13 C 0.9496(3) 0.7612(2) 0.31379(15)
H13 H 1.0226 0.7521 0.2815
C14 C 0.9828(4) 0.7932(2) 0.38519(17)
H14 H 1.0788 0.8059 0.4011
C15 C 0.8726(4) 0.8064(2) 0.43270(16)
H15 H 0.8960 0.8270 0.4804
C16 C 0.7296(4) 0.7897(2) 0.41096(15)
H16 H 0.6569 0.7987 0.4435
C17 C 0.6954(3) 0.75897(18) 0.33953(13)
C18 C 0.5554(3) 0.73924(18) 0.30146(13)
C19 C 0.5776(3) 0.70504(17) 0.23211(12)
C20 C 0.4673(3) 0.67713(18) 0.17410(13)
C21 C 0.4624(3) 0.5897(2) 0.11994(14)
H17 H 0.5287 0.5452 0.1205
C22 C 0.3620(3) 0.5671(2) 0.06553(15)
H18 H 0.3618 0.5080 0.0298
C23 C 0.2620(3) 0.6308(3) 0.06326(16)
H19 H 0.1950 0.6156 0.0261
C24 C 0.2628(3) 0.7172(2) 0.11670(18)
H20 H 0.1950 0.7607 0.1160
C25 C 0.3631(3) 0.7401(2) 0.17148(15)
H21 H 0.3614 0.7988 0.2074
C26 C 0.4157(3) 0.7581(2) 0.33816(16)
H22 H 0.4051 0.8263 0.3548
H23 H 0.4155 0.7341 0.3771
H24 H 0.3370 0.7259 0.3061
C27 C 0.8949(3) 0.76447(18) 0.05861(12)
C28 C 0.9430(3) 0.8612(2) 0.08290(14)
H25 H 0.9199 0.8990 0.1277
C29 C 1.0239(3) 0.9023(2) 0.04214(17)
H26 H 1.0531 0.9679 0.0591
C30 C 1.0621(4) 0.8475(3) -0.02340(18)
H27 H 1.1182 0.8754 -0.0507
C31 C 1.0174(4) 0.7521(3) -0.04815(16)
H28 H 1.0437 0.7145 -0.0925
C32 C 0.9331(3) 0.7105(2) -0.00786(14)
H29 H 0.9016 0.6454 -0.0258
S2 S 0.20671(7) 0.02900(5) 0.30155(4)
O3 O 0.1841(2) -0.06292(13) 0.24829(11)
O4 O 0.1065(2) 0.05901(15) 0.35595(11)
N2 N 0.2157(2) 0.10861(14) 0.26173(10)
C33 C 0.7973(4) 0.0532(3) 0.4410(2)
H30 H 0.8395 0.1180 0.4514
H31 H 0.8582 0.0091 0.4100
H32 H 0.7880 0.0380 0.4837
C34 C 0.6495(3) 0.0442(2) 0.40620(17)
C35 C 0.6295(3) 0.0063(3) 0.33432(17)
H33 H 0.7080 -0.0160 0.3069
C36 C 0.4956(3) 0.0007(2) 0.30218(15)
H34 H 0.4852 -0.0248 0.2536
C37 C 0.3775(3) 0.03267(18) 0.34178(13)
C38 C 0.3927(4) 0.0678(3) 0.41319(15)
H35 H 0.3132 0.0877 0.4405
C39 C 0.5277(4) 0.0736(3) 0.44429(17)
H36 H 0.5371 0.0984 0.4929
C40 C 0.2798(3) 0.0886(2) 0.19256(14)
H37 H 0.2428 0.0261 0.1607
H38 H 0.3844 0.0902 0.1962
C41 C 0.2327(3) 0.17017(19) 0.16833(13)
H39 H 0.1311 0.1558 0.1524
C42 C 0.2428(3) 0.25467(19) 0.23681(14)
H40 H 0.1809 0.3040 0.2341
H41 H 0.3414 0.2831 0.2466
C43 C 0.1926(3) 0.21285(18) 0.29486(13)
C44 C 0.2749(3) 0.26467(18) 0.36411(14)
C45 C 0.4200(3) 0.2766(2) 0.37948(16)
H42 H 0.4851 0.2462 0.3461
C46 C 0.4685(4) 0.3355(3) 0.44655(18)
H43 H 0.5668 0.3440 0.4581
C47 C 0.3726(4) 0.3805(3) 0.49522(18)
H44 H 0.4068 0.4193 0.5396
C48 C 0.2272(4) 0.3696(2) 0.47991(16)
H45 H 0.1628 0.4009 0.5134
C49 C 0.1771(3) 0.31127(19) 0.41367(14)
C50 C 0.0313(3) 0.2889(2) 0.38174(14)
C51 C 0.0355(3) 0.23205(18) 0.31501(13)
C52 C -0.0859(3) 0.20093(18) 0.26323(13)
C53 C -0.1289(3) 0.1044(2) 0.22884(16)
H46 H -0.0811 0.0562 0.2383
C54 C -0.2439(3) 0.0801(2) 0.18015(17)
H47 H -0.2727 0.0154 0.1576
C55 C -0.3151(3) 0.1490(2) 0.16483(15)
H48 H -0.3908 0.1315 0.1316
C56 C -0.2743(4) 0.2441(3) 0.19887(19)
H49 H -0.3232 0.2917 0.1893
C57 C -0.1612(4) 0.2695(2) 0.24712(18)
H50 H -0.1345 0.3346 0.2696
C58 C -0.1004(4) 0.3250(3) 0.42143(18)
H51 H -0.1854 0.2938 0.3937
H52 H -0.0999 0.3935 0.4314
H53 H -0.1002 0.3107 0.4646
C59 C 0.3219(3) 0.1836(2) 0.10878(14)
C60 C 0.3904(4) 0.2723(2) 0.11170(17)
H54 H 0.3796 0.3264 0.1506
C61 C 0.4741(4) 0.2808(3) 0.05758(19)
H55 H 0.5195 0.3405 0.0604
C62 C 0.4907(4) 0.2028(3) 0.00007(18)
H56 H 0.5491 0.2087 -0.0358
C63 C 0.4212(4) 0.1153(3) -0.00482(17)
H57 H 0.4297 0.0623 -0.0448
C64 C 0.3382(3) 0.1057(3) 0.04958(15)
H58 H 0.2929 0.0457 0.0461
loop_
_geom_bond_atom_site_label_1
_geom_bond_atom_site_label_2
_geom_bond_site_symmetry_1
_geom_bond_site_symmetry_2
S1 O1 1_555 1_555
O2 S1 1_555 1_555
N1 S1 1_555 1_555
C1 H1 1_555 1_555
H2 C1 1_555 1_555
H3 C1 1_555 1_555
C2 C1 1_555 1_555
C3 C2 1_555 1_555
H4 C3 1_555 1_555
C4 C3 1_555 1_555
H5 C4 1_555 1_555
C5 S1 1_555 1_555
C6 C5 1_555 1_555
H6 C6 1_555 1_555
C7 C2 1_555 1_555
H7 C7 1_555 1_555
C8 N1 1_555 1_555
H8 C8 1_555 1_555
H9 C8 1_555 1_555
C9 C8 1_555 1_555
H10 C9 1_555 1_555
C10 C9 1_555 1_555
H11 C10 1_555 1_555
H12 C10 1_555 1_555
C11 N1 1_555 1_555
C12 C11 1_555 1_555
C13 C12 1_555 1_555
H13 C13 1_555 1_555
C14 C13 1_555 1_555
H14 C14 1_555 1_555
C15 C14 1_555 1_555
H15 C15 1_555 1_555
C16 C15 1_555 1_555
H16 C16 1_555 1_555
C17 C12 1_555 1_555
C18 C17 1_555 1_555
C19 C11 1_555 1_555
C20 C19 1_555 1_555
C21 C20 1_555 1_555
H17 C21 1_555 1_555
C22 C21 1_555 1_555
H18 C22 1_555 1_555
C23 C22 1_555 1_555
H19 C23 1_555 1_555
C24 C23 1_555 1_555
H20 C24 1_555 1_555
C25 C20 1_555 1_555
H21 C25 1_555 1_555
C26 C18 1_555 1_555
H22 C26 1_555 1_555
H23 C26 1_555 1_555
H24 C26 1_555 1_555
C27 C9 1_555 1_555
C28 C27 1_555 1_555
H25 C28 1_555 1_555
C29 C28 1_555 1_555
H26 C29 1_555 1_555
C30 C29 1_555 1_555
H27 C30 1_555 1_555
C31 C30 1_555 1_555
H28 C31 1_555 1_555
C32 C27 1_555 1_555
H29 C32 1_555 1_555
S2 O3 1_555 1_555
O4 S2 1_555 1_555
N2 S2 1_555 1_555
C33 H30 1_555 1_555
H31 C33 1_555 1_555
H32 C33 1_555 1_555
C34 C33 1_555 1_555
C35 C34 1_555 1_555
H33 C35 1_555 1_555
C36 C35 1_555 1_555
H34 C36 1_555 1_555
C37 S2 1_555 1_555
C38 C37 1_555 1_555
H35 C38 1_555 1_555
C39 C34 1_555 1_555
H36 C39 1_555 1_555
C40 N2 1_555 1_555
H37 C40 1_555 1_555
H38 C40 1_555 1_555
C41 C40 1_555 1_555
H39 C41 1_555 1_555
C42 C41 1_555 1_555
H40 C42 1_555 1_555
H41 C42 1_555 1_555
C43 N2 1_555 1_555
C44 C43 1_555 1_555
C45 C44 1_555 1_555
H42 C45 1_555 1_555
C46 C45 1_555 1_555
H43 C46 1_555 1_555
C47 C46 1_555 1_555
H44 C47 1_555 1_555
C48 C47 1_555 1_555
H45 C48 1_555 1_555
C49 C44 1_555 1_555
C50 C49 1_555 1_555
C51 C43 1_555 1_555
C52 C51 1_555 1_555
C53 C52 1_555 1_555
H46 C53 1_555 1_555
C54 C53 1_555 1_555
H47 C54 1_555 1_555
C55 C54 1_555 1_555
H48 C55 1_555 1_555
C56 C55 1_555 1_555
H49 C56 1_555 1_555
C57 C52 1_555 1_555
H50 C57 1_555 1_555
C58 C50 1_555 1_555
H51 C58 1_555 1_555
H52 C58 1_555 1_555
H53 C58 1_555 1_555
C59 C41 1_555 1_555
C60 C59 1_555 1_555
H54 C60 1_555 1_555
C61 C60 1_555 1_555
H55 C61 1_555 1_555
C62 C61 1_555 1_555
H56 C62 1_555 1_555
C63 C62 1_555 1_555
H57 C63 1_555 1_555
C64 C59 1_555 1_555
H58 C64 1_555 1_555
C4 C5 1_555 1_555
C6 C7 1_555 1_555
C10 C11 1_555 1_555
C16 C17 1_555 1_555
C18 C19 1_555 1_555
C24 C25 1_555 1_555
C31 C32 1_555 1_555
C36 C37 1_555 1_555
C38 C39 1_555 1_555
C42 C43 1_555 1_555
C48 C49 1_555 1_555
C50 C51 1_555 1_555
C56 C57 1_555 1_555
C63 C64 1_555 1_555

#END
