
#######################################################################
#
#                 Cambridge Crystallographic Data Centre
#                                CCDC 
#
#######################################################################
#
# If this CIF has been generated from an entry in the Cambridge 
# Structural Database, then it will include bibliographic, chemical, 
# crystal, experimental, refinement or atomic coordinate data resulting 
# from the CCDC's data processing and validation procedures.
#
#######################################################################

data_DIRQUS
_chemical_formula_moiety         'C44 H38 N4 O2 S4'
_chemical_name_systematic        
5,5'''-bis(2-methoxypropyl)-2,2',2'',2'''-tetraphenyl-4,5':4',4'':5'',4'''-quater-1,3-thiazole
_symmetry_cell_setting           orthorhombic
_symmetry_space_group_name_H-M   'P 21 21 21'
_symmetry_Int_Tables_number      19
_space_group_name_Hall           'P 2ac 2ab'
loop_
_symmetry_equiv_pos_site_id
_symmetry_equiv_pos_as_xyz
1 x,y,z
2 1/2+x,1/2-y,-z
3 -x,1/2+y,1/2-z
4 1/2-x,-y,1/2+z
_cell_length_a                   7.84488(14)
_cell_length_b                   22.0277(4)
_cell_length_c                   22.3413(4)
_cell_angle_alpha                90
_cell_angle_beta                 90
_cell_angle_gamma                90
_cell_volume                     3860.68
_exptl_crystal_colour            colorless
_exptl_crystal_description       block
_cell_formula_units_Z            4
loop_
_atom_site_label
_atom_site_type_symbol
_atom_site_fract_x
_atom_site_fract_y
_atom_site_fract_z
S1 S 0.78044(5) 0.536286(16) 0.940880(16)
S2 S 0.76872(5) 0.373959(16) 0.771506(15)
S3 S 0.34269(5) 0.622675(16) 0.755388(15)
S4 S 0.19912(5) 0.460278(17) 0.911334(16)
O1 O 0.81803(16) 0.65858(5) 0.87506(5)
O2 O 0.13642(15) 0.34223(5) 0.84618(5)
N1 N 0.65274(16) 0.43739(5) 0.89919(5)
N2 N 0.62455(16) 0.43723(5) 0.68941(5)
N3 N 0.55672(16) 0.56629(6) 0.68845(5)
N4 N 0.35574(16) 0.55976(5) 0.88636(5)
C1 C 0.67667(18) 0.46704(6) 0.94941(6)
C2 C 0.79418(19) 0.52412(6) 0.86496(6)
C3 C 0.71676(18) 0.46997(6) 0.85146(6)
C4 C 0.61378(19) 0.44607(7) 1.00794(6)
C5 C 0.5107(2) 0.39449(7) 1.00998(7)
C6 C 0.4442(3) 0.37442(8) 1.06415(7)
C7 C 0.4803(3) 0.40611(8) 1.11653(7)
C8 C 0.5825(2) 0.45729(8) 1.11489(7)
C9 C 0.6495(2) 0.47738(7) 1.06078(7)
C10 C 0.8838(2) 0.56744(7) 0.82402(7)
C11 C 0.7986(2) 0.62916(7) 0.81859(6)
C12 C 0.6911(3) 0.70317(8) 0.88573(8)
C13 C 0.8761(3) 0.66602(7) 0.76796(8)
C14 C 0.69766(19) 0.38494(6) 0.69854(6)
C15 C 0.69470(19) 0.44561(6) 0.79054(6)
C16 C 0.62006(18) 0.47136(6) 0.74109(6)
C17 C 0.7143(2) 0.33849(6) 0.65141(6)
C18 C 0.6431(2) 0.35011(7) 0.59507(7)
C19 C 0.6576(3) 0.30760(8) 0.54946(8)
C20 C 0.7430(3) 0.25301(7) 0.55971(7)
C21 C 0.8129(3) 0.24111(7) 0.61553(8)
C22 C 0.7984(3) 0.28351(7) 0.66104(7)
C23 C 0.46676(19) 0.61610(6) 0.69117(6)
C24 C 0.41489(18) 0.55233(6) 0.77903(6)
C25 C 0.52957(18) 0.53040(6) 0.73815(6)
C26 C 0.46088(19) 0.66132(6) 0.64243(6)
C27 C 0.5332(3) 0.64625(7) 0.58737(7)
C28 C 0.5185(3) 0.68569(8) 0.53917(7)
C29 C 0.4322(3) 0.74051(7) 0.54556(7)
C30 C 0.3645(3) 0.75650(7) 0.60070(7)
C31 C 0.3778(3) 0.71723(7) 0.64909(7)
C32 C 0.28548(18) 0.53020(6) 0.93081(6)
C33 C 0.26416(18) 0.47149(7) 0.83843(6)
C34 C 0.34492(18) 0.52615(6) 0.83446(6)
C35 C 0.28677(19) 0.55166(7) 0.99311(6)
C36 C 0.3817(3) 0.60326(7) 1.00769(7)
C37 C 0.3911(3) 0.62306(8) 1.06668(7)
C38 C 0.3071(3) 0.59122(8) 1.11127(7)
C39 C 0.2122(3) 0.54007(8) 1.09742(7)
C40 C 0.2019(2) 0.52033(7) 1.03852(7)
C41 C 0.2337(2) 0.42527(7) 0.79018(7)
C42 C 0.2753(2) 0.36081(7) 0.80963(7)
C43 C 0.1703(3) 0.29128(8) 0.88287(9)
C44 C 0.2995(3) 0.31892(7) 0.75666(8)
H1 H 0.4859 0.3730 0.9742
H2 H 0.3744 0.3392 1.0654
H3 H 0.4345 0.3926 1.1536
H4 H 0.6069 0.4787 1.1508
H5 H 0.7198 0.5125 1.0598
H6 H 0.8909 0.5490 0.7837
H7 H 1.0018 0.5733 0.8387
H8 H 0.6744 0.6232 0.8105
H9 H 0.7070 0.7204 0.9258
H10 H 0.5781 0.6844 0.8831
H11 H 0.7007 0.7354 0.8557
H12 H 0.8488 0.6468 0.7296
H13 H 1.0001 0.6678 0.7730
H14 H 0.8293 0.7073 0.7687
H15 H 0.5847 0.3872 0.5880
H16 H 0.6094 0.3157 0.5113
H17 H 0.7533 0.2240 0.5285
H18 H 0.8707 0.2039 0.6225
H19 H 0.8463 0.2751 0.6992
H20 H 0.5925 0.6089 0.5828
H21 H 0.5676 0.6752 0.5017
H22 H 0.4196 0.7669 0.5122
H23 H 0.3088 0.7945 0.6054
H24 H 0.3306 0.7283 0.6867
H25 H 0.4402 0.6249 0.9772
H26 H 0.4549 0.6584 1.0764
H27 H 0.3147 0.6045 1.1516
H28 H 0.1543 0.5186 1.1282
H29 H 0.1366 0.4853 1.0291
H30 H 0.3042 0.4357 0.7549
H31 H 0.1126 0.4271 0.7778
H32 H 0.3820 0.3612 0.8342
H33 H 0.2576 0.3018 0.9124
H34 H 0.2110 0.2576 0.8580
H35 H 0.0656 0.2791 0.9036
H36 H 0.1917 0.3152 0.7348
H37 H 0.3355 0.2788 0.7708
H38 H 0.3870 0.3356 0.7300
loop_
_geom_bond_atom_site_label_1
_geom_bond_atom_site_label_2
_geom_bond_site_symmetry_1
_geom_bond_site_symmetry_2
S1 C1 1_555 1_555
S2 C14 1_555 1_555
S3 C23 1_555 1_555
S4 C32 1_555 1_555
O1 C11 1_555 1_555
O2 C42 1_555 1_555
N1 C1 1_555 1_555
N2 C14 1_555 1_555
N3 C23 1_555 1_555
N4 C32 1_555 1_555
C1 C4 1_555 1_555
C2 S1 1_555 1_555
C3 N1 1_555 1_555
C4 C5 1_555 1_555
C5 C6 1_555 1_555
C6 C7 1_555 1_555
C7 C8 1_555 1_555
C8 C9 1_555 1_555
C9 C4 1_555 1_555
C10 C2 1_555 1_555
C11 C10 1_555 1_555
C12 O1 1_555 1_555
C13 C11 1_555 1_555
C14 C17 1_555 1_555
C15 S2 1_555 1_555
C16 N2 1_555 1_555
C17 C18 1_555 1_555
C18 C19 1_555 1_555
C19 C20 1_555 1_555
C20 C21 1_555 1_555
C21 C22 1_555 1_555
C22 C17 1_555 1_555
C23 C26 1_555 1_555
C24 S3 1_555 1_555
C25 N3 1_555 1_555
C26 C27 1_555 1_555
C27 C28 1_555 1_555
C28 C29 1_555 1_555
C29 C30 1_555 1_555
C30 C31 1_555 1_555
C31 C26 1_555 1_555
C32 C35 1_555 1_555
C33 S4 1_555 1_555
C34 N4 1_555 1_555
C35 C36 1_555 1_555
C36 C37 1_555 1_555
C37 C38 1_555 1_555
C38 C39 1_555 1_555
C39 C40 1_555 1_555
C40 C35 1_555 1_555
C41 C33 1_555 1_555
C42 C41 1_555 1_555
C43 O2 1_555 1_555
C44 C42 1_555 1_555
H1 C5 1_555 1_555
H2 C6 1_555 1_555
H3 C7 1_555 1_555
H4 C8 1_555 1_555
H5 C9 1_555 1_555
H6 C10 1_555 1_555
H7 C10 1_555 1_555
H8 C11 1_555 1_555
H9 C12 1_555 1_555
H10 C12 1_555 1_555
H11 C12 1_555 1_555
H12 C13 1_555 1_555
H13 C13 1_555 1_555
H14 C13 1_555 1_555
H15 C18 1_555 1_555
H16 C19 1_555 1_555
H17 C20 1_555 1_555
H18 C21 1_555 1_555
H19 C22 1_555 1_555
H20 C27 1_555 1_555
H21 C28 1_555 1_555
H22 C29 1_555 1_555
H23 C30 1_555 1_555
H24 C31 1_555 1_555
H25 C36 1_555 1_555
H26 C37 1_555 1_555
H27 C38 1_555 1_555
H28 C39 1_555 1_555
H29 C40 1_555 1_555
H30 C41 1_555 1_555
H31 C41 1_555 1_555
H32 C42 1_555 1_555
H33 C43 1_555 1_555
H34 C43 1_555 1_555
H35 C43 1_555 1_555
H36 C44 1_555 1_555
H37 C44 1_555 1_555
H38 C44 1_555 1_555
C2 C3 1_555 1_555
C3 C15 1_555 1_555
C15 C16 1_555 1_555
C16 C25 1_555 1_555
C24 C25 1_555 1_555
C24 C34 1_555 1_555
C33 C34 1_555 1_555

#END
