
#######################################################################
#
#                 Cambridge Crystallographic Data Centre
#                                CCDC 
#
#######################################################################
#
# If this CIF has been generated from an entry in the Cambridge 
# Structural Database, then it will include bibliographic, chemical, 
# crystal, experimental, refinement or atomic coordinate data resulting 
# from the CCDC's data processing and validation procedures.
#
#######################################################################

data_DIRSUU
_chemical_formula_moiety         'C17 H19 N1 O4'
_chemical_name_systematic        O^2^-Methylpancracine
_symmetry_cell_setting           orthorhombic
_symmetry_space_group_name_H-M   'P 21 21 21'
_symmetry_Int_Tables_number      19
_space_group_name_Hall           'P 2ac 2ab'
loop_
_symmetry_equiv_pos_site_id
_symmetry_equiv_pos_as_xyz
1 x,y,z
2 1/2-x,-y,1/2+z
3 1/2+x,1/2-y,-z
4 -x,1/2+y,1/2-z
_cell_length_a                   7.3625(2)
_cell_length_b                   11.1520(3)
_cell_length_c                   17.2144(5)
_cell_angle_alpha                90
_cell_angle_beta                 90
_cell_angle_gamma                90
_cell_volume                     1413.42
_exptl_crystal_colour            'light colorless'
_exptl_crystal_description       block
_cell_formula_units_Z            4
loop_
_atom_site_label
_atom_site_type_symbol
_atom_site_fract_x
_atom_site_fract_y
_atom_site_fract_z
O1 O 0.81788(16) 0.00669(10) 0.43697(6)
O2 O 0.89329(17) 0.05380(10) 0.30980(6)
O3 O 0.56234(17) 0.81033(10) 0.27966(7)
O4 O 0.28093(16) 0.78273(10) 0.38153(6)
H1 H 0.3048 0.8241 0.4196
N1 N 0.81527(17) 0.55746(11) 0.48797(7)
C1 C 0.8143(2) 0.21605(14) 0.48528(8)
H2 H 0.7813 0.1966 0.5359
C2 C 0.8389(2) 0.12919(13) 0.42970(9)
C3 C 0.8858(2) 0.15711(13) 0.35380(9)
C4 C 0.9105(2) 0.27327(14) 0.32961(9)
H3 H 0.9397 0.2913 0.2784
C5 C 0.88972(19) 0.36399(13) 0.38597(9)
C6 C 0.8413(2) 0.33570(13) 0.46234(9)
C7 C 0.8191(2) 0.43585(13) 0.52225(8)
H4 H 0.7072 0.4228 0.5508
H5 H 0.9187 0.4314 0.5591
C8 C 0.9135(2) 0.49507(12) 0.36369(8)
H6 H 0.9938 0.5061 0.3189
C9 C 0.9749(2) 0.56625(14) 0.43511(9)
H7 H 1.0820 0.5308 0.4585
H8 H 1.0007 0.6490 0.4218
C10 C 0.7309(2) 0.55498(13) 0.35344(9)
C11 C 0.6544(2) 0.57022(12) 0.43482(8)
H9 H 0.5703 0.5040 0.4451
C12 C 0.5500(2) 0.68755(13) 0.44092(9)
H10 H 0.6322 0.7551 0.4358
H11 H 0.4897 0.6930 0.4909
C13 C 0.4099(2) 0.68881(13) 0.37521(9)
H12 H 0.3422 0.6134 0.3788
C14 C 0.5001(2) 0.69060(13) 0.29465(9)
H13 H 0.4106 0.6678 0.2552
C15 C 0.6604(2) 0.60589(13) 0.29068(9)
H14 H 0.7114 0.5889 0.2425
C16 C 0.5975(2) 0.83128(16) 0.19969(10)
H15 H 0.4906 0.8133 0.1699
H16 H 0.6956 0.7809 0.1829
H17 H 0.6300 0.9138 0.1922
C17 C 0.8838(2) -0.04222(14) 0.36504(9)
H18 H 1.0030 -0.0773 0.3725
H19 H 0.8021 -0.1042 0.3465
loop_
_geom_bond_atom_site_label_1
_geom_bond_atom_site_label_2
_geom_bond_site_symmetry_1
_geom_bond_site_symmetry_2
O1 C2 1_555 1_555
O2 C3 1_555 1_555
O3 C14 1_555 1_555
O4 H1 1_555 1_555
N1 C7 1_555 1_555
C1 H2 1_555 1_555
C2 C1 1_555 1_555
C3 C2 1_555 1_555
C4 C3 1_555 1_555
H3 C4 1_555 1_555
C5 C4 1_555 1_555
C6 C1 1_555 1_555
C7 C6 1_555 1_555
H4 C7 1_555 1_555
H5 C7 1_555 1_555
C8 C5 1_555 1_555
H6 C8 1_555 1_555
C9 N1 1_555 1_555
H7 C9 1_555 1_555
H8 C9 1_555 1_555
C10 C8 1_555 1_555
C11 N1 1_555 1_555
H9 C11 1_555 1_555
C12 C11 1_555 1_555
H10 C12 1_555 1_555
H11 C12 1_555 1_555
C13 O4 1_555 1_555
H12 C13 1_555 1_555
C14 C13 1_555 1_555
H13 C14 1_555 1_555
C15 C10 1_555 1_555
H14 C15 1_555 1_555
C16 O3 1_555 1_555
H15 C16 1_555 1_555
H16 C16 1_555 1_555
H17 C16 1_555 1_555
C17 O1 1_555 1_555
H18 C17 1_555 1_555
H19 C17 1_555 1_555
O2 C17 1_555 1_555
C5 C6 1_555 1_555
C8 C9 1_555 1_555
C10 C11 1_555 1_555
C12 C13 1_555 1_555
C14 C15 1_555 1_555

#END
