
#######################################################################
#
#                 Cambridge Crystallographic Data Centre
#                                CCDC 
#
#######################################################################
#
# If this CIF has been generated from an entry in the Cambridge 
# Structural Database, then it will include bibliographic, chemical, 
# crystal, experimental, refinement or atomic coordinate data resulting 
# from the CCDC's data processing and validation procedures.
#
#######################################################################

data_DISKEY01
_chemical_formula_moiety         'C14 H10 Cl1 N1 O1'
_chemical_name_systematic        4-chloro-1-phenyl-1,3-dihydro-2H-indol-2-one
_symmetry_cell_setting           monoclinic
_symmetry_space_group_name_H-M   'P 21/c'
_symmetry_Int_Tables_number      14
_space_group_name_Hall           '-P 2ybc'
loop_
_symmetry_equiv_pos_site_id
_symmetry_equiv_pos_as_xyz
1 x,y,z
2 -x,1/2+y,1/2-z
3 -x,-y,-z
4 x,1/2-y,1/2+z
_cell_length_a                   10.5605(8)
_cell_length_b                   12.0485(9)
_cell_length_c                   9.1939(7)
_cell_angle_alpha                90
_cell_angle_beta                 89.288(2)
_cell_angle_gamma                90
_cell_volume                     1169.72
_exptl_crystal_colour            colorless
_exptl_crystal_description       plate
_cell_formula_units_Z            4
loop_
_atom_site_label
_atom_site_type_symbol
_atom_site_fract_x
_atom_site_fract_y
_atom_site_fract_z
C1 C 0.76562(13) 0.49276(12) 0.64486(14)
C2 C 0.85585(14) 0.40585(12) 0.58575(15)
C3 C 0.85988(12) 0.42980(11) 0.42606(14)
C4 C 0.92506(12) 0.38062(12) 0.31262(15)
C5 C 0.90718(15) 0.41639(13) 0.17034(16)
C6 C 0.82218(16) 0.50083(14) 0.14390(15)
C7 C 0.75498(14) 0.55303(12) 0.25600(14)
C8 C 0.77665(11) 0.51631(10) 0.39620(13)
C9 C 0.62896(12) 0.64046(11) 0.54016(13)
C10 C 0.65075(15) 0.74267(12) 0.47462(15)
C11 C 0.56094(17) 0.82574(14) 0.48807(18)
C12 C 0.45172(17) 0.80830(15) 0.56878(19)
C13 C 0.43101(15) 0.70694(15) 0.63495(18)
C14 C 0.51839(13) 0.62236(13) 0.61987(16)
Cl1 Cl 1.03020(4) 0.27329(4) 0.34775(5)
N1 N 0.71932(10) 0.55296(9) 0.52730(11)
O1 O 0.73754(11) 0.50912(10) 0.77096(10)
H1 H 0.9537(16) 0.3826(15) 0.093(2)
H2 H 0.8078(15) 0.5232(14) 0.0470(19)
H3 H 0.6989(14) 0.6109(13) 0.2358(16)
H4 H 0.7266(16) 0.7538(13) 0.4224(18)
H5 H 0.5746(18) 0.8952(17) 0.445(2)
H6 H 0.3920(18) 0.8602(17) 0.582(2)
H7 H 0.3527(16) 0.7030(14) 0.7035(19)
H8 H 0.5049(15) 0.5523(15) 0.6614(17)
H9 H 0.9360(16) 0.4121(14) 0.6312(19)
H10 H 0.8196(15) 0.3314(15) 0.6053(18)
loop_
_geom_bond_atom_site_label_1
_geom_bond_atom_site_label_2
_geom_bond_site_symmetry_1
_geom_bond_site_symmetry_2
C1 C2 1_555 1_555
C2 C3 1_555 1_555
C3 C4 1_555 1_555
C4 C5 1_555 1_555
C5 C6 1_555 1_555
C6 C7 1_555 1_555
C7 C8 1_555 1_555
C8 C3 1_555 1_555
C9 C10 1_555 1_555
C10 C11 1_555 1_555
C11 C12 1_555 1_555
C12 C13 1_555 1_555
C13 C14 1_555 1_555
C14 C9 1_555 1_555
Cl1 C4 1_555 1_555
N1 C1 1_555 1_555
O1 C1 1_555 1_555
H1 C5 1_555 1_555
H2 C6 1_555 1_555
H3 C7 1_555 1_555
H4 C10 1_555 1_555
H5 C11 1_555 1_555
H6 C12 1_555 1_555
H7 C13 1_555 1_555
H8 C14 1_555 1_555
H9 C2 1_555 1_555
H10 C2 1_555 1_555
C8 N1 1_555 1_555
C9 N1 1_555 1_555

#END
