
#######################################################################
#
#                 Cambridge Crystallographic Data Centre
#                                CCDC 
#
#######################################################################
#
# If this CIF has been generated from an entry in the Cambridge 
# Structural Database, then it will include bibliographic, chemical, 
# crystal, experimental, refinement or atomic coordinate data resulting 
# from the CCDC's data processing and validation procedures.
#
#######################################################################

data_DISXIP
_chemical_name_common            3-[(4-methoxyphenyl)amino]cholest-3-en-2-one
_chemical_formula_moiety         'C34 H51 N1 O2'
_chemical_name_systematic        
(5S,8S,9S,10R,13R,14S,17R)-3-((4-methoxyphenyl)amino)-10,13-dimethyl-17-((R)-6-methylheptan-2-yl)-1,5,6,7,8,9,10,11,12,13,14,15,16,17-tetradecahydro-2H-cyclopenta[a]phenanthren-2-one
_symmetry_cell_setting           triclinic
_symmetry_space_group_name_H-M   'P 1'
_symmetry_Int_Tables_number      1
_space_group_name_Hall           'P 1'
loop_
_symmetry_equiv_pos_site_id
_symmetry_equiv_pos_as_xyz
1 x,y,z
_cell_length_a                   9.5297(14)
_cell_length_b                   12.383(2)
_cell_length_c                   25.595(4)
_cell_angle_alpha                81.641(6)
_cell_angle_beta                 89.200(6)
_cell_angle_gamma                88.955(6)
_cell_volume                     2987.59
_exptl_crystal_colour            colorless
_exptl_crystal_description       plate
_cell_formula_units_Z            4
loop_
_atom_site_label
_atom_site_type_symbol
_atom_site_fract_x
_atom_site_fract_y
_atom_site_fract_z
N1 N 0.19209(14) -0.10970(11) 0.58563(5)
H1 H 0.2060 -0.1809 0.5912
O1 O 0.15812(15) 0.07231(12) 0.77288(5)
O2 O 0.31200(12) -0.22316(10) 0.51790(5)
C1 C 0.1681(2) 0.0035(2) 0.82216(8)
H2 H 0.1590 0.0476 0.8509
H3 H 0.2593 -0.0347 0.8243
H4 H 0.0929 -0.0501 0.8253
C2 C 0.16749(17) 0.02316(15) 0.72800(7)
C3 C 0.19210(17) -0.08762(15) 0.72755(7)
H5 H 0.2051 -0.1353 0.7598
C4 C 0.19763(16) -0.12836(14) 0.67995(7)
H6 H 0.2134 -0.2044 0.6802
C5 C 0.18087(15) -0.06138(13) 0.63172(6)
C6 C 0.15810(17) 0.05086(14) 0.63272(7)
H7 H 0.1470 0.0992 0.6006
C7 C 0.15178(18) 0.09113(15) 0.68049(7)
H8 H 0.1363 0.1671 0.6806
C8 C 0.18523(15) -0.06538(13) 0.53295(6)
C9 C 0.25746(15) -0.13648(13) 0.49825(6)
C10 C 0.26442(16) -0.09811(14) 0.44010(6)
H9 H 0.2760 -0.1623 0.4214
H10 H 0.3483 -0.0523 0.4322
C11 C 0.13426(15) -0.03233(12) 0.41880(6)
C12 C 0.12187(16) 0.06335(12) 0.45135(6)
H11 H 0.2094 0.1065 0.4438
C13 C 0.11888(16) 0.02594(13) 0.51004(6)
H12 H 0.0678 0.0688 0.5319
C14 C 0.00586(17) -0.10635(14) 0.42651(7)
H13 H -0.0053 -0.1352 0.4640
H14 H 0.0193 -0.1671 0.4062
H15 H -0.0783 -0.0641 0.4142
C15 C 0.15764(15) 0.01625(12) 0.36044(6)
H16 H 0.2468 0.0580 0.3591
C16 C 0.04220(15) 0.09956(12) 0.33918(6)
H17 H -0.0480 0.0601 0.3378
C17 C 0.02110(19) 0.18797(14) 0.37492(7)
H18 H -0.0618 0.2337 0.3628
H19 H 0.1040 0.2356 0.3714
C18 C -0.00007(19) 0.14125(14) 0.43320(7)
H20 H -0.0045 0.2014 0.4548
H21 H -0.0897 0.1016 0.4379
C19 C 0.18003(18) -0.06958(14) 0.32319(7)
H22 H 0.2585 -0.1191 0.3364
H23 H 0.0945 -0.1139 0.3238
C20 C 0.21238(18) -0.01972(15) 0.26636(7)
H24 H 0.2185 -0.0786 0.2440
H25 H 0.3048 0.0159 0.2649
C21 C 0.10094(15) 0.06421(13) 0.24403(6)
C22 C 0.08453(15) 0.14865(12) 0.28301(6)
H26 H 0.1799 0.1795 0.2858
C23 C -0.03860(17) 0.00850(14) 0.23602(7)
H27 H -0.0241 -0.0438 0.2111
H28 H -0.1084 0.0638 0.2219
H29 H -0.0721 -0.0300 0.2699
C24 C 0.14233(16) 0.14146(13) 0.19323(6)
H30 H 0.2400 0.1657 0.1984
C25 C 0.04379(19) 0.24298(14) 0.19508(7)
H31 H 0.0948 0.3110 0.1827
H32 H -0.0383 0.2396 0.1721
C26 C -0.00431(19) 0.24061(14) 0.25310(7)
H33 H 0.0139 0.3110 0.2655
H34 H -0.1056 0.2248 0.2574
C27 C 0.14115(17) 0.10015(14) 0.13892(7)
H35 H 0.0411 0.0904 0.1296
C28 C 0.2180(2) -0.00889(16) 0.13857(7)
H36 H 0.2134 -0.0302 0.1032
H37 H 0.1736 -0.0648 0.1642
H38 H 0.3164 -0.0018 0.1480
C29 C 0.20352(19) 0.18802(15) 0.09701(7)
H39 H 0.3037 0.1961 0.1052
H40 H 0.1553 0.2584 0.1000
C30 C 0.1940(2) 0.16730(17) 0.03971(7)
H41 H 0.2458 0.0989 0.0356
H42 H 0.0945 0.1576 0.0311
C31 C 0.2545(2) 0.26104(16) 0.00109(7)
H43 H 0.3525 0.2723 0.0112
H44 H 0.2004 0.3285 0.0049
C32 C 0.2536(2) 0.24477(19) -0.05701(8)
H45 H 0.1562 0.2256 -0.0660
C33 C 0.2928(3) 0.3494(2) -0.09224(9)
H46 H 0.2277 0.4083 -0.0857
H47 H 0.2874 0.3386 -0.1293
H48 H 0.3887 0.3690 -0.0845
C34 C 0.3515(3) 0.1528(3) -0.06746(10)
H49 H 0.3484 0.1446 -0.1049
H50 H 0.3222 0.0847 -0.0460
H51 H 0.4474 0.1694 -0.0583
N2 N 0.36736(14) 0.38098(11) 0.55642(5)
H52 H 0.3387 0.3132 0.5638
O3 O 0.43415(15) 0.57512(12) 0.73787(5)
O4 O 0.32825(14) 0.23510(10) 0.49436(5)
C35 C 0.4275(2) 0.51230(19) 0.78837(7)
H53 H 0.4436 0.5592 0.8153
H54 H 0.4997 0.4544 0.7909
H55 H 0.3347 0.4795 0.7939
C36 C 0.41384(17) 0.52222(14) 0.69483(6)
C37 C 0.39605(17) 0.41091(14) 0.69683(7)
H56 H 0.3942 0.3645 0.7298
C38 C 0.38086(17) 0.36777(13) 0.64994(7)
H57 H 0.3687 0.2914 0.6516
C39 C 0.38295(15) 0.43270(13) 0.60088(6)
C40 C 0.39642(16) 0.54528(13) 0.59969(6)
H58 H 0.3941 0.5924 0.5669
C41 C 0.41315(17) 0.58831(14) 0.64641(7)
H59 H 0.4244 0.6648 0.6450
C42 C 0.38805(15) 0.41520(13) 0.50288(6)
C43 C 0.36462(15) 0.32363(13) 0.47177(6)
C44 C 0.39351(16) 0.34372(13) 0.41326(6)
H60 H 0.3383 0.2922 0.3960
H61 H 0.4941 0.3287 0.4068
C45 C 0.35713(15) 0.46087(12) 0.38801(6)
C46 C 0.44630(16) 0.53461(12) 0.41794(6)
H62 H 0.5466 0.5165 0.4105
C47 C 0.42746(16) 0.51251(13) 0.47690(6)
H63 H 0.4442 0.5700 0.4968
C48 C 0.19808(15) 0.48056(14) 0.39523(7)
H64 H 0.1460 0.4327 0.3754
H65 H 0.1743 0.5569 0.3821
H66 H 0.1729 0.4645 0.4328
C49 C 0.40252(15) 0.48237(12) 0.32886(6)
H67 H 0.5052 0.4646 0.3276
C50 C 0.38579(15) 0.60432(12) 0.30575(6)
H68 H 0.2838 0.6246 0.3063
C51 C 0.46449(17) 0.67694(13) 0.33847(7)
H69 H 0.4432 0.7544 0.3249
H70 H 0.5667 0.6647 0.3343
C52 C 0.42540(19) 0.65461(14) 0.39683(7)
H71 H 0.4845 0.6989 0.4168
H72 H 0.3261 0.6761 0.4018
C53 C 0.33044(18) 0.40975(13) 0.29341(6)
H73 H 0.2275 0.4204 0.2960
H74 H 0.3524 0.3323 0.3067
C54 C 0.37611(18) 0.43421(13) 0.23481(6)
H75 H 0.4764 0.4138 0.2314
H76 H 0.3210 0.3890 0.2139
C55 C 0.35490(15) 0.55516(13) 0.21231(6)
C56 C 0.43727(16) 0.62032(13) 0.24860(6)
H77 H 0.5359 0.5913 0.2491
C57 C 0.19823(16) 0.58620(16) 0.21003(7)
H78 H 0.1534 0.5600 0.2441
H79 H 0.1538 0.5526 0.1822
H80 H 0.1874 0.6658 0.2023
C58 C 0.42789(16) 0.59575(13) 0.15791(6)
H81 H 0.5233 0.5606 0.1584
C59 C 0.44824(18) 0.71964(14) 0.15975(7)
H82 H 0.3732 0.7632 0.1397
H83 H 0.5401 0.7432 0.1439
C60 C 0.44180(19) 0.73624(14) 0.21850(7)
H84 H 0.5257 0.7747 0.2281
H85 H 0.3567 0.7787 0.2260
C61 C 0.35727(18) 0.57712(15) 0.10637(7)
H86 H 0.2656 0.6180 0.1039
C62 C 0.3273(2) 0.45735(18) 0.10473(8)
H87 H 0.2682 0.4290 0.1351
H88 H 0.4160 0.4157 0.1060
H89 H 0.2785 0.4502 0.0720
C63 C 0.44936(18) 0.62436(17) 0.05825(7)
H90 H 0.4693 0.7014 0.0611
H91 H 0.5402 0.5839 0.0602
C64 C 0.38581(19) 0.61988(17) 0.00389(7)
H92 H 0.4583 0.6406 -0.0236
H93 H 0.3588 0.5438 0.0018
C65 C 0.2579(2) 0.69431(17) -0.00769(7)
H94 H 0.2883 0.7710 -0.0105
H95 H 0.1919 0.6809 0.0227
C66 C 0.1787(2) 0.68065(18) -0.05814(8)
H96 H 0.1432 0.6043 -0.0540
C67 C 0.0523(2) 0.7582(2) -0.06453(10)
H97 H -0.0063 0.7464 -0.0325
H98 H -0.0026 0.7444 -0.0949
H99 H 0.0845 0.8338 -0.0703
C68 C 0.2710(2) 0.6978(2) -0.10743(8)
H100 H 0.3520 0.6475 -0.1028
H101 H 0.3038 0.7732 -0.1133
H102 H 0.2168 0.6837 -0.1379
N3 N 0.83096(14) 0.44047(11) 0.41154(5)
H103 H 0.8200 0.3731 0.4053
O5 O 0.86154(16) 0.74732(12) 0.22962(5)
O6 O 0.69781(12) 0.29582(10) 0.47966(5)
C69 C 0.8523(2) 0.71296(18) 0.17979(8)
H104 H 0.8578 0.7765 0.1521
H105 H 0.7627 0.6765 0.1773
H106 H 0.9298 0.6620 0.1752
C70 C 0.85471(17) 0.66780(15) 0.27311(7)
C71 C 0.85885(17) 0.70447(14) 0.32184(7)
H107 H 0.8672 0.7803 0.3233
C72 C 0.85095(16) 0.63162(14) 0.36848(7)
H108 H 0.8522 0.6579 0.4016
C73 C 0.84117(15) 0.51941(13) 0.36670(6)
C74 C 0.83663(16) 0.48441(14) 0.31733(6)
H109 H 0.8295 0.4086 0.3155
C75 C 0.84224(17) 0.55712(15) 0.27105(7)
H110 H 0.8376 0.5314 0.2379
C76 C 0.83565(15) 0.45346(13) 0.46461(6)
C77 C 0.90781(15) 0.52682(13) 0.48712(6)
H111 H 0.9661 0.5763 0.4652
C78 C 0.90045(15) 0.53399(12) 0.54493(6)
H112 H 0.8170 0.5816 0.5502
C79 C 0.87289(15) 0.42271(12) 0.57917(6)
C80 C 0.73998(16) 0.37917(14) 0.55659(6)
H113 H 0.7187 0.3067 0.5767
H114 H 0.6600 0.4289 0.5616
C81 C 0.75334(15) 0.36868(13) 0.49881(6)
C82 C 0.99366(17) 0.34003(14) 0.57551(7)
H115 H 0.9716 0.2710 0.5977
H116 H 1.0805 0.3689 0.5877
H117 H 1.0058 0.3275 0.5388
C83 C 1.02703(17) 0.59110(14) 0.56354(7)
H118 H 1.0396 0.6623 0.5409
H119 H 1.1127 0.5460 0.5603
C84 C 1.00642(17) 0.60913(13) 0.62120(6)
H120 H 1.0933 0.6395 0.6336
H121 H 0.9296 0.6633 0.6233
C85 C 0.97120(15) 0.50396(12) 0.65751(6)
H122 H 1.0554 0.4543 0.6595
C86 C 0.84699(15) 0.44467(12) 0.63669(6)
H123 H 0.7650 0.4965 0.6354
C87 C 0.93361(15) 0.52602(12) 0.71350(6)
H124 H 0.8441 0.5697 0.7105
C88 C 0.90383(16) 0.42195(12) 0.75304(6)
C89 C 0.77759(18) 0.36877(15) 0.73139(7)
H125 H 0.6948 0.4183 0.7313
H126 H 0.7558 0.3002 0.7549
C90 C 0.80543(19) 0.34369(14) 0.67532(7)
H127 H 0.7199 0.3125 0.6623
H128 H 0.8815 0.2880 0.6762
C91 C 1.03086(19) 0.34355(14) 0.75973(7)
H129 H 1.0464 0.3119 0.7272
H130 H 1.0130 0.2851 0.7891
H131 H 1.1143 0.3836 0.7672
C92 C 1.03614(17) 0.58945(14) 0.74231(6)
H132 H 1.0281 0.6688 0.7299
H133 H 1.1341 0.5649 0.7370
C93 C 0.99041(17) 0.56248(13) 0.80112(6)
H134 H 0.9510 0.6285 0.8139
H135 H 1.0719 0.5358 0.8232
C94 C 0.87722(16) 0.47262(13) 0.80450(6)
H136 H 0.7835 0.5105 0.8012
C95 C 0.87829(18) 0.39773(14) 0.85813(7)
H137 H 0.9748 0.3653 0.8634
C96 C 0.7751(2) 0.30371(17) 0.86117(8)
H138 H 0.7951 0.2614 0.8324
H139 H 0.6790 0.3332 0.8580
H140 H 0.7850 0.2563 0.8951
C97 C 0.84797(19) 0.46552(15) 0.90306(7)
H141 H 0.9106 0.5292 0.8984
H142 H 0.7501 0.4937 0.8998
C98 C 0.8673(2) 0.40393(16) 0.95861(7)
H143 H 0.9615 0.3686 0.9610
H144 H 0.7968 0.3457 0.9652
C99 C 0.8525(2) 0.47777(17) 1.00095(7)
H145 H 0.7568 0.5104 0.9993
H146 H 0.9197 0.5381 0.9929
C100 C 0.8780(2) 0.42062(19) 1.05730(7)
H147 H 0.9710 0.3818 1.0578
C101 C 0.7673(3) 0.3373(3) 1.07485(10)
H148 H 0.7870 0.3021 1.1109
H149 H 0.7681 0.2821 1.0510
H150 H 0.6749 0.3735 1.0741
C102 C 0.8836(3) 0.5033(3) 1.09578(9)
H151 H 0.9005 0.4650 1.1315
H152 H 0.7941 0.5436 1.0953
H153 H 0.9597 0.5544 1.0853
N4 N 0.63637(14) 0.91176(11) 0.42330(5)
H154 H 0.6552 0.8461 0.4155
O7 O 0.60022(17) 1.22305(12) 0.24335(5)
O8 O 0.68705(13) 0.73015(10) 0.48671(5)
C103 C 0.5800(2) 1.18899(19) 0.19360(7)
H155 H 0.5745 1.2531 0.1663
H156 H 0.4926 1.1483 0.1944
H157 H 0.6590 1.1420 0.1857
C104 C 0.60923(17) 1.14233(14) 0.28621(7)
C105 C 0.62146(19) 1.17809(14) 0.33483(7)
H158 H 0.6235 1.2542 0.3364
C106 C 0.63082(17) 1.10498(13) 0.38128(7)
H159 H 0.6402 1.1310 0.4142
C107 C 0.62643(14) 0.99269(13) 0.37941(6)
C108 C 0.61605(16) 0.95797(13) 0.32994(6)
H160 H 0.6148 0.8820 0.3280
C109 C 0.60750(16) 1.03154(15) 0.28376(6)
H161 H 0.6005 1.0060 0.2506
C110 C 0.62192(15) 0.91614(13) 0.47685(6)
C111 C 0.58028(16) 1.00034(13) 0.50185(6)
H162 H 0.5572 1.0681 0.4810
C112 C 0.56864(15) 0.99223(12) 0.56069(6)
H163 H 0.4694 0.9719 0.5701
C113 C 0.66206(14) 0.90052(12) 0.59075(6)
C114 C 0.62817(16) 0.79644(12) 0.56758(6)
H164 H 0.6877 0.7355 0.5849
H165 H 0.5290 0.7776 0.5758
C115 C 0.65127(15) 0.80751(13) 0.50857(6)
C116 C 0.81972(15) 0.92355(14) 0.58163(7)
H166 H 0.8420 0.9292 0.5438
H167 H 0.8752 0.8638 0.6011
H168 H 0.8421 0.9923 0.5942
C117 C 0.59018(19) 1.10150(13) 0.57928(7)
H169 H 0.5286 1.1576 0.5592
H170 H 0.6888 1.1240 0.5726
C118 C 0.55608(17) 1.09337(13) 0.63839(6)
H171 H 0.5786 1.1633 0.6506
H172 H 0.4543 1.0812 0.6441
C119 C 0.63805(16) 1.00090(12) 0.67108(6)
H173 H 0.7398 1.0195 0.6690
C120 C 0.62050(15) 0.89112(12) 0.65000(6)
H174 H 0.5178 0.8756 0.6522
C121 C 0.59169(15) 0.98784(12) 0.72865(6)
H175 H 0.4918 0.9642 0.7297
C122 C 0.67315(15) 0.89959(12) 0.76541(6)
C123 C 0.64914(16) 0.79104(13) 0.74466(6)
H176 H 0.5486 0.7725 0.7487
H177 H 0.7039 0.7323 0.7660
C124 C 0.69303(16) 0.79691(13) 0.68598(6)
H178 H 0.7960 0.8059 0.6828
H179 H 0.6701 0.7271 0.6738
C125 C 0.83117(16) 0.92174(15) 0.76618(7)
H180 H 0.8735 0.9117 0.7321
H181 H 0.8753 0.8708 0.7943
H182 H 0.8454 0.9968 0.7726
C126 C 0.5947(2) 1.08881(14) 0.75658(7)
H183 H 0.5127 1.1374 0.7468
H184 H 0.6818 1.1303 0.7477
C127 C 0.58942(19) 1.04146(14) 0.81579(7)
H185 H 0.4992 1.0613 0.8318
H186 H 0.6668 1.0707 0.8347
C128 C 0.60476(16) 0.91495(13) 0.81947(6)
H187 H 0.5080 0.8848 0.8202
C129 C 0.67728(17) 0.86384(14) 0.87082(6)
H188 H 0.7753 0.8917 0.8695
C130 C 0.68725(19) 0.73985(14) 0.87644(7)
H189 H 0.7337 0.7183 0.8451
H190 H 0.5927 0.7096 0.8800
H191 H 0.7418 0.7119 0.9078
C131 C 0.60385(18) 0.90004(15) 0.91977(7)
H192 H 0.5844 0.9796 0.9126
H193 H 0.5126 0.8629 0.9255
C132 C 0.68889(19) 0.87545(16) 0.97012(7)
H194 H 0.6866 0.7961 0.9829
H195 H 0.7879 0.8952 0.9621
C133 C 0.6336(2) 0.93753(17) 1.01380(7)
H196 H 0.5351 0.9165 1.0221
H197 H 0.6335 1.0167 1.0004
C134 C 0.7180(2) 0.91728(17) 1.06481(7)
H198 H 0.7162 0.8373 1.0782
C135 C 0.8706(2) 0.9498(2) 1.05578(9)
H199 H 0.9126 0.9104 1.0287
H200 H 0.9221 0.9312 1.0888
H201 H 0.8753 1.0285 1.0440
C136 C 0.6503(3) 0.97753(19) 1.10688(8)
H202 H 0.5526 0.9550 1.1126
H203 H 0.6530 1.0564 1.0951
H204 H 0.7019 0.9599 1.1400
loop_
_geom_bond_atom_site_label_1
_geom_bond_atom_site_label_2
_geom_bond_site_symmetry_1
_geom_bond_site_symmetry_2
N1 H1 1_555 1_555
O1 C1 1_555 1_555
O2 C9 1_555 1_555
C1 H2 1_555 1_555
H3 C1 1_555 1_555
H4 C1 1_555 1_555
C2 O1 1_555 1_555
C3 C2 1_555 1_555
H5 C3 1_555 1_555
C4 C3 1_555 1_555
H6 C4 1_555 1_555
C5 N1 1_555 1_555
C6 C5 1_555 1_555
H7 C6 1_555 1_555
C7 C2 1_555 1_555
H8 C7 1_555 1_555
C8 N1 1_555 1_555
C9 C8 1_555 1_555
C10 C9 1_555 1_555
H9 C10 1_555 1_555
H10 C10 1_555 1_555
C11 C10 1_555 1_555
C12 C11 1_555 1_555
H11 C12 1_555 1_555
C13 C8 1_555 1_555
H12 C13 1_555 1_555
C14 C11 1_555 1_555
H13 C14 1_555 1_555
H14 C14 1_555 1_555
H15 C14 1_555 1_555
C15 C11 1_555 1_555
H16 C15 1_555 1_555
C16 C15 1_555 1_555
H17 C16 1_555 1_555
C17 C16 1_555 1_555
H18 C17 1_555 1_555
H19 C17 1_555 1_555
C18 C12 1_555 1_555
H20 C18 1_555 1_555
H21 C18 1_555 1_555
C19 C15 1_555 1_555
H22 C19 1_555 1_555
H23 C19 1_555 1_555
C20 C19 1_555 1_555
H24 C20 1_555 1_555
H25 C20 1_555 1_555
C21 C20 1_555 1_555
C22 C16 1_555 1_555
H26 C22 1_555 1_555
C23 C21 1_555 1_555
H27 C23 1_555 1_555
H28 C23 1_555 1_555
H29 C23 1_555 1_555
C24 C21 1_555 1_555
H30 C24 1_555 1_555
C25 C24 1_555 1_555
H31 C25 1_555 1_555
H32 C25 1_555 1_555
C26 C22 1_555 1_555
H33 C26 1_555 1_555
H34 C26 1_555 1_555
C27 C24 1_555 1_555
H35 C27 1_555 1_555
C28 C27 1_555 1_555
H36 C28 1_555 1_555
H37 C28 1_555 1_555
H38 C28 1_555 1_555
C29 C27 1_555 1_555
H39 C29 1_555 1_555
H40 C29 1_555 1_555
C30 C29 1_555 1_555
H41 C30 1_555 1_555
H42 C30 1_555 1_555
C31 C30 1_555 1_555
H43 C31 1_555 1_555
H44 C31 1_555 1_555
C32 C31 1_555 1_555
H45 C32 1_555 1_555
C33 C32 1_555 1_555
H46 C33 1_555 1_555
H47 C33 1_555 1_555
H48 C33 1_555 1_555
C34 C32 1_555 1_555
H49 C34 1_555 1_555
H50 C34 1_555 1_555
H51 C34 1_555 1_555
N2 H52 1_555 1_555
O3 C35 1_555 1_555
O4 C43 1_555 1_555
C35 H53 1_555 1_555
H54 C35 1_555 1_555
H55 C35 1_555 1_555
C36 O3 1_555 1_555
C37 C36 1_555 1_555
H56 C37 1_555 1_555
C38 C37 1_555 1_555
H57 C38 1_555 1_555
C39 N2 1_555 1_555
C40 C39 1_555 1_555
H58 C40 1_555 1_555
C41 C36 1_555 1_555
H59 C41 1_555 1_555
C42 N2 1_555 1_555
C43 C42 1_555 1_555
C44 C43 1_555 1_555
H60 C44 1_555 1_555
H61 C44 1_555 1_555
C45 C44 1_555 1_555
C46 C45 1_555 1_555
H62 C46 1_555 1_555
C47 C42 1_555 1_555
H63 C47 1_555 1_555
C48 C45 1_555 1_555
H64 C48 1_555 1_555
H65 C48 1_555 1_555
H66 C48 1_555 1_555
C49 C45 1_555 1_555
H67 C49 1_555 1_555
C50 C49 1_555 1_555
H68 C50 1_555 1_555
C51 C50 1_555 1_555
H69 C51 1_555 1_555
H70 C51 1_555 1_555
C52 C46 1_555 1_555
H71 C52 1_555 1_555
H72 C52 1_555 1_555
C53 C49 1_555 1_555
H73 C53 1_555 1_555
H74 C53 1_555 1_555
C54 C53 1_555 1_555
H75 C54 1_555 1_555
H76 C54 1_555 1_555
C55 C54 1_555 1_555
C56 C50 1_555 1_555
H77 C56 1_555 1_555
C57 C55 1_555 1_555
H78 C57 1_555 1_555
H79 C57 1_555 1_555
H80 C57 1_555 1_555
C58 C55 1_555 1_555
H81 C58 1_555 1_555
C59 C58 1_555 1_555
H82 C59 1_555 1_555
H83 C59 1_555 1_555
C60 C56 1_555 1_555
H84 C60 1_555 1_555
H85 C60 1_555 1_555
C61 C58 1_555 1_555
H86 C61 1_555 1_555
C62 C61 1_555 1_555
H87 C62 1_555 1_555
H88 C62 1_555 1_555
H89 C62 1_555 1_555
C63 C61 1_555 1_555
H90 C63 1_555 1_555
H91 C63 1_555 1_555
C64 C63 1_555 1_555
H92 C64 1_555 1_555
H93 C64 1_555 1_555
C65 C64 1_555 1_555
H94 C65 1_555 1_555
H95 C65 1_555 1_555
C66 C65 1_555 1_555
H96 C66 1_555 1_555
C67 C66 1_555 1_555
H97 C67 1_555 1_555
H98 C67 1_555 1_555
H99 C67 1_555 1_555
C68 C66 1_555 1_555
H100 C68 1_555 1_555
H101 C68 1_555 1_555
H102 C68 1_555 1_555
N3 H103 1_555 1_555
O5 C69 1_555 1_555
O6 C81 1_555 1_555
C69 H104 1_555 1_555
H105 C69 1_555 1_555
H106 C69 1_555 1_555
C70 O5 1_555 1_555
C71 C70 1_555 1_555
H107 C71 1_555 1_555
C72 C71 1_555 1_555
H108 C72 1_555 1_555
C73 N3 1_555 1_555
C74 C73 1_555 1_555
H109 C74 1_555 1_555
C75 C70 1_555 1_555
H110 C75 1_555 1_555
C76 N3 1_555 1_555
C77 C76 1_555 1_555
H111 C77 1_555 1_555
C78 C77 1_555 1_555
H112 C78 1_555 1_555
C79 C78 1_555 1_555
C80 C79 1_555 1_555
H113 C80 1_555 1_555
H114 C80 1_555 1_555
C81 C76 1_555 1_555
C82 C79 1_555 1_555
H115 C82 1_555 1_555
H116 C82 1_555 1_555
H117 C82 1_555 1_555
C83 C78 1_555 1_555
H118 C83 1_555 1_555
H119 C83 1_555 1_555
C84 C83 1_555 1_555
H120 C84 1_555 1_555
H121 C84 1_555 1_555
C85 C84 1_555 1_555
H122 C85 1_555 1_555
C86 C79 1_555 1_555
H123 C86 1_555 1_555
C87 C85 1_555 1_555
H124 C87 1_555 1_555
C88 C87 1_555 1_555
C89 C88 1_555 1_555
H125 C89 1_555 1_555
H126 C89 1_555 1_555
C90 C86 1_555 1_555
H127 C90 1_555 1_555
H128 C90 1_555 1_555
C91 C88 1_555 1_555
H129 C91 1_555 1_555
H130 C91 1_555 1_555
H131 C91 1_555 1_555
C92 C87 1_555 1_555
H132 C92 1_555 1_555
H133 C92 1_555 1_555
C93 C92 1_555 1_555
H134 C93 1_555 1_555
H135 C93 1_555 1_555
C94 C88 1_555 1_555
H136 C94 1_555 1_555
C95 C94 1_555 1_555
H137 C95 1_555 1_555
C96 C95 1_555 1_555
H138 C96 1_555 1_555
H139 C96 1_555 1_555
H140 C96 1_555 1_555
C97 C95 1_555 1_555
H141 C97 1_555 1_555
H142 C97 1_555 1_555
C98 C97 1_555 1_555
H143 C98 1_555 1_555
H144 C98 1_555 1_555
C99 C98 1_555 1_555
H145 C99 1_555 1_555
H146 C99 1_555 1_555
C100 C99 1_555 1_555
H147 C100 1_555 1_555
C101 C100 1_555 1_555
H148 C101 1_555 1_555
H149 C101 1_555 1_555
H150 C101 1_555 1_555
C102 C100 1_555 1_555
H151 C102 1_555 1_555
H152 C102 1_555 1_555
H153 C102 1_555 1_555
N4 H154 1_555 1_555
O7 C103 1_555 1_555
O8 C115 1_555 1_555
C103 H155 1_555 1_555
H156 C103 1_555 1_555
H157 C103 1_555 1_555
C104 O7 1_555 1_555
C105 C104 1_555 1_555
H158 C105 1_555 1_555
C106 C105 1_555 1_555
H159 C106 1_555 1_555
C107 N4 1_555 1_555
C108 C107 1_555 1_555
H160 C108 1_555 1_555
C109 C104 1_555 1_555
H161 C109 1_555 1_555
C110 N4 1_555 1_555
C111 C110 1_555 1_555
H162 C111 1_555 1_555
C112 C111 1_555 1_555
H163 C112 1_555 1_555
C113 C112 1_555 1_555
C114 C113 1_555 1_555
H164 C114 1_555 1_555
H165 C114 1_555 1_555
C115 C110 1_555 1_555
C116 C113 1_555 1_555
H166 C116 1_555 1_555
H167 C116 1_555 1_555
H168 C116 1_555 1_555
C117 C112 1_555 1_555
H169 C117 1_555 1_555
H170 C117 1_555 1_555
C118 C117 1_555 1_555
H171 C118 1_555 1_555
H172 C118 1_555 1_555
C119 C118 1_555 1_555
H173 C119 1_555 1_555
C120 C113 1_555 1_555
H174 C120 1_555 1_555
C121 C119 1_555 1_555
H175 C121 1_555 1_555
C122 C121 1_555 1_555
C123 C122 1_555 1_555
H176 C123 1_555 1_555
H177 C123 1_555 1_555
C124 C120 1_555 1_555
H178 C124 1_555 1_555
H179 C124 1_555 1_555
C125 C122 1_555 1_555
H180 C125 1_555 1_555
H181 C125 1_555 1_555
H182 C125 1_555 1_555
C126 C121 1_555 1_555
H183 C126 1_555 1_555
H184 C126 1_555 1_555
C127 C126 1_555 1_555
H185 C127 1_555 1_555
H186 C127 1_555 1_555
C128 C122 1_555 1_555
H187 C128 1_555 1_555
C129 C128 1_555 1_555
H188 C129 1_555 1_555
C130 C129 1_555 1_555
H189 C130 1_555 1_555
H190 C130 1_555 1_555
H191 C130 1_555 1_555
C131 C129 1_555 1_555
H192 C131 1_555 1_555
H193 C131 1_555 1_555
C132 C131 1_555 1_555
H194 C132 1_555 1_555
H195 C132 1_555 1_555
C133 C132 1_555 1_555
H196 C133 1_555 1_555
H197 C133 1_555 1_555
C134 C133 1_555 1_555
H198 C134 1_555 1_555
C135 C134 1_555 1_555
H199 C135 1_555 1_555
H200 C135 1_555 1_555
H201 C135 1_555 1_555
C136 C134 1_555 1_555
H202 C136 1_555 1_555
H203 C136 1_555 1_555
H204 C136 1_555 1_555
C4 C5 1_555 1_555
C6 C7 1_555 1_555
C12 C13 1_555 1_555
C17 C18 1_555 1_555
C21 C22 1_555 1_555
C25 C26 1_555 1_555
C38 C39 1_555 1_555
C40 C41 1_555 1_555
C46 C47 1_555 1_555
C51 C52 1_555 1_555
C55 C56 1_555 1_555
C59 C60 1_555 1_555
C72 C73 1_555 1_555
C74 C75 1_555 1_555
C80 C81 1_555 1_555
C85 C86 1_555 1_555
C89 C90 1_555 1_555
C93 C94 1_555 1_555
C106 C107 1_555 1_555
C108 C109 1_555 1_555
C114 C115 1_555 1_555
C119 C120 1_555 1_555
C123 C124 1_555 1_555
C127 C128 1_555 1_555

#END
