
#######################################################################
#
#                 Cambridge Crystallographic Data Centre
#                                CCDC 
#
#######################################################################
#
# If this CIF has been generated from an entry in the Cambridge 
# Structural Database, then it will include bibliographic, chemical, 
# crystal, experimental, refinement or atomic coordinate data resulting 
# from the CCDC's data processing and validation procedures.
#
#######################################################################

data_DITDEP
_chemical_formula_moiety         'C20 H20'
_chemical_name_systematic        1,4,7,10-Tetramethyl-dibenzo(a,e)cyclo-octene
_symmetry_cell_setting           triclinic
_symmetry_space_group_name_H-M   'P -1'
_symmetry_Int_Tables_number      2
_space_group_name_Hall           '-P 1'
loop_
_symmetry_equiv_pos_site_id
_symmetry_equiv_pos_as_xyz
1 x,y,z
2 -x,-y,-z
_cell_length_a                   7.519(2)
_cell_length_b                   10.689(3)
_cell_length_c                   10.830(3)
_cell_angle_alpha                100.76(2)
_cell_angle_beta                 108.67(2)
_cell_angle_gamma                104.92(2)
_cell_volume                     761.601
_exptl_crystal_colour            colorless
_chemical_melting_point          169-171deg.C
_cell_formula_units_Z            2
loop_
_atom_site_label
_atom_site_type_symbol
_atom_site_fract_x
_atom_site_fract_y
_atom_site_fract_z
H1 H 0.0412 0.0322 -0.2322
H2 H 0.0694 -0.1454 -0.1433
H3 H 0.6500 0.0920 0.2800
H4 H 0.6150 0.1970 0.4750
H5 H 0.0207 0.2332 0.5111
H6 H -0.0318 0.3959 0.4047
H7 H 0.5650 0.5270 0.3160
H8 H 0.5990 0.4070 0.1160
H9 H 0.1274 0.2608 -0.2192
H10 H 0.3555 0.3475 -0.1233
H11 H 0.1820 0.3575 -0.0707
H12 H 0.4255 -0.1541 0.1248
H13 H 0.1931 -0.2318 0.0334
H14 H 0.2620 -0.1390 0.1861
H15 H 0.4150 0.1245 0.5983
H16 H 0.2509 0.0215 0.4559
H17 H 0.1826 0.0875 0.5702
H18 H 0.0558 0.5464 0.2919
H19 H 0.1206 0.4899 0.1717
H20 H 0.2832 0.6039 0.3078
C1 C 0.2438(5) 0.1839(3) -0.0626(3)
C2 C 0.1314(5) 0.0509(3) -0.1398(3)
C3 C 0.1476(5) -0.0543(3) -0.0866(3)
C4 C 0.2743(4) -0.0324(3) 0.0455(3)
C5 C 0.3869(4) 0.1025(5) 0.1276(3)
C6 C 0.5278(4) 0.1278(3) 0.2687(3)
C7 C 0.5237(4) 0.1953(3) 0.3824(3)
C8 C 0.3704(4) 0.2576(3) 0.3902(3)
C9 C 0.2518(5) 0.2108(3) 0.4606(3)
C10 C 0.1036(5) 0.2644(4) 0.4639(3)
C11 C 0.0746(6) 0.3625(4) 0.4030(4)
C12 C 0.1945(5) 0.4150(3) 0.3375(4)
C13 C 0.3457(5) 0.3609(3) 0.3315(3)
C14 C 0.4820(5) 0.4184(3) 0.2667(4)
C15 C 0.4940(5) 0.3518(3) 0.1552(4)
C16 C 0.3700(4) 0.2092(3) 0.0721(3)
C17 C 0.2255(7) 0.2969(4) -0.1249(4)
C18 C 0.2912(6) -0.1489(3) 0.1036(4)
C19 C 0.2815(6) 0.1031(4) 0.5287(4)
C20 C 0.1628(8) 0.5232(4) 0.2708(4)
loop_
_geom_bond_atom_site_label_1
_geom_bond_atom_site_label_2
_geom_bond_site_symmetry_1
_geom_bond_site_symmetry_2
H1 C2 1_555 1_555
H2 C3 1_555 1_555
H3 C6 1_555 1_555
H4 C7 1_555 1_555
H5 C10 1_555 1_555
H6 C11 1_555 1_555
H7 C14 1_555 1_555
H8 C15 1_555 1_555
H9 C17 1_555 1_555
H10 C17 1_555 1_555
H11 C17 1_555 1_555
H12 C18 1_555 1_555
H13 C18 1_555 1_555
H14 C18 1_555 1_555
H15 C19 1_555 1_555
H16 C19 1_555 1_555
H17 C19 1_555 1_555
H18 C20 1_555 1_555
H19 C20 1_555 1_555
H20 C20 1_555 1_555
C1 C2 1_555 1_555
C2 C3 1_555 1_555
C3 C4 1_555 1_555
C4 C5 1_555 1_555
C5 C6 1_555 1_555
C6 C7 1_555 1_555
C7 C8 1_555 1_555
C8 C9 1_555 1_555
C9 C10 1_555 1_555
C10 C11 1_555 1_555
C11 C12 1_555 1_555
C12 C13 1_555 1_555
C13 C8 1_555 1_555
C14 C13 1_555 1_555
C15 C14 1_555 1_555
C16 C1 1_555 1_555
C17 C1 1_555 1_555
C18 C4 1_555 1_555
C19 C9 1_555 1_555
C20 C12 1_555 1_555
C5 C16 1_555 1_555
C15 C16 1_555 1_555

#END
