
#######################################################################
#
#                 Cambridge Crystallographic Data Centre
#                                CCDC 
#
#######################################################################
#
# If this CIF has been generated from an entry in the Cambridge 
# Structural Database, then it will include bibliographic, chemical, 
# crystal, experimental, refinement or atomic coordinate data resulting 
# from the CCDC's data processing and validation procedures.
#
#######################################################################

data_DIVFAR
_chemical_formula_moiety         'C12 H12 N4 O1 S1,0.5(H2 O1)'
_chemical_name_systematic        
'2-((8-methoxyquinolin-2-yl)methylene)hydrazinecarbothioamide hemihydrate'
_symmetry_cell_setting           orthorhombic
_symmetry_space_group_name_H-M   'P b c n'
_symmetry_Int_Tables_number      60
_space_group_name_Hall           '-P 2n 2ab'
loop_
_symmetry_equiv_pos_site_id
_symmetry_equiv_pos_as_xyz
1 x,y,z
2 1/2-x,1/2-y,1/2+z
3 1/2+x,1/2-y,-z
4 -x,y,1/2-z
5 -x,-y,-z
6 1/2+x,1/2+y,1/2-z
7 1/2-x,1/2+y,z
8 x,-y,1/2+z
_cell_length_a                   21.2725(16)
_cell_length_b                   7.2924(6)
_cell_length_c                   17.2520(13)
_cell_angle_alpha                90
_cell_angle_beta                 90
_cell_angle_gamma                90
_cell_volume                     2676.26
_exptl_crystal_colour            yellow
_exptl_crystal_description       BLOCK
_cell_formula_units_Z            8
loop_
_atom_site_label
_atom_site_type_symbol
_atom_site_fract_x
_atom_site_fract_y
_atom_site_fract_z
S1 S 0.89346(4) -0.02071(13) 0.22651(4)
O1 O 0.72369(10) 0.0494(3) 0.12631(12)
N1 N 0.78982(11) 0.1574(3) 0.00831(13)
C1 C 0.69196(19) -0.0293(5) 0.1903(2)
H1 H 0.7219 -0.0602 0.2298
H2 H 0.6704 -0.1382 0.1738
H3 H 0.6621 0.0570 0.2105
N2 N 0.92605(12) 0.1422(4) 0.01541(14)
C2 C 0.68961(14) 0.1033(4) 0.06440(17)
N3 N 0.89571(11) 0.0879(3) 0.08132(13)
H4 H 0.8553 0.0879 0.0834
C3 C 0.62548(15) 0.1028(5) 0.0584(2)
H5 H 0.6010 0.0643 0.1001
N4 N 0.99146(12) 0.0283(4) 0.13363(16)
H6 H 1.0078 0.0576 0.0898
H7 H 1.0152 -0.0051 0.1714
C4 C 0.59651(17) 0.1604(5) -0.0107(2)
H8 H 0.5529 0.1587 -0.0138
C5 C 0.62992(16) 0.2180(5) -0.0725(2)
H9 H 0.6094 0.2547 -0.1175
C6 C 0.69658(14) 0.2223(4) -0.06862(17)
C7 C 0.72622(14) 0.1621(4) 0.00050(16)
C8 C 0.73574(16) 0.2783(4) -0.12960(17)
H10 H 0.7181 0.3204 -0.1756
C9 C 0.79907(16) 0.2714(4) -0.12189(16)
H11 H 0.8251 0.3071 -0.1625
C10 C 0.82508(14) 0.2090(4) -0.05114(16)
C11 C 0.89319(14) 0.1978(4) -0.04236(18)
H12 H 0.9163 0.2368 -0.0851
C12 C 0.92989(13) 0.0345(4) 0.14290(17)
O2 O 1.0000 0.5025(13) 0.2500
H13 H 0.9697 0.5551 0.2733
H13C H 1.0303 0.5551 0.2267
loop_
_geom_bond_atom_site_label_1
_geom_bond_atom_site_label_2
_geom_bond_site_symmetry_1
_geom_bond_site_symmetry_2
S1 C12 1_555 1_555
O1 C1 1_555 1_555
N1 C7 1_555 1_555
C1 H1 1_555 1_555
H2 C1 1_555 1_555
H3 C1 1_555 1_555
N2 N3 1_555 1_555
C2 O1 1_555 1_555
N3 H4 1_555 1_555
C3 C2 1_555 1_555
H5 C3 1_555 1_555
N4 H6 1_555 1_555
H7 N4 1_555 1_555
C4 C3 1_555 1_555
H8 C4 1_555 1_555
C5 C4 1_555 1_555
H9 C5 1_555 1_555
C6 C5 1_555 1_555
C7 C2 1_555 1_555
C8 C6 1_555 1_555
H10 C8 1_555 1_555
C9 C8 1_555 1_555
H11 C9 1_555 1_555
C10 N1 1_555 1_555
C11 N2 1_555 1_555
H12 C11 1_555 1_555
C12 N3 1_555 1_555
O2 H13 1_555 1_555
H13C O2 1_555 1_555
N4 C12 1_555 1_555
C6 C7 1_555 1_555
C9 C10 1_555 1_555
C10 C11 1_555 1_555

#END
