
#######################################################################
#
#                 Cambridge Crystallographic Data Centre
#                                CCDC 
#
#######################################################################
#
# If this CIF has been generated from an entry in the Cambridge 
# Structural Database, then it will include bibliographic, chemical, 
# crystal, experimental, refinement or atomic coordinate data resulting 
# from the CCDC's data processing and validation procedures.
#
#######################################################################

data_DIVFOG
_chemical_formula_moiety         'C28 H27 Br1 N2 O4'
_chemical_name_systematic        
'(R)-(-)-diethyl 2-(4-bromophenyl)-1,2,3,6-tetrahydro-1,3-diphenylpyrimidine-4,5-dicarboxylate'
_symmetry_cell_setting           monoclinic
_symmetry_space_group_name_H-M   'P 21'
_symmetry_Int_Tables_number      4
_space_group_name_Hall           'P 2yb'
loop_
_symmetry_equiv_pos_site_id
_symmetry_equiv_pos_as_xyz
1 x,y,z
2 -x,1/2+y,-z
_cell_length_a                   11.40(3)
_cell_length_b                   19.60(5)
_cell_length_c                   11.58(3)
_cell_angle_alpha                90
_cell_angle_beta                 91.95(5)
_cell_angle_gamma                90
_cell_volume                     2585.94
_exptl_crystal_colour            'light green'
_exptl_crystal_description       'fine and long stick'
_chemical_melting_point          '411.6-411.9 K'
_cell_formula_units_Z            4
_exptl_crystal_recrystallization_method 'ethyl acetate/cyclohexane'
_exptl_crystal_preparation       ', Luminescent'
loop_
_atom_site_label
_atom_site_type_symbol
_atom_site_fract_x
_atom_site_fract_y
_atom_site_fract_z
Br1 Br -0.15974(16) 0.14245(12) 0.12085(17)
O1 O 0.6089(9) 0.0058(5) 0.0556(8)
O2 O 0.4303(10) -0.0402(6) 0.0293(9)
O3 O 0.4948(12) 0.1134(6) -0.0631(8)
O4 O 0.5083(17) 0.2129(7) 0.0292(9)
N1 N 0.4027(9) 0.0270(5) 0.2541(9)
N2 N 0.4000(10) 0.1395(6) 0.3354(9)
C1 C 0.4907(12) 0.1409(8) 0.4247(11)
C2 C 0.4308(10) -0.0391(6) 0.2981(10)
C3 C 0.4960(13) 0.0009(8) 0.0717(12)
C4 C -0.0077(13) 0.1215(7) 0.1770(12)
C5 C 0.6053(14) 0.1565(10) 0.4049(15)
H1 H 0.6277 0.1648 0.3297
C6 C 0.5442(13) -0.0610(8) 0.2980(12)
H2 H 0.6032 -0.0336 0.2694
C7 C 0.4551(12) 0.0524(7) 0.1591(12)
C8 C 0.4915(15) 0.1444(10) 0.0221(15)
C9 C 0.3432(14) -0.0779(7) 0.3460(12)
H3 H 0.2671 -0.0610 0.3492
C10 C 0.2169(11) 0.0901(7) 0.2626(10)
C11 C 0.1642(12) 0.0537(7) 0.1753(13)
H4 H 0.2047 0.0172 0.1443
C12 C 0.0546(13) 0.0682(8) 0.1313(13)
H5 H 0.0222 0.0425 0.0709
C13 C 0.4590(16) 0.1259(7) 0.5383(12)
H6 H 0.3818 0.1149 0.5543
C14 C 0.1546(14) 0.1442(9) 0.3073(12)
H7 H 0.1880 0.1697 0.3676
C15 C 0.0429(15) 0.1611(8) 0.2637(14)
H8 H 0.0031 0.1984 0.2926
C16 C 0.4601(13) 0.1213(7) 0.1391(11)
C17 C 0.3364(12) 0.0753(6) 0.3194(11)
H9 H 0.3238 0.0557 0.3959
C18 C 0.5697(13) -0.1275(9) 0.3433(12)
H10 H 0.6462 -0.1440 0.3432
C19 C 0.3703(17) -0.1418(8) 0.3888(13)
H11 H 0.3115 -0.1684 0.4197
C20 C 0.4229(15) 0.1700(7) 0.2241(11)
H12 H 0.3521 0.1925 0.1950
H13 H 0.4832 0.2046 0.2347
C21 C 0.6872(17) 0.1602(12) 0.494(2)
H14 H 0.7640 0.1724 0.4783
C22 C 0.482(2) -0.1670(10) 0.3867(15)
H15 H 0.4992 -0.2105 0.4146
C23 C 0.528(3) 0.2513(13) -0.0854(18)
H16 H 0.4885 0.2286 -0.1504
H17 H 0.5007 0.2982 -0.0816
C24 C 0.6512(19) -0.0339(12) -0.037(2)
H18 H 0.5889 -0.0398 -0.0954
H19 H 0.6737 -0.0787 -0.0086
C25 C 0.651(3) 0.2476(16) -0.092(2)
H20 H 0.6714 0.2418 -0.1708
H21 H 0.6794 0.2096 -0.0468
H22 H 0.6851 0.2890 -0.0619
C26 C 0.659(2) 0.1467(14) 0.601(2)
H23 H 0.7153 0.1498 0.6601
C27 C 0.545(2) 0.1278(9) 0.6258(17)
H24 H 0.5261 0.1166 0.7010
C28 C 0.750(2) -0.0022(13) -0.088(2)
H25 H 0.7610 -0.0213 -0.1633
H26 H 0.8191 -0.0099 -0.0401
H27 H 0.7362 0.0460 -0.0952
Br2 Br 0.24706(15) 0.38266(14) 0.37595(16)
O5 O 0.9518(10) 0.2784(5) 0.4775(8)
O6 O 1.0288(9) 0.4829(6) 0.4725(9)
O7 O 0.8523(9) 0.5314(6) 0.4837(9)
O8 O 0.9224(9) 0.3740(7) 0.5766(8)
N3 N 0.8033(10) 0.3566(6) 0.1739(8)
N4 N 0.8201(9) 0.4679(5) 0.2602(9)
C29 C 0.7449(11) 0.4202(7) 0.1915(12)
H28 H 0.7299 0.4410 0.1154
C30 C 0.6261(12) 0.4091(7) 0.2461(10)
C31 C 0.8577(12) 0.5303(7) 0.2137(10)
C32 C 0.4724(14) 0.4445(10) 0.3691(13)
H29 H 0.4444 0.4745 0.4239
C33 C 0.5852(14) 0.4527(8) 0.3292(11)
H30 H 0.6330 0.4875 0.3585
C34 C 0.4023(13) 0.3925(8) 0.3282(13)
C35 C 0.8944(12) 0.3584(7) 0.0937(12)
C36 C 0.9179(14) 0.4909(8) 0.4455(12)
C37 C 0.8308(13) 0.3247(7) 0.2845(11)
H31 H 0.8882 0.2890 0.2731
H32 H 0.7603 0.3032 0.3117
C38 C 1.0083(13) 0.3403(8) 0.1192(13)
H33 H 1.0322 0.3316 0.1954
C39 C 0.5549(13) 0.3571(7) 0.2042(12)
H34 H 0.5840 0.3267 0.1506
C40 C 0.8774(10) 0.3718(8) 0.3764(9)
C41 C 0.8742(10) 0.4383(7) 0.3567(11)
C42 C 0.9727(14) 0.5493(9) 0.2179(12)
H35 H 1.0291 0.5197 0.2492
C43 C 1.0900(16) 0.3347(11) 0.030(2)
H36 H 1.1653 0.3183 0.0462
C44 C 0.9461(17) 0.3743(9) -0.1052(14)
H37 H 0.9249 0.3866 -0.1806
C45 C 0.925(2) 0.6562(9) 0.1214(16)
H38 H 0.9484 0.6979 0.0914
C46 C 1.0564(19) 0.3542(11) -0.0820(19)
H39 H 1.1105 0.3533 -0.1403
C47 C 1.0066(18) 0.6120(10) 0.1764(13)
H40 H 1.0847 0.6253 0.1849
C48 C 0.7743(15) 0.5742(8) 0.1616(13)
H41 H 0.6953 0.5622 0.1595
C49 C 0.9207(12) 0.3445(9) 0.4846(12)
C50 C 0.8637(14) 0.3773(9) -0.0234(11)
H42 H 0.7878 0.3916 -0.0430
C51 C 0.4418(13) 0.3494(8) 0.2399(13)
H43 H 0.3925 0.3165 0.2067
C52 C 1.1221(18) 0.2540(12) 0.6023(15)
H44 H 1.1618 0.2290 0.5441
H45 H 1.1454 0.2369 0.6773
H46 H 1.1422 0.3015 0.5973
C53 C 0.9926(18) 0.2458(10) 0.5840(16)
H47 H 0.9733 0.1977 0.5810
H48 H 0.9529 0.2658 0.6485
C54 C 1.068(2) 0.5273(14) 0.574(2)
H49 H 1.1012 0.5696 0.5465
H50 H 1.0012 0.5383 0.6206
C55 C 0.809(2) 0.6352(9) 0.1134(16)
H51 H 0.7535 0.6626 0.0751
C56 C 1.156(3) 0.4891(17) 0.642(2)
H52 H 1.2316 0.4962 0.6113
H53 H 1.1367 0.4414 0.6399
H54 H 1.1562 0.5047 0.7210
loop_
_geom_bond_atom_site_label_1
_geom_bond_atom_site_label_2
_geom_bond_site_symmetry_1
_geom_bond_site_symmetry_2
Br1 C4 1_555 1_555
O1 C3 1_555 1_555
O2 C3 1_555 1_555
O3 C8 1_555 1_555
O4 C8 1_555 1_555
N1 C2 1_555 1_555
N2 C1 1_555 1_555
C1 C5 1_555 1_555
C2 C6 1_555 1_555
C3 C7 1_555 1_555
C4 C12 1_555 1_555
C5 H1 1_555 1_555
C6 H2 1_555 1_555
C7 N1 1_555 1_555
C8 C16 1_555 1_555
C9 C2 1_555 1_555
H3 C9 1_555 1_555
C10 C11 1_555 1_555
C11 H4 1_555 1_555
C12 C11 1_555 1_555
H5 C12 1_555 1_555
C13 C1 1_555 1_555
H6 C13 1_555 1_555
C14 C10 1_555 1_555
H7 C14 1_555 1_555
C15 C4 1_555 1_555
H8 C15 1_555 1_555
C16 C7 1_555 1_555
C17 N1 1_555 1_555
H9 C17 1_555 1_555
C18 C6 1_555 1_555
H10 C18 1_555 1_555
C19 C9 1_555 1_555
H11 C19 1_555 1_555
C20 N2 1_555 1_555
H12 C20 1_555 1_555
H13 C20 1_555 1_555
C21 C5 1_555 1_555
H14 C21 1_555 1_555
C22 C18 1_555 1_555
H15 C22 1_555 1_555
C23 O4 1_555 1_555
H16 C23 1_555 1_555
H17 C23 1_555 1_555
C24 O1 1_555 1_555
H18 C24 1_555 1_555
H19 C24 1_555 1_555
C25 C23 1_555 1_555
H20 C25 1_555 1_555
H21 C25 1_555 1_555
H22 C25 1_555 1_555
C26 C21 1_555 1_555
H23 C26 1_555 1_555
C27 C13 1_555 1_555
H24 C27 1_555 1_555
C28 C24 1_555 1_555
H25 C28 1_555 1_555
H26 C28 1_555 1_555
H27 C28 1_555 1_555
Br2 C34 1_555 1_555
O5 C49 1_555 1_555
O6 C36 1_555 1_555
O7 C36 1_555 1_555
O8 C49 1_555 1_555
N3 C29 1_555 1_555
N4 C29 1_555 1_555
C29 H28 1_555 1_555
C30 C29 1_555 1_555
C31 N4 1_555 1_555
C32 H29 1_555 1_555
C33 C30 1_555 1_555
H30 C33 1_555 1_555
C34 C32 1_555 1_555
C35 N3 1_555 1_555
C36 C41 1_555 1_555
C37 N3 1_555 1_555
H31 C37 1_555 1_555
H32 C37 1_555 1_555
C38 C35 1_555 1_555
H33 C38 1_555 1_555
C39 C30 1_555 1_555
H34 C39 1_555 1_555
C40 C37 1_555 1_555
C41 N4 1_555 1_555
C42 C31 1_555 1_555
H35 C42 1_555 1_555
C43 C38 1_555 1_555
H36 C43 1_555 1_555
C44 H37 1_555 1_555
C45 H38 1_555 1_555
C46 C43 1_555 1_555
H39 C46 1_555 1_555
C47 C42 1_555 1_555
H40 C47 1_555 1_555
C48 C31 1_555 1_555
H41 C48 1_555 1_555
C49 C40 1_555 1_555
C50 C35 1_555 1_555
H42 C50 1_555 1_555
C51 C34 1_555 1_555
H43 C51 1_555 1_555
C52 H44 1_555 1_555
H45 C52 1_555 1_555
H46 C52 1_555 1_555
C53 O5 1_555 1_555
H47 C53 1_555 1_555
H48 C53 1_555 1_555
C54 O6 1_555 1_555
H49 C54 1_555 1_555
H50 C54 1_555 1_555
C55 C45 1_555 1_555
H51 C55 1_555 1_555
C56 C54 1_555 1_555
H52 C56 1_555 1_555
H53 C56 1_555 1_555
H54 C56 1_555 1_555
N2 C17 1_555 1_555
C10 C17 1_555 1_555
C14 C15 1_555 1_555
C16 C20 1_555 1_555
C19 C22 1_555 1_555
C26 C27 1_555 1_555
C32 C33 1_555 1_555
C39 C51 1_555 1_555
C40 C41 1_555 1_555
C44 C46 1_555 1_555
C44 C50 1_555 1_555
C45 C47 1_555 1_555
C48 C55 1_555 1_555
C52 C53 1_555 1_555

#END
