
#######################################################################
#
#                 Cambridge Crystallographic Data Centre
#                                CCDC 
#
#######################################################################
#
# If this CIF has been generated from an entry in the Cambridge 
# Structural Database, then it will include bibliographic, chemical, 
# crystal, experimental, refinement or atomic coordinate data resulting 
# from the CCDC's data processing and validation procedures.
#
#######################################################################

data_DIVGAT
_chemical_formula_moiety         'C28 H27 Br1 N2 O4'
_chemical_name_systematic        
'(+-)-diethyl 2-(4-bromophenyl)-1,2,3,6-tetrahydro-1,3-diphenylpyrimidine-4,5-dicarboxylate'
_symmetry_cell_setting           monoclinic
_symmetry_space_group_name_H-M   'P 21/c'
_symmetry_Int_Tables_number      14
_space_group_name_Hall           '-P 2ybc'
loop_
_symmetry_equiv_pos_site_id
_symmetry_equiv_pos_as_xyz
1 x,y,z
2 -x,1/2+y,1/2-z
3 -x,-y,-z
4 x,1/2-y,1/2+z
_cell_length_a                   11.401(5)
_cell_length_b                   11.654(8)
_cell_length_c                   19.628(4)
_cell_angle_alpha                90
_cell_angle_beta                 96.697(6)
_cell_angle_gamma                90
_cell_volume                     2590.12
_exptl_crystal_colour            colorless
_exptl_crystal_description       'fine and long stick'
_chemical_melting_point          '434.4-435.2 K'
_cell_formula_units_Z            4
_exptl_crystal_recrystallization_method dichloromethane/cyclohexane
_exptl_crystal_preparation       ', Luminescent'
loop_
_atom_site_label
_atom_site_type_symbol
_atom_site_fract_x
_atom_site_fract_y
_atom_site_fract_z
Br1 Br 0.00897(5) 0.12858(6) 0.11089(4)
O1 O 0.6909(3) 0.2343(3) 0.0340(2)
O2 O 0.6924(3) 0.3257(3) 0.13420(18)
O3 O 0.8154(3) 0.2075(3) 0.24241(16)
O4 O 0.6473(3) 0.2285(3) 0.29048(18)
N1 N 0.5704(3) -0.0735(3) 0.10622(17)
N2 N 0.5978(3) 0.0091(3) 0.21971(17)
C1 C 0.8259(5) -0.3316(6) 0.1034(3)
H1 H 0.8817 -0.3895 0.1020
C2 C 0.8535(5) -0.2226(6) 0.0883(3)
H2 H 0.9281 -0.2062 0.0762
C3 C 0.7717(4) -0.1341(5) 0.0906(2)
H3 H 0.7927 -0.0592 0.0812
C4 C 0.6595(4) -0.1576(4) 0.1069(2)
C5 C 0.6318(5) -0.2707(5) 0.1219(2)
H4 H 0.5566 -0.2884 0.1328
C6 C 0.7157(5) -0.3571(5) 0.1208(3)
H5 H 0.6971 -0.4320 0.1318
C7 C 0.5183(4) -0.0582(4) 0.1703(2)
H6 H 0.5090 -0.1343 0.1902
C8 C 0.3968(4) -0.0048(4) 0.1562(2)
C9 C 0.3546(4) 0.0788(4) 0.1960(2)
H7 H 0.4043 0.1093 0.2325
C10 C 0.2401(4) 0.1190(4) 0.1835(3)
H8 H 0.2128 0.1748 0.2116
C11 C 0.1669(4) 0.0754(4) 0.1288(3)
C12 C 0.2062(4) -0.0065(4) 0.0873(2)
H9 H 0.1568 -0.0346 0.0499
C13 C 0.3201(4) -0.0470(4) 0.1015(2)
H10 H 0.3464 -0.1040 0.0738
C14 C 0.6425(4) -0.0403(4) 0.2839(2)
C15 C 0.7622(4) -0.0449(4) 0.3042(2)
H11 H 0.8152 -0.0169 0.2757
C16 C 0.8033(5) -0.0916(5) 0.3678(3)
H12 H 0.8840 -0.0936 0.3818
C17 C 0.7275(5) -0.1341(5) 0.4094(3)
H13 H 0.7563 -0.1646 0.4519
C18 C 0.6086(5) -0.1326(5) 0.3892(3)
H14 H 0.5568 -0.1630 0.4178
C19 C 0.5642(5) -0.0855(4) 0.3258(3)
H15 H 0.4834 -0.0846 0.3119
C20 C 0.5881(4) 0.0389(4) 0.0748(2)
H16 H 0.5125 0.0679 0.0541
H17 H 0.6385 0.0295 0.0387
C21 C 0.6437(4) 0.1262(4) 0.1264(2)
C22 C 0.6786(4) 0.2377(5) 0.1011(3)
C23 C 0.7151(6) 0.3416(5) 0.0000(3)
H18 H 0.6755 0.3421 -0.0465
H19 H 0.6864 0.4061 0.0246
C24 C 0.8383(7) 0.3503(6) -0.0008(4)
H20 H 0.8761 0.3573 0.0453
H21 H 0.8559 0.4167 -0.0268
H22 H 0.8669 0.2828 -0.0216
C25 C 0.6502(4) 0.1035(4) 0.1944(2)
C26 C 0.7030(5) 0.1870(4) 0.2479(3)
C27 C 0.8688(5) 0.3015(6) 0.2845(3)
H23 H 0.8078 0.3553 0.2939
H24 H 0.9049 0.2712 0.3280
C28 C 0.9557(6) 0.3601(6) 0.2515(3)
H25 H 1.0164 0.3071 0.2423
H26 H 0.9897 0.4204 0.2807
H27 H 0.9197 0.3923 0.2091
loop_
_geom_bond_atom_site_label_1
_geom_bond_atom_site_label_2
_geom_bond_site_symmetry_1
_geom_bond_site_symmetry_2
Br1 C11 1_555 1_555
O1 C22 1_555 1_555
O2 C22 1_555 1_555
O3 C26 1_555 1_555
O4 C26 1_555 1_555
N1 C4 1_555 1_555
N2 C7 1_555 1_555
C1 H1 1_555 1_555
C2 C1 1_555 1_555
H2 C2 1_555 1_555
C3 C2 1_555 1_555
H3 C3 1_555 1_555
C4 C3 1_555 1_555
C5 C4 1_555 1_555
H4 C5 1_555 1_555
C6 C1 1_555 1_555
H5 C6 1_555 1_555
C7 N1 1_555 1_555
H6 C7 1_555 1_555
C8 C7 1_555 1_555
C9 C8 1_555 1_555
H7 C9 1_555 1_555
C10 C9 1_555 1_555
H8 C10 1_555 1_555
C11 C10 1_555 1_555
C12 C11 1_555 1_555
H9 C12 1_555 1_555
C13 C8 1_555 1_555
H10 C13 1_555 1_555
C14 N2 1_555 1_555
C15 C14 1_555 1_555
H11 C15 1_555 1_555
C16 C15 1_555 1_555
H12 C16 1_555 1_555
C17 C16 1_555 1_555
H13 C17 1_555 1_555
C18 C17 1_555 1_555
H14 C18 1_555 1_555
C19 C14 1_555 1_555
H15 C19 1_555 1_555
C20 N1 1_555 1_555
H16 C20 1_555 1_555
H17 C20 1_555 1_555
C21 C20 1_555 1_555
C22 C21 1_555 1_555
C23 O1 1_555 1_555
H18 C23 1_555 1_555
H19 C23 1_555 1_555
C24 C23 1_555 1_555
H20 C24 1_555 1_555
H21 C24 1_555 1_555
H22 C24 1_555 1_555
C25 N2 1_555 1_555
C26 C25 1_555 1_555
C27 O3 1_555 1_555
H23 C27 1_555 1_555
H24 C27 1_555 1_555
C28 C27 1_555 1_555
H25 C28 1_555 1_555
H26 C28 1_555 1_555
H27 C28 1_555 1_555
C5 C6 1_555 1_555
C12 C13 1_555 1_555
C18 C19 1_555 1_555
C21 C25 1_555 1_555

#END
