
#######################################################################
#
#                 Cambridge Crystallographic Data Centre
#                                CCDC 
#
#######################################################################
#
# If this CIF has been generated from an entry in the Cambridge 
# Structural Database, then it will include bibliographic, chemical, 
# crystal, experimental, refinement or atomic coordinate data resulting 
# from the CCDC's data processing and validation procedures.
#
#######################################################################

data_DIVTOU
_chemical_formula_moiety         'C76 H72 N8 O8 S4,C1 H2 Cl2'
_chemical_name_systematic        
'(17s,18s,19s,20s)-17,18,19,20-tetra-n-hexyl-2,4,6,8,10,12,14,16-octaoxa-3,7,11,15(5,6)-tetrakis(2,1,3-benzothiadiazola)-1,5,9,13(1,5,2,4)-tetrabenzenapentacyclo[11.3.1.1^1,5^.1^5,9^.1^9,13^]icosaphane dichloromethane solvate'
_symmetry_cell_setting           triclinic
_symmetry_space_group_name_H-M   'P -1'
_symmetry_Int_Tables_number      2
_space_group_name_Hall           '-P 1'
loop_
_symmetry_equiv_pos_site_id
_symmetry_equiv_pos_as_xyz
1 x,y,z
2 -x,-y,-z
_cell_length_a                   13.1834(5)
_cell_length_b                   13.4817(6)
_cell_length_c                   19.3858(7)
_cell_angle_alpha                80.284(4)
_cell_angle_beta                 84.607(3)
_cell_angle_gamma                84.716(3)
_cell_volume                     3370.86
_exptl_crystal_colour            colorless
_exptl_crystal_description       plank
_cell_formula_units_Z            2
_exptl_crystal_recrystallization_method 
'Re-crystallisation from solvent: Dichloromethane/methanol'
loop_
_atom_site_label
_atom_site_type_symbol
_atom_site_fract_x
_atom_site_fract_y
_atom_site_fract_z
S1 S 0.31186(16) 0.10583(12) 0.50134(9)
S2 S 0.62493(13) 0.43979(16) 0.57781(10)
S3 S 0.17347(14) 0.72372(13) 0.70684(9)
S4 S -0.13602(12) 0.39817(11) 0.61798(8)
O1 O 0.1938(3) 0.3464(3) 0.2256(2)
O2 O 0.3977(3) 0.3595(3) 0.2181(2)
O3 O 0.6192(3) 0.5974(3) 0.2681(2)
O4 O 0.5798(3) 0.7670(3) 0.3272(2)
O5 O 0.2740(3) 0.9427(3) 0.4151(2)
O6 O 0.0694(3) 0.9454(3) 0.4221(2)
O7 O -0.1510(3) 0.7153(3) 0.35906(19)
O8 O -0.1071(3) 0.5404(3) 0.3056(2)
N1 N 0.2153(4) 0.1473(4) 0.4568(3)
N2 N 0.4037(4) 0.1523(4) 0.4487(3)
N3 N 0.6441(4) 0.4051(5) 0.5015(3)
N4 N 0.6014(4) 0.5595(5) 0.5563(3)
N5 N 0.2683(4) 0.7477(4) 0.6500(3)
N6 N 0.0787(4) 0.7724(4) 0.6620(3)
N7 N -0.1539(3) 0.5186(3) 0.5925(3)
N8 N -0.1125(4) 0.3592(4) 0.5440(3)
C1 C 0.2007(6) 0.4705(7) -0.1526(4)
H1 H 0.218855 0.503510 -0.199437
H2 H 0.135611 0.499523 -0.135928
H3 H 0.196550 0.399843 -0.152752
C2 C 0.2811(5) 0.4843(6) -0.1048(4)
H4 H 0.263450 0.449202 -0.057898
H5 H 0.346525 0.454248 -0.121586
C3 C 0.2908(5) 0.5937(5) -0.1017(4)
H6 H 0.226064 0.622711 -0.083005
H7 H 0.304951 0.629209 -0.149015
C4 C 0.3747(5) 0.6097(5) -0.0567(3)
H8 H 0.440029 0.590027 -0.079884
H9 H 0.373331 0.681365 -0.055032
C5 C 0.3691(4) 0.5535(5) 0.0182(3)
H10 H 0.426452 0.569800 0.040920
H11 H 0.377282 0.481684 0.016535
C6 C 0.2717(4) 0.5750(4) 0.0635(3)
H12 H 0.213641 0.558381 0.041637
H13 H 0.263173 0.646428 0.066398
C7 C 0.4826(16) 0.853(2) -0.1646(14)
H14 H 0.477616 0.896751 -0.208940
H15 H 0.432490 0.876609 -0.130548
H16 H 0.470577 0.785700 -0.169652
C8 C 0.5890(13) 0.8539(11) -0.1402(6)
H17 H 0.602214 0.923130 -0.138962
H18 H 0.638691 0.828716 -0.174570
C9 C 0.6055(14) 0.7908(10) -0.0678(7)
H19 H 0.586961 0.722718 -0.067224
H20 H 0.677273 0.787093 -0.059498
C10 C 0.5428(10) 0.8354(10) -0.0097(5)
H21 H 0.471163 0.831385 -0.015733
H22 H 0.554633 0.906354 -0.015281
C11 C 0.5630(5) 0.7867(5) 0.0658(3)
H23 H 0.555936 0.714775 0.070585
H24 H 0.633238 0.795137 0.073130
C12 C 0.4939(4) 0.8277(5) 0.1233(3)
H25 H 0.423672 0.830776 0.111613
H26 H 0.510127 0.896176 0.124439
C13 C 0.0805(6) 1.3846(6) 0.0433(4)
H27 H 0.084815 1.421390 -0.003634
H28 H 0.145695 1.350078 0.053419
H29 H 0.061115 1.430612 0.075905
C14 C 0.0024(5) 1.3095(5) 0.0500(4)
H30 H 0.019502 1.266896 0.014342
H31 H -0.063648 1.345182 0.041311
C15 C -0.0061(5) 1.2421(5) 0.1226(3)
H32 H -0.014631 1.284671 0.158743
H33 H -0.066370 1.204791 0.126533
C16 C 0.0866(5) 1.1684(5) 0.1352(3)
H34 H 0.146477 1.206284 0.131618
H35 H 0.095655 1.127246 0.098215
C17 C 0.0810(5) 1.0989(4) 0.2059(3)
H36 H 0.022604 1.058930 0.209359
H37 H 0.071212 1.139267 0.243257
C18 C 0.1781(5) 1.0286(5) 0.2151(3)
H38 H 0.183473 0.983763 0.180430
H39 H 0.236676 1.068785 0.205850
C19 C -0.2110(15) 1.0949(15) -0.0482(8)
H40 H -0.274150 1.063212 -0.043577
H41 H -0.155465 1.047578 -0.059406
H42 H -0.213441 1.152199 -0.085103
C20 C -0.1957(11) 1.1285(9) 0.0187(7)
H43 H -0.245792 1.183795 0.026205
H44 H -0.128308 1.153198 0.015749
C21 C -0.2058(12) 1.0427(10) 0.0811(8)
H45 H -0.273130 1.018320 0.083379
H46 H -0.200875 1.069639 0.123926
C22 C -0.1255(12) 0.9531(9) 0.0785(6)
H47 H -0.057762 0.977136 0.074537
H48 H -0.132271 0.923344 0.037086
C23 C -0.1375(5) 0.8703(5) 0.1456(3)
H49 H -0.135857 0.901737 0.186883
H50 H -0.203856 0.843786 0.147589
C24 C -0.0547(5) 0.7823(5) 0.1478(3)
H51 H -0.068749 0.738417 0.115578
H52 H 0.011110 0.808598 0.132287
C25 C 0.1716(4) 0.5237(4) 0.1822(3)
C26 C -0.1119(4) 0.5341(5) 0.3777(3)
C27 C -0.1364(4) 0.6258(4) 0.4059(3)
C28 C 0.4416(5) 0.8140(4) 0.2543(3)
C29 C -0.0369(5) 0.8262(4) 0.3904(3)
H53 H -0.071963 0.821145 0.434626
C30 C -0.1171(4) 0.4420(4) 0.4942(3)
C31 C 0.1095(4) 0.6134(4) 0.1811(3)
H54 H 0.130639 0.670449 0.151128
C32 C 0.3896(4) 0.6337(4) 0.1726(3)
H55 H 0.350023 0.686145 0.148031
C33 C -0.1415(4) 0.5323(4) 0.5212(3)
C34 C -0.0107(4) 0.5358(5) 0.2668(3)
C35 C 0.4186(5) 0.4601(4) 0.2164(3)
C36 C 0.4734(4) 0.6580(4) 0.2030(3)
C37 C 0.1375(5) 0.4406(4) 0.2270(3)
C38 C 0.3613(4) 0.5366(5) 0.1767(3)
C39 C 0.0957(5) 0.8959(4) 0.3076(3)
C40 C -0.0650(5) 0.7735(4) 0.3414(3)
C41 C 0.0441(5) 0.8870(4) 0.3734(3)
C42 C 0.5020(4) 0.4802(5) 0.2481(3)
H56 H 0.540024 0.427833 0.274105
C43 C 0.0175(4) 0.6224(4) 0.2222(3)
C44 C -0.0169(5) 0.7785(4) 0.2751(3)
C45 C -0.1519(4) 0.6263(4) 0.4756(3)
H57 H -0.168794 0.686243 0.493227
C46 C 0.6173(4) 0.5876(5) 0.3411(3)
C47 C 0.3530(5) 0.3078(4) 0.2804(3)
C48 C 0.2434(5) 0.3021(4) 0.2843(3)
C49 C 0.0467(4) 0.4454(4) 0.2687(3)
H58 H 0.024849 0.387952 0.297822
C50 C 0.2290(5) 0.8877(4) 0.4748(3)
C51 C 0.2733(4) 0.5145(4) 0.1376(3)
H59 H 0.285133 0.443406 0.131938
C52 C 0.2862(5) 0.9059(4) 0.2987(3)
C53 C 0.0647(4) 0.8411(4) 0.2598(3)
H60 H 0.099627 0.845950 0.215537
C54 C 0.5943(4) 0.6753(5) 0.3725(4)
C55 C 0.3273(5) 0.8939(4) 0.3635(3)
C56 C -0.0495(4) 0.7209(4) 0.2212(3)
H61 H -0.119034 0.702315 0.237026
C57 C 0.4780(5) 0.8073(4) 0.3194(3)
C58 C 0.4236(5) 0.8467(4) 0.3738(3)
H62 H 0.451069 0.841670 0.416804
C59 C 0.1178(5) 0.8954(4) 0.4801(3)
C60 C 0.5025(5) 0.7661(4) 0.1963(3)
H63 H 0.574584 0.762151 0.205977
C61 C 0.3446(5) 0.8642(4) 0.2455(3)
H64 H 0.317901 0.869835 0.202162
C62 C 0.5293(4) 0.5790(5) 0.2412(3)
C63 C 0.1188(6) 0.8112(5) 0.5976(3)
C64 C 0.1822(4) 0.9654(4) 0.2874(3)
H65 H 0.173871 1.013198 0.320825
C65 C -0.1022(4) 0.4439(5) 0.4204(3)
H66 H -0.086171 0.384586 0.401835
C66 C 0.2275(6) 0.7978(5) 0.5910(4)
C67 C 0.3602(6) 0.2042(4) 0.3913(3)
C68 C 0.6321(5) 0.4903(6) 0.4537(4)
C69 C 0.2529(6) 0.2000(4) 0.3958(3)
C70 C 0.6382(5) 0.4957(6) 0.3808(4)
H67 H 0.656006 0.438488 0.360078
C71 C 0.0641(5) 0.8606(4) 0.5406(3)
H68 H -0.006868 0.868816 0.544682
C72 C 0.1946(5) 0.2480(4) 0.3406(3)
H69 H 0.124509 0.242492 0.342788
C73 C 0.4104(5) 0.2594(4) 0.3316(3)
H70 H 0.480957 0.262271 0.327717
C74 C 0.2815(5) 0.8394(5) 0.5274(3)
H71 H 0.352516 0.832866 0.522608
C75 C 0.6074(5) 0.5769(6) 0.4848(4)
C76 C 0.5907(4) 0.6716(5) 0.4435(4)
H72 H 0.577562 0.729869 0.463692
Cl1 Cl 0.58959(17) 1.03611(16) 0.34591(13)
Cl2 Cl 0.80591(16) 1.01901(16) 0.30002(13)
C85 C 0.6900(7) 0.9746(7) 0.2980(5)
H95 H 0.694125 0.903088 0.316729
H96 H 0.673821 0.982197 0.249475
H73? H 0.532683 0.732314 0.050097
H74? H 0.629249 0.761598 0.082265
H75? H -0.114656 0.923247 0.167231
H76? H -0.199339 0.847194 0.172163
C77? C 0.5733(17) 0.8789(14) 0.0051(8)
H77? H 0.506337 0.901021 -0.011308
H78? H 0.597745 0.934218 0.023364
C78? C 0.6454(15) 0.8543(18) -0.0562(8)
H79? H 0.706026 0.815966 -0.038373
H80? H 0.666491 0.916779 -0.084168
C79? C 0.5981(18) 0.794(2) -0.1028(18)
H81? H 0.570066 0.736263 -0.073235
H82? H 0.652288 0.769102 -0.134244
C80? C 0.514(3) 0.850(3) -0.147(2)
H83? H 0.544332 0.888647 -0.189006
H84? H 0.471581 0.894112 -0.120748
H85? H 0.472947 0.801603 -0.160244
C81? C -0.1610(15) 0.9132(14) 0.0692(8)
H86? H -0.099769 0.937407 0.042405
H87? H -0.184092 0.860704 0.047173
C82? C -0.2439(16) 0.9996(15) 0.0702(9)
H88? H -0.307202 0.972706 0.091708
H89? H -0.224597 1.046042 0.098897
C83? C -0.2621(11) 1.0570(12) -0.0024(8)
H90? H -0.323556 1.101889 0.001225
H91? H -0.274691 1.008976 -0.032060
C84? C -0.176(2) 1.119(2) -0.0383(13)
H92? H -0.163578 1.168121 -0.010140
H93? H -0.194220 1.152543 -0.083558
H94? H -0.114858 1.075141 -0.043765
loop_
_geom_bond_atom_site_label_1
_geom_bond_atom_site_label_2
_geom_bond_site_symmetry_1
_geom_bond_site_symmetry_2
S1 N1 1_555 1_555
S2 N3 1_555 1_555
S3 N5 1_555 1_555
S4 N7 1_555 1_555
O1 C37 1_555 1_555
O2 C35 1_555 1_555
O3 C46 1_555 1_555
O4 C54 1_555 1_555
O5 C50 1_555 1_555
O6 C41 1_555 1_555
O7 C27 1_555 1_555
O8 C26 1_555 1_555
N1 C69 1_555 1_555
N2 S1 1_555 1_555
N3 C68 1_555 1_555
N4 S2 1_555 1_555
N5 C66 1_555 1_555
N6 S3 1_555 1_555
N7 C33 1_555 1_555
N8 S4 1_555 1_555
C1 H1 1_555 1_555
H2 C1 1_555 1_555
H3 C1 1_555 1_555
C2 C1 1_555 1_555
H4 C2 1_555 1_555
H5 C2 1_555 1_555
C3 C2 1_555 1_555
H6 C3 1_555 1_555
H7 C3 1_555 1_555
C4 C3 1_555 1_555
H8 C4 1_555 1_555
H9 C4 1_555 1_555
C5 C4 1_555 1_555
H10 C5 1_555 1_555
H11 C5 1_555 1_555
C6 C5 1_555 1_555
H12 C6 1_555 1_555
H13 C6 1_555 1_555
C7 H14 1_555 1_555
H15 C7 1_555 1_555
H16 C7 1_555 1_555
C8 C7 1_555 1_555
H17 C8 1_555 1_555
H18 C8 1_555 1_555
C9 C8 1_555 1_555
H19 C9 1_555 1_555
H20 C9 1_555 1_555
C10 C9 1_555 1_555
H21 C10 1_555 1_555
H22 C10 1_555 1_555
C11 C10 1_555 1_555
H23 C11 1_555 1_555
H24 C11 1_555 1_555
C12 C11 1_555 1_555
H25 C12 1_555 1_555
H26 C12 1_555 1_555
C13 H27 1_555 1_555
H28 C13 1_555 1_555
H29 C13 1_555 1_555
C14 C13 1_555 1_555
H30 C14 1_555 1_555
H31 C14 1_555 1_555
C15 C14 1_555 1_555
H32 C15 1_555 1_555
H33 C15 1_555 1_555
C16 C15 1_555 1_555
H34 C16 1_555 1_555
H35 C16 1_555 1_555
C17 C16 1_555 1_555
H36 C17 1_555 1_555
H37 C17 1_555 1_555
C18 C17 1_555 1_555
H38 C18 1_555 1_555
H39 C18 1_555 1_555
C19 H40 1_555 1_555
H41 C19 1_555 1_555
H42 C19 1_555 1_555
C20 C19 1_555 1_555
H43 C20 1_555 1_555
H44 C20 1_555 1_555
C21 C20 1_555 1_555
H45 C21 1_555 1_555
H46 C21 1_555 1_555
C22 C21 1_555 1_555
H47 C22 1_555 1_555
H48 C22 1_555 1_555
C23 C22 1_555 1_555
H49 C23 1_555 1_555
H50 C23 1_555 1_555
C24 C23 1_555 1_555
H51 C24 1_555 1_555
H52 C24 1_555 1_555
C25 C31 1_555 1_555
C26 C27 1_555 1_555
C27 C45 1_555 1_555
C28 C57 1_555 1_555
C29 H53 1_555 1_555
C30 N8 1_555 1_555
C31 H54 1_555 1_555
C32 H55 1_555 1_555
C33 C30 1_555 1_555
C34 O8 1_555 1_555
C35 C38 1_555 1_555
C36 C32 1_555 1_555
C37 C25 1_555 1_555
C38 C32 1_555 1_555
C39 C41 1_555 1_555
C40 O7 1_555 1_555
C41 C29 1_555 1_555
C42 C35 1_555 1_555
H56 C42 1_555 1_555
C43 C31 1_555 1_555
C44 C40 1_555 1_555
C45 C33 1_555 1_555
H57 C45 1_555 1_555
C46 C54 1_555 1_555
C47 O2 1_555 1_555
C48 O1 1_555 1_555
C49 C34 1_555 1_555
H58 C49 1_555 1_555
C50 C59 1_555 1_555
C51 C6 1_555 1_555
H59 C51 1_555 1_555
C52 C55 1_555 1_555
C53 C39 1_555 1_555
H60 C53 1_555 1_555
C54 C76 1_555 1_555
C55 O5 1_555 1_555
C56 C24 1_555 1_555
H61 C56 1_555 1_555
C57 O4 1_555 1_555
C58 C55 1_555 1_555
H62 C58 1_555 1_555
C59 O6 1_555 1_555
C60 C12 1_555 1_555
H63 C60 1_555 1_555
C61 C28 1_555 1_555
H64 C61 1_555 1_555
C62 O3 1_555 1_555
C63 N6 1_555 1_555
C64 C18 1_555 1_555
H65 C64 1_555 1_555
C65 C26 1_555 1_555
H66 C65 1_555 1_555
C66 C63 1_555 1_555
C67 N2 1_555 1_555
C68 C70 1_555 1_555
C69 C67 1_555 1_555
C70 C46 1_555 1_555
H67 C70 1_555 1_555
C71 C59 1_555 1_555
H68 C71 1_555 1_555
C72 C48 1_555 1_555
H69 C72 1_555 1_555
C73 C47 1_555 1_555
H70 C73 1_555 1_555
C74 C50 1_555 1_555
H71 C74 1_555 1_555
C75 N4 1_555 1_555
C76 C75 1_555 1_555
H72 C76 1_555 1_555
Cl1 C85 1_555 1_555
Cl2 C85 1_555 1_555
C85 H95 1_555 1_555
H96 C85 1_555 1_555
C25 C51 1_555 1_555
C28 C60 1_555 1_555
C29 C40 1_555 1_555
C30 C65 1_555 1_555
C34 C43 1_555 1_555
C36 C60 1_555 1_555
C36 C62 1_555 1_555
C37 C49 1_555 1_555
C38 C51 1_555 1_555
C39 C64 1_555 1_555
C42 C62 1_555 1_555
C43 C56 1_555 1_555
C44 C53 1_555 1_555
C44 C56 1_555 1_555
C47 C48 1_555 1_555
C52 C61 1_555 1_555
C52 C64 1_555 1_555
C57 C58 1_555 1_555
C63 C71 1_555 1_555
C66 C74 1_555 1_555
C67 C73 1_555 1_555
C68 C75 1_555 1_555
C69 C72 1_555 1_555

#END
