
#######################################################################
#
#                 Cambridge Crystallographic Data Centre
#                                CCDC 
#
#######################################################################
#
# If this CIF has been generated from an entry in the Cambridge 
# Structural Database, then it will include bibliographic, chemical, 
# crystal, experimental, refinement or atomic coordinate data resulting 
# from the CCDC's data processing and validation procedures.
#
#######################################################################

data_DIVZUG
_chemical_formula_moiety         'C76 H72 N8 O8 S4,2(C7 H8)'
_chemical_name_systematic        
'(17s,18s,19s,20s)-17,18,19,20-tetra-n-hexyl-2,4,6,8,10,12,14,16-octaoxa-3,7,11,15(5,6)-tetrakis(2,1,3-benzothiadiazola)-1,5,9,13(1,5,2,4)-tetrabenzenapentacyclo[11.3.1.11,5.15,9.19,13]icosaphane toluene solvate'
_symmetry_cell_setting           triclinic
_symmetry_space_group_name_H-M   'P -1'
_symmetry_Int_Tables_number      2
_space_group_name_Hall           '-P 1'
loop_
_symmetry_equiv_pos_site_id
_symmetry_equiv_pos_as_xyz
1 x,y,z
2 -x,-y,-z
_cell_length_a                   12.6271(2)
_cell_length_b                   12.8923(2)
_cell_length_c                   23.5312(3)
_cell_angle_alpha                85.9340(10)
_cell_angle_beta                 86.3730(10)
_cell_angle_gamma                86.7660(10)
_cell_volume                     3808.21
_exptl_crystal_colour            colorless
_exptl_crystal_description       plank
_cell_formula_units_Z            2
_exptl_crystal_recrystallization_method toluene/tetrahydrofuran
loop_
_atom_site_label
_atom_site_type_symbol
_atom_site_fract_x
_atom_site_fract_y
_atom_site_fract_z
S1 S 0.91834(7) 0.85997(5) 1.03224(3)
S2 S 0.73884(5) 0.58699(5) 1.08223(2)
S3 S 0.24085(5) 0.88332(4) 0.99592(2)
S4 S 0.52869(5) 1.23643(5) 0.92826(3)
O1 O 0.86664(12) 0.39286(11) 0.86062(6)
O2 O 1.08720(12) 0.68013(12) 0.81266(6)
O3 O 1.02785(12) 0.87515(12) 0.77817(6)
O4 O 0.35428(12) 0.62275(12) 0.79589(6)
O5 O 0.30329(12) 0.80842(12) 0.74489(6)
O6 O 0.65626(12) 0.41004(11) 0.85913(6)
O7 O 0.52977(13) 1.08906(12) 0.69013(7)
O8 O 0.73675(13) 1.09410(12) 0.70739(7)
N1 N 0.9059(2) 0.93417(17) 0.97431(9)
N2 N 0.98284(19) 0.75883(16) 1.00758(9)
N3 N 0.83954(16) 0.53348(15) 1.04720(8)
N4 N 0.64460(16) 0.57048(16) 1.04046(8)
N5 N 0.29528(17) 0.77169(15) 0.97951(8)
N6 N 0.22311(17) 0.93853(15) 0.93292(9)
N7 N 0.45082(18) 1.22521(16) 0.87695(10)
N8 N 0.64168(18) 1.19639(15) 0.89940(9)
C1 C 1.0997(2) 0.5932(2) 0.63255(10)
H1 H 1.083334 0.539686 0.663667
H2 H 1.170509 0.618066 0.638778
C2 C 1.01869(19) 0.68459(18) 0.63913(9)
H3 H 0.949370 0.664297 0.627230
H4 H 1.041527 0.743780 0.612974
C3 C 0.8893(2) 0.2700(2) 0.62510(10)
H5 H 0.908332 0.326737 0.596335
H6 H 0.818199 0.248196 0.616933
C4 C 0.88137(19) 0.31377(18) 0.68387(10)
H7 H 0.944048 0.354799 0.688012
H8 H 0.881689 0.255559 0.713668
C5 C 0.78029(18) 0.38295(17) 0.69252(9)
H9 H 0.718486 0.343442 0.684579
H10 H 0.783322 0.443930 0.664529
C6 C 0.6459(2) 0.9087(3) 0.47079(11)
H11 H 0.646703 0.831668 0.473527
H12 H 0.582200 0.932257 0.449974
C7 C 0.61901(18) 0.93843(18) 0.53101(9)
H13 H 0.553750 0.904201 0.545976
H14 H 0.603750 1.014649 0.530509
C8 C 0.70763(18) 0.90816(18) 0.57120(10)
H15 H 0.775356 0.933660 0.553510
H16 H 0.715608 0.831281 0.576260
C9 C 0.5210(3) 0.6876(3) 0.39185(14)
H17 H 0.528543 0.665046 0.352826
H18 H 0.562979 0.639546 0.416817
H19 H 0.546389 0.757931 0.392275
C10 C 0.4068(3) 0.6879(3) 0.41263(12)
H20 H 0.381462 0.617132 0.410082
H21 H 0.365440 0.735873 0.386641
C11 C 0.3827(2) 0.7196(2) 0.47340(11)
H22 H 0.304794 0.721351 0.481659
H23 H 0.405918 0.791183 0.475717
C12 C 0.4351(2) 0.6489(2) 0.51951(11)
H24 H 0.513183 0.649317 0.512508
H25 H 0.413983 0.576745 0.516664
C13 C 0.4053(2) 0.68152(18) 0.57990(10)
H26 H 0.418097 0.756313 0.581407
H27 H 0.328478 0.672754 0.588616
C14 C 0.46738(19) 0.61950(17) 0.62535(9)
H28 H 0.544278 0.623686 0.614903
H29 H 0.450155 0.545465 0.625817
C15 C 0.69011(18) 0.52225(17) 0.99589(9)
C16 C 0.88809(17) 0.56904(17) 0.73070(9)
H30 H 0.857649 0.580315 0.694737
C17 C 0.80162(18) 0.50069(17) 0.99937(9)
C18 C 0.26078(18) 0.86975(17) 0.89512(10)
C19 C 0.89820(17) 0.47318(16) 0.82057(9)
C20 C 0.50737(17) 0.52244(16) 0.83019(9)
H31 H 0.474240 0.515055 0.867542
C21 C 0.86341(17) 0.45335(17) 0.95465(9)
H32 H 0.937461 0.437499 0.956999
C22 C 0.55904(18) 0.81187(17) 0.66161(9)
H33 H 0.607231 0.765437 0.642069
C23 C 0.45747(17) 0.58098(16) 0.78674(9)
C24 C 0.81119(18) 0.43180(16) 0.90819(9)
C25 C 0.33417(17) 0.70284(16) 0.83173(9)
C26 C 1.04752(18) 0.74476(17) 0.85459(9)
C27 C 1.04594(18) 0.71200(17) 0.91086(9)
H34 H 1.076748 0.645840 0.922989
C28 C 0.85145(17) 0.48750(16) 0.76823(9)
C29 C 0.63673(18) 0.49238(17) 0.94838(9)
H35 H 0.561864 0.502348 0.946594
C30 C 0.9968(2) 0.77971(18) 0.95092(10)
C31 C 0.97711(17) 0.53541(16) 0.83450(9)
H36 H 1.009017 0.522926 0.870008
C32 C 0.60223(17) 0.53918(16) 0.72039(9)
H37 H 0.634329 0.544480 0.682756
C33 C 0.9531(2) 0.88018(18) 0.93171(10)
C34 C 0.92816(18) 0.81804(17) 0.70379(9)
C35 C 0.39945(18) 0.84109(17) 0.71854(9)
C36 C 0.84514(18) 0.83964(17) 0.66721(9)
H38 H 0.833847 0.790929 0.640022
C37 C 1.00948(17) 0.61628(16) 0.79630(9)
C38 C 0.30046(17) 0.80143(17) 0.80416(9)
C39 C 0.51334(18) 0.98201(17) 0.69101(10)
C40 C 0.26232(18) 0.88308(17) 0.83464(10)
H39 H 0.237587 0.946829 0.816009
C41 C 0.46702(17) 0.77135(17) 0.68889(9)
C42 C 0.94179(17) 0.89072(17) 0.74332(9)
C43 C 0.77836(18) 0.92949(17) 0.66893(10)
C44 C 0.33640(18) 0.68854(17) 0.88940(9)
H40 H 0.360865 0.623883 0.907142
C45 C 0.60644(17) 0.47515(16) 0.81780(9)
C46 C 1.00333(18) 0.72126(17) 0.70012(9)
H41 H 1.074329 0.740814 0.711215
C47 C 0.87928(18) 0.98273(17) 0.74530(10)
H42 H 0.892420 1.032974 0.771299
C48 C 0.58467(18) 0.91541(17) 0.66117(9)
C49 C 0.79746(18) 0.99990(17) 0.70870(10)
C50 C 0.96657(17) 0.63445(16) 0.74314(9)
C51 C 0.65576(17) 0.48001(16) 0.76308(9)
C52 C 0.69820(18) 0.44889(16) 0.90572(9)
C53 C 0.42160(18) 0.94525(17) 0.71953(10)
H43 H 0.374086 0.991392 0.739690
C54 C 0.68671(18) 0.95231(17) 0.62987(10)
H44 H 0.677802 1.029708 0.623307
C55 C 0.30101(18) 0.77326(17) 0.92226(10)
C56 C 1.00829(18) 0.84801(17) 0.83565(9)
C57 C 0.76306(17) 0.42154(17) 0.75253(9)
H45 H 0.763696 0.358303 0.779720
C58 C 0.50325(18) 0.59071(16) 0.73122(9)
C59 C 0.66742(19) 1.11669(16) 0.75337(10)
C60 C 0.44437(18) 0.65715(17) 0.68559(9)
H46 H 0.366651 0.650720 0.695252
C61 C 0.9619(2) 0.91450(18) 0.87314(10)
H47 H 0.935904 0.982250 0.860444
C62 C 0.55655(19) 1.12202(17) 0.74230(10)
C63 C 0.6226(2) 1.17279(17) 0.84634(11)
C64 C 0.7010(2) 1.14033(17) 0.80434(11)
H48 H 0.774284 1.135353 0.811692
C65 C 0.5140(2) 1.18780(17) 0.83355(11)
C66 C 0.4804(2) 1.16015(18) 0.78015(11)
H49 H 0.407939 1.167980 0.771304
C67 C 1.2195(5) 0.4415(6) 0.4652(2)
H50 H 1.210772 0.401663 0.432037
H51 H 1.295339 0.448977 0.469559
H52 H 1.183637 0.510534 0.459780
C68 C 1.1710(5) 0.3842(4) 0.5187(2)
H53 H 1.207281 0.314319 0.523366
H54 H 1.095301 0.374325 0.513016
C69 C 1.1777(5) 0.4391(5) 0.5739(2)
H55 H 1.155985 0.390903 0.606703
H56 H 1.252490 0.455027 0.577958
C70 C 1.1085(5) 0.5396(5) 0.5763(2)
H57 H 1.035889 0.524326 0.566814
H58 H 1.136182 0.589766 0.545908
C71 C 0.9636(5) 0.1664(4) 0.5090(2)
H59 H 0.952375 0.118941 0.479470
H60 H 1.034296 0.194270 0.502351
H61 H 0.909437 0.223925 0.507546
C72 C 0.9554(5) 0.1077(4) 0.5674(2)
H62 H 1.009967 0.049513 0.568327
H63 H 0.884867 0.077469 0.573046
C73 C 0.9702(4) 0.1767(4) 0.6171(2)
H64 H 1.042155 0.204042 0.611792
H65 H 0.968170 0.131614 0.653018
C74 C 0.8049(5) 1.0927(5) 0.3749(3)
H66 H 0.798858 1.062167 0.338382
H67 H 0.875477 1.074316 0.388873
H68 H 0.794844 1.168674 0.369675
C75 C 0.7200(4) 1.0508(3) 0.4183(2)
H69 H 0.722841 1.085678 0.454287
H70 H 0.648956 1.067187 0.403452
C76 C 0.7359(3) 0.9339(3) 0.43040(18)
H71 H 0.733469 0.896897 0.395084
H72 H 0.804494 0.915550 0.447679
C87 C 0.5323(4) 0.9406(3) 0.93275(19)
H102 H 0.488356 0.985123 0.907023
H103 H 0.576876 0.983975 0.952855
H104 H 0.486246 0.901353 0.960575
C88 C 0.6006(3) 0.8673(2) 0.89928(15)
C89 C 0.5926(3) 0.8618(3) 0.84341(15)
H105 H 0.541917 0.906514 0.824284
C90 C 0.6600(3) 0.7888(3) 0.81099(15)
H106 H 0.652482 0.783906 0.771365
C91 C 0.7338(3) 0.7278(3) 0.83904(18)
H107 H 0.780107 0.680358 0.819077
C92 C 0.7408(3) 0.7357(3) 0.89802(16)
H108 H 0.792375 0.692375 0.917366
C93 C 0.6779(3) 0.8016(3) 0.92787(15)
H109 H 0.684655 0.804708 0.967690
C94 C 0.7241(5) 0.5858(5) 0.2708(3)
H110 H 0.652786 0.596879 0.256551
H111 H 0.718738 0.577282 0.312541
H112 H 0.758959 0.522966 0.255434
C95 C 0.7870(2) 0.67620(17) 0.25236(11)
C96 C 0.8566(3) 0.6735(2) 0.20424(11)
H113 H 0.866471 0.611909 0.184220
C97 C 0.9119(2) 0.7609(3) 0.18541(12)
H114 H 0.959450 0.759101 0.152526
C98 C 0.8975(2) 0.8511(2) 0.21470(16)
H115 H 0.935243 0.910825 0.201836
C99 C 0.8279(2) 0.85376(17) 0.26282(15)
H116 H 0.818055 0.915359 0.282841
C100 C 0.7727(2) 0.7663(2) 0.28165(10)
H117 H 0.725074 0.768168 0.314535
H73? H 1.072670 0.528290 0.651766
H74? H 1.167882 0.607247 0.648319
H75? H 0.877196 0.327395 0.595622
H76? H 0.833216 0.219904 0.623241
H77? H 0.581386 0.911025 0.448808
H78? H 0.680765 0.837994 0.470428
C77? C 1.2397(6) 0.3740(5) 0.4697(3)
H79? H 1.255783 0.377740 0.428365
H80? H 1.191193 0.318110 0.480300
H81? H 1.305596 0.359611 0.489371
C78? C 1.1878(5) 0.4767(4) 0.4869(2)
H82? H 1.116563 0.485777 0.471349
H83? H 1.230729 0.534005 0.469662
C79? C 1.1757(4) 0.4852(5) 0.5522(2)
H84? H 1.138659 0.424581 0.570300
H85? H 1.246958 0.484332 0.567650
C80? C 1.1126(5) 0.5860(6) 0.5667(2)
H86? H 1.041650 0.587301 0.550952
H87? H 1.150115 0.646689 0.549128
C81? C 0.9261(6) 0.1108(6) 0.5372(4)
H88? H 0.937930 0.093388 0.497344
H89? H 0.854741 0.143848 0.543020
H90? H 0.932391 0.047118 0.562331
C82? C 1.0084(5) 0.1854(5) 0.5510(2)
H91? H 1.001606 0.249324 0.525264
H92? H 1.080211 0.152641 0.543270
C83? C 0.9978(4) 0.2154(5) 0.6125(3)
H93? H 1.054503 0.262381 0.619121
H94? H 1.006165 0.152203 0.638599
C84? C 0.8405(6) 1.0638(6) 0.3575(3)
H95? H 0.853745 1.053615 0.316755
H96? H 0.907820 1.055319 0.376358
H97? H 0.808797 1.133945 0.362369
C85? C 0.7651(4) 0.9838(4) 0.38399(17)
H98? H 0.801176 0.914031 0.381349
H99? H 0.702624 0.986266 0.360423
C86? C 0.7248(4) 0.9943(4) 0.44560(18)
H100? H 0.688251 1.063797 0.448607
H101? H 0.786748 0.991066 0.469565
C101? C 0.9209(11) 0.8345(11) 0.1882(5)
H118? H 0.881838 0.860928 0.155039
H119? H 0.987552 0.798437 0.175221
H120? H 0.936717 0.892838 0.210280
C102? C 0.8572(7) 0.7629(7) 0.2236(4)
C103? C 0.8082(8) 0.7879(7) 0.2758(4)
H121? H 0.817479 0.853741 0.289935
C104? C 0.7455(9) 0.7165(9) 0.3072(4)
H122? H 0.712015 0.733525 0.342855
C105? C 0.7319(8) 0.6201(8) 0.2865(4)
H123? H 0.689128 0.571287 0.307936
C106? C 0.7810(10) 0.5951(7) 0.2343(4)
H124? H 0.771706 0.529263 0.220096
C107? C 0.8436(9) 0.6665(8) 0.2028(4)
H125? H 0.877170 0.649477 0.167175
loop_
_geom_bond_atom_site_label_1
_geom_bond_atom_site_label_2
_geom_bond_site_symmetry_1
_geom_bond_site_symmetry_2
S1 N1 1_555 1_555
S2 N3 1_555 1_555
S3 N5 1_555 1_555
S4 N7 1_555 1_555
O1 C19 1_555 1_555
O2 C26 1_555 1_555
O3 C42 1_555 1_555
O4 C23 1_555 1_555
O5 C35 1_555 1_555
O6 C45 1_555 1_555
O7 C39 1_555 1_555
O8 C49 1_555 1_555
N1 C33 1_555 1_555
N2 S1 1_555 1_555
N3 C17 1_555 1_555
N4 S2 1_555 1_555
N5 C55 1_555 1_555
N6 S3 1_555 1_555
N7 C65 1_555 1_555
N8 S4 1_555 1_555
C1 H1 1_555 1_555
H2 C1 1_555 1_555
C2 C1 1_555 1_555
H3 C2 1_555 1_555
H4 C2 1_555 1_555
C3 H5 1_555 1_555
H6 C3 1_555 1_555
C4 C3 1_555 1_555
H7 C4 1_555 1_555
H8 C4 1_555 1_555
C5 C4 1_555 1_555
H9 C5 1_555 1_555
H10 C5 1_555 1_555
C6 H11 1_555 1_555
H12 C6 1_555 1_555
C7 C6 1_555 1_555
H13 C7 1_555 1_555
H14 C7 1_555 1_555
C8 C7 1_555 1_555
H15 C8 1_555 1_555
H16 C8 1_555 1_555
C9 H17 1_555 1_555
H18 C9 1_555 1_555
H19 C9 1_555 1_555
C10 C9 1_555 1_555
H20 C10 1_555 1_555
H21 C10 1_555 1_555
C11 C10 1_555 1_555
H22 C11 1_555 1_555
H23 C11 1_555 1_555
C12 C11 1_555 1_555
H24 C12 1_555 1_555
H25 C12 1_555 1_555
C13 C12 1_555 1_555
H26 C13 1_555 1_555
H27 C13 1_555 1_555
C14 C13 1_555 1_555
H28 C14 1_555 1_555
H29 C14 1_555 1_555
C15 N4 1_555 1_555
C16 H30 1_555 1_555
C17 C15 1_555 1_555
C18 N6 1_555 1_555
C19 C28 1_555 1_555
C20 H31 1_555 1_555
C21 C17 1_555 1_555
H32 C21 1_555 1_555
C22 H33 1_555 1_555
C23 C20 1_555 1_555
C24 O1 1_555 1_555
C25 O4 1_555 1_555
C26 C27 1_555 1_555
C27 H34 1_555 1_555
C28 C16 1_555 1_555
C29 C15 1_555 1_555
H35 C29 1_555 1_555
C30 N2 1_555 1_555
C31 C19 1_555 1_555
H36 C31 1_555 1_555
C32 H37 1_555 1_555
C33 C30 1_555 1_555
C34 C36 1_555 1_555
C35 C41 1_555 1_555
C36 H38 1_555 1_555
C37 O2 1_555 1_555
C38 O5 1_555 1_555
C39 C48 1_555 1_555
C40 C18 1_555 1_555
H39 C40 1_555 1_555
C41 C22 1_555 1_555
C42 C34 1_555 1_555
C43 C36 1_555 1_555
C44 C25 1_555 1_555
H40 C44 1_555 1_555
C45 C20 1_555 1_555
C46 C2 1_555 1_555
H41 C46 1_555 1_555
C47 C42 1_555 1_555
H42 C47 1_555 1_555
C48 C22 1_555 1_555
C49 C43 1_555 1_555
C50 C16 1_555 1_555
C51 C32 1_555 1_555
C52 O6 1_555 1_555
C53 C35 1_555 1_555
H43 C53 1_555 1_555
C54 C8 1_555 1_555
H44 C54 1_555 1_555
C55 C18 1_555 1_555
C56 O3 1_555 1_555
C57 C5 1_555 1_555
H45 C57 1_555 1_555
C58 C23 1_555 1_555
C59 O8 1_555 1_555
C60 C14 1_555 1_555
H46 C60 1_555 1_555
C61 C33 1_555 1_555
H47 C61 1_555 1_555
C62 O7 1_555 1_555
C63 N8 1_555 1_555
C64 C59 1_555 1_555
H48 C64 1_555 1_555
C65 C63 1_555 1_555
C66 C62 1_555 1_555
H49 C66 1_555 1_555
C67 H50 1_555 1_555
H51 C67 1_555 1_555
H52 C67 1_555 1_555
C68 C67 1_555 1_555
H53 C68 1_555 1_555
H54 C68 1_555 1_555
C69 C68 1_555 1_555
H55 C69 1_555 1_555
H56 C69 1_555 1_555
C70 C1 1_555 1_555
H57 C70 1_555 1_555
H58 C70 1_555 1_555
C71 H59 1_555 1_555
H60 C71 1_555 1_555
H61 C71 1_555 1_555
C72 C71 1_555 1_555
H62 C72 1_555 1_555
H63 C72 1_555 1_555
C73 C3 1_555 1_555
H64 C73 1_555 1_555
H65 C73 1_555 1_555
C74 H66 1_555 1_555
H67 C74 1_555 1_555
H68 C74 1_555 1_555
C75 C74 1_555 1_555
H69 C75 1_555 1_555
H70 C75 1_555 1_555
C76 C6 1_555 1_555
H71 C76 1_555 1_555
H72 C76 1_555 1_555
C87 H102 1_555 1_555
H103 C87 1_555 1_555
H104 C87 1_555 1_555
C88 C87 1_555 1_555
C89 C88 1_555 1_555
H105 C89 1_555 1_555
C90 C89 1_555 1_555
H106 C90 1_555 1_555
C91 C90 1_555 1_555
H107 C91 1_555 1_555
C92 C91 1_555 1_555
H108 C92 1_555 1_555
C93 C88 1_555 1_555
H109 C93 1_555 1_555
C94 H110 1_555 1_555
H111 C94 1_555 1_555
H112 C94 1_555 1_555
C95 C94 1_555 1_555
C96 C95 1_555 1_555
H113 C96 1_555 1_555
C97 C96 1_555 1_555
H114 C97 1_555 1_555
C98 C97 1_555 1_555
H115 C98 1_555 1_555
C99 C98 1_555 1_555
H116 C99 1_555 1_555
C100 C95 1_555 1_555
H117 C100 1_555 1_555
C21 C24 1_555 1_555
C24 C52 1_555 1_555
C25 C38 1_555 1_555
C26 C56 1_555 1_555
C27 C30 1_555 1_555
C28 C57 1_555 1_555
C29 C52 1_555 1_555
C31 C37 1_555 1_555
C32 C58 1_555 1_555
C34 C46 1_555 1_555
C37 C50 1_555 1_555
C38 C40 1_555 1_555
C39 C53 1_555 1_555
C41 C60 1_555 1_555
C43 C54 1_555 1_555
C44 C55 1_555 1_555
C45 C51 1_555 1_555
C46 C50 1_555 1_555
C47 C49 1_555 1_555
C48 C54 1_555 1_555
C51 C57 1_555 1_555
C56 C61 1_555 1_555
C58 C60 1_555 1_555
C59 C62 1_555 1_555
C63 C64 1_555 1_555
C65 C66 1_555 1_555
C69 C70 1_555 1_555
C72 C73 1_555 1_555
C75 C76 1_555 1_555
C92 C93 1_555 1_555
C99 C100 1_555 1_555

#END
