
#######################################################################
#
#                 Cambridge Crystallographic Data Centre
#                                CCDC 
#
#######################################################################
#
# If this CIF has been generated from an entry in the Cambridge 
# Structural Database, then it will include bibliographic, chemical, 
# crystal, experimental, refinement or atomic coordinate data resulting 
# from the CCDC's data processing and validation procedures.
#
#######################################################################

data_DIWHEY
_chemical_formula_moiety         'C24 H26 N2 O5'
_chemical_name_systematic        
7-(2,3-dimethoxybenzylidene)-4-(2,3-dimethoxyphenyl)-1,3,4,5,6,7-hexahydro-2H-cyclopenta[d]pyrimidin-2-one
_symmetry_cell_setting           triclinic
_symmetry_space_group_name_H-M   'P -1'
_symmetry_Int_Tables_number      2
_space_group_name_Hall           '-P 1'
loop_
_symmetry_equiv_pos_site_id
_symmetry_equiv_pos_as_xyz
1 x,y,z
2 -x,-y,-z
_cell_length_a                   12.4812(18)
_cell_length_b                   12.8229(19)
_cell_length_c                   15.2802(13)
_cell_angle_alpha                97.4410(10)
_cell_angle_beta                 105.946(2)
_cell_angle_gamma                110.041(2)
_cell_volume                     2140.25
_cell_formula_units_Z            4
loop_
_atom_site_label
_atom_site_type_symbol
_atom_site_fract_x
_atom_site_fract_y
_atom_site_fract_z
N1 N 0.9235(2) 0.8409(2) 1.4859(2)
H1 H 0.956(3) 0.816(3) 1.450(2)
N2 N 0.9370(3) 0.9141(3) 1.63573(19)
H2 H 0.969(3) 0.927(3) 1.690(2)
O1 O 1.0647(2) 0.8332(2) 1.61181(16)
O2 O 0.7164(2) 1.0617(2) 1.69427(17)
O3 O 0.5316(2) 0.9514(2) 1.74876(19)
O4 O 0.9559(2) 0.8920(2) 1.17472(15)
O5 O 0.8757(2) 0.8907(3) 0.99390(17)
C1 C 0.9801(3) 0.8619(3) 1.5801(2)
C2 C 0.8377(3) 0.9519(3) 1.6097(2)
H3 H 0.8688 1.0340 1.6387
C3 C 0.7937(3) 0.9336(3) 1.5054(2)
C4 C 0.8338(3) 0.8802(3) 1.4504(2)
C5 C 0.7775(3) 0.8715(3) 1.3517(2)
C6 C 0.6858(3) 0.9247(3) 1.3481(2)
H4 H 0.6040 0.8677 1.3150
H5 H 0.7006 0.9861 1.3162
C7 C 0.7018(3) 0.9715(3) 1.4509(2)
H6 H 0.7308 1.0544 1.4666
H7 H 0.6261 0.9396 1.4627
C8 C 0.7342(3) 0.8884(3) 1.6431(2)
C9 C 0.6747(3) 0.9446(3) 1.6796(2)
C10 C 0.5779(3) 0.8853(4) 1.7077(2)
C11 C 0.5392(3) 0.7691(4) 1.6949(3)
H8 H 0.4724 0.7286 1.7104
C12 C 0.5988(4) 0.7123(3) 1.6590(3)
H9 H 0.5728 0.6334 1.6510
C13 C 0.6975(3) 0.7715(3) 1.6346(2)
H10 H 0.7393 0.7326 1.6125
C14 C 0.6373(3) 1.1073(3) 1.6446(3)
H11 H 0.5981 1.0631 1.5806
H12 H 0.6829 1.1854 1.6463
H13 H 0.5772 1.1045 1.6732
C15 C 0.4362(4) 0.8974(4) 1.7824(3)
H14 H 0.3647 0.8482 1.7303
H15 H 0.4190 0.9548 1.8160
H16 H 0.4604 0.8529 1.8237
C16 C 0.8079(3) 0.8333(3) 1.2806(2)
H17 H 0.8682 0.8050 1.2958
C17 C 0.7570(3) 0.8308(3) 1.1813(2)
C18 C 0.8334(3) 0.8574(3) 1.1295(2)
C19 C 0.7901(4) 0.8592(3) 1.0360(2)
C20 C 0.6692(4) 0.8332(4) 0.9925(3)
H18 H 0.6398 0.8340 0.9298
C21 C 0.5923(4) 0.8059(4) 1.0430(3)
H19 H 0.5101 0.7877 1.0136
C22 C 0.6341(3) 0.8050(3) 1.1359(3)
H20 H 0.5803 0.7872 1.1687
C23 C 1.0055(3) 0.8123(4) 1.1502(3)
H21 H 0.9689 0.7429 1.1676
H22 H 1.0916 0.8446 1.1828
H23 H 0.9895 0.7958 1.0837
C24 C 0.8382(4) 0.9067(5) 0.9013(3)
H24 H 0.7814 0.8347 0.8586
H25 H 0.9076 0.9357 0.8822
H26 H 0.8002 0.9604 0.9009
N3 N 0.1136(3) 0.6738(3) 0.4955(2)
H27 H 0.094(3) 0.716(3) 0.533(2)
N4 N 0.1155(3) 0.6197(3) 0.3460(2)
H28 H 0.092(3) 0.619(3) 0.288(2)
O6 O 0.0405(2) 0.7506(2) 0.37849(16)
O7 O 0.1724(12) 0.477(2) 0.1814(6)
O8 O 0.3674(3) 0.4848(3) 0.1415(2)
O9 O 0.2175(4) 0.8017(3) 0.8375(2)
O10 O 0.2517(4) 0.7796(3) 1.0136(2)
C25 C 0.0870(3) 0.6849(3) 0.4046(3)
C26 C 0.1667(3) 0.5346(3) 0.3641(2)
H29 H 0.1067 0.4598 0.3238
C27 C 0.1853(3) 0.5288(3) 0.4637(2)
C28 C 0.1588(3) 0.5931(3) 0.5217(2)
C29 C 0.1806(3) 0.5698(3) 0.6144(2)
C30 C 0.2267(3) 0.4752(3) 0.6081(3)
H30 H 0.1729 0.4075 0.6197
H31 H 0.3072 0.4998 0.6541
C31 C 0.2297(3) 0.4492(3) 0.5083(3)
H32 H 0.3116 0.4633 0.5094
H33 H 0.1773 0.3703 0.4752
C32 C 0.2813(3) 0.5601(3) 0.3393(2)
C33 C 0.2768(4) 0.5150(4) 0.2523(3)
C34 C 0.3817(4) 0.5350(4) 0.2295(3)
C35 C 0.4914(4) 0.6042(4) 0.2965(3)
H34 H 0.5623 0.6193 0.2824
C36 C 0.4974(4) 0.6512(3) 0.3837(3)
H35 H 0.5725 0.6984 0.4286
C37 C 0.3936(3) 0.6296(3) 0.4063(3)
H36 H 0.3988 0.6615 0.4663
C38 C 0.1381(18) 0.359(2) 0.1375(19)
H37 H 0.1921 0.3534 0.1047
H38 H 0.0565 0.3288 0.0938
H39 H 0.1427 0.3164 0.1845
C39 C 0.4696(4) 0.4816(4) 0.1202(3)
H40 H 0.5218 0.5576 0.1223
H41 H 0.4434 0.4332 0.0585
H42 H 0.5130 0.4518 0.1654
C40 C 0.1664(3) 0.6244(3) 0.6875(2)
H43 H 0.1366 0.6805 0.6764
C41 C 0.1909(3) 0.6088(3) 0.7832(2)
C42 C 0.2072(4) 0.6949(4) 0.8559(3)
C43 C 0.2327(4) 0.6864(4) 0.9480(3)
C44 C 0.2421(4) 0.5884(5) 0.9680(3)
H44 H 0.2591 0.5809 1.0295
C45 C 0.2267(4) 0.5022(4) 0.8982(3)
H45 H 0.2338 0.4360 0.9125
C46 C 0.2009(4) 0.5105(4) 0.8069(3)
H46 H 0.1898 0.4497 0.7601
C47 C 0.1406(5) 0.8429(5) 0.8493(4)
H47 H 0.0597 0.7878 0.8142
H48 H 0.1542 0.9118 0.8278
H49 H 0.1504 0.8599 0.9148
C48 C 0.2808(5) 0.7764(5) 1.1080(3)
H50 H 0.2134 0.7194 1.1164
H51 H 0.2985 0.8499 1.1460
H52 H 0.3506 0.7576 1.1263
O11? O 0.1558(11) 0.410(2) 0.1945(12)
C49? C 0.095(3) 0.432(5) 0.1134(17)
H53? H 0.0939 0.5065 0.1278
H54? H 0.0133 0.3752 0.0872
H55? H 0.1358 0.4292 0.0687
loop_
_geom_bond_atom_site_label_1
_geom_bond_atom_site_label_2
_geom_bond_site_symmetry_1
_geom_bond_site_symmetry_2
N1 H1 1_555 1_555
N2 H2 1_555 1_555
O1 C1 1_555 1_555
O2 C9 1_555 1_555
O3 C10 1_555 1_555
O4 C18 1_555 1_555
O5 C19 1_555 1_555
C1 N1 1_555 1_555
C2 N2 1_555 1_555
H3 C2 1_555 1_555
C3 C2 1_555 1_555
C4 N1 1_555 1_555
C5 C4 1_555 1_555
C6 C5 1_555 1_555
H4 C6 1_555 1_555
H5 C6 1_555 1_555
C7 C3 1_555 1_555
H6 C7 1_555 1_555
H7 C7 1_555 1_555
C8 C2 1_555 1_555
C9 C8 1_555 1_555
C10 C9 1_555 1_555
C11 C10 1_555 1_555
H8 C11 1_555 1_555
C12 C11 1_555 1_555
H9 C12 1_555 1_555
C13 C8 1_555 1_555
H10 C13 1_555 1_555
C14 O2 1_555 1_555
H11 C14 1_555 1_555
H12 C14 1_555 1_555
H13 C14 1_555 1_555
C15 O3 1_555 1_555
H14 C15 1_555 1_555
H15 C15 1_555 1_555
H16 C15 1_555 1_555
C16 C5 1_555 1_555
H17 C16 1_555 1_555
C17 C16 1_555 1_555
C18 C17 1_555 1_555
C19 C18 1_555 1_555
C20 C19 1_555 1_555
H18 C20 1_555 1_555
C21 C20 1_555 1_555
H19 C21 1_555 1_555
C22 C17 1_555 1_555
H20 C22 1_555 1_555
C23 O4 1_555 1_555
H21 C23 1_555 1_555
H22 C23 1_555 1_555
H23 C23 1_555 1_555
C24 O5 1_555 1_555
H24 C24 1_555 1_555
H25 C24 1_555 1_555
H26 C24 1_555 1_555
N3 H27 1_555 1_555
N4 H28 1_555 1_555
O6 C25 1_555 1_555
O7 C33 1_555 1_555
O8 C34 1_555 1_555
O9 C42 1_555 1_555
O10 C43 1_555 1_555
C25 N3 1_555 1_555
C26 N4 1_555 1_555
H29 C26 1_555 1_555
C27 C26 1_555 1_555
C28 N3 1_555 1_555
C29 C28 1_555 1_555
C30 C29 1_555 1_555
H30 C30 1_555 1_555
H31 C30 1_555 1_555
C31 C27 1_555 1_555
H32 C31 1_555 1_555
H33 C31 1_555 1_555
C32 C26 1_555 1_555
C33 C32 1_555 1_555
C34 C33 1_555 1_555
C35 C34 1_555 1_555
H34 C35 1_555 1_555
C36 C35 1_555 1_555
H35 C36 1_555 1_555
C37 C32 1_555 1_555
H36 C37 1_555 1_555
C38 O7 1_555 1_555
H37 C38 1_555 1_555
H38 C38 1_555 1_555
H39 C38 1_555 1_555
C39 O8 1_555 1_555
H40 C39 1_555 1_555
H41 C39 1_555 1_555
H42 C39 1_555 1_555
C40 C29 1_555 1_555
H43 C40 1_555 1_555
C41 C40 1_555 1_555
C42 C41 1_555 1_555
C43 C42 1_555 1_555
C44 C43 1_555 1_555
H44 C44 1_555 1_555
C45 C44 1_555 1_555
H45 C45 1_555 1_555
C46 C41 1_555 1_555
H46 C46 1_555 1_555
C47 O9 1_555 1_555
H47 C47 1_555 1_555
H48 C47 1_555 1_555
H49 C47 1_555 1_555
C48 O10 1_555 1_555
H50 C48 1_555 1_555
H51 C48 1_555 1_555
H52 C48 1_555 1_555
N2 C1 1_555 1_555
C3 C4 1_555 1_555
C6 C7 1_555 1_555
C12 C13 1_555 1_555
C21 C22 1_555 1_555
N4 C25 1_555 1_555
C27 C28 1_555 1_555
C30 C31 1_555 1_555
C36 C37 1_555 1_555
C45 C46 1_555 1_555

#END
