
#######################################################################
#
#                 Cambridge Crystallographic Data Centre
#                                CCDC 
#
#######################################################################
#
# If this CIF has been generated from an entry in the Cambridge 
# Structural Database, then it will include bibliographic, chemical, 
# crystal, experimental, refinement or atomic coordinate data resulting 
# from the CCDC's data processing and validation procedures.
#
#######################################################################

data_DIWYAJ
_chemical_formula_moiety         'C13 H20 N1 1+,Cl1 O4 1-'
_chemical_name_systematic        '13-Methyl-(7)(2,6)pyridinophanium perchlorate'
_symmetry_cell_setting           monoclinic
_symmetry_space_group_name_H-M   'P 21/n'
_symmetry_Int_Tables_number      14
_space_group_name_Hall           '-P 2yn'
loop_
_symmetry_equiv_pos_site_id
_symmetry_equiv_pos_as_xyz
1 x,y,z
2 1/2-x,1/2+y,1/2-z
3 -x,-y,-z
4 1/2+x,1/2-y,1/2+z
_cell_length_a                   15.090(3)
_cell_length_b                   11.411(1)
_cell_length_c                   16.913(3)
_cell_angle_alpha                90
_cell_angle_beta                 91.20(1)
_cell_angle_gamma                90
_cell_volume                     2911.64
_exptl_crystal_colour            colorless
_chemical_melting_point          248-250deg.C
_cell_formula_units_Z            8
loop_
_atom_site_label
_atom_site_type_symbol
_atom_site_fract_x
_atom_site_fract_y
_atom_site_fract_z
Cl1 Cl 0.1194(2) 0.1965(2) 0.0995(1)
O1 O 0.1095(9) 0.1096(9) 0.0422(8)
O2 O 0.0875(10) 0.1668(10) 0.1693(7)
O3 O 0.1868(9) 0.2761(11) 0.0946(9)
O4 O 0.0474(17) 0.2606(16) 0.0859(17)
Cl2 Cl 0.2309(2) 0.1862(2) 0.6568(1)
O5 O 0.2314(6) 0.2818(7) 0.7107(5)
O6 O 0.2002(11) 0.0902(9) 0.6974(7)
O7 O 0.3201(8) 0.1591(12) 0.6480(7)
O8 O 0.2115(9) 0.2206(15) 0.5818(7)
N1 N 0.4494(4) 0.2370(6) 0.4157(3)
C1 C 0.3979(6) 0.3215(8) 0.4638(5)
C2 C 0.4375(6) 0.1214(7) 0.4222(4)
C3 C 0.5043(7) 0.0453(8) 0.3990(5)
C4 C 0.5779(7) 0.0903(11) 0.3640(6)
C5 C 0.5812(6) 0.2083(11) 0.3441(6)
C6 C 0.5115(6) 0.2825(8) 0.3675(5)
C7 C 0.3504(7) 0.0729(8) 0.4444(6)
C8 C 0.2792(8) 0.1115(14) 0.3814(9)
C9 C 0.2918(8) 0.1119(15) 0.2975(8)
C10 C 0.3621(6) 0.1845(9) 0.2571(5)
C11 C 0.3517(8) 0.3155(10) 0.2615(7)
C12 C 0.4416(9) 0.3855(9) 0.2532(7)
C13 C 0.4962(7) 0.4025(9) 0.3306(6)
N2 N 0.3909(4) 0.2289(5) 0.8406(4)
C14 C 0.4234(7) 0.3347(8) 0.7950(6)
C15 C 0.4229(5) 0.1215(8) 0.8236(4)
C16 C 0.3773(7) 0.0208(9) 0.8452(6)
C17 C 0.3009(6) 0.0322(9) 0.8888(6)
C18 C 0.2793(6) 0.1409(10) 0.9166(6)
C19 C 0.3286(6) 0.2419(8) 0.8940(5)
C20 C 0.5166(7) 0.1114(10) 0.7937(6)
C21 C 0.5822(7) 0.1487(18) 0.8574(11)
C22 C 0.5837(9) 0.1666(22) 0.9306(9)
C23 C 0.5028(7) 0.1877(10) 0.9874(6)
C24 C 0.4838(12) 0.3165(13) 0.9959(10)
C25 C 0.3955(11) 0.3467(13) 1.0141(9)
C26 C 0.3226(9) 0.3561(9) 0.9385(8)
loop_
_geom_bond_atom_site_label_1
_geom_bond_atom_site_label_2
_geom_bond_site_symmetry_1
_geom_bond_site_symmetry_2
Cl1 O1 1_555 1_555
O2 Cl1 1_555 1_555
O3 Cl1 1_555 1_555
O4 Cl1 1_555 1_555
Cl2 O5 1_555 1_555
O6 Cl2 1_555 1_555
O7 Cl2 1_555 1_555
O8 Cl2 1_555 1_555
N1 C1 1_555 1_555
C2 N1 1_555 1_555
C3 C2 1_555 1_555
C4 C3 1_555 1_555
C5 C4 1_555 1_555
C6 N1 1_555 1_555
C7 C2 1_555 1_555
C8 C7 1_555 1_555
C9 C8 1_555 1_555
C10 C9 1_555 1_555
C11 C10 1_555 1_555
C12 C11 1_555 1_555
C13 C6 1_555 1_555
N2 C14 1_555 1_555
C15 N2 1_555 1_555
C16 C15 1_555 1_555
C17 C16 1_555 1_555
C18 C17 1_555 1_555
C19 N2 1_555 1_555
C20 C15 1_555 1_555
C21 C20 1_555 1_555
C22 C21 1_555 1_555
C23 C22 1_555 1_555
C24 C23 1_555 1_555
C25 C24 1_555 1_555
C26 C19 1_555 1_555
C5 C6 1_555 1_555
C12 C13 1_555 1_555
C18 C19 1_555 1_555
C25 C26 1_555 1_555

#END
