
#######################################################################
#
#                 Cambridge Crystallographic Data Centre
#                                CCDC 
#
#######################################################################
#
# If this CIF has been generated from an entry in the Cambridge 
# Structural Database, then it will include bibliographic, chemical, 
# crystal, experimental, refinement or atomic coordinate data resulting 
# from the CCDC's data processing and validation procedures.
#
#######################################################################

data_DIXQUW
_chemical_formula_moiety         'C32 H22 O2'
_chemical_name_systematic        1,8-bis(4-Methoxyphenylethynyl)anthracene
_symmetry_cell_setting           monoclinic
_symmetry_space_group_name_H-M   'C 2/c'
_symmetry_Int_Tables_number      15
_space_group_name_Hall           '-C 2yn'
loop_
_symmetry_equiv_pos_site_id
_symmetry_equiv_pos_as_xyz
1 x,y,z
2 1/2+x,1/2+y,z
3 x,-y,1/2+z
4 1/2+x,1/2-y,1/2+z
5 -x,-y,-z
6 1/2-x,1/2-y,-z
7 -x,y,1/2-z
8 1/2-x,1/2+y,1/2-z
_cell_length_a                   24.165(2)
_cell_length_b                   10.697(1)
_cell_length_c                   36.756(2)
_cell_angle_alpha                90
_cell_angle_beta                 91.92(1)
_cell_angle_gamma                90
_cell_volume                     9495.83
_exptl_crystal_colour            yellow
_exptl_crystal_description       plates
_cell_formula_units_Z            16
loop_
_atom_site_label
_atom_site_type_symbol
_atom_site_fract_x
_atom_site_fract_y
_atom_site_fract_z
C1 C 0.12225(16) 0.7729(4) 0.59414(9)
H1 H 0.0967 0.8098 0.6104
H2 H 0.1510 0.8318 0.5892
H3 H 0.1382 0.6993 0.6051
O1 O 0.09357(9) 0.7399(2) 0.56070(6)
C2 C 0.12428(13) 0.6857(3) 0.53432(7)
C3 C 0.09486(12) 0.6383(3) 0.50470(8)
H4 H 0.0566 0.6471 0.5032
C4 C 0.12137(13) 0.5786(3) 0.47746(7)
H5 H 0.1008 0.5463 0.4578
C5 C 0.17866(13) 0.5654(2) 0.47869(7)
C6 C 0.20737(13) 0.6161(3) 0.50800(8)
H6 H 0.2458 0.6103 0.5092
C7 C 0.18072(14) 0.6756(3) 0.53580(8)
H7 H 0.2011 0.7086 0.5555
C8 C 0.20719(13) 0.5026(3) 0.45069(8)
C9 C 0.23131(12) 0.4480(3) 0.42764(8)
C10 C 0.25681(11) 0.3732(2) 0.40035(7)
C11 C 0.31019(13) 0.3321(3) 0.40551(8)
H8 H 0.3306 0.3563 0.4262
C12 C 0.33463(13) 0.2535(3) 0.37976(9)
H9 H 0.3710 0.2270 0.3835
C13 C 0.30556(12) 0.2166(3) 0.34964(8)
H10 H 0.3223 0.1648 0.3329
C14 C 0.25013(10) 0.2553(2) 0.34311(7)
C15 C 0.22508(10) 0.3363(2) 0.36850(7)
C16 C 0.17091(10) 0.3762(2) 0.36183(7)
H11 H 0.1549 0.4304 0.3782
C17 C 0.13994(10) 0.3372(2) 0.33129(6)
C18 C 0.16433(11) 0.2539(2) 0.30617(7)
C19 C 0.21900(11) 0.2164(2) 0.31265(7)
H12 H 0.2353 0.1636 0.2960
C20 C 0.13293(12) 0.2122(2) 0.27541(7)
H13 H 0.1488 0.1581 0.2589
C21 C 0.08017(12) 0.2500(3) 0.26972(7)
H14 H 0.0598 0.2210 0.2495
C22 C 0.05572(11) 0.3333(3) 0.29416(8)
H15 H 0.0195 0.3595 0.2896
C23 C 0.08394(10) 0.3765(2) 0.32441(7)
C24 C 0.05779(10) 0.4604(3) 0.34939(7)
C25 C 0.03639(11) 0.5265(3) 0.37066(8)
C26 C 0.00995(10) 0.6079(3) 0.39585(7)
C27 C -0.02293(12) 0.5629(3) 0.42284(8)
H16 H -0.0288 0.4772 0.4248
C28 C -0.04726(13) 0.6424(3) 0.44695(8)
H17 H -0.0691 0.6100 0.4650
C29 C -0.03961(12) 0.7686(3) 0.44463(8)
C30 C -0.00803(13) 0.8147(3) 0.41805(9)
H18 H -0.0028 0.9005 0.4160
C31 C 0.01635(13) 0.7344(3) 0.39399(8)
H19 H 0.0379 0.7677 0.3759
O2 O -0.06589(9) 0.8399(2) 0.46984(6)
C32 C -0.06319(17) 0.9719(3) 0.46652(11)
H20 H -0.0832 1.0100 0.4857
H21 H -0.0793 0.9967 0.4434
H22 H -0.0252 0.9982 0.4682
C33 C 0.17732(16) 0.1816(3) 0.47070(10)
H23 H 0.1592 0.2215 0.4904
H24 H 0.1720 0.2306 0.4490
H25 H 0.2162 0.1744 0.4766
O3 O 0.15452(9) 0.06097(19) 0.46494(5)
C34 C 0.17519(12) -0.0113(3) 0.43764(7)
C35 C 0.15278(12) -0.1294(3) 0.43484(7)
H26 H 0.1254 -0.1541 0.4505
C36 C 0.17090(11) -0.2106(2) 0.40895(7)
H27 H 0.1554 -0.2900 0.4071
C37 C 0.21199(10) -0.1759(2) 0.38555(6)
C38 C 0.23274(11) -0.0560(2) 0.38844(7)
H28 H 0.2596 -0.0301 0.3726
C39 C 0.21461(12) 0.0262(2) 0.41423(7)
H29 H 0.2291 0.1067 0.4157
C40 C 0.23256(10) -0.2637(2) 0.35954(7)
C41 C 0.25028(10) -0.3383(2) 0.33874(7)
C42 C 0.27124(9) -0.4257(2) 0.31321(6)
C43 C 0.32359(10) -0.4735(2) 0.31796(7)
H30 H 0.3455 -0.4488 0.3380
C44 C 0.34465(10) -0.5592(3) 0.29304(8)
H31 H 0.3802 -0.5907 0.2969
C45 C 0.31412(10) -0.5965(2) 0.26365(7)
H32 H 0.3291 -0.6526 0.2474
C46 C 0.25945(9) -0.5512(2) 0.25724(6)
C47 C 0.23738(9) -0.4627(2) 0.28224(6)
C48 C 0.18430(9) -0.4169(2) 0.27541(6)
H33 H 0.1697 -0.3603 0.2917
C49 C 0.15227(9) -0.4522(2) 0.24527(6)
C50 C 0.17338(10) -0.5437(2) 0.22099(6)
C51 C 0.22669(10) -0.5891(2) 0.22745(6)
H34 H 0.2409 -0.6467 0.2113
C52 C 0.13973(11) -0.5834(2) 0.19058(7)
H35 H 0.1530 -0.6436 0.1749
C53 C 0.08901(11) -0.5348(3) 0.18433(7)
H36 H 0.0675 -0.5625 0.1645
C54 C 0.06803(10) -0.4425(2) 0.20749(7)
H37 H 0.0331 -0.4090 0.2024
C55 C 0.09797(9) -0.4015(2) 0.23712(6)
C56 C 0.07836(9) -0.3048(2) 0.26014(7)
C57 C 0.06635(10) -0.2197(3) 0.27954(7)
C58 C 0.05342(10) -0.1187(2) 0.30346(7)
C59 C 0.09236(11) -0.0710(2) 0.32752(7)
H38 H 0.1284 -0.1017 0.3271
C60 C 0.08019(11) 0.0209(3) 0.35240(7)
H39 H 0.1075 0.0512 0.3685
C61 C 0.02766(13) 0.0667(3) 0.35309(8)
C62 C -0.01188(13) 0.0255(3) 0.32767(10)
H40 H -0.0472 0.0602 0.3271
C63 C 0.00106(12) -0.0666(3) 0.30327(9)
H41 H -0.0258 -0.0941 0.2864
O4 O 0.00927(9) 0.1528(2) 0.37742(6)
C64 C 0.04585(15) 0.1901(3) 0.40646(9)
H42 H 0.0278 0.2506 0.4213
H43 H 0.0786 0.2263 0.3967
H44 H 0.0559 0.1185 0.4210
loop_
_geom_bond_atom_site_label_1
_geom_bond_atom_site_label_2
_geom_bond_site_symmetry_1
_geom_bond_site_symmetry_2
C1 H1 1_555 1_555
H2 C1 1_555 1_555
H3 C1 1_555 1_555
O1 C1 1_555 1_555
C2 O1 1_555 1_555
C3 C2 1_555 1_555
H4 C3 1_555 1_555
C4 C3 1_555 1_555
H5 C4 1_555 1_555
C5 C4 1_555 1_555
C6 C5 1_555 1_555
H6 C6 1_555 1_555
C7 C2 1_555 1_555
H7 C7 1_555 1_555
C8 C5 1_555 1_555
C9 C8 1_555 1_555
C10 C9 1_555 1_555
C11 C10 1_555 1_555
H8 C11 1_555 1_555
C12 C11 1_555 1_555
H9 C12 1_555 1_555
C13 C12 1_555 1_555
H10 C13 1_555 1_555
C14 C13 1_555 1_555
C15 C10 1_555 1_555
C16 C15 1_555 1_555
H11 C16 1_555 1_555
C17 C16 1_555 1_555
C18 C17 1_555 1_555
C19 C14 1_555 1_555
H12 C19 1_555 1_555
C20 C18 1_555 1_555
H13 C20 1_555 1_555
C21 C20 1_555 1_555
H14 C21 1_555 1_555
C22 C21 1_555 1_555
H15 C22 1_555 1_555
C23 C17 1_555 1_555
C24 C23 1_555 1_555
C25 C24 1_555 1_555
C26 C25 1_555 1_555
C27 C26 1_555 1_555
H16 C27 1_555 1_555
C28 C27 1_555 1_555
H17 C28 1_555 1_555
C29 C28 1_555 1_555
C30 C29 1_555 1_555
H18 C30 1_555 1_555
C31 C26 1_555 1_555
H19 C31 1_555 1_555
O2 C29 1_555 1_555
C32 O2 1_555 1_555
H20 C32 1_555 1_555
H21 C32 1_555 1_555
H22 C32 1_555 1_555
C33 H23 1_555 1_555
H24 C33 1_555 1_555
H25 C33 1_555 1_555
O3 C33 1_555 1_555
C34 O3 1_555 1_555
C35 C34 1_555 1_555
H26 C35 1_555 1_555
C36 C35 1_555 1_555
H27 C36 1_555 1_555
C37 C36 1_555 1_555
C38 C37 1_555 1_555
H28 C38 1_555 1_555
C39 C34 1_555 1_555
H29 C39 1_555 1_555
C40 C37 1_555 1_555
C41 C40 1_555 1_555
C42 C41 1_555 1_555
C43 C42 1_555 1_555
H30 C43 1_555 1_555
C44 C43 1_555 1_555
H31 C44 1_555 1_555
C45 C44 1_555 1_555
H32 C45 1_555 1_555
C46 C45 1_555 1_555
C47 C42 1_555 1_555
C48 C47 1_555 1_555
H33 C48 1_555 1_555
C49 C48 1_555 1_555
C50 C49 1_555 1_555
C51 C46 1_555 1_555
H34 C51 1_555 1_555
C52 C50 1_555 1_555
H35 C52 1_555 1_555
C53 C52 1_555 1_555
H36 C53 1_555 1_555
C54 C53 1_555 1_555
H37 C54 1_555 1_555
C55 C49 1_555 1_555
C56 C55 1_555 1_555
C57 C56 1_555 1_555
C58 C57 1_555 1_555
C59 C58 1_555 1_555
H38 C59 1_555 1_555
C60 C59 1_555 1_555
H39 C60 1_555 1_555
C61 C60 1_555 1_555
C62 C61 1_555 1_555
H40 C62 1_555 1_555
C63 C58 1_555 1_555
H41 C63 1_555 1_555
O4 C61 1_555 1_555
C64 O4 1_555 1_555
H42 C64 1_555 1_555
H43 C64 1_555 1_555
H44 C64 1_555 1_555
C6 C7 1_555 1_555
C14 C15 1_555 1_555
C18 C19 1_555 1_555
C22 C23 1_555 1_555
C30 C31 1_555 1_555
C38 C39 1_555 1_555
C46 C47 1_555 1_555
C50 C51 1_555 1_555
C54 C55 1_555 1_555
C62 C63 1_555 1_555

#END
