
#######################################################################
#
#                 Cambridge Crystallographic Data Centre
#                                CCDC 
#
#######################################################################
#
# If this CIF has been generated from an entry in the Cambridge 
# Structural Database, then it will include bibliographic, chemical, 
# crystal, experimental, refinement or atomic coordinate data resulting 
# from the CCDC's data processing and validation procedures.
#
#######################################################################

data_DIXQEH
_chemical_formula_moiety         'C26 H26 N4'
_chemical_name_systematic        
2-(4-(bis(4-(Dimethylamino)phenyl)methylene)cyclohex-2-enylidene)-malononitrile
_symmetry_cell_setting           orthorhombic
_symmetry_space_group_name_H-M   'A b a 2'
_symmetry_Int_Tables_number      41
_space_group_name_Hall           'A 2 -2ab'
loop_
_symmetry_equiv_pos_site_id
_symmetry_equiv_pos_as_xyz
1 x,y,z
2 x,1/2+y,1/2+z
3 -x,-y,z
4 -x,1/2-y,1/2+z
5 1/2-x,1/2+y,z
6 1/2-x,y,1/2+z
7 1/2+x,1/2-y,z
8 1/2+x,-y,1/2+z
_cell_length_a                   31.253(8)
_cell_length_b                   23.711(6)
_cell_length_c                   6.940(2)
_cell_angle_alpha                90
_cell_angle_beta                 90
_cell_angle_gamma                90
_cell_volume                     5142.82
_exptl_crystal_colour            'dark purple'
_exptl_crystal_description       needle
_chemical_melting_point          150-151deg.C
_cell_formula_units_Z            8
loop_
_atom_site_label
_atom_site_type_symbol
_atom_site_fract_x
_atom_site_fract_y
_atom_site_fract_z
N1 N 0.7867(4) 0.4867(5) 0.738(3)
N2 N 0.6783(3) 0.3783(5) 0.577(3)
N3 N 0.8131(4) 0.0833(6) -0.267(3)
N4 N 1.0363(3) 0.1629(7) 0.651(3)
C1 C 0.8424(3) 0.2542(6) 0.460(3)
C2 C 0.8690(3) 0.2148(6) 0.365(3)
C3 C 0.8558(4) 0.1818(7) 0.212(4)
C4 C 0.8306(3) 0.2042(6) 0.056(3)
C5 C 0.8159(3) 0.1723(7) -0.097(3)
C6 C 0.8259(4) 0.1164(6) -0.117(3)
C7 C 0.8535(4) 0.0930(6) 0.029(3)
C8 C 0.8671(4) 0.1250(6) 0.180(3)
C9 C 0.9136(4) 0.2023(6) 0.454(3)
C10 C 0.9201(4) 0.1926(6) 0.643(3)
C11 C 0.9607(4) 0.1798(6) 0.713(3)
C12 C 0.9967(4) 0.1777(6) 0.575(4)
C13 C 0.9884(4) 0.1887(7) 0.397(4)
C14 C 0.9484(5) 0.2026(7) 0.323(4)
C15 C 0.8561(3) 0.2974(6) 0.607(3)
C16 C 0.8346(3) 0.3539(5) 0.572(3)
C17 C 0.7869(3) 0.3470(5) 0.556(3)
C18 C 0.7713(3) 0.2950(6) 0.488(3)
C19 C 0.7973(3) 0.2553(5) 0.426(3)
C20 C 0.7607(3) 0.3915(5) 0.610(3)
C21 C 0.7763(4) 0.4444(7) 0.675(3)
C22 C 0.7148(4) 0.3852(5) 0.596(3)
C23 C 0.7825(4) 0.1059(6) -0.408(4)
C24 C 0.8259(5) 0.0237(7) -0.286(4)
C25 C 1.0738(4) 0.1683(8) 0.519(4)
C26 C 1.0434(5) 0.1471(9) 0.843(4)
H1 H 0.8235 0.2436 0.0538
H2 H 0.7981 0.1888 -0.1949
H3 H 0.8627 0.0544 0.0218
H4 H 0.8861 0.1059 0.2669
H5 H 0.8962 0.1926 0.7299
H6 H 0.9646 0.1740 0.8484
H7 H 1.0112 0.1889 0.3038
H8 H 0.9431 0.2111 0.1894
H9 H 0.8473 0.2847 0.7321
H10 H 0.8867 0.3011 0.6045
H11 H 0.8413 0.3795 0.6748
H12 H 0.8455 0.3684 0.4530
H13 H 0.7410 0.2880 0.4850
H14 H 0.7843 0.2248 0.3568
H15 H 0.7761 0.0781 -0.5044
H16 H 0.7952 0.1383 -0.4686
H17 H 0.7566 0.1169 -0.3439
H18 H 0.8131 0.0083 -0.3997
H19 H 0.8165 0.0027 -0.1751
H20 H 0.8565 0.0214 -0.2956
H21 H 1.0995 0.1563 0.5831
H22 H 1.0762 0.2075 0.4860
H23 H 1.0697 0.1464 0.4045
H24 H 1.0730 0.1373 0.8598
H25 H 1.0258 0.1157 0.8803
H26 H 1.0367 0.1791 0.9222
loop_
_geom_bond_atom_site_label_1
_geom_bond_atom_site_label_2
_geom_bond_site_symmetry_1
_geom_bond_site_symmetry_2
N1 C21 1_555 1_555
N2 C22 1_555 1_555
N3 C6 1_555 1_555
N4 C12 1_555 1_555
C1 C2 1_555 1_555
C2 C3 1_555 1_555
C3 C4 1_555 1_555
C4 C5 1_555 1_555
C5 C6 1_555 1_555
C6 C7 1_555 1_555
C7 C8 1_555 1_555
C8 C3 1_555 1_555
C9 C2 1_555 1_555
C10 C9 1_555 1_555
C11 C10 1_555 1_555
C12 C11 1_555 1_555
C13 C12 1_555 1_555
C14 C9 1_555 1_555
C15 C1 1_555 1_555
C16 C15 1_555 1_555
C17 C16 1_555 1_555
C18 C17 1_555 1_555
C19 C1 1_555 1_555
C20 C17 1_555 1_555
C21 C20 1_555 1_555
C22 C20 1_555 1_555
C23 N3 1_555 1_555
C24 N3 1_555 1_555
C25 N4 1_555 1_555
C26 N4 1_555 1_555
H1 C4 1_555 1_555
H2 C5 1_555 1_555
H3 C7 1_555 1_555
H4 C8 1_555 1_555
H5 C10 1_555 1_555
H6 C11 1_555 1_555
H7 C13 1_555 1_555
H8 C14 1_555 1_555
H9 C15 1_555 1_555
H10 C15 1_555 1_555
H11 C16 1_555 1_555
H12 C16 1_555 1_555
H13 C18 1_555 1_555
H14 C19 1_555 1_555
H15 C23 1_555 1_555
H16 C23 1_555 1_555
H17 C23 1_555 1_555
H18 C24 1_555 1_555
H19 C24 1_555 1_555
H20 C24 1_555 1_555
H21 C25 1_555 1_555
H22 C25 1_555 1_555
H23 C25 1_555 1_555
H24 C26 1_555 1_555
H25 C26 1_555 1_555
H26 C26 1_555 1_555
C13 C14 1_555 1_555
C18 C19 1_555 1_555

#END
