
#######################################################################
#
#                 Cambridge Crystallographic Data Centre
#                                CCDC 
#
#######################################################################
#
# If this CIF has been generated from an entry in the Cambridge 
# Structural Database, then it will include bibliographic, chemical, 
# crystal, experimental, refinement or atomic coordinate data resulting 
# from the CCDC's data processing and validation procedures.
#
#######################################################################

data_DIXWEM
_chemical_formula_moiety         'C48 H51 N3 O9 S3,2(C7 H8)'
_chemical_name_systematic        
"N,N',N''-Tri-p-tosyl-2,11,20-triaza-9,18,27-trimethoxy(3.3.3)(2,6)cyclophane toluene solvate"
_symmetry_cell_setting           monoclinic
_symmetry_space_group_name_H-M   'C 2/c'
_symmetry_Int_Tables_number      15
_space_group_name_Hall           '-C 2yn'
loop_
_symmetry_equiv_pos_site_id
_symmetry_equiv_pos_as_xyz
1 x,y,z
2 1/2+x,1/2+y,z
3 -x,y,1/2-z
4 1/2-x,1/2+y,1/2-z
5 -x,-y,-z
6 1/2-x,1/2-y,-z
7 x,-y,1/2+z
8 1/2+x,1/2-y,1/2+z
_cell_length_a                   24.198(8)
_cell_length_b                   18.062(5)
_cell_length_c                   25.609(9)
_cell_angle_alpha                90
_cell_angle_beta                 95.03(2)
_cell_angle_gamma                90
_cell_volume                     11149.7
_exptl_crystal_colour            colorless
_exptl_crystal_description       blocks
_cell_formula_units_Z            8
loop_
_atom_site_label
_atom_site_type_symbol
_atom_site_fract_x
_atom_site_fract_y
_atom_site_fract_z
N1 N 0.43513(16) 0.1352(2) 0.35759(15)
C1 C 0.3878(2) 0.0950(3) 0.3295(2)
H1 H 0.3577 0.0893 0.3530
H2 H 0.4000 0.0449 0.3198
C2 C 0.3661(2) 0.1367(3) 0.2805(2)
C3 C 0.3146(2) 0.1735(3) 0.27686(19)
C4 C 0.29498(19) 0.2097(3) 0.23146(19)
C5 C 0.3272(2) 0.2100(3) 0.1890(2)
H3 H 0.3144 0.2353 0.1578
C6 C 0.3780(2) 0.1735(3) 0.1919(2)
H4 H 0.3996 0.1734 0.1627
C7 C 0.3966(2) 0.1376(3) 0.2376(2)
H5 H 0.4314 0.1130 0.2395
C8 C 0.23842(19) 0.2460(3) 0.2261(2)
H6 H 0.2150 0.2216 0.1975
H7 H 0.2204 0.2388 0.2590
O1 O 0.28431(14) 0.17601(19) 0.32032(13)
C9 C 0.2465(2) 0.1156(3) 0.3240(2)
H8 H 0.2267 0.1214 0.3555
H9 H 0.2672 0.0689 0.3260
H10 H 0.2198 0.1151 0.2930
S1 S 0.48200(5) 0.08345(7) 0.38951(5)
O2 O 0.52462(15) 0.1333(2) 0.41061(16)
O3 O 0.49518(16) 0.0256(2) 0.35478(16)
C10 C 0.4502(2) 0.0450(3) 0.4420(2)
C11 C 0.4548(2) 0.0808(3) 0.4902(2)
H11 H 0.4782 0.1228 0.4958
C12 C 0.4252(3) 0.0545(4) 0.5297(2)
H12 H 0.4281 0.0790 0.5627
C13 C 0.3916(2) -0.0062(4) 0.5227(2)
C14 C 0.3882(2) -0.0424(3) 0.4743(3)
H13 H 0.3656 -0.0852 0.4693
C15 C 0.4169(2) -0.0177(3) 0.4339(2)
H14 H 0.4142 -0.0427 0.4011
C16 C 0.3587(3) -0.0346(5) 0.5667(3)
H15 H 0.3814 -0.0699 0.5882
H16 H 0.3249 -0.0592 0.5516
H17 H 0.3487 0.0071 0.5885
N2 N 0.24165(15) 0.3260(2) 0.21497(15)
C17 C 0.2658(2) 0.3702(3) 0.26019(19)
H18 H 0.2830 0.3359 0.2871
H19 H 0.2355 0.3967 0.2758
C18 C 0.30884(18) 0.4259(3) 0.24649(18)
C19 C 0.32599(18) 0.4800(3) 0.28340(18)
C20 C 0.37057(19) 0.5266(3) 0.27657(19)
C21 C 0.3951(2) 0.5226(3) 0.22976(19)
H20 H 0.4249 0.5549 0.2239
C22 C 0.3768(2) 0.4723(3) 0.1915(2)
H21 H 0.3932 0.4712 0.1591
C23 C 0.3345(2) 0.4233(3) 0.20023(19)
H22 H 0.3229 0.3876 0.1743
C24 C 0.3931(2) 0.5784(3) 0.3194(2)
H23 H 0.4048 0.6254 0.3038
H24 H 0.3639 0.5897 0.3428
O4 O 0.29918(13) 0.48456(19) 0.32910(12)
C25 C 0.2530(2) 0.5353(3) 0.3251(2)
H25 H 0.2363 0.5368 0.3586
H26 H 0.2253 0.5187 0.2974
H27 H 0.2661 0.5848 0.3167
S2 S 0.18479(5) 0.36171(7) 0.18453(5)
O5 O 0.19681(14) 0.43803(19) 0.17579(15)
O6 O 0.16934(15) 0.3142(2) 0.14111(13)
C26 C 0.13319(19) 0.3573(3) 0.2286(2)
C27 C 0.1069(2) 0.2907(3) 0.2362(2)
H28 H 0.1150 0.2485 0.2161
C28 C 0.0691(2) 0.2857(3) 0.2730(2)
H29 H 0.0514 0.2397 0.2785
C29 C 0.0562(2) 0.3474(3) 0.3023(2)
C30 C 0.0818(2) 0.4144(3) 0.2934(2)
H30 H 0.0728 0.4571 0.3126
C31 C 0.1204(2) 0.4192(3) 0.2567(2)
H31 H 0.1380 0.4651 0.2508
C32 C 0.0157(3) 0.3410(4) 0.3437(3)
H32 H 0.0344 0.3194 0.3756
H33 H -0.0154 0.3092 0.3308
H34 H 0.0016 0.3903 0.3516
N3 N 0.44141(16) 0.5435(2) 0.35007(15)
C33 C 0.42899(19) 0.4794(3) 0.38222(19)
H35 H 0.3884 0.4766 0.3843
H36 H 0.4466 0.4868 0.4182
C34 C 0.44886(18) 0.4069(2) 0.36124(17)
C35 C 0.42772(18) 0.3407(3) 0.37909(17)
C36 C 0.44488(19) 0.2722(3) 0.36217(18)
C37 C 0.4868(2) 0.2702(3) 0.32853(19)
H37 H 0.4998 0.2239 0.3170
C38 C 0.5097(2) 0.3353(3) 0.3116(2)
H38 H 0.5391 0.3334 0.2894
C39 C 0.4900(2) 0.4031(3) 0.32693(19)
H39 H 0.5048 0.4474 0.3138
C40 C 0.4206(2) 0.2039(3) 0.3839(2)
H40 H 0.4334 0.2001 0.4216
H41 H 0.3797 0.2089 0.3811
O7 O 0.39124(14) 0.34404(18) 0.41826(13)
C41 C 0.3345(2) 0.3428(3) 0.4011(2)
H42 H 0.3125 0.3447 0.4315
H43 H 0.3258 0.2971 0.3814
H44 H 0.3254 0.3856 0.3785
S3 S 0.49118(5) 0.59848(7) 0.37442(5)
O8 O 0.53668(14) 0.5515(2) 0.39244(15)
O9 O 0.49826(16) 0.6535(2) 0.33545(14)
C42 C 0.46727(19) 0.6409(3) 0.4297(2)
C43 C 0.4323(2) 0.7021(3) 0.4236(2)
H45 H 0.4243 0.7241 0.3901
C44 C 0.4093(2) 0.7303(3) 0.4671(2)
H46 H 0.3858 0.7724 0.4632
C45 C 0.4201(2) 0.6984(3) 0.5161(2)
C46 C 0.4569(2) 0.6399(3) 0.5219(2)
H47 H 0.4664 0.6193 0.5556
C47 C 0.4800(2) 0.6115(3) 0.4789(2)
H48 H 0.5051 0.5710 0.4832
C48 C 0.3919(3) 0.7269(4) 0.5626(3)
H49 H 0.4126 0.7102 0.5951
H50 H 0.3539 0.7078 0.5610
H51 H 0.3911 0.7811 0.5618
C49 C 0.3536(3) 0.7593(5) 0.0207(3)
H52 H 0.3642 0.7506 -0.0136
C50 C 0.3755(3) 0.7145(5) 0.0612(4)
H53 H 0.4001 0.6754 0.0543
C51 C 0.3619(4) 0.7261(5) 0.1103(4)
H54 H 0.3760 0.6947 0.1381
C52 C 0.3276(4) 0.7839(6) 0.1197(3)
H55 H 0.3192 0.7932 0.1547
C53 C 0.3049(3) 0.8285(5) 0.0803(4)
H56 H 0.2809 0.8679 0.0880
C54 C 0.3173(3) 0.8157(4) 0.0279(3)
C55 C 0.2912(4) 0.8609(6) -0.0169(5)
H57 H 0.3203 0.8847 -0.0352
H58 H 0.2673 0.8990 -0.0034
H59 H 0.2689 0.8287 -0.0412
C56 C 0.3217(3) 0.4407(4) -0.0310(3)
H60 H 0.3362 0.4383 -0.0643
C57 C 0.3399(4) 0.4967(5) 0.0040(4)
H61 H 0.3672 0.5306 -0.0057
C58 C 0.3200(4) 0.5039(6) 0.0508(3)
H62 H 0.3326 0.5425 0.0741
C59 C 0.2798(3) 0.4528(5) 0.0648(3)
H63 H 0.2648 0.4576 0.0977
C60 C 0.2620(3) 0.3961(5) 0.0316(3)
H64 H 0.2354 0.3615 0.0418
C61 C 0.2838(3) 0.3897(4) -0.0185(3)
C62 C 0.2657(4) 0.3295(5) -0.0537(4)
H65 H 0.2372 0.3476 -0.0801
H66 H 0.2503 0.2895 -0.0335
H67 H 0.2974 0.3107 -0.0710
loop_
_geom_bond_atom_site_label_1
_geom_bond_atom_site_label_2
_geom_bond_site_symmetry_1
_geom_bond_site_symmetry_2
N1 C1 1_555 1_555
C1 H1 1_555 1_555
H2 C1 1_555 1_555
C2 C1 1_555 1_555
C3 C2 1_555 1_555
C4 C3 1_555 1_555
C5 C4 1_555 1_555
H3 C5 1_555 1_555
C6 C5 1_555 1_555
H4 C6 1_555 1_555
C7 C2 1_555 1_555
H5 C7 1_555 1_555
C8 C4 1_555 1_555
H6 C8 1_555 1_555
H7 C8 1_555 1_555
O1 C3 1_555 1_555
C9 O1 1_555 1_555
H8 C9 1_555 1_555
H9 C9 1_555 1_555
H10 C9 1_555 1_555
S1 N1 1_555 1_555
O2 S1 1_555 1_555
O3 S1 1_555 1_555
C10 S1 1_555 1_555
C11 C10 1_555 1_555
H11 C11 1_555 1_555
C12 C11 1_555 1_555
H12 C12 1_555 1_555
C13 C12 1_555 1_555
C14 C13 1_555 1_555
H13 C14 1_555 1_555
C15 C10 1_555 1_555
H14 C15 1_555 1_555
C16 C13 1_555 1_555
H15 C16 1_555 1_555
H16 C16 1_555 1_555
H17 C16 1_555 1_555
N2 C8 1_555 1_555
C17 N2 1_555 1_555
H18 C17 1_555 1_555
H19 C17 1_555 1_555
C18 C17 1_555 1_555
C19 C18 1_555 1_555
C20 C19 1_555 1_555
C21 C20 1_555 1_555
H20 C21 1_555 1_555
C22 C21 1_555 1_555
H21 C22 1_555 1_555
C23 C18 1_555 1_555
H22 C23 1_555 1_555
C24 C20 1_555 1_555
H23 C24 1_555 1_555
H24 C24 1_555 1_555
O4 C19 1_555 1_555
C25 O4 1_555 1_555
H25 C25 1_555 1_555
H26 C25 1_555 1_555
H27 C25 1_555 1_555
S2 N2 1_555 1_555
O5 S2 1_555 1_555
O6 S2 1_555 1_555
C26 S2 1_555 1_555
C27 C26 1_555 1_555
H28 C27 1_555 1_555
C28 C27 1_555 1_555
H29 C28 1_555 1_555
C29 C28 1_555 1_555
C30 C29 1_555 1_555
H30 C30 1_555 1_555
C31 C26 1_555 1_555
H31 C31 1_555 1_555
C32 C29 1_555 1_555
H32 C32 1_555 1_555
H33 C32 1_555 1_555
H34 C32 1_555 1_555
N3 C24 1_555 1_555
C33 N3 1_555 1_555
H35 C33 1_555 1_555
H36 C33 1_555 1_555
C34 C33 1_555 1_555
C35 C34 1_555 1_555
C36 C35 1_555 1_555
C37 C36 1_555 1_555
H37 C37 1_555 1_555
C38 C37 1_555 1_555
H38 C38 1_555 1_555
C39 C34 1_555 1_555
H39 C39 1_555 1_555
C40 N1 1_555 1_555
H40 C40 1_555 1_555
H41 C40 1_555 1_555
O7 C35 1_555 1_555
C41 O7 1_555 1_555
H42 C41 1_555 1_555
H43 C41 1_555 1_555
H44 C41 1_555 1_555
S3 N3 1_555 1_555
O8 S3 1_555 1_555
O9 S3 1_555 1_555
C42 S3 1_555 1_555
C43 C42 1_555 1_555
H45 C43 1_555 1_555
C44 C43 1_555 1_555
H46 C44 1_555 1_555
C45 C44 1_555 1_555
C46 C45 1_555 1_555
H47 C46 1_555 1_555
C47 C42 1_555 1_555
H48 C47 1_555 1_555
C48 C45 1_555 1_555
H49 C48 1_555 1_555
H50 C48 1_555 1_555
H51 C48 1_555 1_555
C49 H52 1_555 1_555
C50 C49 1_555 1_555
H53 C50 1_555 1_555
C51 C50 1_555 1_555
H54 C51 1_555 1_555
C52 C51 1_555 1_555
H55 C52 1_555 1_555
C53 C52 1_555 1_555
H56 C53 1_555 1_555
C54 C49 1_555 1_555
C55 C54 1_555 1_555
H57 C55 1_555 1_555
H58 C55 1_555 1_555
H59 C55 1_555 1_555
C56 H60 1_555 1_555
C57 C56 1_555 1_555
H61 C57 1_555 1_555
C58 C57 1_555 1_555
H62 C58 1_555 1_555
C59 C58 1_555 1_555
H63 C59 1_555 1_555
C60 C59 1_555 1_555
H64 C60 1_555 1_555
C61 C56 1_555 1_555
C62 C61 1_555 1_555
H65 C62 1_555 1_555
H66 C62 1_555 1_555
H67 C62 1_555 1_555
C6 C7 1_555 1_555
C14 C15 1_555 1_555
C22 C23 1_555 1_555
C30 C31 1_555 1_555
C36 C40 1_555 1_555
C38 C39 1_555 1_555
C46 C47 1_555 1_555
C53 C54 1_555 1_555
C60 C61 1_555 1_555

#END
