
#######################################################################
#
#                 Cambridge Crystallographic Data Centre
#                                CCDC 
#
#######################################################################
#
# If this CIF has been generated from an entry in the Cambridge 
# Structural Database, then it will include bibliographic, chemical, 
# crystal, experimental, refinement or atomic coordinate data resulting 
# from the CCDC's data processing and validation procedures.
#
#######################################################################

data_DIXWIR
_chemical_formula_moiety         'C24 H30 N10 O3,0.3(H2 O1)'
_chemical_name_systematic        
"N-(2-(bis(2-(N'-(3-Pyridyl)ureido)ethyl)amino)ethyl)-N'-(3-pyridyl)urea hydrate"
_symmetry_cell_setting           monoclinic
_symmetry_space_group_name_H-M   'C 2/c'
_symmetry_Int_Tables_number      15
_space_group_name_Hall           '-C 2yn'
loop_
_symmetry_equiv_pos_site_id
_symmetry_equiv_pos_as_xyz
1 x,y,z
2 1/2+x,1/2+y,z
3 -x,y,1/2-z
4 1/2-x,1/2+y,1/2-z
5 -x,-y,-z
6 1/2-x,1/2-y,-z
7 x,-y,1/2+z
8 1/2+x,1/2-y,1/2+z
_cell_length_a                   25.496(2)
_cell_length_b                   9.7959(8)
_cell_length_c                   20.3394(16)
_cell_angle_alpha                90
_cell_angle_beta                 94.159(2)
_cell_angle_gamma                90
_cell_volume                     5066.52
_exptl_crystal_colour            colorless
_exptl_crystal_description       block
_chemical_melting_point          175deg.C
_cell_formula_units_Z            8
_exptl_crystal_recrystallization_method ethanol/water
loop_
_atom_site_label
_atom_site_type_symbol
_atom_site_fract_x
_atom_site_fract_y
_atom_site_fract_z
O1 O 0.17466(5) 0.41641(14) 0.08141(6)
O2 O 0.32530(5) 0.64436(15) 0.03046(6)
O3 O 0.00974(5) 0.65184(17) -0.03848(8)
N1 N 0.14277(9) 0.7772(2) 0.17253(13)
N2 N 0.08840(6) 0.46446(18) 0.09338(8)
H1 H 0.0566 0.4392 0.0830
N3 N 0.11109(6) 0.30323(18) 0.01946(8)
H2 H 0.0779 0.2873 0.0135
N4 N 0.38489(7) 0.6693(2) 0.22300(9)
N5 N 0.27308(6) 0.56648(18) 0.10897(7)
H3 H 0.2461 0.5172 0.1159
N6 N 0.25049(6) 0.52986(19) 0.00015(7)
H4 H 0.2239 0.4871 0.0139
N7 N -0.02991(8) 0.8689(4) 0.12756(11)
N8 N 0.06900(6) 0.80664(19) 0.00807(9)
H5 H 0.1001 0.8387 0.0046
N9 N 0.09383(7) 0.65212(19) -0.06654(9)
H6 H 0.1250 0.6825 -0.0564
N10 N 0.16939(6) 0.42109(17) -0.09169(7)
C1 C 0.11007(15) 0.7884(3) 0.21981(17)
H7 H 0.1149 0.8623 0.2483
C2 C 0.06962(12) 0.7003(4) 0.23041(12)
H8 H 0.0476 0.7151 0.2642
C3 C 0.06286(9) 0.5886(3) 0.18889(11)
H9 H 0.0364 0.5253 0.1948
C4 C 0.09625(7) 0.5727(2) 0.13829(10)
C5 C 0.13470(8) 0.6701(2) 0.13266(12)
H10 H 0.1567 0.6603 0.0984
C6 C 0.12766(7) 0.3965(2) 0.06497(9)
C7 C 0.14630(8) 0.2288(2) -0.01984(10)
H11 H 0.1358 0.1336 -0.0215
H12 H 0.1816 0.2332 0.0014
C8 C 0.14734(8) 0.2824(2) -0.08953(10)
H13 H 0.1682 0.2214 -0.1147
H14 H 0.1118 0.2830 -0.1101
C9 C 0.35881(10) 0.7312(3) 0.26910(11)
H15 H 0.3782 0.7699 0.3049
C10 C 0.30546(10) 0.7410(3) 0.26663(11)
H16 H 0.2891 0.7834 0.3005
C11 C 0.27590(9) 0.6871(3) 0.21312(10)
H17 H 0.2394 0.6937 0.2100
C12 C 0.30179(7) 0.6235(2) 0.16451(9)
C13 C 0.35612(8) 0.6158(2) 0.17204(10)
H18 H 0.3735 0.5709 0.1397
C14 C 0.28518(7) 0.5842(2) 0.04477(9)
C15 C 0.25496(8) 0.5387(2) -0.07006(9)
H19 H 0.2917 0.5358 -0.0796
H20 H 0.2401 0.6241 -0.0868
C16 C 0.22557(8) 0.4194(2) -0.10292(10)
H21 H 0.2296 0.4222 -0.1500
H22 H 0.2409 0.3347 -0.0859
C17 C -0.01439(10) 0.9930(4) 0.14929(14)
H23 H -0.0330 1.0355 0.1812
C18 C 0.02733(10) 1.0582(3) 0.12634(13)
H24 H 0.0373 1.1438 0.1425
C19 C 0.05484(9) 0.9960(3) 0.07865(12)
H25 H 0.0837 1.0397 0.0627
C20 C 0.03967(7) 0.8696(2) 0.05461(10)
C21 C -0.00296(8) 0.8092(3) 0.08171(11)
H26 H -0.0133 0.7226 0.0672
C22 C 0.05452(8) 0.7000(2) -0.03291(11)
C23 C 0.08697(8) 0.5524(2) -0.11890(11)
H27 H 0.0664 0.5919 -0.1561
H28 H 0.0680 0.4741 -0.1036
C24 C 0.13981(8) 0.5069(2) -0.14037(10)
H29 H 0.1344 0.4566 -0.1814
H30 H 0.1606 0.5871 -0.1489
O4 O 0.0000 0.7113(5) -0.2500
loop_
_geom_bond_atom_site_label_1
_geom_bond_atom_site_label_2
_geom_bond_site_symmetry_1
_geom_bond_site_symmetry_2
O1 C6 1_555 1_555
O2 C14 1_555 1_555
O3 C22 1_555 1_555
N1 C1 1_555 1_555
N2 H1 1_555 1_555
N3 H2 1_555 1_555
N4 C9 1_555 1_555
N5 H3 1_555 1_555
N6 H4 1_555 1_555
N7 C17 1_555 1_555
N8 H5 1_555 1_555
N9 H6 1_555 1_555
N10 C8 1_555 1_555
C1 H7 1_555 1_555
C2 C1 1_555 1_555
H8 C2 1_555 1_555
C3 C2 1_555 1_555
H9 C3 1_555 1_555
C4 N2 1_555 1_555
C5 N1 1_555 1_555
H10 C5 1_555 1_555
C6 N2 1_555 1_555
C7 N3 1_555 1_555
H11 C7 1_555 1_555
H12 C7 1_555 1_555
C8 C7 1_555 1_555
H13 C8 1_555 1_555
H14 C8 1_555 1_555
C9 H15 1_555 1_555
C10 C9 1_555 1_555
H16 C10 1_555 1_555
C11 C10 1_555 1_555
H17 C11 1_555 1_555
C12 N5 1_555 1_555
C13 N4 1_555 1_555
H18 C13 1_555 1_555
C14 N5 1_555 1_555
C15 N6 1_555 1_555
H19 C15 1_555 1_555
H20 C15 1_555 1_555
C16 N10 1_555 1_555
H21 C16 1_555 1_555
H22 C16 1_555 1_555
C17 H23 1_555 1_555
C18 C17 1_555 1_555
H24 C18 1_555 1_555
C19 C18 1_555 1_555
H25 C19 1_555 1_555
C20 N8 1_555 1_555
C21 N7 1_555 1_555
H26 C21 1_555 1_555
C22 N8 1_555 1_555
C23 N9 1_555 1_555
H27 C23 1_555 1_555
H28 C23 1_555 1_555
C24 N10 1_555 1_555
H29 C24 1_555 1_555
H30 C24 1_555 1_555
N3 C6 1_555 1_555
N6 C14 1_555 1_555
N9 C22 1_555 1_555
C3 C4 1_555 1_555
C4 C5 1_555 1_555
C11 C12 1_555 1_555
C12 C13 1_555 1_555
C15 C16 1_555 1_555
C19 C20 1_555 1_555
C20 C21 1_555 1_555
C23 C24 1_555 1_555

#END
