
#######################################################################
#
#                 Cambridge Crystallographic Data Centre
#                                CCDC 
#
#######################################################################
#
# If this CIF has been generated from an entry in the Cambridge 
# Structural Database, then it will include bibliographic, chemical, 
# crystal, experimental, refinement or atomic coordinate data resulting 
# from the CCDC's data processing and validation procedures.
#
#######################################################################

data_DIYYOA
_chemical_formula_moiety         'C13 H15 Cl1 O2'
_chemical_name_systematic        3-(1-(4-Chlorophenyl)ethyl)pentane-2,4-dione
_symmetry_cell_setting           orthorhombic
_symmetry_space_group_name_H-M   'P 21 21 21'
_symmetry_Int_Tables_number      19
_space_group_name_Hall           'P 2ac 2ab'
loop_
_symmetry_equiv_pos_site_id
_symmetry_equiv_pos_as_xyz
1 x,y,z
2 1/2-x,-y,1/2+z
3 1/2+x,1/2-y,-z
4 -x,1/2+y,1/2-z
_cell_length_a                   5.3281(2)
_cell_length_b                   8.3677(3)
_cell_length_c                   28.9434(13)
_cell_angle_alpha                90
_cell_angle_beta                 90
_cell_angle_gamma                90
_cell_volume                     1290.41
_exptl_crystal_colour            colorless
_exptl_crystal_description       irregular
_cell_formula_units_Z            4
loop_
_atom_site_label
_atom_site_type_symbol
_atom_site_fract_x
_atom_site_fract_y
_atom_site_fract_z
Cl1 Cl 0.7667(2) 0.57423(12) 0.43369(3)
O1 O 1.1826(4) 0.6303(3) 0.65479(9)
O2 O 1.0204(7) 0.3535(5) 0.72586(9)
C1 C 0.9599(7) 0.6418(4) 0.65942(9)
C2 C 0.7959(7) 0.4951(4) 0.66817(10)
C3 C 0.8436(7) 0.4371(5) 0.71707(11)
C4 C 0.8336(7) 0.7988(4) 0.65813(12)
H1 H 0.9575 0.8821 0.6577
H2 H 0.7295 0.8104 0.6850
H3 H 0.7318 0.8058 0.6308
C5 C 0.6692(7) 0.4962(5) 0.75344(12)
H4 H 0.6995 0.4394 0.7817
H5 H 0.4990 0.4790 0.7438
H6 H 0.6966 0.6083 0.7583
C6 C 0.8431(7) 0.3631(4) 0.63258(11)
C7 C 0.6666(9) 0.2217(4) 0.63996(13)
H7 H 0.4963 0.2557 0.6353
H8 H 0.6857 0.1820 0.6709
H9 H 0.7067 0.1386 0.6183
C8 C 0.8254(5) 0.4213(3) 0.58319(10)
C9 C 0.9983(6) 0.3717(4) 0.55078(11)
C10 C 0.9815(7) 0.4160(4) 0.50486(11)
C11 C 0.7905(7) 0.5132(3) 0.49117(10)
C12 C 0.6142(7) 0.5651(4) 0.52238(12)
C13 C 0.6335(7) 0.5173(4) 0.56806(11)
H10 H 0.619(6) 0.511(3) 0.6646(9)
H11 H 1.026(8) 0.324(4) 0.6396(12)
H12 H 1.133(6) 0.304(3) 0.5594(10)
H13 H 1.111(7) 0.383(4) 0.4851(12)
H14 H 0.484(6) 0.621(4) 0.5127(10)
H15 H 0.512(5) 0.543(3) 0.5895(10)
loop_
_geom_bond_atom_site_label_1
_geom_bond_atom_site_label_2
_geom_bond_site_symmetry_1
_geom_bond_site_symmetry_2
Cl1 C11 1_555 1_555
O1 C1 1_555 1_555
O2 C3 1_555 1_555
C1 C2 1_555 1_555
C2 C3 1_555 1_555
C3 C5 1_555 1_555
C4 C1 1_555 1_555
H1 C4 1_555 1_555
H2 C4 1_555 1_555
H3 C4 1_555 1_555
C5 H4 1_555 1_555
H5 C5 1_555 1_555
H6 C5 1_555 1_555
C6 C2 1_555 1_555
C7 C6 1_555 1_555
H7 C7 1_555 1_555
H8 C7 1_555 1_555
H9 C7 1_555 1_555
C8 C6 1_555 1_555
C9 C8 1_555 1_555
C10 C9 1_555 1_555
C11 C10 1_555 1_555
C12 C11 1_555 1_555
C13 C8 1_555 1_555
H10 C2 1_555 1_555
H11 C6 1_555 1_555
H12 C9 1_555 1_555
H13 C10 1_555 1_555
H14 C12 1_555 1_555
H15 C13 1_555 1_555
C12 C13 1_555 1_555

#END
