
#######################################################################
#
#                 Cambridge Crystallographic Data Centre
#                                CCDC 
#
#######################################################################
#
# If this CIF has been generated from an entry in the Cambridge 
# Structural Database, then it will include bibliographic, chemical, 
# crystal, experimental, refinement or atomic coordinate data resulting 
# from the CCDC's data processing and validation procedures.
#
#######################################################################

data_DIYZIV
_chemical_formula_moiety         'C23 H19 Cl1 O2'
_chemical_name_systematic        
2-(1-(2-Chlorophenyl)ethyl)-1,3-diphenylpropane-1,3-dione
_symmetry_cell_setting           monoclinic
_symmetry_space_group_name_H-M   'P 21/a'
_symmetry_Int_Tables_number      14
_space_group_name_Hall           '-P 2yab'
loop_
_symmetry_equiv_pos_site_id
_symmetry_equiv_pos_as_xyz
1 x,y,z
2 1/2-x,1/2+y,-z
3 -x,-y,-z
4 1/2+x,1/2-y,z
_cell_length_a                   11.1539(3)
_cell_length_b                   16.3314(6)
_cell_length_c                   11.4618(3)
_cell_angle_alpha                90
_cell_angle_beta                 114.694(1)
_cell_angle_gamma                90
_cell_volume                     1896.94
_exptl_crystal_colour            colorless
_exptl_crystal_description       irregular
_cell_formula_units_Z            4
loop_
_atom_site_label
_atom_site_type_symbol
_atom_site_fract_x
_atom_site_fract_y
_atom_site_fract_z
Cl1 Cl 0.44597(10) 0.09452(6) 0.56327(8)
O1 O 0.35410(18) 0.31570(10) 0.71276(14)
O2 O 0.63517(13) 0.27556(9) 0.97480(14)
C1 C 0.36895(18) 0.30826(12) 0.82310(18)
C2 C 0.41540(17) 0.22681(11) 0.89360(16)
C3 C 0.55281(17) 0.24111(11) 1.00151(17)
C4 C 0.34804(17) 0.37954(11) 0.89391(18)
C5 C 0.35324(19) 0.37349(13) 1.0168(2)
C6 C 0.3410(2) 0.44330(15) 1.0800(3)
C7 C 0.3243(2) 0.51841(16) 1.0217(3)
C8 C 0.3165(3) 0.52470(15) 0.9000(3)
C9 C 0.3275(2) 0.45591(13) 0.8361(3)
C10 C 0.58595(17) 0.21369(11) 1.13534(17)
C11 C 0.5032(2) 0.16451(14) 1.16821(19)
C12 C 0.5395(3) 0.14051(18) 1.2944(2)
C13 C 0.6572(3) 0.1665(2) 1.3881(3)
C14 C 0.7397(3) 0.21500(19) 1.3567(3)
C15 C 0.7062(2) 0.23813(15) 1.2312(2)
C16 C 0.42589(19) 0.15901(12) 0.80405(18)
C17 C 0.4775(3) 0.07903(14) 0.8781(2)
C18 C 0.2979(2) 0.14125(12) 0.68925(18)
C19 C 0.1747(2) 0.15043(15) 0.6908(2)
C20 C 0.0590(3) 0.1287(2) 0.5882(2)
C21 C 0.0628(4) 0.0978(2) 0.4793(3)
C22 C 0.1803(5) 0.0885(2) 0.4724(3)
C23 C 0.2979(3) 0.10936(15) 0.5766(2)
H1 H 0.3545(18) 0.2124(11) 0.9276(17)
H2 H 0.3629(18) 0.3205(13) 1.0567(18)
H3 H 0.344(3) 0.4351(16) 1.161(3)
H4 H 0.317(2) 0.5660(17) 1.066(2)
H5 H 0.306(3) 0.5791(18) 0.858(3)
H6 H 0.322(2) 0.4597(16) 0.750(2)
H7 H 0.419(2) 0.1483(14) 1.104(2)
H8 H 0.476(3) 0.1089(17) 1.314(3)
H9 H 0.682(3) 0.1490(18) 1.475(3)
H10 H 0.817(3) 0.2308(17) 1.416(3)
H11 H 0.763(2) 0.2706(15) 1.205(2)
H12 H 0.490(2) 0.1788(12) 0.7717(18)
H13 H 0.566(3) 0.0866(16) 0.952(3)
H14 H 0.482(2) 0.0391(16) 0.821(2)
H15 H 0.413(2) 0.0567(14) 0.913(2)
H16 H 0.1707(19) 0.1723(13) 0.766(2)
H17 H -0.025(3) 0.137(2) 0.597(3)
H18 H -0.029(4) 0.084(2) 0.405(3)
H19 H 0.199(3) 0.070(2) 0.408(3)
loop_
_geom_bond_atom_site_label_1
_geom_bond_atom_site_label_2
_geom_bond_site_symmetry_1
_geom_bond_site_symmetry_2
Cl1 C23 1_555 1_555
O1 C1 1_555 1_555
O2 C3 1_555 1_555
C1 C2 1_555 1_555
C2 C3 1_555 1_555
C3 C10 1_555 1_555
C4 C1 1_555 1_555
C5 C4 1_555 1_555
C6 C5 1_555 1_555
C7 C6 1_555 1_555
C8 C7 1_555 1_555
C9 C4 1_555 1_555
C10 C11 1_555 1_555
C11 C12 1_555 1_555
C12 C13 1_555 1_555
C13 C14 1_555 1_555
C14 C15 1_555 1_555
C15 C10 1_555 1_555
C16 C2 1_555 1_555
C17 C16 1_555 1_555
C18 C16 1_555 1_555
C19 C18 1_555 1_555
C20 C19 1_555 1_555
C21 C20 1_555 1_555
C22 C21 1_555 1_555
C23 C18 1_555 1_555
H1 C2 1_555 1_555
H2 C5 1_555 1_555
H3 C6 1_555 1_555
H4 C7 1_555 1_555
H5 C8 1_555 1_555
H6 C9 1_555 1_555
H7 C11 1_555 1_555
H8 C12 1_555 1_555
H9 C13 1_555 1_555
H10 C14 1_555 1_555
H11 C15 1_555 1_555
H12 C16 1_555 1_555
H13 C17 1_555 1_555
H14 C17 1_555 1_555
H15 C17 1_555 1_555
H16 C19 1_555 1_555
H17 C20 1_555 1_555
H18 C21 1_555 1_555
H19 C22 1_555 1_555
C8 C9 1_555 1_555
C22 C23 1_555 1_555

#END
