
#######################################################################
#
#                 Cambridge Crystallographic Data Centre
#                                CCDC 
#
#######################################################################
#
# If this CIF has been generated from an entry in the Cambridge 
# Structural Database, then it will include bibliographic, chemical, 
# crystal, experimental, refinement or atomic coordinate data resulting 
# from the CCDC's data processing and validation procedures.
#
#######################################################################

data_DIZJOM
_chemical_compound_source        'aerial parts of Dracocephalum rupestre'
_chemical_formula_moiety         'C19 H17 N1 O6,H2 O1'
_chemical_name_systematic        "(2R,5''S)-Dracocephin A1 monohydrate"
_chemical_properties_biological  
'parent plant is used in Chinese medicine as a treatment for colds, coughs, icterohepatitis and laryngalgia'
_symmetry_cell_setting           monoclinic
_symmetry_space_group_name_H-M   'P 21'
_symmetry_Int_Tables_number      4
_space_group_name_Hall           'P 2yb'
loop_
_symmetry_equiv_pos_site_id
_symmetry_equiv_pos_as_xyz
1 x,y,z
2 -x,1/2+y,-z
_cell_length_a                   4.9247(6)
_cell_length_b                   9.6056(12)
_cell_length_c                   18.010(2)
_cell_angle_alpha                90
_cell_angle_beta                 92.139(5)
_cell_angle_gamma                90
_cell_volume                     851.364
_exptl_crystal_colour            colorless
_exptl_crystal_description       plate
_cell_formula_units_Z            2
_exptl_crystal_recrystallization_method methanol/water
loop_
_atom_site_label
_atom_site_type_symbol
_atom_site_fract_x
_atom_site_fract_y
_atom_site_fract_z
C1 C 0.413(2) 0.6964(12) 0.5855(3)
C2 C 0.258(5) 0.5957(16) 0.5482(6)
H1 H 0.1855 0.5218 0.5744
C3 C 0.210(4) 0.6055(16) 0.4718(6)
H2 H 0.1059 0.5381 0.4469
C4 C 0.318(2) 0.7160(14) 0.4327(3)
C5 C 0.473(4) 0.8166(19) 0.4699(5)
H3 H 0.5449 0.8906 0.4437
C6 C 0.521(4) 0.8068(17) 0.5463(5)
H4 H 0.6245 0.8742 0.5712
O1 O 0.0983(13) 0.9131(7) 0.0929(3)
H5 H 0.0107 0.9507 0.1252
C7 C 0.2774(16) 0.8018(10) 0.2015(5)
O2 O 0.9132(13) 0.8775(8) -0.1383(3)
O3 O 0.8131(12) 0.5904(7) 0.0723(3)
H6 H 0.9147 0.6467 0.0533
C8 C 0.4595(17) 0.7073(10) 0.2347(5)
C9 C 0.6379(19) 0.6356(10) 0.1913(5)
H7 H 0.7591 0.5721 0.2131
O4 O 0.4813(14) 0.6867(8) 0.3094(4)
C10 C 0.4527(16) 0.7531(9) 0.0786(4)
C11 C 0.6365(17) 0.6585(9) 0.1147(5)
C12 C 0.2778(16) 0.8191(8) 0.1254(5)
C13 C 0.5223(19) 0.7214(11) -0.1306(5)
H8 H 0.6016 0.6487 -0.1603
H9 H 0.3830 0.7693 -0.1603
C14 C 0.110(2) 0.8858(13) 0.2481(5)
C15 C 0.150(3) 0.8703(17) 0.3279(6)
H10 H -0.0206 0.8888 0.3515
H11 H 0.2815 0.9384 0.3460
C16 C 0.7377(18) 0.8221(10) -0.1009(4)
C17 C 0.4452(16) 0.7819(9) -0.0038(4)
H12 H 0.2999 0.8496 -0.0143
C18 C 0.246(2) 0.7289(19) 0.3488(5)
H13 H 0.0987 0.6630 0.3366
C19 C 0.4060(19) 0.6613(9) -0.0585(5)
H14 H 0.2154 0.6374 -0.0656
H15 H 0.5062 0.5795 -0.0417
O5 O 0.462(3) 0.6948(16) 0.6610(4)
H16 H 0.5057 0.7730 0.6752
N1 N 0.7039(15) 0.8432(8) -0.0296(4)
H19 H 0.8181 0.8874 -0.0011
O7 O -0.0534(17) 0.9744(9) 0.2212(4)
O6 O 0.921(2) 0.8197(16) 0.7102(4)
H17 H 0.958(16) 0.832(8) 0.7567(13)
H18 H 1.088(6) 0.807(11) 0.700(5)
loop_
_geom_bond_atom_site_label_1
_geom_bond_atom_site_label_2
_geom_bond_site_symmetry_1
_geom_bond_site_symmetry_2
C1 C2 1_555 1_555
C2 H1 1_555 1_555
C3 C2 1_555 1_555
H2 C3 1_555 1_555
C4 C3 1_555 1_555
C5 C4 1_555 1_555
H3 C5 1_555 1_555
C6 C1 1_555 1_555
H4 C6 1_555 1_555
O1 H5 1_555 1_555
C7 C8 1_555 1_555
O2 C16 1_555 1_555
O3 H6 1_555 1_555
C8 C9 1_555 1_555
C9 H7 1_555 1_555
O4 C8 1_555 1_555
C10 C11 1_555 1_555
C11 O3 1_555 1_555
C12 O1 1_555 1_555
C13 H8 1_555 1_555
H9 C13 1_555 1_555
C14 C7 1_555 1_555
C15 C14 1_555 1_555
H10 C15 1_555 1_555
H11 C15 1_555 1_555
C16 C13 1_555 1_555
C17 C10 1_555 1_555
H12 C17 1_555 1_555
C18 C4 1_555 1_555
H13 C18 1_555 1_555
C19 C13 1_555 1_555
H14 C19 1_555 1_555
H15 C19 1_555 1_555
O5 C1 1_555 1_555
H16 O5 1_555 1_555
O6 H17 1_555 1_555
H18 O6 1_555 1_555
N1 C16 1_555 1_555
H19 N1 1_555 1_555
O7 C14 1_555 1_555
C5 C6 1_555 1_555
C7 C12 1_555 1_555
C9 C11 1_555 1_555
O4 C18 1_555 1_555
C10 C12 1_555 1_555
C15 C18 1_555 1_555
C17 C19 1_555 1_555
C17 N1 1_555 1_555

#END
