
#######################################################################
#
#                 Cambridge Crystallographic Data Centre
#                                CCDC 
#
#######################################################################
#
# If this CIF has been generated from an entry in the Cambridge 
# Structural Database, then it will include bibliographic, chemical, 
# crystal, experimental, refinement or atomic coordinate data resulting 
# from the CCDC's data processing and validation procedures.
#
#######################################################################

data_DIZJUS
_chemical_compound_source        'fungus Stereum sp. CCTCC AF 207024'
_chemical_name_common            
(3aR*,5S*,5aR*,7S*,9aR*,9bS*)-5,8-dimethyl-1-methylene-1,2,3a,4,5,5a,6,7,9a,9b-decahydronaphtho(2,1-b)furan-3a,7,9b-triol
_chemical_formula_moiety         'C15 H22 O4'
_chemical_name_systematic        'Stereumin A'
_chemical_properties_biological  
'nematicidal activity against the nematode Panagrellus redivivus'
_symmetry_cell_setting           orthorhombic
_symmetry_space_group_name_H-M   'P 21 21 21'
_symmetry_Int_Tables_number      19
_space_group_name_Hall           'P 2ac 2ab'
loop_
_symmetry_equiv_pos_site_id
_symmetry_equiv_pos_as_xyz
1 x,y,z
2 1/2-x,-y,1/2+z
3 -x,1/2+y,1/2-z
4 1/2+x,1/2-y,-z
_cell_length_a                   6.7067(12)
_cell_length_b                   14.330(3)
_cell_length_c                   14.863(3)
_cell_angle_alpha                90
_cell_angle_beta                 90
_cell_angle_gamma                90
_cell_volume                     1428.44
_exptl_crystal_colour            colorless
_exptl_crystal_description       block
_cell_formula_units_Z            4
loop_
_atom_site_label
_atom_site_type_symbol
_atom_site_fract_x
_atom_site_fract_y
_atom_site_fract_z
C1 C -0.0626(5) 0.43825(18) 0.10882(17)
C2 C -0.2196(5) 0.39025(19) 0.0528(2)
H1 H -0.3518 0.4074 0.0734
H2 H -0.2065 0.4079 -0.0099
C3 C -0.0605(4) 0.27845(17) 0.14025(18)
C4 C -0.1843(5) 0.2762(2) 0.22568(19)
H3 H -0.2603 0.2186 0.2268
H4 H -0.2785 0.3275 0.2241
C5 C -0.0630(5) 0.28292(19) 0.31191(19)
H5 H 0.0270 0.2291 0.3142
C6 C 0.2005(5) 0.3825(2) 0.39136(19)
H6 H 0.1210 0.3787 0.4458
H7 H 0.2954 0.3314 0.3923
C7 C 0.3129(5) 0.4739(2) 0.3908(2)
H8 H 0.4221 0.4701 0.4345
C8 C 0.3985(5) 0.4978(2) 0.3003(2)
C9 C 0.3415(4) 0.45229(18) 0.2269(2)
H9 H 0.3952 0.4713 0.1721
C10 C 0.0648(5) 0.37175(17) 0.31011(17)
H10 H -0.0243 0.4259 0.3076
C11 C -0.0560(6) 0.52795(19) 0.1263(2)
H11 H -0.1536 0.5675 0.1034
H12 H 0.0464 0.5520 0.1615
C12 C -0.2019(6) 0.2778(3) 0.3939(2)
H13 H -0.2870 0.3316 0.3948
H14 H -0.1236 0.2761 0.4479
H15 H -0.2820 0.2224 0.3902
C13 C 0.5544(5) 0.5741(2) 0.2987(3)
H16 H 0.6793 0.5497 0.3197
H17 H 0.5130 0.6244 0.3371
H18 H 0.5698 0.5968 0.2383
C14 C 0.1963(4) 0.37220(17) 0.22570(17)
H19 H 0.2782 0.3157 0.2299
C15 C 0.0811(4) 0.36301(17) 0.13803(17)
O1 O 0.2212(3) 0.35237(12) 0.06560(12)
H20 H 0.2218 0.2979 0.0487
O2 O 0.0510(3) 0.19767(11) 0.12736(14)
H21 H -0.0242 0.1527 0.1232
O3 O 0.1800(4) 0.54813(14) 0.41753(14)
H22 H 0.2228 0.5731 0.4632
O4 O -0.1883(3) 0.29194(12) 0.06343(13)
loop_
_geom_bond_atom_site_label_1
_geom_bond_atom_site_label_2
_geom_bond_site_symmetry_1
_geom_bond_site_symmetry_2
C1 C2 1_555 1_555
C2 H1 1_555 1_555
H2 C2 1_555 1_555
C3 C4 1_555 1_555
C4 H3 1_555 1_555
H4 C4 1_555 1_555
C5 C4 1_555 1_555
H5 C5 1_555 1_555
C6 H6 1_555 1_555
H7 C6 1_555 1_555
C7 C6 1_555 1_555
H8 C7 1_555 1_555
C8 C7 1_555 1_555
C9 C8 1_555 1_555
H9 C9 1_555 1_555
C10 C5 1_555 1_555
H10 C10 1_555 1_555
C11 C1 1_555 1_555
H11 C11 1_555 1_555
H12 C11 1_555 1_555
C12 C5 1_555 1_555
H13 C12 1_555 1_555
H14 C12 1_555 1_555
H15 C12 1_555 1_555
C13 C8 1_555 1_555
H16 C13 1_555 1_555
H17 C13 1_555 1_555
H18 C13 1_555 1_555
C14 C9 1_555 1_555
H19 C14 1_555 1_555
C15 C1 1_555 1_555
O1 C15 1_555 1_555
H20 O1 1_555 1_555
O2 C3 1_555 1_555
H21 O2 1_555 1_555
O3 C7 1_555 1_555
H22 O3 1_555 1_555
O4 C2 1_555 1_555
C3 C15 1_555 1_555
C3 O4 1_555 1_555
C6 C10 1_555 1_555
C10 C14 1_555 1_555
C14 C15 1_555 1_555

#END
