
#######################################################################
#
#                 Cambridge Crystallographic Data Centre
#                                CCDC 
#
#######################################################################
#
# If this CIF has been generated from an entry in the Cambridge 
# Structural Database, then it will include bibliographic, chemical, 
# crystal, experimental, refinement or atomic coordinate data resulting 
# from the CCDC's data processing and validation procedures.
#
#######################################################################

data_DIZXER
_chemical_formula_moiety         'C15 H18 O2'
_chemical_name_systematic        
5-hydroxy-2-isopropyl-3-methyl-5-phenylcyclopent-2-en-1-one
_symmetry_cell_setting           orthorhombic
_symmetry_space_group_name_H-M   'P c c n'
_symmetry_Int_Tables_number      56
_space_group_name_Hall           '-P 2ab 2ac'
loop_
_symmetry_equiv_pos_site_id
_symmetry_equiv_pos_as_xyz
1 x,y,z
2 1/2-x,1/2-y,z
3 -x,1/2+y,1/2-z
4 1/2+x,-y,1/2-z
5 -x,-y,-z
6 1/2+x,1/2+y,-z
7 x,1/2-y,1/2+z
8 1/2-x,y,1/2+z
_cell_length_a                   16.9949(18)
_cell_length_b                   21.083(2)
_cell_length_c                   7.3381(8)
_cell_angle_alpha                90
_cell_angle_beta                 90
_cell_angle_gamma                90
_cell_volume                     2629.27
_exptl_crystal_colour            colorless
_exptl_crystal_description       prismatic
_cell_formula_units_Z            8
loop_
_atom_site_label
_atom_site_type_symbol
_atom_site_fract_x
_atom_site_fract_y
_atom_site_fract_z
O1 O 1.06285(7) 0.43711(6) 0.58186(16)
O2 O 0.92975(8) 0.49856(5) 0.75555(16)
H1 H 0.9416 0.5122 0.6546
C1 C 1.03066(9) 0.41989(7) 0.7210(2)
C2 C 1.06545(10) 0.38644(8) 0.8737(2)
C3 C 1.01152(10) 0.38005(8) 1.0045(2)
C4 C 0.93446(9) 0.40986(8) 0.9573(2)
H2 H 0.9233 0.4452 1.0379
H3 H 0.8921 0.3792 0.9672
C5 C 0.94336(9) 0.43256(7) 0.7614(2)
C6 C 0.89328(8) 0.39627(8) 0.6264(2)
C7 C 0.84469(9) 0.42698(9) 0.5059(2)
H4 H 0.8415 0.4710 0.5078
C8 C 0.80071(12) 0.39311(12) 0.3822(3)
H5 H 0.7681 0.4145 0.3012
C9 C 0.80426(13) 0.32898(13) 0.3768(3)
H6 H 0.7741 0.3065 0.2930
C10 C 0.85244(13) 0.29742(10) 0.4953(3)
H7 H 0.8552 0.2534 0.4922
C11 C 0.89694(11) 0.33086(8) 0.6196(2)
H8 H 0.9298 0.3092 0.6996
C12 C 1.02097(13) 0.34892(10) 1.1849(3)
H9 H 1.0751 0.3375 1.2023
H10 H 0.9889 0.3115 1.1895
H11 H 1.0050 0.3777 1.2793
C13 C 1.15053(12) 0.36712(10) 0.8774(3)
H12 H 1.1603 0.3459 0.9941
C14 C 1.16796(17) 0.31993(12) 0.7277(5)
H13 H 1.1347 0.2835 0.7418
H14 H 1.2221 0.3071 0.7349
H15 H 1.1582 0.3392 0.6114
C15 C 1.20429(12) 0.42417(12) 0.8676(3)
H16 H 1.1957 0.4462 0.7548
H17 H 1.2581 0.4105 0.8742
H18 H 1.1932 0.4521 0.9677
loop_
_geom_bond_atom_site_label_1
_geom_bond_atom_site_label_2
_geom_bond_site_symmetry_1
_geom_bond_site_symmetry_2
O1 C1 1_555 1_555
O2 H1 1_555 1_555
C1 C2 1_555 1_555
C2 C3 1_555 1_555
C3 C4 1_555 1_555
C4 H2 1_555 1_555
H3 C4 1_555 1_555
C5 O2 1_555 1_555
C6 C5 1_555 1_555
C7 C6 1_555 1_555
H4 C7 1_555 1_555
C8 C7 1_555 1_555
H5 C8 1_555 1_555
C9 C8 1_555 1_555
H6 C9 1_555 1_555
C10 C9 1_555 1_555
H7 C10 1_555 1_555
C11 C6 1_555 1_555
H8 C11 1_555 1_555
C12 C3 1_555 1_555
H9 C12 1_555 1_555
H10 C12 1_555 1_555
H11 C12 1_555 1_555
C13 C2 1_555 1_555
H12 C13 1_555 1_555
C14 C13 1_555 1_555
H13 C14 1_555 1_555
H14 C14 1_555 1_555
H15 C14 1_555 1_555
C15 C13 1_555 1_555
H16 C15 1_555 1_555
H17 C15 1_555 1_555
H18 C15 1_555 1_555
C1 C5 1_555 1_555
C4 C5 1_555 1_555
C10 C11 1_555 1_555

#END
