
#######################################################################
#
#                 Cambridge Crystallographic Data Centre
#                                CCDC 
#
#######################################################################
#
# If this CIF has been generated from an entry in the Cambridge 
# Structural Database, then it will include bibliographic, chemical, 
# crystal, experimental, refinement or atomic coordinate data resulting 
# from the CCDC's data processing and validation procedures.
#
#######################################################################

data_DMANAC
_chemical_formula_moiety         'C9 H11 N1 O2'
_chemical_name_systematic        'N,N-Dimethylanthranilic acid'
_symmetry_cell_setting           monoclinic
_symmetry_space_group_name_H-M   'P 21/n'
_symmetry_Int_Tables_number      14
_space_group_name_Hall           '-P 2yn'
loop_
_symmetry_equiv_pos_site_id
_symmetry_equiv_pos_as_xyz
1 x,y,z
2 1/2-x,1/2+y,1/2-z
3 -x,-y,-z
4 1/2+x,1/2-y,1/2+z
_cell_length_a                   7.66
_cell_length_b                   15.74
_cell_length_c                   7.58
_cell_angle_alpha                90
_cell_angle_beta                 100.0
_cell_angle_gamma                90
_cell_volume                     900.024
_cell_formula_units_Z            4
loop_
_atom_site_label
_atom_site_type_symbol
_atom_site_fract_x
_atom_site_fract_y
_atom_site_fract_z
C1 C -0.43620 0.12270 0.39380
C2 C -0.26870 0.11320 0.34550
C3 C -0.12080 0.15260 0.43580
C4 C -0.13850 0.20510 0.58240
C5 C -0.30230 0.21550 0.62920
C6 C -0.44710 0.17480 0.53800
C7 C -0.60100 0.07970 0.28960
C8 C -0.15430 -0.02020 0.24840
C9 C -0.17980 0.10440 0.04750
H1 H -0.00800 0.14600 0.41800
H2 H -0.21200 0.06900 -0.04900
H3 H -0.25900 0.15800 0.03500
H4 H 0.00900 0.23800 0.63300
H5 H -0.30900 0.26100 0.72900
H6 H -0.56700 0.17500 0.57500
H7 H -0.40500 0.05800 0.13600
H8 H -0.02700 -0.00100 0.30600
H9 H -0.22100 -0.04500 0.34000
H10 H -0.17300 -0.05900 0.13200
H11 H -0.06100 0.10600 0.08900
N1 N -0.25510 0.05880 0.19190
O1 O -0.74140 0.08980 0.34820
O2 O -0.58330 0.03980 0.15150
loop_
_geom_bond_atom_site_label_1
_geom_bond_atom_site_label_2
_geom_bond_site_symmetry_1
_geom_bond_site_symmetry_2
C1 C2 1_555 1_555
C2 C3 1_555 1_555
C3 C4 1_555 1_555
C4 C5 1_555 1_555
C5 C6 1_555 1_555
C6 C1 1_555 1_555
C7 C1 1_555 1_555
C8 H8 1_555 1_555
C9 H2 1_555 1_555
H1 C3 1_555 1_555
H3 C9 1_555 1_555
H4 C4 1_555 1_555
H5 C5 1_555 1_555
H6 C6 1_555 1_555
H7 N1 1_555 1_555
H9 C8 1_555 1_555
H10 C8 1_555 1_555
H11 C9 1_555 1_555
N1 C2 1_555 1_555
O1 C7 1_555 1_555
O2 C7 1_555 1_555
C8 N1 1_555 1_555
C9 N1 1_555 1_555

#END
