
#######################################################################
#
#                 Cambridge Crystallographic Data Centre
#                                CCDC 
#
#######################################################################
#
# If this CIF has been generated from an entry in the Cambridge 
# Structural Database, then it will include bibliographic, chemical, 
# crystal, experimental, refinement or atomic coordinate data resulting 
# from the CCDC's data processing and validation procedures.
#
#######################################################################

data_DMLYSD10
_chemical_name_common            'Demethyllyserdol monohydrate'
_chemical_formula_moiety         'C24 H27 N3 O2,H2 O1'
_chemical_name_systematic        
'8\b-(Benzyloxycarbonyl-aminomethyl)-6-methyl-10\a-ergoline monohydrate'
_symmetry_cell_setting           orthorhombic
_symmetry_space_group_name_H-M   'P 21 21 21'
_symmetry_Int_Tables_number      19
_space_group_name_Hall           'P 2ac 2ab'
loop_
_symmetry_equiv_pos_site_id
_symmetry_equiv_pos_as_xyz
1 x,y,z
2 1/2+x,1/2-y,-z
3 -x,1/2+y,1/2-z
4 1/2-x,-y,1/2+z
_cell_length_a                   18.737(3)
_cell_length_b                   13.248(2)
_cell_length_c                   8.903(2)
_cell_angle_alpha                90
_cell_angle_beta                 90
_cell_angle_gamma                90
_cell_volume                     2209.97
_cell_formula_units_Z            4
loop_
_atom_site_label
_atom_site_type_symbol
_atom_site_fract_x
_atom_site_fract_y
_atom_site_fract_z
N1 N -0.13740 0.22080 0.10650
C1 C -0.07350 0.18440 0.05230
C2 C -0.01820 0.22440 0.13170
C3 C 0.06120 0.21310 0.12950
C4 C 0.09200 0.24240 0.28590
N2 N 0.17130 0.24060 0.27840
C5 C 0.20360 0.27050 0.42300
C6 C 0.18130 0.37420 0.47470
C7 C 0.10040 0.37920 0.48680
C8 C 0.06620 0.34790 0.33830
C9 C -0.01490 0.35060 0.34500
C10 C -0.05820 0.40510 0.44040
C11 C -0.13290 0.40200 0.42560
C12 C -0.16730 0.34370 0.31590
C13 C -0.12390 0.28630 0.22210
C14 C -0.05000 0.29000 0.23750
C15 C 0.19940 0.13970 0.23940
C16 C 0.21770 0.39820 0.62350
N3 N 0.19490 0.49580 0.68560
C17 C 0.14920 0.50170 0.79890
O1 O 0.12630 0.43100 0.87220
O2 O 0.13010 0.59880 0.82440
C18 C 0.07920 0.61450 0.94570
C19 C 0.00410 0.58760 0.89310
C20 C -0.02890 0.50160 0.95120
C21 C -0.09850 0.47760 0.90870
C22 C -0.13510 0.53960 0.80810
C23 C -0.10210 0.62550 0.75000
C24 C -0.03250 0.64950 0.79250
H1 H -0.19970 0.22940 0.05380
H2 H -0.06810 0.13210 -0.04000
H3 H 0.09660 0.27210 0.04780
H4 H 0.06580 0.13780 0.08420
H5 H 0.07910 0.18950 0.36370
H6 H 0.25720 0.28270 0.43050
H7 H 0.18650 0.18800 0.49330
H8 H 0.19000 0.41320 0.41190
H9 H 0.08770 0.33640 0.57730
H10 H 0.07680 0.44480 0.51410
H11 H 0.08700 0.40310 0.25890
H12 H -0.04180 0.44280 0.53990
H13 H -0.17190 0.44260 0.53270
H14 H -0.22110 0.37710 0.33500
H15 H 0.18130 0.10910 0.13360
H16 H 0.17860 0.09450 0.33040
H17 H 0.25700 0.13860 0.24270
H18 H 0.20310 0.34360 0.68710
H19 H 0.27520 0.39190 0.60230
H20 H 0.21610 0.56450 0.63790
H21 H 0.09400 0.63960 1.05680
H22 H -0.00050 0.45370 1.02910
H23 H -0.12410 0.41110 0.95370
H24 H -0.18900 0.52100 0.77520
H25 H -0.13050 0.67340 0.67300
H26 H -0.00690 0.71600 0.74750
O3 O 0.23190 0.33930 1.03740
loop_
_geom_bond_atom_site_label_1
_geom_bond_atom_site_label_2
_geom_bond_site_symmetry_1
_geom_bond_site_symmetry_2
N1 C1 1_555 1_555
C1 C2 1_555 1_555
C2 C3 1_555 1_555
C3 C4 1_555 1_555
C4 N2 1_555 1_555
N2 C5 1_555 1_555
C5 C6 1_555 1_555
C6 C7 1_555 1_555
C7 C8 1_555 1_555
C8 C4 1_555 1_555
C9 C8 1_555 1_555
C10 C9 1_555 1_555
C11 C10 1_555 1_555
C12 C11 1_555 1_555
C13 N1 1_555 1_555
C14 C2 1_555 1_555
C15 N2 1_555 1_555
C16 C6 1_555 1_555
N3 C16 1_555 1_555
C17 N3 1_555 1_555
O1 C17 1_555 1_555
O2 C17 1_555 1_555
C18 O2 1_555 1_555
C19 C18 1_555 1_555
C20 C19 1_555 1_555
C21 C20 1_555 1_555
C22 C21 1_555 1_555
C23 C22 1_555 1_555
C24 C19 1_555 1_555
H1 N1 1_555 1_555
H2 C1 1_555 1_555
H3 C3 1_555 1_555
H4 C3 1_555 1_555
H5 C4 1_555 1_555
H6 C5 1_555 1_555
H7 C5 1_555 1_555
H8 C6 1_555 1_555
H9 C7 1_555 1_555
H10 C7 1_555 1_555
H11 C8 1_555 1_555
H12 C10 1_555 1_555
H13 C11 1_555 1_555
H14 C12 1_555 1_555
H15 C15 1_555 1_555
H16 C15 1_555 1_555
H17 C15 1_555 1_555
H18 C16 1_555 1_555
H19 C16 1_555 1_555
H20 N3 1_555 1_555
H21 C18 1_555 1_555
H22 C20 1_555 1_555
H23 C21 1_555 1_555
H24 C22 1_555 1_555
H25 C23 1_555 1_555
H26 C24 1_555 1_555
C9 C14 1_555 1_555
C12 C13 1_555 1_555
C13 C14 1_555 1_555
C23 C24 1_555 1_555

#END
