
#######################################################################
#
#                 Cambridge Crystallographic Data Centre
#                                CCDC 
#
#######################################################################
#
# If this CIF has been generated from an entry in the Cambridge 
# Structural Database, then it will include bibliographic, chemical, 
# crystal, experimental, refinement or atomic coordinate data resulting 
# from the CCDC's data processing and validation procedures.
#
#######################################################################

data_DMPHOL11
_chemical_formula_moiety         'C8 H10 O1'
_chemical_name_systematic        2,5-Dimethylphenol
_symmetry_cell_setting           monoclinic
_symmetry_space_group_name_H-M   'P 21'
_symmetry_Int_Tables_number      4
_space_group_name_Hall           'P 2yb'
loop_
_symmetry_equiv_pos_site_id
_symmetry_equiv_pos_as_xyz
1 x,y,z
2 -x,1/2+y,-z
_cell_length_a                   5.78(4)
_cell_length_b                   4.88(4)
_cell_length_c                   12.48(4)
_cell_angle_alpha                90
_cell_angle_beta                 110.0(5)
_cell_angle_gamma                90
_cell_volume                     330.787
_cell_formula_units_Z            2
loop_
_atom_site_label
_atom_site_type_symbol
_atom_site_fract_x
_atom_site_fract_y
_atom_site_fract_z
C1 C 0.46530 0.08800 0.15330
C2 C 0.29330 -0.01600 0.19690
C3 C 0.30610 0.07800 0.30600
C4 C 0.48040 0.26700 0.36730
C5 C 0.65230 0.37200 0.32250
C6 C 0.64240 0.27500 0.21420
C7 C 0.10380 -0.22200 0.13080
C8 C 0.83930 0.58000 0.38760
H1 H 0.54000 0.11000 0.00600
H2 H 0.77000 0.35000 0.18700
H3 H 0.03000 -0.22000 0.04300
H4 H 0.16000 -0.40000 0.15700
H5 H -0.01000 -0.21000 0.15100
H6 H 0.17000 0.01000 0.33600
H7 H 0.47000 0.35000 0.42300
H8 H 0.86000 0.58000 0.47700
H9 H 0.80000 0.75000 0.36500
H10 H 1.01000 0.54000 0.37700
O1 O 0.45500 0.00000 0.04450
loop_
_geom_bond_atom_site_label_1
_geom_bond_atom_site_label_2
_geom_bond_site_symmetry_1
_geom_bond_site_symmetry_2
C1 C2 1_555 1_555
C2 C3 1_555 1_555
C3 C4 1_555 1_555
C4 C5 1_555 1_555
C5 C6 1_555 1_555
C6 C1 1_555 1_555
C7 C2 1_555 1_555
C8 C5 1_555 1_555
H1 O1 1_555 1_555
H2 C6 1_555 1_555
H3 C7 1_555 1_555
H4 C7 1_555 1_555
H5 C7 1_555 1_555
H6 C3 1_555 1_555
H7 C4 1_555 1_555
H8 C8 1_555 1_555
H9 C8 1_555 1_555
H10 C8 1_555 1_555
O1 C1 1_555 1_555

#END
