
#######################################################################
#
#                 Cambridge Crystallographic Data Centre
#                                CCDC 
#
#######################################################################
#
# If this CIF has been generated from an entry in the Cambridge 
# Structural Database, then it will include bibliographic, chemical, 
# crystal, experimental, refinement or atomic coordinate data resulting 
# from the CCDC's data processing and validation procedures.
#
#######################################################################

data_DMTDOX
_chemical_formula_moiety         'C6 H12 O2 S2'
_chemical_name_systematic        'r-4,c-6-Dimethyl-1,3-dithiane t-1,t-3-dioxide'
_symmetry_cell_setting           monoclinic
_symmetry_space_group_name_H-M   'P 21/c'
_symmetry_Int_Tables_number      14
_space_group_name_Hall           '-P 2ybc'
loop_
_symmetry_equiv_pos_site_id
_symmetry_equiv_pos_as_xyz
1 x,y,z
2 -x,1/2+y,1/2-z
3 -x,-y,-z
4 x,1/2-y,1/2+z
_cell_length_a                   5.49(1)
_cell_length_b                   15.52(1)
_cell_length_c                   10.81(1)
_cell_angle_alpha                90
_cell_angle_beta                 105.9(1)
_cell_angle_gamma                90
_cell_volume                     885.825
_chemical_melting_point          214deg.C
_cell_formula_units_Z            4
loop_
_atom_site_label
_atom_site_type_symbol
_atom_site_fract_x
_atom_site_fract_y
_atom_site_fract_z
C1 C -0.27430 -0.12290 -0.01040
C2 C -0.66540 -0.22690 -0.13180
C3 C -0.70440 -0.16690 -0.24720
C4 C -0.65340 -0.07180 -0.21520
C5 C -0.76570 -0.31640 -0.16770
C6 C -0.74130 -0.01360 -0.33530
H1 H -0.05300 -0.12700 0.05400
H2 H -0.40000 -0.09500 0.04700
H3 H -0.72900 -0.20400 -0.07000
H4 H -0.56600 -0.18900 -0.28900
H5 H -0.88800 -0.16700 -0.30700
H6 H -0.73100 -0.05700 -0.13600
H7 H -0.87600 -0.32100 -0.19200
H8 H -0.68000 -0.36000 -0.07200
H9 H -0.68100 -0.32700 -0.20900
H10 H -0.96800 -0.02900 -0.38200
H11 H -0.67800 0.04200 -0.30600
H12 H -0.61100 -0.05900 -0.38200
O1 O -0.30010 -0.28260 0.07060
O2 O -0.28240 0.03640 -0.09690
S1 S -0.31450 -0.05400 -0.15000
S2 S -0.32820 -0.23610 -0.05320
loop_
_geom_bond_atom_site_label_1
_geom_bond_atom_site_label_2
_geom_bond_site_symmetry_1
_geom_bond_site_symmetry_2
C1 H1 1_555 1_555
C2 C3 1_555 1_555
C3 C4 1_555 1_555
C4 C6 1_555 1_555
C5 C2 1_555 1_555
C6 H10 1_555 1_555
H2 C1 1_555 1_555
H3 C2 1_555 1_555
H4 C3 1_555 1_555
H5 C3 1_555 1_555
H6 C4 1_555 1_555
H7 C5 1_555 1_555
H8 C5 1_555 1_555
H9 C5 1_555 1_555
H11 C6 1_555 1_555
H12 C6 1_555 1_555
O1 S2 1_555 1_555
O2 S1 1_555 1_555
S1 C1 1_555 1_555
S2 C1 1_555 1_555
C2 S2 1_555 1_555
C4 S1 1_555 1_555

#END
