
#######################################################################
#
#                 Cambridge Crystallographic Data Centre
#                                CCDC 
#
#######################################################################
#
# If this CIF has been generated from an entry in the Cambridge 
# Structural Database, then it will include bibliographic, chemical, 
# crystal, experimental, refinement or atomic coordinate data resulting 
# from the CCDC's data processing and validation procedures.
#
#######################################################################

data_DMURAC
_chemical_formula_moiety         'C6 H8 N2 O2'
_chemical_name_systematic        1,3-Dimethyluracil
_symmetry_cell_setting           monoclinic
_symmetry_space_group_name_H-M   'P 21/c'
_symmetry_Int_Tables_number      14
_space_group_name_Hall           '-P 2ybc'
loop_
_symmetry_equiv_pos_site_id
_symmetry_equiv_pos_as_xyz
1 x,y,z
2 -x,1/2+y,1/2-z
3 -x,-y,-z
4 x,1/2-y,1/2+z
_cell_length_a                   4.199(2)
_cell_length_b                   11.309(4)
_cell_length_c                   14.187(4)
_cell_angle_alpha                90
_cell_angle_beta                 101.95(4)
_cell_angle_gamma                90
_cell_volume                     659.091
_chemical_melting_point          121-2deg.C
_cell_formula_units_Z            4
loop_
_atom_site_label
_atom_site_type_symbol
_atom_site_fract_x
_atom_site_fract_y
_atom_site_fract_z
N1 N 0.45210 -0.29660 0.06200
O1 O 0.67510 -0.15850 -0.02170
N2 N 0.76790 -0.14090 0.14100
C1 C 0.40530 -0.34700 0.14810
C2 C 0.63430 -0.19640 0.05580
C3 C 0.29900 -0.35170 -0.02960
C4 C 0.55340 -0.28360 0.23370
C5 C 0.72300 -0.18540 0.22770
O2 O 0.23960 -0.43670 0.14570
C6 C 0.94750 -0.03120 0.13680
H1 H 0.52830 -0.30450 0.29440
H2 H 0.82370 -0.13490 0.28450
H3 H 0.44730 -0.37340 -0.06500
H4 H 0.11740 -0.40560 -0.01190
H5 H 0.16270 -0.30000 -0.06960
H6 H 0.80950 0.03050 0.09600
H7 H 1.12010 -0.04360 0.09660
H8 H 1.02060 -0.00180 0.19790
loop_
_geom_bond_atom_site_label_1
_geom_bond_atom_site_label_2
_geom_bond_site_symmetry_1
_geom_bond_site_symmetry_2
N1 C1 1_555 1_555
O1 C2 1_555 1_555
N2 C2 1_555 1_555
C1 C4 1_555 1_555
C2 N1 1_555 1_555
C3 N1 1_555 1_555
C4 C5 1_555 1_555
C5 N2 1_555 1_555
O2 C1 1_555 1_555
C6 N2 1_555 1_555
H1 C4 1_555 1_555
H2 C5 1_555 1_555
H3 C3 1_555 1_555
H4 C3 1_555 1_555
H5 C3 1_555 1_555
H6 C6 1_555 1_555
H7 C6 1_555 1_555
H8 C6 1_555 1_555

#END
