
#######################################################################
#
#                 Cambridge Crystallographic Data Centre
#                                CCDC 
#
#######################################################################
#
# If this CIF has been generated from an entry in the Cambridge 
# Structural Database, then it will include bibliographic, chemical, 
# crystal, experimental, refinement or atomic coordinate data resulting 
# from the CCDC's data processing and validation procedures.
#
#######################################################################

data_DOBHUY
_chemical_formula_moiety         'C23 H18 O2'
_chemical_name_systematic        
(1-(4-methoxyphenyl)-1H-inden-2-yl)(phenyl)methanone
_symmetry_cell_setting           orthorhombic
_symmetry_space_group_name_H-M   'P 21 21 21'
_symmetry_Int_Tables_number      19
_space_group_name_Hall           'P 2ac 2ab'
loop_
_symmetry_equiv_pos_site_id
_symmetry_equiv_pos_as_xyz
1 x,y,z
2 1/2-x,-y,1/2+z
3 -x,1/2+y,1/2-z
4 1/2+x,1/2-y,-z
_cell_length_a                   6.0708(12)
_cell_length_b                   12.896(3)
_cell_length_c                   22.705(5)
_cell_angle_alpha                90
_cell_angle_beta                 90
_cell_angle_gamma                90
_cell_volume                     1777.55
_exptl_crystal_colour            colorless
_chemical_melting_point          '122-124 deg.C'
_cell_formula_units_Z            4
loop_
_atom_site_label
_atom_site_type_symbol
_atom_site_fract_x
_atom_site_fract_y
_atom_site_fract_z
O1 O 0.6552(5) 0.7419(3) 0.85390(15)
O2 O 0.5051(6) 1.2225(2) 0.93276(13)
C1 C 0.3145(7) 0.7826(3) 0.81177(16)
C2 C 0.1305(7) 0.7440(3) 0.78860(16)
H1 H 0.0599 0.6842 0.8015
C3 C 0.0558(7) 0.8091(3) 0.74006(17)
C4 C -0.1217(7) 0.7995(4) 0.70254(18)
H2 H -0.2180 0.7437 0.7054
C5 C -0.1519(9) 0.8765(4) 0.66016(19)
H3 H -0.2691 0.8715 0.6339
C6 C -0.0120(9) 0.9592(4) 0.65654(19)
H4 H -0.0370 1.0101 0.6283
C7 C 0.1633(9) 0.9687(3) 0.69351(17)
H5 H 0.2565 1.0257 0.6907
C8 C 0.2018(7) 0.8922(3) 0.73558(17)
C9 C 0.3845(7) 0.8793(3) 0.77968(17)
C10 C 0.4548(7) 0.7345(3) 0.85705(19)
C11 C 0.3495(7) 0.6780(3) 0.90705(16)
C12 C 0.4749(9) 0.6031(3) 0.93597(19)
H6 H 0.6156 0.5860 0.9229
C13 C 0.3830(10) 0.5546(4) 0.9850(2)
H7 H 0.4613 0.5024 1.0040
C14 C 0.1854(10) 0.5814(5) 1.0050(2)
H8 H 0.1313 0.5493 1.0387
C15 C 0.0591(9) 0.6548(4) 0.9777(2)
H9 H -0.0803 0.6721 0.9916
C16 C 0.1486(7) 0.7029(3) 0.92777(17)
H10 H 0.0668 0.7534 0.9084
C17 C 0.4227(6) 0.9724(3) 0.81951(16)
C18 C 0.2590(7) 1.0038(3) 0.85853(19)
H11 H 0.1257 0.9683 0.8598
C19 C 0.2939(8) 1.0874(3) 0.89542(19)
H12 H 0.1837 1.1075 0.9215
C20 C 0.4871(8) 1.1405(3) 0.89416(17)
C21 C 0.6522(8) 1.1119(4) 0.8556(2)
H13 H 0.7846 1.1481 0.8542
C22 C 0.6146(7) 1.0270(4) 0.81872(17)
H14 H 0.7249 1.0069 0.7927
C23 C 0.7070(10) 1.2763(5) 0.9348(2)
H15 H 0.7558 1.2907 0.8954
H16 H 0.8150 1.2346 0.9546
H17 H 0.6876 1.3404 0.9557
H18 H 0.526(4) 0.867(2) 0.7606(13)
loop_
_geom_bond_atom_site_label_1
_geom_bond_atom_site_label_2
_geom_bond_site_symmetry_1
_geom_bond_site_symmetry_2
O1 C10 1_555 1_555
O2 C20 1_555 1_555
C1 C2 1_555 1_555
C2 H1 1_555 1_555
C3 C2 1_555 1_555
C4 C3 1_555 1_555
H2 C4 1_555 1_555
C5 C4 1_555 1_555
H3 C5 1_555 1_555
C6 C5 1_555 1_555
H4 C6 1_555 1_555
C7 C6 1_555 1_555
H5 C7 1_555 1_555
C8 C3 1_555 1_555
C9 C1 1_555 1_555
C10 C1 1_555 1_555
C11 C10 1_555 1_555
C12 C11 1_555 1_555
H6 C12 1_555 1_555
C13 C12 1_555 1_555
H7 C13 1_555 1_555
C14 C13 1_555 1_555
H8 C14 1_555 1_555
C15 C14 1_555 1_555
H9 C15 1_555 1_555
C16 C11 1_555 1_555
H10 C16 1_555 1_555
C17 C9 1_555 1_555
C18 C17 1_555 1_555
H11 C18 1_555 1_555
C19 C18 1_555 1_555
H12 C19 1_555 1_555
C20 C19 1_555 1_555
C21 C20 1_555 1_555
H13 C21 1_555 1_555
C22 C17 1_555 1_555
H14 C22 1_555 1_555
C23 O2 1_555 1_555
H15 C23 1_555 1_555
H16 C23 1_555 1_555
H17 C23 1_555 1_555
H18 C9 1_555 1_555
C7 C8 1_555 1_555
C8 C9 1_555 1_555
C15 C16 1_555 1_555
C21 C22 1_555 1_555

#END
