
#######################################################################
#
#                 Cambridge Crystallographic Data Centre
#                                CCDC 
#
#######################################################################
#
# If this CIF has been generated from an entry in the Cambridge 
# Structural Database, then it will include bibliographic, chemical, 
# crystal, experimental, refinement or atomic coordinate data resulting 
# from the CCDC's data processing and validation procedures.
#
#######################################################################

data_DOBTOD02
_chemical_formula_moiety         'C10 H8 S8 1+,C10 H8 S8,Cl2 I1 1-'
_chemical_name_systematic        
'bis(bis(Ethylenedithio)-tetrathiafulvalenium) dichloro-iodide'
_symmetry_cell_setting           triclinic
_symmetry_space_group_name_H-M   'P -1'
_symmetry_Int_Tables_number      2
_space_group_name_Hall           '-P 1'
loop_
_symmetry_equiv_pos_site_id
_symmetry_equiv_pos_as_xyz
1 x,y,z
2 -x,-y,-z
_cell_length_a                   6.645(1)
_cell_length_b                   9.771(1)
_cell_length_c                   12.921(2)
_cell_angle_alpha                87.19(1)
_cell_angle_beta                 100.91(1)
_cell_angle_gamma                98.63(1)
_cell_volume                     814.265
_exptl_crystal_colour            black
_cell_formula_units_Z            1
_exptl_crystal_preparation       'beta phase'
loop_
_atom_site_label
_atom_site_type_symbol
_atom_site_fract_x
_atom_site_fract_y
_atom_site_fract_z
S1 S 0.40956(9) -0.26840(7) 0.53739(5)
S2 S 0.01472(9) -0.17775(6) 0.55385(5)
S3 S 0.17177(9) -0.47021(6) 0.34713(5)
S4 S -0.22376(9) -0.38574(6) 0.36928(5)
S5 S 0.66252(10) -0.08310(9) 0.70242(7)
S6 S 0.18899(11) 0.01935(7) 0.72348(6)
S7 S -0.00171(10) -0.63941(7) 0.15844(5)
S8 S -0.47487(10) -0.53785(7) 0.18954(5)
C1 C 0.1435(3) -0.2833(2) 0.4926(2)
C2 C 0.0426(3) -0.3697(2) 0.4127(2)
C3 C 0.4159(4) -0.1438(3) 0.6311(2)
C4 C 0.2365(4) -0.1024(2) 0.6398(2)
C5 C -0.0481(4) -0.5339(2) 0.2544(2)
C6 C -0.2268(3) -0.4951(2) 0.2654(2)
C7 C 0.6157(5) 0.0881(3) 0.7301(2)
C8 C 0.4459(5) 0.0840(3) 0.7934(2)
C9 C -0.2354(5) -0.6355(4) 0.0625(3)
C10 C -0.4303(5) -0.6682(4) 0.1054(3)
H1 H 0.5683 0.1403 0.6524
H2 H 0.7573 0.1428 0.7702
H3 H 0.4826 0.0192 0.8609
H4 H 0.4429 0.1889 0.8149
H5 H -0.2423 -0.7151 0.0060
H6 H -0.2364 -0.5367 0.0274
H7 H -0.5624 -0.6854 0.0435
H8 H -0.4228 -0.7649 0.1557
I1 I 0.0000 0.0000 0.0000
Cl1 Cl 0.08878(11) 0.23412(7) -0.08999(5)
Cl1A Cl -0.08878(11) -0.23412(7) 0.08999(5)
loop_
_geom_bond_atom_site_label_1
_geom_bond_atom_site_label_2
_geom_bond_site_symmetry_1
_geom_bond_site_symmetry_2
I1 Cl1 1_555 1_555
S1 C1 1_555 1_555
S2 C1 1_555 1_555
S3 C2 1_555 1_555
S4 C2 1_555 1_555
S5 C3 1_555 1_555
S6 C4 1_555 1_555
S7 C5 1_555 1_555
S8 C6 1_555 1_555
C1 C2 1_555 1_555
C3 S1 1_555 1_555
C4 S2 1_555 1_555
C5 S3 1_555 1_555
C6 S4 1_555 1_555
C7 S5 1_555 1_555
C8 S6 1_555 1_555
C9 S7 1_555 1_555
C10 S8 1_555 1_555
H1 C7 1_555 1_555
H2 C7 1_555 1_555
H3 C8 1_555 1_555
H4 C8 1_555 1_555
H5 C9 1_555 1_555
H6 C9 1_555 1_555
H7 C10 1_555 1_555
H8 C10 1_555 1_555
Cl1A I1 1_555 1_555
C3 C4 1_555 1_555
C5 C6 1_555 1_555
C7 C8 1_555 1_555
C9 C10 1_555 1_555

#END
