
#######################################################################
#
#                 Cambridge Crystallographic Data Centre
#                                CCDC 
#
#######################################################################
#
# If this CIF has been generated from an entry in the Cambridge 
# Structural Database, then it will include bibliographic, chemical, 
# crystal, experimental, refinement or atomic coordinate data resulting 
# from the CCDC's data processing and validation procedures.
#
#######################################################################

data_DODCEG
_chemical_formula_moiety         'C30 H42 N2 O6'
_chemical_name_systematic        
'20-ethyl-8-hydroxy-1,14,16-trimethoxyaconitan-4-yl 2-aminobenzoate'
_symmetry_cell_setting           monoclinic
_symmetry_space_group_name_H-M   'P 21'
_symmetry_Int_Tables_number      4
_space_group_name_Hall           'P 2yb'
loop_
_symmetry_equiv_pos_site_id
_symmetry_equiv_pos_as_xyz
1 x,y,z
2 -x,1/2+y,-z
_cell_length_a                   8.8743(14)
_cell_length_b                   14.678(2)
_cell_length_c                   11.0685(18)
_cell_angle_alpha                90
_cell_angle_beta                 110.243(2)
_cell_angle_gamma                90
_cell_volume                     1352.7
_exptl_crystal_colour            colorless
_exptl_crystal_description       BLOCK
_cell_formula_units_Z            2
loop_
_atom_site_label
_atom_site_type_symbol
_atom_site_fract_x
_atom_site_fract_y
_atom_site_fract_z
N1 N 0.62170(18) 0.99311(12) 0.32157(15)
H1 H 0.6829 1.0188 0.2834
H2 H 0.5745 1.0268 0.3638
N2 N 0.28925(14) 0.91862(10) 0.79181(11)
O1 O 0.30508(12) 0.85825(8) 0.47042(10)
O2 O 0.44274(15) 0.98809(9) 0.47382(12)
O3 O -0.10837(16) 0.56226(9) 0.83102(14)
O4 O -0.06320(14) 0.72585(10) 1.07399(11)
O5 O 0.19287(16) 0.59139(9) 0.81955(13)
H3 H 0.129(3) 0.555(2) 0.832(3)
O6 O -0.06765(13) 0.98048(9) 0.74557(11)
C1 C 0.4998(3) 1.0176(2) 0.9348(2)
H4 H 0.5725 1.0234 1.0243
H5 H 0.4176 1.0653 0.9161
H6 H 0.5612 1.0242 0.8768
C2 C 0.0420(2) 0.77142(18) 1.18345(17)
H7 H 0.0168 0.7538 1.2597
H8 H 0.0287 0.8374 1.1707
H9 H 0.1532 0.7546 1.1956
C3 C -0.1939(3) 1.04513(15) 0.7181(2)
H10 H -0.1984 1.0701 0.7988
H11 H -0.2962 1.0154 0.6706
H12 H -0.1743 1.0945 0.6658
C4 C 0.5699(2) 0.71020(16) 0.3044(2)
H13 H 0.5629 0.6456 0.3027
C5 C 0.6617(2) 0.75542(18) 0.2426(2)
H14 H 0.7149 0.7211 0.1966
C6 C -0.2048(2) 0.52770(15) 0.9004(2)
H15 H -0.1689 0.4661 0.9313
H16 H -0.3174 0.5258 0.8435
H17 H -0.1942 0.5675 0.9740
C7 C 0.6761(2) 0.84816(16) 0.24729(18)
H18 H 0.7385 0.8772 0.2039
C8 C 0.0394(2) 1.01482(12) 0.57883(18)
H19 H -0.0378 1.0626 0.5326
H20 H 0.1234 1.0442 0.6520
C9 C -0.16538(19) 0.64518(12) 0.76506(15)
H21 H -0.2685 0.6339 0.6926
C10 C 0.4902(2) 0.76098(13) 0.36758(17)
H22 H 0.4255 0.7308 0.4080
C11 C 0.35110(17) 0.91874(12) 0.68547(13)
H23 H 0.4396 0.8739 0.7041
H24 H 0.3961 0.9797 0.6799
C12 C 0.41998(19) 0.92503(16) 0.91529(15)
H25 H 0.5009 0.8775 0.9197
H26 H 0.3774 0.9134 0.9856
C13 C -0.18436(17) 0.72756(12) 0.84343(15)
H27 H -0.2798 0.7201 0.8710
C14 C -0.04822(17) 0.94453(11) 0.63111(14)
H28 H -0.1576 0.9357 0.5654
C15 C 0.1168(2) 0.97475(13) 0.48850(16)
H29 H 0.1819 1.0218 0.4652
H30 H 0.0328 0.9535 0.4085
C16 C -0.03317(17) 0.74975(13) 0.95907(14)
H31 H -0.0132 0.8168 0.9601
C17 C -0.21425(17) 0.80204(12) 0.74043(15)
H32 H -0.1885 0.8629 0.7810
H33 H -0.3279 0.8017 0.6827
C18 C 0.11786(18) 0.69949(13) 0.95489(14)
H34 H 0.1253 0.6403 0.9995
H35 H 0.2134 0.7357 1.0044
C19 C 0.50188(17) 0.85596(12) 0.37385(14)
C20 C 0.12557(17) 0.68107(11) 0.81917(14)
C21 C 0.22289(17) 0.89551(10) 0.55453(13)
C22 C 0.41671(17) 0.90881(12) 0.44376(14)
C23 C 0.60004(18) 0.90172(13) 0.31522(14)
C24 C -0.03990(16) 0.68210(11) 0.71170(14)
H36 H -0.0373 0.6435 0.6380
C25 C 0.22617(17) 0.73728(11) 0.64376(14)
H37 H 0.3341 0.7412 0.6365
H38 H 0.1773 0.6780 0.6084
C26 C 0.23688(16) 0.74800(11) 0.78567(13)
H39 H 0.3501 0.7409 0.8457
C27 C 0.11895(16) 0.81713(11) 0.57171(13)
H40 H 0.0403 0.7969 0.4871
C28 C 0.17609(15) 0.84598(11) 0.79027(12)
H41 H 0.1391 0.8528 0.8655
C29 C -0.10040(16) 0.77882(11) 0.66321(13)
H42 H -0.1712 0.7719 0.5711
C30 C 0.03154(15) 0.84978(10) 0.66456(12)
loop_
_geom_bond_atom_site_label_1
_geom_bond_atom_site_label_2
_geom_bond_site_symmetry_1
_geom_bond_site_symmetry_2
N1 H1 1_555 1_555
H2 N1 1_555 1_555
N2 C11 1_555 1_555
O1 C21 1_555 1_555
O2 C22 1_555 1_555
O3 C6 1_555 1_555
O4 C2 1_555 1_555
O5 H3 1_555 1_555
O6 C3 1_555 1_555
C1 H4 1_555 1_555
H5 C1 1_555 1_555
H6 C1 1_555 1_555
C2 H7 1_555 1_555
H8 C2 1_555 1_555
H9 C2 1_555 1_555
C3 H10 1_555 1_555
H11 C3 1_555 1_555
H12 C3 1_555 1_555
C4 H13 1_555 1_555
C5 C4 1_555 1_555
H14 C5 1_555 1_555
C6 H15 1_555 1_555
H16 C6 1_555 1_555
H17 C6 1_555 1_555
C7 C5 1_555 1_555
H18 C7 1_555 1_555
C8 H19 1_555 1_555
H20 C8 1_555 1_555
C9 O3 1_555 1_555
H21 C9 1_555 1_555
C10 C4 1_555 1_555
H22 C10 1_555 1_555
C11 H23 1_555 1_555
H24 C11 1_555 1_555
C12 N2 1_555 1_555
H25 C12 1_555 1_555
H26 C12 1_555 1_555
C13 C9 1_555 1_555
H27 C13 1_555 1_555
C14 O6 1_555 1_555
H28 C14 1_555 1_555
C15 C8 1_555 1_555
H29 C15 1_555 1_555
H30 C15 1_555 1_555
C16 O4 1_555 1_555
H31 C16 1_555 1_555
C17 C13 1_555 1_555
H32 C17 1_555 1_555
H33 C17 1_555 1_555
C18 C16 1_555 1_555
H34 C18 1_555 1_555
H35 C18 1_555 1_555
C19 C10 1_555 1_555
C20 O5 1_555 1_555
C21 C11 1_555 1_555
C22 O1 1_555 1_555
C23 N1 1_555 1_555
C24 C9 1_555 1_555
H36 C24 1_555 1_555
C25 H37 1_555 1_555
H38 C25 1_555 1_555
C26 C20 1_555 1_555
H39 C26 1_555 1_555
C27 C21 1_555 1_555
H40 C27 1_555 1_555
C28 N2 1_555 1_555
H41 C28 1_555 1_555
C29 C17 1_555 1_555
H42 C29 1_555 1_555
C30 C14 1_555 1_555
C1 C12 1_555 1_555
C7 C23 1_555 1_555
C8 C14 1_555 1_555
C13 C16 1_555 1_555
C15 C21 1_555 1_555
C18 C20 1_555 1_555
C19 C22 1_555 1_555
C19 C23 1_555 1_555
C20 C24 1_555 1_555
C24 C29 1_555 1_555
C25 C26 1_555 1_555
C25 C27 1_555 1_555
C26 C28 1_555 1_555
C27 C30 1_555 1_555
C28 C30 1_555 1_555
C29 C30 1_555 1_555

#END
