
#######################################################################
#
#                 Cambridge Crystallographic Data Centre
#                                CCDC 
#
#######################################################################
#
# If this CIF has been generated from an entry in the Cambridge 
# Structural Database, then it will include bibliographic, chemical, 
# crystal, experimental, refinement or atomic coordinate data resulting 
# from the CCDC's data processing and validation procedures.
#
#######################################################################

data_DOFKOA
_chemical_formula_moiety         'C36 H38 N6,2(H2 O1)'
_chemical_name_systematic        
'5,5,10,15,15,20-Hexamethyl-10,20-bis(pyridin-4-yl)-5,10,15,20,22,24-hexahydroporphyrin dihydrate'
_symmetry_cell_setting           monoclinic
_symmetry_space_group_name_H-M   'C 2/c'
_symmetry_Int_Tables_number      15
_space_group_name_Hall           '-C 2yn'
loop_
_symmetry_equiv_pos_site_id
_symmetry_equiv_pos_as_xyz
1 x,y,z
2 -x,y,1/2-z
3 1/2+x,1/2+y,z
4 1/2-x,1/2+y,1/2-z
5 -x,-y,-z
6 x,-y,1/2+z
7 1/2-x,1/2-y,-z
8 1/2+x,1/2-y,1/2+z
_cell_length_a                   17.900(13)
_cell_length_b                   12.760(9)
_cell_length_c                   14.882(11)
_cell_angle_alpha                90
_cell_angle_beta                 102.724(9)
_cell_angle_gamma                90
_cell_volume                     3315.63
_exptl_crystal_colour            yellow
_exptl_crystal_description       prisms
_cell_formula_units_Z            4
loop_
_atom_site_label
_atom_site_type_symbol
_atom_site_fract_x
_atom_site_fract_y
_atom_site_fract_z
C1 C 0.30591(13) 0.01578(18) 0.49884(17)
C2 C 0.32832(16) -0.0285(2) 0.42659(19)
H1 H 0.3140 -0.0951 0.4016
C3 C 0.37707(17) 0.0431(2) 0.39536(18)
H2 H 0.4013 0.0319 0.3462
C4 C 0.38314(13) 0.13110(18) 0.44836(16)
C5 C 0.42593(13) 0.23235(18) 0.44259(16)
C6 C 0.48249(15) 0.2144(2) 0.37936(19)
H3 H 0.5189 0.1603 0.4056
H4 H 0.5096 0.2790 0.3738
H5 H 0.4544 0.1924 0.3189
C7 C 0.47577(12) 0.26224(18) 0.53718(16)
C8 C 0.49411(13) 0.3646(2) 0.56334(18)
H6 H 0.4718 0.4201 0.5252
C9 C 0.54545(14) 0.3857(2) 0.64597(19)
H7 H 0.5564 0.4562 0.6623
C10 C 0.56163(15) 0.2133(2) 0.67772(19)
H8 H 0.5848 0.1593 0.7171
C11 C 0.51067(15) 0.1848(2) 0.59707(18)
H9 H 0.4999 0.1137 0.5832
C12 C 0.37067(13) 0.31857(18) 0.40083(16)
C13 C 0.34892(15) 0.3534(2) 0.31200(17)
H10 H 0.3671 0.3282 0.2614
C14 C 0.29454(14) 0.4339(2) 0.30949(18)
H11 H 0.2703 0.4717 0.2569
C15 C 0.28311(13) 0.44753(17) 0.39688(17)
C16 C 0.25857(14) -0.02983(19) 0.56199(18)
C17 C 0.31198(19) -0.0911(2) 0.6389(2)
H12 H 0.3491 -0.0436 0.6750
H13 H 0.3385 -0.1449 0.6120
H14 H 0.2821 -0.1236 0.6784
C18 C 0.19888(18) -0.1062(2) 0.5053(3)
H15 H 0.1727 -0.1432 0.5463
H16 H 0.2247 -0.1562 0.4736
H17 H 0.1619 -0.0668 0.4605
N1 N 0.33908(11) 0.11378(15) 0.51204(14)
H18 H 0.3333(15) 0.161(2) 0.5537(18)
N2 N 0.32959(11) 0.37549(15) 0.45176(15)
H19 H 0.3306(14) 0.3643(19) 0.5112(18)
N3 N 0.58005(12) 0.31128(18) 0.70342(15)
C1F C 0.19409(13) 0.48422(18) 0.50116(17)
C2F C 0.17168(16) 0.5285(2) 0.57341(19)
H1F H 0.1860 0.5951 0.5984
C3F C 0.12293(17) 0.4569(2) 0.60464(18)
H2F H 0.0987 0.4681 0.6538
C4F C 0.11686(13) 0.36890(18) 0.55164(16)
C5F C 0.07407(13) 0.26765(18) 0.55741(16)
C6F C 0.01751(15) 0.2856(2) 0.62064(19)
H3F H -0.0189 0.3397 0.5944
H4F H -0.0096 0.2210 0.6262
H5F H 0.0456 0.3076 0.6811
C7F C 0.02423(12) 0.23776(18) 0.46282(16)
C8F C 0.00589(13) 0.1354(2) 0.43666(18)
H6F H 0.0282 0.0799 0.4748
C9F C -0.04545(14) 0.1143(2) 0.35403(19)
H7F H -0.0564 0.0438 0.3377
C10F C -0.06163(15) 0.2867(2) 0.32228(19)
H8F H -0.0848 0.3407 0.2829
C11F C -0.01067(15) 0.3152(2) 0.40293(18)
H9F H 0.0001 0.3863 0.4168
C12F C 0.12933(13) 0.18143(18) 0.59917(16)
C13F C 0.15108(15) 0.1466(2) 0.68800(17)
H10F H 0.1329 0.1718 0.7386
C14F C 0.20546(14) 0.0661(2) 0.69051(18)
H11F H 0.2297 0.0283 0.7431
C15F C 0.21689(13) 0.05247(17) 0.60312(17)
C16F C 0.24143(14) 0.52983(19) 0.43801(18)
C17F C 0.18802(19) 0.5911(2) 0.3611(2)
H12F H 0.1509 0.5436 0.3250
H13F H 0.1615 0.6449 0.3880
H14F H 0.2179 0.6236 0.3216
C18F C 0.30112(18) 0.6062(2) 0.4947(3)
H15F H 0.3273 0.6432 0.4537
H16F H 0.2753 0.6562 0.5264
H17F H 0.3381 0.5668 0.5395
N1F N 0.16092(11) 0.38622(15) 0.48796(14)
H18F H 0.1667(15) 0.339(2) 0.4463(18)
N2F N 0.17041(11) 0.12451(15) 0.54824(15)
H19F H 0.1694(14) 0.1357(19) 0.4888(18)
N3F N -0.08005(12) 0.18872(18) 0.29658(15)
O1 O 0.31625(12) 0.29770(15) 0.62977(14)
H20 H 0.352(2) 0.316(2) 0.686(2)
H21 H 0.272(2) 0.301(3) 0.639(3)
loop_
_geom_bond_atom_site_label_1
_geom_bond_atom_site_label_2
_geom_bond_site_symmetry_1
_geom_bond_site_symmetry_2
C1 C2 1_555 1_555
C2 H1 1_555 1_555
C3 C2 1_555 1_555
H2 C3 1_555 1_555
C4 C3 1_555 1_555
C5 C4 1_555 1_555
C6 C5 1_555 1_555
H3 C6 1_555 1_555
H4 C6 1_555 1_555
H5 C6 1_555 1_555
C7 C5 1_555 1_555
C8 C7 1_555 1_555
H6 C8 1_555 1_555
C9 C8 1_555 1_555
H7 C9 1_555 1_555
C10 H8 1_555 1_555
C11 C7 1_555 1_555
H9 C11 1_555 1_555
C12 C5 1_555 1_555
C13 C12 1_555 1_555
H10 C13 1_555 1_555
C14 C13 1_555 1_555
H11 C14 1_555 1_555
C15 C14 1_555 1_555
C16 C1 1_555 1_555
C17 C16 1_555 1_555
H12 C17 1_555 1_555
H13 C17 1_555 1_555
H14 C17 1_555 1_555
C18 C16 1_555 1_555
H15 C18 1_555 1_555
H16 C18 1_555 1_555
H17 C18 1_555 1_555
N1 C1 1_555 1_555
H18 N1 1_555 1_555
N2 C12 1_555 1_555
H19 N2 1_555 1_555
N3 C9 1_555 1_555
O1 H20 1_555 1_555
H21 O1 1_555 1_555
C1F C2F 1_555 1_555
C2F H1F 1_555 1_555
C3F C2F 1_555 1_555
H2F C3F 1_555 1_555
C4F C3F 1_555 1_555
C5F C4F 1_555 1_555
C6F C5F 1_555 1_555
H3F C6F 1_555 1_555
H4F C6F 1_555 1_555
H5F C6F 1_555 1_555
C7F C5F 1_555 1_555
C8F C7F 1_555 1_555
H6F C8F 1_555 1_555
C9F C8F 1_555 1_555
H7F C9F 1_555 1_555
C10F H8F 1_555 1_555
C11F C7F 1_555 1_555
H9F C11F 1_555 1_555
C12F C5F 1_555 1_555
C13F C12F 1_555 1_555
H10F C13F 1_555 1_555
C14F C13F 1_555 1_555
H11F C14F 1_555 1_555
C15F C16 1_555 1_555
C16F C15 1_555 1_555
C17F C16F 1_555 1_555
H12F C17F 1_555 1_555
H13F C17F 1_555 1_555
H14F C17F 1_555 1_555
C18F C16F 1_555 1_555
H15F C18F 1_555 1_555
H16F C18F 1_555 1_555
H17F C18F 1_555 1_555
N1F C1F 1_555 1_555
H18F N1F 1_555 1_555
N2F C12F 1_555 1_555
H19F N2F 1_555 1_555
N3F C9F 1_555 1_555
C4 N1 1_555 1_555
C10 C11 1_555 1_555
C10 N3 1_555 1_555
C15 N2 1_555 1_555
C1F C16F 1_555 1_555
C4F N1F 1_555 1_555
C10F C11F 1_555 1_555
C10F N3F 1_555 1_555
C14F C15F 1_555 1_555
C15F N2F 1_555 1_555

#END
