
#######################################################################
#
#                 Cambridge Crystallographic Data Centre
#                                CCDC 
#
#######################################################################
#
# If this CIF has been generated from an entry in the Cambridge 
# Structural Database, then it will include bibliographic, chemical, 
# crystal, experimental, refinement or atomic coordinate data resulting 
# from the CCDC's data processing and validation procedures.
#
#######################################################################

data_DOFXIG
_chemical_formula_moiety         '2(C5 H2 N3 O5 1-),H12 Mg1 O6 2+'
_chemical_name_systematic        
'Hexa-aqua-magnesium bis(3,5-dinitropyridin-4-one)'
_symmetry_cell_setting           monoclinic
_symmetry_space_group_name_H-M   'P 21/c'
_symmetry_Int_Tables_number      14
_space_group_name_Hall           '-P 2ybc'
loop_
_symmetry_equiv_pos_site_id
_symmetry_equiv_pos_as_xyz
1 x,y,z
2 -x,1/2+y,1/2-z
3 -x,-y,-z
4 x,1/2-y,1/2+z
_cell_length_a                   7.477(2)
_cell_length_b                   13.190(3)
_cell_length_c                   9.880(3)
_cell_angle_alpha                90
_cell_angle_beta                 98.101(3)
_cell_angle_gamma                90
_cell_volume                     964.659
_cell_formula_units_Z            2
loop_
_atom_site_label
_atom_site_type_symbol
_atom_site_fract_x
_atom_site_fract_y
_atom_site_fract_z
Mg1 Mg 0.0000 1.0000 0.0000
O6 O 0.0041(3) 1.08740(12) 0.16945(16)
H1 H 0.0550 1.0704 0.2486
H2 H 0.0097 1.1517 0.1664
O7 O 0.0270(2) 0.87340(12) 0.12607(16)
H3 H 0.0728 0.8788 0.2095
H4 H -0.0348 0.8191 0.1192
O8 O 0.2773(2) 1.00585(13) 0.01361(17)
H5 H 0.3448 1.0218 0.0871
H6 H 0.3292 0.9570 -0.0213
O6B O -0.0041(3) 0.91260(12) -0.16945(16)
H1B H -0.0550 0.9296 -0.2486
H2B H -0.0097 0.8483 -0.1664
O7B O -0.0270(2) 1.12660(12) -0.12607(16)
H3B H -0.0728 1.1212 -0.2095
H4B H 0.0348 1.1809 -0.1192
O8B O -0.2773(2) 0.99415(13) -0.01361(17)
H5B H -0.3448 0.9782 -0.0871
H6B H -0.3292 1.0430 0.0213
N1 N 0.4739(3) 0.96285(15) 0.75641(19)
N2 N 0.1988(3) 1.15282(14) 0.55233(19)
N3 N 0.3302(3) 0.78620(14) 0.4767(2)
O1 O 0.1402(2) 0.97082(11) 0.38271(15)
O2 O 0.1302(3) 1.17083(13) 0.43541(18)
O3 O 0.2037(3) 1.21657(13) 0.64340(19)
O4 O 0.4289(3) 0.71677(15) 0.5195(2)
O5 O 0.2238(4) 0.77572(15) 0.3736(2)
C1 C 0.3869(3) 1.04713(18) 0.7098(2)
H7 H 0.4017 1.1047 0.7645
C2 C 0.2774(3) 1.05422(16) 0.5866(2)
C3 C 0.2405(3) 0.96904(16) 0.4938(2)
C4 C 0.3395(3) 0.88065(16) 0.5513(2)
C5 C 0.4476(3) 0.88178(17) 0.6756(2)
H8 H 0.5065 0.8220 0.7054
loop_
_geom_bond_atom_site_label_1
_geom_bond_atom_site_label_2
_geom_bond_site_symmetry_1
_geom_bond_site_symmetry_2
Mg1 O6 1_555 1_555
N1 C1 1_555 1_555
N2 O2 1_555 1_555
N3 O4 1_555 1_555
O1 C3 1_555 1_555
O3 N2 1_555 1_555
O5 N3 1_555 1_555
O6 H1 1_555 1_555
H2 O6 1_555 1_555
O7 Mg1 1_555 1_555
H3 O7 1_555 1_555
H4 O7 1_555 1_555
O8 Mg1 1_555 1_555
H5 O8 1_555 1_555
H6 O8 1_555 1_555
C1 H7 1_555 1_555
C2 N2 1_555 1_555
C3 C2 1_555 1_555
C4 N3 1_555 1_555
C5 N1 1_555 1_555
H8 C5 1_555 1_555
O6B Mg1 1_555 1_555
H1B O6B 1_555 1_555
H2B O6B 1_555 1_555
O7B Mg1 1_555 1_555
H3B O7B 1_555 1_555
H4B O7B 1_555 1_555
O8B Mg1 1_555 1_555
H5B O8B 1_555 1_555
H6B O8B 1_555 1_555
C1 C2 1_555 1_555
C3 C4 1_555 1_555
C4 C5 1_555 1_555

#END
