
#######################################################################
#
#                 Cambridge Crystallographic Data Centre
#                                CCDC 
#
#######################################################################
#
# If this CIF has been generated from an entry in the Cambridge 
# Structural Database, then it will include bibliographic, chemical, 
# crystal, experimental, refinement or atomic coordinate data resulting 
# from the CCDC's data processing and validation procedures.
#
#######################################################################

data_DOGNUK
_chemical_formula_moiety         'C16 H15 F3 I1 N1 O2 S1'
_chemical_name_systematic        
1,1,1-Trifluoro-N-((2-iodo-6-methylphenyl)(2-methylphenyl)methyl)methanesulfonamide
_symmetry_cell_setting           monoclinic
_symmetry_space_group_name_H-M   'P 21'
_symmetry_Int_Tables_number      4
_space_group_name_Hall           'P 2yb'
loop_
_symmetry_equiv_pos_site_id
_symmetry_equiv_pos_as_xyz
1 x,y,z
2 -x,1/2+y,-z
_cell_length_a                   15.0973(9)
_cell_length_b                   12.2302(7)
_cell_length_c                   18.9196(10)
_cell_angle_alpha                90
_cell_angle_beta                 90.396(2)
_cell_angle_gamma                90
_cell_volume                     3493.29
_exptl_crystal_colour            colorless
_exptl_crystal_description       Block
_cell_formula_units_Z            8
loop_
_atom_site_label
_atom_site_type_symbol
_atom_site_fract_x
_atom_site_fract_y
_atom_site_fract_z
I1 I 1.14376(6) 0.47713(7) 1.52694(4)
S1 S 1.2333(2) 0.6412(3) 1.30596(16)
F1 F 1.3188(6) 0.8144(9) 1.3484(6)
F2 F 1.3149(5) 0.6875(7) 1.4254(4)
F3 F 1.3997(6) 0.6706(11) 1.3308(6)
O1 O 1.2426(6) 0.5291(9) 1.3258(5)
O2 O 1.2452(7) 0.6781(12) 1.2348(5)
N1 N 1.1428(5) 0.6907(7) 1.3340(5)
H1 H 1.1503 0.7595 1.3412
C1 C 1.0919(7) 0.6450(9) 1.3941(5)
H2 H 1.1137 0.5686 1.4011
C2 C 1.1094(6) 0.7048(9) 1.4631(6)
C3 C 1.1295(6) 0.6472(10) 1.5245(5)
C4 C 1.1404(7) 0.6981(11) 1.5909(6)
H3 H 1.1537 0.6553 1.6315
C5 C 1.1319(8) 0.8075(12) 1.5968(7)
H4 H 1.1366 0.8428 1.6414
C6 C 1.1153(7) 0.8695(11) 1.5325(7)
H5 H 1.1123 0.9470 1.5349
C7 C 1.1039(7) 0.8192(9) 1.4693(5)
C8 C 1.0885(11) 0.8963(11) 1.4108(8)
H6 H 1.1436 0.9062 1.3844
H7 H 1.0693 0.9669 1.4299
H8 H 1.0425 0.8673 1.3793
C9 C 0.9936(7) 0.6354(9) 1.3720(6)
C10 C 0.9285(8) 0.6920(10) 1.4097(6)
H9 H 0.9445 0.7329 1.4505
C11 C 0.8401(8) 0.6882(12) 1.3875(8)
H10 H 0.7963 0.7286 1.4121
C12 C 0.8172(8) 0.6272(11) 1.3311(8)
H11 H 0.7570 0.6247 1.3160
C13 C 0.8808(9) 0.5677(12) 1.2945(7)
H12 H 0.8632 0.5242 1.2553
C14 C 0.9698(7) 0.5707(10) 1.3144(6)
C15 C 1.0343(9) 0.5034(12) 1.2738(8)
H13 H 1.0754 0.5517 1.2489
H14 H 1.0022 0.4581 1.2394
H15 H 1.0675 0.4563 1.3064
C16 C 1.3218(8) 0.7091(14) 1.3581(9)
I4 I 1.38196(15) 1.3897(2) 1.42320(17)
S2 S 1.50304(17) 1.0973(2) 1.32049(15)
F4 F 1.5996(5) 1.2545(8) 1.3722(5)
F5 F 1.5678(5) 1.1280(8) 1.4475(4)
F6 F 1.6628(5) 1.0960(8) 1.3668(5)
O3 O 1.4919(5) 0.9857(7) 1.3380(4)
O4 O 1.5354(6) 1.1309(8) 1.2518(5)
N2 N 1.4154(5) 1.1634(8) 1.3374(5)
H16 H 1.4283 1.2307 1.3460
C17 C 1.3481(7) 1.1255(11) 1.3891(6)
H17 H 1.3526 1.0439 1.3872
C18 C 1.3649(12) 1.1523(13) 1.4662(5)
C19 C 1.3646(11) 1.0646(10) 1.5129(7)
C20 C 1.3876(10) 1.0805(11) 1.5834(6)
H18 H 1.3874 1.0205 1.6153
C21 C 1.4108(11) 1.1841(13) 1.6072(6)
H19 H 1.4265 1.1950 1.6554
C22 C 1.4110(11) 1.2719(10) 1.5606(8)
H20 H 1.4269 1.3428 1.5769
C23 C 1.3881(12) 1.2560(11) 1.4901(8)
C24 C 1.339(2) 0.931(3) 1.4945(19)
H21 H 1.2752 0.9194 1.5019
H22 H 1.3727 0.8828 1.5258
H23 H 1.3533 0.9150 1.4452
C25 C 1.2550(7) 1.1494(10) 1.3616(6)
C26 C 1.1963(8) 1.2092(12) 1.4012(6)
H24 H 1.2160 1.2383 1.4451
C27 C 1.1079(8) 1.2292(14) 1.3797(7)
H25 H 1.0686 1.2725 1.4069
C28 C 1.0822(8) 1.1814(11) 1.3161(7)
H26 H 1.0231 1.1926 1.2999
C29 C 1.1360(8) 1.1208(10) 1.2766(7)
H27 H 1.1146 1.0882 1.2342
C30 C 1.2251(8) 1.1050(10) 1.2981(6)
C31 C 1.2833(9) 1.0364(11) 1.2508(7)
H28 H 1.3228 1.0843 1.2239
H29 H 1.2462 0.9942 1.2180
H30 H 1.3188 0.9863 1.2798
C32 C 1.5895(8) 1.1463(13) 1.3824(8)
I5 I 1.12190(9) 1.07111(10) 0.92444(8)
S3 S 0.99286(17) 1.3637(2) 0.82555(15)
F7 F 0.8998(6) 1.2069(8) 0.8801(5)
F8 F 0.9353(5) 1.3342(9) 0.9536(4)
F9 F 0.8337(5) 1.3613(9) 0.8758(5)
O5 O 1.0029(5) 1.4761(8) 0.8427(4)
O6 O 0.9594(6) 1.3295(8) 0.7591(5)
N3 N 1.0823(6) 1.2995(7) 0.8420(5)
H38 H 1.0705 1.2323 0.8514
C40 C 1.1517(7) 1.3405(9) 0.8929(5)
H39 H 1.1462 1.4219 0.8907
C41 C 1.1351(7) 1.3129(8) 0.9690(4)
C42 C 1.1360(7) 1.3978(6) 1.0179(5)
C43 C 1.1168(7) 1.3769(8) 1.0883(4)
H40 H 1.1174 1.4350 1.1217
C44 C 1.0967(7) 1.2712(9) 1.1100(4)
H41 H 1.0836 1.2570 1.1581
C45 C 1.0959(7) 1.1864(7) 1.0611(5)
H42 H 1.0822 1.1141 1.0759
C46 C 1.1151(7) 1.2072(7) 0.9906(5)
C47 C 1.1641(18) 1.5164(13) 0.9994(13)
H43 H 1.2284 1.5235 1.0046
H44 H 1.1347 1.5676 1.0314
H45 H 1.1468 1.5328 0.9505
C48 C 1.2440(7) 1.3172(9) 0.8636(5)
C49 C 1.3054(7) 1.2600(12) 0.9028(7)
H46 H 1.2872 1.2287 0.9463
C50 C 1.3919(8) 1.2459(12) 0.8822(6)
H47 H 1.4334 1.2106 0.9125
C51 C 1.4171(7) 1.2839(13) 0.8166(7)
H48 H 1.4754 1.2709 0.8000
C52 C 1.3582(9) 1.3399(12) 0.7761(7)
H49 H 1.3773 1.3685 0.7321
C53 C 1.2696(8) 1.3576(9) 0.7966(6)
C54 C 1.2070(11) 1.4220(11) 0.7489(7)
H50 H 1.1703 1.3711 0.7214
H51 H 1.2415 1.4678 0.7167
H52 H 1.1688 1.4684 0.7779
C55 C 0.9088(8) 1.3108(12) 0.8883(7)
I7 I 1.64120(8) 1.48482(9) 0.97473(6)
S4 S 1.7393(2) 1.3098(3) 1.19329(16)
F10 F 1.8160(7) 1.1335(10) 1.1451(7)
F11 F 1.8144(5) 1.2674(8) 1.0726(5)
F12 F 1.9030(6) 1.2697(17) 1.1636(6)
O7 O 1.7509(7) 1.4180(10) 1.1756(5)
O8 O 1.7560(8) 1.2674(15) 1.2618(6)
N4 N 1.6461(6) 1.2680(9) 1.1646(5)
H60 H 1.6498 1.1988 1.1573
C63 C 1.5935(7) 1.3162(9) 1.1062(5)
H61 H 1.6160 1.3923 1.0993
C64 C 1.6104(8) 1.2529(7) 1.0351(4)
C65 C 1.6032(9) 1.1400(7) 1.0295(4)
C66 C 1.6138(8) 1.0894(6) 0.9644(5)
H62 H 1.6089 1.0121 0.9606
C67 C 1.6315(7) 1.1518(8) 0.9047(4)
H63 H 1.6388 1.1172 0.8601
C68 C 1.6387(7) 1.2648(8) 0.9102(4)
H64 H 1.6508 1.3074 0.8695
C69 C 1.6281(7) 1.3153(6) 0.9754(5)
C70 C 1.5906(2) 1.0448(3) 1.08887(18)
H65 H 1.6405 1.0467 1.1222
H66 H 1.5884 0.9732 1.0657
H67 H 1.5353 1.0572 1.1144
C71 C 1.4984(7) 1.3262(9) 1.1307(6)
C72 C 1.4313(7) 1.2702(10) 1.0961(6)
H68 H 1.4456 1.2266 1.0562
C73 C 1.3441(8) 1.2757(12) 1.1178(7)
H69 H 1.2993 1.2352 1.0939
C74 C 1.3234(9) 1.3405(12) 1.1744(7)
H70 H 1.2639 1.3448 1.1902
C75 C 1.3890(9) 1.3997(11) 1.2086(6)
H71 H 1.3741 1.4454 1.2473
C76 C 1.4761(8) 1.3929(10) 1.1869(6)
C77 C 1.5444(10) 1.4629(14) 1.2248(7)
H72 H 1.5695 1.4220 1.2647
H73 H 1.5161 1.5297 1.2422
H74 H 1.5918 1.4824 1.1919
C78 C 1.8235(9) 1.2427(16) 1.1410(9)
I2? I 1.0869(9) 0.9204(9) 1.4028(7)
I3? I 1.33921(13) 0.95769(14) 1.51834(10)
H31? H 1.3549 1.0450 1.3968
C33? C 1.3741(13) 1.1891(14) 1.4599(6)
C34? C 1.3787(12) 1.1191(10) 1.5177(8)
C35? C 1.4063(11) 1.1586(12) 1.5832(7)
H32? H 1.4094 1.1108 1.6227
C36? C 1.4293(12) 1.2680(13) 1.5908(7)
H33? H 1.4482 1.2950 1.6355
C37? C 1.4247(11) 1.3380(11) 1.5330(9)
H34? H 1.4405 1.4128 1.5382
C38? C 1.3972(12) 1.2985(13) 1.4676(7)
C39? C 1.363(4) 1.382(4) 1.417(3)
H35? H 1.3090 1.3542 1.3939
H36? H 1.4078 1.3970 1.3811
H37? H 1.3490 1.4495 1.4425
I6? I 1.1586(3) 1.5003(4) 1.0228(2)
H53? H 1.1441 1.4208 0.9008
C56? C 1.128(3) 1.275(2) 0.9627(14)
C57? C 1.123(3) 1.3447(18) 1.0205(18)
C58? C 1.097(3) 1.304(3) 1.0858(15)
H54? H 1.0928 1.3517 1.1253
C59? C 1.076(2) 1.194(3) 1.0932(14)
H55? H 1.0587 1.1661 1.1378
C60? C 1.082(3) 1.1242(18) 1.0353(18)
H56? H 1.0682 1.0489 1.0404
C61? C 1.108(3) 1.165(2) 0.9701(15)
C62? C 1.103(6) 1.082(3) 0.909(2)
H57? H 1.1562 1.0369 0.9087
H58? H 1.0974 1.1213 0.8640
H59? H 1.0505 1.0351 0.9152
I8? I 1.5906(2) 1.0448(3) 1.08887(18)
H75? H 1.6138 1.3940 1.1066
C79? C 1.604(3) 1.286(2) 1.0329(11)
C80? C 1.606(3) 1.174(2) 1.0211(14)
C81? C 1.618(3) 1.1340(19) 0.9532(17)
H76? H 1.6193 1.0573 0.9451
C82? C 1.630(2) 1.206(3) 0.8972(12)
H77? H 1.6390 1.1785 0.8508
C83? C 1.629(2) 1.318(2) 0.9090(12)
H78? H 1.6370 1.3673 0.8708
C84? C 1.616(2) 1.3583(19) 0.9769(14)
C85? C 1.64120(8) 1.48482(9) 0.97473(6)
H79? H 1.6164 1.5216 1.0161
H80? H 1.6168 1.5178 0.9316
H81? H 1.7058 1.4928 0.9751
loop_
_geom_bond_atom_site_label_1
_geom_bond_atom_site_label_2
_geom_bond_site_symmetry_1
_geom_bond_site_symmetry_2
I1 C3 1_555 1_555
S1 O1 1_555 1_555
F1 C16 1_555 1_555
F2 C16 1_555 1_555
F3 C16 1_555 1_555
O2 S1 1_555 1_555
N1 S1 1_555 1_555
H1 N1 1_555 1_555
C1 N1 1_555 1_555
H2 C1 1_555 1_555
C2 C1 1_555 1_555
C3 C2 1_555 1_555
C4 C3 1_555 1_555
H3 C4 1_555 1_555
C5 C4 1_555 1_555
H4 C5 1_555 1_555
C6 C5 1_555 1_555
H5 C6 1_555 1_555
C7 C2 1_555 1_555
C8 C7 1_555 1_555
H6 C8 1_555 1_555
H7 C8 1_555 1_555
H8 C8 1_555 1_555
C9 C1 1_555 1_555
C10 C9 1_555 1_555
H9 C10 1_555 1_555
C11 C10 1_555 1_555
H10 C11 1_555 1_555
C12 C11 1_555 1_555
H11 C12 1_555 1_555
C13 C12 1_555 1_555
H12 C13 1_555 1_555
C14 C9 1_555 1_555
C15 C14 1_555 1_555
H13 C15 1_555 1_555
H14 C15 1_555 1_555
H15 C15 1_555 1_555
C16 S1 1_555 1_555
I4 C23 1_555 1_555
S2 O3 1_555 1_555
F4 C32 1_555 1_555
F5 C32 1_555 1_555
F6 C32 1_555 1_555
O4 S2 1_555 1_555
N2 S2 1_555 1_555
H16 N2 1_555 1_555
C17 N2 1_555 1_555
H17 C17 1_555 1_555
C18 C17 1_555 1_555
C19 C18 1_555 1_555
C20 C19 1_555 1_555
H18 C20 1_555 1_555
C21 C20 1_555 1_555
H19 C21 1_555 1_555
C22 C21 1_555 1_555
H20 C22 1_555 1_555
C23 C18 1_555 1_555
C24 C19 1_555 1_555
H21 C24 1_555 1_555
H22 C24 1_555 1_555
H23 C24 1_555 1_555
C25 C17 1_555 1_555
C26 C25 1_555 1_555
H24 C26 1_555 1_555
C27 C26 1_555 1_555
H25 C27 1_555 1_555
C28 C27 1_555 1_555
H26 C28 1_555 1_555
C29 C28 1_555 1_555
H27 C29 1_555 1_555
C30 C25 1_555 1_555
C31 C30 1_555 1_555
H28 C31 1_555 1_555
H29 C31 1_555 1_555
H30 C31 1_555 1_555
C32 S2 1_555 1_555
I5 C46 1_555 1_555
S3 O5 1_555 1_555
F7 C55 1_555 1_555
F8 C55 1_555 1_555
F9 C55 1_555 1_555
O6 S3 1_555 1_555
N3 S3 1_555 1_555
H38 N3 1_555 1_555
C40 N3 1_555 1_555
H39 C40 1_555 1_555
C41 C40 1_555 1_555
C42 C41 1_555 1_555
C43 C42 1_555 1_555
H40 C43 1_555 1_555
C44 C43 1_555 1_555
H41 C44 1_555 1_555
C45 C44 1_555 1_555
H42 C45 1_555 1_555
C46 C41 1_555 1_555
C47 C42 1_555 1_555
H43 C47 1_555 1_555
H44 C47 1_555 1_555
H45 C47 1_555 1_555
C48 C40 1_555 1_555
C49 C48 1_555 1_555
H46 C49 1_555 1_555
C50 C49 1_555 1_555
H47 C50 1_555 1_555
C51 C50 1_555 1_555
H48 C51 1_555 1_555
C52 C51 1_555 1_555
H49 C52 1_555 1_555
C53 C48 1_555 1_555
C54 C53 1_555 1_555
H50 C54 1_555 1_555
H51 C54 1_555 1_555
H52 C54 1_555 1_555
C55 S3 1_555 1_555
I7 C69 1_555 1_555
S4 O7 1_555 1_555
F10 C78 1_555 1_555
F11 C78 1_555 1_555
F12 C78 1_555 1_555
O8 S4 1_555 1_555
N4 S4 1_555 1_555
H60 N4 1_555 1_555
C63 N4 1_555 1_555
H61 C63 1_555 1_555
C64 C63 1_555 1_555
C65 C64 1_555 1_555
C66 C65 1_555 1_555
H62 C66 1_555 1_555
C67 C66 1_555 1_555
H63 C67 1_555 1_555
C68 C67 1_555 1_555
H64 C68 1_555 1_555
C69 C64 1_555 1_555
C70 C65 1_555 1_555
H65 C70 1_555 1_555
H66 C70 1_555 1_555
H67 C70 1_555 1_555
C71 C63 1_555 1_555
C72 C71 1_555 1_555
H68 C72 1_555 1_555
C73 C72 1_555 1_555
H69 C73 1_555 1_555
C74 C73 1_555 1_555
H70 C74 1_555 1_555
C75 C74 1_555 1_555
H71 C75 1_555 1_555
C76 C71 1_555 1_555
C77 C76 1_555 1_555
H72 C77 1_555 1_555
H73 C77 1_555 1_555
H74 C77 1_555 1_555
C78 S4 1_555 1_555
C6 C7 1_555 1_555
C13 C14 1_555 1_555
C22 C23 1_555 1_555
C29 C30 1_555 1_555
C45 C46 1_555 1_555
C52 C53 1_555 1_555
C68 C69 1_555 1_555
C75 C76 1_555 1_555

#END
