
#######################################################################
#
#                 Cambridge Crystallographic Data Centre
#                                CCDC 
#
#######################################################################
#
# If this CIF has been generated from an entry in the Cambridge 
# Structural Database, then it will include bibliographic, chemical, 
# crystal, experimental, refinement or atomic coordinate data resulting 
# from the CCDC's data processing and validation procedures.
#
#######################################################################

data_DOHJUH
_chemical_formula_moiety         'C59 H62 I1 N5 O4,C17 H26 N2 O2'
_chemical_name_systematic        
"N-(2-(hexanoyl(methyl)amino)ethyl)-N-methylbenzamide 11'-iodo-5',17',23',35',38',40',43',45'-octamethyl-7',15',25',33',39'-pentaazadispiro[cyclohexane-1,2'-heptacyclo[32.2.2.2^3,6^.2^16,19^.2^21,24^.1^9,13^.1^27,31^]hexatetracontane-20',1''-cyclohexane]-1'(36'),3',5',9'(44'),10',12',16',18',21',23',27'(39'),28',30',34',37',40',42',45'-octadecaene-8',14',26',32'-tetrone"
_symmetry_cell_setting           monoclinic
_symmetry_space_group_name_H-M   'P 21'
_symmetry_Int_Tables_number      4
_space_group_name_Hall           'P 2yb'
loop_
_symmetry_equiv_pos_site_id
_symmetry_equiv_pos_as_xyz
1 x,y,z
2 -x,1/2+y,-z
_cell_length_a                   17.0807(5)
_cell_length_b                   9.5870(3)
_cell_length_c                   20.1987(6)
_cell_angle_alpha                90
_cell_angle_beta                 93.695(3)
_cell_angle_gamma                90
_cell_volume                     3300.72
_exptl_crystal_colour            colorless
_exptl_crystal_description       block
_cell_formula_units_Z            2
loop_
_atom_site_label
_atom_site_type_symbol
_atom_site_fract_x
_atom_site_fract_y
_atom_site_fract_z
N1 N 0.5462(5) 1.1988(9) 0.2924(3)
N2 N 0.9380(6) 0.3269(9) 0.3390(4)
H1 H 0.932(6) 0.383(10) 0.309(4)
N3 N 0.8962(5) 0.4341(8) 0.1100(4)
H2 H 0.891(6) 0.446(12) 0.1491(17)
N4 N 0.6030(6) 1.0102(12) 0.3889(5)
H3 H 0.589(7) 0.981(14) 0.344(6)
N5 N 0.5658(6) 1.1224(12) 0.1678(4)
H4 H 0.570(8) 1.058(14) 0.200(6)
O1 O 0.5200(5) 1.3298(9) 0.1285(4)
O2 O 0.5710(7) 1.1605(14) 0.4677(4)
O3 O 0.9846(4) 0.1137(8) 0.3726(3)
O4 O 0.9158(5) 0.2669(10) 0.0303(3)
C1 C 0.6887(5) 0.8303(10) -0.1017(4)
H5 H 0.6515 0.7609 -0.0884
H6 H 0.6592 0.9092 -0.1201
C2 C 0.9645(5) 0.2257(9) 0.1420(3)
C3 C 0.7058(6) 0.5675(13) 0.6788(4)
H7 H 0.6728 0.6062 0.7116
H8 H 0.7367 0.4927 0.6997
C4 C 0.9262(7) 0.3158(16) 0.0891(5)
C5 C 0.7453(8) 0.3762(11) 0.0389(7)
H9 H 0.6920 0.3828 0.0210
H10 H 0.7461 0.3416 0.0835
H11 H 0.7738 0.3137 0.0122
C6 C 0.7378(6) 0.7684(11) -0.1552(5)
H12 H 0.7035 0.7353 -0.1920
H13 H 0.7678 0.6897 -0.1372
C7 C 0.7523(5) 0.8172(6) 0.4956(5)
H14 H 0.8041 0.8296 0.5117
C8 C 0.5329(6) 1.2477(11) 0.1721(5)
C9 C 1.0171(5) 0.1225(9) 0.1257(4)
H15 H 1.0242 0.1003 0.0817
C10 C 0.7699(8) 0.3224(13) 0.3193(4)
H16 H 0.7783 0.3801 0.2816
H17 H 0.7148 0.3182 0.3259
H18 H 0.7892 0.2301 0.3116
C11 C 1.0251(6) 0.397(2) 0.4651(5)
H19 H 1.0377 0.4037 0.5120
H20 H 1.0531 0.4673 0.4426
H21 H 1.0397 0.3064 0.4498
C12 C 0.7281(5) 1.0039(10) 0.0688(3)
H22 H 0.7824 0.9993 0.0752
C13 C 0.6853(4) 1.0633(10) 0.1179(4)
C14 C 0.7828(4) 0.5183(8) 0.0388(4)
C15 C 0.5332(6) 1.2221(10) 0.3554(3)
C16 C 0.6544(5) 0.5095(12) 0.6203(4)
H23 H 0.6198 0.5823 0.6024
H24 H 0.6222 0.4342 0.6356
C17 C 0.9888(4) 0.1743(8) 0.2575(3)
C18 C 0.7277(7) 1.1176(13) 0.1811(5)
H25 H 0.7820 1.0916 0.1819
H26 H 0.7044 1.0781 0.2188
H27 H 0.7234 1.2174 0.1825
C19 C 1.0588(5) 0.0536(9) 0.1773(3)
C20 C 0.7160(4) 0.6897(7) 0.5051(4)
C21 C 0.8911(3) 0.4810(9) 0.4980(3)
H28 H 0.9165 0.5121 0.5373
C22 C 0.8093(4) 0.6226(10) 0.6007(3)
H29 H 0.8419 0.5474 0.6190
H30 H 0.8438 0.6953 0.5862
C23 C 0.8606(4) 0.7699(9) 0.0232(4)
H31 H 0.8873 0.8525 0.0160
C24 C 0.6042(4) 1.0763(10) 0.1100(4)
C25 C 0.8447(5) 0.9416(12) -0.1224(4)
H32 H 0.8735 1.0207 -0.1383
H33 H 0.8824 0.8725 -0.1056
C26 C 0.4824(7) 1.0510(15) 0.0394(6)
H34 H 0.4613 0.9826 0.0084
H35 H 0.4723 1.1427 0.0218
H36 H 0.4580 1.0412 0.0806
C27 C 0.7395(5) 0.8784(9) -0.0404(4)
C28 C 0.7492(5) 0.6264(7) 0.0009(5)
H37 H 0.7010 0.6110 -0.0220
C29 C 0.7132(4) 0.9264(8) 0.4625(5)
C30 C 0.4823(5) 1.3262(9) 0.3727(4)
H38 H 0.4708 1.3387 0.4167
C31 C 1.0444(4) 0.0744(8) 0.2435(3)
H39 H 1.0708 0.0235 0.2771
C32 C 0.5206(7) 0.7498(16) 0.4029(6)
H40 H 0.5108 0.6512 0.4032
H41 H 0.5207 0.7821 0.3580
H42 H 0.4802 0.7973 0.4251
C33 C 0.6918(4) 0.9511(9) 0.0105(3)
C34 C 0.6109(4) 0.9681(10) 0.0028(4)
H43 H 0.5847 0.9365 -0.0362
C35 C 0.6026(5) 0.7807(7) 0.4400(4)
C36 C 0.6407(4) 0.6737(8) 0.4755(4)
H44 H 0.6152 0.5888 0.4796
C37 C 0.9502(5) 0.2531(9) 0.2077(2)
H45 H 0.9154 0.3231 0.2182
C38 C 0.4491(7) 1.4114(12) 0.3233(4)
H46 H 0.4184 1.4874 0.3338
C39 C 0.9351(4) 0.4185(11) 0.4506(3)
C40 C 0.9787(6) 0.6869(17) 0.0892(5)
H47 H 1.0003 0.7697 0.0708
H48 H 1.0103 0.6079 0.0789
H49 H 0.9781 0.6967 0.1364
C41 C 0.8991(5) 0.6665(6) 0.0609(4)
C42 C 0.7936(6) 0.8792(12) -0.1798(4)
H50 H 0.8269 0.8375 -0.2115
H51 H 0.7633 0.9528 -0.2023
C43 C 0.4623(6) 1.3814(11) 0.2580(4)
H52 H 0.4382 1.4345 0.2239
C44 C 0.8577(4) 0.5429(7) 0.0674(4)
C45 C 0.7949(5) 0.9890(10) -0.0662(4)
H53 H 0.7638 1.0686 -0.0816
H54 H 0.8299 1.0203 -0.0294
C46 C 0.8136(4) 0.3842(8) 0.3810(3)
C47 C 0.8945(4) 0.3741(10) 0.3926(3)
C48 C 0.5741(6) 1.1337(12) 0.4111(5)
C49 C 0.7582(7) 1.0598(13) 0.4523(6)
H55 H 0.8073 1.0567 0.4781
H56 H 0.7280 1.1379 0.4661
H57 H 0.7676 1.0696 0.4062
C50 C 0.7594(4) 0.5679(9) 0.5403(3)
C51 C 0.8103(3) 0.4987(8) 0.4885(3)
C52 C 0.7730(4) 0.4483(7) 0.4302(2)
H58 H 0.7189 0.4578 0.4238
C53 C 0.7843(4) 0.7565(7) -0.0043(4)
C54 C 0.5674(5) 1.0302(10) 0.0506(3)
C55 C 0.5114(5) 1.2724(10) 0.2435(4)
C56 C 0.6392(4) 0.9082(8) 0.4309(4)
C57 C 0.9734(5) 0.2025(11) 0.3273(4)
C58 C 0.7047(5) 0.4553(8) 0.5657(3)
H59 H 0.6706 0.4215 0.5290
H60 H 0.7360 0.3773 0.5828
C59 C 0.7605(5) 0.6809(11) 0.6551(4)
H61 H 0.7298 0.7597 0.6380
H62 H 0.7950 0.7131 0.6920
I1 I 1.14906(5) -0.0959(3) 0.15584(5)
C60 C 0.2757(9) 1.610(3) 0.3733(15)
C61 C 0.1984(11) 1.549(2) 0.3448(16)
C62 C 0.1334(10) 1.657(2) 0.3358(18)
C63 C -0.0930(11) 1.663(2) 0.276(2)
C64 C 0.0624(13) 1.606(3) 0.2934(16)
C65 C -0.0103(9) 1.695(3) 0.2995(14)
C66 C -0.1419(13) 1.888(2) 0.3163(9)
C67 C -0.4878(7) 1.762(2) 0.1873(9)
C68 C -0.4138(10) 1.7896(18) 0.2284(12)
C69 C -0.4966(8) 1.737(2) 0.1194(9)
C70 C -0.5697(10) 1.753(2) 0.0858(6)
C71 C -0.6339(7) 1.794(2) 0.1201(7)
C72 C -0.6250(8) 1.819(2) 0.1880(8)
C73 C -0.5520(10) 1.803(2) 0.2215(6)
C74 C -0.2222(9) 1.748(3) 0.2342(10)
C75 C -0.2906(9) 1.706(3) 0.2746(9)
C76 C -0.365(3) 1.541(2) 0.2055(19)
N6 N -0.1475(10) 1.7640(19) 0.2733(9)
N7 N -0.3635(9) 1.6821(18) 0.2341(9)
O5 O -0.1158(7) 1.5578(13) 0.2451(6)
O6 O -0.4017(9) 1.9012(17) 0.2577(8)
H63 H -0.4537 1.7102 0.0964
H64 H -0.5756 1.7366 0.0404
H65 H -0.6828 1.8044 0.0976
H66 H -0.6680 1.8458 0.2109
H67 H -0.5460 1.8194 0.2670
H68 H 0.2671 1.6592 0.4135
H69 H 0.2960 1.6731 0.3417
H70 H 0.3126 1.5360 0.3825
H71 H 0.1818 1.4761 0.3741
H72 H 0.2065 1.5067 0.3021
H73 H 0.0753 1.6040 0.2474
H74 H 0.0508 1.5109 0.3063
H75 H -0.3865 1.5118 0.1738
H76 H -0.3713 1.4737 0.2400
H77 H -0.3170 1.5237 0.1849
H78 H -0.2695 1.7426 0.3105
H79 H -0.2157 1.6775 0.2004
H80 H -0.2350 1.8350 0.2119
H81 H -0.2768 1.6209 0.2989
H82 H -0.1639 1.8673 0.3577
H83 H -0.1703 1.9637 0.2949
H84 H -0.0873 1.9048 0.3319
H85 H -0.0119 1.7145 0.3465
H86 H 0.0015 1.7831 0.2787
H87 H 0.1168 1.6838 0.3791
H88 H 0.1540 1.7399 0.3154
C77? C 0.1904(11) 1.624(3) 0.3550(12)
H89? H 0.2257 1.6384 0.3940
H90? H 0.1768 1.5256 0.3533
C78? C 0.1163(9) 1.709(3) 0.3620(13)
H91? H 0.1285 1.8071 0.3574
H92? H 0.0983 1.6950 0.4061
C79? C 0.0504(12) 1.670(4) 0.3109(13)
H93? H 0.0638 1.7030 0.2676
H94? H 0.0460 1.5694 0.3087
C80? C -0.0923(11) 1.670(3) 0.2817(19)
O7? O -0.0857(7) 1.5656(12) 0.2467(6)
O8? O -0.3731(9) 1.8921(17) 0.2505(8)
C81? C -0.2346(10) 1.703(3) 0.2794(10)
H95? H -0.2389 1.6023 0.2821
N8? N -0.1541(9) 1.7432(19) 0.2999(11)
N9? N -0.3426(8) 1.7011(19) 0.1965(10)
C82? C -0.337(2) 1.558(2) 0.171(2)
H96? H -0.3247 1.5619 0.1249
H97? H -0.2969 1.5085 0.1959
C83? C -0.2620(10) 1.749(3) 0.2098(10)
H98? H -0.2596 1.8497 0.2063
H99? H -0.2285 1.7088 0.1778
C84? C 0.2330(15) 1.661(3) 0.2936(13)
H100? H 0.2364 1.7606 0.2898
H101? H 0.2046 1.6239 0.2550
H102? H 0.2849 1.6220 0.2973
C85? C -0.0284(9) 1.731(3) 0.3263(13)
H103? H -0.0384 1.7117 0.3722
H104? H -0.0276 1.8315 0.3205
H105? H -0.0878 1.9139 0.3243
C86? C -0.1399(13) 1.8736(19) 0.3371(10)
H106? H -0.1470 1.8576 0.3832
H107? H -0.1763 1.9435 0.3204
C87? C -0.3962(8) 1.789(2) 0.2186(12)
C88? C -0.4790(7) 1.794(2) 0.1902(9)
C89? C -0.4990(8) 1.741(2) 0.1275(9)
H108? H -0.4599 1.7114 0.1006
C90? C -0.5774(9) 1.731(2) 0.1049(7)
H109? H -0.5908 1.6949 0.0629
C91? C -0.6358(7) 1.774(2) 0.1450(8)
H110? H -0.6882 1.7679 0.1299
C92? C -0.6158(8) 1.828(2) 0.2078(8)
H111? H -0.6548 1.8573 0.2346
C93? C -0.5374(10) 1.838(2) 0.2304(7)
H112? H -0.5240 1.8738 0.2724
H113? H -0.4085 1.5336 0.1729
H114? H -0.2992 1.7783 0.3067
I2? I 0.35171(9) 1.5438(3) 0.34459(9)
loop_
_geom_bond_atom_site_label_1
_geom_bond_atom_site_label_2
_geom_bond_site_symmetry_1
_geom_bond_site_symmetry_2
N1 C15 1_555 1_555
N2 H1 1_555 1_555
N3 H2 1_555 1_555
N4 H3 1_555 1_555
N5 H4 1_555 1_555
O1 C8 1_555 1_555
O2 C48 1_555 1_555
O3 C57 1_555 1_555
O4 C4 1_555 1_555
C1 H5 1_555 1_555
H6 C1 1_555 1_555
C2 C4 1_555 1_555
C3 H7 1_555 1_555
H8 C3 1_555 1_555
C4 N3 1_555 1_555
C5 H9 1_555 1_555
H10 C5 1_555 1_555
H11 C5 1_555 1_555
C6 C1 1_555 1_555
H12 C6 1_555 1_555
H13 C6 1_555 1_555
C7 H14 1_555 1_555
C8 N5 1_555 1_555
C9 C2 1_555 1_555
H15 C9 1_555 1_555
C10 H16 1_555 1_555
H17 C10 1_555 1_555
H18 C10 1_555 1_555
C11 H19 1_555 1_555
H20 C11 1_555 1_555
H21 C11 1_555 1_555
C12 H22 1_555 1_555
C13 C12 1_555 1_555
C14 C5 1_555 1_555
C15 C30 1_555 1_555
C16 C3 1_555 1_555
H23 C16 1_555 1_555
H24 C16 1_555 1_555
C17 C31 1_555 1_555
C18 C13 1_555 1_555
H25 C18 1_555 1_555
H26 C18 1_555 1_555
H27 C18 1_555 1_555
C19 C9 1_555 1_555
C20 C7 1_555 1_555
C21 H28 1_555 1_555
C22 H29 1_555 1_555
H30 C22 1_555 1_555
C23 H31 1_555 1_555
C24 N5 1_555 1_555
C25 H32 1_555 1_555
H33 C25 1_555 1_555
C26 H34 1_555 1_555
H35 C26 1_555 1_555
H36 C26 1_555 1_555
C27 C1 1_555 1_555
C28 C14 1_555 1_555
H37 C28 1_555 1_555
C29 C7 1_555 1_555
C30 H38 1_555 1_555
C31 C19 1_555 1_555
H39 C31 1_555 1_555
C32 H40 1_555 1_555
H41 C32 1_555 1_555
H42 C32 1_555 1_555
C33 C12 1_555 1_555
C34 C33 1_555 1_555
H43 C34 1_555 1_555
C35 C32 1_555 1_555
C36 C20 1_555 1_555
H44 C36 1_555 1_555
C37 C2 1_555 1_555
H45 C37 1_555 1_555
C38 C30 1_555 1_555
H46 C38 1_555 1_555
C39 C11 1_555 1_555
C40 H47 1_555 1_555
H48 C40 1_555 1_555
H49 C40 1_555 1_555
C41 C23 1_555 1_555
C42 C6 1_555 1_555
H50 C42 1_555 1_555
H51 C42 1_555 1_555
C43 C38 1_555 1_555
H52 C43 1_555 1_555
C44 N3 1_555 1_555
C45 C25 1_555 1_555
H53 C45 1_555 1_555
H54 C45 1_555 1_555
C46 C10 1_555 1_555
C47 N2 1_555 1_555
C48 N4 1_555 1_555
C49 C29 1_555 1_555
H55 C49 1_555 1_555
H56 C49 1_555 1_555
H57 C49 1_555 1_555
C50 C20 1_555 1_555
C51 C21 1_555 1_555
C52 C46 1_555 1_555
H58 C52 1_555 1_555
C53 C23 1_555 1_555
C54 C24 1_555 1_555
C55 N1 1_555 1_555
C56 N4 1_555 1_555
C57 N2 1_555 1_555
C58 C16 1_555 1_555
H59 C58 1_555 1_555
H60 C58 1_555 1_555
C59 C3 1_555 1_555
H61 C59 1_555 1_555
H62 C59 1_555 1_555
I1 C19 1_555 1_555
C60 C61 1_555 1_555
C61 C62 1_555 1_555
C62 C64 1_555 1_555
C63 C65 1_555 1_555
C64 C65 1_555 1_555
C65 H85 1_555 1_555
C66 N6 1_555 1_555
C67 C68 1_555 1_555
C68 N7 1_555 1_555
C69 C67 1_555 1_555
C70 C69 1_555 1_555
C71 C70 1_555 1_555
C72 C71 1_555 1_555
C73 C67 1_555 1_555
C74 C75 1_555 1_555
C75 N7 1_555 1_555
C76 N7 1_555 1_555
N6 C63 1_555 1_555
O5 C63 1_555 1_555
O6 C68 1_555 1_555
H63 C69 1_555 1_555
H64 C70 1_555 1_555
H65 C71 1_555 1_555
H66 C72 1_555 1_555
H67 C73 1_555 1_555
H68 C60 1_555 1_555
H69 C60 1_555 1_555
H70 C60 1_555 1_555
H71 C61 1_555 1_555
H72 C61 1_555 1_555
H73 C64 1_555 1_555
H74 C64 1_555 1_555
H75 C76 1_555 1_555
H76 C76 1_555 1_555
H77 C76 1_555 1_555
H78 C75 1_555 1_555
H79 C74 1_555 1_555
H80 C74 1_555 1_555
H81 C75 1_555 1_555
H82 C66 1_555 1_555
H83 C66 1_555 1_555
H84 C66 1_555 1_555
H86 C65 1_555 1_555
H87 C62 1_555 1_555
H88 C62 1_555 1_555
C8 C55 1_555 1_555
C13 C24 1_555 1_555
C14 C44 1_555 1_555
C15 C48 1_555 1_555
C17 C37 1_555 1_555
C17 C57 1_555 1_555
C21 C39 1_555 1_555
C22 C50 1_555 1_555
C22 C59 1_555 1_555
C25 C42 1_555 1_555
C26 C54 1_555 1_555
C27 C33 1_555 1_555
C27 C45 1_555 1_555
C27 C53 1_555 1_555
C28 C53 1_555 1_555
C29 C56 1_555 1_555
C34 C54 1_555 1_555
C35 C36 1_555 1_555
C35 C56 1_555 1_555
C39 C47 1_555 1_555
C40 C41 1_555 1_555
C41 C44 1_555 1_555
C43 C55 1_555 1_555
C46 C47 1_555 1_555
C50 C51 1_555 1_555
C50 C58 1_555 1_555
C51 C52 1_555 1_555
C72 C73 1_555 1_555
C74 N6 1_555 1_555

#END
