
#######################################################################
#
#                 Cambridge Crystallographic Data Centre
#                                CCDC 
#
#######################################################################
#
# If this CIF has been generated from an entry in the Cambridge 
# Structural Database, then it will include bibliographic, chemical, 
# crystal, experimental, refinement or atomic coordinate data resulting 
# from the CCDC's data processing and validation procedures.
#
#######################################################################

data_DOJLAR
_chemical_formula_moiety         'C11 H16 N6'
_chemical_name_systematic        
1,1'-Carbonohydrazonoylbis(3,5-dimethyl-1H-pyrazole)
_symmetry_cell_setting           monoclinic
_symmetry_space_group_name_H-M   'P 21/n'
_symmetry_Int_Tables_number      14
_space_group_name_Hall           '-P 2yn'
loop_
_symmetry_equiv_pos_site_id
_symmetry_equiv_pos_as_xyz
1 x,y,z
2 1/2-x,1/2+y,1/2-z
3 -x,-y,-z
4 1/2+x,1/2-y,1/2+z
_cell_length_a                   6.795(7)
_cell_length_b                   6.893(7)
_cell_length_c                   26.91(3)
_cell_angle_alpha                90
_cell_angle_beta                 90.860(11)
_cell_angle_gamma                90
_cell_volume                     1260.27
_cell_formula_units_Z            4
loop_
_atom_site_label
_atom_site_type_symbol
_atom_site_fract_x
_atom_site_fract_y
_atom_site_fract_z
N1 N 0.7064(13) 0.6694(10) 0.5689(3)
N2 N 0.7055(10) 0.8163(9) 0.6044(3)
N3 N 0.7518(11) 0.8526(10) 0.6894(3)
N4 N 0.6934(14) 0.8301(11) 0.7366(3)
H1 H 0.5883 0.7604 0.7430
H2 H 0.7603 0.8851 0.7610
N5 N 0.4896(11) 0.6488(10) 0.6585(3)
N6 N 0.5042(11) 0.4885(10) 0.6897(3)
C1 C 0.7508(19) 0.6465(16) 0.4784(4)
H3 H 0.6953 0.5166 0.4830
H4 H 0.8890 0.6353 0.4689
H5 H 0.6768 0.7144 0.4522
C2 C 0.7376(15) 0.7581(14) 0.5260(3)
C3 C 0.7577(14) 0.9637(13) 0.5337(3)
H6 H 0.7812 1.0586 0.5088
C4 C 0.7369(13) 0.9968(10) 0.5832(3)
C5 C 0.7412(19) 1.1807(12) 0.6130(4)
H7 H 0.6388 1.1758 0.6382
H8 H 0.7172 1.2916 0.5909
H9 H 0.8703 1.1948 0.6293
C6 C 0.6539(14) 0.7720(12) 0.6533(3)
C7 C 0.2511(15) 0.8200(14) 0.6008(4)
H10 H 0.3368 0.8102 0.5720
H11 H 0.2697 0.9467 0.6168
H12 H 0.1135 0.8061 0.5900
C8 C 0.3025(14) 0.6607(12) 0.6376(3)
C9 C 0.2040(15) 0.5063(13) 0.6539(4)
H13 H 0.0731 0.4726 0.6445
C10 C 0.3231(13) 0.4033(12) 0.6867(3)
C11 C 0.2844(14) 0.2227(12) 0.7162(4)
H14 H 0.1609 0.1634 0.7046
H15 H 0.2742 0.2560 0.7514
H16 H 0.3928 0.1308 0.7117
loop_
_geom_bond_atom_site_label_1
_geom_bond_atom_site_label_2
_geom_bond_site_symmetry_1
_geom_bond_site_symmetry_2
N1 N2 1_555 1_555
N2 C4 1_555 1_555
N3 N4 1_555 1_555
N4 H1 1_555 1_555
H2 N4 1_555 1_555
N5 N6 1_555 1_555
N6 C10 1_555 1_555
C1 H3 1_555 1_555
H4 C1 1_555 1_555
H5 C1 1_555 1_555
C2 N1 1_555 1_555
C3 C2 1_555 1_555
H6 C3 1_555 1_555
C4 C3 1_555 1_555
C5 C4 1_555 1_555
H7 C5 1_555 1_555
H8 C5 1_555 1_555
H9 C5 1_555 1_555
C6 N2 1_555 1_555
C7 H10 1_555 1_555
H11 C7 1_555 1_555
H12 C7 1_555 1_555
C8 N5 1_555 1_555
C9 C8 1_555 1_555
H13 C9 1_555 1_555
C10 C9 1_555 1_555
C11 C10 1_555 1_555
H14 C11 1_555 1_555
H15 C11 1_555 1_555
H16 C11 1_555 1_555
N3 C6 1_555 1_555
N5 C6 1_555 1_555
C1 C2 1_555 1_555
C7 C8 1_555 1_555

#END
