
#######################################################################
#
#                 Cambridge Crystallographic Data Centre
#                                CCDC 
#
#######################################################################
#
# If this CIF has been generated from an entry in the Cambridge 
# Structural Database, then it will include bibliographic, chemical, 
# crystal, experimental, refinement or atomic coordinate data resulting 
# from the CCDC's data processing and validation procedures.
#
#######################################################################

data_DOKLEU
_chemical_formula_moiety         'C16 H24 O5'
_chemical_name_systematic        Benzo-17-crown-5
_symmetry_cell_setting           monoclinic
_symmetry_space_group_name_H-M   'P 21/a'
_symmetry_Int_Tables_number      14
_space_group_name_Hall           '-P 2yab'
loop_
_symmetry_equiv_pos_site_id
_symmetry_equiv_pos_as_xyz
1 x,y,z
2 1/2-x,1/2+y,-z
3 -x,-y,-z
4 1/2+x,1/2-y,z
_cell_length_a                   20.165(3)
_cell_length_b                   7.853(2)
_cell_length_c                   10.148(2)
_cell_angle_alpha                90
_cell_angle_beta                 102.75(2)
_cell_angle_gamma                90
_cell_volume                     1567.37
_chemical_melting_point          45-46deg.C
_cell_formula_units_Z            4
loop_
_atom_site_label
_atom_site_type_symbol
_atom_site_fract_x
_atom_site_fract_y
_atom_site_fract_z
O1 O 0.4899(6) 0.3291(2) 0.3287(1)
O2 O 0.2996(7) 0.1623(2) 0.1121(2)
O3 O 0.3687(6) 0.0927(2) -0.1242(1)
O4 O 0.4995(7) 0.2104(2) -0.2216(1)
O5 O 0.5727(6) 0.3829(5) 0.1747(1)
C1 C 0.6024(9) 0.3535(2) 0.3068(2)
C2 C 0.6708(10) 0.3489(3) 0.3595(2)
C3 C 0.6952(11) 0.3082(4) 0.4948(2)
C4 C 0.6506(12) 0.2760(4) 0.5758(2)
C5 C 0.5819(11) 0.2829(3) 0.5249(2)
C6 C 0.5567(9) 0.3219(2) 0.3906(2)
C7 C 0.4419(10) 0.2671(3) 0.4016(2)
C8 C 0.3731(9) 0.2725(3) 0.3082(2)
C9 C 0.3679(9) 0.1608(3) 0.1863(2)
C10 C 0.2850(9) 0.0421(3) 0.0055(2)
C11 C 0.2986(10) 0.0995(3) -0.1256(2)
C12 C 0.3814(11) 0.1137(3) -0.2555(2)
C13 C 0.4539(10) 0.0737(3) -0.2560(2)
C14 C 0.5242(9) 0.2309(3) -0.0809(2)
C15 C 0.5726(9) 0.3800(3) -0.0591(2)
C16 C 0.6160(8) 0.3862(3) 0.0812(2)
loop_
_geom_bond_atom_site_label_1
_geom_bond_atom_site_label_2
_geom_bond_site_symmetry_1
_geom_bond_site_symmetry_2
O1 C6 1_555 1_555
O2 C9 1_555 1_555
O3 C11 1_555 1_555
O4 C13 1_555 1_555
O5 C1 1_555 1_555
C1 C2 1_555 1_555
C2 C3 1_555 1_555
C3 C4 1_555 1_555
C4 C5 1_555 1_555
C5 C6 1_555 1_555
C6 C1 1_555 1_555
C7 O1 1_555 1_555
C8 C7 1_555 1_555
C9 C8 1_555 1_555
C10 O2 1_555 1_555
C11 C10 1_555 1_555
C12 O3 1_555 1_555
C13 C12 1_555 1_555
C14 O4 1_555 1_555
C15 C14 1_555 1_555
C16 O5 1_555 1_555
C15 C16 1_555 1_555

#END
