
#######################################################################
#
#                 Cambridge Crystallographic Data Centre
#                                CCDC 
#
#######################################################################
#
# If this CIF has been generated from an entry in the Cambridge 
# Structural Database, then it will include bibliographic, chemical, 
# crystal, experimental, refinement or atomic coordinate data resulting 
# from the CCDC's data processing and validation procedures.
#
#######################################################################

data_DOKTON
_chemical_formula_moiety         'C14 H11 Cl1 N2 O2'
_chemical_name_systematic        
N'-(4-Chlorobenzylidene)-2-hydroxybenzohydrazide
_symmetry_cell_setting           monoclinic
_symmetry_space_group_name_H-M   'P 21/n'
_symmetry_Int_Tables_number      14
_space_group_name_Hall           '-P 2yn'
loop_
_symmetry_equiv_pos_site_id
_symmetry_equiv_pos_as_xyz
1 x,y,z
2 1/2-x,1/2+y,1/2-z
3 -x,-y,-z
4 1/2+x,1/2-y,1/2+z
_cell_length_a                   4.8557(6)
_cell_length_b                   24.588(3)
_cell_length_c                   11.0903(13)
_cell_angle_alpha                90
_cell_angle_beta                 99.710(2)
_cell_angle_gamma                90
_cell_volume                     1305.12
_exptl_crystal_colour            colorless
_exptl_crystal_description       block
_cell_formula_units_Z            4
loop_
_atom_site_label
_atom_site_type_symbol
_atom_site_fract_x
_atom_site_fract_y
_atom_site_fract_z
Cl1 Cl -0.39445(17) 1.00945(3) 0.73436(9)
O1 O 0.9734(4) 0.73796(8) 0.50406(15)
N1 N 0.6996(4) 0.76768(8) 0.67797(18)
O2 O 0.8154(4) 0.72610(8) 0.85960(14)
N2 N 0.5245(4) 0.80391(8) 0.72149(16)
C1 C 0.8405(4) 0.73021(9) 0.75183(18)
C2 C 1.0293(4) 0.69349(9) 0.69718(18)
C3 C 0.3878(5) 0.83421(10) 0.6399(2)
H1 H 0.4112 0.8294 0.5591
C4 C 1.2815(5) 0.66229(11) 0.5401(2)
H2 H 1.3252 0.6657 0.4619
C5 C 1.0942(4) 0.69832(9) 0.57896(18)
C6 C 1.4019(5) 0.62186(11) 0.6157(2)
H3 H 1.5299 0.5984 0.5892
C7 C 0.1965(5) 0.87608(10) 0.6674(2)
C8 C 1.1533(5) 0.65119(11) 0.7705(2)
H4 H 1.1112 0.6471 0.8487
C9 C -0.0225(6) 0.93008(11) 0.8045(3)
H5 H -0.0453 0.9389 0.8838
C10 C 0.1588(6) 0.88896(11) 0.7845(2)
H6 H 0.2561 0.8698 0.8506
C11 C -0.1684(5) 0.95778(10) 0.7069(3)
C12 C 1.3350(6) 0.61556(12) 0.7309(2)
H7 H 1.4127 0.5873 0.7812
C13 C 0.0436(6) 0.90483(13) 0.5712(3)
H8 H 0.0643 0.8963 0.4915
C14 C -0.1375(6) 0.94547(13) 0.5903(3)
H9 H -0.2377 0.9644 0.5245
H10 H 1.053(6) 0.7435(12) 0.449(2)
H11 H 0.708(5) 0.7692(10) 0.607(2)
loop_
_geom_bond_atom_site_label_1
_geom_bond_atom_site_label_2
_geom_bond_site_symmetry_1
_geom_bond_site_symmetry_2
Cl1 C11 1_555 1_555
O1 C5 1_555 1_555
N1 N2 1_555 1_555
O2 C1 1_555 1_555
N2 C3 1_555 1_555
C1 N1 1_555 1_555
C2 C1 1_555 1_555
C3 H1 1_555 1_555
C4 H2 1_555 1_555
C5 C2 1_555 1_555
C6 C4 1_555 1_555
H3 C6 1_555 1_555
C7 C3 1_555 1_555
C8 C2 1_555 1_555
H4 C8 1_555 1_555
C9 H5 1_555 1_555
C10 C7 1_555 1_555
H6 C10 1_555 1_555
C11 C9 1_555 1_555
C12 C6 1_555 1_555
H7 C12 1_555 1_555
C13 C7 1_555 1_555
H8 C13 1_555 1_555
C14 C11 1_555 1_555
H9 C14 1_555 1_555
H10 O1 1_555 1_555
H11 N1 1_555 1_555
C4 C5 1_555 1_555
C8 C12 1_555 1_555
C9 C10 1_555 1_555
C13 C14 1_555 1_555

#END
