
#######################################################################
#
#                 Cambridge Crystallographic Data Centre
#                                CCDC 
#
#######################################################################
#
# If this CIF has been generated from an entry in the Cambridge 
# Structural Database, then it will include bibliographic, chemical, 
# crystal, experimental, refinement or atomic coordinate data resulting 
# from the CCDC's data processing and validation procedures.
#
#######################################################################

data_DOLDAL
_chemical_name_common            
"cesium 25,27-(2,2'-[(5,10,10,15,20,20-hexamethyl-5,10,15,20,22,24-hexahydroporphyrin-5,15-diyl)bis(benzene-4,1-diyloxy)]diethanolate)-26,28-dimethoxycalix(4)arene fluoride chloroform methanol solvate"
_chemical_formula_moiety         'C72 H72 N4 O6,C1 H4 O1,Cs1 1+,F1 1-,C1 H1 Cl3'
_chemical_name_systematic        
'cesium 69,72-dimethoxy-1,37,42,42,51,51-hexamethyl-6,9,29,32-tetraoxa-56,57,58,59-tetraazatridecacyclo[35.9.9.7^11,27^.2^2,5^.2^33,36^.1^17,21^.1^38,41^.1^43,46^.1^47,50^.1^52,55^.1^63,67^.0^10,15^.0^23,28^]doheptaconta-2,4,10,12,14,17(69),18,20,23,25,27,33,35,38,40,43,45,47,49,52,54,60,63(72),64,66,70-hexacosaene fluoride chloroform methanol solvate'
_symmetry_cell_setting           monoclinic
_symmetry_space_group_name_H-M   'P 21/n'
_symmetry_Int_Tables_number      14
_space_group_name_Hall           '-P 2yn'
loop_
_symmetry_equiv_pos_site_id
_symmetry_equiv_pos_as_xyz
1 x,y,z
2 1/2-x,1/2+y,1/2-z
3 -x,-y,-z
4 1/2+x,1/2-y,1/2+z
_cell_length_a                   17.1643(12)
_cell_length_b                   20.2720(15)
_cell_length_c                   20.1109(15)
_cell_angle_alpha                90
_cell_angle_beta                 99.129(2)
_cell_angle_gamma                90
_cell_volume                     6909.05
_exptl_crystal_colour            colorless
_exptl_crystal_description       prisms
_cell_formula_units_Z            4
loop_
_atom_site_label
_atom_site_type_symbol
_atom_site_fract_x
_atom_site_fract_y
_atom_site_fract_z
Cs1 Cs 0.71720(2) 0.54786(2) 0.75416(2)
O7 O 0.4274(3) 0.5187(3) 0.7272(3)
H73 H 0.4411 0.5443 0.7597
C73 C 0.3444(5) 0.5135(5) 0.7147(5)
H74 H 0.3266 0.4881 0.7510
H75 H 0.3279 0.4910 0.6716
H76 H 0.3211 0.5577 0.7129
F1 F 0.4763(2) 0.58889(19) 0.8260(2)
C1 C 0.5983(3) 0.4167(3) 0.6862(3)
C2 C 0.6629(4) 0.3776(3) 0.7059(3)
H1 H 0.6966 0.3601 0.6772
C3 C 0.6709(3) 0.3679(3) 0.7760(3)
H2 H 0.7105 0.3423 0.8026
C4 C 0.6111(3) 0.4021(3) 0.7989(3)
C5 C 0.5936(3) 0.4102(3) 0.8707(3)
C6 C 0.6395(3) 0.4705(3) 0.9018(3)
C7 C 0.7113(3) 0.4745(3) 0.9412(3)
H3 H 0.7431 0.4384 0.9592
C8 C 0.7305(3) 0.5425(3) 0.9506(3)
H4 H 0.7774 0.5599 0.9760
C9 C 0.6699(3) 0.5781(3) 0.9169(3)
C10 C 0.6577(4) 0.6526(3) 0.9135(3)
C11 C 0.6535(3) 0.6779(3) 0.8413(3)
C12 C 0.7049(3) 0.7180(3) 0.8153(3)
H5 H 0.7534 0.7348 0.8385
C13 C 0.6723(3) 0.7301(3) 0.7469(3)
H6 H 0.6951 0.7568 0.7163
C14 C 0.6027(3) 0.6968(3) 0.7326(3)
C15 C 0.5497(3) 0.6886(3) 0.6651(3)
C16 C 0.5732(3) 0.6250(3) 0.6318(3)
C17 C 0.6244(3) 0.6156(3) 0.5873(3)
H7 H 0.6521 0.6491 0.5676
C18 C 0.6289(4) 0.5471(3) 0.5756(3)
H8 H 0.6610 0.5264 0.5473
C19 C 0.5797(3) 0.5159(3) 0.6116(3)
C20 C 0.5622(4) 0.4425(3) 0.6178(3)
C21 C 0.6244(4) 0.3490(3) 0.9122(3)
H9 H 0.6133 0.3537 0.9583
H10 H 0.6814 0.3450 0.9131
H11 H 0.5980 0.3094 0.8916
C22 C 0.7293(5) 0.6859(3) 0.9575(3)
H12 H 0.7218 0.7338 0.9568
H13 H 0.7776 0.6751 0.9395
H14 H 0.7337 0.6699 1.0039
C23 C 0.5840(5) 0.6725(4) 0.9418(4)
H15 H 0.5883 0.6572 0.9884
H16 H 0.5376 0.6525 0.9146
H17 H 0.5787 0.7206 0.9405
C24 C 0.5650(4) 0.7469(3) 0.6206(3)
H18 H 0.5334 0.7418 0.5758
H19 H 0.6211 0.7482 0.6164
H20 H 0.5504 0.7881 0.6410
C25 C 0.5998(5) 0.4057(4) 0.5638(3)
H21 H 0.5732 0.4186 0.5189
H22 H 0.5943 0.3580 0.5696
H23 H 0.6559 0.4171 0.5685
C26 C 0.4733(4) 0.4299(4) 0.6044(4)
H24 H 0.4478 0.4555 0.6362
H25 H 0.4631 0.3829 0.6100
H26 H 0.4520 0.4434 0.5583
C27 C 0.5044(3) 0.4145(3) 0.8722(3)
C28 C 0.4723(3) 0.4543(3) 0.9174(3)
H27 H 0.5060 0.4821 0.9472
C29 C 0.3927(3) 0.4539(3) 0.9196(3)
H28 H 0.3722 0.4815 0.9508
C30 C 0.3422(3) 0.4138(3) 0.8770(3)
C31 C 0.3732(3) 0.3730(3) 0.8335(3)
H29 H 0.3396 0.3439 0.8050
C32 C 0.4532(3) 0.3740(3) 0.8312(3)
H30 H 0.4736 0.3459 0.8003
C33 C 0.2131(3) 0.3709(3) 0.8447(3)
H31 H 0.2322 0.3261 0.8584
H32 H 0.2138 0.3758 0.7958
C34 C 0.1306(3) 0.3797(3) 0.8589(3)
H33 H 0.0992 0.3395 0.8458
H34 H 0.1314 0.3874 0.9076
C35 C 0.0156(3) 0.4405(3) 0.8259(3)
C36 C -0.0068(4) 0.4808(3) 0.8761(3)
C37 C -0.0867(3) 0.4807(3) 0.8823(3)
H35 H -0.1038 0.5069 0.9165
C38 C -0.1412(4) 0.4441(3) 0.8409(3)
H36 H -0.1947 0.4436 0.8477
C39 C -0.1181(3) 0.4081(3) 0.7892(3)
H37 H -0.1563 0.3839 0.7595
C40 C -0.0395(3) 0.4068(3) 0.7803(3)
C41 C 0.0511(4) 0.5243(3) 0.9201(3)
H38 H 0.1046 0.5179 0.9088
H39 H 0.0523 0.5125 0.9680
C42 C 0.0262(4) 0.5954(3) 0.9086(3)
C43 C 0.0329(4) 0.6264(3) 0.8475(3)
C44 C 0.0033(4) 0.6895(3) 0.8324(3)
C45 C -0.0301(4) 0.7233(3) 0.8809(3)
H40 H -0.0496 0.7668 0.8719
C46 C -0.0352(4) 0.6943(3) 0.9415(4)
H41 H -0.0589 0.7179 0.9738
C47 C -0.0071(4) 0.6322(3) 0.9567(3)
H42 H -0.0099 0.6137 0.9997
C48 C 0.0089(4) 0.7193(3) 0.7630(3)
H43 H -0.0034 0.7670 0.7632
H44 H 0.0634 0.7143 0.7533
C49 C -0.0476(4) 0.6854(3) 0.7095(3)
C50 C -0.0214(3) 0.6470(3) 0.6588(3)
C51 C -0.0743(3) 0.6119(3) 0.6140(3)
C52 C -0.1549(4) 0.6178(3) 0.6159(3)
H45 H -0.1917 0.5935 0.5850
C53 C -0.1817(4) 0.6588(3) 0.6627(3)
H46 H -0.2366 0.6649 0.6623
C54 C -0.1284(4) 0.6900(3) 0.7090(3)
H47 H -0.1471 0.7161 0.7425
C55 C -0.0472(4) 0.5635(3) 0.5642(3)
H48 H -0.0714 0.5756 0.5179
H49 H 0.0108 0.5663 0.5671
C56 C -0.0702(4) 0.4934(3) 0.5789(3)
C57 C -0.0307(3) 0.4604(3) 0.6349(3)
C58 C -0.0554(4) 0.3990(3) 0.6551(3)
C59 C -0.1205(4) 0.3699(3) 0.6160(3)
H50 H -0.1383 0.3280 0.6286
C60 C -0.1594(4) 0.4007(3) 0.5595(3)
H51 H -0.2034 0.3797 0.5332
C61 C -0.1351(4) 0.4619(3) 0.5406(3)
H52 H -0.1626 0.4828 0.5015
C62 C -0.0175(4) 0.3689(3) 0.7204(3)
H53 H 0.0406 0.3692 0.7228
H54 H -0.0348 0.3224 0.7225
C63 C 0.0808(3) 0.6921(3) 0.6095(3)
H55 H 0.0745 0.7370 0.6273
H56 H 0.0462 0.6882 0.5653
C64 C 0.1644(3) 0.6813(3) 0.6012(3)
H57 H 0.1725 0.6344 0.5907
H58 H 0.1770 0.7083 0.5633
C65 C 0.2952(3) 0.6938(3) 0.6609(3)
C66 C 0.3283(4) 0.6718(3) 0.6054(3)
H59 H 0.2955 0.6590 0.5649
C67 C 0.4093(3) 0.6692(3) 0.6107(3)
H60 H 0.4312 0.6535 0.5731
C68 C 0.4605(3) 0.6883(3) 0.6675(3)
C69 C 0.4257(3) 0.7097(3) 0.7223(3)
H61 H 0.4586 0.7223 0.7628
C70 C 0.3449(3) 0.7128(3) 0.7186(3)
H62 H 0.3231 0.7283 0.7563
C71 C 0.1453(5) 0.5963(5) 0.8019(5)
H63 H 0.1592 0.6429 0.7985
H64 H 0.1621 0.5717 0.7646
H65 H 0.1720 0.5784 0.8448
C72 C 0.1059(4) 0.4763(5) 0.6570(4)
H66 H 0.1105 0.4972 0.6138
H67 H 0.1114 0.4284 0.6530
H68 H 0.1476 0.4931 0.6919
N1 N 0.5681(3) 0.4322(2) 0.7442(2)
H69 H 0.5269 0.4578 0.7456
N2 N 0.6144(3) 0.5346(2) 0.8860(2)
H70 H 0.5699 0.5456 0.8603
N3 N 0.5921(3) 0.6642(2) 0.7909(2)
H71 H 0.5518 0.6384 0.7950
N4 N 0.5464(3) 0.5636(2) 0.6472(2)
H72 H 0.5131 0.5560 0.6753
O1 O 0.2632(2) 0.41889(19) 0.88089(19)
O2 O 0.0954(2) 0.43540(19) 0.8209(2)
O3 O 0.0585(2) 0.6440(2) 0.65516(19)
O4 O 0.2153(2) 0.6990(2) 0.6615(2)
O5 O 0.0617(3) 0.5901(2) 0.7985(2)
O6 O 0.0312(2) 0.4912(2) 0.6746(2)
O8? O 0.343(2) 0.5538(19) 0.7756(19)
C74? C 0.312(4) 0.535(3) 0.700(2)
F2? F 0.4971(9) 0.5528(8) 0.7673(8)
loop_
_geom_bond_atom_site_label_1
_geom_bond_atom_site_label_2
_geom_bond_site_symmetry_1
_geom_bond_site_symmetry_2
C1 C2 1_555 1_555
C2 H1 1_555 1_555
C3 C2 1_555 1_555
H2 C3 1_555 1_555
C4 C3 1_555 1_555
C5 C4 1_555 1_555
C6 C5 1_555 1_555
C7 C6 1_555 1_555
H3 C7 1_555 1_555
C8 C7 1_555 1_555
H4 C8 1_555 1_555
C9 C8 1_555 1_555
C10 C9 1_555 1_555
C11 C10 1_555 1_555
C12 C11 1_555 1_555
H5 C12 1_555 1_555
C13 C12 1_555 1_555
H6 C13 1_555 1_555
C14 C13 1_555 1_555
C15 C14 1_555 1_555
C16 C15 1_555 1_555
C17 C16 1_555 1_555
H7 C17 1_555 1_555
C18 C17 1_555 1_555
H8 C18 1_555 1_555
C19 C18 1_555 1_555
C20 C1 1_555 1_555
C21 C5 1_555 1_555
H9 C21 1_555 1_555
H10 C21 1_555 1_555
H11 C21 1_555 1_555
C22 C10 1_555 1_555
H12 C22 1_555 1_555
H13 C22 1_555 1_555
H14 C22 1_555 1_555
C23 C10 1_555 1_555
H15 C23 1_555 1_555
H16 C23 1_555 1_555
H17 C23 1_555 1_555
C24 C15 1_555 1_555
H18 C24 1_555 1_555
H19 C24 1_555 1_555
H20 C24 1_555 1_555
C25 C20 1_555 1_555
H21 C25 1_555 1_555
H22 C25 1_555 1_555
H23 C25 1_555 1_555
C26 C20 1_555 1_555
H24 C26 1_555 1_555
H25 C26 1_555 1_555
H26 C26 1_555 1_555
C27 C5 1_555 1_555
C28 C27 1_555 1_555
H27 C28 1_555 1_555
C29 C28 1_555 1_555
H28 C29 1_555 1_555
C30 C29 1_555 1_555
C31 C30 1_555 1_555
H29 C31 1_555 1_555
C32 C27 1_555 1_555
H30 C32 1_555 1_555
C33 H31 1_555 1_555
H32 C33 1_555 1_555
C34 C33 1_555 1_555
H33 C34 1_555 1_555
H34 C34 1_555 1_555
C35 C36 1_555 1_555
C36 C37 1_555 1_555
C37 H35 1_555 1_555
C38 C37 1_555 1_555
H36 C38 1_555 1_555
C39 C38 1_555 1_555
H37 C39 1_555 1_555
C40 C35 1_555 1_555
C41 C36 1_555 1_555
H38 C41 1_555 1_555
H39 C41 1_555 1_555
C42 C41 1_555 1_555
C43 C42 1_555 1_555
C44 C43 1_555 1_555
C45 C44 1_555 1_555
H40 C45 1_555 1_555
C46 C45 1_555 1_555
H41 C46 1_555 1_555
C47 C42 1_555 1_555
H42 C47 1_555 1_555
C48 C44 1_555 1_555
H43 C48 1_555 1_555
H44 C48 1_555 1_555
C49 C48 1_555 1_555
C50 C49 1_555 1_555
C51 C50 1_555 1_555
C52 C51 1_555 1_555
H45 C52 1_555 1_555
C53 C52 1_555 1_555
H46 C53 1_555 1_555
C54 C49 1_555 1_555
H47 C54 1_555 1_555
C55 C51 1_555 1_555
H48 C55 1_555 1_555
H49 C55 1_555 1_555
C56 C55 1_555 1_555
C57 C56 1_555 1_555
C58 C57 1_555 1_555
C59 C58 1_555 1_555
H50 C59 1_555 1_555
C60 C59 1_555 1_555
H51 C60 1_555 1_555
C61 C56 1_555 1_555
H52 C61 1_555 1_555
C62 C40 1_555 1_555
H53 C62 1_555 1_555
H54 C62 1_555 1_555
C63 H55 1_555 1_555
H56 C63 1_555 1_555
C64 C63 1_555 1_555
H57 C64 1_555 1_555
H58 C64 1_555 1_555
C65 C66 1_555 1_555
C66 H59 1_555 1_555
C67 C66 1_555 1_555
H60 C67 1_555 1_555
C68 C15 1_555 1_555
C69 C68 1_555 1_555
H61 C69 1_555 1_555
C70 C65 1_555 1_555
H62 C70 1_555 1_555
C71 H63 1_555 1_555
H64 C71 1_555 1_555
H65 C71 1_555 1_555
C72 H66 1_555 1_555
H67 C72 1_555 1_555
H68 C72 1_555 1_555
N1 C1 1_555 1_555
H69 N1 1_555 1_555
N2 C6 1_555 1_555
H70 N2 1_555 1_555
N3 C11 1_555 1_555
H71 N3 1_555 1_555
N4 C16 1_555 1_555
H72 N4 1_555 1_555
O1 C30 1_555 1_555
O2 C34 1_555 1_555
O3 C50 1_555 1_555
O4 C64 1_555 1_555
O5 C43 1_555 1_555
O6 C57 1_555 1_555
O7 H73 1_555 1_555
C73 O7 1_555 1_555
H74 C73 1_555 1_555
H75 C73 1_555 1_555
H76 C73 1_555 1_555
C4 N1 1_555 1_555
C9 N2 1_555 1_555
C14 N3 1_555 1_555
C19 C20 1_555 1_555
C19 N4 1_555 1_555
C31 C32 1_555 1_555
C33 O1 1_555 1_555
C35 O2 1_555 1_555
C39 C40 1_555 1_555
C46 C47 1_555 1_555
C53 C54 1_555 1_555
C58 C62 1_555 1_555
C60 C61 1_555 1_555
C63 O3 1_555 1_555
C65 O4 1_555 1_555
C67 C68 1_555 1_555
C69 C70 1_555 1_555
C71 O5 1_555 1_555
C72 O6 1_555 1_555

#END
