
#######################################################################
#
#                 Cambridge Crystallographic Data Centre
#                                CCDC 
#
#######################################################################
#
# If this CIF has been generated from an entry in the Cambridge 
# Structural Database, then it will include bibliographic, chemical, 
# crystal, experimental, refinement or atomic coordinate data resulting 
# from the CCDC's data processing and validation procedures.
#
#######################################################################

data_DOLGES
_chemical_formula_moiety         'C24 H30 B1 N1 P1 1-,2(C4 H8 O1),Na1 1+'
_chemical_name_systematic        
'sodium (N-(2,6-diisopropylphenyl)-P,P-diphenylphosphorimidoyl)(trihydrido)borate tetrahydrofuran solvate'
_symmetry_cell_setting           monoclinic
_symmetry_space_group_name_H-M   'P 21/c'
_symmetry_Int_Tables_number      14
_space_group_name_Hall           '-P 2ybc'
loop_
_symmetry_equiv_pos_site_id
_symmetry_equiv_pos_as_xyz
1 x,y,z
2 -x,1/2+y,1/2-z
3 -x,-y,-z
4 x,1/2-y,1/2+z
_cell_length_a                   12.5432(3)
_cell_length_b                   18.7979(5)
_cell_length_c                   29.4544(6)
_cell_angle_alpha                90
_cell_angle_beta                 111.617(2)
_cell_angle_gamma                90
_cell_volume                     6456.47
_exptl_crystal_colour            colorless
_exptl_crystal_description       plate
_cell_formula_units_Z            8
loop_
_atom_site_label
_atom_site_type_symbol
_atom_site_fract_x
_atom_site_fract_y
_atom_site_fract_z
Na1 Na 0.09622(6) -0.17383(4) -0.09716(3)
P1 P 0.29614(4) -0.19893(2) -0.143736(16)
N1 N 0.16297(12) -0.21701(8) -0.15801(5)
B1 B 0.3492(2) -0.16023(13) -0.07887(8)
C1 C 0.08786(15) -0.25751(10) -0.19693(6)
C2 C 0.07734(15) -0.33217(10) -0.19148(7)
C3 C -0.00532(16) -0.37011(11) -0.22859(7)
H1 H -0.0112 -0.4190 -0.2251
C4 C -0.07870(16) -0.33727(12) -0.27039(7)
H2 H -0.1327 -0.3637 -0.2948
C5 C -0.07070(16) -0.26450(11) -0.27534(7)
H3 H -0.1212 -0.2421 -0.3031
C6 C 0.01121(15) -0.22376(10) -0.23972(6)
C7 C 0.01430(16) -0.14374(10) -0.24684(7)
H4 H 0.0746 -0.1243 -0.2178
C8 C -0.09870(19) -0.10801(12) -0.25086(9)
H5 H -0.1595 -0.1252 -0.2795
H6 H -0.0917 -0.0574 -0.2532
H7 H -0.1157 -0.1191 -0.2224
C9 C 0.0456(2) -0.12495(12) -0.29088(8)
H8 H 0.1184 -0.1457 -0.2869
H9 H 0.0501 -0.0742 -0.2933
H10 H -0.0121 -0.1432 -0.3201
C10 C 0.14691(17) -0.36932(10) -0.14380(7)
H11 H 0.2162 -0.3410 -0.1277
C11 C 0.1849(2) -0.44462(12) -0.15060(9)
H12 H 0.1191 -0.4753 -0.1622
H13 H 0.2377 -0.4621 -0.1199
H14 H 0.2216 -0.4438 -0.1740
C12 C 0.0784(2) -0.37041(12) -0.11008(8)
H15 H 0.0576 -0.3227 -0.1052
H16 H 0.1246 -0.3908 -0.0792
H17 H 0.0103 -0.3984 -0.1248
C13 C 0.38416(16) -0.27521(10) -0.14700(7)
C14 C 0.35772(18) -0.31596(10) -0.18925(7)
H18 H 0.2951 -0.3037 -0.2170
C15 C 0.4239(2) -0.37482(11) -0.19042(9)
H19 H 0.4054 -0.4015 -0.2189
C16 C 0.5168(2) -0.39375(12) -0.14944(9)
H20 H 0.5614 -0.4329 -0.1503
C17 C 0.5432(2) -0.35421(13) -0.10716(9)
H21 H 0.6053 -0.3671 -0.0794
C18 C 0.47758(18) -0.29526(11) -0.10582(8)
H22 H 0.4962 -0.2690 -0.0772
C19 C 0.38602(19) -0.14822(11) -0.21493(8)
H23 H 0.4173 -0.1932 -0.2144
C20 C 0.4020(2) -0.09577(13) -0.24531(9)
H24 H 0.4435 -0.1060 -0.2649
C21 C 0.3564(2) -0.02888(12) -0.24635(9)
H25 H 0.3670 0.0059 -0.2667
C22 C 0.29492(19) -0.01348(11) -0.21710(8)
H26 H 0.2638 0.0316 -0.2178
C23 C 0.27990(17) -0.06556(10) -0.18673(7)
H27 H 0.2395 -0.0546 -0.1668
C24 C 0.32409(15) -0.13422(10) -0.18539(6)
H28 H 0.445(2) -0.1459(13) -0.0668(8)
H29 H 0.2924(19) -0.1132(13) -0.0794(8)
H30 H 0.331(2) -0.2031(13) -0.0560(9)
O1 O 0.04608(15) -0.05652(9) -0.09247(6)
C25 C 0.0444(2) -0.00933(16) -0.13023(9)
H31 H -0.0337 0.0016 -0.1514
H32 H 0.0845 -0.0297 -0.1497
C26 C 0.1051(3) 0.05634(16) -0.10378(10)
H33 H 0.0815 0.0982 -0.1244
H34 H 0.1877 0.0512 -0.0931
C27 C 0.0672(2) 0.06086(13) -0.06056(9)
H35 H 0.0061 0.0954 -0.0665
H36 H 0.1308 0.0741 -0.0311
C28 C 0.0252(2) -0.01396(12) -0.05632(9)
H37 H 0.0663 -0.0331 -0.0240
H38 H -0.0561 -0.0133 -0.0620
O2 O -0.10240(14) -0.19845(11) -0.13092(7)
C29 C -0.1739(2) -0.24868(17) -0.16574(13)
H39 H -0.1829 -0.2344 -0.1986
H40 H -0.1390 -0.2955 -0.1596
C30 C -0.2728(4) -0.2505(4) -0.1614(2)
H41 H -0.2857 -0.2977 -0.1512
H42 H -0.3323 -0.2410 -0.1929
C31 C -0.2814(3) -0.1973(3) -0.12517(17)
H43 H -0.3433 -0.1639 -0.1403
H44 H -0.2936 -0.2205 -0.0981
C32 C -0.1742(2) -0.1631(2) -0.10973(13)
H45 H -0.1387 -0.1647 -0.0744
H46 H -0.1840 -0.1137 -0.1198
Na2 Na 0.42676(6) -0.18812(4) 0.02428(3)
P2 P 0.21569(4) -0.24840(2) 0.061916(17)
N2 N 0.34623(13) -0.26136(8) 0.06723(6)
B2 B 0.1346(2) -0.19796(13) 0.00278(8)
C33 C 0.42074(15) -0.31426(10) 0.09666(7)
C34 C 0.42312(16) -0.38278(10) 0.07648(7)
C35 C 0.50259(18) -0.43298(11) 0.10466(8)
H47 H 0.5051 -0.4776 0.0915
C36 C 0.57728(18) -0.41790(11) 0.15148(8)
H48 H 0.6280 -0.4524 0.1699
C37 C 0.57577(17) -0.35095(11) 0.17072(8)
H49 H 0.6265 -0.3406 0.2021
C38 C 0.49947(15) -0.29838(10) 0.14393(7)
C39 C 0.34751(18) -0.40086(10) 0.02412(7)
H50 H 0.2839 -0.3668 0.0139
C40 C 0.4139(2) -0.39124(13) -0.00976(8)
H51 H 0.4414 -0.3432 -0.0075
H52 H 0.3643 -0.4010 -0.0428
H53 H 0.4778 -0.4235 -0.0003
C41 C 0.2955(2) -0.47529(12) 0.01847(9)
H54 H 0.3554 -0.5102 0.0260
H55 H 0.2430 -0.4818 -0.0145
H56 H 0.2553 -0.4807 0.0404
C42 C 0.50481(16) -0.22470(10) 0.16586(7)
H57 H 0.4512 -0.1941 0.1409
C43 C 0.62485(18) -0.19195(12) 0.18045(9)
H58 H 0.6791 -0.2210 0.2050
H59 H 0.6245 -0.1450 0.1931
H60 H 0.6461 -0.1894 0.1523
C44 C 0.4682(2) -0.22553(13) 0.20980(8)
H61 H 0.3917 -0.2439 0.2001
H62 H 0.4704 -0.1780 0.2220
H63 H 0.5196 -0.2552 0.2349
C45 C 0.14264(16) -0.33097(10) 0.06568(7)
C46 C 0.04321(18) -0.35091(12) 0.02679(8)
H64 H 0.0139 -0.3216 -0.0004
C47 C -0.0118(2) -0.41408(14) 0.02863(10)
H65 H -0.0777 -0.4271 0.0025
C48 C 0.0306(2) -0.45773(13) 0.06902(11)
H66 H -0.0073 -0.4998 0.0702
C49 C 0.1291(2) -0.43914(12) 0.10766(10)
H67 H 0.1576 -0.4688 0.1348
C50 C 0.18565(19) -0.37594(11) 0.10606(8)
H68 H 0.2523 -0.3637 0.1320
C51 C 0.20303(15) -0.19584(10) 0.11264(7)
C52 C 0.25361(16) -0.12823(10) 0.12027(7)
H69 H 0.2904 -0.1123 0.0999
C53 C 0.24972(18) -0.08482(11) 0.15763(8)
H70 H 0.2834 -0.0400 0.1621
C54 C 0.19582(18) -0.10795(11) 0.18837(7)
H71 H 0.1944 -0.0792 0.2138
C55 C 0.14403(18) -0.17428(12) 0.18093(8)
H72 H 0.1070 -0.1898 0.2013
C56 C 0.14710(16) -0.21763(11) 0.14332(7)
H73 H 0.1114 -0.2618 0.1385
H74 H 0.044(2) -0.1844(14) 0.0014(9)
H75 H 0.187(2) -0.1498(13) 0.0029(8)
H76 H 0.1301(18) -0.2351(12) -0.0259(8)
O3 O 0.44719(12) -0.06762(7) 0.04447(5)
C57 C 0.36682(19) -0.01321(11) 0.01941(7)
H77 H 0.2984 -0.0340 -0.0046
H78 H 0.4006 0.0193 0.0029
C58 C 0.3381(2) 0.02528(11) 0.05887(8)
H79 H 0.2710 0.0046 0.0628
H80 H 0.3242 0.0755 0.0513
C59 C 0.4452(2) 0.01430(14) 0.10477(8)
H81 H 0.4834 0.0593 0.1165
H82 H 0.4257 -0.0076 0.1305
C60 C 0.5206(2) -0.03420(12) 0.08881(8)
H83 H 0.5803 -0.0071 0.0831
H84 H 0.5564 -0.0697 0.1137
O4 O 0.61560(12) -0.23220(9) 0.04187(6)
C61 C 0.6886(2) -0.19773(15) 0.02103(12)
H85 H 0.7131 -0.1518 0.0363
H86 H 0.6481 -0.1904 -0.0137
C62 C 0.7898(3) -0.2450(2) 0.02969(15)
H87 H 0.7859 -0.2681 -0.0003
H88 H 0.8607 -0.2182 0.0427
C63 C 0.7823(4) -0.2967(3) 0.0648(2)
H89 H 0.7898 -0.3443 0.0536
H90 H 0.8446 -0.2892 0.0959
C64 C 0.6787(2) -0.29060(16) 0.07092(12)
H91 H 0.6917 -0.2823 0.1051
H92 H 0.6352 -0.3343 0.0608
loop_
_geom_bond_atom_site_label_1
_geom_bond_atom_site_label_2
_geom_bond_site_symmetry_1
_geom_bond_site_symmetry_2
P1 N1 1_555 1_555
N1 C1 1_555 1_555
B1 P1 1_555 1_555
C1 C2 1_555 1_555
C2 C3 1_555 1_555
C3 H1 1_555 1_555
C4 C3 1_555 1_555
H2 C4 1_555 1_555
C5 C4 1_555 1_555
H3 C5 1_555 1_555
C6 C1 1_555 1_555
C7 C6 1_555 1_555
H4 C7 1_555 1_555
C8 C7 1_555 1_555
H5 C8 1_555 1_555
H6 C8 1_555 1_555
H7 C8 1_555 1_555
C9 C7 1_555 1_555
H8 C9 1_555 1_555
H9 C9 1_555 1_555
H10 C9 1_555 1_555
C10 C2 1_555 1_555
H11 C10 1_555 1_555
C11 C10 1_555 1_555
H12 C11 1_555 1_555
H13 C11 1_555 1_555
H14 C11 1_555 1_555
C12 C10 1_555 1_555
H15 C12 1_555 1_555
H16 C12 1_555 1_555
H17 C12 1_555 1_555
C13 P1 1_555 1_555
C14 C13 1_555 1_555
H18 C14 1_555 1_555
C15 C14 1_555 1_555
H19 C15 1_555 1_555
C16 C15 1_555 1_555
H20 C16 1_555 1_555
C17 C16 1_555 1_555
H21 C17 1_555 1_555
C18 C13 1_555 1_555
H22 C18 1_555 1_555
C19 H23 1_555 1_555
C20 C19 1_555 1_555
H24 C20 1_555 1_555
C21 C20 1_555 1_555
H25 C21 1_555 1_555
C22 C21 1_555 1_555
H26 C22 1_555 1_555
C23 C22 1_555 1_555
H27 C23 1_555 1_555
C24 P1 1_555 1_555
H28 B1 1_555 1_555
H29 B1 1_555 1_555
H30 B1 1_555 1_555
O1 C25 1_555 1_555
C25 H31 1_555 1_555
H32 C25 1_555 1_555
C26 C25 1_555 1_555
H33 C26 1_555 1_555
H34 C26 1_555 1_555
C27 C26 1_555 1_555
H35 C27 1_555 1_555
H36 C27 1_555 1_555
C28 O1 1_555 1_555
H37 C28 1_555 1_555
H38 C28 1_555 1_555
O2 C29 1_555 1_555
C29 H39 1_555 1_555
H40 C29 1_555 1_555
C30 C29 1_555 1_555
H41 C30 1_555 1_555
H42 C30 1_555 1_555
C31 C30 1_555 1_555
H43 C31 1_555 1_555
H44 C31 1_555 1_555
C32 O2 1_555 1_555
H45 C32 1_555 1_555
H46 C32 1_555 1_555
P2 N2 1_555 1_555
N2 C33 1_555 1_555
B2 P2 1_555 1_555
C33 C34 1_555 1_555
C34 C35 1_555 1_555
C35 H47 1_555 1_555
C36 C35 1_555 1_555
H48 C36 1_555 1_555
C37 C36 1_555 1_555
H49 C37 1_555 1_555
C38 C33 1_555 1_555
C39 C34 1_555 1_555
H50 C39 1_555 1_555
C40 C39 1_555 1_555
H51 C40 1_555 1_555
H52 C40 1_555 1_555
H53 C40 1_555 1_555
C41 C39 1_555 1_555
H54 C41 1_555 1_555
H55 C41 1_555 1_555
H56 C41 1_555 1_555
C42 C38 1_555 1_555
H57 C42 1_555 1_555
C43 C42 1_555 1_555
H58 C43 1_555 1_555
H59 C43 1_555 1_555
H60 C43 1_555 1_555
C44 C42 1_555 1_555
H61 C44 1_555 1_555
H62 C44 1_555 1_555
H63 C44 1_555 1_555
C45 P2 1_555 1_555
C46 C45 1_555 1_555
H64 C46 1_555 1_555
C47 C46 1_555 1_555
H65 C47 1_555 1_555
C48 C47 1_555 1_555
H66 C48 1_555 1_555
C49 C48 1_555 1_555
H67 C49 1_555 1_555
C50 C45 1_555 1_555
H68 C50 1_555 1_555
C51 P2 1_555 1_555
C52 C51 1_555 1_555
H69 C52 1_555 1_555
C53 C52 1_555 1_555
H70 C53 1_555 1_555
C54 C53 1_555 1_555
H71 C54 1_555 1_555
C55 C54 1_555 1_555
H72 C55 1_555 1_555
C56 C51 1_555 1_555
H73 C56 1_555 1_555
H74 B2 1_555 1_555
H75 B2 1_555 1_555
H76 B2 1_555 1_555
O3 C57 1_555 1_555
C57 H77 1_555 1_555
H78 C57 1_555 1_555
C58 C57 1_555 1_555
H79 C58 1_555 1_555
H80 C58 1_555 1_555
C59 C58 1_555 1_555
H81 C59 1_555 1_555
H82 C59 1_555 1_555
C60 O3 1_555 1_555
H83 C60 1_555 1_555
H84 C60 1_555 1_555
O4 C61 1_555 1_555
C61 H85 1_555 1_555
H86 C61 1_555 1_555
C62 C61 1_555 1_555
H87 C62 1_555 1_555
H88 C62 1_555 1_555
C63 C62 1_555 1_555
H89 C63 1_555 1_555
H90 C63 1_555 1_555
C64 O4 1_555 1_555
H91 C64 1_555 1_555
H92 C64 1_555 1_555
C5 C6 1_555 1_555
C17 C18 1_555 1_555
C19 C24 1_555 1_555
C23 C24 1_555 1_555
C27 C28 1_555 1_555
C31 C32 1_555 1_555
C37 C38 1_555 1_555
C49 C50 1_555 1_555
C55 C56 1_555 1_555
C59 C60 1_555 1_555
C63 C64 1_555 1_555

#END
