
#######################################################################
#
#                 Cambridge Crystallographic Data Centre
#                                CCDC 
#
#######################################################################
#
# If this CIF has been generated from an entry in the Cambridge 
# Structural Database, then it will include bibliographic, chemical, 
# crystal, experimental, refinement or atomic coordinate data resulting 
# from the CCDC's data processing and validation procedures.
#
#######################################################################

data_DOMDEQ
_chemical_formula_moiety         'C11 H13 N1 O6 S1'
_chemical_name_systematic        
'Methyl 4-(4-methoxyphenyl)-1,2,3-oxathiazolidine-5-carboxylate 2,2-dioxide'
_symmetry_cell_setting           orthorhombic
_symmetry_space_group_name_H-M   'P 21 21 21'
_symmetry_Int_Tables_number      19
_space_group_name_Hall           'P 2ac 2ab'
loop_
_symmetry_equiv_pos_site_id
_symmetry_equiv_pos_as_xyz
1 x,y,z
2 1/2-x,-y,1/2+z
3 -x,1/2+y,1/2-z
4 1/2+x,1/2-y,-z
_cell_length_a                   5.3793(2)
_cell_length_b                   13.1499(5)
_cell_length_c                   17.4076(6)
_cell_angle_alpha                90
_cell_angle_beta                 90
_cell_angle_gamma                90
_cell_volume                     1231.37
_exptl_crystal_colour            silver
_exptl_crystal_description       Block
_cell_formula_units_Z            4
loop_
_atom_site_label
_atom_site_type_symbol
_atom_site_fract_x
_atom_site_fract_y
_atom_site_fract_z
S1 S 0.22766(6) 0.22986(2) 0.408472(18)
O1 O 0.0814(2) 0.15485(8) 0.44745(6)
O2 O 0.48816(19) 0.20959(8) 0.40420(6)
O3 O 0.11479(19) 0.24399(7) 0.32506(5)
O4 O -0.0288(2) 0.82261(8) 0.38642(6)
O5 O 0.4417(2) 0.37568(9) 0.26213(7)
O6 O 0.1312(2) 0.48398(8) 0.23286(6)
N1 N 0.1776(2) 0.34614(9) 0.43695(7)
H1 H 0.2598 0.3772 0.4738
C1 C 0.1707(3) 0.56007(11) 0.43045(8)
H2 H 0.3016 0.5240 0.4550
C2 C 0.1745(3) 0.66691(11) 0.42960(8)
H3 H 0.3056 0.7030 0.4540
C3 C -0.0159(3) 0.71912(11) 0.39267(7)
C4 C 0.1761(3) 0.88033(11) 0.41589(10)
H4 H 0.1449 0.9530 0.4078
H5 H 0.3288 0.8606 0.3890
H6 H 0.1948 0.8669 0.4710
C5 C -0.2116(3) 0.66583(10) 0.35894(8)
H7 H -0.3425 0.7017 0.3342
C6 C -0.2150(3) 0.56051(11) 0.36153(8)
H8 H -0.3507 0.5246 0.3396
C7 C -0.0209(2) 0.50654(10) 0.39611(7)
C8 C -0.0250(3) 0.39135(10) 0.39187(7)
H9 H -0.1884 0.3655 0.4111
C9 C 0.0282(3) 0.34667(10) 0.31103(7)
H10 H -0.1291 0.3446 0.2804
C10 C 0.2284(3) 0.40256(10) 0.26593(7)
C11 C 0.3009(3) 0.54589(12) 0.18840(9)
H11 H 0.2108 0.6038 0.1665
H12 H 0.3724 0.5050 0.1469
H13 H 0.4344 0.5708 0.2218
loop_
_geom_bond_atom_site_label_1
_geom_bond_atom_site_label_2
_geom_bond_site_symmetry_1
_geom_bond_site_symmetry_2
S1 O1 1_555 1_555
O2 S1 1_555 1_555
O3 S1 1_555 1_555
O4 C3 1_555 1_555
O5 C10 1_555 1_555
O6 C10 1_555 1_555
N1 S1 1_555 1_555
H1 N1 1_555 1_555
C1 H2 1_555 1_555
C2 C1 1_555 1_555
H3 C2 1_555 1_555
C3 C2 1_555 1_555
C4 O4 1_555 1_555
H4 C4 1_555 1_555
H5 C4 1_555 1_555
H6 C4 1_555 1_555
C5 C3 1_555 1_555
H7 C5 1_555 1_555
C6 C5 1_555 1_555
H8 C6 1_555 1_555
C7 C1 1_555 1_555
C8 N1 1_555 1_555
H9 C8 1_555 1_555
C9 O3 1_555 1_555
H10 C9 1_555 1_555
C10 C9 1_555 1_555
C11 O6 1_555 1_555
H11 C11 1_555 1_555
H12 C11 1_555 1_555
H13 C11 1_555 1_555
C6 C7 1_555 1_555
C7 C8 1_555 1_555
C8 C9 1_555 1_555

#END
