
#######################################################################
#
#                 Cambridge Crystallographic Data Centre
#                                CCDC 
#
#######################################################################
#
# If this CIF has been generated from an entry in the Cambridge 
# Structural Database, then it will include bibliographic, chemical, 
# crystal, experimental, refinement or atomic coordinate data resulting 
# from the CCDC's data processing and validation procedures.
#
#######################################################################

data_DOMFEQ
_chemical_formula_moiety         'C16 H33 N2 O1 1+,Cl1 1-'
_chemical_name_systematic        
'2-(N-Isopropyliminio)-3,3-dimethyl-1-isopropyl-5-hydroxy-5-isobutyl-pyrrolidine chloride'
_symmetry_cell_setting           monoclinic
_symmetry_space_group_name_H-M   'P 21'
_symmetry_Int_Tables_number      4
_space_group_name_Hall           'P 2yb'
loop_
_symmetry_equiv_pos_site_id
_symmetry_equiv_pos_as_xyz
1 x,y,z
2 -x,1/2+y,-z
_cell_length_a                   8.532(1)
_cell_length_b                   11.157(2)
_cell_length_c                   9.735(2)
_cell_angle_alpha                90
_cell_angle_beta                 90.42(2)
_cell_angle_gamma                90
_cell_volume                     926.665
_chemical_melting_point          '158 deg.C'
_cell_formula_units_Z            2
loop_
_atom_site_label
_atom_site_type_symbol
_atom_site_fract_x
_atom_site_fract_y
_atom_site_fract_z
N1 N 0.2205(3) 0.1803(3) 0.1093(3)
C1 C 0.2304(4) 0.1873(3) 0.2452(3)
C2 C 0.3529(4) 0.1009(3) 0.3011(3)
C3 C 0.4450(4) 0.0723(4) 0.1695(3)
C4 C 0.3344(4) 0.0930(3) 0.0481(3)
C5 C 0.0911(4) 0.2261(3) 0.0199(4)
C6 C 0.1160(5) 0.3571(4) -0.0193(4)
C7 C -0.0710(4) 0.2002(4) 0.0776(5)
N2 N 0.1447(3) 0.2601(3) 0.3194(3)
C8 C 0.1198(5) 0.2558(4) 0.4697(3)
C9 C 0.1796(7) 0.3700(5) 0.5355(4)
C10 C -0.0543(5) 0.2368(5) 0.4946(6)
C11 C 0.2711(5) -0.0123(4) 0.3557(4)
C12 C 0.4660(5) 0.1549(5) 0.4088(4)
C13 C 0.4155(4) 0.1488(3) -0.0751(3)
C14 C 0.5598(4) 0.0815(4) -0.1288(4)
C15 C 0.5211(5) -0.0368(4) -0.1981(5)
C16 C 0.6482(5) 0.1631(5) -0.2263(4)
O1 O 0.2567(3) -0.0139(2) 0.0170(2)
Cl1 Cl 0.0818(1) 0.0000 0.7335(1)
loop_
_geom_bond_atom_site_label_1
_geom_bond_atom_site_label_2
_geom_bond_site_symmetry_1
_geom_bond_site_symmetry_2
N1 C1 1_555 1_555
C1 C2 1_555 1_555
C2 C3 1_555 1_555
C3 C4 1_555 1_555
C4 N1 1_555 1_555
C5 N1 1_555 1_555
C6 C5 1_555 1_555
C7 C5 1_555 1_555
N2 C1 1_555 1_555
C8 N2 1_555 1_555
C9 C8 1_555 1_555
C10 C8 1_555 1_555
C11 C2 1_555 1_555
C12 C2 1_555 1_555
C13 C4 1_555 1_555
C14 C13 1_555 1_555
C15 C14 1_555 1_555
C16 C14 1_555 1_555
O1 C4 1_555 1_555

#END
