
#######################################################################
#
#                 Cambridge Crystallographic Data Centre
#                                CCDC 
#
#######################################################################
#
# If this CIF has been generated from an entry in the Cambridge 
# Structural Database, then it will include bibliographic, chemical, 
# crystal, experimental, refinement or atomic coordinate data resulting 
# from the CCDC's data processing and validation procedures.
#
#######################################################################

data_DOMNOI
_chemical_formula_moiety         'C26 H30 O3 S2'
_chemical_name_systematic        
3-Benzyl-9,9-ethylenedioxy-1,1-ethylenedithiolato-10-hydroxy-10-methyl-1,2,3,4,4a,9,9a,10-octahydro-anthracene
_chemical_properties_biological  
'synthetic model for tetracycline antibiotic drugs'
_symmetry_cell_setting           orthorhombic
_symmetry_space_group_name_H-M   'P 21 21 21'
_symmetry_Int_Tables_number      19
_space_group_name_Hall           'P 2ac 2ab'
loop_
_symmetry_equiv_pos_site_id
_symmetry_equiv_pos_as_xyz
1 x,y,z
2 1/2+x,1/2-y,-z
3 -x,1/2+y,1/2-z
4 1/2-x,-y,1/2+z
_cell_length_a                   17.256(3)
_cell_length_b                   18.360(1)
_cell_length_c                   7.138(3)
_cell_angle_alpha                90
_cell_angle_beta                 90
_cell_angle_gamma                90
_cell_volume                     2261.46
_chemical_melting_point          239-242deg.C
_cell_formula_units_Z            4
loop_
_atom_site_label
_atom_site_type_symbol
_atom_site_fract_x
_atom_site_fract_y
_atom_site_fract_z
S1 S 0.94610(5) 0.68381(5) 0.0574(2)
S2 S 0.87207(6) 0.77741(6) 0.3405(2)
O1 O 0.5781(1) 0.7411(1) 0.2523(4)
O2 O 0.8142(1) 0.5685(1) 0.0052(4)
O3 O 0.7872(1) 0.6571(1) -0.2079(3)
C1 C 0.6534(2) 0.6590(2) 0.4198(6)
C2 C 0.6432(2) 0.6928(2) 0.2270(5)
C3 C 0.7137(2) 0.7366(2) 0.1676(5)
C4 C 0.7016(2) 0.7872(2) 0.0006(5)
C5 C 0.7718(2) 0.8377(2) -0.0254(5)
C6 C 0.7592(2) 0.8867(2) -0.1961(6)
C7 C 0.8468(2) 0.7941(2) -0.0430(6)
C8 C 0.8567(2) 0.7355(2) 0.1081(5)
C9 C 0.7842(2) 0.6864(2) 0.1298(5)
C10 C 0.7663(2) 0.6309(2) -0.0271(4)
C11 C 0.6820(2) 0.6063(2) -0.0322(5)
C12 C 0.6623(2) 0.5512(2) -0.1581(6)
C13 C 0.5872(2) 0.5248(2) -0.1666(6)
C14 C 0.5317(2) 0.5515(2) -0.0479(7)
C15 C 0.5499(2) 0.6057(2) 0.0745(6)
C16 C 0.6248(2) 0.6340(2) 0.0847(5)
C17 C 0.8176(2) 0.9477(2) -0.2195(5)
C18 C 0.8170(2) 1.0070(2) -0.1009(6)
C19 C 0.8668(2) 1.0645(2) -0.1255(7)
C20 C 0.9184(2) 1.0640(2) -0.2688(7)
C21 C 0.9209(2) 1.0067(2) -0.3862(7)
C22 C 0.8705(2) 0.9484(2) -0.3643(6)
C23 C 0.9941(3) 0.6948(3) 0.2773(8)
C24 C 0.9740(3) 0.7673(3) 0.3527(7)
C25 C 0.8508(2) 0.5470(2) -0.1671(6)
C26 C 0.8404(2) 0.6094(2) -0.2954(6)
H1 H 0.560(2) 0.751(2) 0.154(6)
H2 H 0.667(2) 0.694(2) 0.511(6)
H3 H 0.696(2) 0.622(2) 0.421(6)
H4 H 0.725(2) 0.762(2) 0.276(5)
H5 H 0.605(2) 0.635(2) 0.459(6)
H6 H 0.775(2) 0.870(2) 0.088(5)
H7 H 0.793(2) 0.658(2) 0.239(5)
H8 H 0.698(2) 0.530(2) -0.241(5)
H9 H 0.576(2) 0.490(2) -0.246(6)
H10 H 0.480(2) 0.533(2) -0.058(6)
H11 H 0.510(2) 0.627(2) 0.164(6)
H12 H 0.656(2) 0.816(2) 0.019(5)
H13 H 0.693(2) 0.759(2) -0.119(5)
H14 H 0.759(2) 0.858(2) -0.303(6)
H15 H 0.708(2) 0.908(2) -0.189(6)
H16 H 0.787(2) 1.004(2) -0.003(6)
H17 H 0.867(2) 1.104(2) -0.044(6)
H18 H 0.951(2) 1.100(2) -0.289(6)
H19 H 0.957(2) 1.003(2) -0.484(6)
H20 H 0.873(2) 0.908(2) -0.441(6)
H21 H 0.890(2) 0.826(2) -0.037(6)
H22 H 0.848(2) 0.774(2) -0.169(5)
H23 H 0.978(3) 0.658(2) 0.369(8)
H24 H 1.047(3) 0.693(2) 0.252(8)
H25 H 0.982(2) 0.763(2) 0.486(7)
H26 H 1.007(3) 0.798(2) 0.268(8)
H27 H 0.904(2) 0.536(2) -0.148(6)
H28 H 0.820(2) 0.503(2) -0.204(6)
H29 H 0.814(2) 0.589(2) -0.403(6)
H30 H 0.890(2) 0.642(2) -0.316(6)
loop_
_geom_bond_atom_site_label_1
_geom_bond_atom_site_label_2
_geom_bond_site_symmetry_1
_geom_bond_site_symmetry_2
S1 C8 1_555 1_555
S2 C8 1_555 1_555
O1 C2 1_555 1_555
O2 C10 1_555 1_555
O3 C10 1_555 1_555
C1 C2 1_555 1_555
C2 C3 1_555 1_555
C3 C4 1_555 1_555
C4 C5 1_555 1_555
C5 C6 1_555 1_555
C6 C17 1_555 1_555
C7 C5 1_555 1_555
C8 C7 1_555 1_555
C9 C3 1_555 1_555
C10 C9 1_555 1_555
C11 C10 1_555 1_555
C12 C11 1_555 1_555
C13 C12 1_555 1_555
C14 C13 1_555 1_555
C15 C14 1_555 1_555
C16 C2 1_555 1_555
C17 C18 1_555 1_555
C18 C19 1_555 1_555
C19 C20 1_555 1_555
C20 C21 1_555 1_555
C21 C22 1_555 1_555
C22 C17 1_555 1_555
C23 S1 1_555 1_555
C24 S2 1_555 1_555
C25 O2 1_555 1_555
C26 O3 1_555 1_555
H1 O1 1_555 1_555
H2 C1 1_555 1_555
H3 C1 1_555 1_555
H4 C3 1_555 1_555
H5 C1 1_555 1_555
H6 C5 1_555 1_555
H7 C9 1_555 1_555
H8 C12 1_555 1_555
H9 C13 1_555 1_555
H10 C14 1_555 1_555
H11 C15 1_555 1_555
H12 C4 1_555 1_555
H13 C4 1_555 1_555
H14 C6 1_555 1_555
H15 C6 1_555 1_555
H16 C18 1_555 1_555
H17 C19 1_555 1_555
H18 C20 1_555 1_555
H19 C21 1_555 1_555
H20 C22 1_555 1_555
H21 C7 1_555 1_555
H22 C7 1_555 1_555
H23 C23 1_555 1_555
H24 C23 1_555 1_555
H25 C24 1_555 1_555
H26 C24 1_555 1_555
H27 C25 1_555 1_555
H28 C25 1_555 1_555
H29 C26 1_555 1_555
H30 C26 1_555 1_555
C8 C9 1_555 1_555
C11 C16 1_555 1_555
C15 C16 1_555 1_555
C23 C24 1_555 1_555
C25 C26 1_555 1_555

#END
