
#######################################################################
#
#                 Cambridge Crystallographic Data Centre
#                                CCDC 
#
#######################################################################
#
# If this CIF has been generated from an entry in the Cambridge 
# Structural Database, then it will include bibliographic, chemical, 
# crystal, experimental, refinement or atomic coordinate data resulting 
# from the CCDC's data processing and validation procedures.
#
#######################################################################

data_DOMWOR
_chemical_formula_moiety         'C26 H22 Se2 Si1'
_chemical_name_systematic        
13,13-Diphenyl-8,13-dihydro-5H-dibenzo(d,g)(1.2.6)diselenasilonine
_symmetry_cell_setting           monoclinic
_symmetry_space_group_name_H-M   'C c'
_symmetry_Int_Tables_number      9
_space_group_name_Hall           'C -2yc'
loop_
_symmetry_equiv_pos_site_id
_symmetry_equiv_pos_as_xyz
1 x,y,z
2 x,-y,1/2+z
3 1/2+x,1/2+y,z
4 1/2+x,1/2-y,1/2+z
_cell_length_a                   14.4877(8)
_cell_length_b                   17.274(1)
_cell_length_c                   9.1623(7)
_cell_angle_alpha                90
_cell_angle_beta                 102.228(5)
_cell_angle_gamma                90
_cell_volume                     2240.94
_cell_formula_units_Z            4
loop_
_atom_site_label
_atom_site_type_symbol
_atom_site_fract_x
_atom_site_fract_y
_atom_site_fract_z
Si1 Si 0.1775(3) 0.3002(2) 0.3253(5)
Se1 Se 0.1920(2) 0.2236(1) 0.6975(3)
Se2 Se 0.0791(2) 0.1374(1) 0.6260(3)
C1 C 0.2952(9) 0.1851(10) 0.5962(16)
C2 C 0.2571(9) 0.1484(8) 0.4441(17)
C3 C 0.2731(10) 0.0735(9) 0.4256(18)
C4 C 0.2432(11) 0.0347(9) 0.2906(19)
C5 C 0.2006(12) 0.0820(10) 0.1658(19)
C6 C 0.1883(10) 0.1546(7) 0.1853(18)
C7 C 0.2120(9) 0.1930(9) 0.3182(17)
C8 C 0.0093(11) 0.1877(11) 0.4334(19)
C9 C 0.0044(10) 0.2622(9) 0.4403(15)
C10 C 0.0649(9) 0.3203(9) 0.3972(14)
C11 C 0.0469(10) 0.3780(9) 0.3992(17)
C12 C -0.0325(11) 0.4275(10) 0.4444(18)
C13 C -0.0925(10) 0.3721(10) 0.4908(17)
C14 C -0.0767(10) 0.2983(11) 0.4871(16)
C15 C 0.2783(9) 0.3556(8) 0.4339(15)
C16 C 0.3694(9) 0.3472(10) 0.3886(17)
C17 C 0.4442(10) 0.3856(12) 0.4639(20)
C18 C 0.4404(11) 0.4374(10) 0.5851(21)
C19 C 0.3571(11) 0.4444(10) 0.6277(19)
C20 C 0.2744(10) 0.4036(9) 0.5502(18)
C21 C 0.1506(10) 0.3372(8) 0.1265(16)
C22 C 0.2078(10) 0.3794(10) 0.0615(17)
C23 C 0.1789(12) 0.4038(11) -0.0839(20)
C24 C 0.0918(12) 0.3909(10) -0.1685(16)
C25 C 0.0323(11) 0.3470(12) -0.1073(18)
C26 C 0.0579(10) 0.3229(11) 0.0385(18)
H1 H 0.348(10) 0.128(9) 0.665(10)
H2 H 0.304(10) 0.234(9) 0.581(10)
H3 H 0.254(8) 0.038(7) 0.491(10)
H4 H 0.216(10) -0.028(9) 0.277(10)
H5 H 0.130(10) 0.050(9) 0.059(10)
H6 H 0.177(10) 0.184(10) 0.122(10)
H7 H -0.039(9) 0.166(8) 0.417(10)
H8 H 0.036(10) 0.191(9) 0.379(10)
H9 H 0.086(7) 0.436(5) 0.391(10)
H10 H -0.016(8) 0.501(8) 0.453(10)
H11 H -0.177(10) 0.386(9) 0.483(10)
H12 H -0.083(7) 0.235(6) 0.506(10)
H13 H 0.374(7) 0.301(6) 0.337(10)
H14 H 0.496(10) 0.378(9) 0.476(10)
H15 H 0.516(10) 0.466(9) 0.650(10)
H16 H 0.358(10) 0.499(10) 0.694(10)
H17 H 0.216(10) 0.394(8) 0.565(10)
H18 H 0.240(10) 0.389(9) 0.131(10)
H19 H 0.193(10) 0.440(9) -0.100(10)
H20 H 0.065(7) 0.429(6) -0.251(10)
H21 H -0.010(10) 0.330(9) -0.136(10)
H22 H 0.004(10) 0.285(10) 0.095(10)
loop_
_geom_bond_atom_site_label_1
_geom_bond_atom_site_label_2
_geom_bond_site_symmetry_1
_geom_bond_site_symmetry_2
Si1 C7 1_555 1_555
Se1 Se2 1_555 1_555
Se2 C8 1_555 1_555
C1 Se1 1_555 1_555
C2 C1 1_555 1_555
C3 C2 1_555 1_555
C4 C3 1_555 1_555
C5 C4 1_555 1_555
C6 C5 1_555 1_555
C7 C2 1_555 1_555
C8 C9 1_555 1_555
C9 C10 1_555 1_555
C10 Si1 1_555 1_555
C11 C10 1_555 1_555
C12 C11 1_555 1_555
C13 C12 1_555 1_555
C14 C9 1_555 1_555
C15 Si1 1_555 1_555
C16 C15 1_555 1_555
C17 C16 1_555 1_555
C18 C17 1_555 1_555
C19 C18 1_555 1_555
C20 C15 1_555 1_555
C21 Si1 1_555 1_555
C22 C21 1_555 1_555
C23 C22 1_555 1_555
C24 C23 1_555 1_555
C25 C24 1_555 1_555
C26 C21 1_555 1_555
H1 C1 1_555 1_555
H2 C1 1_555 1_555
H3 C3 1_555 1_555
H4 C4 1_555 1_555
H5 C5 1_555 1_555
H6 C6 1_555 1_555
H7 C8 1_555 1_555
H8 C8 1_555 1_555
H9 C11 1_555 1_555
H10 C12 1_555 1_555
H11 C13 1_555 1_555
H12 C14 1_555 1_555
H13 C16 1_555 1_555
H14 C17 1_555 1_555
H15 C18 1_555 1_555
H16 C19 1_555 1_555
H17 C20 1_555 1_555
H18 C22 1_555 1_555
H19 C23 1_555 1_555
H20 C24 1_555 1_555
H21 C25 1_555 1_555
H22 C26 1_555 1_555
C6 C7 1_555 1_555
C13 C14 1_555 1_555
C19 C20 1_555 1_555
C25 C26 1_555 1_555

#END
