
#######################################################################
#
#                 Cambridge Crystallographic Data Centre
#                                CCDC 
#
#######################################################################
#
# If this CIF has been generated from an entry in the Cambridge 
# Structural Database, then it will include bibliographic, chemical, 
# crystal, experimental, refinement or atomic coordinate data resulting 
# from the CCDC's data processing and validation procedures.
#
#######################################################################

data_DOPTUZ
_chemical_formula_moiety         'C24 H17 Cl1 N2 O1'
_chemical_name_systematic        
6-(2-chloro-6-(1,2-diphenylvinyl)phenyl)pyridazin-3(2H)-one
_symmetry_cell_setting           monoclinic
_symmetry_space_group_name_H-M   'C 2/c'
_symmetry_Int_Tables_number      15
_space_group_name_Hall           '-C 2yn'
loop_
_symmetry_equiv_pos_site_id
_symmetry_equiv_pos_as_xyz
1 x,y,z
2 -x,y,1/2-z
3 1/2+x,1/2+y,z
4 1/2-x,1/2+y,1/2-z
5 -x,-y,-z
6 x,-y,1/2+z
7 1/2-x,1/2-y,-z
8 1/2+x,1/2-y,1/2+z
_cell_length_a                   23.683(3)
_cell_length_b                   9.8518(15)
_cell_length_c                   17.465(2)
_cell_angle_alpha                90
_cell_angle_beta                 97.426(11)
_cell_angle_gamma                90
_cell_volume                     4040.76
_cell_formula_units_Z            8
loop_
_atom_site_label
_atom_site_type_symbol
_atom_site_fract_x
_atom_site_fract_y
_atom_site_fract_z
C1 C 0.25444(9) 0.5549(3) 0.46180(14)
C2 C 0.26233(10) 0.4245(3) 0.42953(16)
H1 H 0.2309 0.3646 0.4184
C3 C 0.31421(9) 0.3866(3) 0.41486(13)
H2 H 0.3196 0.2997 0.3934
C4 C 0.36082(8) 0.4758(2) 0.43134(11)
C5 C 0.41957(8) 0.4427(2) 0.41613(10)
C6 C 0.44995(9) 0.3364(2) 0.45391(11)
C7 C 0.50650(10) 0.3130(3) 0.44670(13)
H3 H 0.5264 0.2399 0.4734
C8 C 0.53324(9) 0.3966(3) 0.40053(12)
H4 H 0.5724 0.3829 0.3960
C9 C 0.50418(8) 0.5003(2) 0.36063(11)
H5 H 0.5233 0.5557 0.3276
C10 C 0.44718(8) 0.5261(2) 0.36747(11)
C11 C 0.41757(8) 0.6398(2) 0.32321(11)
C12 C 0.44296(9) 0.7612(2) 0.32540(12)
H6 H 0.4771 0.7686 0.3602
C13 C 0.42543(8) 0.8841(2) 0.28163(12)
C14 C 0.40201(9) 0.8808(2) 0.20488(13)
H7 H 0.3961 0.7957 0.1795
C15 C 0.38711(10) 0.9982(2) 0.16440(14)
H8 H 0.3714 0.9936 0.1116
C16 C 0.39500(12) 1.1211(3) 0.20031(17)
H9 H 0.3835 1.2021 0.1732
C17 C 0.41955(16) 1.1267(3) 0.2756(2)
H10 H 0.4258 1.2121 0.3005
C18 C 0.43517(13) 1.0096(3) 0.31524(16)
H11 H 0.4531 1.0153 0.3670
C19 C 0.36167(8) 0.6092(2) 0.27734(10)
C20 C 0.35568(9) 0.4974(2) 0.22866(12)
H12 H 0.3874 0.4395 0.2255
C21 C 0.30429(11) 0.4692(3) 0.18475(14)
H13 H 0.3011 0.3934 0.1508
C22 C 0.25780(11) 0.5500(3) 0.18986(16)
H14 H 0.2224 0.5304 0.1597
C23 C 0.26269(10) 0.6588(3) 0.23862(16)
H15 H 0.2303 0.7140 0.2428
C24 C 0.31386(8) 0.6897(2) 0.28187(13)
H16 H 0.3166 0.7664 0.3151
Cl1 Cl 0.41777(3) 0.23107(8) 0.51472(4)
N1 N 0.30242(7) 0.6318(2) 0.47385(10)
N2 N 0.35516(6) 0.59615(19) 0.46018(9)
O1 O 0.20876(6) 0.6007(2) 0.47842(12)
H17 H 0.3002(9) 0.712(3) 0.4927(13)
loop_
_geom_bond_atom_site_label_1
_geom_bond_atom_site_label_2
_geom_bond_site_symmetry_1
_geom_bond_site_symmetry_2
C1 C2 1_555 1_555
C2 H1 1_555 1_555
C3 C2 1_555 1_555
H2 C3 1_555 1_555
C4 C3 1_555 1_555
C5 C4 1_555 1_555
C6 C5 1_555 1_555
C7 C6 1_555 1_555
H3 C7 1_555 1_555
C8 C7 1_555 1_555
H4 C8 1_555 1_555
C9 C8 1_555 1_555
H5 C9 1_555 1_555
C10 C5 1_555 1_555
C11 C10 1_555 1_555
C12 C11 1_555 1_555
H6 C12 1_555 1_555
C13 C12 1_555 1_555
C14 C13 1_555 1_555
H7 C14 1_555 1_555
C15 C14 1_555 1_555
H8 C15 1_555 1_555
C16 C15 1_555 1_555
H9 C16 1_555 1_555
C17 C16 1_555 1_555
H10 C17 1_555 1_555
C18 C13 1_555 1_555
H11 C18 1_555 1_555
C19 C11 1_555 1_555
C20 C19 1_555 1_555
H12 C20 1_555 1_555
C21 C20 1_555 1_555
H13 C21 1_555 1_555
C22 C21 1_555 1_555
H14 C22 1_555 1_555
C23 C22 1_555 1_555
H15 C23 1_555 1_555
C24 C19 1_555 1_555
H16 C24 1_555 1_555
Cl1 C6 1_555 1_555
N1 C1 1_555 1_555
N2 C4 1_555 1_555
O1 C1 1_555 1_555
H17 N1 1_555 1_555
C9 C10 1_555 1_555
C17 C18 1_555 1_555
C23 C24 1_555 1_555
N1 N2 1_555 1_555

#END
