
#######################################################################
#
#                 Cambridge Crystallographic Data Centre
#                                CCDC 
#
#######################################################################
#
# If this CIF has been generated from an entry in the Cambridge 
# Structural Database, then it will include bibliographic, chemical, 
# crystal, experimental, refinement or atomic coordinate data resulting 
# from the CCDC's data processing and validation procedures.
#
#######################################################################

data_DOQKOL
_chemical_formula_moiety         'C18 H17 Br1 O2'
_chemical_name_systematic        
'9-(4-Bromobutyl)-9H-fluorene-9-carboxylic acid'
_symmetry_cell_setting           triclinic
_symmetry_space_group_name_H-M   'P -1'
_symmetry_Int_Tables_number      2
_space_group_name_Hall           '-P 1'
loop_
_symmetry_equiv_pos_site_id
_symmetry_equiv_pos_as_xyz
1 x,y,z
2 -x,-y,-z
_cell_length_a                   9.897(2)
_cell_length_b                   11.800(2)
_cell_length_c                   14.202(3)
_cell_angle_alpha                91.59(3)
_cell_angle_beta                 95.32(3)
_cell_angle_gamma                104.70(3)
_cell_volume                     1595.11
_exptl_crystal_colour            colorless
_exptl_crystal_description       cubic
_cell_formula_units_Z            4
loop_
_atom_site_label
_atom_site_type_symbol
_atom_site_fract_x
_atom_site_fract_y
_atom_site_fract_z
Br1 Br 0.38791(3) 0.59238(3) 0.04660(2)
O1 O 0.0453(2) 0.90473(15) 0.43181(12)
O2 O 0.0497(2) 1.08986(16) 0.39999(13)
H1 H 0.0155 1.0889 0.4520
C1 C 0.0668(3) 0.9857(2) 0.37874(19)
C2 C 0.1092(3) 0.9715(2) 0.27999(18)
C3 C -0.0231(3) 0.9517(2) 0.21020(19)
C4 C -0.1440(3) 0.8610(2) 0.2065(2)
H2 H -0.1528 0.8012 0.2506
C5 C -0.2520(3) 0.8600(3) 0.1364(2)
H3 H -0.3357 0.7983 0.1319
C6 C -0.2388(3) 0.9486(3) 0.0728(2)
H4 H -0.3148 0.9474 0.0264
C7 C -0.1180(3) 1.0380(3) 0.07561(19)
H5 H -0.1094 1.0974 0.0311
C8 C -0.0079(3) 1.0394(2) 0.14550(18)
C9 C 0.1317(3) 1.1203(2) 0.16555(19)
C10 C 0.2006(3) 1.2164(2) 0.1180(2)
H6 H 0.1554 1.2405 0.0631
C11 C 0.3360(3) 1.2758(3) 0.1524(2)
H7 H 0.3853 1.3402 0.1198
C12 C 0.4013(3) 1.2424(3) 0.2345(2)
H8 H 0.4931 1.2860 0.2586
C13 C 0.3334(3) 1.1463(2) 0.2813(2)
H9 H 0.3786 1.1226 0.3365
C14 C 0.1997(3) 1.0857(2) 0.24656(19)
C15 C 0.1813(3) 0.8696(2) 0.27546(18)
H10 H 0.2645 0.8865 0.3231
H11 H 0.1154 0.7964 0.2918
C16 C 0.2273(3) 0.8515(2) 0.17776(19)
H12 H 0.1447 0.8382 0.1300
H13 H 0.2960 0.9239 0.1627
C17 C 0.2932(3) 0.7488(2) 0.17017(19)
H14 H 0.3779 0.7620 0.2161
H15 H 0.2257 0.6756 0.1850
C18 C 0.3326(3) 0.7377(2) 0.0703(2)
H16 H 0.4114 0.8055 0.0599
H17 H 0.2516 0.7398 0.0245
Br2 Br 0.59649(4) -0.07669(3) 0.40874(3)
O3 O 0.9568(2) 0.57553(15) 0.10428(13)
H18 H 0.9856 0.5872 0.0507
O4 O 0.96586(19) 0.39224(16) 0.06820(12)
C19 C 0.9441(3) 0.4653(2) 0.12332(18)
C20 C 0.9030(3) 0.4356(2) 0.22235(18)
C21 C 0.8124(3) 0.5103(2) 0.26096(18)
C22 C 0.6789(3) 0.5146(2) 0.2272(2)
H19 H 0.6345 0.4742 0.1693
C23 C 0.6111(3) 0.5795(3) 0.2798(2)
H20 H 0.5191 0.5837 0.2575
C24 C 0.6753(4) 0.6384(2) 0.3645(2)
H21 H 0.6255 0.6800 0.4006
C25 C 0.8112(3) 0.6373(2) 0.3970(2)
H22 H 0.8563 0.6796 0.4540
C26 C 0.8800(3) 0.5728(2) 0.34435(19)
C27 C 1.0206(3) 0.5536(2) 0.36167(19)
C28 C 1.1289(3) 0.5984(3) 0.4320(2)
H23 H 1.1192 0.6534 0.4794
C29 C 1.2500(4) 0.5630(3) 0.4328(2)
H24 H 1.3253 0.5952 0.4802
C30 C 1.2649(3) 0.4797(3) 0.3648(2)
H25 H 1.3487 0.4541 0.3673
C31 C 1.1569(3) 0.4349(3) 0.2937(2)
H26 H 1.1665 0.3792 0.2469
C32 C 1.0353(3) 0.4722(2) 0.29201(18)
C33 C 0.8311(3) 0.3036(2) 0.22100(18)
H27 H 0.7439 0.2866 0.1770
H28 H 0.8940 0.2594 0.1961
C34 C 0.7946(3) 0.2601(2) 0.31781(18)
H29 H 0.7332 0.3050 0.3438
H30 H 0.8818 0.2742 0.3616
C35 C 0.7200(3) 0.1295(2) 0.31216(19)
H31 H 0.6357 0.1140 0.2656
H32 H 0.7835 0.0835 0.2907
C36 C 0.6774(3) 0.0922(2) 0.4085(2)
H33 H 0.6079 0.1337 0.4271
H34 H 0.7608 0.1151 0.4559
loop_
_geom_bond_atom_site_label_1
_geom_bond_atom_site_label_2
_geom_bond_site_symmetry_1
_geom_bond_site_symmetry_2
Br1 C18 1_555 1_555
O1 C1 1_555 1_555
O2 H1 1_555 1_555
C1 O2 1_555 1_555
C2 C1 1_555 1_555
C3 C2 1_555 1_555
C4 C3 1_555 1_555
H2 C4 1_555 1_555
C5 C4 1_555 1_555
H3 C5 1_555 1_555
C6 C5 1_555 1_555
H4 C6 1_555 1_555
C7 C6 1_555 1_555
H5 C7 1_555 1_555
C8 C3 1_555 1_555
C9 C8 1_555 1_555
C10 C9 1_555 1_555
H6 C10 1_555 1_555
C11 C10 1_555 1_555
H7 C11 1_555 1_555
C12 C11 1_555 1_555
H8 C12 1_555 1_555
C13 C12 1_555 1_555
H9 C13 1_555 1_555
C14 C2 1_555 1_555
C15 C2 1_555 1_555
H10 C15 1_555 1_555
H11 C15 1_555 1_555
C16 C15 1_555 1_555
H12 C16 1_555 1_555
H13 C16 1_555 1_555
C17 C16 1_555 1_555
H14 C17 1_555 1_555
H15 C17 1_555 1_555
C18 C17 1_555 1_555
H16 C18 1_555 1_555
H17 C18 1_555 1_555
Br2 C36 1_555 1_555
O3 H18 1_555 1_555
O4 C19 1_555 1_555
C19 O3 1_555 1_555
C20 C19 1_555 1_555
C21 C20 1_555 1_555
C22 C21 1_555 1_555
H19 C22 1_555 1_555
C23 C22 1_555 1_555
H20 C23 1_555 1_555
C24 C23 1_555 1_555
H21 C24 1_555 1_555
C25 C24 1_555 1_555
H22 C25 1_555 1_555
C26 C21 1_555 1_555
C27 C26 1_555 1_555
C28 C27 1_555 1_555
H23 C28 1_555 1_555
C29 C28 1_555 1_555
H24 C29 1_555 1_555
C30 C29 1_555 1_555
H25 C30 1_555 1_555
C31 C30 1_555 1_555
H26 C31 1_555 1_555
C32 C20 1_555 1_555
C33 C20 1_555 1_555
H27 C33 1_555 1_555
H28 C33 1_555 1_555
C34 C33 1_555 1_555
H29 C34 1_555 1_555
H30 C34 1_555 1_555
C35 C34 1_555 1_555
H31 C35 1_555 1_555
H32 C35 1_555 1_555
C36 C35 1_555 1_555
H33 C36 1_555 1_555
H34 C36 1_555 1_555
C7 C8 1_555 1_555
C9 C14 1_555 1_555
C13 C14 1_555 1_555
C25 C26 1_555 1_555
C27 C32 1_555 1_555
C31 C32 1_555 1_555

#END
