
#######################################################################
#
#                 Cambridge Crystallographic Data Centre
#                                CCDC 
#
#######################################################################
#
# If this CIF has been generated from an entry in the Cambridge 
# Structural Database, then it will include bibliographic, chemical, 
# crystal, experimental, refinement or atomic coordinate data resulting 
# from the CCDC's data processing and validation procedures.
#
#######################################################################

data_DOQZEQ
_chemical_formula_moiety         'C21 H12 N4 S2,C1 H4 O1'
_chemical_name_systematic        
"2-(2,2'-Bithiophen-5-yl)-1H-imidazo[4,5-f][1,10]phenanthroline methanol solvate"
_symmetry_cell_setting           triclinic
_symmetry_space_group_name_H-M   'P -1'
_symmetry_Int_Tables_number      2
_space_group_name_Hall           '-P 1'
loop_
_symmetry_equiv_pos_site_id
_symmetry_equiv_pos_as_xyz
1 x,y,z
2 -x,-y,-z
_cell_length_a                   9.710(2)
_cell_length_b                   11.739(3)
_cell_length_c                   18.143(4)
_cell_angle_alpha                82.282(5)
_cell_angle_beta                 77.300(4)
_cell_angle_gamma                72.699(4)
_cell_volume                     1920.89
_exptl_crystal_colour            yellow
_exptl_crystal_description       block
_cell_formula_units_Z            4
loop_
_atom_site_label
_atom_site_type_symbol
_atom_site_fract_x
_atom_site_fract_y
_atom_site_fract_z
C1 C 0.2117(7) 0.7482(6) -0.3556(3)
H1 H 0.2336 0.7632 -0.4079
C2 C 0.2765(7) 0.6340(5) -0.3256(3)
H2 H 0.3371 0.5749 -0.3569
C3 C 0.2480(6) 0.6117(5) -0.2485(3)
H3 H 0.2902 0.5368 -0.2265
C4 C 0.1554(6) 0.7021(5) -0.2033(3)
C5 C 0.1211(6) 0.6917(5) -0.1225(3)
C6 C 0.0325(6) 0.7840(5) -0.0806(3)
C7 C -0.0310(6) 0.8981(5) -0.1149(3)
C8 C -0.1182(6) 0.9976(5) -0.0740(3)
H4 H -0.1396 0.9914 -0.0213
C9 C -0.1700(7) 1.1026(5) -0.1140(4)
H5 H -0.2253 1.1701 -0.0887
C10 C -0.1405(7) 1.1091(5) -0.1922(4)
H6 H -0.1813 1.1811 -0.2179
C11 C -0.0013(6) 0.9142(5) -0.1943(3)
C12 C 0.0922(6) 0.8151(5) -0.2395(3)
C13 C 0.0967(6) 0.6365(5) -0.0018(3)
C14 C 0.1113(6) 0.5585(5) 0.0674(3)
C15 C 0.1837(6) 0.4411(5) 0.0788(3)
H7 H 0.2390 0.3927 0.0401
C16 C 0.1649(6) 0.4012(5) 0.1565(3)
H8 H 0.2054 0.3228 0.1740
C17 C 0.0831(6) 0.4872(5) 0.2028(3)
C18 C 0.0390(7) 0.4782(5) 0.2837(3)
C19 C 0.075(3) 0.3821(15) 0.3352(7)
H9 H 0.1404 0.3090 0.3214
C20 C -0.0871(8) 0.5241(7) 0.4127(4)
H10 H -0.1460 0.5599 0.4559
C21 C 0.0022(8) 0.4048(6) 0.4135(4)
H11 H 0.0127 0.3509 0.4558
N1 N 0.1219(5) 0.8368(4) -0.3161(3)
N2 N -0.0575(5) 1.0188(4) -0.2331(3)
N3 N 0.1623(5) 0.5966(4) -0.0724(3)
H12 H 0.2178 0.5263 -0.0828
N4 N 0.0162(5) 0.7485(4) -0.0041(2)
S1 S 0.02371(19) 0.62017(13) 0.15172(9)
S2 S -0.0765(10) 0.5903(4) 0.3311(2)
C23 C 0.3015(7) 0.1671(5) 0.8498(3)
H14 H 0.2842 0.1666 0.9023
C24 C 0.2338(6) 0.1012(5) 0.8186(4)
H15 H 0.1721 0.0593 0.8493
C25 C 0.2605(6) 0.0998(5) 0.7413(3)
H16 H 0.2191 0.0551 0.7185
C26 C 0.3502(6) 0.1661(5) 0.6975(3)
C27 C 0.3836(6) 0.1781(5) 0.6165(3)
C28 C 0.4722(6) 0.2444(5) 0.5743(3)
C29 C 0.5378(6) 0.3090(5) 0.6101(3)
C30 C 0.6238(6) 0.3828(5) 0.5722(4)
H17 H 0.6426 0.3915 0.5195
C31 C 0.6801(7) 0.4415(6) 0.6118(4)
H18 H 0.7412 0.4882 0.5871
C32 C 0.6446(7) 0.4307(5) 0.6907(4)
H19 H 0.6800 0.4746 0.7175
C33 C 0.5078(6) 0.3015(5) 0.6903(3)
C34 C 0.4153(6) 0.2298(5) 0.7337(3)
C35 C 0.4002(6) 0.1692(5) 0.4933(3)
C36 C 0.3813(6) 0.1381(5) 0.4229(3)
C37 C 0.2999(7) 0.0715(5) 0.4085(4)
H20 H 0.2411 0.0358 0.4463
C38 C 0.3124(7) 0.0612(5) 0.3305(4)
H21 H 0.2618 0.0190 0.3117
C39 C 0.4057(6) 0.1192(5) 0.2857(3)
C40 C 0.4477(7) 0.1339(5) 0.2044(3)
C41 C 0.537(4) 0.198(3) 0.1607(7)
H22 H 0.5811 0.2432 0.1816
C42 C 0.5568(8) 0.1922(6) 0.0792(4)
H23 H 0.6163 0.2264 0.0408
C43 C 0.4662(9) 0.1232(7) 0.0718(4)
H24 H 0.4568 0.1073 0.0245
N5 N 0.3885(5) 0.2301(4) 0.8103(3)
N6 N 0.5633(5) 0.3615(4) 0.7301(3)
N7 N 0.3375(5) 0.1296(4) 0.5637(3)
H25 H 0.2805 0.0835 0.5732
N8 N 0.4848(5) 0.2386(4) 0.4977(3)
S4 S 0.47796(18) 0.18920(15) 0.34051(9)
S5 S 0.3844(8) 0.0756(7) 0.1442(2)
C45 C 0.9707(8) 0.1326(6) 0.5848(4)
H27 H 0.9073 0.1356 0.6336
H28 H 0.9206 0.1212 0.5475
H29 H 0.9972 0.2064 0.5719
O1 O 1.0990(5) 0.0366(4) 0.5867(2)
H30 H 1.0869 -0.0067 0.6256
C46 C 0.5258(7) 0.4323(6) 0.8987(3)
H31 H 0.5315 0.4941 0.8586
H32 H 0.6114 0.3655 0.8892
H33 H 0.5209 0.4627 0.9460
O2 O 0.3998(4) 0.3955(4) 0.9018(2)
H34 H 0.4212 0.3371 0.8770
C22? C -0.060(3) 0.5589(17) 0.3317(7)
H13? H -0.1093 0.6342 0.3128
S3? S 0.0927(9) 0.3549(4) 0.3405(3)
C44? C 0.403(3) 0.091(3) 0.1494(7)
H26? H 0.3367 0.0455 0.1610
S6? S 0.5549(14) 0.2132(12) 0.1601(3)
loop_
_geom_bond_atom_site_label_1
_geom_bond_atom_site_label_2
_geom_bond_site_symmetry_1
_geom_bond_site_symmetry_2
C1 H1 1_555 1_555
C2 C1 1_555 1_555
H2 C2 1_555 1_555
C3 C2 1_555 1_555
H3 C3 1_555 1_555
C4 C3 1_555 1_555
C5 C4 1_555 1_555
C6 C5 1_555 1_555
C7 C6 1_555 1_555
C8 C7 1_555 1_555
H4 C8 1_555 1_555
C9 C8 1_555 1_555
H5 C9 1_555 1_555
C10 C9 1_555 1_555
H6 C10 1_555 1_555
C11 C7 1_555 1_555
C12 C4 1_555 1_555
C13 C14 1_555 1_555
C14 C15 1_555 1_555
C15 H7 1_555 1_555
C16 C15 1_555 1_555
H8 C16 1_555 1_555
C17 C16 1_555 1_555
C18 C17 1_555 1_555
C19 C18 1_555 1_555
H9 C19 1_555 1_555
C20 H10 1_555 1_555
C21 C19 1_555 1_555
H11 C21 1_555 1_555
N1 C1 1_555 1_555
N2 C10 1_555 1_555
N3 C5 1_555 1_555
H12 N3 1_555 1_555
N4 C6 1_555 1_555
S1 C14 1_555 1_555
S2 C18 1_555 1_555
C23 H14 1_555 1_555
C24 C23 1_555 1_555
H15 C24 1_555 1_555
C25 C24 1_555 1_555
H16 C25 1_555 1_555
C26 C25 1_555 1_555
C27 C26 1_555 1_555
C28 C27 1_555 1_555
C29 C28 1_555 1_555
C30 C29 1_555 1_555
H17 C30 1_555 1_555
C31 C30 1_555 1_555
H18 C31 1_555 1_555
C32 C31 1_555 1_555
H19 C32 1_555 1_555
C33 C29 1_555 1_555
C34 C26 1_555 1_555
C35 C36 1_555 1_555
C36 C37 1_555 1_555
C37 H20 1_555 1_555
C38 C37 1_555 1_555
H21 C38 1_555 1_555
C39 C38 1_555 1_555
C40 C39 1_555 1_555
C41 C40 1_555 1_555
H22 C41 1_555 1_555
C42 C41 1_555 1_555
H23 C42 1_555 1_555
C43 C42 1_555 1_555
H24 C43 1_555 1_555
N5 C23 1_555 1_555
N6 C32 1_555 1_555
N7 C27 1_555 1_555
H25 N7 1_555 1_555
N8 C28 1_555 1_555
S4 C36 1_555 1_555
S5 C40 1_555 1_555
C45 H27 1_555 1_555
H28 C45 1_555 1_555
H29 C45 1_555 1_555
O1 C45 1_555 1_555
H30 O1 1_555 1_555
C46 H31 1_555 1_555
H32 C46 1_555 1_555
H33 C46 1_555 1_555
O2 C46 1_555 1_555
H34 O2 1_555 1_555
C11 C12 1_555 1_555
C11 N2 1_555 1_555
C12 N1 1_555 1_555
C13 N3 1_555 1_555
C13 N4 1_555 1_555
C17 S1 1_555 1_555
C20 C21 1_555 1_555
C20 S2 1_555 1_555
C33 C34 1_555 1_555
C33 N6 1_555 1_555
C34 N5 1_555 1_555
C35 N7 1_555 1_555
C35 N8 1_555 1_555
C39 S4 1_555 1_555
C43 S5 1_555 1_555

#END
