
#######################################################################
#
#                 Cambridge Crystallographic Data Centre
#                                CCDC 
#
#######################################################################
#
# If this CIF has been generated from an entry in the Cambridge 
# Structural Database, then it will include bibliographic, chemical, 
# crystal, experimental, refinement or atomic coordinate data resulting 
# from the CCDC's data processing and validation procedures.
#
#######################################################################

data_DORCAQ
_chemical_name_common            
'3,22-bis(isopropyl)-7,8,17,18-tetramethyl-12,13-diethylnaphthosapphyrin bis(chloride) chloroform solvate'
_chemical_formula_moiety         'C44 H49 N5 2+,2(Cl1 1-),2(C1 H1 Cl3)'
_chemical_name_systematic        
'19,20-diethyl-31,35-diisopropyl-14,15,24,25-tetramethyl-10,29,33-triaza-32,34-diazoniaoctacyclo[26.2.1.1^8,11^.1^13,16^.1^18,21^.1^23,26^.0^2,7^.0^9,30^]pentatriaconta-1(30),2(7),3,5,8,11(35),12,14,16(34),17,19,21,23(32),24,26,28(31)-hexadecaene bis(chloride) chloroform solvate'
_symmetry_cell_setting           triclinic
_symmetry_space_group_name_H-M   'P -1'
_symmetry_Int_Tables_number      2
_space_group_name_Hall           '-P 1'
loop_
_symmetry_equiv_pos_site_id
_symmetry_equiv_pos_as_xyz
1 x,y,z
2 -x,-y,-z
_cell_length_a                   11.7524(18)
_cell_length_b                   13.482(2)
_cell_length_c                   15.789(2)
_cell_angle_alpha                73.411(14)
_cell_angle_beta                 83.366(13)
_cell_angle_gamma                86.846(13)
_cell_volume                     2380.88
_exptl_crystal_colour            green
_exptl_crystal_description       block
_cell_formula_units_Z            2
loop_
_atom_site_label
_atom_site_type_symbol
_atom_site_fract_x
_atom_site_fract_y
_atom_site_fract_z
Cl1 Cl 0.3578(3) 0.3978(2) 0.30260(18)
Cl2 Cl 0.1534(3) 0.6216(2) 0.26461(18)
Cl3 Cl 0.2741(6) 0.9216(4) 0.1492(4)
Cl4 Cl 0.2143(6) 0.8479(5) 0.0131(3)
Cl5 Cl 0.0427(6) 0.9164(5) 0.1217(4)
C1 C 0.1748(18) 0.8571(12) 0.1164(10)
H1 H 0.170(12) 0.787(10) 0.157(9)
N1 N 0.7468(8) 0.5128(7) 0.5325(6)
H2 H 0.7441 0.5185 0.5856
N2 N 0.8644(8) 0.5658(7) 0.8141(5)
H3 H 0.8318 0.5179 0.8001
C2 C 0.5675(12) 0.3696(9) 0.9244(7)
N3 N 0.9216(7) 0.6024(6) 0.6166(6)
H4 H 0.8798 0.5484 0.6336
N4 N 0.6488(8) 0.4435(7) 0.8957(5)
H5 H 0.6734 0.4714 0.8410
C3 C 0.9819(11) 0.6941(9) 0.8067(8)
C4 C 0.8502(9) 0.5735(9) 0.2928(7)
H6 H 0.8431 0.5233 0.2613
H7 H 0.9298 0.5852 0.2937
H8 H 0.8130 0.6373 0.2635
N5 N 0.5741(8) 0.3785(7) 0.7165(6)
H9 H 0.6277 0.4188 0.7177
C5 C 0.9664(10) 0.6479(9) 0.6693(8)
C6 C 0.8229(11) 0.5623(8) 0.4613(7)
C7 C 0.9108(10) 0.6281(8) 0.4595(7)
H10 H 0.9476 0.6578 0.4032
C8 C 0.7051(11) 0.4682(9) 0.4120(7)
C9 C 0.8491(10) 0.5861(9) 0.8956(8)
C10 C 0.4533(12) 0.2824(10) 0.6709(10)
C11 C 1.0326(10) 0.7271(9) 0.6206(8)
C12 C 0.9383(10) 0.6332(9) 0.7611(7)
C13 C 0.6446(11) 0.4028(9) 1.1387(7)
H11 H 0.5877 0.3613 1.1803
H12 H 0.6391 0.4721 1.1439
H13 H 0.7194 0.3739 1.1511
C14 C 0.4307(11) 0.2609(10) 0.7595(10)
C15 C 0.5061(10) 0.3234(9) 0.7885(8)
C16 C 1.0924(10) 0.7896(8) 0.6641(8)
C17 C 1.0236(9) 0.7383(8) 0.5286(7)
C18 C 0.7951(11) 0.5342(10) 0.3859(7)
C19 C 0.6763(11) 0.4531(9) 0.5048(8)
C20 C 0.3892(12) 0.2410(11) 0.6090(10)
H14 H 0.3143 0.2164 0.6374
H15 H 0.3798 0.2942 0.5539
C21 C 0.5529(11) 0.3460(10) 1.0222(8)
C22 C 0.6252(11) 0.4043(10) 1.0462(8)
C23 C 0.6524(11) 0.4163(10) 0.3576(7)
H16 H 0.5735 0.4384 0.3546
H17 H 0.6568 0.3428 0.3837
H18 H 0.6921 0.4337 0.2989
C24 C 0.9372(15) 0.7099(12) 0.9696(9)
H19 H 1.004(11) 0.754(9) 0.947(8)
C25 C 0.6861(13) 0.4674(10) 0.9680(8)
C26 C 0.5426(11) 0.3592(9) 0.6419(9)
C27 C 0.9254(11) 0.6659(10) 0.8915(7)
C28 C 0.7730(12) 0.5310(10) 0.9658(8)
H20 H 0.7838 0.5392 1.0208
C29 C 0.9545(10) 0.6577(9) 0.5295(7)
C30 C 0.3485(14) 0.1857(13) 0.8190(9)
H21 H 0.3132 0.2146 0.8656
H22 H 0.2884 0.1757 0.7852
C31 C 1.0662(11) 0.7697(9) 0.7581(8)
C32 C 1.1299(13) 0.8272(11) 0.7970(9)
H23 H 1.1157 0.8146 0.8583
C33 C 0.5873(11) 0.3921(9) 0.5530(8)
H24 H 0.5468 0.3663 0.5170
C34 C 1.1738(11) 0.8623(9) 0.6198(8)
H25 H 1.1893 0.8765 0.5584
C35 C 0.5061(11) 0.3214(9) 0.8782(8)
H26 H 0.4518 0.2770 0.9154
C36 C 1.2325(11) 0.9142(10) 0.6644(10)
H27 H 1.2886 0.9604 0.6326
C37 C 1.1872(11) 0.7965(8) 0.4132(7)
H28 H 1.2397 0.7903 0.4568
H29 H 1.2112 0.8508 0.3608
H30 H 1.1863 0.7323 0.3983
C38 C 1.0693(12) 0.8219(10) 0.4500(10)
H31 H 1.082(10) 0.879(8) 0.475(7)
C39 C 1.2100(14) 0.8994(11) 0.7550(10)
H32 H 1.2469 0.9360 0.7852
C40 C 0.8458(16) 0.7852(14) 0.9763(10)
H33 H 0.7806 0.7505 1.0128
H34 H 0.8245 0.8200 0.9180
H35 H 0.8718 0.8350 1.0023
C41 C 0.4733(11) 0.2630(11) 1.0817(7)
H36 H 0.4754 0.2617 1.1426
H37 H 0.4980 0.1967 1.0741
H38 H 0.3965 0.2783 1.0659
C42 C 0.4002(17) 0.0870(12) 0.8590(12)
H39 H 0.4463 0.0632 0.8141
H40 H 0.3414 0.0381 0.8872
H41 H 0.4476 0.0937 0.9026
C43 C 0.9718(18) 0.6436(13) 1.0497(10)
H42 H 1.0049 0.6837 1.0816
H43 H 1.0275 0.5939 1.0365
H44 H 0.9064 0.6083 1.0853
C44 C 0.9903(14) 0.8693(12) 0.3809(10)
H45 H 0.9922 0.8282 0.3401
H46 H 1.0142 0.9381 0.3492
H47 H 0.9137 0.8720 0.4089
C45 C 0.4644(17) 0.1546(12) 0.5927(11)
H48 H 0.5356 0.1816 0.5605
H49 H 0.4272 0.1198 0.5587
H50 H 0.4789 0.1066 0.6485
Cl6 Cl 0.2582(6) 0.1124(4) 0.2596(3)
Cl7 Cl 0.2374(6) 0.1009(5) 0.4373(3)
Cl8 Cl 0.4538(6) 0.1140(5) 0.3406(5)
C46 C 0.3139(17) 0.1483(11) 0.3373(10)
H51 H 0.308(11) 0.224(10) 0.322(8)
loop_
_geom_bond_atom_site_label_1
_geom_bond_atom_site_label_2
_geom_bond_site_symmetry_1
_geom_bond_site_symmetry_2
Cl3 C1 1_555 1_555
Cl4 C1 1_555 1_555
Cl5 C1 1_555 1_555
C1 H1 1_555 1_555
N1 H2 1_555 1_555
N2 H3 1_555 1_555
C2 N4 1_555 1_555
N3 H4 1_555 1_555
N4 H5 1_555 1_555
C3 C12 1_555 1_555
C4 H6 1_555 1_555
H7 C4 1_555 1_555
H8 C4 1_555 1_555
N5 H9 1_555 1_555
C5 N3 1_555 1_555
C6 N1 1_555 1_555
C7 C6 1_555 1_555
H10 C7 1_555 1_555
C8 C18 1_555 1_555
C9 N2 1_555 1_555
C10 C14 1_555 1_555
C11 C5 1_555 1_555
C12 N2 1_555 1_555
C13 H11 1_555 1_555
H12 C13 1_555 1_555
H13 C13 1_555 1_555
C14 C15 1_555 1_555
C15 N5 1_555 1_555
C16 C11 1_555 1_555
C17 C11 1_555 1_555
C18 C4 1_555 1_555
C19 N1 1_555 1_555
C20 C10 1_555 1_555
H14 C20 1_555 1_555
H15 C20 1_555 1_555
C21 C2 1_555 1_555
C22 C13 1_555 1_555
C23 C8 1_555 1_555
H16 C23 1_555 1_555
H17 C23 1_555 1_555
H18 C23 1_555 1_555
C24 H19 1_555 1_555
C25 N4 1_555 1_555
C26 N5 1_555 1_555
C27 C3 1_555 1_555
C28 C9 1_555 1_555
H20 C28 1_555 1_555
C29 N3 1_555 1_555
C30 C14 1_555 1_555
H21 C30 1_555 1_555
H22 C30 1_555 1_555
C31 C3 1_555 1_555
C32 C31 1_555 1_555
H23 C32 1_555 1_555
C33 C19 1_555 1_555
H24 C33 1_555 1_555
C34 C16 1_555 1_555
H25 C34 1_555 1_555
C35 C2 1_555 1_555
H26 C35 1_555 1_555
C36 C34 1_555 1_555
H27 C36 1_555 1_555
C37 H28 1_555 1_555
H29 C37 1_555 1_555
H30 C37 1_555 1_555
C38 C17 1_555 1_555
H31 C38 1_555 1_555
C39 C32 1_555 1_555
H32 C39 1_555 1_555
C40 C24 1_555 1_555
H33 C40 1_555 1_555
H34 C40 1_555 1_555
H35 C40 1_555 1_555
C41 C21 1_555 1_555
H36 C41 1_555 1_555
H37 C41 1_555 1_555
H38 C41 1_555 1_555
C42 C30 1_555 1_555
H39 C42 1_555 1_555
H40 C42 1_555 1_555
H41 C42 1_555 1_555
C43 C24 1_555 1_555
H42 C43 1_555 1_555
H43 C43 1_555 1_555
H44 C43 1_555 1_555
C44 C38 1_555 1_555
H45 C44 1_555 1_555
H46 C44 1_555 1_555
H47 C44 1_555 1_555
C45 C20 1_555 1_555
H48 C45 1_555 1_555
H49 C45 1_555 1_555
H50 C45 1_555 1_555
Cl6 C46 1_555 1_555
Cl7 C46 1_555 1_555
Cl8 C46 1_555 1_555
C46 H51 1_555 1_555
C5 C12 1_555 1_555
C6 C18 1_555 1_555
C7 C29 1_555 1_555
C8 C19 1_555 1_555
C9 C27 1_555 1_555
C10 C26 1_555 1_555
C15 C35 1_555 1_555
C16 C31 1_555 1_555
C17 C29 1_555 1_555
C21 C22 1_555 1_555
C22 C25 1_555 1_555
C24 C27 1_555 1_555
C25 C28 1_555 1_555
C26 C33 1_555 1_555
C36 C39 1_555 1_555
C37 C38 1_555 1_555

#END
