
#######################################################################
#
#                 Cambridge Crystallographic Data Centre
#                                CCDC 
#
#######################################################################
#
# If this CIF has been generated from an entry in the Cambridge 
# Structural Database, then it will include bibliographic, chemical, 
# crystal, experimental, refinement or atomic coordinate data resulting 
# from the CCDC's data processing and validation procedures.
#
#######################################################################

data_DORCUI
_chemical_formula_moiety         'C30 H44 Cl2 N2 O6'
_chemical_name_systematic        
N,N'-Diethyl-29,30-dimethoxy-13,27-dichloro-6,20-diaza-3,9,17,23-tetraoxatricyclo(23.3.1.1^11,15^)cyclotriacontane-1(29),11,13,15(30),25,27-hexaene
_symmetry_cell_setting           triclinic
_symmetry_space_group_name_H-M   'P -1'
_symmetry_Int_Tables_number      2
_space_group_name_Hall           '-P 1'
loop_
_symmetry_equiv_pos_site_id
_symmetry_equiv_pos_as_xyz
1 x,y,z
2 -x,-y,-z
_cell_length_a                   9.104(1)
_cell_length_b                   11.235(1)
_cell_length_c                   16.649(6)
_cell_angle_alpha                71.53(3)
_cell_angle_beta                 84.10(2)
_cell_angle_gamma                83.03(1)
_cell_volume                     1599.51
_cell_formula_units_Z            2
loop_
_atom_site_label
_atom_site_type_symbol
_atom_site_fract_x
_atom_site_fract_y
_atom_site_fract_z
Cl1 Cl 0.3604(1) -0.0588(1) 0.2467(1)
Cl2 Cl -0.4179(1) 0.6112(1) 0.2184(1)
O1 O 0.0892(3) 0.1626(2) 0.4585(2)
O2 O 0.1334(3) 0.5214(2) 0.3685(2)
O3 O -0.1036(3) 0.3320(2) 0.0587(2)
O4 O -0.1518(3) -0.0814(2) 0.1484(2)
O5 O -0.2556(3) 0.0974(2) 0.3369(2)
O6 O 0.2115(3) 0.4417(2) 0.1774(2)
N1 N 0.2933(3) 0.3217(3) 0.5024(2)
N2 N -0.2859(3) 0.1533(3) 0.0179(2)
C1 C 0.1764(4) -0.0084(4) 0.2717(3)
C2 C 0.1485(4) 0.0500(3) 0.3335(2)
C3 C 0.0012(4) 0.0910(3) 0.3533(2)
C4 C -0.1092(4) 0.0675(3) 0.3116(2)
C5 C -0.0802(4) 0.0083(3) 0.2494(2)
C6 C 0.0671(4) -0.0300(3) 0.2285(2)
C7 C -0.3247(6) 0.2126(4) 0.2871(3)
C8 C -0.2290(4) 0.5600(3) 0.2070(2)
C9 C -0.1858(4) 0.4831(3) 0.1568(2)
C10 C -0.0367(4) 0.4396(3) 0.1503(2)
C11 C 0.0632(4) 0.4776(3) 0.1910(2)
C12 C 0.0196(4) 0.5583(3) 0.2403(2)
C13 C -0.1302(4) 0.5990(3) 0.2468(2)
C14 C 0.2822(5) 0.3503(4) 0.2467(3)
C15 C -0.0371(4) 0.1558(3) 0.4198(3)
C16 C 0.0572(4) 0.2300(3) 0.5182(2)
C17 C 0.1959(4) 0.2341(3) 0.5571(2)
C18 C 0.2427(4) 0.4527(3) 0.4996(2)
C19 C 0.2492(4) 0.5429(3) 0.4106(2)
C20 C 0.1282(4) 0.6036(3) 0.2830(2)
C21 C 0.4481(5) 0.2917(4) 0.5244(4)
C22 C 0.5150(7) 0.1703(6) 0.5070(5)
C23 C 0.0157(4) 0.3554(3) 0.0967(3)
C24 C -0.0597(4) 0.2603(3) 0.0019(3)
C25 C -0.1929(5) 0.2470(3) -0.0388(2)
C26 C -0.2367(4) 0.0283(3) 0.0096(2)
C27 C -0.2065(4) -0.0142(4) 0.2056(2)
C28 C -0.2569(4) -0.0777(3) 0.0904(2)
C29 C -0.4441(5) 0.1829(4) 0.0041(3)
C30 C -0.5046(7) 0.3022(6) 0.0374(5)
loop_
_geom_bond_atom_site_label_1
_geom_bond_atom_site_label_2
_geom_bond_site_symmetry_1
_geom_bond_site_symmetry_2
Cl1 C1 1_555 1_555
Cl2 C8 1_555 1_555
O1 C15 1_555 1_555
O2 C19 1_555 1_555
O3 C23 1_555 1_555
O4 C27 1_555 1_555
O5 C4 1_555 1_555
O6 C11 1_555 1_555
N1 C17 1_555 1_555
N2 C25 1_555 1_555
C1 C2 1_555 1_555
C2 C3 1_555 1_555
C3 C4 1_555 1_555
C4 C5 1_555 1_555
C5 C6 1_555 1_555
C6 C1 1_555 1_555
C7 O5 1_555 1_555
C8 C9 1_555 1_555
C9 C10 1_555 1_555
C10 C11 1_555 1_555
C11 C12 1_555 1_555
C12 C13 1_555 1_555
C13 C8 1_555 1_555
C14 O6 1_555 1_555
C15 C3 1_555 1_555
C16 O1 1_555 1_555
C17 C16 1_555 1_555
C18 N1 1_555 1_555
C19 C18 1_555 1_555
C20 O2 1_555 1_555
C21 N1 1_555 1_555
C22 C21 1_555 1_555
C23 C10 1_555 1_555
C24 O3 1_555 1_555
C25 C24 1_555 1_555
C26 N2 1_555 1_555
C27 C5 1_555 1_555
C28 O4 1_555 1_555
C29 N2 1_555 1_555
C30 C29 1_555 1_555
C12 C20 1_555 1_555
C26 C28 1_555 1_555

#END
