
#######################################################################
#
#                 Cambridge Crystallographic Data Centre
#                                CCDC 
#
#######################################################################
#
# If this CIF has been generated from an entry in the Cambridge 
# Structural Database, then it will include bibliographic, chemical, 
# crystal, experimental, refinement or atomic coordinate data resulting 
# from the CCDC's data processing and validation procedures.
#
#######################################################################

data_DORFOH
_chemical_formula_moiety         'C20 H24 N2 O2,C1 H4 O1,0.25(H2 O1)'
_chemical_name_systematic        
'1-(4,13,15-trimethyl-11-oxa-3,14-diazapentacyclo[8.8.0.0^2,12^.0^3,7^.0^14,18^]octadeca-4,6,8,15,17-pentaen-10-yl)ethanol methanol solvate hydrate'
_symmetry_cell_setting           orthorhombic
_symmetry_space_group_name_H-M   'P 21 21 21'
_symmetry_Int_Tables_number      19
_space_group_name_Hall           'P 2ac 2ab'
loop_
_symmetry_equiv_pos_site_id
_symmetry_equiv_pos_as_xyz
1 x,y,z
2 1/2-x,-y,1/2+z
3 -x,1/2+y,1/2-z
4 1/2+x,1/2-y,-z
_cell_length_a                   7.2627(5)
_cell_length_b                   13.3066(12)
_cell_length_c                   20.2131(17)
_cell_angle_alpha                90
_cell_angle_beta                 90
_cell_angle_gamma                90
_cell_volume                     1953.43
_exptl_crystal_colour            colorless
_exptl_crystal_description       prism
_cell_formula_units_Z            4
_chemical_properties_physical    Air-sensitive
_exptl_crystal_recrystallization_method methnol
loop_
_atom_site_label
_atom_site_type_symbol
_atom_site_fract_x
_atom_site_fract_y
_atom_site_fract_z
C1 C 0.6649(7) 0.7782(3) 0.0095(2)
C2 C 0.6834(6) 0.8821(3) 0.0192(2)
H1 H 0.6916 0.9301 -0.0140
C3 C 0.6878(7) 0.9016(3) 0.0875(2)
H2 H 0.7012 0.9641 0.1074
C4 C 0.6678(7) 0.8085(3) 0.1200(2)
C5 C 0.6535(7) 0.7965(3) 0.1937(2)
H3 H 0.6469 0.8530 0.2208
C6 C 0.6502(7) 0.7007(3) 0.2214(2)
H4 H 0.6597 0.6992 0.2673
C7 C 0.6332(7) 0.5961(3) 0.1883(2)
C8 C 0.4790(7) 0.6011(4) 0.1373(2)
H5 H 0.3772 0.6481 0.1444
C9 C 0.6189(6) 0.6226(3) 0.0802(2)
H6 H 0.5654 0.5972 0.0389
C10 C 0.7923(7) 0.5678(3) 0.0922(2)
H7 H 0.8985 0.5963 0.0689
C11 C 0.7651(7) 0.4567(4) 0.0796(3)
H8 H 0.8558 0.4167 0.1039
C12 C 0.4876(7) 0.3292(3) 0.0979(2)
C13 C 0.3040(7) 0.3383(4) 0.1216(2)
H9 H 0.2208 0.2859 0.1274
C14 C 0.2694(7) 0.4424(4) 0.1352(2)
H10 H 0.1599 0.4702 0.1506
C15 C 0.4362(7) 0.4955(4) 0.1204(2)
C16 C 0.6658(7) 0.7242(3) -0.0552(2)
H11 H 0.6521 0.6534 -0.0476
H12 H 0.7802 0.7366 -0.0775
H13 H 0.5657 0.7479 -0.0820
C17 C 0.7993(8) 0.4517(4) 0.0061(2)
H14 H 0.7895 0.3833 -0.0085
H15 H 0.9204 0.4766 -0.0034
H16 H 0.7096 0.4920 -0.0165
C18 C 0.5698(8) 0.2317(4) 0.0803(3)
H17 H 0.4814 0.1792 0.0875
H18 H 0.6763 0.2199 0.1074
H19 H 0.6055 0.2324 0.0346
C19 C 0.5852(7) 0.5327(3) 0.2500(2)
H20 H 0.5614 0.4651 0.2328
C20 C 0.7352(7) 0.5186(3) 0.3000(2)
H21 H 0.7436 0.5774 0.3274
H22 H 0.8502 0.5082 0.2777
H23 H 0.7079 0.4612 0.3271
N1 N 0.6507(5) 0.7314(3) 0.07227(18)
N2 N 0.5692(6) 0.4261(3) 0.09796(19)
O1 O 0.8064(4) 0.5742(2) 0.16561(14)
O2 O 0.4239(5) 0.5596(3) 0.28180(15)
H24 H 0.3291 0.5713 0.2496
O3 O 0.1319(5) 0.6559(2) 0.22154(17)
H25 H 0.0298 0.6500 0.1916
C21 C 0.1311(7) 0.7509(4) 0.2513(3)
H26 H 0.0548 0.7495 0.2900
H27 H 0.0829 0.7990 0.2204
H28 H 0.2542 0.7695 0.2634
O4 O 0.557(2) 0.8815(12) 0.5753(9)
H29 H 0.5646 0.8738 0.5337
H30 H 0.4513 0.8621 0.5885
loop_
_geom_bond_atom_site_label_1
_geom_bond_atom_site_label_2
_geom_bond_site_symmetry_1
_geom_bond_site_symmetry_2
C1 C2 1_555 1_555
C2 H1 1_555 1_555
C3 C2 1_555 1_555
H2 C3 1_555 1_555
C4 C3 1_555 1_555
C5 C4 1_555 1_555
H3 C5 1_555 1_555
C6 C5 1_555 1_555
H4 C6 1_555 1_555
C7 C6 1_555 1_555
C8 C7 1_555 1_555
H5 C8 1_555 1_555
C9 C8 1_555 1_555
H6 C9 1_555 1_555
C10 C9 1_555 1_555
H7 C10 1_555 1_555
C11 C10 1_555 1_555
H8 C11 1_555 1_555
C12 C13 1_555 1_555
C13 H9 1_555 1_555
C14 C13 1_555 1_555
H10 C14 1_555 1_555
C15 C8 1_555 1_555
C16 C1 1_555 1_555
H11 C16 1_555 1_555
H12 C16 1_555 1_555
H13 C16 1_555 1_555
C17 C11 1_555 1_555
H14 C17 1_555 1_555
H15 C17 1_555 1_555
H16 C17 1_555 1_555
C18 C12 1_555 1_555
H17 C18 1_555 1_555
H18 C18 1_555 1_555
H19 C18 1_555 1_555
C19 C7 1_555 1_555
H20 C19 1_555 1_555
C20 C19 1_555 1_555
H21 C20 1_555 1_555
H22 C20 1_555 1_555
H23 C20 1_555 1_555
N1 C1 1_555 1_555
N2 C11 1_555 1_555
O1 C7 1_555 1_555
O2 C19 1_555 1_555
H24 O2 1_555 1_555
O3 H25 1_555 1_555
C21 O3 1_555 1_555
H26 C21 1_555 1_555
H27 C21 1_555 1_555
H28 C21 1_555 1_555
O4 H29 1_555 1_555
H30 O4 1_555 1_555
C4 N1 1_555 1_555
C9 N1 1_555 1_555
C10 O1 1_555 1_555
C12 N2 1_555 1_555
C14 C15 1_555 1_555
C15 N2 1_555 1_555

#END
