
#######################################################################
#
#                 Cambridge Crystallographic Data Centre
#                                CCDC 
#
#######################################################################
#
# If this CIF has been generated from an entry in the Cambridge 
# Structural Database, then it will include bibliographic, chemical, 
# crystal, experimental, refinement or atomic coordinate data resulting 
# from the CCDC's data processing and validation procedures.
#
#######################################################################

data_DOSBEU01
_chemical_formula_moiety         'C16 H14 N3 1+,Cl1 1-'
_chemical_name_systematic        
'2-[(2-phenylhydrazinylidene)methyl]quinolinium chloride'
_symmetry_cell_setting           monoclinic
_symmetry_space_group_name_H-M   'C 2/c'
_symmetry_Int_Tables_number      15
_space_group_name_Hall           '-C 2yn'
loop_
_symmetry_equiv_pos_site_id
_symmetry_equiv_pos_as_xyz
1 x,y,z
2 -x,y,1/2-z
3 1/2+x,1/2+y,z
4 1/2-x,1/2+y,1/2-z
5 -x,-y,-z
6 x,-y,1/2+z
7 1/2-x,1/2-y,-z
8 1/2+x,1/2-y,1/2+z
_cell_length_a                   11.9537(10)
_cell_length_b                   12.1066(14)
_cell_length_c                   20.1897(17)
_cell_angle_alpha                90
_cell_angle_beta                 99.984(10)
_cell_angle_gamma                90
_cell_volume                     2877.58
_exptl_crystal_colour            'orange red'
_exptl_crystal_description       rod
_cell_formula_units_Z            8
loop_
_atom_site_label
_atom_site_type_symbol
_atom_site_fract_x
_atom_site_fract_y
_atom_site_fract_z
N1 N -0.08740(15) 0.42024(14) 0.38541(9)
N2 N -0.19266(17) 0.41383(15) 0.35155(10)
N3 N 0.07502(15) 0.32016(14) 0.53565(9)
C1 C -0.22337(18) 0.47049(17) 0.29097(11)
C2 C -0.33170(19) 0.45508(18) 0.25653(12)
C3 C -0.3662(2) 0.5088(2) 0.19710(14)
C4 C -0.2935(3) 0.5780(2) 0.17075(12)
C5 C -0.1842(2) 0.5927(2) 0.20598(13)
C6 C -0.14808(18) 0.53872(19) 0.26579(12)
C7 C -0.06447(18) 0.36879(17) 0.44243(11)
C8 C 0.04953(18) 0.37490(17) 0.47776(11)
C9 C 0.18135(18) 0.31593(17) 0.57402(10)
C10 C 0.26978(18) 0.37403(16) 0.55240(11)
C11 C 0.24278(19) 0.43460(17) 0.49233(11)
C12 C 0.13741(19) 0.43516(17) 0.45578(11)
C13 C 0.37857(19) 0.36761(18) 0.59110(11)
C14 C 0.39735(19) 0.30637(19) 0.64824(11)
C15 C 0.3080(2) 0.24905(18) 0.66924(11)
C16 C 0.2013(2) 0.25429(17) 0.63289(11)
H1 H -0.38140 0.40820 0.27360
H2 H -0.2451(16) 0.3786(16) 0.3695(9)
H3 H -0.43990 0.49860 0.17400
H4 H 0.0190(14) 0.2787(14) 0.5484(8)
H5 H -0.31730 0.61420 0.13010
H6 H -0.13450 0.63960 0.18890
H7 H -0.07430 0.54800 0.28890
H8 H -0.12000 0.32960 0.45960
H9 H 0.29940 0.47550 0.47740
H10 H 0.12240 0.47530 0.41600
H11 H 0.43840 0.40550 0.57760
H12 H 0.47000 0.30240 0.67360
H13 H 0.32180 0.20710 0.70840
H14 H 0.14200 0.21680 0.64730
Cl1 Cl 0.39392(5) 0.32103(6) 0.08062(3)
loop_
_geom_bond_atom_site_label_1
_geom_bond_atom_site_label_2
_geom_bond_site_symmetry_1
_geom_bond_site_symmetry_2
N1 N2 1_555 1_555
N2 C1 1_555 1_555
N3 C8 1_555 1_555
C1 C2 1_555 1_555
C2 C3 1_555 1_555
C3 C4 1_555 1_555
C4 C5 1_555 1_555
C5 C6 1_555 1_555
C6 C1 1_555 1_555
C7 N1 1_555 1_555
C8 C7 1_555 1_555
C9 N3 1_555 1_555
C10 C9 1_555 1_555
C11 C10 1_555 1_555
C12 C8 1_555 1_555
C13 C10 1_555 1_555
C14 C13 1_555 1_555
C15 C14 1_555 1_555
C16 C9 1_555 1_555
H1 C2 1_555 1_555
H2 N2 1_555 1_555
H3 C3 1_555 1_555
H4 N3 1_555 1_555
H5 C4 1_555 1_555
H6 C5 1_555 1_555
H7 C6 1_555 1_555
H8 C7 1_555 1_555
H9 C11 1_555 1_555
H10 C12 1_555 1_555
H11 C13 1_555 1_555
H12 C14 1_555 1_555
H13 C15 1_555 1_555
H14 C16 1_555 1_555
C11 C12 1_555 1_555
C15 C16 1_555 1_555

#END
