
#######################################################################
#
#                 Cambridge Crystallographic Data Centre
#                                CCDC 
#
#######################################################################
#
# If this CIF has been generated from an entry in the Cambridge 
# Structural Database, then it will include bibliographic, chemical, 
# crystal, experimental, refinement or atomic coordinate data resulting 
# from the CCDC's data processing and validation procedures.
#
#######################################################################

data_DOSTUA
_chemical_compound_source        'root of Ligusticum acutiloburn'
_chemical_name_common            Riligustilide
_chemical_formula_moiety         'C24 H28 O4'
_chemical_name_systematic        Angelicide
_symmetry_cell_setting           monoclinic
_symmetry_space_group_name_H-M   'P 21/c'
_symmetry_Int_Tables_number      14
_space_group_name_Hall           '-P 2ybc'
loop_
_symmetry_equiv_pos_site_id
_symmetry_equiv_pos_as_xyz
1 x,y,z
2 -x,1/2+y,1/2-z
3 -x,-y,-z
4 x,1/2-y,1/2+z
_cell_length_a                   6.1152
_cell_length_b                   12.7359
_cell_length_c                   27.2697
_cell_angle_alpha                90
_cell_angle_beta                 92.759
_cell_angle_gamma                90
_cell_volume                     2121.37
_cell_formula_units_Z            4
loop_
_atom_site_label
_atom_site_type_symbol
_atom_site_fract_x
_atom_site_fract_y
_atom_site_fract_z
O1 O 0.4285(7) -0.0922(3) -0.0515(2)
O2 O 0.1861(7) -0.1391(3) -0.1121(2)
O3 O 0.4417(7) -0.0215(3) -0.2592(1)
C1 C -0.2707(13) 0.1399(7) -0.0671(3)
C2 C 0.1742(12) -0.2832(6) -0.2414(2)
C3 C 0.1152(10) 0.1006(5) -0.0369(2)
C4 C -0.0269(10) -0.1013(4) -0.1324(2)
C5 C 0.1618(10) -0.0941(5) -0.2184(2)
C6 C 0.0997(10) 0.0106(4) -0.0709(2)
O4 O 0.2704(8) 0.0887(4) -0.2087(2)
C7 C 0.2606(10) -0.0741(5) -0.0749(2)
C8 C -0.0607(9) -0.0041(5) -0.1051(2)
C9 C 0.2487(11) -0.1730(5) -0.2429(2)
C10 C -0.1930(12) -0.1909(5) -0.1335(2)
C11 C 0.2869(11) 0.0019(6) -0.2255(2)
C12 C 0.5504(11) -0.1727(6) -0.3033(2)
C13 C -0.2389(12) 0.0755(5) -0.1131(3)
C14 C -0.0620(11) 0.1629(5) -0.0359(2)
C15 C -0.1878(14) -0.2716(6) -0.0920(3)
C16 C -0.3767(15) -0.3492(7) -0.0941(3)
C17 C 0.4215(11) -0.1290(5) -0.2714(2)
C18 C 0.7300(16) -0.1138(7) -0.3281(4)
C19 C -0.3935(20) -0.4108(9) -0.0478(3)
C20 C 0.9618(18) -0.0888(8) -0.3993(4)
C21 C 0.7688(24) -0.1459(9) -0.3761(4)
C22 C -0.03742(10) -0.1060(5) -0.1891(2)
C23 C -0.1283(10) -0.2177(4) -0.1866(2)
C24 C 0.0503(11) -0.3000(5) -0.1941(3)
loop_
_geom_bond_atom_site_label_1
_geom_bond_atom_site_label_2
_geom_bond_site_symmetry_1
_geom_bond_site_symmetry_2
O1 C7 1_555 1_555
O2 C4 1_555 1_555
O3 C11 1_555 1_555
C1 C13 1_555 1_555
C2 C9 1_555 1_555
C3 C6 1_555 1_555
C4 C8 1_555 1_555
C5 C9 1_555 1_555
C6 C7 1_555 1_555
O4 C11 1_555 1_555
C7 O2 1_555 1_555
C8 C6 1_555 1_555
C9 C17 1_555 1_555
C10 C4 1_555 1_555
C11 C5 1_555 1_555
C12 C17 1_555 1_555
C13 C8 1_555 1_555
C14 C1 1_555 1_555
C15 C10 1_555 1_555
C16 C15 1_555 1_555
C17 O3 1_555 1_555
C18 C12 1_555 1_555
C19 C16 1_555 1_555
C20 C21 1_555 1_555
C21 C18 1_555 1_555
C22 C4 1_555 1_555
C23 C10 1_555 1_555
C24 C2 1_555 1_555
C3 C14 1_555 1_555
C5 C22 1_555 1_555
C22 C23 1_555 1_555
C23 C24 1_555 1_555

#END
