
#######################################################################
#
#                 Cambridge Crystallographic Data Centre
#                                CCDC 
#
#######################################################################
#
# If this CIF has been generated from an entry in the Cambridge 
# Structural Database, then it will include bibliographic, chemical, 
# crystal, experimental, refinement or atomic coordinate data resulting 
# from the CCDC's data processing and validation procedures.
#
#######################################################################

data_DOSTEK
_chemical_formula_moiety         'C10 H12 S9'
_chemical_name_systematic        
3,5-bis(1,2-Methylthio-2-thioxo-ethylidene)-1,2,4-trithiolane
_symmetry_cell_setting           triclinic
_symmetry_space_group_name_H-M   'P -1'
_symmetry_Int_Tables_number      2
_space_group_name_Hall           '-P 1'
loop_
_symmetry_equiv_pos_site_id
_symmetry_equiv_pos_as_xyz
1 x,y,z
2 -x,-y,-z
_cell_length_a                   8.2446(5)
_cell_length_b                   8.3436(5)
_cell_length_c                   13.2504(9)
_cell_angle_alpha                108.099(5)
_cell_angle_beta                 102.375(5)
_cell_angle_gamma                98.552(5)
_cell_volume                     823.196
_exptl_crystal_colour            black
_exptl_crystal_description       Needle
_chemical_melting_point          '440 K'
_cell_formula_units_Z            2
loop_
_atom_site_label
_atom_site_type_symbol
_atom_site_fract_x
_atom_site_fract_y
_atom_site_fract_z
S1 S 0.20386(9) 0.33664(8) 0.43094(5)
S2 S 0.15503(9) 0.40886(8) 0.59348(5)
S3 S 0.33956(8) 0.71642(8) 0.55884(5)
S4 S 0.35422(9) 0.96473(8) 0.77782(6)
S5 S 0.09031(10) 0.48973(9) 0.79759(6)
S6 S 0.20047(10) 0.86367(9) 0.94442(6)
S7 S 0.46654(9) 0.78970(8) 0.38122(5)
S8 S 0.26000(10) 0.23401(8) 0.22352(5)
S9 S 0.43162(10) 0.51618(9) 0.15988(6)
C1 C 0.2461(3) 0.6276(3) 0.6423(2)
C2 C 0.3062(3) 0.5375(3) 0.4388(2)
C3 C 0.2527(3) 0.7443(3) 0.7441(2)
C4 C 0.1823(3) 0.6942(3) 0.8229(2)
C5 C 0.0970(6) 0.7556(5) 1.0193(3)
H1 H 0.0855(56) 0.8427(59) 1.0761(36)
H2 H 0.1604(47) 0.6853(48) 1.0426(28)
H3 H -0.0122(52) 0.6782(52) 0.9734(31)
C6 C 0.1759(5) 1.0461(5) 0.7258(3)
H4 H 0.2175(46) 1.1691(50) 0.7405(29)
H5 H 0.0833(55) 1.0370(56) 0.7642(34)
H6 H 0.1238(49) 0.9877(50) 0.6504(32)
C7 C 0.3663(3) 0.5712(3) 0.3558(2)
C8 C 0.3497(3) 0.4407(3) 0.2524(2)
C9 C 0.3957(6) 0.3223(5) 0.0426(3)
H7 H 0.4568(61) 0.3412(61) 0.0054(38)
H8 H 0.2848(64) 0.2787(62) 0.0111(38)
H9 H 0.4692(64) 0.2431(65) 0.0622(38)
C10 C 0.2843(5) 0.8747(4) 0.3409(3)
H10 H 0.3289(46) 0.9929(50) 0.3482(29)
H11 H 0.2054(50) 0.8766(50) 0.3889(31)
H12 H 0.2158(52) 0.7998(53) 0.2690(33)
loop_
_geom_bond_atom_site_label_1
_geom_bond_atom_site_label_2
_geom_bond_site_symmetry_1
_geom_bond_site_symmetry_2
S1 S2 1_555 1_555
S2 C1 1_555 1_555
S3 C1 1_555 1_555
S4 C3 1_555 1_555
S5 C4 1_555 1_555
S6 C4 1_555 1_555
S7 C7 1_555 1_555
S8 C8 1_555 1_555
S9 C8 1_555 1_555
C1 C3 1_555 1_555
C2 S1 1_555 1_555
C3 C4 1_555 1_555
C5 S6 1_555 1_555
H1 C5 1_555 1_555
H2 C5 1_555 1_555
H3 C5 1_555 1_555
C6 S4 1_555 1_555
H4 C6 1_555 1_555
H5 C6 1_555 1_555
H6 C6 1_555 1_555
C7 C2 1_555 1_555
C8 C7 1_555 1_555
C9 S9 1_555 1_555
H7 C9 1_555 1_555
H8 C9 1_555 1_555
H9 C9 1_555 1_555
C10 S7 1_555 1_555
H10 C10 1_555 1_555
H11 C10 1_555 1_555
H12 C10 1_555 1_555
S3 C2 1_555 1_555

#END
