
#######################################################################
#
#                 Cambridge Crystallographic Data Centre
#                                CCDC 
#
#######################################################################
#
# If this CIF has been generated from an entry in the Cambridge 
# Structural Database, then it will include bibliographic, chemical, 
# crystal, experimental, refinement or atomic coordinate data resulting 
# from the CCDC's data processing and validation procedures.
#
#######################################################################

data_DOSTUC
_chemical_name_common            
N-(bis(4-methylpiperidin-1-yl)phosphoryl)-2,6-difluorobenzamide
_chemical_formula_moiety         'C19 H28 F2 N3 O2 P1'
_chemical_name_systematic        
"N,N'-bis(4-methylpiperidine)-N"-(2,6-difluorobenzoyl)phosphoric triamide"
_symmetry_cell_setting           triclinic
_symmetry_space_group_name_H-M   'P -1'
_symmetry_Int_Tables_number      2
_space_group_name_Hall           '-P 1'
loop_
_symmetry_equiv_pos_site_id
_symmetry_equiv_pos_as_xyz
1 x,y,z
2 -x,-y,-z
_cell_length_a                   9.6501(12)
_cell_length_b                   10.0580(13)
_cell_length_c                   10.9947(15)
_cell_angle_alpha                75.392(3)
_cell_angle_beta                 77.744(4)
_cell_angle_gamma                88.084(4)
_cell_volume                     1008.89
_exptl_crystal_colour            colorless
_exptl_crystal_description       BLOCK
_cell_formula_units_Z            2
loop_
_atom_site_label
_atom_site_type_symbol
_atom_site_fract_x
_atom_site_fract_y
_atom_site_fract_z
P1 P 0.51614(4) 0.38074(4) 0.69930(3)
F1 F 0.44221(10) 0.85378(9) 0.75579(9)
F2 F 0.85888(10) 0.70839(10) 0.52388(9)
O1 O 0.62555(12) 0.59114(11) 0.82726(10)
O2 O 0.52053(11) 0.33666(10) 0.57979(9)
N1 N 0.56551(13) 0.54963(12) 0.64944(12)
H1 H 0.5505(17) 0.5919(16) 0.5760(14)
N2 N 0.35810(12) 0.35880(12) 0.79196(12)
N3 N 0.62586(12) 0.30814(12) 0.78784(11)
C1 C 0.56440(17) 0.88440(16) 0.66585(15)
C2 C 0.5968(2) 1.01962(16) 0.60307(16)
H2 H 0.5357 1.0909 0.6223
C3 C 0.7214(2) 1.04863(17) 0.51091(16)
H3 H 0.7460 1.1414 0.4661
C4 C 0.81098(19) 0.94496(18) 0.48282(16)
H4 H 0.8968 0.9653 0.4199
C5 C 0.77203(17) 0.81166(16) 0.54872(15)
C6 C 0.64865(16) 0.77592(15) 0.64142(14)
C7 C 0.61155(15) 0.62938(15) 0.71690(14)
C8 C 0.32035(16) 0.41758(16) 0.90464(14)
H5 H 0.4082 0.4395 0.9293
H6 H 0.2647 0.3485 0.9780
C9 C 0.23452(16) 0.54700(16) 0.87722(15)
H7 H 0.2962 0.6213 0.8149
H8 H 0.2019 0.5766 0.9578
C10 C 0.10571(16) 0.52607(15) 0.82302(15)
H9 H 0.0414 0.4557 0.8899
C11 C 0.15441(16) 0.46872(15) 0.70523(15)
H10 H 0.0709 0.4501 0.6725
H11 H 0.2164 0.5374 0.6364
C12 C 0.23517(15) 0.33648(15) 0.73969(15)
H12 H 0.1708 0.2659 0.8041
H13 H 0.2679 0.3018 0.6619
C13 C 0.02303(18) 0.65775(17) 0.79406(17)
H14 H -0.0038 0.6917 0.8717
H15 H -0.0626 0.6391 0.7661
H16 H 0.0823 0.7273 0.7257
C14 C 0.77889(15) 0.33638(15) 0.74004(15)
H17 H 0.8137 0.3892 0.7927
H18 H 0.7966 0.3926 0.6500
C15 C 0.85850(16) 0.20273(15) 0.74646(15)
H19 H 0.9616 0.2235 0.7184
H20 H 0.8306 0.1549 0.6866
C16 C 0.82804(16) 0.10832(15) 0.88181(15)
H21 H 0.8655 0.1540 0.9395
C17 C 0.66810(16) 0.08714(15) 0.93067(15)
H22 H 0.6314 0.0324 0.8806
H23 H 0.6487 0.0342 1.0218
C18 C 0.58979(16) 0.22228(15) 0.91992(14)
H24 H 0.4862 0.2034 0.9451
H25 H 0.6160 0.2718 0.9793
C19 C 0.90183(19) -0.02812(17) 0.88444(18)
H26 H 1.0044 -0.0116 0.8543
H27 H 0.8665 -0.0743 0.8281
H28 H 0.8821 -0.0863 0.9725
loop_
_geom_bond_atom_site_label_1
_geom_bond_atom_site_label_2
_geom_bond_site_symmetry_1
_geom_bond_site_symmetry_2
P1 O2 1_555 1_555
F1 C1 1_555 1_555
F2 C5 1_555 1_555
O1 C7 1_555 1_555
N1 P1 1_555 1_555
H1 N1 1_555 1_555
N2 P1 1_555 1_555
N3 P1 1_555 1_555
C1 C2 1_555 1_555
C2 H2 1_555 1_555
C3 C2 1_555 1_555
H3 C3 1_555 1_555
C4 C3 1_555 1_555
H4 C4 1_555 1_555
C5 C4 1_555 1_555
C6 C1 1_555 1_555
C7 N1 1_555 1_555
C8 N2 1_555 1_555
H5 C8 1_555 1_555
H6 C8 1_555 1_555
C9 C8 1_555 1_555
H7 C9 1_555 1_555
H8 C9 1_555 1_555
C10 C9 1_555 1_555
H9 C10 1_555 1_555
C11 C10 1_555 1_555
H10 C11 1_555 1_555
H11 C11 1_555 1_555
C12 N2 1_555 1_555
H12 C12 1_555 1_555
H13 C12 1_555 1_555
C13 C10 1_555 1_555
H14 C13 1_555 1_555
H15 C13 1_555 1_555
H16 C13 1_555 1_555
C14 N3 1_555 1_555
H17 C14 1_555 1_555
H18 C14 1_555 1_555
C15 C14 1_555 1_555
H19 C15 1_555 1_555
H20 C15 1_555 1_555
C16 C15 1_555 1_555
H21 C16 1_555 1_555
C17 C16 1_555 1_555
H22 C17 1_555 1_555
H23 C17 1_555 1_555
C18 N3 1_555 1_555
H24 C18 1_555 1_555
H25 C18 1_555 1_555
C19 C16 1_555 1_555
H26 C19 1_555 1_555
H27 C19 1_555 1_555
H28 C19 1_555 1_555
C5 C6 1_555 1_555
C6 C7 1_555 1_555
C11 C12 1_555 1_555
C17 C18 1_555 1_555

#END
