
#######################################################################
#
#                 Cambridge Crystallographic Data Centre
#                                CCDC 
#
#######################################################################
#
# If this CIF has been generated from an entry in the Cambridge 
# Structural Database, then it will include bibliographic, chemical, 
# crystal, experimental, refinement or atomic coordinate data resulting 
# from the CCDC's data processing and validation procedures.
#
#######################################################################

data_DOSVAK
_chemical_name_common            
N-(bis(cyclohexyl(methyl)amino)phosphoryl)-2-fluorobenzamide
_chemical_formula_moiety         'C21 H33 F1 N3 O2 P1'
_chemical_name_systematic        
"N,N'-dicyclohexyl-N"-(2-fluorobenzoyl)-N,N'-dimethylphosphoric triamide"
_symmetry_cell_setting           triclinic
_symmetry_space_group_name_H-M   'P -1'
_symmetry_Int_Tables_number      2
_space_group_name_Hall           '-P 1'
loop_
_symmetry_equiv_pos_site_id
_symmetry_equiv_pos_as_xyz
1 x,y,z
2 -x,-y,-z
_cell_length_a                   10.3245(2)
_cell_length_b                   10.5131(2)
_cell_length_c                   11.3253(2)
_cell_angle_alpha                67.9150(10)
_cell_angle_beta                 77.9020(10)
_cell_angle_gamma                79.9780(10)
_cell_volume                     1107.61
_exptl_crystal_colour            colorless
_exptl_crystal_description       BLOCK
_cell_formula_units_Z            2
loop_
_atom_site_label
_atom_site_type_symbol
_atom_site_fract_x
_atom_site_fract_y
_atom_site_fract_z
P1 P 0.42479(3) 0.43096(3) 0.20706(3)
O1 O 0.65592(10) 0.41228(13) 0.34616(10)
O2 O 0.35132(9) 0.49988(10) 0.09619(9)
N1 N 0.57694(11) 0.48747(12) 0.15539(11)
H1 H 0.6021(16) 0.5136(17) 0.0729(9)
N2 N 0.34610(11) 0.46790(12) 0.33325(10)
N3 N 0.44984(12) 0.26222(12) 0.25788(12)
C1 C 0.67042(13) 0.47474(16) 0.23001(13)
F1 F 0.93376(15) 0.3704(2) 0.27751(16)
C2 C 0.7894(4) 0.5529(7) 0.1528(6)
C3 C 0.9190(3) 0.4988(5) 0.1831(4)
C4 C 1.0324(2) 0.5616(6) 0.1187(4)
H2 H 1.1171 0.5205 0.1424
C5 C 1.0197(3) 0.6860(5) 0.0188(4)
H3 H 1.0966 0.7317 -0.0271
C6 C 0.8955(4) 0.7452(4) -0.0155(4)
H4 H 0.8869 0.8311 -0.0842
C7 C 0.7862(6) 0.6782(6) 0.0508(6)
H5 H 0.7023 0.7199 0.0255
C8 C 0.27088(13) 0.60618(14) 0.31331(13)
H6 H 0.2491 0.6433 0.2237
C9 C 0.35276(15) 0.70709(16) 0.32442(15)
H7 H 0.4346 0.7167 0.2594
H8 H 0.3796 0.6709 0.4110
C10 C 0.2724(2) 0.84849(18) 0.30331(18)
H9 H 0.3253 0.9108 0.3163
H10 H 0.2544 0.8891 0.2133
C11 C 0.1409(2) 0.83783(18) 0.39551(18)
H11 H 0.1587 0.8066 0.4852
H12 H 0.0893 0.9300 0.3760
C12 C 0.06011(17) 0.73717(18) 0.38358(18)
H13 H 0.0351 0.7729 0.2963
H14 H -0.0228 0.7286 0.4472
C13 C 0.13923(14) 0.59522(16) 0.40678(15)
H15 H 0.0860 0.5325 0.3948
H16 H 0.1575 0.5557 0.4967
C14 C 0.36563(14) 0.38265(16) 0.46596(13)
H17 H 0.3909 0.4397 0.5071
H18 H 0.4364 0.3076 0.4647
H19 H 0.2826 0.3438 0.5147
C15 C 0.57431(14) 0.18274(15) 0.22067(14)
H20 H 0.6429 0.2493 0.1778
C16 C 0.62556(17) 0.07397(18) 0.34002(15)
H21 H 0.5592 0.0071 0.3867
H22 H 0.6378 0.1192 0.3988
C17 C 0.75812(19) -0.00234(19) 0.30104(17)
H23 H 0.8263 0.0635 0.2605
H24 H 0.7884 -0.0743 0.3790
C18 C 0.7439(2) -0.06916(19) 0.20670(17)
H25 H 0.6812 -0.1405 0.2496
H26 H 0.8314 -0.1150 0.1805
C19 C 0.69255(17) 0.03868(17) 0.08707(16)
H27 H 0.6789 -0.0078 0.0298
H28 H 0.7601 0.1039 0.0390
C20 C 0.56113(16) 0.11894(16) 0.12340(15)
H29 H 0.5347 0.1929 0.0447
H30 H 0.4904 0.0559 0.1609
C21 C 0.32908(15) 0.18998(16) 0.30808(15)
H31 H 0.3470 0.1031 0.3786
H32 H 0.3029 0.1704 0.2388
H33 H 0.2568 0.2483 0.3403
F2? F 0.6933(3) 0.7324(3) 0.0201(3)
C22? C 0.8032(9) 0.5289(12) 0.1680(11)
C23? C 0.8019(15) 0.6499(14) 0.0701(14)
C24? C 0.9283(9) 0.7065(7) 0.0119(6)
H34? H 0.9336 0.7930 -0.0569
C25? C 1.0385(7) 0.6309(8) 0.0598(8)
H35? H 1.1223 0.6654 0.0216
C26? C 1.0349(6) 0.5069(6) 0.1606(6)
H36? H 1.1142 0.4571 0.1919
C27? C 0.9124(7) 0.4562(7) 0.2155(7)
H37? H 0.9062 0.3710 0.2858
loop_
_geom_bond_atom_site_label_1
_geom_bond_atom_site_label_2
_geom_bond_site_symmetry_1
_geom_bond_site_symmetry_2
P1 O2 1_555 1_555
O1 C1 1_555 1_555
N1 P1 1_555 1_555
H1 N1 1_555 1_555
N2 P1 1_555 1_555
N3 P1 1_555 1_555
C1 N1 1_555 1_555
F1 C3 1_555 1_555
C2 C1 1_555 1_555
C3 C2 1_555 1_555
C4 C3 1_555 1_555
H2 C4 1_555 1_555
C5 C4 1_555 1_555
H3 C5 1_555 1_555
C6 C5 1_555 1_555
H4 C6 1_555 1_555
C7 C2 1_555 1_555
H5 C7 1_555 1_555
C8 N2 1_555 1_555
H6 C8 1_555 1_555
C9 C8 1_555 1_555
H7 C9 1_555 1_555
H8 C9 1_555 1_555
C10 C9 1_555 1_555
H9 C10 1_555 1_555
H10 C10 1_555 1_555
C11 C10 1_555 1_555
H11 C11 1_555 1_555
H12 C11 1_555 1_555
C12 C11 1_555 1_555
H13 C12 1_555 1_555
H14 C12 1_555 1_555
C13 C8 1_555 1_555
H15 C13 1_555 1_555
H16 C13 1_555 1_555
C14 N2 1_555 1_555
H17 C14 1_555 1_555
H18 C14 1_555 1_555
H19 C14 1_555 1_555
C15 N3 1_555 1_555
H20 C15 1_555 1_555
C16 C15 1_555 1_555
H21 C16 1_555 1_555
H22 C16 1_555 1_555
C17 C16 1_555 1_555
H23 C17 1_555 1_555
H24 C17 1_555 1_555
C18 C17 1_555 1_555
H25 C18 1_555 1_555
H26 C18 1_555 1_555
C19 C18 1_555 1_555
H27 C19 1_555 1_555
H28 C19 1_555 1_555
C20 C15 1_555 1_555
H29 C20 1_555 1_555
H30 C20 1_555 1_555
C21 N3 1_555 1_555
H31 C21 1_555 1_555
H32 C21 1_555 1_555
H33 C21 1_555 1_555
C6 C7 1_555 1_555
C12 C13 1_555 1_555
C19 C20 1_555 1_555

#END
