
#######################################################################
#
#                 Cambridge Crystallographic Data Centre
#                                CCDC 
#
#######################################################################
#
# If this CIF has been generated from an entry in the Cambridge 
# Structural Database, then it will include bibliographic, chemical, 
# crystal, experimental, refinement or atomic coordinate data resulting 
# from the CCDC's data processing and validation procedures.
#
#######################################################################

data_DOTKEE
_chemical_formula_moiety         'C10 H13 N2 P1 S1'
_chemical_name_systematic        
5-t-butyl-3-(2-thienyl)-1H-1,2,4-diazaphosphole
_symmetry_cell_setting           monoclinic
_symmetry_space_group_name_H-M   'P 21/c'
_symmetry_Int_Tables_number      14
_space_group_name_Hall           '-P 2ybc'
loop_
_symmetry_equiv_pos_site_id
_symmetry_equiv_pos_as_xyz
1 x,y,z
2 -x,1/2+y,1/2-z
3 -x,-y,-z
4 x,1/2-y,1/2+z
_cell_length_a                   11.9543(2)
_cell_length_b                   8.8572(2)
_cell_length_c                   12.5222(2)
_cell_angle_alpha                90
_cell_angle_beta                 115.9730(10)
_cell_angle_gamma                90
_cell_volume                     1191.96
_cell_formula_units_Z            4
loop_
_atom_site_label
_atom_site_type_symbol
_atom_site_fract_x
_atom_site_fract_y
_atom_site_fract_z
P1 P 0.31089(6) 0.05369(8) 0.46682(6)
S1 S 0.29924(7) -0.30381(9) 0.70617(6)
N1 N 0.14459(17) -0.0528(2) 0.53121(16)
N2 N 0.10295(18) 0.0798(2) 0.47284(17)
C1 C 0.1745(2) 0.1522(3) 0.43209(18)
C2 C 0.25490(19) -0.0817(2) 0.53540(18)
C3 C 0.3230(2) -0.2173(3) 0.59486(19)
C4 C 0.4149(2) -0.2916(3) 0.5750(3)
H1 H 0.4419 -0.2629 0.5187
C5 C 0.4618(3) -0.4170(4) 0.6526(3)
H2 H 0.5240 -0.4799 0.6525
C6 C 0.4086(3) -0.4367(3) 0.7259(3)
H3 H 0.4292 -0.5143 0.7812
C7 C 0.1311(2) 0.3001(3) 0.3681(2)
C8 C 0.1060(5) 0.4104(4) 0.4493(4)
H4 H 0.0432 0.3693 0.4691
H5 H 0.0778 0.5050 0.4090
H6 H 0.1812 0.4259 0.5206
C9 C 0.2305(4) 0.3676(5) 0.3391(5)
H7 H 0.2478 0.3001 0.2882
H8 H 0.3049 0.3832 0.4111
H9 H 0.2021 0.4626 0.2994
C10 C 0.0117(4) 0.2811(4) 0.2582(4)
H10 H 0.0243 0.2129 0.2049
H11 H -0.0151 0.3773 0.2201
H12 H -0.0507 0.2410 0.2790
H13 H 0.035(3) 0.120(4) 0.455(3)
loop_
_geom_bond_atom_site_label_1
_geom_bond_atom_site_label_2
_geom_bond_site_symmetry_1
_geom_bond_site_symmetry_2
P1 C1 1_555 1_555
S1 C3 1_555 1_555
N1 N2 1_555 1_555
N2 C1 1_555 1_555
C1 C7 1_555 1_555
C2 P1 1_555 1_555
C3 C2 1_555 1_555
C4 C3 1_555 1_555
H1 C4 1_555 1_555
C5 C4 1_555 1_555
H2 C5 1_555 1_555
C6 S1 1_555 1_555
H3 C6 1_555 1_555
C7 C8 1_555 1_555
C8 H4 1_555 1_555
H5 C8 1_555 1_555
H6 C8 1_555 1_555
C9 C7 1_555 1_555
H7 C9 1_555 1_555
H8 C9 1_555 1_555
H9 C9 1_555 1_555
C10 C7 1_555 1_555
H10 C10 1_555 1_555
H11 C10 1_555 1_555
H12 C10 1_555 1_555
H13 N2 1_555 1_555
N1 C2 1_555 1_555
C5 C6 1_555 1_555

#END
