
#######################################################################
#
#                 Cambridge Crystallographic Data Centre
#                                CCDC 
#
#######################################################################
#
# If this CIF has been generated from an entry in the Cambridge 
# Structural Database, then it will include bibliographic, chemical, 
# crystal, experimental, refinement or atomic coordinate data resulting 
# from the CCDC's data processing and validation procedures.
#
#######################################################################

data_DOVMEH
_chemical_formula_moiety         'C30 H28 Cl2 N2 O5 S2,2(C1 H4 O1)'
_chemical_name_systematic        
"2',7'-Dichloro-3',6'-dihydroxy-4',5'-bis(4-thiomorpholinylmethyl)-3H-spiro[2-benzofuran-1,9'-xanthen]-3-one methanol solvate"
_symmetry_cell_setting           monoclinic
_symmetry_space_group_name_H-M   'P 21/m'
_symmetry_Int_Tables_number      11
_space_group_name_Hall           '-P 2yb'
loop_
_symmetry_equiv_pos_site_id
_symmetry_equiv_pos_as_xyz
1 x,y,z
2 -x,1/2+y,-z
3 -x,-y,-z
4 x,1/2-y,z
_cell_length_a                   8.7630(18)
_cell_length_b                   14.817(3)
_cell_length_c                   13.295(3)
_cell_angle_alpha                90
_cell_angle_beta                 92.06(3)
_cell_angle_gamma                90
_cell_volume                     1725.13
_exptl_crystal_colour            orange
_exptl_crystal_description       plate
_chemical_melting_point          '300 deg.C (dec.)'
_cell_formula_units_Z            2
loop_
_atom_site_label
_atom_site_type_symbol
_atom_site_fract_x
_atom_site_fract_y
_atom_site_fract_z
Cl1 Cl 0.3159(2) 0.59794(11) 0.45533(15)
S1 S 1.0472(2) 0.52468(15) 0.17460(19)
N1 N 0.7023(6) 0.4650(3) 0.1895(4)
O1 O 0.0816(7) 0.2500 0.3776(5)
O2 O -0.1651(7) 0.2500 0.4210(5)
O3 O 0.4475(6) 0.2500 0.2680(4)
O4 O 0.5095(5) 0.5668(3) 0.2850(4)
H1 H 0.5767 0.5547 0.2457
C1 C -0.0309(13) 0.2500 0.4454(7)
C2 C 0.0422(10) 0.2500 0.5472(7)
C3 C -0.0251(12) 0.2500 0.6409(8)
H2 H -0.1306 0.2500 0.6459
C4 C 0.0693(11) 0.2500 0.7247(7)
H3 H 0.0285 0.2500 0.7883
C5 C 0.2305(11) 0.2500 0.7147(8)
H4 H 0.2935 0.2500 0.7725
C6 C 0.2949(11) 0.2500 0.6239(7)
H5 H 0.4004 0.2500 0.6183
C7 C 0.1974(10) 0.2500 0.5388(7)
C8 C 0.2394(10) 0.2500 0.4306(7)
C9 C 0.3175(7) 0.3338(4) 0.3959(5)
C10 C 0.2888(7) 0.4177(4) 0.4368(5)
H6 H 0.2226 0.4223 0.4896
C11 C 0.3557(7) 0.4939(4) 0.4012(5)
C12 C 0.4480(7) 0.4895(4) 0.3192(5)
C13 C 0.4779(7) 0.4067(4) 0.2744(5)
C14 C 0.4124(7) 0.3301(4) 0.3149(5)
C15 C 0.5726(8) 0.4024(4) 0.1824(5)
H7 H 0.5090 0.4171 0.1234
H8 H 0.6103 0.3414 0.1743
C16 C 0.7650(8) 0.4823(4) 0.0901(5)
H9 H 0.8094 0.4273 0.0645
H10 H 0.6835 0.5010 0.0433
C17 C 0.8857(8) 0.5552(5) 0.0974(5)
H11 H 0.9191 0.5690 0.0303
H12 H 0.8408 0.6096 0.1243
C18 C 0.9451(8) 0.4953(5) 0.2848(6)
H13 H 0.9014 0.5494 0.3129
H14 H 1.0160 0.4700 0.3349
C19 C 0.8185(8) 0.4276(4) 0.2617(5)
H15 H 0.7700 0.4113 0.3236
H16 H 0.8619 0.3733 0.2337
Cl1C Cl 0.3159(2) -0.09794(11) 0.45533(15)
S1C S 1.0472(2) -0.02468(15) 0.17460(19)
N1C N 0.7023(6) 0.0350(3) 0.1895(4)
O4C O 0.5095(5) -0.0668(3) 0.2850(4)
H1C H 0.5767 -0.0547 0.2457
C9C C 0.3175(7) 0.1662(4) 0.3959(5)
C10C C 0.2888(7) 0.0823(4) 0.4368(5)
H6C H 0.2226 0.0777 0.4896
C11C C 0.3557(7) 0.0061(4) 0.4012(5)
C12C C 0.4480(7) 0.0105(4) 0.3192(5)
C13C C 0.4779(7) 0.0933(4) 0.2744(5)
C14C C 0.4124(7) 0.1699(4) 0.3149(5)
C15C C 0.5726(8) 0.0976(4) 0.1824(5)
H7C H 0.5090 0.0829 0.1234
H8C H 0.6103 0.1586 0.1743
C16C C 0.7650(8) 0.0177(4) 0.0901(5)
H9C H 0.8094 0.0727 0.0645
H10C H 0.6835 -0.0010 0.0433
C17C C 0.8857(8) -0.0552(5) 0.0974(5)
H11C H 0.9191 -0.0690 0.0303
H12C H 0.8408 -0.1096 0.1243
C18C C 0.9451(8) 0.0047(5) 0.2848(6)
H13C H 0.9014 -0.0494 0.3129
H14C H 1.0160 0.0300 0.3349
C19C C 0.8185(8) 0.0724(4) 0.2617(5)
H15C H 0.7700 0.0887 0.3236
H16C H 0.8619 0.1267 0.2337
O5 O 0.6469(16) 0.2500 0.8321(11)
C20 C 0.5356(19) 0.2500 0.9193(12)
O6 O -0.0345(12) 0.2500 0.0417(9)
C21 C 0.1090(15) 0.2500 0.1043(12)
H17? H 0.7022 0.2054 0.8366
H18? H 0.5875 0.2713 0.9795
H19? H 0.4991 0.1898 0.9299
H20? H 0.4508 0.2890 0.9028
H21? H -0.0144 0.2440 -0.0177
H22? H 0.1323 0.3105 0.1258
H23? H 0.1909 0.2272 0.0655
H24? H 0.0968 0.2123 0.1622
loop_
_geom_bond_atom_site_label_1
_geom_bond_atom_site_label_2
_geom_bond_site_symmetry_1
_geom_bond_site_symmetry_2
Cl1 C11 1_555 1_555
S1 C17 1_555 1_555
N1 C15 1_555 1_555
O1 C1 1_555 1_555
O2 C1 1_555 1_555
O3 C14 1_555 1_555
O4 H1 1_555 1_555
C1 C2 1_555 1_555
C2 C3 1_555 1_555
C3 H2 1_555 1_555
C4 C3 1_555 1_555
H3 C4 1_555 1_555
C5 C4 1_555 1_555
H4 C5 1_555 1_555
C6 C5 1_555 1_555
H5 C6 1_555 1_555
C7 C2 1_555 1_555
C8 O1 1_555 1_555
C9 C8 1_555 1_555
C10 C9 1_555 1_555
H6 C10 1_555 1_555
C11 C10 1_555 1_555
C12 O4 1_555 1_555
C13 C12 1_555 1_555
C14 C9 1_555 1_555
C15 C13 1_555 1_555
H7 C15 1_555 1_555
H8 C15 1_555 1_555
C16 N1 1_555 1_555
H9 C16 1_555 1_555
H10 C16 1_555 1_555
C17 C16 1_555 1_555
H11 C17 1_555 1_555
H12 C17 1_555 1_555
C18 S1 1_555 1_555
H13 C18 1_555 1_555
H14 C18 1_555 1_555
C19 N1 1_555 1_555
H15 C19 1_555 1_555
H16 C19 1_555 1_555
O5 C20 1_555 1_555
O6 C21 1_555 1_555
Cl1C C11C 1_555 1_555
S1C C17C 1_555 1_555
N1C C15C 1_555 1_555
O4C H1C 1_555 1_555
C9C C8 1_555 1_555
C10C C9C 1_555 1_555
H6C C10C 1_555 1_555
C11C C10C 1_555 1_555
C12C O4C 1_555 1_555
C13C C12C 1_555 1_555
C14C O3 1_555 1_555
C15C C13C 1_555 1_555
H7C C15C 1_555 1_555
H8C C15C 1_555 1_555
C16C N1C 1_555 1_555
H9C C16C 1_555 1_555
H10C C16C 1_555 1_555
C17C C16C 1_555 1_555
H11C C17C 1_555 1_555
H12C C17C 1_555 1_555
C18C S1C 1_555 1_555
H13C C18C 1_555 1_555
H14C C18C 1_555 1_555
C19C N1C 1_555 1_555
H15C C19C 1_555 1_555
H16C C19C 1_555 1_555
C6 C7 1_555 1_555
C7 C8 1_555 1_555
C11 C12 1_555 1_555
C13 C14 1_555 1_555
C18 C19 1_555 1_555
C9C C14C 1_555 1_555
C11C C12C 1_555 1_555
C13C C14C 1_555 1_555
C18C C19C 1_555 1_555

#END
