
#######################################################################
#
#                 Cambridge Crystallographic Data Centre
#                                CCDC 
#
#######################################################################
#
# If this CIF has been generated from an entry in the Cambridge 
# Structural Database, then it will include bibliographic, chemical, 
# crystal, experimental, refinement or atomic coordinate data resulting 
# from the CCDC's data processing and validation procedures.
#
#######################################################################

data_DOVYOE02
_chemical_formula_moiety         'C10 H10 I1 N2 1+,Cl1 O4 1-'
_chemical_name_systematic        'bis(pyridine)iodonium perchlorate'
_symmetry_cell_setting           monoclinic
_symmetry_space_group_name_H-M   'C 2/c'
_symmetry_Int_Tables_number      15
_space_group_name_Hall           '-C 2yn'
loop_
_symmetry_equiv_pos_site_id
_symmetry_equiv_pos_as_xyz
1 x,y,z
2 -x,y,1/2-z
3 1/2+x,1/2+y,z
4 1/2-x,1/2+y,1/2-z
5 -x,-y,-z
6 x,-y,1/2+z
7 1/2-x,1/2-y,-z
8 1/2+x,1/2-y,1/2+z
_cell_length_a                   12.4327(8)
_cell_length_b                   8.0829(5)
_cell_length_c                   14.8445(12)
_cell_angle_alpha                90
_cell_angle_beta                 113.272(7)
_cell_angle_gamma                90
_cell_volume                     1370.39
_exptl_crystal_colour            colorless
_exptl_crystal_description       plate
_cell_formula_units_Z            4
loop_
_atom_site_label
_atom_site_type_symbol
_atom_site_fract_x
_atom_site_fract_y
_atom_site_fract_z
Cl1 Cl 0.51123(15) 0.3670(3) 0.22788(12)
O1 O 0.4086(3) 0.2605(7) 0.1996(4)
O2 O 0.5106(6) 0.5281(5) 0.2707(4)
O3 O 0.5465(6) 0.3843(5) 0.1480(4)
O4 O 0.4002(3) 0.2997(7) 0.1945(3)
Cl1A Cl 0.48877(15) 0.3670(3) 0.27212(12)
O1A O 0.5914(3) 0.2605(7) 0.3004(4)
O2A O 0.4894(6) 0.5281(5) 0.2293(4)
O3A O 0.4535(6) 0.3843(5) 0.3520(4)
O4A O 0.5998(3) 0.2997(7) 0.3055(3)
I1 I 0.750 0.250 0.000
N1 N 0.6795(4) 0.0408(6) 0.0608(3)
C1 C 0.6705(5) 0.0591(8) 0.1464(4)
C2 C 0.6268(6) -0.0695(10) 0.1857(5)
C3 C 0.5967(7) -0.2142(10) 0.1357(7)
C4 C 0.6045(8) -0.2322(8) 0.0471(7)
C5 C 0.6482(5) -0.0994(8) 0.0100(4)
H1 H 0.694089 0.161033 0.181675
H2 H 0.621017 -0.054846 0.24675
H3 H 0.572184 -0.302693 0.162215
H4 H 0.581048 -0.33006 0.010133
H5 H 0.647402 -0.104989 -0.053186
N1F N 0.8205(4) 0.4592(6) -0.0608(3)
C1F C 0.8295(5) 0.4409(8) -0.1464(4)
C2F C 0.8732(6) 0.5695(10) -0.1857(5)
C3F C 0.9033(7) 0.7142(10) -0.1357(7)
C4F C 0.8955(8) 0.7322(8) -0.0471(7)
C5F C 0.8518(5) 0.5994(8) -0.0100(4)
H1F H 0.805911 0.338967 -0.181675
H2F H 0.878983 0.554846 -0.24675
H3F H 0.927816 0.802693 -0.162215
H4F H 0.918952 0.83006 -0.010133
H5F H 0.852598 0.604989 0.053186
loop_
_geom_bond_atom_site_label_1
_geom_bond_atom_site_label_2
_geom_bond_site_symmetry_1
_geom_bond_site_symmetry_2
I1 N1 1_555 1_555
N1 C1 1_555 1_555
C1 C2 1_555 1_555
C2 C3 1_555 1_555
C3 C4 1_555 1_555
C4 C5 1_555 1_555
C5 N1 1_555 1_555
H1 C1 1_555 1_555
H2 C2 1_555 1_555
H3 C3 1_555 1_555
H4 C4 1_555 1_555
H5 C5 1_555 1_555
Cl1 O1 1_555 1_555
O1 Cl1A 1_555 1_555
O2 Cl1 1_555 1_555
O3 Cl1 1_555 1_555
O4 Cl1 1_555 1_555
N1F I1 1_555 1_555
C1F N1F 1_555 1_555
C2F C1F 1_555 1_555
C3F C2F 1_555 1_555
C4F C3F 1_555 1_555
C5F N1F 1_555 1_555
H1F C1F 1_555 1_555
H2F C2F 1_555 1_555
H3F C3F 1_555 1_555
H4F C4F 1_555 1_555
H5F C5F 1_555 1_555
Cl1A Cl1 1_555 1_555
O1A Cl1 1_555 1_555
O2A Cl1 1_555 1_555
O3A Cl1A 1_555 1_555
O4A Cl1 1_555 1_555
O2 Cl1A 1_555 1_555
O2 O2A 1_555 1_555
O4 Cl1A 1_555 1_555
C4F C5F 1_555 1_555
Cl1A O1A 1_555 1_555
Cl1A O2A 1_555 1_555
Cl1A O4A 1_555 1_555

#END
