
#######################################################################
#
#                 Cambridge Crystallographic Data Centre
#                                CCDC 
#
#######################################################################
#
# If this CIF has been generated from an entry in the Cambridge 
# Structural Database, then it will include bibliographic, chemical, 
# crystal, experimental, refinement or atomic coordinate data resulting 
# from the CCDC's data processing and validation procedures.
#
#######################################################################

data_DOWGOM
_chemical_name_common            
(S,S)-1,3-bis(4-isopropyloxazolin-2-yl)benzene
_chemical_formula_moiety         'C18 H24 N2 O2'
_chemical_name_systematic        
2,2'-(1,3-Phenylene)bis(4-isopropyl-4,5-dihydro-1,3-oxazole)
_symmetry_cell_setting           triclinic
_symmetry_space_group_name_H-M   'P 1'
_symmetry_Int_Tables_number      1
_space_group_name_Hall           'P 1'
loop_
_symmetry_equiv_pos_site_id
_symmetry_equiv_pos_as_xyz
1 x,y,z
_cell_length_a                   5.8138(15)
_cell_length_b                   9.773(3)
_cell_length_c                   15.314(4)
_cell_angle_alpha                84.585(4)
_cell_angle_beta                 88.440(5)
_cell_angle_gamma                79.196(5)
_cell_volume                     850.837
_exptl_crystal_colour            colorless
_exptl_crystal_description       prismatic
_cell_formula_units_Z            2
loop_
_atom_site_label
_atom_site_type_symbol
_atom_site_fract_x
_atom_site_fract_y
_atom_site_fract_z
N1 N 0.9199(6) 0.3018(4) 0.0862(2)
N2 N 0.8668(7) -0.1569(4) 0.4830(2)
O1 O 0.6019(5) 0.3079(4) 0.1701(2)
O2 O 0.5798(5) 0.0219(4) 0.4425(2)
C1 C 0.8138(7) 0.0981(4) 0.2898(3)
H1 H 0.6601 0.1422 0.2993
C2 C 0.9192(7) -0.0090(4) 0.3502(3)
C3 C 1.1450(7) -0.0773(4) 0.3342(3)
H2 H 1.2145 -0.1522 0.3726
C4 C 1.2682(7) -0.0343(5) 0.2609(3)
H3 H 1.4220 -0.0782 0.2516
C5 C 1.1647(7) 0.0719(5) 0.2025(3)
H4 H 1.2475 0.0996 0.1533
C6 C 0.9327(6) 0.1395(4) 0.2167(3)
C7 C 0.8241(6) 0.2519(4) 0.1524(3)
C8 C 0.5290(9) 0.4072(6) 0.0968(3)
H5 H 0.4625 0.4979 0.1164
H6 H 0.4127 0.3765 0.0629
C9 C 0.7461(8) 0.4147(4) 0.0432(3)
H7 H 0.7935 0.5040 0.0504
C10 C 0.7939(7) -0.0542(4) 0.4294(3)
C11 C 0.5021(8) -0.0322(5) 0.5275(3)
H8 H 0.3451 -0.0517 0.5245
H9 H 0.5046 0.0333 0.5711
C12 C 0.6812(7) -0.1672(4) 0.5488(3)
H10 H 0.6087 -0.2468 0.5382
C13 C 0.7234(7) 0.4027(4) -0.0541(3)
H11 H 0.6653 0.3164 -0.0606
C14 C 0.5484(9) 0.5231(5) -0.0956(3)
H12 H 0.6028 0.6091 -0.0911
H13 H 0.4001 0.5267 -0.0659
H14 H 0.5308 0.5104 -0.1563
C15 C 0.9585(10) 0.3927(7) -0.1012(4)
H15 H 0.9398 0.3792 -0.1617
H16 H 1.0674 0.3150 -0.0743
H17 H 1.0170 0.4775 -0.0974
C16 C 0.7716(8) -0.1889(5) 0.6422(3)
H18 H 0.8488 -0.1107 0.6520
C17 C 0.9486(11) -0.3224(7) 0.6567(5)
H19 H 0.8820 -0.3992 0.6409
H20 H 0.9917 -0.3379 0.7174
H21 H 1.0852 -0.3152 0.6212
C18 C 0.5706(10) -0.1899(7) 0.7087(4)
H22 H 0.4596 -0.1039 0.6997
H23 H 0.6313 -0.1995 0.7671
H24 H 0.4946 -0.2671 0.7011
N3 N 0.7407(5) 0.4144(4) 0.4540(2)
N4 N 0.7476(6) 0.0570(3) 0.8911(2)
O3 O 1.0405(5) 0.2476(3) 0.50382(19)
O4 O 1.0562(5) 0.0248(3) 0.7994(2)
C19 C 0.8226(6) 0.2017(4) 0.6644(3)
H25 H 0.9753 0.1561 0.6549
C20 C 0.7100(6) 0.1748(4) 0.7439(3)
C21 C 0.4788(6) 0.2407(4) 0.7562(3)
H26 H 0.4005 0.2214 0.8084
C22 C 0.3662(7) 0.3344(5) 0.6913(3)
H27 H 0.2121 0.3783 0.7001
C23 C 0.4791(7) 0.3639(4) 0.6137(3)
H28 H 0.4027 0.4290 0.5707
C24 C 0.7077(7) 0.2962(4) 0.5995(3)
C25 C 0.8229(6) 0.3252(4) 0.5148(3)
C26 C 1.1240(7) 0.3022(4) 0.4210(3)
H29 H 1.1749 0.2279 0.3831
H30 H 1.2539 0.3490 0.4293
C27 C 0.9155(6) 0.4051(4) 0.3821(2)
H31 H 0.8545 0.3634 0.3339
C28 C 0.8318(6) 0.0825(4) 0.8156(3)
C29 C 1.1337(8) -0.0653(6) 0.8769(3)
H32 H 1.2826 -0.0488 0.8965
H33 H 1.1501 -0.1629 0.8661
C30 C 0.9422(7) -0.0263(4) 0.9440(3)
H34 H 0.9953 0.0344 0.9836
C31 C 0.9664(6) 0.5465(4) 0.3473(2)
H35 H 1.0257 0.5890 0.3955
C32 C 0.7504(8) 0.6426(5) 0.3118(3)
H36 H 0.7894 0.7306 0.2894
H37 H 0.6356 0.6574 0.3579
H38 H 0.6881 0.6012 0.2655
C33 C 1.1559(8) 0.5273(5) 0.2758(3)
H39 H 1.2960 0.4698 0.3001
H40 H 1.1885 0.6170 0.2537
H41 H 1.1022 0.4831 0.2289
C34 C 0.8680(8) -0.1488(5) 0.9987(3)
H42 H 0.8157 -0.2094 0.9590
C35 C 1.0778(9) -0.2338(5) 1.0505(4)
H43 H 1.1292 -0.1765 1.0908
H44 H 1.2032 -0.2641 1.0106
H45 H 1.0322 -0.3139 1.0825
C36 C 0.6669(9) -0.0993(7) 1.0597(3)
H46 H 0.7208 -0.0501 1.1041
H47 H 0.6075 -0.1784 1.0868
H48 H 0.5446 -0.0378 1.0268
loop_
_geom_bond_atom_site_label_1
_geom_bond_atom_site_label_2
_geom_bond_site_symmetry_1
_geom_bond_site_symmetry_2
N1 C7 1_555 1_555
N2 C10 1_555 1_555
N3 C25 1_555 1_555
N4 C28 1_555 1_555
O1 C7 1_555 1_555
O2 C10 1_555 1_555
O3 C25 1_555 1_555
O4 C28 1_555 1_555
C1 H1 1_555 1_555
C2 C1 1_555 1_555
C3 C2 1_555 1_555
H2 C3 1_555 1_555
C4 C3 1_555 1_555
H3 C4 1_555 1_555
C5 C4 1_555 1_555
H4 C5 1_555 1_555
C6 C1 1_555 1_555
C7 C6 1_555 1_555
C8 O1 1_555 1_555
H5 C8 1_555 1_555
H6 C8 1_555 1_555
C9 N1 1_555 1_555
H7 C9 1_555 1_555
C10 C2 1_555 1_555
C11 O2 1_555 1_555
H8 C11 1_555 1_555
H9 C11 1_555 1_555
C12 N2 1_555 1_555
H10 C12 1_555 1_555
C13 C9 1_555 1_555
H11 C13 1_555 1_555
C14 C13 1_555 1_555
H12 C14 1_555 1_555
H13 C14 1_555 1_555
H14 C14 1_555 1_555
C15 C13 1_555 1_555
H15 C15 1_555 1_555
H16 C15 1_555 1_555
H17 C15 1_555 1_555
C16 C12 1_555 1_555
H18 C16 1_555 1_555
C17 C16 1_555 1_555
H19 C17 1_555 1_555
H20 C17 1_555 1_555
H21 C17 1_555 1_555
C18 C16 1_555 1_555
H22 C18 1_555 1_555
H23 C18 1_555 1_555
H24 C18 1_555 1_555
C19 H25 1_555 1_555
C20 C19 1_555 1_555
C21 C20 1_555 1_555
H26 C21 1_555 1_555
C22 C21 1_555 1_555
H27 C22 1_555 1_555
C23 C22 1_555 1_555
H28 C23 1_555 1_555
C24 C19 1_555 1_555
C25 C24 1_555 1_555
C26 O3 1_555 1_555
H29 C26 1_555 1_555
H30 C26 1_555 1_555
C27 N3 1_555 1_555
H31 C27 1_555 1_555
C28 C20 1_555 1_555
C29 O4 1_555 1_555
H32 C29 1_555 1_555
H33 C29 1_555 1_555
C30 N4 1_555 1_555
H34 C30 1_555 1_555
C31 C27 1_555 1_555
H35 C31 1_555 1_555
C32 C31 1_555 1_555
H36 C32 1_555 1_555
H37 C32 1_555 1_555
H38 C32 1_555 1_555
C33 C31 1_555 1_555
H39 C33 1_555 1_555
H40 C33 1_555 1_555
H41 C33 1_555 1_555
C34 C30 1_555 1_555
H42 C34 1_555 1_555
C35 C34 1_555 1_555
H43 C35 1_555 1_555
H44 C35 1_555 1_555
H45 C35 1_555 1_555
C36 C34 1_555 1_555
H46 C36 1_555 1_555
H47 C36 1_555 1_555
H48 C36 1_555 1_555
C5 C6 1_555 1_555
C8 C9 1_555 1_555
C11 C12 1_555 1_555
C23 C24 1_555 1_555
C26 C27 1_555 1_555
C29 C30 1_555 1_555

#END
