
#######################################################################
#
#                 Cambridge Crystallographic Data Centre
#                                CCDC 
#
#######################################################################
#
# If this CIF has been generated from an entry in the Cambridge 
# Structural Database, then it will include bibliographic, chemical, 
# crystal, experimental, refinement or atomic coordinate data resulting 
# from the CCDC's data processing and validation procedures.
#
#######################################################################

data_DOWVOC41
_chemical_formula_moiety         'C10 H6 O6 S2 2-,C5 H6 N1 1+,C1 H6 N3 1+'
_chemical_name_systematic        
'guanidinium pyridinium naphthalene-1,5-disulfonate'
_symmetry_cell_setting           triclinic
_symmetry_space_group_name_H-M   'P -1'
_symmetry_Int_Tables_number      2
_space_group_name_Hall           '-P 1'
loop_
_symmetry_equiv_pos_site_id
_symmetry_equiv_pos_as_xyz
1 x,y,z
2 -x,-y,-z
_cell_length_a                   8.041(5)
_cell_length_b                   8.174(5)
_cell_length_c                   14.110(9)
_cell_angle_alpha                92.302(6)
_cell_angle_beta                 101.340(10)
_cell_angle_gamma                90.444(8)
_cell_volume                     908.455
_exptl_crystal_colour            colorless
_exptl_crystal_description       block
_cell_formula_units_Z            2
loop_
_atom_site_label
_atom_site_type_symbol
_atom_site_fract_x
_atom_site_fract_y
_atom_site_fract_z
C1 C 0.7853(4) 0.3059(3) 0.7380(2)
H1 H 0.7200 0.3994 0.7374
C2 C 0.8378(4) 0.2299(4) 0.8206(2)
H2 H 0.8105 0.2715 0.8778
C3 C 0.9321(4) 0.0903(4) 0.8207(2)
H3 H 0.9711 0.0373 0.8777
C4 C 0.9671(3) 0.0312(3) 0.7348(2)
H4 H 1.0284 -0.0645 0.7328
C5 C 0.9143(3) 0.1097(3) 0.65473(17)
H5 H 0.9385 0.0680 0.5967
N1 N 0.8279(3) 0.2456(3) 0.65535(18)
H6 H 0.7983 0.2967 0.6027
C6 C 0.6126(3) 0.7989(3) 0.51980(15)
C7 C 0.5108(3) 0.7192(3) 0.57108(16)
H7 H 0.5370 0.6138 0.5910
C8 C 0.6333(3) 1.2036(3) 0.40644(17)
H8 H 0.7028 1.2596 0.3728
C9 C 0.6724(3) 1.0487(3) 0.43305(16)
H9 H 0.7661 0.9989 0.4154
C10 C 0.5729(2) 0.9613(2) 0.48739(14)
O1 O 0.7672(2) 0.6666(2) 0.39110(11)
O2 O 0.8073(2) 0.5478(2) 0.54913(13)
O3 O 0.93963(19) 0.8078(2) 0.53011(13)
S1 S 0.79616(7) 0.69566(7) 0.49574(4)
C6A C 0.3874(3) 1.2011(3) 0.48020(15)
C7A C 0.4892(3) 1.2808(3) 0.42892(16)
H7A H 0.4630 1.3862 0.4090
C8A C 0.3667(3) 0.7964(3) 0.59356(17)
H8A H 0.2972 0.7404 0.6272
C9A C 0.3276(3) 0.9513(3) 0.56695(16)
H9A H 0.2339 1.0011 0.5846
C10A C 0.4271(2) 1.0387(2) 0.51261(14)
O1A O 0.2328(2) 1.3334(2) 0.60890(11)
O2A O 0.1927(2) 1.4522(2) 0.45087(13)
O3A O 0.06037(19) 1.1922(2) 0.46989(13)
S1A S 0.20384(7) 1.30434(7) 0.50426(4)
C11 C 0.5922(3) 0.8733(2) 0.90962(15)
C12 C 0.5267(3) 0.9473(3) 0.82576(16)
H10 H 0.5535 0.9085 0.7678
C13 C 0.4186(3) 1.0821(3) 0.82620(16)
H11 H 0.3739 1.1312 0.7686
C14 C 0.6205(3) 0.8593(3) 1.08940(16)
H12 H 0.6917 0.7700 1.0902
C15 C 0.5552(3) 0.9314(2) 1.00035(15)
O4 O 0.88778(19) 0.7411(2) 0.96729(12)
O5 O 0.63856(19) 0.56191(18) 0.93334(11)
O6 O 0.7421(2) 0.68412(19) 0.80192(11)
S2 S 0.72661(7) 0.70216(7) 0.90278(4)
C11A C 0.4078(3) 1.1267(2) 1.09038(15)
C12A C 0.4733(3) 1.0527(3) 1.17424(16)
H10A H 0.4465 1.0915 1.2322
C13A C 0.5814(3) 0.9179(3) 1.17380(16)
H11A H 0.6261 0.8688 1.2314
C14A C 0.3795(3) 1.1407(3) 0.91060(16)
H12A H 0.3083 1.2300 0.9098
C15A C 0.4448(3) 1.0686(2) 0.99965(15)
O4A O 0.11222(19) 1.2589(2) 1.03271(12)
O5A O 0.36144(19) 1.43809(18) 1.06666(11)
O6A O 0.2579(2) 1.31588(19) 1.19808(11)
S2A S 0.27339(7) 1.29784(7) 1.09722(4)
C16 C 0.1916(3) 0.5757(3) 0.81007(15)
N2 N 0.3271(2) 0.5054(2) 0.78835(14)
H13 H 0.3293 0.4774 0.7292
H14 H 0.4133 0.4876 0.8333
N3 N 0.1904(2) 0.6242(2) 0.90120(13)
H15 H 0.2780 0.6097 0.9458
H16 H 0.1020 0.6700 0.9154
N4 N 0.0586(2) 0.6035(2) 0.74137(14)
H17 H 0.0601 0.5757 0.6821
H18 H -0.0295 0.6494 0.7560
loop_
_geom_bond_atom_site_label_1
_geom_bond_atom_site_label_2
_geom_bond_site_symmetry_1
_geom_bond_site_symmetry_2
C1 H1 1_555 1_555
C2 C1 1_555 1_555
H2 C2 1_555 1_555
C3 C2 1_555 1_555
H3 C3 1_555 1_555
C4 C3 1_555 1_555
H4 C4 1_555 1_555
C5 C4 1_555 1_555
H5 C5 1_555 1_555
N1 C1 1_555 1_555
H6 N1 1_555 1_555
C6 C7 1_555 1_555
C7 H7 1_555 1_555
C8 H8 1_555 1_555
C9 C8 1_555 1_555
H9 C9 1_555 1_555
C10 C6 1_555 1_555
O1 S1 1_555 1_555
O2 S1 1_555 1_555
O3 S1 1_555 1_555
S1 C6 1_555 1_555
C11 C12 1_555 1_555
C12 H10 1_555 1_555
C13 C12 1_555 1_555
H11 C13 1_555 1_555
C14 H12 1_555 1_555
C15 C11 1_555 1_555
O4 S2 1_555 1_555
O5 S2 1_555 1_555
O6 S2 1_555 1_555
S2 C11 1_555 1_555
C16 N2 1_555 1_555
N2 H13 1_555 1_555
H14 N2 1_555 1_555
N3 C16 1_555 1_555
H15 N3 1_555 1_555
H16 N3 1_555 1_555
N4 C16 1_555 1_555
H17 N4 1_555 1_555
H18 N4 1_555 1_555
C6A C7A 1_555 1_555
C7A C8 1_555 1_555
H7A C7A 1_555 1_555
C8A C7 1_555 1_555
H8A C8A 1_555 1_555
C9A C8A 1_555 1_555
H9A C9A 1_555 1_555
C10A C10 1_555 1_555
O1A S1A 1_555 1_555
O2A S1A 1_555 1_555
O3A S1A 1_555 1_555
S1A C6A 1_555 1_555
C11A C12A 1_555 1_555
C12A H10A 1_555 1_555
C13A C14 1_555 1_555
H11A C13A 1_555 1_555
C14A C13 1_555 1_555
H12A C14A 1_555 1_555
C15A C15 1_555 1_555
O4A S2A 1_555 1_555
O5A S2A 1_555 1_555
O6A S2A 1_555 1_555
S2A C11A 1_555 1_555
C5 N1 1_555 1_555
C9 C10 1_555 1_555
C14 C15 1_555 1_555
C6A C10A 1_555 1_555
C9A C10A 1_555 1_555
C11A C15A 1_555 1_555
C12A C13A 1_555 1_555
C14A C15A 1_555 1_555

#END
