
#######################################################################
#
#                 Cambridge Crystallographic Data Centre
#                                CCDC 
#
#######################################################################
#
# If this CIF has been generated from an entry in the Cambridge 
# Structural Database, then it will include bibliographic, chemical, 
# crystal, experimental, refinement or atomic coordinate data resulting 
# from the CCDC's data processing and validation procedures.
#
#######################################################################

data_DOWVOC37
_chemical_formula_moiety         'C10 H6 O6 S2 2-,C5 H6 N1 1+,C1 H6 N3 1+'
_chemical_name_systematic        
'guanidinium pyridinium naphthalene-1,5-disulfonate'
_symmetry_cell_setting           triclinic
_symmetry_space_group_name_H-M   'P -1'
_symmetry_Int_Tables_number      2
_space_group_name_Hall           '-P 1'
loop_
_symmetry_equiv_pos_site_id
_symmetry_equiv_pos_as_xyz
1 x,y,z
2 -x,-y,-z
_cell_length_a                   8.002(7)
_cell_length_b                   8.152(7)
_cell_length_c                   14.089(12)
_cell_angle_alpha                92.243(9)
_cell_angle_beta                 99.692(16)
_cell_angle_gamma                90.536(14)
_cell_volume                     905.127
_exptl_crystal_colour            colorless
_exptl_crystal_description       block
_cell_formula_units_Z            2
loop_
_atom_site_label
_atom_site_type_symbol
_atom_site_fract_x
_atom_site_fract_y
_atom_site_fract_z
C1 C 0.8227(3) 0.2235(3) 0.65215(19)
H1 H 0.7859 0.2685 0.5928
C2 C 0.7908(3) 0.2998(3) 0.7346(2)
H2 H 0.7281 0.3956 0.7318
C3 C 0.8508(4) 0.2356(4) 0.82129(19)
H3 H 0.8303 0.2881 0.8779
C4 C 0.9425(4) 0.0922(4) 0.8251(2)
H4 H 0.9858 0.0484 0.8840
C5 C 0.9682(3) 0.0166(3) 0.7412(2)
H5 H 1.0279 -0.0808 0.7422
N1 N 0.9078(3) 0.0825(3) 0.65761(16)
H6 H 0.9240 0.0326 0.6051
C6 C 0.5962(3) 0.8720(3) 0.90944(16)
C7 C 0.5335(3) 0.9467(3) 0.82570(16)
H7 H 0.5623 0.9076 0.7678
C8 C 0.4256(3) 1.0823(3) 0.82646(17)
H8 H 0.3835 1.1318 0.7691
C9 C 0.6174(3) 0.8585(3) 1.08885(16)
H9 H 0.6889 0.7691 1.0894
C10 C 0.5549(3) 0.9310(3) 1.00020(15)
O1 O 0.7502(2) 0.68189(19) 0.80164(11)
O2 O 0.6393(2) 0.55984(19) 0.93295(11)
O3 O 0.8902(2) 0.7379(2) 0.96634(12)
S1 S 0.73047(7) 0.70003(7) 0.90231(4)
C6A C 0.4038(3) 1.1280(3) 1.09056(16)
C7A C 0.4665(3) 1.0533(3) 1.17430(16)
H7A H 0.4377 1.0924 1.2322
C8A C 0.5744(3) 0.9177(3) 1.17354(17)
H8A H 0.6165 0.8682 1.2309
C9A C 0.3826(3) 1.1415(3) 0.91115(16)
H9A H 0.3111 1.2309 0.9106
C10A C 0.4451(3) 1.0690(3) 0.99980(15)
O1A O 0.2498(2) 1.31811(19) 1.19836(11)
O2A O 0.3607(2) 1.44016(19) 1.06705(11)
O3A O 0.1098(2) 1.2621(2) 1.03366(12)
S1A S 0.26953(7) 1.29997(7) 1.09769(4)
C11 C 0.6142(3) 0.7997(3) 0.52008(15)
C12 C 0.5128(3) 0.7201(3) 0.57403(16)
H10 H 0.5398 0.6152 0.5947
C13 C 0.3680(3) 0.7978(3) 0.59799(16)
H11 H 0.2983 0.7419 0.6329
C14 C 0.6716(3) 1.0477(3) 0.42893(15)
H12 H 0.7649 0.9974 0.4097
C15 C 0.5727(3) 0.9608(3) 0.48623(15)
O4 O 0.7781(2) 0.6681(2) 0.39190(11)
O5 O 0.8149(2) 0.5517(2) 0.55085(12)
O6 O 0.94148(19) 0.81722(19) 0.52927(12)
S2 S 0.80192(7) 0.69862(7) 0.49642(4)
C11A C 0.3858(3) 1.2003(3) 0.47992(15)
C12A C 0.4872(3) 1.2799(3) 0.42597(16)
H10A H 0.4602 1.3848 0.4053
C13A C 0.6320(3) 1.2022(3) 0.40201(16)
H11A H 0.7017 1.2581 0.3671
C14A C 0.3284(3) 0.9523(3) 0.57107(15)
H12A H 0.2351 1.0026 0.5903
C15A C 0.4273(3) 1.0392(3) 0.51377(15)
O4A O 0.2219(2) 1.3319(2) 0.60810(11)
O5A O 0.1851(2) 1.4483(2) 0.44915(12)
O6A O 0.05852(19) 1.18278(19) 0.47073(12)
S2A S 0.19808(7) 1.30138(7) 0.50358(4)
C16 C 0.2002(3) 0.5700(3) 0.80806(16)
N2 N 0.3380(2) 0.4991(2) 0.78617(14)
H13 H 0.3416 0.4677 0.7276
H14 H 0.4239 0.4846 0.8306
N3 N 0.1968(3) 0.6223(3) 0.89807(14)
H15 H 0.2838 0.6102 0.9420
H16 H 0.1075 0.6683 0.9124
N4 N 0.0678(2) 0.5923(2) 0.73956(14)
H17 H 0.0715 0.5609 0.6810
H18 H -0.0216 0.6383 0.7537
loop_
_geom_bond_atom_site_label_1
_geom_bond_atom_site_label_2
_geom_bond_site_symmetry_1
_geom_bond_site_symmetry_2
C1 H1 1_555 1_555
C2 C1 1_555 1_555
H2 C2 1_555 1_555
C3 C2 1_555 1_555
H3 C3 1_555 1_555
C4 C3 1_555 1_555
H4 C4 1_555 1_555
C5 C4 1_555 1_555
H5 C5 1_555 1_555
N1 C1 1_555 1_555
H6 N1 1_555 1_555
C6 C7 1_555 1_555
C7 H7 1_555 1_555
C8 C7 1_555 1_555
H8 C8 1_555 1_555
C9 H9 1_555 1_555
C10 C6 1_555 1_555
O1 S1 1_555 1_555
O2 S1 1_555 1_555
O3 S1 1_555 1_555
S1 C6 1_555 1_555
C11 C12 1_555 1_555
C12 H10 1_555 1_555
C13 C12 1_555 1_555
H11 C13 1_555 1_555
C14 H12 1_555 1_555
C15 C11 1_555 1_555
O4 S2 1_555 1_555
O5 S2 1_555 1_555
O6 S2 1_555 1_555
S2 C11 1_555 1_555
C16 N2 1_555 1_555
N2 H13 1_555 1_555
H14 N2 1_555 1_555
N3 C16 1_555 1_555
H15 N3 1_555 1_555
H16 N3 1_555 1_555
N4 C16 1_555 1_555
H17 N4 1_555 1_555
H18 N4 1_555 1_555
C6A C7A 1_555 1_555
C7A H7A 1_555 1_555
C8A C9 1_555 1_555
H8A C8A 1_555 1_555
C9A C8 1_555 1_555
H9A C9A 1_555 1_555
C10A C10 1_555 1_555
O1A S1A 1_555 1_555
O2A S1A 1_555 1_555
O3A S1A 1_555 1_555
S1A C6A 1_555 1_555
C11A C12A 1_555 1_555
C12A H10A 1_555 1_555
C13A C14 1_555 1_555
H11A C13A 1_555 1_555
C14A C13 1_555 1_555
H12A C14A 1_555 1_555
C15A C15 1_555 1_555
O4A S2A 1_555 1_555
O5A S2A 1_555 1_555
O6A S2A 1_555 1_555
S2A C11A 1_555 1_555
C5 N1 1_555 1_555
C9 C10 1_555 1_555
C14 C15 1_555 1_555
C6A C10A 1_555 1_555
C7A C8A 1_555 1_555
C9A C10A 1_555 1_555
C11A C15A 1_555 1_555
C12A C13A 1_555 1_555
C14A C15A 1_555 1_555

#END
