
#######################################################################
#
#                 Cambridge Crystallographic Data Centre
#                                CCDC 
#
#######################################################################
#
# If this CIF has been generated from an entry in the Cambridge 
# Structural Database, then it will include bibliographic, chemical, 
# crystal, experimental, refinement or atomic coordinate data resulting 
# from the CCDC's data processing and validation procedures.
#
#######################################################################

data_DOWVOC47
_chemical_formula_moiety         'C10 H6 O6 S2 2-,C5 H6 N1 1+,C1 H6 N3 1+'
_chemical_name_systematic        
'guanidinium pyridinium naphthalene-1,5-disulfonate'
_symmetry_cell_setting           triclinic
_symmetry_space_group_name_H-M   'P -1'
_symmetry_Int_Tables_number      2
_space_group_name_Hall           '-P 1'
loop_
_symmetry_equiv_pos_site_id
_symmetry_equiv_pos_as_xyz
1 x,y,z
2 -x,-y,-z
_cell_length_a                   8.057(4)
_cell_length_b                   8.203(4)
_cell_length_c                   14.119(7)
_cell_angle_alpha                92.269(5)
_cell_angle_beta                 101.891(8)
_cell_angle_gamma                90.195(7)
_cell_volume                     912.343
_exptl_crystal_colour            colorless
_exptl_crystal_description       block
_cell_formula_units_Z            2
loop_
_atom_site_label
_atom_site_type_symbol
_atom_site_fract_x
_atom_site_fract_y
_atom_site_fract_z
C1 C 0.7839(4) 0.3094(4) 0.7375(2)
H1 H 0.7183 0.4027 0.7367
C2 C 0.8321(4) 0.2314(4) 0.8194(2)
H2 H 0.8021 0.2708 0.8762
C3 C 0.9266(4) 0.0920(4) 0.8193(2)
H3 H 0.9630 0.0372 0.8762
C4 C 0.9664(4) 0.0351(3) 0.7341(2)
H4 H 1.0271 -0.0607 0.7319
C5 C 0.9168(3) 0.1192(3) 0.65447(17)
H5 H 0.9444 0.0818 0.5967
N1 N 0.8298(3) 0.2535(3) 0.65621(18)
H6 H 0.8017 0.3070 0.6042
C6 C 0.6108(3) 0.7982(3) 0.51987(14)
C7 C 0.5084(3) 0.7196(3) 0.57033(16)
H7 H 0.5339 0.6143 0.5904
C8 C 0.6353(3) 1.2018(3) 0.40818(17)
H8 H 0.7053 1.2570 0.3751
C9 C 0.6736(3) 1.0470(3) 0.43486(15)
H9 H 0.7675 0.9967 0.4182
C10 C 0.5721(2) 0.9604(2) 0.48795(14)
O1 O 0.7622(2) 0.6650(2) 0.39132(12)
O2 O 0.9371(2) 0.8008(2) 0.53160(13)
O3 O 0.8012(2) 0.5445(2) 0.54853(14)
S1 S 0.79257(7) 0.69262(7) 0.49592(4)
C6A C 0.3892(3) 1.2018(3) 0.48013(14)
C7A C 0.4916(3) 1.2804(3) 0.42967(16)
H7A H 0.4661 1.3857 0.4096
C8A C 0.3647(3) 0.7982(3) 0.59182(17)
H8A H 0.2947 0.7430 0.6249
C9A C 0.3264(3) 0.9530(3) 0.56514(15)
H9A H 0.2325 1.0033 0.5818
C10A C 0.4279(2) 1.0396(2) 0.51205(14)
O1A O 0.2378(2) 1.3350(2) 0.60868(12)
O2A O 0.0629(2) 1.1992(2) 0.46840(13)
O3A O 0.1988(2) 1.4555(2) 0.45147(14)
S1A S 0.20743(7) 1.30738(7) 0.50408(4)
C11 C 0.5907(3) 0.8733(2) 0.90974(15)
C12 C 0.5237(3) 0.9476(3) 0.82563(16)
H10 H 0.5496 0.9089 0.7676
C13 C 0.4158(3) 1.0825(3) 0.82600(16)
H11 H 0.3700 1.1314 0.7683
C14 C 0.6217(3) 0.8586(3) 1.08934(16)
H12 H 0.6924 0.7691 1.0900
C15 C 0.5549(3) 0.9315(2) 1.00044(15)
O4 O 0.7389(2) 0.68478(19) 0.80181(11)
O5 O 0.6378(2) 0.56324(19) 0.93342(11)
O6 O 0.8861(2) 0.7410(2) 0.96729(12)
S2 S 0.72469(7) 0.70275(7) 0.90277(4)
C11A C 0.4093(3) 1.1267(2) 1.09026(15)
C12A C 0.4763(3) 1.0524(3) 1.17437(16)
H10A H 0.4504 1.0911 1.2324
C13A C 0.5842(3) 0.9175(3) 1.17400(16)
H11A H 0.6300 0.8686 1.2317
C14A C 0.3783(3) 1.1414(3) 0.91066(16)
H12A H 0.3076 1.2309 0.9100
C15A C 0.4451(3) 1.0685(2) 0.99956(15)
O4A O 0.2611(2) 1.31522(19) 1.19819(11)
O5A O 0.3622(2) 1.43676(19) 1.06658(11)
O6A O 0.1139(2) 1.2590(2) 1.03271(12)
S2A S 0.27531(7) 1.29725(7) 1.09723(4)
C16 C 0.8110(3) 0.4219(3) 0.18932(15)
N2 N 0.6768(2) 0.4919(2) 0.21154(14)
H13 H 0.6757 0.5189 0.2709
H14 H 0.5899 0.5107 0.1667
N3 N 0.8113(3) 0.3755(3) 0.09803(13)
H15 H 0.7235 0.3913 0.0533
H16 H 0.8993 0.3298 0.0837
N4 N 0.9448(3) 0.3928(3) 0.25820(14)
H17 H 0.9439 0.4198 0.3176
H18 H 1.0325 0.3470 0.2436
loop_
_geom_bond_atom_site_label_1
_geom_bond_atom_site_label_2
_geom_bond_site_symmetry_1
_geom_bond_site_symmetry_2
C1 H1 1_555 1_555
C2 C1 1_555 1_555
H2 C2 1_555 1_555
C3 C2 1_555 1_555
H3 C3 1_555 1_555
C4 C3 1_555 1_555
H4 C4 1_555 1_555
C5 C4 1_555 1_555
H5 C5 1_555 1_555
N1 C1 1_555 1_555
H6 N1 1_555 1_555
C6 C7 1_555 1_555
C7 H7 1_555 1_555
C8 H8 1_555 1_555
C9 C8 1_555 1_555
H9 C9 1_555 1_555
C10 C6 1_555 1_555
O1 S1 1_555 1_555
O2 S1 1_555 1_555
O3 S1 1_555 1_555
S1 C6 1_555 1_555
C11 C12 1_555 1_555
C12 H10 1_555 1_555
C13 C12 1_555 1_555
H11 C13 1_555 1_555
C14 H12 1_555 1_555
C15 C11 1_555 1_555
O4 S2 1_555 1_555
O5 S2 1_555 1_555
O6 S2 1_555 1_555
S2 C11 1_555 1_555
C16 N2 1_555 1_555
N2 H13 1_555 1_555
H14 N2 1_555 1_555
N3 C16 1_555 1_555
H15 N3 1_555 1_555
H16 N3 1_555 1_555
N4 C16 1_555 1_555
H17 N4 1_555 1_555
H18 N4 1_555 1_555
C6A C7A 1_555 1_555
C7A C8 1_555 1_555
H7A C7A 1_555 1_555
C8A C7 1_555 1_555
H8A C8A 1_555 1_555
C9A C8A 1_555 1_555
H9A C9A 1_555 1_555
C10A C10 1_555 1_555
O1A S1A 1_555 1_555
O2A S1A 1_555 1_555
O3A S1A 1_555 1_555
S1A C6A 1_555 1_555
C11A C12A 1_555 1_555
C12A H10A 1_555 1_555
C13A C14 1_555 1_555
H11A C13A 1_555 1_555
C14A C13 1_555 1_555
H12A C14A 1_555 1_555
C15A C15 1_555 1_555
O4A S2A 1_555 1_555
O5A S2A 1_555 1_555
O6A S2A 1_555 1_555
S2A C11A 1_555 1_555
C5 N1 1_555 1_555
C9 C10 1_555 1_555
C14 C15 1_555 1_555
C6A C10A 1_555 1_555
C9A C10A 1_555 1_555
C11A C15A 1_555 1_555
C12A C13A 1_555 1_555
C14A C15A 1_555 1_555

#END
