
#######################################################################
#
#                 Cambridge Crystallographic Data Centre
#                                CCDC 
#
#######################################################################
#
# If this CIF has been generated from an entry in the Cambridge 
# Structural Database, then it will include bibliographic, chemical, 
# crystal, experimental, refinement or atomic coordinate data resulting 
# from the CCDC's data processing and validation procedures.
#
#######################################################################

data_DOXKIM
_chemical_compound_source        'rhizomes of Curcuma wenyujin'
_chemical_name_common            'Wenyujinin A'
_chemical_formula_moiety         'C15 H24 O3'
_chemical_name_systematic        
4,8a-Dihydroxy-7-isopropylidene-1,4-dimethyloctahydroazulen-6(1H)-one
_chemical_properties_biological  
'Inhibitory effect on NO production induced by LPS in macrophages'
_symmetry_cell_setting           monoclinic
_symmetry_space_group_name_H-M   'P 21'
_symmetry_Int_Tables_number      4
_space_group_name_Hall           'P 2yb'
loop_
_symmetry_equiv_pos_site_id
_symmetry_equiv_pos_as_xyz
1 x,y,z
2 -x,1/2+y,-z
_cell_length_a                   10.369(7)
_cell_length_b                   5.883(9)
_cell_length_c                   12.350(8)
_cell_angle_alpha                90
_cell_angle_beta                 102.52(1)
_cell_angle_gamma                90
_cell_volume                     735.446
_exptl_crystal_colour            colorless
_exptl_crystal_description       Column
_cell_formula_units_Z            2
_exptl_crystal_recrystallization_method methanol/water
loop_
_atom_site_label
_atom_site_type_symbol
_atom_site_fract_x
_atom_site_fract_y
_atom_site_fract_z
O1 O -0.8448(2) -0.8524(6) -0.51034(15)
O2 O -0.69712(16) -0.4583(3) -0.15389(13)
H1 H -0.7535 -0.3957 -0.2014
O3 O -0.94296(15) -0.4710(3) -0.31410(13)
H2 H -0.8714 -0.4265 -0.2783
C1 C -0.8853(2) -0.7104(5) -0.15661(18)
H3 H -0.9130 -0.5848 -0.1148
C2 C -0.9715(2) -0.6924(5) -0.27445(19)
C3 C -0.9439(3) -0.8734(6) -0.3566(2)
H4 H -0.9287 -1.0176 -0.3179
H5 H -1.0227 -0.8902 -0.4150
C4 C -0.8291(2) -0.8278(5) -0.40983(18)
C5 C -0.7015(2) -0.7591(5) -0.33955(17)
C6 C -0.6767(2) -0.8403(5) -0.22036(18)
H6 H -0.5822 -0.8532 -0.1921
H7 H -0.7143 -0.9911 -0.2192
C7 C -0.7344(2) -0.6854(4) -0.14155(17)
C8 C -0.6820(3) -0.7638(6) -0.0205(2)
H8 H -0.5895 -0.8083 -0.0134
C9 C -0.9018(4) -0.9276(7) -0.0913(3)
C10 C -0.6158(2) -0.6275(6) -0.3780(2)
C11 C -0.6420(3) -0.5214(9) -0.4918(3)
H9 H -0.7246 -0.5762 -0.5346
H10 H -0.5722 -0.5613 -0.5282
H11 H -0.6459 -0.3591 -0.4851
C12 C -1.1165(3) -0.7048(9) -0.2691(3)
H12 H -1.1703 -0.6968 -0.3429
H13 H -1.1376 -0.5799 -0.2260
H14 H -1.1332 -0.8454 -0.2352
C13 C -0.6853(4) -0.5750(8) 0.0645(2)
H15 H -0.6514 -0.6325 0.1379
H16 H -0.7746 -0.5246 0.0583
H17 H -0.6318 -0.4498 0.0505
C14 C -0.7569(15) -0.969(3) -0.0154(9)
H18 H -0.7626 -1.0004 0.0606
H19 H -0.7148 -1.0972 -0.0430
H20 H -0.952(5) -0.838(3) -0.047(3)
H21 H -0.929(4) -1.056(7) -0.155(3)
C15 C -0.4884(15) -0.534(3) -0.2999(16)
H22 H -0.4757 -0.6079 -0.2291
H23 H -0.4972 -0.3731 -0.2904
H24 H -0.4136 -0.5629 -0.3321
C16? C -0.797(3) -0.934(3) 0.0032(13)
H25? H -0.7633 -1.0870 0.0162
H26? H -0.8278 -0.8835 0.0682
C17? C -0.482(3) -0.589(6) -0.317(2)
H27? H -0.4694 -0.6581 -0.2450
H28? H -0.4658 -0.4281 -0.3085
H29? H -0.4208 -0.6539 -0.3567
loop_
_geom_bond_atom_site_label_1
_geom_bond_atom_site_label_2
_geom_bond_site_symmetry_1
_geom_bond_site_symmetry_2
O1 C4 1_555 1_555
O2 H1 1_555 1_555
O3 H2 1_555 1_555
C1 H3 1_555 1_555
C2 O3 1_555 1_555
C3 C2 1_555 1_555
H4 C3 1_555 1_555
H5 C3 1_555 1_555
C4 C3 1_555 1_555
C5 C4 1_555 1_555
C6 C5 1_555 1_555
H6 C6 1_555 1_555
H7 C6 1_555 1_555
C7 O2 1_555 1_555
C8 C7 1_555 1_555
H8 C8 1_555 1_555
C9 C1 1_555 1_555
C10 C5 1_555 1_555
C11 C10 1_555 1_555
H9 C11 1_555 1_555
H10 C11 1_555 1_555
H11 C11 1_555 1_555
C12 C2 1_555 1_555
H12 C12 1_555 1_555
H13 C12 1_555 1_555
H14 C12 1_555 1_555
C13 C8 1_555 1_555
H15 C13 1_555 1_555
H16 C13 1_555 1_555
H17 C13 1_555 1_555
C14 C8 1_555 1_555
H18 C14 1_555 1_555
H19 C14 1_555 1_555
H20 C9 1_555 1_555
H21 C9 1_555 1_555
C15 C10 1_555 1_555
H22 C15 1_555 1_555
H23 C15 1_555 1_555
H24 C15 1_555 1_555
C1 C2 1_555 1_555
C1 C7 1_555 1_555
C6 C7 1_555 1_555
C9 C14 1_555 1_555

#END
