
#######################################################################
#
#                 Cambridge Crystallographic Data Centre
#                                CCDC 
#
#######################################################################
#
# If this CIF has been generated from an entry in the Cambridge 
# Structural Database, then it will include bibliographic, chemical, 
# crystal, experimental, refinement or atomic coordinate data resulting 
# from the CCDC's data processing and validation procedures.
#
#######################################################################

data_DOXLAF
_chemical_formula_moiety         'C11 H12 N3 1+,F6 P1 1-'
_chemical_name_systematic        
'3-((pyridin-2-ylmethyl)amino)pyridinium hexafluorophosphate'
_symmetry_cell_setting           monoclinic
_symmetry_space_group_name_H-M   'P 21/c'
_symmetry_Int_Tables_number      14
_space_group_name_Hall           '-P 2ybc'
loop_
_symmetry_equiv_pos_site_id
_symmetry_equiv_pos_as_xyz
1 x,y,z
2 -x,1/2+y,1/2-z
3 -x,-y,-z
4 x,1/2-y,1/2+z
_cell_length_a                   10.8936(5)
_cell_length_b                   10.1128(4)
_cell_length_c                   14.5625(8)
_cell_angle_alpha                90
_cell_angle_beta                 121.994(3)
_cell_angle_gamma                90
_cell_volume                     1360.59
_exptl_crystal_colour            colorless
_exptl_crystal_description       prism
_cell_formula_units_Z            4
loop_
_atom_site_label
_atom_site_type_symbol
_atom_site_fract_x
_atom_site_fract_y
_atom_site_fract_z
P1 P 0.69568(9) 0.30271(9) 0.61307(6)
F1 F 0.8206(6) 0.3893(6) 0.6058(6)
F2 F 0.6311(8) 0.4469(7) 0.6159(7)
F3 F 0.6085(7) 0.2906(15) 0.4839(6)
F4 F 0.7878(10) 0.3114(8) 0.7445(4)
F5 F 0.5826(11) 0.2163(16) 0.6215(8)
F6 F 0.7985(15) 0.1773(8) 0.6272(9)
N1 N 0.0593(2) 0.2584(2) 0.46341(16)
N2 N 0.2862(3) 0.2344(3) 0.3462(2)
H1 H 0.365(2) 0.279(3) 0.371(3)
N3 N 0.1510(2) -0.0374(2) 0.15628(18)
H2 H 0.079(3) -0.090(3) 0.122(2)
C1 C 0.1612(3) 0.2078(3) 0.4481(2)
C2 C 0.2468(3) 0.1024(3) 0.5068(2)
H3 H 0.3161 0.0691 0.4941
C3 C 0.2274(4) 0.0466(3) 0.5855(3)
H4 H 0.2855 -0.0236 0.6272
C4 C 0.1244(4) 0.0942(3) 0.6014(2)
H5 H 0.1084 0.0563 0.6524
C5 C 0.0431(3) 0.2016(3) 0.5395(2)
H6 H -0.0264 0.2359 0.5516
C6 C 0.1699(3) 0.2776(3) 0.3597(2)
H7 H 0.0788 0.2650 0.2916
H8 H 0.1810 0.3717 0.3751
C7 C 0.1581(3) 0.0518(3) 0.2253(2)
H9 H 0.0848 0.0561 0.2399
C8 C 0.2740(3) 0.1391(3) 0.2764(2)
C9 C 0.3811(3) 0.1253(3) 0.2500(3)
H10 H 0.4615 0.1806 0.2823
C10 C 0.3676(4) 0.0316(4) 0.1777(3)
H11 H 0.4375 0.0249 0.1597
C11 C 0.2524(4) -0.0516(3) 0.1321(2)
H12 H 0.2444 -0.1176 0.0847
F7? F 0.7822(15) 0.4073(18) 0.6097(16)
F8? F 0.552(2) 0.3736(18) 0.5644(17)
F9? F 0.6591(19) 0.277(4) 0.4999(17)
F10? F 0.725(2) 0.324(2) 0.7157(12)
F11? F 0.609(3) 0.175(4) 0.600(2)
F12? F 0.824(4) 0.205(2) 0.658(2)
loop_
_geom_bond_atom_site_label_1
_geom_bond_atom_site_label_2
_geom_bond_site_symmetry_1
_geom_bond_site_symmetry_2
P1 F1 1_555 1_555
F2 P1 1_555 1_555
F3 P1 1_555 1_555
F4 P1 1_555 1_555
F5 P1 1_555 1_555
F6 P1 1_555 1_555
N1 C1 1_555 1_555
N2 H1 1_555 1_555
N3 H2 1_555 1_555
C1 C2 1_555 1_555
C2 H3 1_555 1_555
C3 C2 1_555 1_555
H4 C3 1_555 1_555
C4 C3 1_555 1_555
H5 C4 1_555 1_555
C5 N1 1_555 1_555
H6 C5 1_555 1_555
C6 N2 1_555 1_555
H7 C6 1_555 1_555
H8 C6 1_555 1_555
C7 N3 1_555 1_555
H9 C7 1_555 1_555
C8 N2 1_555 1_555
C9 C8 1_555 1_555
H10 C9 1_555 1_555
C10 C9 1_555 1_555
H11 C10 1_555 1_555
C11 N3 1_555 1_555
H12 C11 1_555 1_555
C1 C6 1_555 1_555
C4 C5 1_555 1_555
C7 C8 1_555 1_555
C10 C11 1_555 1_555

#END
