
#######################################################################
#
#                 Cambridge Crystallographic Data Centre
#                                CCDC 
#
#######################################################################
#
# If this CIF has been generated from an entry in the Cambridge 
# Structural Database, then it will include bibliographic, chemical, 
# crystal, experimental, refinement or atomic coordinate data resulting 
# from the CCDC's data processing and validation procedures.
#
#######################################################################

data_DOXMEK
_chemical_compound_source        'Vitex negundo var. cannabifolia'
_chemical_name_common            'Cannabifolin A monohydrate'
_chemical_formula_moiety         'C30 H46 O6,H2 O1'
_chemical_name_systematic        
'2,3,12-Trihydroxy-12,19:21,28-diepoxyursan-28-one monohydrate'
_symmetry_cell_setting           triclinic
_symmetry_space_group_name_H-M   'P 1'
_symmetry_Int_Tables_number      1
_space_group_name_Hall           'P 1'
loop_
_symmetry_equiv_pos_site_id
_symmetry_equiv_pos_as_xyz
1 x,y,z
_cell_length_a                   12.9465(4)
_cell_length_b                   14.7156(5)
_cell_length_c                   15.0171(5)
_cell_angle_alpha                89.616(3)
_cell_angle_beta                 73.336(3)
_cell_angle_gamma                78.252(3)
_cell_volume                     2679.35
_exptl_crystal_colour            colorless
_exptl_crystal_description       plate
_chemical_melting_point          '233-235 deg.C'
_cell_formula_units_Z            4
loop_
_atom_site_label
_atom_site_type_symbol
_atom_site_fract_x
_atom_site_fract_y
_atom_site_fract_z
O1 O -0.34672(18) -0.81051(17) -1.57466(16)
H1 H -0.3698 -0.8535 -1.5941
O2 O -0.38568(16) -0.42210(15) -1.49610(14)
H2 H -0.4284 -0.3755 -1.5076
O3 O -0.1089(2) -0.12150(18) -1.60185(19)
O4 O -0.27449(17) -0.33439(15) -1.45682(14)
O5 O -0.33721(18) -0.80270(17) -1.39763(15)
H3 H -0.3184 -0.8440 -1.3631
O6 O 0.0521(2) -0.2107(2) -1.68186(19)
C1 C -0.1296(2) -0.5327(2) -1.68951(19)
C2 C -0.2424(2) -0.8475(2) -1.5595(2)
H4 H -0.2368 -0.9149 -1.5470
C3 C -0.2783(2) -0.4068(2) -1.52140(19)
C4 C -0.1184(2) -0.6046(2) -1.7689(2)
H5 H -0.1912 -0.5995 -1.7798
H6 H -0.0669 -0.5893 -1.8269
C5 C -0.1568(2) -0.6705(2) -1.57272(19)
C6 C -0.1524(2) -0.3164(2) -1.6029(2)
H7 H -0.0845 -0.3639 -1.6045
C7 C -0.1927(2) -0.5662(2) -1.59422(18)
H8 H -0.2698 -0.5603 -1.5976
C8 C -0.2267(3) -0.1222(3) -1.5880(3)
H9 H -0.2703 -0.0572 -1.5839
C9 C -0.1558(2) -0.7304(2) -1.65798(18)
H10 H -0.2307 -0.7081 -1.6661
C10 C -0.0766(2) -0.7051(2) -1.7477(2)
H11 H -0.0019 -0.7121 -1.7401
H12 H -0.0718 -0.7478 -1.8001
C11 C -0.2038(2) -0.4983(2) -1.51288(18)
H13 H -0.2353 -0.5249 -1.4529
H14 H -0.1302 -0.4878 -1.5142
C12 C -0.2714(3) -0.1710(2) -1.4992(2)
H15 H -0.2604 -0.1360 -1.4470
C13 C -0.1472(2) -0.8366(2) -1.6452(2)
C14 C -0.3956(3) -0.1631(2) -1.4783(3)
H16 H -0.4099 -0.2031 -1.5234
H17 H -0.4312 -0.0985 -1.4830
H18 H -0.4255 -0.1826 -1.4153
C15 C -0.2037(2) -0.2726(2) -1.5025(2)
C16 C -0.2008(2) -0.4342(2) -1.7045(2)
C17 C -0.2224(3) -0.1729(2) -1.6775(2)
H19 H -0.2090 -0.1334 -1.7315
H20 H -0.2901 -0.1966 -1.6718
C18 C -0.0370(3) -0.8891(2) -1.6338(2)
H21 H -0.0340 -0.9562 -1.6366
H22 H -0.0304 -0.8703 -1.5735
H23 H 0.0238 -0.8744 -1.6839
C19 C -0.2390(2) -0.3671(2) -1.6163(2)
H24 H -0.3021 -0.3184 -1.6233
C20 C -0.0096(2) -0.5273(2) -1.6947(2)
H25 H 0.0215 -0.4947 -1.7498
H26 H 0.0352 -0.5903 -1.6988
H27 H -0.0096 -0.4935 -1.6387
C21 C -0.0697(3) -0.3136(2) -1.7714(2)
H28 H 0.0021 -0.3507 -1.7685
H29 H -0.0551 -0.2738 -1.8251
C22 C -0.0464(3) -0.1956(3) -1.6591(2)
C23 C -0.1411(2) -0.3804(2) -1.7879(2)
H30 H -0.0934 -0.4273 -1.8374
H31 H -0.1985 -0.3440 -1.8132
C24 C -0.3062(2) -0.4464(2) -1.7277(2)
H32 H -0.3475 -0.4816 -1.6796
H33 H -0.2857 -0.4802 -1.7883
H34 H -0.3522 -0.3852 -1.7299
C25 C -0.2428(3) -0.7941(2) -1.4726(2)
H35 H -0.1742 -0.8204 -1.4551
C26 C -0.2493(2) -0.6913(2) -1.48833(18)
H36 H -0.2456 -0.6600 -1.4315
H37 H -0.3217 -0.6643 -1.4978
C27 C -0.1177(3) -0.2758(2) -1.4506(2)
H38 H -0.0747 -0.3394 -1.4547
H39 H -0.1549 -0.2558 -1.3851
H40 H -0.0685 -0.2342 -1.4785
C28 C -0.1640(3) -0.8825(2) -1.7308(2)
H41 H -0.2272 -0.8446 -1.7465
H42 H -0.1778 -0.9448 -1.7164
H43 H -0.0976 -0.8873 -1.7837
C29 C -0.0473(2) -0.6888(2) -1.5468(2)
H44 H -0.0405 -0.6322 -1.5167
H45 H 0.0148 -0.7064 -1.6033
H46 H -0.0467 -0.7392 -1.5039
C30 C -0.1224(3) -0.2517(2) -1.6830(2)
O7 O -0.47984(16) -1.26384(15) -0.97023(14)
H47 H -0.4379 -1.3081 -1.0064
O8 O -0.53158(17) -0.87531(17) -1.02812(15)
H48 H -0.5077 -0.8317 -1.0579
O9 O -0.54413(18) -0.88103(17) -0.84586(15)
H49 H -0.5656 -0.8444 -0.7984
O10 O -0.58873(17) -1.35197(15) -0.87338(14)
O11 O -0.73414(19) -1.57744(17) -0.93885(17)
O12 O -0.9008(2) -1.4959(2) -0.93837(17)
C31 C -0.7170(2) -1.0183(2) -0.93354(19)
C32 C -0.4569(3) -1.5187(2) -0.9541(3)
H50 H -0.4443 -1.4838 -1.0106
H51 H -0.4156 -1.5830 -0.9690
H52 H -0.4319 -1.4899 -0.9076
C33 C -0.7298(2) -0.8524(2) -1.0034(2)
C34 C -0.6780(2) -1.1225(2) -0.97210(19)
H53 H -0.6016 -1.1266 -1.0142
C35 C -0.6359(2) -0.8395(2) -0.9630(2)
H54 H -0.6429 -0.7718 -0.9489
C36 C -0.6634(2) -1.1897(2) -0.89578(18)
H55 H -0.6313 -1.1620 -0.8529
H56 H -0.7359 -1.2013 -0.8594
C37 C -0.8593(2) -1.1664(2) -0.9792(2)
H57 H -0.9058 -1.1041 -0.9616
H58 H -0.8573 -1.2000 -0.9230
H59 H -0.8897 -1.2003 -1.0181
C38 C -0.7986(2) -0.9853(2) -1.0678(2)
H60 H -0.8052 -0.9428 -1.1183
H61 H -0.8727 -0.9794 -1.0228
C39 C -0.6679(2) -1.2555(2) -1.08443(19)
C40 C -0.7328(2) -1.4433(2) -1.0248(2)
C41 C -0.7407(2) -1.1582(2) -1.03450(19)
C42 C -0.6255(2) -1.3218(2) -1.0159(2)
H62 H -0.5607 -1.3683 -1.0545
C43 C -0.5796(3) -1.5178(2) -0.9151(2)
H63 H -0.5882 -1.5538 -0.8577
C44 C -0.8415(3) -0.7998(2) -0.9403(2)
H64 H -0.8409 -0.7335 -0.9359
H65 H -0.8547 -0.8242 -0.8781
H66 H -0.9002 -0.8081 -0.9666
C45 C -0.6287(3) -1.5185(2) -1.0697(2)
H67 H -0.6398 -1.5587 -1.1172
H68 H -0.5635 -1.4912 -1.0976
C46 C -0.7266(2) -1.3105(2) -1.1374(2)
H69 H -0.7784 -1.2642 -1.1606
H70 H -0.6695 -1.3435 -1.1928
C47 C -0.6193(3) -1.5703(2) -0.9832(2)
H71 H -0.5710 -1.6335 -1.0013
C48 C -0.8033(3) -1.5048(2) -0.9637(2)
C49 C -0.6547(2) -1.4183(2) -0.8843(2)
C50 C -0.5632(2) -1.2407(2) -1.1615(2)
H72 H -0.5213 -1.2062 -1.1342
H73 H -0.5856 -1.2053 -1.2108
H74 H -0.5169 -1.3012 -1.1878
C51 C -0.6369(2) -0.8916(2) -0.8753(2)
H75 H -0.7067 -0.8662 -0.8251
C52 C -0.6271(2) -0.9950(2) -0.89379(19)
H76 H -0.6307 -1.0265 -0.8348
H77 H -0.5538 -1.0206 -0.9382
C53 C -0.8266(2) -1.0025(2) -0.8537(2)
H78 H -0.8295 -1.0582 -0.8177
H79 H -0.8889 -0.9899 -0.8800
H80 H -0.8309 -0.9493 -0.8129
C54 C -0.7074(2) -1.3767(2) -0.9595(2)
H81 H -0.7775 -1.3318 -0.9278
C55 C -0.7198(2) -0.9581(2) -1.01896(19)
H82 H -0.6450 -0.9797 -1.0642
C56 C -0.7384(3) -1.4199(2) -0.7899(2)
H83 H -0.7883 -1.3588 -0.7738
H84 H -0.6998 -1.4347 -0.7425
H85 H -0.7811 -1.4672 -0.7925
C57 C -0.7125(3) -0.8061(2) -1.0975(2)
H86 H -0.6465 -0.8418 -1.1429
H87 H -0.7032 -0.7425 -1.0894
H88 H -0.7769 -0.8045 -1.1199
C58 C -0.7551(2) -1.0857(2) -1.1086(2)
H89 H -0.6831 -1.0897 -1.1561
H90 H -0.8068 -1.1020 -1.1402
C59 C -0.7914(3) -1.3823(2) -1.0857(2)
H91 H -0.8643 -1.3488 -1.0462
H92 H -0.8041 -1.4227 -1.1322
C60 C -0.5875(2) -1.2807(2) -0.94066(19)
O13 O -0.30900(18) -0.40608(16) -1.28616(15)
H93 H -0.2857 -0.3850 -1.3386
O14 O -0.13792(18) -1.17542(17) -1.19613(17)
O15 O -0.40356(16) -0.77450(16) -1.14871(14)
H94 H -0.4205 -0.7404 -1.1896
O16 O 0.02223(19) -1.14888(19) -1.18536(19)
O17 O -0.29260(17) -0.89490(15) -1.25323(14)
O18 O -0.31979(18) -0.37515(17) -1.11376(15)
H95 H -0.3637 -0.3551 -1.1446
C61 C -0.2555(3) -1.1312(2) -1.1587(2)
H96 H -0.3018 -1.1792 -1.1466
C62 C -0.2035(2) -0.7001(2) -1.15036(19)
H97 H -0.2803 -0.6744 -1.1103
C63 C -0.2172(2) -0.7613(2) -1.2268(2)
H98 H -0.2469 -0.7215 -1.2710
H99 H -0.1445 -0.7993 -1.2618
C64 C -0.1545(2) -0.5539(2) -1.1040(2)
H100 H -0.2318 -0.5424 -1.0618
C65 C -0.1301(2) -0.4548(2) -1.1245(2)
C66 C -0.0108(3) -0.4541(3) -1.1825(3)
H101 H 0.0013 -0.4776 -1.2464
H102 H 0.0409 -0.4938 -1.1548
H103 H 0.0011 -0.3904 -1.1832
C67 C -0.2951(2) -0.8245(2) -1.1838(2)
C68 C -0.1451(2) -0.7608(2) -1.0846(2)
C69 C -0.1362(3) -0.6944(2) -1.0092(2)
H104 H -0.2110 -0.6702 -0.9666
H105 H -0.0913 -0.7302 -0.9722
C70 C -0.2887(3) -1.0631(2) -1.2286(2)
H106 H -0.2676 -1.0998 -1.2893
C71 C -0.1567(2) -0.6130(2) -1.18897(19)
C72 C -0.0849(3) -0.6121(2) -1.0480(2)
H107 H -0.0088 -0.6352 -1.0887
H108 H -0.0813 -0.5729 -0.9961
C73 C -0.1508(3) -0.3995(3) -1.0317(2)
H109 H -0.0916 -0.4239 -1.0039
H110 H -0.2217 -0.4058 -0.9889
H111 H -0.1521 -0.3338 -1.0435
C74 C -0.2084(2) -0.4027(2) -1.1765(2)
H112 H -0.1823 -0.3451 -1.1999
C75 C -0.2217(2) -0.9838(2) -1.2460(2)
C76 C -0.1749(2) -0.9647(2) -1.1661(2)
H113 H -0.1037 -0.9446 -1.1937
C77 C -0.0769(3) -1.1264(2) -1.1637(2)
C78 C -0.2204(2) -0.8326(2) -1.0387(2)
C79 C -0.2587(3) -1.0844(3) -1.0672(2)
H114 H -0.2521 -1.1299 -1.0192
H115 H -0.3263 -1.0355 -1.0427
C80 C -0.3270(3) -0.7822(2) -0.9642(2)
H116 H -0.3611 -0.7264 -0.9897
H117 H -0.3084 -0.7644 -0.9089
H118 H -0.3788 -0.8239 -0.9472
C81 C -0.0450(2) -0.6404(2) -1.2652(2)
H119 H -0.0443 -0.6957 -1.3015
H120 H 0.0148 -0.6538 -1.2361
H121 H -0.0347 -0.5890 -1.3064
C82 C -0.1034(3) -1.0063(2) -1.0339(2)
H122 H -0.0276 -1.0005 -1.0682
H123 H -0.0978 -1.0525 -0.9863
C83 C -0.1676(3) -0.9114(2) -0.9839(2)
H124 H -0.1169 -0.8857 -0.9577
H125 H -0.2278 -0.9237 -0.9305
C84 C -0.0262(2) -0.8125(2) -1.1360(2)
H126 H 0.0235 -0.7688 -1.1456
H127 H -0.0243 -0.8386 -1.1964
H128 H -0.0023 -0.8627 -1.0985
C85 C -0.4139(3) -1.0290(3) -1.2015(3)
H129 H -0.4380 -0.9870 -1.1457
H130 H -0.4495 -1.0824 -1.1887
H131 H -0.4344 -0.9959 -1.2528
C86 C -0.2588(2) -0.8816(2) -1.1094(2)
H132 H -0.3239 -0.9062 -1.0728
C87 C -0.2404(2) -0.5533(2) -1.2331(2)
H133 H -0.2397 -0.5871 -1.2901
H134 H -0.3153 -0.5457 -1.1889
C88 C -0.2173(2) -0.4571(2) -1.2582(2)
H135 H -0.1479 -0.4634 -1.3109
C89 C -0.1320(3) -1.0061(2) -1.3403(2)
H136 H -0.0906 -0.9563 -1.3531
H137 H -0.1666 -1.0112 -1.3897
H138 H -0.0816 -1.0651 -1.3382
C90 C -0.1551(2) -1.0433(2) -1.1022(2)
O19 O -0.56176(18) -1.27715(16) -0.71981(15)
H139 H -0.5847 -1.3060 -0.7557
O20 O -0.58003(17) -0.79292(15) -0.67919(15)
O21 O -0.47314(17) -0.91504(16) -0.62663(15)
H140 H -0.4576 -0.9516 -0.6736
O22 O -0.54333(18) -1.30679(17) -0.55446(15)
H141 H -0.4994 -1.3188 -0.6083
C91 C -0.7069(3) -1.2896(3) -0.3866(2)
H142 H -0.6345 -1.2825 -0.3832
H143 H -0.7056 -1.3555 -0.3970
H144 H -0.7631 -1.2653 -0.3281
C92 C -0.5836(2) -0.6239(2) -0.6588(2)
H145 H -0.6076 -0.5869 -0.7081
O23 O -0.8898(3) -0.5373(2) -0.4590(3)
O24 O -0.7295(2) -0.51186(17) -0.55039(19)
C93 C -0.7421(3) -0.9937(3) -0.3565(2)
H146 H -0.6675 -1.0161 -0.3495
H147 H -0.7890 -0.9587 -0.2980
C94 C -0.6559(2) -1.2849(2) -0.5599(2)
H148 H -0.6783 -1.3443 -0.5696
C95 C -0.7341(3) -0.9267(2) -0.4375(2)
C96 C -0.6750(2) -0.9862(2) -0.53056(19)
H149 H -0.5982 -1.0109 -0.5276
C97 C -0.7347(2) -1.2350(2) -0.4678(2)
C98 C -0.5813(2) -0.8632(2) -0.6097(2)
C99 C -0.6504(2) -0.7033(2) -0.6392(2)
C100 C -0.8534(3) -0.8762(3) -0.4302(2)
H150 H -0.8824 -0.8338 -0.3746
H151 H -0.8996 -0.9220 -0.4259
H152 H -0.8538 -0.8407 -0.4856
C101 C -0.6540(2) -1.2291(2) -0.6454(2)
H153 H -0.7242 -1.2255 -0.6620
C102 C -0.6611(2) -0.9249(2) -0.61431(19)
H154 H -0.6322 -0.9643 -0.6729
H155 H -0.7335 -0.8859 -0.6134
C103 C -0.6972(2) -0.7212(2) -0.5351(2)
H156 H -0.7705 -0.7380 -0.5260
C104 C -0.7403(3) -0.6826(3) -0.6885(3)
H157 H -0.7802 -0.7334 -0.6803
H158 H -0.7065 -0.6767 -0.7550
H159 H -0.7919 -0.6243 -0.6616
C105 C -0.6060(4) -0.6049(3) -0.4846(3)
H160 H -0.6084 -0.5604 -0.4345
H161 H -0.5392 -0.6551 -0.4954
C106 C -0.7908(4) -0.5598(3) -0.4860(3)
C107 C -0.7190(2) -1.0749(2) -0.5463(2)
C108 C -0.4596(3) -0.6587(3) -0.6972(3)
H162 H -0.4428 -0.6950 -0.7560
H163 H -0.4325 -0.6981 -0.6523
H164 H -0.4234 -0.6056 -0.7081
C109 C -0.7169(2) -1.1342(2) -0.4610(2)
H165 H -0.6398 -1.1421 -0.4570
C110 C -0.6129(3) -0.5570(2) -0.5733(2)
H166 H -0.5659 -0.5094 -0.5858
C111 C -0.6356(2) -1.1317(2) -0.6324(2)
H167 H -0.6398 -1.0974 -0.6887
H168 H -0.5603 -1.1367 -0.6269
C112 C -0.6589(3) -0.8534(2) -0.4278(2)
C113 C -0.8313(2) -1.0496(2) -0.5674(2)
H169 H -0.8360 -0.9914 -0.5996
H170 H -0.8912 -1.0419 -0.5090
H171 H -0.8378 -1.0994 -0.6071
C114 C -0.8525(3) -1.2413(3) -0.4646(3)
H172 H -0.9047 -1.2061 -0.4090
H173 H -0.8589 -1.3065 -0.4623
H174 H -0.8691 -1.2152 -0.5204
C115 C -0.6174(2) -0.8062(2) -0.5175(2)
H175 H -0.5513 -0.7837 -0.5125
C116 C -0.5557(4) -0.9032(3) -0.4011(4)
H176 H -0.5186 -0.9583 -0.4430
H177 H -0.5779 -0.9220 -0.3368
H178 H -0.5051 -0.8607 -0.4064
C117 C -0.7895(3) -1.0776(3) -0.3706(2)
H179 H -0.8657 -1.0563 -0.3745
H180 H -0.7923 -1.1173 -0.3168
C118 C -0.7159(6) -0.7729(3) -0.3514(3)
H181 H -0.7754 -0.7954 -0.3051
H182 H -0.6606 -0.7662 -0.3193
C119 C -0.7113(3) -0.6430(3) -0.4639(3)
C120 C -0.7634(6) -0.6805(3) -0.3709(3)
H183 H -0.7622 -0.6373 -0.3212
H184 H -0.8417 -0.6784 -0.3661
O25 O -0.39145(19) -1.01213(18) -0.79277(17)
H185 H -0.4332 -0.9793 -0.8208
H186 H -0.3859 -1.0694 -0.8070
O26 O -0.48264(19) -0.66840(18) -1.27156(16)
H187 H -0.5124 -0.6976 -1.2263
H188 H -0.4404 -0.7029 -1.3174
O27 O -0.4788(2) -0.48502(19) -1.31312(18)
H189 H -0.5440 -0.4518 -1.2932
H190 H -0.4844 -0.5423 -1.3117
O28 O -0.3918(2) -1.1975(2) -0.83201(18)
H191 H -0.4045 -1.2114 -0.8825
H192 H -0.4361 -1.2197 -0.7878
loop_
_geom_bond_atom_site_label_1
_geom_bond_atom_site_label_2
_geom_bond_site_symmetry_1
_geom_bond_site_symmetry_2
O1 H1 1_555 1_555
O2 H2 1_555 1_555
O3 C8 1_555 1_555
O4 C3 1_555 1_555
O5 H3 1_555 1_555
O6 C22 1_555 1_555
C1 C4 1_555 1_555
C2 O1 1_555 1_555
H4 C2 1_555 1_555
C3 O2 1_555 1_555
C4 H5 1_555 1_555
H6 C4 1_555 1_555
C5 C7 1_555 1_555
C6 H7 1_555 1_555
C7 C1 1_555 1_555
H8 C7 1_555 1_555
C8 H9 1_555 1_555
C9 C5 1_555 1_555
H10 C9 1_555 1_555
C10 C4 1_555 1_555
H11 C10 1_555 1_555
H12 C10 1_555 1_555
C11 C3 1_555 1_555
H13 C11 1_555 1_555
H14 C11 1_555 1_555
C12 C8 1_555 1_555
H15 C12 1_555 1_555
C13 C2 1_555 1_555
C14 C12 1_555 1_555
H16 C14 1_555 1_555
H17 C14 1_555 1_555
H18 C14 1_555 1_555
C15 O4 1_555 1_555
C16 C1 1_555 1_555
C17 C8 1_555 1_555
H19 C17 1_555 1_555
H20 C17 1_555 1_555
C18 C13 1_555 1_555
H21 C18 1_555 1_555
H22 C18 1_555 1_555
H23 C18 1_555 1_555
C19 C3 1_555 1_555
H24 C19 1_555 1_555
C20 C1 1_555 1_555
H25 C20 1_555 1_555
H26 C20 1_555 1_555
H27 C20 1_555 1_555
C21 H28 1_555 1_555
H29 C21 1_555 1_555
C22 O3 1_555 1_555
C23 C16 1_555 1_555
H30 C23 1_555 1_555
H31 C23 1_555 1_555
C24 C16 1_555 1_555
H32 C24 1_555 1_555
H33 C24 1_555 1_555
H34 C24 1_555 1_555
C25 O5 1_555 1_555
H35 C25 1_555 1_555
C26 C5 1_555 1_555
H36 C26 1_555 1_555
H37 C26 1_555 1_555
C27 C15 1_555 1_555
H38 C27 1_555 1_555
H39 C27 1_555 1_555
H40 C27 1_555 1_555
C28 C13 1_555 1_555
H41 C28 1_555 1_555
H42 C28 1_555 1_555
H43 C28 1_555 1_555
C29 C5 1_555 1_555
H44 C29 1_555 1_555
H45 C29 1_555 1_555
H46 C29 1_555 1_555
C30 C6 1_555 1_555
O7 H47 1_555 1_555
O8 H48 1_555 1_555
O9 H49 1_555 1_555
O10 C49 1_555 1_555
O11 C47 1_555 1_555
O12 C48 1_555 1_555
C31 C34 1_555 1_555
C32 H50 1_555 1_555
H51 C32 1_555 1_555
H52 C32 1_555 1_555
C33 C35 1_555 1_555
C34 H53 1_555 1_555
C35 O8 1_555 1_555
H54 C35 1_555 1_555
C36 C34 1_555 1_555
H55 C36 1_555 1_555
H56 C36 1_555 1_555
C37 H57 1_555 1_555
H58 C37 1_555 1_555
H59 C37 1_555 1_555
C38 H60 1_555 1_555
H61 C38 1_555 1_555
C39 C41 1_555 1_555
C40 C45 1_555 1_555
C41 C34 1_555 1_555
C42 C39 1_555 1_555
H62 C42 1_555 1_555
C43 C32 1_555 1_555
H63 C43 1_555 1_555
C44 C33 1_555 1_555
H64 C44 1_555 1_555
H65 C44 1_555 1_555
H66 C44 1_555 1_555
C45 H67 1_555 1_555
H68 C45 1_555 1_555
C46 C39 1_555 1_555
H69 C46 1_555 1_555
H70 C46 1_555 1_555
C47 C43 1_555 1_555
H71 C47 1_555 1_555
C48 O11 1_555 1_555
C49 C43 1_555 1_555
C50 C39 1_555 1_555
H72 C50 1_555 1_555
H73 C50 1_555 1_555
H74 C50 1_555 1_555
C51 O9 1_555 1_555
H75 C51 1_555 1_555
C52 C31 1_555 1_555
H76 C52 1_555 1_555
H77 C52 1_555 1_555
C53 C31 1_555 1_555
H78 C53 1_555 1_555
H79 C53 1_555 1_555
H80 C53 1_555 1_555
C54 C40 1_555 1_555
H81 C54 1_555 1_555
C55 C31 1_555 1_555
H82 C55 1_555 1_555
C56 C49 1_555 1_555
H83 C56 1_555 1_555
H84 C56 1_555 1_555
H85 C56 1_555 1_555
C57 C33 1_555 1_555
H86 C57 1_555 1_555
H87 C57 1_555 1_555
H88 C57 1_555 1_555
C58 C38 1_555 1_555
H89 C58 1_555 1_555
H90 C58 1_555 1_555
C59 C40 1_555 1_555
H91 C59 1_555 1_555
H92 C59 1_555 1_555
C60 O7 1_555 1_555
O13 H93 1_555 1_555
O14 C61 1_555 1_555
O15 H94 1_555 1_555
O16 C77 1_555 1_555
O17 C67 1_555 1_555
O18 H95 1_555 1_555
C61 H96 1_555 1_555
C62 H97 1_555 1_555
C63 C62 1_555 1_555
H98 C63 1_555 1_555
H99 C63 1_555 1_555
C64 H100 1_555 1_555
C65 C64 1_555 1_555
C66 C65 1_555 1_555
H101 C66 1_555 1_555
H102 C66 1_555 1_555
H103 C66 1_555 1_555
C67 O15 1_555 1_555
C68 C62 1_555 1_555
C69 C68 1_555 1_555
H104 C69 1_555 1_555
H105 C69 1_555 1_555
C70 C61 1_555 1_555
H106 C70 1_555 1_555
C71 C62 1_555 1_555
C72 C64 1_555 1_555
H107 C72 1_555 1_555
H108 C72 1_555 1_555
C73 C65 1_555 1_555
H109 C73 1_555 1_555
H110 C73 1_555 1_555
H111 C73 1_555 1_555
C74 O18 1_555 1_555
H112 C74 1_555 1_555
C75 O17 1_555 1_555
C76 C75 1_555 1_555
H113 C76 1_555 1_555
C77 O14 1_555 1_555
C78 C68 1_555 1_555
C79 C61 1_555 1_555
H114 C79 1_555 1_555
H115 C79 1_555 1_555
C80 C78 1_555 1_555
H116 C80 1_555 1_555
H117 C80 1_555 1_555
H118 C80 1_555 1_555
C81 C71 1_555 1_555
H119 C81 1_555 1_555
H120 C81 1_555 1_555
H121 C81 1_555 1_555
C82 H122 1_555 1_555
H123 C82 1_555 1_555
C83 C78 1_555 1_555
H124 C83 1_555 1_555
H125 C83 1_555 1_555
C84 C68 1_555 1_555
H126 C84 1_555 1_555
H127 C84 1_555 1_555
H128 C84 1_555 1_555
C85 C70 1_555 1_555
H129 C85 1_555 1_555
H130 C85 1_555 1_555
H131 C85 1_555 1_555
C86 C67 1_555 1_555
H132 C86 1_555 1_555
C87 C71 1_555 1_555
H133 C87 1_555 1_555
H134 C87 1_555 1_555
C88 O13 1_555 1_555
H135 C88 1_555 1_555
C89 C75 1_555 1_555
H136 C89 1_555 1_555
H137 C89 1_555 1_555
H138 C89 1_555 1_555
C90 C76 1_555 1_555
O19 H139 1_555 1_555
O20 C98 1_555 1_555
O21 H140 1_555 1_555
O22 H141 1_555 1_555
C91 H142 1_555 1_555
H143 C91 1_555 1_555
H144 C91 1_555 1_555
C92 H145 1_555 1_555
O23 C106 1_555 1_555
O24 C106 1_555 1_555
C93 H146 1_555 1_555
H147 C93 1_555 1_555
C94 O22 1_555 1_555
H148 C94 1_555 1_555
C95 C93 1_555 1_555
C96 C95 1_555 1_555
H149 C96 1_555 1_555
C97 C91 1_555 1_555
C98 O21 1_555 1_555
C99 O20 1_555 1_555
C100 C95 1_555 1_555
H150 C100 1_555 1_555
H151 C100 1_555 1_555
H152 C100 1_555 1_555
C101 O19 1_555 1_555
H153 C101 1_555 1_555
C102 C96 1_555 1_555
H154 C102 1_555 1_555
H155 C102 1_555 1_555
C103 C99 1_555 1_555
H156 C103 1_555 1_555
C104 C99 1_555 1_555
H157 C104 1_555 1_555
H158 C104 1_555 1_555
H159 C104 1_555 1_555
C105 H160 1_555 1_555
H161 C105 1_555 1_555
C106 C119 1_555 1_555
C107 C96 1_555 1_555
C108 C92 1_555 1_555
H162 C108 1_555 1_555
H163 C108 1_555 1_555
H164 C108 1_555 1_555
C109 C97 1_555 1_555
H165 C109 1_555 1_555
C110 C92 1_555 1_555
H166 C110 1_555 1_555
C111 C101 1_555 1_555
H167 C111 1_555 1_555
H168 C111 1_555 1_555
C112 C95 1_555 1_555
C113 C107 1_555 1_555
H169 C113 1_555 1_555
H170 C113 1_555 1_555
H171 C113 1_555 1_555
C114 C97 1_555 1_555
H172 C114 1_555 1_555
H173 C114 1_555 1_555
H174 C114 1_555 1_555
C115 C98 1_555 1_555
H175 C115 1_555 1_555
C116 C112 1_555 1_555
H176 C116 1_555 1_555
H177 C116 1_555 1_555
H178 C116 1_555 1_555
C117 C93 1_555 1_555
H179 C117 1_555 1_555
H180 C117 1_555 1_555
C118 C112 1_555 1_555
H181 C118 1_555 1_555
H182 C118 1_555 1_555
C119 C103 1_555 1_555
C120 C118 1_555 1_555
H183 C120 1_555 1_555
H184 C120 1_555 1_555
O25 H185 1_555 1_555
H186 O25 1_555 1_555
O26 H187 1_555 1_555
H188 O26 1_555 1_555
O27 H189 1_555 1_555
H190 O27 1_555 1_555
O28 H191 1_555 1_555
H192 O28 1_555 1_555
C2 C25 1_555 1_555
C6 C15 1_555 1_555
C6 C19 1_555 1_555
C7 C11 1_555 1_555
C9 C10 1_555 1_555
C9 C13 1_555 1_555
C12 C15 1_555 1_555
C16 C19 1_555 1_555
C17 C30 1_555 1_555
C21 C23 1_555 1_555
C21 C30 1_555 1_555
C22 C30 1_555 1_555
C25 C26 1_555 1_555
O10 C60 1_555 1_555
C33 C55 1_555 1_555
C35 C51 1_555 1_555
C36 C60 1_555 1_555
C37 C41 1_555 1_555
C38 C55 1_555 1_555
C40 C48 1_555 1_555
C41 C58 1_555 1_555
C42 C54 1_555 1_555
C42 C60 1_555 1_555
C45 C47 1_555 1_555
C46 C59 1_555 1_555
C49 C54 1_555 1_555
C51 C52 1_555 1_555
C63 C67 1_555 1_555
C64 C71 1_555 1_555
C65 C74 1_555 1_555
C69 C72 1_555 1_555
C70 C75 1_555 1_555
C74 C88 1_555 1_555
C76 C86 1_555 1_555
C77 C90 1_555 1_555
C78 C86 1_555 1_555
C79 C90 1_555 1_555
C82 C83 1_555 1_555
C82 C90 1_555 1_555
C87 C88 1_555 1_555
C92 C99 1_555 1_555
O24 C110 1_555 1_555
C94 C97 1_555 1_555
C94 C101 1_555 1_555
C98 C102 1_555 1_555
C103 C115 1_555 1_555
C105 C110 1_555 1_555
C105 C119 1_555 1_555
C107 C109 1_555 1_555
C107 C111 1_555 1_555
C109 C117 1_555 1_555
C112 C115 1_555 1_555
C119 C120 1_555 1_555

#END
