
#######################################################################
#
#                 Cambridge Crystallographic Data Centre
#                                CCDC 
#
#######################################################################
#
# If this CIF has been generated from an entry in the Cambridge 
# Structural Database, then it will include bibliographic, chemical, 
# crystal, experimental, refinement or atomic coordinate data resulting 
# from the CCDC's data processing and validation procedures.
#
#######################################################################

data_DOXRAL
_chemical_compound_source        'root bark of Acanthopanax gracilistylus'
_chemical_name_common            
'(4R,5S,9S,10S,13R)-7-Oxo-entpimara-8(14),15-dien-19-oic acid monohydrate'
_chemical_formula_moiety         'C20 H30 O4,H2 O1'
_chemical_name_systematic        
'17-Hydroxy-15,16-epoxykauran-18-oic acid monohydrate'
_chemical_properties_biological  
'inhibitory effects on the release of interleukin-1  (IL-1 ), interleukin-8 (IL-8), and tumor necrosis factor (TNF- ) in lipopolysaccharide (LPS)-stimulated peripheral blood mononuclear cells (PBMCs).'
_symmetry_cell_setting           monoclinic
_symmetry_space_group_name_H-M   'P 21'
_symmetry_Int_Tables_number      4
_space_group_name_Hall           'P 2yb'
loop_
_symmetry_equiv_pos_site_id
_symmetry_equiv_pos_as_xyz
1 x,y,z
2 -x,1/2+y,-z
_cell_length_a                   11.0976(10)
_cell_length_b                   7.2658(7)
_cell_length_c                   11.7175(11)
_cell_angle_alpha                90
_cell_angle_beta                 105.180(7)
_cell_angle_gamma                90
_cell_volume                     911.85
_exptl_crystal_colour            colorless
_exptl_crystal_description       plate
_cell_formula_units_Z            2
loop_
_atom_site_label
_atom_site_type_symbol
_atom_site_fract_x
_atom_site_fract_y
_atom_site_fract_z
O1 O 1.3454(3) 1.1863(4) 0.3163(3)
O2 O 1.4772(3) 0.8164(4) 0.3199(2)
H1 H 1.4751 0.8943 0.2688
O3 O 0.6768(3) 1.2858(4) 0.1930(2)
H2 H 0.6237 1.3313 0.2217
O4 O 0.5468(3) 1.0485(4) 0.1644(3)
C1 C 0.8571(4) 0.7186(5) 0.1795(4)
H3 H 0.8980 0.6768 0.1205
H4 H 0.8792 0.6338 0.2456
C2 C 0.7155(4) 0.7115(5) 0.1264(4)
H5 H 0.6921 0.5892 0.0951
H6 H 0.6739 0.7346 0.1881
C3 C 0.6722(4) 0.8516(5) 0.0286(4)
H7 H 0.5818 0.8483 0.0019
H8 H 0.7047 0.8175 -0.0377
C4 C 0.7135(4) 1.0473(5) 0.0661(3)
C5 C 0.8579(3) 1.0495(5) 0.1182(3)
H9 H 0.8906 1.0014 0.0541
C6 C 0.9191(4) 1.2391(5) 0.1451(3)
H10 H 0.8827 1.3237 0.0813
H11 H 0.9043 1.2874 0.2174
C7 C 1.0581(4) 1.2226(5) 0.1586(3)
H12 H 1.0961 1.3434 0.1739
H13 H 1.0721 1.1774 0.0852
C8 C 1.1207(4) 1.0929(4) 0.2590(3)
C9 C 1.0528(4) 0.9041(5) 0.2480(3)
H14 H 1.0686 0.8469 0.1775
C10 C 0.9068(4) 0.9109(5) 0.2224(3)
C11 C 1.1187(4) 0.7752(5) 0.3522(3)
H15 H 1.0579 0.6859 0.3637
H16 H 1.1836 0.7078 0.3286
C12 C 1.1780(4) 0.8682(6) 0.4729(4)
H17 H 1.1138 0.8886 0.5139
H18 H 1.2398 0.7859 0.5208
C13 C 1.2403(4) 1.0517(6) 0.4598(3)
H19 H 1.2821 1.1070 0.5362
C14 C 1.1411(4) 1.1767(5) 0.3842(3)
H20 H 1.1704 1.3028 0.3865
H21 H 1.0649 1.1735 0.4100
C15 C 1.2546(4) 1.0485(5) 0.2595(3)
H22 H 1.2708 0.9731 0.1958
C16 C 1.3298(4) 1.0203(5) 0.3809(3)
C17 C 1.4410(4) 0.8981(6) 0.4167(4)
H23 H 1.5106 0.9691 0.4634
H24 H 1.4234 0.8010 0.4668
C18 C 0.8625(4) 0.9608(5) 0.3327(3)
H25 H 0.7759 0.9295 0.3194
H26 H 0.8732 1.0905 0.3478
H27 H 0.9108 0.8936 0.3997
C19 C 0.6763(4) 1.1705(6) -0.0461(3)
H28 H 0.7203 1.1305 -0.1021
H29 H 0.6976 1.2962 -0.0246
H30 H 0.5880 1.1610 -0.0809
C20 C 0.6385(4) 1.1243(5) 0.1479(3)
O5 O 0.5264(3) 0.4388(4) 0.3008(2)
H31 H 0.5202 0.5554 0.2991
H32 H 0.4515 0.4111 0.2991
loop_
_geom_bond_atom_site_label_1
_geom_bond_atom_site_label_2
_geom_bond_site_symmetry_1
_geom_bond_site_symmetry_2
O1 C15 1_555 1_555
O2 H1 1_555 1_555
O3 H2 1_555 1_555
O4 C20 1_555 1_555
C1 H3 1_555 1_555
H4 C1 1_555 1_555
C2 C1 1_555 1_555
H5 C2 1_555 1_555
H6 C2 1_555 1_555
C3 C2 1_555 1_555
H7 C3 1_555 1_555
H8 C3 1_555 1_555
C4 C3 1_555 1_555
C5 C4 1_555 1_555
H9 C5 1_555 1_555
C6 C5 1_555 1_555
H10 C6 1_555 1_555
H11 C6 1_555 1_555
C7 C6 1_555 1_555
H12 C7 1_555 1_555
H13 C7 1_555 1_555
C8 C7 1_555 1_555
C9 C8 1_555 1_555
H14 C9 1_555 1_555
C10 C1 1_555 1_555
C11 C9 1_555 1_555
H15 C11 1_555 1_555
H16 C11 1_555 1_555
C12 C11 1_555 1_555
H17 C12 1_555 1_555
H18 C12 1_555 1_555
C13 C12 1_555 1_555
H19 C13 1_555 1_555
C14 C8 1_555 1_555
H20 C14 1_555 1_555
H21 C14 1_555 1_555
C15 C8 1_555 1_555
H22 C15 1_555 1_555
C16 O1 1_555 1_555
C17 O2 1_555 1_555
H23 C17 1_555 1_555
H24 C17 1_555 1_555
C18 C10 1_555 1_555
H25 C18 1_555 1_555
H26 C18 1_555 1_555
H27 C18 1_555 1_555
C19 C4 1_555 1_555
H28 C19 1_555 1_555
H29 C19 1_555 1_555
H30 C19 1_555 1_555
C20 O3 1_555 1_555
O5 H31 1_555 1_555
H32 O5 1_555 1_555
C4 C20 1_555 1_555
C5 C10 1_555 1_555
C9 C10 1_555 1_555
C13 C14 1_555 1_555
C13 C16 1_555 1_555
C15 C16 1_555 1_555
C16 C17 1_555 1_555

#END
