
#######################################################################
#
#                 Cambridge Crystallographic Data Centre
#                                CCDC 
#
#######################################################################
#
# If this CIF has been generated from an entry in the Cambridge 
# Structural Database, then it will include bibliographic, chemical, 
# crystal, experimental, refinement or atomic coordinate data resulting 
# from the CCDC's data processing and validation procedures.
#
#######################################################################

data_DOXYOG
_chemical_formula_moiety         'C40 H26 O4'
_chemical_name_systematic        
2'-benzoyl-4'-hydroxy-4'-phenyl-2H,2''H-dispiro[acenaphthylene-1,1'-cyclopentane-3',1''-acenaphthylene]-2,2''-dione
_symmetry_cell_setting           triclinic
_symmetry_space_group_name_H-M   'P -1'
_symmetry_Int_Tables_number      2
_space_group_name_Hall           '-P 1'
loop_
_symmetry_equiv_pos_site_id
_symmetry_equiv_pos_as_xyz
1 x,y,z
2 -x,-y,-z
_cell_length_a                   9.7277(9)
_cell_length_b                   10.6312(9)
_cell_length_c                   15.0319(15)
_cell_angle_alpha                96.048(3)
_cell_angle_beta                 103.354(4)
_cell_angle_gamma                107.619(3)
_cell_volume                     1415.59
_exptl_crystal_colour            colorless
_exptl_crystal_description       block
_cell_formula_units_Z            2
loop_
_atom_site_label
_atom_site_type_symbol
_atom_site_fract_x
_atom_site_fract_y
_atom_site_fract_z
O1 O 0.4710(6) 0.7274(4) 0.0855(3)
O2 O 0.5667(6) 0.6026(5) 0.4151(3)
O3 O 0.7376(5) 0.8727(4) 0.4293(3)
H1 H 0.7184 0.7929 0.4086
O4 O 0.4435(5) 0.9717(4) 0.1908(3)
C1 C 0.3461(9) 0.2349(7) 0.0757(6)
H2 H 0.3124 0.1416 0.0601
C2 C 0.4534(11) 0.2995(7) 0.1577(6)
H3 H 0.4949 0.2502 0.1968
C3 C 0.5004(9) 0.4385(7) 0.1828(5)
H4 H 0.5715 0.4818 0.2393
C4 C 0.4418(7) 0.5133(6) 0.1241(4)
C5 C 0.4880(6) 0.6621(5) 0.1461(4)
C6 C 0.5550(6) 0.7317(5) 0.2470(4)
H5 H 0.6274 0.6897 0.2746
C7 C 0.6415(6) 0.8849(5) 0.2669(4)
C8 C 0.6390(7) 0.9234(6) 0.3707(4)
C9 C 0.6916(8) 1.0746(6) 0.4078(4)
C10 C 0.6021(9) 1.1532(7) 0.3867(5)
H6 H 0.5042 1.1133 0.3488
C11 C 0.6566(10) 1.2908(7) 0.4215(6)
H7 H 0.5957 1.3421 0.4053
C12 C 0.7984(12) 1.3512(7) 0.4793(6)
H8 H 0.8340 1.4429 0.5031
C13 C 0.2884(8) 0.3076(7) 0.0167(6)
H9 H 0.2179 0.2635 -0.0398
C14 C 0.3341(8) 0.4455(7) 0.0404(5)
H10 H 0.2927 0.4937 0.0003
C15 C 0.4343(6) 0.7069(5) 0.3031(4)
C16 C 0.2699(7) 0.6496(6) 0.2477(4)
C17 C 0.2021(7) 0.5290(6) 0.2762(4)
C18 C 0.0498(8) 0.4530(7) 0.2419(5)
C19 C -0.0371(9) 0.4988(8) 0.1731(7)
H11 H -0.1392 0.4519 0.1480
C20 C 0.0304(9) 0.6136(8) 0.1433(7)
H12 H -0.0277 0.6416 0.0966
C21 C 0.1838(8) 0.6909(7) 0.1804(5)
H13 H 0.2252 0.7689 0.1592
C22 C 0.0029(9) 0.3355(8) 0.2799(6)
H14 H -0.0981 0.2826 0.2616
C23 C 0.1012(11) 0.2985(8) 0.3421(6)
H15 H 0.0663 0.2193 0.3636
C24 C 0.2545(9) 0.3762(7) 0.3750(5)
H16 H 0.3210 0.3496 0.4176
C25 C 0.3022(8) 0.4920(6) 0.3423(4)
C26 C 0.4495(7) 0.5976(6) 0.3626(4)
C27 C 0.4761(7) 0.8466(6) 0.3662(4)
H17 H 0.4108 0.8944 0.3398
H18 H 0.4665 0.8359 0.4280
C28 C 0.8885(11) 1.2742(8) 0.5018(7)
H19 H 0.9854 1.3144 0.5410
C29 C 0.8350(9) 1.1376(7) 0.4664(5)
H20 H 0.8969 1.0871 0.4824
C30 C 0.5661(6) 0.9613(5) 0.1983(4)
C31 C 0.6761(6) 1.0253(5) 0.1488(4)
C32 C 0.8062(7) 0.9942(6) 0.1817(4)
C33 C 0.7958(6) 0.9163(5) 0.2522(4)
C34 C 0.9188(8) 0.8832(7) 0.2917(5)
H21 H 0.9174 0.8328 0.3386
C35 C 1.0490(9) 0.9276(9) 0.2594(7)
H22 H 1.1327 0.9059 0.2868
C36 C 1.0560(8) 1.0003(8) 0.1904(6)
H23 H 1.1428 1.0261 0.1709
C37 C 0.9330(8) 1.0365(7) 0.1486(5)
C38 C 0.9224(9) 1.1155(8) 0.0789(5)
H24 H 1.0036 1.1481 0.0550
C39 C 0.7943(9) 1.1448(7) 0.0462(5)
H25 H 0.7906 1.1956 -0.0004
C40 C 0.6687(8) 1.1013(6) 0.0801(4)
H26 H 0.5832 1.1230 0.0570
loop_
_geom_bond_atom_site_label_1
_geom_bond_atom_site_label_2
_geom_bond_site_symmetry_1
_geom_bond_site_symmetry_2
O1 C5 1_555 1_555
O2 C26 1_555 1_555
O3 H1 1_555 1_555
O4 C30 1_555 1_555
C1 H2 1_555 1_555
C2 C1 1_555 1_555
H3 C2 1_555 1_555
C3 C2 1_555 1_555
H4 C3 1_555 1_555
C4 C3 1_555 1_555
C5 C4 1_555 1_555
C6 C5 1_555 1_555
H5 C6 1_555 1_555
C7 C6 1_555 1_555
C8 O3 1_555 1_555
C9 C8 1_555 1_555
C10 C9 1_555 1_555
H6 C10 1_555 1_555
C11 C10 1_555 1_555
H7 C11 1_555 1_555
C12 C11 1_555 1_555
H8 C12 1_555 1_555
C13 C1 1_555 1_555
H9 C13 1_555 1_555
C14 C4 1_555 1_555
H10 C14 1_555 1_555
C15 C6 1_555 1_555
C16 C15 1_555 1_555
C17 C16 1_555 1_555
C18 C17 1_555 1_555
C19 C18 1_555 1_555
H11 C19 1_555 1_555
C20 C19 1_555 1_555
H12 C20 1_555 1_555
C21 C16 1_555 1_555
H13 C21 1_555 1_555
C22 C18 1_555 1_555
H14 C22 1_555 1_555
C23 C22 1_555 1_555
H15 C23 1_555 1_555
C24 C23 1_555 1_555
H16 C24 1_555 1_555
C25 C17 1_555 1_555
C26 C15 1_555 1_555
C27 C8 1_555 1_555
H17 C27 1_555 1_555
H18 C27 1_555 1_555
C28 C12 1_555 1_555
H19 C28 1_555 1_555
C29 C9 1_555 1_555
H20 C29 1_555 1_555
C30 C7 1_555 1_555
C31 C30 1_555 1_555
C32 C31 1_555 1_555
C33 C7 1_555 1_555
C34 C33 1_555 1_555
H21 C34 1_555 1_555
C35 C34 1_555 1_555
H22 C35 1_555 1_555
C36 C35 1_555 1_555
H23 C36 1_555 1_555
C37 C32 1_555 1_555
C38 C37 1_555 1_555
H24 C38 1_555 1_555
C39 C38 1_555 1_555
H25 C39 1_555 1_555
C40 C31 1_555 1_555
H26 C40 1_555 1_555
C7 C8 1_555 1_555
C13 C14 1_555 1_555
C15 C27 1_555 1_555
C20 C21 1_555 1_555
C24 C25 1_555 1_555
C25 C26 1_555 1_555
C28 C29 1_555 1_555
C32 C33 1_555 1_555
C36 C37 1_555 1_555
C39 C40 1_555 1_555

#END
