
#######################################################################
#
#                 Cambridge Crystallographic Data Centre
#                                CCDC 
#
#######################################################################
#
# If this CIF has been generated from an entry in the Cambridge 
# Structural Database, then it will include bibliographic, chemical, 
# crystal, experimental, refinement or atomic coordinate data resulting 
# from the CCDC's data processing and validation procedures.
#
#######################################################################

data_DOYRAL
_chemical_formula_moiety         'C30 H24 N2'
_chemical_name_systematic        
2,6-Dimethyl-N-(10-methylbenzo[f]phenanthro[10,1-bc]azepin-8(14H)-ylidene)aniline
_symmetry_cell_setting           triclinic
_symmetry_space_group_name_H-M   'P -1'
_symmetry_Int_Tables_number      2
_space_group_name_Hall           '-P 1'
loop_
_symmetry_equiv_pos_site_id
_symmetry_equiv_pos_as_xyz
1 x,y,z
2 -x,-y,-z
_cell_length_a                   8.252
_cell_length_b                   11.119
_cell_length_c                   12.233
_cell_angle_alpha                76.32
_cell_angle_beta                 89.2
_cell_angle_gamma                86.08
_cell_volume                     1088.03
_exptl_crystal_colour            orange
_exptl_crystal_description       prism
_cell_formula_units_Z            2
loop_
_atom_site_label
_atom_site_type_symbol
_atom_site_fract_x
_atom_site_fract_y
_atom_site_fract_z
C1 C 0.88993(18) 0.02031(14) 0.82105(12)
C2 C 0.79537(19) -0.07719(15) 0.87475(13)
C3 C 0.6155(2) -0.07007(19) 0.85422(17)
H1 H 0.5837 0.0067 0.802
H2 H 0.5588 -0.0742 0.924
H3 H 0.589 -0.1382 0.8236
C4 C 0.8710(2) -0.17997(15) 0.94750(14)
H4 H 0.8103 -0.2466 0.9803
C5 C 1.0356(2) -0.18527(16) 0.97231(14)
H5 H 1.0836 -0.2533 1.0236
C6 C 1.12699(19) -0.08888(16) 0.92022(13)
H6 H 1.237 -0.0922 0.9371
C7 C 1.05740(18) 0.01309(15) 0.84297(13)
C8 C 1.15788(18) 0.11611(15) 0.78233(13)
H7 H 1.1139 0.1944 0.796
H8 H 1.2685 0.1013 0.8106
C9 C 1.15736(18) 0.12299(15) 0.65806(13)
C10 C 1.2965(2) 0.09818(17) 0.59929(15)
H9 H 1.3946 0.0743 0.6374
C11 C 1.2893(2) 0.10906(18) 0.48385(16)
H10 H 1.3822 0.0905 0.4454
C12 C 1.1445(2) 0.14738(17) 0.42546(15)
H11 H 1.1418 0.1552 0.3481
C13 C 1.00287(19) 0.17432(14) 0.48164(13)
C14 C 0.84869(19) 0.22199(14) 0.42188(13)
C15 C 0.8236(2) 0.21638(16) 0.31050(14)
H12 H 0.9028 0.1773 0.2736
C16 C 0.6812(2) 0.26880(17) 0.25462(15)
H13 H 0.6656 0.2639 0.1807
C17 C 0.5615(2) 0.32844(17) 0.30774(15)
H14 H 0.466 0.3625 0.2699
C18 C 0.5859(2) 0.33661(16) 0.41760(14)
H15 H 0.5074 0.3779 0.4531
C19 C 0.72742(19) 0.28318(14) 0.47505(13)
C20 C 0.75415(18) 0.29131(14) 0.59221(13)
C21 C 0.72224(18) 0.40340(14) 0.73446(13)
C22 C 0.8605(2) 0.46398(15) 0.75043(14)
C23 C 0.9881(2) 0.48919(18) 0.66061(17)
H16 H 0.9587 0.456 0.5986
H17 H 1.0908 0.4506 0.6907
H18 H 0.9965 0.5771 0.6351
C24 C 0.8731(2) 0.50265(16) 0.85006(16)
H19 H 0.9625 0.5449 0.8613
C25 C 0.7553(2) 0.47945(17) 0.93286(15)
H20 H 0.7658 0.506 0.9989
C26 C 0.6222(2) 0.41671(16) 0.91669(15)
H21 H 0.5445 0.3996 0.973
C27 C 0.60259(19) 0.37889(15) 0.81779(14)
C28 C 0.4558(2) 0.3163(2) 0.79647(19)
H22 H 0.4643 0.2978 0.7237
H23 H 0.3605 0.3702 0.7988
H24 H 0.4483 0.2408 0.8532
C29 C 0.86119(17) 0.18588(14) 0.65880(12)
C30 C 1.01098(18) 0.15860(14) 0.59916(13)
N1 N 0.80612(15) 0.12582(12) 0.75322(11)
N2 N 0.69131(16) 0.38316(13) 0.62679(12)
loop_
_geom_bond_atom_site_label_1
_geom_bond_atom_site_label_2
_geom_bond_site_symmetry_1
_geom_bond_site_symmetry_2
C1 C2 1_555 1_555
C2 C3 1_555 1_555
C3 H1 1_555 1_555
H2 C3 1_555 1_555
H3 C3 1_555 1_555
C4 C2 1_555 1_555
H4 C4 1_555 1_555
C5 C4 1_555 1_555
H5 C5 1_555 1_555
C6 C5 1_555 1_555
H6 C6 1_555 1_555
C7 C1 1_555 1_555
C8 C7 1_555 1_555
H7 C8 1_555 1_555
H8 C8 1_555 1_555
C9 C8 1_555 1_555
C10 C9 1_555 1_555
H9 C10 1_555 1_555
C11 C10 1_555 1_555
H10 C11 1_555 1_555
C12 C11 1_555 1_555
H11 C12 1_555 1_555
C13 C12 1_555 1_555
C14 C13 1_555 1_555
C15 C14 1_555 1_555
H12 C15 1_555 1_555
C16 C15 1_555 1_555
H13 C16 1_555 1_555
C17 C16 1_555 1_555
H14 C17 1_555 1_555
C18 C17 1_555 1_555
H15 C18 1_555 1_555
C19 C14 1_555 1_555
C20 C19 1_555 1_555
C21 C22 1_555 1_555
C22 C23 1_555 1_555
C23 H16 1_555 1_555
H17 C23 1_555 1_555
H18 C23 1_555 1_555
C24 C22 1_555 1_555
H19 C24 1_555 1_555
C25 C24 1_555 1_555
H20 C25 1_555 1_555
C26 C25 1_555 1_555
H21 C26 1_555 1_555
C27 C21 1_555 1_555
C28 C27 1_555 1_555
H22 C28 1_555 1_555
H23 C28 1_555 1_555
H24 C28 1_555 1_555
C29 C20 1_555 1_555
C30 C9 1_555 1_555
N1 C1 1_555 1_555
N2 C20 1_555 1_555
C6 C7 1_555 1_555
C13 C30 1_555 1_555
C18 C19 1_555 1_555
C21 N2 1_555 1_555
C26 C27 1_555 1_555
C29 C30 1_555 1_555
C29 N1 1_555 1_555

#END
