
#######################################################################
#
#                 Cambridge Crystallographic Data Centre
#                                CCDC 
#
#######################################################################
#
# If this CIF has been generated from an entry in the Cambridge 
# Structural Database, then it will include bibliographic, chemical, 
# crystal, experimental, refinement or atomic coordinate data resulting 
# from the CCDC's data processing and validation procedures.
#
#######################################################################

data_DPHNOL10
_chemical_name_common            'PDB Chemical Component code: 2MP'
_chemical_formula_moiety         'C8 H10 O1'
_chemical_name_systematic        3,4-Dimethylphenol
_symmetry_cell_setting           triclinic
_symmetry_space_group_name_H-M   'P -1'
_symmetry_Int_Tables_number      2
_space_group_name_Hall           '-P 1'
loop_
_symmetry_equiv_pos_site_id
_symmetry_equiv_pos_as_xyz
1 x,y,z
2 -x,-y,-z
_cell_length_a                   10.31(4)
_cell_length_b                   10.63(4)
_cell_length_c                   10.17(4)
_cell_angle_alpha                111.1(5)
_cell_angle_beta                 91.6(5)
_cell_angle_gamma                100.5(5)
_cell_volume                     1017.11
_cell_formula_units_Z            6
loop_
_atom_site_label
_atom_site_type_symbol
_atom_site_fract_x
_atom_site_fract_y
_atom_site_fract_z
C1 C 0.28300 -0.36390 0.37080
C2 C 0.14730 -0.39290 0.33450
C3 C 0.06630 -0.51740 0.32570
C4 C 0.12410 -0.61650 0.35180
C5 C 0.26160 -0.58670 0.38860
C6 C 0.34240 -0.46100 0.39830
C7 C -0.08210 -0.54320 0.29030
C8 C 0.03880 -0.75110 0.34320
H1 H 0.43500 -0.24000 0.41700
H2 H 0.03000 -0.86000 0.31100
H3 H 0.10700 -0.33300 0.30500
H4 H 0.30100 -0.66400 0.39600
H5 H 0.44300 -0.44400 0.42200
H6 H -0.12200 -0.46400 0.27400
H7 H -0.13000 -0.56400 0.36200
H8 H -0.12000 -0.61900 0.20000
H9 H -0.02700 -0.73800 0.41000
O1 O 0.35760 -0.23750 0.37780
C9 C -0.29080 -0.20200 0.36860
C10 C -0.33310 -0.31010 0.24140
C11 C -0.24700 -0.33560 0.13430
C12 C -0.11950 -0.25150 0.15680
C13 C -0.08220 -0.14340 0.28370
C14 C -0.16630 -0.11720 0.39070
C15 C -0.29030 -0.45220 -0.00310
C16 C -0.02480 -0.27780 0.04270
H10 H -0.00900 -0.36000 0.07100
H11 H -0.33800 -0.09700 0.56000
H12 H -0.42100 -0.36400 0.23700
H13 H 0.00400 -0.09500 0.29300
H14 H -0.13000 -0.03600 0.47800
H15 H -0.28700 -0.41300 -0.08000
H16 H -0.22000 -0.51900 -0.03000
H17 H -0.38100 -0.50000 0.00900
H18 H 0.05000 -0.23900 -0.01000
O2 O -0.38130 -0.18370 0.46990
C17 C -0.30900 0.06310 -0.15920
C18 C -0.37070 0.16320 -0.07490
C19 C -0.38110 0.18020 0.06270
C20 C -0.33150 0.09770 0.12280
C21 C -0.27130 -0.00720 0.03330
C22 C -0.25990 -0.02360 -0.10510
C23 C -0.44770 0.29280 0.15380
C24 C -0.34220 0.11270 0.27200
H19 H -0.31500 0.20800 0.35500
H20 H -0.32400 0.11100 -0.33200
H21 H -0.23700 -0.06400 0.06900
H22 H -0.21500 -0.11300 -0.15900
H23 H -0.49500 0.31500 0.09000
H24 H -0.53000 0.23100 0.17500
H25 H -0.37000 0.35100 0.21900
H26 H -0.44700 0.08000 0.27500
H27 H -0.31000 0.03100 0.28000
O3 O -0.29290 0.04400 -0.29850
loop_
_geom_bond_atom_site_label_1
_geom_bond_atom_site_label_2
_geom_bond_site_symmetry_1
_geom_bond_site_symmetry_2
C1 C2 1_555 1_555
C2 C3 1_555 1_555
C3 C4 1_555 1_555
C4 C5 1_555 1_555
C5 C6 1_555 1_555
C6 C1 1_555 1_555
C7 C3 1_555 1_555
C8 C4 1_555 1_555
H1 O1 1_555 1_555
H2 C8 1_555 1_555
H3 C2 1_555 1_555
H4 C5 1_555 1_555
H5 C6 1_555 1_555
H6 C7 1_555 1_555
H7 C7 1_555 1_555
H8 C7 1_555 1_555
H9 C8 1_555 1_555
O1 C1 1_555 1_555
C9 C10 1_555 1_555
C10 C11 1_555 1_555
C11 C12 1_555 1_555
C12 C13 1_555 1_555
C13 C14 1_555 1_555
C14 C9 1_555 1_555
C15 C11 1_555 1_555
C16 C12 1_555 1_555
H10 C16 1_555 1_555
H11 O2 1_555 1_555
H12 C10 1_555 1_555
H13 C13 1_555 1_555
H14 C14 1_555 1_555
H15 C15 1_555 1_555
H16 C15 1_555 1_555
H17 C15 1_555 1_555
H18 C16 1_555 1_555
O2 C9 1_555 1_555
C17 C18 1_555 1_555
C18 C19 1_555 1_555
C19 C20 1_555 1_555
C20 C21 1_555 1_555
C21 C22 1_555 1_555
C22 C17 1_555 1_555
C23 C19 1_555 1_555
C24 C20 1_555 1_555
H19 C24 1_555 1_555
H20 O3 1_555 1_555
H21 C21 1_555 1_555
H22 C22 1_555 1_555
H23 C23 1_555 1_555
H24 C23 1_555 1_555
H25 C23 1_555 1_555
H26 C24 1_555 1_555
H27 C24 1_555 1_555
O3 C17 1_555 1_555

#END
