
#######################################################################
#
#                 Cambridge Crystallographic Data Centre
#                                CCDC 
#
#######################################################################
#
# If this CIF has been generated from an entry in the Cambridge 
# Structural Database, then it will include bibliographic, chemical, 
# crystal, experimental, refinement or atomic coordinate data resulting 
# from the CCDC's data processing and validation procedures.
#
#######################################################################

data_DPIBFC
_chemical_formula_moiety         'C37 H29 Br1 O3'
_chemical_name_systematic        
'1,3,4,5,6,11-Hexahydro-6,11-diphenyl-6,11-endo-epoxy-1,5a-ethano-5aH-cyclobut(d)anthracen-14-ol p-bromobenzoate'
_symmetry_cell_setting           monoclinic
_symmetry_space_group_name_H-M   'P 21/a'
_symmetry_Int_Tables_number      14
_space_group_name_Hall           '-P 2yab'
loop_
_symmetry_equiv_pos_site_id
_symmetry_equiv_pos_as_xyz
1 x,y,z
2 1/2-x,1/2+y,-z
3 -x,-y,-z
4 1/2+x,1/2-y,z
_cell_length_a                   20.747(4)
_cell_length_b                   7.775(2)
_cell_length_c                   18.965(3)
_cell_angle_alpha                90
_cell_angle_beta                 113.05(1)
_cell_angle_gamma                90
_cell_volume                     2814.97
_cell_formula_units_Z            4
loop_
_atom_site_label
_atom_site_type_symbol
_atom_site_fract_x
_atom_site_fract_y
_atom_site_fract_z
Br1 Br -0.06328 -0.24034 0.08020
O1 O 0.31560 0.19010 0.30600
O2 O 0.17410 0.40450 0.21730
O3 O 0.10670 0.52420 0.10410
C1 C 0.34280 0.47280 0.32740
C2 C 0.37210 0.65100 0.35540
C3 C 0.30880 0.71250 0.34450
C4 C 0.26910 0.54400 0.31570
C5 C 0.22530 0.54250 0.23080
C6 C 0.27430 0.50490 0.18950
C7 C 0.34360 0.43390 0.24800
C8 C 0.40640 0.51660 0.23550
C9 C 0.42490 0.70120 0.26650
C10 C 0.43750 0.71660 0.35210
C11 C 0.43310 0.23260 0.37730
C12 C 0.42480 0.18530 0.30320
C13 C 0.48120 0.12450 0.28960
C14 C 0.54460 0.10790 0.35090
C15 C 0.55280 0.15260 0.42480
C16 C 0.49560 0.21630 0.43820
C17 C 0.36090 0.29420 0.37010
C18 C 0.35000 0.22600 0.25350
C19 C 0.11820 0.41100 0.15240
C20 C 0.07250 0.25600 0.13840
C21 C 0.09420 0.11450 0.18660
C22 C 0.05360 -0.03470 0.17000
C23 C -0.00690 -0.03570 0.10640
C24 C -0.03100 0.10080 0.05860
C25 C 0.00960 0.25150 0.07490
C26 C 0.34490 0.28320 0.44000
C27 C 0.29570 0.17030 0.44680
C28 C 0.28580 0.16150 0.51470
C29 C 0.32310 0.26510 0.57550
C30 C 0.37100 0.38340 0.56950
C31 C 0.38120 0.39000 0.50100
C32 C 0.31630 0.13320 0.17930
C33 C 0.34440 0.14950 0.12380
C34 C 0.31520 0.06000 0.05440
C35 C 0.25700 -0.04170 0.04090
C36 C 0.22960 -0.06190 0.09570
C37 C 0.25940 0.02600 0.16550
H1 H 0.29200 0.83400 0.35200
H2 H 0.24000 0.51300 0.34600
H3 H 0.19800 0.65700 0.21200
H4 H 0.28400 0.61700 0.16500
H5 H 0.25100 0.41400 0.14600
H6 H 0.39400 0.51900 0.17600
H7 H 0.45000 0.43800 0.26100
H8 H 0.38500 0.78400 0.23500
H9 H 0.47000 0.73900 0.26000
H10 H 0.44600 0.84400 0.37000
H11 H 0.48000 0.64200 0.38600
H12 H 0.47500 0.09000 0.23400
H13 H 0.58700 0.06100 0.34100
H14 H 0.60000 0.14100 0.47100
H15 H 0.50100 0.25100 0.49400
H16 H 0.14100 0.11800 0.23500
H17 H -0.07800 0.09600 0.01100
H18 H -0.00700 0.35800 0.03900
H19 H 0.26800 0.09000 0.40100
H20 H 0.24900 0.07500 0.52000
H21 H 0.31500 0.26000 0.62600
H22 H 0.39900 0.46400 0.61600
H23 H 0.41800 0.47600 0.49600
H24 H 0.38800 0.22800 0.13400
H25 H 0.33600 0.07300 0.01300
H26 H 0.23500 -0.10600 -0.01000
H27 H 0.18700 -0.14200 0.08500
H28 H 0.23800 0.01300 0.20700
loop_
_geom_bond_atom_site_label_1
_geom_bond_atom_site_label_2
_geom_bond_site_symmetry_1
_geom_bond_site_symmetry_2
Br1 C23 1_555 1_555
O1 C17 1_555 1_555
O2 C5 1_555 1_555
O3 C19 1_555 1_555
C1 C2 1_555 1_555
C2 C3 1_555 1_555
C3 C4 1_555 1_555
C4 C1 1_555 1_555
C5 C4 1_555 1_555
C6 C5 1_555 1_555
C7 C1 1_555 1_555
C8 C7 1_555 1_555
C9 C8 1_555 1_555
C10 C2 1_555 1_555
C11 C12 1_555 1_555
C12 C13 1_555 1_555
C13 C14 1_555 1_555
C14 C15 1_555 1_555
C15 C16 1_555 1_555
C16 C11 1_555 1_555
C17 C1 1_555 1_555
C18 O1 1_555 1_555
C19 O2 1_555 1_555
C20 C19 1_555 1_555
C21 C20 1_555 1_555
C22 C21 1_555 1_555
C23 C22 1_555 1_555
C24 C23 1_555 1_555
C25 C20 1_555 1_555
C26 C17 1_555 1_555
C27 C26 1_555 1_555
C28 C27 1_555 1_555
C29 C28 1_555 1_555
C30 C29 1_555 1_555
C31 C26 1_555 1_555
C32 C18 1_555 1_555
C33 C32 1_555 1_555
C34 C33 1_555 1_555
C35 C34 1_555 1_555
C36 C35 1_555 1_555
C37 C32 1_555 1_555
H1 C3 1_555 1_555
H2 C4 1_555 1_555
H3 C5 1_555 1_555
H4 C6 1_555 1_555
H5 C6 1_555 1_555
H6 C8 1_555 1_555
H7 C8 1_555 1_555
H8 C9 1_555 1_555
H9 C9 1_555 1_555
H10 C10 1_555 1_555
H11 C10 1_555 1_555
H12 C13 1_555 1_555
H13 C14 1_555 1_555
H14 C15 1_555 1_555
H15 C16 1_555 1_555
H16 C21 1_555 1_555
H17 C24 1_555 1_555
H18 C25 1_555 1_555
H19 C27 1_555 1_555
H20 C28 1_555 1_555
H21 C29 1_555 1_555
H22 C30 1_555 1_555
H23 C31 1_555 1_555
H24 C33 1_555 1_555
H25 C34 1_555 1_555
H26 C35 1_555 1_555
H27 C36 1_555 1_555
H28 C37 1_555 1_555
C6 C7 1_555 1_555
C7 C18 1_555 1_555
C9 C10 1_555 1_555
C11 C17 1_555 1_555
C12 C18 1_555 1_555
C24 C25 1_555 1_555
C30 C31 1_555 1_555
C36 C37 1_555 1_555

#END
