
#######################################################################
#
#                 Cambridge Crystallographic Data Centre
#                                CCDC 
#
#######################################################################
#
# If this CIF has been generated from an entry in the Cambridge 
# Structural Database, then it will include bibliographic, chemical, 
# crystal, experimental, refinement or atomic coordinate data resulting 
# from the CCDC's data processing and validation procedures.
#
#######################################################################

data_DPOBCO01
_chemical_name_common            2,4-diphenyl-3,7-dioxabicyclo[3.3.0]octane
_chemical_formula_moiety         'C18 H18 O2'
_chemical_name_systematic        1,3-diphenyltetrahydro-1H,3H-furo[3,4-c]furan
_symmetry_cell_setting           orthorhombic
_symmetry_space_group_name_H-M   'P 21 21 21'
_symmetry_Int_Tables_number      19
_space_group_name_Hall           'P 2ac 2ab'
loop_
_symmetry_equiv_pos_site_id
_symmetry_equiv_pos_as_xyz
1 x,y,z
2 1/2-x,-y,1/2+z
3 1/2+x,1/2-y,-z
4 -x,1/2+y,1/2-z
_cell_length_a                   5.735(1)
_cell_length_b                   11.022(1)
_cell_length_c                   22.534(6)
_cell_angle_alpha                90
_cell_angle_beta                 90
_cell_angle_gamma                90
_cell_volume                     1424.4
_cell_formula_units_Z            4
loop_
_atom_site_label
_atom_site_type_symbol
_atom_site_fract_x
_atom_site_fract_y
_atom_site_fract_z
C1 C -0.7174(7) -0.8039(3) -0.3277(2)
C2 C -0.7586(8) -0.8142(4) -0.3882(2)
C3 C -0.6105(8) -0.7612(4) -0.4285(2)
C4 C -0.4206(9) -0.6997(4) -0.4080(2)
C5 C -0.3790(7) -0.6905(3) -0.3479(2)
C6 C -0.5264(6) -0.7413(3) -0.3073(1)
C7 C -0.4760(6) -0.7243(3) -0.2428(2)
O1 O -0.5886(4) -0.8137(2) -0.2078(1)
C8 C -0.5494(6) -0.6038(3) -0.2151(2)
C9 C -0.7854(7) -0.5546(4) -0.2349(2)
O2 O -0.9458(5) -0.5901(3) -0.1905(2)
C10 C -0.8291(9) -0.5900(4) -0.1370(2)
C11 C -0.5891(7) -0.6349(3) -0.1502(2)
C12 C -0.5610(6) -0.7748(3) -0.1480(1)
C13 C -0.9208(6) -0.8976(3) -0.1274(2)
C14 C -1.0642(7) -0.9602(3) -0.0894(2)
C15 C -1.0114(8) -0.9693(4) -0.0312(2)
C16 C -0.8102(9) -0.9162(4) -0.0104(2)
C17 C -0.6649(7) -0.8533(3) -0.0482(2)
C18 C -0.7196(6) -0.8437(3) -0.1075(2)
H1 H -0.8235(7) -0.8405(3) -0.3001(2)
H2 H -0.8913(8) -0.8590(4) -0.4021(2)
H3 H -0.6396(8) -0.7674(4) -0.4703(2)
H4 H -0.3151(9) -0.6623(4) -0.4355(2)
H5 H -0.2436(7) -0.6474(3) -0.3343(2)
H6 H -0.3151(47) -0.7289(24) -0.2378(11)
H7 H -0.4308(51) -0.5455(25) -0.2224(12)
H8 H -0.8288(7) -0.5884(4) -0.2726(2)
H9 H -0.7801(7) -0.4678(4) -0.2379(2)
H10 H -0.8185(9) -0.5080(4) -0.1229(2)
H11 H -0.9059(9) -0.6391(4) -0.1077(2)
H12 H -0.4755(58) -0.5987(27) -0.1258(13)
H13 H -0.3981(51) -0.7920(25) -0.1343(12)
H14 H -0.9619(6) -0.8915(3) -0.1686(2)
H15 H -1.2032(7) -0.9982(3) -0.1042(2)
H16 H -1.1127(8) -1.0120(4) -0.0045(2)
H17 H -0.7697(9) -0.9228(4) 0.0308(2)
H18 H -0.5256(7) -0.8159(3) -0.0333(2)
loop_
_geom_bond_atom_site_label_1
_geom_bond_atom_site_label_2
_geom_bond_site_symmetry_1
_geom_bond_site_symmetry_2
C1 C2 1_555 1_555
C2 C3 1_555 1_555
C3 C4 1_555 1_555
C4 C5 1_555 1_555
C5 C6 1_555 1_555
C6 C1 1_555 1_555
C7 C6 1_555 1_555
O1 C7 1_555 1_555
C8 C7 1_555 1_555
C9 C8 1_555 1_555
O2 C9 1_555 1_555
C10 O2 1_555 1_555
C11 C8 1_555 1_555
C12 O1 1_555 1_555
C13 C14 1_555 1_555
C14 C15 1_555 1_555
C15 C16 1_555 1_555
C16 C17 1_555 1_555
C17 C18 1_555 1_555
C18 C12 1_555 1_555
H1 C1 1_555 1_555
H2 C2 1_555 1_555
H3 C3 1_555 1_555
H4 C4 1_555 1_555
H5 C5 1_555 1_555
H6 C7 1_555 1_555
H7 C8 1_555 1_555
H8 C9 1_555 1_555
H9 C9 1_555 1_555
H10 C10 1_555 1_555
H11 C10 1_555 1_555
H12 C11 1_555 1_555
H13 C12 1_555 1_555
H14 C13 1_555 1_555
H15 C14 1_555 1_555
H16 C15 1_555 1_555
H17 C16 1_555 1_555
H18 C17 1_555 1_555
C10 C11 1_555 1_555
C11 C12 1_555 1_555
C13 C18 1_555 1_555

#END
