
#######################################################################
#
#                 Cambridge Crystallographic Data Centre
#                                CCDC 
#
#######################################################################
#
# If this CIF has been generated from an entry in the Cambridge 
# Structural Database, then it will include bibliographic, chemical, 
# crystal, experimental, refinement or atomic coordinate data resulting 
# from the CCDC's data processing and validation procedures.
#
#######################################################################

data_DPOBCO
_chemical_formula_moiety         'C18 H18 O2'
_chemical_name_systematic        2,4-Diphenyl-3,7-dioxabicyclo(3.3.0)octane
_symmetry_cell_setting           monoclinic
_symmetry_space_group_name_H-M   'P 21'
_symmetry_Int_Tables_number      4
_space_group_name_Hall           'P 2yb'
loop_
_symmetry_equiv_pos_site_id
_symmetry_equiv_pos_as_xyz
1 x,y,z
2 -x,1/2+y,-z
_cell_length_a                   5.32(2)
_cell_length_b                   8.62(2)
_cell_length_c                   15.79(3)
_cell_angle_alpha                90
_cell_angle_beta                 92.80(5)
_cell_angle_gamma                90
_cell_volume                     723.24
_cell_formula_units_Z            2
loop_
_atom_site_label
_atom_site_type_symbol
_atom_site_fract_x
_atom_site_fract_y
_atom_site_fract_z
C1 C 0.18730 -0.23690 0.80640
C2 C 0.31100 -0.07740 0.80190
O1 O 0.32910 -0.04630 0.71320
C3 C 0.38510 -0.19150 0.67330
C4 C 0.23840 -0.31350 0.72040
C5 C 0.39150 -0.45760 0.74630
O2 O 0.50560 -0.42020 0.82810
C6 C 0.30870 -0.34910 0.87140
C7 C 0.17120 0.05220 0.84150
C8 C -0.04390 0.11190 0.80210
C9 C -0.18170 0.22840 0.83740
C10 C -0.09900 0.28800 0.91290
C11 C 0.11060 0.23310 0.95410
C12 C 0.24990 0.11340 0.91860
C13 C 0.31580 -0.18100 0.57870
C14 C 0.45220 -0.26160 0.52100
C15 C 0.38120 -0.26240 0.43540
C16 C 0.17730 -0.17780 0.40730
C17 C 0.03600 -0.09450 0.46450
C18 C 0.11020 -0.09460 0.54970
H1 H 0.48950 -0.09110 0.83080
H2 H 0.00760 -0.23240 0.80940
H3 H 0.17730 -0.43370 0.88500
H4 H 0.37170 -0.28740 0.91890
H5 H 0.50540 -0.46370 0.71370
H6 H 0.24560 -0.54240 0.75430
H7 H 0.06030 -0.33330 0.68730
H8 H 0.57300 -0.20450 0.68810
H9 H -0.13160 0.07140 0.74000
H10 H -0.35390 0.27340 0.80280
H11 H -0.20860 0.37430 0.94750
H12 H 0.19060 0.25830 0.99980
H13 H 0.37700 0.07190 0.94280
H14 H 0.59930 -0.31500 0.54510
H15 H 0.48800 -0.34310 0.39580
H16 H 0.13390 -0.18090 0.34610
H17 H -0.11290 -0.03170 0.44530
H18 H 0.00090 -0.04310 0.59190
loop_
_geom_bond_atom_site_label_1
_geom_bond_atom_site_label_2
_geom_bond_site_symmetry_1
_geom_bond_site_symmetry_2
C1 C2 1_555 1_555
C2 O1 1_555 1_555
O1 C3 1_555 1_555
C3 C4 1_555 1_555
C4 C1 1_555 1_555
C5 C4 1_555 1_555
O2 C5 1_555 1_555
C6 C1 1_555 1_555
C7 C2 1_555 1_555
C8 C7 1_555 1_555
C9 C8 1_555 1_555
C10 C9 1_555 1_555
C11 C10 1_555 1_555
C12 C7 1_555 1_555
C13 C3 1_555 1_555
C14 C13 1_555 1_555
C15 C14 1_555 1_555
C16 C15 1_555 1_555
C17 C16 1_555 1_555
C18 C13 1_555 1_555
H1 C2 1_555 1_555
H2 C1 1_555 1_555
H3 C6 1_555 1_555
H4 C6 1_555 1_555
H5 C5 1_555 1_555
H6 C5 1_555 1_555
H7 C4 1_555 1_555
H8 C3 1_555 1_555
H9 C8 1_555 1_555
H10 C9 1_555 1_555
H11 C10 1_555 1_555
H12 C11 1_555 1_555
H13 C12 1_555 1_555
H14 C14 1_555 1_555
H15 C15 1_555 1_555
H16 C16 1_555 1_555
H17 C17 1_555 1_555
H18 C18 1_555 1_555
O2 C6 1_555 1_555
C11 C12 1_555 1_555
C17 C18 1_555 1_555

#END
