
#######################################################################
#
#                 Cambridge Crystallographic Data Centre
#                                CCDC 
#
#######################################################################
#
# If this CIF has been generated from an entry in the Cambridge 
# Structural Database, then it will include bibliographic, chemical, 
# crystal, experimental, refinement or atomic coordinate data resulting 
# from the CCDC's data processing and validation procedures.
#
#######################################################################

data_DUBCIM
_chemical_formula_moiety         'C24 H48 Cs1 O12'
_chemical_name_systematic        'bis(18-Crown-6)-cesium electride'
_symmetry_cell_setting           monoclinic
_symmetry_space_group_name_H-M   'C 2/c'
_symmetry_Int_Tables_number      15
_space_group_name_Hall           '-C 2yn'
loop_
_symmetry_equiv_pos_site_id
_symmetry_equiv_pos_as_xyz
1 x,y,z
2 1/2+x,1/2+y,z
3 -x,y,1/2-z
4 1/2-x,1/2+y,1/2-z
5 -x,-y,-z
6 1/2-x,1/2-y,-z
7 x,-y,1/2+z
8 1/2+x,1/2-y,1/2+z
_cell_length_a                   13.075(5)
_cell_length_b                   15.840(7)
_cell_length_c                   17.359(8)
_cell_angle_alpha                90
_cell_angle_beta                 92.30(3)
_cell_angle_gamma                90
_cell_volume                     3592.29
_exptl_crystal_colour            black
_cell_formula_units_Z            4
loop_
_atom_site_label
_atom_site_type_symbol
_atom_site_fract_x
_atom_site_fract_y
_atom_site_fract_z
Cs1 Cs 0.0000 0.02650(9) 0.2500
O1 O -0.0982(7) 0.1783(5) 0.3693(5)
O2 O 0.1224(7) 0.1626(6) 0.3639(5)
O3 O 0.1425(6) -0.0137(6) 0.4073(4)
O4 O -0.0235(6) -0.1289(5) 0.3879(5)
O5 O -0.1870(7) -0.1097(6) 0.2728(5)
O6 O -0.2393(6) 0.0642(5) 0.2937(5)
C1 C -0.027(1) 0.2462(8) 0.3765(7)
C2 C 0.068(1) 0.2147(9) 0.4150(7)
C3 C 0.211(1) 0.1252(9) 0.3984(8)
C4 C 0.191(1) 0.0541(8) 0.4499(7)
C5 C 0.133(1) -0.0856(9) 0.4522(8)
C6 C 0.078(1) -0.1543(9) 0.4054(8)
C7 C -0.083(1) -0.1967(8) 0.3547(8)
C8 C -0.188(1) -0.1628(9) 0.3367(7)
C9 C -0.283(1) -0.073(1) 0.2493(8)
C10 C -0.311(1) 0.0(1) 0.2993(9)
C11 C -0.268(1) 0.1366(9) 0.3356(8)
C12 C -0.192(1) 0.2038(9) 0.3299(8)
H1 H -0.056 0.290 0.406
H2 H -0.012 0.267 0.327
H3 H 0.110 0.261 0.431
H4 H 0.051 0.182 0.459
H5 H 0.248 0.167 0.427
H6 H 0.253 0.105 0.359
H7 H 0.253 0.034 0.474
H8 H 0.146 0.073 0.488
H9 H 0.094 -0.073 0.496
H10 H 0.199 -0.105 0.469
H11 H 0.113 -0.162 0.359
H12 H 0.078 -0.206 0.433
H13 H -0.084 -0.242 0.390
H14 H -0.053 -0.215 0.309
H15 H -0.233 -0.209 0.325
H16 H -0.211 -0.133 0.380
H17 H -0.335 -0.115 0.251
H18 H -0.279 -0.053 0.198
H19 H -0.377 0.021 0.283
H20 H -0.313 -0.018 0.351
H21 H -0.274 0.122 0.388
H22 H -0.333 0.156 0.316
H23 H -0.180 0.214 0.277
H24 H -0.216 0.254 0.352
O2B O -0.1224(7) 0.1626(6) 0.1361(5)
O3B O -0.1425(6) -0.0137(6) 0.0927(4)
O5B O 0.1870(7) -0.1097(6) 0.2272(5)
O6B O 0.2393(6) 0.0642(5) 0.2063(5)
C2B C -0.068(1) 0.2147(9) 0.0850(7)
C3B C -0.211(1) 0.1252(9) 0.1016(8)
C4B C -0.191(1) 0.0541(8) 0.0501(7)
C5B C -0.133(1) -0.0856(9) 0.0478(8)
C8B C 0.188(1) -0.1628(9) 0.1633(7)
C9B C 0.283(1) -0.073(1) 0.2507(8)
C10B C 0.311(1) 0.0(1) 0.2007(9)
C11B C 0.268(1) 0.1366(9) 0.1644(8)
C1B C 0.027(1) 0.2462(8) 0.1235(7)
H3B H -0.110 0.261 0.069
H4B H -0.051 0.182 0.041
H5B H -0.248 0.167 0.073
H6B H -0.253 0.105 0.141
H7B H -0.253 0.034 0.026
H8B H -0.146 0.073 0.012
C6B C -0.078(1) -0.1543(9) 0.0946(8)
H9B H -0.094 -0.073 0.004
H10B H -0.199 -0.105 0.031
C7B C 0.083(1) -0.1967(8) 0.1453(8)
H15B H 0.233 -0.209 0.175
H16B H 0.211 -0.133 0.120
H17B H 0.335 -0.115 0.249
H18B H 0.279 -0.053 0.302
H19B H 0.377 0.021 0.217
H20B H 0.313 -0.018 0.149
C12B C 0.192(1) 0.2038(9) 0.1701(8)
H21B H 0.274 0.122 0.112
H22B H 0.333 0.156 0.184
O1B O 0.0982(7) 0.1783(5) 0.1307(5)
H1B H 0.056 0.290 0.094
H2B H 0.012 0.267 0.173
O4B O 0.0235(6) -0.1289(5) 0.1121(5)
H11B H -0.113 -0.162 0.141
H12B H -0.078 -0.206 0.067
H13B H 0.084 -0.242 0.110
H14B H 0.053 -0.215 0.191
H23B H 0.180 0.214 0.223
H24B H 0.216 0.254 0.148
loop_
_geom_bond_atom_site_label_1
_geom_bond_atom_site_label_2
_geom_bond_site_symmetry_1
_geom_bond_site_symmetry_2
Cs1 O2 1_555 1_555
O1 C1 1_555 1_555
O2 C2 1_555 1_555
O3 Cs1 1_555 1_555
O4 C6 1_555 1_555
O5 Cs1 1_555 1_555
O6 Cs1 1_555 1_555
C1 C2 1_555 1_555
C2 H3 1_555 1_555
C3 O2 1_555 1_555
C4 O3 1_555 1_555
C5 O3 1_555 1_555
C6 C5 1_555 1_555
C7 O4 1_555 1_555
C8 O5 1_555 1_555
C9 O5 1_555 1_555
C10 O6 1_555 1_555
C11 O6 1_555 1_555
C12 O1 1_555 1_555
H1 C1 1_555 1_555
H2 C1 1_555 1_555
H4 C2 1_555 1_555
H5 C3 1_555 1_555
H6 C3 1_555 1_555
H7 C4 1_555 1_555
H8 C4 1_555 1_555
H9 C5 1_555 1_555
H10 C5 1_555 1_555
H11 C6 1_555 1_555
H12 C6 1_555 1_555
H13 C7 1_555 1_555
H14 C7 1_555 1_555
H15 C8 1_555 1_555
H16 C8 1_555 1_555
H17 C9 1_555 1_555
H18 C9 1_555 1_555
H19 C10 1_555 1_555
H20 C10 1_555 1_555
H21 C11 1_555 1_555
H22 C11 1_555 1_555
H23 C12 1_555 1_555
H24 C12 1_555 1_555
O2B Cs1 1_555 1_555
O3B Cs1 1_555 1_555
O5B Cs1 1_555 1_555
O6B Cs1 1_555 1_555
C2B O2B 1_555 1_555
C3B O2B 1_555 1_555
C4B O3B 1_555 1_555
C5B O3B 1_555 1_555
C8B O5B 1_555 1_555
C9B O5B 1_555 1_555
C10B O6B 1_555 1_555
C11B O6B 1_555 1_555
C1B C2B 1_555 1_555
H3B C2B 1_555 1_555
H4B C2B 1_555 1_555
H5B C3B 1_555 1_555
H6B C3B 1_555 1_555
H7B C4B 1_555 1_555
H8B C4B 1_555 1_555
C6B C5B 1_555 1_555
H9B C5B 1_555 1_555
H10B C5B 1_555 1_555
C7B C8B 1_555 1_555
H15B C8B 1_555 1_555
H16B C8B 1_555 1_555
H17B C9B 1_555 1_555
H18B C9B 1_555 1_555
H19B C10B 1_555 1_555
H20B C10B 1_555 1_555
C12B C11B 1_555 1_555
H21B C11B 1_555 1_555
H22B C11B 1_555 1_555
O1B C1B 1_555 1_555
H1B C1B 1_555 1_555
H2B C1B 1_555 1_555
O4B C6B 1_555 1_555
H11B C6B 1_555 1_555
H12B C6B 1_555 1_555
H13B C7B 1_555 1_555
H14B C7B 1_555 1_555
H23B C12B 1_555 1_555
H24B C12B 1_555 1_555
C3 C4 1_555 1_555
C7 C8 1_555 1_555
C9 C10 1_555 1_555
C11 C12 1_555 1_555
C3B C4B 1_555 1_555
C9B C10B 1_555 1_555
C7B O4B 1_555 1_555
C12B O1B 1_555 1_555

#END
