
#######################################################################
#
#                 Cambridge Crystallographic Data Centre
#                                CCDC 
#
#######################################################################
#
# If this CIF has been generated from an entry in the Cambridge 
# Structural Database, then it will include bibliographic, chemical, 
# crystal, experimental, refinement or atomic coordinate data resulting 
# from the CCDC's data processing and validation procedures.
#
#######################################################################

data_DUBHUF
_chemical_formula_moiety         'C18 H12 N2 O3 S1'
_chemical_name_systematic        
N-(3-Methyl-1,3-benzothiazol-2(3H)-ylidene)-2-oxo-2H-chromene-3-carboxamide
_symmetry_cell_setting           orthorhombic
_symmetry_space_group_name_H-M   'P 21 21 21'
_symmetry_Int_Tables_number      19
_space_group_name_Hall           'P 2ac 2ab'
loop_
_symmetry_equiv_pos_site_id
_symmetry_equiv_pos_as_xyz
1 x,y,z
2 1/2+x,1/2-y,-z
3 -x,1/2+y,1/2-z
4 1/2-x,-y,1/2+z
_cell_length_a                   6.9633(2)
_cell_length_b                   13.3007(4)
_cell_length_c                   16.1173(5)
_cell_angle_alpha                90
_cell_angle_beta                 90
_cell_angle_gamma                90
_cell_volume                     1492.73
_exptl_crystal_colour            colorless
_exptl_crystal_description       needle
_cell_formula_units_Z            4
loop_
_atom_site_label
_atom_site_type_symbol
_atom_site_fract_x
_atom_site_fract_y
_atom_site_fract_z
C1 C 0.8607(6) 0.7752(2) 1.06384(19)
C2 C 0.8400(6) 0.9586(3) 1.3108(2)
H1 H 0.8315 1.0165 1.3430
C3 C 0.8448(5) 0.9676(3) 1.2252(2)
H2 H 0.8431 1.0302 1.1995
C4 C 0.8522(6) 0.8802(2) 1.17976(19)
C5 C 0.8601(6) 0.6579(2) 0.9610(2)
C6 C 0.8507(5) 0.6440(2) 0.86884(19)
C7 C 0.8120(5) 0.5442(3) 0.8353(2)
C8 C 0.8405(6) 0.6152(3) 0.6975(2)
C9 C 0.8297(6) 0.5974(3) 0.6129(2)
H3 H 0.8035 0.5333 0.5928
C10 C 0.8581(7) 0.6758(3) 0.5599(2)
H4 H 0.8497 0.6648 0.5030
C11 C 0.8472(6) 0.8669(3) 1.3493(2)
H5 H 0.8438 0.8636 1.4069
C12 C 0.8611(6) 0.7871(3) 1.21779(19)
C13 C 0.8596(6) 0.7799(3) 1.3039(2)
H6 H 0.8668 0.7177 1.3301
C14 C 0.8761(6) 0.7099(3) 0.72890(19)
C15 C 0.9079(6) 0.7885(3) 0.6729(2)
H7 H 0.9351 0.8527 0.6926
C16 C 0.8992(8) 0.7714(3) 0.5888(2)
H8 H 0.9208 0.8237 0.5517
C17 C 0.8792(6) 0.7221(2) 0.8165(2)
H9 H 0.9014 0.7857 0.8385
C18 C 0.8466(6) 0.9576(2) 1.0371(2)
H10 H 0.8865 0.9377 0.9825
H11 H 0.9301 1.0096 1.0573
H12 H 0.7172 0.9823 1.0350
N1 N 0.8559(5) 0.87083(18) 1.09292(14)
N2 N 0.8568(5) 0.7570(2) 0.98431(16)
O1 O 0.8131(4) 0.53532(16) 0.74972(16)
O2 O 0.8742(5) 0.58709(17) 1.00879(14)
O3 O 0.7756(4) 0.46882(18) 0.87306(17)
S1 S 0.86904(15) 0.68918(7) 1.14593(5)
loop_
_geom_bond_atom_site_label_1
_geom_bond_atom_site_label_2
_geom_bond_site_symmetry_1
_geom_bond_site_symmetry_2
C1 N1 1_555 1_555
C2 H1 1_555 1_555
C3 C2 1_555 1_555
H2 C3 1_555 1_555
C4 C3 1_555 1_555
C5 C6 1_555 1_555
C6 C7 1_555 1_555
C7 O1 1_555 1_555
C8 C9 1_555 1_555
C9 H3 1_555 1_555
C10 C9 1_555 1_555
H4 C10 1_555 1_555
C11 C2 1_555 1_555
H5 C11 1_555 1_555
C12 C4 1_555 1_555
C13 C11 1_555 1_555
H6 C13 1_555 1_555
C14 C8 1_555 1_555
C15 C14 1_555 1_555
H7 C15 1_555 1_555
C16 C10 1_555 1_555
H8 C16 1_555 1_555
C17 C6 1_555 1_555
H9 C17 1_555 1_555
C18 H10 1_555 1_555
H11 C18 1_555 1_555
H12 C18 1_555 1_555
N1 C4 1_555 1_555
N2 C1 1_555 1_555
O1 C8 1_555 1_555
O2 C5 1_555 1_555
O3 C7 1_555 1_555
S1 C1 1_555 1_555
C5 N2 1_555 1_555
C12 C13 1_555 1_555
C12 S1 1_555 1_555
C14 C17 1_555 1_555
C15 C16 1_555 1_555
C18 N1 1_555 1_555

#END
