
#######################################################################
#
#                 Cambridge Crystallographic Data Centre
#                                CCDC 
#
#######################################################################
#
# If this CIF has been generated from an entry in the Cambridge 
# Structural Database, then it will include bibliographic, chemical, 
# crystal, experimental, refinement or atomic coordinate data resulting 
# from the CCDC's data processing and validation procedures.
#
#######################################################################

data_DUCRUP
_chemical_formula_moiety         'C10 H26 N4 2+,2(Cl1 1-),0.5(H2 O1)'
_chemical_name_systematic        
'4,11-Diaza-1,8-diazoniacyclotetradecane dichloride hemihydrate'
_symmetry_cell_setting           monoclinic
_symmetry_space_group_name_H-M   'P 21/c'
_symmetry_Int_Tables_number      14
_space_group_name_Hall           '-P 2ybc'
loop_
_symmetry_equiv_pos_site_id
_symmetry_equiv_pos_as_xyz
1 x,y,z
2 -x,1/2+y,1/2-z
3 -x,-y,-z
4 x,1/2-y,1/2+z
_cell_length_a                   6.827(7)
_cell_length_b                   14.071(16)
_cell_length_c                   16.055(16)
_cell_angle_alpha                90
_cell_angle_beta                 97.84(3)
_cell_angle_gamma                90
_cell_volume                     1527.87
_exptl_crystal_colour            colorless
_exptl_crystal_description       needle
_cell_formula_units_Z            4
_exptl_crystal_recrystallization_method dichloromethane
loop_
_atom_site_label
_atom_site_type_symbol
_atom_site_fract_x
_atom_site_fract_y
_atom_site_fract_z
N1 N 0.7249(6) 0.4173(2) 0.2123(2)
H1 H 0.6227 0.4290 0.2365
N2 N 0.5366(5) 0.2363(2) 0.1733(2)
H2 H 0.4233 0.2397 0.1909
H3 H 0.6292 0.2611 0.2084
N3 N 0.8016(5) 0.1650(2) 0.3153(2)
H4 H 0.9071 0.1604 0.2918
N4 N 0.9882(5) 0.3461(3) 0.3557(2)
H5 H 0.9066 0.3187 0.3175
H6 H 1.0960 0.3410 0.3339
C1 C 0.6795(8) 0.4357(3) 0.1219(3)
H7 H 0.7938 0.4201 0.0947
H8 H 0.6515 0.5028 0.1129
C2 C 0.5032(7) 0.3779(4) 0.0822(3)
H9 H 0.3902 0.3928 0.1105
H10 H 0.4709 0.3964 0.0238
C3 C 0.5392(7) 0.2717(4) 0.0867(3)
H11 H 0.4377 0.2395 0.0488
H12 H 0.6662 0.2575 0.0689
C4 C 0.5882(7) 0.1337(3) 0.1843(3)
H13 H 0.7030 0.1196 0.1570
H14 H 0.4789 0.0950 0.1585
C5 C 0.6317(7) 0.1110(3) 0.2767(3)
H15 H 0.5175 0.1263 0.3040
H16 H 0.6582 0.0436 0.2840
C6 C 0.8527(8) 0.1452(4) 0.4051(3)
H17 H 0.8830 0.0782 0.4127
H18 H 0.7395 0.1592 0.4335
C7 C 1.0288(8) 0.2034(4) 0.4450(3)
H19 H 1.0624 0.1839 0.5031
H20 H 1.1414 0.1895 0.4161
C8 C 0.9932(8) 0.3095(4) 0.4424(3)
H21 H 0.8686 0.3234 0.4625
H22 H 1.0977 0.3412 0.4792
C9 C 0.9384(7) 0.4482(3) 0.3442(3)
H23 H 1.0482 0.4867 0.3699
H24 H 0.8237 0.4630 0.3714
C10 C 0.8954(7) 0.4709(3) 0.2517(3)
H25 H 0.8697 0.5384 0.2444
H26 H 1.0099 0.4553 0.2246
Cl1 Cl 0.08543(19) 0.22997(10) 0.17133(7)
Cl2 Cl 0.4464(2) 0.35637(10) 0.36069(8)
O1 O 0.6491(12) 0.0033(6) 0.0003(5)
H27 H 0.6316 -0.0355 0.0371
H28 H 0.6030 0.0408 -0.0370
loop_
_geom_bond_atom_site_label_1
_geom_bond_atom_site_label_2
_geom_bond_site_symmetry_1
_geom_bond_site_symmetry_2
N1 H1 1_555 1_555
N2 H2 1_555 1_555
H3 N2 1_555 1_555
N3 H4 1_555 1_555
N4 H5 1_555 1_555
H6 N4 1_555 1_555
C1 N1 1_555 1_555
H7 C1 1_555 1_555
H8 C1 1_555 1_555
C2 C1 1_555 1_555
H9 C2 1_555 1_555
H10 C2 1_555 1_555
C3 N2 1_555 1_555
H11 C3 1_555 1_555
H12 C3 1_555 1_555
C4 N2 1_555 1_555
H13 C4 1_555 1_555
H14 C4 1_555 1_555
C5 N3 1_555 1_555
H15 C5 1_555 1_555
H16 C5 1_555 1_555
C6 N3 1_555 1_555
H17 C6 1_555 1_555
H18 C6 1_555 1_555
C7 C6 1_555 1_555
H19 C7 1_555 1_555
H20 C7 1_555 1_555
C8 N4 1_555 1_555
H21 C8 1_555 1_555
H22 C8 1_555 1_555
C9 N4 1_555 1_555
H23 C9 1_555 1_555
H24 C9 1_555 1_555
C10 N1 1_555 1_555
H25 C10 1_555 1_555
H26 C10 1_555 1_555
O1 H27 1_555 1_555
H28 O1 1_555 1_555
C2 C3 1_555 1_555
C4 C5 1_555 1_555
C7 C8 1_555 1_555
C9 C10 1_555 1_555

#END
