
#######################################################################
#
#                 Cambridge Crystallographic Data Centre
#                                CCDC 
#
#######################################################################
#
# If this CIF has been generated from an entry in the Cambridge 
# Structural Database, then it will include bibliographic, chemical, 
# crystal, experimental, refinement or atomic coordinate data resulting 
# from the CCDC's data processing and validation procedures.
#
#######################################################################

data_DUCTIF
_chemical_formula_moiety         'C5 H7 N3 O1 S2'
_chemical_name_systematic        
N-(5-(Methylsulfanyl)-1,3,4-thiadiazol-2-yl)acetamide
_symmetry_cell_setting           triclinic
_symmetry_space_group_name_H-M   'P -1'
_symmetry_Int_Tables_number      2
_space_group_name_Hall           '-P 1'
loop_
_symmetry_equiv_pos_site_id
_symmetry_equiv_pos_as_xyz
1 x,y,z
2 -x,-y,-z
_cell_length_a                   5.0797(10)
_cell_length_b                   7.9894(16)
_cell_length_c                   10.081(2)
_cell_angle_alpha                91.96(3)
_cell_angle_beta                 90.94(3)
_cell_angle_gamma                105.27(3)
_cell_volume                     394.313
_exptl_crystal_colour            yellow
_exptl_crystal_description       block
_cell_formula_units_Z            2
_exptl_crystal_recrystallization_method ethanol
loop_
_atom_site_label
_atom_site_type_symbol
_atom_site_fract_x
_atom_site_fract_y
_atom_site_fract_z
C1 C 0.8654(4) 0.6728(3) 0.3920(2)
H1 H 0.8055 0.5632 0.4333
H2 H 0.9004 0.6534 0.3002
H3 H 0.7261 0.7336 0.3984
C2 C 1.0570(4) 0.8285(2) 0.63353(18)
C3 C 0.8380(4) 0.8321(2) 0.83774(18)
C4 C 0.4332(4) 0.6973(2) 0.95823(19)
C5 C 0.2992(4) 0.7042(3) 1.0889(2)
H4 H 0.1062 0.6539 1.0780
H5 H 0.3327 0.8229 1.1205
H6 H 0.3730 0.6404 1.1521
H7 H 0.732(5) 0.878(3) 1.008(2)
N1 N 1.2055(3) 0.9415(2) 0.71786(16)
N2 N 1.0764(3) 0.9425(2) 0.83800(16)
N3 N 0.6785(3) 0.8170(2) 0.94718(17)
O1 O 0.3383(3) 0.59336(19) 0.86769(14)
S1 S 1.17277(10) 0.80015(7) 0.47435(5)
S2 S 0.74395(9) 0.71212(6) 0.69103(5)
loop_
_geom_bond_atom_site_label_1
_geom_bond_atom_site_label_2
_geom_bond_site_symmetry_1
_geom_bond_site_symmetry_2
C1 H1 1_555 1_555
H2 C1 1_555 1_555
H3 C1 1_555 1_555
C2 N1 1_555 1_555
C3 N2 1_555 1_555
C4 C5 1_555 1_555
C5 H4 1_555 1_555
H5 C5 1_555 1_555
H6 C5 1_555 1_555
H7 N3 1_555 1_555
N1 N2 1_555 1_555
N3 C3 1_555 1_555
O1 C4 1_555 1_555
S1 C1 1_555 1_555
S2 C2 1_555 1_555
C2 S1 1_555 1_555
C3 S2 1_555 1_555
C4 N3 1_555 1_555

#END
