
#######################################################################
#
#                 Cambridge Crystallographic Data Centre
#                                CCDC 
#
#######################################################################
#
# If this CIF has been generated from an entry in the Cambridge 
# Structural Database, then it will include bibliographic, chemical, 
# crystal, experimental, refinement or atomic coordinate data resulting 
# from the CCDC's data processing and validation procedures.
#
#######################################################################

data_DUDJAO
_chemical_name_common            
2-(4-Methylbenzylidene)hydrazinecarbothioamide
_chemical_formula_moiety         'C9 H11 N3 S1'
_chemical_name_systematic        '4-Methylbenzaldehyde thiosemicarbazone'
_symmetry_cell_setting           monoclinic
_symmetry_space_group_name_H-M   'P 21/c'
_symmetry_Int_Tables_number      14
_space_group_name_Hall           '-P 2ybc'
loop_
_symmetry_equiv_pos_site_id
_symmetry_equiv_pos_as_xyz
1 x,y,z
2 -x,1/2+y,1/2-z
3 -x,-y,-z
4 x,1/2-y,1/2+z
_cell_length_a                   13.234(3)
_cell_length_b                   8.221(2)
_cell_length_c                   10.311(2)
_cell_angle_alpha                90
_cell_angle_beta                 111.15(3)
_cell_angle_gamma                90
_cell_volume                     1046.24
_exptl_crystal_colour            colorless
_exptl_crystal_description       block
_cell_formula_units_Z            4
_exptl_crystal_recrystallization_method 'ethyl acetate'
loop_
_atom_site_label
_atom_site_type_symbol
_atom_site_fract_x
_atom_site_fract_y
_atom_site_fract_z
S1 S 0.48277(7) 0.09017(9) 0.81196(7)
N1 N 0.34064(18) -0.0455(3) 0.4236(2)
C1 C -0.0005(3) -0.2600(6) -0.1894(3)
H1 H -0.0374 -0.3614 -0.1934
H2 H 0.0324 -0.2593 -0.2585
H3 H -0.0514 -0.1721 -0.2067
N2 N 0.40264(19) -0.0458(3) 0.5647(2)
H4 H 0.4275 -0.1358 0.6065
C2 C 0.0863(3) -0.2397(5) -0.0467(3)
N3 N 0.3955(2) 0.2299(3) 0.5633(3)
H5 H 0.3650 0.2263 0.4743
H6 H 0.4078 0.3222 0.6054
C3 C 0.1264(3) -0.0877(4) 0.0043(3)
H7 H 0.1006 0.0034 -0.0513
C4 C 0.2041(3) -0.0681(4) 0.1365(3)
H8 H 0.2302 0.0352 0.1678
C5 C 0.2429(2) -0.2018(4) 0.2222(3)
C6 C 0.2060(2) -0.3553(4) 0.1705(3)
H9 H 0.2329 -0.4465 0.2255
C7 C 0.1289(3) -0.3741(4) 0.0370(3)
H10 H 0.1056 -0.4779 0.0036
C8 C 0.3157(2) -0.1842(4) 0.3664(3)
H11 H 0.3446 -0.2770 0.4180
C9 C 0.4235(2) 0.0939(3) 0.6353(3)
loop_
_geom_bond_atom_site_label_1
_geom_bond_atom_site_label_2
_geom_bond_site_symmetry_1
_geom_bond_site_symmetry_2
S1 C9 1_555 1_555
N1 N2 1_555 1_555
C1 H1 1_555 1_555
H2 C1 1_555 1_555
H3 C1 1_555 1_555
N2 H4 1_555 1_555
C2 C1 1_555 1_555
N3 H5 1_555 1_555
H6 N3 1_555 1_555
C3 C2 1_555 1_555
H7 C3 1_555 1_555
C4 C3 1_555 1_555
H8 C4 1_555 1_555
C5 C4 1_555 1_555
C6 C5 1_555 1_555
H9 C6 1_555 1_555
C7 C2 1_555 1_555
H10 C7 1_555 1_555
C8 N1 1_555 1_555
H11 C8 1_555 1_555
C9 N2 1_555 1_555
N3 C9 1_555 1_555
C5 C8 1_555 1_555
C6 C7 1_555 1_555

#END
