
#######################################################################
#
#                 Cambridge Crystallographic Data Centre
#                                CCDC 
#
#######################################################################
#
# If this CIF has been generated from an entry in the Cambridge 
# Structural Database, then it will include bibliographic, chemical, 
# crystal, experimental, refinement or atomic coordinate data resulting 
# from the CCDC's data processing and validation procedures.
#
#######################################################################

data_DUDJIW
_chemical_formula_moiety         'C23 H15 N3 S1'
_chemical_name_systematic        
2,6-Diphenyl-4-(2-thienyl)-1,4-dihydropyridine-3,5-dicarbonitrile
_symmetry_cell_setting           triclinic
_symmetry_space_group_name_H-M   'P -1'
_symmetry_Int_Tables_number      2
_space_group_name_Hall           '-P 1'
loop_
_symmetry_equiv_pos_site_id
_symmetry_equiv_pos_as_xyz
1 x,y,z
2 -x,-y,-z
_cell_length_a                   11.2726(14)
_cell_length_b                   11.8903(15)
_cell_length_c                   14.5544(17)
_cell_angle_alpha                86.571(2)
_cell_angle_beta                 88.755(2)
_cell_angle_gamma                81.249(1)
_cell_volume                     1924.47
_exptl_crystal_colour            yellow
_exptl_crystal_description       block
_cell_formula_units_Z            4
loop_
_atom_site_label
_atom_site_type_symbol
_atom_site_fract_x
_atom_site_fract_y
_atom_site_fract_z
S1 S 1.15432(13) 0.07649(11) 1.06543(10)
N1 N 0.8726(3) 0.2896(2) 0.94731(17)
H1 H 0.8320 0.2821 0.8993
N2 N 0.8246(3) 0.2069(3) 1.2711(2)
N3 N 1.2341(3) 0.4398(3) 0.9984(2)
C1 C 0.8299(3) 0.2556(3) 1.0316(2)
C2 C 0.8961(3) 0.2574(3) 1.1076(2)
C3 C 1.0226(3) 0.2887(3) 1.1043(2)
H3 H 1.0246 0.3478 1.1480
C4 C 1.0467(3) 0.3400(3) 1.0091(2)
C5 C 0.9770(3) 0.3352(3) 0.9359(2)
C6 C 0.7073(3) 0.2246(3) 1.0299(2)
C7 C 0.6763(4) 0.1307(3) 1.0811(2)
H4 H 0.7327 0.0854 1.1184
C8 C 0.5609(4) 0.1051(4) 1.0764(3)
H5 H 0.5401 0.0421 1.1103
C9 C 0.4776(4) 0.1718(4) 1.0224(3)
H6 H 0.4001 0.1542 1.0202
C10 C 0.5065(4) 0.2637(3) 0.9715(3)
H7 H 0.4493 0.3087 0.9347
C11 C 0.6212(3) 0.2898(3) 0.9749(2)
H8 H 0.6411 0.3523 0.9397
C12 C 0.8522(3) 0.2293(3) 1.1969(2)
C13 C 1.1162(3) 0.1895(3) 1.1329(2)
C14 C 1.1826(4) 0.1745(3) 1.2162(3)
H9 H 1.1763 0.2254 1.2628
C15 C 1.2610(4) 0.0671(5) 1.2155(4)
H10 H 1.3123 0.0400 1.2638
C16 C 1.2544(4) 0.0088(4) 1.1400(4)
H11 H 1.3005 -0.0614 1.1304
C17 C 1.1503(4) 0.3958(3) 1.0003(2)
C18 C 0.9985(3) 0.3797(3) 0.8404(2)
C19 C 0.9072(4) 0.4475(3) 0.7920(2)
H12 H 0.8337 0.4696 0.8210
C20 C 0.9240(5) 0.4825(3) 0.7014(3)
H13 H 0.8623 0.5282 0.6694
C21 C 1.0329(6) 0.4495(4) 0.6583(3)
H14 H 1.0442 0.4724 0.5969
C22 C 1.1238(5) 0.3836(4) 0.7049(3)
H15 H 1.1972 0.3627 0.6755
C23 C 1.1080(4) 0.3474(4) 0.7958(3)
H16 H 1.1703 0.3016 0.8271
S2 S 0.4830(7) 0.0834(5) 0.5978(5)
N4 N 0.6938(3) 0.2732(2) 0.44938(17)
H2 H 0.7373 0.2546 0.4018
N5 N 0.7532(3) 0.2538(3) 0.7749(2)
N6 N 0.2860(3) 0.4465(3) 0.4966(2)
C24 C 0.7442(3) 0.2505(3) 0.5357(2)
C25 C 0.6731(3) 0.2670(3) 0.6107(2)
C26 C 0.5381(3) 0.2973(3) 0.6072(2)
H17 H 0.5144 0.3601 0.6477
C27 C 0.5019(3) 0.3403(3) 0.5100(2)
C28 C 0.5775(3) 0.3242(3) 0.4368(2)
C29 C 0.8750(3) 0.2102(3) 0.5369(2)
C30 C 0.9234(4) 0.1189(4) 0.5951(3)
H18 H 0.8735 0.0818 0.6341
C31 C 1.0459(5) 0.0831(5) 0.5952(3)
H19 H 1.0781 0.0209 0.6333
C32 C 1.1197(5) 0.1388(6) 0.5395(4)
H20 H 1.2023 0.1158 0.5410
C33 C 1.0726(4) 0.2285(5) 0.4814(3)
H21 H 1.1232 0.2655 0.4430
C34 C 0.9508(4) 0.2643(4) 0.4795(3)
H22 H 0.9193 0.3250 0.4396
C35 C 0.7223(3) 0.2582(3) 0.7005(2)
C36 C 0.4766(4) 0.2004(5) 0.6415(3)
C37 C 0.4036(13) 0.2143(13) 0.7245(9)
H23 H 0.3899 0.2784 0.7590
C38 C 0.3546(15) 0.1055(15) 0.7434(10)
H24 H 0.3035 0.0924 0.7927
C39 C 0.395(7) 0.024(7) 0.678(5)
H25 H 0.3765 -0.0495 0.6782
C40 C 0.3836(4) 0.3998(3) 0.4991(2)
C41 C 0.5466(3) 0.3632(3) 0.3408(2)
C42 C 0.4461(4) 0.3353(3) 0.2997(3)
H26 H 0.3964 0.2914 0.3328
C43 C 0.4195(5) 0.3726(4) 0.2094(3)
H27 H 0.3510 0.3552 0.1823
C44 C 0.4940(5) 0.4350(4) 0.1603(3)
H28 H 0.4766 0.4586 0.0993
C45 C 0.5935(5) 0.4630(3) 0.1995(3)
H29 H 0.6432 0.5062 0.1657
C46 C 0.6204(4) 0.4267(3) 0.2904(2)
H30 H 0.6884 0.4454 0.3172
C47? C 0.492(4) 0.111(4) 0.568(3)
C48? C 0.442(2) 0.008(3) 0.6026(17)
C49? C 0.390(16) 0.025(15) 0.691(11)
H31? H 0.5270 0.1204 0.5100
H32? H 0.4446 -0.0579 0.5711
H33? H 0.3508 -0.0272 0.7244
S3? S 0.4086(13) 0.1479(9) 0.7278(7)
loop_
_geom_bond_atom_site_label_1
_geom_bond_atom_site_label_2
_geom_bond_site_symmetry_1
_geom_bond_site_symmetry_2
S1 C13 1_555 1_555
S2 C36 1_555 1_555
N1 H1 1_555 1_555
N2 C12 1_555 1_555
N3 C17 1_555 1_555
N4 H2 1_555 1_555
N5 C35 1_555 1_555
N6 C40 1_555 1_555
C1 N1 1_555 1_555
C2 C1 1_555 1_555
C3 C2 1_555 1_555
H3 C3 1_555 1_555
C4 C3 1_555 1_555
C5 N1 1_555 1_555
C6 C1 1_555 1_555
C7 C6 1_555 1_555
H4 C7 1_555 1_555
C8 C7 1_555 1_555
H5 C8 1_555 1_555
C9 C8 1_555 1_555
H6 C9 1_555 1_555
C10 C9 1_555 1_555
H7 C10 1_555 1_555
C11 C6 1_555 1_555
H8 C11 1_555 1_555
C12 C2 1_555 1_555
C13 C3 1_555 1_555
C14 C13 1_555 1_555
H9 C14 1_555 1_555
C15 C14 1_555 1_555
H10 C15 1_555 1_555
C16 S1 1_555 1_555
H11 C16 1_555 1_555
C17 C4 1_555 1_555
C18 C5 1_555 1_555
C19 C18 1_555 1_555
H12 C19 1_555 1_555
C20 C19 1_555 1_555
H13 C20 1_555 1_555
C21 C20 1_555 1_555
H14 C21 1_555 1_555
C22 C21 1_555 1_555
H15 C22 1_555 1_555
C23 C18 1_555 1_555
H16 C23 1_555 1_555
C24 N4 1_555 1_555
C25 C24 1_555 1_555
C26 C25 1_555 1_555
H17 C26 1_555 1_555
C27 C26 1_555 1_555
C28 N4 1_555 1_555
C29 C24 1_555 1_555
C30 C29 1_555 1_555
H18 C30 1_555 1_555
C31 C30 1_555 1_555
H19 C31 1_555 1_555
C32 C31 1_555 1_555
H20 C32 1_555 1_555
C33 C32 1_555 1_555
H21 C33 1_555 1_555
C34 C29 1_555 1_555
H22 C34 1_555 1_555
C35 C25 1_555 1_555
C36 C26 1_555 1_555
C37 C36 1_555 1_555
H23 C37 1_555 1_555
C38 C37 1_555 1_555
H24 C38 1_555 1_555
C39 S2 1_555 1_555
H25 C39 1_555 1_555
C40 C27 1_555 1_555
C41 C28 1_555 1_555
C42 C41 1_555 1_555
H26 C42 1_555 1_555
C43 C42 1_555 1_555
H27 C43 1_555 1_555
C44 C43 1_555 1_555
H28 C44 1_555 1_555
C45 C44 1_555 1_555
H29 C45 1_555 1_555
C46 C41 1_555 1_555
H30 C46 1_555 1_555
C4 C5 1_555 1_555
C10 C11 1_555 1_555
C15 C16 1_555 1_555
C22 C23 1_555 1_555
C27 C28 1_555 1_555
C33 C34 1_555 1_555
C38 C39 1_555 1_555
C45 C46 1_555 1_555

#END
