
#######################################################################
#
#                 Cambridge Crystallographic Data Centre
#                                CCDC 
#
#######################################################################
#
# If this CIF has been generated from an entry in the Cambridge 
# Structural Database, then it will include bibliographic, chemical, 
# crystal, experimental, refinement or atomic coordinate data resulting 
# from the CCDC's data processing and validation procedures.
#
#######################################################################

data_DUDPAV
_chemical_formula_moiety         'C21 H30 O3'
_chemical_name_systematic        
14-hydroxy-10,15,16-trimethyl-17-oxapentacyclo[13.2.2.0^1,14^.0^2,11^.0^5,10^]nonadec-5-en-7-one
_symmetry_cell_setting           orthorhombic
_symmetry_space_group_name_H-M   'P 21 21 21'
_symmetry_Int_Tables_number      19
_space_group_name_Hall           'P 2ac 2ab'
loop_
_symmetry_equiv_pos_site_id
_symmetry_equiv_pos_as_xyz
1 x,y,z
2 1/2-x,-y,1/2+z
3 1/2+x,1/2-y,-z
4 -x,1/2+y,1/2-z
_cell_length_a                   10.55248(15)
_cell_length_b                   12.14700(16)
_cell_length_c                   14.56841(18)
_cell_angle_alpha                90
_cell_angle_beta                 90
_cell_angle_gamma                90
_cell_volume                     1867.39
_cell_formula_units_Z            4
loop_
_atom_site_label
_atom_site_type_symbol
_atom_site_fract_x
_atom_site_fract_y
_atom_site_fract_z
O1 O 0.57443(14) 0.37998(16) 0.74805(12)
O2 O -0.25172(14) 0.52748(15) 0.65889(11)
H1 H -0.293(3) 0.482(2) 0.687(2)
O3 O -0.01128(11) 0.47770(10) 0.49095(7)
C1 C 0.23895(18) 0.35447(16) 0.77574(12)
H2 H 0.1815 0.3217 0.8199
H3 H 0.2371 0.3091 0.7210
C2 C 0.37208(19) 0.35162(18) 0.81529(13)
H4 H 0.3722 0.3864 0.8752
H5 H 0.3985 0.2757 0.8231
C3 C 0.46367(18) 0.40964(19) 0.75397(13)
C4 C 0.41593(19) 0.50560(17) 0.70605(14)
H6 H 0.4731 0.5479 0.6726
C5 C 0.29404(17) 0.53699(14) 0.70707(11)
C6 C 0.2539(2) 0.64369(15) 0.66327(15)
H7 H 0.3261 0.6771 0.6330
H8 H 0.2246 0.6940 0.7104
C7 C 0.14827(19) 0.62553(14) 0.59337(13)
H9 H 0.1813 0.5838 0.5419
H10 H 0.1196 0.6962 0.5704
C8 C 0.03605(16) 0.56388(13) 0.63503(11)
H11 H -0.0007 0.6104 0.6831
C9 C 0.07996(15) 0.45519(12) 0.67990(10)
H12 H 0.1146 0.4101 0.6301
C10 C 0.18968(15) 0.46937(14) 0.75101(10)
C11 C -0.03389(18) 0.39143(17) 0.71767(15)
H13 H -0.0046 0.3244 0.7470
H14 H -0.0767 0.4357 0.7636
C12 C -0.12645(18) 0.36249(16) 0.64130(16)
H15 H -0.1973 0.3215 0.6665
H16 H -0.0845 0.3165 0.5961
C13 C -0.17460(16) 0.46721(15) 0.59570(13)
C14 C -0.06579(16) 0.54141(12) 0.56445(11)
C15 C -0.1362(2) 0.63879(14) 0.52026(14)
H17 H -0.0858 0.6725 0.4722
H18 H -0.1578 0.6942 0.5656
C16 C -0.2566(2) 0.58396(18) 0.48049(17)
H19 H -0.3322 0.6097 0.5117
H20 H -0.2647 0.5986 0.4153
C17 C -0.23373(18) 0.46072(16) 0.49877(15)
C18 C -0.3491(2) 0.3879(2) 0.4863(2)
H21 H -0.3292 0.3143 0.5054
H22 H -0.3734 0.3875 0.4228
H23 H -0.4177 0.4158 0.5227
C19 C 0.1461(2) 0.5294(2) 0.83916(13)
H24 H 0.0872 0.4838 0.8719
H25 H 0.1059 0.5975 0.8229
H26 H 0.2183 0.5441 0.8774
C20 C -0.1170(2) 0.43327(19) 0.43862(15)
H27 H -0.1241 0.4764 0.3820
C21 C -0.0862(3) 0.3161(2) 0.4117(2)
H28 H -0.0008 0.3125 0.3892
H29 H -0.1435 0.2923 0.3645
H30 H -0.0946 0.2690 0.4643
loop_
_geom_bond_atom_site_label_1
_geom_bond_atom_site_label_2
_geom_bond_site_symmetry_1
_geom_bond_site_symmetry_2
O1 C3 1_555 1_555
O2 H1 1_555 1_555
O3 C14 1_555 1_555
C1 H2 1_555 1_555
H3 C1 1_555 1_555
C2 C1 1_555 1_555
H4 C2 1_555 1_555
H5 C2 1_555 1_555
C3 C2 1_555 1_555
C4 C3 1_555 1_555
H6 C4 1_555 1_555
C5 C4 1_555 1_555
C6 C5 1_555 1_555
H7 C6 1_555 1_555
H8 C6 1_555 1_555
C7 C6 1_555 1_555
H9 C7 1_555 1_555
H10 C7 1_555 1_555
C8 C7 1_555 1_555
H11 C8 1_555 1_555
C9 C8 1_555 1_555
H12 C9 1_555 1_555
C10 C1 1_555 1_555
C11 C9 1_555 1_555
H13 C11 1_555 1_555
H14 C11 1_555 1_555
C12 C11 1_555 1_555
H15 C12 1_555 1_555
H16 C12 1_555 1_555
C13 O2 1_555 1_555
C14 C8 1_555 1_555
C15 C14 1_555 1_555
H17 C15 1_555 1_555
H18 C15 1_555 1_555
C16 C15 1_555 1_555
H19 C16 1_555 1_555
H20 C16 1_555 1_555
C17 C13 1_555 1_555
C18 C17 1_555 1_555
H21 C18 1_555 1_555
H22 C18 1_555 1_555
H23 C18 1_555 1_555
C19 C10 1_555 1_555
H24 C19 1_555 1_555
H25 C19 1_555 1_555
H26 C19 1_555 1_555
C20 O3 1_555 1_555
H27 C20 1_555 1_555
C21 C20 1_555 1_555
H28 C21 1_555 1_555
H29 C21 1_555 1_555
H30 C21 1_555 1_555
C5 C10 1_555 1_555
C9 C10 1_555 1_555
C12 C13 1_555 1_555
C13 C14 1_555 1_555
C16 C17 1_555 1_555
C17 C20 1_555 1_555

#END
