
#######################################################################
#
#                 Cambridge Crystallographic Data Centre
#                                CCDC 
#
#######################################################################
#
# If this CIF has been generated from an entry in the Cambridge 
# Structural Database, then it will include bibliographic, chemical, 
# crystal, experimental, refinement or atomic coordinate data resulting 
# from the CCDC's data processing and validation procedures.
#
#######################################################################

data_DUGJOG
_chemical_formula_moiety         'C20 H20 N2 O3'
_chemical_name_systematic        
6-methyl-4-phenyl-3-(2,3,4-trimethoxyphenyl)pyridazine
_symmetry_cell_setting           monoclinic
_symmetry_space_group_name_H-M   'P 21/c'
_symmetry_Int_Tables_number      14
_space_group_name_Hall           '-P 2ybc'
loop_
_symmetry_equiv_pos_site_id
_symmetry_equiv_pos_as_xyz
1 x,y,z
2 -x,1/2+y,1/2-z
3 -x,-y,-z
4 x,1/2-y,1/2+z
_cell_length_a                   13.0301(7)
_cell_length_b                   17.7043(10)
_cell_length_c                   7.4858(4)
_cell_angle_alpha                90
_cell_angle_beta                 94.027(3)
_cell_angle_gamma                90
_cell_volume                     1722.63
_exptl_crystal_colour            colorless
_cell_formula_units_Z            4
loop_
_atom_site_label
_atom_site_type_symbol
_atom_site_fract_x
_atom_site_fract_y
_atom_site_fract_z
O1 O 0.24327(9) -0.17280(7) 0.26687(14)
O2 O 0.30539(8) 0.08692(7) 0.39521(14)
O3 O 0.33629(9) -0.06797(7) 0.47200(15)
N1 N 0.06176(10) 0.15078(10) 0.13946(18)
N2 N 0.02658(10) 0.22228(11) 0.12602(19)
C1 C 0.54704(11) 0.15295(10) -0.0157(2)
H1 H 0.6169 0.1448 -0.0393
C2 C 0.52075(11) 0.21444(10) 0.0857(2)
H2 H 0.5724 0.2485 0.1318
C3 C 0.41825(11) 0.22632(10) 0.1200(2)
H3 H 0.4003 0.2684 0.1901
C4 C 0.34183(11) 0.17687(10) 0.05221(19)
C5 C 0.23257(11) 0.19261(11) 0.08489(19)
C6 C 0.16130(11) 0.13564(11) 0.12324(19)
C7 C 0.18694(11) 0.05447(11) 0.1510(2)
C8 C 0.13674(11) -0.00130(12) 0.0476(2)
H4 H 0.0884 0.0135 -0.0468
C9 C 0.15460(12) -0.07791(11) 0.0770(2)
H5 H 0.1210 -0.1146 0.0010
C10 C 0.22213(12) -0.09993(11) 0.2188(2)
C11 C 0.19828(14) -0.23093(12) 0.1533(2)
H6 H 0.1232 -0.2289 0.1549
H7 H 0.2229 -0.2804 0.1967
H8 H 0.2179 -0.2233 0.0306
C12 C 0.09142(12) 0.27874(12) 0.0992(2)
C13 C 0.04736(13) 0.35665(13) 0.0942(2)
H9 H 0.0902 0.3898 0.0255
H10 H 0.0456 0.3760 0.2166
H11 H -0.0227 0.3553 0.0372
C14 C 0.19538(12) 0.26512(11) 0.0745(2)
H12 H 0.2399 0.3058 0.0508
C15 C 0.47174(12) 0.10334(11) -0.0829(2)
H13 H 0.4901 0.0610 -0.1519
C16 C 0.36948(12) 0.11520(11) -0.04971(19)
H14 H 0.3181 0.0811 -0.0967
C17 C 0.25787(11) 0.03138(10) 0.29042(19)
C18 C 0.41600(11) 0.08182(11) 0.4231(2)
H15 H 0.4445 0.1320 0.4516
H16 H 0.4445 0.0628 0.3141
H17 H 0.4341 0.0473 0.5227
C19 C 0.27256(11) -0.04467(11) 0.3270(2)
C20 C 0.28680(16) -0.05976(13) 0.6372(2)
H18 H 0.3329 -0.0781 0.7370
H19 H 0.2230 -0.0893 0.6308
H20 H 0.2709 -0.0064 0.6561
loop_
_geom_bond_atom_site_label_1
_geom_bond_atom_site_label_2
_geom_bond_site_symmetry_1
_geom_bond_site_symmetry_2
O1 C10 1_555 1_555
O2 C17 1_555 1_555
O3 C19 1_555 1_555
N1 N2 1_555 1_555
N2 C12 1_555 1_555
C1 H1 1_555 1_555
C2 C1 1_555 1_555
H2 C2 1_555 1_555
C3 C2 1_555 1_555
H3 C3 1_555 1_555
C4 C3 1_555 1_555
C5 C4 1_555 1_555
C6 N1 1_555 1_555
C7 C6 1_555 1_555
C8 C7 1_555 1_555
H4 C8 1_555 1_555
C9 C8 1_555 1_555
H5 C9 1_555 1_555
C10 C9 1_555 1_555
C11 O1 1_555 1_555
H6 C11 1_555 1_555
H7 C11 1_555 1_555
H8 C11 1_555 1_555
C12 C13 1_555 1_555
C13 H9 1_555 1_555
H10 C13 1_555 1_555
H11 C13 1_555 1_555
C14 C5 1_555 1_555
H12 C14 1_555 1_555
C15 C1 1_555 1_555
H13 C15 1_555 1_555
C16 C4 1_555 1_555
H14 C16 1_555 1_555
C17 C7 1_555 1_555
C18 O2 1_555 1_555
H15 C18 1_555 1_555
H16 C18 1_555 1_555
H17 C18 1_555 1_555
C19 C10 1_555 1_555
C20 O3 1_555 1_555
H18 C20 1_555 1_555
H19 C20 1_555 1_555
H20 C20 1_555 1_555
C5 C6 1_555 1_555
C12 C14 1_555 1_555
C15 C16 1_555 1_555
C17 C19 1_555 1_555

#END
