
#######################################################################
#
#                 Cambridge Crystallographic Data Centre
#                                CCDC 
#
#######################################################################
#
# If this CIF has been generated from an entry in the Cambridge 
# Structural Database, then it will include bibliographic, chemical, 
# crystal, experimental, refinement or atomic coordinate data resulting 
# from the CCDC's data processing and validation procedures.
#
#######################################################################

data_DUHKAS
_chemical_formula_moiety         'C6 H5 Cl4 N1 P2'
_chemical_name_systematic        N,N-bis(Dichlorophosphino)-aniline
_symmetry_cell_setting           monoclinic
_symmetry_space_group_name_H-M   'P 21'
_symmetry_Int_Tables_number      4
_space_group_name_Hall           'P 2yb'
loop_
_symmetry_equiv_pos_site_id
_symmetry_equiv_pos_as_xyz
1 x,y,z
2 -x,1/2+y,-z
_cell_length_a                   6.360(2)
_cell_length_b                   25.618(11)
_cell_length_c                   7.146(2)
_cell_angle_alpha                90
_cell_angle_beta                 90.62(2)
_cell_angle_gamma                90
_cell_volume                     1164.23
_chemical_melting_point          45-46deg.C
_cell_formula_units_Z            4
loop_
_atom_site_label
_atom_site_type_symbol
_atom_site_fract_x
_atom_site_fract_y
_atom_site_fract_z
Cl1 Cl 0.175(1) 0.0298(2) 0.0762(8)
Cl2 Cl -0.285(1) 0.0631(3) 0.023(1)
Cl3 Cl -0.053(1) 0.1502(3) -0.5862(8)
Cl4 Cl 0.390(1) 0.1095(3) -0.4852(9)
P1 P -0.040(1) 0.0394(2) -0.1364(8)
P2 P 0.085(1) 0.0861(2) -0.4680(8)
N1 N 0.032(3) 0.0963(5) -0.236(2)
C1 C 0.068(2) 0.1452(4) -0.142(2)
C2 C -0.104(2) 0.1791(4) -0.140(2)
C3 C -0.088(2) 0.2269(4) -0.047(2)
C4 C 0.098(2) 0.2407(4) 0.044(2)
C5 C 0.270(2) 0.2068(4) 0.042(2)
C6 C 0.255(2) 0.1591(4) -0.051(2)
H1 H -0.248(2) 0.1684(4) -0.211(2)
H2 H -0.221(2) 0.2531(4) -0.046(2)
H3 H 0.110(2) 0.2777(4) 0.116(2)
H4 H 0.415(2) 0.2176(4) 0.113(2)
H5 H 0.388(2) 0.1328(4) -0.052(2)
Cl5 Cl 0.6615(9) -0.0270(2) 0.4278(8)
Cl6 Cl 0.2088(9) -0.0657(3) 0.459(1)
Cl7 Cl 0.450(1) -0.1499(2) 1.0790(8)
Cl8 Cl 0.886(1) -0.1073(3) 0.9899(9)
P3 P 0.444(1) -0.0394(2) 0.6299(7)
P4 P 0.576(1) -0.0862(2) 0.9608(8)
N2 N 0.528(2) -0.0951(5) 0.737(2)
C7 C 0.557(2) -0.1431(4) 0.635(2)
C8 C 0.751(2) -0.1528(4) 0.554(2)
C9 C 0.787(2) -0.199(4) 0.462(2)
C10 C 0.628(2) -0.2372(4) 0.450(2)
C11 C 0.433(2) -0.2275(4) 0.531(2)
C12 C 0.397(2) -0.1804(4) 0.623(2)
H6 H 0.875(2) -0.1239(4) 0.564(2)
H7 H 0.938(2) -0.2074(4) 0.399(2)
H8 H 0.655(2) -0.2737(4) 0.378(2)
H9 H 0.310(2) -0.2564(4) 0.522(2)
H10 H 0.247(2) -0.1729(4) 0.656(2)
loop_
_geom_bond_atom_site_label_1
_geom_bond_atom_site_label_2
_geom_bond_site_symmetry_1
_geom_bond_site_symmetry_2
Cl1 P1 1_555 1_555
Cl2 P1 1_555 1_555
Cl3 P2 1_555 1_555
Cl4 P2 1_555 1_555
P1 N1 1_555 1_555
P2 N1 1_555 1_555
N1 C1 1_555 1_555
C1 C2 1_555 1_555
C2 C3 1_555 1_555
C3 C4 1_555 1_555
C4 C5 1_555 1_555
C5 C6 1_555 1_555
C6 C1 1_555 1_555
H1 C2 1_555 1_555
H2 C3 1_555 1_555
H3 C4 1_555 1_555
H4 C5 1_555 1_555
H5 C6 1_555 1_555
Cl5 P3 1_555 1_555
Cl6 P3 1_555 1_555
Cl7 P4 1_555 1_555
Cl8 P4 1_555 1_555
P3 N2 1_555 1_555
P4 N2 1_555 1_555
N2 C7 1_555 1_555
C7 C8 1_555 1_555
C8 C9 1_555 1_555
C9 C10 1_555 1_555
C10 C11 1_555 1_555
C11 C12 1_555 1_555
C12 C7 1_555 1_555
H6 C8 1_555 1_555
H7 C9 1_555 1_555
H8 C10 1_555 1_555
H9 C11 1_555 1_555
H10 C12 1_555 1_555

#END
