
#######################################################################
#
#                 Cambridge Crystallographic Data Centre
#                                CCDC 
#
#######################################################################
#
# If this CIF has been generated from an entry in the Cambridge 
# Structural Database, then it will include bibliographic, chemical, 
# crystal, experimental, refinement or atomic coordinate data resulting 
# from the CCDC's data processing and validation procedures.
#
#######################################################################

data_DUHZUC
_chemical_name_common            '2-(Benzyloxy)benzaldehyde azine'
_chemical_formula_moiety         'C28 H24 N2 O2'
_chemical_name_systematic        (E,E)-bis(2-(Benzyloxy)benzylidene)hydrazine
_symmetry_cell_setting           monoclinic
_symmetry_space_group_name_H-M   'P 21/n'
_symmetry_Int_Tables_number      14
_space_group_name_Hall           '-P 2yn'
loop_
_symmetry_equiv_pos_site_id
_symmetry_equiv_pos_as_xyz
1 x,y,z
2 1/2-x,1/2+y,1/2-z
3 -x,-y,-z
4 1/2+x,1/2-y,1/2+z
_cell_length_a                   11.222(2)
_cell_length_b                   8.1157(15)
_cell_length_c                   12.799(2)
_cell_angle_alpha                90
_cell_angle_beta                 102.297(3)
_cell_angle_gamma                90
_cell_volume                     1138.92
_exptl_crystal_colour            yellow
_exptl_crystal_description       block
_cell_formula_units_Z            2
_exptl_crystal_recrystallization_method ethanol
loop_
_atom_site_label
_atom_site_type_symbol
_atom_site_fract_x
_atom_site_fract_y
_atom_site_fract_z
C1 C 0.76645(18) 0.1813(2) -0.07028(15)
C2 C 0.7692(2) 0.2275(3) -0.17414(17)
H1 H 0.8364 0.1990 -0.2022
C3 C 0.6754(2) 0.3140(3) -0.23634(18)
H2 H 0.6790 0.3436 -0.3058
C4 C 0.5764(2) 0.3566(3) -0.1955(2)
H3 H 0.5130 0.4163 -0.2374
C5 C 0.5694(2) 0.3123(3) -0.09323(19)
H4 H 0.5013 0.3405 -0.0665
C6 C 0.66432(19) 0.2253(3) -0.03029(17)
C7 C 0.86788(18) 0.0949(2) -0.00285(16)
H5 H 0.8684 0.0807 0.0693
C8 C 0.5779(2) 0.2404(4) 0.1251(2)
H6 H 0.4976 0.1985 0.0925
H7 H 0.5762 0.3596 0.1194
C9 C 0.6111(2) 0.1903(3) 0.2398(2)
C10 C 0.7017(2) 0.2695(3) 0.3102(3)
H8 H 0.7445 0.3551 0.2866
C11 C 0.7299(3) 0.2228(5) 0.4164(3)
H9 H 0.7907 0.2782 0.4643
C12 C 0.6691(4) 0.0959(5) 0.4514(2)
H10 H 0.6888 0.0640 0.5228
C13 C 0.5805(3) 0.0169(4) 0.3821(3)
H11 H 0.5391 -0.0699 0.4059
C14 C 0.5506(2) 0.0633(3) 0.2766(2)
H12 H 0.4888 0.0081 0.2297
N1 N 0.95554(14) 0.0385(2) -0.04001(12)
O1 O 0.66609(13) 0.17497(19) 0.07219(12)
C1B C 1.23355(18) -0.1813(2) 0.07028(15)
C2B C 1.2308(2) -0.2275(3) 0.17414(17)
H1B H 1.1636 -0.1990 0.2022
C3B C 1.3246(2) -0.3140(3) 0.23634(18)
H2B H 1.3210 -0.3436 0.3058
C4B C 1.4236(2) -0.3566(3) 0.1955(2)
H3B H 1.4870 -0.4163 0.2374
C5B C 1.4306(2) -0.3123(3) 0.09323(19)
H4B H 1.4987 -0.3405 0.0665
C6B C 1.33568(19) -0.2253(3) 0.03029(17)
C7B C 1.13212(18) -0.0949(2) 0.00285(16)
H5B H 1.1316 -0.0807 -0.0693
C8B C 1.4221(2) -0.2404(4) -0.1251(2)
H6B H 1.5024 -0.1985 -0.0925
H7B H 1.4238 -0.3596 -0.1194
C9B C 1.3889(2) -0.1903(3) -0.2398(2)
C10B C 1.2983(2) -0.2695(3) -0.3102(3)
H8B H 1.2555 -0.3551 -0.2866
C11B C 1.2701(3) -0.2228(5) -0.4164(3)
H9B H 1.2093 -0.2782 -0.4643
C12B C 1.3309(4) -0.0959(5) -0.4514(2)
H10B H 1.3112 -0.0640 -0.5228
C13B C 1.4195(3) -0.0169(4) -0.3821(3)
H11B H 1.4609 0.0699 -0.4059
C14B C 1.4494(2) -0.0633(3) -0.2766(2)
H12B H 1.5112 -0.0081 -0.2297
N1B N 1.04446(14) -0.0385(2) 0.04001(12)
O1B O 1.33391(13) -0.17497(19) -0.07219(12)
loop_
_geom_bond_atom_site_label_1
_geom_bond_atom_site_label_2
_geom_bond_site_symmetry_1
_geom_bond_site_symmetry_2
C1 C2 1_555 1_555
C2 H1 1_555 1_555
C3 C2 1_555 1_555
H2 C3 1_555 1_555
C4 C3 1_555 1_555
H3 C4 1_555 1_555
C5 C4 1_555 1_555
H4 C5 1_555 1_555
C6 C1 1_555 1_555
C7 C1 1_555 1_555
H5 C7 1_555 1_555
C8 H6 1_555 1_555
H7 C8 1_555 1_555
C9 C8 1_555 1_555
C10 C9 1_555 1_555
H8 C10 1_555 1_555
C11 C10 1_555 1_555
H9 C11 1_555 1_555
C12 C11 1_555 1_555
H10 C12 1_555 1_555
C13 C12 1_555 1_555
H11 C13 1_555 1_555
C14 C9 1_555 1_555
H12 C14 1_555 1_555
N1 C7 1_555 1_555
O1 C6 1_555 1_555
C1B C2B 1_555 1_555
C2B H1B 1_555 1_555
C3B C2B 1_555 1_555
H2B C3B 1_555 1_555
C4B C3B 1_555 1_555
H3B C4B 1_555 1_555
C5B C4B 1_555 1_555
H4B C5B 1_555 1_555
C6B C1B 1_555 1_555
C7B C1B 1_555 1_555
H5B C7B 1_555 1_555
C8B H6B 1_555 1_555
H7B C8B 1_555 1_555
C9B C8B 1_555 1_555
C10B C9B 1_555 1_555
H8B C10B 1_555 1_555
C11B C10B 1_555 1_555
H9B C11B 1_555 1_555
C12B C11B 1_555 1_555
H10B C12B 1_555 1_555
C13B C12B 1_555 1_555
H11B C13B 1_555 1_555
C14B C9B 1_555 1_555
H12B C14B 1_555 1_555
N1B N1 1_555 1_555
O1B C6B 1_555 1_555
C5 C6 1_555 1_555
C8 O1 1_555 1_555
C13 C14 1_555 1_555
C5B C6B 1_555 1_555
C7B N1B 1_555 1_555
C8B O1B 1_555 1_555
C13B C14B 1_555 1_555

#END
