
#######################################################################
#
#                 Cambridge Crystallographic Data Centre
#                                CCDC 
#
#######################################################################
#
# If this CIF has been generated from an entry in the Cambridge 
# Structural Database, then it will include bibliographic, chemical, 
# crystal, experimental, refinement or atomic coordinate data resulting 
# from the CCDC's data processing and validation procedures.
#
#######################################################################

data_DUJPII
_chemical_formula_moiety         'C18 H19 N3 O1'
_chemical_name_systematic        
(E)-3-[(4-Diethylamino-2-hydroxybenzylidene)amino]benzonitrile
_symmetry_cell_setting           triclinic
_symmetry_space_group_name_H-M   'P -1'
_symmetry_Int_Tables_number      2
_space_group_name_Hall           '-P 1'
loop_
_symmetry_equiv_pos_site_id
_symmetry_equiv_pos_as_xyz
1 x,y,z
2 -x,-y,-z
_cell_length_a                   8.411(6)
_cell_length_b                   8.519(6)
_cell_length_c                   12.906(9)
_cell_angle_alpha                74.17(4)
_cell_angle_beta                 79.00(4)
_cell_angle_gamma                64.65(2)
_cell_volume                     801.099
_exptl_crystal_colour            yellow
_exptl_crystal_description       block
_cell_formula_units_Z            2
_exptl_crystal_recrystallization_method acetonitrile
loop_
_atom_site_label
_atom_site_type_symbol
_atom_site_fract_x
_atom_site_fract_y
_atom_site_fract_z
C1 C 0.2014(2) 1.0630(2) 0.37779(12)
H1 H 0.0814 1.1144 0.3988
O1 O 0.24337(15) 0.87525(17) 0.55059(9)
N1 N 0.56035(17) 0.63888(18) 0.59125(10)
C2 C 0.4976(2) 0.8526(2) 0.42381(12)
C3 C 0.2656(2) 1.1212(2) 0.27203(12)
C4 C 0.6447(2) 0.4627(2) 0.76732(12)
H2 H 0.5454 0.5452 0.7974
N2 N 0.15321(18) 1.24256(19) 0.19656(10)
C5 C 0.31405(19) 0.9308(2) 0.45073(11)
C6 C 0.6144(2) 0.7100(2) 0.49704(12)
H3 H 0.7348 0.6662 0.4761
C7 C 0.5599(2) 0.9187(2) 0.31953(12)
H4 H 0.6808 0.8729 0.3003
C8 C 0.6806(2) 0.4883(2) 0.65573(12)
C9 C 0.2167(2) 1.3062(2) 0.08716(13)
H5 H 0.3286 1.3124 0.0891
H6 H 0.1333 1.4255 0.0594
C10 C 0.8278(2) 0.3586(2) 0.61325(13)
H7 H 0.8512 0.3716 0.5387
C11 C 0.4508(2) 1.0469(2) 0.24531(13)
H8 H 0.4979 1.0858 0.1769
C12 C 0.7203(2) 0.2892(2) 0.95013(14)
C13 C 0.7571(2) 0.3138(2) 0.83397(12)
C14 C 0.9066(2) 0.1876(2) 0.79080(14)
H9 H 0.9828 0.0895 0.8358
C15 C -0.0392(2) 1.3053(2) 0.21951(13)
H10 H -0.0677 1.2098 0.2678
H11 H -0.0928 1.3357 0.1527
C16 C 0.9387(2) 0.2118(2) 0.68022(14)
H12 H 1.0366 0.1278 0.6502
N3 N 0.6938(2) 0.2678(3) 1.04170(13)
C17 C 0.2415(3) 1.1884(3) 0.01095(15)
H13 H 0.2833 1.2364 -0.0598
H14 H 0.1307 1.1837 0.0074
H15 H 0.3261 1.0707 0.0370
C18 C -0.1160(3) 1.4645(3) 0.27007(17)
H16 H -0.2415 1.4999 0.2842
H17 H -0.0912 1.5606 0.2217
H18 H -0.0644 1.4348 0.3367
H19 H 0.342(3) 0.773(4) 0.5846(19)
loop_
_geom_bond_atom_site_label_1
_geom_bond_atom_site_label_2
_geom_bond_site_symmetry_1
_geom_bond_site_symmetry_2
C1 H1 1_555 1_555
O1 C5 1_555 1_555
N1 C6 1_555 1_555
C2 C5 1_555 1_555
C3 C1 1_555 1_555
C4 H2 1_555 1_555
N2 C3 1_555 1_555
C5 C1 1_555 1_555
C6 C2 1_555 1_555
H3 C6 1_555 1_555
C7 C2 1_555 1_555
H4 C7 1_555 1_555
C8 N1 1_555 1_555
C9 N2 1_555 1_555
H5 C9 1_555 1_555
H6 C9 1_555 1_555
C10 C8 1_555 1_555
H7 C10 1_555 1_555
C11 C3 1_555 1_555
H8 C11 1_555 1_555
C12 C13 1_555 1_555
C13 C4 1_555 1_555
C14 C13 1_555 1_555
H9 C14 1_555 1_555
C15 N2 1_555 1_555
H10 C15 1_555 1_555
H11 C15 1_555 1_555
C16 C10 1_555 1_555
H12 C16 1_555 1_555
N3 C12 1_555 1_555
C17 C9 1_555 1_555
H13 C17 1_555 1_555
H14 C17 1_555 1_555
H15 C17 1_555 1_555
C18 C15 1_555 1_555
H16 C18 1_555 1_555
H17 C18 1_555 1_555
H18 C18 1_555 1_555
H19 O1 1_555 1_555
C4 C8 1_555 1_555
C7 C11 1_555 1_555
C14 C16 1_555 1_555

#END
