
#######################################################################
#
#                 Cambridge Crystallographic Data Centre
#                                CCDC 
#
#######################################################################
#
# If this CIF has been generated from an entry in the Cambridge 
# Structural Database, then it will include bibliographic, chemical, 
# crystal, experimental, refinement or atomic coordinate data resulting 
# from the CCDC's data processing and validation procedures.
#
#######################################################################

data_DUJTAD
_chemical_formula_moiety         '2(C26 H22 O2),C8 H10'
_chemical_name_systematic        
'bis(1,1,2,2-Tetraphenylethane-1,2-diol) p-xylene clathrate'
_symmetry_cell_setting           triclinic
_symmetry_space_group_name_H-M   'P -1'
_symmetry_Int_Tables_number      2
_space_group_name_Hall           '-P 1'
loop_
_symmetry_equiv_pos_site_id
_symmetry_equiv_pos_as_xyz
1 x,y,z
2 -x,-y,-z
_cell_length_a                   6.143(2)
_cell_length_b                   9.197(3)
_cell_length_c                   20.997(5)
_cell_angle_alpha                95.13(2)
_cell_angle_beta                 91.42(2)
_cell_angle_gamma                104.54(3)
_cell_volume                     1142.31
_chemical_melting_point          'decomposes at 112-114 deg.C'
_cell_formula_units_Z            1
loop_
_atom_site_label
_atom_site_type_symbol
_atom_site_fract_x
_atom_site_fract_y
_atom_site_fract_z
O1 O 0.8427(4) 0.4552(4) 0.2813(1)
O2 O 1.4047(4) 0.4018(4) 0.2895(2)
C1 C 1.2438(8) 0.6243(5) 0.3363(2)
C2 C 1.1523(7) 0.7363(5) 0.3198(2)
C3 C 1.2544(9) 0.8868(5) 0.3390(2)
C4 C 1.4498(8) 0.9241(6) 0.3743(2)
C5 C 1.5461(8) 0.8165(7) 0.3923(2)
C6 C 1.4427(10) 0.6678(6) 0.3740(2)
C7 C 1.0592(8) 0.3733(5) 0.3741(2)
C8 C 0.8927(10) 0.4069(7) 0.4101(2)
C9 C 0.8247(9) 0.3306(7) 0.4634(2)
C10 C 0.9267(10) 0.2266(6) 0.4808(2)
C11 C 1.0929(9) 0.1937(6) 0.4464(2)
C12 C 1.1601(8) 0.2676(5) 0.3927(2)
C13 C 1.0455(8) 0.2281(5) 0.2369(2)
C14 C 0.8450(7) 0.1352(5) 0.2510(2)
C15 C 0.7880(7) -0.0163(5) 0.2303(2)
C16 C 0.9329(8) -0.0776(5) 0.1958(2)
C17 C 1.1304(8) 0.0117(6) 0.1803(2)
C18 C 1.1849(8) 0.1635(6) 0.2013(2)
C19 C 1.1470(7) 0.4838(5) 0.1982(2)
C20 C 1.3449(7) 0.5806(5) 0.1856(2)
C21 C 1.3646(8) 0.6545(5) 0.1308(2)
C22 C 1.1885(9) 0.6332(5) 0.0884(2)
C23 C 0.9890(8) 0.5386(6) 0.0994(2)
C24 C 0.9677(7) 0.4640(6) 0.1545(2)
C25 C 1.1311(12) 0.4589(6) 0.3159(2)
C26 C 1.1161(11) 0.3964(6) 0.2570(2)
H1 H 0.7538 0.3861 0.2876
H2 H 1.4908 0.4739 0.3046
H3 H 1.0083 0.7168 0.2892
H4 H 1.1800 0.9646 0.3260
H5 H 1.5211 1.0403 0.3897
H6 H 1.7008 0.8471 0.4205
H7 H 1.4971 0.5922 0.3880
H8 H 0.8164 0.4830 0.4030
H9 H 0.7321 0.3632 0.4884
H10 H 0.8861 0.1716 0.5209
H11 H 1.1888 0.1200 0.4557
H12 H 1.2884 0.2456 0.3725
H13 H 0.7385 0.1718 0.2769
H14 H 0.6545 -0.0705 0.2432
H15 H 0.8903 -0.1872 0.1796
H16 H 1.2348 -0.0327 0.1613
H17 H 1.3277 0.2180 0.1877
H18 H 1.4747 0.6008 0.2131
H19 H 1.5111 0.7231 0.1239
H20 H 1.1920 0.6980 0.0547
H21 H 0.8451 0.5183 0.0724
H22 H 0.8197 0.3902 0.1612
C27 C 0.4108(8) 0.1238(5) 0.0163(2)
C28 C 0.5909(9) 0.1017(6) 0.0503(2)
C29 C 0.3222(8) 0.0171(6) -0.0347(2)
C30 C 0.3067(12) 0.2534(7) 0.0304(3)
H23 H 0.6495 0.1770 0.0866
H24 H 0.1880 0.0348 -0.0558
H25 H 0.4568 0.3440 0.0457
H26 H 0.2395 0.2716 -0.0053
H27 H 0.2083 0.2473 0.0629
C29A C 0.6778(8) -0.0171(6) 0.0347(2)
C28A C 0.4091(9) -0.1017(6) -0.0503(2)
C27A C 0.5892(8) -0.1238(5) -0.0163(2)
H24A H 0.8120 -0.0348 0.0558
H23A H 0.3505 -0.1770 -0.0866
C30A C 0.6933(12) -0.2534(7) -0.0304(3)
H25A H 0.5432 -0.3440 -0.0457
H26A H 0.7605 -0.2716 0.0053
H27A H 0.7917 -0.2473 -0.0629
loop_
_geom_bond_atom_site_label_1
_geom_bond_atom_site_label_2
_geom_bond_site_symmetry_1
_geom_bond_site_symmetry_2
O1 C25 1_555 1_555
O2 C26 1_555 1_555
C1 C2 1_555 1_555
C2 C3 1_555 1_555
C3 C4 1_555 1_555
C4 C5 1_555 1_555
C5 C6 1_555 1_555
C6 C1 1_555 1_555
C7 C8 1_555 1_555
C8 C9 1_555 1_555
C9 C10 1_555 1_555
C10 C11 1_555 1_555
C11 C12 1_555 1_555
C12 C7 1_555 1_555
C13 C14 1_555 1_555
C14 C15 1_555 1_555
C15 C16 1_555 1_555
C16 C17 1_555 1_555
C17 C18 1_555 1_555
C18 C13 1_555 1_555
C19 C20 1_555 1_555
C20 C21 1_555 1_555
C21 C22 1_555 1_555
C22 C23 1_555 1_555
C23 C24 1_555 1_555
C24 C19 1_555 1_555
C25 C1 1_555 1_555
C26 C13 1_555 1_555
H1 O1 1_555 1_555
H2 O2 1_555 1_555
H3 C2 1_555 1_555
H4 C3 1_555 1_555
H5 C4 1_555 1_555
H6 C5 1_555 1_555
H7 C6 1_555 1_555
H8 C8 1_555 1_555
H9 C9 1_555 1_555
H10 C10 1_555 1_555
H11 C11 1_555 1_555
H12 C12 1_555 1_555
H13 C14 1_555 1_555
H14 C15 1_555 1_555
H15 C16 1_555 1_555
H16 C17 1_555 1_555
H17 C18 1_555 1_555
H18 C20 1_555 1_555
H19 C21 1_555 1_555
H20 C22 1_555 1_555
H21 C23 1_555 1_555
H22 C24 1_555 1_555
C27 C28 1_555 1_555
C28 H23 1_555 1_555
C29 C27 1_555 1_555
C30 C27 1_555 1_555
H24 C29 1_555 1_555
H25 C30 1_555 1_555
H26 C30 1_555 1_555
H27 C30 1_555 1_555
C29A C28 1_555 1_555
C28A C29 1_555 1_555
C27A C29A 1_555 1_555
H24A C29A 1_555 1_555
H23A C28A 1_555 1_555
C30A C27A 1_555 1_555
H25A C30A 1_555 1_555
H26A C30A 1_555 1_555
H27A C30A 1_555 1_555
C7 C25 1_555 1_555
C19 C26 1_555 1_555
C25 C26 1_555 1_555
C28A C27A 1_555 1_555

#END
