
#######################################################################
#
#                 Cambridge Crystallographic Data Centre
#                                CCDC 
#
#######################################################################
#
# If this CIF has been generated from an entry in the Cambridge 
# Structural Database, then it will include bibliographic, chemical, 
# crystal, experimental, refinement or atomic coordinate data resulting 
# from the CCDC's data processing and validation procedures.
#
#######################################################################

data_DUKKOK
_chemical_formula_moiety         'C14 H27 N1 O5'
_chemical_name_systematic        
"di-t-butyl 2,2'-[(2-hydroxyethyl)azanediyl]diacetate"
_symmetry_cell_setting           orthorhombic
_symmetry_space_group_name_H-M   'P b c a'
_symmetry_Int_Tables_number      61
_space_group_name_Hall           '-P 2ac 2ab'
loop_
_symmetry_equiv_pos_site_id
_symmetry_equiv_pos_as_xyz
1 x,y,z
2 1/2-x,-y,1/2+z
3 -x,1/2+y,1/2-z
4 1/2+x,1/2-y,-z
5 -x,-y,-z
6 1/2+x,y,1/2-z
7 x,1/2-y,1/2+z
8 1/2-x,1/2+y,z
_cell_length_a                   11.9767(4)
_cell_length_b                   9.7187(3)
_cell_length_c                   29.3476(7)
_cell_angle_alpha                90
_cell_angle_beta                 90
_cell_angle_gamma                90
_cell_volume                     3416
_exptl_crystal_colour            colorless
_exptl_crystal_description       block
_cell_formula_units_Z            8
_exptl_crystal_recrystallization_method 'ethyl acetate'
loop_
_atom_site_label
_atom_site_type_symbol
_atom_site_fract_x
_atom_site_fract_y
_atom_site_fract_z
C1 C 0.52162(16) 0.1474(2) 0.74442(6)
H1 H 0.5798 0.0876 0.7338
H2 H 0.4957 0.1161 0.7736
H3 H 0.5502 0.2393 0.7473
N1 N 0.63856(10) 0.38227(12) 0.59060(4)
O1 O 0.47237(8) 0.16745(10) 0.66460(3)
C2 C 0.37573(18) 0.00455(18) 0.70716(6)
H4 H 0.3187 0.0050 0.6842
H5 H 0.3436 -0.0212 0.7359
H6 H 0.4327 -0.0603 0.6990
O2 O 0.52896(11) 0.38533(11) 0.67575(4)
C3 C 0.33760(16) 0.2516(2) 0.72143(7)
H7 H 0.3711 0.3411 0.7233
H8 H 0.3027 0.2295 0.7500
H9 H 0.2825 0.2511 0.6977
O3 O 0.69461(11) 0.19726(12) 0.51907(4)
C4 C 0.42619(13) 0.14629(15) 0.71095(5)
O4 O 0.61496(10) 0.33760(11) 0.46780(3)
C5 C 0.52554(12) 0.28259(14) 0.65316(5)
O5 O 0.73364(13) 0.53528(15) 0.66616(5)
H10 H 0.6636(9) 0.524(3) 0.6645(9)
C6 C 0.58168(13) 0.26158(15) 0.60781(5)
H11 H 0.6354 0.1873 0.6107
H12 H 0.5259 0.2333 0.5858
C7 C 0.61304(14) 0.41188(16) 0.54343(5)
H13 H 0.6497 0.4972 0.5351
H14 H 0.5332 0.4266 0.5407
C8 C 0.64704(13) 0.30191(16) 0.50949(5)
C9 C 0.63142(15) 0.24561(18) 0.42820(5)
C10 C 0.56917(19) 0.1123(2) 0.43595(8)
H15 H 0.6062 0.0599 0.4592
H16 H 0.5677 0.0601 0.4082
H17 H 0.4941 0.1320 0.4454
C11 C 0.75478(18) 0.2232(3) 0.42041(7)
H18 H 0.7921 0.3105 0.4192
H19 H 0.7656 0.1754 0.3921
H20 H 0.7850 0.1694 0.4449
C12 C 0.5793(2) 0.3278(2) 0.38978(6)
H21 H 0.5028 0.3477 0.3971
H22 H 0.5824 0.2753 0.3621
H23 H 0.6195 0.4123 0.3858
C13 C 0.75774(14) 0.38686(19) 0.60054(5)
H24 H 0.7921 0.4587 0.5824
H25 H 0.7913 0.2999 0.5919
C14 C 0.78138(16) 0.4137(2) 0.65010(6)
H26 H 0.7532 0.3373 0.6680
H27 H 0.8616 0.4180 0.6545
loop_
_geom_bond_atom_site_label_1
_geom_bond_atom_site_label_2
_geom_bond_site_symmetry_1
_geom_bond_site_symmetry_2
C1 H1 1_555 1_555
H2 C1 1_555 1_555
H3 C1 1_555 1_555
N1 C6 1_555 1_555
O1 C4 1_555 1_555
C2 H4 1_555 1_555
H5 C2 1_555 1_555
H6 C2 1_555 1_555
O2 C5 1_555 1_555
C3 H7 1_555 1_555
H8 C3 1_555 1_555
H9 C3 1_555 1_555
O3 C8 1_555 1_555
C4 C1 1_555 1_555
O4 C8 1_555 1_555
C5 O1 1_555 1_555
O5 H10 1_555 1_555
C6 C5 1_555 1_555
H11 C6 1_555 1_555
H12 C6 1_555 1_555
C7 N1 1_555 1_555
H13 C7 1_555 1_555
H14 C7 1_555 1_555
C8 C7 1_555 1_555
C9 O4 1_555 1_555
C10 C9 1_555 1_555
H15 C10 1_555 1_555
H16 C10 1_555 1_555
H17 C10 1_555 1_555
C11 C9 1_555 1_555
H18 C11 1_555 1_555
H19 C11 1_555 1_555
H20 C11 1_555 1_555
C12 C9 1_555 1_555
H21 C12 1_555 1_555
H22 C12 1_555 1_555
H23 C12 1_555 1_555
C13 N1 1_555 1_555
H24 C13 1_555 1_555
H25 C13 1_555 1_555
C14 O5 1_555 1_555
H26 C14 1_555 1_555
H27 C14 1_555 1_555
C2 C4 1_555 1_555
C3 C4 1_555 1_555
C13 C14 1_555 1_555

#END
