
#######################################################################
#
#                 Cambridge Crystallographic Data Centre
#                                CCDC 
#
#######################################################################
#
# If this CIF has been generated from an entry in the Cambridge 
# Structural Database, then it will include bibliographic, chemical, 
# crystal, experimental, refinement or atomic coordinate data resulting 
# from the CCDC's data processing and validation procedures.
#
#######################################################################

data_DUKXUD
_chemical_formula_moiety         'C16 H27 N1 O2'
_chemical_name_systematic        
1-[(2-hydroxy-2-methylpropyl)((1S)-1-phenylethyl)amino]-2-methylpropan-2-ol
_symmetry_cell_setting           orthorhombic
_symmetry_space_group_name_H-M   'P 21 21 21'
_symmetry_Int_Tables_number      19
_space_group_name_Hall           'P 2ac 2ab'
loop_
_symmetry_equiv_pos_site_id
_symmetry_equiv_pos_as_xyz
1 x,y,z
2 1/2-x,-y,1/2+z
3 -x,1/2+y,1/2-z
4 1/2+x,1/2-y,-z
_cell_length_a                   8.6781(5)
_cell_length_b                   12.8084(7)
_cell_length_c                   14.5243(8)
_cell_angle_alpha                90
_cell_angle_beta                 90
_cell_angle_gamma                90
_cell_volume                     1614.41
_exptl_crystal_colour            colorless
_exptl_crystal_description       block
_cell_formula_units_Z            4
_exptl_crystal_recrystallization_method toluene
loop_
_atom_site_label
_atom_site_type_symbol
_atom_site_fract_x
_atom_site_fract_y
_atom_site_fract_z
N1 N 0.33183(16) 0.03617(11) -0.00955(10)
O1 O 0.10809(16) -0.14653(9) 0.01479(9)
O2 O 0.40324(16) -0.18861(9) -0.03175(9)
C1 C 0.4068(2) 0.14075(13) -0.00743(12)
H1 H 0.5147 0.1301 -0.0296
C2 C 0.3331(3) 0.22025(15) -0.07315(14)
H2 H 0.3319 0.1917 -0.1357
H3 H 0.3931 0.2851 -0.0724
H4 H 0.2273 0.2348 -0.0533
C3 C 0.4195(2) 0.17997(15) 0.09170(13)
C4 C 0.4949(3) 0.11861(18) 0.15682(15)
H5 H 0.5368 0.0531 0.1390
C5 C 0.5098(3) 0.1519(2) 0.24784(17)
H6 H 0.5596 0.1085 0.2917
C6 C 0.4526(4) 0.2473(2) 0.27417(18)
H7 H 0.4637 0.2702 0.3360
C7 C 0.3794(4) 0.3092(2) 0.21094(18)
H8 H 0.3396 0.3752 0.2292
C8 C 0.3629(3) 0.27612(18) 0.11993(15)
H9 H 0.3123 0.3200 0.0767
C9 C 0.1692(2) 0.04041(13) 0.01720(13)
H10 H 0.1059 0.0470 -0.0392
H11 H 0.1523 0.1040 0.0546
C10 C 0.1122(2) -0.05432(13) 0.07207(12)
C11 C 0.2141(3) -0.07307(16) 0.15569(12)
H12 H 0.1701 -0.1292 0.1932
H13 H 0.2203 -0.0090 0.1924
H14 H 0.3177 -0.0931 0.1353
C12 C -0.0548(2) -0.03491(17) 0.09920(16)
H15 H -0.0951 -0.0962 0.1317
H16 H -0.1164 -0.0223 0.0437
H17 H -0.0605 0.0262 0.1396
C13 C 0.3589(2) -0.01954(13) -0.09660(11)
H18 H 0.3987 0.0310 -0.1423
H19 H 0.2588 -0.0457 -0.1197
C14 C 0.4715(2) -0.11187(14) -0.09130(13)
C15 C 0.4893(3) -0.15751(18) -0.18736(14)
H20 H 0.5557 -0.2193 -0.1846
H21 H 0.5358 -0.1053 -0.2281
H22 H 0.3878 -0.1773 -0.2113
C16 C 0.6267(2) -0.07987(16) -0.05172(17)
H23 H 0.6950 -0.1407 -0.0496
H24 H 0.6122 -0.0524 0.0107
H25 H 0.6727 -0.0258 -0.0907
H26 H 0.196(4) -0.163(2) 0.0063(17)
H27 H 0.470(3) -0.242(2) -0.0305(17)
loop_
_geom_bond_atom_site_label_1
_geom_bond_atom_site_label_2
_geom_bond_site_symmetry_1
_geom_bond_site_symmetry_2
N1 C1 1_555 1_555
O1 C10 1_555 1_555
O2 C14 1_555 1_555
C1 H1 1_555 1_555
C2 C1 1_555 1_555
H2 C2 1_555 1_555
H3 C2 1_555 1_555
H4 C2 1_555 1_555
C3 C1 1_555 1_555
C4 C3 1_555 1_555
H5 C4 1_555 1_555
C5 C4 1_555 1_555
H6 C5 1_555 1_555
C6 C5 1_555 1_555
H7 C6 1_555 1_555
C7 C6 1_555 1_555
H8 C7 1_555 1_555
C8 C3 1_555 1_555
H9 C8 1_555 1_555
C9 N1 1_555 1_555
H10 C9 1_555 1_555
H11 C9 1_555 1_555
C10 C9 1_555 1_555
C11 C10 1_555 1_555
H12 C11 1_555 1_555
H13 C11 1_555 1_555
H14 C11 1_555 1_555
C12 C10 1_555 1_555
H15 C12 1_555 1_555
H16 C12 1_555 1_555
H17 C12 1_555 1_555
C13 N1 1_555 1_555
H18 C13 1_555 1_555
H19 C13 1_555 1_555
C14 C13 1_555 1_555
C15 C14 1_555 1_555
H20 C15 1_555 1_555
H21 C15 1_555 1_555
H22 C15 1_555 1_555
C16 C14 1_555 1_555
H23 C16 1_555 1_555
H24 C16 1_555 1_555
H25 C16 1_555 1_555
H26 O1 1_555 1_555
H27 O2 1_555 1_555
C7 C8 1_555 1_555

#END
