
#######################################################################
#
#                 Cambridge Crystallographic Data Centre
#                                CCDC 
#
#######################################################################
#
# If this CIF has been generated from an entry in the Cambridge 
# Structural Database, then it will include bibliographic, chemical, 
# crystal, experimental, refinement or atomic coordinate data resulting 
# from the CCDC's data processing and validation procedures.
#
#######################################################################

data_DUKXEN
_chemical_formula_moiety         'C17 H21 N1 O2'
_chemical_name_systematic        
(1R*,2R*)-2-((2-Hydroxyethyl)(methyl)amino)-1,2-diphenylethanol
_symmetry_cell_setting           monoclinic
_symmetry_space_group_name_H-M   'P c'
_symmetry_Int_Tables_number      7
_space_group_name_Hall           'P -2yc'
loop_
_symmetry_equiv_pos_site_id
_symmetry_equiv_pos_as_xyz
1 x,y,z
2 x,-y,1/2+z
_cell_length_a                   5.83660(10)
_cell_length_b                   15.3018(4)
_cell_length_c                   8.1078(2)
_cell_angle_alpha                90
_cell_angle_beta                 91.4440(10)
_cell_angle_gamma                90
_cell_volume                     723.882
_exptl_crystal_colour            colorless
_exptl_crystal_description       block
_cell_formula_units_Z            2
_exptl_crystal_recrystallization_method toluene
loop_
_atom_site_label
_atom_site_type_symbol
_atom_site_fract_x
_atom_site_fract_y
_atom_site_fract_z
N1 N 0.8651(2) 0.35398(9) 0.27939(17)
O1 O 0.6689(2) 0.52412(8) 0.25285(17)
O2 O 0.9803(2) 0.40890(8) -0.01196(15)
C1 C 0.5441(3) 0.45589(11) 0.3303(2)
H1 H 0.3781 0.4644 0.3078
H2 H 0.5714 0.4588 0.4512
C2 C 0.6157(3) 0.36586(11) 0.2676(2)
H3 H 0.5404 0.3200 0.3332
H4 H 0.5635 0.3591 0.1511
C3 C 0.9522(3) 0.34606(12) 0.4504(2)
H5 H 0.9002 0.3962 0.5147
H6 H 1.1201 0.3448 0.4516
H7 H 0.8944 0.2919 0.4988
C4 C 0.9550(3) 0.28428(10) 0.17160(19)
H8 H 1.1226 0.2792 0.1986
C5 C 0.9338(3) 0.31695(10) -0.0104(2)
H9 H 0.7735 0.3069 -0.0525
C6 C 0.8504(3) 0.19411(10) 0.2025(2)
C7 C 0.9644(3) 0.13769(11) 0.3123(2)
H10 H 1.1094 0.1541 0.3582
C8 C 0.8684(3) 0.05745(12) 0.3557(2)
H11 H 0.9476 0.0200 0.4313
C9 C 0.6575(4) 0.03254(12) 0.2885(2)
H12 H 0.5920 -0.0220 0.3176
C10 C 0.5422(3) 0.08783(12) 0.1780(2)
H13 H 0.3981 0.0707 0.1314
C11 C 0.6368(3) 0.16814(11) 0.1354(2)
H14 H 0.5563 0.2055 0.0605
C12 C 1.0991(3) 0.27011(11) -0.12307(19)
C13 C 1.0579(3) 0.18331(11) -0.1715(2)
H15 H 0.9265 0.1535 -0.1337
C14 C 1.2093(3) 0.14079(12) -0.2747(2)
H16 H 1.1815 0.0818 -0.3055
C15 C 1.4011(3) 0.18402(13) -0.3333(2)
H17 H 1.5042 0.1548 -0.4034
C16 C 1.4396(3) 0.27083(12) -0.2876(2)
H18 H 1.5683 0.3012 -0.3285
C17 C 1.2906(3) 0.31327(11) -0.1823(2)
H19 H 1.3198 0.3721 -0.1508
H20 H 0.770(5) 0.5387(16) 0.321(4)
H21 H 0.948(5) 0.4278(18) 0.081(4)
loop_
_geom_bond_atom_site_label_1
_geom_bond_atom_site_label_2
_geom_bond_site_symmetry_1
_geom_bond_site_symmetry_2
N1 C2 1_555 1_555
O1 C1 1_555 1_555
O2 C5 1_555 1_555
C1 H1 1_555 1_555
H2 C1 1_555 1_555
C2 C1 1_555 1_555
H3 C2 1_555 1_555
H4 C2 1_555 1_555
C3 N1 1_555 1_555
H5 C3 1_555 1_555
H6 C3 1_555 1_555
H7 C3 1_555 1_555
C4 N1 1_555 1_555
H8 C4 1_555 1_555
C5 C4 1_555 1_555
H9 C5 1_555 1_555
C6 C4 1_555 1_555
C7 C6 1_555 1_555
H10 C7 1_555 1_555
C8 C7 1_555 1_555
H11 C8 1_555 1_555
C9 C8 1_555 1_555
H12 C9 1_555 1_555
C10 C9 1_555 1_555
H13 C10 1_555 1_555
C11 C6 1_555 1_555
H14 C11 1_555 1_555
C12 C5 1_555 1_555
C13 C12 1_555 1_555
H15 C13 1_555 1_555
C14 C13 1_555 1_555
H16 C14 1_555 1_555
C15 C14 1_555 1_555
H17 C15 1_555 1_555
C16 C15 1_555 1_555
H18 C16 1_555 1_555
C17 C12 1_555 1_555
H19 C17 1_555 1_555
H20 O1 1_555 1_555
H21 O2 1_555 1_555
C10 C11 1_555 1_555
C16 C17 1_555 1_555

#END
