
#######################################################################
#
#                 Cambridge Crystallographic Data Centre
#                                CCDC 
#
#######################################################################
#
# If this CIF has been generated from an entry in the Cambridge 
# Structural Database, then it will include bibliographic, chemical, 
# crystal, experimental, refinement or atomic coordinate data resulting 
# from the CCDC's data processing and validation procedures.
#
#######################################################################

data_DUMZER
_chemical_formula_moiety         'C10 H12 N4 O1'
_chemical_name_systematic        5-(4-Ethoxybenzyl)-1H-tetrazole
_symmetry_cell_setting           monoclinic
_symmetry_space_group_name_H-M   'P 21/n'
_symmetry_Int_Tables_number      14
_space_group_name_Hall           '-P 2yn'
loop_
_symmetry_equiv_pos_site_id
_symmetry_equiv_pos_as_xyz
1 x,y,z
2 1/2-x,1/2+y,1/2-z
3 -x,-y,-z
4 1/2+x,1/2-y,1/2+z
_cell_length_a                   4.9291(10)
_cell_length_b                   18.145(4)
_cell_length_c                   11.363(2)
_cell_angle_alpha                90
_cell_angle_beta                 99.19(3)
_cell_angle_gamma                90
_cell_volume                     1003.24
_exptl_crystal_colour            colorless
_exptl_crystal_description       needle
_cell_formula_units_Z            4
_exptl_crystal_recrystallization_method 'dichloromethane/petroleum ether'
loop_
_atom_site_label
_atom_site_type_symbol
_atom_site_fract_x
_atom_site_fract_y
_atom_site_fract_z
O1 O 0.09591(18) 0.17311(5) 0.48558(8)
N1 N 1.0194(2) 0.48750(6) 0.33955(10)
N2 N 0.9379(2) 0.55573(6) 0.36698(11)
N3 N 0.6749(2) 0.55229(5) 0.36251(11)
N4 N 0.5824(2) 0.48270(5) 0.33271(10)
C1 C 0.8013(2) 0.44332(7) 0.31894(11)
C2 C 0.8099(3) 0.36438(7) 0.28353(12)
H1 H 0.9937 0.3456 0.3100
H2 H 0.7744 0.3613 0.1972
C3 C 0.6058(3) 0.31536(7) 0.33333(12)
C4 C 0.5715(3) 0.32048(7) 0.45271(12)
H3 H 0.6676 0.3562 0.5012
C5 C 0.3974(3) 0.27333(7) 0.49957(12)
H4 H 0.3739 0.2781 0.5788
C6 C 0.2566(2) 0.21864(7) 0.42871(12)
C7 C 0.2858(2) 0.21280(7) 0.30957(11)
H5 H 0.1916 0.1766 0.2614
C8 C 0.4583(3) 0.26196(7) 0.26324(12)
H6 H 0.4748 0.2588 0.1830
C9 C -0.0624(3) 0.11821(7) 0.41507(12)
H7 H 0.0578 0.0838 0.3832
H8 H -0.1819 0.1410 0.3490
C10 C -0.2311(3) 0.07851(8) 0.49534(14)
H9 H -0.1106 0.0560 0.5601
H10 H -0.3407 0.0412 0.4505
H11 H -0.3489 0.1131 0.5264
H12 H 1.197(2) 0.4782(8) 0.3340(13)
loop_
_geom_bond_atom_site_label_1
_geom_bond_atom_site_label_2
_geom_bond_site_symmetry_1
_geom_bond_site_symmetry_2
O1 C6 1_555 1_555
N1 N2 1_555 1_555
N2 N3 1_555 1_555
N3 N4 1_555 1_555
N4 C1 1_555 1_555
C1 N1 1_555 1_555
C2 C1 1_555 1_555
H1 C2 1_555 1_555
H2 C2 1_555 1_555
C3 C2 1_555 1_555
C4 C3 1_555 1_555
H3 C4 1_555 1_555
C5 C4 1_555 1_555
H4 C5 1_555 1_555
C6 C5 1_555 1_555
C7 C6 1_555 1_555
H5 C7 1_555 1_555
C8 C3 1_555 1_555
H6 C8 1_555 1_555
C9 O1 1_555 1_555
H7 C9 1_555 1_555
H8 C9 1_555 1_555
C10 C9 1_555 1_555
H9 C10 1_555 1_555
H10 C10 1_555 1_555
H11 C10 1_555 1_555
H12 N1 1_555 1_555
C7 C8 1_555 1_555

#END
