
#######################################################################
#
#                 Cambridge Crystallographic Data Centre
#                                CCDC 
#
#######################################################################
#
# If this CIF has been generated from an entry in the Cambridge 
# Structural Database, then it will include bibliographic, chemical, 
# crystal, experimental, refinement or atomic coordinate data resulting 
# from the CCDC's data processing and validation procedures.
#
#######################################################################

data_DUNMEF
_chemical_formula_moiety         'C13 H15 N2 1+,F6 P1 1-'
_chemical_name_systematic        
'1-Methyl-3-(4-vinylbenzyl)imidazolium hexafluorophosphate'
_symmetry_cell_setting           orthorhombic
_symmetry_space_group_name_H-M   'P 21 21 21'
_symmetry_Int_Tables_number      19
_space_group_name_Hall           'P 2ac 2ab'
loop_
_symmetry_equiv_pos_site_id
_symmetry_equiv_pos_as_xyz
1 x,y,z
2 1/2-x,-y,1/2+z
3 -x,1/2+y,1/2-z
4 1/2+x,1/2-y,-z
_cell_length_a                   10.482(2)
_cell_length_b                   11.272(3)
_cell_length_c                   12.556(3)
_cell_angle_alpha                90
_cell_angle_beta                 90
_cell_angle_gamma                90
_cell_volume                     1483.53
_exptl_crystal_colour            colorless
_exptl_crystal_description       block
_cell_formula_units_Z            4
loop_
_atom_site_label
_atom_site_type_symbol
_atom_site_fract_x
_atom_site_fract_y
_atom_site_fract_z
C1 C 0.8710(3) 0.2998(3) 0.0944(2)
H1 H 0.9248 0.2527 0.1396
H2 H 0.9017 0.3800 0.0931
H3 H 0.8722 0.2679 0.0235
C2 C 0.6394(3) 0.3609(2) 0.0958(2)
H4 H 0.6415 0.4128 0.0382
C3 C 0.5369(3) 0.3342(2) 0.1548(2)
H5 H 0.4549 0.3641 0.1460
C4 C 0.6999(3) 0.2335(2) 0.21741(19)
H6 H 0.7497 0.1826 0.2583
C5 C 0.4948(3) 0.2031(3) 0.3150(2)
H7 H 0.4678 0.2657 0.3630
H8 H 0.5440 0.1461 0.3558
C6 C 0.3787(2) 0.1426(2) 0.26935(19)
C7 C 0.2587(3) 0.1657(2) 0.3101(2)
H9 H 0.2489 0.2225 0.3632
C8 C 0.1529(3) 0.1050(3) 0.2724(2)
H10 H 0.0729 0.1216 0.3008
C9 C 0.1643(2) 0.0194(2) 0.19242(19)
C10 C 0.2861(2) -0.0017(2) 0.14997(18)
H11 H 0.2960 -0.0569 0.0956
C11 C 0.3914(2) 0.0584(2) 0.1878(2)
H12 H 0.4714 0.0429 0.1590
C12 C 0.0501(3) -0.0449(2) 0.1563(2)
H13 H -0.0282 -0.0177 0.1812
C13 C 0.0480(3) -0.1377(3) 0.0917(2)
H14 H 0.1239 -0.1681 0.0647
H15 H -0.0294 -0.1725 0.0733
N1 N 0.7402(2) 0.2980(2) 0.13540(17)
N2 N 0.5760(2) 0.25420(19) 0.23092(17)
F1 F 0.67298(19) 0.98396(17) 0.85265(12)
F2 F 0.75104(15) 0.85036(13) 0.96990(13)
F3 F 0.54994(15) 0.92291(15) 0.99001(14)
F4 F 0.70480(17) 0.97546(17) 1.10592(12)
F5 F 0.62797(17) 1.11050(14) 0.98847(14)
F6 F 0.82848(16) 1.03763(16) 0.96874(17)
P1 P 0.68904(6) 0.98115(6) 0.97936(5)
loop_
_geom_bond_atom_site_label_1
_geom_bond_atom_site_label_2
_geom_bond_site_symmetry_1
_geom_bond_site_symmetry_2
C1 H1 1_555 1_555
H2 C1 1_555 1_555
H3 C1 1_555 1_555
C2 H4 1_555 1_555
C3 C2 1_555 1_555
H5 C3 1_555 1_555
C4 H6 1_555 1_555
C5 H7 1_555 1_555
H8 C5 1_555 1_555
C6 C5 1_555 1_555
C7 C6 1_555 1_555
H9 C7 1_555 1_555
C8 C7 1_555 1_555
H10 C8 1_555 1_555
C9 C8 1_555 1_555
C10 C9 1_555 1_555
H11 C10 1_555 1_555
C11 C6 1_555 1_555
H12 C11 1_555 1_555
C12 C9 1_555 1_555
H13 C12 1_555 1_555
C13 C12 1_555 1_555
H14 C13 1_555 1_555
H15 C13 1_555 1_555
F1 P1 1_555 1_555
F2 P1 1_555 1_555
F3 P1 1_555 1_555
F4 P1 1_555 1_555
F5 P1 1_555 1_555
F6 P1 1_555 1_555
N1 C1 1_555 1_555
N2 C3 1_555 1_555
C2 N1 1_555 1_555
C4 N1 1_555 1_555
C4 N2 1_555 1_555
C5 N2 1_555 1_555
C10 C11 1_555 1_555

#END
