
#######################################################################
#
#                 Cambridge Crystallographic Data Centre
#                                CCDC 
#
#######################################################################
#
# If this CIF has been generated from an entry in the Cambridge 
# Structural Database, then it will include bibliographic, chemical, 
# crystal, experimental, refinement or atomic coordinate data resulting 
# from the CCDC's data processing and validation procedures.
#
#######################################################################

data_DUNTIQ
_chemical_name_common            'Imatinibium dipicrate'
_chemical_formula_moiety         'C29 H33 N7 O1 2+,2(C6 H2 N3 O7 1-)'
_chemical_name_systematic        
'1-Methyl-4-(4-((4-methyl-3-((4-(pyridin-3-yl)pyrimidin-2-yl)amino)phenyl)carbamoyl)benzyl)piperazinediium bis(2,4,6-trinitrophenolate)'
_chemical_properties_biological  
'The mesylate salt of imatinib is a small molecule kinase inhibitor prescribed to cancer patients with the Philadelphia chromosome translocation'
_symmetry_cell_setting           triclinic
_symmetry_space_group_name_H-M   'P -1'
_symmetry_Int_Tables_number      2
_space_group_name_Hall           '-P 1'
loop_
_symmetry_equiv_pos_site_id
_symmetry_equiv_pos_as_xyz
1 x,y,z
2 -x,-y,-z
_cell_length_a                   8.560000
_cell_length_b                   10.734000
_cell_length_c                   23.060000
_cell_angle_alpha                96.74(3)
_cell_angle_beta                 92.69(2)
_cell_angle_gamma                101.46(7)
_cell_volume                     2056.85
_exptl_crystal_colour            'pale yellow'
_exptl_crystal_description       chunk
_chemical_melting_point          '490-493 K'
_cell_formula_units_Z            2
_exptl_crystal_recrystallization_method methanol
loop_
_atom_site_label
_atom_site_type_symbol
_atom_site_fract_x
_atom_site_fract_y
_atom_site_fract_z
O1 O 0.3153(2) 0.58462(17) 0.49702(9)
N1 N 0.4213(2) 0.4360(2) 0.19545(10)
H1 H 0.465(4) 0.514(3) 0.2058(13)
N2 N 0.2325(3) 0.4773(2) 0.09313(10)
H2 H 0.182(4) 0.397(4) 0.0809(15)
C1 C 0.4665(3) 0.4017(2) 0.13475(12)
H3 H 0.4187 0.3106 0.1211
H4 H 0.5841 0.4127 0.1349
C2 C 0.4094(3) 0.4851(2) 0.09331(12)
H5 H 0.4655 0.5752 0.1049
H6 H 0.4371 0.4581 0.0532
C3 C 0.1853(3) 0.5056(2) 0.15391(11)
H7 H 0.0675 0.4925 0.1534
H8 H 0.2307 0.5965 0.1689
C4 C 0.2433(3) 0.4209(2) 0.19414(11)
H9 H 0.2118 0.4431 0.2342
H10 H 0.1922 0.3303 0.1807
C5 C 0.1813(4) 0.5660(3) 0.05447(13)
H11 H 0.0661 0.5612 0.0558
H12 H 0.2058 0.5413 0.0142
H13 H 0.2386 0.6539 0.0680
C6 C 0.4812(3) 0.3553(2) 0.23719(12)
H14 H 0.4361 0.2637 0.2235
H15 H 0.5990 0.3686 0.2370
C7 C 0.4370(3) 0.3868(2) 0.29871(12)
C8 C 0.5091(3) 0.5012(2) 0.33399(12)
H16 H 0.5904 0.5608 0.3193
C9 C 0.4627(3) 0.5279(2) 0.38995(12)
H17 H 0.5108 0.6066 0.4130
C10 C 0.3464(3) 0.4409(2) 0.41296(12)
C11 C 0.2752(3) 0.3270(2) 0.37767(12)
H18 H 0.1957 0.2667 0.3927
C12 C 0.3182(3) 0.3006(2) 0.32147(12)
H19 H 0.2668 0.2233 0.2980
C13 C 0.2977(3) 0.4734(2) 0.47391(12)
N3 N 0.2326(3) 0.3702(2) 0.49985(10)
H20 H 0.250(4) 0.298(3) 0.4857(13)
C14 C 0.1556(3) 0.3663(2) 0.55298(12)
C15 C 0.0846(3) 0.4640(3) 0.57780(12)
H21 H 0.0945 0.5428 0.5620
C16 C -0.0012(3) 0.4419(3) 0.62653(13)
H22 H -0.0498 0.5080 0.6438
C17 C -0.0199(3) 0.3286(3) 0.65133(12)
C18 C -0.1298(4) 0.3073(3) 0.70004(14)
H23 H -0.0708 0.2871 0.7340
H24 H -0.2194 0.2357 0.6867
H25 H -0.1708 0.3851 0.7111
C19 C 0.0583(3) 0.2345(2) 0.62720(11)
C20 C 0.1447(3) 0.2542(2) 0.57814(12)
H26 H 0.1971 0.1896 0.5617
N4 N 0.0369(3) 0.1166(2) 0.65091(10)
H27 H -0.053(4) 0.098(3) 0.6678(15)
C21 C 0.1200(3) 0.0202(2) 0.64192(11)
N5 N 0.0467(3) -0.0938(2) 0.65697(10)
C22 C 0.1278(3) -0.1869(3) 0.64831(13)
H28 H 0.0816 -0.2684 0.6589
C23 C 0.2749(3) -0.1733(2) 0.62498(13)
H29 H 0.3286 -0.2426 0.6189
C24 C 0.3399(3) -0.0522(2) 0.61095(11)
N6 N 0.2636(3) 0.0452(2) 0.62024(9)
C25 C 0.4951(3) -0.0229(2) 0.58435(11)
C26 C 0.5691(3) -0.1204(2) 0.56171(12)
H30 H 0.5167 -0.2065 0.5635
N7 N 0.7095(3) -0.1001(2) 0.53756(10)
C27 C 0.7788(3) 0.0217(3) 0.53364(12)
H31 H 0.8790 0.0380 0.5169
C28 C 0.7121(3) 0.1247(3) 0.55272(12)
H32 H 0.7635 0.2094 0.5479
C29 C 0.5695(3) 0.1028(2) 0.57896(12)
H33 H 0.5225 0.1724 0.5932
O2 O 0.1518(2) 0.22087(16) 0.07622(8)
O3 O 0.3381(2) 0.07732(17) 0.12752(9)
O4 O 0.3131(2) -0.0904(2) 0.06313(10)
O5 O -0.2360(2) -0.33957(17) 0.04481(10)
O6 O -0.4305(2) -0.2407(2) 0.03722(12)
O7 O -0.3332(3) 0.2150(2) 0.07480(12)
O8 O -0.1032(3) 0.32666(18) 0.06299(11)
N8 N 0.2595(3) -0.0043(2) 0.08996(10)
N9 N -0.2888(3) -0.2408(2) 0.04636(10)
N10 N -0.1906(3) 0.2244(2) 0.06879(10)
C30 C 0.0479(3) 0.1211(2) 0.07465(10)
C31 C 0.0909(3) -0.0022(2) 0.07761(11)
C32 C -0.0144(3) -0.1176(2) 0.06785(11)
H34 H 0.0223 -0.1956 0.0674
C33 C -0.1766(3) -0.1186(2) 0.05852(11)
C34 C -0.2330(3) -0.0062(2) 0.06039(11)
H35 H -0.3445 -0.0084 0.0562
C35 C -0.1240(3) 0.1095(2) 0.06843(11)
O9 O 0.4787(2) 0.68998(16) 0.21876(9)
O10 O 0.2684(2) 0.84672(18) 0.19341(9)
O11 O 0.3412(3) 0.9982(2) 0.26585(11)
O12 O 0.8703(3) 1.24447(18) 0.21586(10)
O13 O 1.0597(2) 1.13663(18) 0.20751(9)
O14 O 0.9270(2) 0.6835(2) 0.16693(9)
O15 O 0.7440(2) 0.58469(18) 0.21578(10)
N11 N 0.3710(3) 0.9196(2) 0.22702(11)
N12 N 0.9186(3) 1.1430(2) 0.21198(10)
N13 N 0.8091(3) 0.6809(2) 0.19535(10)
C36 C 0.5803(3) 0.7898(2) 0.21517(11)
C37 C 0.5386(3) 0.9143(2) 0.22026(11)
C38 C 0.6441(3) 1.0279(2) 0.22022(12)
H36 H 0.6099 1.1072 0.2255
C39 C 0.8035(3) 1.0239(2) 0.21222(11)
C40 C 0.8561(3) 0.9107(2) 0.20437(11)
H37 H 0.9650 0.9103 0.1982
C41 C 0.7471(3) 0.7972(2) 0.20563(11)
loop_
_geom_bond_atom_site_label_1
_geom_bond_atom_site_label_2
_geom_bond_site_symmetry_1
_geom_bond_site_symmetry_2
O1 C13 1_555 1_555
N1 H1 1_555 1_555
N2 H2 1_555 1_555
C1 N1 1_555 1_555
H3 C1 1_555 1_555
H4 C1 1_555 1_555
C2 N2 1_555 1_555
H5 C2 1_555 1_555
H6 C2 1_555 1_555
C3 N2 1_555 1_555
H7 C3 1_555 1_555
H8 C3 1_555 1_555
C4 N1 1_555 1_555
H9 C4 1_555 1_555
H10 C4 1_555 1_555
C5 N2 1_555 1_555
H11 C5 1_555 1_555
H12 C5 1_555 1_555
H13 C5 1_555 1_555
C6 N1 1_555 1_555
H14 C6 1_555 1_555
H15 C6 1_555 1_555
C7 C6 1_555 1_555
C8 C7 1_555 1_555
H16 C8 1_555 1_555
C9 C8 1_555 1_555
H17 C9 1_555 1_555
C10 C9 1_555 1_555
C11 C10 1_555 1_555
H18 C11 1_555 1_555
C12 C7 1_555 1_555
H19 C12 1_555 1_555
C13 C10 1_555 1_555
N3 C13 1_555 1_555
H20 N3 1_555 1_555
C14 N3 1_555 1_555
C15 C14 1_555 1_555
H21 C15 1_555 1_555
C16 C15 1_555 1_555
H22 C16 1_555 1_555
C17 C16 1_555 1_555
C18 C17 1_555 1_555
H23 C18 1_555 1_555
H24 C18 1_555 1_555
H25 C18 1_555 1_555
C19 C17 1_555 1_555
C20 C14 1_555 1_555
H26 C20 1_555 1_555
N4 C19 1_555 1_555
H27 N4 1_555 1_555
C21 N4 1_555 1_555
N5 C21 1_555 1_555
C22 N5 1_555 1_555
H28 C22 1_555 1_555
C23 C22 1_555 1_555
H29 C23 1_555 1_555
C24 C23 1_555 1_555
N6 C21 1_555 1_555
C25 C24 1_555 1_555
C26 C25 1_555 1_555
H30 C26 1_555 1_555
N7 C26 1_555 1_555
C27 N7 1_555 1_555
H31 C27 1_555 1_555
C28 C27 1_555 1_555
H32 C28 1_555 1_555
C29 C25 1_555 1_555
H33 C29 1_555 1_555
O2 C30 1_555 1_555
O3 N8 1_555 1_555
O4 N8 1_555 1_555
O5 N9 1_555 1_555
O6 N9 1_555 1_555
O7 N10 1_555 1_555
O8 N10 1_555 1_555
N8 C31 1_555 1_555
N9 C33 1_555 1_555
N10 C35 1_555 1_555
C30 C31 1_555 1_555
C31 C32 1_555 1_555
C32 H34 1_555 1_555
C33 C32 1_555 1_555
C34 C33 1_555 1_555
H35 C34 1_555 1_555
C35 C30 1_555 1_555
O9 C36 1_555 1_555
O10 N11 1_555 1_555
O11 N11 1_555 1_555
O12 N12 1_555 1_555
O13 N12 1_555 1_555
O14 N13 1_555 1_555
O15 N13 1_555 1_555
N11 C37 1_555 1_555
N12 C39 1_555 1_555
N13 C41 1_555 1_555
C36 C37 1_555 1_555
C37 C38 1_555 1_555
C38 H36 1_555 1_555
C39 C38 1_555 1_555
C40 C39 1_555 1_555
H37 C40 1_555 1_555
C41 C36 1_555 1_555
C1 C2 1_555 1_555
C3 C4 1_555 1_555
C11 C12 1_555 1_555
C19 C20 1_555 1_555
C24 N6 1_555 1_555
C28 C29 1_555 1_555
C34 C35 1_555 1_555
C40 C41 1_555 1_555

#END
