
#######################################################################
#
#                 Cambridge Crystallographic Data Centre
#                                CCDC 
#
#######################################################################
#
# If this CIF has been generated from an entry in the Cambridge 
# Structural Database, then it will include bibliographic, chemical, 
# crystal, experimental, refinement or atomic coordinate data resulting 
# from the CCDC's data processing and validation procedures.
#
#######################################################################

data_DUPLOR
_chemical_formula_moiety         'C21 H19 F3 N2'
_chemical_name_systematic        
2-(4-t-butylphenyl)-5-phenyl-3-(trifluoromethyl)pyrazine
_symmetry_cell_setting           triclinic
_symmetry_space_group_name_H-M   'P -1'
_symmetry_Int_Tables_number      2
_space_group_name_Hall           '-P 1'
loop_
_symmetry_equiv_pos_site_id
_symmetry_equiv_pos_as_xyz
1 x,y,z
2 -x,-y,-z
_cell_length_a                   9.987(3)
_cell_length_b                   10.061(3)
_cell_length_c                   10.1680(16)
_cell_angle_alpha                71.21(2)
_cell_angle_beta                 75.39(2)
_cell_angle_gamma                79.84(2)
_cell_volume                     930.886
_exptl_crystal_colour            'light yellow'
_exptl_crystal_description       block
_cell_formula_units_Z            2
loop_
_atom_site_label
_atom_site_type_symbol
_atom_site_fract_x
_atom_site_fract_y
_atom_site_fract_z
F1 F 0.3575(3) 0.0206(4) 0.4873(4)
F2 F 0.1953(4) -0.1132(4) 0.5792(3)
F3 F 0.2483(3) -0.0247(3) 0.3565(3)
N1 N 0.0028(4) 0.3474(4) 0.4014(4)
N2 N 0.0654(4) 0.1197(4) 0.6228(4)
C1 C -0.1528(5) 0.3343(5) 0.8376(5)
H1 H -0.1391 0.4228 0.7728
C2 C -0.2205(5) 0.3238(6) 0.9741(6)
H2 H -0.2518 0.4054 1.0016
C3 C -0.2430(5) 0.1970(7) 1.0701(5)
H3 H -0.2910 0.1915 1.1625
C4 C -0.1939(6) 0.0737(7) 1.0300(5)
H4 H -0.2055 -0.0142 1.0967
C5 C -0.1303(5) 0.0826(5) 0.8958(5)
H5 H -0.1027 0.0003 0.8688
C6 C -0.1039(5) 0.2132(5) 0.7941(5)
C7 C -0.0335(5) 0.2235(5) 0.6482(5)
C8 C -0.0599(5) 0.3345(5) 0.5320(5)
H6 H -0.1286 0.4059 0.5494
C9 C 0.1081(5) 0.2466(5) 0.3737(4)
C10 C 0.1303(5) 0.1307(5) 0.4894(5)
C11 C 0.2340(5) 0.0029(6) 0.4762(5)
C12 C 0.1780(5) 0.2686(5) 0.2248(5)
C13 C 0.1014(5) 0.3048(5) 0.1201(5)
H7 H 0.0048 0.3125 0.1463
C14 C 0.1635(5) 0.3298(5) -0.0215(5)
H8 H 0.1077 0.3530 -0.0880
C15 C 0.3054(5) 0.3215(5) -0.0675(5)
C16 C 0.3824(6) 0.2880(6) 0.0367(5)
H9 H 0.4789 0.2834 0.0095
C17 C 0.3224(5) 0.2614(6) 0.1782(5)
H10 H 0.3786 0.2381 0.2443
C18 C 0.3759(5) 0.3543(6) -0.2234(5)
C19 C 0.2809(7) 0.3468(9) -0.3141(6)
H11 H 0.2276 0.2678 -0.2658
H12 H 0.3354 0.3356 -0.4030
H13 H 0.2190 0.4323 -0.3314
C20 C 0.4983(7) 0.2443(11) -0.2463(7)
H14 H 0.5787 0.2684 -0.2269
H15 H 0.5177 0.2418 -0.3429
H16 H 0.4757 0.1532 -0.1834
C21 C 0.4278(14) 0.4947(10) -0.2719(8)
H17 H 0.3504 0.5664 -0.2728
H18 H 0.4844 0.5093 -0.3660
H19 H 0.4823 0.4993 -0.2084
loop_
_geom_bond_atom_site_label_1
_geom_bond_atom_site_label_2
_geom_bond_site_symmetry_1
_geom_bond_site_symmetry_2
F1 C11 1_555 1_555
F2 C11 1_555 1_555
F3 C11 1_555 1_555
N1 C8 1_555 1_555
N2 C7 1_555 1_555
C1 H1 1_555 1_555
C2 C1 1_555 1_555
H2 C2 1_555 1_555
C3 C2 1_555 1_555
H3 C3 1_555 1_555
C4 C3 1_555 1_555
H4 C4 1_555 1_555
C5 C4 1_555 1_555
H5 C5 1_555 1_555
C6 C1 1_555 1_555
C7 C6 1_555 1_555
C8 C7 1_555 1_555
H6 C8 1_555 1_555
C9 N1 1_555 1_555
C10 N2 1_555 1_555
C11 C10 1_555 1_555
C12 C9 1_555 1_555
C13 C12 1_555 1_555
H7 C13 1_555 1_555
C14 C13 1_555 1_555
H8 C14 1_555 1_555
C15 C14 1_555 1_555
C16 C15 1_555 1_555
H9 C16 1_555 1_555
C17 C12 1_555 1_555
H10 C17 1_555 1_555
C18 C15 1_555 1_555
C19 C18 1_555 1_555
H11 C19 1_555 1_555
H12 C19 1_555 1_555
H13 C19 1_555 1_555
C20 C18 1_555 1_555
H14 C20 1_555 1_555
H15 C20 1_555 1_555
H16 C20 1_555 1_555
C21 C18 1_555 1_555
H17 C21 1_555 1_555
H18 C21 1_555 1_555
H19 C21 1_555 1_555
C5 C6 1_555 1_555
C9 C10 1_555 1_555
C16 C17 1_555 1_555

#END
