
#######################################################################
#
#                 Cambridge Crystallographic Data Centre
#                                CCDC 
#
#######################################################################
#
# If this CIF has been generated from an entry in the Cambridge 
# Structural Database, then it will include bibliographic, chemical, 
# crystal, experimental, refinement or atomic coordinate data resulting 
# from the CCDC's data processing and validation procedures.
#
#######################################################################

data_DUQHUT
_chemical_formula_moiety         'C26 H59 Li3 N8'
_chemical_name_systematic        
(\m~3~-1,4,7-Trimethyl-1,4,7,10-tetra-azacyclododecane)-(\m~2~-1,4,7-trimethyl-1,4,7,10-tetra-azacyclododecane)-(\m~2~-n-butyl)-tri-lithium
_symmetry_cell_setting           monoclinic
_symmetry_space_group_name_H-M   'P 21/c'
_symmetry_Int_Tables_number      14
_space_group_name_Hall           '-P 2ybc'
loop_
_symmetry_equiv_pos_site_id
_symmetry_equiv_pos_as_xyz
1 x,y,z
2 -x,1/2+y,1/2-z
3 -x,-y,-z
4 x,1/2-y,1/2+z
_cell_length_a                   9.3982(13)
_cell_length_b                   14.3634(19)
_cell_length_c                   23.269(3)
_cell_angle_alpha                90
_cell_angle_beta                 90.815(4)
_cell_angle_gamma                90
_cell_volume                     3140.77
_exptl_crystal_colour            colorless
_exptl_crystal_description       block
_cell_formula_units_Z            4
loop_
_atom_site_label
_atom_site_type_symbol
_atom_site_fract_x
_atom_site_fract_y
_atom_site_fract_z
Li1 Li 0.3225(13) 0.9438(8) 0.3234(5)
Li2 Li 0.3504(12) 0.7545(8) 0.4521(5)
Li3 Li 0.3291(13) 0.7837(8) 0.3517(5)
N1 N 0.3703(7) 0.8323(4) 0.2734(2)
N2 N 0.0800(6) 0.8790(4) 0.2963(3)
N3 N 0.2051(7) 1.0743(4) 0.3041(3)
N4 N 0.4984(6) 1.0208(4) 0.2746(2)
C1 C 0.2619(9) 0.8090(5) 0.2317(3)
H1 H 0.2868 0.7500 0.2123
H2 H 0.2554 0.8586 0.2022
C2 C 0.1195(8) 0.7986(5) 0.2612(3)
H3 H 0.0445 0.7885 0.2315
H4 H 0.1228 0.7426 0.2859
C3 C 0.0406(7) 0.9585(6) 0.2595(3)
H5 H -0.0592 0.9509 0.2462
H6 H 0.1017 0.9586 0.2252
C4 C 0.0557(8) 1.0509(5) 0.2900(3)
H7 H 0.0148 1.1005 0.2652
H8 H 0.0005 1.0490 0.3259
C5 C 0.2778(8) 1.1077(5) 0.2520(3)
H9 H 0.2417 1.1706 0.2422
H10 H 0.2535 1.0658 0.2195
C6 C 0.4371(8) 1.1120(5) 0.2588(3)
H11 H 0.4791 1.1333 0.2223
H12 H 0.4622 1.1581 0.2889
C7 C 0.5035(8) 0.9576(5) 0.2239(3)
H13 H 0.5916 0.9692 0.2023
H14 H 0.4211 0.9701 0.1981
C8 C 0.4999(8) 0.8566(5) 0.2437(3)
H15 H 0.5095 0.8155 0.2098
H16 H 0.5824 0.8449 0.2696
C9 C -0.0378(8) 0.8543(5) 0.3339(3)
H17 H -0.0636 0.9084 0.3572
H18 H -0.0084 0.8030 0.3593
H19 H -0.1200 0.8348 0.3105
C10 C 0.2088(8) 1.1471(5) 0.3489(3)
H20 H 0.1620 1.2035 0.3342
H21 H 0.3079 1.1614 0.3592
H22 H 0.1589 1.1249 0.3830
C11 C 0.6424(8) 1.0346(5) 0.2978(3)
H23 H 0.6999 1.0676 0.2695
H24 H 0.6858 0.9740 0.3063
H25 H 0.6381 1.0715 0.3331
N5 N 0.3552(7) 0.8921(4) 0.4094(2)
N6 N 0.1936(7) 0.8205(5) 0.5108(3)
N7 N 0.4300(8) 0.6935(5) 0.5345(2)
N8 N 0.5904(6) 0.7638(5) 0.4390(3)
C12 C 0.2446(9) 0.9434(5) 0.4418(3)
H26 H 0.1520 0.9342 0.4218
H27 H 0.2671 1.0107 0.4401
C13 C 0.2278(8) 0.9172(6) 0.5032(3)
H28 H 0.3173 0.9312 0.5244
H29 H 0.1514 0.9556 0.5200
C14 C 0.2316(9) 0.7885(6) 0.5695(3)
H30 H 0.1724 0.7338 0.5792
H31 H 0.2102 0.8386 0.5973
C15 C 0.3848(9) 0.7627(6) 0.5751(3)
H32 H 0.4432 0.8194 0.5701
H33 H 0.4031 0.7389 0.6145
C16 C 0.5873(10) 0.6906(6) 0.5322(3)
H34 H 0.6168 0.6299 0.5162
H35 H 0.6264 0.6949 0.5719
C17 C 0.6495(8) 0.7661(6) 0.4972(4)
H36 H 0.6287 0.8271 0.5150
H37 H 0.7541 0.7585 0.4959
C18 C 0.6063(8) 0.8563(6) 0.4103(3)
H38 H 0.7005 0.8829 0.4206
H39 H 0.6026 0.8477 0.3681
C19 C 0.4931(10) 0.9228(5) 0.4273(3)
H40 H 0.4953 0.9302 0.4696
H41 H 0.5124 0.9844 0.4100
C20 C 0.0431(8) 0.8034(6) 0.4997(3)
H42 H -0.0136 0.8391 0.5271
H43 H 0.0231 0.7368 0.5043
H44 H 0.0184 0.8227 0.4604
C21 C 0.3733(8) 0.6018(5) 0.5485(3)
H45 H 0.4082 0.5830 0.5867
H46 H 0.4045 0.5565 0.5199
H47 H 0.2691 0.6044 0.5485
C22 C 0.6587(8) 0.6921(6) 0.4050(3)
H48 H 0.6200 0.6934 0.3657
H49 H 0.6406 0.6310 0.4222
H50 H 0.7614 0.7035 0.4043
C23 C 0.2829(8) 0.6522(5) 0.3884(3)
H51 H 0.3377 0.6123 0.4161
H52 H 0.2941 0.6294 0.3499
C24 C 0.1449(10) 0.6037(6) 0.4032(3)
H53 H 0.0676 0.6325 0.3800
H54 H 0.1248 0.6168 0.4441
C25 C 0.1368(10) 0.4989(6) 0.3945(4)
H55 H 0.1576 0.4845 0.3539
H56 H 0.2110 0.4688 0.4187
C26 C -0.0015(12) 0.4593(7) 0.4087(4)
H57 H -0.0189 0.4678 0.4498
H58 H -0.0022 0.3927 0.3996
H59 H -0.0763 0.4909 0.3863
loop_
_geom_bond_atom_site_label_1
_geom_bond_atom_site_label_2
_geom_bond_site_symmetry_1
_geom_bond_site_symmetry_2
Li1 N1 1_555 1_555
Li2 N5 1_555 1_555
Li3 N1 1_555 1_555
N1 C1 1_555 1_555
N2 Li1 1_555 1_555
N3 Li1 1_555 1_555
N4 Li1 1_555 1_555
C1 H1 1_555 1_555
H2 C1 1_555 1_555
C2 N2 1_555 1_555
H3 C2 1_555 1_555
H4 C2 1_555 1_555
C3 N2 1_555 1_555
H5 C3 1_555 1_555
H6 C3 1_555 1_555
C4 N3 1_555 1_555
H7 C4 1_555 1_555
H8 C4 1_555 1_555
C5 N3 1_555 1_555
H9 C5 1_555 1_555
H10 C5 1_555 1_555
C6 N4 1_555 1_555
H11 C6 1_555 1_555
H12 C6 1_555 1_555
C7 N4 1_555 1_555
H13 C7 1_555 1_555
H14 C7 1_555 1_555
C8 N1 1_555 1_555
H15 C8 1_555 1_555
H16 C8 1_555 1_555
C9 N2 1_555 1_555
H17 C9 1_555 1_555
H18 C9 1_555 1_555
H19 C9 1_555 1_555
C10 N3 1_555 1_555
H20 C10 1_555 1_555
H21 C10 1_555 1_555
H22 C10 1_555 1_555
C11 N4 1_555 1_555
H23 C11 1_555 1_555
H24 C11 1_555 1_555
H25 C11 1_555 1_555
N5 Li1 1_555 1_555
N6 Li2 1_555 1_555
N7 Li2 1_555 1_555
N8 Li2 1_555 1_555
C12 N5 1_555 1_555
H26 C12 1_555 1_555
H27 C12 1_555 1_555
C13 N6 1_555 1_555
H28 C13 1_555 1_555
H29 C13 1_555 1_555
C14 N6 1_555 1_555
H30 C14 1_555 1_555
H31 C14 1_555 1_555
C15 N7 1_555 1_555
H32 C15 1_555 1_555
H33 C15 1_555 1_555
C16 N7 1_555 1_555
H34 C16 1_555 1_555
H35 C16 1_555 1_555
C17 N8 1_555 1_555
H36 C17 1_555 1_555
H37 C17 1_555 1_555
C18 N8 1_555 1_555
H38 C18 1_555 1_555
H39 C18 1_555 1_555
C19 N5 1_555 1_555
H40 C19 1_555 1_555
H41 C19 1_555 1_555
C20 N6 1_555 1_555
H42 C20 1_555 1_555
H43 C20 1_555 1_555
H44 C20 1_555 1_555
C21 N7 1_555 1_555
H45 C21 1_555 1_555
H46 C21 1_555 1_555
H47 C21 1_555 1_555
C22 N8 1_555 1_555
H48 C22 1_555 1_555
H49 C22 1_555 1_555
H50 C22 1_555 1_555
C23 Li2 1_555 1_555
H51 C23 1_555 1_555
H52 C23 1_555 1_555
C24 C23 1_555 1_555
H53 C24 1_555 1_555
H54 C24 1_555 1_555
C25 C24 1_555 1_555
H55 C25 1_555 1_555
H56 C25 1_555 1_555
C26 C25 1_555 1_555
H57 C26 1_555 1_555
H58 C26 1_555 1_555
H59 C26 1_555 1_555
Li3 N5 1_555 1_555
Li3 C23 1_555 1_555
C1 C2 1_555 1_555
C3 C4 1_555 1_555
C5 C6 1_555 1_555
C7 C8 1_555 1_555
C12 C13 1_555 1_555
C14 C15 1_555 1_555
C16 C17 1_555 1_555
C18 C19 1_555 1_555

#END
