
#######################################################################
#
#                 Cambridge Crystallographic Data Centre
#                                CCDC 
#
#######################################################################
#
# If this CIF has been generated from an entry in the Cambridge 
# Structural Database, then it will include bibliographic, chemical, 
# crystal, experimental, refinement or atomic coordinate data resulting 
# from the CCDC's data processing and validation procedures.
#
#######################################################################

data_DUSXEW
_chemical_formula_moiety         'C21 H24 N2 O6'
_chemical_name_systematic        
'5-Ethyl 1-methyl 2-cyano-4-(2-(4-(dimethylamino)phenyl)-2-oxoethylidene)-3-ethoxypent-2-enedioate'
_symmetry_cell_setting           monoclinic
_symmetry_space_group_name_H-M   'P 21/c'
_symmetry_Int_Tables_number      14
_space_group_name_Hall           '-P 2ybc'
loop_
_symmetry_equiv_pos_site_id
_symmetry_equiv_pos_as_xyz
1 x,y,z
2 -x,1/2+y,1/2-z
3 -x,-y,-z
4 x,1/2-y,1/2+z
_cell_length_a                   10.2914(4)
_cell_length_b                   19.0858(7)
_cell_length_c                   13.2267(5)
_cell_angle_alpha                90
_cell_angle_beta                 126.722(2)
_cell_angle_gamma                90
_cell_volume                     2082.4
_exptl_crystal_colour            yellow
_exptl_crystal_description       plate
_cell_formula_units_Z            4
loop_
_atom_site_label
_atom_site_type_symbol
_atom_site_fract_x
_atom_site_fract_y
_atom_site_fract_z
O1 O 0.59323(12) 0.56561(5) 0.48749(10)
O2 O 0.65244(11) 0.62174(5) 0.65969(9)
O3 O 0.22322(11) 0.73485(5) 0.41180(8)
O4 O 0.17646(11) 0.61389(5) 0.53699(8)
O5 O 0.65101(11) 0.76811(5) 0.81600(8)
O6 O 0.58287(12) 0.80359(5) 0.62753(9)
N1 N 0.24999(16) 0.45193(7) 0.99206(12)
N2 N 0.27156(19) 0.64079(8) 0.21834(12)
C1 C 0.7361(2) 0.52291(8) 0.57087(18)
H1 H 0.8300 0.5525 0.6181
H2 H 0.7482 0.4903 0.5218
H3 H 0.7244 0.4977 0.6279
C2 C 0.56496(16) 0.61351(7) 0.54676(13)
C3 C 0.41774(16) 0.65402(7) 0.45752(12)
C4 C 0.35390(15) 0.69838(7) 0.49797(12)
C5 C 0.43322(15) 0.71145(7) 0.63489(12)
C6 C 0.39252(15) 0.68045(7) 0.70274(12)
H4 H 0.4444 0.6947 0.7858
C7 C 0.26810(15) 0.62407(7) 0.65204(12)
C8 C 0.26450(15) 0.58147(7) 0.74212(12)
C9 C 0.17353(16) 0.51901(7) 0.70063(13)
H5 H 0.1153 0.5065 0.6161
C10 C 0.16838(17) 0.47601(7) 0.78156(14)
H6 H 0.1086 0.4347 0.7512
C11 C 0.25287(17) 0.49375(7) 0.91052(13)
C12 C 0.1728(2) 0.38346(8) 0.95358(17)
H7 H 0.0571 0.3892 0.8994
H8 H 0.2044 0.3571 1.0269
H9 H 0.2058 0.3589 0.9091
C13 C 0.14965(17) 0.78061(8) 0.45308(13)
H10 H 0.2268 0.8158 0.5109
H11 H 0.1158 0.7536 0.4958
C14 C 0.00588(18) 0.81472(9) 0.33722(14)
H12 H 0.0413 0.8423 0.2971
H13 H -0.0476 0.8444 0.3605
H14 H -0.0681 0.7793 0.2799
C15 C 0.3151(2) 0.47643(9) 1.11820(15)
H15 H 0.4302 0.4826 1.1658
H16 H 0.2925 0.4425 1.1594
H17 H 0.2656 0.5203 1.1126
C16 C 0.34241(17) 0.55697(7) 0.95193(13)
H18 H 0.3976 0.5706 1.0357
C17 C 0.34909(16) 0.59853(7) 0.87053(12)
H19 H 0.4113 0.6391 0.9011
C18 C 0.56303(16) 0.76585(7) 0.69072(12)
C19 C 0.77074(17) 0.82401(7) 0.87803(13)
H20 H 0.7178 0.8694 0.8550
H21 H 0.8430 0.8225 0.8538
C20 C 0.86336(17) 0.81176(8) 1.01721(13)
H22 H 0.7891 0.8095 1.0385
H23 H 0.9383 0.8495 1.0626
H24 H 0.9219 0.7684 1.0396
C21 C 0.33696(18) 0.64625(7) 0.32479(14)
loop_
_geom_bond_atom_site_label_1
_geom_bond_atom_site_label_2
_geom_bond_site_symmetry_1
_geom_bond_site_symmetry_2
O1 C1 1_555 1_555
O2 C2 1_555 1_555
O3 C4 1_555 1_555
O4 C7 1_555 1_555
O5 C18 1_555 1_555
O6 C18 1_555 1_555
N1 C11 1_555 1_555
N2 C21 1_555 1_555
C1 H1 1_555 1_555
H2 C1 1_555 1_555
H3 C1 1_555 1_555
C2 O1 1_555 1_555
C3 C2 1_555 1_555
C4 C3 1_555 1_555
C5 C4 1_555 1_555
C6 C5 1_555 1_555
H4 C6 1_555 1_555
C7 C6 1_555 1_555
C8 C7 1_555 1_555
C9 C8 1_555 1_555
H5 C9 1_555 1_555
C10 C9 1_555 1_555
H6 C10 1_555 1_555
C11 C10 1_555 1_555
C12 N1 1_555 1_555
H7 C12 1_555 1_555
H8 C12 1_555 1_555
H9 C12 1_555 1_555
C13 O3 1_555 1_555
H10 C13 1_555 1_555
H11 C13 1_555 1_555
C14 C13 1_555 1_555
H12 C14 1_555 1_555
H13 C14 1_555 1_555
H14 C14 1_555 1_555
C15 N1 1_555 1_555
H15 C15 1_555 1_555
H16 C15 1_555 1_555
H17 C15 1_555 1_555
C16 C11 1_555 1_555
H18 C16 1_555 1_555
C17 C8 1_555 1_555
H19 C17 1_555 1_555
C18 C5 1_555 1_555
C19 O5 1_555 1_555
H20 C19 1_555 1_555
H21 C19 1_555 1_555
C20 C19 1_555 1_555
H22 C20 1_555 1_555
H23 C20 1_555 1_555
H24 C20 1_555 1_555
C21 C3 1_555 1_555
C16 C17 1_555 1_555

#END
