
#######################################################################
#
#                 Cambridge Crystallographic Data Centre
#                                CCDC 
#
#######################################################################
#
# If this CIF has been generated from an entry in the Cambridge 
# Structural Database, then it will include bibliographic, chemical, 
# crystal, experimental, refinement or atomic coordinate data resulting 
# from the CCDC's data processing and validation procedures.
#
#######################################################################

data_DUSXAS
_chemical_formula_moiety         'C22 H26 N2 O6'
_chemical_name_systematic        
'Triethyl 4-cyano-3-(4-(dimethylamino)phenyl)buta-1,3-diene-1,1,4-tricarboxylate'
_symmetry_cell_setting           triclinic
_symmetry_space_group_name_H-M   'P -1'
_symmetry_Int_Tables_number      2
_space_group_name_Hall           '-P 1'
loop_
_symmetry_equiv_pos_site_id
_symmetry_equiv_pos_as_xyz
1 x,y,z
2 -x,-y,-z
_cell_length_a                   7.0036(8)
_cell_length_b                   11.1692(14)
_cell_length_c                   14.5159(19)
_cell_angle_alpha                86.765(4)
_cell_angle_beta                 88.293(4)
_cell_angle_gamma                77.786(4)
_cell_volume                     1107.84
_exptl_crystal_colour            orange
_exptl_crystal_description       block
_cell_formula_units_Z            2
loop_
_atom_site_label
_atom_site_type_symbol
_atom_site_fract_x
_atom_site_fract_y
_atom_site_fract_z
O1 O 0.85056(17) 0.09697(11) 0.28926(8)
O2 O 0.53432(18) 0.16809(12) 0.25982(9)
O3 O 0.72285(16) 0.06001(10) 0.48204(7)
O4 O 0.70723(18) 0.23671(11) 0.55054(8)
O5 O 0.10151(15) 0.61129(10) 0.32433(7)
O6 O 0.26532(18) 0.46610(11) 0.42260(8)
N1 N 1.1732(2) 0.29479(14) 0.01699(10)
N2 N 0.3667(2) 0.68622(15) 0.14887(11)
C1 C 1.1205(3) 0.2978(2) -0.07907(12)
H1 H 1.0266 0.2452 -0.0857
H2 H 1.2378 0.2680 -0.1166
H3 H 1.0615 0.3822 -0.0998
C2 C 1.0347(2) 0.33531(15) 0.08288(11)
C3 C 1.0814(2) 0.33050(15) 0.17686(11)
H4 H 1.2132 0.3030 0.1951
C4 C 0.9377(2) 0.36522(15) 0.24248(11)
H5 H 0.9727 0.3585 0.3056
C5 C 0.7416(2) 0.41009(14) 0.21985(11)
C6 C 0.5907(2) 0.43663(15) 0.29215(11)
C7 C 0.6271(2) 0.36245(15) 0.38034(11)
H6 H 0.6177 0.4053 0.4356
C8 C 0.6720(2) 0.24071(15) 0.38798(10)
C9 C 0.6742(2) 0.16473(15) 0.30592(11)
C10 C 0.8735(3) 0.0354(2) 0.20283(14)
H7 H 0.8346 0.0954 0.1504
H8 H 0.7909 -0.0265 0.2035
C11 C 1.0842(4) -0.0251(2) 0.19358(19)
H9 H 1.1092 -0.0592 0.1326
H10 H 1.1167 -0.0912 0.2414
H11 H 1.1650 0.0354 0.2006
C12 C 0.7040(2) 0.18124(15) 0.48238(11)
C13 C 0.7484(3) -0.00401(16) 0.57283(11)
H12 H 0.6291 0.0206 0.6114
H13 H 0.8596 0.0169 0.6043
C14 C 0.7868(3) -0.13801(16) 0.55926(13)
H14 H 0.6785 -0.1573 0.5258
H15 H 0.7985 -0.1830 0.6195
H16 H 0.9086 -0.1621 0.5236
C15 C 1.3648(3) 0.2255(2) 0.04206(14)
H17 H 1.4193 0.2684 0.0886
H18 H 1.4508 0.2173 -0.0128
H19 H 1.3543 0.1439 0.0673
C16 C 0.8388(3) 0.38198(16) 0.05944(11)
H20 H 0.8029 0.3881 -0.0035
C17 C 0.6981(2) 0.41887(15) 0.12598(11)
H21 H 0.5675 0.4513 0.1076
C18 C 0.4213(2) 0.52245(14) 0.28322(11)
C19 C 0.2580(2) 0.52955(15) 0.35184(11)
C20 C -0.0664(2) 0.62450(17) 0.38686(12)
H22 H -0.0336 0.6516 0.4471
H23 H -0.1074 0.5452 0.3972
C21 C -0.2260(3) 0.7179(2) 0.34303(14)
H24 H -0.1877 0.7975 0.3377
H25 H -0.3454 0.7246 0.3811
H26 H -0.2501 0.6931 0.2815
C22 C 0.3904(2) 0.61159(16) 0.20747(11)
loop_
_geom_bond_atom_site_label_1
_geom_bond_atom_site_label_2
_geom_bond_site_symmetry_1
_geom_bond_site_symmetry_2
O1 C9 1_555 1_555
O2 C9 1_555 1_555
O3 C12 1_555 1_555
O4 C12 1_555 1_555
O5 C19 1_555 1_555
O6 C19 1_555 1_555
N1 C1 1_555 1_555
N2 C22 1_555 1_555
C1 H1 1_555 1_555
H2 C1 1_555 1_555
H3 C1 1_555 1_555
C2 N1 1_555 1_555
C3 C2 1_555 1_555
H4 C3 1_555 1_555
C4 C3 1_555 1_555
H5 C4 1_555 1_555
C5 C4 1_555 1_555
C6 C5 1_555 1_555
C7 C6 1_555 1_555
H6 C7 1_555 1_555
C8 C7 1_555 1_555
C9 C8 1_555 1_555
C10 O1 1_555 1_555
H7 C10 1_555 1_555
H8 C10 1_555 1_555
C11 C10 1_555 1_555
H9 C11 1_555 1_555
H10 C11 1_555 1_555
H11 C11 1_555 1_555
C12 C8 1_555 1_555
C13 O3 1_555 1_555
H12 C13 1_555 1_555
H13 C13 1_555 1_555
C14 C13 1_555 1_555
H14 C14 1_555 1_555
H15 C14 1_555 1_555
H16 C14 1_555 1_555
C15 N1 1_555 1_555
H17 C15 1_555 1_555
H18 C15 1_555 1_555
H19 C15 1_555 1_555
C16 C2 1_555 1_555
H20 C16 1_555 1_555
C17 C5 1_555 1_555
H21 C17 1_555 1_555
C18 C6 1_555 1_555
C19 C18 1_555 1_555
C20 O5 1_555 1_555
H22 C20 1_555 1_555
H23 C20 1_555 1_555
C21 C20 1_555 1_555
H24 C21 1_555 1_555
H25 C21 1_555 1_555
H26 C21 1_555 1_555
C22 C18 1_555 1_555
C16 C17 1_555 1_555

#END
