
#######################################################################
#
#                 Cambridge Crystallographic Data Centre
#                                CCDC 
#
#######################################################################
#
# If this CIF has been generated from an entry in the Cambridge 
# Structural Database, then it will include bibliographic, chemical, 
# crystal, experimental, refinement or atomic coordinate data resulting 
# from the CCDC's data processing and validation procedures.
#
#######################################################################

data_DUSZAU
_chemical_formula_moiety         'C13 H18 N6 O4'
_chemical_name_systematic        8-Amino-2',3'-O-isopropylideneadenosine
_symmetry_cell_setting           orthorhombic
_symmetry_space_group_name_H-M   'P 21 21 21'
_symmetry_Int_Tables_number      19
_space_group_name_Hall           'P 2ac 2ab'
loop_
_symmetry_equiv_pos_site_id
_symmetry_equiv_pos_as_xyz
1 x,y,z
2 1/2+x,1/2-y,-z
3 -x,1/2+y,1/2-z
4 1/2-x,-y,1/2+z
_cell_length_a                   7.5831(3)
_cell_length_b                   8.9483(3)
_cell_length_c                   20.9088(7)
_cell_angle_alpha                90
_cell_angle_beta                 90
_cell_angle_gamma                90
_cell_volume                     1418.78
_exptl_crystal_colour            colorless
_exptl_crystal_description       prism
_cell_formula_units_Z            4
_exptl_crystal_recrystallization_method dichloromethane/methanol/n-pentane
loop_
_atom_site_label
_atom_site_type_symbol
_atom_site_fract_x
_atom_site_fract_y
_atom_site_fract_z
O1 O 0.62624(12) 0.13936(10) 0.14028(4)
O2 O 0.41269(12) 0.22419(10) 0.07362(4)
O3 O 0.40856(12) 0.43636(9) 0.21251(4)
O4 O 0.04767(13) 0.33905(11) 0.20781(4)
H1 H -0.024(3) 0.379(2) 0.2374(9)
N1 N 0.55007(13) 0.29805(11) 0.29007(5)
N2 N 0.46615(13) 0.23168(11) 0.38964(5)
N3 N 0.91213(14) 0.37715(12) 0.42755(5)
N4 N 0.84425(14) 0.39572(11) 0.31503(5)
N5 N 0.26381(14) 0.18863(13) 0.30522(5)
H2 H 0.212(3) 0.236(2) 0.2729(9)
H3 H 0.186(2) 0.1684(17) 0.3381(8)
N6 N 0.71648(16) 0.27860(13) 0.50201(5)
H4 H 0.797(3) 0.290(2) 0.5304(9)
H5 H 0.617(3) 0.224(2) 0.5108(8)
C1 C 0.54051(16) 0.32693(14) 0.22196(5)
H6 H 0.648(2) 0.3639(16) 0.2098(7)
C2 C 0.48960(16) 0.19053(13) 0.18102(6)
H7 H 0.4574(19) 0.1112(17) 0.2066(6)
C3 C 0.59847(17) 0.20237(14) 0.07794(5)
C4 C 0.34385(16) 0.24608(14) 0.13580(6)
H8 H 0.237(2) 0.1874(15) 0.1408(7)
C5 C 0.31256(16) 0.41104(13) 0.15418(6)
H9 H 0.3555(18) 0.4761(16) 0.1208(7)
C6 C 0.41970(16) 0.23950(13) 0.32923(6)
C7 C 0.63539(16) 0.29058(13) 0.39077(6)
C8 C 0.75339(16) 0.31405(14) 0.44131(6)
C9 C 0.94634(16) 0.41360(14) 0.36681(6)
H10 H 1.0609(19) 0.4635(15) 0.3586(6)
C10 C 0.68876(16) 0.33302(13) 0.33050(6)
C11 C 0.6975(2) 0.34808(16) 0.07010(7)
H11 H 0.689(3) 0.391(2) 0.0279(10)
H12 H 0.660(2) 0.4246(17) 0.1032(7)
H13 H 0.821(3) 0.329(2) 0.0743(8)
C12 C 0.65218(18) 0.08734(15) 0.02870(6)
H14 H 0.6330(19) 0.1261(16) -0.0156(7)
H15 H 0.586(2) -0.004(2) 0.0366(7)
H16 H 0.778(3) 0.070(2) 0.0314(9)
C13 C 0.12180(17) 0.45072(14) 0.16784(6)
H17 H 0.055(2) 0.4578(18) 0.1281(8)
H18 H 0.117(2) 0.5510(17) 0.1900(7)
loop_
_geom_bond_atom_site_label_1
_geom_bond_atom_site_label_2
_geom_bond_site_symmetry_1
_geom_bond_site_symmetry_2
O1 C2 1_555 1_555
O2 C3 1_555 1_555
O3 C1 1_555 1_555
O4 H1 1_555 1_555
N1 C1 1_555 1_555
N2 C6 1_555 1_555
N3 C8 1_555 1_555
N4 C9 1_555 1_555
N5 H2 1_555 1_555
H3 N5 1_555 1_555
N6 H4 1_555 1_555
H5 N6 1_555 1_555
C1 H6 1_555 1_555
C2 C1 1_555 1_555
H7 C2 1_555 1_555
C3 O1 1_555 1_555
C4 O2 1_555 1_555
H8 C4 1_555 1_555
C5 O3 1_555 1_555
H9 C5 1_555 1_555
C6 N1 1_555 1_555
C7 N2 1_555 1_555
C8 N6 1_555 1_555
C9 N3 1_555 1_555
H10 C9 1_555 1_555
C10 N1 1_555 1_555
C11 C3 1_555 1_555
H11 C11 1_555 1_555
H12 C11 1_555 1_555
H13 C11 1_555 1_555
C12 C3 1_555 1_555
H14 C12 1_555 1_555
H15 C12 1_555 1_555
H16 C12 1_555 1_555
C13 O4 1_555 1_555
H17 C13 1_555 1_555
H18 C13 1_555 1_555
N4 C10 1_555 1_555
N5 C6 1_555 1_555
C2 C4 1_555 1_555
C4 C5 1_555 1_555
C5 C13 1_555 1_555
C7 C8 1_555 1_555
C7 C10 1_555 1_555

#END
