
#######################################################################
#
#                 Cambridge Crystallographic Data Centre
#                                CCDC 
#
#######################################################################
#
# If this CIF has been generated from an entry in the Cambridge 
# Structural Database, then it will include bibliographic, chemical, 
# crystal, experimental, refinement or atomic coordinate data resulting 
# from the CCDC's data processing and validation procedures.
#
#######################################################################

data_DUTBIE
_chemical_formula_moiety         'C5 H3 Br1 N2 S1'
_chemical_name_systematic        5-Bromo-1H-thieno[2,3-d]imidazole
_symmetry_cell_setting           monoclinic
_symmetry_space_group_name_H-M   'P 21/n'
_symmetry_Int_Tables_number      14
_space_group_name_Hall           '-P 2yn'
loop_
_symmetry_equiv_pos_site_id
_symmetry_equiv_pos_as_xyz
1 x,y,z
2 1/2-x,1/2+y,1/2-z
3 -x,-y,-z
4 1/2+x,1/2-y,1/2+z
_cell_length_a                   3.8917(11)
_cell_length_b                   17.118(5)
_cell_length_c                   9.405(3)
_cell_angle_alpha                90
_cell_angle_beta                 91.359(3)
_cell_angle_gamma                90
_cell_volume                     626.367
_exptl_crystal_colour            'light brown'
_exptl_crystal_description       needle
_cell_formula_units_Z            4
_exptl_crystal_recrystallization_method methanol/dichloromethane/toluene
loop_
_atom_site_label
_atom_site_type_symbol
_atom_site_fract_x
_atom_site_fract_y
_atom_site_fract_z
Br1 Br 0.78267(9) 0.43247(2) 0.25169(4)
S1 S 0.4398(2) 0.58614(6) 0.13967(10)
N1 N 0.4603(8) 0.71893(18) 0.4614(3)
H1 H 0.5141 0.7276 0.5515
N2 N 0.2480(8) 0.7397(2) 0.2389(3)
C1 C 0.6366(9) 0.5359(2) 0.2806(4)
C2 C 0.6719(9) 0.5760(2) 0.4074(4)
H2 H 0.7747 0.5568 0.4932
C3 C 0.5239(9) 0.6521(2) 0.3853(4)
C4 C 0.3908(9) 0.6662(2) 0.2503(4)
C5 C 0.2976(10) 0.7690(2) 0.3697(4)
H3 H 0.2262 0.8200 0.3960
loop_
_geom_bond_atom_site_label_1
_geom_bond_atom_site_label_2
_geom_bond_site_symmetry_1
_geom_bond_site_symmetry_2
Br1 C1 1_555 1_555
S1 C1 1_555 1_555
N1 H1 1_555 1_555
N2 C4 1_555 1_555
C1 C2 1_555 1_555
C2 H2 1_555 1_555
C3 N1 1_555 1_555
C4 S1 1_555 1_555
C5 N1 1_555 1_555
H3 C5 1_555 1_555
N2 C5 1_555 1_555
C2 C3 1_555 1_555
C3 C4 1_555 1_555

#END
