
#######################################################################
#
#                 Cambridge Crystallographic Data Centre
#                                CCDC 
#
#######################################################################
#
# If this CIF has been generated from an entry in the Cambridge 
# Structural Database, then it will include bibliographic, chemical, 
# crystal, experimental, refinement or atomic coordinate data resulting 
# from the CCDC's data processing and validation procedures.
#
#######################################################################

data_DUVKAH
_chemical_formula_moiety         'C22 H21 N3'
_chemical_name_systematic        
1-(3,5-Diethyl-1H-pyrazol-1-yl)-3-phenylisoquinoline
_symmetry_cell_setting           monoclinic
_symmetry_space_group_name_H-M   'C 2/c'
_symmetry_Int_Tables_number      15
_space_group_name_Hall           '-C 2yn'
loop_
_symmetry_equiv_pos_site_id
_symmetry_equiv_pos_as_xyz
1 x,y,z
2 -x,y,1/2-z
3 1/2+x,1/2+y,z
4 1/2-x,1/2+y,1/2-z
5 -x,-y,-z
6 x,-y,1/2+z
7 1/2-x,1/2-y,-z
8 1/2+x,1/2-y,1/2+z
_cell_length_a                   16.0736(17)
_cell_length_b                   20.819(2)
_cell_length_c                   10.8579(11)
_cell_angle_alpha                90
_cell_angle_beta                 91.071(3)
_cell_angle_gamma                90
_cell_volume                     3632.81
_exptl_crystal_colour            colorless
_exptl_crystal_description       block
_cell_formula_units_Z            8
_exptl_crystal_recrystallization_method dichloromethane
loop_
_atom_site_label
_atom_site_type_symbol
_atom_site_fract_x
_atom_site_fract_y
_atom_site_fract_z
N1 N 0.85495(7) 0.13529(6) 0.57519(11)
N2 N 0.74093(8) 0.08848(6) 0.66680(12)
N3 N 0.67528(9) 0.11249(7) 0.73249(14)
C1 C 0.77419(9) 0.12658(7) 0.57018(13)
C2 C 0.71957(8) 0.15187(7) 0.47772(13)
C3 C 0.63356(9) 0.13837(7) 0.46657(15)
C4 C 0.58747(10) 0.16524(8) 0.37411(17)
C5 C 0.62327(10) 0.20691(9) 0.28960(16)
C6 C 0.70590(9) 0.22017(8) 0.29663(15)
C7 C 0.75675(9) 0.19240(7) 0.39001(13)
C8 C 0.84337(9) 0.20270(7) 0.39824(14)
C9 C 0.89063(9) 0.17344(7) 0.48754(13)
C10 C 0.98262(9) 0.18012(8) 0.49702(13)
C11 C 1.02486(10) 0.22715(9) 0.43174(15)
C12 C 1.11065(10) 0.23165(10) 0.43877(16)
C13 C 1.15577(11) 0.18965(10) 0.51142(17)
C14 C 1.11534(11) 0.14448(11) 0.57762(19)
C15 C 1.02943(11) 0.13958(10) 0.57140(17)
C16 C 0.65965(12) 0.06812(10) 0.81487(18)
C17 C 0.71487(13) 0.01688(9) 0.80421(18)
C18 C 0.76646(11) 0.03038(8) 0.70880(16)
C19 C 0.5866(3) 0.0755(2) 0.8999(4)
C20 C 0.6107(2) 0.0648(2) 1.0302(3)
C21 C 0.8444(7) -0.0011(5) 0.6591(13)
C22 C 0.8635(6) -0.0631(3) 0.7263(6)
H1 H 0.86860 0.22980 0.34200
H2 H 0.99490 0.25600 0.38270
H3 H 0.72930 0.24780 0.23950
H4 H 0.60850 0.11110 0.52260
H5 H 0.53110 0.15570 0.36700
H6 H 0.59040 0.22570 0.22810
H7 H 0.71640 -0.01980 0.85310
H8 H 0.56360 0.11830 0.89080
H9 H 0.54360 0.04490 0.87620
H10 H 0.63820 0.02400 1.03830
H11 H 0.56190 0.06510 1.07980
H12 H 0.64780 0.09830 1.05710
H13 H 0.83650 -0.00980 0.57190
H14 H 0.89110 0.02810 0.66870
H15 H 0.87290 -0.05430 0.81220
H16 H 0.91240 -0.08230 0.69270
H17 H 0.81730 -0.09200 0.71670
H18 H 1.13790 0.26320 0.39420
H19 H 1.21350 0.19220 0.51510
H20 H 1.14570 0.11650 0.62780
H21 H 1.00290 0.10850 0.61800
C23? C 0.6194(13) 0.0870(14) 0.936(2)
C24? C 0.5561(14) 0.0333(11) 0.945(3)
C25? C 0.8228(9) -0.0155(7) 0.6459(16)
C26? C 0.8969(7) -0.0292(9) 0.7276(10)
H22? H 0.65910 0.08660 1.00400
H23? H 0.59300 0.12880 0.93020
H24? H 0.52560 0.02950 0.86890
H25? H 0.51840 0.04290 1.01040
H26? H 0.58430 -0.00630 0.96300
H27? H 0.84090 0.00290 0.56880
H28? H 0.79320 -0.05510 0.62770
H29? H 0.92540 0.01020 0.74650
H30? H 0.93390 -0.05790 0.68620
H31? H 0.87880 -0.04880 0.80260
loop_
_geom_bond_atom_site_label_1
_geom_bond_atom_site_label_2
_geom_bond_site_symmetry_1
_geom_bond_site_symmetry_2
N1 C1 1_555 1_555
N2 N3 1_555 1_555
N3 C16 1_555 1_555
C1 N2 1_555 1_555
C2 C1 1_555 1_555
C3 C2 1_555 1_555
C4 C3 1_555 1_555
C5 C4 1_555 1_555
C6 C5 1_555 1_555
C7 C2 1_555 1_555
C8 C7 1_555 1_555
C9 N1 1_555 1_555
C10 C9 1_555 1_555
C11 C10 1_555 1_555
C12 C11 1_555 1_555
C13 C12 1_555 1_555
C14 C13 1_555 1_555
C15 C10 1_555 1_555
C16 C17 1_555 1_555
C17 C18 1_555 1_555
C18 N2 1_555 1_555
C19 C16 1_555 1_555
C20 C19 1_555 1_555
C21 C18 1_555 1_555
C22 C21 1_555 1_555
H1 C8 1_555 1_555
H2 C11 1_555 1_555
H3 C6 1_555 1_555
H4 C3 1_555 1_555
H5 C4 1_555 1_555
H6 C5 1_555 1_555
H7 C17 1_555 1_555
H8 C19 1_555 1_555
H9 C19 1_555 1_555
H10 C20 1_555 1_555
H11 C20 1_555 1_555
H12 C20 1_555 1_555
H13 C21 1_555 1_555
H14 C21 1_555 1_555
H15 C22 1_555 1_555
H16 C22 1_555 1_555
H17 C22 1_555 1_555
H18 C12 1_555 1_555
H19 C13 1_555 1_555
H20 C14 1_555 1_555
H21 C15 1_555 1_555
C6 C7 1_555 1_555
C8 C9 1_555 1_555
C14 C15 1_555 1_555

#END
