
#######################################################################
#
#                 Cambridge Crystallographic Data Centre
#                                CCDC 
#
#######################################################################
#
# If this CIF has been generated from an entry in the Cambridge 
# Structural Database, then it will include bibliographic, chemical, 
# crystal, experimental, refinement or atomic coordinate data resulting 
# from the CCDC's data processing and validation procedures.
#
#######################################################################

data_DUXRAP
_chemical_formula_moiety         'C12 H4 Cl6'
_chemical_name_systematic        2,2',4,4',5,5'-Hexachlorobiphenyl
_chemical_properties_biological  'receptor binding and toxic activity'
_symmetry_cell_setting           monoclinic
_symmetry_space_group_name_H-M   'P 21/n'
_symmetry_Int_Tables_number      14
_space_group_name_Hall           '-P 2yn'
loop_
_symmetry_equiv_pos_site_id
_symmetry_equiv_pos_as_xyz
1 x,y,z
2 1/2-x,1/2+y,1/2-z
3 -x,-y,-z
4 1/2+x,1/2-y,1/2+z
_cell_length_a                   12.395(2)
_cell_length_b                   8.044(1)
_cell_length_c                   13.388(2)
_cell_angle_alpha                90
_cell_angle_beta                 94.45(1)
_cell_angle_gamma                90
_cell_volume                     1330.83
_exptl_crystal_colour            colorless
_cell_formula_units_Z            4
loop_
_atom_site_label
_atom_site_type_symbol
_atom_site_fract_x
_atom_site_fract_y
_atom_site_fract_z
Cl1 Cl -0.6731(1) 0.0385(2) 0.3137(1)
Cl2 Cl -0.5397(1) 0.2898(2) 0.6709(1)
Cl3 Cl -0.3254(1) 0.4184(2) 0.5842(1)
Cl4 Cl -0.2767(1) 0.0293(2) 0.2782(1)
Cl5 Cl -0.4141(1) 0.1970(2) -0.0943(1)
Cl6 Cl -0.6246(1) 0.3576(2) -0.0172(1)
C1 C -0.4830(4) 0.2087(6) 0.3453(3)
C2 C -0.5754(4) 0.1477(6) 0.3863(6)
C3 C -0.5910(4) 0.1705(7) 0.4868(4)
C4 C -0.5161(4) 0.2549(6) 0.5473(3)
C5 C -0.4224(4) 0.3139(6) 0.5095(3)
C6 C -0.4073(4) 0.2899(6) 0.4091(4)
C7 C -0.4663(4) 0.1980(6) 0.2362(3)
C8 C -0.3752(4) 0.1267(6) 0.1995(3)
C9 C -0.3596(4) 0.1269(7) 0.0991(4)
C10 C -0.4361(4) 0.1977(6) 0.0318(4)
C11 C -0.5275(4) 0.2694(6) 0.0657(4)
C12 C -0.5410(4) 0.2693(7) 0.1671(4)
H1 H -0.652(4) 0.130(6) 0.509(3)
H2 H -0.347(4) 0.334(6) 0.386(3)
H3 H -0.302(4) 0.079(6) 0.077(3)
H4 H -0.598(4) 0.316(6) 0.188(3)
loop_
_geom_bond_atom_site_label_1
_geom_bond_atom_site_label_2
_geom_bond_site_symmetry_1
_geom_bond_site_symmetry_2
Cl1 C2 1_555 1_555
Cl2 C4 1_555 1_555
Cl3 C5 1_555 1_555
Cl4 C8 1_555 1_555
Cl5 C10 1_555 1_555
Cl6 C11 1_555 1_555
C1 C2 1_555 1_555
C2 C3 1_555 1_555
C3 C4 1_555 1_555
C4 C5 1_555 1_555
C5 C6 1_555 1_555
C6 C1 1_555 1_555
C7 C1 1_555 1_555
C8 C7 1_555 1_555
C9 C8 1_555 1_555
C10 C9 1_555 1_555
C11 C10 1_555 1_555
C12 C7 1_555 1_555
H1 C3 1_555 1_555
H2 C6 1_555 1_555
H3 C9 1_555 1_555
H4 C12 1_555 1_555
C11 C12 1_555 1_555

#END
