
#######################################################################
#
#                 Cambridge Crystallographic Data Centre
#                                CCDC 
#
#######################################################################
#
# If this CIF has been generated from an entry in the Cambridge 
# Structural Database, then it will include bibliographic, chemical, 
# crystal, experimental, refinement or atomic coordinate data resulting 
# from the CCDC's data processing and validation procedures.
#
#######################################################################

data_DUXVOI
_chemical_formula_moiety         'C14 H10 Br1 F3 O3'
_chemical_name_systematic        
2-Bromo-1-(2-ethoxy-5-(4-fluorophenyl)-3-furyl)-2,2-difluoroethanone
_symmetry_cell_setting           triclinic
_symmetry_space_group_name_H-M   'P -1'
_symmetry_Int_Tables_number      2
_space_group_name_Hall           '-P 1'
loop_
_symmetry_equiv_pos_site_id
_symmetry_equiv_pos_as_xyz
1 x,y,z
2 -x,-y,-z
_cell_length_a                   9.1062(3)
_cell_length_b                   10.9613(4)
_cell_length_c                   15.6322(6)
_cell_angle_alpha                73.452(2)
_cell_angle_beta                 77.710(2)
_cell_angle_gamma                84.341(2)
_cell_volume                     1460.23
_exptl_crystal_colour            colorless
_exptl_crystal_description       block
_chemical_melting_point          59-63deg.C
_cell_formula_units_Z            4
loop_
_atom_site_label
_atom_site_type_symbol
_atom_site_fract_x
_atom_site_fract_y
_atom_site_fract_z
Br1 Br 1.01014(12) 0.35828(11) 0.41144(7)
F1 F 0.0081(6) 0.0183(6) 0.6448(4)
F2 F 0.7882(6) 0.5190(4) 0.3535(4)
F3 F 0.9977(6) 0.5436(5) 0.2618(4)
O1 O 0.5710(5) 0.1409(4) 0.3262(3)
O2 O 0.9558(6) 0.3566(5) 0.1983(4)
O6 O 0.7697(5) 0.1507(4) 0.2096(3)
C1 C 0.1315(8) 0.0629(8) 0.5809(6)
C2 C 0.1894(8) 0.0035(8) 0.5180(6)
H1 H 0.1451 -0.0683 0.5160
C3 C 0.3165(7) 0.0495(7) 0.4553(5)
H2 H 0.3585 0.0075 0.4113
C4 C 0.3834(7) 0.1587(7) 0.4569(5)
C5 C 0.3150(9) 0.2196(7) 0.5238(5)
H3 H 0.3543 0.2934 0.5262
C6 C 0.1896(9) 0.1699(9) 0.5860(6)
H4 H 0.1449 0.2090 0.6312
C7 C 0.5185(7) 0.2051(6) 0.3940(4)
C8 C 0.6145(8) 0.2970(6) 0.3821(5)
H5 H 0.6052 0.3537 0.4175
C9 C 0.7339(7) 0.2932(6) 0.3059(4)
C10 C 0.8671(8) 0.3646(6) 0.2676(5)
C11 C 0.9033(9) 0.4539(7) 0.3194(6)
C12 C 0.6988(7) 0.1958(6) 0.2758(4)
C13 C 0.7189(9) 0.0332(6) 0.2004(5)
H6 H 0.7056 -0.0307 0.2586
H7 H 0.6231 0.0495 0.1806
C14 C 0.8309(12) -0.0123(8) 0.1340(6)
H8 H 0.8403 0.0498 0.0760
H9 H 0.8004 -0.0911 0.1291
H10 H 0.9261 -0.0259 0.1532
Br2 Br 0.21248(11) 0.76411(15) 0.26911(7)
F4 F 0.3071(7) 0.0270(5) 0.0608(4)
F5 F 0.39545(17) 0.78719(10) 0.37473(10)
F6 F 0.30873(19) 0.59564(10) 0.40770(9)
O3 O 0.6238(5) 0.4851(4) 0.1090(3)
O4 O 0.6007(7) 0.7651(5) 0.2491(4)
O5 O 0.7652(5) 0.6437(4) 0.1145(3)
C15 C 0.3505(9) 0.1273(7) 0.0836(6)
C16 C 0.4714(10) 0.1877(7) 0.0312(5)
H11 H 0.5238 0.1613 -0.0187
C17 C 0.5182(9) 0.2909(7) 0.0522(5)
H12 H 0.6012 0.3352 0.0155
C18 C 0.4407(7) 0.3275(6) 0.1278(4)
C19 C 0.3193(8) 0.2577(7) 0.1805(6)
H13 H 0.2670 0.2786 0.2327
C20 C 0.2753(10) 0.1578(7) 0.1569(6)
H14 H 0.1926 0.1119 0.1923
C21 C 0.4855(7) 0.4356(6) 0.1531(4)
C22 C 0.4194(8) 0.5020(6) 0.2114(5)
H15 H 0.3247 0.4887 0.2485
C23 C 0.5189(8) 0.5963(6) 0.2068(5)
C24 C 0.4993(2) 0.6935(5) 0.25705(16)
C25 C 0.36931(14) 0.69542(12) 0.33221(8)
C26 C 0.6398(7) 0.5794(6) 0.1443(5)
C27 C 0.8755(8) 0.6152(7) 0.0399(5)
H16 H 0.8317 0.6304 -0.0137
H17 H 0.9113 0.5269 0.0565
C28 C 0.9992(10) 0.7004(9) 0.0225(7)
H18 H 0.9619 0.7873 0.0065
H19 H 1.0755 0.6855 -0.0266
H20 H 1.0412 0.6843 0.0762
loop_
_geom_bond_atom_site_label_1
_geom_bond_atom_site_label_2
_geom_bond_site_symmetry_1
_geom_bond_site_symmetry_2
Br1 C11 1_555 1_555
Br2 C25 1_555 1_555
F1 C1 1_555 1_555
F2 C11 1_555 1_555
F3 C11 1_555 1_555
F4 C15 1_555 1_555
F5 C25 1_555 1_555
F6 C25 1_555 1_555
O1 C7 1_555 1_555
O2 C10 1_555 1_555
O3 C21 1_555 1_555
O4 C24 1_555 1_555
O5 C26 1_555 1_555
O6 C12 1_555 1_555
C1 C2 1_555 1_555
C2 H1 1_555 1_555
C3 C2 1_555 1_555
H2 C3 1_555 1_555
C4 C3 1_555 1_555
C5 C4 1_555 1_555
H3 C5 1_555 1_555
C6 C1 1_555 1_555
H4 C6 1_555 1_555
C7 C4 1_555 1_555
C8 C7 1_555 1_555
H5 C8 1_555 1_555
C9 C8 1_555 1_555
C10 C9 1_555 1_555
C11 C10 1_555 1_555
C12 O1 1_555 1_555
C13 O6 1_555 1_555
H6 C13 1_555 1_555
H7 C13 1_555 1_555
C14 C13 1_555 1_555
H8 C14 1_555 1_555
H9 C14 1_555 1_555
H10 C14 1_555 1_555
C15 C16 1_555 1_555
C16 H11 1_555 1_555
C17 C16 1_555 1_555
H12 C17 1_555 1_555
C18 C17 1_555 1_555
C19 C18 1_555 1_555
H13 C19 1_555 1_555
C20 C15 1_555 1_555
H14 C20 1_555 1_555
C21 C18 1_555 1_555
C22 C21 1_555 1_555
H15 C22 1_555 1_555
C23 C22 1_555 1_555
C24 C23 1_555 1_555
C25 C24 1_555 1_555
C26 O3 1_555 1_555
C27 O5 1_555 1_555
H16 C27 1_555 1_555
H17 C27 1_555 1_555
C28 C27 1_555 1_555
H18 C28 1_555 1_555
H19 C28 1_555 1_555
H20 C28 1_555 1_555
C5 C6 1_555 1_555
C9 C12 1_555 1_555
C19 C20 1_555 1_555
C23 C26 1_555 1_555

#END
