
#######################################################################
#
#                 Cambridge Crystallographic Data Centre
#                                CCDC 
#
#######################################################################
#
# If this CIF has been generated from an entry in the Cambridge 
# Structural Database, then it will include bibliographic, chemical, 
# crystal, experimental, refinement or atomic coordinate data resulting 
# from the CCDC's data processing and validation procedures.
#
#######################################################################

data_DUYKIS
_chemical_formula_moiety         'C25 H20 F1 N1 O1'
_chemical_name_systematic        
4-(4-Fluorophenyl)-2,3,3a,4,5,13c-hexahydrofuro[3,2-c]naphtho[2,3-f]quinoline
_symmetry_cell_setting           triclinic
_symmetry_space_group_name_H-M   'P -1'
_symmetry_Int_Tables_number      2
_space_group_name_Hall           '-P 1'
loop_
_symmetry_equiv_pos_site_id
_symmetry_equiv_pos_as_xyz
1 x,y,z
2 -x,-y,-z
_cell_length_a                   9.1128(10)
_cell_length_b                   10.1416(12)
_cell_length_c                   10.6352(13)
_cell_angle_alpha                76.379(8)
_cell_angle_beta                 81.633(8)
_cell_angle_gamma                74.199(8)
_cell_volume                     915.661
_exptl_crystal_colour            red
_exptl_crystal_description       block
_cell_formula_units_Z            2
loop_
_atom_site_label
_atom_site_type_symbol
_atom_site_fract_x
_atom_site_fract_y
_atom_site_fract_z
C1 C 0.3532(6) 0.1777(5) 0.5900(5)
H1 H 0.3998 0.1406 0.6715
H2 H 0.3029 0.1105 0.5751
F1 F 0.2306(4) 0.1622(4) 1.2208(3)
N1 N 0.1688(4) 0.5337(4) 0.6650(4)
C2 C 0.2676(4) 0.6703(4) 0.0699(4)
C3 C 0.2062(5) 0.9036(5) -0.0703(5)
H3 H 0.1666 0.9999 -0.0810
C4 C 0.3235(5) 0.7022(5) -0.1626(4)
H4 H 0.3647 0.6657 -0.2361
C5 C 0.2168(4) 0.6382(4) 0.3059(4)
C6 C 0.1662(5) 0.6130(5) 0.5400(4)
C7 C 0.1548(5) 0.8701(5) 0.1689(5)
H5 H 0.1159 0.9662 0.1612
C8 C 0.2708(4) 0.5840(4) 0.1942(4)
H6 H 0.3101 0.4879 0.2024
C9 C 0.2413(6) 0.2149(5) 1.0895(5)
C10 C 0.1029(6) 0.8429(5) 0.4054(5)
H7 H 0.0649 0.9391 0.3972
C11 C 0.3242(5) 0.6149(5) -0.0442(4)
H8 H 0.3616 0.5188 -0.0374
C12 C 0.2634(5) 0.3957(5) 0.4546(5)
H9 H 0.2062 0.3669 0.3990
C13 C 0.2076(4) 0.8187(4) 0.0560(4)
C14 C 0.3814(6) 0.1935(5) 1.0201(5)
H10 H 0.4690 0.1411 1.0605
C15 C 0.1090(6) 0.2862(5) 1.0333(5)
H11 H 0.0148 0.2971 1.0822
C16 C 0.2593(5) 0.3269(5) 0.8281(4)
C17 C 0.3898(5) 0.2508(5) 0.8907(5)
H12 H 0.4848 0.2388 0.8430
C18 C 0.2715(5) 0.3956(5) 0.6873(4)
H13 H 0.3762 0.4067 0.6642
C19 C 0.2185(5) 0.5524(4) 0.4345(4)
C20 C 0.1570(5) 0.7871(4) 0.2905(4)
C21 C 0.1052(6) 0.7607(5) 0.5240(5)
H14 H 0.0669 0.8001 0.5964
C22 C 0.1197(5) 0.3413(5) 0.9020(5)
H15 H 0.0308 0.3896 0.8619
C23 C 0.2390(5) 0.3172(5) 0.5936(5)
H16 H 0.1344 0.3050 0.6121
C24 C 0.2612(5) 0.8472(5) -0.1751(5)
H17 H 0.2582 0.9049 -0.2573
O1 O 0.4236(4) 0.3488(3) 0.4190(3)
C25 C 0.4705(9) 0.2050(6) 0.4818(7)
H18 H 0.5695 0.1861 0.5150
H19 H 0.4789 0.1451 0.4209
H20 H 0.158(6) 0.580(5) 0.723(5)
loop_
_geom_bond_atom_site_label_1
_geom_bond_atom_site_label_2
_geom_bond_site_symmetry_1
_geom_bond_site_symmetry_2
C1 H1 1_555 1_555
H2 C1 1_555 1_555
F1 C9 1_555 1_555
N1 C6 1_555 1_555
C2 C8 1_555 1_555
C3 H3 1_555 1_555
C4 H4 1_555 1_555
C5 C8 1_555 1_555
C6 C19 1_555 1_555
C7 H5 1_555 1_555
C8 H6 1_555 1_555
C9 C14 1_555 1_555
C10 H7 1_555 1_555
C11 C2 1_555 1_555
H8 C11 1_555 1_555
C12 H9 1_555 1_555
C13 C2 1_555 1_555
C14 H10 1_555 1_555
C15 C9 1_555 1_555
H11 C15 1_555 1_555
C16 C17 1_555 1_555
C17 C14 1_555 1_555
H12 C17 1_555 1_555
C18 N1 1_555 1_555
H13 C18 1_555 1_555
C19 C5 1_555 1_555
C20 C5 1_555 1_555
C21 C6 1_555 1_555
H14 C21 1_555 1_555
C22 C15 1_555 1_555
H15 C22 1_555 1_555
C23 C1 1_555 1_555
H16 C23 1_555 1_555
C24 C3 1_555 1_555
H17 C24 1_555 1_555
O1 C12 1_555 1_555
C25 C1 1_555 1_555
H18 C25 1_555 1_555
H19 C25 1_555 1_555
H20 N1 1_555 1_555
C3 C13 1_555 1_555
C4 C11 1_555 1_555
C4 C24 1_555 1_555
C7 C13 1_555 1_555
C7 C20 1_555 1_555
C10 C20 1_555 1_555
C10 C21 1_555 1_555
C12 C19 1_555 1_555
C12 C23 1_555 1_555
C16 C18 1_555 1_555
C16 C22 1_555 1_555
C18 C23 1_555 1_555
O1 C25 1_555 1_555

#END
