
#######################################################################
#
#                 Cambridge Crystallographic Data Centre
#                                CCDC 
#
#######################################################################
#
# If this CIF has been generated from an entry in the Cambridge 
# Structural Database, then it will include bibliographic, chemical, 
# crystal, experimental, refinement or atomic coordinate data resulting 
# from the CCDC's data processing and validation procedures.
#
#######################################################################

data_DUYLAL
_chemical_formula_moiety         'C14 H7 F4 N3'
_chemical_name_systematic        
N'-(4-Cyano-2,3,5,6-tetrafluorophenyl)benzenecarboximidamide
_symmetry_cell_setting           monoclinic
_symmetry_space_group_name_H-M   'P 21/c'
_symmetry_Int_Tables_number      14
_space_group_name_Hall           '-P 2ybc'
loop_
_symmetry_equiv_pos_site_id
_symmetry_equiv_pos_as_xyz
1 x,y,z
2 -x,1/2+y,1/2-z
3 -x,-y,-z
4 x,1/2-y,1/2+z
_cell_length_a                   12.8354(4)
_cell_length_b                   8.9702(3)
_cell_length_c                   10.6272(4)
_cell_angle_alpha                90
_cell_angle_beta                 91.050(10)
_cell_angle_gamma                90
_cell_volume                     1223.37
_exptl_crystal_colour            'light colorless'
_exptl_crystal_description       plate
_chemical_melting_point          '164-165 deg.C'
_cell_formula_units_Z            4
loop_
_atom_site_label
_atom_site_type_symbol
_atom_site_fract_x
_atom_site_fract_y
_atom_site_fract_z
F1 F 0.48696(5) 0.75113(9) 0.52834(7)
F2 F 0.67826(6) 0.65470(8) 0.47814(7)
F3 F 0.82142(5) 1.04572(9) 0.72523(7)
F4 F 0.62764(6) 1.14055(9) 0.77600(8)
N1 N 0.36916(8) 1.04506(14) 0.70682(11)
N2 N 0.85955(7) 0.80385(11) 0.58211(9)
N3 N 0.85076(8) 0.79718(12) 0.35919(9)
C1 C 0.45041(9) 0.99856(14) 0.68489(11)
C2 C 0.55263(9) 0.94600(14) 0.65617(11)
C3 C 0.56893(9) 0.82304(13) 0.57940(11)
C4 C 0.66817(9) 0.77547(13) 0.55148(10)
C5 C 0.75724(8) 0.84971(13) 0.59716(10)
C6 C 0.73968(8) 0.97272(13) 0.67608(11)
C7 C 0.64074(9) 1.02035(14) 0.70382(11)
C8 C 0.89893(8) 0.77875(12) 0.47149(10)
C9 C 1.01053(8) 0.73552(12) 0.46855(10)
C10 C 1.04634(9) 0.62766(13) 0.38491(11)
C11 C 1.15229(9) 0.59338(14) 0.38297(12)
C12 C 1.22200(9) 0.66692(14) 0.46283(12)
C13 C 1.18637(9) 0.77392(14) 0.54645(12)
C14 C 1.08070(9) 0.80833(14) 0.54932(11)
H1 H 0.8836(13) 0.7777(19) 0.2882(17)
H2 H 0.7851(14) 0.828(2) 0.3541(17)
H3 H 0.9995(12) 0.5757(19) 0.3280(16)
H4 H 1.1763(13) 0.514(2) 0.3284(17)
H5 H 1.2968(13) 0.6430(19) 0.4634(16)
H6 H 1.2340(13) 0.826(2) 0.6028(17)
H7 H 1.0540(13) 0.8855(19) 0.6059(16)
loop_
_geom_bond_atom_site_label_1
_geom_bond_atom_site_label_2
_geom_bond_site_symmetry_1
_geom_bond_site_symmetry_2
F1 C3 1_555 1_555
F2 C4 1_555 1_555
F3 C6 1_555 1_555
F4 C7 1_555 1_555
N1 C1 1_555 1_555
N2 C5 1_555 1_555
N3 C8 1_555 1_555
C1 C2 1_555 1_555
C2 C3 1_555 1_555
C3 C4 1_555 1_555
C4 C5 1_555 1_555
C5 C6 1_555 1_555
C6 C7 1_555 1_555
C7 C2 1_555 1_555
C8 N2 1_555 1_555
C9 C8 1_555 1_555
C10 C9 1_555 1_555
C11 C10 1_555 1_555
C12 C11 1_555 1_555
C13 C12 1_555 1_555
C14 C9 1_555 1_555
H1 N3 1_555 1_555
H2 N3 1_555 1_555
H3 C10 1_555 1_555
H4 C11 1_555 1_555
H5 C12 1_555 1_555
H6 C13 1_555 1_555
H7 C14 1_555 1_555
C13 C14 1_555 1_555

#END
