
#######################################################################
#
#                 Cambridge Crystallographic Data Centre
#                                CCDC 
#
#######################################################################
#
# If this CIF has been generated from an entry in the Cambridge 
# Structural Database, then it will include bibliographic, chemical, 
# crystal, experimental, refinement or atomic coordinate data resulting 
# from the CCDC's data processing and validation procedures.
#
#######################################################################

data_DUYLEP
_chemical_formula_moiety         'C11 H11 F3 N4 O1'
_chemical_name_systematic        
4,5,7-Trifluoro-6-(morpholin-4-yl)-1H-indazol-3-amine
_symmetry_cell_setting           monoclinic
_symmetry_space_group_name_H-M   'P 21/n'
_symmetry_Int_Tables_number      14
_space_group_name_Hall           '-P 2yn'
loop_
_symmetry_equiv_pos_site_id
_symmetry_equiv_pos_as_xyz
1 x,y,z
2 1/2-x,1/2+y,1/2-z
3 -x,-y,-z
4 1/2+x,1/2-y,1/2+z
_cell_length_a                   4.2181(2)
_cell_length_b                   16.4277(7)
_cell_length_c                   16.3824(7)
_cell_angle_alpha                90
_cell_angle_beta                 90.78(2)
_cell_angle_gamma                90
_cell_volume                     1135.09
_exptl_crystal_colour            colorless
_exptl_crystal_description       needle
_chemical_melting_point          '188-189 deg.C'
_cell_formula_units_Z            4
loop_
_atom_site_label
_atom_site_type_symbol
_atom_site_fract_x
_atom_site_fract_y
_atom_site_fract_z
F1 F -0.2116(3) 0.29303(7) 0.28038(7)
F2 F 0.4529(3) 0.27548(7) 0.57076(7)
F3 F 0.4737(3) 0.41267(6) 0.48204(7)
O1 O 0.0581(3) 0.57799(8) 0.24494(8)
N1 N 0.1753(4) 0.43258(9) 0.33504(9)
N2 N -0.1942(4) 0.14853(9) 0.38147(10)
N3 N -0.1333(4) 0.09353(10) 0.44369(10)
N4 N 0.1539(5) 0.09511(11) 0.56889(11)
C1 C 0.1355(5) 0.35821(11) 0.37737(11)
C2 C -0.0369(5) 0.29203(11) 0.35074(11)
C3 C -0.0433(5) 0.21984(11) 0.39602(11)
C4 C 0.1183(5) 0.21259(11) 0.47048(11)
C5 C 0.2903(5) 0.27985(12) 0.49903(11)
C6 C 0.2985(5) 0.34936(11) 0.45377(11)
C7 C 0.0544(5) 0.13180(12) 0.49655(12)
C8 C 0.1171(5) 0.43097(12) 0.24626(12)
C9 C 0.2264(5) 0.51059(12) 0.21041(13)
C10 C 0.1170(5) 0.58081(12) 0.33144(13)
C11 C 0.0139(5) 0.50269(11) 0.37234(13)
H1 H -0.307(6) 0.1324(14) 0.3361(15)
H2 H 0.164(6) 0.0391(16) 0.5663(14)
H3 H 0.333(6) 0.1178(15) 0.5870(15)
H4 H -0.115(5) 0.4259(13) 0.2293(13)
H5 H 0.243(5) 0.3865(13) 0.2215(12)
H6 H 0.182(5) 0.5122(12) 0.1567(14)
H7 H 0.459(5) 0.5200(11) 0.2212(11)
H8 H -0.008(5) 0.6274(13) 0.3503(13)
H9 H 0.359(5) 0.5899(11) 0.3420(11)
H10 H -0.216(6) 0.4938(13) 0.3672(13)
H11 H 0.083(5) 0.5060(13) 0.4300(13)
loop_
_geom_bond_atom_site_label_1
_geom_bond_atom_site_label_2
_geom_bond_site_symmetry_1
_geom_bond_site_symmetry_2
F1 C2 1_555 1_555
F2 C5 1_555 1_555
F3 C6 1_555 1_555
O1 C9 1_555 1_555
N1 C1 1_555 1_555
N2 N3 1_555 1_555
N3 C7 1_555 1_555
N4 C7 1_555 1_555
C1 C2 1_555 1_555
C2 C3 1_555 1_555
C3 N2 1_555 1_555
C4 C3 1_555 1_555
C5 C4 1_555 1_555
C6 C1 1_555 1_555
C7 C4 1_555 1_555
C8 N1 1_555 1_555
C9 C8 1_555 1_555
C10 O1 1_555 1_555
C11 N1 1_555 1_555
H1 N2 1_555 1_555
H2 N4 1_555 1_555
H3 N4 1_555 1_555
H4 C8 1_555 1_555
H5 C8 1_555 1_555
H6 C9 1_555 1_555
H7 C9 1_555 1_555
H8 C10 1_555 1_555
H9 C10 1_555 1_555
H10 C11 1_555 1_555
H11 C11 1_555 1_555
C5 C6 1_555 1_555
C10 C11 1_555 1_555

#END
