
#######################################################################
#
#                 Cambridge Crystallographic Data Centre
#                                CCDC 
#
#######################################################################
#
# If this CIF has been generated from an entry in the Cambridge 
# Structural Database, then it will include bibliographic, chemical, 
# crystal, experimental, refinement or atomic coordinate data resulting 
# from the CCDC's data processing and validation procedures.
#
#######################################################################

data_EACCAM
_chemical_name_common            
Monohydrazatotrihydroxy-p-t-butylcalix(4)arene
_chemical_formula_moiety         'C44 H60 N2 O3'
_chemical_name_systematic        
5,11,17,23-Tetra-t-butyl-pentacyclo(19.3.1.1^3,7^.1^9,13^.1^15,19^)octacosa-3,5,7(28),9,11,13(27),15,17,19(26),22-decaene-25-hydrazone
_symmetry_cell_setting           monoclinic
_symmetry_space_group_name_H-M   'P 21/c'
_symmetry_Int_Tables_number      14
_space_group_name_Hall           '-P 2ybc'
loop_
_symmetry_equiv_pos_site_id
_symmetry_equiv_pos_as_xyz
1 x,y,z
2 -x,1/2+y,1/2-z
3 -x,-y,-z
4 x,1/2-y,1/2+z
_cell_length_a                   10.472(1)
_cell_length_b                   20.356(2)
_cell_length_c                   19.112(2)
_cell_angle_alpha                90
_cell_angle_beta                 102.15(1)
_cell_angle_gamma                90
_cell_volume                     3982.81
_chemical_melting_point          223-225deg.C
_cell_formula_units_Z            4
loop_
_atom_site_label
_atom_site_type_symbol
_atom_site_fract_x
_atom_site_fract_y
_atom_site_fract_z
O1 O 0.9985(2) 0.4871(1) 0.1605(1)
O2 O 1.0385(2) 0.4221(1) 0.2983(1)
O3 O 0.7508(2) 0.5708(1) 0.3098(1)
N1 N 0.7255(2) 0.5786(1) 0.1695(1)
N2 N 0.6501(2) 0.5256(1) 0.1369(1)
C1 C 0.9215(3) 0.4539(1) 0.1046(1)
C2 C 0.8717(3) 0.4901(1) 0.0433(1)
C3 C 0.7958(3) 0.4579(1) -0.0154(1)
C4 C 0.7694(3) 0.3911(1) -0.0159(1)
C5 C 0.8193(3) 0.3573(1) 0.0475(2)
C6 C 0.8935(3) 0.3869(1) 0.1080(1)
C7 C 0.9331(3) 0.3484(1) 0.1762(2)
C8 C 0.9070(3) 0.4075(1) 0.2896(1)
C9 C 0.8540(3) 0.3688(1) 0.2306(1)
C10 C 0.7219(3) 0.3537(1) 0.2189(1)
C11 C 0.6409(3) 0.3761(1) 0.2634(2)
C12 C 0.6997(3) 0.4146(1) 0.3214(1)
C13 C 0.8313(3) 0.4308(1) 0.3359(1)
C14 C 0.8871(3) 0.4755(1) 0.3983(1)
C15 C 0.8822(3) 0.5796(1) 0.3279(1)
C16 C 0.9554(3) 0.5353(1) 0.3759(1)
C17 C 1.0880(3) 0.5454(1) 0.3983(1)
C18 C 1.1542(3) 0.5965(1) 0.3727(1)
C19 C 1.0782(3) 0.6380(1) 0.3229(1)
C20 C 0.9443(3) 0.6311(1) 0.2999(1)
C21 C 0.8679(3) 0.6805(1) 0.2485(1)
C22 C 0.7851(2) 0.6151(1) 0.1324(1)
C23 C 0.8667(2) 0.6711(1) 0.1687(1)
C24 C 0.8269(3) 0.7355(1) 0.1284(1)
C25 C 0.8065(2) 0.7301(1) 0.0483(1)
C26 C 0.7867(3) 0.6718(1) 0.0178(1)
C27 C 0.7830(2) 0.6068(1) 0.0537(1)
C28 C 0.8952(3) 0.5630(1) 0.0393(2)
C29 C 0.6899(3) 0.3549(1) -0.0803(2)
C30 C 0.6558(4) 0.3988(2) -0.1460(2)
C31 C 0.7676(4) 0.2964(2) -0.0987(2)
C32 C 0.5637(3) 0.3300(2) -0.0622(2)
C33 C 0.4951(3) 0.3604(2) 0.2467(2)
C34 C 0.4296(4) 0.3922(3) 0.1774(4)
C35 C 0.4715(4) 0.2878(2) 0.2373(3)
C36 C 0.4300(5) 0.3799(4) 0.3054(4)
C37 C 1.3010(3) 0.6064(2) 0.3995(2)
C38 C 1.3684(8) 0.5508(6) 0.4482(7)
C39 C 1.323(1) 0.6697(6) 0.4429(9)
C40 C 1.3702(9) 0.6105(7) 0.3389(5)
C44 C 0.8108(3) 0.7932(1) 0.0060(1)
C45 C 0.7363(4) 0.8481(2) 0.0342(2)
C46 C 0.9530(3) 0.8148(2) 0.0137(2)
C47 C 0.7513(4) 0.7852(2) -0.0730(2)
H1 H 1.0369 0.4586 0.2033
H2 H 1.0639 0.4623 0.3297
H3 H 0.7200 0.5823 0.2577
H4 H 0.6914 0.5069 0.0980
H5 H 0.6346 0.4915 0.1706
H6 H 0.7605 0.4828 -0.0570
H7 H 0.8015 0.3116 0.0492
H8 H 0.6850 0.3271 0.1790
H9 H 0.6472 0.4305 0.3526
H10 H 1.1365 0.5163 0.4327
H11 H 1.1203 0.6729 0.3037
H12 H 0.9543 0.6624 0.1652
H13 H 0.7731 0.6710 -0.0330
H14 H 0.7030 0.5860 0.0325
H15 H 0.9192 0.3030 0.1660
H16 H 1.0230 0.3559 0.1958
H17 H 0.8178 0.4900 0.4196
H18 H 0.9483 0.4513 0.4324
H19 H 0.7799 0.6791 0.2540
H20 H 0.9036 0.7227 0.2619
H21 H 0.8936 0.7670 0.1443
H22 H 0.7476 0.7502 0.1398
H23 H 0.9721 0.5736 0.0736
H24 H 0.9082 0.5728 -0.0073
H25 H 0.7338 0.4134 -0.1590
H26 H 0.6047 0.3748 -0.1846
H27 H 0.6076 0.4358 -0.1355
H28 H 0.7901 0.2684 -0.0581
H29 H 0.7162 0.2727 -0.1374
H30 H 0.8450 0.3116 -0.1119
H31 H 0.5132 0.3662 -0.0523
H32 H 0.5156 0.3059 -0.1016
H33 H 0.5837 0.3023 -0.0213
H34 H 0.4425 0.4384 0.1809
H35 H 0.4661 0.3755 0.1396
H36 H 0.3386 0.3830 0.1680
H37 H 0.3802 0.2795 0.2253
H38 H 0.5108 0.2722 0.2000
H39 H 0.5087 0.2657 0.2806
H40 H 0.4415 0.4256 0.3141
H41 H 0.3394 0.3702 0.2921
H42 H 0.4674 0.3562 0.3476
H43 H 1.3253 0.5450 0.4882
H44 H 1.3602 0.5099 0.4226
H45 H 1.4570 0.5598 0.4665
H46 H 1.4110 0.6794 0.4605
H47 H 1.2840 0.7071 0.4130
H48 H 1.2780 0.6686 0.4823
H49 H 1.4605 0.6214 0.3551
H50 H 1.3601 0.5738 0.3100
H51 H 1.3331 0.6488 0.3076
H61 H 0.7710 0.8542 0.0838
H62 H 0.7449 0.8876 0.0092
H63 H 0.6466 0.8365 0.0271
H64 H 0.9920 0.8200 0.0630
H65 H 0.9995 0.7825 -0.0067
H66 H 0.9558 0.8555 -0.0103
H67 H 0.7592 0.8253 -0.0972
H68 H 0.7957 0.7513 -0.0924
H69 H 0.6616 0.7740 -0.0789
C41? C 1.3688(8) 0.5489(5) 0.3728(7)
C42? C 1.3307(9) 0.6111(7) 0.4793(4)
C43? C 1.3484(7) 0.6695(5) 0.3678(5)
H52? H 1.3413 0.5081 0.3921
H53? H 1.3486 0.5460 0.3226
H54? H 1.4615 0.5519 0.3819
H55? H 1.3000 0.5752 0.5007
H56? H 1.4187 0.6199 0.4980
H57? H 1.2813 0.6506 0.4923
H58? H 1.4387 0.6771 0.3856
H59? H 1.3323 0.6673 0.3165
H60? H 1.3010 0.7075 0.3798
loop_
_geom_bond_atom_site_label_1
_geom_bond_atom_site_label_2
_geom_bond_site_symmetry_1
_geom_bond_site_symmetry_2
O1 C1 1_555 1_555
O2 C8 1_555 1_555
O3 C15 1_555 1_555
N1 N2 1_555 1_555
N2 H4 1_555 1_555
C1 C2 1_555 1_555
C2 C3 1_555 1_555
C3 C4 1_555 1_555
C4 C5 1_555 1_555
C5 C6 1_555 1_555
C6 C1 1_555 1_555
C7 C6 1_555 1_555
C8 C9 1_555 1_555
C9 C7 1_555 1_555
C10 C9 1_555 1_555
C11 C10 1_555 1_555
C12 C11 1_555 1_555
C13 C8 1_555 1_555
C14 C13 1_555 1_555
C15 C16 1_555 1_555
C16 C14 1_555 1_555
C17 C16 1_555 1_555
C18 C17 1_555 1_555
C19 C18 1_555 1_555
C20 C15 1_555 1_555
C21 C20 1_555 1_555
C22 N1 1_555 1_555
C23 C21 1_555 1_555
C24 C23 1_555 1_555
C25 C24 1_555 1_555
C26 C25 1_555 1_555
C27 C22 1_555 1_555
C28 C2 1_555 1_555
C29 C4 1_555 1_555
C30 C29 1_555 1_555
C31 C29 1_555 1_555
C32 C29 1_555 1_555
C33 C11 1_555 1_555
C34 C33 1_555 1_555
C35 C33 1_555 1_555
C36 C33 1_555 1_555
C37 C18 1_555 1_555
C38 C37 1_555 1_555
C39 C37 1_555 1_555
C40 C37 1_555 1_555
C44 C25 1_555 1_555
C45 C44 1_555 1_555
C46 C44 1_555 1_555
C47 C44 1_555 1_555
H1 O1 1_555 1_555
H2 O2 1_555 1_555
H3 O3 1_555 1_555
H5 N2 1_555 1_555
H6 C3 1_555 1_555
H7 C5 1_555 1_555
H8 C10 1_555 1_555
H9 C12 1_555 1_555
H10 C17 1_555 1_555
H11 C19 1_555 1_555
H12 C23 1_555 1_555
H13 C26 1_555 1_555
H14 C27 1_555 1_555
H15 C7 1_555 1_555
H16 C7 1_555 1_555
H17 C14 1_555 1_555
H18 C14 1_555 1_555
H19 C21 1_555 1_555
H20 C21 1_555 1_555
H21 C24 1_555 1_555
H22 C24 1_555 1_555
H23 C28 1_555 1_555
H24 C28 1_555 1_555
H25 C30 1_555 1_555
H26 C30 1_555 1_555
H27 C30 1_555 1_555
H28 C31 1_555 1_555
H29 C31 1_555 1_555
H30 C31 1_555 1_555
H31 C32 1_555 1_555
H32 C32 1_555 1_555
H33 C32 1_555 1_555
H34 C34 1_555 1_555
H35 C34 1_555 1_555
H36 C34 1_555 1_555
H37 C35 1_555 1_555
H38 C35 1_555 1_555
H39 C35 1_555 1_555
H40 C36 1_555 1_555
H41 C36 1_555 1_555
H42 C36 1_555 1_555
H43 C38 1_555 1_555
H44 C38 1_555 1_555
H45 C38 1_555 1_555
H46 C39 1_555 1_555
H47 C39 1_555 1_555
H48 C39 1_555 1_555
H49 C40 1_555 1_555
H50 C40 1_555 1_555
H51 C40 1_555 1_555
H61 C45 1_555 1_555
H62 C45 1_555 1_555
H63 C45 1_555 1_555
H64 C46 1_555 1_555
H65 C46 1_555 1_555
H66 C46 1_555 1_555
H67 C47 1_555 1_555
H68 C47 1_555 1_555
H69 C47 1_555 1_555
C12 C13 1_555 1_555
C19 C20 1_555 1_555
C22 C23 1_555 1_555
C26 C27 1_555 1_555
C27 C28 1_555 1_555

#END
