
#######################################################################
#
#                 Cambridge Crystallographic Data Centre
#                                CCDC 
#
#######################################################################
#
# If this CIF has been generated from an entry in the Cambridge 
# Structural Database, then it will include bibliographic, chemical, 
# crystal, experimental, refinement or atomic coordinate data resulting 
# from the CCDC's data processing and validation procedures.
#
#######################################################################

data_EBACUH
_chemical_formula_moiety         'C38 H42 Br1 N1 O3'
_chemical_name_systematic        
(3-(Benzyloxy)-13-methyl-3',3a',5',6,6',7,7',7a',8,9,11,12,13,14,15,16-hexadecahydro-4'H-spiro[cyclopenta[a]phenanthrene-17,2'-furo[3,2-b]pyridin]-4'-yl)(4-bromophenyl)methanone
_symmetry_cell_setting           orthorhombic
_symmetry_space_group_name_H-M   'P 21 21 21'
_symmetry_Int_Tables_number      19
_space_group_name_Hall           'P 2ac 2ab'
loop_
_symmetry_equiv_pos_site_id
_symmetry_equiv_pos_as_xyz
1 x,y,z
2 1/2+x,1/2-y,-z
3 -x,1/2+y,1/2-z
4 1/2-x,-y,1/2+z
_cell_length_a                   9.3890(5)
_cell_length_b                   15.1811(7)
_cell_length_c                   44.0140(19)
_cell_angle_alpha                90
_cell_angle_beta                 90
_cell_angle_gamma                90
_cell_volume                     6273.55
_cell_formula_units_Z            8
loop_
_atom_site_label
_atom_site_type_symbol
_atom_site_fract_x
_atom_site_fract_y
_atom_site_fract_z
C1 C 0.3506(3) 0.5346(2) 0.45738(8)
C2 C 0.2884(4) 0.4597(2) 0.44505(8)
H1 H 0.2661 0.4119 0.4574
C3 C 0.2599(3) 0.4570(2) 0.41439(8)
H2 H 0.2174 0.4068 0.4064
C4 C 0.2925(3) 0.5263(2) 0.39497(7)
C5 C 0.2696(3) 0.5181(2) 0.36058(7)
H3 H 0.3479 0.4816 0.3529
C6 C 0.1313(3) 0.4706(2) 0.35163(7)
H4 H 0.0506 0.5041 0.3590
H5 H 0.1290 0.4132 0.3613
C7 C 0.1177(4) 0.4589(2) 0.31705(7)
H6 H 0.1889 0.4170 0.3102
H7 H 0.0246 0.4347 0.3124
C8 C 0.1369(3) 0.5456(2) 0.29987(7)
C9 C 0.1629(3) 0.5406(2) 0.26507(7)
C10 C 0.2610(3) 0.4649(2) 0.25499(7)
H8 H 0.3196 0.4822 0.2378
H9 H 0.3224 0.4460 0.2715
C11 C 0.1569(3) 0.3925(2) 0.24611(7)
H10 H 0.1194 0.3661 0.2648
C12 C 0.0367(4) 0.4453(2) 0.23109(7)
H11 H -0.0534 0.4134 0.2334
C13 C 0.0627(4) 0.4643(2) 0.19785(8)
H12 H 0.1407 0.5058 0.1958
H13 H -0.0217 0.4906 0.1890
C14 C 0.0988(5) 0.3792(3) 0.18118(8)
H14 H 0.0199 0.3383 0.1829
H15 H 0.1137 0.3916 0.1598
C15 C 0.2319(4) 0.3380(2) 0.19445(7)
H16 H 0.2515 0.2828 0.1841
H17 H 0.3123 0.3769 0.1912
C16 C 0.2243(4) 0.6326(2) 0.25792(8)
H18 H 0.2939 0.6288 0.2417
H19 H 0.1489 0.6723 0.2516
C17 C 0.2950(4) 0.6661(2) 0.28734(7)
H20 H 0.3950 0.6789 0.2840
H21 H 0.2481 0.7190 0.2946
C18 C 0.2768(3) 0.5900(2) 0.31003(7)
H22 H 0.3533 0.5479 0.3057
C19 C 0.2815(3) 0.6075(2) 0.34409(7)
H23 H 0.1979 0.6429 0.3495
C20 C 0.4138(4) 0.6562(2) 0.35486(8)
H24 H 0.4972 0.6195 0.3519
H25 H 0.4261 0.7097 0.3431
C21 C 0.3982(4) 0.6790(2) 0.38813(8)
H26 H 0.3269 0.7248 0.3903
H27 H 0.4879 0.7024 0.3955
C22 C 0.3558(3) 0.6011(2) 0.40760(8)
C23 C 0.3834(3) 0.6046(2) 0.43869(8)
H28 H 0.4246 0.6549 0.4470
C24 C 0.4481(4) 0.6054(2) 0.50070(9)
H29 H 0.3907 0.6577 0.4975
H30 H 0.5385 0.6139 0.4905
C25 C 0.4735(4) 0.5925(2) 0.53426(8)
C26 C 0.4044(5) 0.5306(3) 0.55134(10)
H31 H 0.3384 0.4935 0.5422
C27 C 0.4316(6) 0.5224(3) 0.58191(10)
H32 H 0.3833 0.4803 0.5933
C28 C 0.5295(5) 0.5761(3) 0.59575(9)
H33 H 0.5485 0.5700 0.6164
C29 C 0.5984(5) 0.6380(3) 0.57912(9)
H34 H 0.6641 0.6750 0.5884
C30 C 0.5713(4) 0.6462(3) 0.54846(9)
H35 H 0.6197 0.6886 0.5372
C31 C 0.2747(3) 0.2482(2) 0.23909(7)
C32 C 0.2742(3) 0.23939(19) 0.27310(7)
C33 C 0.1743(3) 0.19068(19) 0.28871(7)
H36 H 0.1006 0.1634 0.2782
C34 C 0.1827(4) 0.1820(2) 0.32003(7)
H37 H 0.1164 0.1481 0.3305
C35 C 0.2910(4) 0.2244(2) 0.33536(7)
C36 C 0.3940(4) 0.2716(2) 0.32012(8)
H38 H 0.4680 0.2983 0.3308
C37 C 0.3862(3) 0.2789(2) 0.28904(7)
H39 H 0.4556 0.3103 0.2786
C38 C 0.0062(3) 0.6052(2) 0.30549(8)
H40 H -0.0129 0.6083 0.3269
H41 H -0.0751 0.5812 0.2952
H42 H 0.0253 0.6633 0.2979
N1 N 0.2148(3) 0.32160(16) 0.22708(5)
O1 O 0.0310(2) 0.52539(15) 0.24825(5)
O2 O 0.3780(3) 0.53182(17) 0.48831(5)
O3 O 0.3291(3) 0.19144(14) 0.22340(5)
Br1 Br 0.30160(5) 0.21476(3) 0.378238(8)
C39 C 0.6921(3) 0.4145(2) 0.28145(7)
C40 C 0.6746(3) 0.4862(2) 0.30059(7)
H43 H 0.6464 0.5405 0.2929
C41 C 0.6996(4) 0.4757(2) 0.33124(7)
H44 H 0.6885 0.5241 0.3440
C42 C 0.7411(3) 0.3949(2) 0.34400(7)
C43 C 0.7703(3) 0.38828(19) 0.37801(7)
H45 H 0.8636 0.4154 0.3815
C44 C 0.6636(3) 0.4391(2) 0.39781(7)
H46 H 0.5695 0.4136 0.3954
H47 H 0.6593 0.4999 0.3911
C45 C 0.7071(4) 0.43582(19) 0.43149(6)
H48 H 0.7948 0.4687 0.4342
H49 H 0.6339 0.4641 0.4436
C46 C 0.7289(3) 0.34190(19) 0.44294(7)
C47 C 0.8050(4) 0.3289(2) 0.47396(7)
C48 C 0.9233(4) 0.3949(2) 0.48076(8)
H50 H 0.9647 0.4178 0.4622
H51 H 0.9977 0.3685 0.4930
C49 C 0.8449(3) 0.4670(2) 0.49830(7)
H52 H 0.7888 0.5010 0.4836
C50 C 0.7407(4) 0.4128(2) 0.51754(7)
H53 H 0.6548 0.4477 0.5214
C51 C 0.8025(4) 0.3817(2) 0.54750(7)
H54 H 0.8706 0.3349 0.5438
H55 H 0.7269 0.3582 0.5601
C52 C 0.8757(5) 0.4569(3) 0.56403(8)
H56 H 0.8056 0.5013 0.5694
H57 H 0.9178 0.4350 0.5827
C53 C 0.9905(4) 0.4984(3) 0.54456(9)
H58 H 1.0324 0.5478 0.5553
H59 H 1.0650 0.4556 0.5407
C54 C 0.8555(4) 0.2318(2) 0.47227(8)
H60 H 0.9484 0.2256 0.4817
H61 H 0.7888 0.1937 0.4828
C55 C 0.8632(4) 0.2072(2) 0.43818(7)
H62 H 0.9568 0.1848 0.4330
H63 H 0.7923 0.1631 0.4331
C56 C 0.8330(3) 0.2936(2) 0.42169(7)
H64 H 0.9220 0.3274 0.4219
C57 C 0.7825(3) 0.29178(19) 0.38875(6)
H65 H 0.6872 0.2654 0.3883
C58 C 0.8777(4) 0.2403(2) 0.36710(7)
H66 H 0.8931 0.1814 0.3749
H67 H 0.9695 0.2692 0.3654
C59 C 0.8072(4) 0.2352(2) 0.33595(7)
H68 H 0.8733 0.2088 0.3217
H69 H 0.7243 0.1973 0.3372
C60 C 0.7620(3) 0.3245(2) 0.32411(7)
C61 C 0.7383(3) 0.3350(2) 0.29340(7)
H70 H 0.7536 0.2876 0.2804
C62 C 0.6436(4) 0.4983(2) 0.23650(7)
H71 H 0.7296 0.5335 0.2382
H72 H 0.5663 0.5299 0.2463
C63 C 0.6092(4) 0.4826(2) 0.20367(7)
C64 C 0.5175(4) 0.5379(2) 0.18828(8)
H73 H 0.4767 0.5853 0.1985
C65 C 0.4854(5) 0.5242(3) 0.15811(9)
H74 H 0.4231 0.5622 0.1482
C66 C 0.5450(6) 0.4544(3) 0.14254(9)
H75 H 0.5221 0.4444 0.1223
C67 C 0.6389(5) 0.3997(3) 0.15752(9)
H76 H 0.6813 0.3533 0.1471
C68 C 0.6712(5) 0.4127(2) 0.18789(8)
H77 H 0.7342 0.3750 0.1977
C69 C 0.9470(4) 0.6147(2) 0.50766(9)
C70 C 0.9045(4) 0.6397(2) 0.47595(8)
C71 C 0.7927(4) 0.69667(19) 0.47037(7)
H78 H 0.7393 0.7183 0.4865
C72 C 0.7592(3) 0.7219(2) 0.44100(7)
H79 H 0.6831 0.7596 0.4373
C73 C 0.8408(4) 0.6901(2) 0.41733(7)
C74 C 0.9548(4) 0.6355(2) 0.42231(9)
H80 H 1.0101 0.6160 0.4061
C75 C 0.9862(4) 0.6099(2) 0.45149(9)
H81 H 1.0627 0.5723 0.4550
C76 C 0.5831(3) 0.2952(2) 0.44447(8)
H82 H 0.5238 0.3242 0.4592
H83 H 0.5966 0.2349 0.4503
H84 H 0.5383 0.2975 0.4249
N2 N 0.9316(3) 0.52910(19) 0.51562(6)
O4 O 0.7047(2) 0.33897(14) 0.49900(5)
O5 O 0.6637(3) 0.41486(14) 0.25071(5)
O6 O 0.9969(4) 0.67061(18) 0.52488(7)
Br2 Br 0.79689(5) 0.72335(3) 0.376838(8)
loop_
_geom_bond_atom_site_label_1
_geom_bond_atom_site_label_2
_geom_bond_site_symmetry_1
_geom_bond_site_symmetry_2
C1 C2 1_555 1_555
C2 H1 1_555 1_555
C3 C2 1_555 1_555
H2 C3 1_555 1_555
C4 C3 1_555 1_555
C5 C4 1_555 1_555
H3 C5 1_555 1_555
C6 C5 1_555 1_555
H4 C6 1_555 1_555
H5 C6 1_555 1_555
C7 C6 1_555 1_555
H6 C7 1_555 1_555
H7 C7 1_555 1_555
C8 C7 1_555 1_555
C9 C8 1_555 1_555
C10 C9 1_555 1_555
H8 C10 1_555 1_555
H9 C10 1_555 1_555
C11 C10 1_555 1_555
H10 C11 1_555 1_555
C12 C11 1_555 1_555
H11 C12 1_555 1_555
C13 C12 1_555 1_555
H12 C13 1_555 1_555
H13 C13 1_555 1_555
C14 C13 1_555 1_555
H14 C14 1_555 1_555
H15 C14 1_555 1_555
C15 C14 1_555 1_555
H16 C15 1_555 1_555
H17 C15 1_555 1_555
C16 C9 1_555 1_555
H18 C16 1_555 1_555
H19 C16 1_555 1_555
C17 C16 1_555 1_555
H20 C17 1_555 1_555
H21 C17 1_555 1_555
C18 C8 1_555 1_555
H22 C18 1_555 1_555
C19 C5 1_555 1_555
H23 C19 1_555 1_555
C20 C19 1_555 1_555
H24 C20 1_555 1_555
H25 C20 1_555 1_555
C21 C20 1_555 1_555
H26 C21 1_555 1_555
H27 C21 1_555 1_555
C22 C4 1_555 1_555
C23 C1 1_555 1_555
H28 C23 1_555 1_555
C24 H29 1_555 1_555
H30 C24 1_555 1_555
C25 C24 1_555 1_555
C26 C25 1_555 1_555
H31 C26 1_555 1_555
C27 C26 1_555 1_555
H32 C27 1_555 1_555
C28 C27 1_555 1_555
H33 C28 1_555 1_555
C29 C28 1_555 1_555
H34 C29 1_555 1_555
C30 C25 1_555 1_555
H35 C30 1_555 1_555
C31 C32 1_555 1_555
C32 C33 1_555 1_555
C33 H36 1_555 1_555
C34 C33 1_555 1_555
H37 C34 1_555 1_555
C35 C34 1_555 1_555
C36 C35 1_555 1_555
H38 C36 1_555 1_555
C37 C32 1_555 1_555
H39 C37 1_555 1_555
C38 C8 1_555 1_555
H40 C38 1_555 1_555
H41 C38 1_555 1_555
H42 C38 1_555 1_555
N1 C11 1_555 1_555
O1 C9 1_555 1_555
O2 C1 1_555 1_555
O3 C31 1_555 1_555
Br1 C35 1_555 1_555
C39 C40 1_555 1_555
C40 H43 1_555 1_555
C41 C40 1_555 1_555
H44 C41 1_555 1_555
C42 C41 1_555 1_555
C43 C42 1_555 1_555
H45 C43 1_555 1_555
C44 C43 1_555 1_555
H46 C44 1_555 1_555
H47 C44 1_555 1_555
C45 C44 1_555 1_555
H48 C45 1_555 1_555
H49 C45 1_555 1_555
C46 C45 1_555 1_555
C47 C46 1_555 1_555
C48 C47 1_555 1_555
H50 C48 1_555 1_555
H51 C48 1_555 1_555
C49 C48 1_555 1_555
H52 C49 1_555 1_555
C50 C49 1_555 1_555
H53 C50 1_555 1_555
C51 C50 1_555 1_555
H54 C51 1_555 1_555
H55 C51 1_555 1_555
C52 C51 1_555 1_555
H56 C52 1_555 1_555
H57 C52 1_555 1_555
C53 C52 1_555 1_555
H58 C53 1_555 1_555
H59 C53 1_555 1_555
C54 C47 1_555 1_555
H60 C54 1_555 1_555
H61 C54 1_555 1_555
C55 C54 1_555 1_555
H62 C55 1_555 1_555
H63 C55 1_555 1_555
C56 C46 1_555 1_555
H64 C56 1_555 1_555
C57 C43 1_555 1_555
H65 C57 1_555 1_555
C58 C57 1_555 1_555
H66 C58 1_555 1_555
H67 C58 1_555 1_555
C59 C58 1_555 1_555
H68 C59 1_555 1_555
H69 C59 1_555 1_555
C60 C42 1_555 1_555
C61 C39 1_555 1_555
H70 C61 1_555 1_555
C62 H71 1_555 1_555
H72 C62 1_555 1_555
C63 C62 1_555 1_555
C64 C63 1_555 1_555
H73 C64 1_555 1_555
C65 C64 1_555 1_555
H74 C65 1_555 1_555
C66 C65 1_555 1_555
H75 C66 1_555 1_555
C67 C66 1_555 1_555
H76 C67 1_555 1_555
C68 C63 1_555 1_555
H77 C68 1_555 1_555
C69 C70 1_555 1_555
C70 C71 1_555 1_555
C71 H78 1_555 1_555
C72 C71 1_555 1_555
H79 C72 1_555 1_555
C73 C72 1_555 1_555
C74 C73 1_555 1_555
H80 C74 1_555 1_555
C75 C70 1_555 1_555
H81 C75 1_555 1_555
C76 C46 1_555 1_555
H82 C76 1_555 1_555
H83 C76 1_555 1_555
H84 C76 1_555 1_555
N2 C49 1_555 1_555
O4 C47 1_555 1_555
O5 C39 1_555 1_555
O6 C69 1_555 1_555
Br2 C73 1_555 1_555
C12 O1 1_555 1_555
C15 N1 1_555 1_555
C17 C18 1_555 1_555
C18 C19 1_555 1_555
C21 C22 1_555 1_555
C22 C23 1_555 1_555
C24 O2 1_555 1_555
C29 C30 1_555 1_555
C31 N1 1_555 1_555
C36 C37 1_555 1_555
C50 O4 1_555 1_555
C53 N2 1_555 1_555
C55 C56 1_555 1_555
C56 C57 1_555 1_555
C59 C60 1_555 1_555
C60 C61 1_555 1_555
C62 O5 1_555 1_555
C67 C68 1_555 1_555
C69 N2 1_555 1_555
C74 C75 1_555 1_555

#END
