
#######################################################################
#
#                 Cambridge Crystallographic Data Centre
#                                CCDC 
#
#######################################################################
#
# If this CIF has been generated from an entry in the Cambridge 
# Structural Database, then it will include bibliographic, chemical, 
# crystal, experimental, refinement or atomic coordinate data resulting 
# from the CCDC's data processing and validation procedures.
#
#######################################################################

data_EBCPUR
_chemical_formula_moiety         'C10 H18 N2 O2'
_chemical_name_systematic        
N-(5-Ethoxy-bicyclo(2.1.0)pent-5-yl)-N,N'-dimethylurea
_symmetry_cell_setting           orthorhombic
_symmetry_space_group_name_H-M   'P b c a'
_symmetry_Int_Tables_number      61
_space_group_name_Hall           '-P 2ac 2ab'
loop_
_symmetry_equiv_pos_site_id
_symmetry_equiv_pos_as_xyz
1 x,y,z
2 1/2-x,-y,1/2+z
3 1/2+x,1/2-y,-z
4 -x,1/2+y,1/2-z
5 -x,-y,-z
6 1/2+x,y,1/2-z
7 1/2-x,1/2+y,z
8 x,1/2-y,1/2+z
_cell_length_a                   10.187(5)
_cell_length_b                   13.822(7)
_cell_length_c                   16.207(7)
_cell_angle_alpha                90
_cell_angle_beta                 90
_cell_angle_gamma                90
_cell_volume                     2282.02
_exptl_crystal_colour            colorless
_chemical_melting_point          151deg.C
_cell_formula_units_Z            8
loop_
_atom_site_label
_atom_site_type_symbol
_atom_site_fract_x
_atom_site_fract_y
_atom_site_fract_z
O1 O 0.20790 0.23550 0.42150
O2 O 0.42790 0.21700 0.25680
N1 N 0.20770 0.23420 0.27360
N2 N 0.29390 0.16230 0.15580
C1 C 0.29610 0.38020 0.35440
C2 C 0.29430 0.43700 0.27350
C3 C 0.14030 0.43760 0.27600
C4 C 0.14520 0.38250 0.35680
C5 C 0.21720 0.28910 0.34800
C6 C 0.31570 0.20450 0.23010
C7 C 0.40410 0.12550 0.10940
C8 C 0.16470 0.14740 0.12030
C9 C 0.31350 0.17030 0.43650
C10 C 0.28280 0.11190 0.51140
H1 H 0.36800 0.38100 0.39400
H2 H 0.09100 0.39000 0.40600
H3 H 0.33300 0.50900 0.28300
H4 H 0.33900 0.40400 0.22500
H5 H 0.09800 0.51000 0.27800
H6 H 0.10000 0.40300 0.22400
H7 H 0.11700 0.21800 0.25600
H8 H 0.32600 0.12500 0.38400
H9 H 0.38900 0.20900 0.44000
H10 H 0.41500 0.05400 0.11600
H11 H 0.38600 0.12400 0.05600
H12 H 0.47700 0.13900 0.12800
H13 H 0.11700 0.20600 0.12000
H14 H 0.17600 0.14800 0.06100
H15 H 0.11800 0.09900 0.14500
H16 H 0.28600 0.14700 0.55500
H17 H 0.20200 0.08800 0.50100
H18 H 0.35300 0.05900 0.52400
loop_
_geom_bond_atom_site_label_1
_geom_bond_atom_site_label_2
_geom_bond_site_symmetry_1
_geom_bond_site_symmetry_2
O1 C5 1_555 1_555
O2 C6 1_555 1_555
N1 C5 1_555 1_555
N2 C6 1_555 1_555
C1 C2 1_555 1_555
C2 C3 1_555 1_555
C3 C4 1_555 1_555
C4 C1 1_555 1_555
C5 C1 1_555 1_555
C6 N1 1_555 1_555
C7 N2 1_555 1_555
C8 N2 1_555 1_555
C9 O1 1_555 1_555
C10 C9 1_555 1_555
H1 C1 1_555 1_555
H2 C4 1_555 1_555
H3 C2 1_555 1_555
H4 C2 1_555 1_555
H5 C3 1_555 1_555
H6 C3 1_555 1_555
H7 N1 1_555 1_555
H8 C9 1_555 1_555
H9 C9 1_555 1_555
H10 C7 1_555 1_555
H11 C7 1_555 1_555
H12 C7 1_555 1_555
H13 C8 1_555 1_555
H14 C8 1_555 1_555
H15 C8 1_555 1_555
H16 C10 1_555 1_555
H17 C10 1_555 1_555
H18 C10 1_555 1_555
C4 C5 1_555 1_555

#END
