
#######################################################################
#
#                 Cambridge Crystallographic Data Centre
#                                CCDC 
#
#######################################################################
#
# If this CIF has been generated from an entry in the Cambridge 
# Structural Database, then it will include bibliographic, chemical, 
# crystal, experimental, refinement or atomic coordinate data resulting 
# from the CCDC's data processing and validation procedures.
#
#######################################################################

data_EBEQUA
_chemical_formula_moiety         'C16 H19 N3 O4 S1'
_chemical_name_systematic        
3-(1-(3-hydroxy-2-oxo-2,3-dihydro-1H-indol-3-yl)ethyl)-6-((methylsulfanyl)methyl)piperazine-2,5-dione
_symmetry_cell_setting           monoclinic
_symmetry_space_group_name_H-M   'P 21'
_symmetry_Int_Tables_number      4
_space_group_name_Hall           'P 2yb'
loop_
_symmetry_equiv_pos_site_id
_symmetry_equiv_pos_as_xyz
1 x,y,z
2 -x,1/2+y,-z
_cell_length_a                   8.1313(7)
_cell_length_b                   10.4430(9)
_cell_length_c                   10.2298(9)
_cell_angle_alpha                90
_cell_angle_beta                 106.583(2)
_cell_angle_gamma                90
_cell_volume                     832.535
_exptl_crystal_colour            colorless
_exptl_crystal_description       block
_cell_formula_units_Z            2
loop_
_atom_site_label
_atom_site_type_symbol
_atom_site_fract_x
_atom_site_fract_y
_atom_site_fract_z
S1 S 0.1581(3) 0.9185(3) 0.3943(2)
O1 O 0.5999(4) 1.0392(3) 0.2698(3)
O2 O 0.3478(5) 0.5841(3) 0.3591(3)
O3 O 0.3828(4) 0.8905(3) -0.1423(3)
O4 O 0.4769(3) 0.6389(3) -0.0168(3)
H1 H 0.4497 0.6063 -0.0928
N1 N 0.5360(5) 0.8999(3) 0.4145(3)
H2 H 0.5796 0.9533 0.4791
N2 N 0.3998(5) 0.7274(3) 0.2124(3)
H3 H 0.3416 0.6812 0.1455
N3 N 0.6534(4) 0.8810(3) -0.1696(3)
H4 H 0.6517 0.9494 -0.2169
C1 C 0.5263(5) 0.8455(4) -0.1155(4)
C2 C 0.5987(5) 0.7365(3) -0.0115(4)
C3 C 0.7569(5) 0.6994(4) -0.0512(4)
C4 C 0.8660(6) 0.5957(5) -0.0154(5)
H5 H 0.8444 0.5308 0.0398
C5 C 1.0118(6) 0.5908(6) -0.0649(6)
H6 H 1.0875 0.5222 -0.0425
C6 C 1.0406(6) 0.6876(7) -0.1460(6)
H7 H 1.1394 0.6850 -0.1746
C7 C 0.9293(7) 0.7881(6) -0.1866(6)
H8 H 0.9487 0.8514 -0.2444
C8 C 0.7880(5) 0.7919(4) -0.1385(4)
C9 C 0.6491(5) 0.7952(4) 0.1347(4)
H9 H 0.7188 0.8715 0.1334
C10 C 0.4883(5) 0.8385(4) 0.1765(4)
H10 H 0.4095 0.8817 0.0984
C11 C 0.5438(5) 0.9332(4) 0.2917(4)
C12 C 0.4635(6) 0.7852(4) 0.4537(4)
H11 H 0.5537 0.7426 0.5248
C13 C 0.3993(5) 0.6902(4) 0.3358(4)
C14 C 0.3162(7) 0.8177(5) 0.5145(5)
H12 H 0.3610 0.8627 0.6003
H13 H 0.2619 0.7394 0.5322
C15 C 0.0267(16) 0.9654(13) 0.4861(13)
H14 H -0.0601 1.0212 0.4319
H15 H 0.0919 1.0101 0.5662
H16 H -0.0266 0.8917 0.5126
C16 C 0.7579(6) 0.7029(5) 0.2401(4)
H17 H 0.7867 0.7421 0.3286
H18 H 0.8612 0.6829 0.2166
H19 H 0.6942 0.6257 0.2412
loop_
_geom_bond_atom_site_label_1
_geom_bond_atom_site_label_2
_geom_bond_site_symmetry_1
_geom_bond_site_symmetry_2
S1 C14 1_555 1_555
O1 C11 1_555 1_555
O2 C13 1_555 1_555
O3 C1 1_555 1_555
O4 H1 1_555 1_555
N1 H2 1_555 1_555
N2 H3 1_555 1_555
N3 H4 1_555 1_555
C1 N3 1_555 1_555
C2 O4 1_555 1_555
C3 C2 1_555 1_555
C4 C3 1_555 1_555
H5 C4 1_555 1_555
C5 C4 1_555 1_555
H6 C5 1_555 1_555
C6 C5 1_555 1_555
H7 C6 1_555 1_555
C7 C6 1_555 1_555
H8 C7 1_555 1_555
C8 N3 1_555 1_555
C9 C2 1_555 1_555
H9 C9 1_555 1_555
C10 N2 1_555 1_555
H10 C10 1_555 1_555
C11 N1 1_555 1_555
C12 N1 1_555 1_555
H11 C12 1_555 1_555
C13 N2 1_555 1_555
C14 C12 1_555 1_555
H12 C14 1_555 1_555
H13 C14 1_555 1_555
C15 S1 1_555 1_555
H14 C15 1_555 1_555
H15 C15 1_555 1_555
H16 C15 1_555 1_555
C16 C9 1_555 1_555
H17 C16 1_555 1_555
H18 C16 1_555 1_555
H19 C16 1_555 1_555
C1 C2 1_555 1_555
C3 C8 1_555 1_555
C7 C8 1_555 1_555
C9 C10 1_555 1_555
C10 C11 1_555 1_555
C12 C13 1_555 1_555

#END
