
#######################################################################
#
#                 Cambridge Crystallographic Data Centre
#                                CCDC 
#
#######################################################################
#
# If this CIF has been generated from an entry in the Cambridge 
# Structural Database, then it will include bibliographic, chemical, 
# crystal, experimental, refinement or atomic coordinate data resulting 
# from the CCDC's data processing and validation procedures.
#
#######################################################################

data_EBEQOU
_chemical_formula_moiety         'C15 H15 N3 O4'
_chemical_name_systematic        
3-(1-(3-hydroxy-2-oxo-2,3-dihydro-1H-indol-3-yl)ethyl)-6-methylenepiperazine-2,5-dione
_symmetry_cell_setting           orthorhombic
_symmetry_space_group_name_H-M   'P 21 21 21'
_symmetry_Int_Tables_number      19
_space_group_name_Hall           'P 2ac 2ab'
loop_
_symmetry_equiv_pos_site_id
_symmetry_equiv_pos_as_xyz
1 x,y,z
2 1/2+x,1/2-y,-z
3 -x,1/2+y,1/2-z
4 1/2-x,-y,1/2+z
_cell_length_a                   5.4435(2)
_cell_length_b                   12.2750(3)
_cell_length_c                   21.0221(6)
_cell_angle_alpha                90
_cell_angle_beta                 90
_cell_angle_gamma                90
_cell_volume                     1404.67
_exptl_crystal_colour            colorless
_exptl_crystal_description       column
_cell_formula_units_Z            4
loop_
_atom_site_label
_atom_site_type_symbol
_atom_site_fract_x
_atom_site_fract_y
_atom_site_fract_z
O1 O 0.74962(18) 0.34940(7) 0.53812(4)
O2 O 0.11668(17) 0.26720(7) 0.72723(4)
O3 O 0.33297(17) 0.56558(7) 0.75565(4)
O4 O 0.83090(16) 0.57143(7) 0.69981(4)
H1 H 0.8795 0.6195 0.7253
N1 N 0.4292(2) 0.25219(9) 0.57618(5)
H2 H 0.4257 0.2144 0.5406
N2 N 0.4148(2) 0.37262(9) 0.68617(5)
H3 H 0.4071 0.4129 0.7207
N3 N 0.3174(2) 0.73129(9) 0.70479(5)
H4 H 0.1874 0.7584 0.7240
C1 C 0.4056(2) 0.62954(10) 0.71489(6)
C2 C 0.6196(2) 0.60938(10) 0.66718(6)
C3 C 0.6444(2) 0.72114(10) 0.63700(6)
C4 C 0.8129(2) 0.76102(11) 0.59397(6)
H5 H 0.9390 0.7155 0.5776
C5 C 0.7944(3) 0.87002(12) 0.57489(7)
H6 H 0.9110 0.8993 0.5460
C6 C 0.6067(3) 0.93539(11) 0.59799(7)
H7 H 0.5959 1.0089 0.5842
C7 C 0.4339(3) 0.89574(11) 0.64092(7)
H8 H 0.3046 0.9404 0.6565
C8 C 0.4590(2) 0.78836(11) 0.65988(6)
C9 C 0.5593(2) 0.52279(10) 0.61570(6)
H9 H 0.6790 0.5345 0.5803
C10 C 0.5973(2) 0.40449(10) 0.63887(6)
H10 H 0.7630 0.4000 0.6592
C11 C 0.5993(3) 0.33169(10) 0.58037(6)
C12 C 0.2567(2) 0.22387(10) 0.62323(6)
C13 C 0.2590(2) 0.28955(10) 0.68289(6)
C14 C 0.0956(3) 0.14385(11) 0.61561(7)
H11 H 0.0937 0.1031 0.5772
H12 H -0.0179 0.1273 0.6486
C15 C 0.3038(2) 0.53904(11) 0.58719(6)
H13 H 0.2733 0.4829 0.5550
H14 H 0.2941 0.6112 0.5674
H15 H 0.1800 0.5335 0.6209
loop_
_geom_bond_atom_site_label_1
_geom_bond_atom_site_label_2
_geom_bond_site_symmetry_1
_geom_bond_site_symmetry_2
O1 C11 1_555 1_555
O2 C13 1_555 1_555
O3 C1 1_555 1_555
O4 H1 1_555 1_555
N1 H2 1_555 1_555
N2 H3 1_555 1_555
N3 H4 1_555 1_555
C1 N3 1_555 1_555
C2 O4 1_555 1_555
C3 C2 1_555 1_555
C4 C3 1_555 1_555
H5 C4 1_555 1_555
C5 C4 1_555 1_555
H6 C5 1_555 1_555
C6 C5 1_555 1_555
H7 C6 1_555 1_555
C7 C6 1_555 1_555
H8 C7 1_555 1_555
C8 N3 1_555 1_555
C9 C2 1_555 1_555
H9 C9 1_555 1_555
C10 N2 1_555 1_555
H10 C10 1_555 1_555
C11 N1 1_555 1_555
C12 N1 1_555 1_555
C13 N2 1_555 1_555
C14 C12 1_555 1_555
H11 C14 1_555 1_555
H12 C14 1_555 1_555
C15 C9 1_555 1_555
H13 C15 1_555 1_555
H14 C15 1_555 1_555
H15 C15 1_555 1_555
C1 C2 1_555 1_555
C3 C8 1_555 1_555
C7 C8 1_555 1_555
C9 C10 1_555 1_555
C10 C11 1_555 1_555
C12 C13 1_555 1_555

#END
