
#######################################################################
#
#                 Cambridge Crystallographic Data Centre
#                                CCDC 
#
#######################################################################
#
# If this CIF has been generated from an entry in the Cambridge 
# Structural Database, then it will include bibliographic, chemical, 
# crystal, experimental, refinement or atomic coordinate data resulting 
# from the CCDC's data processing and validation procedures.
#
#######################################################################

data_EBICOH
_chemical_compound_source        'Speranskia tuberculata'
_chemical_name_common            
rel-(3S*,3'R*)-(+)-3,3'-Dihydroxy-4,4'-dimethoxy-3,3'-bis(2-oxopropyl)-1,1'-dimethyl-5,5'-bipyridine-2,2',6,6'-(1H,1'H,3H,3'H)-tetrone
_chemical_formula_moiety         'C20 H24 N2 O10'
_chemical_name_systematic        'Speranculatine B'
_symmetry_cell_setting           triclinic
_symmetry_space_group_name_H-M   'P -1'
_symmetry_Int_Tables_number      2
_space_group_name_Hall           '-P 1'
loop_
_symmetry_equiv_pos_site_id
_symmetry_equiv_pos_as_xyz
1 x,y,z
2 -x,-y,-z
_cell_length_a                   9.451(4)
_cell_length_b                   15.195(4)
_cell_length_c                   7.608(4)
_cell_angle_alpha                93.99(4)
_cell_angle_beta                 98.83(4)
_cell_angle_gamma                101.20(3)
_cell_volume                     1053.48
_exptl_crystal_colour            colorless
_exptl_crystal_description       prisms
_chemical_melting_point          147-149deg.C
_cell_formula_units_Z            2
_exptl_crystal_recrystallization_method 'ethyl acetate'
loop_
_atom_site_label
_atom_site_type_symbol
_atom_site_fract_x
_atom_site_fract_y
_atom_site_fract_z
O1 O 0.1457(6) -0.0188(4) 0.9568(7)
O2 O 0.3878(6) 0.1161(4) 1.1186(7)
O3 O 0.4136(6) 0.2760(4) 0.9739(7)
O4 O 0.2835(6) 0.0715(4) 0.4448(7)
O5 O 0.0277(6) 0.1845(5) 0.7896(8)
O6 O 0.6626(6) 0.4273(4) 0.3127(8)
O7 O 0.6561(6) 0.2270(4) 0.2704(7)
O8 O 0.6831(6) 0.1816(4) 0.6381(8)
O9 O 0.2471(6) 0.2915(4) 0.4886(7)
O10 O 0.7790(7) 0.4097(4) 0.7344(8)
N1 N 0.2063(7) 0.0274(4) 0.6973(8)
N2 N 0.4527(7) 0.3584(4) 0.3954(8)
C1 C 0.2026(8) 0.0422(6) 0.877(1)
C2 C 0.2773(8) 0.1327(5) 0.979(1)
C3 C 0.3552(8) 0.1973(5) 0.867(1)
C4 C 0.3678(8) 0.1764(5) 0.700(1)
C5 C 0.2846(9) 0.0902(6) 0.605(1)
C6 C 0.165(1) 0.1708(5) 1.069(1)
C7 C 0.049(1) 0.2013(6) 0.951(1)
C8 C -0.045(1) 0.2531(7) 1.040(1)
C9 C 0.129(1) -0.0601(5) 0.603(1)
C10 C 0.483(1) 0.3576(6) 0.907(1)
C11 C 0.596(1) 0.3635(6) 0.378(1)
C12 C 0.6682(8) 0.2864(5) 0.432(1)
C13 C 0.5921(9) 0.2314(5) 0.562(1)
C14 C 0.4554(9) 0.2348(5) 0.586(1)
C15 C 0.378(1) 0.2930(5) 0.488(1)
C16 C 0.831(1) 0.3196(6) 0.496(1)
C17 C 0.872(1) 0.3878(6) 0.655(1)
C18 C 1.033(1) 0.4259(7) 0.719(1)
C19 C 0.374(1) 0.4252(6) 0.320(1)
C20 C 0.644(1) 0.1136(6) 0.755(1)
loop_
_geom_bond_atom_site_label_1
_geom_bond_atom_site_label_2
_geom_bond_site_symmetry_1
_geom_bond_site_symmetry_2
O1 C1 1_555 1_555
O2 C2 1_555 1_555
O3 C3 1_555 1_555
O4 C5 1_555 1_555
O5 C7 1_555 1_555
O6 C11 1_555 1_555
O7 C12 1_555 1_555
O8 C13 1_555 1_555
O9 C15 1_555 1_555
O10 C17 1_555 1_555
N1 C1 1_555 1_555
N2 C11 1_555 1_555
C1 C2 1_555 1_555
C2 C3 1_555 1_555
C3 C4 1_555 1_555
C4 C5 1_555 1_555
C5 N1 1_555 1_555
C6 C2 1_555 1_555
C7 C6 1_555 1_555
C8 C7 1_555 1_555
C9 N1 1_555 1_555
C10 O3 1_555 1_555
C11 C12 1_555 1_555
C12 C13 1_555 1_555
C13 C14 1_555 1_555
C14 C4 1_555 1_555
C15 N2 1_555 1_555
C16 C12 1_555 1_555
C17 C16 1_555 1_555
C18 C17 1_555 1_555
C19 N2 1_555 1_555
C20 O8 1_555 1_555
C14 C15 1_555 1_555

#END
