
#######################################################################
#
#                 Cambridge Crystallographic Data Centre
#                                CCDC 
#
#######################################################################
#
# If this CIF has been generated from an entry in the Cambridge 
# Structural Database, then it will include bibliographic, chemical, 
# crystal, experimental, refinement or atomic coordinate data resulting 
# from the CCDC's data processing and validation procedures.
#
#######################################################################

data_EBIZAT
_chemical_formula_moiety         'C18 H9 O1 P1 S2'
_chemical_name_systematic        
"11-ethynyl-11H-[1]benzothieno[2',3':4,5]phospholo[3,2-b][1]benzothiophene 11-oxide"
_symmetry_cell_setting           orthorhombic
_symmetry_space_group_name_H-M   'P n m a'
_symmetry_Int_Tables_number      62
_space_group_name_Hall           '-P 2ac 2n'
loop_
_symmetry_equiv_pos_site_id
_symmetry_equiv_pos_as_xyz
1 x,y,z
2 1/2-x,-y,1/2+z
3 1/2+x,1/2-y,1/2-z
4 -x,1/2+y,-z
5 -x,-y,-z
6 1/2+x,y,1/2-z
7 1/2-x,1/2+y,1/2+z
8 x,1/2-y,z
_cell_length_a                   8.1860(5)
_cell_length_b                   15.5270(8)
_cell_length_c                   11.5300(10)
_cell_angle_alpha                90
_cell_angle_beta                 90
_cell_angle_gamma                90
_cell_volume                     1465.51
_exptl_crystal_colour            yellow
_exptl_crystal_description       plate
_cell_formula_units_Z            4
loop_
_atom_site_label
_atom_site_type_symbol
_atom_site_fract_x
_atom_site_fract_y
_atom_site_fract_z
S1 S 0.5097(2) 0.12929(11) 0.72898(13)
P1 P 0.2044(3) 0.2500 0.48658(18)
C1 C 0.4065(7) 0.2036(4) 0.6464(5)
C2 C 0.3038(7) 0.1668(4) 0.5668(5)
C3 C 0.3044(7) 0.0746(4) 0.5701(5)
C4 C 0.4130(7) 0.0448(4) 0.6559(5)
C5 C 0.4368(8) -0.0413(4) 0.6750(6)
H1 H 0.5117 -0.0604 0.7325
C6 C 0.3496(8) -0.1001(4) 0.6090(6)
H2 H 0.3653 -0.1601 0.6206
C7 C 0.2389(8) -0.0714(4) 0.5257(6)
H3 H 0.1781 -0.1121 0.4819
C8 C 0.2166(8) 0.0149(4) 0.5061(5)
H4 H 0.1412 0.0336 0.4488
C9 C 0.2990(11) 0.2500 0.3506(7)
C10 C 0.3619(11) 0.2500 0.2583(7)
O1 O 0.0235(7) 0.2500 0.4801(5)
H5 H 0.4130 0.2500 0.1832
S1G S 0.5097(2) 0.37071(11) 0.72898(13)
C1G C 0.4065(7) 0.2964(4) 0.6464(5)
C2G C 0.3038(7) 0.3332(4) 0.5668(5)
C3G C 0.3044(7) 0.4254(4) 0.5701(5)
C4G C 0.4130(7) 0.4552(4) 0.6559(5)
C5G C 0.4368(8) 0.5413(4) 0.6750(6)
H1G H 0.5117 0.5604 0.7325
C6G C 0.3496(8) 0.6001(4) 0.6090(6)
H2G H 0.3653 0.6601 0.6206
C7G C 0.2389(8) 0.5714(4) 0.5257(6)
H3G H 0.1781 0.6121 0.4819
C8G C 0.2166(8) 0.4851(4) 0.5061(5)
H4G H 0.1412 0.4664 0.4488
loop_
_geom_bond_atom_site_label_1
_geom_bond_atom_site_label_2
_geom_bond_site_symmetry_1
_geom_bond_site_symmetry_2
S1 C1 1_555 1_555
P1 C2 1_555 1_555
C1 C2 1_555 1_555
C2 C3 1_555 1_555
C3 C4 1_555 1_555
C4 S1 1_555 1_555
C5 C4 1_555 1_555
H1 C5 1_555 1_555
C6 C5 1_555 1_555
H2 C6 1_555 1_555
C7 C6 1_555 1_555
H3 C7 1_555 1_555
C8 C3 1_555 1_555
H4 C8 1_555 1_555
C9 P1 1_555 1_555
C10 C9 1_555 1_555
O1 P1 1_555 1_555
H5 C10 1_555 1_555
S1G C1G 1_555 1_555
C1G C1 1_555 1_555
C2G P1 1_555 1_555
C3G C2G 1_555 1_555
C4G S1G 1_555 1_555
C5G C4G 1_555 1_555
H1G C5G 1_555 1_555
C6G C5G 1_555 1_555
H2G C6G 1_555 1_555
C7G C6G 1_555 1_555
H3G C7G 1_555 1_555
C8G C3G 1_555 1_555
H4G C8G 1_555 1_555
C7 C8 1_555 1_555
C1G C2G 1_555 1_555
C3G C4G 1_555 1_555
C7G C8G 1_555 1_555

#END
