
#######################################################################
#
#                 Cambridge Crystallographic Data Centre
#                                CCDC 
#
#######################################################################
#
# If this CIF has been generated from an entry in the Cambridge 
# Structural Database, then it will include bibliographic, chemical, 
# crystal, experimental, refinement or atomic coordinate data resulting 
# from the CCDC's data processing and validation procedures.
#
#######################################################################

data_EBOPET
_chemical_formula_moiety         'C13 H13 F1 O4'
_chemical_name_systematic        
'(2-(3-ethoxy-3-oxoprop-1-en-1-yl)-6-fluorophenyl)acetic acid'
_symmetry_cell_setting           monoclinic
_symmetry_space_group_name_H-M   'C 2/c'
_symmetry_Int_Tables_number      15
_space_group_name_Hall           '-C 2yn'
loop_
_symmetry_equiv_pos_site_id
_symmetry_equiv_pos_as_xyz
1 x,y,z
2 -x,y,1/2-z
3 1/2+x,1/2+y,z
4 1/2-x,1/2+y,1/2-z
5 -x,-y,-z
6 x,-y,1/2+z
7 1/2-x,1/2-y,-z
8 1/2+x,1/2-y,1/2+z
_cell_length_a                   23.265(3)
_cell_length_b                   9.8297(11)
_cell_length_c                   23.361(3)
_cell_angle_alpha                90
_cell_angle_beta                 115.035(3)
_cell_angle_gamma                90
_cell_volume                     4840.46
_exptl_crystal_colour            colorless
_exptl_crystal_description       Block
_cell_formula_units_Z            16
loop_
_atom_site_label
_atom_site_type_symbol
_atom_site_fract_x
_atom_site_fract_y
_atom_site_fract_z
O1 O 0.97510(5) 0.36231(11) 0.11739(5)
H1 H 0.9996 0.3003 0.1196
O2 O 0.66993(5) -0.01551(11) 0.06576(5)
O3 O 0.95894(7) 0.23621(14) 0.18751(7)
O4 O 0.72077(5) 0.08413(12) 0.01369(5)
F1 F 0.94445(5) 0.56890(11) 0.25967(5)
C1 C 0.94579(7) 0.33376(14) 0.15341(7)
C2 C 0.89394(7) 0.43414(15) 0.14581(7)
H2 H 0.9108 0.5255 0.1493
H3 H 0.8601 0.4243 0.1037
C3 C 0.86652(7) 0.41781(15) 0.19332(7)
C4 C 0.81416(7) 0.33299(14) 0.18408(7)
C5 C 0.78307(7) 0.25149(15) 0.12628(7)
H4 H 0.7889 0.2776 0.0908
C6 C 0.74709(7) 0.14252(16) 0.12136(7)
H5 H 0.7434 0.1113 0.1572
C7 C 0.71301(7) 0.06983(15) 0.06133(7)
C8 C 0.62924(8) -0.08584(17) 0.00816(7)
H6 H 0.6536 -0.1521 -0.0031
H7 H 0.6107 -0.0215 -0.0263
C9 C 0.57807(8) -0.15563(19) 0.02016(8)
H8 H 0.5969 -0.2204 0.0537
H9 H 0.5499 -0.2018 -0.0175
H10 H 0.5547 -0.0894 0.0319
C10 C 0.79127(7) 0.32957(15) 0.23066(7)
H11 H 0.7562 0.2758 0.2243
C11 C 0.81944(8) 0.40393(16) 0.28579(7)
H12 H 0.8034 0.3995 0.3161
C12 C 0.87176(8) 0.48534(18) 0.29601(8)
H13 H 0.8915 0.5355 0.333
C13 C 0.89327(7) 0.48916(16) 0.24970(8)
F2 F 0.94011(5) 0.22203(11) -0.11237(5)
O5 O 0.6529(5) -0.2872(18) -0.1205(12)
O6 O 0.94154(6) -0.16201(11) -0.12965(5)
O7 O 0.92029(6) -0.09678(11) -0.22832(5)
H14 H 0.9484 -0.1513 -0.2244
O8 O 0.69589(6) -0.32230(14) -0.18519(6)
C14 C 0.6107(4) -0.4151(10) -0.1379(4)
H15 H 0.6254 -0.4841 -0.1583
H16 H 0.6061 -0.4538 -0.1019
C15 C 0.69702(7) -0.26944(16) -0.13839(8)
C16 C 0.74243(7) -0.16392(16) -0.10107(8)
H17 H 0.7406 -0.1305 -0.0646
C17 C 0.78554(8) -0.11620(16) -0.11841(7)
H18 H 0.7871 -0.1551 -0.154
C18 C 0.83150(7) -0.00733(15) -0.08688(7)
C19 C 0.86681(7) 0.05354(15) -0.11616(7)
C20 C 0.86322(7) 0.01224(16) -0.17977(7)
H19 H 0.8683 0.0925 -0.2013
H20 H 0.8215 -0.0253 -0.205
C21 C 0.91306(7) -0.09163(14) -0.17552(7)
C22 C 0.83959(8) 0.03861(17) -0.02730(7)
H21 H 0.8171 -0.003 -0.0074
C23 C 0.88028(8) 0.14436(17) 0.00253(8)
H22 H 0.8848 0.1733 0.0421
C24 C 0.91442(8) 0.20750(17) -0.02599(8)
H23 H 0.9417 0.2794 -0.0065
C25 C 0.90658(7) 0.16003(16) -0.08423(8)
C26 C 0.55057(15) -0.3656(4) -0.13830(19)
H24 H 0.5175 -0.4298 -0.1605
H25 H 0.5338 -0.275 -0.1472
H26 H 0.567 -0.3824 -0.0937
C27? C 0.5524(2) -0.3463(4) -0.1825(3)
H27? H 0.5596 -0.3078 -0.2166
H28? H 0.5412 -0.2753 -0.1608
H29? H 0.5184 -0.4111 -0.1989
O9? O 0.6621(10) -0.318(3) -0.1029(11)
C28? C 0.6029(3) -0.3808(9) -0.1595(6)
H30? H 0.5933 -0.3313 -0.1984
H31? H 0.61 -0.4758 -0.1658
loop_
_geom_bond_atom_site_label_1
_geom_bond_atom_site_label_2
_geom_bond_site_symmetry_1
_geom_bond_site_symmetry_2
O1 H1 1_555 1_555
O2 C7 1_555 1_555
O3 C1 1_555 1_555
O4 C7 1_555 1_555
F1 C13 1_555 1_555
C1 O1 1_555 1_555
C2 C1 1_555 1_555
H2 C2 1_555 1_555
H3 C2 1_555 1_555
C3 C2 1_555 1_555
C4 C3 1_555 1_555
C5 C4 1_555 1_555
H4 C5 1_555 1_555
C6 C5 1_555 1_555
H5 C6 1_555 1_555
C7 C6 1_555 1_555
C8 O2 1_555 1_555
H6 C8 1_555 1_555
H7 C8 1_555 1_555
C9 C8 1_555 1_555
H8 C9 1_555 1_555
H9 C9 1_555 1_555
H10 C9 1_555 1_555
C10 C4 1_555 1_555
H11 C10 1_555 1_555
C11 C10 1_555 1_555
H12 C11 1_555 1_555
C12 C11 1_555 1_555
H13 C12 1_555 1_555
C13 C3 1_555 1_555
F2 C25 1_555 1_555
O5 C14 1_555 1_555
O6 C21 1_555 1_555
O7 H14 1_555 1_555
O8 C15 1_555 1_555
C14 H15 1_555 1_555
H16 C14 1_555 1_555
C15 O5 1_555 1_555
C16 C15 1_555 1_555
H17 C16 1_555 1_555
C17 C16 1_555 1_555
H18 C17 1_555 1_555
C18 C17 1_555 1_555
C19 C18 1_555 1_555
C20 C19 1_555 1_555
H19 C20 1_555 1_555
H20 C20 1_555 1_555
C21 O7 1_555 1_555
C22 C18 1_555 1_555
H21 C22 1_555 1_555
C23 C22 1_555 1_555
H22 C23 1_555 1_555
C24 C23 1_555 1_555
H23 C24 1_555 1_555
C25 C19 1_555 1_555
C26 C14 1_555 1_555
H24 C26 1_555 1_555
H25 C26 1_555 1_555
H26 C26 1_555 1_555
C12 C13 1_555 1_555
C20 C21 1_555 1_555
C24 C25 1_555 1_555

#END
