
#######################################################################
#
#                 Cambridge Crystallographic Data Centre
#                                CCDC 
#
#######################################################################
#
# If this CIF has been generated from an entry in the Cambridge 
# Structural Database, then it will include bibliographic, chemical, 
# crystal, experimental, refinement or atomic coordinate data resulting 
# from the CCDC's data processing and validation procedures.
#
#######################################################################

data_EBOPIU
_chemical_formula_moiety         'C12 H19 B1 Cl1 N1 O2'
_chemical_name_systematic        
2-Chloro-2-(triethylamino)-1,3,2-benzodioxaborole
_symmetry_cell_setting           orthorhombic
_symmetry_space_group_name_H-M   'P 21 21 21'
_symmetry_Int_Tables_number      19
_space_group_name_Hall           'P 2ac 2ab'
loop_
_symmetry_equiv_pos_site_id
_symmetry_equiv_pos_as_xyz
1 x,y,z
2 1/2-x,-y,1/2+z
3 -x,1/2+y,1/2-z
4 1/2+x,1/2-y,-z
_cell_length_a                   6.6037(3)
_cell_length_b                   13.3458(7)
_cell_length_c                   15.0557(7)
_cell_angle_alpha                90
_cell_angle_beta                 90
_cell_angle_gamma                90
_cell_volume                     1326.88
_exptl_crystal_colour            colorless
_exptl_crystal_description       block
_cell_formula_units_Z            4
_exptl_crystal_recrystallization_method chloroform
loop_
_atom_site_label
_atom_site_type_symbol
_atom_site_fract_x
_atom_site_fract_y
_atom_site_fract_z
N1 N 0.83294(13) 0.50656(6) 0.50442(5)
Cl1 Cl 0.98479(4) 0.395168(17) 0.359024(14)
B1 B 0.81644(16) 0.50057(7) 0.39564(6)
O1 O 0.60714(11) 0.48385(5) 0.36868(5)
O2 O 0.88053(10) 0.59513(5) 0.35699(4)
C1 C 0.55425(14) 0.56536(7) 0.31790(6)
C2 C 0.71681(14) 0.63111(7) 0.31087(6)
C3 C 0.70256(16) 0.72014(7) 0.26439(6)
H1 H 0.817(2) 0.7620(12) 0.2605(10)
C4 C 0.51448(18) 0.74230(7) 0.22520(6)
H2 H 0.497(2) 0.8025(11) 0.1943(10)
C5 C 0.35272(17) 0.67704(9) 0.23270(7)
H3 H 0.223(2) 0.6927(12) 0.2073(11)
C6 C 0.36934(15) 0.58574(8) 0.27945(7)
H4 H 0.260(3) 0.5448(12) 0.2844(12)
C7 C 0.67442(15) 0.58076(8) 0.53482(6)
H5 H 0.709(2) 0.6440(12) 0.5060(10)
H6 H 0.551(2) 0.5575(10) 0.5107(9)
C8 C 0.65925(19) 0.59506(10) 0.63508(7)
H7 H 0.573(3) 0.6505(13) 0.6475(12)
H8 H 0.594(3) 0.5376(13) 0.6645(11)
H9 H 0.785(3) 0.6135(13) 0.6641(11)
C9 C 0.7996(2) 0.40569(8) 0.54895(7)
H10 H 0.915(2) 0.3670(13) 0.5307(11)
H11 H 0.811(2) 0.4166(11) 0.6139(9)
C10 C 0.5999(3) 0.35500(11) 0.52991(9)
H12 H 0.583(3) 0.3424(16) 0.4665(14)
H13 H 0.483(3) 0.3946(15) 0.5480(13)
H14 H 0.601(3) 0.2942(15) 0.5635(13)
C11 C 1.04411(16) 0.53931(8) 0.53361(7)
H15 H 1.138(2) 0.5020(12) 0.5026(12)
H16 H 1.047(2) 0.5245(12) 0.5969(11)
C12 C 1.09934(19) 0.64899(9) 0.52084(8)
H17 H 1.095(3) 0.6666(13) 0.4582(12)
H18 H 1.232(3) 0.6588(15) 0.5468(12)
H19 H 1.011(3) 0.6903(13) 0.5534(11)
loop_
_geom_bond_atom_site_label_1
_geom_bond_atom_site_label_2
_geom_bond_site_symmetry_1
_geom_bond_site_symmetry_2
N1 B1 1_555 1_555
Cl1 B1 1_555 1_555
B1 O1 1_555 1_555
O1 C1 1_555 1_555
O2 B1 1_555 1_555
C1 C2 1_555 1_555
C2 O2 1_555 1_555
C3 C2 1_555 1_555
H1 C3 1_555 1_555
C4 C3 1_555 1_555
H2 C4 1_555 1_555
C5 C4 1_555 1_555
H3 C5 1_555 1_555
C6 C1 1_555 1_555
H4 C6 1_555 1_555
C7 N1 1_555 1_555
H5 C7 1_555 1_555
H6 C7 1_555 1_555
C8 C7 1_555 1_555
H7 C8 1_555 1_555
H8 C8 1_555 1_555
H9 C8 1_555 1_555
C9 N1 1_555 1_555
H10 C9 1_555 1_555
H11 C9 1_555 1_555
C10 C9 1_555 1_555
H12 C10 1_555 1_555
H13 C10 1_555 1_555
H14 C10 1_555 1_555
C11 N1 1_555 1_555
H15 C11 1_555 1_555
H16 C11 1_555 1_555
C12 C11 1_555 1_555
H17 C12 1_555 1_555
H18 C12 1_555 1_555
H19 C12 1_555 1_555
C5 C6 1_555 1_555

#END
