
#######################################################################
#
#                 Cambridge Crystallographic Data Centre
#                                CCDC 
#
#######################################################################
#
# If this CIF has been generated from an entry in the Cambridge 
# Structural Database, then it will include bibliographic, chemical, 
# crystal, experimental, refinement or atomic coordinate data resulting 
# from the CCDC's data processing and validation procedures.
#
#######################################################################

data_EBOREV
_chemical_formula_moiety         'C37 H33 N3 O1'
_chemical_name_systematic        
2-(((4-(2-(4-(9H-carbazol-9-yl)phenyl)vinyl)phenyl)imino)methyl)-5-(diethylamino)phenol
_chemical_properties_biological  
'cytotoxic effect against HeLa cells was tested, showed low cyctotoxicity.'
_symmetry_cell_setting           orthorhombic
_symmetry_space_group_name_H-M   'P n a 21'
_symmetry_Int_Tables_number      33
_space_group_name_Hall           'P 2c -2n'
loop_
_symmetry_equiv_pos_site_id
_symmetry_equiv_pos_as_xyz
1 x,y,z
2 -x,-y,1/2+z
3 1/2-x,1/2+y,1/2+z
4 1/2+x,1/2-y,z
_cell_length_a                   16.383(5)
_cell_length_b                   11.090(5)
_cell_length_c                   31.475(5)
_cell_angle_alpha                90
_cell_angle_beta                 90
_cell_angle_gamma                90
_cell_volume                     5718.61
_exptl_crystal_colour            yellow
_exptl_crystal_description       block
_cell_formula_units_Z            8
loop_
_atom_site_label
_atom_site_type_symbol
_atom_site_fract_x
_atom_site_fract_y
_atom_site_fract_z
C1 C 1.3268(3) 0.9042(7) 0.96326(15)
C2 C 1.2611(3) 0.9393(5) 0.93632(13)
C3 C 1.2339(3) 1.0561(5) 0.93327(15)
H1 H 1.1913 1.0772 0.9152
C4 C 1.2729(4) 1.1409(6) 0.95826(18)
H2 H 1.2547 1.2203 0.9572
C5 C 1.3359(5) 1.1142(10) 0.98411(19)
H3 H 1.3603 1.1751 1.0000
C6 C 1.3653(3) 0.9951(8) 0.98735(16)
H4 H 1.4091 0.9769 1.0050
C7 C 1.3365(3) 0.7763(7) 0.95910(15)
C8 C 1.2782(3) 0.7381(5) 0.92911(16)
C9 C 1.2696(3) 0.6168(6) 0.91799(18)
H5 H 1.2315 0.5918 0.8979
C10 C 1.3222(4) 0.5332(7) 0.9389(2)
H6 H 1.3189 0.4514 0.9327
C11 C 1.3797(4) 0.5756(9) 0.9693(2)
H7 H 1.4130 0.5202 0.9831
C12 C 1.3875(4) 0.6935(9) 0.97864(19)
H8 H 1.4267 0.7191 0.9980
C13 C 1.1609(2) 0.8303(4) 0.88973(14)
C14 C 1.0873(3) 0.8664(5) 0.90630(15)
H9 H 1.0844 0.8935 0.9342
C15 C 1.0173(3) 0.8626(6) 0.88169(19)
H10 H 0.9680 0.8882 0.8932
C16 C 1.0196(3) 0.8210(4) 0.83971(16)
C17 C 1.0941(3) 0.7839(4) 0.82436(14)
H11 H 1.0971 0.7545 0.7967
C18 C 1.1637(3) 0.7886(4) 0.84814(14)
H12 H 1.2130 0.7638 0.8365
C19 C 0.9457(3) 0.8175(6) 0.8133(2)
H13 H 0.9371 0.7495 0.7966
C20 C 0.8903(3) 0.9054(4) 0.81165(13)
H14 H 0.8994 0.9744 0.8278
C21 C 0.8146(2) 0.8997(3) 0.78555(12)
C22 C 0.7510(2) 0.9810(4) 0.79317(13)
H15 H 0.7575 1.0387 0.8143
C23 C 0.6791(3) 0.9788(4) 0.77049(12)
H16 H 0.6386 1.0353 0.7761
C24 C 0.6670(2) 0.8909(3) 0.73887(12)
C25 C 0.7313(3) 0.8112(4) 0.73081(13)
H17 H 0.7253 0.7536 0.7095
C26 C 0.8036(3) 0.8154(4) 0.75351(13)
H18 H 0.8452 0.7611 0.7472
C27 C 0.5339(2) 0.9459(4) 0.71671(13)
H19 H 0.5381 1.0157 0.7329
C28 C 0.4598(2) 0.9228(4) 0.69447(13)
C29 C 0.3939(3) 1.0031(5) 0.69594(16)
H20 H 0.3993 1.0732 0.7119
C30 C 0.3215(3) 0.9829(4) 0.67483(16)
H21 H 0.2788 1.0377 0.6772
C31 C 0.3126(3) 0.8777(4) 0.64943(14)
C32 C 0.3775(2) 0.7983(4) 0.64760(12)
H22 H 0.3719 0.7282 0.6317
C33 C 0.4505(2) 0.8189(4) 0.66847(13)
C34 C 0.1776(3) 0.9488(5) 0.62320(16)
H23 H 0.1711 0.9918 0.6498
H24 H 0.1258 0.9107 0.6165
C35 C 0.1986(3) 1.0371(6) 0.58872(18)
H25 H 0.2463 1.0819 0.5968
H26 H 0.1537 1.0915 0.5845
H27 H 0.2092 0.9943 0.5628
C36 C 0.2417(4) 0.7573(10) 0.5886(3)
H28 H 0.2047 0.7786 0.5658
H29 H 0.2961 0.7432 0.5776
C37 C 0.2150(4) 0.6692(10) 0.6117(3)
H30 H 0.2545 0.6507 0.6333
H31 H 0.2065 0.5996 0.5942
H32 H 0.1644 0.6921 0.6248
N1 N 1.2324(2) 0.8333(4) 0.91506(12)
N2 N 0.5946(2) 0.8740(3) 0.71513(10)
N3 N 0.2401(3) 0.8552(4) 0.62841(17)
O1 O 0.51183(18) 0.7430(3) 0.66321(11)
H33 H 0.5457 0.7534 0.6821
C38 C 0.4102(3) 0.1149(6) 0.54227(14)
C39 C 0.4723(3) 0.0770(5) 0.56976(13)
C40 C 0.4938(3) -0.0429(5) 0.57316(14)
H34 H 0.5343 -0.0674 0.5920
C41 C 0.4535(4) -0.1259(6) 0.54775(16)
H35 H 0.4678 -0.2070 0.5488
C42 C 0.3907(4) -0.0868(8) 0.52026(18)
H36 H 0.3633 -0.1437 0.5039
C43 C 0.3694(3) 0.0292(8) 0.51694(16)
H37 H 0.3284 0.0529 0.4983
C44 C 0.4039(2) 0.2432(6) 0.54690(15)
C45 C 0.4618(2) 0.2787(6) 0.57797(14)
C46 C 0.4727(3) 0.3981(5) 0.58893(16)
H38 H 0.5110 0.4207 0.6092
C47 C 0.4252(3) 0.4818(6) 0.56887(18)
H39 H 0.4317 0.5627 0.5758
C48 C 0.3680(4) 0.4509(8) 0.53875(19)
H40 H 0.3370 0.5109 0.5259
C49 C 0.3561(3) 0.3323(8) 0.52747(17)
H41 H 0.3171 0.3116 0.5073
C50 C 0.5751(2) 0.1744(4) 0.61722(12)
C51 C 0.6485(3) 0.1422(6) 0.59954(16)
H42 H 0.6509 0.1181 0.5713
C52 C 0.7187(3) 0.1454(7) 0.62355(18)
H43 H 0.7677 0.1212 0.6114
C53 C 0.7181(3) 0.1838(4) 0.66535(17)
C54 C 0.6439(3) 0.2128(4) 0.68247(14)
H44 H 0.6415 0.2362 0.7108
C55 C 0.5718(3) 0.2086(4) 0.65892(14)
H45 H 0.5222 0.2287 0.6714
C56 C 0.7940(4) 0.1898(6) 0.6925(2)
H46 H 0.8055 0.2592 0.7079
C57 C 0.8469(3) 0.0919(4) 0.69440(13)
H47 H 0.8346 0.0218 0.6795
C58 C 0.9221(2) 0.0982(4) 0.71991(12)
C59 C 0.9859(2) 0.0184(4) 0.71218(13)
H48 H 0.9796 -0.0393 0.6910
C60 C 1.0580(2) 0.0213(4) 0.73468(12)
H49 H 1.0990 -0.0341 0.7287
C61 C 1.0694(2) 0.1076(4) 0.76656(12)
C62 C 1.0072(2) 0.1877(4) 0.77458(12)
H50 H 1.0141 0.2462 0.7954
C63 C 0.9344(3) 0.1832(4) 0.75222(12)
H51 H 0.8930 0.2375 0.7588
C64 C 1.2044(2) 0.0527(4) 0.78862(14)
H52 H 1.2012 -0.0160 0.7718
C65 C 1.2772(2) 0.0749(4) 0.81173(13)
C66 C 1.3442(3) -0.0018(4) 0.80976(16)
H53 H 1.3404 -0.0707 0.7931
C67 C 1.4153(3) 0.0191(5) 0.83108(15)
H54 H 1.4571 -0.0374 0.8296
C68 C 1.4266(2) 0.1235(4) 0.85508(12)
C69 C 1.3598(2) 0.2048(4) 0.85725(12)
H55 H 1.3652 0.2759 0.8727
C70 C 1.2870(2) 0.1801(4) 0.83686(12)
C71 C 1.5604(3) 0.0543(5) 0.88046(15)
H56 H 1.6110 0.0915 0.8896
H57 H 1.5706 0.0147 0.8535
C72 C 1.5353(3) -0.0394(6) 0.91282(17)
H58 H 1.5279 -0.0015 0.9400
H59 H 1.5770 -0.0998 0.9150
H60 H 1.4850 -0.0762 0.9041
C73 C 1.5026(4) 0.2946(6) 0.9357(2)
H61 H 1.4449 0.2874 0.9405
H62 H 1.5207 0.3728 0.9448
H63 H 1.5308 0.2336 0.9516
C74 C 1.5198(4) 0.2798(6) 0.8907(2)
H64 H 1.5771 0.2964 0.8856
H65 H 1.4880 0.3378 0.8747
N4 N 0.5028(2) 0.1742(3) 0.59135(11)
N5 N 1.14232(19) 0.1249(3) 0.79022(10)
N6 N 1.4991(2) 0.1478(4) 0.87435(13)
O2 O 1.22447(16) 0.2584(3) 0.84208(11)
H66 H 1.1860 0.2378 0.8270
loop_
_geom_bond_atom_site_label_1
_geom_bond_atom_site_label_2
_geom_bond_site_symmetry_1
_geom_bond_site_symmetry_2
C1 C2 1_555 1_555
C2 C3 1_555 1_555
C3 H1 1_555 1_555
C4 C3 1_555 1_555
H2 C4 1_555 1_555
C5 C4 1_555 1_555
H3 C5 1_555 1_555
C6 C1 1_555 1_555
H4 C6 1_555 1_555
C7 C1 1_555 1_555
C8 C7 1_555 1_555
C9 C8 1_555 1_555
H5 C9 1_555 1_555
C10 C9 1_555 1_555
H6 C10 1_555 1_555
C11 C10 1_555 1_555
H7 C11 1_555 1_555
C12 C7 1_555 1_555
H8 C12 1_555 1_555
C13 C14 1_555 1_555
C14 H9 1_555 1_555
C15 C14 1_555 1_555
H10 C15 1_555 1_555
C16 C15 1_555 1_555
C17 C16 1_555 1_555
H11 C17 1_555 1_555
C18 C13 1_555 1_555
H12 C18 1_555 1_555
C19 C16 1_555 1_555
H13 C19 1_555 1_555
C20 C19 1_555 1_555
H14 C20 1_555 1_555
C21 C20 1_555 1_555
C22 C21 1_555 1_555
H15 C22 1_555 1_555
C23 C22 1_555 1_555
H16 C23 1_555 1_555
C24 C23 1_555 1_555
C25 C24 1_555 1_555
H17 C25 1_555 1_555
C26 C21 1_555 1_555
H18 C26 1_555 1_555
C27 H19 1_555 1_555
C28 C27 1_555 1_555
C29 C28 1_555 1_555
H20 C29 1_555 1_555
C30 C29 1_555 1_555
H21 C30 1_555 1_555
C31 C30 1_555 1_555
C32 C31 1_555 1_555
H22 C32 1_555 1_555
C33 C28 1_555 1_555
C34 H23 1_555 1_555
H24 C34 1_555 1_555
C35 C34 1_555 1_555
H25 C35 1_555 1_555
H26 C35 1_555 1_555
H27 C35 1_555 1_555
C36 H28 1_555 1_555
H29 C36 1_555 1_555
C37 C36 1_555 1_555
H30 C37 1_555 1_555
H31 C37 1_555 1_555
H32 C37 1_555 1_555
N1 C2 1_555 1_555
N2 C24 1_555 1_555
N3 C31 1_555 1_555
O1 C33 1_555 1_555
H33 O1 1_555 1_555
C38 C39 1_555 1_555
C39 C40 1_555 1_555
C40 H34 1_555 1_555
C41 C40 1_555 1_555
H35 C41 1_555 1_555
C42 C41 1_555 1_555
H36 C42 1_555 1_555
C43 C38 1_555 1_555
H37 C43 1_555 1_555
C44 C38 1_555 1_555
C45 C44 1_555 1_555
C46 C45 1_555 1_555
H38 C46 1_555 1_555
C47 C46 1_555 1_555
H39 C47 1_555 1_555
C48 C47 1_555 1_555
H40 C48 1_555 1_555
C49 C44 1_555 1_555
H41 C49 1_555 1_555
C50 C51 1_555 1_555
C51 H42 1_555 1_555
C52 C51 1_555 1_555
H43 C52 1_555 1_555
C53 C52 1_555 1_555
C54 C53 1_555 1_555
H44 C54 1_555 1_555
C55 C50 1_555 1_555
H45 C55 1_555 1_555
C56 C53 1_555 1_555
H46 C56 1_555 1_555
C57 C56 1_555 1_555
H47 C57 1_555 1_555
C58 C57 1_555 1_555
C59 C58 1_555 1_555
H48 C59 1_555 1_555
C60 C59 1_555 1_555
H49 C60 1_555 1_555
C61 C60 1_555 1_555
C62 C61 1_555 1_555
H50 C62 1_555 1_555
C63 C58 1_555 1_555
H51 C63 1_555 1_555
C64 H52 1_555 1_555
C65 C64 1_555 1_555
C66 C65 1_555 1_555
H53 C66 1_555 1_555
C67 C66 1_555 1_555
H54 C67 1_555 1_555
C68 C67 1_555 1_555
C69 C68 1_555 1_555
H55 C69 1_555 1_555
C70 C65 1_555 1_555
C71 H56 1_555 1_555
H57 C71 1_555 1_555
C72 C71 1_555 1_555
H58 C72 1_555 1_555
H59 C72 1_555 1_555
H60 C72 1_555 1_555
C73 H61 1_555 1_555
H62 C73 1_555 1_555
H63 C73 1_555 1_555
C74 C73 1_555 1_555
H64 C74 1_555 1_555
H65 C74 1_555 1_555
N4 C39 1_555 1_555
N5 C61 1_555 1_555
N6 C68 1_555 1_555
O2 C70 1_555 1_555
H66 O2 1_555 1_555
C5 C6 1_555 1_555
C8 N1 1_555 1_555
C11 C12 1_555 1_555
C13 N1 1_555 1_555
C17 C18 1_555 1_555
C25 C26 1_555 1_555
C27 N2 1_555 1_555
C32 C33 1_555 1_555
C34 N3 1_555 1_555
C36 N3 1_555 1_555
C42 C43 1_555 1_555
C45 N4 1_555 1_555
C48 C49 1_555 1_555
C50 N4 1_555 1_555
C54 C55 1_555 1_555
C62 C63 1_555 1_555
C64 N5 1_555 1_555
C69 C70 1_555 1_555
C71 N6 1_555 1_555
C74 N6 1_555 1_555

#END
