
#######################################################################
#
#                 Cambridge Crystallographic Data Centre
#                                CCDC 
#
#######################################################################
#
# If this CIF has been generated from an entry in the Cambridge 
# Structural Database, then it will include bibliographic, chemical, 
# crystal, experimental, refinement or atomic coordinate data resulting 
# from the CCDC's data processing and validation procedures.
#
#######################################################################

data_EBUPAV
_chemical_formula_moiety         'C30 H32 O6 Te2'
_chemical_name_systematic        
1,2,4,5,8,9-hexaethoxytelluropheno[2',3',4',5':4,5]triphenyleno[1,12-bcd]tellurophene
_symmetry_cell_setting           monoclinic
_symmetry_space_group_name_H-M   'P 21/n'
_symmetry_Int_Tables_number      14
_space_group_name_Hall           '-P 2yn'
loop_
_symmetry_equiv_pos_site_id
_symmetry_equiv_pos_as_xyz
1 x,y,z
2 1/2-x,1/2+y,1/2-z
3 -x,-y,-z
4 1/2+x,1/2-y,1/2+z
_cell_length_a                   8.3225(3)
_cell_length_b                   15.0760(6)
_cell_length_c                   23.2305(9)
_cell_angle_alpha                90
_cell_angle_beta                 95.20(4)
_cell_angle_gamma                90
_cell_volume                     2902.74
_exptl_crystal_colour            'pale yellow'
_exptl_crystal_description       prism
_chemical_melting_point          '400 K'
_cell_formula_units_Z            4
_chemical_properties_physical    ', Oxygen-sensitive'
_exptl_crystal_recrystallization_method dichloromethane
_exptl_crystal_preparation       ', Luminescent'
loop_
_atom_site_label
_atom_site_type_symbol
_atom_site_fract_x
_atom_site_fract_y
_atom_site_fract_z
C1 C 0.2716(7) -0.0069(5) 0.1330(3)
C2 C 0.1892(7) -0.0897(5) 0.1410(2)
C3 C 0.2465(8) -0.1665(5) 0.1186(3)
C4 C 0.3880(7) -0.1638(4) 0.0870(3)
C5 C 0.4736(7) -0.0860(4) 0.0795(2)
C6 C 0.4124(7) -0.0029(4) 0.1034(2)
C7 C 0.0545(7) -0.0912(5) 0.1723(3)
C8 C -0.0221(8) -0.1713(5) 0.1824(3)
C9 C 0.0387(8) -0.2512(5) 0.1599(3)
C10 C 0.1715(8) -0.2471(5) 0.1275(3)
C11 C 0.4402(8) -0.2461(4) 0.0663(3)
C12 C 0.5770(8) -0.2506(4) 0.0373(3)
C13 C 0.6655(7) -0.1722(5) 0.0300(3)
C14 C 0.6140(8) -0.0914(4) 0.0502(2)
H1 H 0.6729 -0.0403 0.0444
C15 C 0.4866(7) 0.0807(4) 0.1004(3)
H2 H 0.5814 0.0860 0.0823
C16 C 0.4204(8) 0.1551(4) 0.1240(3)
C17 C 0.2730(8) 0.1502(4) 0.1505(3)
C18 C 0.2031(7) 0.0680(4) 0.1558(3)
C19 C -0.2970(10) -0.2021(10) 0.1927(4)
H3 H -0.2842 -0.2578 0.1728
H4 H -0.3405 -0.1588 0.1646
C20 C -0.4073(12) -0.2138(8) 0.2366(4)
H5 H -0.5097 -0.2337 0.2189
H6 H -0.4211 -0.1583 0.2558
H7 H -0.3646 -0.2571 0.2641
C21 C 0.0111(10) -0.3682(5) 0.2249(3)
H8 H -0.0222 -0.3281 0.2542
H9 H 0.1270 -0.3764 0.2312
C22 C -0.0734(13) -0.4552(6) 0.2280(4)
H10 H -0.0475 -0.4811 0.2654
H11 H -0.0393 -0.4942 0.1988
H12 H -0.1878 -0.4462 0.2217
C23 C 0.7640(13) -0.3694(6) 0.0455(5)
H13 H 0.8548 -0.3292 0.0445
H14 H 0.7458 -0.3797 0.0856
C24 C 0.7986(19) -0.4509(8) 0.0185(9)
H15 H 0.8932 -0.4770 0.0384
H16 H 0.8170 -0.4402 -0.0211
H17 H 0.7088 -0.4906 0.0201
C25 C 0.9121(7) -0.1112(5) 0.0013(3)
H18 H 0.9431 -0.0912 0.0405
H19 H 0.8635 -0.0619 -0.0207
C26 C 1.0574(8) -0.1452(5) -0.0262(3)
H20 H 1.1354 -0.0984 -0.0274
H21 H 1.0250 -0.1648 -0.0649
H22 H 1.1043 -0.1938 -0.0040
C27 C 0.6407(8) 0.2485(5) 0.1022(3)
H23 H 0.6352 0.2291 0.0622
H24 H 0.7223 0.2137 0.1244
C28 C 0.6824(10) 0.3452(5) 0.1063(5)
H25 H 0.7851 0.3549 0.0916
H26 H 0.6876 0.3636 0.1460
H27 H 0.6012 0.3790 0.0840
C29 C 0.1789(9) 0.3011(5) 0.1427(4)
H28 H 0.0637 0.3109 0.1351
H29 H 0.2246 0.2955 0.1059
C30 C 0.2548(12) 0.3779(6) 0.1757(5)
H30 H 0.2357 0.4314 0.1537
H31 H 0.3689 0.3682 0.1828
H32 H 0.2086 0.3835 0.2119
O1 O -0.1438(6) -0.1726(4) 0.2183(2)
O2 O -0.0317(6) -0.3321(4) 0.1680(2)
O3 O 0.6221(6) -0.3306(3) 0.0153(2)
O4 O 0.8010(5) -0.1835(3) 0.0017(2)
O5 O 0.4880(6) 0.2372(3) 0.1245(2)
O6 O 0.2077(7) 0.2212(4) 0.1758(2)
Te1 Te -0.00068(5) 0.03768(3) 0.198952(18)
Te2 Te 0.29005(6) -0.35091(3) 0.087852(19)
loop_
_geom_bond_atom_site_label_1
_geom_bond_atom_site_label_2
_geom_bond_site_symmetry_1
_geom_bond_site_symmetry_2
C1 C2 1_555 1_555
C2 C3 1_555 1_555
C3 C4 1_555 1_555
C4 C5 1_555 1_555
C5 C6 1_555 1_555
C6 C1 1_555 1_555
C7 C2 1_555 1_555
C8 C7 1_555 1_555
C9 C8 1_555 1_555
C10 C3 1_555 1_555
C11 C4 1_555 1_555
C12 C11 1_555 1_555
C13 C12 1_555 1_555
C14 C5 1_555 1_555
H1 C14 1_555 1_555
C15 C6 1_555 1_555
H2 C15 1_555 1_555
C16 C15 1_555 1_555
C17 C16 1_555 1_555
C18 C1 1_555 1_555
C19 H3 1_555 1_555
H4 C19 1_555 1_555
C20 C19 1_555 1_555
H5 C20 1_555 1_555
H6 C20 1_555 1_555
H7 C20 1_555 1_555
C21 H8 1_555 1_555
H9 C21 1_555 1_555
C22 C21 1_555 1_555
H10 C22 1_555 1_555
H11 C22 1_555 1_555
H12 C22 1_555 1_555
C23 H13 1_555 1_555
H14 C23 1_555 1_555
C24 C23 1_555 1_555
H15 C24 1_555 1_555
H16 C24 1_555 1_555
H17 C24 1_555 1_555
C25 H18 1_555 1_555
H19 C25 1_555 1_555
C26 C25 1_555 1_555
H20 C26 1_555 1_555
H21 C26 1_555 1_555
H22 C26 1_555 1_555
C27 H23 1_555 1_555
H24 C27 1_555 1_555
C28 C27 1_555 1_555
H25 C28 1_555 1_555
H26 C28 1_555 1_555
H27 C28 1_555 1_555
C29 H28 1_555 1_555
H29 C29 1_555 1_555
C30 C29 1_555 1_555
H30 C30 1_555 1_555
H31 C30 1_555 1_555
H32 C30 1_555 1_555
O1 C8 1_555 1_555
O2 C9 1_555 1_555
O3 C12 1_555 1_555
O4 C13 1_555 1_555
O5 C16 1_555 1_555
O6 C17 1_555 1_555
Te1 C7 1_555 1_555
Te2 C10 1_555 1_555
C9 C10 1_555 1_555
C11 Te2 1_555 1_555
C13 C14 1_555 1_555
C17 C18 1_555 1_555
C18 Te1 1_555 1_555
C19 O1 1_555 1_555
C21 O2 1_555 1_555
C23 O3 1_555 1_555
C25 O4 1_555 1_555
C27 O5 1_555 1_555
C29 O6 1_555 1_555

#END
