
#######################################################################
#
#                 Cambridge Crystallographic Data Centre
#                                CCDC 
#
#######################################################################
#
# If this CIF has been generated from an entry in the Cambridge 
# Structural Database, then it will include bibliographic, chemical, 
# crystal, experimental, refinement or atomic coordinate data resulting 
# from the CCDC's data processing and validation procedures.
#
#######################################################################

data_ECAPEG
_chemical_formula_moiety         'C4 H12 N2,C50 H48 N14 O2'
_chemical_name_systematic        
"2,2',8,8',14,14',20,20'-octamethyl-5,5'-bi(2,8,14,20,25,26,27-heptaazapentacyclo[19.3.1.1^3,7^.1^9,13^.1^15,19^]octacosane)-1(25),1'(25'),3(28),3'(28'),4,4',6,6',9(27),9'(27'),10,10',12,12',15(26),15'(26'),16,16',18,18',21,21',23,23'-tetracosaene-28,28'-diol 1,4-diaminobutane"
_symmetry_cell_setting           triclinic
_symmetry_space_group_name_H-M   'P -1'
_symmetry_Int_Tables_number      2
_space_group_name_Hall           '-P 1'
loop_
_symmetry_equiv_pos_site_id
_symmetry_equiv_pos_as_xyz
1 x,y,z
2 -x,-y,-z
_cell_length_a                   9.6636(3)
_cell_length_b                   15.1098(6)
_cell_length_c                   18.1939(7)
_cell_angle_alpha                69.768(4)
_cell_angle_beta                 84.466(3)
_cell_angle_gamma                84.513(3)
_cell_volume                     2475.53
_exptl_crystal_colour            colorless
_exptl_crystal_description       prism
_cell_formula_units_Z            2
loop_
_atom_site_label
_atom_site_type_symbol
_atom_site_fract_x
_atom_site_fract_y
_atom_site_fract_z
O1 O 0.57592(15) 0.55013(9) 0.32447(8)
H1 H 0.5191(19) 0.5789(11) 0.2924(8)
O2 O 1.07269(16) 0.02148(10) 0.18918(9)
H2 H 1.0291(15) -0.0259(5) 0.2099(13)
N1 N 0.84042(16) -0.03067(11) 0.39451(9)
N2 N 0.58740(17) 0.36819(11) 0.43659(9)
N3 N 0.58496(17) -0.03215(11) 0.29571(10)
N4 N 0.61427(17) -0.07184(11) 0.43071(10)
N5 N 0.70836(17) 0.58811(10) 0.17387(9)
N6 N 1.05870(16) 0.01808(11) 0.34610(10)
N7 N 0.52366(18) 0.55896(11) 0.11632(9)
N8 N 0.37071(16) 0.40098(12) 0.38705(9)
N9 N 0.26091(17) 0.47442(11) 0.19833(10)
N10 N 0.76056(18) 0.08160(12) 0.11146(10)
N11 N 0.56467(19) -0.00108(13) 0.16151(11)
N12 N 0.3414(2) 0.51795(12) 0.06495(10)
N13 N 0.9482(2) 0.17265(13) 0.07155(10)
N14 N 0.16352(18) 0.44178(14) 0.32698(11)
C1 C 0.72370(19) 0.31392(13) 0.33959(11)
H3 H 0.72832(19) 0.25357(13) 0.37694(11)
C2 C 0.64102(19) 0.47873(13) 0.30392(11)
C3 C 0.64997(19) 0.38687(13) 0.35933(10)
C4 C 0.79099(19) 0.32831(12) 0.26556(11)
C5 C 0.58479(19) -0.00141(13) 0.35638(11)
C6 C 0.78144(19) 0.41981(13) 0.21067(11)
H4 H 0.82557(19) 0.43156(13) 0.16081(11)
C7 C 0.86812(19) 0.24894(12) 0.24576(11)
C8 C 0.7550(2) -0.09158(13) 0.44479(11)
C9 C 0.9777(2) -0.04348(13) 0.40318(11)
C10 C 0.4466(2) 0.38983(13) 0.44791(11)
C11 C 0.92769(19) 0.17085(13) 0.30330(11)
H5 H 0.92110(19) 0.16954(13) 0.35500(11)
C12 C 0.99609(19) 0.09558(13) 0.28548(11)
C13 C 0.70727(19) 0.49338(12) 0.22930(11)
C14 C 0.3003(2) 0.44731(14) 0.13644(11)
C15 C 0.8793(2) 0.24769(13) 0.16919(11)
H6 H 0.8408(2) 0.29878(13) 0.12962(11)
C16 C 0.21830(19) 0.40847(15) 0.26473(12)
C17 C 0.2336(2) 0.42278(14) 0.39449(12)
C18 C 0.5388(2) 0.15812(14) 0.27743(12)
H7 H 0.5233(2) 0.22189(14) 0.27135(12)
C19 C 0.6091(2) 0.62177(13) 0.11974(11)
C20 C 0.5633(2) 0.03291(14) 0.22563(12)
C21 C 0.5396(2) 0.12884(14) 0.21394(12)
H8 H 0.5247(2) 0.17217(14) 0.16423(12)
C22 C 0.5613(2) 0.09186(14) 0.35063(12)
H9 H 0.5605(2) 0.10990(14) 0.39464(12)
C23 C 0.9461(2) 0.17241(14) 0.15059(11)
C24 C 0.2103(2) 0.31496(15) 0.27192(12)
H10 H 0.1806(2) 0.27082(15) 0.31944(12)
C25 C 0.8030(2) -0.16986(14) 0.50686(12)
H11 H 0.7423(2) -0.21231(14) 0.54078(12)
C26 C 0.9448(2) -0.18105(14) 0.51531(12)
H12 H 0.9803(2) -0.23224(14) 0.55595(12)
C27 C 0.2954(2) 0.35545(14) 0.13806(12)
H13 H 0.3236(2) 0.33913(14) 0.09384(12)
C28 C 0.2475(2) 0.28873(14) 0.20674(12)
H14 H 0.2404(2) 0.22681(14) 0.20920(12)
C29 C 1.0065(2) 0.09484(13) 0.20863(12)
C30 C 0.4240(2) 0.58852(13) 0.06543(11)
C31 C 0.5998(2) 0.71701(13) 0.07039(12)
H15 H 0.6616(2) 0.75942(13) 0.07269(12)
C32 C 1.0350(2) -0.11854(14) 0.46526(12)
H16 H 1.1300(2) -0.12555(14) 0.47214(12)
C33 C 0.6784(2) 0.34686(14) 0.50075(11)
H17 H 0.7693(5) 0.3251(10) 0.4851(3)
H18 H 0.6854(12) 0.4029(3) 0.5134(6)
H19 H 0.6406(8) 0.2986(7) 0.5460(3)
C34 C 0.1652(2) 0.42958(14) 0.46379(12)
H20 H 0.0693(2) 0.44245(14) 0.46810(12)
C35 C 0.4960(2) 0.74520(14) 0.01852(12)
H21 H 0.4868(2) 0.80786(14) -0.01438(12)
C36 C 0.3882(2) 0.39745(14) 0.51913(11)
H22 H 0.4431(2) 0.39004(14) 0.56040(11)
C37 C 0.6700(2) 0.02603(15) 0.10176(12)
C38 C 0.8615(2) 0.11525(15) 0.05576(12)
C39 C 0.2466(2) 0.41630(14) 0.52554(12)
H23 H 0.2045(2) 0.42021(14) 0.57259(12)
C40 C 0.4055(2) 0.68179(14) 0.01470(12)
H24 H 0.3352(2) 0.70033(14) -0.02013(12)
C41 C 0.5222(2) -0.14955(16) 0.45737(14)
H25 H 0.4275(3) -0.12480(18) 0.4493(9)
H26 H 0.5470(11) -0.1915(6) 0.4282(6)
H27 H 0.5315(12) -0.1835(7) 0.5122(2)
C42 C 0.7832(3) 0.65475(15) 0.19437(14)
H28 H 0.7190(4) 0.7046(6) 0.2006(9)
H29 H 0.8267(14) 0.6225(3) 0.2426(5)
H30 H 0.8532(11) 0.6810(9) 0.1533(5)
C43 C 0.6787(3) -0.00204(17) 0.03554(13)
H31 H 0.6174(3) -0.04302(17) 0.03036(13)
C44 C 1.2099(2) 0.00859(16) 0.34637(15)
H32 H 1.2377(2) 0.0226(11) 0.3902(6)
H33 H 1.2425(2) -0.0549(3) 0.3507(10)
H34 H 1.2493(2) 0.0518(8) 0.2984(4)
C45 C 0.2540(3) 0.53647(17) -0.00049(13)
H35 H 0.2196(15) 0.4783(3) 0.0009(6)
H36 H 0.1769(10) 0.5799(10) 0.0036(6)
H37 H 0.3079(5) 0.5634(11) -0.04909(13)
C46 C 0.0159(2) 0.46996(17) 0.32748(15)
H38 H -0.0142(4) 0.4877(11) 0.2752(2)
H39 H -0.0350(3) 0.4181(4) 0.3617(7)
H40 H -0.0009(3) 0.5227(7) 0.3458(9)
C47 C 0.8746(3) 0.09387(18) -0.01397(13)
H41 H 0.9429(3) 0.11931(18) -0.05340(13)
C48 C 0.7835(3) 0.03442(18) -0.02186(14)
H42 H 0.7919(3) 0.01796(18) -0.06693(14)
C49 C 0.4968(3) -0.08839(18) 0.17636(16)
H43 H 0.5621(6) -0.14155(19) 0.1963(10)
H44 H 0.4192(12) -0.0921(6) 0.2142(8)
H45 H 0.4643(17) -0.0890(6) 0.1283(3)
C50 C 1.0673(3) 0.2094(2) 0.01939(16)
H46 H 1.1099(13) 0.2521(11) 0.0376(7)
H47 H 1.1335(10) 0.1581(2) 0.0184(9)
H48 H 1.0379(4) 0.2423(12) -0.0326(3)
N15 N -0.0988(2) 0.87943(14) 0.24426(13)
H49 H -0.109(3) 0.8677(18) 0.1987(16)
H50 H -0.174(3) 0.9106(19) 0.2494(15)
N16 N 0.3716(2) 0.64448(16) 0.23813(13)
H51 H 0.3347(11) 0.5980(9) 0.2313(9)
H52 H 0.3828(17) 0.6889(4) 0.1929(4)
C51 C -0.0880(2) 0.79097(16) 0.31092(14)
H53 H -0.1333(2) 0.80116(16) 0.35755(14)
H54 H -0.1367(2) 0.74361(16) 0.30076(14)
C52 C 0.0606(3) 0.75450(17) 0.32604(15)
H55 H 0.1086(3) 0.80271(17) 0.33546(15)
H56 H 0.0608(3) 0.69971(17) 0.37371(15)
C53 C 0.1418(2) 0.72731(17) 0.26174(15)
H57 H 0.0912(2) 0.68376(17) 0.24761(15)
H58 H 0.1551(2) 0.78301(17) 0.21560(15)
C54 C 0.2837(3) 0.68029(18) 0.29080(15)
H59 H 0.2674(3) 0.62847(18) 0.33956(15)
H60 H 0.3335(3) 0.72603(18) 0.30257(15)
loop_
_geom_bond_atom_site_label_1
_geom_bond_atom_site_label_2
_geom_bond_site_symmetry_1
_geom_bond_site_symmetry_2
O1 H1 1_555 1_555
O2 H2 1_555 1_555
N1 C8 1_555 1_555
N2 C3 1_555 1_555
N3 C5 1_555 1_555
N4 C5 1_555 1_555
N5 C13 1_555 1_555
N6 C9 1_555 1_555
N7 C19 1_555 1_555
N8 C10 1_555 1_555
N9 C14 1_555 1_555
N10 C37 1_555 1_555
N11 C20 1_555 1_555
N12 C14 1_555 1_555
N13 C23 1_555 1_555
N14 C16 1_555 1_555
C1 H3 1_555 1_555
C2 O1 1_555 1_555
C3 C1 1_555 1_555
C4 C1 1_555 1_555
C5 C22 1_555 1_555
C6 C4 1_555 1_555
H4 C6 1_555 1_555
C7 C4 1_555 1_555
C8 N4 1_555 1_555
C9 N1 1_555 1_555
C10 N2 1_555 1_555
C11 C7 1_555 1_555
H5 C11 1_555 1_555
C12 N6 1_555 1_555
C13 C2 1_555 1_555
C14 C27 1_555 1_555
C15 C7 1_555 1_555
H6 C15 1_555 1_555
C16 N9 1_555 1_555
C17 N8 1_555 1_555
C18 H7 1_555 1_555
C19 N5 1_555 1_555
C20 N3 1_555 1_555
C21 C18 1_555 1_555
H8 C21 1_555 1_555
C22 C18 1_555 1_555
H9 C22 1_555 1_555
C23 C15 1_555 1_555
C24 C16 1_555 1_555
H10 C24 1_555 1_555
C25 C8 1_555 1_555
H11 C25 1_555 1_555
C26 C25 1_555 1_555
H12 C26 1_555 1_555
C27 H13 1_555 1_555
C28 C24 1_555 1_555
H14 C28 1_555 1_555
C29 O2 1_555 1_555
C30 N7 1_555 1_555
C31 C19 1_555 1_555
H15 C31 1_555 1_555
C32 C9 1_555 1_555
H16 C32 1_555 1_555
C33 N2 1_555 1_555
H17 C33 1_555 1_555
H18 C33 1_555 1_555
H19 C33 1_555 1_555
C34 C17 1_555 1_555
H20 C34 1_555 1_555
C35 C31 1_555 1_555
H21 C35 1_555 1_555
C36 C10 1_555 1_555
H22 C36 1_555 1_555
C37 N11 1_555 1_555
C38 N10 1_555 1_555
C39 C34 1_555 1_555
H23 C39 1_555 1_555
C40 C30 1_555 1_555
H24 C40 1_555 1_555
C41 N4 1_555 1_555
H25 C41 1_555 1_555
H26 C41 1_555 1_555
H27 C41 1_555 1_555
C42 N5 1_555 1_555
H28 C42 1_555 1_555
H29 C42 1_555 1_555
H30 C42 1_555 1_555
C43 C37 1_555 1_555
H31 C43 1_555 1_555
C44 N6 1_555 1_555
H32 C44 1_555 1_555
H33 C44 1_555 1_555
H34 C44 1_555 1_555
C45 N12 1_555 1_555
H35 C45 1_555 1_555
H36 C45 1_555 1_555
H37 C45 1_555 1_555
C46 N14 1_555 1_555
H38 C46 1_555 1_555
H39 C46 1_555 1_555
H40 C46 1_555 1_555
C47 C38 1_555 1_555
H41 C47 1_555 1_555
C48 C43 1_555 1_555
H42 C48 1_555 1_555
C49 N11 1_555 1_555
H43 C49 1_555 1_555
H44 C49 1_555 1_555
H45 C49 1_555 1_555
C50 N13 1_555 1_555
H46 C50 1_555 1_555
H47 C50 1_555 1_555
H48 C50 1_555 1_555
N15 H49 1_555 1_555
H50 N15 1_555 1_555
N16 H51 1_555 1_555
H52 N16 1_555 1_555
C51 N15 1_555 1_555
H53 C51 1_555 1_555
H54 C51 1_555 1_555
C52 C51 1_555 1_555
H55 C52 1_555 1_555
H56 C52 1_555 1_555
C53 C52 1_555 1_555
H57 C53 1_555 1_555
H58 C53 1_555 1_555
C54 N16 1_555 1_555
H59 C54 1_555 1_555
H60 C54 1_555 1_555
N12 C30 1_555 1_555
N13 C38 1_555 1_555
N14 C17 1_555 1_555
C2 C3 1_555 1_555
C6 C13 1_555 1_555
C11 C12 1_555 1_555
C12 C29 1_555 1_555
C20 C21 1_555 1_555
C23 C29 1_555 1_555
C26 C32 1_555 1_555
C27 C28 1_555 1_555
C35 C40 1_555 1_555
C36 C39 1_555 1_555
C47 C48 1_555 1_555
C53 C54 1_555 1_555

#END
