
#######################################################################
#
#                 Cambridge Crystallographic Data Centre
#                                CCDC 
#
#######################################################################
#
# If this CIF has been generated from an entry in the Cambridge 
# Structural Database, then it will include bibliographic, chemical, 
# crystal, experimental, refinement or atomic coordinate data resulting 
# from the CCDC's data processing and validation procedures.
#
#######################################################################

data_ECAPOO
_chemical_formula_moiety         'C54 H56 B2 S2,C7 H8'
_chemical_name_systematic        
'1,4-bis(2-(5-(bis(2,4,6-trimethylphenyl)boryl)thien-2-yl)ethenyl)benzene toluene solvate'
_symmetry_cell_setting           triclinic
_symmetry_space_group_name_H-M   'P -1'
_symmetry_Int_Tables_number      2
_space_group_name_Hall           '-P 1'
loop_
_symmetry_equiv_pos_site_id
_symmetry_equiv_pos_as_xyz
1 x,y,z
2 -x,-y,-z
_cell_length_a                   8.0399(16)
_cell_length_b                   14.829(3)
_cell_length_c                   22.669(5)
_cell_angle_alpha                105.23(3)
_cell_angle_beta                 100.18(3)
_cell_angle_gamma                93.56(3)
_cell_volume                     2549.89
_cell_formula_units_Z            2
loop_
_atom_site_label
_atom_site_type_symbol
_atom_site_fract_x
_atom_site_fract_y
_atom_site_fract_z
S1 S 0.5948(3) -0.42014(17) -0.20396(11)
S2 S -0.1265(3) -0.20659(18) 0.21326(11)
B1 B 0.7837(12) -0.4460(7) -0.2990(4)
B2 B -0.2987(12) -0.1332(8) 0.3101(4)
C1 C 0.2736(14) -0.4634(9) -0.0124(5)
H1 H 0.2998 -0.5247 -0.0261
C2 C 0.3156(12) -0.3997(8) -0.0416(5)
C3 C 0.2759(14) -0.3079(8) -0.0199(5)
H2 H 0.3068 -0.2626 -0.0388
C4 C 0.4030(12) -0.4213(8) -0.0956(4)
H3 H 0.4298 -0.3702 -0.1102
C5 C 0.4463(13) -0.4987(8) -0.1245(5)
H4 H 0.4190 -0.5515 -0.1118
C6 C 0.5358(12) -0.5116(7) -0.1764(4)
C7 C 0.5852(14) -0.5911(8) -0.2082(5)
H5 H 0.5650 -0.6488 -0.2004
C8 C 0.6700(12) -0.5786(7) -0.2543(5)
H6 H 0.7127 -0.6278 -0.2799
C9 C 0.6861(11) -0.4895(7) -0.2593(4)
C10 C 0.8253(11) -0.3371(7) -0.2776(4)
C11 C 0.7496(12) -0.2814(7) -0.3152(4)
C12 C 0.7828(14) -0.1843(8) -0.2954(5)
H7 H 0.7341 -0.1493 -0.3211
C13 C 0.8863(13) -0.1379(7) -0.2385(5)
C14 C 0.9598(12) -0.1918(7) -0.2035(4)
H8 H 1.0330 -0.1620 -0.1658
C15 C 0.9312(12) -0.2884(7) -0.2214(4)
C16 C 1.0257(14) -0.3414(8) -0.1773(4)
H9 H 1.0926 -0.2967 -0.1409
H10 H 1.0987 -0.3812 -0.1987
H11 H 0.9441 -0.3792 -0.1650
C17 C 0.9191(16) -0.0330(8) -0.2191(6)
H12 H 0.8539 -0.0086 -0.2499
H13 H 1.0379 -0.0143 -0.2151
H14 H 0.8865 -0.0086 -0.1797
C18 C 0.6267(15) -0.3248(8) -0.3769(5)
H15 H 0.5904 -0.2761 -0.3952
H16 H 0.5297 -0.3585 -0.3698
H17 H 0.6824 -0.3675 -0.4046
C19 C 0.8308(12) -0.5093(6) -0.3608(4)
C20 C 0.7066(13) -0.5721(7) -0.4084(4)
C21 C 0.7523(14) -0.6240(7) -0.4625(5)
H18 H 0.6691 -0.6650 -0.4933
C22 C 0.9134(17) -0.6170(8) -0.4720(5)
C23 C 1.0359(13) -0.5559(8) -0.4255(5)
H19 H 1.1473 -0.5509 -0.4314
C24 C 0.9987(12) -0.5027(7) -0.3712(5)
C25 C 1.1420(13) -0.4367(9) -0.3247(5)
H20 H 1.2451 -0.4425 -0.3406
H21 H 1.1570 -0.4525 -0.2858
H22 H 1.1149 -0.3731 -0.3183
C26 C 0.9602(18) -0.6727(8) -0.5318(5)
H23 H 0.8610 -0.7111 -0.5587
H24 H 1.0454 -0.7121 -0.5223
H25 H 1.0039 -0.6301 -0.5523
C27 C 0.5208(13) -0.5850(10) -0.4039(5)
H26 H 0.4583 -0.6300 -0.4411
H27 H 0.4750 -0.5258 -0.3995
H28 H 0.5119 -0.6071 -0.3683
C28 C 0.1910(15) -0.4395(8) 0.0383(5)
H29 H 0.1629 -0.4851 0.0574
C29 C 0.1514(13) -0.3499(9) 0.0600(5)
C30 C 0.1911(14) -0.2833(8) 0.0293(5)
H30 H 0.1608 -0.2227 0.0418
C31 C 0.0626(14) -0.3142(8) 0.1125(5)
H31 H 0.0395 -0.2520 0.1199
C32 C 0.0142(12) -0.3598(8) 0.1488(5)
H32 H 0.0339 -0.4225 0.1421
C33 C -0.0690(12) -0.3188(7) 0.1993(4)
C34 C -0.1146(13) -0.3571(8) 0.2420(5)
H33 H -0.0946 -0.4179 0.2427
C35 C -0.1926(11) -0.3013(8) 0.2847(4)
H34 H -0.2284 -0.3203 0.3168
C36 C -0.2129(10) -0.2144(7) 0.2754(4)
C37 C -0.3533(11) -0.1379(6) 0.3739(4)
C38 C -0.2328(11) -0.1399(7) 0.4276(4)
C39 C -0.2833(12) -0.1330(6) 0.4832(4)
H35 H -0.2012 -0.1314 0.5181
C40 C -0.4496(13) -0.1284(7) 0.4897(5)
C41 C -0.5691(13) -0.1305(7) 0.4368(5)
H36 H -0.6833 -0.1296 0.4392
C42 C -0.5214(11) -0.1339(7) 0.3810(4)
C43 C -0.6631(12) -0.1331(9) 0.3264(5)
H37 H -0.7699 -0.1306 0.3399
H38 H -0.6686 -0.1891 0.2929
H39 H -0.6399 -0.0789 0.3123
C44 C -0.5003(16) -0.1190(8) 0.5507(5)
H40 H -0.6209 -0.1168 0.5458
H41 H -0.4423 -0.0621 0.5803
H42 H -0.4705 -0.1719 0.5656
C45 C -0.0467(11) -0.1448(8) 0.4259(5)
H43 H 0.0142 -0.1464 0.4660
H44 H -0.0019 -0.0904 0.4158
H45 H -0.0339 -0.2006 0.3948
C46 C -0.3328(11) -0.0482(7) 0.2826(4)
C47 C -0.4415(11) -0.0559(6) 0.2259(4)
C48 C -0.4669(12) 0.0212(8) 0.2049(4)
H46 H -0.5411 0.0138 0.1671
C49 C -0.3863(13) 0.1108(7) 0.2378(5)
C50 C -0.2757(13) 0.1181(7) 0.2928(5)
H47 H -0.2197 0.1769 0.3159
C51 C -0.2450(11) 0.0425(7) 0.3147(4)
C52 C -0.1134(13) 0.0567(7) 0.3733(4)
H48 H -0.0672 0.1217 0.3886
H49 H -0.0238 0.0185 0.3644
H50 H -0.1648 0.0390 0.4043
C53 C -0.4216(15) 0.1940(8) 0.2137(6)
H51 H -0.3562 0.2496 0.2423
H52 H -0.5405 0.2014 0.2096
H53 H -0.3907 0.1844 0.1736
C54 C -0.5440(12) -0.1487(7) 0.1861(4)
H54 H -0.6101 -0.1394 0.1490
H55 H -0.6184 -0.1705 0.2095
H56 H -0.4678 -0.1947 0.1748
C55 C -0.259(2) -0.0489(14) 0.0207(9)
C56 C -0.231(2) -0.0921(12) -0.0439(8)
C57 C -0.234(2) -0.1888(12) -0.0549(7)
C58 C -0.271(3) -0.1981(16) 0.0359(10)
C59 C -0.252(2) -0.2362(13) -0.0160(10)
C60 C -0.273(2) -0.1104(13) 0.0560(8)
C61 C -0.263(4) 0.050(2) 0.0175(14)
loop_
_geom_bond_atom_site_label_1
_geom_bond_atom_site_label_2
_geom_bond_site_symmetry_1
_geom_bond_site_symmetry_2
S1 C6 1_555 1_555
S2 C33 1_555 1_555
B1 C9 1_555 1_555
B2 C36 1_555 1_555
C1 H1 1_555 1_555
C2 C1 1_555 1_555
C3 C2 1_555 1_555
H2 C3 1_555 1_555
C4 C2 1_555 1_555
H3 C4 1_555 1_555
C5 C4 1_555 1_555
H4 C5 1_555 1_555
C6 C5 1_555 1_555
C7 C6 1_555 1_555
H5 C7 1_555 1_555
C8 C7 1_555 1_555
H6 C8 1_555 1_555
C9 S1 1_555 1_555
C10 B1 1_555 1_555
C11 C10 1_555 1_555
C12 C11 1_555 1_555
H7 C12 1_555 1_555
C13 C12 1_555 1_555
C14 C13 1_555 1_555
H8 C14 1_555 1_555
C15 C10 1_555 1_555
C16 C15 1_555 1_555
H9 C16 1_555 1_555
H10 C16 1_555 1_555
H11 C16 1_555 1_555
C17 C13 1_555 1_555
H12 C17 1_555 1_555
H13 C17 1_555 1_555
H14 C17 1_555 1_555
C18 C11 1_555 1_555
H15 C18 1_555 1_555
H16 C18 1_555 1_555
H17 C18 1_555 1_555
C19 B1 1_555 1_555
C20 C19 1_555 1_555
C21 C20 1_555 1_555
H18 C21 1_555 1_555
C22 C21 1_555 1_555
C23 C22 1_555 1_555
H19 C23 1_555 1_555
C24 C19 1_555 1_555
C25 C24 1_555 1_555
H20 C25 1_555 1_555
H21 C25 1_555 1_555
H22 C25 1_555 1_555
C26 C22 1_555 1_555
H23 C26 1_555 1_555
H24 C26 1_555 1_555
H25 C26 1_555 1_555
C27 C20 1_555 1_555
H26 C27 1_555 1_555
H27 C27 1_555 1_555
H28 C27 1_555 1_555
C28 C1 1_555 1_555
H29 C28 1_555 1_555
C29 C28 1_555 1_555
C30 C3 1_555 1_555
H30 C30 1_555 1_555
C31 C29 1_555 1_555
H31 C31 1_555 1_555
C32 C31 1_555 1_555
H32 C32 1_555 1_555
C33 C32 1_555 1_555
C34 C33 1_555 1_555
H33 C34 1_555 1_555
C35 C34 1_555 1_555
H34 C35 1_555 1_555
C36 S2 1_555 1_555
C37 B2 1_555 1_555
C38 C37 1_555 1_555
C39 C38 1_555 1_555
H35 C39 1_555 1_555
C40 C39 1_555 1_555
C41 C40 1_555 1_555
H36 C41 1_555 1_555
C42 C37 1_555 1_555
C43 C42 1_555 1_555
H37 C43 1_555 1_555
H38 C43 1_555 1_555
H39 C43 1_555 1_555
C44 C40 1_555 1_555
H40 C44 1_555 1_555
H41 C44 1_555 1_555
H42 C44 1_555 1_555
C45 C38 1_555 1_555
H43 C45 1_555 1_555
H44 C45 1_555 1_555
H45 C45 1_555 1_555
C46 B2 1_555 1_555
C47 C46 1_555 1_555
C48 C47 1_555 1_555
H46 C48 1_555 1_555
C49 C48 1_555 1_555
C50 C49 1_555 1_555
H47 C50 1_555 1_555
C51 C46 1_555 1_555
C52 C51 1_555 1_555
H48 C52 1_555 1_555
H49 C52 1_555 1_555
H50 C52 1_555 1_555
C53 C49 1_555 1_555
H51 C53 1_555 1_555
H52 C53 1_555 1_555
H53 C53 1_555 1_555
C54 C47 1_555 1_555
H54 C54 1_555 1_555
H55 C54 1_555 1_555
H56 C54 1_555 1_555
C55 C56 1_555 1_555
C56 C57 1_555 1_555
C57 C59 1_555 1_555
C58 C59 1_555 1_555
C60 C55 1_555 1_555
C61 C55 1_555 1_555
C8 C9 1_555 1_555
C14 C15 1_555 1_555
C23 C24 1_555 1_555
C29 C30 1_555 1_555
C35 C36 1_555 1_555
C41 C42 1_555 1_555
C50 C51 1_555 1_555
C58 C60 1_555 1_555

#END
