
#######################################################################
#
#                 Cambridge Crystallographic Data Centre
#                                CCDC 
#
#######################################################################
#
# If this CIF has been generated from an entry in the Cambridge 
# Structural Database, then it will include bibliographic, chemical, 
# crystal, experimental, refinement or atomic coordinate data resulting 
# from the CCDC's data processing and validation procedures.
#
#######################################################################

data_ECEJAA
_chemical_formula_moiety         'C9 H19 B11 N1 O3 S1 1-,C8 H20 N1 1+'
_chemical_name_systematic        
'tetraethylammonium 1-(p-tosylaminocarbonyl)-closo-dodecaborate'
_symmetry_cell_setting           monoclinic
_symmetry_space_group_name_H-M   'P 21/n'
_symmetry_Int_Tables_number      14
_space_group_name_Hall           '-P 2yn'
loop_
_symmetry_equiv_pos_site_id
_symmetry_equiv_pos_as_xyz
1 x,y,z
2 1/2-x,1/2+y,1/2-z
3 -x,-y,-z
4 1/2+x,1/2-y,1/2+z
_cell_length_a                   11.7040(8)
_cell_length_b                   18.1966(9)
_cell_length_c                   13.7408(7)
_cell_angle_alpha                90
_cell_angle_beta                 105.421(7)
_cell_angle_gamma                90
_cell_volume                     2821.06
_exptl_crystal_colour            colorless
_exptl_crystal_description       block
_cell_formula_units_Z            4
loop_
_atom_site_label
_atom_site_type_symbol
_atom_site_fract_x
_atom_site_fract_y
_atom_site_fract_z
S1 S 0.87642(7) 0.01858(4) 0.60769(5)
C1 C 0.89994(19) -0.12165(13) 0.66452(16)
O1 O 0.83524(14) -0.11061(9) 0.71818(13)
N1 N 0.92644(19) -0.06641(10) 0.60544(14)
H1 H 0.9715 -0.0766 0.5651
C2 C 0.9350(2) 0.04817(12) 0.73211(16)
C3 C 0.95772(19) -0.19481(12) 0.65847(16)
O2 O 0.74946(19) 0.01757(12) 0.58598(15)
O3 O 0.9324(3) 0.05783(11) 0.54306(15)
C4 C 0.8602(2) 0.06095(12) 0.79136(18)
H2 H 0.7774 0.0534 0.7655
C5 C 1.0258(3) 0.09569(13) 0.92889(19)
B1 B 0.9393(2) -0.25986(15) 0.7437(2)
H3 H 0.8882 -0.2513 0.8011
B2 B 0.8663(3) -0.26742(15) 0.6134(2)
H4 H 0.7675 -0.2638 0.5851
C6 C 0.9064(2) 0.08500(13) 0.88955(19)
H5 H 0.8542 0.0943 0.9306
C7 C 1.0550(2) 0.06043(17) 0.7689(2)
H6 H 1.1069 0.0529 0.7272
B3 B 0.9616(3) -0.22961(16) 0.5432(2)
H7 H 0.9255 -0.2013 0.4690
B4 B 1.0785(2) -0.21680(16) 0.7560(2)
H8 H 1.1191 -0.1797 0.8211
B5 B 0.9391(3) -0.34395(15) 0.6814(2)
H9 H 0.8882 -0.3924 0.6978
B6 B 1.0776(3) -0.35447(17) 0.6539(3)
H10 H 1.1188 -0.4098 0.6518
B7 B 1.0698(3) -0.31322(17) 0.7703(3)
H11 H 1.1058 -0.3408 0.8450
B8 B 1.0923(2) -0.19915(16) 0.6321(2)
H12 H 1.1426 -0.1503 0.6160
B9 B 1.1640(3) -0.27543(17) 0.7004(3)
H13 H 1.2628 -0.2781 0.7295
C8 C 1.0986(2) 0.08385(18) 0.8675(3)
H14 H 1.1813 0.0919 0.8932
B10 B 0.9525(3) -0.32614(17) 0.5575(3)
H15 H 0.9107 -0.3625 0.4920
C9 C 1.0752(3) 0.12018(18) 1.0372(2)
H16 H 1.0180 0.1525 1.0566
H17 H 1.1496 0.1468 1.0437
H18 H 1.0900 0.0770 1.0815
B11 B 1.0922(3) -0.28339(17) 0.5696(3)
H19 H 1.1433 -0.2914 0.5122
N2 N 1.50050(18) -0.12154(12) 0.7168(2)
C10 C 1.5933(5) -0.0499(4) 0.8872(5)
H20 H 1.5176 -0.0262 0.8857
H21 H 1.6585 -0.0160 0.9163
H22 H 1.6022 -0.0945 0.9284
C11 C 1.5956(3) -0.06980(19) 0.7808(3)
H23 H 1.6738 -0.0922 0.7849
H24 H 1.5919 -0.0233 0.7427
C12 C 1.5079(4) -0.1945(2) 0.7796(3)
H25 H 1.5015 -0.1821 0.8481
H26 H 1.4393 -0.2260 0.7472
C13 C 1.6209(6) -0.2377(3) 0.7889(4)
H27 H 1.6261 -0.2524 0.7216
H28 H 1.6203 -0.2817 0.8301
H29 H 1.6893 -0.2071 0.8212
C14 C 1.3781(4) -0.0921(3) 0.7228(5)
H30 H 1.3160 -0.1285 0.6925
H31 H 1.3787 -0.0857 0.7945
C15 C 1.5193(4) -0.1322(2) 0.6222(3)
H32 H 1.5988 -0.1541 0.6312
H33 H 1.5194 -0.0837 0.5897
C16 C 1.4280(8) -0.1814(5) 0.5510(5)
H34 H 1.4458 -0.1840 0.4853
H35 H 1.3485 -0.1609 0.5423
H36 H 1.4313 -0.2309 0.5797
C17 C 1.3491(5) -0.0209(3) 0.6694(4)
H37 H 1.3542 -0.0262 0.5997
H38 H 1.4055 0.0166 0.7039
H39 H 1.2686 -0.0061 0.6693
C18? C 1.5658(9) -0.0611(5) 0.6505(8)
H40? H 1.6420 -0.0437 0.6949
H41? H 1.5828 -0.0871 0.5926
C19? C 1.4858(10) 0.0054(5) 0.6113(8)
H42? H 1.4257 -0.0083 0.5495
H43? H 1.5340 0.0459 0.5968
H44? H 1.4468 0.0210 0.6628
C20? C 1.4506(17) -0.0954(7) 0.7726(12)
H45? H 1.4073 -0.1335 0.7999
H46? H 1.3936 -0.0575 0.7379
C21? C 1.550(3) -0.0605(12) 0.8587(16)
H47? H 1.5586 -0.0083 0.8440
H48? H 1.6254 -0.0858 0.8632
H49? H 1.5297 -0.0653 0.9230
C22? C 1.5927(8) -0.1821(5) 0.7305(8)
H50? H 1.6666 -0.1674 0.7809
H51? H 1.6114 -0.1928 0.6658
C23? C 1.5382(10) -0.2494(7) 0.7671(9)
H52? H 1.4847 -0.2741 0.7093
H53? H 1.4936 -0.2340 0.8147
H54? H 1.6013 -0.2834 0.8008
C24? C 1.3986(10) -0.1499(7) 0.6097(10)
H55? H 1.3530 -0.1902 0.6300
H56? H 1.3426 -0.1086 0.5878
C25? C 1.435(3) -0.178(2) 0.5108(14)
H57? H 1.3643 -0.1946 0.4599
H58? H 1.4914 -0.2189 0.5291
H59? H 1.4724 -0.1376 0.4831
loop_
_geom_bond_atom_site_label_1
_geom_bond_atom_site_label_2
_geom_bond_site_symmetry_1
_geom_bond_site_symmetry_2
S1 N1 1_555 1_555
C1 O1 1_555 1_555
N1 C1 1_555 1_555
H1 N1 1_555 1_555
C2 S1 1_555 1_555
C3 C1 1_555 1_555
O2 S1 1_555 1_555
O3 S1 1_555 1_555
C4 C2 1_555 1_555
H2 C4 1_555 1_555
C5 C6 1_555 1_555
B1 C3 1_555 1_555
H3 B1 1_555 1_555
B2 C3 1_555 1_555
H4 B2 1_555 1_555
C6 C4 1_555 1_555
H5 C6 1_555 1_555
C7 C2 1_555 1_555
H6 C7 1_555 1_555
B3 C3 1_555 1_555
H7 B3 1_555 1_555
B4 C3 1_555 1_555
H8 B4 1_555 1_555
B5 B1 1_555 1_555
H9 B5 1_555 1_555
B6 B5 1_555 1_555
H10 B6 1_555 1_555
B7 B1 1_555 1_555
H11 B7 1_555 1_555
B8 C3 1_555 1_555
H12 B8 1_555 1_555
B9 B4 1_555 1_555
H13 B9 1_555 1_555
C8 C5 1_555 1_555
H14 C8 1_555 1_555
B10 B2 1_555 1_555
H15 B10 1_555 1_555
C9 C5 1_555 1_555
H16 C9 1_555 1_555
H17 C9 1_555 1_555
H18 C9 1_555 1_555
B11 B3 1_555 1_555
H19 B11 1_555 1_555
N2 C11 1_555 1_555
C10 H20 1_555 1_555
H21 C10 1_555 1_555
H22 C10 1_555 1_555
C11 C10 1_555 1_555
H23 C11 1_555 1_555
H24 C11 1_555 1_555
C12 N2 1_555 1_555
H25 C12 1_555 1_555
H26 C12 1_555 1_555
C13 C12 1_555 1_555
H27 C13 1_555 1_555
H28 C13 1_555 1_555
H29 C13 1_555 1_555
C14 N2 1_555 1_555
H30 C14 1_555 1_555
H31 C14 1_555 1_555
C15 N2 1_555 1_555
H32 C15 1_555 1_555
H33 C15 1_555 1_555
C16 C15 1_555 1_555
H34 C16 1_555 1_555
H35 C16 1_555 1_555
H36 C16 1_555 1_555
C17 C14 1_555 1_555
H37 C17 1_555 1_555
H38 C17 1_555 1_555
H39 C17 1_555 1_555
B1 B2 1_555 1_555
B1 B4 1_555 1_555
B2 B3 1_555 1_555
B2 B5 1_555 1_555
C7 C8 1_555 1_555
B3 B8 1_555 1_555
B3 B10 1_555 1_555
B4 B7 1_555 1_555
B4 B8 1_555 1_555
B5 B7 1_555 1_555
B5 B10 1_555 1_555
B6 B7 1_555 1_555
B6 B9 1_555 1_555
B6 B10 1_555 1_555
B6 B11 1_555 1_555
B7 B9 1_555 1_555
B8 B9 1_555 1_555
B8 B11 1_555 1_555
B9 B11 1_555 1_555
B10 B11 1_555 1_555

#END
