
#######################################################################
#
#                 Cambridge Crystallographic Data Centre
#                                CCDC 
#
#######################################################################
#
# If this CIF has been generated from an entry in the Cambridge 
# Structural Database, then it will include bibliographic, chemical, 
# crystal, experimental, refinement or atomic coordinate data resulting 
# from the CCDC's data processing and validation procedures.
#
#######################################################################

data_ECEKOM
_chemical_formula_moiety         'C22 H28 B1 N3 O4'
_chemical_name_systematic        
2-Phenyl-5-(3a,5,5-trimethylhexahydro-4,6-methano-1,3,2-benzodioxaborol-2-yl)-tetrahydro-1H-1,2,4-triazolo(1,2-a)pyrazine-1,3(2H)-dione
_symmetry_cell_setting           orthorhombic
_symmetry_space_group_name_H-M   'P 21 21 21'
_symmetry_Int_Tables_number      19
_space_group_name_Hall           'P 2ac 2ab'
loop_
_symmetry_equiv_pos_site_id
_symmetry_equiv_pos_as_xyz
1 x,y,z
2 1/2-x,-y,1/2+z
3 1/2+x,1/2-y,-z
4 -x,1/2+y,1/2-z
_cell_length_a                   8.612(2)
_cell_length_b                   35.10(1)
_cell_length_c                   6.846(4)
_cell_angle_alpha                90
_cell_angle_beta                 90
_cell_angle_gamma                90
_cell_volume                     2069.42
_exptl_crystal_colour            colorless
_exptl_crystal_description       prismatic
_chemical_melting_point          237.1-238.4deg.C
_cell_formula_units_Z            4
_exptl_crystal_recrystallization_method 'diethyl ether'
loop_
_atom_site_label
_atom_site_type_symbol
_atom_site_fract_x
_atom_site_fract_y
_atom_site_fract_z
O1 O 0.7394(8) 0.0988(2) 0.1878(10)
O2 O 1.0454(9) 0.0425(2) -0.282(1)
O3 O 0.9310(8) 0.1744(2) 0.3335(10)
O4 O 0.9214(7) 0.1379(2) 0.609(1)
N1 N 0.851(1) 0.0661(2) -0.071(1)
N2 N 1.0939(9) 0.0784(2) -0.004(1)
N3 N 1.0017(9) 0.1015(2) 0.117(1)
C1 C 0.850(1) 0.0890(3) 0.088(1)
C2 C 1.003(1) 0.0605(3) -0.140(2)
C3 C 0.718(1) 0.0496(3) -0.164(2)
C4 C 0.617(1) 0.0256(3) -0.064(2)
C5 C 0.491(1) 0.0092(3) -0.157(2)
C6 C 0.465(1) 0.0179(3) -0.351(2)
C7 C 0.561(2) 0.0411(3) -0.451(2)
C8 C 0.691(1) 0.0568(3) -0.354(2)
C9 C 1.248(1) 0.0933(3) -0.042(2)
C10 C 1.328(1) 0.0990(4) 0.152(2)
C11 C 1.229(1) 0.1239(3) 0.281(2)
C12 C 1.062(1) 0.1088(3) 0.311(1)
C13 C 0.850(1) 0.1973(3) 0.475(1)
C14 C 0.858(1) 0.1750(3) 0.670(2)
C15 C 0.697(1) 0.1675(3) 0.752(2)
C16 C 0.593(1) 0.2046(3) 0.751(1)
C17 C 0.559(1) 0.1941(4) 0.537(2)
C18 C 0.687(1) 0.2084(3) 0.400(2)
C19 C 0.591(1) 0.1533(3) 0.585(2)
C20 C 0.449(1) 0.1995(3) 0.886(2)
C21 C 0.659(1) 0.2432(3) 0.797(2)
C22 C 0.970(1) 0.1901(3) 0.820(2)
B1 B 0.964(1) 0.1398(4) 0.415(2)
H1 H 0.6363 0.0198 0.0755
H2 H 0.4188 -0.0153 -0.0787
H3 H 0.3784 0.0066 -0.4480
H4 H 0.5398 0.0465 -0.5925
H5 H 0.7624 0.0735 -0.4325
H6 H 1.2464 0.1192 -0.1102
H7 H 1.3106 0.0781 -0.1302
H8 H 1.3310 0.0739 0.2097
H9 H 1.4312 0.1076 0.1348
H10 H 1.2259 0.1501 0.2163
H11 H 1.2845 0.1291 0.4016
H12 H 1.0658 0.0847 0.3847
H13 H 0.9110 0.2214 0.4893
H14 H 0.6972 0.1468 0.8799
H15 H 0.4501 0.1995 0.4922
H16 H 0.6743 0.2350 0.3859
H17 H 0.6689 0.1965 0.2748
H18 H 0.6493 0.1394 0.4793
H19 H 0.5075 0.1371 0.6186
H20 H 0.3939 0.1771 0.8558
H21 H 0.4791 0.1982 1.0236
H22 H 0.3797 0.2210 0.8750
H23 H 0.5872 0.2623 0.8086
H24 H 0.7237 0.2425 0.9164
H25 H 0.7351 0.2505 0.6940
H26 H 0.9662 0.1753 0.9386
H27 H 0.9429 0.2161 0.8563
H28 H 1.0739 0.1903 0.7740
loop_
_geom_bond_atom_site_label_1
_geom_bond_atom_site_label_2
_geom_bond_site_symmetry_1
_geom_bond_site_symmetry_2
O1 C1 1_555 1_555
O2 C2 1_555 1_555
O3 C13 1_555 1_555
O4 C14 1_555 1_555
N1 C1 1_555 1_555
N2 N3 1_555 1_555
N3 C1 1_555 1_555
C2 N1 1_555 1_555
C3 N1 1_555 1_555
C4 C3 1_555 1_555
C5 C4 1_555 1_555
C6 C5 1_555 1_555
C7 C6 1_555 1_555
C8 C3 1_555 1_555
C9 N2 1_555 1_555
C10 C9 1_555 1_555
C11 C10 1_555 1_555
C12 N3 1_555 1_555
C13 C14 1_555 1_555
C14 C15 1_555 1_555
C15 C16 1_555 1_555
C16 C17 1_555 1_555
C17 C18 1_555 1_555
C18 C13 1_555 1_555
C19 C15 1_555 1_555
C20 C16 1_555 1_555
C21 C16 1_555 1_555
C22 C14 1_555 1_555
B1 O3 1_555 1_555
H1 C4 1_555 1_555
H2 C5 1_555 1_555
H3 C6 1_555 1_555
H4 C7 1_555 1_555
H5 C8 1_555 1_555
H6 C9 1_555 1_555
H7 C9 1_555 1_555
H8 C10 1_555 1_555
H9 C10 1_555 1_555
H10 C11 1_555 1_555
H11 C11 1_555 1_555
H12 C12 1_555 1_555
H13 C13 1_555 1_555
H14 C15 1_555 1_555
H15 C17 1_555 1_555
H16 C18 1_555 1_555
H17 C18 1_555 1_555
H18 C19 1_555 1_555
H19 C19 1_555 1_555
H20 C20 1_555 1_555
H21 C20 1_555 1_555
H22 C20 1_555 1_555
H23 C21 1_555 1_555
H24 C21 1_555 1_555
H25 C21 1_555 1_555
H26 C22 1_555 1_555
H27 C22 1_555 1_555
H28 C22 1_555 1_555
O4 B1 1_555 1_555
N2 C2 1_555 1_555
C7 C8 1_555 1_555
C11 C12 1_555 1_555
C12 B1 1_555 1_555
C17 C19 1_555 1_555

#END
