
#######################################################################
#
#                 Cambridge Crystallographic Data Centre
#                                CCDC 
#
#######################################################################
#
# If this CIF has been generated from an entry in the Cambridge 
# Structural Database, then it will include bibliographic, chemical, 
# crystal, experimental, refinement or atomic coordinate data resulting 
# from the CCDC's data processing and validation procedures.
#
#######################################################################

data_ECEKUV
_chemical_formula_moiety         'C26 H19 B1 Br2 F2 N2 O1 S1'
_chemical_name_systematic        
'difluoro{methyl N-[2-(6,8-dibromo-2-methylquinolin-3-yl)phenyl]-3-oxy-3-phenylprop-2-enimidothioatato}boron'
_symmetry_cell_setting           monoclinic
_symmetry_space_group_name_H-M   'P 21/n'
_symmetry_Int_Tables_number      14
_space_group_name_Hall           '-P 2yn'
loop_
_symmetry_equiv_pos_site_id
_symmetry_equiv_pos_as_xyz
1 x,y,z
2 1/2-x,1/2+y,1/2-z
3 -x,-y,-z
4 1/2+x,1/2-y,1/2+z
_cell_length_a                   11.7213(9)
_cell_length_b                   17.5459(12)
_cell_length_c                   13.6646(10)
_cell_angle_alpha                90
_cell_angle_beta                 111.613(2)
_cell_angle_gamma                90
_cell_volume                     2612.69
_cell_formula_units_Z            4
_chemical_properties_physical    Air-sensitive
loop_
_atom_site_label
_atom_site_type_symbol
_atom_site_fract_x
_atom_site_fract_y
_atom_site_fract_z
S1 S 0.92292(9) 0.08607(6) 0.95782(8)
Br1 Br 1.23212(5) 0.38540(3) 0.74032(5)
Br2 Br 0.76805(5) 0.38936(3) 0.41698(4)
B1 B 0.5775(4) 0.1660(3) 0.7866(3)
C1 C 0.9937(3) 0.3732(2) 0.5841(3)
H1 H 1.0146 0.4176 0.5574
C2 C 0.8818(3) 0.3404(2) 0.5355(3)
C3 C 0.8479(3) 0.27202(19) 0.5724(3)
C4 C 0.9330(3) 0.24059(18) 0.6665(3)
C5 C 1.0487(3) 0.27518(19) 0.7176(3)
H2 H 1.1046 0.2546 0.7794
C6 C 1.0769(3) 0.3389(2) 0.6751(3)
C7 C 0.8976(3) 0.17256(18) 0.7029(3)
H3 H 0.9497 0.1507 0.7654
C8 C 0.7889(3) 0.1388(2) 0.6481(3)
C9 C 0.7101(3) 0.1740(2) 0.5531(3)
C10 C 0.5885(4) 0.1396(3) 0.4859(3)
H4 H 0.5493 0.1717 0.4259
H5 H 0.5371 0.1354 0.5264
H6 H 0.6017 0.0900 0.4625
C11 C 0.7534(3) 0.06459(19) 0.6821(3)
C12 C 0.7562(4) -0.0025(2) 0.6285(3)
H7 H 0.7822 -0.0004 0.5719
C13 C 0.7219(4) -0.0714(2) 0.6562(4)
H8 H 0.7255 -0.1152 0.6192
C14 C 0.6824(4) -0.0755(2) 0.7384(3)
H9 H 0.6576 -0.1220 0.7566
C15 C 0.6794(3) -0.0110(2) 0.7942(3)
H10 H 0.6530 -0.0140 0.8505
C16 C 0.7156(3) 0.05851(19) 0.7671(3)
C17 C 0.7920(3) 0.14306(19) 0.9161(3)
C18 C 0.7758(3) 0.2046(2) 0.9756(3)
H11 H 0.8391 0.2182 1.0377
C19 C 0.6694(3) 0.24424(19) 0.9437(3)
C20 C 1.0190(4) 0.1281(3) 1.0802(4)
H12 H 1.0941 0.0997 1.1089
H13 H 0.9772 0.1272 1.1288
H14 H 1.0372 0.1799 1.0683
C21 C 0.6439(3) 0.30873(19) 1.0015(3)
C22 C 0.7348(3) 0.3428(2) 1.0857(3)
H15 H 0.8149 0.3246 1.1075
C23 C 0.7077(4) 0.4037(2) 1.1378(3)
H16 H 0.7691 0.4260 1.1947
C24 C 0.5904(4) 0.4309(2) 1.1052(3)
H17 H 0.5720 0.4717 1.1402
C25 C 0.4994(4) 0.3981(2) 1.0208(3)
H18 H 0.4198 0.4171 0.9988
C26 C 0.5255(3) 0.3376(2) 0.9690(3)
H19 H 0.4636 0.3158 0.9119
N1 N 0.7377(3) 0.23917(18) 0.5178(2)
N2 N 0.7052(2) 0.12535(15) 0.8251(2)
O1 O 0.5788(2) 0.22726(16) 0.8558(2)
F1 F 0.5486(3) 0.1924(2) 0.68791(19)
F2 F 0.4906(2) 0.11474(17) 0.7865(3)
loop_
_geom_bond_atom_site_label_1
_geom_bond_atom_site_label_2
_geom_bond_site_symmetry_1
_geom_bond_site_symmetry_2
S1 C17 1_555 1_555
Br1 C6 1_555 1_555
Br2 C2 1_555 1_555
B1 N2 1_555 1_555
C1 H1 1_555 1_555
C2 C1 1_555 1_555
C3 C2 1_555 1_555
C4 C3 1_555 1_555
C5 C4 1_555 1_555
H2 C5 1_555 1_555
C6 C1 1_555 1_555
C7 C4 1_555 1_555
H3 C7 1_555 1_555
C8 C7 1_555 1_555
C9 C8 1_555 1_555
C10 C9 1_555 1_555
H4 C10 1_555 1_555
H5 C10 1_555 1_555
H6 C10 1_555 1_555
C11 C8 1_555 1_555
C12 C11 1_555 1_555
H7 C12 1_555 1_555
C13 C12 1_555 1_555
H8 C13 1_555 1_555
C14 C13 1_555 1_555
H9 C14 1_555 1_555
C15 C14 1_555 1_555
H10 C15 1_555 1_555
C16 C11 1_555 1_555
C17 C18 1_555 1_555
C18 H11 1_555 1_555
C19 C18 1_555 1_555
C20 S1 1_555 1_555
H12 C20 1_555 1_555
H13 C20 1_555 1_555
H14 C20 1_555 1_555
C21 C19 1_555 1_555
C22 C21 1_555 1_555
H15 C22 1_555 1_555
C23 C22 1_555 1_555
H16 C23 1_555 1_555
C24 C23 1_555 1_555
H17 C24 1_555 1_555
C25 C24 1_555 1_555
H18 C25 1_555 1_555
C26 C21 1_555 1_555
H19 C26 1_555 1_555
N1 C3 1_555 1_555
N2 C16 1_555 1_555
O1 B1 1_555 1_555
F1 B1 1_555 1_555
F2 B1 1_555 1_555
C5 C6 1_555 1_555
C9 N1 1_555 1_555
C15 C16 1_555 1_555
C17 N2 1_555 1_555
C19 O1 1_555 1_555
C25 C26 1_555 1_555

#END
