
#######################################################################
#
#                 Cambridge Crystallographic Data Centre
#                                CCDC 
#
#######################################################################
#
# If this CIF has been generated from an entry in the Cambridge 
# Structural Database, then it will include bibliographic, chemical, 
# crystal, experimental, refinement or atomic coordinate data resulting 
# from the CCDC's data processing and validation procedures.
#
#######################################################################

data_ECEPEJ
_chemical_formula_moiety         'C15 H26 O2'
_chemical_name_systematic        
1,4,4,6-Tetramethyldecahydrocyclobuta[d]indene-1,3-diol
_symmetry_cell_setting           orthorhombic
_symmetry_space_group_name_H-M   'P 21 21 21'
_symmetry_Int_Tables_number      19
_space_group_name_Hall           'P 2ac 2ab'
loop_
_symmetry_equiv_pos_site_id
_symmetry_equiv_pos_as_xyz
1 x,y,z
2 1/2+x,1/2-y,-z
3 -x,1/2+y,1/2-z
4 1/2-x,-y,1/2+z
_cell_length_a                   8.2769(3)
_cell_length_b                   12.3605(4)
_cell_length_c                   13.4157(4)
_cell_angle_alpha                90
_cell_angle_beta                 90
_cell_angle_gamma                90
_cell_volume                     1372.51
_exptl_crystal_colour            colorless
_exptl_crystal_description       prism
_cell_formula_units_Z            4
loop_
_atom_site_label
_atom_site_type_symbol
_atom_site_fract_x
_atom_site_fract_y
_atom_site_fract_z
O1 O 1.01762(13) 0.79681(8) 0.92090(7)
H1 H 0.9276 0.7662 0.9269
C1 C 1.15710(19) 0.96243(12) 0.91413(11)
H2 H 1.1945 0.9518 0.9827
H3 H 1.1487 1.0401 0.9002
H4 H 1.2343 0.9294 0.8678
O2 O 0.70474(12) 0.75081(8) 0.92291(8)
H5 H 0.6474 0.7347 0.9724
C2 C 0.4752(2) 0.70699(12) 0.76397(12)
H6 H 0.3717 0.7337 0.7895
H7 H 0.5154 0.6492 0.8074
H8 H 0.4602 0.6787 0.6964
C3 C 0.59764(17) 0.79978(10) 0.76177(10)
C4 C 0.75808(17) 0.75849(11) 0.71759(10)
H9 H 0.7395 0.7401 0.6467
H10 H 0.7876 0.6907 0.7524
C5 C 0.90378(16) 0.83641(10) 0.72324(9)
H11 H 0.9999 0.7915 0.7412
C6 C 0.89269(16) 0.92792(10) 0.80243(9)
C7 C 0.99346(17) 0.91009(11) 0.90119(9)
C8 C 0.52676(18) 0.89228(11) 0.69935(11)
H12 H 0.4948 0.8646 0.6338
H13 H 0.6082 0.9491 0.6910
H14 H 0.4319 0.9222 0.7333
C9 C 0.63050(17) 0.83853(11) 0.86915(10)
H15 H 0.5254 0.8571 0.9017
C10 C 0.73835(17) 0.93842(10) 0.86857(10)
H16 H 0.6758 1.0053 0.8522
C11 C 0.84913(19) 0.95556(11) 0.96048(10)
H17 H 0.8619 1.0324 0.9797
H18 H 0.8187 0.9109 1.0188
C12 C 0.94476(18) 0.89349(11) 0.62337(10)
H19 H 0.8413 0.9147 0.5902
C13 C 1.0402(2) 0.82190(14) 0.55209(11)
H20 H 1.0592 0.8610 0.4896
H21 H 0.9787 0.7558 0.5383
H22 H 1.1440 0.8028 0.5825
C14 C 1.03227(19) 0.99624(11) 0.65606(11)
H23 H 1.1452 0.9808 0.6757
H24 H 1.0319 1.0514 0.6026
C15 C 0.93154(17) 1.03264(10) 0.74525(10)
H25 H 0.8311 1.0688 0.7229
H26 H 0.9935 1.0834 0.7877
loop_
_geom_bond_atom_site_label_1
_geom_bond_atom_site_label_2
_geom_bond_site_symmetry_1
_geom_bond_site_symmetry_2
O1 H1 1_555 1_555
C1 H2 1_555 1_555
H3 C1 1_555 1_555
H4 C1 1_555 1_555
O2 H5 1_555 1_555
C2 H6 1_555 1_555
H7 C2 1_555 1_555
H8 C2 1_555 1_555
C3 C2 1_555 1_555
C4 C3 1_555 1_555
H9 C4 1_555 1_555
H10 C4 1_555 1_555
C5 C4 1_555 1_555
H11 C5 1_555 1_555
C6 C5 1_555 1_555
C7 O1 1_555 1_555
C8 C3 1_555 1_555
H12 C8 1_555 1_555
H13 C8 1_555 1_555
H14 C8 1_555 1_555
C9 O2 1_555 1_555
H15 C9 1_555 1_555
C10 C6 1_555 1_555
H16 C10 1_555 1_555
C11 C7 1_555 1_555
H17 C11 1_555 1_555
H18 C11 1_555 1_555
C12 C5 1_555 1_555
H19 C12 1_555 1_555
C13 C12 1_555 1_555
H20 C13 1_555 1_555
H21 C13 1_555 1_555
H22 C13 1_555 1_555
C14 C12 1_555 1_555
H23 C14 1_555 1_555
H24 C14 1_555 1_555
C15 C6 1_555 1_555
H25 C15 1_555 1_555
H26 C15 1_555 1_555
C1 C7 1_555 1_555
C3 C9 1_555 1_555
C6 C7 1_555 1_555
C9 C10 1_555 1_555
C10 C11 1_555 1_555
C14 C15 1_555 1_555

#END
