
#######################################################################
#
#                 Cambridge Crystallographic Data Centre
#                                CCDC 
#
#######################################################################
#
# If this CIF has been generated from an entry in the Cambridge 
# Structural Database, then it will include bibliographic, chemical, 
# crystal, experimental, refinement or atomic coordinate data resulting 
# from the CCDC's data processing and validation procedures.
#
#######################################################################

data_ECEZUJ
_chemical_name_common            'Diatrizoic acid dimethyl sulfoxide solvate'
_chemical_formula_moiety         'C11 H9 I3 N2 O4,2(C2 H6 O1 S1)'
_chemical_name_systematic        
'3,5-Diacetamido-2,4,6-triiodobenzoic acid dimethyl sulfoxide solvate'
_symmetry_cell_setting           orthorhombic
_symmetry_space_group_name_H-M   'P b c a'
_symmetry_Int_Tables_number      61
_space_group_name_Hall           '-P 2ac 2ab'
loop_
_symmetry_equiv_pos_site_id
_symmetry_equiv_pos_as_xyz
1 x,y,z
2 1/2+x,1/2-y,-z
3 -x,1/2+y,1/2-z
4 1/2-x,-y,1/2+z
5 -x,-y,-z
6 1/2-x,1/2+y,z
7 x,1/2-y,1/2+z
8 1/2+x,y,1/2-z
_cell_length_a                   15.845(2)
_cell_length_b                   9.1061(13)
_cell_length_c                   32.832(4)
_cell_angle_alpha                90
_cell_angle_beta                 90
_cell_angle_gamma                90
_cell_volume                     4737.2
_cell_formula_units_Z            8
loop_
_atom_site_label
_atom_site_type_symbol
_atom_site_fract_x
_atom_site_fract_y
_atom_site_fract_z
H1 H 0.417(9) 0.168(7) 0.5001(4)
H2 H 0.5295(7) 0.5868(14) 0.3333(3)
H3 H 0.3093(7) 0.0820(15) 0.3132(4)
H4 H 0.6495(11) 0.634(7) 0.304(3)
H5 H 0.720(4) 0.604(9) 0.3382(6)
H6 H 0.715(5) 0.502(3) 0.299(2)
H7 H 0.209(4) 0.068(4) 0.268(2)
H8 H 0.1273(16) 0.161(9) 0.2811(15)
H9 H 0.187(5) 0.217(6) 0.2451(9)
C1 C 0.3874(8) 0.2899(16) 0.4606(4)
C2 C 0.3981(8) 0.3106(16) 0.4157(4)
C3 C 0.4640(9) 0.3970(16) 0.3996(4)
C4 C 0.4789(8) 0.4081(17) 0.3583(4)
C5 C 0.4245(8) 0.3259(17) 0.3320(5)
C6 C 0.3580(8) 0.2465(16) 0.3474(4)
C7 C 0.3448(8) 0.2354(15) 0.3886(4)
C8 C 0.6232(10) 0.4580(19) 0.3401(5)
C9 C 0.6819(10) 0.5579(19) 0.3185(5)
C10 C 0.2378(9) 0.2506(16) 0.3017(5)
C11 C 0.1857(9) 0.1669(17) 0.2715(5)
N1 N 0.5433(7) 0.4989(14) 0.3423(3)
N2 N 0.3019(7) 0.1754(15) 0.3192(4)
O1 O 0.4199(6) 0.1685(12) 0.4745(3)
O2 O 0.3505(6) 0.3839(12) 0.4823(3)
O3 O 0.6487(6) 0.3368(13) 0.3546(4)
O4 O 0.2221(7) 0.3793(13) 0.3105(4)
I1 I 0.54218(6) 0.51320(11) 0.44114(3)
I2 I 0.45682(6) 0.31820(11) 0.27011(3)
I3 I 0.24515(6) 0.11147(11) 0.41177(3)
H10 H 0.6213(18) 0.929(3) 0.351(3)
H11 H 0.603(3) 1.045(11) 0.3153(9)
H12 H 0.5798(16) 1.084(8) 0.362(2)
H13 H 0.3955(12) 0.896(11) 0.3890(8)
H14 H 0.475(6) 0.789(4) 0.3914(10)
H15 H 0.485(5) 0.959(7) 0.4030(5)
C12 C 0.5825(10) 1.005(2) 0.3413(5)
C13 C 0.4567(10) 0.8887(18) 0.3850(5)
O5 O 0.4942(6) 0.7823(11) 0.3144(3)
S1 S 0.4812(3) 0.9292(4) 0.33457(13)
H16 H 0.2364(10) -0.087(10) 0.548(2)
H17 H 0.268(3) -0.243(2) 0.565(3)
H18 H 0.270(2) -0.102(11) 0.5939(13)
H19 H 0.326(5) -0.113(8) 0.4855(12)
H20 H 0.424(2) -0.156(11) 0.4854(12)
H21 H 0.356(7) -0.271(3) 0.5015(5)
C14 C 0.2772(10) -0.136(2) 0.5658(6)
C15 C 0.3709(11) -0.167(2) 0.5000(5)
O6 O 0.3862(8) 0.0675(13) 0.5439(4)
S2 S 0.3812(3) -0.0957(5) 0.54912(13)
loop_
_geom_bond_atom_site_label_1
_geom_bond_atom_site_label_2
_geom_bond_site_symmetry_1
_geom_bond_site_symmetry_2
H1 O1 1_555 1_555
H2 N1 1_555 1_555
H3 N2 1_555 1_555
H4 C9 1_555 1_555
H5 C9 1_555 1_555
H6 C9 1_555 1_555
H7 C11 1_555 1_555
H8 C11 1_555 1_555
H9 C11 1_555 1_555
C1 C2 1_555 1_555
C2 C3 1_555 1_555
C3 C4 1_555 1_555
C4 C5 1_555 1_555
C5 C6 1_555 1_555
C6 C7 1_555 1_555
C7 C2 1_555 1_555
C8 C9 1_555 1_555
C10 C11 1_555 1_555
N1 C4 1_555 1_555
N2 C6 1_555 1_555
O1 C1 1_555 1_555
O2 C1 1_555 1_555
O3 C8 1_555 1_555
O4 C10 1_555 1_555
I1 C3 1_555 1_555
I2 C5 1_555 1_555
I3 C7 1_555 1_555
H10 C12 1_555 1_555
H11 C12 1_555 1_555
H12 C12 1_555 1_555
H13 C13 1_555 1_555
H14 C13 1_555 1_555
H15 C13 1_555 1_555
C12 S1 1_555 1_555
C13 S1 1_555 1_555
O5 S1 1_555 1_555
H16 C14 1_555 1_555
H17 C14 1_555 1_555
H18 C14 1_555 1_555
H19 C15 1_555 1_555
H20 C15 1_555 1_555
H21 C15 1_555 1_555
C14 S2 1_555 1_555
C15 S2 1_555 1_555
O6 S2 1_555 1_555
C8 N1 1_555 1_555
C10 N2 1_555 1_555

#END
