
#######################################################################
#
#                 Cambridge Crystallographic Data Centre
#                                CCDC 
#
#######################################################################
#
# If this CIF has been generated from an entry in the Cambridge 
# Structural Database, then it will include bibliographic, chemical, 
# crystal, experimental, refinement or atomic coordinate data resulting 
# from the CCDC's data processing and validation procedures.
#
#######################################################################

data_ECIBOJ
_chemical_formula_moiety         'C11 H12 O5'
_chemical_name_systematic        'Dimethyl 4-hydroxy-6-methylisophthalate'
_symmetry_cell_setting           orthorhombic
_symmetry_space_group_name_H-M   'P c a 21'
_symmetry_Int_Tables_number      29
_space_group_name_Hall           'P 2c -2ac'
loop_
_symmetry_equiv_pos_site_id
_symmetry_equiv_pos_as_xyz
1 x,y,z
2 -x,-y,1/2+z
3 1/2-x,y,1/2+z
4 1/2+x,-y,z
_cell_length_a                   20.4479(17)
_cell_length_b                   3.9674(3)
_cell_length_c                   13.2324(12)
_cell_angle_alpha                90
_cell_angle_beta                 90
_cell_angle_gamma                90
_cell_volume                     1073.48
_exptl_crystal_colour            colorless
_exptl_crystal_description       acicular
_cell_formula_units_Z            4
loop_
_atom_site_label
_atom_site_type_symbol
_atom_site_fract_x
_atom_site_fract_y
_atom_site_fract_z
O1 O 0.53464(11) -0.0081(7) 0.6421(3)
H1 H 0.5139 0.0738 0.6891
O2 O 0.51795(10) 0.2646(8) 0.8198(2)
O3 O 0.60494(9) 0.4293(5) 0.90750(17)
O4 O 0.84839(12) 0.0193(8) 0.6558(3)
O5 O 0.81831(10) 0.2692(6) 0.7970(2)
C1 C 0.56175(17) 0.5475(8) 0.9872(3)
H2 H 0.5342 0.7236 0.9614
H3 H 0.5874 0.6329 1.0423
H4 H 0.5351 0.3640 1.0105
C2 C 0.57721(13) 0.2911(7) 0.8272(2)
C3 C 0.62339(13) 0.1720(6) 0.7503(2)
C4 C 0.59956(15) 0.0264(7) 0.6603(3)
C5 C 0.6434(2) -0.0836(8) 0.5887(3)
H5 H 0.6272 -0.1772 0.5294
C6 C 0.70990(17) -0.0619(7) 0.6007(3)
C7 C 0.7532(2) -0.1909(8) 0.5184(3)
H6 H 0.7783 -0.3781 0.5431
H7 H 0.7823 -0.0148 0.4969
H8 H 0.7269 -0.2627 0.4623
C8 C 0.73433(13) 0.0844(6) 0.6902(2)
C9 C 0.69040(13) 0.1989(6) 0.7632(3)
H9 H 0.7066 0.2959 0.8221
C10 C 0.80507(14) 0.1150(7) 0.7098(3)
C11 C 0.88595(14) 0.3275(11) 0.8191(4)
H10 H 0.9081 0.3985 0.7588
H11 H 0.9054 0.1232 0.8436
H12 H 0.8896 0.5000 0.8696
loop_
_geom_bond_atom_site_label_1
_geom_bond_atom_site_label_2
_geom_bond_site_symmetry_1
_geom_bond_site_symmetry_2
O1 H1 1_555 1_555
O2 C2 1_555 1_555
O3 C1 1_555 1_555
O4 C10 1_555 1_555
O5 C10 1_555 1_555
C1 H2 1_555 1_555
H3 C1 1_555 1_555
H4 C1 1_555 1_555
C2 O3 1_555 1_555
C3 C2 1_555 1_555
C4 O1 1_555 1_555
C5 C4 1_555 1_555
H5 C5 1_555 1_555
C6 C5 1_555 1_555
C7 C6 1_555 1_555
H6 C7 1_555 1_555
H7 C7 1_555 1_555
H8 C7 1_555 1_555
C8 C6 1_555 1_555
C9 C3 1_555 1_555
H9 C9 1_555 1_555
C10 C8 1_555 1_555
C11 O5 1_555 1_555
H10 C11 1_555 1_555
H11 C11 1_555 1_555
H12 C11 1_555 1_555
C3 C4 1_555 1_555
C8 C9 1_555 1_555

#END
