
#######################################################################
#
#                 Cambridge Crystallographic Data Centre
#                                CCDC 
#
#######################################################################
#
# If this CIF has been generated from an entry in the Cambridge 
# Structural Database, then it will include bibliographic, chemical, 
# crystal, experimental, refinement or atomic coordinate data resulting 
# from the CCDC's data processing and validation procedures.
#
#######################################################################

data_ECOBOQ
_chemical_formula_moiety         'C21 H32 O7,3(H2 O1)'
_chemical_name_systematic        
'4a,5-dimethyl-3-(1-((3,4,5-trihydroxy-6-(hydroxymethyl)tetrahydro-2H-pyran-2-yl)oxy)prop-1-en-2-yl)-4,4a,5,6,7,8-hexahydronaphthalen-2(3H)-one trihydrate'
_symmetry_cell_setting           monoclinic
_symmetry_space_group_name_H-M   'P 21'
_symmetry_Int_Tables_number      4
_space_group_name_Hall           'P 2yb'
loop_
_symmetry_equiv_pos_site_id
_symmetry_equiv_pos_as_xyz
1 x,y,z
2 -x,1/2+y,-z
_cell_length_a                   7.412(2)
_cell_length_b                   7.943(3)
_cell_length_c                   20.031(7)
_cell_angle_alpha                90
_cell_angle_beta                 92.45(3)
_cell_angle_gamma                90
_cell_volume                     1178.22
_cell_formula_units_Z            2
loop_
_atom_site_label
_atom_site_type_symbol
_atom_site_fract_x
_atom_site_fract_y
_atom_site_fract_z
O1 O -0.1240(11) -0.2350(8) 0.2563(4)
O2 O 0.0283(7) 0.2967(6) 0.2962(2)
O3 O 0.2629(7) 0.4748(7) 0.3181(2)
O4 O 0.3817(7) 0.7443(6) 0.4613(2)
H1 H 0.4458 0.8174 0.4457
O5 O -0.0050(7) 0.6957(7) 0.4730(2)
H2 H -0.0206 0.7811 0.4505
O6 O -0.1257(8) 0.3826(7) 0.4191(2)
H3 H -0.2244 0.3976 0.4000
O7 O 0.4730(15) 0.7854(17) 0.2972(5)
H4 H 0.5622 0.8397 0.2875
C1 C 0.4299(9) -0.2677(9) 0.1156(4)
H5 H 0.4441 -0.2504 0.1640
C2 C 0.5053(13) -0.4447(10) 0.1015(5)
H6 H 0.5113 -0.4580 0.0535
H7 H 0.6278 -0.4508 0.1204
C3 C 0.3984(13) -0.5927(11) 0.1285(5)
H8 H 0.4471 -0.6977 0.1123
H9 H 0.4097 -0.5936 0.1770
C4 C 0.2025(11) -0.5778(9) 0.1064(5)
H10 H 0.1892 -0.5890 0.0582
H11 H 0.1330 -0.6663 0.1266
C5 C 0.1367(10) -0.4119(9) 0.1271(4)
C6 C 0.2235(8) -0.2596(8) 0.0978(3)
C7 C 0.1338(11) -0.0918(9) 0.1210(3)
H12 H 0.2113 0.0020 0.1104
H13 H 0.0196 -0.0768 0.0963
C8 C 0.1001(10) -0.0885(8) 0.1968(3)
H14 H 0.2172 -0.1017 0.2209
C9 C -0.0153(11) -0.2387(9) 0.2136(4)
C10 C 0.0242(12) -0.3947(9) 0.1775(4)
H15 H -0.0348 -0.4915 0.1909
C11 C 0.1919(11) -0.2619(11) 0.0196(3)
H16 H 0.2707 -0.3433 0.0007
H17 H 0.2170 -0.1525 0.0019
H18 H 0.0686 -0.2914 0.0085
C12 C 0.5348(14) -0.1348(12) 0.0844(5)
H19 H 0.4898 -0.1179 0.0392
H20 H 0.6595 -0.1676 0.0843
H21 H 0.5239 -0.0321 0.1091
C13 C 0.0164(9) 0.0776(10) 0.2201(3)
C14 C -0.1630(11) 0.1284(10) 0.1917(5)
H22 H -0.2534 0.0532 0.2074
H23 H -0.1628 0.1236 0.1438
H24 H -0.1892 0.2412 0.2055
C15 C 0.1036(12) 0.1555(10) 0.2708(4)
H25 H 0.2131 0.1144 0.2883
C16 C 0.1359(11) 0.3743(9) 0.3473(3)
H26 H 0.1954 0.2892 0.3759
C17 C 0.3787(10) 0.5535(10) 0.3680(3)
H27 H 0.4326 0.4666 0.3973
C18 C 0.2702(9) 0.6733(10) 0.4094(3)
H28 H 0.2236 0.7642 0.3804
C19 C 0.1102(10) 0.5825(9) 0.4394(3)
H29 H 0.1595 0.5027 0.4727
C20 C 0.0073(10) 0.4850(9) 0.3885(4)
H30 H -0.0553 0.5640 0.3580
C21 C 0.5270(11) 0.6423(15) 0.3323(5)
H31 H 0.6213 0.6736 0.3650
H32 H 0.5789 0.5637 0.3014
O8 O 0.3383(7) 0.0863(7) 0.4673(3)
H33 H 0.4264 0.1312 0.4893
H34 H 0.2399 0.1077 0.4859
O9 O 0.8783(15) 0.9750(16) 0.3814(6)
H35 H 0.9555 1.0515 0.3908
H36 H 0.9056 0.9382 0.3433
O10 O 0.5855(16) 0.1465(17) 0.3545(6)
H37 H 0.6816 0.0903 0.3625
H38 H 0.5148 0.1296 0.3862
loop_
_geom_bond_atom_site_label_1
_geom_bond_atom_site_label_2
_geom_bond_site_symmetry_1
_geom_bond_site_symmetry_2
O1 C9 1_555 1_555
O2 C15 1_555 1_555
O3 C16 1_555 1_555
O4 H1 1_555 1_555
O5 H2 1_555 1_555
O6 H3 1_555 1_555
O7 H4 1_555 1_555
C1 H5 1_555 1_555
C2 C1 1_555 1_555
H6 C2 1_555 1_555
H7 C2 1_555 1_555
C3 C2 1_555 1_555
H8 C3 1_555 1_555
H9 C3 1_555 1_555
C4 C3 1_555 1_555
H10 C4 1_555 1_555
H11 C4 1_555 1_555
C5 C4 1_555 1_555
C6 C1 1_555 1_555
C7 C6 1_555 1_555
H12 C7 1_555 1_555
H13 C7 1_555 1_555
C8 C7 1_555 1_555
H14 C8 1_555 1_555
C9 C8 1_555 1_555
C10 C5 1_555 1_555
H15 C10 1_555 1_555
C11 C6 1_555 1_555
H16 C11 1_555 1_555
H17 C11 1_555 1_555
H18 C11 1_555 1_555
C12 C1 1_555 1_555
H19 C12 1_555 1_555
H20 C12 1_555 1_555
H21 C12 1_555 1_555
C13 C8 1_555 1_555
C14 C13 1_555 1_555
H22 C14 1_555 1_555
H23 C14 1_555 1_555
H24 C14 1_555 1_555
C15 C13 1_555 1_555
H25 C15 1_555 1_555
C16 O2 1_555 1_555
H26 C16 1_555 1_555
C17 O3 1_555 1_555
H27 C17 1_555 1_555
C18 O4 1_555 1_555
H28 C18 1_555 1_555
C19 O5 1_555 1_555
H29 C19 1_555 1_555
C20 O6 1_555 1_555
H30 C20 1_555 1_555
C21 O7 1_555 1_555
H31 C21 1_555 1_555
H32 C21 1_555 1_555
O8 H33 1_555 1_555
H34 O8 1_555 1_555
O9 H35 1_555 1_555
H36 O9 1_555 1_555
O10 H37 1_555 1_555
H38 O10 1_555 1_555
C5 C6 1_555 1_555
C9 C10 1_555 1_555
C16 C20 1_555 1_555
C17 C18 1_555 1_555
C17 C21 1_555 1_555
C18 C19 1_555 1_555
C19 C20 1_555 1_555

#END
