
#######################################################################
#
#                 Cambridge Crystallographic Data Centre
#                                CCDC 
#
#######################################################################
#
# If this CIF has been generated from an entry in the Cambridge 
# Structural Database, then it will include bibliographic, chemical, 
# crystal, experimental, refinement or atomic coordinate data resulting 
# from the CCDC's data processing and validation procedures.
#
#######################################################################

data_ECUMOF
_chemical_formula_moiety         'C13 H12 N2 O3'
_chemical_name_systematic        2'-Acetyl-2-hydroxynaphthohydrazide
_symmetry_cell_setting           monoclinic
_symmetry_space_group_name_H-M   'P 21/n'
_symmetry_Int_Tables_number      14
_space_group_name_Hall           '-P 2yn'
loop_
_symmetry_equiv_pos_site_id
_symmetry_equiv_pos_as_xyz
1 x,y,z
2 1/2-x,1/2+y,1/2-z
3 -x,-y,-z
4 1/2+x,1/2-y,1/2+z
_cell_length_a                   6.266(2)
_cell_length_b                   22.987(8)
_cell_length_c                   8.503(3)
_cell_angle_alpha                90
_cell_angle_beta                 101.329(5)
_cell_angle_gamma                90
_cell_volume                     1200.88
_exptl_crystal_colour            white
_exptl_crystal_description       block
_chemical_melting_point          '541-543 K'
_cell_formula_units_Z            4
_exptl_crystal_recrystallization_method DMF/methanol
loop_
_atom_site_label
_atom_site_type_symbol
_atom_site_fract_x
_atom_site_fract_y
_atom_site_fract_z
N1 N 0.2466(3) 0.00993(9) 0.2198(2)
O1 O -0.0894(3) 0.04576(7) 0.3333(2)
N2 N 0.4219(3) -0.02753(9) 0.2311(2)
C1 C 0.1907(3) 0.04474(10) 0.0934(3)
C2 C -0.3053(4) 0.12221(10) 0.1955(3)
H1 H -0.3940 0.1212 0.2712
C3 C 0.0021(3) 0.08477(9) 0.0942(2)
O2 O 0.2901(3) 0.04441(8) -0.01718(19)
C4 C 0.4633(4) -0.06334(11) 0.3560(3)
C5 C -0.1343(3) 0.08462(10) 0.2098(3)
C6 C -0.0404(4) 0.12420(10) -0.0287(3)
H2 H 0.0488 0.1247 -0.1042
C7 C -0.2134(4) 0.16386(10) -0.0450(3)
O3 O 0.3459(3) -0.06341(9) 0.4566(2)
C8 C -0.3507(4) 0.16258(10) 0.0689(3)
C9 C -0.5263(4) 0.20211(11) 0.0500(3)
H3 H -0.6209 0.2009 0.1217
C10 C 0.6579(4) -0.10168(13) 0.3672(3)
H4 H 0.7784 -0.0849 0.4404
H5 H 0.6944 -0.1054 0.2632
H6 H 0.6260 -0.1394 0.4053
C11 C -0.2537(4) 0.20553(13) -0.1694(4)
H7 H -0.1634 0.2071 -0.2440
C12 C -0.5600(5) 0.24172(13) -0.0701(4)
H8 H -0.6749 0.2679 -0.0787
C13 C -0.4229(5) 0.24347(14) -0.1815(4)
H9 H -0.4474 0.2706 -0.2641
H10 H 0.503(4) -0.0262(11) 0.145(3)
H11 H 0.165(4) 0.0054(10) 0.300(3)
H12 H -0.190(4) 0.0504(11) 0.400(3)
loop_
_geom_bond_atom_site_label_1
_geom_bond_atom_site_label_2
_geom_bond_site_symmetry_1
_geom_bond_site_symmetry_2
N1 N2 1_555 1_555
O1 C5 1_555 1_555
N2 C4 1_555 1_555
C1 N1 1_555 1_555
C2 H1 1_555 1_555
C3 C1 1_555 1_555
O2 C1 1_555 1_555
C4 O3 1_555 1_555
C5 C2 1_555 1_555
C6 C3 1_555 1_555
H2 C6 1_555 1_555
C7 C6 1_555 1_555
C8 C2 1_555 1_555
C9 C8 1_555 1_555
H3 C9 1_555 1_555
C10 C4 1_555 1_555
H4 C10 1_555 1_555
H5 C10 1_555 1_555
H6 C10 1_555 1_555
C11 C7 1_555 1_555
H7 C11 1_555 1_555
C12 C9 1_555 1_555
H8 C12 1_555 1_555
C13 C11 1_555 1_555
H9 C13 1_555 1_555
H10 N2 1_555 1_555
H11 N1 1_555 1_555
H12 O1 1_555 1_555
C3 C5 1_555 1_555
C7 C8 1_555 1_555
C12 C13 1_555 1_555

#END
