
#######################################################################
#
#                 Cambridge Crystallographic Data Centre
#                                CCDC 
#
#######################################################################
#
# If this CIF has been generated from an entry in the Cambridge 
# Structural Database, then it will include bibliographic, chemical, 
# crystal, experimental, refinement or atomic coordinate data resulting 
# from the CCDC's data processing and validation procedures.
#
#######################################################################

data_EDACOE
_chemical_formula_moiety         'C17 H16 O2'
_chemical_name_systematic        
'methyl 3-(4-methylphenyl)-2-phenylprop-2-enoate'
_symmetry_cell_setting           monoclinic
_symmetry_space_group_name_H-M   'P 21/n'
_symmetry_Int_Tables_number      14
_space_group_name_Hall           '-P 2yn'
loop_
_symmetry_equiv_pos_site_id
_symmetry_equiv_pos_as_xyz
1 x,y,z
2 1/2-x,1/2+y,1/2-z
3 -x,-y,-z
4 1/2+x,1/2-y,1/2+z
_cell_length_a                   8.0103(2)
_cell_length_b                   6.9176(2)
_cell_length_c                   24.3023(5)
_cell_angle_alpha                90
_cell_angle_beta                 95.1530(10)
_cell_angle_gamma                90
_cell_volume                     1341.2
_exptl_crystal_colour            colorless
_exptl_crystal_description       block
_cell_formula_units_Z            4
loop_
_atom_site_label
_atom_site_type_symbol
_atom_site_fract_x
_atom_site_fract_y
_atom_site_fract_z
C1 C 0.03613(16) 0.16604(19) 0.41220(5)
O1 O 0.37151(13) 0.33210(15) 0.45822(4)
C2 C -0.02476(18) -0.0220(2) 0.41589(5)
H1 H 0.0311 -0.1257 0.3997
O2 O 0.32013(12) 0.51167(13) 0.38190(4)
C3 C -0.16646(18) -0.0584(2) 0.44310(6)
H2 H -0.2061 -0.1872 0.4457
C4 C -0.25032(18) 0.0906(3) 0.46634(6)
H3 H -0.3478 0.0647 0.4846
C5 C -0.04819(18) 0.3159(2) 0.43670(5)
H4 H -0.0068 0.4444 0.4354
C6 C -0.19174(18) 0.2786(2) 0.46291(6)
H5 H -0.2499 0.3819 0.4785
C7 C 0.18814(16) 0.20753(18) 0.38349(5)
C8 C 0.22008(17) 0.11877(19) 0.33640(5)
H6 H 0.1356 0.0327 0.3213
C9 C 0.36787(17) 0.13655(18) 0.30501(5)
C10 C 0.52789(18) 0.18213(18) 0.32916(5)
H7 H 0.5449 0.2016 0.3680
C11 C 0.66243(18) 0.19942(18) 0.29725(6)
H8 H 0.7699 0.2315 0.3146
C12 C 0.64307(18) 0.17070(18) 0.24031(6)
C13 C 0.48462(19) 0.1198(2) 0.21656(5)
H9 H 0.4686 0.0973 0.1779
C14 C 0.34951(18) 0.1012(2) 0.24814(5)
H10 H 0.2432 0.0641 0.2309
C15 C 0.7882(2) 0.1906(2) 0.20561(7)
H11 H 0.7763 0.0969 0.1753
H12 H 0.8932 0.1661 0.2285
H13 H 0.7899 0.3218 0.1904
C16 C 0.30462(15) 0.35305(19) 0.41242(5)
C17 C 0.4354(2) 0.6569(2) 0.40554(6)
H14 H 0.5490 0.6031 0.4100
H15 H 0.4018 0.6966 0.4417
H16 H 0.4334 0.7693 0.3809
loop_
_geom_bond_atom_site_label_1
_geom_bond_atom_site_label_2
_geom_bond_site_symmetry_1
_geom_bond_site_symmetry_2
C1 C2 1_555 1_555
O1 C16 1_555 1_555
C2 H1 1_555 1_555
O2 C16 1_555 1_555
C3 C2 1_555 1_555
H2 C3 1_555 1_555
C4 C3 1_555 1_555
H3 C4 1_555 1_555
C5 C1 1_555 1_555
H4 C5 1_555 1_555
C6 C4 1_555 1_555
H5 C6 1_555 1_555
C7 C1 1_555 1_555
C8 C7 1_555 1_555
H6 C8 1_555 1_555
C9 C8 1_555 1_555
C10 C9 1_555 1_555
H7 C10 1_555 1_555
C11 C10 1_555 1_555
H8 C11 1_555 1_555
C12 C11 1_555 1_555
C13 C12 1_555 1_555
H9 C13 1_555 1_555
C14 C9 1_555 1_555
H10 C14 1_555 1_555
C15 C12 1_555 1_555
H11 C15 1_555 1_555
H12 C15 1_555 1_555
H13 C15 1_555 1_555
C16 C7 1_555 1_555
C17 O2 1_555 1_555
H14 C17 1_555 1_555
H15 C17 1_555 1_555
H16 C17 1_555 1_555
C5 C6 1_555 1_555
C13 C14 1_555 1_555

#END
