
#######################################################################
#
#                 Cambridge Crystallographic Data Centre
#                                CCDC 
#
#######################################################################
#
# If this CIF has been generated from an entry in the Cambridge 
# Structural Database, then it will include bibliographic, chemical, 
# crystal, experimental, refinement or atomic coordinate data resulting 
# from the CCDC's data processing and validation procedures.
#
#######################################################################

data_EDANIJ
_chemical_formula_moiety         'C19 H30 O3 Si1'
_chemical_name_systematic        
2-{[t-butyl(dimethyl)silyl]oxy}-10-methylidenetetrahydro-2H-2,4a-ethanonaphthalene-3,5(1H,4H)-dione
_symmetry_cell_setting           monoclinic
_symmetry_space_group_name_H-M   'P 21/n'
_symmetry_Int_Tables_number      14
_space_group_name_Hall           '-P 2yn'
loop_
_symmetry_equiv_pos_site_id
_symmetry_equiv_pos_as_xyz
1 x,y,z
2 1/2-x,1/2+y,1/2-z
3 -x,-y,-z
4 1/2+x,1/2-y,1/2+z
_cell_length_a                   7.2951(3)
_cell_length_b                   25.7751(10)
_cell_length_c                   10.6210(5)
_cell_angle_alpha                90
_cell_angle_beta                 95.7546(29)
_cell_angle_gamma                90
_cell_volume                     1987.02
_exptl_crystal_colour            colorless
_exptl_crystal_description       Prism
_cell_formula_units_Z            4
loop_
_atom_site_label
_atom_site_type_symbol
_atom_site_fract_x
_atom_site_fract_y
_atom_site_fract_z
Si1 Si -0.04798(18) 0.31663(5) 0.02013(12)
O1 O 0.2887(6) 0.53851(15) 0.4749(5)
O2 O -0.1104(7) 0.43416(14) 0.0556(5)
O3 O 0.0299(4) 0.34238(10) 0.1556(3)
C1 C 0.3056(8) 0.5264(2) 0.3652(7)
C2 C 0.4104(13) 0.5592(2) 0.2831(8)
H1 H 0.4677 0.5876 0.3325
H2 H 0.3266 0.5739 0.2158
C3 C 0.5543(14) 0.5286(3) 0.2274(7)
H3 H 0.6496 0.5192 0.2938
H4 H 0.6104 0.5500 0.1666
C4 C 0.4782(11) 0.4795(3) 0.1618(5)
H5 H 0.3918 0.4887 0.0899
H6 H 0.5781 0.4600 0.1309
C5 C 0.3820(6) 0.44641(15) 0.2531(4)
H7 H 0.4739 0.4366 0.3226
C6 C 0.2299(6) 0.47588(16) 0.3098(5)
C7 C 0.0705(9) 0.48637(19) 0.2072(8)
H8 H -0.0300 0.5031 0.2447
H9 H 0.1117 0.5096 0.1438
C8 C 0.0040(8) 0.43621(19) 0.1455(7)
C9 C 0.3019(6) 0.39595(15) 0.1915(4)
H10 H 0.3197 0.3962 0.1022
H11 H 0.3688 0.3665 0.2300
C10 C 0.0971(6) 0.38939(14) 0.2059(4)
C11 C 0.1571(7) 0.4409(2) 0.4077(5)
H12 H 0.2572 0.4306 0.4696
H13 H 0.0666 0.4595 0.4513
C12 C 0.0698(6) 0.39344(19) 0.3442(5)
C13 C -0.0257(10) 0.3596(3) 0.4007(6)
H14 H -0.0798 0.3317 0.3556
H15 H -0.0399 0.3633 0.4863
C14 C -0.3023(7) 0.3233(2) -0.0068(6)
H16 H -0.3485 0.3017 -0.0764
H17 H -0.3334 0.3589 -0.0260
H18 H -0.3563 0.3130 0.0680
C15 C 0.0648(9) 0.3437(2) -0.1151(5)
H19 H 0.0235 0.3250 -0.1909
H20 H 0.1961 0.3403 -0.0984
H21 H 0.0330 0.3797 -0.1258
C16 C 0.0171(7) 0.24682(17) 0.0442(4)
C17 C -0.0840(10) 0.2245(2) 0.1518(6)
H22 H -0.2144 0.2252 0.1279
H23 H -0.0558 0.2449 0.2268
H24 H -0.0452 0.1893 0.1681
C18 C -0.0351(9) 0.2149(2) -0.0759(5)
H25 H -0.1659 0.2167 -0.0976
H26 H 0.0010 0.1795 -0.0611
H27 H 0.0268 0.2287 -0.1442
C19 C 0.2243(8) 0.2417(2) 0.0791(6)
H28 H 0.2596 0.2612 0.1546
H29 H 0.2886 0.2547 0.0111
H30 H 0.2551 0.2058 0.0935
loop_
_geom_bond_atom_site_label_1
_geom_bond_atom_site_label_2
_geom_bond_site_symmetry_1
_geom_bond_site_symmetry_2
Si1 O3 1_555 1_555
O1 C1 1_555 1_555
O2 C8 1_555 1_555
O3 C10 1_555 1_555
C1 C2 1_555 1_555
C2 H1 1_555 1_555
H2 C2 1_555 1_555
C3 C2 1_555 1_555
H3 C3 1_555 1_555
H4 C3 1_555 1_555
C4 C3 1_555 1_555
H5 C4 1_555 1_555
H6 C4 1_555 1_555
C5 C4 1_555 1_555
H7 C5 1_555 1_555
C6 C1 1_555 1_555
C7 C6 1_555 1_555
H8 C7 1_555 1_555
H9 C7 1_555 1_555
C8 C7 1_555 1_555
C9 C5 1_555 1_555
H10 C9 1_555 1_555
H11 C9 1_555 1_555
C10 C8 1_555 1_555
C11 C6 1_555 1_555
H12 C11 1_555 1_555
H13 C11 1_555 1_555
C12 C10 1_555 1_555
C13 C12 1_555 1_555
H14 C13 1_555 1_555
H15 C13 1_555 1_555
C14 Si1 1_555 1_555
H16 C14 1_555 1_555
H17 C14 1_555 1_555
H18 C14 1_555 1_555
C15 Si1 1_555 1_555
H19 C15 1_555 1_555
H20 C15 1_555 1_555
H21 C15 1_555 1_555
C16 Si1 1_555 1_555
C17 C16 1_555 1_555
H22 C17 1_555 1_555
H23 C17 1_555 1_555
H24 C17 1_555 1_555
C18 C16 1_555 1_555
H25 C18 1_555 1_555
H26 C18 1_555 1_555
H27 C18 1_555 1_555
C19 C16 1_555 1_555
H28 C19 1_555 1_555
H29 C19 1_555 1_555
H30 C19 1_555 1_555
C5 C6 1_555 1_555
C9 C10 1_555 1_555
C11 C12 1_555 1_555

#END
