
#######################################################################
#
#                 Cambridge Crystallographic Data Centre
#                                CCDC 
#
#######################################################################
#
# If this CIF has been generated from an entry in the Cambridge 
# Structural Database, then it will include bibliographic, chemical, 
# crystal, experimental, refinement or atomic coordinate data resulting 
# from the CCDC's data processing and validation procedures.
#
#######################################################################

data_EDAQUW
_chemical_formula_moiety         '2(C13 H11 N2 1+),2(C12 H4 N4 1-),C12 H4 N4'
_chemical_name_systematic        
"bis(1-(4'-Cyanobenzyl)pyridinium) tris(7,7,8,8-tetracyanoquinodimethane)"
_symmetry_cell_setting           triclinic
_symmetry_space_group_name_H-M   'P -1'
_symmetry_Int_Tables_number      2
_space_group_name_Hall           '-P 1'
loop_
_symmetry_equiv_pos_site_id
_symmetry_equiv_pos_as_xyz
1 x,y,z
2 -x,-y,-z
_cell_length_a                   7.314(2)
_cell_length_b                   7.659(3)
_cell_length_c                   25.131(8)
_cell_angle_alpha                89.900(5)
_cell_angle_beta                 89.450(6)
_cell_angle_gamma                64.846(5)
_cell_volume                     1274.22
_exptl_crystal_colour            'dark green'
_exptl_crystal_description       block
_cell_formula_units_Z            1
loop_
_atom_site_label
_atom_site_type_symbol
_atom_site_fract_x
_atom_site_fract_y
_atom_site_fract_z
C1 C 1.1499(4) 0.3066(4) 0.06600(10)
C2 C 1.1501(3) 0.4493(4) 0.10306(9)
C3 C 1.2249(4) 0.3919(4) 0.15356(10)
C4 C 1.2212(4) 0.5283(4) 0.18965(9)
C5 C 1.1450(3) 0.7201(3) 0.17594(8)
C6 C 1.0738(4) 0.7758(4) 0.12508(9)
C7 C 1.0764(4) 0.6398(4) 0.08851(9)
C8 C 1.1395(3) 0.8668(4) 0.21620(9)
N1 N 0.9674(2) 0.9125(2) 0.25474(6)
C9 C 1.0010(4) 0.9103(3) 0.30706(8)
C10 C 0.8443(4) 0.9622(4) 0.34232(10)
C11 C 0.6514(4) 1.0165(4) 0.32408(11)
C12 C 0.6194(4) 1.0167(4) 0.27035(11)
C13 C 0.7814(3) 0.9640(4) 0.23635(10)
N8 N 1.1468(5) 0.1954(4) 0.03630(11)
H7 H 0.769(4) 0.963(4) 0.1997(12)
H8 H 0.482(5) 1.051(4) 0.2549(12)
H9 H 0.552(5) 1.044(5) 0.3470(13)
H10 H 1.143(4) 0.870(4) 0.3172(10)
H11 H 0.868(4) 0.958(4) 0.3784(13)
H12 H 1.117(3) 0.986(4) 0.1993(9)
H13 H 1.260(4) 0.827(3) 0.2379(9)
H14 H 1.279(4) 0.260(4) 0.1607(11)
H15 H 1.273(4) 0.487(4) 0.2246(11)
H16 H 1.019(4) 0.914(4) 0.1165(10)
H17 H 1.025(4) 0.673(4) 0.0541(11)
C14 C 0.8677(3) 0.9063(3) 0.56009(8)
C15 C 1.0203(3) 0.7890(3) 0.52372(7)
C16 C 1.2193(3) 0.7643(3) 0.53574(8)
C17 C 0.9765(3) 0.7053(3) 0.47880(7)
C18 C 1.1327(3) 0.5884(3) 0.44325(7)
C19 C 1.0901(3) 0.5092(3) 0.39950(8)
C20 C 0.8892(3) 0.5416(3) 0.38748(8)
C21 C 0.7334(3) 0.6568(3) 0.42342(8)
C22 C 0.7755(3) 0.7349(3) 0.46734(8)
C23 C 0.8436(3) 0.4681(3) 0.34072(8)
C24 C 0.9977(3) 0.3495(3) 0.30539(8)
C25 C 0.6417(4) 0.5131(3) 0.32558(9)
N2 N 0.4808(3) 0.5497(4) 0.31286(10)
N3 N 1.1233(3) 0.2513(3) 0.27721(8)
N4 N 1.3757(3) 0.7514(3) 0.54646(8)
N5 N 0.7504(3) 1.0021(3) 0.59014(8)
H1 H 1.196(4) 0.423(4) 0.3769(10)
H2 H 1.271(3) 0.568(3) 0.4492(8)
H3 H 0.674(3) 0.814(3) 0.4907(8)
H4 H 0.593(3) 0.678(3) 0.4165(8)
C26 C 0.5664(4) 0.7498(4) 0.12172(10)
C27 C 0.7175(4) 0.4096(4) 0.13704(11)
C28 C 0.6147(3) 0.5641(4) 0.10175(9)
C29 C 0.5590(3) 0.5317(3) 0.05084(9)
C30 C 0.6061(4) 0.3421(4) 0.03231(10)
C31 C 0.4517(4) 0.6882(3) 0.01626(10)
N6 N 0.8009(4) 0.2843(5) 0.16517(12)
N7 N 0.5253(4) 0.9001(4) 0.13905(12)
H5 H 0.412(4) 0.825(4) 0.0291(10)
H6 H 0.681(4) 0.237(4) 0.0565(11)
C26A C 0.4336(4) 0.2502(4) -0.12172(10)
C27A C 0.2825(4) 0.5904(4) -0.13704(11)
C28A C 0.3853(3) 0.4359(4) -0.10175(9)
C29A C 0.4410(3) 0.4683(3) -0.05084(9)
C30A C 0.3939(4) 0.6579(4) -0.03231(10)
C31A C 0.5483(4) 0.3118(3) -0.01626(10)
N6A N 0.1991(4) 0.7157(5) -0.16517(12)
N7A N 0.4747(4) 0.0999(4) -0.13905(12)
H5A H 0.588(4) 0.175(4) -0.0291(10)
H6A H 0.319(4) 0.763(4) -0.0565(11)
loop_
_geom_bond_atom_site_label_1
_geom_bond_atom_site_label_2
_geom_bond_site_symmetry_1
_geom_bond_site_symmetry_2
C1 C2 1_555 1_555
C2 C3 1_555 1_555
C3 C4 1_555 1_555
C4 C5 1_555 1_555
C5 C6 1_555 1_555
C6 C7 1_555 1_555
C7 C2 1_555 1_555
C8 C5 1_555 1_555
N1 C8 1_555 1_555
C9 N1 1_555 1_555
C10 C9 1_555 1_555
C11 C10 1_555 1_555
C12 C11 1_555 1_555
C13 N1 1_555 1_555
C14 C15 1_555 1_555
C15 C16 1_555 1_555
C16 N4 1_555 1_555
C17 C15 1_555 1_555
C18 C17 1_555 1_555
C19 C18 1_555 1_555
C20 C19 1_555 1_555
C21 C20 1_555 1_555
C22 C17 1_555 1_555
C23 C20 1_555 1_555
C24 C23 1_555 1_555
C25 C23 1_555 1_555
C26 C28 1_555 1_555
C27 C28 1_555 1_555
C28 C29 1_555 1_555
C29 C30 1_555 1_555
C30 H6 1_555 1_555
C31 C29 1_555 1_555
N2 C25 1_555 1_555
N3 C24 1_555 1_555
N5 C14 1_555 1_555
N6 C27 1_555 1_555
N7 C26 1_555 1_555
N8 C1 1_555 1_555
H1 C19 1_555 1_555
H2 C18 1_555 1_555
H3 C22 1_555 1_555
H4 C21 1_555 1_555
H5 C31 1_555 1_555
H7 C13 1_555 1_555
H8 C12 1_555 1_555
H9 C11 1_555 1_555
H10 C9 1_555 1_555
H11 C10 1_555 1_555
H12 C8 1_555 1_555
H13 C8 1_555 1_555
H14 C3 1_555 1_555
H15 C4 1_555 1_555
H16 C6 1_555 1_555
H17 C7 1_555 1_555
C26A C28A 1_555 1_555
C27A C28A 1_555 1_555
C28A C29A 1_555 1_555
C29A C30A 1_555 1_555
C30A C31 1_555 1_555
C31A C30 1_555 1_555
N6A C27A 1_555 1_555
N7A C26A 1_555 1_555
H5A C31A 1_555 1_555
H6A C30A 1_555 1_555
C12 C13 1_555 1_555
C21 C22 1_555 1_555
C29A C31A 1_555 1_555

#END
