
#######################################################################
#
#                 Cambridge Crystallographic Data Centre
#                                CCDC 
#
#######################################################################
#
# If this CIF has been generated from an entry in the Cambridge 
# Structural Database, then it will include bibliographic, chemical, 
# crystal, experimental, refinement or atomic coordinate data resulting 
# from the CCDC's data processing and validation procedures.
#
#######################################################################

data_EDASAG
_chemical_formula_moiety         'C19 H16 F5 N1 O2'
_chemical_name_systematic        
2-[5-(benzyloxy)-1-methyl-1H-indol-3-yl]-1,1,1,3,3-pentafluoropropan-2-ol
_symmetry_cell_setting           monoclinic
_symmetry_space_group_name_H-M   'P 21/c'
_symmetry_Int_Tables_number      14
_space_group_name_Hall           '-P 2ybc'
loop_
_symmetry_equiv_pos_site_id
_symmetry_equiv_pos_as_xyz
1 x,y,z
2 -x,1/2+y,1/2-z
3 -x,-y,-z
4 x,1/2-y,1/2+z
_cell_length_a                   7.5979(16)
_cell_length_b                   16.309(4)
_cell_length_c                   13.633(3)
_cell_angle_alpha                90
_cell_angle_beta                 91.809(19)
_cell_angle_gamma                90
_cell_volume                     1688.48
_exptl_crystal_colour            colorless
_exptl_crystal_description       Strip
_cell_formula_units_Z            4
loop_
_atom_site_label
_atom_site_type_symbol
_atom_site_fract_x
_atom_site_fract_y
_atom_site_fract_z
O1 O 0.2839(2) 0.56957(9) 0.08208(12)
F1 F 0.2714(2) 0.15819(10) -0.05114(14)
O2 O 0.4955(2) 0.28940(10) -0.07291(13)
H1 H 0.5559 0.2479 -0.0677
N1 N 0.1910(2) 0.45210(12) -0.29318(14)
F2 F 0.0739(2) 0.21337(10) -0.14645(14)
F3 F 0.1586(2) 0.27334(11) -0.01529(14)
F4 F 0.5204(3) 0.15605(9) -0.18579(14)
C1 C 0.2959(3) 0.51374(13) 0.16318(17)
H2 H 0.4061 0.4837 0.1625
H3 H 0.1996 0.4747 0.1595
C2 C 0.2873(3) 0.45547(13) -0.03419(17)
H4 H 0.3245 0.4181 0.0136
F5 F 0.3056(3) 0.19209(11) -0.28695(13)
C3 C 0.2021(3) 0.48998(13) -0.20294(17)
C4 C 0.2863(3) 0.35592(13) -0.18585(17)
C5 C 0.1800(3) 0.63392(14) 0.25780(19)
H5 H 0.1140 0.6491 0.2021
C6 C 0.2867(3) 0.56452(13) 0.25551(18)
C7 C 0.2608(3) 0.43128(13) -0.13234(17)
C8 C 0.1963(3) 0.59453(13) -0.08156(19)
H6 H 0.1755 0.6484 -0.0627
C9 C 0.3575(3) 0.27620(13) -0.14334(18)
C10 C 0.2420(3) 0.37177(13) -0.28235(17)
H7 H 0.2459 0.3337 -0.3330
C11 C 0.1684(3) 0.57197(13) -0.17769(18)
H8 H 0.1286 0.6096 -0.2246
C12 C 0.2564(3) 0.53670(13) -0.01069(17)
C13 C 0.1716(3) 0.68064(15) 0.3431(2)
H9 H 0.0998 0.7268 0.3441
C14 C 0.3837(3) 0.54220(15) 0.33984(18)
H10 H 0.4544 0.4957 0.3393
C15 C 0.3754(3) 0.58909(16) 0.4247(2)
H11 H 0.4408 0.5739 0.4806
C16 C 0.1245(3) 0.48994(16) -0.38381(18)
H12 H -0.0008 0.4967 -0.3811
H13 H 0.1514 0.4555 -0.4384
H14 H 0.1790 0.5425 -0.3916
C17 C 0.2697(4) 0.65860(16) 0.4263(2)
H15 H 0.2648 0.6901 0.4830
C18 C 0.4349(4) 0.22261(15) -0.2252(2)
H16 H 0.5173 0.2553 -0.2628
C19 C 0.2157(3) 0.23022(15) -0.0889(2)
loop_
_geom_bond_atom_site_label_1
_geom_bond_atom_site_label_2
_geom_bond_site_symmetry_1
_geom_bond_site_symmetry_2
O1 C1 1_555 1_555
F1 C19 1_555 1_555
O2 H1 1_555 1_555
N1 C3 1_555 1_555
F2 C19 1_555 1_555
F3 C19 1_555 1_555
F4 C18 1_555 1_555
C1 H2 1_555 1_555
H3 C1 1_555 1_555
C2 H4 1_555 1_555
F5 C18 1_555 1_555
C3 C7 1_555 1_555
C4 C7 1_555 1_555
C5 H5 1_555 1_555
C6 C1 1_555 1_555
C7 C2 1_555 1_555
C8 H6 1_555 1_555
C9 O2 1_555 1_555
C10 N1 1_555 1_555
H7 C10 1_555 1_555
C11 C3 1_555 1_555
H8 C11 1_555 1_555
C12 O1 1_555 1_555
C13 C5 1_555 1_555
H9 C13 1_555 1_555
C14 C6 1_555 1_555
H10 C14 1_555 1_555
C15 C14 1_555 1_555
H11 C15 1_555 1_555
C16 N1 1_555 1_555
H12 C16 1_555 1_555
H13 C16 1_555 1_555
H14 C16 1_555 1_555
C17 C13 1_555 1_555
H15 C17 1_555 1_555
C18 C9 1_555 1_555
H16 C18 1_555 1_555
C19 C9 1_555 1_555
C2 C12 1_555 1_555
C4 C9 1_555 1_555
C4 C10 1_555 1_555
C5 C6 1_555 1_555
C8 C11 1_555 1_555
C8 C12 1_555 1_555
C15 C17 1_555 1_555

#END
