
#######################################################################
#
#                 Cambridge Crystallographic Data Centre
#                                CCDC 
#
#######################################################################
#
# If this CIF has been generated from an entry in the Cambridge 
# Structural Database, then it will include bibliographic, chemical, 
# crystal, experimental, refinement or atomic coordinate data resulting 
# from the CCDC's data processing and validation procedures.
#
#######################################################################

data_EDAXOW
_chemical_formula_moiety         'C18 H16 N2 O1'
_chemical_name_systematic        (R)-N-(1-Phenylethyl)quinoline-2-carboxamide
_symmetry_cell_setting           monoclinic
_symmetry_space_group_name_H-M   'P 21'
_symmetry_Int_Tables_number      4
_space_group_name_Hall           'P 2yb'
loop_
_symmetry_equiv_pos_site_id
_symmetry_equiv_pos_as_xyz
1 x,y,z
2 -x,1/2+y,-z
_cell_length_a                   5.5955(11)
_cell_length_b                   10.684(2)
_cell_length_c                   12.224(2)
_cell_angle_alpha                90
_cell_angle_beta                 98.687(4)
_cell_angle_gamma                90
_cell_volume                     722.396
_exptl_crystal_colour            colorless
_exptl_crystal_description       plate
_cell_formula_units_Z            2
_exptl_crystal_recrystallization_method DMF/water
loop_
_atom_site_label
_atom_site_type_symbol
_atom_site_fract_x
_atom_site_fract_y
_atom_site_fract_z
O1 O -0.3133(3) 0.21680(16) 0.12833(12)
N1 N 0.0831(3) 0.17179(18) 0.14073(12)
H1 H 0.2258 0.1858 0.1756
N2 N 0.1586(3) 0.30859(15) 0.33384(12)
C1 C 0.2094(4) 0.2274(2) -0.08681(17)
H2 H 0.3449 0.2421 -0.0343
C2 C 0.1906(4) 0.2847(2) -0.18824(17)
H3 H 0.3127 0.3381 -0.2035
C3 C -0.0063(4) 0.2639(2) -0.26704(17)
H4 H -0.0177 0.3021 -0.3360
C4 C -0.1863(4) 0.1864(3) -0.24348(18)
H5 H -0.3213 0.1723 -0.2965
C5 C -0.1688(4) 0.1289(2) -0.14121(17)
H6 H -0.2924 0.0766 -0.1259
C6 C 0.0308(3) 0.1486(2) -0.06166(16)
C7 C 0.0540(4) 0.0823(2) 0.04895(16)
H7 H -0.0960 0.0357 0.0513
C8 C 0.2611(4) -0.0106(2) 0.06516(19)
H8 H 0.2677 -0.0505 0.1359
H9 H 0.4104 0.0325 0.0621
H10 H 0.2363 -0.0727 0.0078
C9 C -0.1031(4) 0.2323(2) 0.17215(15)
C10 C -0.0475(3) 0.32209(19) 0.26686(14)
C11 C -0.2200(4) 0.4130(2) 0.28159(18)
H11 H -0.3639 0.4182 0.2326
C12 C -0.1752(4) 0.4929(2) 0.36763(18)
H12 H -0.2862 0.5553 0.3770
C13 C 0.0400(4) 0.48168(19) 0.44329(16)
C14 C 0.0995(5) 0.5604(2) 0.53617(19)
H13 H -0.0067 0.6234 0.5499
C15 C 0.3104(5) 0.5447(2) 0.60535(19)
H14 H 0.3499 0.5981 0.6654
C16 C 0.4681(4) 0.4490(2) 0.58715(17)
H15 H 0.6107 0.4381 0.6362
C17 C 0.4169(4) 0.3713(2) 0.49884(15)
H16 H 0.5240 0.3075 0.4881
C18 C 0.2032(3) 0.38675(18) 0.42357(14)
loop_
_geom_bond_atom_site_label_1
_geom_bond_atom_site_label_2
_geom_bond_site_symmetry_1
_geom_bond_site_symmetry_2
O1 C9 1_555 1_555
N1 H1 1_555 1_555
N2 C10 1_555 1_555
C1 H2 1_555 1_555
C2 C1 1_555 1_555
H3 C2 1_555 1_555
C3 C2 1_555 1_555
H4 C3 1_555 1_555
C4 C3 1_555 1_555
H5 C4 1_555 1_555
C5 C4 1_555 1_555
H6 C5 1_555 1_555
C6 C1 1_555 1_555
C7 N1 1_555 1_555
H7 C7 1_555 1_555
C8 C7 1_555 1_555
H8 C8 1_555 1_555
H9 C8 1_555 1_555
H10 C8 1_555 1_555
C9 N1 1_555 1_555
C10 C9 1_555 1_555
C11 C10 1_555 1_555
H11 C11 1_555 1_555
C12 C11 1_555 1_555
H12 C12 1_555 1_555
C13 C12 1_555 1_555
C14 C13 1_555 1_555
H13 C14 1_555 1_555
C15 C14 1_555 1_555
H14 C15 1_555 1_555
C16 C15 1_555 1_555
H15 C16 1_555 1_555
C17 C16 1_555 1_555
H16 C17 1_555 1_555
C18 N2 1_555 1_555
C5 C6 1_555 1_555
C6 C7 1_555 1_555
C13 C18 1_555 1_555
C17 C18 1_555 1_555

#END
