
#######################################################################
#
#                 Cambridge Crystallographic Data Centre
#                                CCDC 
#
#######################################################################
#
# If this CIF has been generated from an entry in the Cambridge 
# Structural Database, then it will include bibliographic, chemical, 
# crystal, experimental, refinement or atomic coordinate data resulting 
# from the CCDC's data processing and validation procedures.
#
#######################################################################

data_EDENUW01
_chemical_formula_moiety         'C16 H17 N3 O4,2(H2 O1)'
_chemical_name_systematic        
'3,4,5-Trimethoxybenzaldehyde isonicotinoylhydrazone dihydrate'
_symmetry_cell_setting           monoclinic
_symmetry_space_group_name_H-M   'P 21/n'
_symmetry_Int_Tables_number      14
_space_group_name_Hall           '-P 2yn'
loop_
_symmetry_equiv_pos_site_id
_symmetry_equiv_pos_as_xyz
1 x,y,z
2 1/2-x,1/2+y,1/2-z
3 -x,-y,-z
4 1/2+x,1/2-y,1/2+z
_cell_length_a                   8.9930(5)
_cell_length_b                   16.2713(10)
_cell_length_c                   11.6311(6)
_cell_angle_alpha                90
_cell_angle_beta                 90.354(3)
_cell_angle_gamma                90
_cell_volume                     1701.92
_exptl_crystal_colour            colorless
_exptl_crystal_description       lath
_chemical_melting_point          '466-468 K'
_cell_formula_units_Z            4
_exptl_crystal_recrystallization_method ethanol
loop_
_atom_site_label
_atom_site_type_symbol
_atom_site_fract_x
_atom_site_fract_y
_atom_site_fract_z
N1 N 1.0327(2) 0.68440(11) 0.80314(15)
C1 C 0.9186(3) 0.70929(14) 0.73826(19)
C2 C 0.8480(2) 0.66129(13) 0.65684(18)
C3 C 0.8961(2) 0.58113(13) 0.64087(17)
C4 C 1.0161(2) 0.55471(14) 0.70717(17)
C5 C 1.0793(2) 0.60735(14) 0.78556(18)
C6 C 0.8275(2) 0.51997(14) 0.55960(17)
O1 O 0.86770(16) 0.44784(9) 0.55984(12)
N2 N 0.72086(19) 0.54970(10) 0.48753(14)
N3 N 0.65662(19) 0.49611(11) 0.40880(14)
C7 C 0.5482(2) 0.52674(13) 0.35114(17)
C8 C 0.4712(2) 0.48049(13) 0.26075(17)
C9 C 0.3589(2) 0.52179(13) 0.20126(18)
C10 C 0.2834(2) 0.48265(13) 0.11183(18)
O2 O 0.16987(16) 0.51694(9) 0.04958(12)
C11 C 0.1219(3) 0.59722(14) 0.0828(2)
C12 C 0.3213(2) 0.40283(13) 0.08293(17)
O3 O 0.24446(16) 0.36157(8) -0.00298(11)
C13 C 0.2936(3) 0.38260(15) -0.11629(18)
C14 C 0.4325(2) 0.36127(13) 0.14397(18)
C15 C 0.5604(3) 0.23406(14) 0.1718(2)
O4 O 0.45521(17) 0.28201(9) 0.10813(13)
C16 C 0.5081(2) 0.39941(13) 0.23326(18)
H1 H 0.8835 0.7638 0.7488
H2 H 0.7679 0.6827 0.6125
H3 H 1.0540 0.5006 0.6982
H4 H 1.1611 0.5880 0.8300
H5 H 0.6933 0.6015 0.4907
H6 H 0.5168 0.5812 0.3675
H7 H 0.3339 0.5766 0.2217
H8 H 0.1005 0.5977 0.1653
H9 H 0.0319 0.6119 0.0395
H10 H 0.2006 0.6371 0.0662
H11 H 0.2780 0.4415 -0.1296
H12 H 0.2367 0.3510 -0.1732
H13 H 0.3995 0.3697 -0.1235
H14 H 0.6600 0.2574 0.1624
H15 H 0.5594 0.1774 0.1432
H16 H 0.5338 0.2345 0.2534
H17 H 0.5835 0.3711 0.2749
O5 O 0.56908(17) 0.70492(9) 0.49034(13)
H18 H 0.5744 0.7382 0.4319
H19 H 0.4775 0.7018 0.5136
O6 O 0.72426(17) 0.31146(9) 0.44996(13)
H20 H 0.7581 0.3579 0.4764
H21 H 0.7775 0.2743 0.4849
loop_
_geom_bond_atom_site_label_1
_geom_bond_atom_site_label_2
_geom_bond_site_symmetry_1
_geom_bond_site_symmetry_2
N1 C1 1_555 1_555
C1 C2 1_555 1_555
C2 C3 1_555 1_555
C3 C4 1_555 1_555
C4 C5 1_555 1_555
C5 N1 1_555 1_555
C6 C3 1_555 1_555
O1 C6 1_555 1_555
N2 C6 1_555 1_555
N3 N2 1_555 1_555
C7 N3 1_555 1_555
C8 C7 1_555 1_555
C9 C8 1_555 1_555
C10 C9 1_555 1_555
O2 C10 1_555 1_555
C11 O2 1_555 1_555
C12 C10 1_555 1_555
O3 C12 1_555 1_555
C13 O3 1_555 1_555
C14 C12 1_555 1_555
C15 O4 1_555 1_555
O4 C14 1_555 1_555
C16 C8 1_555 1_555
O5 H18 1_555 1_555
O6 H20 1_555 1_555
H1 C1 1_555 1_555
H2 C2 1_555 1_555
H3 C4 1_555 1_555
H4 C5 1_555 1_555
H5 N2 1_555 1_555
H6 C7 1_555 1_555
H7 C9 1_555 1_555
H8 C11 1_555 1_555
H9 C11 1_555 1_555
H10 C11 1_555 1_555
H11 C13 1_555 1_555
H12 C13 1_555 1_555
H13 C13 1_555 1_555
H14 C15 1_555 1_555
H15 C15 1_555 1_555
H16 C15 1_555 1_555
H17 C16 1_555 1_555
H19 O5 1_555 1_555
H21 O6 1_555 1_555
C14 C16 1_555 1_555

#END
