
#######################################################################
#
#                 Cambridge Crystallographic Data Centre
#                                CCDC 
#
#######################################################################
#
# If this CIF has been generated from an entry in the Cambridge 
# Structural Database, then it will include bibliographic, chemical, 
# crystal, experimental, refinement or atomic coordinate data resulting 
# from the CCDC's data processing and validation procedures.
#
#######################################################################

data_EDENEH01
_chemical_formula_moiety         'C22 H24 N2 O4'
_chemical_name_systematic        
N,N'-bis(2-Hydroxy-3-methoxybenzyl)benzene-1,2-diamine
_symmetry_cell_setting           orthorhombic
_symmetry_space_group_name_H-M   'P b c a'
_symmetry_Int_Tables_number      61
_space_group_name_Hall           '-P 2ac 2ab'
loop_
_symmetry_equiv_pos_site_id
_symmetry_equiv_pos_as_xyz
1 x,y,z
2 1/2-x,-y,1/2+z
3 -x,1/2+y,1/2-z
4 1/2+x,1/2-y,-z
5 -x,-y,-z
6 1/2+x,y,1/2-z
7 x,1/2-y,1/2+z
8 1/2-x,1/2+y,z
_cell_length_a                   10.4331(14)
_cell_length_b                   15.7674(16)
_cell_length_c                   23.398(2)
_cell_angle_alpha                90
_cell_angle_beta                 90
_cell_angle_gamma                90
_cell_volume                     3849.04
_exptl_crystal_colour            red
_exptl_crystal_description       acerate
_cell_formula_units_Z            8
loop_
_atom_site_label
_atom_site_type_symbol
_atom_site_fract_x
_atom_site_fract_y
_atom_site_fract_z
N1 N 0.5932(2) 0.84158(13) 0.71070(9)
H1 H 0.566(2) 0.8767(14) 0.7378(9)
N2 N 0.5906(2) 1.00932(13) 0.68887(9)
H2 H 0.644(2) 0.9819(14) 0.7137(9)
O1 O 0.36186(18) 0.82490(13) 0.78154(8)
H3 H 0.288(3) 0.8358(19) 0.7969(12)
O2 O 0.32169(19) 0.83823(12) 0.89338(7)
O3 O 0.86629(16) 1.03619(11) 0.73032(7)
H4 H 0.938(3) 1.0251(17) 0.7482(11)
O4 O 1.08934(18) 0.99872(13) 0.68090(8)
C1 C 0.5414(2) 0.86734(17) 0.65774(10)
C2 C 0.5445(2) 0.95466(16) 0.64562(10)
C3 C 0.4963(2) 0.98313(18) 0.59464(10)
H5 H 0.4980 1.0408 0.5864
C4 C 0.4451(3) 0.9273(2) 0.55528(12)
H6 H 0.4110 0.9476 0.5212
C5 C 0.4446(3) 0.8420(2) 0.56652(12)
H7 H 0.4114 0.8043 0.5398
C6 C 0.4933(3) 0.81202(18) 0.61745(12)
H8 H 0.4937 0.7540 0.6247
C7 C 0.5696(3) 0.75466(15) 0.73205(11)
H9 H 0.6398 0.7178 0.7210
H10 H 0.4912 0.7325 0.7156
C8 C 0.5585(3) 0.75709(16) 0.79603(12)
C9 C 0.4505(3) 0.79434(16) 0.81874(11)
C10 C 0.4332(3) 0.80035(17) 0.87713(12)
C11 C 0.5251(3) 0.76689(17) 0.91359(12)
H11 H 0.5141 0.7699 0.9530
C12 C 0.6334(3) 0.72896(19) 0.89072(14)
H12 H 0.6952 0.7064 0.9150
C13 C 0.6505(3) 0.72439(17) 0.83255(14)
H13 H 0.7239 0.6993 0.8177
C14 C 0.2953(3) 0.84900(19) 0.95184(11)
H14 H 0.2140 0.8767 0.9563
H15 H 0.3612 0.8831 0.9689
H16 H 0.2928 0.7946 0.9702
C15 C 0.6505(2) 1.09019(15) 0.67237(10)
H17 H 0.6634 1.1243 0.7064
H18 H 0.5924 1.1208 0.6474
C16 C 0.7768(3) 1.07911(15) 0.64244(11)
C17 C 0.8811(3) 1.04933(15) 0.67309(11)
C18 C 0.9967(3) 1.03145(17) 0.64600(11)
C19 C 1.0088(3) 1.04800(19) 0.58878(12)
H19 H 1.0863 1.0375 0.5705
C20 C 0.9071(3) 1.08003(19) 0.55801(12)
H20 H 0.9163 1.0914 0.5192
C21 C 0.7921(3) 1.09514(16) 0.58479(12)
H21 H 0.7237 1.1165 0.5638
C22 C 1.2059(3) 0.9721(2) 0.65500(12)
H22 H 1.2626 0.9502 0.6838
H23 H 1.2457 1.0195 0.6363
H24 H 1.1883 0.9286 0.6274
loop_
_geom_bond_atom_site_label_1
_geom_bond_atom_site_label_2
_geom_bond_site_symmetry_1
_geom_bond_site_symmetry_2
N1 H1 1_555 1_555
N2 H2 1_555 1_555
O1 H3 1_555 1_555
O2 C10 1_555 1_555
O3 H4 1_555 1_555
O4 C18 1_555 1_555
C1 N1 1_555 1_555
C2 N2 1_555 1_555
C3 C2 1_555 1_555
H5 C3 1_555 1_555
C4 C3 1_555 1_555
H6 C4 1_555 1_555
C5 C4 1_555 1_555
H7 C5 1_555 1_555
C6 C1 1_555 1_555
H8 C6 1_555 1_555
C7 N1 1_555 1_555
H9 C7 1_555 1_555
H10 C7 1_555 1_555
C8 C7 1_555 1_555
C9 O1 1_555 1_555
C10 C9 1_555 1_555
C11 C10 1_555 1_555
H11 C11 1_555 1_555
C12 C11 1_555 1_555
H12 C12 1_555 1_555
C13 C8 1_555 1_555
H13 C13 1_555 1_555
C14 O2 1_555 1_555
H14 C14 1_555 1_555
H15 C14 1_555 1_555
H16 C14 1_555 1_555
C15 N2 1_555 1_555
H17 C15 1_555 1_555
H18 C15 1_555 1_555
C16 C15 1_555 1_555
C17 O3 1_555 1_555
C18 C17 1_555 1_555
C19 C18 1_555 1_555
H19 C19 1_555 1_555
C20 C19 1_555 1_555
H20 C20 1_555 1_555
C21 C16 1_555 1_555
H21 C21 1_555 1_555
C22 O4 1_555 1_555
H22 C22 1_555 1_555
H23 C22 1_555 1_555
H24 C22 1_555 1_555
C1 C2 1_555 1_555
C5 C6 1_555 1_555
C8 C9 1_555 1_555
C12 C13 1_555 1_555
C16 C17 1_555 1_555
C20 C21 1_555 1_555

#END
