
#######################################################################
#
#                 Cambridge Crystallographic Data Centre
#                                CCDC 
#
#######################################################################
#
# If this CIF has been generated from an entry in the Cambridge 
# Structural Database, then it will include bibliographic, chemical, 
# crystal, experimental, refinement or atomic coordinate data resulting 
# from the CCDC's data processing and validation procedures.
#
#######################################################################

data_EDEWES
_chemical_formula_moiety         'C16 H13 Cl1 N2 O1'
_chemical_name_systematic        7-chloro-4-ethoxy-2-phenylquinazoline
_symmetry_cell_setting           orthorhombic
_symmetry_space_group_name_H-M   'P b c a'
_symmetry_Int_Tables_number      61
_space_group_name_Hall           '-P 2ac 2ab'
loop_
_symmetry_equiv_pos_site_id
_symmetry_equiv_pos_as_xyz
1 x,y,z
2 1/2-x,-y,1/2+z
3 -x,1/2+y,1/2-z
4 1/2+x,1/2-y,-z
5 -x,-y,-z
6 1/2+x,y,1/2-z
7 x,1/2-y,1/2+z
8 1/2-x,1/2+y,z
_cell_length_a                   11.9834(2)
_cell_length_b                   7.3116(1)
_cell_length_c                   31.5299(6)
_cell_angle_alpha                90
_cell_angle_beta                 90
_cell_angle_gamma                90
_cell_volume                     2762.58
_exptl_crystal_colour            colorless
_exptl_crystal_description       prism
_cell_formula_units_Z            8
loop_
_atom_site_label
_atom_site_type_symbol
_atom_site_fract_x
_atom_site_fract_y
_atom_site_fract_z
Cl1 Cl 0.36914(5) 0.19116(9) 0.446456(16)
N1 N 0.37782(13) -0.0239(2) 0.59990(5)
N2 N 0.21004(13) -0.0991(2) 0.63753(5)
C1 C 0.31426(16) 0.0273(3) 0.56572(6)
C2 C 0.19680(16) 0.0191(3) 0.56660(6)
C3 C 0.13392(17) 0.0713(3) 0.53084(6)
H1 H 0.0555 0.0688 0.5319
C4 C 0.18668(17) 0.1256(3) 0.49456(6)
H2 H 0.1452 0.1598 0.4705
C5 C 0.30379(18) 0.1297(3) 0.49368(6)
C6 C 0.36737(16) 0.0858(3) 0.52811(6)
H3 H 0.4456 0.0943 0.5268
C7 C 0.32329(16) -0.0838(3) 0.63326(6)
C8 C 0.14978(16) -0.0480(3) 0.60511(6)
O1 O 0.03884(11) -0.0596(2) 0.60620(4)
C9 C -0.01121(17) -0.1331(3) 0.64461(6)
H4 H 0.0033 -0.0521 0.6687
H5 H 0.0195 -0.2542 0.6510
C10 C -0.1339(2) -0.1458(6) 0.63615(9)
H6 H -0.1624 -0.0260 0.6286
H7 H -0.1718 -0.1893 0.6614
H8 H -0.1471 -0.2303 0.6130
C11 C 0.38958(17) -0.1463(3) 0.67054(6)
C12 C 0.33668(19) -0.2128(3) 0.70655(6)
H9 H 0.2583 -0.2145 0.7078
C13 C 0.3988(2) -0.2770(4) 0.74070(7)
H10 H 0.3621 -0.3227 0.7648
C14 C 0.5132(2) -0.2740(3) 0.73948(7)
H11 H 0.5549 -0.3178 0.7626
C15 C 0.56659(19) -0.2065(3) 0.70408(7)
H12 H 0.6450 -0.2028 0.7033
C16 C 0.50558(17) -0.1437(3) 0.66958(7)
H13 H 0.5429 -0.0994 0.6455
loop_
_geom_bond_atom_site_label_1
_geom_bond_atom_site_label_2
_geom_bond_site_symmetry_1
_geom_bond_site_symmetry_2
Cl1 C5 1_555 1_555
N1 C1 1_555 1_555
N2 C7 1_555 1_555
C1 C2 1_555 1_555
C2 C3 1_555 1_555
C3 H1 1_555 1_555
C4 C3 1_555 1_555
H2 C4 1_555 1_555
C5 C4 1_555 1_555
C6 C1 1_555 1_555
H3 C6 1_555 1_555
C7 N1 1_555 1_555
C8 N2 1_555 1_555
O1 C8 1_555 1_555
C9 O1 1_555 1_555
H4 C9 1_555 1_555
H5 C9 1_555 1_555
C10 C9 1_555 1_555
H6 C10 1_555 1_555
H7 C10 1_555 1_555
H8 C10 1_555 1_555
C11 C7 1_555 1_555
C12 C11 1_555 1_555
H9 C12 1_555 1_555
C13 C12 1_555 1_555
H10 C13 1_555 1_555
C14 C13 1_555 1_555
H11 C14 1_555 1_555
C15 C14 1_555 1_555
H12 C15 1_555 1_555
C16 C11 1_555 1_555
H13 C16 1_555 1_555
C2 C8 1_555 1_555
C5 C6 1_555 1_555
C15 C16 1_555 1_555

#END
