
#######################################################################
#
#                 Cambridge Crystallographic Data Centre
#                                CCDC 
#
#######################################################################
#
# If this CIF has been generated from an entry in the Cambridge 
# Structural Database, then it will include bibliographic, chemical, 
# crystal, experimental, refinement or atomic coordinate data resulting 
# from the CCDC's data processing and validation procedures.
#
#######################################################################

data_EDIZOJ
_chemical_formula_moiety         'C40 H34 B1 F10 P1,C1 H2 Cl2'
_chemical_name_systematic        
'(2-(dimesitylphosphonio)ethyl)(bis(pentafluorophenyl))(2-phenylvinyl)borate dichloromethane solvate'
_symmetry_cell_setting           orthorhombic
_symmetry_space_group_name_H-M   'P 21 21 21'
_symmetry_Int_Tables_number      19
_space_group_name_Hall           'P 2ac 2ab'
loop_
_symmetry_equiv_pos_site_id
_symmetry_equiv_pos_as_xyz
1 x,y,z
2 1/2-x,-y,1/2+z
3 -x,1/2+y,1/2-z
4 1/2+x,1/2-y,-z
_cell_length_a                   14.0112(2)
_cell_length_b                   15.1008(2)
_cell_length_c                   18.0950(3)
_cell_angle_alpha                90
_cell_angle_beta                 90
_cell_angle_gamma                90
_cell_volume                     3828.55
_exptl_crystal_colour            colorless
_exptl_crystal_description       plate
_cell_formula_units_Z            4
loop_
_atom_site_label
_atom_site_type_symbol
_atom_site_fract_x
_atom_site_fract_y
_atom_site_fract_z
P1 P 0.23492(5) 0.58922(4) 0.13178(4)
H1 H 0.167(2) 0.619(2) 0.0942(16)
B1 B 0.0796(2) 0.3502(2) 0.11594(17)
C1 C 0.1913(2) 0.48122(18) 0.15885(15)
H2 H 0.2439 0.4458 0.1790
H3 H 0.1427 0.4877 0.1974
C2 C 0.14819(19) 0.43409(18) 0.09130(15)
H4 H 0.1998 0.4123 0.0596
H5 H 0.1104 0.4765 0.0626
C3 C -0.0019(2) 0.3774(2) 0.17592(15)
H6 H -0.0204 0.3304 0.2068
C4 C -0.0477(2) 0.4526(2) 0.19015(16)
H7 H -0.0904 0.4515 0.2302
C5 C 0.33235(19) 0.57731(17) 0.06708(15)
C6 C 0.4225(2) 0.55079(19) 0.09328(16)
C7 C 0.4959(2) 0.5379(2) 0.04325(18)
H8 H 0.5565 0.5211 0.0608
C8 C 0.4823(2) 0.5491(2) -0.03235(18)
C9 C 0.3934(2) 0.57600(19) -0.05662(16)
H9 H 0.3844 0.5855 -0.1075
C10 C 0.3170(2) 0.58959(19) -0.00930(15)
C11 C 0.4426(2) 0.5349(2) 0.17433(17)
H10 H 0.5104 0.5248 0.1813
H11 H 0.4073 0.4833 0.1909
H12 H 0.4230 0.5862 0.2027
C12 C 0.5623(3) 0.5311(3) -0.0869(2)
H13 H 0.6226 0.5282 -0.0607
H14 H 0.5647 0.5785 -0.1231
H15 H 0.5506 0.4753 -0.1118
C13 C 0.2234(2) 0.6154(2) -0.04324(17)
H16 H 0.2318 0.6247 -0.0959
H17 H 0.2006 0.6696 -0.0205
H18 H 0.1772 0.5685 -0.0353
C14 C 0.25484(19) 0.67148(18) 0.20304(14)
C15 C 0.2596(2) 0.65259(19) 0.27942(16)
C16 C 0.2722(2) 0.7231(2) 0.32810(17)
H19 H 0.2758 0.7108 0.3789
C17 C 0.2797(2) 0.8101(2) 0.30546(17)
C18 C 0.2736(2) 0.8269(2) 0.22991(17)
H20 H 0.2773 0.8858 0.2134
C19 C 0.2621(2) 0.76004(18) 0.17831(15)
C20 C 0.2505(3) 0.5618(2) 0.31307(17)
H21 H 0.2698 0.5640 0.3645
H22 H 0.2912 0.5207 0.2866
H23 H 0.1847 0.5422 0.3098
C21 C 0.2934(3) 0.8834(2) 0.3606(2)
H24 H 0.3475 0.8698 0.3920
H25 H 0.2364 0.8892 0.3906
H26 H 0.3052 0.9386 0.3347
C22 C 0.2565(2) 0.7861(2) 0.09781(16)
H27 H 0.2712 0.8485 0.0927
H28 H 0.1925 0.7749 0.0795
H29 H 0.3020 0.7515 0.0696
C23 C 0.1509(2) 0.27238(18) 0.15133(15)
F1 F 0.14568(14) 0.33387(13) 0.27229(9)
C24 C 0.1750(2) 0.2690(2) 0.22560(17)
F2 F 0.24910(17) 0.20515(17) 0.33041(11)
C25 C 0.2308(2) 0.2039(2) 0.25784(19)
F3 F 0.32013(17) 0.07315(16) 0.24441(16)
C26 C 0.2662(2) 0.1372(2) 0.2148(2)
F4 F 0.28531(16) 0.07450(15) 0.09643(15)
C27 C 0.2482(2) 0.1377(2) 0.1404(2)
F5 F 0.18089(15) 0.20146(15) 0.03639(11)
C28 C 0.1922(2) 0.2052(2) 0.11095(18)
C29 C 0.02239(19) 0.30633(18) 0.04433(15)
F6 F -0.04708(13) 0.19883(12) 0.12359(10)
C30 C -0.0375(2) 0.23368(19) 0.05521(16)
F7 F -0.14602(14) 0.12291(12) 0.01623(11)
C31 C -0.0874(2) 0.1913(2) 0.00003(18)
F8 F -0.12367(14) 0.17636(13) -0.12708(11)
C32 C -0.0780(2) 0.2191(2) -0.07169(17)
F9 F -0.01137(15) 0.31896(14) -0.15649(9)
C33 C -0.0207(2) 0.2904(2) -0.08647(16)
F10 F 0.08172(14) 0.40145(13) -0.05032(9)
C34 C 0.0270(2) 0.33157(19) -0.02930(16)
C35 C -0.0396(2) 0.5376(2) 0.15069(17)
C36 C -0.0134(3) 0.6159(2) 0.18711(19)
H30 H -0.0015 0.6147 0.2382
C37 C -0.0047(3) 0.6942(2) 0.1495(2)
H31 H 0.0128 0.7459 0.1749
C38 C -0.0217(3) 0.6973(3) 0.0742(2)
H32 H -0.0146 0.7508 0.0481
C39 C -0.0485(3) 0.6227(3) 0.0383(2)
H33 H -0.0611 0.6250 -0.0127
C40 C -0.0577(3) 0.5439(3) 0.07499(19)
H34 H -0.0765 0.4931 0.0487
C41 C 0.5301(3) 0.8296(3) 0.1966(2)
H35 H 0.5955 0.8322 0.2157
H36 H 0.4877 0.8155 0.2380
Cl1 Cl 0.49910(10) 0.93323(7) 0.16077(6)
Cl2 Cl 0.52258(9) 0.74577(7) 0.13090(7)
loop_
_geom_bond_atom_site_label_1
_geom_bond_atom_site_label_2
_geom_bond_site_symmetry_1
_geom_bond_site_symmetry_2
P1 H1 1_555 1_555
B1 C2 1_555 1_555
C1 P1 1_555 1_555
H2 C1 1_555 1_555
H3 C1 1_555 1_555
C2 C1 1_555 1_555
H4 C2 1_555 1_555
H5 C2 1_555 1_555
C3 B1 1_555 1_555
H6 C3 1_555 1_555
C4 C3 1_555 1_555
H7 C4 1_555 1_555
C5 P1 1_555 1_555
C6 C5 1_555 1_555
C7 C6 1_555 1_555
H8 C7 1_555 1_555
C8 C7 1_555 1_555
C9 C8 1_555 1_555
H9 C9 1_555 1_555
C10 C5 1_555 1_555
C11 C6 1_555 1_555
H10 C11 1_555 1_555
H11 C11 1_555 1_555
H12 C11 1_555 1_555
C12 C8 1_555 1_555
H13 C12 1_555 1_555
H14 C12 1_555 1_555
H15 C12 1_555 1_555
C13 C10 1_555 1_555
H16 C13 1_555 1_555
H17 C13 1_555 1_555
H18 C13 1_555 1_555
C14 P1 1_555 1_555
C15 C14 1_555 1_555
C16 C15 1_555 1_555
H19 C16 1_555 1_555
C17 C16 1_555 1_555
C18 C17 1_555 1_555
H20 C18 1_555 1_555
C19 C14 1_555 1_555
C20 C15 1_555 1_555
H21 C20 1_555 1_555
H22 C20 1_555 1_555
H23 C20 1_555 1_555
C21 C17 1_555 1_555
H24 C21 1_555 1_555
H25 C21 1_555 1_555
H26 C21 1_555 1_555
C22 C19 1_555 1_555
H27 C22 1_555 1_555
H28 C22 1_555 1_555
H29 C22 1_555 1_555
C23 B1 1_555 1_555
F1 C24 1_555 1_555
C24 C23 1_555 1_555
F2 C25 1_555 1_555
C25 C24 1_555 1_555
F3 C26 1_555 1_555
C26 C25 1_555 1_555
F4 C27 1_555 1_555
C27 C26 1_555 1_555
F5 C28 1_555 1_555
C28 C23 1_555 1_555
C29 B1 1_555 1_555
F6 C30 1_555 1_555
C30 C29 1_555 1_555
F7 C31 1_555 1_555
C31 C30 1_555 1_555
F8 C32 1_555 1_555
C32 C31 1_555 1_555
F9 C33 1_555 1_555
C33 C32 1_555 1_555
F10 C34 1_555 1_555
C34 C29 1_555 1_555
C35 C4 1_555 1_555
C36 C35 1_555 1_555
H30 C36 1_555 1_555
C37 C36 1_555 1_555
H31 C37 1_555 1_555
C38 C37 1_555 1_555
H32 C38 1_555 1_555
C39 C38 1_555 1_555
H33 C39 1_555 1_555
C40 C35 1_555 1_555
H34 C40 1_555 1_555
C41 H35 1_555 1_555
H36 C41 1_555 1_555
Cl1 C41 1_555 1_555
Cl2 C41 1_555 1_555
C9 C10 1_555 1_555
C18 C19 1_555 1_555
C27 C28 1_555 1_555
C33 C34 1_555 1_555
C39 C40 1_555 1_555

#END
