
#######################################################################
#
#                 Cambridge Crystallographic Data Centre
#                                CCDC 
#
#######################################################################
#
# If this CIF has been generated from an entry in the Cambridge 
# Structural Database, then it will include bibliographic, chemical, 
# crystal, experimental, refinement or atomic coordinate data resulting 
# from the CCDC's data processing and validation procedures.
#
#######################################################################

data_EDOBEH
_chemical_formula_moiety         'C32 H34 B1 F10 N1,C1 H2 Cl2'
_chemical_name_systematic        
'bis(pentafluorophenyl)(2-phenylethyl)(3-(2,2,6,6-tetramethylpiperidinium-1-yl)propyl)borate dichloromethane solvate'
_symmetry_cell_setting           monoclinic
_symmetry_space_group_name_H-M   'P 21/n'
_symmetry_Int_Tables_number      14
_space_group_name_Hall           '-P 2yn'
loop_
_symmetry_equiv_pos_site_id
_symmetry_equiv_pos_as_xyz
1 x,y,z
2 1/2-x,1/2+y,1/2-z
3 -x,-y,-z
4 1/2+x,1/2-y,1/2+z
_cell_length_a                   10.9347(2)
_cell_length_b                   14.7766(3)
_cell_length_c                   20.7080(4)
_cell_angle_alpha                90
_cell_angle_beta                 95.5750(10)
_cell_angle_gamma                90
_cell_volume                     3330.12
_exptl_crystal_colour            colorless
_exptl_crystal_description       prism
_cell_formula_units_Z            4
loop_
_atom_site_label
_atom_site_type_symbol
_atom_site_fract_x
_atom_site_fract_y
_atom_site_fract_z
N1 N 0.14409(19) -0.24478(15) -0.04776(11)
H1 H 0.111(2) -0.1908(18) -0.0612(12)
B1 B 0.2807(2) -0.0100(2) 0.12356(14)
C1 C 0.2418(2) -0.22052(17) 0.00738(13)
H2 H 0.2279 -0.2568 0.0462
H3 H 0.3239 -0.2362 -0.0056
C2 C 0.2392(2) -0.12089(18) 0.02449(13)
H4 H 0.1545 -0.1033 0.0322
H5 H 0.2636 -0.0848 -0.0124
C3 C 0.3266(2) -0.09967(18) 0.08544(13)
H6 H 0.4104 -0.0889 0.0727
H7 H 0.3302 -0.1524 0.1151
C4 C 0.2691(2) 0.07758(18) 0.07555(13)
H8 H 0.2128 0.0626 0.0367
H9 H 0.2323 0.1283 0.0981
C5 C 0.3932(2) 0.1085(2) 0.05379(16)
H10 H 0.4528 0.1165 0.0925
H11 H 0.4253 0.0608 0.0264
C6 C 0.0335(2) -0.29727(19) -0.02364(14)
C7 C -0.0618(3) -0.3097(2) -0.08195(16)
H12 H -0.1300 -0.3472 -0.0686
H13 H -0.0961 -0.2497 -0.0951
C8 C -0.0117(3) -0.3536(2) -0.13994(17)
H14 H -0.0780 -0.3603 -0.1757
H15 H 0.0208 -0.4145 -0.1280
C9 C 0.0901(3) -0.2944(2) -0.16163(15)
H16 H 0.0552 -0.2345 -0.1746
H17 H 0.1212 -0.3221 -0.2004
C10 C 0.1984(3) -0.2804(2) -0.10991(14)
C11 C 0.0727(3) -0.3872(2) 0.00736(17)
H18 H 0.0936 -0.4295 -0.0263
H19 H 0.0051 -0.4121 0.0296
H20 H 0.1446 -0.3779 0.0387
C12 C -0.0215(3) -0.2372(2) 0.02612(16)
H21 H -0.0958 -0.2658 0.0396
H22 H -0.0425 -0.1781 0.0067
H23 H 0.0385 -0.2293 0.0640
C13 C 0.2724(3) -0.3668(2) -0.09675(16)
H24 H 0.3212 -0.3787 -0.1331
H25 H 0.2163 -0.4175 -0.0919
H26 H 0.3272 -0.3597 -0.0568
C14 C 0.2799(3) -0.2052(2) -0.13199(15)
H27 H 0.3512 -0.1974 -0.1000
H28 H 0.2331 -0.1486 -0.1361
H29 H 0.3079 -0.2212 -0.1741
C15 C 0.1488(2) -0.04091(17) 0.15197(12)
F1 F 0.01199(12) 0.05005(11) 0.08172(8)
C16 C 0.0307(2) -0.01430(17) 0.12886(12)
F2 F -0.18680(13) -0.01878(12) 0.12419(9)
C17 C -0.0760(2) -0.04842(18) 0.15011(13)
F3 F -0.17097(15) -0.14628(12) 0.22048(9)
C18 C -0.0689(2) -0.11195(19) 0.19862(14)
F4 F 0.05326(16) -0.19849(12) 0.27472(8)
C19 C 0.0447(3) -0.13891(18) 0.22528(13)
F5 F 0.25676(14) -0.13781(11) 0.22916(8)
C20 C 0.1478(2) -0.10458(18) 0.20117(13)
C21 C 0.3744(2) 0.02094(17) 0.18787(12)
F6 F 0.22239(13) 0.12316(11) 0.21853(8)
C22 C 0.3370(2) 0.08696(17) 0.22965(13)
F7 F 0.36235(15) 0.18256(12) 0.32213(8)
C23 C 0.4068(2) 0.11947(19) 0.28305(13)
F8 F 0.59661(15) 0.12054(14) 0.34836(8)
C24 C 0.5251(2) 0.0892(2) 0.29621(13)
F9 F 0.68480(14) -0.00500(13) 0.26943(9)
C25 C 0.5690(2) 0.02561(19) 0.25655(13)
F10 F 0.54473(13) -0.07268(12) 0.16963(8)
C26 C 0.4936(2) -0.00741(18) 0.20448(13)
C27 C 0.3822(2) 0.1958(2) 0.01621(14)
C28 C 0.3966(3) 0.2787(2) 0.04678(16)
H30 H 0.4181 0.2815 0.0923
C29 C 0.3796(3) 0.3590(2) 0.0106(2)
H31 H 0.3905 0.4160 0.0316
C30 C 0.3473(3) 0.3547(3) -0.05496(19)
H32 H 0.3348 0.4090 -0.0793
C31 C 0.3330(3) 0.2736(2) -0.08531(16)
H33 H 0.3103 0.2710 -0.1307
C32 C 0.3513(2) 0.1953(2) -0.05015(14)
H34 H 0.3425 0.1389 -0.0721
C33 C 0.4370(9) 0.6518(8) 0.1674(5)
H35 H 0.4681 0.6971 0.1378
H36 H 0.3798 0.6828 0.1944
Cl1 Cl 0.3571(4) 0.5655(7) 0.1211(4)
Cl2 Cl 0.5600(8) 0.6072(6) 0.2176(4)
C34? C 0.4237(12) 0.6173(10) 0.1614(7)
H37? H 0.3756 0.6607 0.1851
H38? H 0.4475 0.6474 0.1218
Cl3? Cl 0.3354(6) 0.5225(8) 0.1403(3)
Cl4? Cl 0.5553(11) 0.5840(9) 0.2106(6)
loop_
_geom_bond_atom_site_label_1
_geom_bond_atom_site_label_2
_geom_bond_site_symmetry_1
_geom_bond_site_symmetry_2
N1 H1 1_555 1_555
B1 C3 1_555 1_555
C1 N1 1_555 1_555
H2 C1 1_555 1_555
H3 C1 1_555 1_555
C2 C1 1_555 1_555
H4 C2 1_555 1_555
H5 C2 1_555 1_555
C3 C2 1_555 1_555
H6 C3 1_555 1_555
H7 C3 1_555 1_555
C4 B1 1_555 1_555
H8 C4 1_555 1_555
H9 C4 1_555 1_555
C5 C4 1_555 1_555
H10 C5 1_555 1_555
H11 C5 1_555 1_555
C6 N1 1_555 1_555
C7 C6 1_555 1_555
H12 C7 1_555 1_555
H13 C7 1_555 1_555
C8 C7 1_555 1_555
H14 C8 1_555 1_555
H15 C8 1_555 1_555
C9 C8 1_555 1_555
H16 C9 1_555 1_555
H17 C9 1_555 1_555
C10 N1 1_555 1_555
C11 C6 1_555 1_555
H18 C11 1_555 1_555
H19 C11 1_555 1_555
H20 C11 1_555 1_555
C12 C6 1_555 1_555
H21 C12 1_555 1_555
H22 C12 1_555 1_555
H23 C12 1_555 1_555
C13 C10 1_555 1_555
H24 C13 1_555 1_555
H25 C13 1_555 1_555
H26 C13 1_555 1_555
C14 C10 1_555 1_555
H27 C14 1_555 1_555
H28 C14 1_555 1_555
H29 C14 1_555 1_555
C15 B1 1_555 1_555
F1 C16 1_555 1_555
C16 C15 1_555 1_555
F2 C17 1_555 1_555
C17 C16 1_555 1_555
F3 C18 1_555 1_555
C18 C17 1_555 1_555
F4 C19 1_555 1_555
C19 C18 1_555 1_555
F5 C20 1_555 1_555
C20 C15 1_555 1_555
C21 B1 1_555 1_555
F6 C22 1_555 1_555
C22 C21 1_555 1_555
F7 C23 1_555 1_555
C23 C22 1_555 1_555
F8 C24 1_555 1_555
C24 C23 1_555 1_555
F9 C25 1_555 1_555
C25 C24 1_555 1_555
F10 C26 1_555 1_555
C26 C21 1_555 1_555
C27 C5 1_555 1_555
C28 C27 1_555 1_555
H30 C28 1_555 1_555
C29 C28 1_555 1_555
H31 C29 1_555 1_555
C30 C29 1_555 1_555
H32 C30 1_555 1_555
C31 C30 1_555 1_555
H33 C31 1_555 1_555
C32 C27 1_555 1_555
H34 C32 1_555 1_555
C33 H35 1_555 1_555
H36 C33 1_555 1_555
Cl1 C33 1_555 1_555
Cl2 C33 1_555 1_555
C9 C10 1_555 1_555
C19 C20 1_555 1_555
C25 C26 1_555 1_555
C31 C32 1_555 1_555

#END
