
#######################################################################
#
#                 Cambridge Crystallographic Data Centre
#                                CCDC 
#
#######################################################################
#
# If this CIF has been generated from an entry in the Cambridge 
# Structural Database, then it will include bibliographic, chemical, 
# crystal, experimental, refinement or atomic coordinate data resulting 
# from the CCDC's data processing and validation procedures.
#
#######################################################################

data_EDOFUY
_chemical_formula_moiety         'C16 H33 B10 Br1 Si1'
_chemical_name_systematic        
1-(2-(Bromomethyl)benzyl)-2-(t-butyldimethylsilyl)-1,2-dicarba-closo-dodecaborane(10)
_symmetry_cell_setting           triclinic
_symmetry_space_group_name_H-M   'P -1'
_symmetry_Int_Tables_number      2
_space_group_name_Hall           '-P 1'
loop_
_symmetry_equiv_pos_site_id
_symmetry_equiv_pos_as_xyz
1 x,y,z
2 -x,-y,-z
_cell_length_a                   7.4927(2)
_cell_length_b                   10.0475(3)
_cell_length_c                   16.2819(5)
_cell_angle_alpha                72.0640(10)
_cell_angle_beta                 83.1420(10)
_cell_angle_gamma                80.7340(10)
_cell_volume                     1147.78
_exptl_crystal_colour            colorless
_exptl_crystal_description       Block
_cell_formula_units_Z            2
loop_
_atom_site_label
_atom_site_type_symbol
_atom_site_fract_x
_atom_site_fract_y
_atom_site_fract_z
C1 C 0.7484(4) 0.2038(3) 0.80718(17)
C2 C 0.7451(4) 0.1597(3) 0.71482(17)
B1 B 0.5840(4) 0.1061(3) 0.7995(2)
H1 H 0.4363 0.1482 0.7975
B2 B 0.6895(5) -0.0079(3) 0.7375(2)
H2 H 0.6109 -0.0424 0.6950
B3 B 0.9168(5) 0.0296(3) 0.7071(2)
H3 H 0.9882 0.0201 0.6443
B4 B 0.9511(4) 0.1647(3) 0.7504(2)
H4 H 1.0433 0.2456 0.7165
B5 B 0.6997(5) 0.0633(4) 0.8954(2)
H5 H 0.6280 0.0761 0.9575
B6 B 0.6638(5) -0.0731(4) 0.8527(2)
H6 H 0.5683 -0.1514 0.8867
B7 B 0.8703(5) -0.1204(4) 0.7951(2)
H7 H 0.9114 -0.2306 0.7910
B8 B 1.0338(5) -0.0140(4) 0.8024(2)
H8 H 1.1824 -0.0532 0.8030
B9 B 0.9276(4) 0.0981(4) 0.8651(2)
H9 H 1.0060 0.1331 0.9073
B10 B 0.8766(5) -0.0783(4) 0.8929(2)
H10 H 0.9216 -0.1605 0.9534
C3 C 0.6839(4) 0.2798(3) 0.63442(17)
H11 H 0.5597 0.3225 0.6480
H12 H 0.7646 0.3536 0.6222
C4 C 0.6845(4) 0.2351(3) 0.55290(17)
C5 C 0.8441(4) 0.2349(3) 0.49868(18)
H13 H 0.9499 0.2582 0.5150
C6 C 0.8514(4) 0.2015(3) 0.42192(19)
H14 H 0.9612 0.2014 0.3861
C7 C 0.6955(4) 0.1679(3) 0.3976(2)
H15 H 0.6992 0.1438 0.3453
C8 C 0.5369(4) 0.1697(3) 0.44936(19)
H16 H 0.4312 0.1478 0.4320
C9 C 0.5282(4) 0.2032(3) 0.52738(18)
C10 C 0.3498(4) 0.2098(3) 0.5787(2)
H17 H 0.3684 0.1738 0.6414
H18 H 0.2716 0.1498 0.5653
Br1 Br 0.23046(4) 0.40760(3) 0.55000(2)
Si1 Si 0.68458(10) 0.39690(8) 0.81488(5)
C11 C 0.7763(4) 0.5271(3) 0.7153(2)
H19 H 0.7855 0.6146 0.7284
H20 H 0.6946 0.5475 0.6690
H21 H 0.8967 0.4873 0.6965
C12 C 0.8047(4) 0.3988(3) 0.9088(2)
H22 H 0.7724 0.4907 0.9196
H23 H 0.9360 0.3821 0.8957
H24 H 0.7686 0.3244 0.9604
C13 C 0.4321(4) 0.4531(3) 0.83473(19)
C14 C 0.4179(4) 0.6021(3) 0.8466(2)
H25 H 0.2900 0.6385 0.8558
H26 H 0.4724 0.6658 0.7947
H27 H 0.4822 0.5960 0.8969
C15 C 0.3495(4) 0.3563(4) 0.91875(19)
H28 H 0.2254 0.3974 0.9313
H29 H 0.4228 0.3467 0.9667
H30 H 0.3478 0.2631 0.9117
C16 C 0.3180(4) 0.4672(3) 0.7594(2)
H31 H 0.1945 0.5106 0.7709
H32 H 0.3142 0.3735 0.7536
H33 H 0.3727 0.5265 0.7056
loop_
_geom_bond_atom_site_label_1
_geom_bond_atom_site_label_2
_geom_bond_site_symmetry_1
_geom_bond_site_symmetry_2
C1 C2 1_555 1_555
C2 B1 1_555 1_555
B1 C1 1_555 1_555
H1 B1 1_555 1_555
B2 C2 1_555 1_555
H2 B2 1_555 1_555
B3 C2 1_555 1_555
H3 B3 1_555 1_555
B4 C1 1_555 1_555
H4 B4 1_555 1_555
B5 C1 1_555 1_555
H5 B5 1_555 1_555
B6 B1 1_555 1_555
H6 B6 1_555 1_555
B7 B2 1_555 1_555
H7 B7 1_555 1_555
B8 B3 1_555 1_555
H8 B8 1_555 1_555
B9 C1 1_555 1_555
H9 B9 1_555 1_555
B10 B5 1_555 1_555
H10 B10 1_555 1_555
C3 C2 1_555 1_555
H11 C3 1_555 1_555
H12 C3 1_555 1_555
C4 C3 1_555 1_555
C5 C4 1_555 1_555
H13 C5 1_555 1_555
C6 C5 1_555 1_555
H14 C6 1_555 1_555
C7 C6 1_555 1_555
H15 C7 1_555 1_555
C8 C7 1_555 1_555
H16 C8 1_555 1_555
C9 C4 1_555 1_555
C10 C9 1_555 1_555
H17 C10 1_555 1_555
H18 C10 1_555 1_555
Br1 C10 1_555 1_555
Si1 C1 1_555 1_555
C11 Si1 1_555 1_555
H19 C11 1_555 1_555
H20 C11 1_555 1_555
H21 C11 1_555 1_555
C12 Si1 1_555 1_555
H22 C12 1_555 1_555
H23 C12 1_555 1_555
H24 C12 1_555 1_555
C13 Si1 1_555 1_555
C14 C13 1_555 1_555
H25 C14 1_555 1_555
H26 C14 1_555 1_555
H27 C14 1_555 1_555
C15 C13 1_555 1_555
H28 C15 1_555 1_555
H29 C15 1_555 1_555
H30 C15 1_555 1_555
C16 C13 1_555 1_555
H31 C16 1_555 1_555
H32 C16 1_555 1_555
H33 C16 1_555 1_555
C2 B4 1_555 1_555
B1 B5 1_555 1_555
B1 B2 1_555 1_555
B2 B6 1_555 1_555
B2 B3 1_555 1_555
B3 B4 1_555 1_555
B3 B7 1_555 1_555
B4 B9 1_555 1_555
B4 B8 1_555 1_555
B5 B6 1_555 1_555
B5 B9 1_555 1_555
B6 B10 1_555 1_555
B6 B7 1_555 1_555
B7 B10 1_555 1_555
B7 B8 1_555 1_555
B8 B9 1_555 1_555
B8 B10 1_555 1_555
B9 B10 1_555 1_555
C8 C9 1_555 1_555

#END
