
#######################################################################
#
#                 Cambridge Crystallographic Data Centre
#                                CCDC 
#
#######################################################################
#
# If this CIF has been generated from an entry in the Cambridge 
# Structural Database, then it will include bibliographic, chemical, 
# crystal, experimental, refinement or atomic coordinate data resulting 
# from the CCDC's data processing and validation procedures.
#
#######################################################################

data_EDONUH
_chemical_formula_moiety         'C18 H16 N1 O5 P1 S1'
_chemical_name_systematic        
'(2-nitro-1-thiophen-2-ylethyl)phosphonate diphenyl ester'
_symmetry_cell_setting           monoclinic
_symmetry_space_group_name_H-M   'P 21'
_symmetry_Int_Tables_number      4
_space_group_name_Hall           'P 2yb'
loop_
_symmetry_equiv_pos_site_id
_symmetry_equiv_pos_as_xyz
1 x,y,z
2 -x,1/2+y,-z
_cell_length_a                   10.7114(6)
_cell_length_b                   5.7910(3)
_cell_length_c                   14.6726(9)
_cell_angle_alpha                90
_cell_angle_beta                 103.765(3)
_cell_angle_gamma                90
_cell_volume                     883.998
_exptl_crystal_colour            colorless
_cell_formula_units_Z            2
loop_
_atom_site_label
_atom_site_type_symbol
_atom_site_fract_x
_atom_site_fract_y
_atom_site_fract_z
S1 S 1.21490(6) 0.23457(11) 0.14860(5)
P1 P 0.94488(4) 0.38068(7) 0.25825(3)
O1 O 0.92317(12) 0.1479(2) 0.22014(9)
O2 O 0.86768(11) 0.5816(2) 0.19665(9)
O3 O 0.91557(12) 0.4102(3) 0.35919(8)
O4 O 1.34517(13) 0.6706(3) 0.33881(12)
O5 O 1.27639(17) 1.0013(3) 0.37365(14)
N1 N 1.26031(15) 0.8023(3) 0.34393(11)
C1 C 1.1964(3) 0.3309(8) 0.03642(19)
H1 H 1.2257 0.2509 -0.0102
C2 C 1.1351(3) 0.5339(8) 0.02258(15)
H2 H 1.1170 0.6121 -0.0352
C3 C 1.10035(17) 0.6191(5) 0.10297(13)
H3 H 1.0566 0.7590 0.1050
C4 C 1.13861(14) 0.4715(3) 0.17844(11)
C5 C 1.10790(14) 0.4858(3) 0.27316(10)
H4 H 1.1663 0.3799 0.3163
C6 C 1.12251(15) 0.7252(3) 0.31615(13)
H5 H 1.0731 0.8353 0.2709
H6 H 1.0867 0.7258 0.3717
C7 C 0.73323(14) 0.6006(3) 0.17423(11)
C8 C 0.65819(17) 0.4335(4) 0.12132(13)
H7 H 0.6954 0.3022 0.1008
C9 C 0.52548(18) 0.4643(5) 0.09894(15)
H8 H 0.4720 0.3534 0.0623
C10 C 0.47209(17) 0.6565(4) 0.13015(15)
H9 H 0.3823 0.6740 0.1160
C11 C 0.54966(18) 0.8230(4) 0.18189(14)
H10 H 0.5127 0.9549 0.2020
C12 C 0.68255(16) 0.7967(3) 0.20446(13)
H11 H 0.7363 0.9098 0.2394
C13 C 0.82930(16) 0.2604(3) 0.38921(11)
C14 C 0.70145(18) 0.3237(4) 0.37462(13)
H12 H 0.6716 0.4634 0.3446
C15 C 0.6186(2) 0.1746(5) 0.40559(15)
H13 H 0.5313 0.2141 0.3963
C16 C 0.6623(2) -0.0296(5) 0.44956(15)
H14 H 0.6050 -0.1295 0.4695
C17 C 0.7898(2) -0.0873(4) 0.46420(13)
H15 H 0.8196 -0.2262 0.4949
C18 C 0.87517(19) 0.0579(4) 0.43397(12)
H16 H 0.9625 0.0185 0.4439
loop_
_geom_bond_atom_site_label_1
_geom_bond_atom_site_label_2
_geom_bond_site_symmetry_1
_geom_bond_site_symmetry_2
S1 C1 1_555 1_555
P1 O1 1_555 1_555
O2 P1 1_555 1_555
O3 P1 1_555 1_555
O4 N1 1_555 1_555
O5 N1 1_555 1_555
N1 C6 1_555 1_555
C1 H1 1_555 1_555
C2 C1 1_555 1_555
H2 C2 1_555 1_555
C3 C2 1_555 1_555
H3 C3 1_555 1_555
C4 S1 1_555 1_555
C5 P1 1_555 1_555
H4 C5 1_555 1_555
C6 C5 1_555 1_555
H5 C6 1_555 1_555
H6 C6 1_555 1_555
C7 O2 1_555 1_555
C8 C7 1_555 1_555
H7 C8 1_555 1_555
C9 C8 1_555 1_555
H8 C9 1_555 1_555
C10 C9 1_555 1_555
H9 C10 1_555 1_555
C11 C10 1_555 1_555
H10 C11 1_555 1_555
C12 C7 1_555 1_555
H11 C12 1_555 1_555
C13 O3 1_555 1_555
C14 C13 1_555 1_555
H12 C14 1_555 1_555
C15 C14 1_555 1_555
H13 C15 1_555 1_555
C16 C15 1_555 1_555
H14 C16 1_555 1_555
C17 C16 1_555 1_555
H15 C17 1_555 1_555
C18 C13 1_555 1_555
H16 C18 1_555 1_555
C3 C4 1_555 1_555
C4 C5 1_555 1_555
C11 C12 1_555 1_555
C17 C18 1_555 1_555

#END
