
#######################################################################
#
#                 Cambridge Crystallographic Data Centre
#                                CCDC 
#
#######################################################################
#
# If this CIF has been generated from an entry in the Cambridge 
# Structural Database, then it will include bibliographic, chemical, 
# crystal, experimental, refinement or atomic coordinate data resulting 
# from the CCDC's data processing and validation procedures.
#
#######################################################################

data_EDOTAU
_chemical_formula_moiety         'C50 H60 N4 O8,C1 H4 O1'
_chemical_name_systematic        
'4,9,9,14,48,48-hexamethyl-20,23,26,29,32,35,38,41-octaoxa-53,54,55,56-tetraazanonacyclo[15.14.10.9^4,14^.1^3,30^.1^5,8^.1^10,13^.1^15,19^.1^44,47^.1^49,52^]hexapentaconta-1,3(42),5,7,10,12,15(43),16,18,30,44,46,49,51-tetradecaene methanol solvate'
_symmetry_cell_setting           orthorhombic
_symmetry_space_group_name_H-M   'P 21 21 21'
_symmetry_Int_Tables_number      19
_space_group_name_Hall           'P 2ac 2ab'
loop_
_symmetry_equiv_pos_site_id
_symmetry_equiv_pos_as_xyz
1 x,y,z
2 1/2-x,-y,1/2+z
3 -x,1/2+y,1/2-z
4 1/2+x,1/2-y,-z
_cell_length_a                   9.7263(19)
_cell_length_b                   20.069(4)
_cell_length_c                   22.988(5)
_cell_angle_alpha                90
_cell_angle_beta                 90
_cell_angle_gamma                90
_cell_volume                     4487.19
_exptl_crystal_colour            colorless
_exptl_crystal_description       plate
_cell_formula_units_Z            4
loop_
_atom_site_label
_atom_site_type_symbol
_atom_site_fract_x
_atom_site_fract_y
_atom_site_fract_z
C1 C 0.9793(2) 1.20570(12) 0.15598(10)
C2 C 1.0199(3) 1.26734(13) 0.13730(11)
H1 H 1.0271 1.3055 0.1600
C3 C 1.0492(3) 1.26248(13) 0.07715(11)
H2 H 1.0788 1.2972 0.0535
C4 C 1.0268(2) 1.19871(12) 0.05965(10)
C5 C 1.0247(2) 1.16622(12) -0.00026(10)
C6 C 0.9288(3) 1.20732(14) -0.03929(12)
H3 H 0.9311 1.1898 -0.0781
H4 H 0.9587 1.2529 -0.0397
H5 H 0.8367 1.2049 -0.0245
C7 C 1.1679(3) 1.16782(14) -0.02948(11)
H6 H 1.2326 1.1440 -0.0057
H7 H 1.1974 1.2132 -0.0337
H8 H 1.1626 1.1472 -0.0671
C8 C 0.9708(2) 1.09636(12) 0.00518(9)
C9 C 0.8373(2) 1.07494(12) 0.00953(10)
H9 H 0.7595 1.1019 0.0086
C10 C 0.8380(2) 1.00480(12) 0.01576(10)
H10 H 0.7609 0.9777 0.0191
C11 C 0.9724(2) 0.98377(12) 0.01606(9)
C12 C 1.0336(2) 0.91427(12) 0.02310(10)
C13 C 1.1348(2) 0.90069(13) -0.02763(11)
H11 H 1.2116 0.9306 -0.0248
H12 H 1.0886 0.9075 -0.0640
H13 H 1.1670 0.8555 -0.0254
C14 C 1.1134(2) 0.90996(12) 0.07975(10)
C15 C 1.2385(3) 0.88207(13) 0.09218(11)
H14 H 1.2960 0.8605 0.0659
C16 C 1.2651(3) 0.89190(13) 0.15230(11)
H15 H 1.3429 0.8777 0.1723
C17 C 1.1564(2) 0.92597(12) 0.17572(10)
C18 C 1.1315(2) 0.94915(12) 0.23765(10)
C19 C 1.2463(3) 0.92255(14) 0.27691(11)
H16 H 1.2498 0.8749 0.2741
H17 H 1.2283 0.9351 0.3165
H18 H 1.3328 0.9410 0.2648
C20 C 0.9924(3) 0.92135(13) 0.25917(11)
H19 H 0.9193 0.9397 0.2361
H20 H 0.9792 0.9334 0.2992
H21 H 0.9922 0.8737 0.2555
C21 C 1.1264(2) 1.02434(12) 0.24319(10)
C22 C 1.2060(2) 1.06750(13) 0.27478(10)
H22 H 1.2847 1.0566 0.2957
C23 C 1.1469(2) 1.13182(13) 0.26994(9)
H23 H 1.1801 1.1704 0.2873
C24 C 1.0339(2) 1.12760(12) 0.23571(9)
C25 C 0.9330(2) 1.17986(12) 0.21495(10)
C26 C 0.9315(3) 1.23808(12) 0.25897(10)
H24 H 0.8983 1.2224 0.2958
H25 H 0.8723 1.2728 0.2449
H26 H 1.0231 1.2552 0.2635
C27 C 0.9124(2) 0.86503(12) 0.02085(10)
C28 C 0.8658(2) 0.83071(11) 0.06932(10)
H27 H 0.9175 0.8309 0.1033
C29 C 0.7414(2) 0.79588(12) 0.06733(10)
C30 C 0.6635(3) 0.79392(12) 0.01701(11)
H28 H 0.5807 0.7708 0.0160
C31 C 0.7117(2) 0.82724(13) -0.03200(10)
C32 C 0.8349(2) 0.86112(13) -0.03029(10)
H29 H 0.8671 0.8818 -0.0638
C33 C 0.5566(3) 0.75949(14) 0.12836(11)
H30 H 0.5188 0.7229 0.1059
H31 H 0.5108 0.8002 0.1165
C34 C 0.5342(3) 0.74759(13) 0.19155(11)
H32 H 0.4376 0.7389 0.1988
H33 H 0.5864 0.7089 0.2039
C35 C 0.6010(3) 0.79163(15) 0.28317(12)
H34 H 0.6650 0.7548 0.2872
H35 H 0.5155 0.7792 0.3020
C36 C 0.6589(3) 0.85240(15) 0.31165(12)
H36 H 0.7067 0.8398 0.3470
H37 H 0.7247 0.8734 0.2858
C37 C 0.5893(3) 0.95005(14) 0.36351(11)
H38 H 0.6484 0.9321 0.3937
H39 H 0.5067 0.9667 0.3822
C38 C 0.6609(3) 1.00656(14) 0.33512(11)
H40 H 0.6989 1.0362 0.3643
H41 H 0.7356 0.9902 0.3111
C39 C 0.4972(2) 0.84385(14) -0.08277(11)
H42 H 0.4587 0.8299 -0.0458
H43 H 0.4499 0.8197 -0.1133
C40 C 0.4728(3) 0.91674(14) -0.09061(10)
H44 H 0.5352 0.9341 -0.1198
H45 H 0.3795 0.9241 -0.1040
C41 C 0.4814(3) 1.02087(14) -0.04304(11)
H46 H 0.3988 1.0313 -0.0648
H47 H 0.5597 1.0381 -0.0645
C42 C 0.4748(2) 1.05348(14) 0.01610(11)
H48 H 0.5429 1.0337 0.0417
H49 H 0.4948 1.1007 0.0126
C43 C 0.3324(3) 1.05587(13) 0.10132(10)
H50 H 0.4043 1.0305 0.1204
H51 H 0.2448 1.0387 0.1149
C44 C 0.3446(2) 1.12761(13) 0.11987(10)
H52 H 0.2902 1.1550 0.0938
H53 H 0.3064 1.1323 0.1586
C45 C 0.5644(2) 1.13652(12) 0.16722(10)
C46 C 0.5230(2) 1.09619(12) 0.21247(10)
H54 H 0.4354 1.0776 0.2125
C47 C 0.6128(2) 1.08351(12) 0.25791(10)
C48 C 0.7422(2) 1.11153(12) 0.25898(10)
H55 H 0.7999 1.1042 0.2906
C49 C 0.7866(2) 1.15105(12) 0.21249(10)
C50 C 0.6972(2) 1.16338(12) 0.16697(10)
H56 H 0.7256 1.1897 0.1359
N1 N 0.98623(19) 1.16463(10) 0.10852(8)
H57 H 0.9675 1.1228 0.1092
N2 N 1.05229(19) 1.03998(9) 0.00963(8)
H58 H 1.1407 1.0400 0.0085
N3 N 1.06539(19) 0.93690(10) 0.13093(8)
H59 H 0.9886 0.9578 0.1344
N4 N 1.02262(19) 1.06164(10) 0.21856(8)
H60 H 0.9600 1.0462 0.1959
O1 O 0.48433(16) 1.15208(8) 0.12014(7)
O2 O 0.34177(16) 1.04456(9) 0.03980(7)
O3 O 0.49398(17) 0.95075(9) -0.03687(7)
O4 O 0.64075(17) 0.82701(9) -0.08418(7)
O5 O 0.56221(17) 1.04157(9) 0.29992(7)
O6 O 0.5525(2) 0.89791(9) 0.32506(8)
O7 O 0.5769(2) 0.80443(9) 0.22342(7)
O8 O 0.70182(17) 0.76486(9) 0.11808(7)
C51 C 0.6783(3) 0.94525(14) 0.15970(13)
H61 H 0.7217 0.9029 0.1658
H62 H 0.6222 0.9433 0.1254
H63 H 0.6219 0.9559 0.1927
O9 O 0.78181(18) 0.99576(9) 0.15256(8)
H64 H 0.8452 0.9809 0.1329
loop_
_geom_bond_atom_site_label_1
_geom_bond_atom_site_label_2
_geom_bond_site_symmetry_1
_geom_bond_site_symmetry_2
C1 C2 1_555 1_555
C2 H1 1_555 1_555
C3 C2 1_555 1_555
H2 C3 1_555 1_555
C4 C3 1_555 1_555
C5 C4 1_555 1_555
C6 C5 1_555 1_555
H3 C6 1_555 1_555
H4 C6 1_555 1_555
H5 C6 1_555 1_555
C7 C5 1_555 1_555
H6 C7 1_555 1_555
H7 C7 1_555 1_555
H8 C7 1_555 1_555
C8 C5 1_555 1_555
C9 C8 1_555 1_555
H9 C9 1_555 1_555
C10 C9 1_555 1_555
H10 C10 1_555 1_555
C11 C10 1_555 1_555
C12 C11 1_555 1_555
C13 C12 1_555 1_555
H11 C13 1_555 1_555
H12 C13 1_555 1_555
H13 C13 1_555 1_555
C14 C12 1_555 1_555
C15 C14 1_555 1_555
H14 C15 1_555 1_555
C16 C15 1_555 1_555
H15 C16 1_555 1_555
C17 C16 1_555 1_555
C18 C17 1_555 1_555
C19 C18 1_555 1_555
H16 C19 1_555 1_555
H17 C19 1_555 1_555
H18 C19 1_555 1_555
C20 C18 1_555 1_555
H19 C20 1_555 1_555
H20 C20 1_555 1_555
H21 C20 1_555 1_555
C21 C18 1_555 1_555
C22 C21 1_555 1_555
H22 C22 1_555 1_555
C23 C22 1_555 1_555
H23 C23 1_555 1_555
C24 C23 1_555 1_555
C25 C1 1_555 1_555
C26 C25 1_555 1_555
H24 C26 1_555 1_555
H25 C26 1_555 1_555
H26 C26 1_555 1_555
C27 C12 1_555 1_555
C28 C27 1_555 1_555
H27 C28 1_555 1_555
C29 C28 1_555 1_555
C30 C29 1_555 1_555
H28 C30 1_555 1_555
C31 C30 1_555 1_555
C32 C27 1_555 1_555
H29 C32 1_555 1_555
C33 H30 1_555 1_555
H31 C33 1_555 1_555
C34 C33 1_555 1_555
H32 C34 1_555 1_555
H33 C34 1_555 1_555
C35 H34 1_555 1_555
H35 C35 1_555 1_555
C36 C35 1_555 1_555
H36 C36 1_555 1_555
H37 C36 1_555 1_555
C37 H38 1_555 1_555
H39 C37 1_555 1_555
C38 C37 1_555 1_555
H40 C38 1_555 1_555
H41 C38 1_555 1_555
C39 H42 1_555 1_555
H43 C39 1_555 1_555
C40 C39 1_555 1_555
H44 C40 1_555 1_555
H45 C40 1_555 1_555
C41 H46 1_555 1_555
H47 C41 1_555 1_555
C42 C41 1_555 1_555
H48 C42 1_555 1_555
H49 C42 1_555 1_555
C43 H50 1_555 1_555
H51 C43 1_555 1_555
C44 C43 1_555 1_555
H52 C44 1_555 1_555
H53 C44 1_555 1_555
C45 C46 1_555 1_555
C46 H54 1_555 1_555
C47 C46 1_555 1_555
C48 C47 1_555 1_555
H55 C48 1_555 1_555
C49 C25 1_555 1_555
C50 C45 1_555 1_555
H56 C50 1_555 1_555
N1 C1 1_555 1_555
H57 N1 1_555 1_555
N2 C8 1_555 1_555
H58 N2 1_555 1_555
N3 C14 1_555 1_555
H59 N3 1_555 1_555
N4 C21 1_555 1_555
H60 N4 1_555 1_555
O1 C44 1_555 1_555
O2 C42 1_555 1_555
O3 C40 1_555 1_555
O4 C31 1_555 1_555
O5 C38 1_555 1_555
O6 C36 1_555 1_555
O7 C34 1_555 1_555
O8 C29 1_555 1_555
C51 H61 1_555 1_555
H62 C51 1_555 1_555
H63 C51 1_555 1_555
O9 C51 1_555 1_555
H64 O9 1_555 1_555
C4 N1 1_555 1_555
C11 N2 1_555 1_555
C17 N3 1_555 1_555
C24 C25 1_555 1_555
C24 N4 1_555 1_555
C31 C32 1_555 1_555
C33 O8 1_555 1_555
C35 O7 1_555 1_555
C37 O6 1_555 1_555
C39 O4 1_555 1_555
C41 O3 1_555 1_555
C43 O2 1_555 1_555
C45 O1 1_555 1_555
C47 O5 1_555 1_555
C48 C49 1_555 1_555
C49 C50 1_555 1_555

#END
