
#######################################################################
#
#                 Cambridge Crystallographic Data Centre
#                                CCDC 
#
#######################################################################
#
# If this CIF has been generated from an entry in the Cambridge 
# Structural Database, then it will include bibliographic, chemical, 
# crystal, experimental, refinement or atomic coordinate data resulting 
# from the CCDC's data processing and validation procedures.
#
#######################################################################

data_EDOXIF
_chemical_formula_moiety         'C52 H72 O8'
_chemical_name_systematic        
4,10,16,22-tetrahydroxy-6,12,18,24-tetramethoxy-2,8,14,20-tetra-n-pentylcalix(4)arene
_symmetry_cell_setting           monoclinic
_symmetry_space_group_name_H-M   'P 21/c'
_symmetry_Int_Tables_number      14
_space_group_name_Hall           '-P 2ybc'
loop_
_symmetry_equiv_pos_site_id
_symmetry_equiv_pos_as_xyz
1 x,y,z
2 -x,1/2+y,1/2-z
3 -x,-y,-z
4 x,1/2-y,1/2+z
_cell_length_a                   12.2425(5)
_cell_length_b                   36.6729(9)
_cell_length_c                   21.7305(9)
_cell_angle_alpha                90
_cell_angle_beta                 102.021(1)
_cell_angle_gamma                90
_cell_volume                     9542.36
_exptl_crystal_colour            colorless
_exptl_crystal_description       block
_cell_formula_units_Z            8
loop_
_atom_site_label
_atom_site_type_symbol
_atom_site_fract_x
_atom_site_fract_y
_atom_site_fract_z
C1 C 0.2651(3) 0.34825(10) 0.28097(18)
C2 C 0.2485(3) 0.37136(10) 0.32911(19)
H1 H 0.2884 0.3937 0.3351
C3 C 0.1757(4) 0.36314(10) 0.3689(2)
C4 C 0.1174(4) 0.33053(10) 0.3585(2)
C5 C 0.1297(3) 0.30737(10) 0.31060(19)
H2 H 0.0877 0.2854 0.3037
C6 C 0.2035(4) 0.31613(10) 0.27255(19)
C7 C 0.1628(4) 0.38721(10) 0.42381(19)
H3 H 0.0817 0.3872 0.4253
C8 C 0.2255(4) 0.37039(10) 0.4857(2)
C9 C 0.3423(4) 0.36992(10) 0.5009(2)
H4 H 0.3811 0.3800 0.4714
C10 C 0.4046(4) 0.35583(10) 0.5558(2)
C11 C 0.3453(5) 0.33984(11) 0.5973(2)
C12 C 0.2305(4) 0.33912(11) 0.5844(2)
H5 H 0.1919 0.3283 0.6135
C13 C 0.1710(4) 0.35427(11) 0.5291(2)
C14 C 0.5321(4) 0.35810(11) 0.5712(2)
H6 H 0.5557 0.3513 0.6166
C15 C 0.5865(4) 0.33051(11) 0.53509(19)
C16 C 0.6219(3) 0.33916(10) 0.47947(18)
H7 H 0.6085 0.3631 0.4631
C17 C 0.6753(3) 0.31477(10) 0.44709(18)
C18 C 0.6966(3) 0.28001(10) 0.47243(19)
C19 C 0.6603(4) 0.27013(11) 0.52620(19)
H8 H 0.6737 0.2461 0.5425
C20 C 0.6046(4) 0.29492(12) 0.55629(19)
C21 C 0.7141(3) 0.32469(9) 0.38690(17)
H9 H 0.7800 0.3088 0.3856
C22 C 0.6255(4) 0.31544(9) 0.32812(18)
C23 C 0.5281(4) 0.33574(9) 0.31201(19)
H10 H 0.5145 0.3540 0.3405
C24 C 0.4488(4) 0.33080(10) 0.25621(19)
C25 C 0.4678(4) 0.30256(10) 0.21675(19)
C26 C 0.5622(4) 0.28097(10) 0.23108(19)
H11 H 0.5729 0.2616 0.2039
C27 C 0.6411(4) 0.28789(9) 0.28566(19)
C28 C 0.3481(4) 0.35609(10) 0.23896(19)
H12 H 0.3097 0.3496 0.1951
O1 O 0.0487(2) 0.32241(7) 0.39946(13)
O2 O 0.2104(3) 0.29064(7) 0.22631(13)
H13 H 0.2614 0.2967 0.2078
O3 O 0.4098(3) 0.32457(8) 0.65076(14)
O4 O 0.0555(3) 0.35249(9) 0.51915(15)
H14 H 0.0293 0.3471 0.4814
O5 O 0.7545(2) 0.25710(7) 0.44053(13)
O6 O 0.5708(3) 0.28127(8) 0.60859(14)
H15 H 0.5309 0.2968 0.6219
O7 O 0.3858(2) 0.29519(7) 0.16338(13)
O8 O 0.7390(2) 0.26812(6) 0.29950(13)
H16 H 0.7325 0.2492 0.2771
C29 C 0.1967(4) 0.42698(10) 0.4174(2)
H17 H 0.2788 0.4284 0.4225
H18 H 0.1626 0.4358 0.3747
C30 C 0.1604(4) 0.45163(10) 0.4658(2)
H19 H 0.0786 0.4496 0.4616
H20 H 0.1964 0.4433 0.5085
C31 C 0.1904(5) 0.49122(12) 0.4584(3)
H21 H 0.2726 0.4930 0.4645
H22 H 0.1583 0.4987 0.4146
C32 C 0.1526(6) 0.51761(13) 0.5017(3)
H23 H 0.1867 0.5107 0.5455
H24 H 0.0706 0.5153 0.4967
C33 C 0.1802(6) 0.55717(13) 0.4923(3)
H25 H 0.2588 0.5617 0.5114
H26 H 0.1327 0.5729 0.5121
H27 H 0.1670 0.5625 0.4471
C34 C 0.5716(4) 0.39724(11) 0.5660(2)
H28 H 0.5478 0.4055 0.5218
H29 H 0.6542 0.3978 0.5769
C35 C 0.5260(5) 0.42380(13) 0.6088(3)
H30 H 0.4440 0.4207 0.6016
H31 H 0.5574 0.4171 0.6531
C36 C 0.5513(6) 0.46403(14) 0.5996(3)
H32 H 0.6318 0.4681 0.6169
H33 H 0.5381 0.4689 0.5539
C37 C 0.4878(7) 0.49135(16) 0.6281(4)
H34 H 0.5015 0.4866 0.6739
H35 H 0.4073 0.4872 0.6110
C38 C 0.5116(7) 0.53052(17) 0.6190(4)
H36 H 0.5893 0.5359 0.6390
H37 H 0.4615 0.5456 0.6381
H38 H 0.4995 0.5359 0.5739
C39 C 0.7543(4) 0.36407(10) 0.38532(18)
H39 H 0.6905 0.3806 0.3855
H40 H 0.8112 0.3689 0.4240
C40 C 0.8041(4) 0.37288(10) 0.3285(2)
H41 H 0.8658 0.3556 0.3273
H42 H 0.7462 0.3692 0.2898
C41 C 0.8478(5) 0.41124(12) 0.3289(2)
H43 H 0.9043 0.4151 0.3682
H44 H 0.7856 0.4284 0.3293
C42 C 0.9006(5) 0.42039(15) 0.2730(3)
H45 H 0.9436 0.4433 0.2815
H46 H 0.9529 0.4007 0.2672
C43 C 0.8116(6) 0.42459(17) 0.2133(3)
H47 H 0.7707 0.4016 0.2040
H48 H 0.8471 0.4309 0.1782
H49 H 0.7596 0.4440 0.2191
C44 C 0.3861(4) 0.39602(10) 0.2372(2)
H50 H 0.3204 0.4123 0.2324
H51 H 0.4374 0.4021 0.2775
C45 C 0.4454(4) 0.40229(10) 0.1827(2)
H52 H 0.5094 0.3853 0.1874
H53 H 0.3931 0.3962 0.1429
C46 C 0.4877(4) 0.44051(11) 0.1778(2)
H54 H 0.5487 0.4454 0.2146
H55 H 0.4265 0.4579 0.1794
C47 C 0.5313(5) 0.44722(14) 0.1168(3)
H56 H 0.5728 0.4706 0.1210
H57 H 0.5846 0.4276 0.1124
C48 C 0.4400(6) 0.44857(19) 0.0570(3)
H58 H 0.3959 0.4261 0.0534
H59 H 0.4744 0.4509 0.0203
H60 H 0.3912 0.4696 0.0589
C49 C -0.0054(4) 0.28727(10) 0.3932(2)
H61 H -0.0591 0.2861 0.3529
H62 H -0.0445 0.2837 0.4277
H63 H 0.0508 0.2681 0.3946
C50 C 0.3539(4) 0.30673(13) 0.6943(2)
H64 H 0.3037 0.3240 0.7088
H65 H 0.4094 0.2979 0.7305
H66 H 0.3105 0.2861 0.6735
C51 C 0.8114(4) 0.22616(11) 0.4737(2)
H67 H 0.8603 0.2345 0.5128
H68 H 0.8563 0.2141 0.4473
H69 H 0.7563 0.2090 0.4837
C52 C 0.4181(4) 0.30155(12) 0.10515(19)
H70 H 0.4487 0.3262 0.1049
H71 H 0.3529 0.2991 0.0706
H72 H 0.4751 0.2837 0.0998
C53 C 0.7534(4) 0.12978(9) 0.50472(19)
C54 C 0.8685(4) 0.13436(9) 0.51764(19)
H73 H 0.9092 0.1242 0.4890
C55 C 0.9278(3) 0.15291(9) 0.57005(18)
C56 C 0.8652(4) 0.16905(10) 0.60996(19)
C57 C 0.7503(4) 0.16498(10) 0.59851(19)
H74 H 0.7089 0.1757 0.6263
C58 C 0.6955(4) 0.14535(10) 0.5467(2)
C59 C 1.0538(4) 0.15429(10) 0.58387(19)
H75 H 1.0776 0.1645 0.6273
C60 C 1.1008(3) 0.17975(10) 0.54011(18)
C61 C 1.1358(3) 0.16697(10) 0.48598(18)
H76 H 1.1248 0.1419 0.4751
C62 C 1.1854(3) 0.18918(9) 0.44780(18)
C63 C 1.2041(3) 0.22560(10) 0.46649(18)
C64 C 1.1666(4) 0.23957(10) 0.51763(19)
H77 H 1.1770 0.2646 0.5283
C65 C 1.1140(4) 0.21685(10) 0.55279(18)
C66 C 1.2219(3) 0.17529(9) 0.38897(18)
H78 H 1.2859 0.1911 0.3836
C67 C 1.1311(4) 0.18073(9) 0.33000(18)
C68 C 1.0344(4) 0.16010(9) 0.31901(18)
H79 H 1.0234 0.1434 0.3506
C69 C 0.9524(4) 0.16242(10) 0.26421(19)
C70 C 0.9671(4) 0.18889(10) 0.21999(19)
C71 C 1.0635(4) 0.20991(10) 0.2295(2)
H80 H 1.0735 0.2273 0.1987
C72 C 1.1454(4) 0.20574(9) 0.2838(2)
C73 C 0.8542(3) 0.13627(9) 0.25091(19)
H81 H 0.8128 0.1415 0.2071
C74 C 0.7730(3) 0.14389(10) 0.29409(18)
C75 C 0.7660(3) 0.12210(10) 0.34543(19)
H82 H 0.8102 0.1006 0.3523
C76 C 0.6971(4) 0.13030(10) 0.38748(19)
C77 C 0.6320(4) 0.16154(10) 0.3751(2)
C78 C 0.6362(4) 0.18394(10) 0.3246(2)
H83 H 0.5906 0.2051 0.3169
C79 C 0.7084(4) 0.17511(10) 0.28496(19)
C80 C 0.6971(4) 0.10773(9) 0.44652(18)
H84 H 0.6174 0.1039 0.4494
O9 O 0.9248(2) 0.18950(7) 0.65819(13)
O10 O 0.5808(3) 0.14245(8) 0.53904(14)
H85 H 0.5511 0.1435 0.5006
O11 O 1.2603(2) 0.24640(6) 0.43040(13)
O12 O 1.0764(3) 0.23344(7) 0.60156(13)
H86 H 1.0413 0.2182 0.6188
O13 O 0.8815(3) 0.19398(7) 0.16765(13)
O14 O 1.2440(2) 0.22492(7) 0.29273(13)
H87 H 1.2354 0.2435 0.2697
O15 O 0.5632(2) 0.16937(7) 0.41686(13)
O16 O 0.7098(3) 0.20026(7) 0.23714(13)
H88 H 0.7461 0.1917 0.2117
C81 C 1.1057(4) 0.11542(10) 0.58533(19)
H89 H 1.0764 0.1032 0.5447
H90 H 1.1876 0.1176 0.5903
C82 C 1.0801(4) 0.09196(10) 0.6385(2)
H91 H 1.1092 0.1042 0.6792
H92 H 0.9981 0.0896 0.6334
C83 C 1.1316(4) 0.05425(11) 0.6394(2)
H93 H 1.2107 0.0568 0.6363
H94 H 1.0925 0.0405 0.6020
C84 C 1.1261(4) 0.03192(11) 0.6992(2)
H95 H 1.1556 0.0469 0.7369
H96 H 1.0472 0.0261 0.6993
C85 C 1.1916(5) -0.00272(13) 0.7030(3)
H97 H 1.1627 -0.0177 0.6658
H98 H 1.1848 -0.0161 0.7410
H99 H 1.2704 0.0030 0.7046
C86 C 1.2663(4) 0.13626(10) 0.39455(19)
H100 H 1.3223 0.1338 0.4344
H101 H 1.2040 0.1194 0.3964
C87 C 1.3195(4) 0.12531(10) 0.3398(2)
H102 H 1.2618 0.1264 0.3005
H103 H 1.3779 0.1434 0.3362
C88 C 1.3714(4) 0.08782(11) 0.3452(2)
H104 H 1.4198 0.0852 0.3875
H105 H 1.3112 0.0694 0.3413
C89 C 1.4398(5) 0.07982(13) 0.2965(3)
H106 H 1.4997 0.0983 0.2997
H107 H 1.3915 0.0817 0.2540
C90 C 1.4927(6) 0.04156(16) 0.3049(3)
H108 H 1.5248 0.0373 0.3495
H109 H 1.5516 0.0398 0.2807
H110 H 1.4353 0.0232 0.2899
C91 C 0.8942(4) 0.09667(10) 0.2514(2)
H111 H 0.9374 0.0906 0.2939
H112 H 0.8283 0.0804 0.2423
C92 C 0.9668(5) 0.08956(11) 0.2034(2)
H113 H 0.9211 0.0938 0.1608
H114 H 1.0283 0.1076 0.2102
C93 C 1.0161(6) 0.05242(14) 0.2054(3)
H115 H 0.9548 0.0346 0.1923
H116 H 1.0525 0.0468 0.2494
C94 C 1.1019(11) 0.0471(2) 0.1636(5)
H117 H 1.0621 0.0449 0.1192
H118 H 1.1506 0.0689 0.1671
C95 C 1.1744(11) 0.0133(3) 0.1819(7)
H119 H 1.2254 0.0104 0.1529
H120 H 1.1265 -0.0083 0.1795
H121 H 1.2178 0.0161 0.2249
C96 C 0.7518(4) 0.06989(9) 0.44690(19)
H122 H 0.7150 0.0565 0.4086
H123 H 0.8313 0.0731 0.4450
C97 C 0.7449(4) 0.04702(10) 0.5044(2)
H124 H 0.6666 0.0393 0.5015
H125 H 0.7666 0.0623 0.5425
C98 C 0.8196(4) 0.01319(11) 0.5116(2)
H126 H 0.7959 -0.0024 0.4740
H127 H 0.8973 0.0210 0.5127
C99 C 0.8181(5) -0.00945(11) 0.5695(2)
H128 H 0.7410 -0.0181 0.5679
H129 H 0.8398 0.0062 0.6072
C100 C 0.8960(5) -0.04219(12) 0.5763(3)
H130 H 0.8825 -0.0559 0.5367
H131 H 0.8818 -0.0580 0.6101
H132 H 0.9737 -0.0338 0.5863
C101 C 0.8618(4) 0.20789(11) 0.6981(2)
H133 H 0.8092 0.2250 0.6728
H134 H 0.9130 0.2213 0.7310
H135 H 0.8204 0.1899 0.7175
C102 C 1.3169(4) 0.27861(10) 0.4583(2)
H136 H 1.2617 0.2973 0.4626
H137 H 1.3658 0.2879 0.4314
H138 H 1.3617 0.2726 0.4999
C103 C 0.9107(4) 0.18617(12) 0.10909(19)
H139 H 0.9640 0.2044 0.1006
H140 H 0.8434 0.1868 0.0755
H141 H 0.9447 0.1619 0.1108
C104 C 0.5098(4) 0.20448(11) 0.4112(2)
H142 H 0.5663 0.2236 0.4132
H143 H 0.4703 0.2078 0.4457
H144 H 0.4564 0.2060 0.3708
C105? C 1.190(2) 0.0645(6) 0.1622(11)
H145? H 1.2221 0.0555 0.1275
H146? H 1.2433 0.0612 0.2021
H147? H 1.1720 0.0905 0.1560
loop_
_geom_bond_atom_site_label_1
_geom_bond_atom_site_label_2
_geom_bond_site_symmetry_1
_geom_bond_site_symmetry_2
C1 C2 1_555 1_555
C2 H1 1_555 1_555
C3 C2 1_555 1_555
C4 C3 1_555 1_555
C5 C4 1_555 1_555
H2 C5 1_555 1_555
C6 C1 1_555 1_555
C7 C3 1_555 1_555
H3 C7 1_555 1_555
C8 C7 1_555 1_555
C9 C8 1_555 1_555
H4 C9 1_555 1_555
C10 C9 1_555 1_555
C11 C10 1_555 1_555
C12 C11 1_555 1_555
H5 C12 1_555 1_555
C13 C8 1_555 1_555
C14 C10 1_555 1_555
H6 C14 1_555 1_555
C15 C14 1_555 1_555
C16 C15 1_555 1_555
H7 C16 1_555 1_555
C17 C16 1_555 1_555
C18 C17 1_555 1_555
C19 C18 1_555 1_555
H8 C19 1_555 1_555
C20 C15 1_555 1_555
C21 C17 1_555 1_555
H9 C21 1_555 1_555
C22 C21 1_555 1_555
C23 C22 1_555 1_555
H10 C23 1_555 1_555
C24 C23 1_555 1_555
C25 C24 1_555 1_555
C26 C25 1_555 1_555
H11 C26 1_555 1_555
C27 C22 1_555 1_555
C28 C1 1_555 1_555
H12 C28 1_555 1_555
O1 C4 1_555 1_555
O2 C6 1_555 1_555
H13 O2 1_555 1_555
O3 C11 1_555 1_555
O4 C13 1_555 1_555
H14 O4 1_555 1_555
O5 C18 1_555 1_555
O6 C20 1_555 1_555
H15 O6 1_555 1_555
O7 C25 1_555 1_555
O8 C27 1_555 1_555
H16 O8 1_555 1_555
C29 C7 1_555 1_555
H17 C29 1_555 1_555
H18 C29 1_555 1_555
C30 C29 1_555 1_555
H19 C30 1_555 1_555
H20 C30 1_555 1_555
C31 C30 1_555 1_555
H21 C31 1_555 1_555
H22 C31 1_555 1_555
C32 C31 1_555 1_555
H23 C32 1_555 1_555
H24 C32 1_555 1_555
C33 C32 1_555 1_555
H25 C33 1_555 1_555
H26 C33 1_555 1_555
H27 C33 1_555 1_555
C34 C14 1_555 1_555
H28 C34 1_555 1_555
H29 C34 1_555 1_555
C35 C34 1_555 1_555
H30 C35 1_555 1_555
H31 C35 1_555 1_555
C36 C35 1_555 1_555
H32 C36 1_555 1_555
H33 C36 1_555 1_555
C37 C36 1_555 1_555
H34 C37 1_555 1_555
H35 C37 1_555 1_555
C38 C37 1_555 1_555
H36 C38 1_555 1_555
H37 C38 1_555 1_555
H38 C38 1_555 1_555
C39 C21 1_555 1_555
H39 C39 1_555 1_555
H40 C39 1_555 1_555
C40 C39 1_555 1_555
H41 C40 1_555 1_555
H42 C40 1_555 1_555
C41 C40 1_555 1_555
H43 C41 1_555 1_555
H44 C41 1_555 1_555
C42 C41 1_555 1_555
H45 C42 1_555 1_555
H46 C42 1_555 1_555
C43 C42 1_555 1_555
H47 C43 1_555 1_555
H48 C43 1_555 1_555
H49 C43 1_555 1_555
C44 C28 1_555 1_555
H50 C44 1_555 1_555
H51 C44 1_555 1_555
C45 C44 1_555 1_555
H52 C45 1_555 1_555
H53 C45 1_555 1_555
C46 C45 1_555 1_555
H54 C46 1_555 1_555
H55 C46 1_555 1_555
C47 C46 1_555 1_555
H56 C47 1_555 1_555
H57 C47 1_555 1_555
C48 C47 1_555 1_555
H58 C48 1_555 1_555
H59 C48 1_555 1_555
H60 C48 1_555 1_555
C49 O1 1_555 1_555
H61 C49 1_555 1_555
H62 C49 1_555 1_555
H63 C49 1_555 1_555
C50 O3 1_555 1_555
H64 C50 1_555 1_555
H65 C50 1_555 1_555
H66 C50 1_555 1_555
C51 O5 1_555 1_555
H67 C51 1_555 1_555
H68 C51 1_555 1_555
H69 C51 1_555 1_555
C52 O7 1_555 1_555
H70 C52 1_555 1_555
H71 C52 1_555 1_555
H72 C52 1_555 1_555
C53 C54 1_555 1_555
C54 H73 1_555 1_555
C55 C54 1_555 1_555
C56 C55 1_555 1_555
C57 C56 1_555 1_555
H74 C57 1_555 1_555
C58 C53 1_555 1_555
C59 C55 1_555 1_555
H75 C59 1_555 1_555
C60 C59 1_555 1_555
C61 C60 1_555 1_555
H76 C61 1_555 1_555
C62 C61 1_555 1_555
C63 C62 1_555 1_555
C64 C63 1_555 1_555
H77 C64 1_555 1_555
C65 C60 1_555 1_555
C66 C62 1_555 1_555
H78 C66 1_555 1_555
C67 C66 1_555 1_555
C68 C67 1_555 1_555
H79 C68 1_555 1_555
C69 C68 1_555 1_555
C70 C69 1_555 1_555
C71 C70 1_555 1_555
H80 C71 1_555 1_555
C72 C67 1_555 1_555
C73 C69 1_555 1_555
H81 C73 1_555 1_555
C74 C73 1_555 1_555
C75 C74 1_555 1_555
H82 C75 1_555 1_555
C76 C75 1_555 1_555
C77 C76 1_555 1_555
C78 C77 1_555 1_555
H83 C78 1_555 1_555
C79 C74 1_555 1_555
C80 C53 1_555 1_555
H84 C80 1_555 1_555
O9 C56 1_555 1_555
O10 C58 1_555 1_555
H85 O10 1_555 1_555
O11 C63 1_555 1_555
O12 C65 1_555 1_555
H86 O12 1_555 1_555
O13 C70 1_555 1_555
O14 C72 1_555 1_555
H87 O14 1_555 1_555
O15 C77 1_555 1_555
O16 C79 1_555 1_555
H88 O16 1_555 1_555
C81 C59 1_555 1_555
H89 C81 1_555 1_555
H90 C81 1_555 1_555
C82 C81 1_555 1_555
H91 C82 1_555 1_555
H92 C82 1_555 1_555
C83 C82 1_555 1_555
H93 C83 1_555 1_555
H94 C83 1_555 1_555
C84 C83 1_555 1_555
H95 C84 1_555 1_555
H96 C84 1_555 1_555
C85 C84 1_555 1_555
H97 C85 1_555 1_555
H98 C85 1_555 1_555
H99 C85 1_555 1_555
C86 C66 1_555 1_555
H100 C86 1_555 1_555
H101 C86 1_555 1_555
C87 C86 1_555 1_555
H102 C87 1_555 1_555
H103 C87 1_555 1_555
C88 C87 1_555 1_555
H104 C88 1_555 1_555
H105 C88 1_555 1_555
C89 C88 1_555 1_555
H106 C89 1_555 1_555
H107 C89 1_555 1_555
C90 C89 1_555 1_555
H108 C90 1_555 1_555
H109 C90 1_555 1_555
H110 C90 1_555 1_555
C91 C73 1_555 1_555
H111 C91 1_555 1_555
H112 C91 1_555 1_555
C92 C91 1_555 1_555
H113 C92 1_555 1_555
H114 C92 1_555 1_555
C93 C92 1_555 1_555
H115 C93 1_555 1_555
H116 C93 1_555 1_555
C94 C93 1_555 1_555
H117 C94 1_555 1_555
H118 C94 1_555 1_555
C95 C94 1_555 1_555
H119 C95 1_555 1_555
H120 C95 1_555 1_555
H121 C95 1_555 1_555
C96 C80 1_555 1_555
H122 C96 1_555 1_555
H123 C96 1_555 1_555
C97 C96 1_555 1_555
H124 C97 1_555 1_555
H125 C97 1_555 1_555
C98 C97 1_555 1_555
H126 C98 1_555 1_555
H127 C98 1_555 1_555
C99 C98 1_555 1_555
H128 C99 1_555 1_555
H129 C99 1_555 1_555
C100 C99 1_555 1_555
H130 C100 1_555 1_555
H131 C100 1_555 1_555
H132 C100 1_555 1_555
C101 O9 1_555 1_555
H133 C101 1_555 1_555
H134 C101 1_555 1_555
H135 C101 1_555 1_555
C102 O11 1_555 1_555
H136 C102 1_555 1_555
H137 C102 1_555 1_555
H138 C102 1_555 1_555
C103 O13 1_555 1_555
H139 C103 1_555 1_555
H140 C103 1_555 1_555
H141 C103 1_555 1_555
C104 O15 1_555 1_555
H142 C104 1_555 1_555
H143 C104 1_555 1_555
H144 C104 1_555 1_555
C5 C6 1_555 1_555
C12 C13 1_555 1_555
C19 C20 1_555 1_555
C24 C28 1_555 1_555
C26 C27 1_555 1_555
C57 C58 1_555 1_555
C64 C65 1_555 1_555
C71 C72 1_555 1_555
C76 C80 1_555 1_555
C78 C79 1_555 1_555

#END
