
#######################################################################
#
#                 Cambridge Crystallographic Data Centre
#                                CCDC 
#
#######################################################################
#
# If this CIF has been generated from an entry in the Cambridge 
# Structural Database, then it will include bibliographic, chemical, 
# crystal, experimental, refinement or atomic coordinate data resulting 
# from the CCDC's data processing and validation procedures.
#
#######################################################################

data_EDULIB
_chemical_formula_moiety         'C56 H76 N2 O4 S4'
_chemical_name_systematic        
3-(5-(4,8-bis((2-ethylhexyl)oxy)thieno[2,3-f][1]benzothiophen-2-yl)-2-thienyl)-2,5-bis(2-ethylhexyl)-6-(2-thienyl)-2,5-dihydropyrrolo[3,4-c]pyrrole-1,4-dione
_symmetry_cell_setting           monoclinic
_symmetry_space_group_name_H-M   'P 21/c'
_symmetry_Int_Tables_number      14
_space_group_name_Hall           '-P 2ybc'
loop_
_symmetry_equiv_pos_site_id
_symmetry_equiv_pos_as_xyz
1 x,y,z
2 -x,1/2+y,1/2-z
3 -x,-y,-z
4 x,1/2-y,1/2+z
_cell_length_a                   15.2482(3)
_cell_length_b                   10.0758(2)
_cell_length_c                   34.5945(8)
_cell_angle_alpha                90
_cell_angle_beta                 97.579(2)
_cell_angle_gamma                90
_cell_volume                     5268.59
_exptl_crystal_colour            blue
_exptl_crystal_description       needle
_cell_formula_units_Z            4
loop_
_atom_site_label
_atom_site_type_symbol
_atom_site_fract_x
_atom_site_fract_y
_atom_site_fract_z
S1 S 1.20730(18) -0.2837(3) 0.14958(9)
S2 S 0.92835(14) 0.0983(2) 0.06323(6)
S3 S 1.05290(14) 0.2884(2) -0.02859(6)
S4 S 0.8501(2) 0.9305(3) -0.20422(9)
O1 O 1.2372(4) -0.0799(7) 0.0846(2)
O2 O 0.8993(4) -0.0971(6) 0.12951(16)
O3 O 1.0991(4) 0.5776(7) -0.16199(17)
O4 O 0.7925(3) 0.6300(6) -0.07440(15)
N1 N 1.0623(4) 0.4846(8) -0.10502(19)
N2 N 0.8328(5) 0.7309(7) -0.13047(19)
C1 C 1.1248(7) -0.3326(12) 0.1758(3)
H1 H 1.1337 -0.3973 0.1959
C2 C 1.0470(7) -0.2724(10) 0.1656(3)
H2 H 0.9953 -0.2908 0.1773
C3 C 1.0502(6) -0.1789(10) 0.1357(3)
C4 C 1.1343(6) -0.1740(10) 0.1242(3)
C5 C 1.1541(6) -0.0915(10) 0.0938(3)
C6 C 1.0859(5) -0.0062(9) 0.0763(2)
C7 C 1.0031(5) -0.0100(9) 0.0890(2)
C8 C 0.9841(6) -0.0921(9) 0.1189(3)
C9 C 1.0899(6) 0.0881(9) 0.0452(2)
H3 H 1.1414 0.1050 0.0333
C10 C 1.0099(5) 0.1506(9) 0.0351(2)
C11 C 0.8846(7) -0.0122(12) 0.1604(3)
H4 H 0.8816 0.0809 0.1512
H5 H 0.9342 -0.0199 0.1818
C12 C 0.7988(8) -0.0492(13) 0.1752(3)
H6 H 0.7499 -0.0353 0.1534
C13 C 0.7929(10) -0.1847(14) 0.1886(4)
H7 H 0.8306 -0.1910 0.2141
H8 H 0.8207 -0.2416 0.1703
C14 C 0.7062(10) -0.2464(17) 0.1934(6)
H9 H 0.6582 -0.1932 0.1796
H10 H 0.6996 -0.2501 0.2212
H11 H 0.7037 -0.3366 0.1827
C15 C 0.7819(11) 0.0435(14) 0.2086(4)
H12 H 0.7377 0.0020 0.2234
H13 H 0.8375 0.0539 0.2267
C16 C 0.7500(12) 0.1751(15) 0.1953(5)
H14 H 0.7010 0.1649 0.1737
H15 H 0.7984 0.2241 0.1852
C17 C 0.7187(16) 0.252(2) 0.2270(6)
H16 H 0.6728 0.2000 0.2379
H17 H 0.7688 0.2640 0.2481
C18 C 0.682(2) 0.384(2) 0.2160(8)
H18 H 0.6521 0.3811 0.1892
H19 H 0.7299 0.4493 0.2179
H20 H 0.6394 0.4091 0.2336
C19 C 1.2620(8) -0.1617(17) 0.0586(4)
H21 H 1.2244 -0.1461 0.0334
H22 H 1.2511 -0.2537 0.0668
C20 C 1.3592(9) -0.150(2) 0.0520(5)
H23 H 1.3887 -0.0778 0.0688
C21 C 1.4089(18) -0.276(3) 0.0595(8)
H24 H 1.4424 -0.2884 0.0372
H25 H 1.3641 -0.3473 0.0578
C22 C 1.4736(17) -0.304(3) 0.0961(8)
H26 H 1.5325 -0.3213 0.0887
H27 H 1.4535 -0.3816 0.1095
H28 H 1.4765 -0.2268 0.1135
C23 C 1.3424(15) -0.105(3) 0.0105(6)
H29 H 1.2838 -0.1454 0.0026
H30 H 1.3290 -0.0098 0.0146
C24 C 1.3745(12) -0.096(2) -0.0271(6)
H31 H 1.3911 -0.1896 -0.0317
H32 H 1.4315 -0.0492 -0.0206
C25 C 1.3437(14) -0.049(2) -0.0672(6)
H33 H 1.2815 -0.0743 -0.0757
H34 H 1.3493 0.0491 -0.0690
C26 C 1.404(3) -0.117(5) -0.0901(9)
H35 H 1.3701 -0.1651 -0.1116
H36 H 1.4411 -0.1791 -0.0734
H37 H 1.4422 -0.0512 -0.1008
C27 C 0.9861(5) 0.2507(9) 0.0057(2)
C28 C 0.9108(6) 0.3270(9) 0.0007(2)
H38 H 0.8655 0.3198 0.0170
C29 C 0.9066(6) 0.4159(9) -0.0304(2)
H39 H 0.8587 0.4753 -0.0374
C30 C 0.9794(5) 0.4077(9) -0.0498(2)
C31 C 0.9899(5) 0.4890(9) -0.0832(2)
C32 C 0.9313(5) 0.5792(9) -0.1014(2)
C33 C 0.9623(6) 0.6348(10) -0.1349(2)
C34 C 1.0464(6) 0.5700(10) -0.1380(3)
C35 C 0.8459(6) 0.6411(9) -0.0977(3)
C36 C 0.9030(6) 0.7262(10) -0.1523(2)
C37 C 0.9119(7) 0.7984(11) -0.1866(2)
C38 C 0.9702(7) 0.7774(10) -0.2141(3)
H40 H 1.0062 0.7001 -0.2123
C39 C 0.9758(10) 0.8628(16) -0.2421(4)
H41 H 1.0194 0.8614 -0.2593
C40 C 0.9108(9) 0.9526(14) -0.2428(3)
H42 H 0.8994 1.0198 -0.2620
C41 C 1.1406(5) 0.4032(9) -0.0980(2)
H43 H 1.1670 0.3956 -0.1226
H44 H 1.1231 0.3130 -0.0907
C42 C 1.2110(5) 0.4551(9) -0.0662(3)
H45 H 1.1810 0.4701 -0.0425
C43 C 1.2475(6) 0.5872(10) -0.0767(3)
H46 H 1.1979 0.6458 -0.0872
H47 H 1.2782 0.6293 -0.0528
C44 C 1.3101(7) 0.5748(13) -0.1059(4)
H48 H 1.2770 0.5568 -0.1316
H49 H 1.3512 0.5016 -0.0985
H50 H 1.3433 0.6577 -0.1068
C45 C 1.2812(7) 0.3466(13) -0.0555(5)
H51 H 1.2502 0.2633 -0.0503
H52 H 1.3123 0.3309 -0.0784
C46 C 1.3493(11) 0.374(2) -0.0210(5)
H53 H 1.4027 0.3963 -0.0332
H54 H 1.3294 0.4598 -0.0110
C47 C 1.386(2) 0.303(3) 0.0152(8)
H55 H 1.4165 0.2249 0.0057
H56 H 1.3334 0.2670 0.0255
C48 C 1.4455(19) 0.347(4) 0.0506(9)
H57 H 1.4667 0.4368 0.0466
H58 H 1.4961 0.2861 0.0554
H59 H 1.4127 0.3459 0.0732
C49 C 0.7504(6) 0.8026(10) -0.1377(2)
H60 H 0.7636 0.8946 -0.1452
H61 H 0.7245 0.8074 -0.1130
C50 C 0.6812(6) 0.7468(11) -0.1687(3)
H62 H 0.7040 0.7555 -0.1944
C51 C 0.6588(8) 0.6079(11) -0.1636(4)
H63 H 0.6231 0.6021 -0.1417
H64 H 0.7143 0.5584 -0.1558
C52 C 0.6090(8) 0.5392(12) -0.1981(3)
H65 H 0.6488 0.5227 -0.2177
H66 H 0.5598 0.5954 -0.2095
H67 H 0.5858 0.4546 -0.1899
C53 C 0.5947(7) 0.8254(14) -0.1710(5)
H68 H 0.5477 0.7772 -0.1879
H69 H 0.5765 0.8317 -0.1446
C54 C 0.6033(9) 0.9588(14) -0.1865(5)
H70 H 0.6268 0.9526 -0.2118
H71 H 0.6465 1.0094 -0.1683
C55 C 0.5182(9) 1.0317(16) -0.1922(5)
H72 H 0.4974 1.0480 -0.1667
H73 H 0.4729 0.9785 -0.2085
C56 C 0.5321(12) 1.1622(18) -0.2120(6)
H74 H 0.5018 1.1600 -0.2388
H75 H 0.5955 1.1768 -0.2124
H76 H 0.5079 1.2346 -0.1977
H77? H 0.6859 -0.2011 0.2161
H78? H 0.6649 -0.2189 0.1703
H79? H 0.7944 0.2185 0.1816
H80? H 0.7396 0.2290 0.2179
H81? H 0.6946 0.1658 0.1776
C57? C 0.689(5) -0.390(3) 0.199(2)
H82? H 0.6999 -0.4133 0.2269
H83? H 0.7285 -0.4441 0.1847
C58? C 0.595(5) -0.415(9) 0.183(3)
H84? H 0.5915 -0.4835 0.1629
H85? H 0.5680 -0.3326 0.1717
H86? H 0.5624 -0.4443 0.2042
H87? H 1.3669 -0.0585 0.0631
C59? C 1.396(2) -0.217(3) 0.0884(8)
H88? H 1.4068 -0.1447 0.1079
H89? H 1.3464 -0.2694 0.0962
H90? H 1.4933 -0.3298 0.0713
H91? H 1.4579 -0.3834 0.1099
H92? H 1.5215 -0.2565 0.1121
H93? H 1.3924 0.3004 -0.0190
H94? H 1.3817 0.4554 -0.0270
C60? C 1.3218(18) 0.392(4) 0.0171(8)
H95? H 1.2848 0.3173 0.0239
H96? H 1.2887 0.4763 0.0186
C61? C 1.409(3) 0.396(9) 0.0432(17)
H97? H 1.3996 0.4262 0.0693
H98? H 1.4492 0.4578 0.0324
H99? H 1.4352 0.3072 0.0450
loop_
_geom_bond_atom_site_label_1
_geom_bond_atom_site_label_2
_geom_bond_site_symmetry_1
_geom_bond_site_symmetry_2
S1 C1 1_555 1_555
S2 C7 1_555 1_555
S3 C27 1_555 1_555
S4 C37 1_555 1_555
O1 C5 1_555 1_555
O2 C8 1_555 1_555
O3 C34 1_555 1_555
O4 C35 1_555 1_555
N1 C31 1_555 1_555
N2 C35 1_555 1_555
C1 H1 1_555 1_555
C2 C1 1_555 1_555
H2 C2 1_555 1_555
C3 C2 1_555 1_555
C4 S1 1_555 1_555
C5 C4 1_555 1_555
C6 C5 1_555 1_555
C7 C6 1_555 1_555
C8 C3 1_555 1_555
C9 C6 1_555 1_555
H3 C9 1_555 1_555
C10 S2 1_555 1_555
C11 O2 1_555 1_555
H4 C11 1_555 1_555
H5 C11 1_555 1_555
C12 C11 1_555 1_555
H6 C12 1_555 1_555
C13 C12 1_555 1_555
H7 C13 1_555 1_555
H8 C13 1_555 1_555
C14 C13 1_555 1_555
H9 C14 1_555 1_555
H10 C14 1_555 1_555
H11 C14 1_555 1_555
C15 C12 1_555 1_555
H12 C15 1_555 1_555
H13 C15 1_555 1_555
C16 C15 1_555 1_555
H14 C16 1_555 1_555
H15 C16 1_555 1_555
C17 C16 1_555 1_555
H16 C17 1_555 1_555
H17 C17 1_555 1_555
C18 C17 1_555 1_555
H18 C18 1_555 1_555
H19 C18 1_555 1_555
H20 C18 1_555 1_555
C19 O1 1_555 1_555
H21 C19 1_555 1_555
H22 C19 1_555 1_555
C20 C19 1_555 1_555
H23 C20 1_555 1_555
C21 C20 1_555 1_555
H24 C21 1_555 1_555
H25 C21 1_555 1_555
C22 C21 1_555 1_555
H26 C22 1_555 1_555
H27 C22 1_555 1_555
H28 C22 1_555 1_555
C23 C20 1_555 1_555
H29 C23 1_555 1_555
H30 C23 1_555 1_555
C24 C23 1_555 1_555
H31 C24 1_555 1_555
H32 C24 1_555 1_555
C25 C24 1_555 1_555
H33 C25 1_555 1_555
H34 C25 1_555 1_555
C26 C25 1_555 1_555
H35 C26 1_555 1_555
H36 C26 1_555 1_555
H37 C26 1_555 1_555
C27 C10 1_555 1_555
C28 C27 1_555 1_555
H38 C28 1_555 1_555
C29 C28 1_555 1_555
H39 C29 1_555 1_555
C30 S3 1_555 1_555
C31 C30 1_555 1_555
C32 C31 1_555 1_555
C33 C32 1_555 1_555
C34 N1 1_555 1_555
C35 C32 1_555 1_555
C36 N2 1_555 1_555
C37 C36 1_555 1_555
C38 C37 1_555 1_555
H40 C38 1_555 1_555
C39 C38 1_555 1_555
H41 C39 1_555 1_555
C40 S4 1_555 1_555
H42 C40 1_555 1_555
C41 N1 1_555 1_555
H43 C41 1_555 1_555
H44 C41 1_555 1_555
C42 C41 1_555 1_555
H45 C42 1_555 1_555
C43 C42 1_555 1_555
H46 C43 1_555 1_555
H47 C43 1_555 1_555
C44 C43 1_555 1_555
H48 C44 1_555 1_555
H49 C44 1_555 1_555
H50 C44 1_555 1_555
C45 C42 1_555 1_555
H51 C45 1_555 1_555
H52 C45 1_555 1_555
C46 C45 1_555 1_555
H53 C46 1_555 1_555
H54 C46 1_555 1_555
C47 C46 1_555 1_555
H55 C47 1_555 1_555
H56 C47 1_555 1_555
C48 C47 1_555 1_555
H57 C48 1_555 1_555
H58 C48 1_555 1_555
H59 C48 1_555 1_555
C49 N2 1_555 1_555
H60 C49 1_555 1_555
H61 C49 1_555 1_555
C50 C49 1_555 1_555
H62 C50 1_555 1_555
C51 C50 1_555 1_555
H63 C51 1_555 1_555
H64 C51 1_555 1_555
C52 C51 1_555 1_555
H65 C52 1_555 1_555
H66 C52 1_555 1_555
H67 C52 1_555 1_555
C53 C50 1_555 1_555
H68 C53 1_555 1_555
H69 C53 1_555 1_555
C54 C53 1_555 1_555
H70 C54 1_555 1_555
H71 C54 1_555 1_555
C55 C54 1_555 1_555
H72 C55 1_555 1_555
H73 C55 1_555 1_555
C56 C55 1_555 1_555
H74 C56 1_555 1_555
H75 C56 1_555 1_555
H76 C56 1_555 1_555
C3 C4 1_555 1_555
C7 C8 1_555 1_555
C9 C10 1_555 1_555
C29 C30 1_555 1_555
C33 C34 1_555 1_555
C33 C36 1_555 1_555
C39 C40 1_555 1_555

#END
