
#######################################################################
#
#                 Cambridge Crystallographic Data Centre
#                                CCDC 
#
#######################################################################
#
# If this CIF has been generated from an entry in the Cambridge 
# Structural Database, then it will include bibliographic, chemical, 
# crystal, experimental, refinement or atomic coordinate data resulting 
# from the CCDC's data processing and validation procedures.
#
#######################################################################

data_EDUZIN
_chemical_formula_moiety         'C24 H20 N2 S3'
_chemical_name_systematic        
'bis(4-((5-Methylthien-2-yl)methyleneamino)phenyl) sulfide'
_symmetry_cell_setting           triclinic
_symmetry_space_group_name_H-M   'P -1'
_symmetry_Int_Tables_number      2
_space_group_name_Hall           '-P 1'
loop_
_symmetry_equiv_pos_site_id
_symmetry_equiv_pos_as_xyz
1 x,y,z
2 -x,-y,-z
_cell_length_a                   5.315(3)
_cell_length_b                   14.275(4)
_cell_length_c                   15.106(3)
_cell_angle_alpha                72.828(3)
_cell_angle_beta                 88.344(4)
_cell_angle_gamma                83.314(4)
_cell_volume                     1087.56
_exptl_crystal_colour            yellow
_exptl_crystal_description       block
_cell_formula_units_Z            2
_exptl_crystal_recrystallization_method ethanol
loop_
_atom_site_label
_atom_site_type_symbol
_atom_site_fract_x
_atom_site_fract_y
_atom_site_fract_z
C1 C 0.2614(9) 0.0886(3) 0.9139(3)
H1 H 0.2240 0.0362 0.9674
H2 H 0.3734 0.0622 0.8739
H3 H 0.1071 0.1195 0.8811
C2 C 0.3849(7) 0.1630(2) 0.9435(3)
C3 C 0.3779(8) 0.1806(3) 1.0259(3)
H4 H 0.2889 0.1460 1.0767
C4 C 0.5197(8) 0.2571(3) 1.0272(3)
H5 H 0.5318 0.2786 1.0792
C5 C 0.6357(7) 0.2966(2) 0.9476(2)
C6 C 0.7838(7) 0.3786(2) 0.9234(2)
H6 H 0.8086 0.4097 0.9681
C7 C 1.0027(6) 0.4972(2) 0.8216(2)
C8 C 0.9070(6) 0.5813(2) 0.8451(2)
H7 H 0.7653 0.5797 0.8828
C9 C 1.0204(6) 0.6678(2) 0.8129(2)
H8 H 0.9541 0.7236 0.8292
C10 C 1.2311(6) 0.6715(2) 0.7567(2)
C11 C 1.3271(7) 0.5885(2) 0.7341(2)
H9 H 1.4709 0.5898 0.6974
C12 C 1.2126(7) 0.5029(2) 0.7654(3)
H10 H 1.2786 0.4477 0.7480
C13 C 1.1345(6) 0.8760(2) 0.6981(2)
C14 C 1.0991(7) 0.9302(2) 0.7597(3)
H11 H 1.2080 0.9166 0.8101
C15 C 0.8991(7) 1.0059(2) 0.7467(3)
H12 H 0.8740 1.0418 0.7893
C16 C 0.7382(6) 1.0280(2) 0.6711(2)
C17 C 0.7769(7) 0.9728(3) 0.6105(3)
H13 H 0.6691 0.9860 0.5598
C18 C 0.9732(7) 0.8979(2) 0.6236(2)
H14 H 0.9969 0.8616 0.5814
C19 C 0.4707(7) 1.1612(3) 0.5835(3)
H15 H 0.5624 1.1525 0.5326
C20 C 0.2608(6) 1.2376(2) 0.5676(2)
C21 C 0.1764(8) 1.3004(3) 0.4856(2)
H16 H 0.2484 1.2998 0.4289
C22 C -0.0331(8) 1.3671(2) 0.4953(2)
H17 H -0.1150 1.4141 0.4452
C23 C -0.1032(6) 1.3566(2) 0.5832(2)
C24 C -0.3108(7) 1.4138(3) 0.6194(2)
H18 H -0.3612 1.4749 0.5728
H19 H -0.2528 1.4272 0.6735
H20 H -0.4527 1.3762 0.6352
N1 N 0.8823(6) 0.41080(19) 0.84441(19)
N2 N 0.5373(5) 1.10504(19) 0.6635(2)
S1 S 0.5706(2) 0.23984(7) 0.86657(6)
S2 S 1.38975(16) 0.77884(6) 0.71406(6)
S3 S 0.08630(18) 1.26159(7) 0.65792(6)
loop_
_geom_bond_atom_site_label_1
_geom_bond_atom_site_label_2
_geom_bond_site_symmetry_1
_geom_bond_site_symmetry_2
C1 H1 1_555 1_555
H2 C1 1_555 1_555
H3 C1 1_555 1_555
C2 C1 1_555 1_555
C3 C2 1_555 1_555
H4 C3 1_555 1_555
C4 C3 1_555 1_555
H5 C4 1_555 1_555
C5 C4 1_555 1_555
C6 C5 1_555 1_555
H6 C6 1_555 1_555
C7 C8 1_555 1_555
C8 H7 1_555 1_555
C9 C8 1_555 1_555
H8 C9 1_555 1_555
C10 C9 1_555 1_555
C11 C10 1_555 1_555
H9 C11 1_555 1_555
C12 C7 1_555 1_555
H10 C12 1_555 1_555
C13 C14 1_555 1_555
C14 H11 1_555 1_555
C15 C14 1_555 1_555
H12 C15 1_555 1_555
C16 C15 1_555 1_555
C17 C16 1_555 1_555
H13 C17 1_555 1_555
C18 C13 1_555 1_555
H14 C18 1_555 1_555
C19 H15 1_555 1_555
C20 C19 1_555 1_555
C21 C20 1_555 1_555
H16 C21 1_555 1_555
C22 C21 1_555 1_555
H17 C22 1_555 1_555
C23 C22 1_555 1_555
C24 C23 1_555 1_555
H18 C24 1_555 1_555
H19 C24 1_555 1_555
H20 C24 1_555 1_555
N1 C6 1_555 1_555
N2 C16 1_555 1_555
S1 C2 1_555 1_555
S2 C10 1_555 1_555
S3 C20 1_555 1_555
C5 S1 1_555 1_555
C7 N1 1_555 1_555
C11 C12 1_555 1_555
C13 S2 1_555 1_555
C17 C18 1_555 1_555
C19 N2 1_555 1_555
C23 S3 1_555 1_555

#END
