
#######################################################################
#
#                 Cambridge Crystallographic Data Centre
#                                CCDC 
#
#######################################################################
#
# If this CIF has been generated from an entry in the Cambridge 
# Structural Database, then it will include bibliographic, chemical, 
# crystal, experimental, refinement or atomic coordinate data resulting 
# from the CCDC's data processing and validation procedures.
#
#######################################################################

data_EFACAS01
_chemical_formula_moiety         'C40 H48 O12,C18 H21 N1 O1'
_chemical_name_systematic        
'C-n-propylpyrogallo(4)arene N,N-dibenzylbut-2-en-1-amine N-oxide unknown solvate'
_symmetry_cell_setting           triclinic
_symmetry_space_group_name_H-M   'P -1'
_symmetry_Int_Tables_number      2
_space_group_name_Hall           '-P 1'
loop_
_symmetry_equiv_pos_site_id
_symmetry_equiv_pos_as_xyz
1 x,y,z
2 -x,-y,-z
_cell_length_a                   12.5877(4)
_cell_length_b                   15.8623(5)
_cell_length_c                   15.9762(4)
_cell_angle_alpha                74.963(3)
_cell_angle_beta                 69.967(3)
_cell_angle_gamma                82.728(3)
_cell_volume                     2891.84
_exptl_crystal_colour            colorless
_exptl_crystal_description       block
_cell_formula_units_Z            2
loop_
_atom_site_label
_atom_site_type_symbol
_atom_site_fract_x
_atom_site_fract_y
_atom_site_fract_z
O1 O 0.40376(13) 0.44988(9) 0.66194(8)
H1 H 0.444076 0.430950 0.616070
C1 C 0.45742(15) 0.31091(11) 0.75100(11)
O2 O 0.38586(12) 0.53078(8) 0.79791(8)
H2 H 0.417265 0.557530 0.743599
C2 C 0.42613(15) 0.40000(12) 0.73902(11)
O3 O 0.42032(12) 0.43991(8) 0.95651(8)
H3 H 0.417329 0.494130 0.935215
C3 C 0.41468(15) 0.44310(11) 0.80731(12)
O4 O 0.55063(12) 0.38674(8) 1.06726(9)
H4 H 0.503620 0.402509 1.038897
C4 C 0.43234(15) 0.39722(11) 0.88874(11)
O5 O 0.77230(12) 0.39157(10) 1.06038(10)
H5 H 0.716263 0.407340 1.100895
C5 C 0.46134(14) 0.30826(11) 0.90364(11)
O6 O 0.93441(12) 0.28117(11) 0.97995(11)
H6 H 0.937819 0.318340 1.007930
C6 C 0.47487(15) 0.26763(11) 0.83330(11)
H7 H 0.497115 0.207337 0.841680
O7 O 1.07786(15) 0.27462(12) 0.80885(12)
H8 H 1.032842 0.272799 0.862036
C7 C 0.47408(15) 0.26396(11) 0.67521(11)
H9 H 0.422777 0.294839 0.639968
O8 O 1.16128(17) 0.32722(13) 0.62782(13)
H10 H 1.167683 0.349147 0.668305
C8 C 0.44022(17) 0.16835(12) 0.71092(13)
H11 H 0.457544 0.141621 0.657937
H12 H 0.487283 0.136592 0.748667
O9 O 1.07785(16) 0.27759(12) 0.51559(11)
H13 H 1.027276 0.287092 0.489896
C9 C 0.3166(2) 0.15575(16) 0.76751(17)
H14 H 0.299580 0.180132 0.822036
H15 H 0.269072 0.188858 0.730759
O10 O 0.92235(15) 0.29529(17) 0.42167(12)
H16 H 0.921159 0.330978 0.372860
C10 C 0.2858(3) 0.0610(2) 0.7985(2)
H17 H 0.299001 0.037206 0.744844
H18 H 0.205756 0.056688 0.835903
H19 H 0.332609 0.027798 0.834905
O11 O 0.75460(15) 0.40916(15) 0.38599(11)
H20 H 0.699315 0.444923 0.386144
C11 C 0.60091(15) 0.26643(11) 0.99087(11)
O12 O 0.53546(12) 0.39842(9) 0.50933(9)
H21 H 0.523129 0.392134 0.462894
C12 C 0.62968(15) 0.32779(11) 1.02719(11)
C13 C 0.73978(16) 0.33207(12) 1.02596(12)
C14 C 0.82440(16) 0.27610(12) 0.98483(12)
C15 C 0.79910(16) 0.21451(12) 0.94655(12)
C16 C 0.68762(16) 0.21188(11) 0.94994(11)
H22 H 0.669928 0.170946 0.923058
C17 C 0.47951(15) 0.26014(11) 0.99405(11)
H23 H 0.429898 0.291250 1.041504
C18 C 0.44206(17) 0.16556(12) 1.02545(13)
H24 H 0.365827 0.164653 1.020749
H25 H 0.494821 0.130885 0.983849
C19 C 0.4387(2) 0.12293(15) 1.12334(15)
H26 H 0.513987 0.126442 1.128713
H27 H 0.383256 0.156063 1.165192
C20 C 0.4071(3) 0.02846(18) 1.1532(2)
H28 H 0.332968 0.024321 1.147538
H29 H 0.403823 0.005258 1.217162
H30 H 0.464065 -0.005498 1.114356
C21 C 0.93806(16) 0.18630(12) 0.79931(13)
C22 C 1.02657(17) 0.24353(13) 0.75988(14)
C23 C 1.07111(19) 0.27246(14) 0.66565(15)
C24 C 1.02685(18) 0.24631(14) 0.60818(14)
C25 C 0.93763(16) 0.18973(13) 0.64524(13)
C26 C 0.89494(16) 0.16212(13) 0.74008(13)
H31 H 0.832897 0.124674 0.765773
C27 C 0.89159(15) 0.15227(12) 0.90267(12)
H32 H 0.955342 0.151466 0.926819
C28 C 0.85100(17) 0.05854(12) 0.93276(13)
H33 H 0.818842 0.043038 1.000411
H34 H 0.789196 0.057069 0.908110
C29 C 0.94147(19) -0.01087(13) 0.90277(15)
H35 H 0.973493 0.003348 0.835100
H36 H 1.003513 -0.010495 0.927517
C30 C 0.8942(2) -0.10099(16) 0.9355(2)
H37 H 0.865399 -0.116285 1.002639
H38 H 0.954171 -0.143632 0.913809
H39 H 0.832508 -0.101495 0.911432
C31 C 0.79352(17) 0.22223(14) 0.56308(13)
C32 C 0.81402(19) 0.28732(18) 0.48322(14)
C33 C 0.72749(19) 0.34574(17) 0.46553(13)
C34 C 0.61847(17) 0.33823(13) 0.52787(12)
C35 C 0.59420(16) 0.27267(12) 0.60846(11)
C36 C 0.68337(16) 0.21657(12) 0.62448(12)
H40 H 0.668459 0.172484 0.679708
C37 C 0.88901(17) 0.15886(14) 0.58342(13)
H41 H 0.951077 0.161245 0.523703
C38 C 0.85182(19) 0.06448(14) 0.61977(15)
H42 H 0.791974 0.059981 0.680015
H43 H 0.817698 0.050966 0.577633
C39 C 0.9451(2) -0.00481(16) 0.63098(17)
H44 H 1.007850 0.001680 0.572131
H45 H 0.975137 0.004891 0.677306
C40 C 0.9040(3) -0.0962(2) 0.6599(3)
H46 H 0.845124 -0.104176 0.720051
H47 H 0.967330 -0.138189 0.663696
H48 H 0.872726 -0.105816 0.614959
N1 N 0.45642(15) 0.30055(11) 0.36972(11)
O13 O 0.51287(13) 0.37220(9) 0.36693(9)
C41 C 0.4004(2) 0.14793(14) 0.47256(14)
C42 C 0.2993(2) 0.13833(18) 0.54431(18)
H49 H 0.270442 0.185231 0.573740
C43 C 0.2384(3) 0.0632(2) 0.5749(2)
H50 H 0.169840 0.058605 0.624994
C44 C 0.2777(3) -0.0030(2) 0.5329(2)
H51 H 0.236927 -0.055066 0.554222
C45 C 0.3749(3) 0.00331(19) 0.4603(2)
H52 H 0.399996 -0.043053 0.429656
C46 C 0.4378(3) 0.07853(18) 0.4309(2)
H53 H 0.507126 0.081851 0.381704
C47 C 0.4666(2) 0.22771(14) 0.45040(14)
H54 H 0.547477 0.209166 0.438276
H55 H 0.442513 0.252186 0.505421
C48 C 0.5118(2) 0.27292(15) 0.28031(14)
H56 H 0.472435 0.222522 0.280761
H57 H 0.503712 0.321522 0.229299
C49 C 0.6350(2) 0.24808(16) 0.26411(15)
H58 H 0.680036 0.284194 0.276288
C50 C 0.6836(3) 0.17830(19) 0.23372(19)
H59 H 0.638626 0.140157 0.224215
C51 C 0.8091(3) 0.1577(3) 0.2137(3)
H60 H 0.842113 0.199738 0.232055
H61 H 0.845145 0.161370 0.147941
H62 H 0.821378 0.098479 0.248014
C52 C 0.33191(19) 0.32660(15) 0.38400(16)
H63 H 0.295850 0.280180 0.373329
H64 H 0.294504 0.330301 0.448543
C53 C 0.3120(2) 0.41216(16) 0.32261(16)
C54 C 0.3043(2) 0.48967(18) 0.3500(2)
H65 H 0.315352 0.488474 0.406238
C55 C 0.2806(3) 0.5688(2) 0.2961(3)
H66 H 0.274009 0.621321 0.315883
C56 C 0.2665(3) 0.5709(2) 0.2138(2)
H67 H 0.251171 0.625107 0.176560
C57 C 0.2746(3) 0.4956(2) 0.1855(2)
H68 H 0.265279 0.497545 0.128425
C58 C 0.2964(3) 0.4160(2) 0.24003(19)
H69 H 0.300530 0.363644 0.220411
loop_
_geom_bond_atom_site_label_1
_geom_bond_atom_site_label_2
_geom_bond_site_symmetry_1
_geom_bond_site_symmetry_2
O1 H1 1_555 1_555
C1 C2 1_555 1_555
O2 H2 1_555 1_555
C2 O1 1_555 1_555
O3 H3 1_555 1_555
C3 O2 1_555 1_555
O4 H4 1_555 1_555
C4 O3 1_555 1_555
O5 H5 1_555 1_555
C5 C4 1_555 1_555
O6 H6 1_555 1_555
C6 C1 1_555 1_555
H7 C6 1_555 1_555
O7 H8 1_555 1_555
C7 C1 1_555 1_555
H9 C7 1_555 1_555
O8 H10 1_555 1_555
C8 C7 1_555 1_555
H11 C8 1_555 1_555
H12 C8 1_555 1_555
O9 H13 1_555 1_555
C9 C8 1_555 1_555
H14 C9 1_555 1_555
H15 C9 1_555 1_555
O10 H16 1_555 1_555
C10 C9 1_555 1_555
H17 C10 1_555 1_555
H18 C10 1_555 1_555
H19 C10 1_555 1_555
O11 H20 1_555 1_555
C11 C12 1_555 1_555
O12 H21 1_555 1_555
C12 O4 1_555 1_555
C13 O5 1_555 1_555
C14 O6 1_555 1_555
C15 C14 1_555 1_555
C16 C11 1_555 1_555
H22 C16 1_555 1_555
C17 C5 1_555 1_555
H23 C17 1_555 1_555
C18 C17 1_555 1_555
H24 C18 1_555 1_555
H25 C18 1_555 1_555
C19 C18 1_555 1_555
H26 C19 1_555 1_555
H27 C19 1_555 1_555
C20 C19 1_555 1_555
H28 C20 1_555 1_555
H29 C20 1_555 1_555
H30 C20 1_555 1_555
C21 C22 1_555 1_555
C22 O7 1_555 1_555
C23 O8 1_555 1_555
C24 O9 1_555 1_555
C25 C24 1_555 1_555
C26 C21 1_555 1_555
H31 C26 1_555 1_555
C27 C15 1_555 1_555
H32 C27 1_555 1_555
C28 C27 1_555 1_555
H33 C28 1_555 1_555
H34 C28 1_555 1_555
C29 C28 1_555 1_555
H35 C29 1_555 1_555
H36 C29 1_555 1_555
C30 C29 1_555 1_555
H37 C30 1_555 1_555
H38 C30 1_555 1_555
H39 C30 1_555 1_555
C31 C32 1_555 1_555
C32 O10 1_555 1_555
C33 O11 1_555 1_555
C34 O12 1_555 1_555
C35 C7 1_555 1_555
C36 C31 1_555 1_555
H40 C36 1_555 1_555
C37 C25 1_555 1_555
H41 C37 1_555 1_555
C38 C37 1_555 1_555
H42 C38 1_555 1_555
H43 C38 1_555 1_555
C39 C38 1_555 1_555
H44 C39 1_555 1_555
H45 C39 1_555 1_555
C40 C39 1_555 1_555
H46 C40 1_555 1_555
H47 C40 1_555 1_555
H48 C40 1_555 1_555
N1 O13 1_555 1_555
C41 C42 1_555 1_555
C42 H49 1_555 1_555
C43 C42 1_555 1_555
H50 C43 1_555 1_555
C44 C43 1_555 1_555
H51 C44 1_555 1_555
C45 C44 1_555 1_555
H52 C45 1_555 1_555
C46 C41 1_555 1_555
H53 C46 1_555 1_555
C47 N1 1_555 1_555
H54 C47 1_555 1_555
H55 C47 1_555 1_555
C48 N1 1_555 1_555
H56 C48 1_555 1_555
H57 C48 1_555 1_555
C49 C48 1_555 1_555
H58 C49 1_555 1_555
C50 C49 1_555 1_555
H59 C50 1_555 1_555
C51 C50 1_555 1_555
H60 C51 1_555 1_555
H61 C51 1_555 1_555
H62 C51 1_555 1_555
C52 N1 1_555 1_555
H63 C52 1_555 1_555
H64 C52 1_555 1_555
C53 C52 1_555 1_555
C54 C53 1_555 1_555
H65 C54 1_555 1_555
C55 C54 1_555 1_555
H66 C55 1_555 1_555
C56 C55 1_555 1_555
H67 C56 1_555 1_555
C57 C56 1_555 1_555
H68 C57 1_555 1_555
C58 C53 1_555 1_555
H69 C58 1_555 1_555
C2 C3 1_555 1_555
C3 C4 1_555 1_555
C5 C6 1_555 1_555
C11 C17 1_555 1_555
C12 C13 1_555 1_555
C13 C14 1_555 1_555
C15 C16 1_555 1_555
C21 C27 1_555 1_555
C22 C23 1_555 1_555
C23 C24 1_555 1_555
C25 C26 1_555 1_555
C31 C37 1_555 1_555
C32 C33 1_555 1_555
C33 C34 1_555 1_555
C34 C35 1_555 1_555
C35 C36 1_555 1_555
C41 C47 1_555 1_555
C45 C46 1_555 1_555
C57 C58 1_555 1_555

#END
