
#######################################################################
#
#                 Cambridge Crystallographic Data Centre
#                                CCDC 
#
#######################################################################
#
# If this CIF has been generated from an entry in the Cambridge 
# Structural Database, then it will include bibliographic, chemical, 
# crystal, experimental, refinement or atomic coordinate data resulting 
# from the CCDC's data processing and validation procedures.
#
#######################################################################

data_EFACAS02
_chemical_formula_moiety         'C40 H48 O12,C18 H21 N1 O1'
_chemical_name_systematic        
'C-n-propylpyrogallo(4)arene N,N-dibenzylbut-2-en-1-amine N-oxide unknown solvate'
_symmetry_cell_setting           triclinic
_symmetry_space_group_name_H-M   'P -1'
_symmetry_Int_Tables_number      2
_space_group_name_Hall           '-P 1'
loop_
_symmetry_equiv_pos_site_id
_symmetry_equiv_pos_as_xyz
1 x,y,z
2 -x,-y,-z
_cell_length_a                   12.5863(5)
_cell_length_b                   15.8464(5)
_cell_length_c                   15.9829(4)
_cell_angle_alpha                74.985(3)
_cell_angle_beta                 69.991(3)
_cell_angle_gamma                82.864(3)
_cell_volume                     2890.84
_exptl_crystal_colour            colorless
_exptl_crystal_description       block
_cell_formula_units_Z            2
loop_
_atom_site_label
_atom_site_type_symbol
_atom_site_fract_x
_atom_site_fract_y
_atom_site_fract_z
O1 O 0.40398(13) 0.44972(9) 0.66190(8)
H1 H 0.441223 0.428894 0.616617
C1 C 0.45744(15) 0.31066(11) 0.75084(11)
O2 O 0.38576(13) 0.53069(8) 0.79801(8)
H2 H 0.424635 0.558578 0.746289
C2 C 0.42625(15) 0.39979(12) 0.73903(11)
O3 O 0.42034(13) 0.43981(8) 0.95627(8)
H3 H 0.415806 0.494019 0.935184
C3 C 0.41472(15) 0.44291(11) 0.80712(11)
O4 O 0.55018(12) 0.38654(9) 1.06738(9)
H4 H 0.504902 0.403950 1.037616
C4 C 0.43225(15) 0.39688(12) 0.88874(11)
O5 O 0.77186(13) 0.39220(11) 1.06022(11)
H5 H 0.716555 0.405835 1.102590
C5 C 0.46135(14) 0.30819(11) 0.90340(11)
O6 O 0.93412(12) 0.28210(12) 0.97987(11)
H6 H 0.937512 0.319512 1.007630
C6 C 0.47492(15) 0.26733(11) 0.83308(11)
H7 H 0.497152 0.207016 0.841474
O7 O 1.07796(15) 0.27541(13) 0.80849(12)
H8 H 1.032652 0.274355 0.861397
C7 C 0.47402(15) 0.26372(11) 0.67523(11)
H9 H 0.422723 0.294642 0.640055
O8 O 1.16125(18) 0.32803(14) 0.62743(13)
H10 H 1.166824 0.350816 0.667638
C8 C 0.43991(17) 0.16813(12) 0.71064(13)
H11 H 0.456830 0.141669 0.657530
H12 H 0.487245 0.136176 0.748017
O9 O 1.07772(16) 0.27827(13) 0.51540(11)
H13 H 1.027151 0.287768 0.489706
C9 C 0.3169(2) 0.15514(17) 0.76745(17)
H14 H 0.268996 0.188369 0.731080
H15 H 0.300175 0.179234 0.822096
O10 O 0.92185(15) 0.29548(19) 0.42176(13)
H16 H 0.922102 0.335831 0.375717
C10 C 0.2860(3) 0.0600(2) 0.7982(2)
H17 H 0.300363 0.036041 0.744430
H18 H 0.205626 0.055475 0.834733
H19 H 0.331893 0.026829 0.835355
O11 O 0.75431(15) 0.40937(15) 0.38599(12)
H20 H 0.698120 0.443891 0.385323
C11 C 0.60104(15) 0.26646(11) 0.99051(11)
O12 O 0.53554(12) 0.39826(10) 0.50926(9)
H21 H 0.523230 0.391812 0.462886
C12 C 0.62937(16) 0.32794(11) 1.02716(11)
C13 C 0.73965(16) 0.33254(12) 1.02569(12)
C14 C 0.82347(16) 0.27681(13) 0.98465(12)
C15 C 0.79886(16) 0.21516(12) 0.94625(12)
C16 C 0.68721(16) 0.21213(11) 0.94974(11)
H22 H 0.669458 0.171019 0.923011
C17 C 0.47966(15) 0.25982(11) 0.99385(11)
H23 H 0.430070 0.290782 1.041388
C18 C 0.44220(17) 0.16506(12) 1.02505(13)
H24 H 0.366027 0.164039 1.020248
H25 H 0.495028 0.130483 0.983450
C19 C 0.4387(2) 0.12239(16) 1.12276(16)
H26 H 0.513833 0.126280 1.128213
H27 H 0.383028 0.155401 1.164543
C20 C 0.4077(3) 0.02828(19) 1.1527(2)
H28 H 0.334161 0.023601 1.146115
H29 H 0.403257 0.005546 1.216880
H30 H 0.465430 -0.005769 1.114541
C21 C 0.93798(16) 0.18709(13) 0.79892(13)
C22 C 1.02647(18) 0.24416(14) 0.75966(15)
C23 C 1.0713(2) 0.27310(15) 0.66522(16)
C24 C 1.02653(19) 0.24690(15) 0.60808(14)
C25 C 0.93769(17) 0.19039(14) 0.64492(13)
C26 C 0.89493(17) 0.16273(13) 0.74009(13)
H31 H 0.832897 0.125139 0.765885
C27 C 0.89145(16) 0.15313(13) 0.90245(13)
H32 H 0.955171 0.152540 0.926574
C28 C 0.85105(17) 0.05903(13) 0.93240(13)
H33 H 0.818684 0.043445 1.000014
H34 H 0.789440 0.057360 0.907605
C29 C 0.9418(2) -0.01037(14) 0.90253(16)
H35 H 0.973989 0.003836 0.834900
H36 H 1.003732 -0.009791 0.927369
C30 C 0.8946(3) -0.10076(17) 0.9354(2)
H37 H 0.861905 -0.114756 1.002263
H38 H 0.955420 -0.143771 0.916575
H39 H 0.835721 -0.102306 0.908519
C31 C 0.79300(17) 0.22240(15) 0.56308(13)
C32 C 0.81365(19) 0.28767(19) 0.48343(14)
C33 C 0.72750(19) 0.34596(17) 0.46547(14)
C34 C 0.61812(17) 0.33828(13) 0.52796(12)
C35 C 0.59403(16) 0.27259(12) 0.60828(12)
C36 C 0.68285(17) 0.21639(13) 0.62445(12)
H40 H 0.667798 0.172121 0.679559
C37 C 0.88866(17) 0.15940(15) 0.58349(13)
H41 H 0.950594 0.161897 0.523733
C38 C 0.85174(19) 0.06476(15) 0.61974(15)
H42 H 0.792006 0.060038 0.680029
H43 H 0.817504 0.051186 0.577678
C39 C 0.9451(2) -0.00444(18) 0.63070(18)
H44 H 1.007816 0.002348 0.571846
H45 H 0.975152 0.005221 0.677048
C40 C 0.9044(4) -0.0957(2) 0.6593(3)
H46 H 0.845958 -0.104157 0.719596
H47 H 0.967944 -0.137581 0.662446
H48 H 0.872648 -0.105212 0.614512
N1 N 0.45614(15) 0.30041(11) 0.36970(11)
O13 O 0.51289(13) 0.37180(9) 0.36689(9)
C41 C 0.4002(2) 0.14760(15) 0.47279(15)
C42 C 0.2992(2) 0.13789(19) 0.54434(18)
H49 H 0.270126 0.184825 0.573684
C43 C 0.2386(3) 0.0624(2) 0.5750(2)
H50 H 0.170168 0.057620 0.625144
C44 C 0.2772(3) -0.0042(2) 0.5332(2)
H51 H 0.236495 -0.056381 0.554791
C45 C 0.3742(3) 0.0025(2) 0.4602(3)
H52 H 0.398977 -0.043582 0.429079
C46 C 0.4373(3) 0.07791(19) 0.4312(2)
H53 H 0.506745 0.081231 0.382133
C47 C 0.4663(2) 0.22736(15) 0.45049(14)
H54 H 0.547199 0.208871 0.438270
H55 H 0.442463 0.251871 0.505455
C48 C 0.5113(2) 0.27282(15) 0.28060(14)
H56 H 0.472044 0.222097 0.281280
H57 H 0.502732 0.321292 0.229642
C49 C 0.6351(2) 0.24847(17) 0.26394(16)
H58 H 0.679776 0.285288 0.275716
C50 C 0.6843(3) 0.1795(2) 0.2342(2)
H59 H 0.639729 0.140882 0.224790
C51 C 0.8093(3) 0.1590(3) 0.2143(3)
H60 H 0.843048 0.202587 0.230162
H61 H 0.844903 0.160184 0.149015
H62 H 0.821453 0.100721 0.250636
C52 C 0.33193(19) 0.32598(16) 0.38423(16)
H63 H 0.295894 0.279429 0.373565
H64 H 0.294655 0.329560 0.448772
C53 C 0.3118(2) 0.41183(17) 0.32281(16)
C54 C 0.3040(2) 0.48904(19) 0.3506(2)
H65 H 0.314982 0.487701 0.406820
C55 C 0.2801(3) 0.5687(2) 0.2965(3)
H66 H 0.273276 0.621330 0.316252
C56 C 0.2664(3) 0.5702(2) 0.2143(2)
H67 H 0.251436 0.624416 0.176784
C57 C 0.2742(3) 0.4950(3) 0.1859(2)
H68 H 0.264761 0.496864 0.128979
C58 C 0.2958(3) 0.4159(2) 0.2404(2)
H69 H 0.299767 0.363536 0.220813
loop_
_geom_bond_atom_site_label_1
_geom_bond_atom_site_label_2
_geom_bond_site_symmetry_1
_geom_bond_site_symmetry_2
O1 H1 1_555 1_555
C1 C2 1_555 1_555
O2 H2 1_555 1_555
C2 O1 1_555 1_555
O3 H3 1_555 1_555
C3 O2 1_555 1_555
O4 H4 1_555 1_555
C4 O3 1_555 1_555
O5 H5 1_555 1_555
C5 C4 1_555 1_555
O6 H6 1_555 1_555
C6 C1 1_555 1_555
H7 C6 1_555 1_555
O7 H8 1_555 1_555
C7 C1 1_555 1_555
H9 C7 1_555 1_555
O8 H10 1_555 1_555
C8 C7 1_555 1_555
H11 C8 1_555 1_555
H12 C8 1_555 1_555
O9 H13 1_555 1_555
C9 C8 1_555 1_555
H14 C9 1_555 1_555
H15 C9 1_555 1_555
O10 H16 1_555 1_555
C10 C9 1_555 1_555
H17 C10 1_555 1_555
H18 C10 1_555 1_555
H19 C10 1_555 1_555
O11 H20 1_555 1_555
C11 C12 1_555 1_555
O12 H21 1_555 1_555
C12 O4 1_555 1_555
C13 O5 1_555 1_555
C14 O6 1_555 1_555
C15 C14 1_555 1_555
C16 C11 1_555 1_555
H22 C16 1_555 1_555
C17 C5 1_555 1_555
H23 C17 1_555 1_555
C18 C17 1_555 1_555
H24 C18 1_555 1_555
H25 C18 1_555 1_555
C19 C18 1_555 1_555
H26 C19 1_555 1_555
H27 C19 1_555 1_555
C20 C19 1_555 1_555
H28 C20 1_555 1_555
H29 C20 1_555 1_555
H30 C20 1_555 1_555
C21 C22 1_555 1_555
C22 O7 1_555 1_555
C23 O8 1_555 1_555
C24 O9 1_555 1_555
C25 C24 1_555 1_555
C26 C21 1_555 1_555
H31 C26 1_555 1_555
C27 C15 1_555 1_555
H32 C27 1_555 1_555
C28 C27 1_555 1_555
H33 C28 1_555 1_555
H34 C28 1_555 1_555
C29 C28 1_555 1_555
H35 C29 1_555 1_555
H36 C29 1_555 1_555
C30 C29 1_555 1_555
H37 C30 1_555 1_555
H38 C30 1_555 1_555
H39 C30 1_555 1_555
C31 C32 1_555 1_555
C32 O10 1_555 1_555
C33 O11 1_555 1_555
C34 O12 1_555 1_555
C35 C7 1_555 1_555
C36 C31 1_555 1_555
H40 C36 1_555 1_555
C37 C25 1_555 1_555
H41 C37 1_555 1_555
C38 C37 1_555 1_555
H42 C38 1_555 1_555
H43 C38 1_555 1_555
C39 C38 1_555 1_555
H44 C39 1_555 1_555
H45 C39 1_555 1_555
C40 C39 1_555 1_555
H46 C40 1_555 1_555
H47 C40 1_555 1_555
H48 C40 1_555 1_555
N1 O13 1_555 1_555
C41 C42 1_555 1_555
C42 H49 1_555 1_555
C43 C42 1_555 1_555
H50 C43 1_555 1_555
C44 C43 1_555 1_555
H51 C44 1_555 1_555
C45 C44 1_555 1_555
H52 C45 1_555 1_555
C46 C41 1_555 1_555
H53 C46 1_555 1_555
C47 N1 1_555 1_555
H54 C47 1_555 1_555
H55 C47 1_555 1_555
C48 N1 1_555 1_555
H56 C48 1_555 1_555
H57 C48 1_555 1_555
C49 C48 1_555 1_555
H58 C49 1_555 1_555
C50 C49 1_555 1_555
H59 C50 1_555 1_555
C51 C50 1_555 1_555
H60 C51 1_555 1_555
H61 C51 1_555 1_555
H62 C51 1_555 1_555
C52 N1 1_555 1_555
H63 C52 1_555 1_555
H64 C52 1_555 1_555
C53 C52 1_555 1_555
C54 C53 1_555 1_555
H65 C54 1_555 1_555
C55 C54 1_555 1_555
H66 C55 1_555 1_555
C56 C55 1_555 1_555
H67 C56 1_555 1_555
C57 C56 1_555 1_555
H68 C57 1_555 1_555
C58 C53 1_555 1_555
H69 C58 1_555 1_555
C2 C3 1_555 1_555
C3 C4 1_555 1_555
C5 C6 1_555 1_555
C11 C17 1_555 1_555
C12 C13 1_555 1_555
C13 C14 1_555 1_555
C15 C16 1_555 1_555
C21 C27 1_555 1_555
C22 C23 1_555 1_555
C23 C24 1_555 1_555
C25 C26 1_555 1_555
C31 C37 1_555 1_555
C32 C33 1_555 1_555
C33 C34 1_555 1_555
C34 C35 1_555 1_555
C35 C36 1_555 1_555
C41 C47 1_555 1_555
C45 C46 1_555 1_555
C57 C58 1_555 1_555

#END
