
#######################################################################
#
#                 Cambridge Crystallographic Data Centre
#                                CCDC 
#
#######################################################################
#
# If this CIF has been generated from an entry in the Cambridge 
# Structural Database, then it will include bibliographic, chemical, 
# crystal, experimental, refinement or atomic coordinate data resulting 
# from the CCDC's data processing and validation procedures.
#
#######################################################################

data_EFAHIC
_chemical_formula_moiety         'C24 H20 Br2 O4'
_chemical_name_systematic        
3'-Benzyloxy-3,5'-dibromo-8'-methoxy-3',4'-dihydro-3H-spiro(1-benzofuran-2,2'-chromene)
_symmetry_cell_setting           monoclinic
_symmetry_space_group_name_H-M   'P 21/c'
_symmetry_Int_Tables_number      14
_space_group_name_Hall           '-P 2ybc'
loop_
_symmetry_equiv_pos_site_id
_symmetry_equiv_pos_as_xyz
1 x,y,z
2 x,1/2-y,1/2+z
3 -x,-y,-z
4 -x,1/2+y,1/2-z
_cell_length_a                   21.436(2)
_cell_length_b                   9.7060(9)
_cell_length_c                   10.1818(9)
_cell_angle_alpha                90
_cell_angle_beta                 93.487(2)
_cell_angle_gamma                90
_cell_volume                     2114.48
_cell_formula_units_Z            4
loop_
_atom_site_label
_atom_site_type_symbol
_atom_site_fract_x
_atom_site_fract_y
_atom_site_fract_z
Br1 Br 0.87039(2) 0.52494(5) -0.48652(5)
Br2 Br 0.60689(3) 1.05399(6) -0.34629(6)
O1 O 0.81203(15) 1.1303(3) -0.7182(3)
O2 O 0.81418(13) 0.9132(3) -0.5714(3)
O3 O 0.85773(15) 0.8819(3) -0.3596(3)
O4 O 0.73828(14) 0.6835(3) -0.5376(3)
C1 C 0.7200(2) 0.9818(4) -0.4649(5)
C2 C 0.6710(2) 1.0786(5) -0.4651(5)
C3 C 0.6686(2) 1.1904(5) -0.5471(5)
H1 H 0.6353 1.2532 -0.5441
C4 C 0.7145(2) 1.2116(5) -0.6342(5)
H2 H 0.7124 1.2886 -0.6903
C5 C 0.7639(2) 1.1194(4) -0.6390(4)
C6 C 0.76490(19) 1.0033(4) -0.5556(4)
C7 C 0.7263(2) 0.8621(5) -0.3710(5)
H3 H 0.6848 0.8243 -0.3570
H4 H 0.7447 0.8939 -0.2859
C8 C 0.7675(2) 0.7494(5) -0.4251(4)
H5 H 0.7781 0.6803 -0.3557
C9 C 0.82668(19) 0.8135(4) -0.4713(4)
C10 C 0.9359(2) 0.7797(5) -0.4720(5)
C11 C 0.9982(2) 0.7563(6) -0.4965(5)
H6 H 1.0088 0.6917 -0.5601
C12 C 1.0441(3) 0.8296(7) -0.4259(6)
H7 H 1.0863 0.8145 -0.4415
C13 C 1.0285(3) 0.9255(6) -0.3318(5)
H8 H 1.0603 0.9763 -0.2862
C14 C 0.9667(3) 0.9472(5) -0.3042(5)
H9 H 0.9559 1.0104 -0.2395
C15 C 0.9220(2) 0.8729(5) -0.3750(5)
C16 C 0.8773(2) 0.7209(4) -0.5315(4)
H10 H 0.8757 0.7323 -0.6283
C17 C 0.6382(2) 0.5950(5) -0.4620(5)
C18 C 0.5973(2) 0.6791(6) -0.5357(6)
H11 H 0.6099 0.7178 -0.6145
C19 C 0.5385(3) 0.7069(8) -0.4951(7)
H12 H 0.5114 0.7646 -0.5460
C20 C 0.5195(3) 0.6507(8) -0.3808(7)
H13 H 0.4797 0.6710 -0.3524
C21 C 0.5584(3) 0.5655(8) -0.3084(7)
H14 H 0.5447 0.5239 -0.2319
C22 C 0.6185(3) 0.5396(6) -0.3474(6)
H15 H 0.6458 0.4837 -0.2950
C23 C 0.7020(2) 0.5636(5) -0.5089(6)
H16 H 0.7253 0.5092 -0.4412
H17 H 0.6970 0.5068 -0.5884
C24 C 0.8164(3) 1.2531(5) -0.7938(5)
H18 H 0.7822 1.2561 -0.8607
H19 H 0.8559 1.2542 -0.8355
H20 H 0.8140 1.3326 -0.7365
loop_
_geom_bond_atom_site_label_1
_geom_bond_atom_site_label_2
_geom_bond_site_symmetry_1
_geom_bond_site_symmetry_2
Br1 C16 1_555 1_555
Br2 C2 1_555 1_555
O1 C5 1_555 1_555
O2 C6 1_555 1_555
O3 C9 1_555 1_555
O4 C8 1_555 1_555
C1 C2 1_555 1_555
C2 C3 1_555 1_555
C3 H1 1_555 1_555
C4 C3 1_555 1_555
H2 C4 1_555 1_555
C5 C4 1_555 1_555
C6 C1 1_555 1_555
C7 C1 1_555 1_555
H3 C7 1_555 1_555
H4 C7 1_555 1_555
C8 C7 1_555 1_555
H5 C8 1_555 1_555
C9 O2 1_555 1_555
C10 C11 1_555 1_555
C11 H6 1_555 1_555
C12 C11 1_555 1_555
H7 C12 1_555 1_555
C13 C12 1_555 1_555
H8 C13 1_555 1_555
C14 C13 1_555 1_555
H9 C14 1_555 1_555
C15 O3 1_555 1_555
C16 C9 1_555 1_555
H10 C16 1_555 1_555
C17 C18 1_555 1_555
C18 H11 1_555 1_555
C19 C18 1_555 1_555
H12 C19 1_555 1_555
C20 C19 1_555 1_555
H13 C20 1_555 1_555
C21 C20 1_555 1_555
H14 C21 1_555 1_555
C22 C17 1_555 1_555
H15 C22 1_555 1_555
C23 O4 1_555 1_555
H16 C23 1_555 1_555
H17 C23 1_555 1_555
C24 O1 1_555 1_555
H18 C24 1_555 1_555
H19 C24 1_555 1_555
H20 C24 1_555 1_555
C5 C6 1_555 1_555
C8 C9 1_555 1_555
C10 C15 1_555 1_555
C10 C16 1_555 1_555
C14 C15 1_555 1_555
C17 C23 1_555 1_555
C21 C22 1_555 1_555

#END
