
#######################################################################
#
#                 Cambridge Crystallographic Data Centre
#                                CCDC 
#
#######################################################################
#
# If this CIF has been generated from an entry in the Cambridge 
# Structural Database, then it will include bibliographic, chemical, 
# crystal, experimental, refinement or atomic coordinate data resulting 
# from the CCDC's data processing and validation procedures.
#
#######################################################################

data_EFAMEF
_chemical_formula_moiety         'C13 H14 N2'
_chemical_name_systematic        
2-Methyl-N-(1-(1H-pyrrol-2-yl)ethylidene)aniline
_symmetry_cell_setting           triclinic
_symmetry_space_group_name_H-M   'P -1'
_symmetry_Int_Tables_number      2
_space_group_name_Hall           '-P 1'
loop_
_symmetry_equiv_pos_site_id
_symmetry_equiv_pos_as_xyz
1 x,y,z
2 -x,-y,-z
_cell_length_a                   10.120(2)
_cell_length_b                   10.400(3)
_cell_length_c                   11.726(3)
_cell_angle_alpha                79.138(4)
_cell_angle_beta                 67.021(4)
_cell_angle_gamma                88.154(4)
_cell_volume                     1114.68
_exptl_crystal_colour            colorless
_exptl_crystal_description       block
_chemical_melting_point          '396.5-398.9 K'
_cell_formula_units_Z            4
_exptl_crystal_recrystallization_method ethanol
loop_
_atom_site_label
_atom_site_type_symbol
_atom_site_fract_x
_atom_site_fract_y
_atom_site_fract_z
N1 N 0.37284(18) 0.91215(17) 0.19040(14)
H1 H 0.4426 0.9579 0.1289
N2 N 0.34013(18) 0.93166(17) -0.03844(14)
C1 C 0.3590(3) 0.8857(2) 0.31132(18)
H3 H 0.4226 0.9137 0.3422
C2 C 0.2371(3) 0.8118(3) 0.3801(2)
H4 H 0.2016 0.7798 0.4666
C3 C 0.1742(3) 0.7922(2) 0.2987(2)
H5 H 0.0888 0.7445 0.3208
C4 C 0.2595(2) 0.8553(2) 0.18026(17)
C5 C 0.2429(2) 0.8691(2) 0.06202(19)
C6 C 0.1083(2) 0.8091(3) 0.0660(2)
H6 H 0.0392 0.8752 0.0691
H7 H 0.0696 0.7412 0.1396
H8 H 0.1299 0.7724 -0.0082
C7 C 0.3199(2) 0.95209(18) -0.15330(18)
C8 C 0.3676(2) 0.8647(2) -0.2347(2)
C9 C 0.3553(3) 0.8960(3) -0.3496(2)
H9 H 0.3870 0.8379 -0.4052
C10 C 0.2981(3) 1.0095(3) -0.3841(2)
H10 H 0.2898 1.0276 -0.4617
C11 C 0.2530(3) 1.0965(3) -0.3044(2)
H11 H 0.2154 1.1749 -0.3284
C12 C 0.2627(2) 1.06875(19) -0.18953(19)
H12 H 0.2311 1.1280 -0.1352
C13 C 0.4357(3) 0.7415(3) -0.2007(2)
H13 H 0.4550 0.6895 -0.2645
H14 H 0.3716 0.6927 -0.1209
H15 H 0.5240 0.7633 -0.1949
N3 N 0.14266(18) 0.49423(17) 0.80750(14)
H2 H 0.0662 0.5111 0.8678
N4 N 0.16015(18) 0.41253(17) 1.04284(14)
C14 C 0.1659(3) 0.5221(3) 0.68454(19)
H16 H 0.1023 0.5622 0.6508
C15 C 0.2975(3) 0.4818(3) 0.6179(2)
H17 H 0.3410 0.4898 0.5307
C16 C 0.3551(2) 0.4261(2) 0.70452(19)
H18 H 0.4442 0.3890 0.6856
C17 C 0.2584(2) 0.4353(2) 0.82227(17)
C18 C 0.2667(2) 0.3960(2) 0.94336(19)
C19 C 0.4037(2) 0.3381(3) 0.9440(2)
H19 H 0.4699 0.4068 0.9358
H20 H 0.4450 0.2930 0.8747
H21 H 0.3843 0.2775 1.0219
C20 C 0.1708(2) 0.37695(19) 1.16170(18)
C21 C 0.1223(2) 0.2549(2) 1.23561(19)
C22 C 0.1255(3) 0.2295(3) 1.3541(2)
H22 H 0.0941 0.1472 1.4047
C23 C 0.1739(3) 0.3221(3) 1.3993(2)
H23 H 0.1750 0.3026 1.4796
C24 C 0.2206(3) 0.4433(3) 1.3258(2)
H24 H 0.2528 0.5068 1.3564
C25 C 0.2199(2) 0.4712(2) 1.2078(2)
H25 H 0.2524 0.5535 1.1577
C26 C 0.0651(3) 0.1542(3) 1.1890(2)
H26 H -0.0239 0.1815 1.1831
H27 H 0.0491 0.0719 1.2467
H28 H 0.1333 0.1444 1.1073
loop_
_geom_bond_atom_site_label_1
_geom_bond_atom_site_label_2
_geom_bond_site_symmetry_1
_geom_bond_site_symmetry_2
N1 H1 1_555 1_555
N2 C5 1_555 1_555
N3 H2 1_555 1_555
N4 C18 1_555 1_555
C1 N1 1_555 1_555
H3 C1 1_555 1_555
C2 C1 1_555 1_555
H4 C2 1_555 1_555
C3 C2 1_555 1_555
H5 C3 1_555 1_555
C4 N1 1_555 1_555
C5 C4 1_555 1_555
C6 C5 1_555 1_555
H6 C6 1_555 1_555
H7 C6 1_555 1_555
H8 C6 1_555 1_555
C7 N2 1_555 1_555
C8 C7 1_555 1_555
C9 C8 1_555 1_555
H9 C9 1_555 1_555
C10 C9 1_555 1_555
H10 C10 1_555 1_555
C11 C10 1_555 1_555
H11 C11 1_555 1_555
C12 C7 1_555 1_555
H12 C12 1_555 1_555
C13 C8 1_555 1_555
H13 C13 1_555 1_555
H14 C13 1_555 1_555
H15 C13 1_555 1_555
C14 N3 1_555 1_555
H16 C14 1_555 1_555
C15 C14 1_555 1_555
H17 C15 1_555 1_555
C16 C15 1_555 1_555
H18 C16 1_555 1_555
C17 N3 1_555 1_555
C18 C17 1_555 1_555
C19 C18 1_555 1_555
H19 C19 1_555 1_555
H20 C19 1_555 1_555
H21 C19 1_555 1_555
C20 N4 1_555 1_555
C21 C20 1_555 1_555
C22 C21 1_555 1_555
H22 C22 1_555 1_555
C23 C22 1_555 1_555
H23 C23 1_555 1_555
C24 C23 1_555 1_555
H24 C24 1_555 1_555
C25 C20 1_555 1_555
H25 C25 1_555 1_555
C26 C21 1_555 1_555
H26 C26 1_555 1_555
H27 C26 1_555 1_555
H28 C26 1_555 1_555
C3 C4 1_555 1_555
C11 C12 1_555 1_555
C16 C17 1_555 1_555
C24 C25 1_555 1_555

#END
