
#######################################################################
#
#                 Cambridge Crystallographic Data Centre
#                                CCDC 
#
#######################################################################
#
# If this CIF has been generated from an entry in the Cambridge 
# Structural Database, then it will include bibliographic, chemical, 
# crystal, experimental, refinement or atomic coordinate data resulting 
# from the CCDC's data processing and validation procedures.
#
#######################################################################

data_EFEJAC
_chemical_formula_moiety         'C20 H21 N1 O3 S1'
_chemical_name_systematic        
3-ethynyl-1-((4-methylphenyl)sulfonyl)-2-phenylpiperidin-3-ol
_symmetry_cell_setting           monoclinic
_symmetry_space_group_name_H-M   'P 21/n'
_symmetry_Int_Tables_number      14
_space_group_name_Hall           '-P 2yn'
loop_
_symmetry_equiv_pos_site_id
_symmetry_equiv_pos_as_xyz
1 x,y,z
2 1/2-x,1/2+y,1/2-z
3 -x,-y,-z
4 1/2+x,1/2-y,1/2+z
_cell_length_a                   10.5854(6)
_cell_length_b                   16.1439(9)
_cell_length_c                   11.1053(6)
_cell_angle_alpha                90
_cell_angle_beta                 113.4850(10)
_cell_angle_gamma                90
_cell_volume                     1740.58
_exptl_crystal_colour            colorless
_exptl_crystal_description       block
_cell_formula_units_Z            4
loop_
_atom_site_label
_atom_site_type_symbol
_atom_site_fract_x
_atom_site_fract_y
_atom_site_fract_z
C1 C 0.28436(10) 0.29707(6) 1.14010(10)
H1 H 0.3698 0.2865 1.2205
C2 C 0.22201(10) 0.37894(6) 1.16729(10)
C3 C 0.07297(11) 0.39114(6) 1.07014(10)
H2 H 0.0358 0.4424 1.0926
H3 H 0.0702 0.3977 0.9805
C4 C -0.01675(10) 0.31776(6) 1.07257(10)
H4 H -0.0218 0.3147 1.1596
H5 H -0.1113 0.3260 1.0055
C5 C 0.04134(10) 0.23687(6) 1.04541(10)
H6 H -0.0110 0.1896 1.0591
H7 H 0.0313 0.2358 0.9529
C6 C 0.33046(11) 0.30275(6) 1.02689(10)
C7 C 0.24335(12) 0.29876(7) 0.89424(11)
H8 H 0.1469 0.2929 0.8690
C8 C 0.29689(15) 0.30333(8) 0.79825(13)
H9 H 0.2367 0.2996 0.7082
C9 C 0.43703(16) 0.31329(8) 0.83297(15)
H10 H 0.4728 0.3174 0.7672
C10 C 0.52432(15) 0.31713(9) 0.96435(16)
H11 H 0.6206 0.3237 0.9890
C11 C 0.47161(12) 0.31148(8) 1.06032(13)
H12 H 0.5327 0.3136 1.1503
C12 C 0.22903(11) 0.37681(6) 1.30330(10)
C13 C 0.23486(12) 0.38028(8) 1.41243(11)
H13 H 0.2395 0.3831 1.4996
C14 C 0.25670(11) 0.09556(6) 1.01587(10)
C15 C 0.13746(11) 0.06365(7) 0.91836(11)
H14 H 0.0541 0.0609 0.9313
C16 C 0.14235(11) 0.03590(7) 0.80177(11)
H15 H 0.0617 0.0136 0.7352
C17 C 0.26372(12) 0.04019(6) 0.78096(11)
C18 C 0.26833(14) 0.01248(8) 0.65354(12)
H16 H 0.2783 0.0609 0.6048
H17 H 0.1828 -0.0167 0.6011
H18 H 0.3469 -0.0248 0.6716
C19 C 0.38206(12) 0.07159(7) 0.88070(12)
H19 H 0.4657 0.0740 0.8682
C20 C 0.37942(11) 0.09931(7) 0.99795(11)
H20 H 0.4605 0.1206 1.0653
N1 N 0.18849(9) 0.22879(5) 1.13378(8)
O1 O 0.30806(8) 0.44289(5) 1.15450(8)
H21 H 0.3032 0.4844 1.1980
O2 O 0.39088(9) 0.14163(5) 1.25711(8)
O3 O 0.15428(9) 0.08588(5) 1.19166(8)
S1 S 0.25191(3) 0.134884(15) 1.16165(2)
loop_
_geom_bond_atom_site_label_1
_geom_bond_atom_site_label_2
_geom_bond_site_symmetry_1
_geom_bond_site_symmetry_2
C1 H1 1_555 1_555
C2 C1 1_555 1_555
C3 C2 1_555 1_555
H2 C3 1_555 1_555
H3 C3 1_555 1_555
C4 C3 1_555 1_555
H4 C4 1_555 1_555
H5 C4 1_555 1_555
C5 C4 1_555 1_555
H6 C5 1_555 1_555
H7 C5 1_555 1_555
C6 C1 1_555 1_555
C7 C6 1_555 1_555
H8 C7 1_555 1_555
C8 C7 1_555 1_555
H9 C8 1_555 1_555
C9 C8 1_555 1_555
H10 C9 1_555 1_555
C10 C9 1_555 1_555
H11 C10 1_555 1_555
C11 C6 1_555 1_555
H12 C11 1_555 1_555
C12 C2 1_555 1_555
C13 C12 1_555 1_555
H13 C13 1_555 1_555
C14 C15 1_555 1_555
C15 H14 1_555 1_555
C16 C15 1_555 1_555
H15 C16 1_555 1_555
C17 C16 1_555 1_555
C18 C17 1_555 1_555
H16 C18 1_555 1_555
H17 C18 1_555 1_555
H18 C18 1_555 1_555
C19 C17 1_555 1_555
H19 C19 1_555 1_555
C20 C14 1_555 1_555
H20 C20 1_555 1_555
N1 C1 1_555 1_555
O1 C2 1_555 1_555
H21 O1 1_555 1_555
O2 S1 1_555 1_555
O3 S1 1_555 1_555
S1 C14 1_555 1_555
C5 N1 1_555 1_555
C10 C11 1_555 1_555
C19 C20 1_555 1_555
N1 S1 1_555 1_555

#END
