
#######################################################################
#
#                 Cambridge Crystallographic Data Centre
#                                CCDC 
#
#######################################################################
#
# If this CIF has been generated from an entry in the Cambridge 
# Structural Database, then it will include bibliographic, chemical, 
# crystal, experimental, refinement or atomic coordinate data resulting 
# from the CCDC's data processing and validation procedures.
#
#######################################################################

data_EFEKIL
_chemical_compound_source        'Salvia scapiformis, whole plant'
_chemical_name_common            'Scapiformolactone C'
_chemical_formula_moiety         'C20 H28 O5'
_chemical_name_systematic        
'8-isopropyl-5-methyl-4,11-dioxo-10-oxabicyclo[7.2.1]dodec-1-en-7-yl 2-methylbut-2-enoate'
_chemical_properties_biological  
'Displayed inhibitory activities against LPS-induced murine B cell proliferation, exerted weak cytotoxicity in some human cancer cell lines'
_symmetry_cell_setting           monoclinic
_symmetry_space_group_name_H-M   'P 21'
_symmetry_Int_Tables_number      4
_space_group_name_Hall           'P 2yb'
loop_
_symmetry_equiv_pos_site_id
_symmetry_equiv_pos_as_xyz
1 x,y,z
2 -x,1/2+y,-z
_cell_length_a                   9.7972(13)
_cell_length_b                   9.3257(12)
_cell_length_c                   10.9907(14)
_cell_angle_alpha                90
_cell_angle_beta                 105.009(2)
_cell_angle_gamma                90
_cell_volume                     969.916
_exptl_crystal_colour            red
_exptl_crystal_description       block
_cell_formula_units_Z            2
loop_
_atom_site_label
_atom_site_type_symbol
_atom_site_fract_x
_atom_site_fract_y
_atom_site_fract_z
C1 C 0.5694(2) 0.3375(3) 0.62698(17)
C2 C 0.15368(17) 0.33259(18) 0.88660(15)
C3 C 0.03167(19) 0.2336(2) 0.87511(19)
C4 C 0.6669(2) 0.4584(3) 0.6917(2)
H1 H 0.7654 0.4322 0.6937
H2 H 0.6431 0.5462 0.6399
C5 C 0.66034(19) 0.4923(3) 0.82243(19)
H3 H 0.7100 0.4298 0.8871
C6 C -0.0373(2) 0.1790(2) 0.7665(2)
H4 H -0.0073 0.2077 0.6946
C7 C 0.5919(2) 0.6015(2) 0.85774(17)
C8 C -0.1591(3) 0.0755(3) 0.7445(3)
H5 H -0.1235 -0.0228 0.7457
H6 H -0.2248 0.0951 0.6625
H7 H -0.2083 0.0869 0.8111
C9 C 0.5040(2) 0.7185(2) 0.78568(17)
H8 H 0.4732 0.6960 0.6946
H9 H 0.5552 0.8111 0.7977
C10 C -0.0009(3) 0.2011(4) 0.9990(3)
H10 H -0.0430 0.2858 1.0277
H11 H 0.0865 0.1756 1.0618
H12 H -0.0675 0.1208 0.9881
C11 C 0.3788(2) 0.7204(2) 0.84534(16)
H13 H 0.3448 0.8214 0.8460
C12 C 0.25181(19) 0.62410(18) 0.78622(15)
H14 H 0.1906 0.6256 0.8462
C13 C 0.29418(16) 0.46612(18) 0.77766(13)
H15 H 0.3718 0.4431 0.8541
C14 C 0.34389(17) 0.42572(19) 0.66134(14)
H16 H 0.3910 0.5100 0.6354
H17 H 0.2600 0.4033 0.5917
C15 C 0.44624(19) 0.2973(2) 0.67957(16)
H18 H 0.4838 0.2809 0.7721
C16 C 0.1604(2) 0.6882(2) 0.66126(18)
H19 H 0.2120 0.6741 0.5946
C17 C 0.1359(4) 0.8483(3) 0.6732(3)
H20 H 0.0652 0.8818 0.5982
H21 H 0.2248 0.9001 0.6808
H22 H 0.1019 0.8661 0.7482
C18 C 0.0190(2) 0.6153(3) 0.6188(3)
H23 H -0.0350 0.6316 0.6812
H24 H 0.0329 0.5121 0.6102
H25 H -0.0331 0.6548 0.5374
C19 C 0.3741(3) 0.1599(3) 0.6214(2)
H26 H 0.3333 0.1744 0.5310
H27 H 0.2991 0.1348 0.6617
H28 H 0.4437 0.0822 0.6342
C20 C 0.5649(3) 0.6056(2) 0.98455(18)
O1 O 0.58983(18) 0.2804(3) 0.53501(14)
O2 O 0.6344(2) 0.55639(18) 1.08212(13)
O3 O 0.44237(19) 0.67548(16) 0.97577(11)
O4 O 0.22675(15) 0.37492(16) 0.98587(12)
O5 O 0.17541(12) 0.37064(13) 0.77545(10)
loop_
_geom_bond_atom_site_label_1
_geom_bond_atom_site_label_2
_geom_bond_site_symmetry_1
_geom_bond_site_symmetry_2
C1 C4 1_555 1_555
C2 C3 1_555 1_555
C3 C6 1_555 1_555
C4 H1 1_555 1_555
H2 C4 1_555 1_555
C5 C4 1_555 1_555
H3 C5 1_555 1_555
C6 H4 1_555 1_555
C7 C5 1_555 1_555
C8 C6 1_555 1_555
H5 C8 1_555 1_555
H6 C8 1_555 1_555
H7 C8 1_555 1_555
C9 C7 1_555 1_555
H8 C9 1_555 1_555
H9 C9 1_555 1_555
C10 C3 1_555 1_555
H10 C10 1_555 1_555
H11 C10 1_555 1_555
H12 C10 1_555 1_555
C11 C9 1_555 1_555
H13 C11 1_555 1_555
C12 C11 1_555 1_555
H14 C12 1_555 1_555
C13 C12 1_555 1_555
H15 C13 1_555 1_555
C14 C13 1_555 1_555
H16 C14 1_555 1_555
H17 C14 1_555 1_555
C15 C1 1_555 1_555
H18 C15 1_555 1_555
C16 C12 1_555 1_555
H19 C16 1_555 1_555
C17 C16 1_555 1_555
H20 C17 1_555 1_555
H21 C17 1_555 1_555
H22 C17 1_555 1_555
C18 C16 1_555 1_555
H23 C18 1_555 1_555
H24 C18 1_555 1_555
H25 C18 1_555 1_555
C19 C15 1_555 1_555
H26 C19 1_555 1_555
H27 C19 1_555 1_555
H28 C19 1_555 1_555
C20 C7 1_555 1_555
O1 C1 1_555 1_555
O2 C20 1_555 1_555
O3 C11 1_555 1_555
O4 C2 1_555 1_555
O5 C2 1_555 1_555
C13 O5 1_555 1_555
C14 C15 1_555 1_555
C20 O3 1_555 1_555

#END
