
#######################################################################
#
#                 Cambridge Crystallographic Data Centre
#                                CCDC 
#
#######################################################################
#
# If this CIF has been generated from an entry in the Cambridge 
# Structural Database, then it will include bibliographic, chemical, 
# crystal, experimental, refinement or atomic coordinate data resulting 
# from the CCDC's data processing and validation procedures.
#
#######################################################################

data_EFEKUW
_chemical_formula_moiety         'C20 H23 B1 N2'
_chemical_name_systematic        
1-t-Butyl-N,N-diphenyl-1,2-dihydro-1,2-azaborinin-2-amine
_symmetry_cell_setting           monoclinic
_symmetry_space_group_name_H-M   'P 21/c'
_symmetry_Int_Tables_number      14
_space_group_name_Hall           '-P 2ybc'
loop_
_symmetry_equiv_pos_site_id
_symmetry_equiv_pos_as_xyz
1 x,y,z
2 -x,1/2+y,1/2-z
3 -x,-y,-z
4 x,1/2-y,1/2+z
_cell_length_a                   17.5145(7)
_cell_length_b                   11.3698(4)
_cell_length_c                   18.5318(7)
_cell_angle_alpha                90
_cell_angle_beta                 113.7140(10)
_cell_angle_gamma                90
_cell_volume                     3378.76
_exptl_crystal_colour            colorless
_exptl_crystal_description       Block
_cell_formula_units_Z            8
_exptl_crystal_recrystallization_method pentane
loop_
_atom_site_label
_atom_site_type_symbol
_atom_site_fract_x
_atom_site_fract_y
_atom_site_fract_z
B1 B 0.48635(8) 0.01270(12) 0.14137(8)
N1 N 0.47815(6) -0.11116(9) 0.12202(6)
N2 N 0.41963(6) 0.08106(9) 0.15253(6)
C1 C 0.55042(8) -0.17381(12) 0.13615(7)
C2 C 0.62654(8) -0.12354(13) 0.15700(8)
C3 C 0.63641(8) -0.00028(13) 0.16502(8)
C4 C 0.57006(8) 0.06920(12) 0.15694(8)
C5 C 0.39258(7) 0.18882(10) 0.11287(7)
C6 C 0.39351(8) 0.20381(12) 0.03821(8)
C7 C 0.36924(9) 0.31009(13) -0.00125(8)
C8 C 0.34242(9) 0.40191(12) 0.03137(9)
C9 C 0.34092(8) 0.38784(11) 0.10509(9)
C10 C 0.36635(8) 0.28297(11) 0.14615(8)
C11 C 0.39554(8) 0.04804(10) 0.21423(7)
C12 C 0.31366(8) 0.06250(11) 0.20760(8)
C13 C 0.29177(9) 0.02741(12) 0.26843(9)
C14 C 0.34982(10) -0.02435(13) 0.33560(9)
C15 C 0.43057(10) -0.04046(13) 0.34215(8)
C16 C 0.45378(8) -0.00364(11) 0.28240(8)
C17 C 0.39812(8) -0.18259(11) 0.08620(8)
C18 C 0.32378(9) -0.10290(13) 0.04207(10)
C19 C 0.38451(10) -0.25075(14) 0.15096(10)
C20 C 0.40459(10) -0.26784(15) 0.02433(10)
H1 H 0.5446(9) -0.2604(15) 0.1308(9)
H2 H 0.6737(10) -0.1765(15) 0.1656(10)
H3 H 0.6926(11) 0.0319(15) 0.1789(10)
H4 H 0.5805(10) 0.1548(17) 0.1650(10)
H5 H 0.4111(9) 0.1369(14) 0.0154(9)
H6 H 0.3697(10) 0.3210(15) -0.0541(10)
H7 H 0.3247(10) 0.4782(15) 0.0015(10)
H8 H 0.3215(10) 0.4541(16) 0.1291(10)
H9 H 0.3666(8) 0.2749(13) 0.1986(9)
H10 H 0.2721(9) 0.0984(13) 0.1588(9)
H11 H 0.2341(10) 0.0374(14) 0.2623(9)
H12 H 0.3326(10) -0.0473(16) 0.3773(10)
H13 H 0.4713(10) -0.0780(16) 0.3879(11)
H14 H 0.5121(10) -0.0130(14) 0.2875(9)
H15 H 0.2744(11) -0.1537(16) 0.0136(10)
H16 H 0.3330(12) -0.0548(19) 0.0001(13)
H17 H 0.3087(12) -0.0507(18) 0.0765(11)
H18 H 0.4349(12) -0.3011(18) 0.1831(12)
H19 H 0.3338(11) -0.3011(17) 0.1279(11)
H20 H 0.3735(11) -0.1991(17) 0.1885(11)
H21 H 0.3488(11) -0.3041(16) -0.0042(10)
H22 H 0.4226(11) -0.2280(17) -0.0140(11)
H23 H 0.4402(11) -0.3356(17) 0.0470(10)
B2 B 0.00002(8) 0.77452(12) 0.35263(8)
N3 N 0.00970(6) 0.89921(9) 0.37043(6)
N4 N 0.06853(6) 0.70032(9) 0.34883(6)
C21 C -0.06178(8) 0.96536(12) 0.35192(7)
C22 C -0.13976(8) 0.91886(13) 0.32642(8)
C23 C -0.15206(8) 0.79559(13) 0.31813(8)
C24 C -0.08605(8) 0.72311(12) 0.33105(8)
C25 C 0.09305(7) 0.59571(10) 0.39327(7)
C26 C 0.08342(8) 0.58674(11) 0.46463(7)
C27 C 0.10781(8) 0.48568(12) 0.51012(8)
C28 C 0.14329(9) 0.39233(12) 0.48733(8)
C29 C 0.15220(9) 0.39971(12) 0.41606(8)
C30 C 0.12634(8) 0.49882(11) 0.36887(8)
C31 C 0.09872(7) 0.72737(10) 0.29025(7)
C32 C 0.18249(8) 0.71136(11) 0.30289(8)
C33 C 0.21009(9) 0.74289(12) 0.24530(8)
C34 C 0.15615(9) 0.79269(13) 0.17475(8)
C35 C 0.07351(9) 0.81089(12) 0.16247(8)
C36 C 0.04480(8) 0.77690(11) 0.21910(7)
C37 C 0.09162(8) 0.96626(11) 0.40885(8)
C38 C 0.15779(10) 0.88429(15) 0.46582(11)
C39 C 0.11818(10) 1.01482(14) 0.34573(10)
C40 C 0.08280(10) 1.07027(14) 0.45770(9)
H24 H -0.0548(10) 1.0508(15) 0.3587(9)
H25 H -0.1878(11) 0.9724(15) 0.3152(10)
H26 H -0.2087(10) 0.7669(15) 0.3011(9)
H27 H -0.0967(10) 0.6389(16) 0.3229(10)
H28 H 0.0592(9) 0.6550(14) 0.4812(9)
H29 H 0.0992(10) 0.4810(15) 0.5601(10)
H30 H 0.1638(10) 0.3224(16) 0.5197(10)
H31 H 0.1772(10) 0.3330(16) 0.4002(10)
H32 H 0.1325(9) 0.5002(13) 0.3197(9)
H33 H 0.2210(9) 0.6793(14) 0.3532(9)
H34 H 0.2681(10) 0.7312(14) 0.2540(9)
H35 H 0.1771(9) 0.8153(15) 0.1356(9)
H36 H 0.0348(10) 0.8492(15) 0.1128(10)
H37 H -0.0145(9) 0.7880(13) 0.2097(8)
H38 H 0.2078(11) 0.9318(16) 0.4959(11)
H39 H 0.1381(12) 0.8495(19) 0.5035(12)
H40 H 0.1753(14) 0.823(2) 0.4374(14)
H41 H 0.0711(11) 1.0645(17) 0.3049(11)
H42 H 0.1678(11) 1.0668(17) 0.3695(11)
H43 H 0.1325(10) 0.9534(16) 0.3183(10)
H44 H 0.0477(11) 1.1397(17) 0.4237(11)
H45 H 0.1380(11) 1.1020(15) 0.4892(10)
H46 H 0.0611(12) 1.0462(18) 0.4951(12)
loop_
_geom_bond_atom_site_label_1
_geom_bond_atom_site_label_2
_geom_bond_site_symmetry_1
_geom_bond_site_symmetry_2
B1 N1 1_555 1_555
N1 C1 1_555 1_555
N2 B1 1_555 1_555
C1 C2 1_555 1_555
C2 C3 1_555 1_555
C3 C4 1_555 1_555
C4 B1 1_555 1_555
C5 N2 1_555 1_555
C6 C5 1_555 1_555
C7 C6 1_555 1_555
C8 C7 1_555 1_555
C9 C8 1_555 1_555
C10 C5 1_555 1_555
C11 N2 1_555 1_555
C12 C11 1_555 1_555
C13 C12 1_555 1_555
C14 C13 1_555 1_555
C15 C14 1_555 1_555
C16 C11 1_555 1_555
C17 N1 1_555 1_555
C18 C17 1_555 1_555
C19 C17 1_555 1_555
C20 C17 1_555 1_555
B2 N3 1_555 1_555
N3 C21 1_555 1_555
N4 B2 1_555 1_555
C21 C22 1_555 1_555
C22 C23 1_555 1_555
C23 C24 1_555 1_555
C24 B2 1_555 1_555
C25 N4 1_555 1_555
C26 C25 1_555 1_555
C27 C26 1_555 1_555
C28 C27 1_555 1_555
C29 C28 1_555 1_555
C30 C25 1_555 1_555
C31 N4 1_555 1_555
C32 C31 1_555 1_555
C33 C32 1_555 1_555
C34 C33 1_555 1_555
C35 C34 1_555 1_555
C36 C31 1_555 1_555
C37 N3 1_555 1_555
C38 C37 1_555 1_555
C39 C37 1_555 1_555
C40 C37 1_555 1_555
H1 C1 1_555 1_555
H2 C2 1_555 1_555
H3 C3 1_555 1_555
H4 C4 1_555 1_555
H5 C6 1_555 1_555
H6 C7 1_555 1_555
H7 C8 1_555 1_555
H8 C9 1_555 1_555
H9 C10 1_555 1_555
H10 C12 1_555 1_555
H11 C13 1_555 1_555
H12 C14 1_555 1_555
H13 C15 1_555 1_555
H14 C16 1_555 1_555
H15 C18 1_555 1_555
H16 C18 1_555 1_555
H17 C18 1_555 1_555
H18 C19 1_555 1_555
H19 C19 1_555 1_555
H20 C19 1_555 1_555
H21 C20 1_555 1_555
H22 C20 1_555 1_555
H23 C20 1_555 1_555
H24 C21 1_555 1_555
H25 C22 1_555 1_555
H26 C23 1_555 1_555
H27 C24 1_555 1_555
H28 C26 1_555 1_555
H29 C27 1_555 1_555
H30 C28 1_555 1_555
H31 C29 1_555 1_555
H32 C30 1_555 1_555
H33 C32 1_555 1_555
H34 C33 1_555 1_555
H35 C34 1_555 1_555
H36 C35 1_555 1_555
H37 C36 1_555 1_555
H38 C38 1_555 1_555
H39 C38 1_555 1_555
H40 C38 1_555 1_555
H41 C39 1_555 1_555
H42 C39 1_555 1_555
H43 C39 1_555 1_555
H44 C40 1_555 1_555
H45 C40 1_555 1_555
H46 C40 1_555 1_555
C9 C10 1_555 1_555
C15 C16 1_555 1_555
C29 C30 1_555 1_555
C35 C36 1_555 1_555

#END
