
#######################################################################
#
#                 Cambridge Crystallographic Data Centre
#                                CCDC 
#
#######################################################################
#
# If this CIF has been generated from an entry in the Cambridge 
# Structural Database, then it will include bibliographic, chemical, 
# crystal, experimental, refinement or atomic coordinate data resulting 
# from the CCDC's data processing and validation procedures.
#
#######################################################################

data_EFEREN
_chemical_formula_moiety         'C16 H36 N1 1+,C38 H45 N5 O4,Cl1 1-'
_chemical_name_systematic        
'Tetra-n-butylammonium 5,10,10,15,20,20-hexamethyl-5,15-((pyrrole-2,5-diyl)-bis(carbonyloxypropyl))calix(4)pyrrole chloride'
_symmetry_cell_setting           triclinic
_symmetry_space_group_name_H-M   'P -1'
_symmetry_Int_Tables_number      2
_space_group_name_Hall           '-P 1'
loop_
_symmetry_equiv_pos_site_id
_symmetry_equiv_pos_as_xyz
1 x,y,z
2 -x,-y,-z
_cell_length_a                   11.0689(9)
_cell_length_b                   15.5944(11)
_cell_length_c                   15.8116(14)
_cell_angle_alpha                88.992(2)
_cell_angle_beta                 77.210(2)
_cell_angle_gamma                75.006(2)
_cell_volume                     2568.67
_exptl_crystal_colour            colorless
_exptl_crystal_description       plates
_cell_formula_units_Z            2
_exptl_crystal_recrystallization_method dichloromethane/methanol
loop_
_atom_site_label
_atom_site_type_symbol
_atom_site_fract_x
_atom_site_fract_y
_atom_site_fract_z
N1 N 0.1892(3) 0.2181(3) 0.2579(3)
C1 C 0.1897(5) 0.3033(3) 0.2102(3)
H1 H 0.1845 0.3505 0.2530
H2 H 0.1109 0.3209 0.1873
C2 C 0.3042(5) 0.3011(3) 0.1354(3)
H3 H 0.3839 0.2870 0.1574
H4 H 0.3118 0.2540 0.0919
C3 C 0.2884(5) 0.3901(3) 0.0927(3)
H5 H 0.2859 0.4363 0.1357
H6 H 0.2055 0.4059 0.0748
C4 C 0.3958(6) 0.3897(4) 0.0141(4)
H7 H 0.4777 0.3777 0.0320
H8 H 0.3794 0.4478 -0.0123
H9 H 0.3998 0.3434 -0.0284
C5 C 0.2262(6) 0.1377(4) 0.1960(5)
H10 H 0.2229 0.0844 0.2305
H11 H 0.3162 0.1298 0.1638
C6 C 0.1425(6) 0.1419(4) 0.1303(5)
H12 H 0.0548 0.1410 0.1614
H13 H 0.1366 0.1986 0.1002
C7 C 0.1950(6) 0.0658(4) 0.0641(5)
H14 H 0.1926 0.0096 0.0937
H15 H 0.2859 0.0629 0.0375
C8 C 0.1215(7) 0.0737(5) -0.0065(5)
H16 H 0.0308 0.0790 0.0195
H17 H 0.1563 0.0207 -0.0456
H18 H 0.1297 0.1265 -0.0394
C9 C 0.0618(7) 0.2044(6) 0.3073(5)
H19 H 0.0010 0.2133 0.2684
H20 H 0.0747 0.1427 0.3270
C10 C 0.0060(7) 0.2692(5) 0.3850(5)
H21 H -0.0072 0.3314 0.3669
H22 H 0.0626 0.2590 0.4267
C13 C -0.1333(7) 0.2469(4) 0.4280(4)
H29 H -0.1235 0.1876 0.4483
H30 H -0.1882 0.2570 0.3876
C14 C -0.1826(5) 0.3156(3) 0.5005(4)
H31 H -0.1287 0.3016 0.5430
H32 H -0.2711 0.3162 0.5285
H33 H -0.1802 0.3741 0.4775
C15 C 0.3018(8) 0.2073(6) 0.3011(6)
H34 H 0.3786 0.2092 0.2557
H35 H 0.2833 0.2590 0.3417
C16 C 0.3348(8) 0.1247(5) 0.3500(5)
H36 H 0.3743 0.0729 0.3086
H37 H 0.2556 0.1149 0.3876
C17 C 0.4284(7) 0.1330(6) 0.4057(5)
H38 H 0.3856 0.1876 0.4429
H39 H 0.4309 0.0829 0.4452
C18 C 0.5666(8) 0.1362(6) 0.3741(6)
H40 H 0.6132 0.0852 0.3340
H41 H 0.6067 0.1340 0.4237
H42 H 0.5692 0.1914 0.3440
Cl1 Cl 0.28475(11) 0.67899(7) 0.15482(7)
O1 O 0.0429(3) 0.6735(2) 0.0457(2)
O2 O 0.0408(4) 0.6407(3) -0.0916(2)
O3 O 0.4603(4) 0.8970(2) -0.0885(3)
O4 O 0.3987(4) 0.8488(2) 0.0444(3)
N2 N 0.4643(3) 0.6423(2) 0.2965(2)
H52 H 0.4288 0.6492 0.2514
N3 N 0.2401(3) 0.5314(2) 0.2976(2)
H53 H 0.2548 0.5666 0.2546
N4 N 0.0172(3) 0.7323(2) 0.3055(2)
H54 H 0.0828 0.7211 0.2605
N5 N 0.2383(3) 0.8403(2) 0.3015(2)
H55 H 0.2486 0.7978 0.2626
N6 N 0.2353(4) 0.7632(3) -0.0170(2)
H56 H 0.2277 0.7556 0.0390
C23 C 0.4957(4) 0.7086(3) 0.3359(3)
C24 C 0.5477(4) 0.6710(3) 0.4022(3)
H57 H 0.5790 0.7007 0.4413
C25 C 0.5474(4) 0.5804(3) 0.4032(3)
H58 H 0.5780 0.5387 0.4431
C26 C 0.4958(4) 0.5636(3) 0.3371(3)
C27 C 0.4746(4) 0.4784(3) 0.3053(3)
C28 C 0.3336(4) 0.4789(3) 0.3343(3)
C29 C 0.2714(4) 0.4346(3) 0.3981(3)
H59 H 0.3107 0.3930 0.4350
C30 C 0.1385(4) 0.4618(3) 0.3995(3)
H60 H 0.0732 0.4417 0.4376
C31 C 0.1206(4) 0.5218(3) 0.3367(3)
C32 C -0.0012(4) 0.5737(3) 0.3095(3)
C33 C -0.0407(4) 0.6696(3) 0.3453(3)
C34 C -0.1351(4) 0.7123(3) 0.4130(3)
H61 H -0.1905 0.6858 0.4532
C35 C -0.1361(4) 0.8037(3) 0.4129(3)
H62 H -0.1929 0.8492 0.4526
C36 C -0.0408(4) 0.8142(3) 0.3454(3)
C37 C -0.0012(4) 0.8970(3) 0.3124(3)
C38 C 0.1227(4) 0.8999(3) 0.3368(3)
C39 C 0.1473(5) 0.9537(3) 0.3951(3)
H63 H 0.0861 1.0012 0.4301
C40 C 0.2797(5) 0.9260(3) 0.3939(4)
H64 H 0.3230 0.9516 0.4281
C41 C 0.3347(5) 0.8558(3) 0.3350(3)
C42 C 0.4735(4) 0.8026(3) 0.3035(3)
C43 C 0.5556(4) 0.3997(3) 0.3449(3)
H65 H 0.6460 0.4005 0.3289
H66 H 0.5462 0.3439 0.3228
H67 H 0.5263 0.4042 0.4082
C44 C 0.5188(4) 0.4665(3) 0.2060(3)
H68 H 0.4652 0.5144 0.1791
H69 H 0.5108 0.4090 0.1873
H70 H 0.6086 0.4686 0.1882
C45 C -0.1104(4) 0.5300(3) 0.3478(3)
H71 H -0.0893 0.4696 0.3225
H72 H -0.1906 0.5651 0.3342
H73 H -0.1208 0.5278 0.4109
C46 C 0.0158(5) 0.8991(3) 0.2134(3)
H74 H 0.0363 0.9545 0.1931
H75 H -0.0638 0.8958 0.1979
H76 H 0.0859 0.8484 0.1860
C47 C -0.1077(5) 0.9789(3) 0.3528(4)
H77 H -0.1190 0.9796 0.4161
H78 H -0.1881 0.9768 0.3377
H79 H -0.0841 1.0328 0.3306
C48 C 0.5609(5) 0.8491(3) 0.3386(4)
H80 H 0.5384 0.8514 0.4022
H81 H 0.5491 0.9096 0.3178
H82 H 0.6507 0.8157 0.3181
C49 C 0.0203(4) 0.5716(3) 0.2101(3)
H83 H 0.0987 0.5913 0.1860
H84 H 0.0368 0.5092 0.1893
C50 C -0.0892(4) 0.6283(3) 0.1730(3)
H85 H -0.1666 0.6064 0.1933
H86 H -0.1094 0.6904 0.1956
C51 C -0.0579(5) 0.6269(3) 0.0754(3)
H87 H -0.0277 0.5648 0.0518
H88 H -0.1357 0.6566 0.0544
C52 C 0.0815(5) 0.6763(3) -0.0404(3)
C53 C 0.1753(5) 0.7291(3) -0.0687(3)
C54 C 0.2108(5) 0.7570(4) -0.1521(3)
H89 H 0.1837 0.7425 -0.2018
C55 C 0.2929(6) 0.8097(4) -0.1496(4)
H90 H 0.3307 0.8392 -0.1972
C56 C 0.3103(5) 0.8121(3) -0.0667(3)
C57 C 0.3969(5) 0.8573(4) -0.0387(4)
C58 C 0.4952(6) 0.8878(4) 0.0692(4)
H91 H 0.5827 0.8511 0.0433
H92 H 0.4868 0.9484 0.0472
C59 C 0.4749(6) 0.8914(4) 0.1628(4)
H93 H 0.3837 0.9212 0.1878
H94 H 0.5273 0.9282 0.1795
C60 C 0.5091(5) 0.7998(3) 0.2031(3)
H95 H 0.6025 0.7729 0.1833
H96 H 0.4643 0.7606 0.1810
C11? C 0.0480(9) 0.2605(7) 0.3159(8)
H23? H 0.0497 0.3138 0.3483
H24? H -0.0112 0.2804 0.2766
C12? C -0.0052(9) 0.1998(7) 0.3794(7)
H25? H -0.0099 0.1468 0.3481
H26? H 0.0521 0.1798 0.4199
H27? H -0.1752 0.2735 0.3833
H28? H -0.1726 0.2002 0.4491
C19? C 0.2501(9) 0.2079(11) 0.3403(6)
H43? H 0.2176 0.2643 0.3757
H44? H 0.2223 0.1609 0.3763
C20? C 0.3958(8) 0.1845(9) 0.3162(7)
H45? H 0.4285 0.1283 0.2807
H46? H 0.4238 0.2317 0.2806
C21? C 0.4521(12) 0.1746(8) 0.3947(8)
H47? H 0.5051 0.2174 0.3917
H48? H 0.3807 0.1922 0.4465
C22? C 0.5323(16) 0.0853(10) 0.4085(13)
H49? H 0.4833 0.0569 0.4547
H50? H 0.6098 0.0915 0.4254
H51? H 0.5567 0.0487 0.3547
loop_
_geom_bond_atom_site_label_1
_geom_bond_atom_site_label_2
_geom_bond_site_symmetry_1
_geom_bond_site_symmetry_2
N1 C1 1_555 1_555
C1 H1 1_555 1_555
H2 C1 1_555 1_555
C2 C1 1_555 1_555
H3 C2 1_555 1_555
H4 C2 1_555 1_555
C3 C2 1_555 1_555
H5 C3 1_555 1_555
H6 C3 1_555 1_555
C4 C3 1_555 1_555
H7 C4 1_555 1_555
H8 C4 1_555 1_555
H9 C4 1_555 1_555
C5 N1 1_555 1_555
H10 C5 1_555 1_555
H11 C5 1_555 1_555
C6 C5 1_555 1_555
H12 C6 1_555 1_555
H13 C6 1_555 1_555
C7 C6 1_555 1_555
H14 C7 1_555 1_555
H15 C7 1_555 1_555
C8 C7 1_555 1_555
H16 C8 1_555 1_555
H17 C8 1_555 1_555
H18 C8 1_555 1_555
C9 N1 1_555 1_555
H19 C9 1_555 1_555
H20 C9 1_555 1_555
C10 C9 1_555 1_555
H21 C10 1_555 1_555
H22 C10 1_555 1_555
C13 C10 1_555 1_555
H29 C13 1_555 1_555
H30 C13 1_555 1_555
C14 C13 1_555 1_555
H31 C14 1_555 1_555
H32 C14 1_555 1_555
H33 C14 1_555 1_555
C15 N1 1_555 1_555
H34 C15 1_555 1_555
H35 C15 1_555 1_555
C16 C15 1_555 1_555
H36 C16 1_555 1_555
H37 C16 1_555 1_555
C17 C16 1_555 1_555
H38 C17 1_555 1_555
H39 C17 1_555 1_555
C18 C17 1_555 1_555
H40 C18 1_555 1_555
H41 C18 1_555 1_555
H42 C18 1_555 1_555
O1 C51 1_555 1_555
O2 C52 1_555 1_555
O3 C57 1_555 1_555
O4 C57 1_555 1_555
N2 H52 1_555 1_555
N3 H53 1_555 1_555
N4 H54 1_555 1_555
N5 H55 1_555 1_555
N6 H56 1_555 1_555
C23 N2 1_555 1_555
C24 C23 1_555 1_555
H57 C24 1_555 1_555
C25 C24 1_555 1_555
H58 C25 1_555 1_555
C26 N2 1_555 1_555
C27 C26 1_555 1_555
C28 N3 1_555 1_555
C29 C28 1_555 1_555
H59 C29 1_555 1_555
C30 C29 1_555 1_555
H60 C30 1_555 1_555
C31 N3 1_555 1_555
C32 C31 1_555 1_555
C33 N4 1_555 1_555
C34 C33 1_555 1_555
H61 C34 1_555 1_555
C35 C34 1_555 1_555
H62 C35 1_555 1_555
C36 N4 1_555 1_555
C37 C36 1_555 1_555
C38 N5 1_555 1_555
C39 C38 1_555 1_555
H63 C39 1_555 1_555
C40 C39 1_555 1_555
H64 C40 1_555 1_555
C41 N5 1_555 1_555
C42 C23 1_555 1_555
C43 C27 1_555 1_555
H65 C43 1_555 1_555
H66 C43 1_555 1_555
H67 C43 1_555 1_555
C44 C27 1_555 1_555
H68 C44 1_555 1_555
H69 C44 1_555 1_555
H70 C44 1_555 1_555
C45 C32 1_555 1_555
H71 C45 1_555 1_555
H72 C45 1_555 1_555
H73 C45 1_555 1_555
C46 C37 1_555 1_555
H74 C46 1_555 1_555
H75 C46 1_555 1_555
H76 C46 1_555 1_555
C47 C37 1_555 1_555
H77 C47 1_555 1_555
H78 C47 1_555 1_555
H79 C47 1_555 1_555
C48 C42 1_555 1_555
H80 C48 1_555 1_555
H81 C48 1_555 1_555
H82 C48 1_555 1_555
C49 C32 1_555 1_555
H83 C49 1_555 1_555
H84 C49 1_555 1_555
C50 C49 1_555 1_555
H85 C50 1_555 1_555
H86 C50 1_555 1_555
C51 C50 1_555 1_555
H87 C51 1_555 1_555
H88 C51 1_555 1_555
C52 O1 1_555 1_555
C53 N6 1_555 1_555
C54 C53 1_555 1_555
H89 C54 1_555 1_555
C55 C54 1_555 1_555
H90 C55 1_555 1_555
C56 N6 1_555 1_555
C57 C56 1_555 1_555
C58 O4 1_555 1_555
H91 C58 1_555 1_555
H92 C58 1_555 1_555
C59 C58 1_555 1_555
H93 C59 1_555 1_555
H94 C59 1_555 1_555
C60 C42 1_555 1_555
H95 C60 1_555 1_555
H96 C60 1_555 1_555
C25 C26 1_555 1_555
C27 C28 1_555 1_555
C30 C31 1_555 1_555
C32 C33 1_555 1_555
C35 C36 1_555 1_555
C37 C38 1_555 1_555
C40 C41 1_555 1_555
C41 C42 1_555 1_555
C52 C53 1_555 1_555
C55 C56 1_555 1_555
C59 C60 1_555 1_555

#END
