
#######################################################################
#
#                 Cambridge Crystallographic Data Centre
#                                CCDC 
#
#######################################################################
#
# If this CIF has been generated from an entry in the Cambridge 
# Structural Database, then it will include bibliographic, chemical, 
# crystal, experimental, refinement or atomic coordinate data resulting 
# from the CCDC's data processing and validation procedures.
#
#######################################################################

data_EFETUG
_chemical_formula_moiety         'C17 H13 F3 O2'
_chemical_name_systematic        
4-(4-hydroxyphenyl)-4-phenyl-3-(trifluoromethyl)but-3-enal
_symmetry_cell_setting           monoclinic
_symmetry_space_group_name_H-M   'P 21/c'
_symmetry_Int_Tables_number      14
_space_group_name_Hall           '-P 2ybc'
loop_
_symmetry_equiv_pos_site_id
_symmetry_equiv_pos_as_xyz
1 x,y,z
2 -x,1/2+y,1/2-z
3 -x,-y,-z
4 x,1/2-y,1/2+z
_cell_length_a                   7.7478(8)
_cell_length_b                   13.1137(15)
_cell_length_c                   14.0824(18)
_cell_angle_alpha                90
_cell_angle_beta                 91.674(11)
_cell_angle_gamma                90
_cell_volume                     1430.19
_exptl_crystal_colour            'light colorless'
_exptl_crystal_description       plate
_cell_formula_units_Z            4
loop_
_atom_site_label
_atom_site_type_symbol
_atom_site_fract_x
_atom_site_fract_y
_atom_site_fract_z
F1 F 0.4418(2) 0.97337(17) 0.09734(16)
F2 F 0.2865(3) 0.8543(2) 0.03856(15)
F3 F 0.4458(3) 0.82823(19) 0.16193(17)
O1 O -0.4238(3) 1.0960(2) 0.43319(17)
H1 H -0.3907 1.0995 0.4889
O2 O 0.3066(3) 0.8745(2) 0.37201(17)
C1 C 0.1549(4) 1.1173(3) 0.0383(2)
H2 H 0.1087 1.0626 0.0041
C2 C 0.1970(5) 1.2065(3) -0.0085(3)
H3 H 0.1791 1.2111 -0.0739
C3 C 0.2641(4) 1.2870(3) 0.0401(3)
H4 H 0.2916 1.3466 0.0081
C4 C 0.2917(4) 1.2808(3) 0.1369(3)
H5 H 0.3387 1.3358 0.1703
C5 C 0.2492(4) 1.1924(2) 0.1843(2)
H6 H 0.2666 1.1887 0.2498
C6 C 0.1811(3) 1.1093(2) 0.1354(2)
C7 C 0.1270(3) 1.0166(2) 0.18892(19)
C8 C -0.0178(3) 1.0370(2) 0.2553(2)
C9 C -0.1869(4) 1.0411(3) 0.2213(2)
H7 H -0.2108 1.0308 0.1569
C10 C -0.3217(4) 1.0605(3) 0.2816(2)
H8 H -0.4349 1.0622 0.2578
C11 C -0.2865(4) 1.0773(2) 0.3775(2)
C12 C -0.1188(4) 1.0759(2) 0.4116(2)
H9 H -0.0945 1.0897 0.4754
C13 C 0.0145(4) 1.0541(2) 0.3514(2)
H10 H 0.1272 1.0509 0.3757
C14 C 0.1929(4) 0.9237(2) 0.1817(2)
C15 C 0.1260(4) 0.8330(2) 0.2364(2)
H11 H 0.0024 0.8408 0.2426
H12 H 0.1449 0.7718 0.1994
C16 C 0.2060(5) 0.8181(3) 0.3331(3)
H13 H 0.1748 0.7598 0.3660
C17 C 0.3392(4) 0.8971(3) 0.1203(2)
loop_
_geom_bond_atom_site_label_1
_geom_bond_atom_site_label_2
_geom_bond_site_symmetry_1
_geom_bond_site_symmetry_2
F1 C17 1_555 1_555
F2 C17 1_555 1_555
F3 C17 1_555 1_555
O1 H1 1_555 1_555
O2 C16 1_555 1_555
C1 H2 1_555 1_555
C2 C1 1_555 1_555
H3 C2 1_555 1_555
C3 C2 1_555 1_555
H4 C3 1_555 1_555
C4 C3 1_555 1_555
H5 C4 1_555 1_555
C5 C4 1_555 1_555
H6 C5 1_555 1_555
C6 C1 1_555 1_555
C7 C6 1_555 1_555
C8 C7 1_555 1_555
C9 C8 1_555 1_555
H7 C9 1_555 1_555
C10 C9 1_555 1_555
H8 C10 1_555 1_555
C11 O1 1_555 1_555
C12 C11 1_555 1_555
H9 C12 1_555 1_555
C13 C8 1_555 1_555
H10 C13 1_555 1_555
C14 C7 1_555 1_555
C15 C14 1_555 1_555
H11 C15 1_555 1_555
H12 C15 1_555 1_555
C16 C15 1_555 1_555
H13 C16 1_555 1_555
C17 C14 1_555 1_555
C5 C6 1_555 1_555
C10 C11 1_555 1_555
C12 C13 1_555 1_555

#END
