
#######################################################################
#
#                 Cambridge Crystallographic Data Centre
#                                CCDC 
#
#######################################################################
#
# If this CIF has been generated from an entry in the Cambridge 
# Structural Database, then it will include bibliographic, chemical, 
# crystal, experimental, refinement or atomic coordinate data resulting 
# from the CCDC's data processing and validation procedures.
#
#######################################################################

data_EFICIG
_chemical_formula_moiety         'C14 H21 N1 O1'
_chemical_name_systematic        
(3R*,3aR*,7S*,7aR*)-7-Hydroxy-7-methyl-3-(prop-1-en-2-yl)-octahydro-1H-indene-3a-carbonitrile
_symmetry_cell_setting           orthorhombic
_symmetry_space_group_name_H-M   'P 21 21 21'
_symmetry_Int_Tables_number      19
_space_group_name_Hall           'P 2ac 2ab'
loop_
_symmetry_equiv_pos_site_id
_symmetry_equiv_pos_as_xyz
1 x,y,z
2 1/2-x,-y,1/2+z
3 -x,1/2+y,1/2-z
4 1/2+x,1/2-y,-z
_cell_length_a                   7.7254(5)
_cell_length_b                   11.2264(7)
_cell_length_c                   14.8580(9)
_cell_angle_alpha                90
_cell_angle_beta                 90
_cell_angle_gamma                90
_cell_volume                     1288.61
_exptl_crystal_colour            colorless
_exptl_crystal_description       cubic
_cell_formula_units_Z            4
loop_
_atom_site_label
_atom_site_type_symbol
_atom_site_fract_x
_atom_site_fract_y
_atom_site_fract_z
C1 C 0.8207(3) 0.6181(2) 0.86411(16)
C2 C 0.6170(3) 0.7889(2) 0.80576(17)
C3 C 0.7799(4) 0.5486(2) 0.77686(16)
H1 H 0.8796 0.5007 0.7605
H2 H 0.6837 0.4950 0.7878
O1 O 0.4623(3) 0.85107(15) 0.83077(15)
H3 H 0.3830 0.8032 0.8371
C4 C 0.9906(4) 0.6754(2) 0.85418(18)
C5 C 0.6763(3) 0.7093(2) 0.88494(16)
H4 H 0.7192 0.7620 0.9325
C6 C 0.5326(4) 0.6314(2) 0.92610(18)
H5 H 0.4689 0.6757 0.9713
H6 H 0.4524 0.6055 0.8798
C7 C 0.8168(4) 0.5383(2) 0.95026(18)
H7 H 0.8634 0.5869 0.9994
C8 C 0.9263(4) 0.4254(3) 0.94675(19)
C9 C 0.5838(4) 0.7120(2) 0.72178(17)
H8 H 0.4812 0.6639 0.7316
H9 H 0.5614 0.7638 0.6709
C10 C 0.7349(4) 0.6306(2) 0.69927(18)
H10 H 0.7058 0.5830 0.6469
H11 H 0.8352 0.6786 0.6843
C11 C 0.7468(4) 0.8871(2) 0.7857(2)
H12 H 0.7729 0.9296 0.8401
H13 H 0.6985 0.9412 0.7424
H14 H 0.8510 0.8527 0.7619
C12 C 0.6230(4) 0.5242(2) 0.9687(2)
H15 H 0.5804 0.4507 0.9424
H16 H 0.6014 0.5221 1.0330
N1 N 1.1232(4) 0.7184(2) 0.84687(18)
C13 C 1.1055(5) 0.4373(3) 0.9730(3)
H17 H 1.1604 0.3606 0.9712
H18 H 1.1118 0.4687 1.0330
H19 H 1.1634 0.4904 0.9323
C14 C 0.8615(5) 0.3191(3) 0.9226(2)
H20 H 0.9323 0.2521 0.9226
H21 H 0.7459 0.3125 0.9058
loop_
_geom_bond_atom_site_label_1
_geom_bond_atom_site_label_2
_geom_bond_site_symmetry_1
_geom_bond_site_symmetry_2
C1 C3 1_555 1_555
C2 O1 1_555 1_555
C3 H1 1_555 1_555
H2 C3 1_555 1_555
O1 H3 1_555 1_555
C4 C1 1_555 1_555
C5 C1 1_555 1_555
H4 C5 1_555 1_555
C6 C5 1_555 1_555
H5 C6 1_555 1_555
H6 C6 1_555 1_555
C7 C1 1_555 1_555
H7 C7 1_555 1_555
C8 C7 1_555 1_555
C9 C2 1_555 1_555
H8 C9 1_555 1_555
H9 C9 1_555 1_555
C10 C3 1_555 1_555
H10 C10 1_555 1_555
H11 C10 1_555 1_555
C11 C2 1_555 1_555
H12 C11 1_555 1_555
H13 C11 1_555 1_555
H14 C11 1_555 1_555
C12 C6 1_555 1_555
H15 C12 1_555 1_555
H16 C12 1_555 1_555
N1 C4 1_555 1_555
C13 C8 1_555 1_555
H17 C13 1_555 1_555
H18 C13 1_555 1_555
H19 C13 1_555 1_555
C14 C8 1_555 1_555
H20 C14 1_555 1_555
H21 C14 1_555 1_555
C2 C5 1_555 1_555
C7 C12 1_555 1_555
C9 C10 1_555 1_555

#END
