
#######################################################################
#
#                 Cambridge Crystallographic Data Centre
#                                CCDC 
#
#######################################################################
#
# If this CIF has been generated from an entry in the Cambridge 
# Structural Database, then it will include bibliographic, chemical, 
# crystal, experimental, refinement or atomic coordinate data resulting 
# from the CCDC's data processing and validation procedures.
#
#######################################################################

data_EFIDUS02
_chemical_formula_moiety         'C10 H14 N4,0.5(H2 O1)'
_chemical_name_systematic        
"3,5,3',5'-Tetramethyl-4,4'-bi-(1H-pyrazolyl) hemihydrate"
_symmetry_cell_setting           tetragonal
_symmetry_space_group_name_H-M   'I 41/a c d'
_symmetry_Int_Tables_number      142
_space_group_name_Hall           '-I 4bd 2c'
loop_
_symmetry_equiv_pos_site_id
_symmetry_equiv_pos_as_xyz
1 x,y,z
2 1/2-x,-y,1/2+z
3 1/4-y,3/4+x,1/4+z
4 1/4+y,1/4-x,3/4+z
5 1/2-x,y,-z
6 x,-y,1/2-z
7 1/4+y,3/4+x,3/4-z
8 1/4-y,1/4-x,1/4-z
9 1/2+x,1/2+y,1/2+z
10 -x,1/2-y,z
11 3/4-y,1/4+x,3/4+z
12 3/4+y,3/4-x,1/4+z
13 -x,1/2+y,1/2-z
14 1/2+x,1/2-y,-z
15 3/4+y,1/4+x,1/4-z
16 3/4-y,3/4-x,3/4-z
17 -x,-y,-z
18 1/2+x,y,1/2-z
19 3/4+y,1/4-x,3/4-z
20 3/4-y,3/4+x,1/4-z
21 1/2+x,-y,z
22 -x,y,1/2+z
23 3/4-y,1/4-x,1/4+z
24 3/4+y,3/4+x,3/4+z
25 1/2-x,1/2-y,1/2-z
26 x,1/2+y,-z
27 1/4+y,3/4-x,1/4-z
28 1/4-y,1/4+x,3/4-z
29 x,1/2-y,1/2+z
30 1/2-x,1/2+y,z
31 1/4-y,3/4-x,3/4+z
32 1/4+y,1/4+x,1/4+z
_cell_length_a                   24.9060(4)
_cell_length_b                   24.9060(4)
_cell_length_c                   14.9684(2)
_cell_angle_alpha                90
_cell_angle_beta                 90
_cell_angle_gamma                90
_cell_volume                     9285.03
_exptl_crystal_colour            colorless
_exptl_crystal_description       block
_cell_formula_units_Z            32
loop_
_atom_site_label
_atom_site_type_symbol
_atom_site_fract_x
_atom_site_fract_y
_atom_site_fract_z
N1 N 0.94307(8) 0.75779(9) 0.78322(15)
H1 H 0.9776(18) 0.747(2) 0.788(3)
N2 N 0.90490(9) 0.72523(9) 0.81759(15)
N3 N 0.77810(8) 0.89553(8) 0.65442(13)
H2 H 0.7666(10) 0.9167(10) 0.6112(17)
N4 N 0.76044(8) 0.90310(8) 0.73926(12)
C1 C 0.95234(11) 0.84574(12) 0.7094(2)
H3 H 0.9842 0.8510 0.7444
H4 H 0.9317 0.8783 0.7087
H5 H 0.9621 0.8363 0.6495
C2 C 0.91976(9) 0.80188(9) 0.74928(16)
C3 C 0.86404(8) 0.79798(9) 0.76267(14)
C4 C 0.85697(9) 0.74878(10) 0.80591(15)
C5 C 0.80618(11) 0.72243(11) 0.8364(2)
H6 H 0.8099 0.6842 0.8321
H7 H 0.7769 0.7341 0.7995
H8 H 0.7992 0.7322 0.8974
C6 C 0.84046(14) 0.84292(14) 0.56201(18)
H9 H 0.8343 0.8711 0.5195
H10 H 0.8246 0.8102 0.5406
H11 H 0.8784 0.8379 0.5697
C7 C 0.81576(9) 0.85775(9) 0.64938(14)
C8 C 0.82394(8) 0.83821(8) 0.73500(14)
C9 C 0.78832(9) 0.86804(9) 0.78872(15)
C10 C 0.77949(12) 0.86516(12) 0.88733(17)
H12 H 0.7599 0.8962 0.9066
H13 H 0.8135 0.8640 0.9173
H14 H 0.7594 0.8334 0.9014
O1 O 0.70458(8) 1.0000 0.7500
H15 H 0.7224(8) 0.9711(6) 0.7496(15)
H15E H 0.7224(8) 1.0289(6) 0.7504(15)
H16? H 0.915(2) 0.694(2) 0.843(4)
loop_
_geom_bond_atom_site_label_1
_geom_bond_atom_site_label_2
_geom_bond_site_symmetry_1
_geom_bond_site_symmetry_2
N1 H1 1_555 1_555
N2 N1 1_555 1_555
N3 H2 1_555 1_555
N4 N3 1_555 1_555
C1 H3 1_555 1_555
H4 C1 1_555 1_555
H5 C1 1_555 1_555
C2 N1 1_555 1_555
C3 C2 1_555 1_555
C4 N2 1_555 1_555
C5 C4 1_555 1_555
H6 C5 1_555 1_555
H7 C5 1_555 1_555
H8 C5 1_555 1_555
C6 H9 1_555 1_555
H10 C6 1_555 1_555
H11 C6 1_555 1_555
C7 N3 1_555 1_555
C8 C3 1_555 1_555
C9 N4 1_555 1_555
C10 C9 1_555 1_555
H12 C10 1_555 1_555
H13 C10 1_555 1_555
H14 C10 1_555 1_555
O1 H15 1_555 1_555
H15E O1 1_555 1_555
C1 C2 1_555 1_555
C3 C4 1_555 1_555
C6 C7 1_555 1_555
C7 C8 1_555 1_555
C8 C9 1_555 1_555

#END
