
#######################################################################
#
#                 Cambridge Crystallographic Data Centre
#                                CCDC 
#
#######################################################################
#
# If this CIF has been generated from an entry in the Cambridge 
# Structural Database, then it will include bibliographic, chemical, 
# crystal, experimental, refinement or atomic coordinate data resulting 
# from the CCDC's data processing and validation procedures.
#
#######################################################################

data_EFIDUS01
_chemical_formula_moiety         'C10 H14 N4,0.5(H2 O1)'
_chemical_name_systematic        
"3,3',5,5'-Tetramethyl-4,4'-bipyrazole hemihydrate"
_symmetry_cell_setting           tetragonal
_symmetry_space_group_name_H-M   'I 41/a c d'
_symmetry_Int_Tables_number      142
_space_group_name_Hall           '-I 4bd 2c'
loop_
_symmetry_equiv_pos_site_id
_symmetry_equiv_pos_as_xyz
1 x,y,z
2 1/4-y,3/4+x,1/4+z
3 1/4+y,1/4-x,3/4+z
4 1/4+y,3/4+x,3/4-z
5 1/4-y,1/4-x,1/4-z
6 1/2+x,1/2+y,1/2+z
7 3/4-y,1/4+x,3/4+z
8 3/4+y,3/4-x,1/4+z
9 3/4+y,1/4+x,1/4-z
10 1/2-x,-y,1/2+z
11 1/2-x,y,-z
12 x,-y,1/2-z
13 -x,1/2-y,z
14 -x,1/2+y,1/2-z
15 1/2+x,1/2-y,-z
16 3/4-y,3/4-x,3/4-z
17 -x,-y,-z
18 3/4+y,1/4-x,3/4-z
19 3/4-y,3/4+x,1/4-z
20 3/4-y,1/4-x,1/4+z
21 3/4+y,3/4+x,3/4+z
22 1/2-x,1/2-y,1/2-z
23 1/4+y,3/4-x,1/4-z
24 1/4-y,1/4+x,3/4-z
25 1/4-y,3/4-x,3/4+z
26 1/2+x,y,1/2-z
27 1/2+x,-y,z
28 -x,y,1/2+z
29 x,1/2+y,-z
30 x,1/2-y,1/2+z
31 1/2-x,1/2+y,z
32 1/4+y,1/4+x,1/4+z
_cell_length_a                   24.8649(6)
_cell_length_b                   24.8649(6)
_cell_length_c                   14.9468(7)
_cell_angle_alpha                90
_cell_angle_beta                 90
_cell_angle_gamma                90
_cell_volume                     9241.06
_exptl_crystal_colour            colorless
_exptl_crystal_description       block
_cell_formula_units_Z            32
loop_
_atom_site_label
_atom_site_type_symbol
_atom_site_fract_x
_atom_site_fract_y
_atom_site_fract_z
C1 C 0.91177(7) 0.92594(7) 0.01492(12)
N1 N 0.85441(6) 0.97207(7) 0.09552(11)
H1 H 0.8367 0.9839 0.1409
N2 N 0.84699(7) 0.98954(7) 0.01095(11)
C2 C 0.88187(8) 0.96181(7) -0.03870(13)
C3 C 0.95194(7) 0.88580(7) -0.01287(12)
C4 C 0.89236(8) 0.93427(8) 0.10062(13)
C5 C 0.94810(8) 0.83021(7) 0.00022(14)
N3 N 0.99206(8) 0.80722(7) -0.03313(13)
H2 H 0.9986 0.7733 -0.0326
N4 N 1.02487(8) 0.84501(7) -0.06781(13)
C6 C 1.00125(8) 0.89295(7) -0.05579(14)
C7 C 0.90411(11) 0.79763(9) 0.0410(2)
H3 H 0.8974 0.7665 0.0045
H4 H 0.8720 0.8190 0.0447
H5 H 0.9146 0.7864 0.0999
C8 C 0.88453(11) 0.97047(11) -0.13751(16)
H6 H 0.8543 0.9917 -0.1563
H7 H 0.8837 0.9363 -0.1675
H8 H 0.9173 0.9889 -0.1522
C9 C 0.90712(13) 0.90978(13) 0.18801(16)
H9 H 0.9448 0.9151 0.1989
H10 H 0.8994 0.8720 0.1867
H11 H 0.8867 0.9265 0.2349
C10 C 1.02775(11) 0.94375(10) -0.0861(2)
H12 H 1.0659 0.9382 -0.0900
H13 H 1.0204 0.9719 -0.0439
H14 H 1.0140 0.9537 -0.1438
O1 O 0.79516(7) 1.0000 0.2500
H15 H 0.8001 0.9913 0.3044
H15K H 0.8001 1.0087 0.1956
H16? H 0.7642 0.9895 0.2334
loop_
_geom_bond_atom_site_label_1
_geom_bond_atom_site_label_2
_geom_bond_site_symmetry_1
_geom_bond_site_symmetry_2
C1 C2 1_555 1_555
N1 H1 1_555 1_555
N2 N1 1_555 1_555
C2 N2 1_555 1_555
C3 C1 1_555 1_555
C4 C1 1_555 1_555
C5 C3 1_555 1_555
N3 C5 1_555 1_555
H2 N3 1_555 1_555
N4 N3 1_555 1_555
C6 C3 1_555 1_555
C7 C5 1_555 1_555
H3 C7 1_555 1_555
H4 C7 1_555 1_555
H5 C7 1_555 1_555
C8 C2 1_555 1_555
H6 C8 1_555 1_555
H7 C8 1_555 1_555
H8 C8 1_555 1_555
C9 C4 1_555 1_555
H9 C9 1_555 1_555
H10 C9 1_555 1_555
H11 C9 1_555 1_555
C10 C6 1_555 1_555
H12 C10 1_555 1_555
H13 C10 1_555 1_555
H14 C10 1_555 1_555
O1 H15 1_555 1_555
H15K O1 1_555 1_555
N1 C4 1_555 1_555
N4 C6 1_555 1_555

#END
