
#######################################################################
#
#                 Cambridge Crystallographic Data Centre
#                                CCDC 
#
#######################################################################
#
# If this CIF has been generated from an entry in the Cambridge 
# Structural Database, then it will include bibliographic, chemical, 
# crystal, experimental, refinement or atomic coordinate data resulting 
# from the CCDC's data processing and validation procedures.
#
#######################################################################

data_EFIVOG
_chemical_formula_moiety         'C16 H15 Cl1 N2 O2'
_chemical_name_systematic        
'ethyl 3-(2-(4-chlorophenyl)ethyl)-4-cyano-1H-pyrrole-2-carboxylate'
_symmetry_cell_setting           monoclinic
_symmetry_space_group_name_H-M   'P 21/c'
_symmetry_Int_Tables_number      14
_space_group_name_Hall           '-P 2ybc'
loop_
_symmetry_equiv_pos_site_id
_symmetry_equiv_pos_as_xyz
1 x,y,z
2 -x,1/2+y,1/2-z
3 -x,-y,-z
4 x,1/2-y,1/2+z
_cell_length_a                   13.476(5)
_cell_length_b                   6.865(3)
_cell_length_c                   17.826(7)
_cell_angle_alpha                90
_cell_angle_beta                 104.273(7)
_cell_angle_gamma                90
_cell_volume                     1598.23
_cell_formula_units_Z            4
loop_
_atom_site_label
_atom_site_type_symbol
_atom_site_fract_x
_atom_site_fract_y
_atom_site_fract_z
Cl1 Cl 1.04699(13) 0.8854(3) 0.13517(10)
C1 C 0.9638(3) 0.6934(7) 0.1033(3)
C2 C 0.9137(4) 0.6804(7) 0.0267(3)
H1 H 0.9245 0.7732 -0.0085
C3 C 0.8485(4) 0.5311(9) 0.0030(3)
H2 H 0.8135 0.5218 -0.0488
C4 C 0.9488(4) 0.5592(8) 0.1552(3)
H3 H 0.9829 0.5695 0.2072
C5 C 0.8835(6) 0.4100(9) 0.1299(3)
H4 H 0.8727 0.3171 0.1650
C6 C 0.8335(6) 0.3941(10) 0.0541(4)
O1 O 0.6845(3) -0.1537(5) 0.13146(18)
O2 O 0.5739(3) -0.3963(5) 0.08853(18)
N1 N 0.5456(3) -0.2637(6) -0.0615(2)
C7 C 0.6085(3) -0.1695(7) 0.0001(2)
C8 C 0.5417(4) -0.1651(8) -0.1263(3)
H5 H 0.5038 -0.1991 -0.1756
C9 C 0.6197(4) -0.2527(8) 0.0765(3)
C10 C 0.6443(4) -0.0075(9) -0.0277(3)
C11 C 0.6029(4) -0.0055(8) -0.1080(3)
C12 C 0.7868(5) -0.1301(11) 0.2589(3)
H6 H 0.8456 -0.1540 0.2389
H7 H 0.7993 -0.1792 0.3108
H8 H 0.7739 0.0074 0.2589
C13 C 0.6978(5) -0.2284(10) 0.2103(3)
H9 H 0.6373 -0.2016 0.2289
H10 H 0.7088 -0.3681 0.2113
N2 N 0.6315(6) 0.2534(12) -0.2027(4)
C14 C 0.6196(5) 0.1361(11) -0.1607(4)
H11 H 0.507(3) -0.381(7) -0.059(2)
C15 C 0.7796(6) 0.1405(10) 0.0154(4)
H12 H 0.7815 0.1120 -0.0376
H13 H 0.8029 0.0318 0.0500
C16 C 0.6974(4) 0.2257(12) 0.0235(4)
H14 H 0.6789 0.3444 -0.0062
H15 H 0.6912 0.2384 0.0763
loop_
_geom_bond_atom_site_label_1
_geom_bond_atom_site_label_2
_geom_bond_site_symmetry_1
_geom_bond_site_symmetry_2
Cl1 C1 1_555 1_555
C1 C2 1_555 1_555
C2 H1 1_555 1_555
C3 C2 1_555 1_555
H2 C3 1_555 1_555
C4 C1 1_555 1_555
H3 C4 1_555 1_555
C5 C4 1_555 1_555
H4 C5 1_555 1_555
C6 C3 1_555 1_555
O1 C9 1_555 1_555
O2 C9 1_555 1_555
N1 C7 1_555 1_555
C7 C9 1_555 1_555
C8 N1 1_555 1_555
H5 C8 1_555 1_555
C10 C7 1_555 1_555
C11 C8 1_555 1_555
C12 H6 1_555 1_555
H7 C12 1_555 1_555
H8 C12 1_555 1_555
C13 O1 1_555 1_555
H9 C13 1_555 1_555
H10 C13 1_555 1_555
N2 C14 1_555 1_555
C14 C11 1_555 1_555
H11 N1 1_555 1_555
C15 C6 1_555 1_555
H12 C15 1_555 1_555
H13 C15 1_555 1_555
C16 C10 1_555 1_555
H14 C16 1_555 1_555
H15 C16 1_555 1_555
C5 C6 1_555 1_555
C10 C11 1_555 1_555
C12 C13 1_555 1_555
C15 C16 1_555 1_555

#END
