
#######################################################################
#
#                 Cambridge Crystallographic Data Centre
#                                CCDC 
#
#######################################################################
#
# If this CIF has been generated from an entry in the Cambridge 
# Structural Database, then it will include bibliographic, chemical, 
# crystal, experimental, refinement or atomic coordinate data resulting 
# from the CCDC's data processing and validation procedures.
#
#######################################################################

data_EFIZEA
_chemical_formula_moiety         'C26 H14 S6'
_chemical_name_systematic        
2,2'-(1,4-phenylenediethene-2,1-diyl)bis(bisthieno[2,3-b:3',2'-d]thiophene)
_symmetry_cell_setting           monoclinic
_symmetry_space_group_name_H-M   'P 21/c'
_symmetry_Int_Tables_number      14
_space_group_name_Hall           '-P 2ybc'
loop_
_symmetry_equiv_pos_site_id
_symmetry_equiv_pos_as_xyz
1 x,y,z
2 -x,1/2+y,1/2-z
3 -x,-y,-z
4 x,1/2-y,1/2+z
_cell_length_a                   24.96(2)
_cell_length_b                   7.627(7)
_cell_length_c                   5.820(5)
_cell_angle_alpha                90
_cell_angle_beta                 93.456(18)
_cell_angle_gamma                90
_cell_volume                     1105.94
_cell_formula_units_Z            2
loop_
_atom_site_label
_atom_site_type_symbol
_atom_site_fract_x
_atom_site_fract_y
_atom_site_fract_z
S1 S 0.30009(17) 0.4319(6) 0.0271(8)
S2 S 0.06615(18) 0.4553(7) -0.0132(9)
S3 S 0.18373(16) 0.3888(6) 0.1933(8)
C1 C 0.1344(6) 0.464(2) -0.002(3)
C2 C 0.2115(5) 0.538(2) -0.193(3)
C3 C 0.1537(5) 0.541(2) -0.200(3)
C4 C 0.3032(6) 0.531(2) -0.243(3)
C5 C 0.2320(6) 0.455(2) 0.013(3)
C6 C 0.2533(6) 0.584(2) -0.331(3)
H1 H 0.2480 0.6453 -0.4686
C7 C 0.1110(6) 0.594(2) -0.357(3)
H2 H 0.1155 0.6464 -0.4988
C8 C 0.3992(7) 0.480(2) -0.288(3)
H3 H 0.3995 0.4163 -0.1520
C9 C 0.4967(6) 0.414(2) -0.293(3)
H4 H 0.4948 0.3555 -0.1537
C10 C 0.4501(6) 0.490(2) -0.397(3)
C11 C 0.5454(7) 0.426(2) -0.392(3)
H5 H 0.5757 0.3767 -0.3177
C12 C 0.3533(6) 0.548(2) -0.357(3)
H6 H 0.3524 0.6145 -0.4918
C13 C 0.0629(7) 0.557(2) -0.274(3)
H7 H 0.0305 0.5853 -0.3532
S1B S 0.69991(17) 0.5681(6) -1.0271(8)
S2B S 0.93385(18) 0.5447(7) -0.9868(9)
S3B S 0.81627(16) 0.6112(6) -1.1933(8)
C1B C 0.8656(6) 0.536(2) -0.998(3)
C2B C 0.7885(5) 0.462(2) -0.807(3)
C3B C 0.8463(5) 0.459(2) -0.800(3)
C4B C 0.6968(6) 0.469(2) -0.757(3)
C5B C 0.7680(6) 0.545(2) -1.013(3)
C6B C 0.7467(6) 0.416(2) -0.669(3)
H1B H 0.7520 0.3547 -0.5314
C7B C 0.8890(6) 0.406(2) -0.643(3)
H2B H 0.8845 0.3536 -0.5012
C8B C 0.6008(7) 0.520(2) -0.712(3)
H3B H 0.6005 0.5837 -0.8480
C9B C 0.5033(6) 0.586(2) -0.707(3)
H4B H 0.5052 0.6445 -0.8463
C10B C 0.5499(6) 0.510(2) -0.603(3)
C11B C 0.4546(7) 0.574(2) -0.608(3)
H5B H 0.4243 0.6233 -0.6823
C12B C 0.6467(6) 0.452(2) -0.643(3)
H6B H 0.6476 0.3855 -0.5082
C13B C 0.9371(7) 0.443(2) -0.726(3)
H7B H 0.9695 0.4147 -0.6468
loop_
_geom_bond_atom_site_label_1
_geom_bond_atom_site_label_2
_geom_bond_site_symmetry_1
_geom_bond_site_symmetry_2
S1 C4 1_555 1_555
S2 C1 1_555 1_555
S3 C1 1_555 1_555
C1 C3 1_555 1_555
C2 C3 1_555 1_555
C3 C7 1_555 1_555
C4 C6 1_555 1_555
C5 S1 1_555 1_555
C6 C2 1_555 1_555
H1 C6 1_555 1_555
C7 H2 1_555 1_555
C8 H3 1_555 1_555
C9 H4 1_555 1_555
C10 C8 1_555 1_555
C11 C9 1_555 1_555
H5 C11 1_555 1_555
C12 C4 1_555 1_555
H6 C12 1_555 1_555
C13 S2 1_555 1_555
H7 C13 1_555 1_555
S1B C4B 1_555 1_555
S2B C1B 1_555 1_555
S3B C1B 1_555 1_555
C1B C3B 1_555 1_555
C2B C3B 1_555 1_555
C3B C7B 1_555 1_555
C4B C6B 1_555 1_555
C5B S1B 1_555 1_555
C6B C2B 1_555 1_555
H1B C6B 1_555 1_555
C7B H2B 1_555 1_555
C8B H3B 1_555 1_555
C9B H4B 1_555 1_555
C10B C11 1_555 1_555
C11B C10 1_555 1_555
H5B C11B 1_555 1_555
C12B C4B 1_555 1_555
H6B C12B 1_555 1_555
C13B S2B 1_555 1_555
H7B C13B 1_555 1_555
S3 C5 1_555 1_555
C2 C5 1_555 1_555
C7 C13 1_555 1_555
C8 C12 1_555 1_555
C9 C10 1_555 1_555
S3B C5B 1_555 1_555
C2B C5B 1_555 1_555
C7B C13B 1_555 1_555
C8B C10B 1_555 1_555
C8B C12B 1_555 1_555
C9B C10B 1_555 1_555
C9B C11B 1_555 1_555

#END
