
#######################################################################
#
#                 Cambridge Crystallographic Data Centre
#                                CCDC 
#
#######################################################################
#
# If this CIF has been generated from an entry in the Cambridge 
# Structural Database, then it will include bibliographic, chemical, 
# crystal, experimental, refinement or atomic coordinate data resulting 
# from the CCDC's data processing and validation procedures.
#
#######################################################################

data_EFOGUD
_chemical_formula_moiety         'C24 H16 Cl2 N4,2(H2 O1),2(C2 H6 O1 S1)'
_chemical_name_systematic        
"2,2'-(1,4-phenylene)bis(4-(4-chlorophenyl)-1H-imidazole) dimethyl sulfoxide solvate dihydrate"
_symmetry_cell_setting           monoclinic
_symmetry_space_group_name_H-M   'P 21/c'
_symmetry_Int_Tables_number      14
_space_group_name_Hall           '-P 2ybc'
loop_
_symmetry_equiv_pos_site_id
_symmetry_equiv_pos_as_xyz
1 x,y,z
2 -x,1/2+y,1/2-z
3 -x,-y,-z
4 x,1/2-y,1/2+z
_cell_length_a                   12.188(2)
_cell_length_b                   11.735(2)
_cell_length_c                   11.260(2)
_cell_angle_alpha                90
_cell_angle_beta                 107.88(3)
_cell_angle_gamma                90
_cell_volume                     1532.69
_exptl_crystal_colour            'light yellow'
_exptl_crystal_description       plate
_cell_formula_units_Z            2
loop_
_atom_site_label
_atom_site_type_symbol
_atom_site_fract_x
_atom_site_fract_y
_atom_site_fract_z
C1 C 0.2078(3) 0.4290(3) 1.1332(3)
C2 C 0.3078(3) 0.3675(3) 1.1710(3)
H1 H 0.3303 0.3318 1.2484
C3 C 0.3749(3) 0.3593(3) 1.0920(3)
H2 H 0.4434 0.3181 1.1176
C4 C 0.3424(2) 0.4112(2) 0.9752(3)
C5 C 0.2402(3) 0.4722(3) 0.9399(3)
H3 H 0.2164 0.5073 0.8621
C6 C 0.1730(3) 0.4818(3) 1.0184(3)
H4 H 0.1049 0.5235 0.9939
C7 C 0.4143(2) 0.3984(2) 0.8925(2)
C8 C 0.5063(3) 0.3287(2) 0.9078(3)
H5 H 0.5376 0.2795 0.9745
C9 C 0.4746(2) 0.4222(2) 0.7327(2)
C10 C 0.4878(2) 0.4613(2) 0.6139(2)
C11 C 0.5897(2) 0.4435(2) 0.5849(2)
H6 H 0.6507 0.4055 0.6413
C12 C 0.6012(2) 0.4819(3) 0.4728(2)
H7 H 0.6701 0.4693 0.4554
Cl1 Cl 0.12113(8) 0.43571(9) 1.23116(8)
N1 N 0.5440(2) 0.34434(19) 0.8070(2)
H8 H 0.6017 0.3107 0.7933
N2 N 0.39374(18) 0.45783(19) 0.78126(19)
C1B C 0.7922(3) 0.5710(3) -0.1332(3)
C2B C 0.6922(3) 0.6325(3) -0.1710(3)
H1B H 0.6697 0.6682 -0.2484
C3B C 0.6251(3) 0.6407(3) -0.0920(3)
H2B H 0.5566 0.6819 -0.1176
C4B C 0.6576(2) 0.5888(2) 0.0248(3)
C5B C 0.7598(3) 0.5278(3) 0.0601(3)
H3B H 0.7836 0.4927 0.1379
C6B C 0.8270(3) 0.5182(3) -0.0184(3)
H4B H 0.8951 0.4765 0.0061
C7B C 0.5857(2) 0.6016(2) 0.1075(2)
C8B C 0.4937(3) 0.6713(2) 0.0922(3)
H5B H 0.4624 0.7205 0.0255
C9B C 0.5254(2) 0.5778(2) 0.2673(2)
C10B C 0.5122(2) 0.5387(2) 0.3861(2)
C11B C 0.4103(2) 0.5565(2) 0.4151(2)
H6B H 0.3493 0.5945 0.3587
C12B C 0.3988(2) 0.5181(3) 0.5272(2)
H7B H 0.3299 0.5307 0.5446
Cl1B Cl 0.87887(8) 0.56429(9) -0.23116(8)
N1B N 0.4560(2) 0.65566(19) 0.1930(2)
H8B H 0.3983 0.6893 0.2067
N2B N 0.60626(18) 0.54217(19) 0.21874(19)
C13 C 0.8967(5) 0.2956(4) 0.5915(4)
H9 H 0.8853 0.3753 0.6033
H10 H 0.9329 0.2605 0.6708
H11 H 0.8234 0.2601 0.5528
C14 C 1.1046(4) 0.3594(4) 0.5797(5)
H12 H 1.1637 0.3547 0.5398
H13 H 1.1336 0.3300 0.6631
H14 H 1.0822 0.4375 0.5827
O1 O 0.9282(2) 0.3469(2) 0.3797(2)
S1 S 0.98503(8) 0.27934(8) 0.49525(9)
O2 O 0.3046(3) 0.6889(2) 0.7472(3)
H15 H 0.239(4) 0.683(4) 0.707(4)
H16 H 0.331(4) 0.622(4) 0.758(4)
loop_
_geom_bond_atom_site_label_1
_geom_bond_atom_site_label_2
_geom_bond_site_symmetry_1
_geom_bond_site_symmetry_2
C1 C2 1_555 1_555
C2 H1 1_555 1_555
C3 C2 1_555 1_555
H2 C3 1_555 1_555
C4 C3 1_555 1_555
C5 C4 1_555 1_555
H3 C5 1_555 1_555
C6 C1 1_555 1_555
H4 C6 1_555 1_555
C7 C4 1_555 1_555
C8 C7 1_555 1_555
H5 C8 1_555 1_555
C9 C10 1_555 1_555
C10 C11 1_555 1_555
C11 H6 1_555 1_555
C12 C11 1_555 1_555
H7 C12 1_555 1_555
Cl1 C1 1_555 1_555
N1 C8 1_555 1_555
H8 N1 1_555 1_555
N2 C7 1_555 1_555
C13 H9 1_555 1_555
H10 C13 1_555 1_555
H11 C13 1_555 1_555
C14 H12 1_555 1_555
H13 C14 1_555 1_555
H14 C14 1_555 1_555
O1 S1 1_555 1_555
S1 C13 1_555 1_555
O2 H15 1_555 1_555
H16 O2 1_555 1_555
C1B C2B 1_555 1_555
C2B H1B 1_555 1_555
C3B C2B 1_555 1_555
H2B C3B 1_555 1_555
C4B C3B 1_555 1_555
C5B C4B 1_555 1_555
H3B C5B 1_555 1_555
C6B C1B 1_555 1_555
H4B C6B 1_555 1_555
C7B C4B 1_555 1_555
C8B C7B 1_555 1_555
H5B C8B 1_555 1_555
C9B C10B 1_555 1_555
C10B C12 1_555 1_555
C11B C10B 1_555 1_555
H6B C11B 1_555 1_555
C12B C10 1_555 1_555
H7B C12B 1_555 1_555
Cl1B C1B 1_555 1_555
N1B C8B 1_555 1_555
H8B N1B 1_555 1_555
N2B C7B 1_555 1_555
C5 C6 1_555 1_555
C9 N1 1_555 1_555
C9 N2 1_555 1_555
C14 S1 1_555 1_555
C5B C6B 1_555 1_555
C9B N1B 1_555 1_555
C9B N2B 1_555 1_555
C11B C12B 1_555 1_555

#END
