
#######################################################################
#
#                 Cambridge Crystallographic Data Centre
#                                CCDC 
#
#######################################################################
#
# If this CIF has been generated from an entry in the Cambridge 
# Structural Database, then it will include bibliographic, chemical, 
# crystal, experimental, refinement or atomic coordinate data resulting 
# from the CCDC's data processing and validation procedures.
#
#######################################################################

data_EFOWED
_chemical_formula_moiety         'C14 H19 N1 O2'
_chemical_name_systematic        
1-(4-methylphenyl)-2-(morpholin-4-yl)propan-1-one
_symmetry_cell_setting           monoclinic
_symmetry_space_group_name_H-M   'P 21/c'
_symmetry_Int_Tables_number      14
_space_group_name_Hall           '-P 2ybc'
loop_
_symmetry_equiv_pos_site_id
_symmetry_equiv_pos_as_xyz
1 x,y,z
2 -x,1/2+y,1/2-z
3 -x,-y,-z
4 x,1/2-y,1/2+z
_cell_length_a                   14.4443(15)
_cell_length_b                   6.1524(6)
_cell_length_c                   14.5492(15)
_cell_angle_alpha                90
_cell_angle_beta                 98.2260(10)
_cell_angle_gamma                90
_cell_volume                     1279.64
_cell_formula_units_Z            4
loop_
_atom_site_label
_atom_site_type_symbol
_atom_site_fract_x
_atom_site_fract_y
_atom_site_fract_z
N1 N 0.66948(10) 0.2107(2) 0.61108(9)
O1 O 0.65306(10) 0.2873(2) 0.41748(9)
O2 O 0.69289(11) -0.1873(2) 0.76157(10)
C1 C 0.63876(12) 0.1565(3) 0.70064(12)
H1 H 0.6408 0.2912 0.7368
C2 C 0.66104(14) 0.0326(3) 0.54439(12)
H2 H 0.5958 -0.0077 0.5284
H3 H 0.6950 -0.0931 0.5717
C3 C 0.80628(13) 0.0881(3) 0.78926(12)
C4 C 0.86801(15) -0.0508(3) 0.84179(14)
H4 H 0.8496 -0.1921 0.8529
C5 C 0.66258(15) 0.4612(3) 0.48193(13)
H5 H 0.6304 0.5881 0.4536
H6 H 0.7283 0.4975 0.4978
C6 C 0.62299(14) 0.4036(3) 0.56883(13)
H7 H 0.6319 0.5239 0.6123
H8 H 0.5564 0.3764 0.5539
C7 C 0.83570(14) 0.2979(3) 0.77485(14)
H9 H 0.7953 0.3946 0.7402
C8 C 0.70005(16) 0.1016(3) 0.45820(14)
H10 H 0.7662 0.1337 0.4740
H11 H 0.6936 -0.0168 0.4137
C9 C 0.98634(14) 0.2266(4) 0.86355(15)
C10 C 0.71152(14) 0.0038(3) 0.75200(12)
C11 C 0.54055(13) 0.0649(3) 0.69614(15)
H12 H 0.4964 0.1658 0.6645
H13 H 0.5267 0.0416 0.7580
H14 H 0.5365 -0.0707 0.6631
C12 C 0.92462(15) 0.3646(3) 0.81155(14)
H15 H 0.9432 0.5060 0.8009
C13 C 0.95615(16) 0.0178(4) 0.87757(15)
H16 H 0.9967 -0.0788 0.9122
C14 C 1.08370(16) 0.3000(5) 0.90259(19)
H17 H 1.0920 0.4488 0.8857
H18 H 1.1288 0.2107 0.8779
H19 H 1.0922 0.2872 0.9690
loop_
_geom_bond_atom_site_label_1
_geom_bond_atom_site_label_2
_geom_bond_site_symmetry_1
_geom_bond_site_symmetry_2
N1 C1 1_555 1_555
O1 C5 1_555 1_555
O2 C10 1_555 1_555
C1 H1 1_555 1_555
C2 N1 1_555 1_555
H2 C2 1_555 1_555
H3 C2 1_555 1_555
C3 C4 1_555 1_555
C4 H4 1_555 1_555
C5 H5 1_555 1_555
H6 C5 1_555 1_555
C6 N1 1_555 1_555
H7 C6 1_555 1_555
H8 C6 1_555 1_555
C7 C3 1_555 1_555
H9 C7 1_555 1_555
C8 O1 1_555 1_555
H10 C8 1_555 1_555
H11 C8 1_555 1_555
C9 C12 1_555 1_555
C10 C1 1_555 1_555
C11 C1 1_555 1_555
H12 C11 1_555 1_555
H13 C11 1_555 1_555
H14 C11 1_555 1_555
C12 C7 1_555 1_555
H15 C12 1_555 1_555
C13 C4 1_555 1_555
H16 C13 1_555 1_555
C14 C9 1_555 1_555
H17 C14 1_555 1_555
H18 C14 1_555 1_555
H19 C14 1_555 1_555
C2 C8 1_555 1_555
C3 C10 1_555 1_555
C5 C6 1_555 1_555
C9 C13 1_555 1_555

#END
