
#######################################################################
#
#                 Cambridge Crystallographic Data Centre
#                                CCDC 
#
#######################################################################
#
# If this CIF has been generated from an entry in the Cambridge 
# Structural Database, then it will include bibliographic, chemical, 
# crystal, experimental, refinement or atomic coordinate data resulting 
# from the CCDC's data processing and validation procedures.
#
#######################################################################

data_EFUPOL
_chemical_formula_moiety         'C20 H27 B1 N2'
_chemical_name_systematic        1-t-Butyl-N,N-diphenyl-1,2-azaborinan-2-amine
_symmetry_cell_setting           monoclinic
_symmetry_space_group_name_H-M   'P 21/n'
_symmetry_Int_Tables_number      14
_space_group_name_Hall           '-P 2yn'
loop_
_symmetry_equiv_pos_site_id
_symmetry_equiv_pos_as_xyz
1 x,y,z
2 1/2-x,1/2+y,1/2-z
3 -x,-y,-z
4 1/2+x,1/2-y,1/2+z
_cell_length_a                   9.6233(8)
_cell_length_b                   16.3666(13)
_cell_length_c                   11.5544(9)
_cell_angle_alpha                90
_cell_angle_beta                 96.654(2)
_cell_angle_gamma                90
_cell_volume                     1807.57
_exptl_crystal_colour            colorless
_exptl_crystal_description       block
_cell_formula_units_Z            4
loop_
_atom_site_label
_atom_site_type_symbol
_atom_site_fract_x
_atom_site_fract_y
_atom_site_fract_z
N1 N 0.15929(13) 0.21639(8) 0.89210(12)
N2 N -0.09851(14) 0.25233(8) 0.88593(12)
B1 B 0.0484(2) 0.27167(12) 0.86752(16)
C1 C 0.2892(2) 0.23039(13) 0.8380(2)
C2 C 0.2712(3) 0.28862(14) 0.7363(2)
C3 C 0.2167(2) 0.37014(13) 0.7728(2)
C4 C 0.0731(2) 0.35778(12) 0.8107(2)
C5 C 0.16775(18) 0.14217(10) 0.96990(15)
C6 C 0.3126(3) 0.13773(16) 1.0400(3)
C7 C 0.1418(3) 0.06414(12) 0.8982(2)
C8 C 0.0640(3) 0.14737(15) 1.05971(19)
C9 C -0.16912(16) 0.18519(10) 0.82763(15)
C10 C -0.13231(19) 0.15927(11) 0.72049(16)
C11 C -0.1970(2) 0.09222(12) 0.66415(18)
C12 C -0.3004(2) 0.05042(12) 0.7121(2)
C13 C -0.3393(2) 0.07622(12) 0.8171(2)
C14 C -0.27419(19) 0.14266(11) 0.87549(19)
C15 C -0.17659(17) 0.31077(10) 0.94160(15)
C16 C -0.31784(18) 0.32605(11) 0.90665(17)
C17 C -0.3896(2) 0.38329(12) 0.96484(18)
C18 C -0.3228(2) 0.42759(11) 1.05713(18)
C19 C -0.1823(2) 0.41444(11) 1.09023(17)
C20 C -0.11010(19) 0.35606(10) 1.03424(16)
H1 H 0.363(2) 0.2526(13) 0.8989(18)
H2 H 0.3222(19) 0.1780(12) 0.8122(16)
H3 H 0.362(2) 0.2937(13) 0.7072(19)
H4 H 0.202(2) 0.2649(14) 0.671(2)
H5 H 0.280(3) 0.3910(15) 0.843(2)
H6 H 0.216(2) 0.4114(15) 0.710(2)
H7 H 0.051(2) 0.4030(15) 0.865(2)
H8 H 0.005(3) 0.3646(15) 0.744(2)
H9 H 0.335(2) 0.1895(16) 1.084(2)
H10 H 0.386(3) 0.1280(14) 0.987(2)
H11 H 0.312(2) 0.0906(16) 1.095(2)
H12 H 0.156(2) 0.0138(14) 0.9496(18)
H13 H 0.207(2) 0.0607(13) 0.8372(19)
H14 H 0.043(2) 0.0606(12) 0.8563(18)
H15 H 0.081(2) 0.2006(15) 1.1021(19)
H16 H -0.034(3) 0.1452(14) 1.024(2)
H17 H 0.086(2) 0.1000(13) 1.1165(18)
H18 H -0.0586(19) 0.1883(11) 0.6867(15)
H19 H -0.167(2) 0.0748(12) 0.5893(17)
H20 H -0.3463(19) 0.0037(12) 0.6712(17)
H21 H -0.412(2) 0.0486(12) 0.8521(16)
H22 H -0.2991(19) 0.1586(11) 0.9522(17)
H23 H -0.3666(19) 0.2955(12) 0.8413(16)
H24 H -0.488(2) 0.3924(12) 0.9400(17)
H25 H -0.3749(19) 0.4667(12) 1.0969(15)
H26 H -0.1334(19) 0.4467(12) 1.1551(16)
H27 H -0.0124(18) 0.3465(10) 1.0590(14)
loop_
_geom_bond_atom_site_label_1
_geom_bond_atom_site_label_2
_geom_bond_site_symmetry_1
_geom_bond_site_symmetry_2
N1 B1 1_555 1_555
N2 B1 1_555 1_555
B1 C4 1_555 1_555
C1 N1 1_555 1_555
C2 C1 1_555 1_555
C3 C2 1_555 1_555
C4 C3 1_555 1_555
C5 N1 1_555 1_555
C6 C5 1_555 1_555
C7 C5 1_555 1_555
C8 C5 1_555 1_555
C9 N2 1_555 1_555
C10 C9 1_555 1_555
C11 C10 1_555 1_555
C12 C11 1_555 1_555
C13 C12 1_555 1_555
C14 C9 1_555 1_555
C15 N2 1_555 1_555
C16 C15 1_555 1_555
C17 C16 1_555 1_555
C18 C17 1_555 1_555
C19 C18 1_555 1_555
C20 C15 1_555 1_555
H1 C1 1_555 1_555
H2 C1 1_555 1_555
H3 C2 1_555 1_555
H4 C2 1_555 1_555
H5 C3 1_555 1_555
H6 C3 1_555 1_555
H7 C4 1_555 1_555
H8 C4 1_555 1_555
H9 C6 1_555 1_555
H10 C6 1_555 1_555
H11 C6 1_555 1_555
H12 C7 1_555 1_555
H13 C7 1_555 1_555
H14 C7 1_555 1_555
H15 C8 1_555 1_555
H16 C8 1_555 1_555
H17 C8 1_555 1_555
H18 C10 1_555 1_555
H19 C11 1_555 1_555
H20 C12 1_555 1_555
H21 C13 1_555 1_555
H22 C14 1_555 1_555
H23 C16 1_555 1_555
H24 C17 1_555 1_555
H25 C18 1_555 1_555
H26 C19 1_555 1_555
H27 C20 1_555 1_555
C13 C14 1_555 1_555
C19 C20 1_555 1_555

#END
