
#######################################################################
#
#                 Cambridge Crystallographic Data Centre
#                                CCDC 
#
#######################################################################
#
# If this CIF has been generated from an entry in the Cambridge 
# Structural Database, then it will include bibliographic, chemical, 
# crystal, experimental, refinement or atomic coordinate data resulting 
# from the CCDC's data processing and validation procedures.
#
#######################################################################

data_EFUXEJ
_chemical_formula_moiety         'C7 H4 N3 1+,C7 H7 O3 S1 1-'
_chemical_name_systematic        'p-Cyanobenzenediazonium p-tosylate'
_symmetry_cell_setting           monoclinic
_symmetry_space_group_name_H-M   'P 21/c'
_symmetry_Int_Tables_number      14
_space_group_name_Hall           '-P 2ybc'
loop_
_symmetry_equiv_pos_site_id
_symmetry_equiv_pos_as_xyz
1 x,y,z
2 -x,1/2+y,1/2-z
3 -x,-y,-z
4 x,1/2-y,1/2+z
_cell_length_a                   5.8450(12)
_cell_length_b                   8.8470(18)
_cell_length_c                   26.650(5)
_cell_angle_alpha                90
_cell_angle_beta                 94.29(3)
_cell_angle_gamma                90
_cell_volume                     1374.23
_exptl_crystal_colour            colorless
_exptl_crystal_description       block
_chemical_melting_point          124deg.C
_cell_formula_units_Z            4
_exptl_crystal_recrystallization_method 'acetic acid/diethyl ether'
loop_
_atom_site_label
_atom_site_type_symbol
_atom_site_fract_x
_atom_site_fract_y
_atom_site_fract_z
S1 S 0.35631(6) 0.04716(4) 0.311588(11)
O1 O 0.12177(18) -0.00674(12) 0.30223(4)
O2 O 0.37169(19) 0.21096(12) 0.31509(4)
O3 O 0.51056(18) -0.01556(12) 0.27620(4)
C1 C 0.7050(3) -0.21466(18) 0.51441(5)
C2 C 0.6174(3) -0.14916(16) 0.46438(5)
C3 C 0.7536(3) -0.05131(16) 0.43817(6)
C4 C 0.3981(3) -0.18358(16) 0.44327(5)
C5 C 0.6747(3) 0.00975(17) 0.39189(5)
C6 C 0.3166(3) -0.12243(15) 0.39721(5)
C7 C 0.4556(2) -0.02613(15) 0.37142(5)
H1 H 0.652(4) -0.159(3) 0.5421(9)
H2 H 0.872(5) -0.211(3) 0.5198(10)
H3 H 0.662(4) -0.321(3) 0.5185(9)
H4 H 0.913(4) -0.027(2) 0.4506(8)
H5 H 0.302(3) -0.250(2) 0.4606(7)
H6 H 0.769(3) 0.079(2) 0.3759(7)
H7 H 0.165(3) -0.149(2) 0.3837(7)
N1 N 1.1360(2) -0.28202(13) 0.24742(4)
N2 N 1.1870(2) -0.22569(15) 0.21344(5)
N3 N 0.7815(3) -0.57817(18) 0.45956(5)
C8 C 0.9250(3) -0.46584(15) 0.37773(5)
C9 C 0.7907(3) -0.35424(15) 0.35261(5)
C10 C 1.1276(3) -0.51884(16) 0.35951(5)
C11 C 0.8593(2) -0.29187(17) 0.30855(5)
C12 C 1.1999(3) -0.45954(15) 0.31507(5)
C13 C 1.0627(2) -0.34781(15) 0.29198(5)
C14 C 0.8460(3) -0.52874(17) 0.42355(6)
H8 H 0.656(3) -0.316(2) 0.3659(7)
H9 H 1.220(3) -0.598(2) 0.3764(7)
H10 H 0.774(3) -0.215(2) 0.2925(7)
H11 H 1.331(3) -0.491(2) 0.3017(7)
loop_
_geom_bond_atom_site_label_1
_geom_bond_atom_site_label_2
_geom_bond_site_symmetry_1
_geom_bond_site_symmetry_2
S1 O1 1_555 1_555
O2 S1 1_555 1_555
O3 S1 1_555 1_555
N1 N2 1_555 1_555
N3 C14 1_555 1_555
C1 C2 1_555 1_555
C2 C3 1_555 1_555
C3 C5 1_555 1_555
C4 C2 1_555 1_555
C5 C7 1_555 1_555
C6 C4 1_555 1_555
C7 S1 1_555 1_555
C8 C9 1_555 1_555
C9 C11 1_555 1_555
C10 C8 1_555 1_555
C11 C13 1_555 1_555
C12 C10 1_555 1_555
C13 N1 1_555 1_555
C14 C8 1_555 1_555
H1 C1 1_555 1_555
H2 C1 1_555 1_555
H3 C1 1_555 1_555
H4 C3 1_555 1_555
H5 C4 1_555 1_555
H6 C5 1_555 1_555
H7 C6 1_555 1_555
H8 C9 1_555 1_555
H9 C10 1_555 1_555
H10 C11 1_555 1_555
H11 C12 1_555 1_555
C6 C7 1_555 1_555
C12 C13 1_555 1_555

#END
