
#######################################################################
#
#                 Cambridge Crystallographic Data Centre
#                                CCDC 
#
#######################################################################
#
# If this CIF has been generated from an entry in the Cambridge 
# Structural Database, then it will include bibliographic, chemical, 
# crystal, experimental, refinement or atomic coordinate data resulting 
# from the CCDC's data processing and validation procedures.
#
#######################################################################

data_EFUZOV
_chemical_formula_moiety         'C12 H14 O4'
_chemical_name_systematic        
(3a'R,6a'R)-3a',6a'-Dihydrodispiro[1,3-dioxolane-2,1'-pentalene-4',2''-[1,3]dioxolane]
_symmetry_cell_setting           orthorhombic
_symmetry_space_group_name_H-M   'P 21 21 21'
_symmetry_Int_Tables_number      19
_space_group_name_Hall           'P 2ac 2ab'
loop_
_symmetry_equiv_pos_site_id
_symmetry_equiv_pos_as_xyz
1 x,y,z
2 1/2-x,-y,1/2+z
3 -x,1/2+y,1/2-z
4 1/2+x,1/2-y,-z
_cell_length_a                   6.1336(7)
_cell_length_b                   11.7280(14)
_cell_length_c                   14.5571(17)
_cell_angle_alpha                90
_cell_angle_beta                 90
_cell_angle_gamma                90
_cell_volume                     1047.16
_exptl_crystal_colour            colorless
_exptl_crystal_description       prismatic
_cell_formula_units_Z            4
_exptl_crystal_recrystallization_method cyclohexane
loop_
_atom_site_label
_atom_site_type_symbol
_atom_site_fract_x
_atom_site_fract_y
_atom_site_fract_z
O1 O 0.6675(3) -0.08856(15) 0.44743(12)
O2 O 0.4718(3) 0.02991(15) 0.53827(10)
O3 O 0.7686(3) 0.28013(14) 0.21452(11)
O4 O 1.0417(3) 0.17162(13) 0.26784(10)
C1 C 0.5525(4) 0.0962(2) 0.38009(16)
C2 C 0.6291(4) 0.0288(2) 0.46624(15)
C3 C 0.8320(5) 0.0874(3) 0.49527(17)
C4 C 0.8792(5) 0.1750(2) 0.44357(17)
C5 C 0.7174(4) 0.1945(2) 0.36878(16)
C6 C 0.8119(4) 0.1836(2) 0.26976(15)
C7 C 0.7035(5) 0.0800(2) 0.23279(17)
C8 C 0.5673(4) 0.0334(2) 0.29063(17)
C9 C 0.5066(6) -0.1554(3) 0.4918(2)
C10 C 0.3470(5) -0.0713(3) 0.5285(2)
C11 C 0.9472(5) 0.3561(3) 0.2267(3)
C12 C 1.1334(5) 0.2813(3) 0.2522(2)
H1 H 0.414(4) 0.1204(18) 0.3897(14)
H2 H 0.918(4) 0.055(2) 0.5469(16)
H3 H 1.009(4) 0.222(2) 0.4529(16)
H4 H 0.655(4) 0.2690(18) 0.3750(14)
H5 H 0.734(4) 0.0557(18) 0.1750(16)
H6 H 0.482(4) -0.034(2) 0.2795(15)
H7 H 0.427(6) -0.200(3) 0.448(2)
H8 H 0.225(4) -0.054(2) 0.4842(16)
H9 H 0.954(6) 0.400(3) 0.171(2)
H10 H 1.247(5) 0.279(2) 0.206(2)
H11 H 0.565(6) -0.200(3) 0.543(2)
H12 H 0.292(4) -0.095(2) 0.5888(16)
H13 H 0.908(6) 0.403(3) 0.276(2)
H14 H 1.206(5) 0.305(3) 0.305(2)
loop_
_geom_bond_atom_site_label_1
_geom_bond_atom_site_label_2
_geom_bond_site_symmetry_1
_geom_bond_site_symmetry_2
O1 C2 1_555 1_555
O2 C2 1_555 1_555
O3 C6 1_555 1_555
O4 C6 1_555 1_555
C1 C2 1_555 1_555
C2 C3 1_555 1_555
C3 C4 1_555 1_555
C4 C5 1_555 1_555
C5 C1 1_555 1_555
C6 C5 1_555 1_555
C7 C6 1_555 1_555
C8 C1 1_555 1_555
C9 O1 1_555 1_555
C10 O2 1_555 1_555
C11 O3 1_555 1_555
C12 O4 1_555 1_555
H1 C1 1_555 1_555
H2 C3 1_555 1_555
H3 C4 1_555 1_555
H4 C5 1_555 1_555
H5 C7 1_555 1_555
H6 C8 1_555 1_555
H7 C9 1_555 1_555
H8 C10 1_555 1_555
H9 C11 1_555 1_555
H10 C12 1_555 1_555
H11 C9 1_555 1_555
H12 C10 1_555 1_555
H13 C11 1_555 1_555
H14 C12 1_555 1_555
C7 C8 1_555 1_555
C9 C10 1_555 1_555
C11 C12 1_555 1_555

#END
