
#######################################################################
#
#                 Cambridge Crystallographic Data Centre
#                                CCDC 
#
#######################################################################
#
# If this CIF has been generated from an entry in the Cambridge 
# Structural Database, then it will include bibliographic, chemical, 
# crystal, experimental, refinement or atomic coordinate data resulting 
# from the CCDC's data processing and validation procedures.
#
#######################################################################

data_EGALEE
_chemical_formula_moiety         'C56 H34 S2'
_chemical_name_systematic        
5-((2',3',4',5'-Tetraphenyl)phenyl)-5'-(1-pyrenylethynyl)-2,2'-bithiophene
_symmetry_cell_setting           triclinic
_symmetry_space_group_name_H-M   'P -1'
_symmetry_Int_Tables_number      2
_space_group_name_Hall           '-P 1'
loop_
_symmetry_equiv_pos_site_id
_symmetry_equiv_pos_as_xyz
1 x,y,z
2 -x,-y,-z
_cell_length_a                   11.3233(15)
_cell_length_b                   12.0860(17)
_cell_length_c                   15.497(2)
_cell_angle_alpha                79.217(6)
_cell_angle_beta                 77.259(6)
_cell_angle_gamma                75.312(6)
_cell_volume                     1981.56
_exptl_crystal_colour            yellow
_exptl_crystal_description       block
_cell_formula_units_Z            2
_exptl_crystal_preparation       fluorescent
loop_
_atom_site_label
_atom_site_type_symbol
_atom_site_fract_x
_atom_site_fract_y
_atom_site_fract_z
S1 S 0.36089(3) 0.34848(3) 0.80649(2)
S2 S 0.59779(3) 0.26524(3) 0.55295(2)
C1 C 0.41697(13) 0.44580(12) 0.84662(9)
C2 C 0.52380(14) 0.46721(12) 0.79234(9)
H1 H 0.5692 0.5174 0.8037
C3 C 0.55956(13) 0.40711(12) 0.71789(9)
H2 H 0.6319 0.4124 0.6740
C4 C 0.47979(12) 0.34018(11) 0.71483(8)
C5 C 0.48143(12) 0.27311(11) 0.64620(8)
C6 C 0.39707(12) 0.21243(11) 0.64132(9)
H3 H 0.3257 0.2066 0.6861
C7 C 0.42596(13) 0.15916(11) 0.56333(9)
H4 H 0.3760 0.1140 0.5505
C8 C 0.53227(12) 0.17878(11) 0.50834(8)
C9 C 0.34818(14) 0.49218(12) 0.92503(9)
C10 C 0.28287(14) 0.52613(12) 0.99083(9)
C11 C 0.20679(13) 0.56026(12) 1.07250(9)
C12 C 0.23048(14) 0.64695(13) 1.11037(10)
H5 H 0.2945 0.6855 1.0801
C13 C 0.16196(14) 0.67707(13) 1.19125(10)
H6 H 0.1799 0.7358 1.2160
C14 C 0.06683(14) 0.62264(12) 1.23724(9)
C15 C -0.00519(15) 0.65122(13) 1.32210(10)
H7 H 0.0138 0.7075 1.3490
C16 C -0.09884(15) 0.60013(13) 1.36435(9)
H8 H -0.1442 0.6210 1.4204
C17 C -0.13155(14) 0.51534(13) 1.32680(9)
C18 C -0.23061(16) 0.46363(14) 1.36817(10)
H9 H -0.2780 0.4841 1.4239
C19 C -0.26067(16) 0.38323(14) 1.32930(11)
H10 H -0.3291 0.3498 1.3581
C20 C -0.19210(16) 0.35060(13) 1.24861(11)
H11 H -0.2137 0.2946 1.2230
C21 C -0.09134(14) 0.39935(12) 1.20451(10)
C22 C -0.01797(15) 0.36837(12) 1.12114(10)
H12 H -0.0372 0.3119 1.0945
C23 C 0.07816(14) 0.41764(12) 1.07934(9)
H13 H 0.1259 0.3939 1.0247
C24 C 0.10937(13) 0.50459(12) 1.11562(9)
C25 C 0.03858(13) 0.53674(12) 1.19882(9)
C26 C -0.06117(14) 0.48356(12) 1.24332(9)
C27 C 0.59412(12) 0.13824(11) 0.42190(8)
C28 C 0.52735(12) 0.14581(11) 0.35383(8)
C29 C 0.59015(12) 0.10380(11) 0.27362(8)
C30 C 0.71912(12) 0.05637(11) 0.25991(8)
C31 C 0.78532(12) 0.05112(11) 0.32816(8)
C32 C 0.72123(12) 0.09160(11) 0.40741(8)
H14 H 0.7659 0.0873 0.4535
C33 C 0.39120(12) 0.19965(12) 0.36617(8)
C34 C 0.35038(13) 0.31677(12) 0.37494(9)
H15 H 0.4089 0.3616 0.3733
C35 C 0.22480(14) 0.36798(13) 0.38606(10)
H16 H 0.1976 0.4478 0.3916
C36 C 0.13896(14) 0.30303(15) 0.38914(9)
H17 H 0.0528 0.3381 0.3972
C37 C 0.17887(13) 0.18727(14) 0.38047(9)
H18 H 0.1200 0.1427 0.3823
C38 C 0.30416(13) 0.13569(13) 0.36907(9)
H19 H 0.3308 0.0559 0.3632
C39 C 0.51861(12) 0.11160(12) 0.20123(8)
C40 C 0.47277(14) 0.21835(13) 0.15502(10)
H20 H 0.4854 0.2865 0.1703
C41 C 0.40854(15) 0.22630(16) 0.08655(10)
H21 H 0.3776 0.2997 0.0552
C42 C 0.38964(14) 0.12820(17) 0.06406(10)
H22 H 0.3461 0.1337 0.0170
C43 C 0.43384(13) 0.02218(15) 0.10973(10)
H23 H 0.4203 -0.0456 0.0945
C44 C 0.49816(12) 0.01379(12) 0.17802(9)
H24 H 0.5285 -0.0599 0.2092
C45 C 0.78138(12) 0.01041(11) 0.17387(8)
C46 C 0.77665(12) 0.08090(12) 0.09179(9)
H25 H 0.7390 0.1608 0.0902
C47 C 0.82630(13) 0.03532(13) 0.01267(9)
H26 H 0.8223 0.0841 -0.0428
C48 C 0.88171(13) -0.08065(13) 0.01381(9)
H27 H 0.9140 -0.1119 -0.0407
C49 C 0.89004(13) -0.15098(12) 0.09447(9)
H28 H 0.9292 -0.2305 0.0956
C50 C 0.84127(12) -0.10534(11) 0.17384(9)
H29 H 0.8489 -0.1538 0.2291
C51 C 0.92227(12) 0.00673(11) 0.31925(9)
C52 C 1.00448(12) 0.04251(12) 0.24438(9)
H30 H 0.9728 0.0950 0.1967
C53 C 1.13137(13) 0.00282(13) 0.23830(10)
H31 H 1.1861 0.0283 0.1868
C54 C 1.17893(13) -0.07419(13) 0.30735(10)
H32 H 1.2660 -0.1029 0.3028
C55 C 1.09870(13) -0.10857(13) 0.38258(10)
H33 H 1.1308 -0.1600 0.4305
C56 C 0.97119(12) -0.06848(12) 0.38881(9)
H34 H 0.9169 -0.0926 0.4411
loop_
_geom_bond_atom_site_label_1
_geom_bond_atom_site_label_2
_geom_bond_site_symmetry_1
_geom_bond_site_symmetry_2
S1 C1 1_555 1_555
S2 C5 1_555 1_555
C1 C2 1_555 1_555
C2 H1 1_555 1_555
C3 C2 1_555 1_555
H2 C3 1_555 1_555
C4 S1 1_555 1_555
C5 C4 1_555 1_555
C6 C5 1_555 1_555
H3 C6 1_555 1_555
C7 C6 1_555 1_555
H4 C7 1_555 1_555
C8 S2 1_555 1_555
C9 C1 1_555 1_555
C10 C9 1_555 1_555
C11 C10 1_555 1_555
C12 C11 1_555 1_555
H5 C12 1_555 1_555
C13 C12 1_555 1_555
H6 C13 1_555 1_555
C14 C13 1_555 1_555
C15 C14 1_555 1_555
H7 C15 1_555 1_555
C16 C15 1_555 1_555
H8 C16 1_555 1_555
C17 C16 1_555 1_555
C18 C17 1_555 1_555
H9 C18 1_555 1_555
C19 C18 1_555 1_555
H10 C19 1_555 1_555
C20 C19 1_555 1_555
H11 C20 1_555 1_555
C21 C20 1_555 1_555
C22 C21 1_555 1_555
H12 C22 1_555 1_555
C23 C22 1_555 1_555
H13 C23 1_555 1_555
C24 C11 1_555 1_555
C25 C14 1_555 1_555
C26 C17 1_555 1_555
C27 C8 1_555 1_555
C28 C27 1_555 1_555
C29 C28 1_555 1_555
C30 C29 1_555 1_555
C31 C30 1_555 1_555
C32 C27 1_555 1_555
H14 C32 1_555 1_555
C33 C28 1_555 1_555
C34 C33 1_555 1_555
H15 C34 1_555 1_555
C35 C34 1_555 1_555
H16 C35 1_555 1_555
C36 C35 1_555 1_555
H17 C36 1_555 1_555
C37 C36 1_555 1_555
H18 C37 1_555 1_555
C38 C33 1_555 1_555
H19 C38 1_555 1_555
C39 C29 1_555 1_555
C40 C39 1_555 1_555
H20 C40 1_555 1_555
C41 C40 1_555 1_555
H21 C41 1_555 1_555
C42 C41 1_555 1_555
H22 C42 1_555 1_555
C43 C42 1_555 1_555
H23 C43 1_555 1_555
C44 C39 1_555 1_555
H24 C44 1_555 1_555
C45 C30 1_555 1_555
C46 C45 1_555 1_555
H25 C46 1_555 1_555
C47 C46 1_555 1_555
H26 C47 1_555 1_555
C48 C47 1_555 1_555
H27 C48 1_555 1_555
C49 C48 1_555 1_555
H28 C49 1_555 1_555
C50 C45 1_555 1_555
H29 C50 1_555 1_555
C51 C31 1_555 1_555
C52 C51 1_555 1_555
H30 C52 1_555 1_555
C53 C52 1_555 1_555
H31 C53 1_555 1_555
C54 C53 1_555 1_555
H32 C54 1_555 1_555
C55 C54 1_555 1_555
H33 C55 1_555 1_555
C56 C51 1_555 1_555
H34 C56 1_555 1_555
C3 C4 1_555 1_555
C7 C8 1_555 1_555
C21 C26 1_555 1_555
C23 C24 1_555 1_555
C24 C25 1_555 1_555
C25 C26 1_555 1_555
C31 C32 1_555 1_555
C37 C38 1_555 1_555
C43 C44 1_555 1_555
C49 C50 1_555 1_555
C55 C56 1_555 1_555

#END
