
#######################################################################
#
#                 Cambridge Crystallographic Data Centre
#                                CCDC 
#
#######################################################################
#
# If this CIF has been generated from an entry in the Cambridge 
# Structural Database, then it will include bibliographic, chemical, 
# crystal, experimental, refinement or atomic coordinate data resulting 
# from the CCDC's data processing and validation procedures.
#
#######################################################################

data_EGAYIU
_chemical_compound_source        'seeds of Caesalpinia minax'
_chemical_name_common            
'5alpha,7beta-Dihydroxy-1alpha-acetoxyvouacapane hemihydrate'
_chemical_formula_moiety         'C22 H32 O5,0.5(H2 O1)'
_chemical_name_systematic        'Caesalmin H hemihydrate'
_symmetry_cell_setting           orthorhombic
_symmetry_space_group_name_H-M   'P 21 21 21'
_symmetry_Int_Tables_number      19
_space_group_name_Hall           'P 2ac 2ab'
loop_
_symmetry_equiv_pos_site_id
_symmetry_equiv_pos_as_xyz
1 x,y,z
2 1/2-x,-y,1/2+z
3 -x,1/2+y,1/2-z
4 1/2+x,1/2-y,-z
_cell_length_a                   8.8175(18)
_cell_length_b                   10.112(2)
_cell_length_c                   46.686(9)
_cell_angle_alpha                90
_cell_angle_beta                 90
_cell_angle_gamma                90
_cell_volume                     4162.64
_exptl_crystal_colour            colorless
_exptl_crystal_description       needle
_cell_formula_units_Z            8
loop_
_atom_site_label
_atom_site_type_symbol
_atom_site_fract_x
_atom_site_fract_y
_atom_site_fract_z
O1 O 0.5246(10) 0.8818(8) 0.10656(17)
O3 O 0.5681(5) 0.8732(4) 0.17872(8)
O4 O 0.6376(7) 1.0508(6) 0.20355(13)
O5 O 0.4531(5) 0.6552(4) 0.14989(8)
H1 H 0.5076 0.7192 0.1531
O6 O 0.4313(6) 0.2793(4) 0.18535(10)
H2 H 0.4381 0.2392 0.1701
O7 O 0.9021(6) 0.6175(5) 0.25714(10)
C1 C 0.4475(7) 0.8429(6) 0.19982(13)
H3 H 0.4807 0.8730 0.2188
C2 C 0.3056(9) 0.9184(7) 0.19144(15)
H4 H 0.3307 1.0111 0.1889
H5 H 0.2318 0.9120 0.2068
C3 C 0.2356(8) 0.8656(7) 0.16384(15)
H6 H 0.3051 0.8831 0.1482
H7 H 0.1430 0.9144 0.1600
C4 C 0.1980(8) 0.7167(6) 0.16397(14)
C5 C 0.3429(7) 0.6397(6) 0.17353(13)
C6 C 0.3166(8) 0.4899(6) 0.17678(15)
H8 H 0.2517 0.4738 0.1932
H9 H 0.2655 0.4565 0.1599
C7 C 0.4667(8) 0.4161(6) 0.18079(15)
H10 H 0.5243 0.4231 0.1629
C8 C 0.5657(7) 0.4682(6) 0.20490(13)
H11 H 0.5138 0.4459 0.2228
C9 C 0.5802(8) 0.6199(6) 0.20425(13)
H12 H 0.6412 0.6422 0.1874
C10 C 0.4244(8) 0.6922(6) 0.20073(13)
C11 C 0.6686(9) 0.6706(7) 0.23079(15)
H13 H 0.7084 0.7582 0.2269
H14 H 0.6003 0.6770 0.2470
C12 C 0.7932(8) 0.5811(7) 0.23772(14)
C13 C 0.8197(8) 0.4618(7) 0.22701(14)
C14 C 0.7196(8) 0.3943(7) 0.20542(14)
H15 H 0.7009 0.3040 0.2122
C15 C 0.9587(9) 0.4175(8) 0.24052(16)
H16 H 1.0076 0.3371 0.2376
C16 C 1.0027(9) 0.5152(8) 0.25800(16)
H17 H 1.0899 0.5135 0.2692
C17 C 0.8000(9) 0.3852(8) 0.17690(15)
H18 H 0.8935 0.3378 0.1792
H19 H 0.8210 0.4726 0.1699
H20 H 0.7366 0.3395 0.1634
C18 C 0.1482(10) 0.6805(8) 0.13381(17)
H21 H 0.0591 0.7300 0.1289
H22 H 0.1261 0.5876 0.1329
H23 H 0.2281 0.7010 0.1206
C19 C 0.0565(8) 0.6954(8) 0.18333(16)
H24 H -0.0272 0.7455 0.1759
H25 H 0.0789 0.7245 0.2024
H26 H 0.0305 0.6033 0.1836
C20 C 0.3266(8) 0.6680(7) 0.22808(14)
H27 H 0.3794 0.7012 0.2446
H28 H 0.3088 0.5750 0.2303
H29 H 0.2313 0.7131 0.2262
C21 C 0.6566(9) 0.9761(7) 0.18366(16)
C22 C 0.7743(9) 0.9930(8) 0.16150(18)
H30 H 0.8343 1.0697 0.1658
H31 H 0.7269 1.0042 0.1431
H32 H 0.8383 0.9162 0.1611
O8 O 0.2998(6) 0.5735(5) 0.04711(10)
O9 O 0.1917(9) 0.6217(8) 0.00500(18)
O10 O 0.4370(6) 0.5079(5) 0.09704(9)
H33 H 0.3770 0.5454 0.0864
O11 O 0.4556(6) 0.1369(5) 0.13115(9)
H34 H 0.4533 0.1626 0.1478
O12 O -0.0504(7) 0.1237(6) 0.03505(11)
C23 C 0.4025(9) 0.4774(8) 0.03320(15)
H35 H 0.3539 0.4403 0.0161
C24 C 0.5409(10) 0.5552(9) 0.02469(16)
H36 H 0.5103 0.6299 0.0130
H37 H 0.6071 0.4997 0.0133
C25 C 0.6278(10) 0.6053(8) 0.05092(17)
H38 H 0.7176 0.6517 0.0443
H39 H 0.5646 0.6690 0.0609
C26 C 0.6762(9) 0.5010(8) 0.07198(15)
C27 C 0.5321(8) 0.4214(7) 0.08059(13)
C28 C 0.5637(8) 0.3045(7) 0.10126(14)
H40 H 0.6217 0.2373 0.0913
H41 H 0.6241 0.3357 0.1173
C29 C 0.4193(9) 0.2446(7) 0.11240(13)
H42 H 0.3660 0.3121 0.1236
C30 C 0.3125(8) 0.1974(7) 0.08848(12)
H43 H 0.3632 0.1243 0.0786
C31 C 0.2834(8) 0.3046(7) 0.06644(13)
H44 H 0.2285 0.3756 0.0763
C32 C 0.4362(9) 0.3673(7) 0.05470(13)
C33 C 0.1803(10) 0.2557(9) 0.04221(15)
H45 H 0.1316 0.3309 0.0332
H46 H 0.2413 0.2113 0.0279
C34 C 0.0632(9) 0.1640(7) 0.05282(15)
C35 C 0.0553(9) 0.1099(7) 0.07902(15)
C36 C 0.1625(9) 0.1401(7) 0.10223(13)
H47 H 0.1886 0.0565 0.1117
C37 C -0.0781(10) 0.0271(8) 0.07765(18)
H48 H -0.1173 -0.0257 0.0922
C38 C -0.1336(11) 0.0419(9) 0.05113(19)
H49 H -0.2208 -0.0002 0.0446
C39 C 0.0914(10) 0.2296(9) 0.12455(15)
H50 H 0.0014 0.1887 0.1320
H51 H 0.0655 0.3128 0.1159
H52 H 0.1621 0.2440 0.1399
C40 C 0.7444(10) 0.5690(9) 0.09876(19)
H53 H 0.6684 0.6232 0.1077
H54 H 0.8287 0.6232 0.0931
H55 H 0.7782 0.5029 0.1121
C41 C 0.8113(9) 0.4185(9) 0.05953(17)
H56 H 0.8941 0.4765 0.0550
H57 H 0.7789 0.3737 0.0425
H58 H 0.8437 0.3546 0.0735
C42 C 0.5208(10) 0.2569(8) 0.03760(14)
H59 H 0.6138 0.2918 0.0301
H60 H 0.4578 0.2271 0.0221
H61 H 0.5426 0.1840 0.0501
C43 C 0.2036(13) 0.6386(11) 0.0308(2)
C44 C 0.1103(13) 0.7358(11) 0.0465(2)
H62 H 0.0432 0.7796 0.0334
H63 H 0.1753 0.7999 0.0554
H64 H 0.0519 0.6911 0.0609
O2? O 0.446(2) 0.9085(17) 0.0404(3)
loop_
_geom_bond_atom_site_label_1
_geom_bond_atom_site_label_2
_geom_bond_site_symmetry_1
_geom_bond_site_symmetry_2
O3 C1 1_555 1_555
O4 C21 1_555 1_555
O5 H1 1_555 1_555
O6 H2 1_555 1_555
O7 C12 1_555 1_555
C1 H3 1_555 1_555
C2 C1 1_555 1_555
H4 C2 1_555 1_555
H5 C2 1_555 1_555
C3 C2 1_555 1_555
H6 C3 1_555 1_555
H7 C3 1_555 1_555
C4 C3 1_555 1_555
C5 O5 1_555 1_555
C6 C5 1_555 1_555
H8 C6 1_555 1_555
H9 C6 1_555 1_555
C7 O6 1_555 1_555
H10 C7 1_555 1_555
C8 C7 1_555 1_555
H11 C8 1_555 1_555
C9 C8 1_555 1_555
H12 C9 1_555 1_555
C10 C1 1_555 1_555
C11 C9 1_555 1_555
H13 C11 1_555 1_555
H14 C11 1_555 1_555
C12 C11 1_555 1_555
C13 C12 1_555 1_555
C14 C8 1_555 1_555
H15 C14 1_555 1_555
C15 C13 1_555 1_555
H16 C15 1_555 1_555
C16 O7 1_555 1_555
H17 C16 1_555 1_555
C17 C14 1_555 1_555
H18 C17 1_555 1_555
H19 C17 1_555 1_555
H20 C17 1_555 1_555
C18 C4 1_555 1_555
H21 C18 1_555 1_555
H22 C18 1_555 1_555
H23 C18 1_555 1_555
C19 C4 1_555 1_555
H24 C19 1_555 1_555
H25 C19 1_555 1_555
H26 C19 1_555 1_555
C20 C10 1_555 1_555
H27 C20 1_555 1_555
H28 C20 1_555 1_555
H29 C20 1_555 1_555
C21 O3 1_555 1_555
C22 C21 1_555 1_555
H30 C22 1_555 1_555
H31 C22 1_555 1_555
H32 C22 1_555 1_555
O8 C23 1_555 1_555
O9 C43 1_555 1_555
O10 H33 1_555 1_555
O11 H34 1_555 1_555
O12 C34 1_555 1_555
C23 H35 1_555 1_555
C24 C23 1_555 1_555
H36 C24 1_555 1_555
H37 C24 1_555 1_555
C25 C24 1_555 1_555
H38 C25 1_555 1_555
H39 C25 1_555 1_555
C26 C25 1_555 1_555
C27 O10 1_555 1_555
C28 C27 1_555 1_555
H40 C28 1_555 1_555
H41 C28 1_555 1_555
C29 O11 1_555 1_555
H42 C29 1_555 1_555
C30 C29 1_555 1_555
H43 C30 1_555 1_555
C31 C30 1_555 1_555
H44 C31 1_555 1_555
C32 C23 1_555 1_555
C33 C31 1_555 1_555
H45 C33 1_555 1_555
H46 C33 1_555 1_555
C34 C33 1_555 1_555
C35 C34 1_555 1_555
C36 C30 1_555 1_555
H47 C36 1_555 1_555
C37 C35 1_555 1_555
H48 C37 1_555 1_555
C38 O12 1_555 1_555
H49 C38 1_555 1_555
C39 C36 1_555 1_555
H50 C39 1_555 1_555
H51 C39 1_555 1_555
H52 C39 1_555 1_555
C40 C26 1_555 1_555
H53 C40 1_555 1_555
H54 C40 1_555 1_555
H55 C40 1_555 1_555
C41 C26 1_555 1_555
H56 C41 1_555 1_555
H57 C41 1_555 1_555
H58 C41 1_555 1_555
C42 C32 1_555 1_555
H59 C42 1_555 1_555
H60 C42 1_555 1_555
H61 C42 1_555 1_555
C43 O8 1_555 1_555
C44 C43 1_555 1_555
H62 C44 1_555 1_555
H63 C44 1_555 1_555
H64 C44 1_555 1_555
C4 C5 1_555 1_555
C5 C10 1_555 1_555
C6 C7 1_555 1_555
C9 C10 1_555 1_555
C13 C14 1_555 1_555
C15 C16 1_555 1_555
C26 C27 1_555 1_555
C27 C32 1_555 1_555
C28 C29 1_555 1_555
C31 C32 1_555 1_555
C35 C36 1_555 1_555
C37 C38 1_555 1_555

#END
