
#######################################################################
#
#                 Cambridge Crystallographic Data Centre
#                                CCDC 
#
#######################################################################
#
# If this CIF has been generated from an entry in the Cambridge 
# Structural Database, then it will include bibliographic, chemical, 
# crystal, experimental, refinement or atomic coordinate data resulting 
# from the CCDC's data processing and validation procedures.
#
#######################################################################

data_EGENIP
_chemical_formula_moiety         'C7 H8 Cl1 N3 O4 S2,C5 H5 N3 O1'
_chemical_name_systematic        
'Pyrazine-2-carboxamide 6-chloro-3,4-dihydro-2H-1,2,4-benzothiadiazine-7-sulfonamide 1,1-dioxide'
_symmetry_cell_setting           orthorhombic
_symmetry_space_group_name_H-M   'P 21 21 21'
_symmetry_Int_Tables_number      19
_space_group_name_Hall           'P 2ac 2ab'
loop_
_symmetry_equiv_pos_site_id
_symmetry_equiv_pos_as_xyz
1 x,y,z
2 1/2+x,1/2-y,-z
3 -x,1/2+y,1/2-z
4 1/2-x,-y,1/2+z
_cell_length_a                   7.673(6)
_cell_length_b                   13.318(11)
_cell_length_c                   16.250(14)
_cell_angle_alpha                90
_cell_angle_beta                 90
_cell_angle_gamma                90
_cell_volume                     1660.57
_exptl_crystal_colour            colorless
_exptl_crystal_description       block
_cell_formula_units_Z            4
loop_
_atom_site_label
_atom_site_type_symbol
_atom_site_fract_x
_atom_site_fract_y
_atom_site_fract_z
Cl1 Cl 0.4235(2) 0.41285(13) 0.38868(10)
S1 S 0.0141(2) 0.40662(14) 0.45232(10)
S2 S -0.1778(2) 0.36336(13) 0.12993(10)
O1 O -0.3227(5) 0.4260(3) 0.1519(3)
O2 O -0.2076(6) 0.2586(3) 0.1154(3)
O3 O 0.0742(6) 0.5027(3) 0.4818(3)
O4 O -0.1712(5) 0.3848(4) 0.4547(3)
C1 C 0.0817(9) 0.3626(5) 0.0298(4)
H1 H 0.0660 0.2907 0.0239
H2 H 0.1262 0.3883 -0.0220
C2 C 0.2500(8) 0.4031(5) 0.3193(4)
N1 N 0.1106(7) 0.3218(4) 0.5052(3)
H3 H 0.1832 0.3386 0.5431
H4 H 0.0898 0.2594 0.4958
C3 C 0.0765(8) 0.3963(5) 0.3477(3)
C4 C -0.0520(7) 0.3842(4) 0.2873(4)
H5 H -0.1681 0.3803 0.3036
C5 C -0.0122(7) 0.3776(4) 0.2039(4)
C6 C 0.1631(8) 0.3864(4) 0.1760(4)
N2 N 0.2090(8) 0.3821(5) 0.0946(4)
C7 C 0.2928(8) 0.3993(5) 0.2376(4)
H6 H 0.4090 0.4053 0.2221
N3 N -0.0867(6) 0.4092(4) 0.0470(3)
H7 H -0.1327 0.4554 0.0171
H8 H 0.301(8) 0.395(4) 0.076(3)
O5 O 0.4686(5) 0.3644(3) 0.5853(3)
N4 N 0.9418(7) 0.3468(4) 0.7172(4)
N5 N 0.6164(6) 0.3673(4) 0.7938(3)
C8 C 0.6328(7) 0.3594(5) 0.7117(4)
C9 C 0.9247(9) 0.3550(5) 0.7985(5)
H9 H 1.0246 0.3522 0.8308
C10 C 0.7935(8) 0.3508(5) 0.6737(4)
H10 H 0.7988 0.3477 0.6166
C11 C 0.7640(9) 0.3675(5) 0.8376(4)
H11 H 0.7596 0.3761 0.8943
C12 C 0.4659(8) 0.3595(5) 0.6619(5)
N6 N 0.3219(6) 0.3538(4) 0.7084(3)
H12 H 0.2208 0.3534 0.6854
H13 H 0.3305 0.3506 0.7611
loop_
_geom_bond_atom_site_label_1
_geom_bond_atom_site_label_2
_geom_bond_site_symmetry_1
_geom_bond_site_symmetry_2
Cl1 C2 1_555 1_555
S1 O3 1_555 1_555
S2 O1 1_555 1_555
O2 S2 1_555 1_555
O4 S1 1_555 1_555
C1 H1 1_555 1_555
H2 C1 1_555 1_555
C2 C3 1_555 1_555
N1 S1 1_555 1_555
H3 N1 1_555 1_555
H4 N1 1_555 1_555
C3 S1 1_555 1_555
C4 C3 1_555 1_555
H5 C4 1_555 1_555
C5 S2 1_555 1_555
C6 C5 1_555 1_555
N2 C1 1_555 1_555
C7 C2 1_555 1_555
H6 C7 1_555 1_555
N3 S2 1_555 1_555
H7 N3 1_555 1_555
H8 N2 1_555 1_555
O5 C12 1_555 1_555
N4 C9 1_555 1_555
N5 C8 1_555 1_555
C8 C10 1_555 1_555
C9 H9 1_555 1_555
C10 N4 1_555 1_555
H10 C10 1_555 1_555
C11 N5 1_555 1_555
H11 C11 1_555 1_555
C12 C8 1_555 1_555
N6 C12 1_555 1_555
H12 N6 1_555 1_555
H13 N6 1_555 1_555
C1 N3 1_555 1_555
C4 C5 1_555 1_555
C6 N2 1_555 1_555
C6 C7 1_555 1_555
C9 C11 1_555 1_555

#END
