
#######################################################################
#
#                 Cambridge Crystallographic Data Centre
#                                CCDC 
#
#######################################################################
#
# If this CIF has been generated from an entry in the Cambridge 
# Structural Database, then it will include bibliographic, chemical, 
# crystal, experimental, refinement or atomic coordinate data resulting 
# from the CCDC's data processing and validation procedures.
#
#######################################################################

data_EGIKIQ
_chemical_formula_moiety         'C43 H39 N3 O4 S2'
_chemical_name_systematic        
4-((9-(4-Methylbenzylidene)-2,7-bis(phenylsulfonyl)-2,7-diazaspiro[4.5]dec-4-ylidene)(4-methylphenyl)methyl)benzonitrile
_symmetry_cell_setting           monoclinic
_symmetry_space_group_name_H-M   'C 2/c'
_symmetry_Int_Tables_number      15
_space_group_name_Hall           '-C 2yn'
loop_
_symmetry_equiv_pos_site_id
_symmetry_equiv_pos_as_xyz
1 x,y,z
2 -x,y,1/2-z
3 1/2+x,1/2+y,z
4 1/2-x,1/2+y,1/2-z
5 -x,-y,-z
6 x,-y,1/2+z
7 1/2-x,1/2-y,-z
8 1/2+x,1/2-y,1/2+z
_cell_length_a                   28.490(2)
_cell_length_b                   12.0125(10)
_cell_length_c                   27.294(2)
_cell_angle_alpha                90
_cell_angle_beta                 110.9770(10)
_cell_angle_gamma                90
_cell_volume                     8721.91
_exptl_crystal_colour            colorless
_exptl_crystal_description       block
_cell_formula_units_Z            8
loop_
_atom_site_label
_atom_site_type_symbol
_atom_site_fract_x
_atom_site_fract_y
_atom_site_fract_z
C1 C 0.14305(10) 0.3537(2) 0.35268(9)
H1 H 0.1766 0.3317 0.3753
H2 H 0.1224 0.3650 0.3739
N1 N 0.12055(7) 0.27009(15) 0.31136(7)
O1 O 0.15285(7) 0.10165(15) 0.36328(7)
S1 S 0.10715(3) 0.14763(5) 0.32830(3)
C2 C 0.14458(8) 0.45696(18) 0.32197(8)
N2 N 0.05482(7) 0.48448(15) 0.17934(7)
O2 O 0.07952(7) 0.09114(14) 0.28078(7)
S2 S 0.00311(2) 0.55198(6) 0.14690(2)
C3 C 0.11651(8) 0.43306(18) 0.26405(8)
N3 N 0.19343(16) 1.0437(3) 0.23498(17)
O3 O -0.02741(7) 0.54922(18) 0.17777(7)
C4 C 0.08591(9) 0.32918(19) 0.26663(8)
H3 H 0.0553 0.3491 0.2724
H4 H 0.0774 0.2853 0.2348
O4 O -0.01573(7) 0.50757(17) 0.09528(7)
C5 C 0.15375(9) 0.4026(2) 0.23646(8)
H5 H 0.1771 0.4637 0.2406
H6 H 0.1730 0.3378 0.2535
C6 C 0.12822(9) 0.3785(2) 0.17912(8)
C7 C 0.08807(10) 0.4598(2) 0.14944(9)
H7 H 0.1035 0.5281 0.1437
H8 H 0.0683 0.4288 0.1155
C8 C 0.08225(9) 0.52360(19) 0.23327(8)
H9 H 0.0586 0.5435 0.2500
H10 H 0.1018 0.5892 0.2324
C9 C 0.06800(10) 0.16768(19) 0.36428(10)
C10 C 0.08883(13) 0.1885(3) 0.41733(12)
H11 H 0.1236 0.1895 0.4342
C11 C 0.0572(2) 0.2081(4) 0.44569(16)
H12 H 0.0707 0.2238 0.4814
C12 C 0.00648(19) 0.2041(4) 0.42050(18)
H13 H -0.0146 0.2135 0.4395
C13 C -0.01334(14) 0.1869(3) 0.36903(16)
H14 H -0.0481 0.1882 0.3523
C14 C 0.01684(12) 0.1670(2) 0.33998(12)
H15 H 0.0024 0.1532 0.3042
C15 C 0.14265(9) 0.2918(2) 0.15778(9)
H16 H 0.1674 0.2481 0.1815
C16 C 0.12615(9) 0.2527(2) 0.10275(9)
C17 C 0.12996(11) 0.1396(2) 0.09362(11)
H17 H 0.1424 0.0914 0.1221
C18 C 0.11568(13) 0.0970(3) 0.04325(12)
H18 H 0.1184 0.0210 0.0384
C19 C 0.09750(12) 0.1657(3) 0.00019(11)
C20 C 0.09425(11) 0.2752(3) 0.00944(10)
H19 H 0.0822 0.3229 -0.0192
C21 C 0.10779(11) 0.3201(2) 0.05886(10)
H20 H 0.1046 0.3963 0.0629
C22 C 0.08394(16) 0.1209(3) -0.05521(12)
H21 H 0.0529 0.0805 -0.0649
H22 H 0.1101 0.0722 -0.0567
H23 H 0.0803 0.1818 -0.0791
C23 C 0.02153(10) 0.6903(2) 0.14300(11)
C24 C 0.03918(16) 0.7208(3) 0.10406(17)
H24 H 0.0389 0.6694 0.0785
C25 C 0.0567(2) 0.8234(5) 0.1026(4)
H25 H 0.0698 0.8424 0.0770
C26 C 0.0555(3) 0.8959(6) 0.1369(4)
H26 H 0.0660 0.9679 0.1334
C27 C 0.0399(2) 0.8752(4) 0.1785(2)
H27 H 0.0418 0.9289 0.2037
C28 C 0.02042(15) 0.7654(3) 0.18028(13)
H28 H 0.0075 0.7461 0.2060
C29 C 0.16715(8) 0.54996(18) 0.34545(8)
C30 C 0.17116(9) 0.65501(19) 0.31845(8)
C31 C 0.20791(10) 0.6704(2) 0.29738(11)
H29 H 0.2295 0.6121 0.2976
C32 C 0.21306(12) 0.7710(3) 0.27598(11)
H30 H 0.2383 0.7807 0.2623
C33 C 0.18100(13) 0.8578(2) 0.27466(11)
C34 C 0.14410(12) 0.8436(2) 0.29555(11)
H31 H 0.1222 0.9015 0.2948
C35 C 0.13985(10) 0.7438(2) 0.31743(9)
H32 H 0.1152 0.7352 0.3321
C36 C 0.18760(15) 0.9605(3) 0.25239(15)
C37 C 0.19173(9) 0.55764(19) 0.40407(8)
C38 C 0.24114(11) 0.5830(3) 0.42737(11)
H33 H 0.2607 0.5914 0.4067
C39 C 0.26274(14) 0.5963(3) 0.48015(14)
H34 H 0.2967 0.6140 0.4945
C40 C 0.23655(16) 0.5848(3) 0.51280(11)
C41 C 0.18672(15) 0.5578(3) 0.48973(12)
H35 H 0.1675 0.5481 0.5107
C42 C 0.16438(12) 0.5449(3) 0.43631(10)
H36 H 0.1304 0.5273 0.4218
C43 C 0.26106(18) 0.6044(4) 0.57185(12)
H37 H 0.2902 0.5577 0.5858
H38 H 0.2375 0.5867 0.5885
H39 H 0.2709 0.6810 0.5783
loop_
_geom_bond_atom_site_label_1
_geom_bond_atom_site_label_2
_geom_bond_site_symmetry_1
_geom_bond_site_symmetry_2
C1 H1 1_555 1_555
H2 C1 1_555 1_555
N1 C1 1_555 1_555
O1 S1 1_555 1_555
S1 N1 1_555 1_555
C2 C1 1_555 1_555
N2 S2 1_555 1_555
O2 S1 1_555 1_555
S2 O3 1_555 1_555
C3 C2 1_555 1_555
N3 C36 1_555 1_555
C4 N1 1_555 1_555
H3 C4 1_555 1_555
H4 C4 1_555 1_555
O4 S2 1_555 1_555
C5 C3 1_555 1_555
H5 C5 1_555 1_555
H6 C5 1_555 1_555
C6 C5 1_555 1_555
C7 N2 1_555 1_555
H7 C7 1_555 1_555
H8 C7 1_555 1_555
C8 N2 1_555 1_555
H9 C8 1_555 1_555
H10 C8 1_555 1_555
C9 S1 1_555 1_555
C10 C9 1_555 1_555
H11 C10 1_555 1_555
C11 C10 1_555 1_555
H12 C11 1_555 1_555
C12 C11 1_555 1_555
H13 C12 1_555 1_555
C13 C12 1_555 1_555
H14 C13 1_555 1_555
C14 C9 1_555 1_555
H15 C14 1_555 1_555
C15 C6 1_555 1_555
H16 C15 1_555 1_555
C16 C15 1_555 1_555
C17 C16 1_555 1_555
H17 C17 1_555 1_555
C18 C17 1_555 1_555
H18 C18 1_555 1_555
C19 C18 1_555 1_555
C20 C19 1_555 1_555
H19 C20 1_555 1_555
C21 C16 1_555 1_555
H20 C21 1_555 1_555
C22 C19 1_555 1_555
H21 C22 1_555 1_555
H22 C22 1_555 1_555
H23 C22 1_555 1_555
C23 S2 1_555 1_555
C24 C23 1_555 1_555
H24 C24 1_555 1_555
C25 C24 1_555 1_555
H25 C25 1_555 1_555
C26 C25 1_555 1_555
H26 C26 1_555 1_555
C27 C26 1_555 1_555
H27 C27 1_555 1_555
C28 C23 1_555 1_555
H28 C28 1_555 1_555
C29 C2 1_555 1_555
C30 C29 1_555 1_555
C31 C30 1_555 1_555
H29 C31 1_555 1_555
C32 C31 1_555 1_555
H30 C32 1_555 1_555
C33 C32 1_555 1_555
C34 C33 1_555 1_555
H31 C34 1_555 1_555
C35 C30 1_555 1_555
H32 C35 1_555 1_555
C36 C33 1_555 1_555
C37 C29 1_555 1_555
C38 C37 1_555 1_555
H33 C38 1_555 1_555
C39 C38 1_555 1_555
H34 C39 1_555 1_555
C40 C39 1_555 1_555
C41 C40 1_555 1_555
H35 C41 1_555 1_555
C42 C37 1_555 1_555
H36 C42 1_555 1_555
C43 C40 1_555 1_555
H37 C43 1_555 1_555
H38 C43 1_555 1_555
H39 C43 1_555 1_555
C3 C4 1_555 1_555
C3 C8 1_555 1_555
C6 C7 1_555 1_555
C13 C14 1_555 1_555
C20 C21 1_555 1_555
C27 C28 1_555 1_555
C34 C35 1_555 1_555
C41 C42 1_555 1_555

#END
