
#######################################################################
#
#                 Cambridge Crystallographic Data Centre
#                                CCDC 
#
#######################################################################
#
# If this CIF has been generated from an entry in the Cambridge 
# Structural Database, then it will include bibliographic, chemical, 
# crystal, experimental, refinement or atomic coordinate data resulting 
# from the CCDC's data processing and validation procedures.
#
#######################################################################

data_EGIKEM
_chemical_formula_moiety         'C41 H33 F2 N3 O4 S2'
_chemical_name_systematic        
'4-((9-(4-Fluorobenzylidene)-2,7-bis(phenylsulfonyl)-2,7-diazaspiro[4.5]dec-4-ylidene)(4-fluorophenyl)methyl)benzonitrile unknown solvate'
_symmetry_cell_setting           monoclinic
_symmetry_space_group_name_H-M   'P 2/n'
_symmetry_Int_Tables_number      13
_space_group_name_Hall           '-P 2yac'
loop_
_symmetry_equiv_pos_site_id
_symmetry_equiv_pos_as_xyz
1 x,y,z
2 1/2-x,y,1/2-z
3 -x,-y,-z
4 1/2+x,-y,1/2+z
_cell_length_a                   13.315(3)
_cell_length_b                   12.121(3)
_cell_length_c                   24.851(6)
_cell_angle_alpha                90
_cell_angle_beta                 100.657(3)
_cell_angle_gamma                90
_cell_volume                     3941.55
_exptl_crystal_colour            colorless
_exptl_crystal_description       block
_cell_formula_units_Z            4
loop_
_atom_site_label
_atom_site_type_symbol
_atom_site_fract_x
_atom_site_fract_y
_atom_site_fract_z
C1 C 0.94046(19) 0.6128(2) 0.19834(10)
F1 F 1.25382(12) 0.16187(17) 0.06614(9)
N1 N 0.79612(13) 0.51026(15) 0.12653(7)
O1 O 0.87243(15) 0.68217(15) 0.10090(7)
S1 S 0.83569(5) 0.63301(5) 0.14546(2)
C2 C 0.9261(2) 0.5983(2) 0.25158(11)
H1 H 0.8614 0.6066 0.2601
F2 F 0.05329(13) 0.5930(2) 0.05026(9)
N2 N 0.56050(13) 0.28971(15) 0.16164(7)
O2 O 0.75502(14) 0.68446(14) 0.16717(8)
S2 S 0.52551(5) 0.22623(6) 0.21328(2)
C3 C 1.0075(2) 0.5718(3) 0.29179(12)
H2 H 0.9979 0.5643 0.3277
N3 N 0.5568(3) -0.2402(2) 0.03313(13)
O3 O 0.60502(15) 0.24406(17) 0.25982(7)
C4 C 1.0995(3) 0.5566(4) 0.28018(15)
H3 H 1.1539 0.5388 0.3080
O4 O 0.42398(14) 0.26031(17) 0.21479(8)
C5 C 1.1153(3) 0.5668(5) 0.22739(17)
H4 H 1.1796 0.5529 0.2193
C6 C 1.0353(2) 0.5980(4) 0.18610(14)
H5 H 1.0461 0.6087 0.1506
C7 C 0.72793(16) 0.44814(18) 0.15550(9)
H6 H 0.6669 0.4900 0.1581
H7 H 0.7622 0.4272 0.1920
C8 C 0.70282(15) 0.34691(17) 0.11823(8)
C9 C 0.80716(15) 0.32337(18) 0.10267(8)
C10 C 0.86801(17) 0.42985(18) 0.10967(11)
H8 H 0.9290 0.4222 0.1376
H9 H 0.8877 0.4519 0.0756
C11 C 0.84498(16) 0.22982(18) 0.08659(9)
C12 C 0.95478(16) 0.21696(18) 0.08045(10)
C13 C 1.03388(18) 0.2349(2) 0.12455(11)
H10 H 1.0193 0.2598 0.1577
C14 C 1.1350(2) 0.2158(2) 0.11955(13)
H11 H 1.1881 0.2268 0.1491
C15 C 1.15420(19) 0.1811(2) 0.07074(13)
C16 C 1.0802(2) 0.1624(3) 0.02662(13)
H12 H 1.0962 0.1378 -0.0062
C17 C 0.97893(19) 0.1810(2) 0.03177(11)
H13 H 0.9268 0.1689 0.0018
C18 C 0.78423(16) 0.12532(18) 0.07429(9)
C19 C 0.70883(18) 0.1162(2) 0.02793(10)
H14 H 0.6961 0.1753 0.0037
C20 C 0.65244(19) 0.0206(2) 0.01725(11)
H15 H 0.6017 0.0157 -0.0139
C21 C 0.67131(19) -0.06752(19) 0.05265(11)
C22 C 0.7478(2) -0.0607(2) 0.09847(12)
H16 H 0.7607 -0.1201 0.1224
C23 C 0.80501(18) 0.0348(2) 0.10861(11)
H17 H 0.8580 0.0383 0.1387
C24 C 0.6089(2) -0.1654(2) 0.04186(12)
C25 C 0.65959(16) 0.25433(17) 0.14854(9)
H18 H 0.6501 0.1886 0.1259
H19 H 0.7070 0.2369 0.1820
C26 C 0.48133(16) 0.3085(2) 0.11192(9)
H20 H 0.4170 0.3288 0.1222
H21 H 0.4709 0.2419 0.0900
C27 C 0.51888(15) 0.40048(18) 0.07992(8)
C28 C 0.62366(15) 0.38085(19) 0.06749(9)
H22 H 0.6469 0.4477 0.0522
H23 H 0.6195 0.3233 0.0400
C29 C 0.52413(19) 0.0837(2) 0.19801(11)
C30 C 0.4477(2) 0.0404(3) 0.15888(13)
H24 H 0.3943 0.0848 0.1417
C31 C 0.4513(3) -0.0713(3) 0.14530(16)
H25 H 0.4005 -0.1017 0.1187
C32 C 0.5287(4) -0.1349(3) 0.17102(18)
H26 H 0.5305 -0.2091 0.1617
C33 C 0.6024(3) -0.0943(3) 0.20924(18)
H27 H 0.6539 -0.1406 0.2268
C34 C 0.6033(2) 0.0161(3) 0.22314(14)
H28 H 0.6563 0.0448 0.2490
C35 C 0.46614(16) 0.4907(2) 0.06306(9)
H29 H 0.5025 0.5461 0.0492
C36 C 0.35702(17) 0.5155(2) 0.06323(9)
C37 C 0.3270(2) 0.6193(2) 0.07648(11)
H30 H 0.3762 0.6731 0.0879
C38 C 0.2248(2) 0.6447(3) 0.07308(12)
H31 H 0.2051 0.7141 0.0832
C39 C 0.1531(2) 0.5658(3) 0.05460(12)
C40 C 0.1787(2) 0.4634(3) 0.04023(13)
H32 H 0.1285 0.4113 0.0277
C41 C 0.28155(19) 0.4377(2) 0.04452(12)
H33 H 0.3003 0.3676 0.0348
loop_
_geom_bond_atom_site_label_1
_geom_bond_atom_site_label_2
_geom_bond_site_symmetry_1
_geom_bond_site_symmetry_2
C1 S1 1_555 1_555
F1 C15 1_555 1_555
N1 S1 1_555 1_555
O1 S1 1_555 1_555
S1 O2 1_555 1_555
C2 C1 1_555 1_555
H1 C2 1_555 1_555
F2 C39 1_555 1_555
N2 S2 1_555 1_555
S2 O3 1_555 1_555
C3 C2 1_555 1_555
H2 C3 1_555 1_555
N3 C24 1_555 1_555
C4 C3 1_555 1_555
H3 C4 1_555 1_555
O4 S2 1_555 1_555
C5 C4 1_555 1_555
H4 C5 1_555 1_555
C6 C1 1_555 1_555
H5 C6 1_555 1_555
C7 N1 1_555 1_555
H6 C7 1_555 1_555
H7 C7 1_555 1_555
C8 C7 1_555 1_555
C9 C8 1_555 1_555
C10 N1 1_555 1_555
H8 C10 1_555 1_555
H9 C10 1_555 1_555
C11 C9 1_555 1_555
C12 C11 1_555 1_555
C13 C12 1_555 1_555
H10 C13 1_555 1_555
C14 C13 1_555 1_555
H11 C14 1_555 1_555
C15 C14 1_555 1_555
C16 C15 1_555 1_555
H12 C16 1_555 1_555
C17 C12 1_555 1_555
H13 C17 1_555 1_555
C18 C11 1_555 1_555
C19 C18 1_555 1_555
H14 C19 1_555 1_555
C20 C19 1_555 1_555
H15 C20 1_555 1_555
C21 C20 1_555 1_555
C22 C21 1_555 1_555
H16 C22 1_555 1_555
C23 C18 1_555 1_555
H17 C23 1_555 1_555
C24 C21 1_555 1_555
C25 N2 1_555 1_555
H18 C25 1_555 1_555
H19 C25 1_555 1_555
C26 N2 1_555 1_555
H20 C26 1_555 1_555
H21 C26 1_555 1_555
C27 C26 1_555 1_555
C28 C8 1_555 1_555
H22 C28 1_555 1_555
H23 C28 1_555 1_555
C29 S2 1_555 1_555
C30 C29 1_555 1_555
H24 C30 1_555 1_555
C31 C30 1_555 1_555
H25 C31 1_555 1_555
C32 C31 1_555 1_555
H26 C32 1_555 1_555
C33 C32 1_555 1_555
H27 C33 1_555 1_555
C34 C29 1_555 1_555
H28 C34 1_555 1_555
C35 C27 1_555 1_555
H29 C35 1_555 1_555
C36 C35 1_555 1_555
C37 C36 1_555 1_555
H30 C37 1_555 1_555
C38 C37 1_555 1_555
H31 C38 1_555 1_555
C39 C38 1_555 1_555
C40 C39 1_555 1_555
H32 C40 1_555 1_555
C41 C36 1_555 1_555
H33 C41 1_555 1_555
C5 C6 1_555 1_555
C8 C25 1_555 1_555
C9 C10 1_555 1_555
C16 C17 1_555 1_555
C22 C23 1_555 1_555
C27 C28 1_555 1_555
C33 C34 1_555 1_555
C40 C41 1_555 1_555

#END
