
#######################################################################
#
#                 Cambridge Crystallographic Data Centre
#                                CCDC 
#
#######################################################################
#
# If this CIF has been generated from an entry in the Cambridge 
# Structural Database, then it will include bibliographic, chemical, 
# crystal, experimental, refinement or atomic coordinate data resulting 
# from the CCDC's data processing and validation procedures.
#
#######################################################################

data_EGIRIV
_chemical_formula_moiety         'C36 H60 N8 6+,C2 O4 2-,4(Cl1 O4 1-),10(H2 O1)'
_chemical_name_systematic        
'1,4,12,15,18,25,30,38-Octaazapentacyclo(13.13.13.1^6,10^.1^19,23^.1^32,36^)tritetraconta-6,8,10(41),19,21,23(42),32,34,36(43)-nonaene oxalate clathrate tetraperchlorate decahydrate'
_symmetry_cell_setting           triclinic
_symmetry_space_group_name_H-M   'P -1'
_symmetry_Int_Tables_number      2
_space_group_name_Hall           '-P 1'
loop_
_symmetry_equiv_pos_site_id
_symmetry_equiv_pos_as_xyz
1 x,y,z
2 -x,-y,-z
_cell_length_a                   11.402(4)
_cell_length_b                   13.136(6)
_cell_length_c                   20.757(7)
_cell_angle_alpha                77.440(8)
_cell_angle_beta                 77.540(11)
_cell_angle_gamma                69.446(8)
_cell_volume                     2808.09
_exptl_crystal_colour            colorless
_exptl_crystal_description       block
_cell_formula_units_Z            2
loop_
_atom_site_label
_atom_site_type_symbol
_atom_site_fract_x
_atom_site_fract_y
_atom_site_fract_z
N1 N 0.0043(6) -0.1501(4) -0.3293(3)
C1 C -0.1335(7) -0.1135(6) -0.3142(4)
H1 H -0.1676 -0.0410 -0.3416
H2 H -0.1593 -0.1038 -0.2666
C2 C -0.1903(7) -0.1935(6) -0.3274(4)
H3 H -0.2834 -0.1593 -0.3241
H4 H -0.1566 -0.2105 -0.3734
N2 N -0.1603(5) -0.2977(4) -0.2786(3)
H5 H -0.1921 -0.2816 -0.2360
H6 H -0.0737 -0.3287 -0.2814
C3 C -0.2150(7) -0.3797(6) -0.2909(4)
H7 H -0.3038 -0.3416 -0.2985
H8 H -0.1663 -0.4107 -0.3317
C4 C -0.2115(7) -0.4715(6) -0.2333(3)
C5 C -0.2961(7) -0.4538(6) -0.1742(4)
H9 H -0.3541 -0.3822 -0.1700
C6 C -0.2966(8) -0.5388(7) -0.1218(4)
H10 H -0.3545 -0.5254 -0.0817
C7 C -0.2132(7) -0.6433(7) -0.1274(4)
H11 H -0.2131 -0.7015 -0.0910
C8 C -0.1289(6) -0.6633(6) -0.1866(3)
C9 C -0.1282(6) -0.5787(5) -0.2388(3)
H12 H -0.0710 -0.5926 -0.2790
C10 C -0.0450(7) -0.7795(6) -0.1926(4)
H13 H -0.0889 -0.8313 -0.1655
H14 H -0.0296 -0.7905 -0.2397
N3 N 0.0798(5) -0.8051(4) -0.1696(3)
H15 H 0.1286 -0.7689 -0.2005
H16 H 0.0660 -0.7796 -0.1298
C11 C 0.1499(7) -0.9255(5) -0.1605(4)
H17 H 0.1812 -0.9496 -0.2049
H18 H 0.0910 -0.9658 -0.1354
C12 C 0.2604(7) -0.9544(6) -0.1236(4)
H19 H 0.2285 -0.9284 -0.0798
H20 H 0.2978 -1.0355 -0.1150
C13 C 0.0461(7) -0.1170(6) -0.4004(4)
H21 H 0.0429 -0.0391 -0.4075
H22 H -0.0145 -0.1214 -0.4266
C14 C 0.1780(7) -0.1853(6) -0.4272(4)
H23 H 0.2043 -0.1490 -0.4724
H24 H 0.2376 -0.1882 -0.3981
N4 N 0.1866(6) -0.3005(4) -0.4311(3)
H25 H 0.1637 -0.3350 -0.3891
H26 H 0.1309 -0.2982 -0.4579
C15 C 0.3154(7) -0.3640(6) -0.4582(4)
H27 H 0.3755 -0.3590 -0.4318
H28 H 0.3363 -0.3294 -0.5047
C16 C 0.3359(7) -0.4839(6) -0.4580(3)
C17 C 0.2895(7) -0.5160(6) -0.5035(3)
H29 H 0.2427 -0.4618 -0.5351
C18 C 0.3106(7) -0.6274(6) -0.5037(4)
H30 H 0.2764 -0.6482 -0.5348
C19 C 0.3805(7) -0.7072(6) -0.4592(3)
H31 H 0.3968 -0.7829 -0.4604
C20 C 0.4271(6) -0.6758(6) -0.4124(3)
C21 C 0.4049(6) -0.5653(6) -0.4126(3)
H32 H 0.4376 -0.5443 -0.3810
C22 C 0.5074(7) -0.7625(6) -0.3651(3)
H33 H 0.5674 -0.8214 -0.3898
H34 H 0.5576 -0.7292 -0.3478
N5 N 0.4298(5) -0.8124(4) -0.3073(3)
H35 H 0.3770 -0.8370 -0.3232
H36 H 0.3802 -0.7593 -0.2815
C23 C 0.5123(7) -0.9066(6) -0.2647(3)
H37 H 0.5597 -0.8780 -0.2421
H38 H 0.5748 -0.9581 -0.2936
C24 C 0.4362(7) -0.9683(6) -0.2126(4)
H39 H 0.3796 -0.9872 -0.2348
H40 H 0.4952 -1.0382 -0.1932
C25 C 0.0604(7) -0.1082(5) -0.2871(4)
H41 H 0.0086 -0.0312 -0.2824
H42 H 0.1467 -0.1086 -0.3091
C26 C 0.0677(7) -0.1777(5) -0.2181(4)
H43 H 0.0889 -0.1389 -0.1886
H44 H -0.0164 -0.1860 -0.1989
N6 N 0.1649(6) -0.2900(4) -0.2197(3)
H45 H 0.1534 -0.3330 -0.1790
H46 H 0.1513 -0.3219 -0.2515
C27 C 0.2986(7) -0.2898(6) -0.2345(5)
H47 H 0.3149 -0.2589 -0.1991
H48 H 0.3104 -0.2411 -0.2774
C28 C 0.3940(7) -0.4025(6) -0.2389(4)
C29 C 0.4850(7) -0.4172(6) -0.2959(4)
H49 H 0.4843 -0.3578 -0.3315
C30 C 0.5755(7) -0.5181(6) -0.3002(3)
H50 H 0.6377 -0.5282 -0.3390
C31 C 0.5775(7) -0.6057(5) -0.2487(3)
H51 H 0.6407 -0.6752 -0.2523
C32 C 0.4874(7) -0.5915(6) -0.1922(3)
C33 C 0.3973(7) -0.4887(6) -0.1872(3)
H52 H 0.3374 -0.4777 -0.1476
C34 C 0.4949(6) -0.6861(6) -0.1355(4)
H53 H 0.5205 -0.6686 -0.0976
H54 H 0.5615 -0.7525 -0.1500
N7 N 0.3721(5) -0.7113(5) -0.1117(3)
H55 H 0.3168 -0.6582 -0.0874
H56 H 0.3366 -0.7081 -0.1482
C35 C 0.3881(7) -0.8218(6) -0.0696(3)
H57 H 0.3049 -0.8240 -0.0440
H58 H 0.4453 -0.8327 -0.0372
C36 C 0.4419(7) -0.9145(6) -0.1105(3)
H59 H 0.5259 -0.9130 -0.1354
H60 H 0.4544 -0.9855 -0.0800
N8 N 0.3594(5) -0.9081(4) -0.1585(3)
O1 O 0.1341(4) -0.5619(4) -0.3358(2)
O2 O 0.1145(5) -0.4038(4) -0.3055(2)
C37 C 0.1727(7) -0.5676(5) -0.2268(4)
C38 C 0.1396(6) -0.5080(5) -0.2956(3)
O3 O 0.2517(5) -0.6643(4) -0.2248(2)
O4 O 0.1188(5) -0.5192(4) -0.1777(3)
Cl1 Cl 0.79749(18) -1.01647(15) -0.08548(9)
O5 O 0.8837(6) -0.9859(5) -0.0577(3)
O6 O 0.6788(6) -0.9916(5) -0.0445(3)
O7 O 0.8429(7) -1.1354(5) -0.0823(4)
O8 O 0.7913(8) -0.9669(7) -0.1516(3)
Cl2 Cl -0.54417(18) -0.08141(14) -0.37677(9)
O9 O -0.6703(8) -0.0169(9) -0.3653(5)
O10 O -0.5103(7) -0.1451(5) -0.3134(3)
O11 O -0.4690(9) -0.0127(6) -0.4004(4)
O12 O -0.5302(10) -0.1519(7) -0.4198(4)
Cl3 Cl -0.12716(18) 0.20440(14) -0.36877(9)
O13 O -0.1537(7) 0.3189(4) -0.3694(3)
O14 O 0.0071(5) 0.1528(4) -0.3740(3)
O15 O -0.1884(6) 0.1594(4) -0.3061(3)
O16 O -0.1689(7) 0.1843(7) -0.4226(3)
Cl4 Cl 0.42815(19) -0.28569(14) -0.05599(8)
O17 O 0.4314(9) -0.2360(6) -0.1234(3)
O18 O 0.3434(6) -0.2141(5) -0.0111(3)
O19 O 0.3955(9) -0.3816(6) -0.0501(4)
O20 O 0.5513(8) -0.3151(9) -0.0417(5)
O21 O 0.1819(5) -0.7866(4) -0.3179(3)
O22 O 0.1095(6) -0.3470(5) -0.0781(3)
O23 O 0.7499(6) -0.4484(5) 0.0223(3)
O24 O 0.0834(6) -0.6908(5) -0.0710(3)
O25 O -0.2893(7) -0.2026(5) -0.1632(3)
O26 O -0.0922(7) -0.3955(8) -0.0914(4)
O27 O 1.0834(10) -1.1734(7) -0.0195(6)
O28 O -0.7723(8) 0.0982(7) -0.4976(4)
O29 O -0.0260(8) -0.5206(8) -0.4276(5)
O30 O -0.0311(7) -0.2994(6) -0.4772(4)
loop_
_geom_bond_atom_site_label_1
_geom_bond_atom_site_label_2
_geom_bond_site_symmetry_1
_geom_bond_site_symmetry_2
N1 C1 1_555 1_555
C1 H1 1_555 1_555
H2 C1 1_555 1_555
C2 C1 1_555 1_555
H3 C2 1_555 1_555
H4 C2 1_555 1_555
N2 C2 1_555 1_555
H5 N2 1_555 1_555
H6 N2 1_555 1_555
C3 N2 1_555 1_555
H7 C3 1_555 1_555
H8 C3 1_555 1_555
C4 C3 1_555 1_555
C5 C4 1_555 1_555
H9 C5 1_555 1_555
C6 C5 1_555 1_555
H10 C6 1_555 1_555
C7 C6 1_555 1_555
H11 C7 1_555 1_555
C8 C7 1_555 1_555
C9 C4 1_555 1_555
H12 C9 1_555 1_555
C10 C8 1_555 1_555
H13 C10 1_555 1_555
H14 C10 1_555 1_555
N3 C10 1_555 1_555
H15 N3 1_555 1_555
H16 N3 1_555 1_555
C11 N3 1_555 1_555
H17 C11 1_555 1_555
H18 C11 1_555 1_555
C12 C11 1_555 1_555
H19 C12 1_555 1_555
H20 C12 1_555 1_555
C13 N1 1_555 1_555
H21 C13 1_555 1_555
H22 C13 1_555 1_555
C14 C13 1_555 1_555
H23 C14 1_555 1_555
H24 C14 1_555 1_555
N4 C14 1_555 1_555
H25 N4 1_555 1_555
H26 N4 1_555 1_555
C15 N4 1_555 1_555
H27 C15 1_555 1_555
H28 C15 1_555 1_555
C16 C15 1_555 1_555
C17 C16 1_555 1_555
H29 C17 1_555 1_555
C18 C17 1_555 1_555
H30 C18 1_555 1_555
C19 C18 1_555 1_555
H31 C19 1_555 1_555
C20 C19 1_555 1_555
C21 C16 1_555 1_555
H32 C21 1_555 1_555
C22 C20 1_555 1_555
H33 C22 1_555 1_555
H34 C22 1_555 1_555
N5 C22 1_555 1_555
H35 N5 1_555 1_555
H36 N5 1_555 1_555
C23 N5 1_555 1_555
H37 C23 1_555 1_555
H38 C23 1_555 1_555
C24 C23 1_555 1_555
H39 C24 1_555 1_555
H40 C24 1_555 1_555
C25 N1 1_555 1_555
H41 C25 1_555 1_555
H42 C25 1_555 1_555
C26 C25 1_555 1_555
H43 C26 1_555 1_555
H44 C26 1_555 1_555
N6 C26 1_555 1_555
H45 N6 1_555 1_555
H46 N6 1_555 1_555
C27 N6 1_555 1_555
H47 C27 1_555 1_555
H48 C27 1_555 1_555
C28 C27 1_555 1_555
C29 C28 1_555 1_555
H49 C29 1_555 1_555
C30 C29 1_555 1_555
H50 C30 1_555 1_555
C31 C30 1_555 1_555
H51 C31 1_555 1_555
C32 C31 1_555 1_555
C33 C28 1_555 1_555
H52 C33 1_555 1_555
C34 C32 1_555 1_555
H53 C34 1_555 1_555
H54 C34 1_555 1_555
N7 C34 1_555 1_555
H55 N7 1_555 1_555
H56 N7 1_555 1_555
C35 N7 1_555 1_555
H57 C35 1_555 1_555
H58 C35 1_555 1_555
C36 C35 1_555 1_555
H59 C36 1_555 1_555
H60 C36 1_555 1_555
N8 C12 1_555 1_555
O1 C38 1_555 1_555
O2 C38 1_555 1_555
C37 C38 1_555 1_555
O3 C37 1_555 1_555
O4 C37 1_555 1_555
Cl1 O5 1_555 1_555
O6 Cl1 1_555 1_555
O7 Cl1 1_555 1_555
O8 Cl1 1_555 1_555
Cl2 O9 1_555 1_555
O10 Cl2 1_555 1_555
O11 Cl2 1_555 1_555
O12 Cl2 1_555 1_555
Cl3 O13 1_555 1_555
O14 Cl3 1_555 1_555
O15 Cl3 1_555 1_555
O16 Cl3 1_555 1_555
Cl4 O17 1_555 1_555
O18 Cl4 1_555 1_555
O19 Cl4 1_555 1_555
O20 Cl4 1_555 1_555
C8 C9 1_555 1_555
C20 C21 1_555 1_555
C24 N8 1_555 1_555
C32 C33 1_555 1_555
C36 N8 1_555 1_555

#END
