
#######################################################################
#
#                 Cambridge Crystallographic Data Centre
#                                CCDC 
#
#######################################################################
#
# If this CIF has been generated from an entry in the Cambridge 
# Structural Database, then it will include bibliographic, chemical, 
# crystal, experimental, refinement or atomic coordinate data resulting 
# from the CCDC's data processing and validation procedures.
#
#######################################################################

data_EGOLOC
_chemical_compound_source        'twigs and leaves of Dysoxylum hainanense Merr'
_chemical_formula_moiety         'C28 H44 O4'
_chemical_name_systematic        'Dysoxyhainanin B'
_chemical_properties_biological  
'inactive against various tested bacteria and fungi'
_symmetry_cell_setting           monoclinic
_symmetry_space_group_name_H-M   'P 21'
_symmetry_Int_Tables_number      4
_space_group_name_Hall           'P 2yb'
loop_
_symmetry_equiv_pos_site_id
_symmetry_equiv_pos_as_xyz
1 x,y,z
2 -x,1/2+y,-z
_cell_length_a                   6.7687(9)
_cell_length_b                   14.2706(19)
_cell_length_c                   13.3312(17)
_cell_angle_alpha                90
_cell_angle_beta                 97.478(2)
_cell_angle_gamma                90
_cell_volume                     1276.75
_exptl_crystal_colour            colorless
_exptl_crystal_description       prismatic
_cell_formula_units_Z            2
_exptl_crystal_recrystallization_method methanol
loop_
_atom_site_label
_atom_site_type_symbol
_atom_site_fract_x
_atom_site_fract_y
_atom_site_fract_z
O1 O 0.9064(3) 0.14539(16) 0.52467(19)
O2 O 0.7849(3) 0.28695(14) 0.54217(15)
O3 O 0.7098(2) 0.41571(14) 0.62315(14)
O4 O 0.4879(3) 0.56906(19) 0.52621(16)
C1 C 0.9345(4) 0.2240(2) 0.5500(2)
C2 C 1.1299(4) 0.2711(2) 0.5938(2)
C3 C 1.0601(4) 0.3664(2) 0.6310(2)
H1 H 1.1514 0.4153 0.6134
C4 C 1.0454(5) 0.3721(2) 0.7439(2)
H2 H 0.9321 0.3350 0.7580
H3 H 1.1640 0.3440 0.7805
C5 C 1.0230(5) 0.4703(3) 0.7845(2)
H4 H 1.1152 0.5105 0.7548
H5 H 1.0663 0.4687 0.8568
C6 C 0.8152(4) 0.5179(2) 0.7680(2)
C7 C 0.7310(3) 0.51162(19) 0.65537(19)
H6 H 0.8218 0.5437 0.6152
C8 C 0.8553(4) 0.3805(2) 0.5666(2)
C9 C 0.5255(4) 0.5552(2) 0.6334(2)
H7 H 0.4278 0.5102 0.6527
C10 C 0.5071(4) 0.6436(2) 0.6915(2)
H8 H 0.3949 0.6800 0.6718
C11 C 0.6338(4) 0.6758(2) 0.7683(2)
C12 C 0.8324(4) 0.6240(2) 0.8016(2)
C13 C 0.8925(4) 0.6323(2) 0.9174(2)
H9 H 0.8151 0.5877 0.9510
H10 H 1.0318 0.6155 0.9334
C14 C 0.8613(5) 0.7296(3) 0.9589(2)
H11 H 0.9481 0.7734 0.9302
H12 H 0.8993 0.7290 1.0316
C15 C 0.6444(4) 0.7642(3) 0.9358(2)
C16 C 0.5863(4) 0.7666(2) 0.8200(2)
H13 H 0.4408 0.7722 0.8091
C17 C 0.6652(5) 0.8535(3) 0.7703(2)
H14 H 0.8082 0.8467 0.7716
H15 H 0.6070 0.8549 0.6999
C18 C 0.6247(6) 0.9474(3) 0.8181(3)
C19 C 0.7072(6) 0.9416(3) 0.9313(3)
H16 H 0.8509 0.9347 0.9382
H17 H 0.6774 0.9995 0.9644
C20 C 0.6195(5) 0.8606(3) 0.9826(2)
H18 H 0.4783 0.8722 0.9825
H19 H 0.6801 0.8589 1.0526
C21 C 1.2588(5) 0.2824(3) 0.5073(3)
H20 H 1.3813 0.3133 0.5326
H21 H 1.1880 0.3192 0.4541
H22 H 1.2875 0.2218 0.4816
C22 C 1.2399(6) 0.2055(3) 0.6726(3)
H23 H 1.1533 0.1885 0.7212
H24 H 1.3556 0.2367 0.7063
H25 H 1.2799 0.1500 0.6398
C23 C 0.8525(5) 0.4331(3) 0.4674(2)
H26 H 0.7175 0.4481 0.4409
H27 H 0.9099 0.3945 0.4197
H28 H 0.9284 0.4898 0.4787
C24 C 0.6758(5) 0.4630(3) 0.8292(2)
H29 H 0.5594 0.4998 0.8354
H30 H 0.7441 0.4494 0.8953
H31 H 0.6369 0.4054 0.7949
C25 C 0.9944(4) 0.6749(2) 0.7503(2)
H32 H 0.9659 0.6680 0.6782
H33 H 1.1223 0.6479 0.7732
H34 H 0.9955 0.7402 0.7676
C26 C 0.5065(6) 0.6959(3) 0.9824(3)
H35 H 0.5526 0.6882 1.0531
H36 H 0.5075 0.6363 0.9490
H37 H 0.3734 0.7205 0.9742
C27 C 0.7326(10) 1.0266(4) 0.7679(4)
H38 H 0.8724 1.0127 0.7734
H39 H 0.7136 1.0849 0.8013
H40 H 0.6789 1.0313 0.6978
C28 C 0.4009(7) 0.9703(3) 0.8060(3)
H41 H 0.3522 0.9774 0.7355
H42 H 0.3803 1.0276 0.8410
H43 H 0.3305 0.9203 0.8339
H44 H 0.396(4) 0.608(2) 0.516(3)
loop_
_geom_bond_atom_site_label_1
_geom_bond_atom_site_label_2
_geom_bond_site_symmetry_1
_geom_bond_site_symmetry_2
O1 C1 1_555 1_555
O2 C1 1_555 1_555
O3 C7 1_555 1_555
O4 C9 1_555 1_555
C1 C2 1_555 1_555
C2 C3 1_555 1_555
C3 H1 1_555 1_555
C4 C3 1_555 1_555
H2 C4 1_555 1_555
H3 C4 1_555 1_555
C5 C4 1_555 1_555
H4 C5 1_555 1_555
H5 C5 1_555 1_555
C6 C5 1_555 1_555
C7 C6 1_555 1_555
H6 C7 1_555 1_555
C8 O2 1_555 1_555
C9 C7 1_555 1_555
H7 C9 1_555 1_555
C10 C9 1_555 1_555
H8 C10 1_555 1_555
C11 C10 1_555 1_555
C12 C6 1_555 1_555
C13 C12 1_555 1_555
H9 C13 1_555 1_555
H10 C13 1_555 1_555
C14 C13 1_555 1_555
H11 C14 1_555 1_555
H12 C14 1_555 1_555
C15 C14 1_555 1_555
C16 C11 1_555 1_555
H13 C16 1_555 1_555
C17 C16 1_555 1_555
H14 C17 1_555 1_555
H15 C17 1_555 1_555
C18 C17 1_555 1_555
C19 C18 1_555 1_555
H16 C19 1_555 1_555
H17 C19 1_555 1_555
C20 C15 1_555 1_555
H18 C20 1_555 1_555
H19 C20 1_555 1_555
C21 C2 1_555 1_555
H20 C21 1_555 1_555
H21 C21 1_555 1_555
H22 C21 1_555 1_555
C22 C2 1_555 1_555
H23 C22 1_555 1_555
H24 C22 1_555 1_555
H25 C22 1_555 1_555
C23 C8 1_555 1_555
H26 C23 1_555 1_555
H27 C23 1_555 1_555
H28 C23 1_555 1_555
C24 C6 1_555 1_555
H29 C24 1_555 1_555
H30 C24 1_555 1_555
H31 C24 1_555 1_555
C25 C12 1_555 1_555
H32 C25 1_555 1_555
H33 C25 1_555 1_555
H34 C25 1_555 1_555
C26 C15 1_555 1_555
H35 C26 1_555 1_555
H36 C26 1_555 1_555
H37 C26 1_555 1_555
C27 C18 1_555 1_555
H38 C27 1_555 1_555
H39 C27 1_555 1_555
H40 C27 1_555 1_555
C28 C18 1_555 1_555
H41 C28 1_555 1_555
H42 C28 1_555 1_555
H43 C28 1_555 1_555
H44 O4 1_555 1_555
O3 C8 1_555 1_555
C3 C8 1_555 1_555
C11 C12 1_555 1_555
C15 C16 1_555 1_555
C19 C20 1_555 1_555

#END
