
#######################################################################
#
#                 Cambridge Crystallographic Data Centre
#                                CCDC 
#
#######################################################################
#
# If this CIF has been generated from an entry in the Cambridge 
# Structural Database, then it will include bibliographic, chemical, 
# crystal, experimental, refinement or atomic coordinate data resulting 
# from the CCDC's data processing and validation procedures.
#
#######################################################################

data_EGUPON
_chemical_formula_moiety         'C30 H54 N2 O2,C1 H4 O1'
_chemical_name_systematic        
'6-(dodecylamino)-4-(dodecyliminio)-3-oxocyclohexa-1,5-dien-1-olate methanol solvate'
_symmetry_cell_setting           triclinic
_symmetry_space_group_name_H-M   'P -1'
_symmetry_Int_Tables_number      2
_space_group_name_Hall           '-P 1'
loop_
_symmetry_equiv_pos_site_id
_symmetry_equiv_pos_as_xyz
1 x,y,z
2 -x,-y,-z
_cell_length_a                   6.6943(6)
_cell_length_b                   15.4475(15)
_cell_length_c                   15.5647(15)
_cell_angle_alpha                94.6260(10)
_cell_angle_beta                 98.4530(10)
_cell_angle_gamma                101.5280(10)
_cell_volume                     1549.86
_cell_formula_units_Z            2
loop_
_atom_site_label
_atom_site_type_symbol
_atom_site_fract_x
_atom_site_fract_y
_atom_site_fract_z
O1 O 0.4545(2) 0.10389(9) 0.49674(10)
N1 N 0.2515(2) 0.42200(10) 0.57395(10)
H1 H 0.3320 0.4680 0.5578
C1 C 0.2921(3) 0.34246(11) 0.55767(11)
O2 O 0.5736(2) 0.41488(8) 0.49523(10)
N2 N 0.1333(3) 0.10567(11) 0.57325(13)
H2 H 0.1862 0.0593 0.5611
C2 C 0.4792(3) 0.34185(11) 0.51225(12)
C3 C 0.5317(3) 0.25969(12) 0.49311(13)
H3 H 0.6478 0.2584 0.4649
C4 C 0.4208(3) 0.18004(12) 0.51371(12)
C5 C 0.2362(3) 0.18400(12) 0.55963(13)
C6 C 0.1779(3) 0.26449(12) 0.57958(13)
H4 H 0.0616 0.2657 0.6077
C7 C 0.0802(3) 0.43781(11) 0.61737(12)
H5 H 0.0912 0.4135 0.6744
H6 H -0.0524 0.4061 0.5811
C8 C 0.0806(3) 0.53651(11) 0.63197(13)
H7 H 0.0722 0.5609 0.5750
H8 H 0.2126 0.5679 0.6689
C9 C -0.0990(3) 0.55423(11) 0.67591(13)
H9 H -0.0911 0.5297 0.7328
H10 H -0.2311 0.5231 0.6389
C10 C -0.0973(3) 0.65362(11) 0.69084(12)
H11 H 0.0360 0.6846 0.7270
H12 H -0.1064 0.6778 0.6337
C11 C -0.2737(3) 0.67370(11) 0.73582(13)
H13 H -0.2666 0.6483 0.7923
H14 H -0.4070 0.6439 0.6990
C12 C -0.2690(3) 0.77306(11) 0.75266(12)
H15 H -0.1329 0.8034 0.7869
H16 H -0.2839 0.7979 0.6959
C13 C -0.4389(3) 0.79287(11) 0.80183(13)
H17 H -0.4224 0.7690 0.8590
H18 H -0.5748 0.7615 0.7681
C14 C -0.4376(3) 0.89212(11) 0.81745(13)
H19 H -0.3035 0.9232 0.8529
H20 H -0.4496 0.9165 0.7605
C15 C -0.6125(3) 0.91101(12) 0.86415(13)
H21 H -0.7460 0.8777 0.8298
H22 H -0.5970 0.8884 0.9220
C16 C -0.6196(3) 1.00939(12) 0.87738(13)
H23 H -0.4871 1.0429 0.9123
H24 H -0.6350 1.0323 0.8197
C17 C -0.7969(3) 1.02567(13) 0.92363(14)
H25 H -0.9295 0.9944 0.8872
H26 H -0.7855 0.9997 0.9798
C18 C -0.8009(4) 1.12386(14) 0.94172(15)
H27 H -0.6730 1.1549 0.9802
H28 H -0.9198 1.1295 0.9701
H29 H -0.8124 1.1502 0.8865
C19 C -0.0657(3) 0.08937(14) 0.60761(15)
H30 H -0.1475 0.0292 0.5840
H31 H -0.1470 0.1333 0.5883
C20 C -0.0247(4) 0.09693(16) 0.70635(16)
H32 H 0.0972 0.1454 0.7292
H33 H 0.0057 0.0407 0.7256
C21 C -0.2157(4) 0.11660(15) 0.74306(17)
H34 H -0.3428 0.0789 0.7076
H35 H -0.2088 0.1012 0.8038
C22 C -0.2267(3) 0.21472(13) 0.74199(15)
H36 H -0.0947 0.2521 0.7738
H37 H -0.2420 0.2286 0.6807
C23 C -0.4032(3) 0.23905(13) 0.78281(14)
H38 H -0.3967 0.2195 0.8420
H39 H -0.5361 0.2067 0.7473
C24 C -0.3979(3) 0.33855(13) 0.78963(14)
H40 H -0.2624 0.3710 0.8229
H41 H -0.4105 0.3575 0.7302
C25 C -0.5693(3) 0.36401(13) 0.83416(14)
H42 H -0.7047 0.3334 0.7994
H43 H -0.5604 0.3425 0.8925
C26 C -0.5606(3) 0.46367(13) 0.84499(14)
H44 H -0.5738 0.4851 0.7866
H45 H -0.4244 0.4946 0.8787
C27 C -0.7307(3) 0.48733(13) 0.89173(14)
H46 H -0.7180 0.4650 0.9497
H47 H -0.8665 0.4563 0.8577
C28 C -0.7260(3) 0.58688(13) 0.90445(13)
H48 H -0.5898 0.6184 0.9378
H49 H -0.7421 0.6093 0.8466
C29 C -0.8958(3) 0.60785(13) 0.95280(15)
H50 H -0.8783 0.5858 1.0109
H51 H -1.0315 0.5754 0.9198
C30 C -0.8964(4) 0.70671(15) 0.96535(17)
H52 H -0.7626 0.7394 0.9981
H53 H -1.0066 0.7158 0.9979
H54 H -0.9203 0.7285 0.9081
O3 O 0.7193(2) 0.05007(9) 0.39762(10)
C31 C 0.8455(3) 0.12546(13) 0.37294(14)
H55 H 0.9217 0.1640 0.4254
H56 H 0.7589 0.1582 0.3378
H57 H 0.9436 0.1065 0.3384
H58 H 0.649(4) 0.0665(18) 0.4253(18)
loop_
_geom_bond_atom_site_label_1
_geom_bond_atom_site_label_2
_geom_bond_site_symmetry_1
_geom_bond_site_symmetry_2
O1 C4 1_555 1_555
N1 H1 1_555 1_555
C1 N1 1_555 1_555
O2 C2 1_555 1_555
N2 H2 1_555 1_555
C2 C1 1_555 1_555
C3 C2 1_555 1_555
H3 C3 1_555 1_555
C4 C3 1_555 1_555
C5 N2 1_555 1_555
C6 C1 1_555 1_555
H4 C6 1_555 1_555
C7 N1 1_555 1_555
H5 C7 1_555 1_555
H6 C7 1_555 1_555
C8 C7 1_555 1_555
H7 C8 1_555 1_555
H8 C8 1_555 1_555
C9 C8 1_555 1_555
H9 C9 1_555 1_555
H10 C9 1_555 1_555
C10 C9 1_555 1_555
H11 C10 1_555 1_555
H12 C10 1_555 1_555
C11 C10 1_555 1_555
H13 C11 1_555 1_555
H14 C11 1_555 1_555
C12 C11 1_555 1_555
H15 C12 1_555 1_555
H16 C12 1_555 1_555
C13 C12 1_555 1_555
H17 C13 1_555 1_555
H18 C13 1_555 1_555
C14 C13 1_555 1_555
H19 C14 1_555 1_555
H20 C14 1_555 1_555
C15 C14 1_555 1_555
H21 C15 1_555 1_555
H22 C15 1_555 1_555
C16 C15 1_555 1_555
H23 C16 1_555 1_555
H24 C16 1_555 1_555
C17 C16 1_555 1_555
H25 C17 1_555 1_555
H26 C17 1_555 1_555
C18 C17 1_555 1_555
H27 C18 1_555 1_555
H28 C18 1_555 1_555
H29 C18 1_555 1_555
C19 N2 1_555 1_555
H30 C19 1_555 1_555
H31 C19 1_555 1_555
C20 C19 1_555 1_555
H32 C20 1_555 1_555
H33 C20 1_555 1_555
C21 C20 1_555 1_555
H34 C21 1_555 1_555
H35 C21 1_555 1_555
C22 C21 1_555 1_555
H36 C22 1_555 1_555
H37 C22 1_555 1_555
C23 C22 1_555 1_555
H38 C23 1_555 1_555
H39 C23 1_555 1_555
C24 C23 1_555 1_555
H40 C24 1_555 1_555
H41 C24 1_555 1_555
C25 C24 1_555 1_555
H42 C25 1_555 1_555
H43 C25 1_555 1_555
C26 C25 1_555 1_555
H44 C26 1_555 1_555
H45 C26 1_555 1_555
C27 C26 1_555 1_555
H46 C27 1_555 1_555
H47 C27 1_555 1_555
C28 C27 1_555 1_555
H48 C28 1_555 1_555
H49 C28 1_555 1_555
C29 C28 1_555 1_555
H50 C29 1_555 1_555
H51 C29 1_555 1_555
C30 C29 1_555 1_555
H52 C30 1_555 1_555
H53 C30 1_555 1_555
H54 C30 1_555 1_555
O3 C31 1_555 1_555
C31 H55 1_555 1_555
H56 C31 1_555 1_555
H57 C31 1_555 1_555
H58 O3 1_555 1_555
C4 C5 1_555 1_555
C5 C6 1_555 1_555

#END
