
#######################################################################
#
#                 Cambridge Crystallographic Data Centre
#                                CCDC 
#
#######################################################################
#
# If this CIF has been generated from an entry in the Cambridge 
# Structural Database, then it will include bibliographic, chemical, 
# crystal, experimental, refinement or atomic coordinate data resulting 
# from the CCDC's data processing and validation procedures.
#
#######################################################################

data_EGUSIJ
_chemical_formula_moiety         'C20 H26 N2 O3,0.5(H2 O1)'
_chemical_name_systematic        
'(6-(4-(2-Ethoxyphenyldiazenyl)phenoxy)hexanol) hemihydrate'
_symmetry_cell_setting           triclinic
_symmetry_space_group_name_H-M   'P -1'
_symmetry_Int_Tables_number      2
_space_group_name_Hall           '-P 1'
loop_
_symmetry_equiv_pos_site_id
_symmetry_equiv_pos_as_xyz
1 x,y,z
2 -x,-y,-z
_cell_length_a                   7.4586(7)
_cell_length_b                   11.5674(11)
_cell_length_c                   24.070(2)
_cell_angle_alpha                90.46(3)
_cell_angle_beta                 98.46(3)
_cell_angle_gamma                106.10(3)
_cell_volume                     1970.91
_exptl_crystal_colour            yellow
_exptl_crystal_description       block
_cell_formula_units_Z            4
_exptl_crystal_recrystallization_method ethanol
loop_
_atom_site_label
_atom_site_type_symbol
_atom_site_fract_x
_atom_site_fract_y
_atom_site_fract_z
O1 O 0.5276(4) 0.9282(2) -0.24533(12)
H1 H 0.4522 0.8576 -0.2505
H2 H 0.4667 0.9734 -0.2339
O2 O -0.2094(4) 0.8215(3) 0.72415(13)
H3 H -0.2390 0.8873 0.7249
O3 O -0.2623(4) 0.2599(2) 0.47771(11)
O4 O -0.2369(4) -0.2649(2) 0.26105(10)
N1 N -0.2457(5) -0.2022(3) 0.41759(13)
N2 N -0.2520(4) -0.2221(2) 0.36679(13)
C1 C -0.2298(6) 0.7803(4) 0.66703(19)
H4 H -0.1298 0.8320 0.6495
H5 H -0.3495 0.7864 0.6472
C2 C -0.2224(6) 0.6527(3) 0.66147(16)
H6 H -0.3242 0.6014 0.6784
H7 H -0.1043 0.6467 0.6825
C3 C -0.2381(6) 0.6057(3) 0.60160(16)
H8 H -0.1302 0.6523 0.5856
H9 H -0.3509 0.6176 0.5796
C4 C -0.2468(5) 0.4737(3) 0.59679(15)
H10 H -0.3572 0.4271 0.6117
H11 H -0.1363 0.4615 0.6200
C5 C -0.2556(6) 0.4259(3) 0.53730(15)
H12 H -0.3703 0.4327 0.5144
H13 H -0.1490 0.4747 0.5214
C6 C -0.2523(6) 0.2965(3) 0.53547(15)
H14 H -0.1369 0.2886 0.5575
H15 H -0.3589 0.2464 0.5509
C7 C -0.2574(5) 0.1447(3) 0.46608(16)
C8 C -0.2501(6) 0.0598(3) 0.50434(16)
H16 H -0.2476 0.0779 0.5422
C9 C -0.2466(6) -0.0536(4) 0.48678(16)
H17 H -0.2415 -0.1114 0.5131
C10 C -0.2504(5) -0.0821(3) 0.43104(15)
C11 C -0.2537(6) 0.0043(3) 0.39299(16)
H18 H -0.2522 -0.0129 0.3553
C12 C -0.2592(6) 0.1153(4) 0.40993(16)
H19 H -0.2643 0.1728 0.3834
C13 C -0.2518(5) -0.3409(3) 0.35068(15)
C14 C -0.2609(5) -0.4337(3) 0.38626(16)
H20 H -0.2637 -0.4199 0.4242
C15 C -0.2659(5) -0.5478(3) 0.36662(18)
H21 H -0.2720 -0.6102 0.3910
C16 C -0.2618(5) -0.5669(4) 0.31014(19)
H22 H -0.2657 -0.6431 0.2965
C17 C -0.2520(5) -0.4757(3) 0.27399(17)
H23 H -0.2481 -0.4901 0.2362
C18 C -0.2479(5) -0.3613(3) 0.29358(15)
C19 C -0.2130(6) -0.2753(3) 0.20418(15)
H24 H -0.3237 -0.3317 0.1829
H25 H -0.1040 -0.3042 0.2016
C20 C -0.1848(6) -0.1522(4) 0.18134(17)
H26 H -0.1668 -0.1557 0.1428
H27 H -0.0755 -0.0972 0.2029
H28 H -0.2940 -0.1250 0.1838
O5 O 0.1625(4) 0.8614(2) -0.22791(12)
H29 H 0.0704 0.8070 -0.2458
O6 O 0.2453(4) 0.3308(2) 0.01659(10)
O7 O 0.2785(4) -0.1956(2) 0.24180(10)
N3 N 0.2699(5) -0.1229(3) 0.08391(13)
N4 N 0.2798(4) -0.1396(2) 0.13469(12)
C21 C 0.1799(6) 0.8282(4) -0.17127(19)
H30 H 0.0667 0.8301 -0.1564
H31 H 0.2857 0.8874 -0.1494
C22 C 0.2088(6) 0.7064(3) -0.16406(16)
H32 H 0.3261 0.7065 -0.1769
H33 H 0.1073 0.6484 -0.1881
C23 C 0.2158(6) 0.6645(3) -0.10461(16)
H34 H 0.3228 0.7186 -0.0808
H35 H 0.1020 0.6683 -0.0906
C24 C 0.2325(6) 0.5374(3) -0.10095(15)
H36 H 0.1279 0.4842 -0.1260
H37 H 0.3484 0.5346 -0.1139
C25 C 0.2330(6) 0.4913(3) -0.04241(15)
H38 H 0.3431 0.5407 -0.0179
H39 H 0.1217 0.4995 -0.0282
C26 C 0.2352(6) 0.3623(3) -0.04032(15)
H40 H 0.1215 0.3109 -0.0626
H41 H 0.3435 0.3519 -0.0555
C27 C 0.2510(5) 0.2175(3) 0.03082(15)
C28 C 0.2504(6) 0.1940(3) 0.08671(16)
H42 H 0.2452 0.2539 0.1119
C29 C 0.2573(6) 0.0849(3) 0.10573(15)
H43 H 0.2566 0.0707 0.1437
C30 C 0.2656(5) -0.0058(3) 0.06852(15)
C31 C 0.2649(7) 0.0181(4) 0.01333(16)
H44 H 0.2687 -0.0422 -0.0119
C32 C 0.2589(7) 0.1291(4) -0.00667(17)
H45 H 0.2601 0.1436 -0.0446
C33 C 0.2824(5) -0.2583(3) 0.14889(15)
C34 C 0.2858(5) -0.3467(3) 0.11001(16)
H46 H 0.2862 -0.3292 0.0724
C35 C 0.2887(5) -0.4604(3) 0.12658(19)
H47 H 0.2898 -0.5191 0.1001
C36 C 0.2898(5) -0.4861(3) 0.1814(2)
H48 H 0.2926 -0.5627 0.1922
C37 C 0.2870(5) -0.4001(3) 0.22214(17)
H49 H 0.2871 -0.4187 0.2597
C38 C 0.2839(5) -0.2860(3) 0.20512(16)
C39 C 0.2613(6) -0.2236(4) 0.29842(15)
H50 H 0.3771 -0.2374 0.3173
H51 H 0.1586 -0.2960 0.2996
C40 C 0.2227(7) -0.1189(4) 0.32730(17)
H52 H 0.2108 -0.1361 0.3658
H53 H 0.1075 -0.1062 0.3085
H54 H 0.3252 -0.0477 0.3261
loop_
_geom_bond_atom_site_label_1
_geom_bond_atom_site_label_2
_geom_bond_site_symmetry_1
_geom_bond_site_symmetry_2
O1 H1 1_555 1_555
H2 O1 1_555 1_555
O2 H3 1_555 1_555
O3 C6 1_555 1_555
O4 C18 1_555 1_555
N1 N2 1_555 1_555
N2 C13 1_555 1_555
C1 O2 1_555 1_555
H4 C1 1_555 1_555
H5 C1 1_555 1_555
C2 C1 1_555 1_555
H6 C2 1_555 1_555
H7 C2 1_555 1_555
C3 C2 1_555 1_555
H8 C3 1_555 1_555
H9 C3 1_555 1_555
C4 C3 1_555 1_555
H10 C4 1_555 1_555
H11 C4 1_555 1_555
C5 C4 1_555 1_555
H12 C5 1_555 1_555
H13 C5 1_555 1_555
C6 C5 1_555 1_555
H14 C6 1_555 1_555
H15 C6 1_555 1_555
C7 O3 1_555 1_555
C8 C7 1_555 1_555
H16 C8 1_555 1_555
C9 C8 1_555 1_555
H17 C9 1_555 1_555
C10 N1 1_555 1_555
C11 C10 1_555 1_555
H18 C11 1_555 1_555
C12 C7 1_555 1_555
H19 C12 1_555 1_555
C13 C14 1_555 1_555
C14 H20 1_555 1_555
C15 C14 1_555 1_555
H21 C15 1_555 1_555
C16 C15 1_555 1_555
H22 C16 1_555 1_555
C17 C16 1_555 1_555
H23 C17 1_555 1_555
C18 C13 1_555 1_555
C19 O4 1_555 1_555
H24 C19 1_555 1_555
H25 C19 1_555 1_555
C20 C19 1_555 1_555
H26 C20 1_555 1_555
H27 C20 1_555 1_555
H28 C20 1_555 1_555
O5 H29 1_555 1_555
O6 C26 1_555 1_555
O7 C38 1_555 1_555
N3 N4 1_555 1_555
N4 C33 1_555 1_555
C21 O5 1_555 1_555
H30 C21 1_555 1_555
H31 C21 1_555 1_555
C22 C21 1_555 1_555
H32 C22 1_555 1_555
H33 C22 1_555 1_555
C23 C22 1_555 1_555
H34 C23 1_555 1_555
H35 C23 1_555 1_555
C24 C23 1_555 1_555
H36 C24 1_555 1_555
H37 C24 1_555 1_555
C25 C24 1_555 1_555
H38 C25 1_555 1_555
H39 C25 1_555 1_555
C26 C25 1_555 1_555
H40 C26 1_555 1_555
H41 C26 1_555 1_555
C27 O6 1_555 1_555
C28 C27 1_555 1_555
H42 C28 1_555 1_555
C29 C28 1_555 1_555
H43 C29 1_555 1_555
C30 N3 1_555 1_555
C31 C30 1_555 1_555
H44 C31 1_555 1_555
C32 C27 1_555 1_555
H45 C32 1_555 1_555
C33 C34 1_555 1_555
C34 H46 1_555 1_555
C35 C34 1_555 1_555
H47 C35 1_555 1_555
C36 C35 1_555 1_555
H48 C36 1_555 1_555
C37 C36 1_555 1_555
H49 C37 1_555 1_555
C38 C33 1_555 1_555
C39 O7 1_555 1_555
H50 C39 1_555 1_555
H51 C39 1_555 1_555
C40 C39 1_555 1_555
H52 C40 1_555 1_555
H53 C40 1_555 1_555
H54 C40 1_555 1_555
C9 C10 1_555 1_555
C11 C12 1_555 1_555
C17 C18 1_555 1_555
C29 C30 1_555 1_555
C31 C32 1_555 1_555
C37 C38 1_555 1_555

#END
