
#######################################################################
#
#                 Cambridge Crystallographic Data Centre
#                                CCDC 
#
#######################################################################
#
# If this CIF has been generated from an entry in the Cambridge 
# Structural Database, then it will include bibliographic, chemical, 
# crystal, experimental, refinement or atomic coordinate data resulting 
# from the CCDC's data processing and validation procedures.
#
#######################################################################

data_EHARAH
_chemical_compound_source        
'roots and rhizomes of Ligularia altaica DC. (Asteraceae)'
_chemical_name_common            'Altaicalarin A'
_chemical_formula_moiety         'C22 H28 O6'
_chemical_name_systematic        
'2-(2-Acetoxy-3,5-dihydroxy-4-methylphenyl)-6-methylhepta-1,5-dien-3-yl 2-methylbut-2-enoate'
_chemical_properties_biological  
'Tested for cytotoxic activity against four cancer cell lines'
_symmetry_cell_setting           monoclinic
_symmetry_space_group_name_H-M   'C 2'
_symmetry_Int_Tables_number      5
_space_group_name_Hall           'C 2y'
loop_
_symmetry_equiv_pos_site_id
_symmetry_equiv_pos_as_xyz
1 x,y,z
2 -x,y,-z
3 1/2+x,1/2+y,z
4 1/2-x,1/2+y,-z
_cell_length_a                   17.066(4)
_cell_length_b                   6.9212(15)
_cell_length_c                   19.004(4)
_cell_angle_alpha                90
_cell_angle_beta                 100.536(4)
_cell_angle_gamma                90
_cell_volume                     2206.85
_exptl_crystal_colour            colorless
_exptl_crystal_description       block
_chemical_melting_point          '122-123 deg.C'
_cell_formula_units_Z            4
_exptl_crystal_recrystallization_method acetone
loop_
_atom_site_label
_atom_site_type_symbol
_atom_site_fract_x
_atom_site_fract_y
_atom_site_fract_z
O1 O 0.21959(15) 0.2058(4) 0.38869(14)
O2 O 0.23318(19) 0.3863(5) 0.48718(18)
O3 O 0.36772(17) 0.0338(5) 0.43106(17)
H1 H 0.3234 -0.0021 0.4363
O4 O 0.4941(2) 0.5043(6) 0.3146(2)
H2 H 0.481(3) 0.616(4) 0.302(2)
O5 O 0.07663(18) 0.5652(5) 0.22696(15)
O6 O -0.0120(2) 0.3322(6) 0.2298(2)
C1 C 0.2886(2) 0.2904(6) 0.3701(2)
C2 C 0.3609(2) 0.1992(7) 0.3918(2)
C3 C 0.4304(2) 0.2707(7) 0.3738(2)
C4 C 0.4245(3) 0.4388(7) 0.3340(2)
C5 C 0.3525(2) 0.5305(7) 0.3117(2)
H3 H 0.3507 0.6423 0.2843
C6 C 0.2830(2) 0.4589(6) 0.3294(2)
C7 C 0.2053(2) 0.5603(6) 0.3024(2)
C8 C 0.1415(3) 0.4382(7) 0.2586(3)
H4 H 0.1210 0.3496 0.2912
C9 C 0.1665(4) 0.3223(10) 0.2017(3)
H5 H 0.2083 0.2337 0.2228
H6 H 0.1217 0.2464 0.1777
C10 C 0.1954(4) 0.4427(11) 0.1500(4)
H7 H 0.2363 0.5280 0.1679
C11 C 0.1698(5) 0.4453(17) 0.0791(5)
C12 C 0.2032(7) 0.589(2) 0.0321(4)
H8 H 0.2594 0.5677 0.0359
H9 H 0.1942 0.7180 0.0473
H10 H 0.1772 0.5723 -0.0168
C13 C 0.1081(6) 0.334(3) 0.0358(5)
H11 H 0.1170 0.1994 0.0459
H12 H 0.1086 0.3582 -0.0139
H13 H 0.0573 0.3713 0.0464
C14 C 0.0042(3) 0.4926(8) 0.2141(3)
C15 C -0.0661(8) 0.612(3) 0.1820(15)
C16 C -0.1484(9) 0.537(3) 0.1844(12)
H14 H -0.1544 0.5218 0.2334
H15 H -0.1559 0.4149 0.1604
H16 H -0.1874 0.6276 0.1611
C17 C -0.0542(9) 0.768(2) 0.1483(8)
H17 H -0.1015 0.8276 0.1273
C18 C 0.0177(13) 0.873(3) 0.1349(17)
H18 H 0.0639 0.7932 0.1481
H19 H 0.0242 0.9896 0.1630
H20 H 0.0112 0.9059 0.0851
C19 C 0.1971(3) 0.7440(7) 0.3161(3)
H21 H 0.1495 0.8069 0.2982
H22 H 0.2390 0.8115 0.3436
C20 C 0.5082(3) 0.1659(9) 0.3969(3)
H23 H 0.5438 0.1970 0.3649
H24 H 0.4987 0.0292 0.3960
H25 H 0.5316 0.2049 0.4446
C21 C 0.1960(2) 0.2661(6) 0.4491(2)
C22 C 0.1229(2) 0.1684(7) 0.4617(2)
H26 H 0.1165 0.1897 0.5102
H27 H 0.1271 0.0323 0.4534
H28 H 0.0777 0.2197 0.4296
C23? C 0.0042(3) 0.4926(8) 0.2141(3)
C24? C -0.0448(12) 0.655(4) 0.1714(18)
C25? C -0.0058(15) 0.826(4) 0.141(2)
C26? C -0.1260(12) 0.639(3) 0.1594(11)
C27? C -0.164(2) 0.481(6) 0.195(3)
H29? H -0.0462 0.9140 0.1182
H30? H 0.0245 0.7810 0.1063
H31? H 0.0290 0.8917 0.1789
H32? H -0.1574 0.7257 0.1292
H33? H -0.1462 0.3580 0.1815
H34? H -0.2211 0.4891 0.1813
H35? H -0.1499 0.4954 0.2463
loop_
_geom_bond_atom_site_label_1
_geom_bond_atom_site_label_2
_geom_bond_site_symmetry_1
_geom_bond_site_symmetry_2
O1 C1 1_555 1_555
O2 C21 1_555 1_555
O3 H1 1_555 1_555
O4 H2 1_555 1_555
O5 C8 1_555 1_555
O6 C14 1_555 1_555
C1 C2 1_555 1_555
C2 O3 1_555 1_555
C3 C2 1_555 1_555
C4 O4 1_555 1_555
C5 C4 1_555 1_555
H3 C5 1_555 1_555
C6 C1 1_555 1_555
C7 C6 1_555 1_555
C8 C7 1_555 1_555
H4 C8 1_555 1_555
C9 C8 1_555 1_555
H5 C9 1_555 1_555
H6 C9 1_555 1_555
C10 C9 1_555 1_555
H7 C10 1_555 1_555
C11 C10 1_555 1_555
C12 C11 1_555 1_555
H8 C12 1_555 1_555
H9 C12 1_555 1_555
H10 C12 1_555 1_555
C13 C11 1_555 1_555
H11 C13 1_555 1_555
H12 C13 1_555 1_555
H13 C13 1_555 1_555
C14 O5 1_555 1_555
C15 C14 1_555 1_555
C16 C15 1_555 1_555
H14 C16 1_555 1_555
H15 C16 1_555 1_555
H16 C16 1_555 1_555
C17 C15 1_555 1_555
H17 C17 1_555 1_555
C18 C17 1_555 1_555
H18 C18 1_555 1_555
H19 C18 1_555 1_555
H20 C18 1_555 1_555
C19 C7 1_555 1_555
H21 C19 1_555 1_555
H22 C19 1_555 1_555
C20 C3 1_555 1_555
H23 C20 1_555 1_555
H24 C20 1_555 1_555
H25 C20 1_555 1_555
C21 O1 1_555 1_555
C22 C21 1_555 1_555
H26 C22 1_555 1_555
H27 C22 1_555 1_555
H28 C22 1_555 1_555
C3 C4 1_555 1_555
C5 C6 1_555 1_555

#END
