
#######################################################################
#
#                 Cambridge Crystallographic Data Centre
#                                CCDC 
#
#######################################################################
#
# If this CIF has been generated from an entry in the Cambridge 
# Structural Database, then it will include bibliographic, chemical, 
# crystal, experimental, refinement or atomic coordinate data resulting 
# from the CCDC's data processing and validation procedures.
#
#######################################################################

data_EHATAJ
_chemical_compound_source        
'above ground parts of Siegesbeckia pubescens Makino (Compositae)'
_chemical_name_common            'Darutoside methanol solvate'
_chemical_formula_moiety         'C26 H44 O8,C1 H4 O1'
_chemical_name_systematic        
'2-((15,16-Dihydroxypimar-8(14)-en-3-yl)oxy)-6-(hydroxymethyl)tetrahydro-2H-pyran-3,4,5-triol methanol solvate'
_chemical_properties_biological  
'Tested for cytotoxicity against three cancer cell lines'
_symmetry_cell_setting           monoclinic
_symmetry_space_group_name_H-M   'P 21'
_symmetry_Int_Tables_number      4
_space_group_name_Hall           'P 2yb'
loop_
_symmetry_equiv_pos_site_id
_symmetry_equiv_pos_as_xyz
1 x,y,z
2 -x,1/2+y,-z
_cell_length_a                   13.551(6)
_cell_length_b                   6.242(3)
_cell_length_c                   16.767(7)
_cell_angle_alpha                90
_cell_angle_beta                 102.966(7)
_cell_angle_gamma                90
_cell_volume                     1382.08
_exptl_crystal_colour            colorless
_exptl_crystal_description       block
_cell_formula_units_Z            2
_exptl_crystal_recrystallization_method chloroform/methanol
loop_
_atom_site_label
_atom_site_type_symbol
_atom_site_fract_x
_atom_site_fract_y
_atom_site_fract_z
C1 C 0.89428(15) 0.3539(5) 0.02547(12)
H1 H 0.8946 0.1987 0.0233
H2 H 0.9553 0.4043 0.0104
C2 C 0.89692(15) 0.4241(5) 0.11362(12)
H3 H 0.9553 0.3608 0.1503
H4 H 0.9037 0.5787 0.1177
C3 C 0.80146(15) 0.3559(4) 0.13923(11)
H5 H 0.7965 0.1995 0.1347
C4 C 0.70459(15) 0.4513(4) 0.08517(12)
C5 C 0.70484(13) 0.3848(4) -0.00496(11)
H6 H 0.7027 0.2279 -0.0042
C6 C 0.60827(15) 0.4484(5) -0.06728(12)
H7 H 0.5496 0.4191 -0.0449
H8 H 0.6096 0.6008 -0.0784
C7 C 0.60014(16) 0.3233(5) -0.14659(12)
H9 H 0.5905 0.1726 -0.1364
H10 H 0.5414 0.3726 -0.1867
C8 C 0.69354(15) 0.3498(4) -0.18057(12)
C9 C 0.79271(15) 0.3097(4) -0.11989(12)
H11 H 0.7911 0.1583 -0.1048
C10 C 0.80143(14) 0.4377(4) -0.03779(11)
C11 C 0.88396(17) 0.3312(5) -0.16127(14)
H12 H 0.9423 0.3803 -0.1206
H13 H 0.9000 0.1904 -0.1793
C12 C 0.86696(16) 0.4842(5) -0.23459(13)
H14 H 0.8600 0.6290 -0.2156
H15 H 0.9260 0.4808 -0.2582
C13 C 0.77308(16) 0.4282(4) -0.30095(12)
C14 C 0.68599(16) 0.3943(4) -0.25949(12)
H16 H 0.6210 0.4056 -0.2922
C15 C 0.74619(17) 0.6194(4) -0.36017(13)
H17 H 0.7261 0.7403 -0.3300
C16 C 0.6616(2) 0.5765(5) -0.43510(14)
H18 H 0.6879 0.4920 -0.4742
H19 H 0.6085 0.4944 -0.4190
C17 C 0.7914(2) 0.2258(5) -0.34833(17)
H20 H 0.8132 0.1108 -0.3105
H21 H 0.8427 0.2548 -0.3781
H22 H 0.7297 0.1860 -0.3859
C18 C 0.6975(2) 0.6942(4) 0.09896(15)
H23 H 0.6836 0.7196 0.1518
H24 H 0.6440 0.7535 0.0574
H25 H 0.7605 0.7608 0.0962
C19 C 0.61297(17) 0.3434(5) 0.11019(13)
H26 H 0.6104 0.1947 0.0952
H27 H 0.5516 0.4127 0.0825
H28 H 0.6202 0.3559 0.1683
C20 C 0.81455(19) 0.6778(4) -0.05397(14)
H29 H 0.8224 0.7558 -0.0036
H30 H 0.7559 0.7292 -0.0925
H31 H 0.8735 0.6978 -0.0759
C22 C 0.83586(16) 0.2411(4) 0.27852(12)
H35 H 0.8795 0.1422 0.2568
C23 C 0.89095(15) 0.3178(4) 0.36304(11)
H36 H 0.8488 0.4210 0.3843
C24 C 0.91298(14) 0.1233(3) 0.41998(11)
H37 H 0.9632 0.0332 0.4022
C25 C 0.81905(14) -0.0107(3) 0.41860(12)
H38 H 0.7735 0.0667 0.4464
C26 C 0.76424(14) -0.0613(4) 0.33110(11)
H39 H 0.8083 -0.1521 0.3064
C27 C 0.66462(15) -0.1784(4) 0.32588(13)
H40 H 0.6294 -0.1886 0.2689
H41 H 0.6790 -0.3230 0.3464
O1 O 0.83120(13) 0.6846(3) -0.39281(9)
H42 H 0.8760 0.7322 -0.3558
O2 O 0.61976(15) 0.7724(4) -0.47315(11)
H43 H 0.5726 0.8106 -0.4533
O3 O 0.80921(11) 0.4122(2) 0.22466(8)
O4 O 0.98360(11) 0.4176(3) 0.35509(8)
H44 H 1.0047 0.4949 0.3948
O5 O 0.95294(10) 0.1865(3) 0.50288(8)
H45 H 1.0125 0.2211 0.5085
O6 O 0.84666(11) -0.2117(2) 0.45847(8)
H46 H 0.8328 -0.2105 0.5036
O7 O 0.59959(11) -0.0777(3) 0.37064(10)
H47 H 0.6075 -0.1332 0.4159
O8 O 0.74473(10) 0.1333(2) 0.28454(8)
C21 C 0.4860(2) 0.3976(6) 0.2999(2)
H32 H 0.4529 0.5334 0.3003
H33 H 0.4383 0.2943 0.2716
H34 H 0.5408 0.4120 0.2726
O9 O 0.52393(19) 0.3289(4) 0.38071(13)
H48 H 0.5557 0.2172 0.3804
loop_
_geom_bond_atom_site_label_1
_geom_bond_atom_site_label_2
_geom_bond_site_symmetry_1
_geom_bond_site_symmetry_2
C1 H1 1_555 1_555
H2 C1 1_555 1_555
C2 C1 1_555 1_555
H3 C2 1_555 1_555
H4 C2 1_555 1_555
C3 C2 1_555 1_555
H5 C3 1_555 1_555
C4 C3 1_555 1_555
C5 C4 1_555 1_555
H6 C5 1_555 1_555
C6 C5 1_555 1_555
H7 C6 1_555 1_555
H8 C6 1_555 1_555
C7 C6 1_555 1_555
H9 C7 1_555 1_555
H10 C7 1_555 1_555
C8 C7 1_555 1_555
C9 C8 1_555 1_555
H11 C9 1_555 1_555
C10 C1 1_555 1_555
C11 C9 1_555 1_555
H12 C11 1_555 1_555
H13 C11 1_555 1_555
C12 C11 1_555 1_555
H14 C12 1_555 1_555
H15 C12 1_555 1_555
C13 C12 1_555 1_555
C14 C8 1_555 1_555
H16 C14 1_555 1_555
C15 C13 1_555 1_555
H17 C15 1_555 1_555
C16 C15 1_555 1_555
H18 C16 1_555 1_555
H19 C16 1_555 1_555
C17 C13 1_555 1_555
H20 C17 1_555 1_555
H21 C17 1_555 1_555
H22 C17 1_555 1_555
C18 C4 1_555 1_555
H23 C18 1_555 1_555
H24 C18 1_555 1_555
H25 C18 1_555 1_555
C19 C4 1_555 1_555
H26 C19 1_555 1_555
H27 C19 1_555 1_555
H28 C19 1_555 1_555
C20 C10 1_555 1_555
H29 C20 1_555 1_555
H30 C20 1_555 1_555
H31 C20 1_555 1_555
C21 H32 1_555 1_555
H33 C21 1_555 1_555
H34 C21 1_555 1_555
C22 H35 1_555 1_555
C23 C22 1_555 1_555
H36 C23 1_555 1_555
C24 C23 1_555 1_555
H37 C24 1_555 1_555
C25 C24 1_555 1_555
H38 C25 1_555 1_555
C26 C25 1_555 1_555
H39 C26 1_555 1_555
C27 C26 1_555 1_555
H40 C27 1_555 1_555
H41 C27 1_555 1_555
O1 C15 1_555 1_555
H42 O1 1_555 1_555
O2 C16 1_555 1_555
H43 O2 1_555 1_555
O3 C3 1_555 1_555
O4 C23 1_555 1_555
H44 O4 1_555 1_555
O5 C24 1_555 1_555
H45 O5 1_555 1_555
O6 C25 1_555 1_555
H46 O6 1_555 1_555
O7 C27 1_555 1_555
H47 O7 1_555 1_555
O8 C22 1_555 1_555
O9 C21 1_555 1_555
H48 O9 1_555 1_555
C5 C10 1_555 1_555
C9 C10 1_555 1_555
C13 C14 1_555 1_555
C22 O3 1_555 1_555
C26 O8 1_555 1_555

#END
