
#######################################################################
#
#                 Cambridge Crystallographic Data Centre
#                                CCDC 
#
#######################################################################
#
# If this CIF has been generated from an entry in the Cambridge 
# Structural Database, then it will include bibliographic, chemical, 
# crystal, experimental, refinement or atomic coordinate data resulting 
# from the CCDC's data processing and validation procedures.
#
#######################################################################

data_EHEBOI
_chemical_formula_moiety         'C96 H84 N4 O12,C1 H1 Cl3'
_chemical_name_systematic        
'25,26,27,28-tetrakis(Pentyloxy)-5,11,17,23-tetrakis(1,3-dioxo-2,3-dihydro-2-azaphenalen-2-yl)calix[4]arene chloroform solvate'
_symmetry_cell_setting           hexagonal
_symmetry_space_group_name_H-M   'P 62'
_symmetry_Int_Tables_number      171
_space_group_name_Hall           'P 62'
loop_
_symmetry_equiv_pos_site_id
_symmetry_equiv_pos_as_xyz
1 x,y,z
2 x-y,x,1/3+z
3 -y,x-y,2/3+z
4 -x,-y,z
5 -x+y,-x,1/3+z
6 y,-x+y,2/3+z
_cell_length_a                   15.245(5)
_cell_length_b                   15.245(5)
_cell_length_c                   33.558(5)
_cell_angle_alpha                90
_cell_angle_beta                 90
_cell_angle_gamma                120
_cell_volume                     6754.32
_cell_formula_units_Z            3
_exptl_crystal_recrystallization_method 'chloroform/ethyl acetate'
loop_
_atom_site_label
_atom_site_type_symbol
_atom_site_fract_x
_atom_site_fract_y
_atom_site_fract_z
C1 C 0.1483(7) 0.7186(7) 0.8101(4)
C2 C 0.1517(6) 0.7124(7) 0.8505(3)
C3 C 0.0650(6) 0.6779(6) 0.8725(3)
C4 C -0.0256(6) 0.6521(6) 0.8541(3)
C5 C -0.0313(6) 0.6597(7) 0.8131(3)
C6 C 0.0571(6) 0.6968(7) 0.7909(4)
C7 C -0.1336(7) 0.6294(7) 0.7929(3)
C8 C -0.2109(6) 0.5221(7) 0.8008(3)
C9 C -0.2922(7) 0.4980(7) 0.8260(4)
C10 C -0.3626(6) 0.3981(7) 0.8358(3)
C11 C -0.3487(6) 0.3187(7) 0.8210(4)
C12 C -0.2676(7) 0.3410(7) 0.7968(4)
C13 C -0.2040(6) 0.4424(8) 0.7848(3)
C14 C 0.1078(7) 0.6026(7) 0.9279(4)
C15 C 0.1240(6) 0.5938(7) 0.9703(4)
C16 C 0.1638(7) 0.5405(8) 0.9830(4)
C17 C 0.1769(9) 0.5340(9) 1.0254(5)
C18 C 0.1408(9) 0.5763(11) 1.0520(4)
C19 C 0.0985(8) 0.6300(8) 1.0393(4)
C20 C 0.0608(10) 0.6731(11) 1.0659(4)
C21 C 0.0192(10) 0.7299(10) 1.0525(4)
C22 C 0.0169(8) 0.7462(7) 1.0123(4)
C23 C 0.0475(7) 0.6985(7) 0.9847(4)
C24 C 0.0909(7) 0.6414(7) 0.9973(4)
C25 C 0.0419(7) 0.7138(7) 0.9415(4)
C26 C 0.2437(7) 0.7418(8) 0.7856(4)
C27 C -0.5409(6) 0.3331(7) 0.8459(4)
C28 C -0.6291(8) 0.3054(7) 0.8737(4)
C29 C -0.7221(9) 0.2646(8) 0.8606(5)
C30 C -0.8034(9) 0.2471(9) 0.8868(6)
C31 C -0.7852(14) 0.2695(13) 0.9259(6)
C32 C -0.6878(11) 0.3072(9) 0.9426(5)
C33 C -0.6650(12) 0.3276(13) 0.9829(6)
C34 C -0.5721(14) 0.3651(16) 0.9971(5)
C35 C -0.4903(11) 0.3951(14) 0.9694(5)
C36 C -0.5090(8) 0.3739(10) 0.9315(4)
C37 C -0.6061(8) 0.3297(7) 0.9162(4)
C38 C -0.4184(10) 0.4016(11) 0.9022(4)
C39 C 0.0692(10) 0.8016(9) 0.7382(4)
C40 C 0.0510(20) 0.8087(17) 0.6981(6)
C44 C 0.0420(20) 0.7430(20) 0.6619(6)
C45 C 0.0330(20) 0.7970(30) 0.6248(6)
C46 C 0.0070(30) 0.7180(20) 0.5918(9)
C47 C -0.1409(13) 0.4680(20) 0.7191(4)
C48 C -0.1617(13) 0.4330(20) 0.6925(3)
C49 C -0.1558(13) 0.4544(13) 0.6474(3)
C50 C -0.1960(30) 0.3810(20) 0.6178(6)
C51 C -0.1624(18) 0.4370(20) 0.5776(4)
N1 N 0.0703(5) 0.6645(5) 0.9149(3)
N2 N -0.4451(5) 0.3751(6) 0.8627(3)
O1 O 0.0540(4) 0.7089(5) 0.7496(3)
O2 O -0.1239(4) 0.4631(5) 0.7602(3)
O3 O 0.1290(5) 0.5540(5) 0.9028(3)
O4 O 0.0107(5) 0.7722(5) 0.9286(3)
O5 O -0.5529(5) 0.3194(6) 0.8111(3)
O6 O -0.3353(7) 0.4390(10) 0.9141(3)
C12C C 0.2676(7) 0.6590(7) 0.7968(4)
C11C C 0.3487(6) 0.6813(7) 0.8210(4)
C10C C 0.3626(6) 0.6019(7) 0.8358(3)
C9C C 0.2922(7) 0.5020(7) 0.8260(4)
C8C C 0.2109(6) 0.4779(7) 0.8008(3)
C7C C 0.1336(7) 0.3706(7) 0.7929(3)
C5C C 0.0313(6) 0.3403(7) 0.8131(3)
C4C C 0.0256(6) 0.3479(6) 0.8541(3)
C3C C -0.0650(6) 0.3221(6) 0.8725(3)
C2C C -0.1517(6) 0.2876(7) 0.8505(3)
C1C C -0.1483(7) 0.2814(7) 0.8101(4)
C6C C -0.0571(6) 0.3032(7) 0.7909(4)
O1C O -0.0540(4) 0.2911(5) 0.7496(3)
C39C C -0.0692(10) 0.1984(9) 0.7382(4)
C40C C -0.0510(20) 0.1913(17) 0.6981(6)
C44C C -0.0420(20) 0.2570(20) 0.6619(6)
C45C C -0.0330(20) 0.2030(30) 0.6248(6)
C46C C -0.0070(30) 0.2820(20) 0.5918(9)
C26C C -0.2437(7) 0.2582(8) 0.7856(4)
N1C N -0.0703(5) 0.3355(5) 0.9149(3)
C14C C -0.1078(7) 0.3974(7) 0.9279(4)
C15C C -0.1240(6) 0.4062(7) 0.9703(4)
C16C C -0.1638(7) 0.4595(8) 0.9830(4)
C17C C -0.1769(9) 0.4660(9) 1.0254(5)
C18C C -0.1408(9) 0.4237(11) 1.0520(4)
C19C C -0.0985(8) 0.3700(8) 1.0393(4)
C20C C -0.0608(10) 0.3269(11) 1.0659(4)
C21C C -0.0192(10) 0.2701(10) 1.0525(4)
C22C C -0.0169(8) 0.2538(7) 1.0123(4)
C23C C -0.0475(7) 0.3015(7) 0.9847(4)
C24C C -0.0909(7) 0.3586(7) 0.9973(4)
C25C C -0.0419(7) 0.2862(7) 0.9415(4)
O4C O -0.0107(5) 0.2278(5) 0.9286(3)
O3C O -0.1290(5) 0.4460(5) 0.9028(3)
C13C C 0.2040(6) 0.5576(8) 0.7848(3)
O2C O 0.1239(4) 0.5369(5) 0.7602(3)
C47C C 0.1409(13) 0.5320(20) 0.7191(4)
C48C C 0.1617(13) 0.5670(20) 0.6925(3)
C49C C 0.1558(13) 0.5456(13) 0.6474(3)
C50C C 0.1960(30) 0.6190(20) 0.6178(6)
C51C C 0.1624(18) 0.5630(20) 0.5776(4)
N2C N 0.4451(5) 0.6249(6) 0.8627(3)
C27C C 0.5409(6) 0.6669(7) 0.8459(4)
C28C C 0.6291(8) 0.6946(7) 0.8737(4)
C29C C 0.7221(9) 0.7354(8) 0.8606(5)
C30C C 0.8034(9) 0.7529(9) 0.8868(6)
C31C C 0.7852(14) 0.7305(13) 0.9259(6)
C32C C 0.6878(11) 0.6928(9) 0.9426(5)
C33C C 0.6650(12) 0.6724(13) 0.9829(6)
C34C C 0.5721(14) 0.6349(16) 0.9971(5)
C35C C 0.4903(11) 0.6049(14) 0.9694(5)
C36C C 0.5090(8) 0.6261(10) 0.9315(4)
C37C C 0.6061(8) 0.6703(7) 0.9162(4)
C38C C 0.4184(10) 0.5984(11) 0.9022(4)
O6C O 0.3353(7) 0.5610(10) 0.9141(3)
O5C O 0.5529(5) 0.6806(6) 0.8111(3)
C53 C 0.5882(15) 0.8990(20) 0.7752(6)
Cl1 Cl 0.5925(9) 0.9417(8) 0.8186(4)
Cl2 Cl 0.6942(8) 0.9294(9) 0.7531(4)
Cl3 Cl 0.4928(8) 0.8786(7) 0.7433(4)
C41? C 0.0418(19) 0.8944(17) 0.6781(7)
C42? C 0.0080(20) 0.9093(15) 0.6366(7)
C43? C 0.0000 1.0000 0.6209(7)
C52? C -0.1140(30) 0.5060(40) 0.6140(8)
loop_
_geom_bond_atom_site_label_1
_geom_bond_atom_site_label_2
_geom_bond_site_symmetry_1
_geom_bond_site_symmetry_2
C1 C2 1_555 1_555
C2 C3 1_555 1_555
C3 C4 1_555 1_555
C4 C5 1_555 1_555
C5 C6 1_555 1_555
C6 C1 1_555 1_555
C7 C5 1_555 1_555
C8 C7 1_555 1_555
C9 C8 1_555 1_555
C10 C9 1_555 1_555
C11 C10 1_555 1_555
C12 C11 1_555 1_555
C13 C8 1_555 1_555
C14 C15 1_555 1_555
C15 C16 1_555 1_555
C16 C17 1_555 1_555
C17 C18 1_555 1_555
C18 C19 1_555 1_555
C19 C20 1_555 1_555
C20 C21 1_555 1_555
C21 C22 1_555 1_555
C22 C23 1_555 1_555
C23 C24 1_555 1_555
C24 C15 1_555 1_555
C25 C23 1_555 1_555
C26 C1 1_555 1_555
C27 C28 1_555 1_555
C28 C29 1_555 1_555
C29 C30 1_555 1_555
C30 C31 1_555 1_555
C31 C32 1_555 1_555
C32 C33 1_555 1_555
C33 C34 1_555 1_555
C34 C35 1_555 1_555
C35 C36 1_555 1_555
C36 C37 1_555 1_555
C37 C28 1_555 1_555
C38 C36 1_555 1_555
C39 C40 1_555 1_555
C40 C44 1_555 1_555
C44 C45 1_555 1_555
C45 C46 1_555 1_555
C47 C48 1_555 1_555
C48 C49 1_555 1_555
C49 C50 1_555 1_555
C50 C51 1_555 1_555
C53 Cl1 1_555 1_555
N1 C3 1_555 1_555
N2 C10 1_555 1_555
O1 C6 1_555 1_555
O2 C13 1_555 1_555
O3 C14 1_555 1_555
O4 C25 1_555 1_555
O5 C27 1_555 1_555
O6 C38 1_555 1_555
Cl2 C53 1_555 1_555
Cl3 C53 1_555 1_555
C12C C26 1_555 1_555
C11C C12C 1_555 1_555
C10C C11C 1_555 1_555
C9C C10C 1_555 1_555
C8C C9C 1_555 1_555
C7C C8C 1_555 1_555
C5C C7C 1_555 1_555
C4C C5C 1_555 1_555
C3C C4C 1_555 1_555
C2C C3C 1_555 1_555
C1C C2C 1_555 1_555
C6C C5C 1_555 1_555
O1C C6C 1_555 1_555
C39C O1C 1_555 1_555
C40C C39C 1_555 1_555
C44C C40C 1_555 1_555
C45C C44C 1_555 1_555
C46C C45C 1_555 1_555
C26C C12 1_555 1_555
N1C C3C 1_555 1_555
C14C N1C 1_555 1_555
C15C C14C 1_555 1_555
C16C C15C 1_555 1_555
C17C C16C 1_555 1_555
C18C C17C 1_555 1_555
C19C C18C 1_555 1_555
C20C C19C 1_555 1_555
C21C C20C 1_555 1_555
C22C C21C 1_555 1_555
C23C C22C 1_555 1_555
C24C C15C 1_555 1_555
C25C N1C 1_555 1_555
O4C C25C 1_555 1_555
O3C C14C 1_555 1_555
C13C C12C 1_555 1_555
O2C C13C 1_555 1_555
C47C O2C 1_555 1_555
C48C C47C 1_555 1_555
C49C C48C 1_555 1_555
C50C C49C 1_555 1_555
C51C C50C 1_555 1_555
N2C C10C 1_555 1_555
C27C N2C 1_555 1_555
C28C C27C 1_555 1_555
C29C C28C 1_555 1_555
C30C C29C 1_555 1_555
C31C C30C 1_555 1_555
C32C C31C 1_555 1_555
C33C C32C 1_555 1_555
C34C C33C 1_555 1_555
C35C C34C 1_555 1_555
C36C C35C 1_555 1_555
C37C C28C 1_555 1_555
C38C N2C 1_555 1_555
O6C C38C 1_555 1_555
O5C C27C 1_555 1_555
C12 C13 1_555 1_555
C14 N1 1_555 1_555
C19 C24 1_555 1_555
C25 N1 1_555 1_555
C27 N2 1_555 1_555
C32 C37 1_555 1_555
C38 N2 1_555 1_555
C39 O1 1_555 1_555
C47 O2 1_555 1_555
C8C C13C 1_555 1_555
C1C C6C 1_555 1_555
C1C C26C 1_555 1_555
C19C C24C 1_555 1_555
C23C C24C 1_555 1_555
C23C C25C 1_555 1_555
C32C C37C 1_555 1_555
C36C C37C 1_555 1_555
C36C C38C 1_555 1_555

#END
