
#######################################################################
#
#                 Cambridge Crystallographic Data Centre
#                                CCDC 
#
#######################################################################
#
# If this CIF has been generated from an entry in the Cambridge 
# Structural Database, then it will include bibliographic, chemical, 
# crystal, experimental, refinement or atomic coordinate data resulting 
# from the CCDC's data processing and validation procedures.
#
#######################################################################

data_EHITIA
_chemical_formula_moiety         'C16 H13 Br1 N4'
_chemical_name_systematic        
7-Bromo-3-methyl-9-(p-tolyl)-9H-imidazo[1',2':1,2]imidazo[4,5-b]pyridine
_symmetry_cell_setting           monoclinic
_symmetry_space_group_name_H-M   'P 21/c'
_symmetry_Int_Tables_number      14
_space_group_name_Hall           '-P 2ybc'
loop_
_symmetry_equiv_pos_site_id
_symmetry_equiv_pos_as_xyz
1 x,y,z
2 -x,1/2+y,1/2-z
3 -x,-y,-z
4 x,1/2-y,1/2+z
_cell_length_a                   14.1803(4)
_cell_length_b                   13.8172(4)
_cell_length_c                   7.4256(2)
_cell_angle_alpha                90
_cell_angle_beta                 93.967(2)
_cell_angle_gamma                90
_cell_volume                     1451.43
_exptl_crystal_colour            colorless
_exptl_crystal_description       prism
_cell_formula_units_Z            4
_exptl_crystal_recrystallization_method 'Ethanol/ethyl ester'
loop_
_atom_site_label
_atom_site_type_symbol
_atom_site_fract_x
_atom_site_fract_y
_atom_site_fract_z
Br1 Br 0.57680(4) 0.37553(5) 0.11350(11)
N1 N 0.3970(3) 0.3653(3) 0.2263(6)
N2 N 0.2400(3) 0.3591(3) 0.3359(6)
N3 N 0.2258(3) 0.1970(3) 0.3386(5)
N4 N 0.0983(3) 0.2713(3) 0.4366(6)
C1 C 0.4668(3) 0.3084(4) 0.1773(7)
C2 C 0.4660(3) 0.2094(4) 0.1714(7)
H1 H 0.5177 0.1754 0.1335
C3 C 0.3868(3) 0.1610(4) 0.2232(7)
H2 H 0.3835 0.0938 0.2218
C4 C 0.3137(3) 0.2162(3) 0.2765(6)
C5 C 0.3219(3) 0.3184(3) 0.2750(7)
C6 C 0.1811(3) 0.2820(3) 0.3740(7)
C7 C 0.0897(4) 0.1704(4) 0.4414(8)
H3 H 0.0369 0.1391 0.4805
C8 C 0.1652(4) 0.1227(4) 0.3840(7)
C9 C 0.1884(4) 0.0179(4) 0.3653(8)
H4 H 0.1370 -0.0206 0.4032
H5 H 0.2447 0.0031 0.4392
H6 H 0.1983 0.0038 0.2414
C10 C 0.2164(3) 0.4592(3) 0.3511(7)
C11 C 0.2853(4) 0.5286(4) 0.3591(9)
H7 H 0.3486 0.5112 0.3583
C12 C 0.2597(4) 0.6252(4) 0.3686(10)
H8 H 0.3068 0.6721 0.3720
C13 C 0.1674(4) 0.6540(4) 0.3732(8)
C14 C 0.1000(4) 0.5828(4) 0.3713(7)
H9 H 0.0370 0.6000 0.3792
C15 C 0.1232(4) 0.4862(4) 0.3579(7)
H10 H 0.0760 0.4394 0.3536
C16 C 0.1418(5) 0.7605(4) 0.3814(9)
H11 H 0.1982 0.7989 0.3812
H12 H 0.1106 0.7730 0.4897
H13 H 0.1003 0.7770 0.2783
loop_
_geom_bond_atom_site_label_1
_geom_bond_atom_site_label_2
_geom_bond_site_symmetry_1
_geom_bond_site_symmetry_2
Br1 C1 1_555 1_555
N1 C1 1_555 1_555
N2 C5 1_555 1_555
N3 C4 1_555 1_555
N4 C6 1_555 1_555
C1 C2 1_555 1_555
C2 H1 1_555 1_555
C3 C2 1_555 1_555
H2 C3 1_555 1_555
C4 C3 1_555 1_555
C5 N1 1_555 1_555
C6 N2 1_555 1_555
C7 N4 1_555 1_555
H3 C7 1_555 1_555
C8 N3 1_555 1_555
C9 C8 1_555 1_555
H4 C9 1_555 1_555
H5 C9 1_555 1_555
H6 C9 1_555 1_555
C10 N2 1_555 1_555
C11 C10 1_555 1_555
H7 C11 1_555 1_555
C12 C11 1_555 1_555
H8 C12 1_555 1_555
C13 C12 1_555 1_555
C14 C13 1_555 1_555
H9 C14 1_555 1_555
C15 C10 1_555 1_555
H10 C15 1_555 1_555
C16 C13 1_555 1_555
H11 C16 1_555 1_555
H12 C16 1_555 1_555
H13 C16 1_555 1_555
N3 C6 1_555 1_555
C4 C5 1_555 1_555
C7 C8 1_555 1_555
C14 C15 1_555 1_555

#END
