
#######################################################################
#
#                 Cambridge Crystallographic Data Centre
#                                CCDC 
#
#######################################################################
#
# If this CIF has been generated from an entry in the Cambridge 
# Structural Database, then it will include bibliographic, chemical, 
# crystal, experimental, refinement or atomic coordinate data resulting 
# from the CCDC's data processing and validation procedures.
#
#######################################################################

data_EHOMAP
_chemical_name_common            
(2R,4S)-trans-gamma-(4-Bromophenyl)-alpha,gamma-dimethyl-gamma-butyrolactone
_chemical_formula_moiety         'C12 H13 Br1 O2'
_chemical_name_systematic        
(3R,5S)-trans-5-(4-Bromophenyl)-3,5-dimethyltetrahydrofuran-2-one
_symmetry_cell_setting           orthorhombic
_symmetry_space_group_name_H-M   'P 21 21 21'
_symmetry_Int_Tables_number      19
_space_group_name_Hall           'P 2ac 2ab'
loop_
_symmetry_equiv_pos_site_id
_symmetry_equiv_pos_as_xyz
1 x,y,z
2 1/2-x,-y,1/2+z
3 -x,1/2+y,1/2-z
4 1/2+x,1/2-y,-z
_cell_length_a                   5.8809(19)
_cell_length_b                   8.094(3)
_cell_length_c                   25.444(8)
_cell_angle_alpha                90
_cell_angle_beta                 90
_cell_angle_gamma                90
_cell_volume                     1211.13
_exptl_crystal_colour            colorless
_cell_formula_units_Z            4
loop_
_atom_site_label
_atom_site_type_symbol
_atom_site_fract_x
_atom_site_fract_y
_atom_site_fract_z
H1 H 0.161(10) 0.353(7) 0.758(2)
Br1 Br -0.0512(2) -0.04346(11) 0.98203(4)
O1 O 0.4852(6) 0.4994(4) 0.81892(16)
C1 C 0.4548(13) 0.4600(8) 0.7680(3)
C2 C 0.2677(11) 0.5379(9) 0.8447(2)
C3 C 0.2590(14) 0.1269(8) 0.9161(3)
H2 H 0.3516 0.0346 0.9200
C4 C 0.1940(12) 0.3943(7) 0.8784(2)
C5 C 0.3264(13) 0.2567(7) 0.8856(3)
H3 H 0.4674 0.2516 0.8691
C6 C -0.0148(13) 0.3984(9) 0.9029(3)
H4 H -0.1094 0.4892 0.8981
C7 C -0.0854(15) 0.2695(10) 0.9346(3)
H5 H -0.2252 0.2731 0.9516
C8 C 0.2031(11) 0.4627(10) 0.7552(3)
O2 O 0.6121(9) 0.4238(7) 0.7410(2)
C9 C 0.0574(19) 0.1350(9) 0.9402(2)
C10 C 0.3172(16) 0.6930(7) 0.8770(3)
H6 H 0.4534 0.6768 0.8972
H7 H 0.1922 0.7142 0.9004
H8 H 0.3371 0.7855 0.8539
C11 C 0.1076(16) 0.5683(11) 0.7983(3)
C12 C 0.1608(13) 0.5171(10) 0.6983(2)
H9 H 0.0004 0.5162 0.6913
H10 H 0.2363 0.4425 0.6748
H11 H 0.2192 0.6267 0.6933
H12 H -0.073(11) 0.533(7) 0.812(2)
H13 H 0.128(10) 0.648(6) 0.791(2)
loop_
_geom_bond_atom_site_label_1
_geom_bond_atom_site_label_2
_geom_bond_site_symmetry_1
_geom_bond_site_symmetry_2
H1 C8 1_555 1_555
Br1 C9 1_555 1_555
O1 C1 1_555 1_555
C1 C8 1_555 1_555
C2 O1 1_555 1_555
C3 H2 1_555 1_555
C4 C2 1_555 1_555
C5 C3 1_555 1_555
H3 C5 1_555 1_555
C6 C4 1_555 1_555
H4 C6 1_555 1_555
C7 C6 1_555 1_555
H5 C7 1_555 1_555
C8 C11 1_555 1_555
O2 C1 1_555 1_555
C9 C3 1_555 1_555
C10 C2 1_555 1_555
H6 C10 1_555 1_555
H7 C10 1_555 1_555
H8 C10 1_555 1_555
C11 C2 1_555 1_555
C12 C8 1_555 1_555
H9 C12 1_555 1_555
H10 C12 1_555 1_555
H11 C12 1_555 1_555
H12 C11 1_555 1_555
H13 C11 1_555 1_555
C4 C5 1_555 1_555
C7 C9 1_555 1_555

#END
