
#######################################################################
#
#                 Cambridge Crystallographic Data Centre
#                                CCDC 
#
#######################################################################
#
# If this CIF has been generated from an entry in the Cambridge 
# Structural Database, then it will include bibliographic, chemical, 
# crystal, experimental, refinement or atomic coordinate data resulting 
# from the CCDC's data processing and validation procedures.
#
#######################################################################

data_EHOTEC
_chemical_formula_moiety         'C18 H12 Cl1 F3 O3'
_chemical_name_systematic        
5-(4-chlorobenzoyl)-4-phenyl-5-(trifluoromethyl)dihydrofuran-2(3H)-one
_symmetry_cell_setting           orthorhombic
_symmetry_space_group_name_H-M   'P 21 21 21'
_symmetry_Int_Tables_number      19
_space_group_name_Hall           'P 2ac 2ab'
loop_
_symmetry_equiv_pos_site_id
_symmetry_equiv_pos_as_xyz
1 x,y,z
2 1/2-x,-y,1/2+z
3 -x,1/2+y,1/2-z
4 1/2+x,1/2-y,-z
_cell_length_a                   7.997(3)
_cell_length_b                   11.806(4)
_cell_length_c                   17.950(5)
_cell_angle_alpha                90
_cell_angle_beta                 90
_cell_angle_gamma                90
_cell_volume                     1694.71
_exptl_crystal_colour            colorless
_exptl_crystal_description       block
_chemical_melting_point          '350 K'
_cell_formula_units_Z            4
_exptl_crystal_recrystallization_method 'ethyl acetate/n-hexane'
loop_
_atom_site_label
_atom_site_type_symbol
_atom_site_fract_x
_atom_site_fract_y
_atom_site_fract_z
Cl1 Cl 0.54344(14) -0.24049(9) -0.06281(5)
O1 O 0.0415(3) 0.06671(16) 0.13153(10)
O2 O -0.1357(3) -0.0468(2) 0.19023(14)
O3 O 0.4078(4) 0.2346(2) 0.12772(13)
F1 F 0.0384(4) 0.2464(2) 0.03258(13)
F2 F -0.1198(4) 0.2687(2) 0.12835(17)
F3 F 0.1057(5) 0.36333(18) 0.11831(15)
C1 C 0.1327(4) 0.1845(2) 0.23155(16)
H1 H 0.1174 0.2650 0.2432
C2 C -0.0512(4) 0.0361(3) 0.19222(17)
C3 C 0.1349(4) 0.1681(2) 0.14542(16)
C4 C -0.0243(4) 0.1192(3) 0.25325(18)
H2 H -0.0085 0.0807 0.3005
H3 H -0.1193 0.1699 0.2576
C5 C 0.0396(7) 0.2628(3) 0.1056(2)
C6 C 0.3641(4) 0.0601(3) 0.06805(15)
C7 C 0.4787(5) -0.1216(3) -0.01369(17)
C8 C 0.3231(4) -0.0784(3) -0.02820(16)
H4 H 0.2574 -0.1095 -0.0658
C9 C 0.3124(5) 0.1593(3) 0.11288(14)
C10 C 0.5229(5) 0.0175(3) 0.07926(19)
H5 H 0.5921 0.0513 0.1145
C11 C 0.5803(5) -0.0738(4) 0.0394(2)
H6 H 0.6866 -0.1028 0.0481
C12 C 0.2647(4) 0.0115(3) 0.01335(17)
H7 H 0.1579 0.0397 0.0046
C13 C 0.2876(4) 0.1412(2) 0.27031(14)
C14 C 0.3950(4) 0.2165(3) 0.30537(16)
H8 H 0.3737 0.2939 0.3027
C15 C 0.3239(5) 0.0268(3) 0.27421(19)
H9 H 0.2542 -0.0254 0.2510
C16 C 0.5320(4) 0.1787(3) 0.3438(2)
H10 H 0.6016 0.2305 0.3674
C17 C 0.4633(6) -0.0102(3) 0.3125(2)
H11 H 0.4874 -0.0872 0.3145
C18 C 0.5671(5) 0.0663(4) 0.3478(2)
H12 H 0.6603 0.0411 0.3740
loop_
_geom_bond_atom_site_label_1
_geom_bond_atom_site_label_2
_geom_bond_site_symmetry_1
_geom_bond_site_symmetry_2
Cl1 C7 1_555 1_555
O1 C2 1_555 1_555
O2 C2 1_555 1_555
O3 C9 1_555 1_555
F1 C5 1_555 1_555
F2 C5 1_555 1_555
F3 C5 1_555 1_555
C1 H1 1_555 1_555
C2 C4 1_555 1_555
C3 O1 1_555 1_555
C4 C1 1_555 1_555
H2 C4 1_555 1_555
H3 C4 1_555 1_555
C5 C3 1_555 1_555
C6 C9 1_555 1_555
C7 C8 1_555 1_555
C8 H4 1_555 1_555
C9 C3 1_555 1_555
C10 C6 1_555 1_555
H5 C10 1_555 1_555
C11 C7 1_555 1_555
H6 C11 1_555 1_555
C12 C6 1_555 1_555
H7 C12 1_555 1_555
C13 C1 1_555 1_555
C14 C13 1_555 1_555
H8 C14 1_555 1_555
C15 C13 1_555 1_555
H9 C15 1_555 1_555
C16 C14 1_555 1_555
H10 C16 1_555 1_555
C17 C15 1_555 1_555
H11 C17 1_555 1_555
C18 C16 1_555 1_555
H12 C18 1_555 1_555
C1 C3 1_555 1_555
C8 C12 1_555 1_555
C10 C11 1_555 1_555
C17 C18 1_555 1_555

#END
