
#######################################################################
#
#                 Cambridge Crystallographic Data Centre
#                                CCDC 
#
#######################################################################
#
# If this CIF has been generated from an entry in the Cambridge 
# Structural Database, then it will include bibliographic, chemical, 
# crystal, experimental, refinement or atomic coordinate data resulting 
# from the CCDC's data processing and validation procedures.
#
#######################################################################

data_EHUMOL
_chemical_formula_moiety         'C25 H22 F1 N1 O2'
_chemical_name_systematic        
7-fluoro-3-hydroxy-1-(4-methylbenzyl)-3-(1-phenylprop-2-en-1-yl)-1,3-dihydro-2H-indol-2-one
_symmetry_cell_setting           orthorhombic
_symmetry_space_group_name_H-M   'P 21 21 21'
_symmetry_Int_Tables_number      19
_space_group_name_Hall           'P 2ac 2ab'
loop_
_symmetry_equiv_pos_site_id
_symmetry_equiv_pos_as_xyz
1 x,y,z
2 1/2-x,-y,1/2+z
3 -x,1/2+y,1/2-z
4 1/2+x,1/2-y,-z
_cell_length_a                   9.56524(7)
_cell_length_b                   18.64102(14)
_cell_length_c                   22.57118(18)
_cell_angle_alpha                90
_cell_angle_beta                 90
_cell_angle_gamma                90
_cell_volume                     4024.57
_exptl_crystal_colour            'pale yellow'
_exptl_crystal_description       block
_cell_formula_units_Z            8
loop_
_atom_site_label
_atom_site_type_symbol
_atom_site_fract_x
_atom_site_fract_y
_atom_site_fract_z
O1 O 0.31130(14) 0.34835(7) 0.26547(6)
C1 C 0.15818(18) 0.47888(9) 0.18102(8)
C2 C 0.27522(17) 0.30714(10) 0.11649(8)
C3 C 0.34994(18) 0.37057(10) 0.10936(8)
C4 C 0.2480(2) 0.26457(11) 0.06785(9)
C5 C -0.0576(2) 0.48226(11) 0.12541(9)
H1 H -0.1044 0.4838 0.0883
C6 C 0.37886(17) 0.40173(10) 0.16971(8)
C7 C 0.0875(2) 0.48071(10) 0.12709(8)
H2 H 0.1390 0.4809 0.0911
C8 C 0.3686(2) 0.34786(13) 0.00554(9)
H3 H 0.3994 0.3619 -0.0328
C9 C 0.31708(18) 0.47701(10) 0.18491(9)
H4 H 0.3409 0.4862 0.2274
C10 C 0.3992(2) 0.39079(11) 0.05419(9)
H5 H 0.4529 0.4333 0.0496
C11 C 0.2937(2) 0.28481(13) 0.01245(9)
H6 H 0.2739 0.2556 -0.0210
C12 C 0.3869(2) 0.53557(11) 0.14991(11)
H7 H 0.3587 0.5432 0.1101
C13 C -0.4193(2) 0.21257(14) 0.14951(13)
H8 H -0.4378 0.2178 0.1070
H9 H -0.4671 0.2509 0.1713
H10 H -0.4538 0.1659 0.1631
C14 C 0.4855(2) 0.57671(13) 0.17216(16)
H11 H 0.5154 0.5700 0.2119
H12 H 0.5269 0.6131 0.1485
F1 F 0.18055(14) 0.20112(7) 0.07408(6)
O2 O 0.52556(12) 0.40103(7) 0.17793(6)
N1 N 0.24836(14) 0.29447(8) 0.17748(7)
C15 C -0.0432(2) 0.16183(10) 0.18450(9)
H13 H 0.0091 0.1196 0.1926
C16 C -0.1846(2) 0.15673(10) 0.17261(10)
H14 H -0.2283 0.1110 0.1727
C17 C -0.26379(19) 0.21737(11) 0.16054(9)
C18 C -0.1961(2) 0.28324(11) 0.15992(9)
H15 H -0.2477 0.3254 0.1508
C19 C -0.05466(19) 0.28871(10) 0.17233(9)
H16 H -0.0108 0.3344 0.1723
C20 C -0.13459(19) 0.48151(10) 0.17715(10)
H17 H -0.2338 0.4826 0.1758
C21 C -0.0664(2) 0.47917(11) 0.23058(9)
H18 H -0.1188 0.4782 0.2663
C22 C 0.0786(2) 0.47822(10) 0.23285(9)
H19 H 0.1244 0.4771 0.2702
C23 C 0.17568(19) 0.23230(10) 0.20203(9)
H20 H 0.1825 0.2340 0.2458
H21 H 0.2236 0.1882 0.1885
C24 C 0.02330(18) 0.22793(10) 0.18479(8)
C25 C 0.30959(18) 0.34645(9) 0.21124(8)
H22 H 0.542(3) 0.4160(13) 0.2155(9)
F2 F 0.58987(17) 0.20836(8) 0.41956(7)
O3 O 0.61062(14) 0.44177(8) 0.28807(6)
O4 O 0.35112(16) 0.47397(10) 0.35346(8)
N2 N 0.59031(16) 0.34390(9) 0.34941(7)
C26 C 0.56822(18) 0.41268(11) 0.33326(8)
C27 C 0.4777(2) 0.44986(12) 0.38044(8)
C28 C 0.4551(2) 0.39034(12) 0.42450(8)
C29 C 0.52493(19) 0.32997(12) 0.40471(8)
C30 C 0.5250(2) 0.26848(13) 0.43861(10)
C31 C 0.4547(3) 0.26737(17) 0.49202(11)
H23 H 0.4555 0.2252 0.5156
C32 C 0.3837(3) 0.32673(19) 0.51109(10)
H24 H 0.3350 0.3251 0.5478
C33 C 0.3817(2) 0.38965(16) 0.47748(9)
H25 H 0.3316 0.4307 0.4905
C34 C 0.5572(2) 0.51633(12) 0.40348(9)
H26 H 0.5705 0.5482 0.3683
C35 C 0.4724(3) 0.55947(13) 0.44723(10)
H27 H 0.3735 0.5578 0.4435
C36 C 0.5241(3) 0.59914(13) 0.49008(11)
H28 H 0.6224 0.6023 0.4954
H29 H 0.4631 0.6247 0.5158
C37 C 0.7042(2) 0.49720(10) 0.42487(9)
C38 C 0.7276(2) 0.45611(11) 0.47554(9)
H30 H 0.6504 0.4402 0.4985
C39 C 0.8619(2) 0.43823(12) 0.49281(10)
H31 H 0.8762 0.4099 0.5273
C40 C 0.9757(2) 0.46143(13) 0.46012(11)
H32 H 1.0678 0.4486 0.4718
C41 C 0.9548(2) 0.50327(13) 0.41053(11)
H33 H 1.0326 0.5200 0.3883
C42 C 0.8196(2) 0.52091(11) 0.39317(9)
H34 H 0.8060 0.5498 0.3590
C43 C 0.6554(2) 0.29115(12) 0.31033(9)
H35 H 0.6592 0.3111 0.2697
H36 H 0.5958 0.2477 0.3091
C44 C 0.80115(19) 0.26968(10) 0.32891(8)
C45 C 0.8428(2) 0.19894(10) 0.32324(9)
H37 H 0.7780 0.1640 0.3096
C46 C 0.9776(2) 0.17863(11) 0.33718(9)
H38 H 1.0047 0.1299 0.3326
C47 C 1.0741(2) 0.22800(11) 0.35778(8)
C48 C 1.0323(2) 0.29894(11) 0.36305(9)
H39 H 1.0973 0.3338 0.3765
C49 C 0.8976(2) 0.31971(10) 0.34901(9)
H40 H 0.8709 0.3685 0.3532
C50 C 1.2199(2) 0.20524(16) 0.37424(12)
H41 H 1.2877 0.2367 0.3546
H42 H 1.2352 0.1556 0.3616
H43 H 1.2317 0.2087 0.4173
H44 H 0.330(5) 0.4361(18) 0.3309(17)
loop_
_geom_bond_atom_site_label_1
_geom_bond_atom_site_label_2
_geom_bond_site_symmetry_1
_geom_bond_site_symmetry_2
O1 C25 1_555 1_555
C1 C7 1_555 1_555
C2 C3 1_555 1_555
C3 C6 1_555 1_555
C4 C2 1_555 1_555
C5 H1 1_555 1_555
C6 C9 1_555 1_555
C7 C5 1_555 1_555
H2 C7 1_555 1_555
C8 H3 1_555 1_555
C9 C1 1_555 1_555
H4 C9 1_555 1_555
C10 C3 1_555 1_555
H5 C10 1_555 1_555
C11 C4 1_555 1_555
H6 C11 1_555 1_555
C12 C9 1_555 1_555
H7 C12 1_555 1_555
C13 H8 1_555 1_555
H9 C13 1_555 1_555
H10 C13 1_555 1_555
C14 C12 1_555 1_555
H11 C14 1_555 1_555
H12 C14 1_555 1_555
F1 C4 1_555 1_555
O2 C6 1_555 1_555
N1 C2 1_555 1_555
C15 H13 1_555 1_555
C16 C15 1_555 1_555
H14 C16 1_555 1_555
C17 C13 1_555 1_555
C18 C17 1_555 1_555
H15 C18 1_555 1_555
C19 C18 1_555 1_555
H16 C19 1_555 1_555
C20 C5 1_555 1_555
H17 C20 1_555 1_555
C21 C20 1_555 1_555
H18 C21 1_555 1_555
C22 C1 1_555 1_555
H19 C22 1_555 1_555
C23 N1 1_555 1_555
H20 C23 1_555 1_555
H21 C23 1_555 1_555
C24 C15 1_555 1_555
C25 C6 1_555 1_555
H22 O2 1_555 1_555
F2 C30 1_555 1_555
O3 C26 1_555 1_555
O4 C27 1_555 1_555
N2 C26 1_555 1_555
C26 C27 1_555 1_555
C27 C28 1_555 1_555
C28 C29 1_555 1_555
C29 N2 1_555 1_555
C30 C29 1_555 1_555
C31 C30 1_555 1_555
H23 C31 1_555 1_555
C32 C31 1_555 1_555
H24 C32 1_555 1_555
C33 C28 1_555 1_555
H25 C33 1_555 1_555
C34 C27 1_555 1_555
H26 C34 1_555 1_555
C35 C34 1_555 1_555
H27 C35 1_555 1_555
C36 C35 1_555 1_555
H28 C36 1_555 1_555
H29 C36 1_555 1_555
C37 C34 1_555 1_555
C38 C37 1_555 1_555
H30 C38 1_555 1_555
C39 C38 1_555 1_555
H31 C39 1_555 1_555
C40 C39 1_555 1_555
H32 C40 1_555 1_555
C41 C40 1_555 1_555
H33 C41 1_555 1_555
C42 C37 1_555 1_555
H34 C42 1_555 1_555
C43 N2 1_555 1_555
H35 C43 1_555 1_555
H36 C43 1_555 1_555
C44 C43 1_555 1_555
C45 C44 1_555 1_555
H37 C45 1_555 1_555
C46 C45 1_555 1_555
H38 C46 1_555 1_555
C47 C46 1_555 1_555
C48 C47 1_555 1_555
H39 C48 1_555 1_555
C49 C44 1_555 1_555
H40 C49 1_555 1_555
C50 C47 1_555 1_555
H41 C50 1_555 1_555
H42 C50 1_555 1_555
H43 C50 1_555 1_555
H44 O4 1_555 1_555
C8 C10 1_555 1_555
C8 C11 1_555 1_555
N1 C25 1_555 1_555
C16 C17 1_555 1_555
C19 C24 1_555 1_555
C21 C22 1_555 1_555
C23 C24 1_555 1_555
C32 C33 1_555 1_555
C41 C42 1_555 1_555
C48 C49 1_555 1_555

#END
