
#######################################################################
#
#                 Cambridge Crystallographic Data Centre
#                                CCDC 
#
#######################################################################
#
# If this CIF has been generated from an entry in the Cambridge 
# Structural Database, then it will include bibliographic, chemical, 
# crystal, experimental, refinement or atomic coordinate data resulting 
# from the CCDC's data processing and validation procedures.
#
#######################################################################

data_EHUZEN
_chemical_formula_moiety         'C20 H30 O2'
_chemical_name_systematic        'ent-trachyloban-18-oic acid'
_symmetry_cell_setting           trigonal
_symmetry_space_group_name_H-M   'P 32 2 1'
_symmetry_Int_Tables_number      154
_space_group_name_Hall           'P 32 2"'
loop_
_symmetry_equiv_pos_site_id
_symmetry_equiv_pos_as_xyz
1 x,y,z
2 -y,x-y,2/3+z
3 -x+y,-x,1/3+z
4 x-y,-y,1/3-z
5 -x,-x+y,2/3-z
6 y,x,-z
_cell_length_a                   7.591(2)
_cell_length_b                   7.591(2)
_cell_length_c                   53.694(10)
_cell_angle_alpha                90
_cell_angle_beta                 90
_cell_angle_gamma                120
_cell_volume                     2679.5
_exptl_crystal_colour            colorless
_exptl_crystal_description       prism
_cell_formula_units_Z            6
loop_
_atom_site_label
_atom_site_type_symbol
_atom_site_fract_x
_atom_site_fract_y
_atom_site_fract_z
O1 O 0.1624(8) 1.0032(8) 0.98583(10)
H1 H 0.0904 1.0280 0.9949
O2 O -0.1153(8) 0.7188(7) 0.98519(8)
C1 C 0.1049(10) 0.3471(9) 0.94298(12)
H2 H -0.0188 0.2538 0.9518
H3 H 0.1480 0.2668 0.9334
C2 C 0.2698(10) 0.4749(10) 0.96199(11)
H4 H 0.2921 0.3860 0.9729
H5 H 0.3963 0.5631 0.9534
C3 C 0.2075(9) 0.6036(8) 0.97747(10)
H6 H 0.3154 0.6850 0.9892
H7 H 0.0866 0.5143 0.9870
C4 C 0.1642(8) 0.7456(8) 0.96122(9)
C5 C 0.0091(8) 0.6171(7) 0.94063(8)
H8 H -0.1152 0.5241 0.9497
C6 C -0.0527(8) 0.7406(8) 0.92401(9)
H9 H -0.0760 0.8328 0.9341
H10 H 0.0560 0.8210 0.9124
C7 C -0.2445(9) 0.5986(9) 0.90987(11)
H11 H -0.2759 0.6792 0.8986
H12 H -0.3555 0.5340 0.9217
C8 C -0.2356(7) 0.4335(7) 0.89485(9)
C9 C -0.1411(8) 0.3311(7) 0.91059(9)
H13 H -0.2417 0.2568 0.9236
C10 C 0.0588(8) 0.4767(7) 0.92498(9)
C11 C -0.1313(10) 0.1656(9) 0.89517(11)
H14 H 0.0101 0.2041 0.8927
H15 H -0.1961 0.0390 0.9045
C12 C -0.2339(12) 0.1308(10) 0.86993(12)
H16 H -0.2344 0.0218 0.8601
C13 C -0.2120(9) 0.3064(10) 0.85492(11)
H17 H -0.1900 0.3104 0.8369
C14 C -0.1315(8) 0.5018(9) 0.86942(10)
H18 H -0.1672 0.5941 0.8614
H19 H 0.0152 0.5688 0.8711
C15 C -0.4482(8) 0.2701(9) 0.88658(11)
H20 H -0.5209 0.1785 0.9002
H21 H -0.5262 0.3315 0.8808
C16 C -0.4131(10) 0.1577(9) 0.86568(11)
C17 C -0.5900(10) 0.0148(10) 0.84990(13)
H22 H -0.6633 0.0808 0.8446
H23 H -0.6786 -0.1042 0.8594
H24 H -0.5415 -0.0240 0.8356
C18 C 0.0635(10) 0.8267(10) 0.97813(10)
C19 C 0.3638(8) 0.9261(8) 0.95164(10)
H25 H 0.4470 1.0016 0.9655
H26 H 0.3340 1.0131 0.9417
H27 H 0.4351 0.8765 0.9417
C20 C 0.2414(8) 0.5924(10) 0.90738(10)
H28 H 0.2367 0.7056 0.9001
H29 H 0.2360 0.5028 0.8944
H30 H 0.3656 0.6411 0.9166
H31? H -0.1466 0.7854 0.9943
loop_
_geom_bond_atom_site_label_1
_geom_bond_atom_site_label_2
_geom_bond_site_symmetry_1
_geom_bond_site_symmetry_2
O1 H1 1_555 1_555
O2 C18 1_555 1_555
C1 H2 1_555 1_555
H3 C1 1_555 1_555
C2 C1 1_555 1_555
H4 C2 1_555 1_555
H5 C2 1_555 1_555
C3 C2 1_555 1_555
H6 C3 1_555 1_555
H7 C3 1_555 1_555
C4 C3 1_555 1_555
C5 C4 1_555 1_555
H8 C5 1_555 1_555
C6 C5 1_555 1_555
H9 C6 1_555 1_555
H10 C6 1_555 1_555
C7 C6 1_555 1_555
H11 C7 1_555 1_555
H12 C7 1_555 1_555
C8 C7 1_555 1_555
C9 C8 1_555 1_555
H13 C9 1_555 1_555
C10 C1 1_555 1_555
C11 C9 1_555 1_555
H14 C11 1_555 1_555
H15 C11 1_555 1_555
C12 C11 1_555 1_555
H16 C12 1_555 1_555
C13 C12 1_555 1_555
H17 C13 1_555 1_555
C14 C8 1_555 1_555
H18 C14 1_555 1_555
H19 C14 1_555 1_555
C15 C8 1_555 1_555
H20 C15 1_555 1_555
H21 C15 1_555 1_555
C16 C12 1_555 1_555
C17 C16 1_555 1_555
H22 C17 1_555 1_555
H23 C17 1_555 1_555
H24 C17 1_555 1_555
C18 O1 1_555 1_555
C19 C4 1_555 1_555
H25 C19 1_555 1_555
H26 C19 1_555 1_555
H27 C19 1_555 1_555
C20 C10 1_555 1_555
H28 C20 1_555 1_555
H29 C20 1_555 1_555
H30 C20 1_555 1_555
C4 C18 1_555 1_555
C5 C10 1_555 1_555
C9 C10 1_555 1_555
C13 C14 1_555 1_555
C13 C16 1_555 1_555
C15 C16 1_555 1_555

#END
