
#######################################################################
#
#                 Cambridge Crystallographic Data Centre
#                                CCDC 
#
#######################################################################
#
# If this CIF has been generated from an entry in the Cambridge 
# Structural Database, then it will include bibliographic, chemical, 
# crystal, experimental, refinement or atomic coordinate data resulting 
# from the CCDC's data processing and validation procedures.
#
#######################################################################

data_EJADUP
_chemical_formula_moiety         'C20 H26 N2 O6 S2,4(H2 O1)'
_chemical_name_systematic        
"4,11-Dihydroxy-6a,13a-bis(methylsulfanyl)dodecahydro-1H,6H-indolo[1',2':4,5]pyrazino[1,2-a]indole-1,6,8,13(2H,6aH)-tetrone tetrahydrate"
_symmetry_cell_setting           monoclinic
_symmetry_space_group_name_H-M   'P 21'
_symmetry_Int_Tables_number      4
_space_group_name_Hall           'P 2yb'
loop_
_symmetry_equiv_pos_site_id
_symmetry_equiv_pos_as_xyz
1 x,y,z
2 -x,1/2+y,-z
_cell_length_a                   10.949(2)
_cell_length_b                   8.7488(17)
_cell_length_c                   13.036(3)
_cell_angle_alpha                90
_cell_angle_beta                 99.22(3)
_cell_angle_gamma                90
_cell_volume                     1232.59
_exptl_crystal_colour            colorless
_exptl_crystal_description       block
_cell_formula_units_Z            2
loop_
_atom_site_label
_atom_site_type_symbol
_atom_site_fract_x
_atom_site_fract_y
_atom_site_fract_z
S1 S 0.57682(6) 0.35919(7) 0.27376(5)
S2 S 0.63020(6) 0.58111(7) 0.52714(5)
O1 O 0.80016(18) 0.1372(2) 0.40816(14)
O2 O 0.64833(18) 0.3232(2) 0.02730(15)
O3 O 0.83517(19) 0.7810(2) 0.10547(16)
H1 H 0.8056 0.8661 0.0845
O4 O 0.86497(16) 0.72381(19) 0.41600(14)
O5 O 0.7960(2) 0.5711(3) 0.79987(16)
O6 O 0.83080(17) 0.0673(2) 0.70846(14)
H2 H 0.7868 0.0060 0.7361
N1 N 0.78177(19) 0.3530(2) 0.50148(16)
N2 N 0.77983(19) 0.5255(2) 0.31930(17)
C1 C 0.7807(2) 0.2742(3) 0.41061(19)
C2 C 0.7466(2) 0.3634(3) 0.31052(18)
C3 C 0.8144(2) 0.3068(3) 0.2247(2)
H3 H 0.7743 0.2145 0.1906
H4 H 0.9021 0.2836 0.2519
C4 C 0.8031(2) 0.4432(3) 0.1494(2)
H5 H 0.8730 0.4382 0.1087
C5 C 0.6826(3) 0.4407(3) 0.0737(2)
C6 C 0.6140(3) 0.5891(4) 0.0470(2)
H6 H 0.5250 0.5660 0.0264
H7 H 0.6438 0.6351 -0.0139
C7 C 0.6282(3) 0.7059(3) 0.1341(2)
H8 H 0.5926 0.8045 0.1067
H9 H 0.5812 0.6711 0.1887
C8 C 0.7625(3) 0.7299(3) 0.1820(2)
H10 H 0.7677 0.8068 0.2393
C9 C 0.8246(2) 0.5819(3) 0.22389(19)
H11 H 0.9157 0.6005 0.2412
C10 C 0.8158(2) 0.5972(3) 0.4105(2)
C11 C 0.7868(2) 0.5195(3) 0.5077(2)
C12 C 0.8860(2) 0.5495(3) 0.6034(2)
H12 H 0.9698 0.5511 0.5842
H13 H 0.8709 0.6478 0.6369
C13 C 0.8713(3) 0.4145(3) 0.6754(2)
H14 H 0.9548 0.3918 0.7158
C14 C 0.7859(3) 0.4494(3) 0.7528(2)
C15 C 0.6983(3) 0.3286(3) 0.7787(2)
H15 H 0.6286 0.3785 0.8054
H16 H 0.7419 0.2629 0.8347
C16 C 0.6470(3) 0.2287(3) 0.6859(2)
H17 H 0.5961 0.1460 0.7090
H18 H 0.5930 0.2912 0.6338
C17 C 0.7497(3) 0.1594(3) 0.6362(2)
H19 H 0.7130 0.0951 0.5756
C18 C 0.8356(2) 0.2794(3) 0.60001(19)
H20 H 0.9135 0.2268 0.5890
C19 C 0.5477(3) 0.1612(3) 0.2402(3)
H21 H 0.4593 0.1394 0.2369
H22 H 0.5958 0.0962 0.2931
H23 H 0.5721 0.1405 0.1724
C20 C 0.6483(3) 0.7849(3) 0.5456(2)
H24 H 0.5702 0.8291 0.5592
H25 H 0.6709 0.8311 0.4828
H26 H 0.7136 0.8050 0.6048
O7 O 0.9903(3) 0.6718(4) -0.0284(2)
H27 H 0.9370 0.6889 0.0099
H28 H 0.9367 0.6504 -0.0800
O8 O 0.7132(2) -0.1209(2) 0.82584(17)
H29 H 0.7259 -0.0679 0.8803
H30 H 0.7458 -0.2080 0.8317
O9 O 0.7799(2) 1.0530(2) 0.00688(16)
H31 H 0.7381 1.1338 0.0050
H32 H 0.8532 1.0755 0.0018
O10 O 0.97708(18) -0.0942(2) 0.58472(16)
H33 H 0.9150 -0.0504 0.6017
H34 H 0.9383 -0.1433 0.5344
loop_
_geom_bond_atom_site_label_1
_geom_bond_atom_site_label_2
_geom_bond_site_symmetry_1
_geom_bond_site_symmetry_2
S1 C2 1_555 1_555
S2 C11 1_555 1_555
O1 C1 1_555 1_555
O2 C5 1_555 1_555
O3 H1 1_555 1_555
O4 C10 1_555 1_555
O5 C14 1_555 1_555
O6 H2 1_555 1_555
N1 C1 1_555 1_555
N2 C2 1_555 1_555
C1 C2 1_555 1_555
C2 C3 1_555 1_555
C3 H3 1_555 1_555
H4 C3 1_555 1_555
C4 C3 1_555 1_555
H5 C4 1_555 1_555
C5 C4 1_555 1_555
C6 C5 1_555 1_555
H6 C6 1_555 1_555
H7 C6 1_555 1_555
C7 C6 1_555 1_555
H8 C7 1_555 1_555
H9 C7 1_555 1_555
C8 O3 1_555 1_555
H10 C8 1_555 1_555
C9 N2 1_555 1_555
H11 C9 1_555 1_555
C10 N2 1_555 1_555
C11 N1 1_555 1_555
C12 C11 1_555 1_555
H12 C12 1_555 1_555
H13 C12 1_555 1_555
C13 C12 1_555 1_555
H14 C13 1_555 1_555
C14 C13 1_555 1_555
C15 C14 1_555 1_555
H15 C15 1_555 1_555
H16 C15 1_555 1_555
C16 C15 1_555 1_555
H17 C16 1_555 1_555
H18 C16 1_555 1_555
C17 O6 1_555 1_555
H19 C17 1_555 1_555
C18 N1 1_555 1_555
H20 C18 1_555 1_555
C19 S1 1_555 1_555
H21 C19 1_555 1_555
H22 C19 1_555 1_555
H23 C19 1_555 1_555
C20 S2 1_555 1_555
H24 C20 1_555 1_555
H25 C20 1_555 1_555
H26 C20 1_555 1_555
O7 H27 1_555 1_555
H28 O7 1_555 1_555
O8 H29 1_555 1_555
H30 O8 1_555 1_555
O9 H31 1_555 1_555
H32 O9 1_555 1_555
O10 H33 1_555 1_555
H34 O10 1_555 1_555
C4 C9 1_555 1_555
C7 C8 1_555 1_555
C8 C9 1_555 1_555
C10 C11 1_555 1_555
C13 C18 1_555 1_555
C16 C17 1_555 1_555
C17 C18 1_555 1_555

#END
