
#######################################################################
#
#                 Cambridge Crystallographic Data Centre
#                                CCDC 
#
#######################################################################
#
# If this CIF has been generated from an entry in the Cambridge 
# Structural Database, then it will include bibliographic, chemical, 
# crystal, experimental, refinement or atomic coordinate data resulting 
# from the CCDC's data processing and validation procedures.
#
#######################################################################

data_EJAKUW
_chemical_formula_moiety         'C5 H7 N3'
_chemical_name_systematic        4-Cyclopropyl-1H-1,2,3-triazole
_symmetry_cell_setting           orthorhombic
_symmetry_space_group_name_H-M   'P n m a'
_symmetry_Int_Tables_number      62
_space_group_name_Hall           '-P 2ac 2n'
loop_
_symmetry_equiv_pos_site_id
_symmetry_equiv_pos_as_xyz
1 x,y,z
2 1/2-x,-y,1/2+z
3 -x,1/2+y,-z
4 1/2+x,1/2-y,1/2-z
5 -x,-y,-z
6 1/2+x,y,1/2-z
7 x,1/2-y,z
8 1/2-x,1/2+y,1/2+z
_cell_length_a                   5.6470(2)
_cell_length_b                   7.3359(4)
_cell_length_c                   13.4404(7)
_cell_angle_alpha                90
_cell_angle_beta                 90
_cell_angle_gamma                90
_cell_volume                     556.78
_exptl_crystal_colour            colorless
_exptl_crystal_description       block
_cell_formula_units_Z            4
loop_
_atom_site_label
_atom_site_type_symbol
_atom_site_fract_x
_atom_site_fract_y
_atom_site_fract_z
N1 N 0.4993(3) 0.2500 0.65748(13)
H1 H 0.4067 0.2500 0.7101
N2 N 0.7353(4) 0.2500 0.65995(13)
N3 N 0.8170(3) 0.2500 0.56726(13)
C1 C 0.6263(4) 0.2500 0.50548(15)
C2 C 0.4238(4) 0.2500 0.56274(16)
H2 H 0.2645 0.2500 0.5400
C3 C 0.6518(4) 0.2500 0.39579(16)
H3 H 0.5000 0.2500 0.3575
C4 C 0.8541(3) 0.1482(2) 0.34772(12)
H4 H 0.9682 0.0854 0.3919
H5 H 0.8227 0.0854 0.2839
C4F C 0.8541(3) 0.3518(2) 0.34772(12)
H4F H 0.9682 0.4146 0.3919
H5F H 0.8227 0.4146 0.2839
loop_
_geom_bond_atom_site_label_1
_geom_bond_atom_site_label_2
_geom_bond_site_symmetry_1
_geom_bond_site_symmetry_2
N1 H1 1_555 1_555
N2 N1 1_555 1_555
N3 N2 1_555 1_555
C1 N3 1_555 1_555
C2 N1 1_555 1_555
H2 C2 1_555 1_555
C3 C1 1_555 1_555
H3 C3 1_555 1_555
C4 C3 1_555 1_555
H4 C4 1_555 1_555
H5 C4 1_555 1_555
C4F C3 1_555 1_555
H4F C4F 1_555 1_555
H5F C4F 1_555 1_555
C1 C2 1_555 1_555
C4 C4F 1_555 1_555

#END
