
#######################################################################
#
#                 Cambridge Crystallographic Data Centre
#                                CCDC 
#
#######################################################################
#
# If this CIF has been generated from an entry in the Cambridge 
# Structural Database, then it will include bibliographic, chemical, 
# crystal, experimental, refinement or atomic coordinate data resulting 
# from the CCDC's data processing and validation procedures.
#
#######################################################################

data_EJAXET
_chemical_compound_source        'Cyclea racemosa'
_chemical_name_common            
'Metocurinediium diiodide methanol chloroform solvate'
_chemical_formula_moiety         
'C40 H48 N2 O6 2+,C1 H4 O1,2(C1 H1 Cl3),2(I1 1-)'
_chemical_name_systematic        
"6,6',7',12'-Tetramethoxy-2,2,2',2'-tetramethyltubocuraran-2,2'-diium diiodide methanol chloroform solvate"
_chemical_properties_biological  'cytotoxicity against tumour cells'
_symmetry_cell_setting           orthorhombic
_symmetry_space_group_name_H-M   'P 21 21 21'
_symmetry_Int_Tables_number      19
_space_group_name_Hall           'P 2ac 2ab'
loop_
_symmetry_equiv_pos_site_id
_symmetry_equiv_pos_as_xyz
1 x,y,z
2 1/2-x,-y,1/2+z
3 1/2+x,1/2-y,-z
4 -x,1/2+y,1/2-z
_cell_length_a                   15.2225(2)
_cell_length_b                   15.8415(2)
_cell_length_c                   19.7187(3)
_cell_angle_alpha                90
_cell_angle_beta                 90
_cell_angle_gamma                90
_cell_volume                     4755.11
_exptl_crystal_colour            colorless
_exptl_crystal_description       block
_chemical_melting_point          '242-246 deg.C'
_cell_formula_units_Z            4
loop_
_atom_site_label
_atom_site_type_symbol
_atom_site_fract_x
_atom_site_fract_y
_atom_site_fract_z
I1 I 1.28084(4) 0.99793(4) 0.68891(3)
I2 I 0.82217(4) 1.13200(4) 0.54734(4)
Cl1 Cl 0.96533(16) 0.6723(2) 0.89289(14)
Cl2 Cl 0.79489(19) 0.6865(4) 0.95189(19)
Cl3 Cl 0.8312(4) 0.7682(3) 0.8230(3)
C1 C 0.8541(8) 0.6832(8) 0.8741(6)
H1 H 0.8353 0.6312 0.8492
O1 O 0.5295(3) 0.9952(4) 0.7332(3)
O2 O 0.3013(4) 0.6850(4) 0.4810(3)
O3 O 0.6397(4) 1.0150(4) 0.8410(3)
O4 O 0.4612(5) 0.8389(5) 0.3657(4)
O5 O 0.7383(4) 1.1603(4) 0.8523(3)
O6 O 0.4021(4) 0.8180(4) 0.4921(3)
N1 N 0.6878(4) 0.5619(4) 0.5700(3)
N2 N 0.4823(4) 1.1843(5) 0.5924(4)
C2 C 0.5616(5) 0.9167(5) 0.7143(4)
C3 C 0.4853(5) 0.9362(5) 0.5310(4)
H2 H 0.4626 0.9281 0.5754
C4 C 0.6469(5) 0.6487(5) 0.5845(4)
H3 H 0.6851 0.6930 0.5635
C5 C 0.6511(5) 0.9002(5) 0.7024(4)
H4 H 0.6939 0.9436 0.7061
C6 C 0.5735(5) 1.1272(5) 0.6859(4)
C7 C 0.5830(5) 1.0655(5) 0.7359(4)
C8 C 0.5253(5) 0.7737(5) 0.6889(4)
H5 H 0.4821 0.7309 0.6837
C9 C 0.5441(5) 1.0026(5) 0.5178(3)
C10 C 0.6870(5) 1.1525(5) 0.7972(4)
C11 C 0.6197(5) 1.2021(5) 0.6917(4)
C12 C 0.5256(5) 0.7325(5) 0.5322(4)
H6 H 0.5627 0.7806 0.5348
C13 C 0.5212(5) 1.1034(5) 0.6232(4)
H7 H 0.4719 1.0653 0.6369
C14 C 0.4181(6) 0.5910(6) 0.5202(4)
H8 H 0.3825 0.5421 0.5150
C15 C 0.5719(5) 1.0160(5) 0.4512(4)
H9 H 0.6095 1.0623 0.4414
C16 C 0.4388(6) 0.7412(5) 0.5092(4)
C17 C 0.5041(5) 0.5837(5) 0.5440(4)
C18 C 0.7738(6) 0.5515(5) 0.6056(4)
H10 H 0.7635 0.5441 0.6543
H11 H 0.8101 0.6017 0.5981
H12 H 0.8042 0.5017 0.5877
C19 C 0.5577(5) 0.6529(5) 0.5516(4)
C20 C 0.4164(6) 1.2214(6) 0.6412(5)
H13 H 0.4472 1.2442 0.6808
H14 H 0.3753 1.1774 0.6557
H15 H 0.3839 1.2669 0.6187
C21 C 0.6748(6) 0.8187(5) 0.6850(4)
H16 H 0.7350 0.8061 0.6774
C22 C 0.5551(6) 1.2471(6) 0.5786(4)
H17 H 0.5295 1.2982 0.5573
H18 H 0.5970 1.2221 0.5459
C23 C 0.6419(6) 0.6654(5) 0.6619(4)
H19 H 0.6004 0.6248 0.6827
H20 H 0.7005 0.6557 0.6822
C24 C 0.5459(6) 0.9638(6) 0.3993(5)
H21 H 0.5654 0.9741 0.3543
C25 C 0.3846(6) 0.6709(6) 0.5040(4)
C26 C 0.6049(6) 1.2730(5) 0.6427(4)
H22 H 0.6626 1.2967 0.6293
H23 H 0.5716 1.3183 0.6658
C27 C 0.5392(6) 0.4953(6) 0.5561(4)
H24 H 0.5454 0.4664 0.5119
H25 H 0.4955 0.4634 0.5831
C28 C 0.4993(5) 0.8547(5) 0.7072(4)
H26 H 0.4390 0.8670 0.7148
C29 C 0.5828(5) 1.0548(5) 0.5750(4)
H27 H 0.6233 1.0964 0.5543
H28 H 0.6191 1.0165 0.6031
C30 C 0.4607(6) 0.8831(6) 0.4793(5)
C31 C 0.6397(6) 1.0762(5) 0.7914(4)
C32 C 0.7243(6) 0.9764(6) 0.8558(5)
H29 H 0.7449 0.9453 0.8158
H30 H 0.7181 0.9374 0.8941
H31 H 0.7669 1.0205 0.8673
C33 C 0.6124(5) 0.7542(5) 0.6782(4)
C34 C 0.7069(6) 0.5570(6) 0.4952(4)
H32 H 0.7494 0.6009 0.4829
H33 H 0.6525 0.5656 0.4696
H34 H 0.7314 0.5014 0.4844
C35 C 0.2429(6) 0.6140(6) 0.4779(5)
H35 H 0.2685 0.5702 0.4489
H36 H 0.1863 0.6319 0.4591
H37 H 0.2340 0.5914 0.5237
C36 C 0.4901(5) 0.8946(6) 0.4131(5)
C37 C 0.4364(6) 1.1660(6) 0.5267(4)
H38 H 0.4091 1.2178 0.5096
H39 H 0.3911 1.1231 0.5342
H40 H 0.4791 1.1452 0.4935
C38 C 0.6763(5) 1.2138(5) 0.7469(4)
H41 H 0.7084 1.2650 0.7503
C39 C 0.6278(5) 0.4924(6) 0.5930(4)
H42 H 0.6178 0.4976 0.6424
H43 H 0.6562 0.4372 0.5844
C40 C 0.7794(8) 1.2403(7) 0.8641(6)
H44 H 0.8212 1.2521 0.8275
H45 H 0.8106 1.2389 0.9076
H46 H 0.7345 1.2846 0.8653
C41 C 0.4851(8) 0.8519(8) 0.2975(6)
H47 H 0.4554 0.9024 0.2801
H48 H 0.4676 0.8027 0.2705
H49 H 0.5489 0.8595 0.2943
O7 O 0.3132(5) 1.1567(5) 0.3984(4)
H50 H 0.3162 1.2058 0.4143
C42 C 0.3673(9) 1.1508(8) 0.3397(6)
H51 H 0.3306 1.1397 0.2999
H52 H 0.4095 1.1045 0.3455
H53 H 0.3992 1.2039 0.3333
Cl4 Cl 0.8747(4) 1.0019(7) 0.7198(3)
Cl5 Cl 0.9209(6) 0.8459(6) 0.6538(3)
Cl6 Cl 1.0551(3) 0.9663(5) 0.6736(3)
C43 C 0.9347(18) 0.9583(17) 0.6642(14)
H54 H 0.9195 0.9849 0.6198
loop_
_geom_bond_atom_site_label_1
_geom_bond_atom_site_label_2
_geom_bond_site_symmetry_1
_geom_bond_site_symmetry_2
Cl1 C1 1_555 1_555
Cl2 C1 1_555 1_555
Cl3 C1 1_555 1_555
C1 H1 1_555 1_555
O1 C2 1_555 1_555
O2 C25 1_555 1_555
O3 C31 1_555 1_555
O4 C36 1_555 1_555
O5 C10 1_555 1_555
O6 C16 1_555 1_555
N1 C4 1_555 1_555
N2 C13 1_555 1_555
C2 C5 1_555 1_555
C3 H2 1_555 1_555
C4 H3 1_555 1_555
C5 H4 1_555 1_555
C6 C7 1_555 1_555
C7 O1 1_555 1_555
C8 H5 1_555 1_555
C9 C3 1_555 1_555
C10 C31 1_555 1_555
C11 C6 1_555 1_555
C12 H6 1_555 1_555
C13 C6 1_555 1_555
H7 C13 1_555 1_555
C14 H8 1_555 1_555
C15 C9 1_555 1_555
H9 C15 1_555 1_555
C16 C12 1_555 1_555
C17 C14 1_555 1_555
C18 N1 1_555 1_555
H10 C18 1_555 1_555
H11 C18 1_555 1_555
H12 C18 1_555 1_555
C19 C4 1_555 1_555
C20 N2 1_555 1_555
H13 C20 1_555 1_555
H14 C20 1_555 1_555
H15 C20 1_555 1_555
C21 C5 1_555 1_555
H16 C21 1_555 1_555
C22 N2 1_555 1_555
H17 C22 1_555 1_555
H18 C22 1_555 1_555
C23 C4 1_555 1_555
H19 C23 1_555 1_555
H20 C23 1_555 1_555
C24 C15 1_555 1_555
H21 C24 1_555 1_555
C25 C14 1_555 1_555
C26 C11 1_555 1_555
H22 C26 1_555 1_555
H23 C26 1_555 1_555
C27 C17 1_555 1_555
H24 C27 1_555 1_555
H25 C27 1_555 1_555
C28 C2 1_555 1_555
H26 C28 1_555 1_555
C29 C9 1_555 1_555
H27 C29 1_555 1_555
H28 C29 1_555 1_555
C30 O6 1_555 1_555
C31 C7 1_555 1_555
C32 O3 1_555 1_555
H29 C32 1_555 1_555
H30 C32 1_555 1_555
H31 C32 1_555 1_555
C33 C8 1_555 1_555
C34 N1 1_555 1_555
H32 C34 1_555 1_555
H33 C34 1_555 1_555
H34 C34 1_555 1_555
C35 O2 1_555 1_555
H35 C35 1_555 1_555
H36 C35 1_555 1_555
H37 C35 1_555 1_555
C36 C24 1_555 1_555
C37 N2 1_555 1_555
H38 C37 1_555 1_555
H39 C37 1_555 1_555
H40 C37 1_555 1_555
C38 C10 1_555 1_555
H41 C38 1_555 1_555
C39 N1 1_555 1_555
H42 C39 1_555 1_555
H43 C39 1_555 1_555
C40 O5 1_555 1_555
H44 C40 1_555 1_555
H45 C40 1_555 1_555
H46 C40 1_555 1_555
C41 O4 1_555 1_555
H47 C41 1_555 1_555
H48 C41 1_555 1_555
H49 C41 1_555 1_555
O7 H50 1_555 1_555
C42 O7 1_555 1_555
H51 C42 1_555 1_555
H52 C42 1_555 1_555
H53 C42 1_555 1_555
Cl4 C43 1_555 1_555
Cl5 C43 1_555 1_555
Cl6 C43 1_555 1_555
C43 H54 1_555 1_555
C3 C30 1_555 1_555
C8 C28 1_555 1_555
C11 C38 1_555 1_555
C12 C19 1_555 1_555
C13 C29 1_555 1_555
C16 C25 1_555 1_555
C17 C19 1_555 1_555
C21 C33 1_555 1_555
C22 C26 1_555 1_555
C23 C33 1_555 1_555
C27 C39 1_555 1_555
C30 C36 1_555 1_555

#END
