
#######################################################################
#
#                 Cambridge Crystallographic Data Centre
#                                CCDC 
#
#######################################################################
#
# If this CIF has been generated from an entry in the Cambridge 
# Structural Database, then it will include bibliographic, chemical, 
# crystal, experimental, refinement or atomic coordinate data resulting 
# from the CCDC's data processing and validation procedures.
#
#######################################################################

data_EJAYEV
_chemical_formula_moiety         'C32 H12 B1 F24 1-,C15 H34 N4 P1 1+'
_chemical_name_systematic        
'2,8,9-Tri-isopropyl-2,8,9-triaza-5-azonia-1\l^5^-phosphatricyclo[3.3.3.0^1,5^]undecane tetrakis(3,5-bis(trifluoromethyl)phenyl)borate'
_symmetry_cell_setting           triclinic
_symmetry_space_group_name_H-M   'P -1'
_symmetry_Int_Tables_number      2
_space_group_name_Hall           '-P 1'
loop_
_symmetry_equiv_pos_site_id
_symmetry_equiv_pos_as_xyz
1 x,y,z
2 -x,-y,-z
_cell_length_a                   13.8913(9)
_cell_length_b                   13.9728(10)
_cell_length_c                   14.2594(8)
_cell_angle_alpha                94.681(5)
_cell_angle_beta                 90.104(5)
_cell_angle_gamma                113.371(7)
_cell_volume                     2530.43
_exptl_crystal_colour            colorless
_exptl_crystal_description       irregular
_cell_formula_units_Z            2
loop_
_atom_site_label
_atom_site_type_symbol
_atom_site_fract_x
_atom_site_fract_y
_atom_site_fract_z
P1 P 0.22470(4) 0.01967(4) 0.18619(4)
C1 C 0.32208(18) 0.13766(18) 0.04317(16)
H1 H 0.2758 0.0713 0.0092
C2 C 0.2579(2) 0.0161(2) 0.37846(18)
H2 H 0.1857 -0.0127 0.3976
H3 H 0.3035 0.0462 0.4342
C3 C 0.0974(2) 0.0851(2) 0.29405(19)
H4 H 0.0614 0.0347 0.3385
H5 H 0.0567 0.1259 0.2828
C4 C 0.3937(2) 0.2060(2) 0.20717(18)
H6 H 0.3724 0.2644 0.2092
H7 H 0.4652 0.2294 0.1865
C5 C 0.2760(2) 0.2179(2) 0.0266(2)
H8 H 0.2722 0.2241 -0.0397
H9 H 0.3201 0.2845 0.0580
H10 H 0.2069 0.1954 0.0510
C6 C 0.01484(18) -0.03880(18) 0.15246(17)
H11 H 0.0365 -0.0619 0.0925
C7 C 0.4302(2) 0.1669(2) 0.00287(18)
H12 H 0.4254 0.1699 -0.0639
H13 H 0.4568 0.1152 0.0155
H14 H 0.4768 0.2341 0.0316
C8 C 0.2581(2) -0.16115(19) 0.16553(18)
H15 H 0.2254 -0.1613 0.1045
C9 C 0.2070(2) 0.1559(2) 0.33175(19)
H16 H 0.2331 0.2201 0.3007
H17 H 0.2067 0.1734 0.3989
C10 C -0.0536(2) 0.0186(2) 0.1294(2)
H18 H -0.0118 0.0821 0.1024
H19 H -0.0834 0.0350 0.1860
H20 H -0.1089 -0.0250 0.0853
C11 C 0.38539(19) 0.1651(2) 0.30238(18)
H21 H 0.4289 0.1257 0.3070
H22 H 0.4081 0.2224 0.3516
C12 C 0.1999(3) -0.2685(2) 0.2009(2)
H23 H 0.1287 -0.2785 0.2126
H24 H 0.2337 -0.2730 0.2581
H25 H 0.2006 -0.3217 0.1542
C13 C 0.3721(3) -0.1398(3) 0.1494(2)
H26 H 0.3764 -0.1907 0.1020
H27 H 0.4053 -0.1442 0.2070
H28 H 0.4068 -0.0710 0.1289
C14 C 0.2850(2) -0.0681(2) 0.32597(18)
H29 H 0.3603 -0.0484 0.3283
H30 H 0.2515 -0.1340 0.3538
C15 C -0.0458(2) -0.1369(2) 0.2022(2)
H31 H -0.1021 -0.1849 0.1613
H32 H -0.0739 -0.1179 0.2587
H33 H 0.0006 -0.1695 0.2178
N1 N 0.24664(16) -0.07789(16) 0.22954(14)
N2 N 0.11163(15) 0.03206(15) 0.20630(14)
N3 N 0.27342(16) 0.09649(16) 0.31180(14)
N4 N 0.32347(15) 0.11884(15) 0.14357(13)
H34 H 0.1944(19) -0.0294(18) 0.1049(17)
F1 F 0.31685(11) 0.42053(12) 0.32524(10)
C16 C 0.61557(19) 0.69334(18) 0.30836(16)
C17 C 0.39296(18) 0.46423(19) 0.39325(16)
F2 F 0.7104(2) 0.86387(14) 0.37796(15)
C18 C 0.5962(2) 0.45005(18) -0.08909(17)
C19 C 0.65552(17) 0.22668(18) 0.37169(16)
C20 C 0.87248(19) 0.58679(18) 0.00659(16)
F3 F 1.01728(17) 0.74850(16) 0.01296(19)
F4 F 0.78255(17) 0.15462(14) 0.08791(15)
C21 C 0.67750(18) 0.47538(17) 0.07407(16)
H35 H 0.6109 0.4384 0.0956
C22 C 0.65895(18) 0.15452(18) 0.30033(16)
H36 H 0.6434 0.0854 0.3117
C23 C 0.68847(19) 0.49183(17) -0.02052(16)
C24 C 0.6484(2) 0.8088(2) 0.30354(19)
C25 C 0.6947(2) 0.11414(18) 0.13391(17)
C26 C 0.9784(2) 0.6513(2) -0.02777(18)
C27 C 0.62458(19) 0.19224(19) 0.46753(17)
B1 B 0.7453(2) 0.49191(19) 0.24993(17)
C28 C 0.98135(18) 0.68025(18) 0.42471(16)
C29 C 0.68613(18) 0.18816(17) 0.21177(16)
C30 C 1.05022(18) 0.63117(19) 0.41962(16)
H37 H 1.1132 0.6584 0.4549
C31 C 1.0065(2) 0.7785(2) 0.48761(18)
F5 F 1.05111(18) 0.6185(2) -0.0055(3)
F6 F 0.9815(2) 0.6604(3) -0.11661(16)
C32 C 1.09610(19) 0.4853(2) 0.35259(17)
C33 C 0.68216(19) 0.64633(18) 0.27648(16)
H38 H 0.7437 0.6865 0.2483
F7 F 0.61804(18) 0.08680(17) 0.06903(14)
C34 C 0.7867(2) 0.54791(18) -0.05568(16)
H39 H 0.7942 0.5588 -0.1192
C35 C 0.86116(18) 0.56897(17) 0.10179(16)
H40 H 0.9204 0.5954 0.1420
F8 F 0.52560(13) 0.17982(18) 0.48511(12)
C36 C 0.92922(18) 0.50037(17) 0.30706(15)
H41 H 0.9138 0.4403 0.2664
C37 C 0.67990(17) 0.33048(17) 0.35432(15)
H42 H 0.6792 0.3777 0.4040
C38 C 0.88634(18) 0.63858(17) 0.37324(15)
H43 H 0.8409 0.6726 0.3798
C39 C 0.70721(17) 0.29157(17) 0.19400(16)
H44 H 0.7229 0.3111 0.1332
F9 F 1.00726(18) 0.85825(13) 0.44022(13)
F10 F 1.16724(15) 0.52145(15) 0.28778(13)
F11 F 0.63055(19) 0.10178(14) 0.48137(12)
C40 C 0.85692(18) 0.54769(17) 0.31226(15)
F12 F 1.09915(15) 0.81276(16) 0.53227(16)
C41 C 1.02248(18) 0.53961(18) 0.36002(16)
C42 C 0.56441(18) 0.48345(17) 0.32389(15)
H45 H 0.5455 0.4125 0.3296
C43 C 0.52144(19) 0.63527(19) 0.34798(16)
H46 H 0.4767 0.6664 0.3696
F13 F 0.56818(15) 0.83787(14) 0.30378(16)
C44 C 0.70548(17) 0.36654(17) 0.26454(15)
C45 C 0.49580(18) 0.52949(18) 0.35443(15)
C46 C 0.65995(17) 0.54021(17) 0.28525(15)
F14 F 0.93600(14) 0.76868(13) 0.55284(12)
F15 F 0.70265(16) 0.84422(13) 0.22841(14)
F16 F 1.04635(14) 0.38218(13) 0.32962(15)
C47 C 0.76380(17) 0.51286(16) 0.13847(15)
F17 F 0.60221(15) 0.37696(13) -0.15274(12)
F18 F 1.14854(13) 0.49449(14) 0.43335(12)
F19 F 0.69343(17) 0.02599(13) 0.16304(12)
F20 F 0.35850(12) 0.51876(12) 0.45514(11)
F21 F 0.58862(12) 0.52519(12) -0.13770(10)
F22 F 0.68252(13) 0.26103(13) 0.53691(10)
F23 F 0.50405(12) 0.40551(12) -0.04796(11)
F24 F 0.39650(11) 0.38343(12) 0.43682(10)
loop_
_geom_bond_atom_site_label_1
_geom_bond_atom_site_label_2
_geom_bond_site_symmetry_1
_geom_bond_site_symmetry_2
P1 N1 1_555 1_555
C1 H1 1_555 1_555
C2 H2 1_555 1_555
H3 C2 1_555 1_555
C3 H4 1_555 1_555
H5 C3 1_555 1_555
C4 H6 1_555 1_555
H7 C4 1_555 1_555
C5 C1 1_555 1_555
H8 C5 1_555 1_555
H9 C5 1_555 1_555
H10 C5 1_555 1_555
C6 H11 1_555 1_555
C7 C1 1_555 1_555
H12 C7 1_555 1_555
H13 C7 1_555 1_555
H14 C7 1_555 1_555
C8 H15 1_555 1_555
C9 C3 1_555 1_555
H16 C9 1_555 1_555
H17 C9 1_555 1_555
C10 C6 1_555 1_555
H18 C10 1_555 1_555
H19 C10 1_555 1_555
H20 C10 1_555 1_555
C11 C4 1_555 1_555
H21 C11 1_555 1_555
H22 C11 1_555 1_555
C12 C8 1_555 1_555
H23 C12 1_555 1_555
H24 C12 1_555 1_555
H25 C12 1_555 1_555
C13 C8 1_555 1_555
H26 C13 1_555 1_555
H27 C13 1_555 1_555
H28 C13 1_555 1_555
C14 C2 1_555 1_555
H29 C14 1_555 1_555
H30 C14 1_555 1_555
C15 C6 1_555 1_555
H31 C15 1_555 1_555
H32 C15 1_555 1_555
H33 C15 1_555 1_555
N1 C8 1_555 1_555
N2 P1 1_555 1_555
N3 P1 1_555 1_555
N4 P1 1_555 1_555
H34 P1 1_555 1_555
F1 C17 1_555 1_555
C16 C24 1_555 1_555
C17 C45 1_555 1_555
F2 C24 1_555 1_555
C18 C23 1_555 1_555
C19 C22 1_555 1_555
C20 C26 1_555 1_555
F3 C26 1_555 1_555
F4 C25 1_555 1_555
C21 H35 1_555 1_555
C22 H36 1_555 1_555
C23 C21 1_555 1_555
C24 F13 1_555 1_555
C25 C29 1_555 1_555
C26 F5 1_555 1_555
C27 C19 1_555 1_555
B1 C40 1_555 1_555
C28 C30 1_555 1_555
C29 C22 1_555 1_555
C30 H37 1_555 1_555
C31 C28 1_555 1_555
F6 C26 1_555 1_555
C32 F10 1_555 1_555
C33 C16 1_555 1_555
H38 C33 1_555 1_555
F7 C25 1_555 1_555
C34 C20 1_555 1_555
H39 C34 1_555 1_555
C35 C20 1_555 1_555
H40 C35 1_555 1_555
F8 C27 1_555 1_555
C36 H41 1_555 1_555
C37 C19 1_555 1_555
H42 C37 1_555 1_555
C38 C28 1_555 1_555
H43 C38 1_555 1_555
C39 C29 1_555 1_555
H44 C39 1_555 1_555
F9 C31 1_555 1_555
F11 C27 1_555 1_555
C40 C36 1_555 1_555
F12 C31 1_555 1_555
C41 C30 1_555 1_555
C42 H45 1_555 1_555
C43 C16 1_555 1_555
H46 C43 1_555 1_555
C44 B1 1_555 1_555
C45 C42 1_555 1_555
C46 B1 1_555 1_555
F14 C31 1_555 1_555
F15 C24 1_555 1_555
F16 C32 1_555 1_555
C47 C21 1_555 1_555
F17 C18 1_555 1_555
F18 C32 1_555 1_555
F19 C25 1_555 1_555
F20 C17 1_555 1_555
F21 C18 1_555 1_555
F22 C27 1_555 1_555
F23 C18 1_555 1_555
F24 C17 1_555 1_555
C1 N4 1_555 1_555
C2 N3 1_555 1_555
C3 N2 1_555 1_555
C4 N4 1_555 1_555
C6 N2 1_555 1_555
C9 N3 1_555 1_555
C11 N3 1_555 1_555
C14 N1 1_555 1_555
C23 C34 1_555 1_555
B1 C47 1_555 1_555
C32 C41 1_555 1_555
C33 C46 1_555 1_555
C35 C47 1_555 1_555
C36 C41 1_555 1_555
C37 C44 1_555 1_555
C38 C40 1_555 1_555
C39 C44 1_555 1_555
C42 C46 1_555 1_555
C43 C45 1_555 1_555

#END
