
#######################################################################
#
#                 Cambridge Crystallographic Data Centre
#                                CCDC 
#
#######################################################################
#
# If this CIF has been generated from an entry in the Cambridge 
# Structural Database, then it will include bibliographic, chemical, 
# crystal, experimental, refinement or atomic coordinate data resulting 
# from the CCDC's data processing and validation procedures.
#
#######################################################################

data_EJEDUS
_chemical_formula_moiety         'C22 H26 N2 O4'
_chemical_name_systematic        
(1R,2R)-N,N'-bis(3-Methoxysalicylidene)-trans-cyclohexane-1,2-diamine
_symmetry_cell_setting           orthorhombic
_symmetry_space_group_name_H-M   'P 21 21 21'
_symmetry_Int_Tables_number      19
_space_group_name_Hall           'P 2ac 2ab'
loop_
_symmetry_equiv_pos_site_id
_symmetry_equiv_pos_as_xyz
1 x,y,z
2 1/2-x,-y,1/2+z
3 1/2+x,1/2-y,-z
4 -x,1/2+y,1/2-z
_cell_length_a                   7.5558(2)
_cell_length_b                   13.40540(10)
_cell_length_c                   20.0304(3)
_cell_angle_alpha                90
_cell_angle_beta                 90
_cell_angle_gamma                90
_cell_volume                     2028.85
_exptl_crystal_colour            yellow
_exptl_crystal_description       plate
_chemical_melting_point          '401-403 K'
_cell_formula_units_Z            4
_exptl_crystal_recrystallization_method hexane
loop_
_atom_site_label
_atom_site_type_symbol
_atom_site_fract_x
_atom_site_fract_y
_atom_site_fract_z
C1 C 1.0437(2) -0.11601(12) 0.67182(8)
C2 C 0.9595(2) -0.02665(12) 0.70712(8)
C3 C 1.1026(3) 0.04886(13) 0.72695(9)
C4 C 1.2443(3) 0.00097(14) 0.77096(9)
C5 C 1.3229(3) -0.09167(14) 0.73779(10)
C6 C 1.1799(3) -0.16624(13) 0.71701(9)
N1 N 0.9037(2) -0.18570(10) 0.65255(7)
C7 C 0.7886(2) -0.30840(12) 0.57741(8)
C8 C 0.6279(2) -0.31617(12) 0.61182(8)
C9 C 0.5024(2) -0.38805(13) 0.59244(8)
C10 C 0.5402(3) -0.45242(13) 0.53992(8)
C11 C 0.7010(3) -0.44442(14) 0.50561(8)
C12 C 0.8224(2) -0.37285(14) 0.52317(8)
C13 C 0.9218(2) -0.23634(13) 0.59878(8)
O1 O 0.58846(18) -0.25746(9) 0.66455(6)
O2 O 0.35034(18) -0.38910(10) 0.62948(6)
N2 N 0.8314(2) 0.02041(11) 0.66217(7)
C14 C 0.5822(2) 0.12585(12) 0.64316(8)
C15 C 0.5832(2) 0.10812(12) 0.57386(8)
C16 C 0.4641(2) 0.15965(13) 0.53252(8)
C17 C 0.3470(2) 0.22763(13) 0.55988(9)
C18 C 0.3461(3) 0.24471(13) 0.62885(9)
C19 C 0.4615(2) 0.19452(13) 0.66997(8)
C20 C 0.7084(2) 0.07493(12) 0.68632(8)
C21 C 0.2188(3) -0.46056(15) 0.61131(10)
C22 C 0.3662(3) 0.19237(15) 0.42151(9)
O3 O 0.69889(18) 0.04450(9) 0.54522(6)
O4 O 0.47889(17) 0.13768(9) 0.46577(5)
H1 H 1.1048 -0.0919 0.6306
H2 H 0.8969 -0.0502 0.7482
H3 H 1.1587 0.0761 0.6862
H4 H 1.0472 0.1050 0.7513
H5 H 1.1916 -0.0178 0.8144
H6 H 1.3397 0.0499 0.7796
H7 H 1.4056 -0.1244 0.7692
H8 H 1.3912 -0.0713 0.6979
H9 H 1.2352 -0.2228 0.6931
H10 H 1.1203 -0.1928 0.7573
H11 H 0.6763 -0.2217 0.6740
H12 H 0.2647 -0.5280 0.6188
H13 H 0.1887 -0.4524 0.5640
H14 H 0.1127 -0.4503 0.6386
H15 H 0.4567 -0.5019 0.5273
H16 H 0.7263 -0.4888 0.4699
H17 H 0.9296 -0.3667 0.4987
H18 H 1.0245 -0.2268 0.5722
H19 H 0.7651 0.0201 0.5747
H20 H 0.3899 0.2639 0.4262
H21 H 0.2422 0.1789 0.4326
H22 H 0.3894 0.1718 0.3754
H23 H 0.2670 0.2628 0.5318
H24 H 0.2652 0.2913 0.6474
H25 H 0.4595 0.2064 0.7167
H26 H 0.6990 0.0824 0.7334
loop_
_geom_bond_atom_site_label_1
_geom_bond_atom_site_label_2
_geom_bond_site_symmetry_1
_geom_bond_site_symmetry_2
C1 C2 1_555 1_555
C2 C3 1_555 1_555
C3 C4 1_555 1_555
C4 C5 1_555 1_555
C5 C6 1_555 1_555
C6 C1 1_555 1_555
N1 C1 1_555 1_555
C7 C8 1_555 1_555
C8 C9 1_555 1_555
C9 C10 1_555 1_555
C10 C11 1_555 1_555
C11 C12 1_555 1_555
C12 C7 1_555 1_555
C13 N1 1_555 1_555
O1 C8 1_555 1_555
O2 C9 1_555 1_555
N2 C2 1_555 1_555
C14 C15 1_555 1_555
C15 C16 1_555 1_555
C16 C17 1_555 1_555
C17 C18 1_555 1_555
C18 C19 1_555 1_555
C19 C14 1_555 1_555
C20 N2 1_555 1_555
C21 O2 1_555 1_555
C22 O4 1_555 1_555
O3 C15 1_555 1_555
O4 C16 1_555 1_555
H1 C1 1_555 1_555
H2 C2 1_555 1_555
H3 C3 1_555 1_555
H4 C3 1_555 1_555
H5 C4 1_555 1_555
H6 C4 1_555 1_555
H7 C5 1_555 1_555
H8 C5 1_555 1_555
H9 C6 1_555 1_555
H10 C6 1_555 1_555
H11 O1 1_555 1_555
H12 C21 1_555 1_555
H13 C21 1_555 1_555
H14 C21 1_555 1_555
H15 C10 1_555 1_555
H16 C11 1_555 1_555
H17 C12 1_555 1_555
H18 C13 1_555 1_555
H19 O3 1_555 1_555
H20 C22 1_555 1_555
H21 C22 1_555 1_555
H22 C22 1_555 1_555
H23 C17 1_555 1_555
H24 C18 1_555 1_555
H25 C19 1_555 1_555
H26 C20 1_555 1_555
C7 C13 1_555 1_555
C14 C20 1_555 1_555

#END
