
#######################################################################
#
#                 Cambridge Crystallographic Data Centre
#                                CCDC 
#
#######################################################################
#
# If this CIF has been generated from an entry in the Cambridge 
# Structural Database, then it will include bibliographic, chemical, 
# crystal, experimental, refinement or atomic coordinate data resulting 
# from the CCDC's data processing and validation procedures.
#
#######################################################################

data_EJEFUV
_chemical_formula_moiety         'C19 H17 Cl1 N2 O1'
_chemical_name_systematic        
1-(4-Chlorophenyl)-2,5-dimethyl-N-phenyl-1H-pyrrole-3-carboxamide
_symmetry_cell_setting           monoclinic
_symmetry_space_group_name_H-M   'P 21/c'
_symmetry_Int_Tables_number      14
_space_group_name_Hall           '-P 2ybc'
loop_
_symmetry_equiv_pos_site_id
_symmetry_equiv_pos_as_xyz
1 x,y,z
2 -x,1/2+y,1/2-z
3 -x,-y,-z
4 x,1/2-y,1/2+z
_cell_length_a                   16.137(5)
_cell_length_b                   10.330(5)
_cell_length_c                   20.677(5)
_cell_angle_alpha                90
_cell_angle_beta                 97.444(5)
_cell_angle_gamma                90
_cell_volume                     3417.71
_exptl_crystal_colour            colorless
_exptl_crystal_description       block
_chemical_melting_point          174-176deg.C
_cell_formula_units_Z            8
loop_
_atom_site_label
_atom_site_type_symbol
_atom_site_fract_x
_atom_site_fract_y
_atom_site_fract_z
Cl1 Cl 1.44252(8) -0.21349(18) 0.58916(7)
O2 O 0.85537(18) -0.3386(3) 0.54210(14)
N3 N 0.8024(2) -0.2829(3) 0.43869(17)
N4 N 1.0832(2) -0.2039(3) 0.48501(15)
C1 C 1.0229(2) -0.2747(4) 0.51027(18)
C4 C 0.9630(3) -0.1514(4) 0.42758(19)
H2 H 0.9231 -0.1149 0.3965
C5 C 0.7169(2) -0.3070(4) 0.4397(2)
C6 C 0.9472(2) -0.2431(4) 0.47492(17)
C7 C 1.1701(2) -0.2054(4) 0.51005(19)
C8 C 1.3007(3) -0.3184(5) 0.5313(2)
H3 H 1.3320 -0.3935 0.5292
C9 C 1.0463(3) -0.1250(4) 0.4348(2)
C12 C 1.2170(3) -0.3162(4) 0.5053(2)
H5 H 1.1925 -0.3892 0.4846
C13 C 1.2080(3) -0.0977(4) 0.5398(2)
H6 H 1.1770 -0.0228 0.5434
C14 C 0.8660(2) -0.2926(4) 0.48891(18)
C17 C 1.0430(3) -0.3676(5) 0.5651(2)
H8 H 1.1021 -0.3669 0.5790
H9 H 1.0260 -0.4531 0.5507
H10 H 1.0139 -0.3428 0.6008
C23 C 1.3366(3) -0.2099(5) 0.5598(2)
C25 C 0.6813(3) -0.3407(5) 0.4950(2)
H15 H 0.7152 -0.3513 0.5346
C29 C 1.2912(3) -0.0999(5) 0.5642(2)
H19 H 1.3166 -0.0263 0.5836
C30 C 1.0954(3) -0.0393(5) 0.3963(3)
H20 H 1.1534 -0.0428 0.4141
H21 H 1.0756 0.0481 0.3983
H22 H 1.0891 -0.0677 0.3517
C34 C 0.5966(3) -0.3584(5) 0.4919(3)
H28 H 0.5737 -0.3812 0.5293
C36 C 0.6648(3) -0.2959(7) 0.3832(3)
H30 H 0.6868 -0.2745 0.3452
C37 C 0.5464(4) -0.3431(6) 0.4353(4)
H31 H 0.4889 -0.3517 0.4338
C38 C 0.5802(4) -0.3153(9) 0.3807(3)
H32 H 0.5461 -0.3092 0.3410
H33 H 0.812(3) -0.256(4) 0.399(2)
Cl2 Cl 0.59726(10) 0.60135(12) 0.71496(9)
O1 O 0.8262(2) -0.2501(3) 0.80017(13)
N1 N 0.6997(2) 0.0560(3) 0.69151(14)
N2 N 0.8270(2) -0.3398(3) 0.69991(18)
C2 C 0.8067(3) -0.2436(4) 0.7408(2)
C3 C 0.7091(3) -0.1352(4) 0.64768(18)
H1 H 0.7025 -0.2046 0.6188
C10 C 0.7023(3) 0.2812(4) 0.6588(2)
H4 H 0.7365 0.2579 0.6278
C11 C 0.6723(3) -0.0175(4) 0.63697(18)
C15 C 0.8674(2) -0.4566(3) 0.71911(17)
C16 C 0.6263(3) 0.2232(4) 0.7446(2)
H7 H 0.6074 0.1608 0.7716
C18 C 0.7518(3) -0.0146(4) 0.73618(18)
C19 C 0.6769(2) 0.1882(4) 0.69893(18)
C20 C 0.6284(3) 0.4422(4) 0.7090(2)
C21 C 0.6785(3) 0.4078(4) 0.6631(2)
H11 H 0.6962 0.4698 0.6352
C22 C 0.7939(4) 0.0406(4) 0.7975(2)
H12 H 0.7753 0.1280 0.8021
H13 H 0.8533 0.0400 0.7968
H14 H 0.7806 -0.0103 0.8336
C24 C 0.7586(3) -0.1366(4) 0.70870(18)
C26 C 0.6034(3) 0.3512(5) 0.7504(2)
H16 H 0.5710 0.3753 0.7825
C27 C 0.8569(3) -0.5175(4) 0.77733(19)
H17 H 0.8224 -0.4806 0.8050
C28 C 0.8965(4) -0.6306(5) 0.7940(3)
H18 H 0.8898 -0.6704 0.8333
C31 C 0.9138(3) -0.5158(4) 0.6769(2)
H23 H 0.9177 -0.4785 0.6364
C32 C 0.6103(3) 0.0313(5) 0.5831(2)
H24 H 0.5976 0.1201 0.5911
H25 H 0.5602 -0.0195 0.5807
H26 H 0.6332 0.0247 0.5426
C33 C 0.9551(4) -0.6313(5) 0.6939(4)
H27 H 0.9878 -0.6701 0.6655
C35 C 0.9473(4) -0.6872(5) 0.7524(4)
H29 H 0.9759 -0.7634 0.7645
H34 H 0.825(3) -0.314(4) 0.662(2)
loop_
_geom_bond_atom_site_label_1
_geom_bond_atom_site_label_2
_geom_bond_site_symmetry_1
_geom_bond_site_symmetry_2
Cl1 C23 1_555 1_555
Cl2 C20 1_555 1_555
O1 C2 1_555 1_555
O2 C14 1_555 1_555
N1 C11 1_555 1_555
N2 C2 1_555 1_555
N3 C5 1_555 1_555
N4 C1 1_555 1_555
C1 C6 1_555 1_555
C2 C24 1_555 1_555
C3 H1 1_555 1_555
C4 H2 1_555 1_555
C5 C25 1_555 1_555
C6 C4 1_555 1_555
C7 N4 1_555 1_555
C8 H3 1_555 1_555
C9 N4 1_555 1_555
C10 H4 1_555 1_555
C11 C3 1_555 1_555
C12 C7 1_555 1_555
H5 C12 1_555 1_555
C13 C7 1_555 1_555
H6 C13 1_555 1_555
C14 N3 1_555 1_555
C15 N2 1_555 1_555
C16 H7 1_555 1_555
C17 C1 1_555 1_555
H8 C17 1_555 1_555
H9 C17 1_555 1_555
H10 C17 1_555 1_555
C18 N1 1_555 1_555
C19 N1 1_555 1_555
C20 C21 1_555 1_555
C21 C10 1_555 1_555
H11 C21 1_555 1_555
C22 C18 1_555 1_555
H12 C22 1_555 1_555
H13 C22 1_555 1_555
H14 C22 1_555 1_555
C23 C8 1_555 1_555
C24 C3 1_555 1_555
C25 H15 1_555 1_555
C26 C16 1_555 1_555
H16 C26 1_555 1_555
C27 C15 1_555 1_555
H17 C27 1_555 1_555
C28 C27 1_555 1_555
H18 C28 1_555 1_555
C29 C13 1_555 1_555
H19 C29 1_555 1_555
C30 C9 1_555 1_555
H20 C30 1_555 1_555
H21 C30 1_555 1_555
H22 C30 1_555 1_555
C31 C15 1_555 1_555
H23 C31 1_555 1_555
C32 C11 1_555 1_555
H24 C32 1_555 1_555
H25 C32 1_555 1_555
H26 C32 1_555 1_555
C33 C31 1_555 1_555
H27 C33 1_555 1_555
C34 C25 1_555 1_555
H28 C34 1_555 1_555
C35 C28 1_555 1_555
H29 C35 1_555 1_555
C36 C5 1_555 1_555
H30 C36 1_555 1_555
C37 C34 1_555 1_555
H31 C37 1_555 1_555
C38 C36 1_555 1_555
H32 C38 1_555 1_555
H33 N3 1_555 1_555
H34 N2 1_555 1_555
C4 C9 1_555 1_555
C6 C14 1_555 1_555
C8 C12 1_555 1_555
C10 C19 1_555 1_555
C16 C19 1_555 1_555
C18 C24 1_555 1_555
C20 C26 1_555 1_555
C23 C29 1_555 1_555
C33 C35 1_555 1_555
C37 C38 1_555 1_555

#END
