
#######################################################################
#
#                 Cambridge Crystallographic Data Centre
#                                CCDC 
#
#######################################################################
#
# If this CIF has been generated from an entry in the Cambridge 
# Structural Database, then it will include bibliographic, chemical, 
# crystal, experimental, refinement or atomic coordinate data resulting 
# from the CCDC's data processing and validation procedures.
#
#######################################################################

data_EJEHIL
_chemical_formula_moiety         'C33 H25 N1 O5 S2,0.5(H2 O1)'
_chemical_name_systematic        
"N-(4-(4'-Hydroxy-4-oxo-4H,4'H-spiro[chromene-3,3'-thiochromen]-2'-yl)phenyl)naphthalene-1-sulfonamide hemihydrate"
_symmetry_cell_setting           monoclinic
_symmetry_space_group_name_H-M   'P 21'
_symmetry_Int_Tables_number      4
_space_group_name_Hall           'P 2yb'
loop_
_symmetry_equiv_pos_site_id
_symmetry_equiv_pos_as_xyz
1 x,y,z
2 -x,1/2+y,-z
_cell_length_a                   9.1966(6)
_cell_length_b                   8.0659(5)
_cell_length_c                   18.7596(12)
_cell_angle_alpha                90
_cell_angle_beta                 94.4830(10)
_cell_angle_gamma                90
_cell_volume                     1387.31
_exptl_crystal_colour            colorless
_exptl_crystal_description       block
_cell_formula_units_Z            2
loop_
_atom_site_label
_atom_site_type_symbol
_atom_site_fract_x
_atom_site_fract_y
_atom_site_fract_z
S1 S 0.00642(6) 0.06542(7) 0.58998(3)
O1 O 0.39675(19) 0.7845(3) 0.73724(9)
O2 O 0.4466(3) 0.4996(3) 0.91581(11)
O3 O 0.4761(2) 0.8776(3) 0.94634(10)
H1 H 0.4907 0.9060 0.9888
O4 O 0.0899(2) -0.0448(3) 0.63647(10)
O5 O -0.0134(2) 0.0253(2) 0.51528(9)
N1 N 0.0875(2) 0.2461(3) 0.59360(10)
H2 H 0.065(3) 0.298(4) 0.5560(16)
C1 C 0.5113(3) 0.6795(4) 0.74663(16)
C2 C 0.5962(4) 0.6583(5) 0.68856(19)
H3 H 0.5713 0.7130 0.6451
C3 C 0.7157(4) 0.5570(6) 0.6958(3)
H4 H 0.7731 0.5431 0.6569
C4 C 0.7535(4) 0.4754(5) 0.7586(3)
H5 H 0.8380 0.4096 0.7630
C5 C 0.6679(4) 0.4896(4) 0.8152(2)
H6 H 0.6924 0.4304 0.8577
C6 C 0.5432(3) 0.5930(4) 0.80983(16)
C7 C 0.4428(3) 0.5980(3) 0.86645(14)
C8 C 0.3224(3) 0.7308(3) 0.86040(12)
C9 C 0.3506(3) 0.8553(3) 0.80185(12)
H7 H 0.2609 0.9186 0.7901
H8 H 0.4254 0.9336 0.8208
C10 C 0.3296(3) 0.8219(3) 0.93320(12)
H9 H 0.3090 0.7409 0.9707
C11 C 0.2202(3) 0.9622(3) 0.93449(12)
C12 C 0.0785(3) 0.9471(4) 0.90128(12)
S2 S 0.01714(7) 0.77474(10) 0.84963(4)
C13 C 0.1752(3) 0.6364(3) 0.84944(12)
H10 H 0.1704 0.5598 0.8904
C14 C 0.2549(3) 1.1078(4) 0.97168(14)
H11 H 0.3496 1.1214 0.9936
C15 C 0.1537(4) 1.2336(4) 0.97737(15)
H12 H 0.1797 1.3303 1.0033
C16 C 0.0145(3) 1.2162(4) 0.94474(15)
H13 H -0.0548 1.3007 0.9487
C17 C -0.0223(3) 1.0744(4) 0.90643(13)
H14 H -0.1165 1.0636 0.8836
C18 C 0.1555(3) 0.5326(3) 0.78183(11)
C19 C 0.1736(3) 0.3624(3) 0.78497(12)
H15 H 0.2004 0.3116 0.8292
C20 C 0.1528(3) 0.2651(3) 0.72379(12)
H16 H 0.1671 0.1498 0.7267
C21 C 0.1107(2) 0.3386(3) 0.65827(11)
C22 C 0.0954(3) 0.5089(3) 0.65483(12)
H17 H 0.0703 0.5600 0.6105
C23 C 0.1166(3) 0.6049(3) 0.71587(12)
H18 H 0.1046 0.7204 0.7127
C24 C -0.1649(3) 0.0938(3) 0.62497(13)
C25 C -0.1828(3) 0.0261(4) 0.69026(14)
H19 H -0.1064 -0.0345 0.7141
C26 C -0.3145(4) 0.0463(5) 0.72210(17)
H20 H -0.3261 0.0006 0.7674
C27 C -0.4249(3) 0.1321(5) 0.68722(19)
H21 H -0.5136 0.1433 0.7085
C28 C -0.4105(3) 0.2056(4) 0.61941(17)
C29 C -0.5256(3) 0.2957(5) 0.5835(2)
H22 H -0.6150 0.3048 0.6043
C30 C -0.5099(4) 0.3697(6) 0.5195(2)
H23 H -0.5874 0.4306 0.4969
C31 C -0.3783(4) 0.3552(5) 0.4873(2)
H24 H -0.3684 0.4068 0.4431
C32 C -0.2640(3) 0.2670(4) 0.51919(15)
H25 H -0.1765 0.2582 0.4966
C33 C -0.2767(3) 0.1888(3) 0.58609(14)
O6 O 0.6030(10) 0.1590(12) 0.8966(5)
loop_
_geom_bond_atom_site_label_1
_geom_bond_atom_site_label_2
_geom_bond_site_symmetry_1
_geom_bond_site_symmetry_2
S1 O4 1_555 1_555
O1 C1 1_555 1_555
O2 C7 1_555 1_555
O3 H1 1_555 1_555
O5 S1 1_555 1_555
N1 S1 1_555 1_555
H2 N1 1_555 1_555
C1 C2 1_555 1_555
C2 H3 1_555 1_555
C3 C2 1_555 1_555
H4 C3 1_555 1_555
C4 C3 1_555 1_555
H5 C4 1_555 1_555
C5 C4 1_555 1_555
H6 C5 1_555 1_555
C6 C1 1_555 1_555
C7 C6 1_555 1_555
C8 C7 1_555 1_555
C9 O1 1_555 1_555
H7 C9 1_555 1_555
H8 C9 1_555 1_555
C10 O3 1_555 1_555
H9 C10 1_555 1_555
C11 C10 1_555 1_555
C12 C11 1_555 1_555
S2 C12 1_555 1_555
C13 C8 1_555 1_555
H10 C13 1_555 1_555
C14 C11 1_555 1_555
H11 C14 1_555 1_555
C15 C14 1_555 1_555
H12 C15 1_555 1_555
C16 C15 1_555 1_555
H13 C16 1_555 1_555
C17 C12 1_555 1_555
H14 C17 1_555 1_555
C18 C13 1_555 1_555
C19 C18 1_555 1_555
H15 C19 1_555 1_555
C20 C19 1_555 1_555
H16 C20 1_555 1_555
C21 N1 1_555 1_555
C22 C21 1_555 1_555
H17 C22 1_555 1_555
C23 C18 1_555 1_555
H18 C23 1_555 1_555
C24 S1 1_555 1_555
C25 C24 1_555 1_555
H19 C25 1_555 1_555
C26 C25 1_555 1_555
H20 C26 1_555 1_555
C27 C26 1_555 1_555
H21 C27 1_555 1_555
C28 C27 1_555 1_555
C29 C28 1_555 1_555
H22 C29 1_555 1_555
C30 C29 1_555 1_555
H23 C30 1_555 1_555
C31 C30 1_555 1_555
H24 C31 1_555 1_555
C32 C31 1_555 1_555
H25 C32 1_555 1_555
C33 C24 1_555 1_555
C5 C6 1_555 1_555
C8 C9 1_555 1_555
C8 C10 1_555 1_555
S2 C13 1_555 1_555
C16 C17 1_555 1_555
C20 C21 1_555 1_555
C22 C23 1_555 1_555
C28 C33 1_555 1_555
C32 C33 1_555 1_555

#END
