
#######################################################################
#
#                 Cambridge Crystallographic Data Centre
#                                CCDC 
#
#######################################################################
#
# If this CIF has been generated from an entry in the Cambridge 
# Structural Database, then it will include bibliographic, chemical, 
# crystal, experimental, refinement or atomic coordinate data resulting 
# from the CCDC's data processing and validation procedures.
#
#######################################################################

data_EJEQAN
_chemical_name_common            'chrysin L-proline'
_chemical_formula_moiety         'C15 H10 O4,C5 H9 N1 O2'
_chemical_name_systematic        
'5,7-dihydroxy-2-phenyl-4H-chromen-4-one pyrrolidinium-2-carboxylate'
_symmetry_cell_setting           orthorhombic
_symmetry_space_group_name_H-M   'P 21 21 21'
_symmetry_Int_Tables_number      19
_space_group_name_Hall           'P 2ac 2ab'
loop_
_symmetry_equiv_pos_site_id
_symmetry_equiv_pos_as_xyz
1 x,y,z
2 1/2+x,1/2-y,-z
3 -x,1/2+y,1/2-z
4 1/2-x,-y,1/2+z
_cell_length_a                   5.3011(19)
_cell_length_b                   18.145(7)
_cell_length_c                   18.386(6)
_cell_angle_alpha                90
_cell_angle_beta                 90
_cell_angle_gamma                90
_cell_volume                     1768.52
_exptl_crystal_colour            colorless
_exptl_crystal_description       plate
_cell_formula_units_Z            4
loop_
_atom_site_label
_atom_site_type_symbol
_atom_site_fract_x
_atom_site_fract_y
_atom_site_fract_z
O1 O 0.6159(4) 0.90854(11) 0.96854(11)
O2 O 0.1948(4) 1.09488(11) 0.99684(11)
O3 O -0.0594(5) 1.02661(15) 1.09667(13)
C1 C 0.0428(6) 0.90196(18) 1.12079(17)
H1 H -0.0857 0.8994 1.1551
C2 C 0.1921(7) 0.84061(18) 1.10694(17)
C3 C 0.3853(7) 0.84320(17) 1.05587(18)
H2 H 0.4844 0.8020 1.0465
C4 C 0.4256(6) 0.90834(16) 1.01967(16)
C5 C 0.6645(6) 0.97064(17) 0.92938(16)
C6 C 0.8702(6) 0.96054(17) 0.87661(16)
C7 C 0.9134(7) 1.0142(2) 0.82280(19)
H3 H 0.8095 1.0554 0.8198
C8 C 1.1103(8) 1.0055(2) 0.7745(2)
H4 H 1.1389 1.0414 0.7393
C9 C 1.2647(8) 0.9449(2) 0.7775(2)
H5 H 1.3970 0.9400 0.7446
O4 O 0.1552(5) 0.77609(12) 1.14193(12)
H6 H 0.0381 0.7805 1.1707
C10 C 1.2233(7) 0.8915(2) 0.8291(2)
H7 H 1.3279 0.8504 0.8311
C11 C 1.0269(6) 0.89848(18) 0.87824(18)
H8 H 0.9988 0.8617 0.9125
C12 C 0.5325(6) 1.03300(17) 0.93975(17)
H9 H 0.5764 1.0749 0.9136
C13 C 0.3271(6) 1.03686(16) 0.98967(16)
C14 C 0.2813(6) 0.97137(16) 1.03109(15)
C15 C 0.0857(6) 0.96662(17) 1.08342(17)
H10 H -0.008(11) 1.066(3) 1.065(3)
O5 O -0.1039(4) 0.80330(11) 0.38077(13)
O6 O -0.1215(4) 0.79531(13) 0.26002(12)
C16 C 0.3956(7) 0.70836(17) 0.42455(17)
H11 H 0.2325 0.6957 0.4450
H12 H 0.5227 0.7053 0.4624
N1 N 0.3910(4) 0.78210(13) 0.39099(13)
H13 H 0.5488 0.7999 0.3866
H14 H 0.3006 0.8135 0.4185
C17 C 0.2718(5) 0.77350(17) 0.31750(16)
H15 H 0.3601 0.8042 0.2818
C18 C -0.0080(6) 0.79349(16) 0.3193(2)
C19 C 0.3107(7) 0.6922(2) 0.30002(19)
H16 H 0.1493 0.6674 0.2955
H17 H 0.4015 0.6868 0.2545
C20 C 0.4602(7) 0.65944(17) 0.36143(18)
H18 H 0.4099 0.6089 0.3707
H19 H 0.6396 0.6607 0.3511
loop_
_geom_bond_atom_site_label_1
_geom_bond_atom_site_label_2
_geom_bond_site_symmetry_1
_geom_bond_site_symmetry_2
O1 C4 1_555 1_555
O2 C13 1_555 1_555
O3 C15 1_555 1_555
C1 H1 1_555 1_555
C2 C1 1_555 1_555
C3 C2 1_555 1_555
H2 C3 1_555 1_555
C4 C3 1_555 1_555
C5 O1 1_555 1_555
C6 C5 1_555 1_555
C7 C6 1_555 1_555
H3 C7 1_555 1_555
C8 C7 1_555 1_555
H4 C8 1_555 1_555
C9 C8 1_555 1_555
H5 C9 1_555 1_555
O4 C2 1_555 1_555
H6 O4 1_555 1_555
C10 C9 1_555 1_555
H7 C10 1_555 1_555
C11 C6 1_555 1_555
H8 C11 1_555 1_555
C12 C5 1_555 1_555
H9 C12 1_555 1_555
C13 C12 1_555 1_555
C14 C4 1_555 1_555
C15 C1 1_555 1_555
H10 O3 1_555 1_555
O5 C18 1_555 1_555
O6 C18 1_555 1_555
C16 H11 1_555 1_555
H12 C16 1_555 1_555
N1 C16 1_555 1_555
H13 N1 1_555 1_555
H14 N1 1_555 1_555
C17 N1 1_555 1_555
H15 C17 1_555 1_555
C18 C17 1_555 1_555
C19 C17 1_555 1_555
H16 C19 1_555 1_555
H17 C19 1_555 1_555
C20 C16 1_555 1_555
H18 C20 1_555 1_555
H19 C20 1_555 1_555
C10 C11 1_555 1_555
C13 C14 1_555 1_555
C14 C15 1_555 1_555
C19 C20 1_555 1_555

#END
