
#######################################################################
#
#                 Cambridge Crystallographic Data Centre
#                                CCDC 
#
#######################################################################
#
# If this CIF has been generated from an entry in the Cambridge 
# Structural Database, then it will include bibliographic, chemical, 
# crystal, experimental, refinement or atomic coordinate data resulting 
# from the CCDC's data processing and validation procedures.
#
#######################################################################

data_EJEZUQ
_chemical_formula_moiety         'C32 H48 Mg1 N2 O3'
_chemical_name_systematic        
bis(1-(2-(dimethylamino)phenyl)cyclohexanolato)-tetrahydrofuran-magnesium
_symmetry_cell_setting           monoclinic
_symmetry_space_group_name_H-M   'C 2/c'
_symmetry_Int_Tables_number      15
_space_group_name_Hall           '-C 2yn'
loop_
_symmetry_equiv_pos_site_id
_symmetry_equiv_pos_as_xyz
1 x,y,z
2 -x,y,1/2-z
3 1/2+x,1/2+y,z
4 1/2-x,1/2+y,1/2-z
5 -x,-y,-z
6 x,-y,1/2+z
7 1/2-x,1/2-y,-z
8 1/2+x,1/2-y,1/2+z
_cell_length_a                   13.1105(14)
_cell_length_b                   12.9906(14)
_cell_length_c                   17.6031(18)
_cell_angle_alpha                90
_cell_angle_beta                 100.894(3)
_cell_angle_gamma                90
_cell_volume                     2944.01
_exptl_crystal_colour            colorless
_exptl_crystal_description       block
_cell_formula_units_Z            4
loop_
_atom_site_label
_atom_site_type_symbol
_atom_site_fract_x
_atom_site_fract_y
_atom_site_fract_z
Mg1 Mg 0.5000 0.37447(9) 0.7500
O1 O 0.52802(13) 0.30670(13) 0.66198(9)
O2 O 0.5000 0.53725(18) 0.7500
N1 N 0.67441(15) 0.38057(16) 0.78594(11)
C1 C 0.72682(19) 0.41625(19) 0.72390(15)
C2 C 0.69192(19) 0.38857(19) 0.64566(15)
C3 C 0.7500(2) 0.4269(2) 0.59262(17)
H1 H 0.7300 0.4074 0.5399
C4 C 0.8348(2) 0.4914(2) 0.61267(18)
H2 H 0.8705 0.5168 0.5743
C5 C 0.8663(2) 0.5178(2) 0.68853(18)
H3 H 0.9243 0.5620 0.7035
C6 C 0.8134(2) 0.4800(2) 0.74349(16)
H4 H 0.8367 0.4980 0.7962
C7 C 0.59860(19) 0.31713(19) 0.61331(14)
C8 C 0.5379(2) 0.3577(2) 0.53464(15)
H5 H 0.5074 0.4258 0.5423
H6 H 0.5862 0.3664 0.4982
C9 C 0.4516(2) 0.2830(2) 0.50034(15)
H7 H 0.4016 0.2766 0.5358
H8 H 0.4138 0.3102 0.4503
C10 C 0.4962(2) 0.1772(2) 0.48778(16)
H9 H 0.4388 0.1289 0.4682
H10 H 0.5408 0.1824 0.4484
C11 C 0.5596(2) 0.1359(2) 0.56277(15)
H11 H 0.5909 0.0690 0.5528
H12 H 0.5135 0.1241 0.6004
C12 C 0.6451(2) 0.21076(19) 0.59690(15)
H13 H 0.6932 0.2199 0.5604
H14 H 0.6851 0.1822 0.6457
C13 C 0.6976(2) 0.4416(2) 0.85754(15)
H15 H 0.7701 0.4305 0.8827
H16 H 0.6517 0.4202 0.8925
H17 H 0.6866 0.5148 0.8451
C14 C 0.7018(2) 0.2717(2) 0.80643(16)
H18 H 0.6827 0.2284 0.7603
H19 H 0.6640 0.2486 0.8463
H20 H 0.7766 0.2663 0.8261
C15 C 0.4691(2) 0.6022(2) 0.80933(15)
H21 H 0.5026 0.5788 0.8616
H22 H 0.3928 0.6008 0.8055
C16 C 0.5054(3) 0.7090(2) 0.79344(17)
H23 H 0.4609 0.7624 0.8107
H24 H 0.5783 0.7204 0.8193
C15A C 0.5309(2) 0.6022(2) 0.69067(15)
H21A H 0.4974 0.5788 0.6384
H22A H 0.6072 0.6008 0.6945
C16A C 0.4946(3) 0.7090(2) 0.70656(17)
H23A H 0.5391 0.7624 0.6893
H24A H 0.4217 0.7204 0.6807
O1A O 0.47198(13) 0.30670(13) 0.83802(9)
N1A N 0.32559(15) 0.38057(16) 0.71406(11)
C1A C 0.27318(19) 0.41625(19) 0.77610(15)
C2A C 0.30808(19) 0.38857(19) 0.85434(15)
C3A C 0.2500(2) 0.4269(2) 0.90738(17)
H1A H 0.2700 0.4074 0.9601
C4A C 0.1652(2) 0.4914(2) 0.88733(18)
H2A H 0.1295 0.5168 0.9257
C5A C 0.1337(2) 0.5178(2) 0.81147(18)
H3A H 0.0757 0.5620 0.7965
C6A C 0.1866(2) 0.4800(2) 0.75651(16)
H4A H 0.1633 0.4980 0.7038
C7A C 0.40140(19) 0.31713(19) 0.88669(14)
C8A C 0.4621(2) 0.3577(2) 0.96536(15)
H5A H 0.4926 0.4258 0.9577
H6A H 0.4138 0.3664 1.0018
C9A C 0.5484(2) 0.2830(2) 0.99966(15)
H7A H 0.5984 0.2766 0.9642
H8A H 0.5862 0.3102 1.0497
C10A C 0.5038(2) 0.1772(2) 1.01222(16)
H9A H 0.5612 0.1289 1.0318
H10A H 0.4592 0.1824 1.0516
C11A C 0.4404(2) 0.1359(2) 0.93723(15)
H11A H 0.4091 0.0690 0.9472
H12A H 0.4865 0.1241 0.8996
C12A C 0.3549(2) 0.21076(19) 0.90310(15)
H13A H 0.3068 0.2199 0.9396
H14A H 0.3149 0.1822 0.8543
C13A C 0.3024(2) 0.4416(2) 0.64246(15)
H15A H 0.2299 0.4305 0.6173
H16A H 0.3483 0.4202 0.6075
H17A H 0.3134 0.5148 0.6549
C14A C 0.2982(2) 0.2717(2) 0.69357(16)
H18A H 0.3173 0.2284 0.7397
H19A H 0.3360 0.2486 0.6537
H20A H 0.2234 0.2663 0.6739
loop_
_geom_bond_atom_site_label_1
_geom_bond_atom_site_label_2
_geom_bond_site_symmetry_1
_geom_bond_site_symmetry_2
Mg1 O1 1_555 1_555
O1 C7 1_555 1_555
O2 Mg1 1_555 1_555
N1 Mg1 1_555 1_555
C1 N1 1_555 1_555
C2 C1 1_555 1_555
C3 C2 1_555 1_555
H1 C3 1_555 1_555
C4 C3 1_555 1_555
H2 C4 1_555 1_555
C5 C4 1_555 1_555
H3 C5 1_555 1_555
C6 C1 1_555 1_555
H4 C6 1_555 1_555
C7 C2 1_555 1_555
C8 C7 1_555 1_555
H5 C8 1_555 1_555
H6 C8 1_555 1_555
C9 C8 1_555 1_555
H7 C9 1_555 1_555
H8 C9 1_555 1_555
C10 C9 1_555 1_555
H9 C10 1_555 1_555
H10 C10 1_555 1_555
C11 C10 1_555 1_555
H11 C11 1_555 1_555
H12 C11 1_555 1_555
C12 C7 1_555 1_555
H13 C12 1_555 1_555
H14 C12 1_555 1_555
C13 N1 1_555 1_555
H15 C13 1_555 1_555
H16 C13 1_555 1_555
H17 C13 1_555 1_555
C14 N1 1_555 1_555
H18 C14 1_555 1_555
H19 C14 1_555 1_555
H20 C14 1_555 1_555
C15 O2 1_555 1_555
H21 C15 1_555 1_555
H22 C15 1_555 1_555
C16 C15 1_555 1_555
H23 C16 1_555 1_555
H24 C16 1_555 1_555
C15A O2 1_555 1_555
H21A C15A 1_555 1_555
H22A C15A 1_555 1_555
C16A C16 1_555 1_555
H23A C16A 1_555 1_555
H24A C16A 1_555 1_555
O1A Mg1 1_555 1_555
N1A Mg1 1_555 1_555
C1A N1A 1_555 1_555
C2A C1A 1_555 1_555
C3A C2A 1_555 1_555
H1A C3A 1_555 1_555
C4A C3A 1_555 1_555
H2A C4A 1_555 1_555
C5A C4A 1_555 1_555
H3A C5A 1_555 1_555
C6A C1A 1_555 1_555
H4A C6A 1_555 1_555
C7A O1A 1_555 1_555
C8A C7A 1_555 1_555
H5A C8A 1_555 1_555
H6A C8A 1_555 1_555
C9A C8A 1_555 1_555
H7A C9A 1_555 1_555
H8A C9A 1_555 1_555
C10A C9A 1_555 1_555
H9A C10A 1_555 1_555
H10A C10A 1_555 1_555
C11A C10A 1_555 1_555
H11A C11A 1_555 1_555
H12A C11A 1_555 1_555
C12A C7A 1_555 1_555
H13A C12A 1_555 1_555
H14A C12A 1_555 1_555
C13A N1A 1_555 1_555
H15A C13A 1_555 1_555
H16A C13A 1_555 1_555
H17A C13A 1_555 1_555
C14A N1A 1_555 1_555
H18A C14A 1_555 1_555
H19A C14A 1_555 1_555
H20A C14A 1_555 1_555
C5 C6 1_555 1_555
C11 C12 1_555 1_555
C15A C16A 1_555 1_555
C2A C7A 1_555 1_555
C5A C6A 1_555 1_555
C11A C12A 1_555 1_555

#END
