
#######################################################################
#
#                 Cambridge Crystallographic Data Centre
#                                CCDC 
#
#######################################################################
#
# If this CIF has been generated from an entry in the Cambridge 
# Structural Database, then it will include bibliographic, chemical, 
# crystal, experimental, refinement or atomic coordinate data resulting 
# from the CCDC's data processing and validation procedures.
#
#######################################################################

data_EJIBII
_chemical_compound_source        'soft coral Pachyclavularia violacea'
_chemical_formula_moiety         'C22 H32 O7,H2 O1'
_chemical_name_systematic        'Pachyclavulariaenone F monohydrate'
_symmetry_cell_setting           orthorhombic
_symmetry_space_group_name_H-M   'P 21 21 21'
_symmetry_Int_Tables_number      19
_space_group_name_Hall           'P 2ac 2ab'
loop_
_symmetry_equiv_pos_site_id
_symmetry_equiv_pos_as_xyz
1 x,y,z
2 1/2-x,-y,1/2+z
3 1/2+x,1/2-y,-z
4 -x,1/2+y,1/2-z
_cell_length_a                   8.483(2)
_cell_length_b                   10.677(4)
_cell_length_c                   23.949(3)
_cell_angle_alpha                90
_cell_angle_beta                 90
_cell_angle_gamma                90
_cell_volume                     2169.13
_exptl_crystal_colour            colorless
_cell_formula_units_Z            4
_exptl_crystal_recrystallization_method 'ethyl acetate'
loop_
_atom_site_label
_atom_site_type_symbol
_atom_site_fract_x
_atom_site_fract_y
_atom_site_fract_z
O1 O 0.6007(3) 0.0546(2) 0.4202(1)
O2 O 0.6238(4) 0.0277(3) 0.2367(1)
O3 O 0.3450(3) -0.2377(2) 0.3535(1)
O4 O 0.1549(4) -0.0913(3) 0.3501(2)
O5 O 0.5205(3) -0.2536(2) 0.4472(1)
O6 O 0.8735(7) 0.4470(3) 0.4442(2)
O7 O 0.7179(3) 0.2193(2) 0.2917(1)
C1 C 0.8557(4) 0.1312(3) 0.3930(2)
C2 C 0.6756(4) 0.1464(3) 0.3856(2)
C3 C 0.6172(4) 0.1412(3) 0.3247(1)
C4 C 0.6368(4) 0.0108(3) 0.2962(1)
C5 C 0.5121(5) -0.0913(3) 0.3062(2)
C6 C 0.4689(4) -0.1442(3) 0.3635(2)
C7 C 0.5967(4) -0.2191(3) 0.3957(2)
C8 C 0.7448(4) -0.1425(3) 0.4091(2)
C9 C 0.71795 -0.0263(3) 0.4442(2)
C10 C 0.8655(5) 0.0562(3) 0.4483(2)
C11 C 0.8650(6) 0.1376(4) 0.4999(2)
C12 C 0.8700(7) 0.2625(5) 0.4973(2)
C13 C 0.8877(6) 0.3308(4) 0.4460(2)
C14 C 0.9401(5) 0.2585(4) 0.3948(2)
C15 C 0.9300(5) 0.3332(4) 0.3405(2)
C16 C 0.7669(5) 0.3390(4) 0.3141(2)
C17 C 1.0487(6) 0.2893(6) 0.2968(3)
C18 C 0.4464(5) 0.1862(4) 0.3213(2)
C19 C 0.6449(5) -0.3368(4) 0.3637(2)
C20 C 0.8537(9) 0.0679(4) 0.5552(2)
C21 C 0.1953(5) -0.1988(4) 0.3508(2)
C22 C 0.0877(6) -0.3112(5) 0.3494(3)
H1 H 0.8970 0.0825 0.3632
H2 H 0.6476 0.2263 0.4000
H3 H 0.7382 -0.0216 0.3047
H4 H 0.4170 -0.0592 0.2912
H5 H 0.5458 -0.1613 0.2849
H6 H 0.4288 -0.0789 0.3867
H7 H 0.8168 -0.1946 0.4285
H8 H 0.7908 -0.1161 0.3748
H9 H 0.6851 -0.0516 0.4805
H10 H 0.9578 0.0056 0.4482
H11 H 0.8604 0.3084 0.5314
H12 H 1.0487 0.2401 0.3999
H13 H 0.9565 0.4168 0.3494
H14 H 0.7690 0.3989 0.2844
H15 H 0.6932 0.3653 0.3414
H16 H 1.0197 0.2091 0.2834
H17 H 1.0499 0.3473 0.2665
H18 H 1.1501 0.2860 0.3132
H19 H 0.4398 0.2689 0.3351
H20 H 0.4127 0.1839 0.2835
H21 H 0.3814 0.1323 0.3430
H22 H 0.5534 -0.3855 0.3561
H23 H 0.6937 -0.3134 0.3298
H24 H 0.7159 -0.3842 0.3858
H25 H 0.7586 0.0920 0.5742
H26 H 0.8510 -0.0197 0.5488
H27 H 0.9411 0.0884 0.5780
H28 H -0.0193 -0.2849 0.3477
H29 H 0.1115 -0.3621 0.3183
H30 H 0.1023 -0.3592 0.3830
H31 H 0.6623 0.0998 0.2329
H32 H 0.5858 -0.3045 0.4698
O8 O 0.2442(5) -0.1345(4) 0.4864(2)
H33 H 0.3366 -0.1710 0.4760
H34 H 0.2942 -0.0697 0.5039
loop_
_geom_bond_atom_site_label_1
_geom_bond_atom_site_label_2
_geom_bond_site_symmetry_1
_geom_bond_site_symmetry_2
O1 C2 1_555 1_555
O2 C4 1_555 1_555
O3 C6 1_555 1_555
O4 C21 1_555 1_555
O5 C7 1_555 1_555
O6 C13 1_555 1_555
O7 C3 1_555 1_555
O8 H33 1_555 1_555
C1 C2 1_555 1_555
C2 C3 1_555 1_555
C3 C4 1_555 1_555
C4 C5 1_555 1_555
C5 C6 1_555 1_555
C6 C7 1_555 1_555
C7 C8 1_555 1_555
C8 C9 1_555 1_555
C9 O1 1_555 1_555
C10 C1 1_555 1_555
C11 C10 1_555 1_555
C12 C11 1_555 1_555
C13 C12 1_555 1_555
C14 C1 1_555 1_555
C15 C14 1_555 1_555
C16 O7 1_555 1_555
C17 C15 1_555 1_555
C18 C3 1_555 1_555
C19 C7 1_555 1_555
C20 C11 1_555 1_555
C21 O3 1_555 1_555
C22 C21 1_555 1_555
H1 C1 1_555 1_555
H2 C2 1_555 1_555
H3 C4 1_555 1_555
H4 C5 1_555 1_555
H5 C5 1_555 1_555
H6 C6 1_555 1_555
H7 C8 1_555 1_555
H8 C8 1_555 1_555
H9 C9 1_555 1_555
H10 C10 1_555 1_555
H11 C12 1_555 1_555
H12 C14 1_555 1_555
H13 C15 1_555 1_555
H14 C16 1_555 1_555
H15 C16 1_555 1_555
H16 C17 1_555 1_555
H17 C17 1_555 1_555
H18 C17 1_555 1_555
H19 C18 1_555 1_555
H20 C18 1_555 1_555
H21 C18 1_555 1_555
H22 C19 1_555 1_555
H23 C19 1_555 1_555
H24 C19 1_555 1_555
H25 C20 1_555 1_555
H26 C20 1_555 1_555
H27 C20 1_555 1_555
H28 C22 1_555 1_555
H29 C22 1_555 1_555
H30 C22 1_555 1_555
H31 O2 1_555 1_555
H32 O5 1_555 1_555
H34 O8 1_555 1_555
C9 C10 1_555 1_555
C13 C14 1_555 1_555
C15 C16 1_555 1_555

#END
