
#######################################################################
#
#                 Cambridge Crystallographic Data Centre
#                                CCDC 
#
#######################################################################
#
# If this CIF has been generated from an entry in the Cambridge 
# Structural Database, then it will include bibliographic, chemical, 
# crystal, experimental, refinement or atomic coordinate data resulting 
# from the CCDC's data processing and validation procedures.
#
#######################################################################

data_EJIBUV
_chemical_formula_moiety         'C32 H31 N3 O5,H2 O1'
_chemical_name_systematic        
'N-(2-Naphthylacetyl)glycylphenylalanylphenylalanine monohydrate'
_symmetry_cell_setting           orthorhombic
_symmetry_space_group_name_H-M   'P 21 21 21'
_symmetry_Int_Tables_number      19
_space_group_name_Hall           'P 2ac 2ab'
loop_
_symmetry_equiv_pos_site_id
_symmetry_equiv_pos_as_xyz
1 x,y,z
2 1/2-x,-y,1/2+z
3 -x,1/2+y,1/2-z
4 1/2+x,1/2-y,-z
_cell_length_a                   9.5455(6)
_cell_length_b                   14.7281(10)
_cell_length_c                   20.673(2)
_cell_angle_alpha                90
_cell_angle_beta                 90
_cell_angle_gamma                90
_cell_volume                     2906.36
_exptl_crystal_colour            colorless
_exptl_crystal_description       needle
_cell_formula_units_Z            4
loop_
_atom_site_label
_atom_site_type_symbol
_atom_site_fract_x
_atom_site_fract_y
_atom_site_fract_z
O1 O 0.30746(17) 0.51064(10) 0.46858(10)
O2 O -0.02000(15) 0.26261(10) 0.48744(9)
O3 O 0.31222(17) 0.04572(10) 0.56296(9)
O4 O 0.1196(2) -0.20830(11) 0.54314(11)
O5 O 0.31462(18) -0.21214(12) 0.59955(10)
H1 H 0.3238 -0.2633 0.5809
N1 N 0.1158(2) 0.42340(11) 0.47079(10)
H2 H 0.0252 0.4181 0.4641
N2 N 0.18215(19) 0.18420(10) 0.49837(10)
H3 H 0.2739 0.1877 0.5017
N3 N 0.1036(2) -0.02305(12) 0.58092(10)
H4 H 0.0125 -0.0209 0.5746
C1 C 0.1096(2) 0.60999(15) 0.37348(13)
C2 C 0.1017(3) 0.54496(18) 0.32384(15)
H5 H 0.0868 0.4830 0.3345
C3 C 0.1152(3) 0.56994(19) 0.25996(16)
H6 H 0.1123 0.5248 0.2271
C4 C 0.1333(3) 0.66165(19) 0.24285(15)
C5 C 0.1446(3) 0.6899(2) 0.17717(15)
H7 H 0.1421 0.6460 0.1436
C6 C 0.1590(3) 0.7797(3) 0.16212(17)
H8 H 0.1677 0.7975 0.1182
C7 C 0.1610(3) 0.8458(2) 0.21094(17)
H9 H 0.1700 0.9082 0.1999
C8 C 0.1500(3) 0.82051(19) 0.27449(16)
H10 H 0.1517 0.8655 0.3074
C9 C 0.1360(3) 0.72782(18) 0.29159(15)
C10 C 0.1279(2) 0.69963(16) 0.35750(14)
H11 H 0.1353 0.7437 0.3909
C11 C 0.0884(2) 0.58216(14) 0.44288(13)
H12 H 0.1103 0.6343 0.4714
H13 H -0.0113 0.5661 0.4495
C12 C 0.1783(2) 0.50282(14) 0.46195(13)
C13 C 0.1961(3) 0.34566(13) 0.49134(14)
H14 H 0.2340 0.3570 0.5352
H15 H 0.2762 0.3369 0.4616
C14 C 0.1081(2) 0.26070(14) 0.49234(12)
C15 C 0.1157(2) 0.09492(13) 0.49966(14)
H16 H 0.0146 0.1024 0.5111
C16 C 0.1863(2) 0.03777(14) 0.55120(12)
C17 C 0.1614(2) -0.09271(14) 0.62357(13)
H17 H 0.2502 -0.0692 0.6430
C18 C 0.1953(3) -0.17719(15) 0.58376(13)
C19 C 0.0590(3) -0.11466(18) 0.67801(14)
H18 H 0.0442 -0.0590 0.7040
H19 H -0.0321 -0.1314 0.6586
C20 C 0.1263(3) 0.04782(17) 0.43286(14)
H20 H 0.0652 -0.0065 0.4334
H21 H 0.0889 0.0898 0.3997
C21 C 0.2719(3) 0.01862(18) 0.41234(14)
C22 C 0.3662(3) 0.0781(2) 0.38361(15)
H22 H 0.3399 0.1397 0.3773
C23 C 0.4990(4) 0.0492(3) 0.36377(18)
H23 H 0.5627 0.0908 0.3445
C24 C 0.5361(5) -0.0399(3) 0.37255(19)
H24 H 0.6251 -0.0606 0.3583
C25 C 0.4462(5) -0.0988(3) 0.4016(2)
H25 H 0.4741 -0.1600 0.4082
C26 C 0.3147(4) -0.07105(19) 0.42172(15)
H26 H 0.2534 -0.1132 0.4420
C27 C 0.1043(3) -0.19064(18) 0.72330(14)
C28 C 0.2417(3) -0.1995(2) 0.74521(16)
H27 H 0.3112 -0.1577 0.7313
C29 C 0.2773(3) -0.2695(2) 0.78745(17)
H28 H 0.3712 -0.2751 0.8022
C30 C 0.1792(4) -0.3297(2) 0.80774(17)
H29 H 0.2050 -0.3778 0.8359
C31 C 0.0431(4) -0.3215(2) 0.7878(2)
H30 H -0.0267 -0.3620 0.8032
C32 C 0.0088(3) -0.25234(19) 0.74426(17)
H31 H -0.0847 -0.2484 0.7288
O6 O 0.4099(2) 0.65421(12) 0.53638(11)
H32 H 0.4727 0.6735 0.5107
H33 H 0.3664 0.6109 0.5180
loop_
_geom_bond_atom_site_label_1
_geom_bond_atom_site_label_2
_geom_bond_site_symmetry_1
_geom_bond_site_symmetry_2
O1 C12 1_555 1_555
O2 C14 1_555 1_555
O3 C16 1_555 1_555
O4 C18 1_555 1_555
O5 H1 1_555 1_555
N1 H2 1_555 1_555
N2 H3 1_555 1_555
N3 H4 1_555 1_555
C1 C2 1_555 1_555
C2 H5 1_555 1_555
C3 C2 1_555 1_555
H6 C3 1_555 1_555
C4 C3 1_555 1_555
C5 C4 1_555 1_555
H7 C5 1_555 1_555
C6 C5 1_555 1_555
H8 C6 1_555 1_555
C7 C6 1_555 1_555
H9 C7 1_555 1_555
C8 C7 1_555 1_555
H10 C8 1_555 1_555
C9 C4 1_555 1_555
C10 C1 1_555 1_555
H11 C10 1_555 1_555
C11 C1 1_555 1_555
H12 C11 1_555 1_555
H13 C11 1_555 1_555
C12 N1 1_555 1_555
C13 N1 1_555 1_555
H14 C13 1_555 1_555
H15 C13 1_555 1_555
C14 N2 1_555 1_555
C15 N2 1_555 1_555
H16 C15 1_555 1_555
C16 N3 1_555 1_555
C17 N3 1_555 1_555
H17 C17 1_555 1_555
C18 O5 1_555 1_555
C19 C17 1_555 1_555
H18 C19 1_555 1_555
H19 C19 1_555 1_555
C20 C15 1_555 1_555
H20 C20 1_555 1_555
H21 C20 1_555 1_555
C21 C20 1_555 1_555
C22 C21 1_555 1_555
H22 C22 1_555 1_555
C23 C22 1_555 1_555
H23 C23 1_555 1_555
C24 C23 1_555 1_555
H24 C24 1_555 1_555
C25 C24 1_555 1_555
H25 C25 1_555 1_555
C26 C21 1_555 1_555
H26 C26 1_555 1_555
C27 C19 1_555 1_555
C28 C27 1_555 1_555
H27 C28 1_555 1_555
C29 C28 1_555 1_555
H28 C29 1_555 1_555
C30 C29 1_555 1_555
H29 C30 1_555 1_555
C31 C30 1_555 1_555
H30 C31 1_555 1_555
C32 C27 1_555 1_555
H31 C32 1_555 1_555
O6 H32 1_555 1_555
H33 O6 1_555 1_555
C8 C9 1_555 1_555
C9 C10 1_555 1_555
C11 C12 1_555 1_555
C13 C14 1_555 1_555
C15 C16 1_555 1_555
C17 C18 1_555 1_555
C25 C26 1_555 1_555
C31 C32 1_555 1_555

#END
