
#######################################################################
#
#                 Cambridge Crystallographic Data Centre
#                                CCDC 
#
#######################################################################
#
# If this CIF has been generated from an entry in the Cambridge 
# Structural Database, then it will include bibliographic, chemical, 
# crystal, experimental, refinement or atomic coordinate data resulting 
# from the CCDC's data processing and validation procedures.
#
#######################################################################

data_EJIVOI
_chemical_formula_moiety         'C18 H10 Cl2 O2,2(C3 H7 N1 O1)'
_chemical_name_systematic        
'trans-1,5-Dichloro-9,10-diethynyl-9,10-dihydroxy-9,10-dihydroanthracene dimethylformamide clathrate'
_symmetry_cell_setting           monoclinic
_symmetry_space_group_name_H-M   'P 21'
_symmetry_Int_Tables_number      4
_space_group_name_Hall           'P 2yb'
loop_
_symmetry_equiv_pos_site_id
_symmetry_equiv_pos_as_xyz
1 x,y,z
2 -x,1/2+y,-z
_cell_length_a                   7.3834(3)
_cell_length_b                   15.3739(8)
_cell_length_c                   10.3430(5)
_cell_angle_alpha                90
_cell_angle_beta                 102.497(2)
_cell_angle_gamma                90
_cell_volume                     1146.23
_exptl_crystal_colour            colorless
_exptl_crystal_description       plate
_chemical_melting_point          527K
_cell_formula_units_Z            2
loop_
_atom_site_label
_atom_site_type_symbol
_atom_site_fract_x
_atom_site_fract_y
_atom_site_fract_z
Cl1 Cl 0.02594(16) 0.04255(6) 0.60549(11)
O1 O -0.1752(4) -0.27767(18) 0.9046(3)
H1 H -0.130(6) -0.242(3) 0.957(5)
C1 C -0.2697(5) -0.0358(2) 0.7444(4)
Cl2 Cl -0.57051(17) -0.30841(7) 0.93844(11)
O2 O -0.3734(4) 0.01078(17) 0.6323(3)
H2 H -0.413(8) -0.023(4) 0.574(7)
C2 C -0.1336(5) -0.0983(2) 0.7022(4)
C3 C 0.0008(6) -0.0678(3) 0.6338(4)
C4 C 0.1238(5) -0.1232(4) 0.5920(5)
H3 H 0.2156 -0.1007 0.5494
C5 C 0.1123(6) -0.2123(3) 0.6126(5)
H4 H 0.1947 -0.2511 0.5828
C6 C -0.0195(6) -0.2438(3) 0.6766(5)
H5 H -0.0266 -0.3046 0.6913
C7 C -0.1432(5) -0.1875(2) 0.7203(4)
C8 C -0.2790(5) -0.2321(2) 0.7915(4)
C9 C -0.4141(5) -0.1690(2) 0.8357(4)
C10 C -0.5469(6) -0.1990(3) 0.9058(5)
C11 C -0.6606(6) -0.0552(3) 0.9251(5)
H6 H -0.7441 -0.0165 0.9540
C12 C -0.6704(5) -0.1435(3) 0.9474(4)
H7 H -0.767(8) -0.167(3) 0.967(6)
C13 C -0.5291(6) -0.0231(3) 0.8606(5)
H8 H -0.530(6) 0.043(3) 0.834(5)
C14 C -0.4064(5) -0.0797(2) 0.8157(4)
C15 C -0.1651(5) 0.0295(2) 0.8380(4)
C16 C -0.0838(6) 0.0784(3) 0.9177(5)
H9 H -0.024(8) 0.112(4) 0.982(7)
C17 C -0.3830(5) -0.2976(2) 0.6985(4)
C18 C -0.4582(6) -0.3485(3) 0.6186(5)
H10 H -0.524(7) -0.388(4) 0.567(6)
N1 N 0.0926(5) 0.4574(2) 0.7907(4)
O3 O 0.0330(4) 0.3422(2) 0.9122(4)
C19 C 0.2312(7) 0.5111(3) 0.7479(6)
H11 H 0.217(7) 0.512(3) 0.650(6)
H12 H 0.358(7) 0.485(3) 0.776(5)
H13 H 0.224(6) 0.573(3) 0.765(5)
C20 C 0.1411(6) 0.3891(3) 0.8679(5)
H14 H 0.283(7) 0.382(3) 0.895(5)
C21 C -0.1001(6) 0.4871(3) 0.7556(5)
H15 H -0.1793 0.4458 0.7899
H16 H -0.1401 0.4907 0.6591
H17 H -0.1098 0.5446 0.7944
N2 N -0.4647(5) -0.2301(2) 0.3358(4)
O4 O -0.5188(4) -0.10793(19) 0.4472(3)
C22 C -0.6594(6) -0.2549(3) 0.2954(5)
H18 H -0.7371 -0.2096 0.3222
H19 H -0.6795 -0.3100 0.3378
H20 H -0.6925 -0.2618 0.1990
C23 C -0.3291(6) -0.2906(3) 0.3039(5)
H21 H -0.2039 -0.2672 0.3359
H22 H -0.3522 -0.2986 0.2078
H23 H -0.3399 -0.3467 0.3466
C24 C -0.4118(6) -0.1606(3) 0.4107(5)
H24 H -0.283(7) -0.149(3) 0.431(6)
loop_
_geom_bond_atom_site_label_1
_geom_bond_atom_site_label_2
_geom_bond_site_symmetry_1
_geom_bond_site_symmetry_2
Cl1 C3 1_555 1_555
O1 H1 1_555 1_555
C1 O2 1_555 1_555
N1 C19 1_555 1_555
Cl2 C10 1_555 1_555
O2 H2 1_555 1_555
C2 C1 1_555 1_555
N2 C22 1_555 1_555
C3 C2 1_555 1_555
O3 C20 1_555 1_555
O4 C24 1_555 1_555
C4 C3 1_555 1_555
H3 C4 1_555 1_555
C5 C4 1_555 1_555
H4 C5 1_555 1_555
C6 C5 1_555 1_555
H5 C6 1_555 1_555
C7 C2 1_555 1_555
C8 O1 1_555 1_555
C9 C8 1_555 1_555
C10 C9 1_555 1_555
C11 H6 1_555 1_555
C12 C10 1_555 1_555
H7 C12 1_555 1_555
C13 C11 1_555 1_555
H8 C13 1_555 1_555
C14 C1 1_555 1_555
C15 C1 1_555 1_555
C16 C15 1_555 1_555
H9 C16 1_555 1_555
C17 C8 1_555 1_555
C18 C17 1_555 1_555
H10 C18 1_555 1_555
C19 H11 1_555 1_555
H12 C19 1_555 1_555
H13 C19 1_555 1_555
C20 N1 1_555 1_555
H14 C20 1_555 1_555
C21 N1 1_555 1_555
H15 C21 1_555 1_555
H16 C21 1_555 1_555
H17 C21 1_555 1_555
C22 H18 1_555 1_555
H19 C22 1_555 1_555
H20 C22 1_555 1_555
C23 N2 1_555 1_555
H21 C23 1_555 1_555
H22 C23 1_555 1_555
H23 C23 1_555 1_555
C24 N2 1_555 1_555
H24 C24 1_555 1_555
C6 C7 1_555 1_555
C7 C8 1_555 1_555
C9 C14 1_555 1_555
C11 C12 1_555 1_555
C13 C14 1_555 1_555

#END
