
#######################################################################
#
#                 Cambridge Crystallographic Data Centre
#                                CCDC 
#
#######################################################################
#
# If this CIF has been generated from an entry in the Cambridge 
# Structural Database, then it will include bibliographic, chemical, 
# crystal, experimental, refinement or atomic coordinate data resulting 
# from the CCDC's data processing and validation procedures.
#
#######################################################################

data_EJUNUS
_chemical_name_common            
'(2RS,3RS)-N-Phthaloyl-2,3-dichloro-4-hydroxyleucine gamma-lactone'
_chemical_formula_moiety         'C14 H11 Cl2 N1 O4'
_chemical_name_systematic        
(3RS,4RS)-3,4-Dichloro-5,5-dimethyl-3-phthalimido-tetrahydrofuran-2-one
_symmetry_cell_setting           monoclinic
_symmetry_space_group_name_H-M   'P 21/a'
_symmetry_Int_Tables_number      14
_space_group_name_Hall           '-P 2yab'
loop_
_symmetry_equiv_pos_site_id
_symmetry_equiv_pos_as_xyz
1 x,y,z
2 1/2+x,1/2-y,z
3 -x,-y,-z
4 1/2-x,1/2+y,-z
_cell_length_a                   7.4491(5)
_cell_length_b                   13.6937(10)
_cell_length_c                   13.8646(10)
_cell_angle_alpha                90
_cell_angle_beta                 91.317(3)
_cell_angle_gamma                90
_cell_volume                     1413.9
_exptl_crystal_colour            colorless
_exptl_crystal_description       prism
_chemical_melting_point          139-141deg.C
_cell_formula_units_Z            4
loop_
_atom_site_label
_atom_site_type_symbol
_atom_site_fract_x
_atom_site_fract_y
_atom_site_fract_z
Cl1 Cl 1.1702(2) 0.03728(15) 0.62979(14)
Cl2 Cl 0.6510(2) 0.06760(12) 0.60501(16)
O1 O 1.1482(7) -0.0944(3) 0.8044(4)
O2 O 0.8998(6) -0.1513(3) 0.7319(4)
O3 O 0.9729(7) 0.2256(3) 0.6537(4)
O4 O 0.8470(7) 0.0060(3) 0.8923(4)
N1 N 0.9334(8) 0.0949(4) 0.7594(4)
C1 C 1.0175(9) -0.0817(5) 0.7542(5)
C2 C 0.9725(9) 0.0140(4) 0.6968(5)
C3 C 0.8187(9) -0.0216(4) 0.6277(5)
C4 C 0.7470(9) -0.1178(5) 0.6689(5)
C5 C 0.583(1) -0.1086(6) 0.7333(6)
C6 C 0.7201(12) -0.1943(5) 0.5923(6)
C7 C 0.9396(9) 0.1955(5) 0.7314(5)
C8 C 0.8916(9) 0.2505(4) 0.8199(5)
C9 C 0.880(1) 0.3497(5) 0.8383(6)
C10 C 0.830(1) 0.3803(5) 0.9265(6)
C11 C 0.788(1) 0.3132(5) 0.9985(6)
C12 C 0.801(1) 0.2139(5) 0.9836(6)
C13 C 0.8546(9) 0.1832(4) 0.8931(5)
C14 C 0.877(1) 0.0830(5) 0.8544(5)
H1 H 0.8673(9) -0.0337(4) 0.5621(5)
H2 H 0.476(1) -0.0863(6) 0.6939(6)
H3 H 0.609(1) -0.0600(6) 0.7854(6)
H4 H 0.556(1) -0.1735(6) 0.7628(6)
H5 H 0.6185(12) -0.1746(5) 0.5481(6)
H6 H 0.6924(12) -0.2588(5) 0.6224(6)
H7 H 0.8327(12) -0.1999(5) 0.5548(6)
H8 H 0.909(1) 0.3977(5) 0.7866(6)
H9 H 0.823(1) 0.4519(5) 0.9402(6)
H10 H 0.748(1) 0.3378(5) 1.0624(6)
H11 H 0.773(1) 0.1658(5) 1.0354(6)
loop_
_geom_bond_atom_site_label_1
_geom_bond_atom_site_label_2
_geom_bond_site_symmetry_1
_geom_bond_site_symmetry_2
Cl1 C2 1_555 1_555
Cl2 C3 1_555 1_555
O1 C1 1_555 1_555
O2 C1 1_555 1_555
O3 C7 1_555 1_555
O4 C14 1_555 1_555
N1 C2 1_555 1_555
C1 C2 1_555 1_555
C2 C3 1_555 1_555
C3 C4 1_555 1_555
C4 O2 1_555 1_555
C5 C4 1_555 1_555
C6 C4 1_555 1_555
C7 N1 1_555 1_555
C8 C7 1_555 1_555
C9 C8 1_555 1_555
C10 C9 1_555 1_555
C11 C10 1_555 1_555
C12 C11 1_555 1_555
C13 C8 1_555 1_555
C14 N1 1_555 1_555
H1 C3 1_555 1_555
H2 C5 1_555 1_555
H3 C5 1_555 1_555
H4 C5 1_555 1_555
H5 C6 1_555 1_555
H6 C6 1_555 1_555
H7 C6 1_555 1_555
H8 C9 1_555 1_555
H9 C10 1_555 1_555
H10 C11 1_555 1_555
H11 C12 1_555 1_555
C12 C13 1_555 1_555
C13 C14 1_555 1_555

#END
