
#######################################################################
#
#                 Cambridge Crystallographic Data Centre
#                                CCDC 
#
#######################################################################
#
# If this CIF has been generated from an entry in the Cambridge 
# Structural Database, then it will include bibliographic, chemical, 
# crystal, experimental, refinement or atomic coordinate data resulting 
# from the CCDC's data processing and validation procedures.
#
#######################################################################

data_EJUYAL
_chemical_formula_moiety         'C21 H20 Br1 N3 O2'
_chemical_name_systematic        
1-(5-(5-Bromo-1-methyl-1H-indol-3-yl)-3-(2-methoxyphenyl)-4,5-dihydro-1H-pyrazol-1-yl)ethanone
_symmetry_cell_setting           monoclinic
_symmetry_space_group_name_H-M   'P 21/c'
_symmetry_Int_Tables_number      14
_space_group_name_Hall           '-P 2ybc'
loop_
_symmetry_equiv_pos_site_id
_symmetry_equiv_pos_as_xyz
1 x,y,z
2 -x,1/2+y,1/2-z
3 -x,-y,-z
4 x,1/2-y,1/2+z
_cell_length_a                   16.5763(14)
_cell_length_b                   8.0259(7)
_cell_length_c                   15.6946(13)
_cell_angle_alpha                90
_cell_angle_beta                 109.896(2)
_cell_angle_gamma                90
_cell_volume                     1963.38
_exptl_crystal_colour            colorless
_exptl_crystal_description       block
_chemical_melting_point          '453-454 K'
_cell_formula_units_Z            4
_exptl_crystal_recrystallization_method ethanol/dichloromethane
loop_
_atom_site_label
_atom_site_type_symbol
_atom_site_fract_x
_atom_site_fract_y
_atom_site_fract_z
Br1 Br 0.21302(3) 0.47428(7) 0.56219(3)
C1 C 0.36188(19) 0.5348(4) 0.3049(2)
N1 N 0.28259(17) 0.2753(3) 0.25384(19)
O1 O 0.05571(17) 0.6624(3) 0.1170(2)
N2 N 0.47061(17) 0.6860(3) 0.3952(2)
N3 N 0.19554(17) 0.2534(3) 0.23672(19)
C2 C 0.3485(2) 0.5597(4) 0.3893(2)
O2 O 0.41344(16) 0.1655(3) 0.28994(18)
C3 C 0.2951(2) 0.5527(5) 0.5114(2)
C4 C 0.1557(2) 0.3842(4) 0.1961(2)
C5 C 0.0615(2) 0.3868(4) 0.1673(2)
C6 C 0.3043(2) 0.4399(4) 0.2254(2)
H1 H 0.3318 0.4263 0.1796
C7 C 0.2142(2) 0.5160(4) 0.1820(2)
H2 H 0.2088 0.6191 0.2118
H3 H 0.2018 0.5375 0.1180
C8 C 0.4365(2) 0.6124(4) 0.3122(3)
H4 H 0.4611 0.6151 0.2670
C9 C 0.4258(2) 0.6985(5) 0.5329(3)
H5 H 0.4719 0.7620 0.5684
C10 C 0.0123(2) 0.5243(5) 0.1253(2)
C11 C 0.3386(2) 0.1488(4) 0.2856(2)
C12 C 0.4181(2) 0.6546(4) 0.4447(2)
C13 C 0.3638(3) 0.6458(5) 0.5657(3)
H6 H 0.3677 0.6723 0.6246
C14 C 0.0184(2) 0.2449(5) 0.1797(3)
H7 H 0.0501 0.1533 0.2091
C15 C -0.0770(3) 0.5146(6) 0.0943(3)
H8 H -0.1098 0.6052 0.0651
C16 C 0.2855(2) 0.5076(4) 0.4242(2)
H9 H 0.2388 0.4447 0.3895
C17 C 0.3062(3) -0.0055(5) 0.3161(3)
H10 H 0.3397 -0.0993 0.3098
H11 H 0.2472 -0.0228 0.2795
H12 H 0.3107 0.0062 0.3784
C18 C 0.0087(3) 0.8087(6) 0.0795(4)
H13 H -0.0260 0.7882 0.0175
H14 H 0.0478 0.8982 0.0820
H15 H -0.0275 0.8384 0.1135
C19 C -0.0695(3) 0.2362(6) 0.1499(3)
H16 H -0.0968 0.1399 0.1588
C20 C -0.1164(3) 0.3705(7) 0.1069(3)
H17 H -0.1760 0.3645 0.0860
C21 C 0.5486(2) 0.7862(5) 0.4253(3)
H18 H 0.5823 0.7555 0.4861
H19 H 0.5336 0.9020 0.4237
H20 H 0.5811 0.7672 0.3860
loop_
_geom_bond_atom_site_label_1
_geom_bond_atom_site_label_2
_geom_bond_site_symmetry_1
_geom_bond_site_symmetry_2
Br1 C3 1_555 1_555
C1 C2 1_555 1_555
N1 N3 1_555 1_555
O1 C10 1_555 1_555
N2 C8 1_555 1_555
N3 C4 1_555 1_555
C2 C12 1_555 1_555
O2 C11 1_555 1_555
C3 C13 1_555 1_555
C4 C5 1_555 1_555
C5 C10 1_555 1_555
C6 C1 1_555 1_555
H1 C6 1_555 1_555
C7 C4 1_555 1_555
H2 C7 1_555 1_555
H3 C7 1_555 1_555
C8 C1 1_555 1_555
H4 C8 1_555 1_555
C9 H5 1_555 1_555
C10 C15 1_555 1_555
C11 N1 1_555 1_555
C12 N2 1_555 1_555
C13 C9 1_555 1_555
H6 C13 1_555 1_555
C14 C5 1_555 1_555
H7 C14 1_555 1_555
C15 H8 1_555 1_555
C16 C2 1_555 1_555
H9 C16 1_555 1_555
C17 C11 1_555 1_555
H10 C17 1_555 1_555
H11 C17 1_555 1_555
H12 C17 1_555 1_555
C18 O1 1_555 1_555
H13 C18 1_555 1_555
H14 C18 1_555 1_555
H15 C18 1_555 1_555
C19 C14 1_555 1_555
H16 C19 1_555 1_555
C20 C15 1_555 1_555
H17 C20 1_555 1_555
C21 N2 1_555 1_555
H18 C21 1_555 1_555
H19 C21 1_555 1_555
H20 C21 1_555 1_555
N1 C6 1_555 1_555
C3 C16 1_555 1_555
C6 C7 1_555 1_555
C9 C12 1_555 1_555
C19 C20 1_555 1_555

#END
