
#######################################################################
#
#                 Cambridge Crystallographic Data Centre
#                                CCDC 
#
#######################################################################
#
# If this CIF has been generated from an entry in the Cambridge 
# Structural Database, then it will include bibliographic, chemical, 
# crystal, experimental, refinement or atomic coordinate data resulting 
# from the CCDC's data processing and validation procedures.
#
#######################################################################

data_EKALUZ
_chemical_formula_moiety         'C21 H32 O5'
_chemical_name_systematic        
3a,5,9-trihydroxy-3-isopropyl-9-(methoxymethyl)-6,10a-dimethyl-4,5,6,6a,7,8,9,10a-octahydrodicyclopenta[a,d][8]annulen-1(3aH)-one
_symmetry_cell_setting           orthorhombic
_symmetry_space_group_name_H-M   'P 21 21 21'
_symmetry_Int_Tables_number      19
_space_group_name_Hall           'P 2ac 2ab'
loop_
_symmetry_equiv_pos_site_id
_symmetry_equiv_pos_as_xyz
1 x,y,z
2 1/2+x,1/2-y,-z
3 -x,1/2+y,1/2-z
4 1/2-x,-y,1/2+z
_cell_length_a                   8.9006(3)
_cell_length_b                   10.3465(4)
_cell_length_c                   21.9884(9)
_cell_angle_alpha                90
_cell_angle_beta                 90
_cell_angle_gamma                90
_cell_volume                     2024.91
_exptl_crystal_colour            colorless
_exptl_crystal_description       prism
_cell_formula_units_Z            4
loop_
_atom_site_label
_atom_site_type_symbol
_atom_site_fract_x
_atom_site_fract_y
_atom_site_fract_z
O1 O 0.2322(4) 0.0095(3) 0.47087(15)
O2 O 0.2393(3) 0.1635(2) 0.36813(11)
H1 H 0.2513 0.2319 0.3499
O3 O 0.6339(3) 0.3328(2) 0.25336(13)
O4 O 0.6570(3) -0.1096(2) 0.19455(11)
H2 H 0.5816 -0.1403 0.2104
O5 O 1.0039(3) -0.0205(3) 0.34012(14)
H3 H 1.0432 -0.0352 0.3071
C1 C 1.0999(6) 0.0508(9) 0.1750(4)
H4 H 1.1729 -0.0165 0.1693
H5 H 1.1004 0.0779 0.2168
H6 H 1.1243 0.1229 0.1494
C2 C 0.9454(5) 0.0003(5) 0.1586(2)
H7 H 0.9413 -0.0908 0.1707
C3 C 0.8265(4) 0.0704(4) 0.19371(16)
C4 C 0.7079(4) -0.0022(3) 0.22959(16)
C5 C 0.5828(4) 0.1031(3) 0.23916(15)
C6 C 0.4837(4) 0.0940(3) 0.29375(15)
H8 H 0.3862 0.0670 0.2853
C7 C 0.5099(4) 0.1179(3) 0.35286(16)
C8 C 0.3767(4) 0.1274(4) 0.39717(16)
C9 C 0.3434(5) -0.0026(4) 0.42588(19)
H9 H 0.3095 -0.0625 0.3948
H10 H 0.4344 -0.0373 0.4439
C10 C 0.1857(8) -0.1100(8) 0.4942(3)
H11 H 0.1177 -0.0961 0.5274
H12 H 0.2716 -0.1574 0.5082
H13 H 0.1359 -0.1582 0.4628
C11 C 0.6758(4) 0.2271(3) 0.23427(16)
C12 C 0.8108(4) 0.1985(3) 0.20048(17)
H14 H 0.8773 0.2601 0.1855
C13 C 0.7723(4) -0.0546(3) 0.28926(16)
H15 H 0.8383 -0.1261 0.2793
H16 H 0.6895 -0.0897 0.3127
C14 C 0.8600(4) 0.0385(4) 0.33079(16)
H17 H 0.8745 0.1204 0.3091
C15 C 0.7861(4) 0.0664(4) 0.39101(17)
H18 H 0.8619 0.1126 0.4150
C16 C 0.7523(6) -0.0580(5) 0.4269(2)
H19 H 0.6634 -0.0979 0.4109
H20 H 0.7371 -0.0371 0.4689
H21 H 0.8355 -0.1165 0.4231
C17 C 0.6514(4) 0.1619(4) 0.38503(17)
H22 H 0.6887 0.2373 0.3627
C18 C 0.5962(5) 0.2117(5) 0.4473(2)
H23 H 0.6193 0.1495 0.4790
H24 H 0.6444 0.2930 0.4572
C19 C 0.4301(5) 0.2295(5) 0.44188(19)
H25 H 0.4068 0.3154 0.4269
H26 H 0.3819 0.2179 0.4811
C20 C 0.9201(11) 0.0056(11) 0.0948(3)
H27 H 0.8142 0.0010 0.0868
H28 H 0.9697 -0.0658 0.0755
H29 H 0.9593 0.0853 0.0790
C21 C 0.4807(4) 0.1080(4) 0.18201(16)
H30 H 0.4221 0.0302 0.1797
H31 H 0.5420 0.1154 0.1463
H32 H 0.4149 0.1813 0.1847
loop_
_geom_bond_atom_site_label_1
_geom_bond_atom_site_label_2
_geom_bond_site_symmetry_1
_geom_bond_site_symmetry_2
O1 C9 1_555 1_555
O2 H1 1_555 1_555
O3 C11 1_555 1_555
O4 H2 1_555 1_555
O5 H3 1_555 1_555
C1 H4 1_555 1_555
H5 C1 1_555 1_555
H6 C1 1_555 1_555
C2 C1 1_555 1_555
H7 C2 1_555 1_555
C3 C2 1_555 1_555
C4 O4 1_555 1_555
C5 C4 1_555 1_555
C6 C5 1_555 1_555
H8 C6 1_555 1_555
C7 C6 1_555 1_555
C8 O2 1_555 1_555
C9 C8 1_555 1_555
H9 C9 1_555 1_555
H10 C9 1_555 1_555
C10 O1 1_555 1_555
H11 C10 1_555 1_555
H12 C10 1_555 1_555
H13 C10 1_555 1_555
C11 C5 1_555 1_555
C12 C3 1_555 1_555
H14 C12 1_555 1_555
C13 C4 1_555 1_555
H15 C13 1_555 1_555
H16 C13 1_555 1_555
C14 O5 1_555 1_555
H17 C14 1_555 1_555
C15 C14 1_555 1_555
H18 C15 1_555 1_555
C16 C15 1_555 1_555
H19 C16 1_555 1_555
H20 C16 1_555 1_555
H21 C16 1_555 1_555
C17 C7 1_555 1_555
H22 C17 1_555 1_555
C18 C17 1_555 1_555
H23 C18 1_555 1_555
H24 C18 1_555 1_555
C19 C8 1_555 1_555
H25 C19 1_555 1_555
H26 C19 1_555 1_555
C20 C2 1_555 1_555
H27 C20 1_555 1_555
H28 C20 1_555 1_555
H29 C20 1_555 1_555
C21 C5 1_555 1_555
H30 C21 1_555 1_555
H31 C21 1_555 1_555
H32 C21 1_555 1_555
C3 C4 1_555 1_555
C7 C8 1_555 1_555
C11 C12 1_555 1_555
C13 C14 1_555 1_555
C15 C17 1_555 1_555
C18 C19 1_555 1_555

#END
