
#######################################################################
#
#                 Cambridge Crystallographic Data Centre
#                                CCDC 
#
#######################################################################
#
# If this CIF has been generated from an entry in the Cambridge 
# Structural Database, then it will include bibliographic, chemical, 
# crystal, experimental, refinement or atomic coordinate data resulting 
# from the CCDC's data processing and validation procedures.
#
#######################################################################

data_EKASEQ
_chemical_formula_moiety         'C36 H16 B1 F15'
_chemical_name_systematic        
(1-isopropyl-3-(pentafluorophenyl)-2-phenyl-1H-inden-1-yl)(bis(pentafluorophenyl))borane
_symmetry_cell_setting           triclinic
_symmetry_space_group_name_H-M   'P -1'
_symmetry_Int_Tables_number      2
_space_group_name_Hall           '-P 1'
loop_
_symmetry_equiv_pos_site_id
_symmetry_equiv_pos_as_xyz
1 x,y,z
2 -x,-y,-z
_cell_length_a                   8.8596(13)
_cell_length_b                   10.3340(15)
_cell_length_c                   18.005(3)
_cell_angle_alpha                88.755(3)
_cell_angle_beta                 82.806(3)
_cell_angle_gamma                66.398(3)
_cell_volume                     1497.93
_exptl_crystal_colour            colorless
_exptl_crystal_description       block
_cell_formula_units_Z            2
loop_
_atom_site_label
_atom_site_type_symbol
_atom_site_fract_x
_atom_site_fract_y
_atom_site_fract_z
F1 F 0.24795(13) 0.49971(11) 0.27682(6)
F2 F -0.06296(13) 0.67559(13) 0.33225(6)
F3 F -0.11567(13) 0.91144(12) 0.41215(6)
F4 F 0.14582(14) 0.97034(11) 0.43946(6)
F5 F 0.45744(13) 0.79165(11) 0.38810(6)
F6 F 0.57640(13) 0.52727(10) 0.11325(6)
F7 F 0.31979(13) 0.54672(11) 0.04563(6)
F8 F 0.22377(13) 0.32838(12) 0.04470(6)
F9 F 0.38650(14) 0.08974(12) 0.11931(6)
F10 F 0.64297(13) 0.06826(10) 0.18877(6)
F11 F 0.91813(12) 0.28432(10) 0.04592(5)
F12 F 1.17432(13) 0.07673(11) -0.03387(5)
F13 F 1.32658(13) -0.17686(11) 0.02717(6)
F14 F 1.21732(14) -0.22487(10) 0.16919(6)
F15 F 0.96589(13) -0.01807(10) 0.24991(5)
B1 B 0.7801(2) 0.26450(18) 0.19868(10)
C1 C 0.7827(2) 0.33337(16) 0.27612(9)
C2 C 0.7975(2) 0.46047(17) 0.23529(9)
C3 C 0.9238(2) 0.46862(18) 0.18375(9)
H1 H 1.0228 0.3871 0.1702
C4 C 0.9031(2) 0.59766(19) 0.15250(10)
H2 H 0.9885 0.6044 0.1171
C5 C 0.7589(2) 0.71669(19) 0.17240(10)
H3 H 0.7475 0.8043 0.1508
C6 C 0.6307(2) 0.71051(18) 0.22332(9)
H4 H 0.5324 0.7927 0.2368
C7 C 0.6499(2) 0.58130(17) 0.25401(9)
C8 C 0.5360(2) 0.54025(17) 0.30463(8)
C9 C 0.6085(2) 0.40092(17) 0.31890(8)
C10 C 0.9170(2) 0.25913(18) 0.32956(9)
H5 H 0.9054 0.1703 0.3464
C11 C 0.8858(2) 0.3534(2) 0.39953(10)
H6 H 0.9748 0.3085 0.4308
H7 H 0.7789 0.3661 0.4281
H8 H 0.8839 0.4456 0.3843
C12 C 1.0977(2) 0.2192(2) 0.29516(10)
H9 H 1.1175 0.3052 0.2859
H10 H 1.1188 0.1663 0.2478
H11 H 1.1723 0.1605 0.3298
C13 C 0.5357(2) 0.31959(17) 0.36818(9)
C14 C 0.4212(2) 0.38222(18) 0.43152(9)
H12 H 0.3943 0.4780 0.4449
C15 C 0.3470(2) 0.3061(2) 0.47478(10)
H13 H 0.2686 0.3503 0.5172
C16 C 0.3864(2) 0.1659(2) 0.45647(10)
H14 H 0.3327 0.1148 0.4853
C17 C 0.5040(2) 0.10071(19) 0.39615(10)
H15 H 0.5336 0.0038 0.3843
C18 C 0.5790(2) 0.17629(17) 0.35276(9)
H16 H 0.6612 0.1300 0.3119
C19 C 0.3639(2) 0.63887(17) 0.33149(9)
C20 C 0.2263(2) 0.61394(17) 0.31813(9)
C21 C 0.0670(2) 0.70275(19) 0.34577(10)
C22 C 0.0394(2) 0.82287(19) 0.38708(9)
C23 C 0.1718(2) 0.85290(17) 0.40036(9)
C24 C 0.3305(2) 0.76151(17) 0.37264(9)
C25 C 0.6165(2) 0.30017(17) 0.15906(8)
C26 C 0.5299(2) 0.41842(17) 0.11984(9)
C27 C 0.3974(2) 0.43020(18) 0.08284(9)
C28 C 0.3480(2) 0.32013(19) 0.08240(9)
C29 C 0.4306(2) 0.19988(19) 0.11995(9)
C30 C 0.5614(2) 0.19189(17) 0.15618(9)
C31 C 0.93669(19) 0.14380(17) 0.15260(8)
C32 C 0.9918(2) 0.16005(17) 0.07874(9)
C33 C 1.1221(2) 0.05467(18) 0.03661(8)
C34 C 1.1989(2) -0.07483(18) 0.06714(9)
C35 C 1.1449(2) -0.09856(17) 0.13924(9)
C36 C 1.0161(2) 0.01038(17) 0.18010(9)
loop_
_geom_bond_atom_site_label_1
_geom_bond_atom_site_label_2
_geom_bond_site_symmetry_1
_geom_bond_site_symmetry_2
F1 C20 1_555 1_555
F2 C21 1_555 1_555
F3 C22 1_555 1_555
F4 C23 1_555 1_555
F5 C24 1_555 1_555
F6 C26 1_555 1_555
F7 C27 1_555 1_555
F8 C28 1_555 1_555
F9 C29 1_555 1_555
F10 C30 1_555 1_555
F11 C32 1_555 1_555
F12 C33 1_555 1_555
F13 C34 1_555 1_555
F14 C35 1_555 1_555
F15 C36 1_555 1_555
B1 C1 1_555 1_555
C1 C2 1_555 1_555
C2 C3 1_555 1_555
C3 H1 1_555 1_555
C4 C3 1_555 1_555
H2 C4 1_555 1_555
C5 C4 1_555 1_555
H3 C5 1_555 1_555
C6 C5 1_555 1_555
H4 C6 1_555 1_555
C7 C2 1_555 1_555
C8 C7 1_555 1_555
C9 C1 1_555 1_555
C10 C1 1_555 1_555
H5 C10 1_555 1_555
C11 C10 1_555 1_555
H6 C11 1_555 1_555
H7 C11 1_555 1_555
H8 C11 1_555 1_555
C12 C10 1_555 1_555
H9 C12 1_555 1_555
H10 C12 1_555 1_555
H11 C12 1_555 1_555
C13 C9 1_555 1_555
C14 C13 1_555 1_555
H12 C14 1_555 1_555
C15 C14 1_555 1_555
H13 C15 1_555 1_555
C16 C15 1_555 1_555
H14 C16 1_555 1_555
C17 C16 1_555 1_555
H15 C17 1_555 1_555
C18 C13 1_555 1_555
H16 C18 1_555 1_555
C19 C8 1_555 1_555
C20 C19 1_555 1_555
C21 C20 1_555 1_555
C22 C21 1_555 1_555
C23 C22 1_555 1_555
C24 C19 1_555 1_555
C25 B1 1_555 1_555
C26 C25 1_555 1_555
C27 C26 1_555 1_555
C28 C27 1_555 1_555
C29 C28 1_555 1_555
C30 C25 1_555 1_555
C31 B1 1_555 1_555
C32 C31 1_555 1_555
C33 C32 1_555 1_555
C34 C33 1_555 1_555
C35 C34 1_555 1_555
C36 C31 1_555 1_555
C6 C7 1_555 1_555
C8 C9 1_555 1_555
C17 C18 1_555 1_555
C23 C24 1_555 1_555
C29 C30 1_555 1_555
C35 C36 1_555 1_555

#END
