
#######################################################################
#
#                 Cambridge Crystallographic Data Centre
#                                CCDC 
#
#######################################################################
#
# If this CIF has been generated from an entry in the Cambridge 
# Structural Database, then it will include bibliographic, chemical, 
# crystal, experimental, refinement or atomic coordinate data resulting 
# from the CCDC's data processing and validation procedures.
#
#######################################################################

data_EKASUG
_chemical_formula_moiety         'C19 H34 N2 O8 S1,H2 O1'
_chemical_name_systematic        
't-butyl 2-(((t-butylsulfonyl)amino)(2,2-dimethyl-1,3-dioxolan-4-yl)methyl)-3-hydroxy-5-oxopyrrolidine-1-carboxylate monohydrate'
_symmetry_cell_setting           orthorhombic
_symmetry_space_group_name_H-M   'P 21 21 21'
_symmetry_Int_Tables_number      19
_space_group_name_Hall           'P 2ac 2ab'
loop_
_symmetry_equiv_pos_site_id
_symmetry_equiv_pos_as_xyz
1 x,y,z
2 1/2+x,1/2-y,-z
3 -x,1/2+y,1/2-z
4 1/2-x,-y,1/2+z
_cell_length_a                   10.7848(5)
_cell_length_b                   12.6119(6)
_cell_length_c                   17.5026(9)
_cell_angle_alpha                90
_cell_angle_beta                 90
_cell_angle_gamma                90
_cell_volume                     2380.65
_exptl_crystal_colour            colorless
_exptl_crystal_description       rod
_cell_formula_units_Z            4
loop_
_atom_site_label
_atom_site_type_symbol
_atom_site_fract_x
_atom_site_fract_y
_atom_site_fract_z
S1 S -0.26356(3) -0.53404(3) -0.76573(2)
O1 O -0.75075(11) -0.50164(10) -0.64906(8)
H1 H -0.7779(11) -0.44147(17) -0.6432(13)
O2 O -0.41983(12) -0.34043(10) -0.46605(7)
O3 O -0.42296(12) -0.72388(9) -0.57729(7)
O4 O -0.52082(11) -0.35979(10) -0.57975(7)
O5 O -0.26292(12) -0.64260(10) -0.73980(8)
O6 O -0.46637(14) -0.83508(10) -0.67515(8)
O7 O -0.28484(12) -0.51209(13) -0.84487(7)
O8 O -0.60909(14) -0.74413(10) -0.78418(8)
N1 N -0.37163(12) -0.47459(11) -0.71868(7)
H2 H -0.36090(12) -0.40713(11) -0.72151(7)
N2 N -0.53379(13) -0.66262(10) -0.67510(8)
C1 C -0.47205(17) -0.75002(13) -0.64459(10)
C2 C -0.40167(14) -0.40801(12) -0.58647(9)
H3 H -0.34194(14) -0.35603(12) -0.60591(9)
C3 C -0.40706(14) -0.50351(12) -0.64063(8)
H4 H -0.34715(14) -0.55606(12) -0.62222(8)
C4 C -0.52343(16) -0.30151(14) -0.51002(10)
C5 C -0.08898(18) -0.4977(2) -0.65640(11)
H5 H -0.1484(10) -0.4594(11) -0.62626(12)
H6 H -0.0959(15) -0.5722(3) -0.6458(2)
H7 H -0.0069(6) -0.4739(12) -0.6439(2)
C6 C -0.53600(14) -0.55593(11) -0.64010(9)
H8 H -0.56488(14) -0.56196(11) -0.58719(9)
C7 C -0.11399(15) -0.47803(16) -0.74091(10)
C8 C -0.64048(16) -0.55696(13) -0.76242(10)
H9 H -0.72483(16) -0.55906(13) -0.78159(10)
H10 H -0.58815(16) -0.52334(13) -0.80043(10)
C9 C -0.5037(2) -0.18471(15) -0.52607(13)
H11 H -0.4974(14) -0.1468(2) -0.47864(13)
H12 H -0.4286(8) -0.17551(19) -0.5548(8)
H13 H -0.5725(7) -0.1578(3) -0.5550(8)
C10 C -0.63482(14) -0.49667(13) -0.68748(9)
H14 H -0.61006(14) -0.42286(13) -0.69607(9)
C11 C -0.3475(2) -0.80268(16) -0.53465(12)
C12 C -0.6439(2) -0.3252(2) -0.46979(14)
H15 H -0.6500(8) -0.4000(3) -0.4605(9)
H16 H -0.6463(7) -0.2878(11) -0.4220(5)
H17 H -0.7120(2) -0.3028(13) -0.5012(5)
C13 C -0.59518(15) -0.66639(13) -0.74539(10)
C14 C -0.37313(17) -0.43259(13) -0.50359(9)
H18 H -0.28473(17) -0.44087(13) -0.49527(9)
H19 H -0.41568(17) -0.49614(13) -0.48666(9)
C15 C -0.2333(2) -0.8309(2) -0.58084(16)
H20 H -0.2573(3) -0.8723(13) -0.6245(6)
H21 H -0.1931(10) -0.7671(2) -0.5976(9)
H22 H -0.1773(8) -0.8712(13) -0.5497(4)
C16 C -0.4252(3) -0.89897(19) -0.51541(15)
H23 H -0.5007(9) -0.8767(2) -0.4911(11)
H24 H -0.4445(16) -0.9369(9) -0.5614(2)
H25 H -0.3798(8) -0.9443(8) -0.4814(10)
C17 C -0.01758(18) -0.5346(3) -0.78962(14)
H26 H -0.0142(13) -0.6080(4) -0.7754(8)
H27 H -0.0399(10) -0.5288(14) -0.84255(16)
H28 H 0.0622(4) -0.5026(11) -0.7816(9)
C18 C -0.1165(2) -0.35950(19) -0.75713(17)
H29 H -0.1384(17) -0.34785(19) -0.8096(3)
H30 H -0.1766(13) -0.3260(3) -0.7246(8)
H31 H -0.0361(5) -0.3299(3) -0.7474(11)
C19 C -0.3129(3) -0.7416(2) -0.46367(16)
H32 H -0.2621(19) -0.6821(11) -0.4775(2)
H33 H -0.3868(3) -0.7169(16) -0.4388(8)
H34 H -0.268(2) -0.7870(6) -0.4295(6)
O9 O -0.32973(14) -0.20559(11) -0.34752(9)
H35 H -0.293(2) -0.2420(14) -0.3134(9)
H36 H -0.343(2) -0.2441(14) -0.3866(8)
loop_
_geom_bond_atom_site_label_1
_geom_bond_atom_site_label_2
_geom_bond_site_symmetry_1
_geom_bond_site_symmetry_2
S1 O5 1_555 1_555
O1 H1 1_555 1_555
O2 C4 1_555 1_555
O3 C1 1_555 1_555
O4 C2 1_555 1_555
O6 C1 1_555 1_555
O7 S1 1_555 1_555
O8 C13 1_555 1_555
N1 S1 1_555 1_555
H2 N1 1_555 1_555
N2 C1 1_555 1_555
C2 H3 1_555 1_555
C3 N1 1_555 1_555
H4 C3 1_555 1_555
C4 O4 1_555 1_555
C5 H5 1_555 1_555
H6 C5 1_555 1_555
H7 C5 1_555 1_555
C6 N2 1_555 1_555
H8 C6 1_555 1_555
C7 S1 1_555 1_555
C8 H9 1_555 1_555
H10 C8 1_555 1_555
C9 C4 1_555 1_555
H11 C9 1_555 1_555
H12 C9 1_555 1_555
H13 C9 1_555 1_555
C10 O1 1_555 1_555
H14 C10 1_555 1_555
C11 O3 1_555 1_555
C12 C4 1_555 1_555
H15 C12 1_555 1_555
H16 C12 1_555 1_555
H17 C12 1_555 1_555
C13 N2 1_555 1_555
C14 O2 1_555 1_555
H18 C14 1_555 1_555
H19 C14 1_555 1_555
C15 C11 1_555 1_555
H20 C15 1_555 1_555
H21 C15 1_555 1_555
H22 C15 1_555 1_555
C16 C11 1_555 1_555
H23 C16 1_555 1_555
H24 C16 1_555 1_555
H25 C16 1_555 1_555
C17 C7 1_555 1_555
H26 C17 1_555 1_555
H27 C17 1_555 1_555
H28 C17 1_555 1_555
C18 C7 1_555 1_555
H29 C18 1_555 1_555
H30 C18 1_555 1_555
H31 C18 1_555 1_555
C19 C11 1_555 1_555
H32 C19 1_555 1_555
H33 C19 1_555 1_555
H34 C19 1_555 1_555
O9 H35 1_555 1_555
H36 O9 1_555 1_555
C2 C3 1_555 1_555
C2 C14 1_555 1_555
C3 C6 1_555 1_555
C5 C7 1_555 1_555
C6 C10 1_555 1_555
C8 C10 1_555 1_555
C8 C13 1_555 1_555

#END
