
#######################################################################
#
#                 Cambridge Crystallographic Data Centre
#                                CCDC 
#
#######################################################################
#
# If this CIF has been generated from an entry in the Cambridge 
# Structural Database, then it will include bibliographic, chemical, 
# crystal, experimental, refinement or atomic coordinate data resulting 
# from the CCDC's data processing and validation procedures.
#
#######################################################################

data_EKATOZ
_chemical_formula_moiety         'C23 H22 O8'
_chemical_name_systematic        
'Ethyl 1-(3,4-methylenedioxyphenyl)-4-hydroxy-3,6,7-trimethoxynaphthalene-2-carboxylate'
_symmetry_cell_setting           monoclinic
_symmetry_space_group_name_H-M   'P 21/n'
_symmetry_Int_Tables_number      14
_space_group_name_Hall           '-P 2yn'
loop_
_symmetry_equiv_pos_site_id
_symmetry_equiv_pos_as_xyz
1 x,y,z
2 1/2-x,1/2+y,1/2-z
3 -x,-y,-z
4 1/2+x,1/2-y,1/2+z
_cell_length_a                   11.349(2)
_cell_length_b                   18.540(4)
_cell_length_c                   20.056(4)
_cell_angle_alpha                90
_cell_angle_beta                 104.39(3)
_cell_angle_gamma                90
_cell_volume                     4087.6
_exptl_crystal_colour            yellow
_exptl_crystal_description       needle
_chemical_melting_point          150deg.C
_cell_formula_units_Z            8
_exptl_crystal_recrystallization_method methanol
loop_
_atom_site_label
_atom_site_type_symbol
_atom_site_fract_x
_atom_site_fract_y
_atom_site_fract_z
C1 C 0.3577(12) 0.2245(8) 0.1995(8)
H1 H 0.3787 0.2547 0.1640
H2 H 0.4298 0.1978 0.2243
H3 H 0.3286 0.2552 0.2319
C2 C 0.1634(11) 0.2066(7) 0.1250(7)
C3 C 0.0755(11) 0.1535(7) 0.0932(7)
C4 C 0.0089(14) 0.0297(9) 0.0976(8)
H4 H -0.0654 0.0479 0.1083
H5 H 0.0360 -0.0140 0.1246
H6 H -0.0078 0.0182 0.0484
C5 C 0.1396(12) 0.2773(7) 0.1138(7)
H7 H 0.1958 0.3118 0.1384
C6 C 0.0318(10) 0.3019(6) 0.0656(5)
C7 C -0.0506(10) 0.2469(6) 0.0283(6)
C8 C -0.0284(10) 0.1739(6) 0.0477(6)
H8 H -0.0876 0.1385 0.0285
C9 C 0.0077(11) 0.3725(8) 0.0530(6)
C10 C -0.0962(12) 0.3923(7) 0.0062(6)
C11 C -0.1843(13) 0.4973(7) 0.0398(8)
H9 H -0.2663 0.4768 0.0313
H10 H -0.1898 0.5496 0.0328
H11 H -0.1397 0.4869 0.0873
C12 C -0.1748(10) 0.3436(7) -0.0338(6)
C13 C -0.2795(10) 0.3716(7) -0.0892(6)
C14 C -0.3447(12) 0.4068(8) -0.2063(6)
H12 H -0.3809 0.4486 -0.1880
H13 H -0.3089 0.4236 -0.2438
C15 C -0.4405(13) 0.3484(10) -0.2324(8)
H14 H -0.4027 0.3075 -0.2499
H15 H -0.5057 0.3682 -0.2694
H16 H -0.4744 0.3323 -0.1945
C16 C -0.1518(10) 0.2695(7) -0.0232(7)
C17 C -0.2332(10) 0.2180(7) -0.0711(6)
C18 C -0.3575(10) 0.2178(7) -0.0787(6)
H17 H -0.3907 0.2493 -0.0508
C19 C -0.4367(11) 0.1732(7) -0.1255(7)
H18 H -0.5218 0.1729 -0.1293
C20 C -0.3856(12) 0.1306(7) -0.1650(7)
C21 C -0.2641(13) 0.1303(7) -0.1585(7)
C22 C -0.1816(10) 0.1698(7) -0.1127(7)
H19 H -0.0965 0.1662 -0.1083
C23 C -0.3401(12) 0.0451(9) -0.2327(8)
H20 H -0.3355 -0.0057 -0.2172
H21 H -0.3543 0.0452 -0.2834
O1 O 0.2657(8) 0.1756(5) 0.1683(5)
O2 O 0.1042(7) 0.0848(4) 0.1147(4)
O3 O 0.0864(9) 0.4213(4) 0.0903(5)
H22 H 0.1577 0.4052 0.0977
O4 O -0.1213(8) 0.4657(5) -0.0068(5)
O5 O -0.3705(8) 0.3961(5) -0.0783(5)
O6 O -0.2474(7) 0.3700(5) -0.1488(5)
O7 O -0.4382(7) 0.0791(4) -0.2145(4)
O8 O -0.2314(9) 0.0789(5) -0.2040(5)
C24 C 0.4898(12) 0.5324(6) -0.0975(7)
H23 H 0.5599 0.5480 -0.1142
H24 H 0.4619 0.4852 -0.1174
H25 H 0.5137 0.5285 -0.0472
C25 C 0.4237(11) 0.6518(7) -0.0948(6)
C26 C 0.3359(12) 0.7031(7) -0.1260(6)
C27 C 0.1426(12) 0.7267(8) -0.2014(7)
H26 H 0.1109 0.7522 -0.1667
H27 H 0.0761 0.7006 -0.2326
H28 H 0.1778 0.7616 -0.2276
C28 C 0.3558(11) 0.7761(7) -0.1139(7)
H29 H 0.2986 0.8112 -0.1363
C29 C 0.4670(12) 0.7960(7) -0.0660(7)
C30 C 0.5508(11) 0.7466(7) -0.0301(6)
C31 C 0.5260(11) 0.6717(8) -0.0461(6)
H30 H 0.5809 0.6359 -0.0228
C32 C 0.4926(10) 0.8724(6) -0.0532(6)
C33 C 0.5988(10) 0.8939(6) -0.0071(6)
C34 C 0.6866(15) 0.9988(9) -0.0397(8)
H31 H 0.7630 0.9727 -0.0363
H32 H 0.7044 1.0494 -0.0270
H33 H 0.6365 0.9962 -0.0871
C35 C 0.6751(11) 0.8408(7) 0.0327(7)
C36 C 0.7764(11) 0.8727(6) 0.0873(6)
C37 C 0.8372(11) 0.8985(7) 0.2085(7)
H34 H 0.7960 0.9047 0.2463
H35 H 0.8669 0.9464 0.1982
C38 C 0.9417(13) 0.8497(9) 0.2315(7)
H36 H 0.9126 0.7999 0.2316
H37 H 0.9869 0.8630 0.2782
H38 H 0.9953 0.8536 0.2002
C39 C 0.6541(10) 0.7683(7) 0.0244(6)
C40 C 0.7302(10) 0.7158(6) 0.0714(6)
C41 C 0.8550(10) 0.7157(6) 0.0778(6)
H39 H 0.8876 0.7471 0.0495
C42 C 0.9345(11) 0.6710(6) 0.1249(6)
H40 H 1.0200 0.6716 0.1300
C43 C 0.8801(9) 0.6264(6) 0.1630(5)
C44 C 0.7547(8) 0.6256(5) 0.1572(5)
C45 C 0.6783(10) 0.6698(7) 0.1107(5)
H41 H 0.5928 0.6688 0.1057
C46 C 0.8436(13) 0.5423(8) 0.2354(8)
H42 H 0.8587 0.5409 0.2862
H43 H 0.8391 0.4922 0.2180
O9 O 0.3965(8) 0.5823(5) -0.1169(5)
O10 O 0.2348(8) 0.6762(5) -0.1677(5)
O11 O 0.4105(8) 0.9228(6) -0.0894(5)
H44 H 0.4219 0.9626 -0.0687
O12 O 0.6217(8) 0.9666(4) 0.0063(5)
O13 O 0.8702(8) 0.8952(5) 0.0787(5)
O14 O 0.7531(10) 0.8727(4) 0.1499(4)
O15 O 0.9387(9) 0.5814(6) 0.2153(6)
O16 O 0.7314(8) 0.5807(5) 0.2052(5)
loop_
_geom_bond_atom_site_label_1
_geom_bond_atom_site_label_2
_geom_bond_site_symmetry_1
_geom_bond_site_symmetry_2
C1 H1 1_555 1_555
H2 C1 1_555 1_555
H3 C1 1_555 1_555
C2 C3 1_555 1_555
C3 C8 1_555 1_555
C4 H4 1_555 1_555
H5 C4 1_555 1_555
H6 C4 1_555 1_555
C5 C2 1_555 1_555
H7 C5 1_555 1_555
C6 C5 1_555 1_555
C7 C6 1_555 1_555
C8 C7 1_555 1_555
H8 C8 1_555 1_555
C9 C6 1_555 1_555
C10 C9 1_555 1_555
C11 H9 1_555 1_555
H10 C11 1_555 1_555
H11 C11 1_555 1_555
C12 C10 1_555 1_555
C13 C12 1_555 1_555
C14 H12 1_555 1_555
H13 C14 1_555 1_555
C15 C14 1_555 1_555
H14 C15 1_555 1_555
H15 C15 1_555 1_555
H16 C15 1_555 1_555
C16 C7 1_555 1_555
C17 C16 1_555 1_555
C18 C17 1_555 1_555
H17 C18 1_555 1_555
C19 C18 1_555 1_555
H18 C19 1_555 1_555
C20 C19 1_555 1_555
C21 C20 1_555 1_555
C22 C17 1_555 1_555
H19 C22 1_555 1_555
C23 H20 1_555 1_555
H21 C23 1_555 1_555
O1 C1 1_555 1_555
O2 C3 1_555 1_555
O3 C9 1_555 1_555
H22 O3 1_555 1_555
O4 C10 1_555 1_555
O5 C13 1_555 1_555
O6 C13 1_555 1_555
O7 C20 1_555 1_555
O8 C21 1_555 1_555
C24 H23 1_555 1_555
H24 C24 1_555 1_555
H25 C24 1_555 1_555
C25 C26 1_555 1_555
C26 C28 1_555 1_555
C27 H26 1_555 1_555
H27 C27 1_555 1_555
H28 C27 1_555 1_555
C28 H29 1_555 1_555
C29 C28 1_555 1_555
C30 C29 1_555 1_555
C31 C25 1_555 1_555
H30 C31 1_555 1_555
C32 C29 1_555 1_555
C33 C32 1_555 1_555
C34 H31 1_555 1_555
H32 C34 1_555 1_555
H33 C34 1_555 1_555
C35 C33 1_555 1_555
C36 C35 1_555 1_555
C37 H34 1_555 1_555
H35 C37 1_555 1_555
C38 C37 1_555 1_555
H36 C38 1_555 1_555
H37 C38 1_555 1_555
H38 C38 1_555 1_555
C39 C30 1_555 1_555
C40 C39 1_555 1_555
C41 C40 1_555 1_555
H39 C41 1_555 1_555
C42 C41 1_555 1_555
H40 C42 1_555 1_555
C43 C42 1_555 1_555
C44 C43 1_555 1_555
C45 C40 1_555 1_555
H41 C45 1_555 1_555
C46 H42 1_555 1_555
H43 C46 1_555 1_555
O9 C24 1_555 1_555
O10 C26 1_555 1_555
O11 C32 1_555 1_555
H44 O11 1_555 1_555
O12 C33 1_555 1_555
O13 C36 1_555 1_555
O14 C36 1_555 1_555
O15 C43 1_555 1_555
O16 C44 1_555 1_555
C2 O1 1_555 1_555
C4 O2 1_555 1_555
C11 O4 1_555 1_555
C12 C16 1_555 1_555
C14 O6 1_555 1_555
C21 C22 1_555 1_555
C23 O7 1_555 1_555
C23 O8 1_555 1_555
C25 O9 1_555 1_555
C27 O10 1_555 1_555
C30 C31 1_555 1_555
C34 O12 1_555 1_555
C35 C39 1_555 1_555
C37 O14 1_555 1_555
C44 C45 1_555 1_555
C46 O15 1_555 1_555
C46 O16 1_555 1_555

#END
