
#######################################################################
#
#                 Cambridge Crystallographic Data Centre
#                                CCDC 
#
#######################################################################
#
# If this CIF has been generated from an entry in the Cambridge 
# Structural Database, then it will include bibliographic, chemical, 
# crystal, experimental, refinement or atomic coordinate data resulting 
# from the CCDC's data processing and validation procedures.
#
#######################################################################

data_EKEYUP
_chemical_formula_moiety         'C28 H40 N8 O4'
_chemical_name_systematic        
1,4,7,10-tetrakis((prop-2-ynyl)carbamoylmethyl)-1,4,7,10-tetraazacyclododecane
_symmetry_cell_setting           monoclinic
_symmetry_space_group_name_H-M   'P 21/c'
_symmetry_Int_Tables_number      14
_space_group_name_Hall           '-P 2ybc'
loop_
_symmetry_equiv_pos_site_id
_symmetry_equiv_pos_as_xyz
1 x,y,z
2 -x,1/2+y,1/2-z
3 -x,-y,-z
4 x,1/2-y,1/2+z
_cell_length_a                   9.3718(2)
_cell_length_b                   8.1181(2)
_cell_length_c                   19.6489(6)
_cell_angle_alpha                90
_cell_angle_beta                 101.157(3)
_cell_angle_gamma                90
_cell_volume                     1466.66
_exptl_crystal_colour            colorless
_exptl_crystal_description       blocks
_cell_formula_units_Z            2
loop_
_atom_site_label
_atom_site_type_symbol
_atom_site_fract_x
_atom_site_fract_y
_atom_site_fract_z
N1 N 0.30048(8) 0.94160(10) 0.44346(4)
C1 C 0.38071(10) 0.87717(13) 0.39182(5)
H1 H 0.4449 0.9653 0.3801
H2 H 0.3100 0.8500 0.3490
C2 C 0.47247(10) 0.72583(13) 0.41449(5)
H3 H 0.4191 0.6533 0.4414
H4 H 0.4863 0.6644 0.3727
N2 N 0.61633(8) 0.76385(10) 0.45699(4)
C3 C 0.61203(10) 0.77592(13) 0.53155(5)
H5 H 0.6207 0.6644 0.5523
H6 H 0.5175 0.8228 0.5371
C4 C 0.73440(10) 0.88373(13) 0.56924(5)
H7 H 0.7501 0.8612 0.6197
H8 H 0.8254 0.8571 0.5531
C5 C 0.17390(10) 0.83990(13) 0.44698(5)
H9 H 0.1876 0.7307 0.4268
H10 H 0.0873 0.8912 0.4179
C6 C 0.14406(10) 0.81507(12) 0.51904(5)
O1 O 0.05620(7) 0.70802(9) 0.52897(4)
N3 N 0.21503(9) 0.91062(11) 0.56949(4)
H11 H 0.2779(10) 0.9860(10) 0.5591(6)
C7 C 0.20100(12) 0.88838(14) 0.64147(5)
H12 H 0.1860 0.9971 0.6618
H13 H 0.1143 0.8198 0.6430
C8 C 0.32862(13) 0.81020(17) 0.68285(6)
C9 C 0.43279(16) 0.7519(2) 0.71744(7)
H14 H 0.5170 0.7049 0.7454
C10 C 0.72198(10) 0.63825(13) 0.44626(5)
H15 H 0.6795 0.5278 0.4501
H16 H 0.8097 0.6481 0.4833
C11 C 0.76608(10) 0.65309(13) 0.37638(5)
O2 O 0.71123(8) 0.75232(10) 0.33171(4)
N4 N 0.87231(9) 0.55025(12) 0.36717(5)
H17 H 0.9025(12) 0.4716(10) 0.3990(5)
C12 C 0.91449(12) 0.53934(18) 0.30000(6)
H18 H 0.8962 0.6467 0.2760
H19 H 0.8533 0.4556 0.2715
C13 C 1.06699(13) 0.49564(15) 0.30548(6)
C14 C 1.18906(14) 0.46016(19) 0.30749(7)
H20 H 1.2879 0.4314 0.3091
N1B N 0.69952(8) 1.05840(10) 0.55654(4)
C1B C 0.61929(10) 1.12283(13) 0.60818(5)
H1B H 0.5551 1.0347 0.6199
H2B H 0.6900 1.1500 0.6510
C2B C 0.52753(10) 1.27417(13) 0.58551(5)
H3B H 0.5809 1.3467 0.5586
H4B H 0.5137 1.3356 0.6273
N2B N 0.38367(8) 1.23615(10) 0.54301(4)
C3B C 0.38797(10) 1.22408(13) 0.46845(5)
H5B H 0.3793 1.3356 0.4477
H6B H 0.4825 1.1772 0.4629
C4B C 0.26560(10) 1.11627(13) 0.43076(5)
H7B H 0.2499 1.1388 0.3803
H8B H 0.1746 1.1429 0.4469
C5B C 0.82610(10) 1.16010(13) 0.55302(5)
H9B H 0.8124 1.2693 0.5732
H10B H 0.9127 1.1088 0.5821
C6B C 0.85594(10) 1.18493(12) 0.48096(5)
O1B O 0.94380(7) 1.29198(9) 0.47103(4)
N3B N 0.78497(9) 1.08938(11) 0.43051(4)
H11B H 0.7221(10) 1.0140(10) 0.4409(6)
C7B C 0.79900(12) 1.11162(14) 0.35853(5)
H12B H 0.8140 1.0029 0.3382
H13B H 0.8857 1.1802 0.3570
C8B C 0.67138(13) 1.18980(17) 0.31715(6)
C9B C 0.56721(16) 1.2481(2) 0.28256(7)
H14B H 0.4830 1.2951 0.2546
C10B C 0.27802(10) 1.36175(13) 0.55374(5)
H15B H 0.3205 1.4722 0.5499
H16B H 0.1903 1.3519 0.5167
C11B C 0.23392(10) 1.34691(13) 0.62362(5)
O2B O 0.28877(8) 1.24768(10) 0.66829(4)
N4B N 0.12769(9) 1.44975(12) 0.63283(5)
H17B H 0.0975(12) 1.5284(10) 0.6010(5)
C12B C 0.08551(12) 1.46066(18) 0.70000(6)
H18B H 0.1038 1.3533 0.7240
H19B H 0.1467 1.5444 0.7285
C13B C -0.06699(13) 1.50436(15) 0.69452(6)
C14B C -0.18906(14) 1.53984(19) 0.69251(7)
H20B H -0.2879 1.5686 0.6909
loop_
_geom_bond_atom_site_label_1
_geom_bond_atom_site_label_2
_geom_bond_site_symmetry_1
_geom_bond_site_symmetry_2
N1 C1 1_555 1_555
C1 H1 1_555 1_555
H2 C1 1_555 1_555
C2 C1 1_555 1_555
H3 C2 1_555 1_555
H4 C2 1_555 1_555
N2 C2 1_555 1_555
C3 N2 1_555 1_555
H5 C3 1_555 1_555
H6 C3 1_555 1_555
C4 C3 1_555 1_555
H7 C4 1_555 1_555
H8 C4 1_555 1_555
C5 N1 1_555 1_555
H9 C5 1_555 1_555
H10 C5 1_555 1_555
C6 C5 1_555 1_555
O1 C6 1_555 1_555
N3 C6 1_555 1_555
H11 N3 1_555 1_555
C7 N3 1_555 1_555
H12 C7 1_555 1_555
H13 C7 1_555 1_555
C8 C7 1_555 1_555
C9 C8 1_555 1_555
H14 C9 1_555 1_555
C10 N2 1_555 1_555
H15 C10 1_555 1_555
H16 C10 1_555 1_555
C11 C10 1_555 1_555
O2 C11 1_555 1_555
N4 C11 1_555 1_555
H17 N4 1_555 1_555
C12 N4 1_555 1_555
H18 C12 1_555 1_555
H19 C12 1_555 1_555
C13 C12 1_555 1_555
C14 C13 1_555 1_555
H20 C14 1_555 1_555
N1B C4 1_555 1_555
C1B N1B 1_555 1_555
H1B C1B 1_555 1_555
H2B C1B 1_555 1_555
C2B C1B 1_555 1_555
H3B C2B 1_555 1_555
H4B C2B 1_555 1_555
N2B C2B 1_555 1_555
C3B N2B 1_555 1_555
H5B C3B 1_555 1_555
H6B C3B 1_555 1_555
C4B N1 1_555 1_555
H7B C4B 1_555 1_555
H8B C4B 1_555 1_555
C5B N1B 1_555 1_555
H9B C5B 1_555 1_555
H10B C5B 1_555 1_555
C6B C5B 1_555 1_555
O1B C6B 1_555 1_555
N3B C6B 1_555 1_555
H11B N3B 1_555 1_555
C7B N3B 1_555 1_555
H12B C7B 1_555 1_555
H13B C7B 1_555 1_555
C8B C7B 1_555 1_555
C9B C8B 1_555 1_555
H14B C9B 1_555 1_555
C10B N2B 1_555 1_555
H15B C10B 1_555 1_555
H16B C10B 1_555 1_555
C11B C10B 1_555 1_555
O2B C11B 1_555 1_555
N4B C11B 1_555 1_555
H17B N4B 1_555 1_555
C12B N4B 1_555 1_555
H18B C12B 1_555 1_555
H19B C12B 1_555 1_555
C13B C12B 1_555 1_555
C14B C13B 1_555 1_555
H20B C14B 1_555 1_555
C3B C4B 1_555 1_555

#END
