
#######################################################################
#
#                 Cambridge Crystallographic Data Centre
#                                CCDC 
#
#######################################################################
#
# If this CIF has been generated from an entry in the Cambridge 
# Structural Database, then it will include bibliographic, chemical, 
# crystal, experimental, refinement or atomic coordinate data resulting 
# from the CCDC's data processing and validation procedures.
#
#######################################################################

data_EKIFAF
_chemical_formula_moiety         'C20 H29 N3 S1'
_chemical_name_systematic        
Spiro-(cyclododecane-1,5'-(2'-benzylimino-\l^3^-1,3,4-thiadiazoline))
_symmetry_cell_setting           triclinic
_symmetry_space_group_name_H-M   'P -1'
_symmetry_Int_Tables_number      2
_space_group_name_Hall           '-P 1'
loop_
_symmetry_equiv_pos_site_id
_symmetry_equiv_pos_as_xyz
1 x,y,z
2 -x,-y,-z
_cell_length_a                   11.276(1)
_cell_length_b                   14.706(2)
_cell_length_c                   6.034(1)
_cell_angle_alpha                101.508(5)
_cell_angle_beta                 98.053(5)
_cell_angle_gamma                85.240(6)
_cell_volume                     969.241
_cell_formula_units_Z            2
loop_
_atom_site_label
_atom_site_type_symbol
_atom_site_fract_x
_atom_site_fract_y
_atom_site_fract_z
S1 S 0.6987 0.5515 0.3222
N1 N 0.5989 0.3897 0.0900
N2 N 0.6841 0.4781 -0.1197
N3 N 0.7450 0.5460 -0.1015
C1 C 0.5379 0.2379 0.4853
C2 C 0.5392 0.1449 0.4898
C3 C 0.5762 0.0789 0.3119
C4 C 0.6114 0.1074 0.1305
C5 C 0.6103 0.2009 0.1251
C6 C 0.5728 0.2679 0.3016
C7 C 0.5727 0.3707 0.3056
C8 C 0.6511 0.4624 0.0941
C9 C 0.7722 0.6040 0.1304
C10 C 0.9089 0.5954 0.1922
C11 C 0.9556 0.6465 0.4307
C12 C 1.0912 0.6584 0.4615
C13 C 1.1271 0.7268 0.3273
C14 C 1.0952 0.8280 0.4217
C15 C 1.0836 0.8925 0.2513
C16 C 0.9806 0.8738 0.0606
C17 C 0.8562 0.8914 0.1396
C18 C 0.7564 0.8491 -0.0325
C19 C 0.7601 0.7439 -0.0766
C20 C 0.7200 0.7024 0.1155
loop_
_geom_bond_atom_site_label_1
_geom_bond_atom_site_label_2
_geom_bond_site_symmetry_1
_geom_bond_site_symmetry_2
S1 C8 1_555 1_555
N1 C7 1_555 1_555
N2 N3 1_555 1_555
N3 C9 1_555 1_555
C1 C2 1_555 1_555
C2 C3 1_555 1_555
C3 C4 1_555 1_555
C4 C5 1_555 1_555
C5 C6 1_555 1_555
C6 C1 1_555 1_555
C7 C6 1_555 1_555
C8 N1 1_555 1_555
C9 S1 1_555 1_555
C10 C9 1_555 1_555
C11 C10 1_555 1_555
C12 C11 1_555 1_555
C13 C12 1_555 1_555
C14 C13 1_555 1_555
C15 C14 1_555 1_555
C16 C15 1_555 1_555
C17 C16 1_555 1_555
C18 C17 1_555 1_555
C19 C18 1_555 1_555
C20 C9 1_555 1_555
N2 C8 1_555 1_555
C19 C20 1_555 1_555

#END
