
#######################################################################
#
#                 Cambridge Crystallographic Data Centre
#                                CCDC 
#
#######################################################################
#
# If this CIF has been generated from an entry in the Cambridge 
# Structural Database, then it will include bibliographic, chemical, 
# crystal, experimental, refinement or atomic coordinate data resulting 
# from the CCDC's data processing and validation procedures.
#
#######################################################################

data_EKIKEO
_chemical_formula_moiety         
'C27 H31 F1 N1 O2 1+,0.5(C4 H4 O6 2-),0.11(C1 H4 O1),H2 O1'
_chemical_name_systematic        
'trans-(-)-(S,S)-4-(2-(Benzhydryloxy)ethyl)-1-(4-fluorobenzyl)piperidinium-3-ol hemikis(L-(+)-tartrate) methanol solvate monohydrate'
_chemical_properties_biological  'poor dopamine transporter affinity'
_symmetry_cell_setting           orthorhombic
_symmetry_space_group_name_H-M   'P 21 21 21'
_symmetry_Int_Tables_number      19
_space_group_name_Hall           'P 2ac 2ab'
loop_
_symmetry_equiv_pos_site_id
_symmetry_equiv_pos_as_xyz
1 x,y,z
2 1/2-x,-y,1/2+z
3 1/2+x,1/2-y,-z
4 -x,1/2+y,1/2-z
_cell_length_a                   9.2648(3)
_cell_length_b                   18.0104(7)
_cell_length_c                   32.9317(13)
_cell_angle_alpha                90
_cell_angle_beta                 90
_cell_angle_gamma                90
_cell_volume                     5495.07
_exptl_crystal_colour            colorless
_cell_formula_units_Z            8
_exptl_crystal_recrystallization_method methanol/nitromethane/water
loop_
_atom_site_label
_atom_site_type_symbol
_atom_site_fract_x
_atom_site_fract_y
_atom_site_fract_z
N1 N 0.5431(3) 0.6232(2) 0.9081(1)
C1 C 0.5675(4) 0.7056(2) 0.9098(1)
C2 C 0.5060(4) 0.7451(2) 0.8731(1)
O1 O 0.5413(3) 0.8213(2) 0.8752(1)
C3 C 0.5642(4) 0.7123(2) 0.8335(1)
C4 C 0.5383(5) 0.6283(2) 0.8339(1)
C5 C 0.6039(5) 0.5918(2) 0.8705(1)
C6 C 0.6027(4) 0.5878(2) 0.9462(1)
C7 C 0.5972(5) 0.5057(2) 0.9458(1)
C8 C 0.7227(6) 0.4644(3) 0.9458(2)
C9 C 0.7225(9) 0.3876(4) 0.9466(2)
C10 C 0.5965(9) 0.3522(3) 0.9482(2)
F1 F 0.5939(6) 0.2772(2) 0.9496(2)
C11 C 0.4669(9) 0.3894(3) 0.9467(2)
C12 C 0.4708(6) 0.4664(3) 0.9456(2)
C13 C 0.4989(5) 0.7512(3) 0.7969(1)
C14 C 0.5194(6) 0.7147(4) 0.7566(2)
O2 O 0.6658(3) 0.6934(2) 0.7507(1)
C15 C 0.7169(6) 0.6899(3) 0.7104(2)
C16 C 0.6199(5) 0.6437(3) 0.6828(1)
C17 C 0.5485(7) 0.6787(4) 0.6514(2)
C18 C 0.4590(7) 0.6328(5) 0.6243(2)
C19 C 0.4520(7) 0.5602(5) 0.6318(2)
C20 C 0.5243(7) 0.5268(4) 0.6632(2)
C21 C 0.6063(6) 0.5694(3) 0.6868(2)
C22 C 0.8702(5) 0.6588(3) 0.7113(2)
C23 C 0.9442(6) 0.6542(4) 0.6749(2)
C24 C 1.0862(6) 0.6320(4) 0.6738(2)
C25 C 1.1541(7) 0.6147(4) 0.7088(2)
C26 C 1.0832(7) 0.6171(4) 0.7454(2)
C27 C 0.9395(6) 0.6382(3) 0.7465(2)
H1 H 0.4360(50) 0.6100(20) 0.9086(13)
H2 H 0.6703 0.7153 0.9115
H3 H 0.5228 0.7253 0.9342
H4 H 0.4007 0.7399 0.8734
H5 H 0.5310(60) 0.8340(30) 0.8977(17)
H6 H 0.6687 0.7206 0.8329
H7 H 0.4352 0.6188 0.8336
H8 H 0.5794 0.6066 0.8095
H9 H 0.5853 0.5388 0.8697
H10 H 0.7077 0.5991 0.8703
H11 H 0.7021 0.6033 0.9497
H12 H 0.5484 0.6057 0.9694
H13 H 0.8107 0.4892 0.9453
H14 H 0.8088 0.3613 0.9460
H15 H 0.3797 0.3638 0.9463
H16 H 0.3841 0.4923 0.9448
H17 H 0.3961 0.7566 0.8017
H18 H 0.5396 0.8008 0.7954
H19 H 0.4582 0.6711 0.7550
H20 H 0.4906 0.7487 0.7353
H21 H 0.7209 0.7406 0.6996
H22 H 0.5568 0.7296 0.6474
H25 H 0.3954 0.5308 0.6149
H26 H 0.5163 0.4760 0.6678
H27 H 0.6579 0.5464 0.7076
H28 H 0.8972 0.6662 0.6509
H29 H 1.1349 0.6289 0.6491
H30 H 1.2508 0.6009 0.7081
H31 H 1.1313 0.6047 0.7692
H32 H 0.8899 0.6384 0.7710
N2 N 1.0565(4) 0.9186(2) 0.9114(1)
C28 C 0.9143(4) 0.9324(3) 0.8909(1)
C29 C 0.8918(4) 0.8783(2) 0.8568(1)
O3 O 0.7594(3) 0.8965(2) 0.8373(1)
C30 C 1.0127(4) 0.8791(2) 0.8257(1)
C31 C 1.1589(5) 0.8717(3) 0.8480(1)
C32 C 1.1760(4) 0.9271(3) 0.8814(1)
C33 C 1.0772(5) 0.9632(3) 0.9496(1)
C34 C 1.0834(6) 1.0461(3) 0.9443(1)
C35 C 0.9563(8) 1.0886(3) 0.9474(2)
C36 C 0.9621(13) 1.1641(5) 0.9459(2)
C37 C 1.0970(20) 1.1980(4) 0.9436(3)
F2 F 1.0954(11) 1.2724(2) 0.9444(2)
C38 C 1.2199(13) 1.1595(5) 0.9399(2)
C39 C 1.2107(8) 1.0847(4) 0.9401(2)
C40 C 0.9954(5) 0.8173(3) 0.7943(1)
C41 C 1.0283(5) 0.8370(3) 0.7512(2)
O4 O 1.1760(3) 0.8622(2) 0.7476(1)
C42 C 1.2282(4) 0.8589(2) 0.7071(1)
C43 C 1.3829(4) 0.8892(2) 0.7062(1)
C44 C 1.4565(5) 0.8896(3) 0.6706(2)
C45 C 1.5985(6) 0.9153(4) 0.6682(2)
C46 C 1.6637(6) 0.9391(4) 0.7020(2)
C47 C 1.5937(6) 0.9407(3) 0.7384(2)
C48 C 1.4500(5) 0.9163(3) 0.7406(2)
C49 C 1.1321(4) 0.8995(2) 0.6778(1)
C50 C 1.0604(6) 0.8617(3) 0.6477(2)
C51 C 0.9678(6) 0.9014(4) 0.6211(2)
C52 C 0.9501(6) 0.9752(3) 0.6260(2)
C53 C 1.0211(6) 1.0120(3) 0.6559(2)
C54 C 1.1126(5) 0.9749(3) 0.6816(2)
H33 H 1.0620(50) 0.8720(30) 0.9209(14)
H34 H 0.9121 0.9827 0.8803
H35 H 0.8368 0.9274 0.9105
H36 H 0.8840 0.8282 0.8682
H37 H 0.7400(70) 0.9020(30) 0.8141(18)
H38 H 1.0108 0.9269 0.8115
H39 H 1.1668 0.8221 0.8593
H40 H 1.2366 0.8781 0.8286
H41 H 1.2681 0.9197 0.8948
H42 H 1.1746 0.9769 0.8702
H43 H 0.9988 0.9516 0.9681
H44 H 1.1661 0.9471 0.9625
H45 H 0.8678 1.0649 0.9504
H46 H 0.8781 1.1923 0.9465
H47 H 1.3084 1.1834 0.9373
H48 H 1.2956 1.0576 0.9372
H49 H 1.0575 0.7764 0.8021
H50 H 0.8966 0.7995 0.7955
H51 H 1.0135 0.7939 0.7341
H52 H 0.9633 0.8759 0.7422
H53 H 1.2314 0.8066 0.6989
H54 H 1.4113 0.8724 0.6472
H55 H 1.6469 0.9158 0.6435
H56 H 1.7591 0.9549 0.7007
H57 H 1.6406 0.9579 0.7615
H58 H 1.4002 0.9184 0.7651
H59 H 1.0724 0.8107 0.6449
H60 H 0.9195 0.8766 0.6004
H61 H 0.8887 1.0011 0.6087
H62 H 1.0076 1.0628 0.6590
H63 H 1.1618 1.0009 0.7017
O5 O 0.6829(3) 0.8412(2) 1.1325(1)
C55 C 0.6707(4) 0.8557(2) 1.0963(2)
O6 O 0.7610(3) 0.8891(2) 1.0744(1)
C56 C 0.5296(4) 0.8325(2) 1.0754(1)
O7 O 0.4355(3) 0.8036(2) 1.1052(1)
C57 C 0.5592(4) 0.7777(2) 1.0418(1)
O8 O 0.6497(3) 0.7201(2) 1.0566(1)
C58 C 0.4158(5) 0.7473(3) 1.0248(1)
O9 O 0.3818(4) 0.6833(2) 1.0333(1)
O10 O 0.3448(3) 0.7925(2) 1.0034(1)
H64 H 0.4849 0.8767 1.0635
H65 H 0.4700(70) 0.8020(30) 1.1280(18)
H66 H 0.6100 0.8036 1.0198
H67 H 0.6560(50) 0.6903(17) 1.0375(10)
O11 O 0.7207(5) 0.9302(3) 0.9923(2)
H68 H 0.7770(80) 0.8930(30) 0.9801(17)
H69 H 0.7380(90) 0.9190(40) 1.0208(7)
O12 O 0.4569(4) 0.8903(2) 0.9486(1)
H70 H 0.5540(30) 0.8740(30) 0.9491(18)
H71 H 0.4160(50) 0.8600(30) 0.9686(15)
C59 C 0.5770(40) 1.0780(20) 0.9976(10)
O13 O 0.6130(40) 1.0303(18) 0.9710(10)
H72 H 0.6402 1.1112 0.9977
H73 H 0.4950 1.0942 0.9931
H74 H 0.5785 1.0553 1.0209
H75 H 0.5581 0.9900 0.9664
H23? H 0.3614 0.6523 0.6251
H24? H 0.4944 0.6393 0.5968
loop_
_geom_bond_atom_site_label_1
_geom_bond_atom_site_label_2
_geom_bond_site_symmetry_1
_geom_bond_site_symmetry_2
N1 C1 1_555 1_555
C1 C2 1_555 1_555
C2 O1 1_555 1_555
O1 H5 1_555 1_555
C3 C2 1_555 1_555
C4 C3 1_555 1_555
C5 N1 1_555 1_555
C6 N1 1_555 1_555
C7 C6 1_555 1_555
C8 C7 1_555 1_555
C9 C8 1_555 1_555
C10 C9 1_555 1_555
F1 C10 1_555 1_555
C11 C10 1_555 1_555
C12 C7 1_555 1_555
C13 C3 1_555 1_555
C14 C13 1_555 1_555
O2 C14 1_555 1_555
C15 O2 1_555 1_555
C16 C15 1_555 1_555
C17 C16 1_555 1_555
C18 C17 1_555 1_555
C19 C18 1_555 1_555
C20 C19 1_555 1_555
C21 C16 1_555 1_555
C22 C15 1_555 1_555
C23 C22 1_555 1_555
C24 C23 1_555 1_555
C25 C24 1_555 1_555
C26 C25 1_555 1_555
C27 C22 1_555 1_555
N2 C28 1_555 1_555
C28 C29 1_555 1_555
C29 O3 1_555 1_555
O3 H37 1_555 1_555
C30 C29 1_555 1_555
C31 C30 1_555 1_555
C32 N2 1_555 1_555
C33 N2 1_555 1_555
C34 C33 1_555 1_555
C35 C34 1_555 1_555
C36 C35 1_555 1_555
C37 C36 1_555 1_555
F2 C37 1_555 1_555
C38 C37 1_555 1_555
C39 C34 1_555 1_555
C40 C30 1_555 1_555
C41 C40 1_555 1_555
O4 C41 1_555 1_555
C42 O4 1_555 1_555
C43 C42 1_555 1_555
C44 C43 1_555 1_555
C45 C44 1_555 1_555
C46 C45 1_555 1_555
C47 C46 1_555 1_555
C48 C43 1_555 1_555
C49 C42 1_555 1_555
C50 C49 1_555 1_555
C51 C50 1_555 1_555
C52 C51 1_555 1_555
C53 C52 1_555 1_555
C54 C49 1_555 1_555
O5 C55 1_555 1_555
C55 O6 1_555 1_555
C56 C55 1_555 1_555
O7 C56 1_555 1_555
C57 C56 1_555 1_555
O8 C57 1_555 1_555
C58 C57 1_555 1_555
O9 C58 1_555 1_555
O10 C58 1_555 1_555
O11 H68 1_555 1_555
O12 H70 1_555 1_555
C59 O13 1_555 1_555
O13 H75 1_555 1_555
H1 N1 1_555 1_555
H2 C1 1_555 1_555
H3 C1 1_555 1_555
H4 C2 1_555 1_555
H6 C3 1_555 1_555
H7 C4 1_555 1_555
H8 C4 1_555 1_555
H9 C5 1_555 1_555
H10 C5 1_555 1_555
H11 C6 1_555 1_555
H12 C6 1_555 1_555
H13 C8 1_555 1_555
H14 C9 1_555 1_555
H15 C11 1_555 1_555
H16 C12 1_555 1_555
H17 C13 1_555 1_555
H18 C13 1_555 1_555
H19 C14 1_555 1_555
H20 C14 1_555 1_555
H21 C15 1_555 1_555
H22 C17 1_555 1_555
H25 C19 1_555 1_555
H26 C20 1_555 1_555
H27 C21 1_555 1_555
H28 C23 1_555 1_555
H29 C24 1_555 1_555
H30 C25 1_555 1_555
H31 C26 1_555 1_555
H32 C27 1_555 1_555
H33 N2 1_555 1_555
H34 C28 1_555 1_555
H35 C28 1_555 1_555
H36 C29 1_555 1_555
H38 C30 1_555 1_555
H39 C31 1_555 1_555
H40 C31 1_555 1_555
H41 C32 1_555 1_555
H42 C32 1_555 1_555
H43 C33 1_555 1_555
H44 C33 1_555 1_555
H45 C35 1_555 1_555
H46 C36 1_555 1_555
H47 C38 1_555 1_555
H48 C39 1_555 1_555
H49 C40 1_555 1_555
H50 C40 1_555 1_555
H51 C41 1_555 1_555
H52 C41 1_555 1_555
H53 C42 1_555 1_555
H54 C44 1_555 1_555
H55 C45 1_555 1_555
H56 C46 1_555 1_555
H57 C47 1_555 1_555
H58 C48 1_555 1_555
H59 C50 1_555 1_555
H60 C51 1_555 1_555
H61 C52 1_555 1_555
H62 C53 1_555 1_555
H63 C54 1_555 1_555
H64 C56 1_555 1_555
H65 O7 1_555 1_555
H66 C57 1_555 1_555
H67 O8 1_555 1_555
H69 O11 1_555 1_555
H71 O12 1_555 1_555
H72 C59 1_555 1_555
H73 C59 1_555 1_555
H74 C59 1_555 1_555
C4 C5 1_555 1_555
C11 C12 1_555 1_555
C20 C21 1_555 1_555
C26 C27 1_555 1_555
C31 C32 1_555 1_555
C38 C39 1_555 1_555
C47 C48 1_555 1_555
C53 C54 1_555 1_555

#END
