
#######################################################################
#
#                 Cambridge Crystallographic Data Centre
#                                CCDC 
#
#######################################################################
#
# If this CIF has been generated from an entry in the Cambridge 
# Structural Database, then it will include bibliographic, chemical, 
# crystal, experimental, refinement or atomic coordinate data resulting 
# from the CCDC's data processing and validation procedures.
#
#######################################################################

data_EKINUJ
_chemical_formula_moiety         'C45 H60 N6,0.5(C5 H12 O1),0.1(H2 O1)'
_chemical_name_systematic        
'3,10,17,24,31,38-hexaazadecacyclo[38.2.2.2^12,15^.2^26,29^.1^3,10^.1^17,24^.1^31,38^.0^4,9^.0^18,23^.0^32,37^]henpentaconta-1(42),12,14,26,28,40,43,46,49-nonaene hemikis(pentan-1-ol) clathrate hydrate'
_symmetry_cell_setting           monoclinic
_symmetry_space_group_name_H-M   'C 2'
_symmetry_Int_Tables_number      5
_space_group_name_Hall           'C 2y'
loop_
_symmetry_equiv_pos_site_id
_symmetry_equiv_pos_as_xyz
1 x,y,z
2 -x,y,-z
3 1/2+x,1/2+y,z
4 1/2-x,1/2+y,-z
_cell_length_a                   35.415(3)
_cell_length_b                   11.6180(10)
_cell_length_c                   22.285(2)
_cell_angle_alpha                90
_cell_angle_beta                 112.037(10)
_cell_angle_gamma                90
_cell_volume                     8499.31
_exptl_crystal_colour            colorless
_exptl_crystal_description       needle
_cell_formula_units_Z            8
loop_
_atom_site_label
_atom_site_type_symbol
_atom_site_fract_x
_atom_site_fract_y
_atom_site_fract_z
C1 C 0.1100(2) 0.3978(7) 0.5713(3)
H1 H 0.1215 0.3216 0.5903
C2 C 0.1445(2) 0.4725(7) 0.5686(3)
H2 H 0.1339 0.5512 0.5528
C3 C 0.1784(2) 0.4815(7) 0.6349(3)
H3 H 0.2006 0.5311 0.6328
H4 H 0.1898 0.4043 0.6504
C4 C 0.1598(2) 0.5341(8) 0.6808(4)
H5 H 0.1809 0.5370 0.7251
H6 H 0.1512 0.6142 0.6671
C5 C 0.1228(2) 0.4664(8) 0.6824(3)
H7 H 0.1108 0.5075 0.7099
H8 H 0.1319 0.3896 0.7017
C6 C 0.0901(2) 0.4516(7) 0.6135(3)
H9 H 0.0678 0.4017 0.6150
H10 H 0.0784 0.5274 0.5958
N1 N 0.08450(16) 0.3809(5) 0.5025(2)
N2 N 0.15412(17) 0.4119(5) 0.5182(3)
C7 C 0.1134(2) 0.3829(8) 0.4688(4)
H11 H 0.1050 0.4413 0.4339
H12 H 0.1142 0.3068 0.4493
C8 C 0.1787(2) 0.4804(7) 0.4914(4)
H13 H 0.2028 0.5101 0.5274
H14 H 0.1624 0.5475 0.4683
C9 C 0.1927(2) 0.4145(7) 0.4456(3)
C10 C 0.2050(2) 0.4752(7) 0.4024(4)
H15 H 0.2033 0.5569 0.4013
C11 C 0.2199(2) 0.4183(8) 0.3603(4)
H16 H 0.2281 0.4617 0.3311
C12 C 0.22260(19) 0.3009(7) 0.3608(3)
C13 C 0.2111(2) 0.2406(7) 0.4040(3)
H17 H 0.2133 0.1590 0.4055
C14 C 0.1960(2) 0.2976(7) 0.4462(3)
H18 H 0.1881 0.2539 0.4756
C15 C 0.2400(2) 0.2398(6) 0.3173(3)
H19 H 0.2701 0.2459 0.3362
H20 H 0.2328 0.1572 0.3151
C16 C 0.2484(2) 0.2529(7) 0.2125(3)
H21 H 0.2582 0.1723 0.2243
C17 C 0.21648(19) 0.2524(6) 0.1443(3)
H22 H 0.2087 0.3338 0.1307
C18 C 0.2332(2) 0.1977(6) 0.0972(3)
H23 H 0.2124 0.1985 0.0527
H24 H 0.2413 0.1169 0.1097
C19 C 0.2706(2) 0.2695(8) 0.1005(4)
H25 H 0.2834 0.2333 0.0726
H26 H 0.2614 0.3475 0.0833
C20 C 0.3022(2) 0.2798(8) 0.1693(4)
H27 H 0.3245 0.3311 0.1690
H28 H 0.3142 0.2029 0.1842
C21 C 0.2843(2) 0.3273(8) 0.2171(4)
H29 H 0.3050 0.3253 0.2617
H30 H 0.2754 0.4080 0.2061
N3 N 0.22506(16) 0.2873(5) 0.2520(3)
N4 N 0.18241(16) 0.1969(5) 0.1551(3)
C22 C 0.1820(2) 0.2557(7) 0.2135(3)
H31 H 0.1713 0.2040 0.2386
H32 H 0.1647 0.3255 0.2015
C23 C 0.1440(2) 0.2100(7) 0.1008(3)
H33 H 0.1470 0.1786 0.0614
H34 H 0.1377 0.2930 0.0934
C24 C 0.1088(2) 0.1497(7) 0.1106(3)
C25 C 0.0695(2) 0.1905(6) 0.0786(3)
H35 H 0.0652 0.2573 0.0523
C26 C 0.0363(2) 0.1344(6) 0.0847(3)
H36 H 0.0096 0.1632 0.0622
C27 C 0.0415(2) 0.0384(6) 0.1228(3)
C28 C 0.0814(2) -0.0033(7) 0.1561(3)
H37 H 0.0858 -0.0691 0.1831
C29 C 0.1144(2) 0.0532(7) 0.1489(3)
H38 H 0.1411 0.0243 0.1709
C30 C 0.0055(2) -0.0267(6) 0.1277(4)
H39 H -0.0051 -0.0814 0.0911
H40 H 0.0148 -0.0718 0.1684
C31 C -0.06698(19) -0.0055(6) 0.1116(3)
H41 H -0.0628 -0.0797 0.1359
C32 C -0.08806(19) 0.0779(6) 0.1398(3)
H42 H -0.0942 0.1501 0.1134
C33 C -0.1276(2) 0.0279(7) 0.1401(3)
H43 H -0.1412 0.0837 0.1588
H44 H -0.1222 -0.0435 0.1662
C34 C -0.1548(2) 0.0017(8) 0.0691(3)
H45 H -0.1800 -0.0369 0.0678
H46 H -0.1627 0.0751 0.0450
C35 C -0.1337(2) -0.0743(7) 0.0356(3)
H47 H -0.1513 -0.0809 -0.0108
H48 H -0.1302 -0.1523 0.0547
C36 C -0.0916(2) -0.0281(7) 0.0414(3)
H49 H -0.0776 -0.0853 0.0241
H50 H -0.0949 0.0439 0.0161
N5 N -0.02730(16) 0.0510(5) 0.1268(3)
N6 N -0.05619(15) 0.1016(5) 0.2033(3)
C37 C -0.0190(2) 0.1133(7) 0.1876(3)
H51 H -0.0133 0.1955 0.1825
H52 H 0.0049 0.0798 0.2226
C38 C -0.0639(2) 0.2038(6) 0.2352(3)
H53 H -0.0904 0.1953 0.2400
H54 H -0.0656 0.2721 0.2078
C39 C -0.03075(19) 0.2232(6) 0.3016(3)
C40 C -0.0190(2) 0.1360(7) 0.3470(3)
H55 H -0.0317 0.0627 0.3364
C41 C 0.0109(2) 0.1539(7) 0.4076(3)
H56 H 0.0189 0.0921 0.4377
C42 C 0.0295(2) 0.2610(6) 0.4252(3)
C43 C 0.0177(2) 0.3478(7) 0.3796(3)
H57 H 0.0301 0.4214 0.3901
C44 C -0.0121(2) 0.3290(6) 0.3184(3)
H58 H -0.0196 0.3899 0.2877
C45 C 0.0606(2) 0.2767(7) 0.4922(4)
H59 H 0.0465 0.2758 0.5231
H60 H 0.0794 0.2100 0.5026
C46 C 0.1036(2) 0.8933(7) 0.5599(3)
H61 H 0.1182 0.8210 0.5802
C47 C 0.1339(2) 0.9763(6) 0.5527(3)
H62 H 0.1197 1.0502 0.5348
C48 C 0.1679(2) 1.0004(7) 0.6172(3)
H63 H 0.1870 1.0576 0.6116
H64 H 0.1832 0.9288 0.6348
C49 C 0.1490(2) 1.0471(8) 0.6638(4)
H65 H 0.1376 1.1245 0.6492
H66 H 0.1706 1.0553 0.7074
C50 C 0.1151(2) 0.9693(8) 0.6685(3)
H67 H 0.1274 0.8966 0.6903
H68 H 0.1022 1.0079 0.6955
C51 C 0.0824(2) 0.9413(7) 0.6022(3)
H69 H 0.0630 0.8840 0.6070
H70 H 0.0670 1.0117 0.5824
N7 N 0.07849(17) 0.8699(5) 0.4920(3)
N8 N 0.14521(17) 0.9198(5) 0.5027(3)
C52 C 0.1083(2) 0.8568(8) 0.4609(3)
H71 H 0.0976 0.8900 0.4167
H72 H 0.1147 0.7745 0.4578
C53 C 0.1609(2) 0.9973(7) 0.4664(3)
H73 H 0.1829 1.0449 0.4972
H74 H 0.1389 1.0497 0.4403
C54 C 0.1774(2) 0.9348(6) 0.4223(3)
C55 C 0.2059(2) 0.8484(7) 0.4471(3)
H75 H 0.2144 0.8284 0.4916
C56 C 0.2223(2) 0.7908(7) 0.4082(4)
H76 H 0.2422 0.7328 0.4268
C57 C 0.2104(2) 0.8153(7) 0.3429(4)
C58 C 0.1813(3) 0.9016(7) 0.3178(4)
H77 H 0.1727 0.9205 0.2731
C59 C 0.1646(2) 0.9610(7) 0.3562(4)
H78 H 0.1446 1.0188 0.3378
C60 C 0.2297(2) 0.7521(7) 0.3025(3)
H79 H 0.2581 0.7792 0.3148
H80 H 0.2307 0.6690 0.3129
C61 C 0.2311(2) 0.7194(7) 0.1957(3)
H81 H 0.2376 0.6368 0.2078
C62 C 0.1989(2) 0.7256(7) 0.1282(3)
H82 H 0.1939 0.8081 0.1148
C63 C 0.2121(2) 0.6610(8) 0.0797(4)
H83 H 0.1908 0.6666 0.0357
H84 H 0.2167 0.5787 0.0917
C64 C 0.2521(2) 0.7175(9) 0.0812(4)
H85 H 0.2627 0.6733 0.0529
H86 H 0.2462 0.7967 0.0638
C65 C 0.2846(2) 0.7220(8) 0.1493(4)
H87 H 0.3085 0.7642 0.1481
H88 H 0.2933 0.6425 0.1640
C66 C 0.2698(2) 0.7807(8) 0.1987(4)
H89 H 0.2910 0.7748 0.2428
H90 H 0.2642 0.8631 0.1878
N9 N 0.20863(17) 0.7663(5) 0.2327(3)
N10 N 0.16273(16) 0.6788(5) 0.1375(3)
C67 C 0.1696(2) 0.7026(7) 0.2067(3)
H91 H 0.1472 0.7496 0.2100
H92 H 0.1715 0.6298 0.2308
C68 C 0.1243(2) 0.7250(6) 0.0922(3)
H93 H 0.1240 0.7191 0.0477
H94 H 0.1226 0.8076 0.1018
C69 C 0.0873(2) 0.6634(6) 0.0950(3)
C70 C 0.0887(2) 0.5490(6) 0.1110(4)
H95 H 0.1137 0.5084 0.1228
C71 C 0.0538(2) 0.4911(7) 0.1102(4)
H96 H 0.0554 0.4116 0.1209
C72 C 0.0171(2) 0.5484(7) 0.0939(3)
C73 C 0.0158(2) 0.6635(7) 0.0794(3)
H97 H -0.0089 0.7052 0.0692
C74 C 0.0508(2) 0.7192(7) 0.0797(3)
H98 H 0.0492 0.7986 0.0688
C75 C -0.0208(2) 0.4820(7) 0.0895(4)
H99 H -0.0344 0.4528 0.0448
H100 H -0.0126 0.4147 0.1188
C76 C -0.08675(19) 0.4862(6) 0.0986(3)
H101 H -0.0787 0.4108 0.1216
C77 C -0.1050(2) 0.5606(6) 0.1362(3)
H102 H -0.1153 0.6333 0.1113
C78 C -0.1403(2) 0.5002(7) 0.1455(3)
H103 H -0.1519 0.5493 0.1707
H104 H -0.1311 0.4269 0.1692
C79 C -0.1724(2) 0.4770(8) 0.0778(3)
H105 H -0.1955 0.4345 0.0821
H106 H -0.1830 0.5514 0.0564
C80 C -0.1553(2) 0.4074(7) 0.0355(3)
H107 H -0.1765 0.3999 -0.0085
H108 H -0.1483 0.3291 0.0538
C81 C -0.1173(2) 0.4637(7) 0.0309(3)
H109 H -0.1053 0.4121 0.0075
H110 H -0.1249 0.5370 0.0067
N11 N -0.04973(17) 0.5510(5) 0.1064(3)
N12 N -0.06890(16) 0.5885(5) 0.1949(3)
C82 C -0.0337(2) 0.5857(7) 0.1750(3)
H111 H -0.0132 0.5297 0.2015
H112 H -0.0208 0.6626 0.1802
C83 C -0.0723(2) 0.6972(6) 0.2255(3)
H113 H -0.0988 0.6989 0.2309
H114 H -0.0722 0.7614 0.1964
C84 C -0.0387(2) 0.7162(6) 0.2906(3)
C85 C -0.0185(2) 0.8199(7) 0.3063(3)
H115 H -0.0252 0.8798 0.2750
C86 C 0.0116(2) 0.8384(7) 0.3676(3)
H116 H 0.0254 0.9102 0.3772
C87 C 0.0215(2) 0.7527(7) 0.4146(3)
C88 C 0.0010(2) 0.6486(6) 0.3983(3)
H117 H 0.0071 0.5889 0.4297
C89 C -0.0283(2) 0.6303(6) 0.3372(3)
H118 H -0.0415 0.5577 0.3271
C90 C 0.0524(2) 0.7681(7) 0.4831(3)
H119 H 0.0377 0.7736 0.5130
H120 H 0.0700 0.6989 0.4952
C91 C 0.0781(3) 0.6965(10) 0.2922(6)
H121 H 0.0760 0.7033 0.3338
H122 H 0.0509 0.6842 0.2613
C92 C 0.1011(3) 0.5903(9) 0.2945(6)
H123 H 0.1242 0.5891 0.3368
H124 H 0.1129 0.5972 0.2609
C93 C 0.0809(2) 0.4755(8) 0.2860(4)
H125 H 0.0559 0.4791 0.2463
H126 H 0.0722 0.4638 0.3228
C94 C 0.1047(3) 0.3687(10) 0.2809(5)
H127 H 0.1135 0.3806 0.2442
H128 H 0.1297 0.3651 0.3207
C95 C 0.0848(3) 0.2547(10) 0.2723(6)
H129 H 0.0767 0.2383 0.3080
H130 H 0.1036 0.1969 0.2700
H131 H 0.0612 0.2546 0.2329
O1 O 0.0900(6) 0.8013(16) 0.2807(10)
O2 O 0.2253(10) 0.994(3) 0.1960(19)
H132? H 0.0958 0.7618 0.2989
H133? H 0.0558 0.7039 0.2513
H134? H 0.0677 0.6929 0.3263
H135? H 0.0939 0.7483 0.3259
H136? H 0.0533 0.6787 0.2983
H137? H 0.1003 0.2047 0.2560
H138? H 0.0584 0.2629 0.2386
H139? H 0.0612 0.2549 0.2328
O3? O 0.0792(5) 0.1994(17) 0.3197(8)
O4? O 0.0694(10) 0.747(3) 0.2318(12)
loop_
_geom_bond_atom_site_label_1
_geom_bond_atom_site_label_2
_geom_bond_site_symmetry_1
_geom_bond_site_symmetry_2
C1 H1 1_555 1_555
C2 C1 1_555 1_555
H2 C2 1_555 1_555
C3 C2 1_555 1_555
H3 C3 1_555 1_555
H4 C3 1_555 1_555
C4 C3 1_555 1_555
H5 C4 1_555 1_555
H6 C4 1_555 1_555
C5 C4 1_555 1_555
H7 C5 1_555 1_555
H8 C5 1_555 1_555
C6 C1 1_555 1_555
H9 C6 1_555 1_555
H10 C6 1_555 1_555
N1 C1 1_555 1_555
N2 C2 1_555 1_555
C7 N1 1_555 1_555
H11 C7 1_555 1_555
H12 C7 1_555 1_555
C8 N2 1_555 1_555
H13 C8 1_555 1_555
H14 C8 1_555 1_555
C9 C8 1_555 1_555
C10 C9 1_555 1_555
H15 C10 1_555 1_555
C11 C10 1_555 1_555
H16 C11 1_555 1_555
C12 C11 1_555 1_555
C13 C12 1_555 1_555
H17 C13 1_555 1_555
C14 C9 1_555 1_555
H18 C14 1_555 1_555
C15 C12 1_555 1_555
H19 C15 1_555 1_555
H20 C15 1_555 1_555
C16 H21 1_555 1_555
C17 C16 1_555 1_555
H22 C17 1_555 1_555
C18 C17 1_555 1_555
H23 C18 1_555 1_555
H24 C18 1_555 1_555
C19 C18 1_555 1_555
H25 C19 1_555 1_555
H26 C19 1_555 1_555
C20 C19 1_555 1_555
H27 C20 1_555 1_555
H28 C20 1_555 1_555
C21 C16 1_555 1_555
H29 C21 1_555 1_555
H30 C21 1_555 1_555
N3 C15 1_555 1_555
N4 C17 1_555 1_555
C22 N3 1_555 1_555
H31 C22 1_555 1_555
H32 C22 1_555 1_555
C23 N4 1_555 1_555
H33 C23 1_555 1_555
H34 C23 1_555 1_555
C24 C23 1_555 1_555
C25 C24 1_555 1_555
H35 C25 1_555 1_555
C26 C25 1_555 1_555
H36 C26 1_555 1_555
C27 C26 1_555 1_555
C28 C27 1_555 1_555
H37 C28 1_555 1_555
C29 C24 1_555 1_555
H38 C29 1_555 1_555
C30 C27 1_555 1_555
H39 C30 1_555 1_555
H40 C30 1_555 1_555
C31 H41 1_555 1_555
C32 C31 1_555 1_555
H42 C32 1_555 1_555
C33 C32 1_555 1_555
H43 C33 1_555 1_555
H44 C33 1_555 1_555
C34 C33 1_555 1_555
H45 C34 1_555 1_555
H46 C34 1_555 1_555
C35 C34 1_555 1_555
H47 C35 1_555 1_555
H48 C35 1_555 1_555
C36 C31 1_555 1_555
H49 C36 1_555 1_555
H50 C36 1_555 1_555
N5 C30 1_555 1_555
N6 C32 1_555 1_555
C37 N5 1_555 1_555
H51 C37 1_555 1_555
H52 C37 1_555 1_555
C38 N6 1_555 1_555
H53 C38 1_555 1_555
H54 C38 1_555 1_555
C39 C38 1_555 1_555
C40 C39 1_555 1_555
H55 C40 1_555 1_555
C41 C40 1_555 1_555
H56 C41 1_555 1_555
C42 C41 1_555 1_555
C43 C42 1_555 1_555
H57 C43 1_555 1_555
C44 C39 1_555 1_555
H58 C44 1_555 1_555
C45 N1 1_555 1_555
H59 C45 1_555 1_555
H60 C45 1_555 1_555
C46 H61 1_555 1_555
C47 C46 1_555 1_555
H62 C47 1_555 1_555
C48 C47 1_555 1_555
H63 C48 1_555 1_555
H64 C48 1_555 1_555
C49 C48 1_555 1_555
H65 C49 1_555 1_555
H66 C49 1_555 1_555
C50 C49 1_555 1_555
H67 C50 1_555 1_555
H68 C50 1_555 1_555
C51 C46 1_555 1_555
H69 C51 1_555 1_555
H70 C51 1_555 1_555
N7 C46 1_555 1_555
N8 C47 1_555 1_555
C52 N7 1_555 1_555
H71 C52 1_555 1_555
H72 C52 1_555 1_555
C53 N8 1_555 1_555
H73 C53 1_555 1_555
H74 C53 1_555 1_555
C54 C53 1_555 1_555
C55 C54 1_555 1_555
H75 C55 1_555 1_555
C56 C55 1_555 1_555
H76 C56 1_555 1_555
C57 C56 1_555 1_555
C58 C57 1_555 1_555
H77 C58 1_555 1_555
C59 C54 1_555 1_555
H78 C59 1_555 1_555
C60 C57 1_555 1_555
H79 C60 1_555 1_555
H80 C60 1_555 1_555
C61 H81 1_555 1_555
C62 C61 1_555 1_555
H82 C62 1_555 1_555
C63 C62 1_555 1_555
H83 C63 1_555 1_555
H84 C63 1_555 1_555
C64 C63 1_555 1_555
H85 C64 1_555 1_555
H86 C64 1_555 1_555
C65 C64 1_555 1_555
H87 C65 1_555 1_555
H88 C65 1_555 1_555
C66 C61 1_555 1_555
H89 C66 1_555 1_555
H90 C66 1_555 1_555
N9 C60 1_555 1_555
N10 C62 1_555 1_555
C67 N9 1_555 1_555
H91 C67 1_555 1_555
H92 C67 1_555 1_555
C68 N10 1_555 1_555
H93 C68 1_555 1_555
H94 C68 1_555 1_555
C69 C68 1_555 1_555
C70 C69 1_555 1_555
H95 C70 1_555 1_555
C71 C70 1_555 1_555
H96 C71 1_555 1_555
C72 C71 1_555 1_555
C73 C72 1_555 1_555
H97 C73 1_555 1_555
C74 C69 1_555 1_555
H98 C74 1_555 1_555
C75 C72 1_555 1_555
H99 C75 1_555 1_555
H100 C75 1_555 1_555
C76 H101 1_555 1_555
C77 C76 1_555 1_555
H102 C77 1_555 1_555
C78 C77 1_555 1_555
H103 C78 1_555 1_555
H104 C78 1_555 1_555
C79 C78 1_555 1_555
H105 C79 1_555 1_555
H106 C79 1_555 1_555
C80 C79 1_555 1_555
H107 C80 1_555 1_555
H108 C80 1_555 1_555
C81 C76 1_555 1_555
H109 C81 1_555 1_555
H110 C81 1_555 1_555
N11 C75 1_555 1_555
N12 C77 1_555 1_555
C82 N11 1_555 1_555
H111 C82 1_555 1_555
H112 C82 1_555 1_555
C83 N12 1_555 1_555
H113 C83 1_555 1_555
H114 C83 1_555 1_555
C84 C83 1_555 1_555
C85 C84 1_555 1_555
H115 C85 1_555 1_555
C86 C85 1_555 1_555
H116 C86 1_555 1_555
C87 C86 1_555 1_555
C88 C87 1_555 1_555
H117 C88 1_555 1_555
C89 C84 1_555 1_555
H118 C89 1_555 1_555
C90 N7 1_555 1_555
H119 C90 1_555 1_555
H120 C90 1_555 1_555
C91 H121 1_555 1_555
H122 C91 1_555 1_555
C92 C91 1_555 1_555
H123 C92 1_555 1_555
H124 C92 1_555 1_555
C93 C92 1_555 1_555
H125 C93 1_555 1_555
H126 C93 1_555 1_555
C94 C93 1_555 1_555
H127 C94 1_555 1_555
H128 C94 1_555 1_555
C95 C94 1_555 1_555
H129 C95 1_555 1_555
H130 C95 1_555 1_555
H131 C95 1_555 1_555
O1 C91 1_555 1_555
C5 C6 1_555 1_555
N2 C7 1_555 1_555
C13 C14 1_555 1_555
C16 N3 1_555 1_555
C20 C21 1_555 1_555
N4 C22 1_555 1_555
C28 C29 1_555 1_555
C31 N5 1_555 1_555
C35 C36 1_555 1_555
N6 C37 1_555 1_555
C42 C45 1_555 1_555
C43 C44 1_555 1_555
C50 C51 1_555 1_555
N8 C52 1_555 1_555
C58 C59 1_555 1_555
C61 N9 1_555 1_555
C65 C66 1_555 1_555
N10 C67 1_555 1_555
C73 C74 1_555 1_555
C76 N11 1_555 1_555
C80 C81 1_555 1_555
N12 C82 1_555 1_555
C87 C90 1_555 1_555
C88 C89 1_555 1_555

#END
