
#######################################################################
#
#                 Cambridge Crystallographic Data Centre
#                                CCDC 
#
#######################################################################
#
# If this CIF has been generated from an entry in the Cambridge 
# Structural Database, then it will include bibliographic, chemical, 
# crystal, experimental, refinement or atomic coordinate data resulting 
# from the CCDC's data processing and validation procedures.
#
#######################################################################

data_EKINET
_chemical_formula_moiety         'C45 H60 N6,0.5(C4 H10 O1)'
_chemical_name_systematic        
'3,10,17,24,31,38-hexaazadecacyclo[38.2.2.2^12,15^.2^26,29^.1^3,10^.1^17,24^.1^31,38^.0^4,9^.0^18,23^.0^32,37^]henpentaconta-1(42),12,14,26,28,40,43,46,49-nonaene hemikis(butan-1-ol) clathrate'
_symmetry_cell_setting           orthorhombic
_symmetry_space_group_name_H-M   'P 21 21 21'
_symmetry_Int_Tables_number      19
_space_group_name_Hall           'P 2ac 2ab'
loop_
_symmetry_equiv_pos_site_id
_symmetry_equiv_pos_as_xyz
1 x,y,z
2 1/2-x,-y,1/2+z
3 1/2+x,1/2-y,-z
4 -x,1/2+y,1/2-z
_cell_length_a                   10.9510(4)
_cell_length_b                   18.1280(4)
_cell_length_c                   42.2930(10)
_cell_angle_alpha                90
_cell_angle_beta                 90
_cell_angle_gamma                90
_cell_volume                     8395.99
_exptl_crystal_colour            colorless
_exptl_crystal_description       needle
_cell_formula_units_Z            8
loop_
_atom_site_label
_atom_site_type_symbol
_atom_site_fract_x
_atom_site_fract_y
_atom_site_fract_z
C1 C -0.0963(5) 0.4371(3) 0.46514(11)
H1 H -0.1791 0.4504 0.4570
C2 C -0.0177(5) 0.5059(3) 0.46548(11)
H2 H 0.0670 0.4924 0.4722
C3 C -0.0128(6) 0.5406(3) 0.43287(13)
H3 H 0.0398 0.5850 0.4332
H4 H -0.0957 0.5554 0.4261
C4 C 0.0400(6) 0.4826(4) 0.40980(14)
H5 H 0.0389 0.5030 0.3881
H6 H 0.1261 0.4726 0.4155
C5 C -0.0317(6) 0.4098(3) 0.41024(13)
H7 H 0.0097 0.3735 0.3964
H8 H -0.1146 0.4183 0.4017
C6 C -0.0420(6) 0.3776(3) 0.44390(12)
H9 H -0.0952 0.3335 0.4438
H10 H 0.0397 0.3630 0.4517
C7 C -0.1037(6) 0.4919(3) 0.51487(12)
H11 H -0.1836 0.5022 0.5249
H12 H -0.0400 0.4924 0.5315
N1 N -0.1065(4) 0.4195(2) 0.49894(9)
N2 N -0.0768(4) 0.5479(2) 0.49072(10)
C8 C -0.0012(5) 0.6082(3) 0.50247(14)
H13 H 0.0277 0.6378 0.4843
H14 H 0.0715 0.5872 0.5131
C9 C -0.0683(5) 0.6589(3) 0.52569(12)
C10 C -0.0013(5) 0.6989(3) 0.54745(14)
H15 H 0.0850 0.6937 0.5481
C11 C -0.0598(6) 0.7469(3) 0.56847(14)
H16 H -0.0125 0.7747 0.5830
C12 C -0.1829(5) 0.7543(3) 0.56837(12)
C13 C -0.2500(5) 0.7151(3) 0.54627(12)
H17 H -0.3361 0.7209 0.5453
C14 C -0.1914(5) 0.6669(3) 0.52536(12)
H18 H -0.2386 0.6393 0.5107
C15 C -0.2461(5) 0.8066(3) 0.59149(12)
H19 H -0.2416 0.8575 0.5830
H20 H -0.3334 0.7929 0.5930
C16 C -0.2391(6) 0.8643(3) 0.64365(13)
H21 H -0.3280 0.8720 0.6394
C17 C -0.2250(5) 0.8307(3) 0.67582(12)
H22 H -0.1360 0.8265 0.6809
C18 C -0.2866(6) 0.8776(3) 0.70106(13)
H23 H -0.2748 0.8553 0.7222
H24 H -0.3753 0.8813 0.6969
C19 C -0.2270(9) 0.9550(3) 0.69979(15)
H25 H -0.2695 0.9881 0.7148
H26 H -0.1407 0.9511 0.7066
C20 C -0.2319(7) 0.9891(3) 0.66660(15)
H27 H -0.1882 1.0369 0.6668
H28 H -0.3181 0.9989 0.6609
C21 C -0.1742(7) 0.9383(3) 0.64132(15)
H29 H -0.1851 0.9597 0.6200
H30 H -0.0857 0.9322 0.6453
C22 C -0.2162(6) 0.7367(3) 0.64012(13)
H31 H -0.2711 0.7040 0.6279
H32 H -0.1386 0.7103 0.6440
N3 N -0.1933(4) 0.8054(2) 0.62258(11)
N4 N -0.2735(4) 0.7576(2) 0.67012(10)
C23 C -0.2468(5) 0.7059(3) 0.69562(12)
H33 H -0.2722 0.7282 0.7159
H34 H -0.1574 0.6978 0.6965
C24 C -0.3100(5) 0.6316(3) 0.69194(11)
C25 C -0.4136(5) 0.6232(3) 0.67340(12)
H35 H -0.4462 0.6644 0.6624
C26 C -0.4701(5) 0.5543(3) 0.67085(13)
H36 H -0.5396 0.5488 0.6576
C27 C -0.4261(5) 0.4941(3) 0.68739(12)
C28 C -0.3221(5) 0.5027(3) 0.70602(12)
H37 H -0.2902 0.4619 0.7174
C29 C -0.2649(5) 0.5713(3) 0.70802(12)
H38 H -0.1937 0.5766 0.7207
C30 C -0.4908(5) 0.4203(3) 0.68655(14)
H39 H -0.5449 0.4162 0.7052
H40 H -0.5426 0.4178 0.6674
C31 C -0.4614(5) 0.2868(3) 0.69472(11)
H41 H -0.5437 0.2842 0.6845
C32 C -0.3777(5) 0.2331(3) 0.67848(11)
H42 H -0.2977 0.2316 0.6899
C33 C -0.4352(6) 0.1564(3) 0.67889(12)
H43 H -0.3816 0.1206 0.6679
H44 H -0.5153 0.1572 0.6680
C34 C -0.4515(6) 0.1342(3) 0.71381(13)
H45 H -0.4933 0.0858 0.7149
H46 H -0.3700 0.1286 0.7237
C35 C -0.5246(6) 0.1904(3) 0.73232(13)
H47 H -0.5254 0.1758 0.7549
H48 H -0.6100 0.1897 0.7247
C36 C -0.4752(6) 0.2691(3) 0.72972(12)
H49 H -0.5325 0.3042 0.7398
H50 H -0.3952 0.2729 0.7405
C37 C -0.3431(5) 0.3464(3) 0.65609(12)
H51 H -0.2551 0.3579 0.6580
H52 H -0.3792 0.3786 0.6397
N5 N -0.4047(4) 0.3575(2) 0.68642(10)
N6 N -0.3607(4) 0.2679(2) 0.64777(9)
C38 C -0.2585(5) 0.2393(3) 0.62994(11)
H53 H -0.2693 0.1855 0.6270
H54 H -0.1826 0.2471 0.6422
C39 C -0.2448(5) 0.2753(3) 0.59784(11)
C40 C -0.1387(5) 0.3100(3) 0.58899(12)
H55 H -0.0723 0.3118 0.6034
C41 C -0.1259(5) 0.3432(3) 0.55908(12)
H56 H -0.0514 0.3665 0.5534
C42 C -0.2227(4) 0.3415(3) 0.53790(11)
C43 C -0.3283(5) 0.3056(3) 0.54693(12)
H57 H -0.3947 0.3031 0.5325
C44 C -0.3401(5) 0.2736(3) 0.57611(12)
H58 H -0.4144 0.2499 0.5816
C45 C -0.2142(5) 0.3757(3) 0.50541(11)
H59 H -0.2182 0.3355 0.4896
H60 H -0.2868 0.4073 0.5022
C46 C 0.3929(5) 0.4341(3) 0.46697(11)
H61 H 0.3138 0.4518 0.4579
C47 C 0.4790(5) 0.4982(3) 0.47009(11)
H62 H 0.5594 0.4793 0.4778
C48 C 0.4989(6) 0.5365(3) 0.43855(12)
H63 H 0.5586 0.5771 0.4410
H64 H 0.4211 0.5576 0.4308
C49 C 0.5474(6) 0.4790(4) 0.41502(13)
H65 H 0.5530 0.5018 0.3938
H66 H 0.6308 0.4641 0.4214
C50 C 0.4674(7) 0.4106(3) 0.41300(13)
H67 H 0.5068 0.3740 0.3989
H68 H 0.3878 0.4241 0.4035
C51 C 0.4454(6) 0.3751(3) 0.44559(12)
H69 H 0.3876 0.3334 0.4437
H70 H 0.5232 0.3563 0.4544
C52 C 0.3509(6) 0.4887(3) 0.51444(12)
H71 H 0.3772 0.4900 0.5368
H72 H 0.2628 0.5006 0.5134
N7 N 0.3753(4) 0.4157(2) 0.50042(9)
N8 N 0.4226(4) 0.5418(2) 0.49541(9)
C53 C 0.5106(5) 0.5812(3) 0.51433(14)
H73 H 0.5644 0.6100 0.5002
H74 H 0.5622 0.5450 0.5257
C54 C 0.4540(5) 0.6324(3) 0.53799(12)
C55 C 0.4776(5) 0.6267(3) 0.57036(13)
H75 H 0.5285 0.5882 0.5780
C56 C 0.4266(6) 0.6773(3) 0.59149(13)
H76 H 0.4446 0.6735 0.6134
C57 C 0.3494(5) 0.7334(3) 0.58072(12)
C58 C 0.3269(6) 0.7374(3) 0.54882(13)
H77 H 0.2755 0.7755 0.5410
C59 C 0.3773(6) 0.6873(3) 0.52779(12)
H78 H 0.3585 0.6911 0.5059
C60 C 0.2912(6) 0.7904(3) 0.60254(13)
H79 H 0.3254 0.8395 0.5974
H80 H 0.2024 0.7921 0.5982
C61 C 0.2664(6) 0.8383(3) 0.65535(13)
H81 H 0.1801 0.8498 0.6494
C62 C 0.2676(6) 0.8040(3) 0.68794(13)
H82 H 0.3545 0.7968 0.6946
C63 C 0.2059(7) 0.8547(3) 0.71161(13)
H83 H 0.2061 0.8316 0.7328
H84 H 0.1201 0.8634 0.7053
C64 C 0.2749(9) 0.9273(4) 0.71260(15)
H85 H 0.3575 0.9188 0.7214
H86 H 0.2317 0.9620 0.7268
C65 C 0.2861(9) 0.9618(3) 0.67932(16)
H87 H 0.2041 0.9775 0.6721
H88 H 0.3381 1.0063 0.6806
C66 C 0.3404(7) 0.9089(3) 0.65478(15)
H89 H 0.3371 0.9315 0.6335
H90 H 0.4269 0.8983 0.6599
C67 C 0.2337(6) 0.7154(3) 0.64824(13)
H91 H 0.2763 0.6676 0.6456
H92 H 0.1550 0.7132 0.6367
N9 N 0.3094(4) 0.7761(3) 0.63619(10)
N10 N 0.2128(4) 0.7309(3) 0.68222(10)
C68 C 0.2608(5) 0.6753(3) 0.70310(12)
H93 H 0.2544 0.6936 0.7251
H94 H 0.3487 0.6687 0.6984
C69 C 0.2000(5) 0.6013(3) 0.70140(11)
C70 C 0.0860(5) 0.5913(3) 0.68834(13)
H95 H 0.0447 0.6319 0.6789
C71 C 0.0304(6) 0.5214(3) 0.68888(14)
H96 H -0.0477 0.5156 0.6794
C72 C 0.0850(5) 0.4615(3) 0.70255(13)
C73 C 0.1986(5) 0.4713(3) 0.71519(13)
H97 H 0.2392 0.4305 0.7245
C74 C 0.2564(5) 0.5400(3) 0.71468(12)
H98 H 0.3356 0.5449 0.7236
C75 C 0.0193(6) 0.3875(3) 0.70426(15)
H99 H -0.0084 0.3787 0.7262
H100 H -0.0537 0.3889 0.6905
C76 C 0.0397(5) 0.2559(3) 0.69815(11)
H101 H -0.0433 0.2578 0.6883
C77 C 0.1214(5) 0.2084(3) 0.67787(11)
H102 H 0.2022 0.2032 0.6886
C78 C 0.0667(6) 0.1318(3) 0.67336(12)
H103 H 0.1204 0.1015 0.6597
H104 H -0.0144 0.1356 0.6631
C79 C 0.0543(6) 0.0960(4) 0.70634(14)
H105 H 0.0149 0.0471 0.7042
H106 H 0.1365 0.0885 0.7155
C80 C -0.0208(7) 0.1438(4) 0.72833(14)
H107 H -0.0227 0.1207 0.7495
H108 H -0.1058 0.1460 0.7204
C81 C 0.0287(6) 0.2222(4) 0.73137(13)
H109 H 0.1097 0.2213 0.7417
H110 H -0.0272 0.2523 0.7445
C82 C 0.1317(7) 0.3302(3) 0.66098(13)
H111 H 0.2120 0.3546 0.6584
H112 H 0.0700 0.3584 0.6489
N11 N 0.0981(4) 0.3275(3) 0.69443(10)
N12 N 0.1374(4) 0.2535(2) 0.64952(9)
C83 C 0.2487(5) 0.2364(3) 0.63248(12)
H113 H 0.2545 0.1823 0.6298
H114 H 0.3194 0.2525 0.6453
C84 C 0.2563(4) 0.2723(3) 0.60040(11)
C85 C 0.3540(5) 0.3163(3) 0.59175(12)
H115 H 0.4163 0.3262 0.6068
C86 C 0.3633(5) 0.3464(3) 0.56158(12)
H116 H 0.4320 0.3758 0.5561
C87 C 0.2715(4) 0.3334(3) 0.53941(11)
C88 C 0.1746(5) 0.2890(3) 0.54798(12)
H117 H 0.1126 0.2783 0.5329
C89 C 0.1663(5) 0.2598(3) 0.57788(12)
H118 H 0.0975 0.2305 0.5833
C90 C 0.2768(5) 0.3635(3) 0.50605(12)
H119 H 0.2860 0.3216 0.4912
H120 H 0.1982 0.3880 0.5012
O1 O -0.2707(14) 0.4865(6) 0.5898(3)
C91 C -0.1971(13) 0.5248(7) 0.6128(3)
H121 H -0.2544 0.5648 0.6123
H122 H -0.1957 0.5035 0.6336
C92 C -0.0692(14) 0.5534(4) 0.6051(2)
H123 H -0.0715 0.5771 0.5840
H124 H -0.0480 0.5921 0.6207
C93 C 0.0305(14) 0.4966(4) 0.6051(2)
H125 H 0.0121 0.4600 0.5885
H126 H 0.0284 0.4704 0.6257
C94 C 0.1631(16) 0.5259(8) 0.5997(3)
H127 H 0.1660 0.5504 0.5796
H128 H 0.1831 0.5603 0.6162
H129 H 0.2219 0.4860 0.5993
H130? H -0.2208 0.4877 0.5978
O2? O 0.261(2) 0.4913(18) 0.6141(12)
loop_
_geom_bond_atom_site_label_1
_geom_bond_atom_site_label_2
_geom_bond_site_symmetry_1
_geom_bond_site_symmetry_2
C1 H1 1_555 1_555
C2 C1 1_555 1_555
H2 C2 1_555 1_555
C3 C2 1_555 1_555
H3 C3 1_555 1_555
H4 C3 1_555 1_555
C4 C3 1_555 1_555
H5 C4 1_555 1_555
H6 C4 1_555 1_555
C5 C4 1_555 1_555
H7 C5 1_555 1_555
H8 C5 1_555 1_555
C6 C1 1_555 1_555
H9 C6 1_555 1_555
H10 C6 1_555 1_555
C7 H11 1_555 1_555
H12 C7 1_555 1_555
N1 C1 1_555 1_555
N2 C2 1_555 1_555
C8 N2 1_555 1_555
H13 C8 1_555 1_555
H14 C8 1_555 1_555
C9 C8 1_555 1_555
C10 C9 1_555 1_555
H15 C10 1_555 1_555
C11 C10 1_555 1_555
H16 C11 1_555 1_555
C12 C11 1_555 1_555
C13 C12 1_555 1_555
H17 C13 1_555 1_555
C14 C9 1_555 1_555
H18 C14 1_555 1_555
C15 C12 1_555 1_555
H19 C15 1_555 1_555
H20 C15 1_555 1_555
C16 H21 1_555 1_555
C17 C16 1_555 1_555
H22 C17 1_555 1_555
C18 C17 1_555 1_555
H23 C18 1_555 1_555
H24 C18 1_555 1_555
C19 C18 1_555 1_555
H25 C19 1_555 1_555
H26 C19 1_555 1_555
C20 C19 1_555 1_555
H27 C20 1_555 1_555
H28 C20 1_555 1_555
C21 C16 1_555 1_555
H29 C21 1_555 1_555
H30 C21 1_555 1_555
C22 H31 1_555 1_555
H32 C22 1_555 1_555
N3 C15 1_555 1_555
N4 C17 1_555 1_555
C23 N4 1_555 1_555
H33 C23 1_555 1_555
H34 C23 1_555 1_555
C24 C23 1_555 1_555
C25 C24 1_555 1_555
H35 C25 1_555 1_555
C26 C25 1_555 1_555
H36 C26 1_555 1_555
C27 C26 1_555 1_555
C28 C27 1_555 1_555
H37 C28 1_555 1_555
C29 C24 1_555 1_555
H38 C29 1_555 1_555
C30 C27 1_555 1_555
H39 C30 1_555 1_555
H40 C30 1_555 1_555
C31 H41 1_555 1_555
C32 C31 1_555 1_555
H42 C32 1_555 1_555
C33 C32 1_555 1_555
H43 C33 1_555 1_555
H44 C33 1_555 1_555
C34 C33 1_555 1_555
H45 C34 1_555 1_555
H46 C34 1_555 1_555
C35 C34 1_555 1_555
H47 C35 1_555 1_555
H48 C35 1_555 1_555
C36 C31 1_555 1_555
H49 C36 1_555 1_555
H50 C36 1_555 1_555
C37 H51 1_555 1_555
H52 C37 1_555 1_555
N5 C30 1_555 1_555
N6 C32 1_555 1_555
C38 N6 1_555 1_555
H53 C38 1_555 1_555
H54 C38 1_555 1_555
C39 C38 1_555 1_555
C40 C39 1_555 1_555
H55 C40 1_555 1_555
C41 C40 1_555 1_555
H56 C41 1_555 1_555
C42 C41 1_555 1_555
C43 C42 1_555 1_555
H57 C43 1_555 1_555
C44 C39 1_555 1_555
H58 C44 1_555 1_555
C45 N1 1_555 1_555
H59 C45 1_555 1_555
H60 C45 1_555 1_555
C46 H61 1_555 1_555
C47 C46 1_555 1_555
H62 C47 1_555 1_555
C48 C47 1_555 1_555
H63 C48 1_555 1_555
H64 C48 1_555 1_555
C49 C48 1_555 1_555
H65 C49 1_555 1_555
H66 C49 1_555 1_555
C50 C49 1_555 1_555
H67 C50 1_555 1_555
H68 C50 1_555 1_555
C51 C46 1_555 1_555
H69 C51 1_555 1_555
H70 C51 1_555 1_555
C52 H71 1_555 1_555
H72 C52 1_555 1_555
N7 C46 1_555 1_555
N8 C47 1_555 1_555
C53 N8 1_555 1_555
H73 C53 1_555 1_555
H74 C53 1_555 1_555
C54 C53 1_555 1_555
C55 C54 1_555 1_555
H75 C55 1_555 1_555
C56 C55 1_555 1_555
H76 C56 1_555 1_555
C57 C56 1_555 1_555
C58 C57 1_555 1_555
H77 C58 1_555 1_555
C59 C54 1_555 1_555
H78 C59 1_555 1_555
C60 C57 1_555 1_555
H79 C60 1_555 1_555
H80 C60 1_555 1_555
C61 H81 1_555 1_555
C62 C61 1_555 1_555
H82 C62 1_555 1_555
C63 C62 1_555 1_555
H83 C63 1_555 1_555
H84 C63 1_555 1_555
C64 C63 1_555 1_555
H85 C64 1_555 1_555
H86 C64 1_555 1_555
C65 C64 1_555 1_555
H87 C65 1_555 1_555
H88 C65 1_555 1_555
C66 C61 1_555 1_555
H89 C66 1_555 1_555
H90 C66 1_555 1_555
C67 H91 1_555 1_555
H92 C67 1_555 1_555
N9 C60 1_555 1_555
N10 C62 1_555 1_555
C68 N10 1_555 1_555
H93 C68 1_555 1_555
H94 C68 1_555 1_555
C69 C68 1_555 1_555
C70 C69 1_555 1_555
H95 C70 1_555 1_555
C71 C70 1_555 1_555
H96 C71 1_555 1_555
C72 C71 1_555 1_555
C73 C72 1_555 1_555
H97 C73 1_555 1_555
C74 C69 1_555 1_555
H98 C74 1_555 1_555
C75 C72 1_555 1_555
H99 C75 1_555 1_555
H100 C75 1_555 1_555
C76 H101 1_555 1_555
C77 C76 1_555 1_555
H102 C77 1_555 1_555
C78 C77 1_555 1_555
H103 C78 1_555 1_555
H104 C78 1_555 1_555
C79 C78 1_555 1_555
H105 C79 1_555 1_555
H106 C79 1_555 1_555
C80 C79 1_555 1_555
H107 C80 1_555 1_555
H108 C80 1_555 1_555
C81 C76 1_555 1_555
H109 C81 1_555 1_555
H110 C81 1_555 1_555
C82 H111 1_555 1_555
H112 C82 1_555 1_555
N11 C75 1_555 1_555
N12 C77 1_555 1_555
C83 N12 1_555 1_555
H113 C83 1_555 1_555
H114 C83 1_555 1_555
C84 C83 1_555 1_555
C85 C84 1_555 1_555
H115 C85 1_555 1_555
C86 C85 1_555 1_555
H116 C86 1_555 1_555
C87 C86 1_555 1_555
C88 C87 1_555 1_555
H117 C88 1_555 1_555
C89 C84 1_555 1_555
H118 C89 1_555 1_555
C90 N7 1_555 1_555
H119 C90 1_555 1_555
H120 C90 1_555 1_555
O1 C91 1_555 1_555
C91 H121 1_555 1_555
H122 C91 1_555 1_555
C92 C91 1_555 1_555
H123 C92 1_555 1_555
H124 C92 1_555 1_555
C93 C92 1_555 1_555
H125 C93 1_555 1_555
H126 C93 1_555 1_555
C94 C93 1_555 1_555
H127 C94 1_555 1_555
H128 C94 1_555 1_555
H129 C94 1_555 1_555
C5 C6 1_555 1_555
C7 N1 1_555 1_555
C7 N2 1_555 1_555
C13 C14 1_555 1_555
C16 N3 1_555 1_555
C20 C21 1_555 1_555
C22 N3 1_555 1_555
C22 N4 1_555 1_555
C28 C29 1_555 1_555
C31 N5 1_555 1_555
C35 C36 1_555 1_555
C37 N5 1_555 1_555
C37 N6 1_555 1_555
C42 C45 1_555 1_555
C43 C44 1_555 1_555
C50 C51 1_555 1_555
C52 N7 1_555 1_555
C52 N8 1_555 1_555
C58 C59 1_555 1_555
C61 N9 1_555 1_555
C65 C66 1_555 1_555
C67 N9 1_555 1_555
C67 N10 1_555 1_555
C73 C74 1_555 1_555
C76 N11 1_555 1_555
C80 C81 1_555 1_555
C82 N11 1_555 1_555
C82 N12 1_555 1_555
C87 C90 1_555 1_555
C88 C89 1_555 1_555

#END
