
#######################################################################
#
#                 Cambridge Crystallographic Data Centre
#                                CCDC 
#
#######################################################################
#
# If this CIF has been generated from an entry in the Cambridge 
# Structural Database, then it will include bibliographic, chemical, 
# crystal, experimental, refinement or atomic coordinate data resulting 
# from the CCDC's data processing and validation procedures.
#
#######################################################################

data_EKIPEV
_chemical_formula_moiety         'C45 H60 N6,0.5(C7 H16 O1),0.2(H2 O1)'
_chemical_name_systematic        
'3,10,17,24,31,38-hexaazadecacyclo[38.2.2.2^12,15^.2^26,29^.1^3,10^.1^17,24^.1^31,38^.0^4,9^.0^18,23^.0^32,37^]henpentaconta-1(42),12,14,26,28,40,43,46,49-nonaene hemikis(heptan-1-ol) clathrate hydrate'
_symmetry_cell_setting           monoclinic
_symmetry_space_group_name_H-M   'C 2'
_symmetry_Int_Tables_number      5
_space_group_name_Hall           'C 2y'
loop_
_symmetry_equiv_pos_site_id
_symmetry_equiv_pos_as_xyz
1 x,y,z
2 -x,y,-z
3 1/2+x,1/2+y,z
4 1/2-x,1/2+y,-z
_cell_length_a                   34.9280(10)
_cell_length_b                   12.0282(3)
_cell_length_c                   22.4940(10)
_cell_angle_alpha                90
_cell_angle_beta                 114.074(2)
_cell_angle_gamma                90
_cell_volume                     8628.22
_exptl_crystal_colour            colorless
_exptl_crystal_description       needle
_cell_formula_units_Z            8
loop_
_atom_site_label
_atom_site_type_symbol
_atom_site_fract_x
_atom_site_fract_y
_atom_site_fract_z
C1 C 0.36133(11) 1.1194(3) 0.39664(16)
H1 H 0.3590 1.1920 0.3737
C2 C 0.32381(12) 1.0492(3) 0.35774(16)
H2 H 0.3247 0.9796 0.3826
C3 C 0.28340(12) 1.1124(3) 0.34659(17)
H3 H 0.2586 1.0667 0.3206
H4 H 0.2821 1.1825 0.3228
C4 C 0.28383(12) 1.1374(3) 0.41387(18)
H5 H 0.2587 1.1817 0.4082
H6 H 0.2823 1.0665 0.4352
C5 C 0.32311(13) 1.2010(3) 0.45794(18)
H7 H 0.3230 1.2092 0.5017
H8 H 0.3224 1.2764 0.4399
C6 C 0.36396(12) 1.1421(3) 0.46460(17)
H9 H 0.3885 1.1899 0.4889
H10 H 0.3672 1.0713 0.4887
C7 C 0.37729(13) 1.0224(4) 0.32228(18)
H11 H 0.3876 0.9480 0.3169
H12 H 0.3855 1.0766 0.2964
N1 N 0.39524(9) 1.0544(2) 0.39110(13)
N2 N 0.33150(10) 1.0208(3) 0.30020(14)
C8 C 0.31255(13) 0.9154(3) 0.27088(17)
H13 H 0.2827 0.9154 0.2644
H14 H 0.3268 0.8544 0.3014
C9 C 0.31490(11) 0.8928(3) 0.20636(16)
C10 C 0.30278(12) 0.9729(3) 0.15733(17)
H15 H 0.2936 1.0437 0.1649
C11 C 0.30398(12) 0.9511(3) 0.09798(17)
H16 H 0.2958 1.0075 0.0656
C12 C 0.31686(11) 0.8486(3) 0.08447(16)
C13 C 0.32928(12) 0.7687(3) 0.13327(17)
H17 H 0.3384 0.6981 0.1252
C14 C 0.32866(13) 0.7897(3) 0.19316(17)
H18 H 0.3376 0.7339 0.2259
C15 C 0.31580(13) 0.8283(3) 0.01717(17)
H19 H 0.2862 0.8224 -0.0143
H20 H 0.3280 0.8939 0.0047
C16 C 0.33103(11) 0.7082(3) -0.05666(16)
H21 H 0.3352 0.7791 -0.0765
C17 C 0.36672(12) 0.6309(3) -0.04806(17)
H22 H 0.3617 0.5583 -0.0308
C18 C 0.37045(15) 0.6103(5) -0.1122(2)
H23 H 0.3935 0.5572 -0.1057
H24 H 0.3767 0.6808 -0.1292
C19 C 0.32851(17) 0.5625(5) -0.1606(2)
H25 H 0.3295 0.5551 -0.2038
H26 H 0.3248 0.4872 -0.1460
C20 C 0.29077(15) 0.6344(5) -0.1674(2)
H27 H 0.2647 0.5961 -0.1961
H28 H 0.2923 0.7058 -0.1882
C21 C 0.28906(13) 0.6581(4) -0.10109(18)
H29 H 0.2660 0.7107 -0.1066
H30 H 0.2840 0.5883 -0.0821
C22 C 0.38371(13) 0.7380(4) 0.04547(19)
H31 H 0.3924 0.8168 0.0540
H32 H 0.3935 0.6982 0.0876
N3 N 0.33791(10) 0.7298(3) 0.01113(13)
N4 N 0.40144(10) 0.6871(3) 0.00299(14)
C23 C 0.43727(14) 0.6153(4) 0.0384(2)
H33 H 0.4443 0.5722 0.0067
H34 H 0.4293 0.5618 0.0649
C24 C 0.47569(12) 0.6788(3) 0.08260(18)
C25 C 0.48586(13) 0.7799(4) 0.06371(19)
H35 H 0.4679 0.8114 0.0231
C26 C 0.52206(13) 0.8361(4) 0.10348(19)
H36 H 0.5286 0.9050 0.0891
C27 C 0.54857(12) 0.7946(3) 0.16299(16)
C28 C 0.53843(14) 0.6931(3) 0.18193(19)
H37 H 0.5564 0.6616 0.2225
C29 C 0.50245(14) 0.6372(3) 0.1426(2)
H38 H 0.4959 0.5684 0.1571
C30 C 0.58788(13) 0.8568(3) 0.20417(17)
H39 H 0.6109 0.8323 0.1923
H40 H 0.5833 0.9371 0.1943
C31 C 0.64064(11) 0.8916(3) 0.31404(17)
H41 H 0.6398 0.9717 0.3017
C32 C 0.63974(11) 0.8839(3) 0.38049(17)
H42 H 0.6422 0.8041 0.3940
C33 C 0.67552(12) 0.9488(4) 0.4308(2)
H43 H 0.6750 0.9405 0.4742
H44 H 0.6728 1.0287 0.4194
C34 C 0.71698(12) 0.9030(5) 0.4321(2)
H45 H 0.7405 0.9491 0.4617
H46 H 0.7212 0.8262 0.4496
C35 C 0.71753(12) 0.9022(4) 0.3643(2)
H47 H 0.7169 0.9798 0.3493
H48 H 0.7440 0.8677 0.3672
C36 C 0.68056(12) 0.8390(4) 0.31464(19)
H49 H 0.6820 0.7596 0.3269
H50 H 0.6809 0.8443 0.2709
C37 C 0.57170(12) 0.8919(4) 0.29869(18)
H51 H 0.5583 0.9586 0.2727
H52 H 0.5495 0.8387 0.2961
N5 N 0.60073(10) 0.8404(3) 0.27407(14)
N6 N 0.59711(9) 0.9226(3) 0.36673(13)
C38 C 0.58039(11) 0.8801(3) 0.41201(16)
H53 H 0.6022 0.8866 0.4570
H54 H 0.5737 0.8002 0.4030
C39 C 0.54129(11) 0.9410(3) 0.40755(15)
C40 C 0.51023(11) 0.8848(3) 0.41940(16)
H55 H 0.5129 0.8070 0.4276
C41 C 0.47523(11) 0.9406(3) 0.41945(16)
H56 H 0.4547 0.9008 0.4285
C42 C 0.47017(11) 1.0527(3) 0.40646(16)
C43 C 0.50082(13) 1.1090(3) 0.3935(2)
H57 H 0.4977 1.1864 0.3842
C44 C 0.53596(13) 1.0530(3) 0.3940(2)
H58 H 0.5565 1.0927 0.3849
C45 C 0.43393(12) 1.1184(3) 0.40991(19)
H59 H 0.4422 1.1458 0.4550
H60 H 0.4285 1.1840 0.3811
C46 C 0.37943(11) 0.6117(3) 0.39118(16)
H61 H 0.3725 0.6837 0.3668
C47 C 0.34338(11) 0.5316(3) 0.36033(16)
H62 H 0.3495 0.4618 0.3867
C48 C 0.30296(11) 0.5822(3) 0.35798(18)
H63 H 0.2793 0.5301 0.3370
H64 H 0.2967 0.6523 0.3328
C49 C 0.30942(13) 0.6047(4) 0.4286(2)
H65 H 0.3132 0.5330 0.4519
H66 H 0.2840 0.6409 0.4287
C50 C 0.34760(14) 0.6791(4) 0.4647(2)
H67 H 0.3517 0.6862 0.5108
H68 H 0.3421 0.7543 0.4452
C51 C 0.38795(12) 0.6327(4) 0.46200(18)
H69 H 0.4111 0.6867 0.4812
H70 H 0.3961 0.5625 0.4870
C52 C 0.39065(12) 0.5061(4) 0.31336(19)
H71 H 0.4002 0.4287 0.3131
H72 H 0.3966 0.5496 0.2808
N7 N 0.41220(9) 0.5551(3) 0.37836(14)
N8 N 0.34540(9) 0.5082(2) 0.29797(13)
C53 C 0.32423(12) 0.4060(3) 0.26822(17)
H73 H 0.2954 0.4076 0.2664
H74 H 0.3391 0.3427 0.2962
C54 C 0.32171(10) 0.3864(3) 0.19990(16)
C55 C 0.32394(12) 0.2797(3) 0.17896(18)
H75 H 0.3279 0.2190 0.2079
C56 C 0.32038(13) 0.2599(3) 0.11581(19)
H76 H 0.3221 0.1860 0.1022
C57 C 0.31437(11) 0.3481(3) 0.07233(17)
C58 C 0.31261(13) 0.4541(3) 0.09403(18)
H77 H 0.3092 0.5152 0.0656
C59 C 0.31565(13) 0.4735(3) 0.15641(18)
H78 H 0.3136 0.5474 0.1697
C60 C 0.30939(13) 0.3269(3) 0.00303(18)
H79 H 0.2791 0.3210 -0.0255
H80 H 0.3206 0.3916 -0.0119
C61 C 0.32001(12) 0.1974(3) -0.07222(17)
H81 H 0.3214 0.2654 -0.0968
C62 C 0.35623(12) 0.1219(3) -0.06459(17)
H82 H 0.3538 0.0526 -0.0418
C63 C 0.35632(15) 0.0897(4) -0.13014(18)
H83 H 0.3792 0.0360 -0.1237
H84 H 0.3609 0.1563 -0.1522
C64 C 0.31371(17) 0.0371(4) -0.1716(2)
H85 H 0.3121 0.0241 -0.2161
H86 H 0.3120 -0.0362 -0.1528
C65 C 0.27616(15) 0.1071(5) -0.17652(19)
H87 H 0.2501 0.0647 -0.2004
H88 H 0.2751 0.1754 -0.2017
C66 C 0.27832(14) 0.1398(4) -0.10881(18)
H89 H 0.2549 0.1904 -0.1135
H90 H 0.2762 0.0727 -0.0848
C67 C 0.37603(14) 0.2372(5) 0.0254(2)
H91 H 0.3877 0.1977 0.0677
H92 H 0.3844 0.3163 0.0330
N9 N 0.33027(10) 0.2276(3) -0.00447(14)
N10 N 0.39171(10) 0.1869(3) -0.01992(14)
C68 C 0.42933(13) 0.1211(4) 0.0118(2)
H93 H 0.4359 0.0835 -0.0221
H94 H 0.4236 0.0627 0.0381
C69 C 0.46761(13) 0.1864(3) 0.05567(17)
C70 C 0.47255(12) 0.2979(3) 0.04708(17)
H95 H 0.4509 0.3373 0.0134
C71 C 0.50887(12) 0.3536(3) 0.08703(18)
H96 H 0.5116 0.4306 0.0802
C72 C 0.54124(12) 0.2989(3) 0.13660(17)
C73 C 0.53594(16) 0.1875(4) 0.1447(2)
H97 H 0.5577 0.1475 0.1778
C74 C 0.49970(17) 0.1327(4) 0.1056(2)
H98 H 0.4967 0.0561 0.1132
C75 C 0.58163(12) 0.3576(3) 0.17786(17)
H99 H 0.6021 0.3465 0.1582
H100 H 0.5761 0.4384 0.1777
C76 C 0.64283(11) 0.3551(3) 0.28217(17)
H101 H 0.6456 0.4344 0.2712
C77 C 0.64622(11) 0.3492(3) 0.35112(17)
H102 H 0.6454 0.2695 0.3632
C78 C 0.68685(11) 0.4009(4) 0.39845(18)
H103 H 0.6885 0.3974 0.4434
H104 H 0.6884 0.4798 0.3871
C79 C 0.72307(12) 0.3340(4) 0.3933(2)
H105 H 0.7501 0.3682 0.4219
H106 H 0.7226 0.2572 0.4087
C80 C 0.71987(13) 0.3304(4) 0.3233(2)
H107 H 0.7424 0.2821 0.3218
H108 H 0.7243 0.4062 0.3102
C81 C 0.67737(13) 0.2867(4) 0.27470(19)
H109 H 0.6755 0.2935 0.2297
H110 H 0.6742 0.2073 0.2834
C82 C 0.57632(13) 0.3545(4) 0.28302(19)
H111 H 0.5548 0.4101 0.2585
H112 H 0.5622 0.2900 0.2928
N11 N 0.59999(10) 0.3187(3) 0.24461(14)
N12 N 0.60675(9) 0.4028(3) 0.34312(14)
C83 C 0.59606(11) 0.3856(3) 0.39851(17)
H113 H 0.6198 0.4102 0.4386
H114 H 0.5918 0.3051 0.4029
C84 C 0.55673(11) 0.4480(3) 0.39225(16)
C85 C 0.53168(11) 0.4055(3) 0.42175(17)
H115 H 0.5391 0.3371 0.4448
C86 C 0.49608(12) 0.4618(3) 0.41796(18)
H116 H 0.4793 0.4312 0.4382
C87 C 0.48462(11) 0.5617(3) 0.38509(17)
C88 C 0.50955(12) 0.6041(3) 0.35529(18)
H117 H 0.5021 0.6725 0.3322
C89 C 0.54522(11) 0.5477(3) 0.35884(17)
H118 H 0.5618 0.5779 0.3382
C90 C 0.44722(12) 0.6268(3) 0.3841(2)
H119 H 0.4558 0.6710 0.4246
H120 H 0.4379 0.6793 0.3469
O1 O 0.4294(4) -0.2625(11) 0.2268(6)
C91 C 0.4487(2) -0.1780(6) 0.2184(3)
H121 H 0.4572 -0.1973 0.1827
H122 H 0.4749 -0.1693 0.2581
C92 C 0.4290(2) -0.0692(6) 0.2041(5)
H123 H 0.4121 -0.0653 0.1565
H124 H 0.4091 -0.0651 0.2252
C93 C 0.45434(18) 0.0270(6) 0.2222(4)
H125 H 0.4730 0.0244 0.1988
H126 H 0.4726 0.0197 0.2691
C94 C 0.4359(2) 0.1408(6) 0.2125(3)
H127 H 0.4204 0.1497 0.2390
H128 H 0.4167 0.1487 0.1677
C95 C 0.4725(5) 0.2416(11) 0.2310(7)
H129 H 0.4895 0.2504 0.2783
H130 H 0.4905 0.2362 0.2067
C96 C 0.4334(4) 0.3345(13) 0.1999(10)
H131 H 0.4197 0.3280 0.1519
H132 H 0.4121 0.3223 0.2178
C97 C 0.4527(4) 0.4433(11) 0.2188(7)
H133 H 0.4608 0.4523 0.2662
H134 H 0.4783 0.4489 0.2105
H135 H 0.4334 0.5010 0.1956
O2 O 0.6384(6) 0.6176(16) 0.3257(9)
H136? H 0.4305 -0.2329 0.2238
H137? H 0.4182 0.1440 0.1668
H138? H 0.4173 0.1396 0.2343
C98? C 0.4525(5) 0.2336(14) 0.2269(11)
H139? H 0.4664 0.2315 0.1964
H140? H 0.4750 0.2109 0.2689
C99? C 0.4576(4) 0.3598(10) 0.2399(5)
H141? H 0.4507 0.3797 0.2771
H142? H 0.4868 0.3829 0.2500
C100? C 0.4299(5) 0.4113(13) 0.1831(5)
H143? H 0.4387 0.3946 0.1474
H144? H 0.4018 0.3782 0.1712
O3? O 0.4255(3) 0.5253(7) 0.1861(4)
H145? H 0.4292 0.4902 0.1894
loop_
_geom_bond_atom_site_label_1
_geom_bond_atom_site_label_2
_geom_bond_site_symmetry_1
_geom_bond_site_symmetry_2
C1 H1 1_555 1_555
C2 C1 1_555 1_555
H2 C2 1_555 1_555
C3 C2 1_555 1_555
H3 C3 1_555 1_555
H4 C3 1_555 1_555
C4 C3 1_555 1_555
H5 C4 1_555 1_555
H6 C4 1_555 1_555
C5 C4 1_555 1_555
H7 C5 1_555 1_555
H8 C5 1_555 1_555
C6 C1 1_555 1_555
H9 C6 1_555 1_555
H10 C6 1_555 1_555
C7 H11 1_555 1_555
H12 C7 1_555 1_555
N1 C1 1_555 1_555
N2 C2 1_555 1_555
C8 N2 1_555 1_555
H13 C8 1_555 1_555
H14 C8 1_555 1_555
C9 C8 1_555 1_555
C10 C9 1_555 1_555
H15 C10 1_555 1_555
C11 C10 1_555 1_555
H16 C11 1_555 1_555
C12 C11 1_555 1_555
C13 C12 1_555 1_555
H17 C13 1_555 1_555
C14 C9 1_555 1_555
H18 C14 1_555 1_555
C15 C12 1_555 1_555
H19 C15 1_555 1_555
H20 C15 1_555 1_555
C16 H21 1_555 1_555
C17 C16 1_555 1_555
H22 C17 1_555 1_555
C18 C17 1_555 1_555
H23 C18 1_555 1_555
H24 C18 1_555 1_555
C19 C18 1_555 1_555
H25 C19 1_555 1_555
H26 C19 1_555 1_555
C20 C19 1_555 1_555
H27 C20 1_555 1_555
H28 C20 1_555 1_555
C21 C16 1_555 1_555
H29 C21 1_555 1_555
H30 C21 1_555 1_555
C22 H31 1_555 1_555
H32 C22 1_555 1_555
N3 C15 1_555 1_555
N4 C17 1_555 1_555
C23 N4 1_555 1_555
H33 C23 1_555 1_555
H34 C23 1_555 1_555
C24 C23 1_555 1_555
C25 C24 1_555 1_555
H35 C25 1_555 1_555
C26 C25 1_555 1_555
H36 C26 1_555 1_555
C27 C26 1_555 1_555
C28 C27 1_555 1_555
H37 C28 1_555 1_555
C29 C24 1_555 1_555
H38 C29 1_555 1_555
C30 C27 1_555 1_555
H39 C30 1_555 1_555
H40 C30 1_555 1_555
C31 H41 1_555 1_555
C32 C31 1_555 1_555
H42 C32 1_555 1_555
C33 C32 1_555 1_555
H43 C33 1_555 1_555
H44 C33 1_555 1_555
C34 C33 1_555 1_555
H45 C34 1_555 1_555
H46 C34 1_555 1_555
C35 C34 1_555 1_555
H47 C35 1_555 1_555
H48 C35 1_555 1_555
C36 C31 1_555 1_555
H49 C36 1_555 1_555
H50 C36 1_555 1_555
C37 H51 1_555 1_555
H52 C37 1_555 1_555
N5 C30 1_555 1_555
N6 C32 1_555 1_555
C38 N6 1_555 1_555
H53 C38 1_555 1_555
H54 C38 1_555 1_555
C39 C38 1_555 1_555
C40 C39 1_555 1_555
H55 C40 1_555 1_555
C41 C40 1_555 1_555
H56 C41 1_555 1_555
C42 C41 1_555 1_555
C43 C42 1_555 1_555
H57 C43 1_555 1_555
C44 C39 1_555 1_555
H58 C44 1_555 1_555
C45 N1 1_555 1_555
H59 C45 1_555 1_555
H60 C45 1_555 1_555
C46 H61 1_555 1_555
C47 C46 1_555 1_555
H62 C47 1_555 1_555
C48 C47 1_555 1_555
H63 C48 1_555 1_555
H64 C48 1_555 1_555
C49 C48 1_555 1_555
H65 C49 1_555 1_555
H66 C49 1_555 1_555
C50 C49 1_555 1_555
H67 C50 1_555 1_555
H68 C50 1_555 1_555
C51 C46 1_555 1_555
H69 C51 1_555 1_555
H70 C51 1_555 1_555
C52 H71 1_555 1_555
H72 C52 1_555 1_555
N7 C46 1_555 1_555
N8 C47 1_555 1_555
C53 N8 1_555 1_555
H73 C53 1_555 1_555
H74 C53 1_555 1_555
C54 C53 1_555 1_555
C55 C54 1_555 1_555
H75 C55 1_555 1_555
C56 C55 1_555 1_555
H76 C56 1_555 1_555
C57 C56 1_555 1_555
C58 C57 1_555 1_555
H77 C58 1_555 1_555
C59 C54 1_555 1_555
H78 C59 1_555 1_555
C60 C57 1_555 1_555
H79 C60 1_555 1_555
H80 C60 1_555 1_555
C61 H81 1_555 1_555
C62 C61 1_555 1_555
H82 C62 1_555 1_555
C63 C62 1_555 1_555
H83 C63 1_555 1_555
H84 C63 1_555 1_555
C64 C63 1_555 1_555
H85 C64 1_555 1_555
H86 C64 1_555 1_555
C65 C64 1_555 1_555
H87 C65 1_555 1_555
H88 C65 1_555 1_555
C66 C61 1_555 1_555
H89 C66 1_555 1_555
H90 C66 1_555 1_555
C67 H91 1_555 1_555
H92 C67 1_555 1_555
N9 C60 1_555 1_555
N10 C62 1_555 1_555
C68 N10 1_555 1_555
H93 C68 1_555 1_555
H94 C68 1_555 1_555
C69 C68 1_555 1_555
C70 C69 1_555 1_555
H95 C70 1_555 1_555
C71 C70 1_555 1_555
H96 C71 1_555 1_555
C72 C71 1_555 1_555
C73 C72 1_555 1_555
H97 C73 1_555 1_555
C74 C69 1_555 1_555
H98 C74 1_555 1_555
C75 C72 1_555 1_555
H99 C75 1_555 1_555
H100 C75 1_555 1_555
C76 H101 1_555 1_555
C77 C76 1_555 1_555
H102 C77 1_555 1_555
C78 C77 1_555 1_555
H103 C78 1_555 1_555
H104 C78 1_555 1_555
C79 C78 1_555 1_555
H105 C79 1_555 1_555
H106 C79 1_555 1_555
C80 C79 1_555 1_555
H107 C80 1_555 1_555
H108 C80 1_555 1_555
C81 C76 1_555 1_555
H109 C81 1_555 1_555
H110 C81 1_555 1_555
C82 H111 1_555 1_555
H112 C82 1_555 1_555
N11 C75 1_555 1_555
N12 C77 1_555 1_555
C83 N12 1_555 1_555
H113 C83 1_555 1_555
H114 C83 1_555 1_555
C84 C83 1_555 1_555
C85 C84 1_555 1_555
H115 C85 1_555 1_555
C86 C85 1_555 1_555
H116 C86 1_555 1_555
C87 C86 1_555 1_555
C88 C87 1_555 1_555
H117 C88 1_555 1_555
C89 C84 1_555 1_555
H118 C89 1_555 1_555
C90 N7 1_555 1_555
H119 C90 1_555 1_555
H120 C90 1_555 1_555
O1 C91 1_555 1_555
C91 H121 1_555 1_555
H122 C91 1_555 1_555
C92 C91 1_555 1_555
H123 C92 1_555 1_555
H124 C92 1_555 1_555
C93 C92 1_555 1_555
H125 C93 1_555 1_555
H126 C93 1_555 1_555
C94 C93 1_555 1_555
H127 C94 1_555 1_555
H128 C94 1_555 1_555
C95 C94 1_555 1_555
H129 C95 1_555 1_555
H130 C95 1_555 1_555
C96 C95 1_555 1_555
H131 C96 1_555 1_555
H132 C96 1_555 1_555
C97 C96 1_555 1_555
H133 C97 1_555 1_555
H134 C97 1_555 1_555
H135 C97 1_555 1_555
C5 C6 1_555 1_555
C7 N1 1_555 1_555
C7 N2 1_555 1_555
C13 C14 1_555 1_555
C16 N3 1_555 1_555
C20 C21 1_555 1_555
C22 N3 1_555 1_555
C22 N4 1_555 1_555
C28 C29 1_555 1_555
C31 N5 1_555 1_555
C35 C36 1_555 1_555
C37 N5 1_555 1_555
C37 N6 1_555 1_555
C42 C45 1_555 1_555
C43 C44 1_555 1_555
C50 C51 1_555 1_555
C52 N7 1_555 1_555
C52 N8 1_555 1_555
C58 C59 1_555 1_555
C61 N9 1_555 1_555
C65 C66 1_555 1_555
C67 N9 1_555 1_555
C67 N10 1_555 1_555
C73 C74 1_555 1_555
C76 N11 1_555 1_555
C80 C81 1_555 1_555
C82 N11 1_555 1_555
C82 N12 1_555 1_555
C87 C90 1_555 1_555
C88 C89 1_555 1_555

#END
