
#######################################################################
#
#                 Cambridge Crystallographic Data Centre
#                                CCDC 
#
#######################################################################
#
# If this CIF has been generated from an entry in the Cambridge 
# Structural Database, then it will include bibliographic, chemical, 
# crystal, experimental, refinement or atomic coordinate data resulting 
# from the CCDC's data processing and validation procedures.
#
#######################################################################

data_EKIVEZ
_chemical_formula_moiety         'C21 H23 N1 O4 S1'
_chemical_name_systematic        
Spiro(2-oxo-3-p-toluenesulfonyl-4-vinylideneoxazolidine)-5,2'-(adamantane)
_symmetry_cell_setting           triclinic
_symmetry_space_group_name_H-M   'P -1'
_symmetry_Int_Tables_number      2
_space_group_name_Hall           '-P 1'
loop_
_symmetry_equiv_pos_site_id
_symmetry_equiv_pos_as_xyz
1 x,y,z
2 -x,-y,-z
_cell_length_a                   10.760(2)
_cell_length_b                   11.748(1)
_cell_length_c                   7.8241(9)
_cell_angle_alpha                103.578(9)
_cell_angle_beta                 96.29(1)
_cell_angle_gamma                79.613(10)
_cell_volume                     943.295
_exptl_crystal_colour            colorless
_exptl_crystal_description       prismatic
_chemical_melting_point          110.5-110.9deg.C
_cell_formula_units_Z            2
loop_
_atom_site_label
_atom_site_type_symbol
_atom_site_fract_x
_atom_site_fract_y
_atom_site_fract_z
S1 S 1.18124(6) 0.06640(5) -0.05259(7)
O1 O 1.0388(1) 0.3769(1) 0.1889(2)
O2 O 1.2427(1) 0.2923(1) 0.2030(2)
O3 O 1.0975(2) -0.0079(1) -0.1576(2)
O4 O 1.2561(2) 0.0329(1) 0.0954(2)
N1 N 1.0884(2) 0.1957(1) 0.0252(2)
C1 C 1.1353(2) 0.2886(2) 0.1469(3)
C2 C 0.9620(2) 0.2361(2) -0.0383(3)
C3 C 0.9068(2) 0.1922(2) -0.1895(3)
C4 C 0.8499(3) 0.1415(3) -0.3340(4)
C5 C 0.9162(2) 0.3426(2) 0.1056(3)
C6 C 0.8489(2) 0.3097(2) 0.2457(3)
C7 C 0.7183(2) 0.2821(2) 0.1657(4)
C8 C 0.6394(2) 0.3917(2) 0.1111(4)
C9 C 0.7066(2) 0.4235(2) -0.0285(4)
C10 C 0.8386(2) 0.4504(2) 0.0464(3)
C11 C 0.8330(3) 0.4156(2) 0.4046(3)
C12 C 0.7551(3) 0.5239(2) 0.3465(3)
C13 C 0.6244(3) 0.4959(3) 0.2706(4)
C14 C 0.8234(3) 0.5551(2) 0.2066(4)
C15 C 1.2798(2) 0.1027(2) -0.1884(3)
C16 C 1.2327(2) 0.1123(2) -0.3577(3)
C17 C 1.3091(2) 0.1409(2) -0.4662(3)
C18 C 1.4317(2) 0.1597(2) -0.4096(3)
C19 C 1.4765(2) 0.1495(2) -0.2395(3)
C20 C 1.4017(2) 0.1213(2) -0.1286(3)
C21 C 1.5131(3) 0.1911(3) -0.5307(5)
H1 H 0.856(2) 0.165(2) -0.444(3)
H2 H 0.803(2) 0.080(2) -0.335(3)
H3 H 0.900(2) 0.241(2) 0.277(2)
H4 H 0.678(2) 0.260(2) 0.259(3)
H5 H 0.728(2) 0.215(2) 0.067(3)
H6 H 0.559(2) 0.372(2) 0.065(3)
H7 H 0.660(2) 0.495(2) -0.063(3)
H8 H 0.714(2) 0.357(2) -0.138(3)
H9 H 0.883(2) 0.467(2) -0.041(3)
H10 H 0.919(2) 0.431(2) 0.457(3)
H11 H 0.791(2) 0.392(2) 0.490(3)
H12 H 0.748(2) 0.591(2) 0.450(3)
H13 H 0.578(2) 0.476(2) 0.361(3)
H14 H 0.572(2) 0.567(2) 0.234(3)
H15 H 0.773(2) 0.626(2) 0.168(3)
H16 H 0.907(2) 0.577(2) 0.249(3)
H17 H 1.147(2) 0.099(2) -0.393(3)
H18 H 1.279(2) 0.147(2) -0.581(3)
H19 H 1.563(2) 0.160(2) -0.202(3)
H20 H 1.431(2) 0.113(2) -0.011(3)
H21 H 1.574(3) 0.240(3) -0.470(4)
H22 H 1.560(3) 0.130(3) -0.587(5)
H23 H 1.469(3) 0.231(3) -0.609(5)
loop_
_geom_bond_atom_site_label_1
_geom_bond_atom_site_label_2
_geom_bond_site_symmetry_1
_geom_bond_site_symmetry_2
S1 O3 1_555 1_555
O1 C1 1_555 1_555
O2 C1 1_555 1_555
O4 S1 1_555 1_555
N1 S1 1_555 1_555
C1 N1 1_555 1_555
C2 N1 1_555 1_555
C3 C2 1_555 1_555
C4 C3 1_555 1_555
C5 O1 1_555 1_555
C6 C5 1_555 1_555
C7 C6 1_555 1_555
C8 C7 1_555 1_555
C9 C8 1_555 1_555
C10 C5 1_555 1_555
C11 C6 1_555 1_555
C12 C11 1_555 1_555
C13 C8 1_555 1_555
C14 C10 1_555 1_555
C15 S1 1_555 1_555
C16 C15 1_555 1_555
C17 C16 1_555 1_555
C18 C17 1_555 1_555
C19 C18 1_555 1_555
C20 C15 1_555 1_555
C21 C18 1_555 1_555
H1 C4 1_555 1_555
H2 C4 1_555 1_555
H3 C6 1_555 1_555
H4 C7 1_555 1_555
H5 C7 1_555 1_555
H6 C8 1_555 1_555
H7 C9 1_555 1_555
H8 C9 1_555 1_555
H9 C10 1_555 1_555
H10 C11 1_555 1_555
H11 C11 1_555 1_555
H12 C12 1_555 1_555
H13 C13 1_555 1_555
H14 C13 1_555 1_555
H15 C14 1_555 1_555
H16 C14 1_555 1_555
H17 C16 1_555 1_555
H18 C17 1_555 1_555
H19 C19 1_555 1_555
H20 C20 1_555 1_555
H21 C21 1_555 1_555
H22 C21 1_555 1_555
H23 C21 1_555 1_555
C2 C5 1_555 1_555
C9 C10 1_555 1_555
C12 C14 1_555 1_555
C12 C13 1_555 1_555
C19 C20 1_555 1_555

#END
