
#######################################################################
#
#                 Cambridge Crystallographic Data Centre
#                                CCDC 
#
#######################################################################
#
# If this CIF has been generated from an entry in the Cambridge 
# Structural Database, then it will include bibliographic, chemical, 
# crystal, experimental, refinement or atomic coordinate data resulting 
# from the CCDC's data processing and validation procedures.
#
#######################################################################

data_EKIWEC
_chemical_formula_moiety         'C29 H23 N2 O1 1+,0.5(C12 H4 N4 2-),C7 H7 Cl1'
_chemical_name_systematic        
'1-Acetyl-5-(9-anthryl)-3-(2-naphthyl)-4,5-dihydro-1H-pyrazol-2-ium hemikis(tetracyanoquinodimethanide) 4-chlorotoluene'
_symmetry_cell_setting           triclinic
_symmetry_space_group_name_H-M   'P -1'
_symmetry_Int_Tables_number      2
_space_group_name_Hall           '-P 1'
loop_
_symmetry_equiv_pos_site_id
_symmetry_equiv_pos_as_xyz
1 x,y,z
2 -x,-y,-z
_cell_length_a                   9.899(2)
_cell_length_b                   10.339(2)
_cell_length_c                   16.807(3)
_cell_angle_alpha                100.87(3)
_cell_angle_beta                 99.00(3)
_cell_angle_gamma                98.93(3)
_cell_volume                     1637.93
_exptl_crystal_colour            black
_exptl_crystal_description       block
_cell_formula_units_Z            2
loop_
_atom_site_label
_atom_site_type_symbol
_atom_site_fract_x
_atom_site_fract_y
_atom_site_fract_z
C30 C 0.8590(9) 0.5046(6) 0.9861(5)
C31 C 0.9441(10) 0.5735(7) 1.0583(5)
H24 H 0.9073 0.6243 1.0983
C32 C 0.9144(10) 0.4313(7) 0.9269(4)
H25 H 0.8577 0.3848 0.8771
Cl1 Cl 0.6689(9) 0.5119(7) 0.9664(7)
C30A C 1.1410(9) 0.4954(6) 1.0139(5)
C31A C 1.0559(10) 0.4265(7) 0.9417(5)
H24A H 1.0927 0.3757 0.9017
C32A C 1.0856(10) 0.5687(7) 1.0731(4)
H25A H 1.1423 0.6152 1.1229
Cl1A Cl 1.3311(9) 0.4881(7) 1.0336(7)
C33 C 0.8676(5) 0.4340(6) 0.5006(3)
C34 C 0.9344(6) 0.5392(6) 0.5637(4)
H26 H 0.8899 0.5667 0.6070
C35 C 1.0672(6) 0.6053(5) 0.5640(4)
H27 H 1.1123 0.6760 0.6076
C36 C 0.7277(16) 0.3514(17) 0.4957(13)
H28 H 0.6570 0.3915 0.4692
H29 H 0.7131 0.3470 0.5503
H30 H 0.7229 0.2624 0.4643
C33A C 1.1324(5) 0.5660(6) 0.4994(3)
C34A C 1.0656(6) 0.4608(6) 0.4363(4)
H26A H 1.1101 0.4333 0.3930
C35A C 0.9328(6) 0.3947(5) 0.4360(4)
H27A H 0.8877 0.3240 0.3924
C36A C 1.2723(16) 0.6486(17) 0.5043(13)
H28A H 1.3430 0.6085 0.5308
H29A H 1.2869 0.6530 0.4497
H30A H 1.2771 0.7376 0.5357
C37 C 0.6895(5) 0.7940(7) 0.5443(4)
C38 C 0.7235(5) 0.8845(6) 0.4958(3)
C39 C 0.6101(6) 0.9198(6) 0.4428(4)
C40 C 0.8605(5) 0.9442(5) 0.4981(3)
C41 C 0.8942(5) 1.0295(5) 0.4443(3)
H31 H 0.8234 1.0468 0.4067
C42 C 1.0281(5) 1.0861(5) 0.4469(4)
H32 H 1.0481 1.1449 0.4129
N3 N 0.6645(6) 0.7183(7) 0.5832(4)
N4 N 0.5220(5) 0.9491(7) 0.4016(4)
C37A C 1.3105(5) 1.2060(7) 0.4557(4)
C38A C 1.2765(5) 1.1155(6) 0.5042(3)
C39A C 1.3899(6) 1.0802(6) 0.5572(4)
C40A C 1.1395(5) 1.0558(5) 0.5019(3)
C41A C 1.1058(5) 0.9705(5) 0.5557(3)
H31A H 1.1766 0.9532 0.5933
C42A C 0.9719(5) 0.9139(5) 0.5531(4)
H32A H 0.9519 0.8551 0.5871
N3A N 1.3355(6) 1.2817(7) 0.4168(4)
N4A N 1.4780(5) 1.0509(7) 0.5984(4)
C1 C 0.3183(4) 0.0846(5) 0.8447(3)
H1 H 0.2422 0.0209 0.8550
C2 C 0.4017(5) 0.1662(5) 0.9290(3)
H2 H 0.4153 0.2617 0.9308
H3 H 0.3555 0.1474 0.9735
C3 C 0.5391(5) 0.1173(5) 0.9341(3)
C4 C 0.3838(5) -0.1021(5) 0.7506(3)
C5 C 0.4917(6) -0.1820(6) 0.7308(4)
H4 H 0.4484 -0.2633 0.6912
H5 H 0.5366 -0.2035 0.7803
H6 H 0.5596 -0.1307 0.7083
C6 C 0.2552(4) 0.1623(5) 0.7866(3)
C7 C 0.1069(4) 0.1465(5) 0.7645(3)
C8 C 0.0115(5) 0.0552(6) 0.7924(4)
H7 H 0.0456 0.0013 0.8262
C9 C -0.1287(5) 0.0454(7) 0.7703(4)
H8 H -0.1879 -0.0139 0.7906
C10 C -0.1856(6) 0.1201(7) 0.7194(4)
H9 H -0.2819 0.1100 0.7050
C11 C -0.1020(5) 0.2081(6) 0.6901(4)
H10 H -0.1410 0.2588 0.6556
C12 C 0.0468(5) 0.2241(5) 0.7117(3)
C13 C 0.1298(5) 0.3109(6) 0.6792(4)
H11 H 0.0891 0.3583 0.6433
C14 C 0.2773(6) 0.3296(5) 0.6998(3)
C15 C 0.3605(6) 0.4199(6) 0.6645(4)
H12 H 0.3185 0.4661 0.6282
C16 C 0.5021(6) 0.4385(6) 0.6841(4)
H13 H 0.5569 0.4979 0.6615
C17 C 0.5659(6) 0.3677(6) 0.7389(4)
H14 H 0.6626 0.3813 0.7522
C18 C 0.4893(5) 0.2816(5) 0.7719(3)
H15 H 0.5340 0.2364 0.8078
C19 C 0.3383(5) 0.2566(5) 0.7532(3)
C20 C 0.6580(5) 0.1696(5) 1.0032(3)
C21 C 0.6408(5) 0.2520(5) 1.0756(3)
H16 H 0.5534 0.2720 1.0796
C22 C 0.7484(6) 0.3035(6) 1.1402(4)
H17 H 0.7333 0.3564 1.1880
C23 C 0.8847(6) 0.2771(6) 1.1354(4)
C24 C 0.9999(7) 0.3298(7) 1.2005(4)
H18 H 0.9886 0.3844 1.2488
C25 C 1.1296(7) 0.3007(8) 1.1928(5)
H19 H 1.2043 0.3326 1.2369
C26 C 1.1483(6) 0.2258(7) 1.1213(5)
H20 H 1.2366 0.2087 1.1171
C27 C 1.0406(6) 0.1746(6) 1.0550(4)
H21 H 1.0568 0.1254 1.0063
C28 C 0.9037(5) 0.1971(5) 1.0614(3)
C29 C 0.7897(5) 0.1444(5) 0.9971(3)
H22 H 0.8025 0.0909 0.9488
N1 N 0.4201(4) 0.0065(4) 0.8130(2)
N2 N 0.5434(4) 0.0291(4) 0.8711(3)
H23 H 0.6123 -0.0109 0.8651
O1 O 0.2640(3) -0.1276(4) 0.7088(2)
H33? H 0.6865 0.5020 0.9121
H34? H 0.7018 0.5923 1.0003
H35? H 0.6653 0.4357 0.9869
C43? C 0.717(3) 0.509(3) 0.970(3)
Cl2? Cl 0.7037(6) 0.3546(8) 0.5031(5)
loop_
_geom_bond_atom_site_label_1
_geom_bond_atom_site_label_2
_geom_bond_site_symmetry_1
_geom_bond_site_symmetry_2
C1 H1 1_555 1_555
C2 C1 1_555 1_555
H2 C2 1_555 1_555
H3 C2 1_555 1_555
C3 C2 1_555 1_555
C4 C5 1_555 1_555
C5 H4 1_555 1_555
H5 C5 1_555 1_555
H6 C5 1_555 1_555
C6 C1 1_555 1_555
C7 C6 1_555 1_555
C8 C7 1_555 1_555
H7 C8 1_555 1_555
C9 C8 1_555 1_555
H8 C9 1_555 1_555
C10 C9 1_555 1_555
H9 C10 1_555 1_555
C11 C10 1_555 1_555
H10 C11 1_555 1_555
C12 C7 1_555 1_555
C13 C12 1_555 1_555
H11 C13 1_555 1_555
C14 C13 1_555 1_555
C15 C14 1_555 1_555
H12 C15 1_555 1_555
C16 C15 1_555 1_555
H13 C16 1_555 1_555
C17 C16 1_555 1_555
H14 C17 1_555 1_555
C18 C17 1_555 1_555
H15 C18 1_555 1_555
C19 C6 1_555 1_555
C20 C3 1_555 1_555
C21 C20 1_555 1_555
H16 C21 1_555 1_555
C22 C21 1_555 1_555
H17 C22 1_555 1_555
C23 C22 1_555 1_555
C24 C23 1_555 1_555
H18 C24 1_555 1_555
C25 C24 1_555 1_555
H19 C25 1_555 1_555
C26 C25 1_555 1_555
H20 C26 1_555 1_555
C27 C26 1_555 1_555
H21 C27 1_555 1_555
C28 C23 1_555 1_555
C29 C20 1_555 1_555
H22 C29 1_555 1_555
N1 C1 1_555 1_555
N2 C3 1_555 1_555
H23 N2 1_555 1_555
O1 C4 1_555 1_555
C30 C31 1_555 1_555
C31 H24 1_555 1_555
C32 C30 1_555 1_555
H25 C32 1_555 1_555
Cl1 C30 1_555 1_555
C33 C34 1_555 1_555
C34 H26 1_555 1_555
C35 C34 1_555 1_555
H27 C35 1_555 1_555
C36 C33 1_555 1_555
H28 C36 1_555 1_555
H29 C36 1_555 1_555
H30 C36 1_555 1_555
C37 C38 1_555 1_555
C38 C39 1_555 1_555
C39 N4 1_555 1_555
C40 C38 1_555 1_555
C41 C40 1_555 1_555
H31 C41 1_555 1_555
C42 C41 1_555 1_555
H32 C42 1_555 1_555
N3 C37 1_555 1_555
C30A C31A 1_555 1_555
C31A C32 1_555 1_555
H24A C31A 1_555 1_555
C32A C31 1_555 1_555
H25A C32A 1_555 1_555
Cl1A C30A 1_555 1_555
C33A C35 1_555 1_555
C34A C33A 1_555 1_555
H26A C34A 1_555 1_555
C35A C33 1_555 1_555
H27A C35A 1_555 1_555
C36A C33A 1_555 1_555
H28A C36A 1_555 1_555
H29A C36A 1_555 1_555
H30A C36A 1_555 1_555
C37A C38A 1_555 1_555
C38A C39A 1_555 1_555
C39A N4A 1_555 1_555
C40A C42 1_555 1_555
C41A C40A 1_555 1_555
H31A C41A 1_555 1_555
C42A C40 1_555 1_555
H32A C42A 1_555 1_555
N3A C37A 1_555 1_555
C4 N1 1_555 1_555
C11 C12 1_555 1_555
C14 C19 1_555 1_555
C18 C19 1_555 1_555
C27 C28 1_555 1_555
C28 C29 1_555 1_555
N1 N2 1_555 1_555
C30A C32A 1_555 1_555
C34A C35A 1_555 1_555
C38A C40A 1_555 1_555
C41A C42A 1_555 1_555

#END
