
#######################################################################
#
#                 Cambridge Crystallographic Data Centre
#                                CCDC 
#
#######################################################################
#
# If this CIF has been generated from an entry in the Cambridge 
# Structural Database, then it will include bibliographic, chemical, 
# crystal, experimental, refinement or atomic coordinate data resulting 
# from the CCDC's data processing and validation procedures.
#
#######################################################################

data_EKODIT
_chemical_name_common            
1-diazo-3-((4-methylphenyl)sulfonyl)-2-phenyl-1H-indene
_chemical_formula_moiety         'C22 H16 N2 O2 S1'
_chemical_name_systematic        
(3-((4-methylphenyl)sulfonyl)-2-phenyl-1H-inden-1-ylidene)-1-diazene
_symmetry_cell_setting           monoclinic
_symmetry_space_group_name_H-M   'P 21/c'
_symmetry_Int_Tables_number      14
_space_group_name_Hall           '-P 2ybc'
loop_
_symmetry_equiv_pos_site_id
_symmetry_equiv_pos_as_xyz
1 x,y,z
2 -x,1/2+y,1/2-z
3 -x,-y,-z
4 x,1/2-y,1/2+z
_cell_length_a                   11.8546(9)
_cell_length_b                   8.9058(7)
_cell_length_c                   17.5841(16)
_cell_angle_alpha                90
_cell_angle_beta                 92.2010(10)
_cell_angle_gamma                90
_cell_volume                     1855.07
_exptl_crystal_colour            orange
_exptl_crystal_description       block
_cell_formula_units_Z            4
loop_
_atom_site_label
_atom_site_type_symbol
_atom_site_fract_x
_atom_site_fract_y
_atom_site_fract_z
N1 N 0.5300(2) 0.4677(3) 0.61112(14)
N2 N 0.6037(2) 0.3956(3) 0.62886(16)
O1 O 0.18892(18) 0.9411(2) 0.50844(12)
O2 O 0.33285(17) 1.0274(2) 0.60449(13)
S1 S 0.25486(7) 0.91448(9) 0.57726(5)
C1 C 0.3265(2) 0.7451(3) 0.56835(16)
C2 C 0.4293(2) 0.7063(3) 0.60266(15)
C3 C 0.4403(2) 0.5483(3) 0.58977(16)
C4 C 0.3440(2) 0.4894(3) 0.54756(16)
C5 C 0.2718(2) 0.6137(3) 0.53437(15)
C6 C 0.1703(2) 0.5910(4) 0.49354(16)
H1 H 0.1209 0.6706 0.4841
C7 C 0.1441(3) 0.4495(4) 0.46731(18)
H2 H 0.0762 0.4342 0.4402
C8 C 0.2161(3) 0.3292(4) 0.48012(19)
H3 H 0.1962 0.2349 0.4613
C9 C 0.3168(3) 0.3477(3) 0.52050(17)
H4 H 0.3654 0.2670 0.5294
C10 C 0.5153(2) 0.7938(3) 0.64631(17)
C11 C 0.5673(2) 0.9188(4) 0.61611(18)
H5 H 0.5456 0.9518 0.5676
C12 C 0.6506(3) 0.9943(4) 0.6570(2)
H6 H 0.6846 1.0781 0.6361
C13 C 0.6836(3) 0.9462(4) 0.7286(2)
H7 H 0.7389 0.9987 0.7565
C14 C 0.6350(3) 0.8207(4) 0.75930(19)
H8 H 0.6583 0.7869 0.8074
C15 C 0.5515(2) 0.7453(4) 0.71807(18)
H9 H 0.5188 0.6605 0.7388
C16 C 0.1620(2) 0.8755(3) 0.64987(17)
C17 C 0.0485(3) 0.8555(4) 0.6349(2)
H10 H 0.0186 0.8638 0.5854
C18 C -0.0204(3) 0.8232(4) 0.6936(2)
H11 H -0.0971 0.8089 0.6828
C19 C 0.0194(3) 0.8111(4) 0.7677(2)
C20 C 0.1338(3) 0.8323(4) 0.7810(2)
H12 H 0.1639 0.8247 0.8305
C21 C 0.2039(3) 0.8643(4) 0.7231(2)
H13 H 0.2806 0.8785 0.7337
C22 C -0.0571(3) 0.7771(5) 0.8321(2)
H14 H -0.0845 0.8693 0.8528
H15 H -0.0158 0.7225 0.8711
H16 H -0.1198 0.7177 0.8134
loop_
_geom_bond_atom_site_label_1
_geom_bond_atom_site_label_2
_geom_bond_site_symmetry_1
_geom_bond_site_symmetry_2
N1 N2 1_555 1_555
O1 S1 1_555 1_555
O2 S1 1_555 1_555
S1 C1 1_555 1_555
C1 C2 1_555 1_555
C2 C3 1_555 1_555
C3 N1 1_555 1_555
C4 C3 1_555 1_555
C5 C1 1_555 1_555
C6 C5 1_555 1_555
H1 C6 1_555 1_555
C7 C6 1_555 1_555
H2 C7 1_555 1_555
C8 C7 1_555 1_555
H3 C8 1_555 1_555
C9 C4 1_555 1_555
H4 C9 1_555 1_555
C10 C2 1_555 1_555
C11 C10 1_555 1_555
H5 C11 1_555 1_555
C12 C11 1_555 1_555
H6 C12 1_555 1_555
C13 C12 1_555 1_555
H7 C13 1_555 1_555
C14 C13 1_555 1_555
H8 C14 1_555 1_555
C15 C10 1_555 1_555
H9 C15 1_555 1_555
C16 S1 1_555 1_555
C17 C16 1_555 1_555
H10 C17 1_555 1_555
C18 C17 1_555 1_555
H11 C18 1_555 1_555
C19 C18 1_555 1_555
C20 C19 1_555 1_555
H12 C20 1_555 1_555
C21 C16 1_555 1_555
H13 C21 1_555 1_555
C22 C19 1_555 1_555
H14 C22 1_555 1_555
H15 C22 1_555 1_555
H16 C22 1_555 1_555
C4 C5 1_555 1_555
C8 C9 1_555 1_555
C14 C15 1_555 1_555
C20 C21 1_555 1_555

#END
