
#######################################################################
#
#                 Cambridge Crystallographic Data Centre
#                                CCDC 
#
#######################################################################
#
# If this CIF has been generated from an entry in the Cambridge 
# Structural Database, then it will include bibliographic, chemical, 
# crystal, experimental, refinement or atomic coordinate data resulting 
# from the CCDC's data processing and validation procedures.
#
#######################################################################

data_EKOKIY
_chemical_formula_moiety         'C21 H30 O2'
_chemical_name_systematic        'Sugiyl methyl ether'
_symmetry_cell_setting           monoclinic
_symmetry_space_group_name_H-M   'P c'
_symmetry_Int_Tables_number      7
_space_group_name_Hall           'P -2yc'
loop_
_symmetry_equiv_pos_site_id
_symmetry_equiv_pos_as_xyz
1 x,y,z
2 x,-y,1/2+z
_cell_length_a                   11.991(2)
_cell_length_b                   10.873(2)
_cell_length_c                   14.778(3)
_cell_angle_alpha                90
_cell_angle_beta                 109.55(3)
_cell_angle_gamma                90
_cell_volume                     1815.65
_exptl_crystal_colour            colorless
_exptl_crystal_description       block
_chemical_melting_point          '130-132 deg.C'
_cell_formula_units_Z            4
loop_
_atom_site_label
_atom_site_type_symbol
_atom_site_fract_x
_atom_site_fract_y
_atom_site_fract_z
O1 O -0.0450(6) 0.1239(8) -0.3295(5)
O2 O -0.3115(6) 0.1147(8) -0.0306(5)
C1 C 0.3510(9) -0.0581(15) -0.0646(8)
H1 H 0.3214 -0.1245 -0.0363
H2 H 0.3275 -0.0700 -0.1328
H3 H 0.4358 -0.0559 -0.0378
C2 C 0.3643(9) 0.1563(15) -0.0923(8)
H4 H 0.3397 0.2386 -0.0849
H5 H 0.4488 0.1505 -0.0644
H6 H 0.3406 0.1364 -0.1594
C3 C 0.3018(8) 0.0693(8) -0.0494(6)
C4 C 0.3393(8) 0.0920(10) 0.0593(6)
H7 H 0.3260 0.1775 0.0685
H8 H 0.4225 0.0768 0.0888
C5 C 0.2653(10) 0.0159(13) 0.1083(6)
H9 H 0.2926 0.0352 0.1755
H10 H 0.2770 -0.0704 0.1008
C6 C 0.1370(9) 0.0413(15) 0.0628(7)
H11 H 0.1279 0.1280 0.0705
H12 H 0.0921 -0.0010 0.0961
C7 C 0.0865(8) 0.0169(9) -0.0410(7)
C8 C 0.0796(10) -0.1244(11) -0.0629(10)
H13 H 0.0294 -0.1603 -0.0313
H14 H 0.0477 -0.1410 -0.1305
H15 H 0.1575 -0.1591 -0.0372
C9 C 0.1690(8) 0.0797(8) -0.0896(5)
H16 H 0.1567 0.1658 -0.0821
C10 C 0.1173(7) 0.0588(9) -0.1996(6)
H17 H 0.1212 -0.0275 -0.2119
H18 H 0.1658 0.1009 -0.2299
C11 C -0.0069(7) 0.1024(9) -0.2459(6)
C12 C -0.1956(7) 0.1533(8) -0.2236(7)
H19 H -0.2212 0.1830 -0.2885
C13 C -0.0804(7) 0.1057(8) -0.1809(6)
C14 C -0.0358(7) 0.0657(8) -0.0876(6)
C15 C -0.1172(8) 0.0659(8) -0.0385(5)
H20 H -0.0919 0.0340 0.0258
C16 C -0.2331(7) 0.1134(8) -0.0791(6)
C17 C -0.2725(7) 0.1563(7) -0.1684(7)
C18 C -0.3973(9) 0.2091(11) -0.2108(8)
H21 H -0.4457 0.1574 -0.1865
C19 C -0.4446(10) 0.210(2) -0.3165(12)
H22 H -0.5236 0.2430 -0.3383
H23 H -0.3960 0.2574 -0.3439
H24 H -0.4461 0.1261 -0.3362
C20 C -0.4037(10) 0.3342(12) -0.1736(9)
H25 H -0.4831 0.3648 -0.1995
H26 H -0.3804 0.3310 -0.1048
H27 H -0.3512 0.3878 -0.1919
C21 C -0.2842(8) 0.0514(12) 0.0588(8)
H28 H -0.3480 0.0557 0.0843
H29 H -0.2675 -0.0332 0.0497
H30 H -0.2150 0.0894 0.1029
O3 O 0.2968(7) 0.3730(9) 0.4563(5)
O4 O 0.5590(6) 0.3912(8) 0.1545(7)
C22 C -0.1115(8) 0.3270(12) 0.2149(11)
H31 H -0.0936 0.3374 0.2828
H32 H -0.1956 0.3308 0.1834
H33 H -0.0827 0.2485 0.2027
C23 C -0.0971(10) 0.5581(10) 0.1928(9)
H34 H -0.0743 0.5743 0.2604
H35 H -0.0616 0.6181 0.1633
H36 H -0.1817 0.5626 0.1647
C24 C -0.0547(6) 0.4360(10) 0.1703(7)
C25 C -0.0867(9) 0.4127(16) 0.0611(10)
H37 H -0.1692 0.4303 0.0303
H38 H -0.0740 0.3271 0.0517
C26 C -0.0224(8) 0.4813(17) 0.0147(8)
H39 H -0.0364 0.5664 0.0243
H40 H -0.0486 0.4667 -0.0533
C27 C 0.1141(8) 0.4525(12) 0.0586(6)
H41 H 0.1546 0.5032 0.0264
H42 H 0.1294 0.3680 0.0478
C28 C 0.1598(6) 0.4861(8) 0.1686(4)
C29 C 0.1707(10) 0.6262(10) 0.1765(10)
H43 H 0.2002 0.6421 0.2443
H44 H 0.2248 0.6592 0.1474
H45 H 0.0947 0.6645 0.1488
C30 C 0.0855(6) 0.4150(8) 0.2187(6)
H46 H 0.0998 0.3290 0.2127
C31 C 0.1278(7) 0.4381(10) 0.3258(6)
H47 H 0.0796 0.3935 0.3550
H48 H 0.1206 0.5242 0.3373
C32 C 0.2571(8) 0.4033(8) 0.3687(6)
C33 C 0.4452(7) 0.3475(7) 0.3455(5)
H49 H 0.4720 0.3194 0.4109
C34 C 0.3284(8) 0.3914(8) 0.3089(6)
C35 C 0.2886(6) 0.4336(6) 0.2126(5)
C36 C 0.3650(6) 0.4338(9) 0.1589(6)
H50 H 0.3393 0.4654 0.0946
C37 C 0.4760(9) 0.3913(8) 0.1988(6)
C38 C 0.5206(7) 0.3408(7) 0.2982(5)
C39 C 0.6441(8) 0.2898(8) 0.3357(7)
H51 H 0.6973 0.3427 0.3177
C40 C 0.6947(10) 0.2865(11) 0.4472(7)
H52 H 0.6936 0.3659 0.4754
H53 H 0.6450 0.2310 0.4669
H54 H 0.7743 0.2555 0.4680
C41 C 0.6482(13) 0.1605(11) 0.2925(12)
H55 H 0.6194 0.1689 0.2238
H56 H 0.7276 0.1292 0.3128
H57 H 0.5983 0.1047 0.3117
C42 C 0.5244(12) 0.4402(16) 0.0611(10)
H58 H 0.5896 0.4318 0.0376
H59 H 0.4569 0.3972 0.0192
H60 H 0.5054 0.5257 0.0632
loop_
_geom_bond_atom_site_label_1
_geom_bond_atom_site_label_2
_geom_bond_site_symmetry_1
_geom_bond_site_symmetry_2
O1 C11 1_555 1_555
O2 C16 1_555 1_555
C1 H1 1_555 1_555
H2 C1 1_555 1_555
H3 C1 1_555 1_555
C2 H4 1_555 1_555
H5 C2 1_555 1_555
H6 C2 1_555 1_555
C3 C1 1_555 1_555
C4 C3 1_555 1_555
H7 C4 1_555 1_555
H8 C4 1_555 1_555
C5 C4 1_555 1_555
H9 C5 1_555 1_555
H10 C5 1_555 1_555
C6 C5 1_555 1_555
H11 C6 1_555 1_555
H12 C6 1_555 1_555
C7 C6 1_555 1_555
C8 C7 1_555 1_555
H13 C8 1_555 1_555
H14 C8 1_555 1_555
H15 C8 1_555 1_555
C9 C3 1_555 1_555
H16 C9 1_555 1_555
C10 C9 1_555 1_555
H17 C10 1_555 1_555
H18 C10 1_555 1_555
C11 C10 1_555 1_555
C12 H19 1_555 1_555
C13 C11 1_555 1_555
C14 C7 1_555 1_555
C15 C14 1_555 1_555
H20 C15 1_555 1_555
C16 C15 1_555 1_555
C17 C12 1_555 1_555
C18 C17 1_555 1_555
H21 C18 1_555 1_555
C19 C18 1_555 1_555
H22 C19 1_555 1_555
H23 C19 1_555 1_555
H24 C19 1_555 1_555
C20 C18 1_555 1_555
H25 C20 1_555 1_555
H26 C20 1_555 1_555
H27 C20 1_555 1_555
C21 O2 1_555 1_555
H28 C21 1_555 1_555
H29 C21 1_555 1_555
H30 C21 1_555 1_555
O3 C32 1_555 1_555
O4 C37 1_555 1_555
C22 H31 1_555 1_555
H32 C22 1_555 1_555
H33 C22 1_555 1_555
C23 H34 1_555 1_555
H35 C23 1_555 1_555
H36 C23 1_555 1_555
C24 C22 1_555 1_555
C25 C24 1_555 1_555
H37 C25 1_555 1_555
H38 C25 1_555 1_555
C26 C25 1_555 1_555
H39 C26 1_555 1_555
H40 C26 1_555 1_555
C27 C26 1_555 1_555
H41 C27 1_555 1_555
H42 C27 1_555 1_555
C28 C27 1_555 1_555
C29 C28 1_555 1_555
H43 C29 1_555 1_555
H44 C29 1_555 1_555
H45 C29 1_555 1_555
C30 C24 1_555 1_555
H46 C30 1_555 1_555
C31 C30 1_555 1_555
H47 C31 1_555 1_555
H48 C31 1_555 1_555
C32 C31 1_555 1_555
C33 H49 1_555 1_555
C34 C32 1_555 1_555
C35 C28 1_555 1_555
C36 C35 1_555 1_555
H50 C36 1_555 1_555
C37 C36 1_555 1_555
C38 C33 1_555 1_555
C39 C38 1_555 1_555
H51 C39 1_555 1_555
C40 C39 1_555 1_555
H52 C40 1_555 1_555
H53 C40 1_555 1_555
H54 C40 1_555 1_555
C41 C39 1_555 1_555
H55 C41 1_555 1_555
H56 C41 1_555 1_555
H57 C41 1_555 1_555
C42 O4 1_555 1_555
H58 C42 1_555 1_555
H59 C42 1_555 1_555
H60 C42 1_555 1_555
C2 C3 1_555 1_555
C7 C9 1_555 1_555
C12 C13 1_555 1_555
C13 C14 1_555 1_555
C16 C17 1_555 1_555
C23 C24 1_555 1_555
C28 C30 1_555 1_555
C33 C34 1_555 1_555
C34 C35 1_555 1_555
C37 C38 1_555 1_555

#END
