
#######################################################################
#
#                 Cambridge Crystallographic Data Centre
#                                CCDC 
#
#######################################################################
#
# If this CIF has been generated from an entry in the Cambridge 
# Structural Database, then it will include bibliographic, chemical, 
# crystal, experimental, refinement or atomic coordinate data resulting 
# from the CCDC's data processing and validation procedures.
#
#######################################################################

data_EKOPIF
_chemical_formula_moiety         'C16 H8 S3'
_chemical_name_systematic        2,5-bis(2-thienylethynyl)thiophene
_symmetry_cell_setting           monoclinic
_symmetry_space_group_name_H-M   'C 2/c'
_symmetry_Int_Tables_number      15
_space_group_name_Hall           '-C 2yn'
loop_
_symmetry_equiv_pos_site_id
_symmetry_equiv_pos_as_xyz
1 x,y,z
2 -x,y,1/2-z
3 1/2+x,1/2+y,z
4 1/2-x,1/2+y,1/2-z
5 -x,-y,-z
6 x,-y,1/2+z
7 1/2-x,1/2-y,-z
8 1/2+x,1/2-y,1/2+z
_cell_length_a                   15.042(5)
_cell_length_b                   11.404(4)
_cell_length_c                   32.856(10)
_cell_angle_alpha                90
_cell_angle_beta                 95.094(5)
_cell_angle_gamma                90
_cell_volume                     5613.82
_exptl_crystal_colour            yellow
_exptl_crystal_description       block
_cell_formula_units_Z            16
loop_
_atom_site_label
_atom_site_type_symbol
_atom_site_fract_x
_atom_site_fract_y
_atom_site_fract_z
S1 S 0.59215(19) 0.2447(3) 0.32247(10)
S2 S 0.38239(9) 0.56544(13) 0.21740(4)
C1 C 0.18910(18) 0.9766(2) 0.10933(8)
H1 H 0.1419 0.9945 0.1247
C2 C 0.5976(6) 0.1345(9) 0.3527(3)
H2 H 0.6508 0.0951 0.3598
C3 C 0.5210(7) 0.1025(8) 0.3670(3)
H3 H 0.5169 0.0375 0.3838
C4 C 0.4431(4) 0.1768(5) 0.35437(17)
H4 H 0.3854 0.1738 0.3624
C5 C 0.4835(4) 0.2608(6) 0.32420(18)
C6 C 0.4362(4) 0.3501(5) 0.30232(17)
C7 C 0.3955(3) 0.4245(5) 0.28402(17)
C8 C 0.3471(3) 0.5135(5) 0.26230(15)
C9 C 0.2710(4) 0.5674(6) 0.27113(18)
H5 H 0.2413 0.5500 0.2940
C10 C 0.2417(4) 0.6517(6) 0.24219(18)
H6 H 0.1903 0.6961 0.2440
C11 C 0.2947(3) 0.6631(4) 0.21148(15)
C12 C 0.2852(3) 0.7374(5) 0.17771(17)
C13 C 0.2764(3) 0.8021(5) 0.14880(16)
C14 C 0.2661(3) 0.8787(5) 0.11529(16)
S3 S 0.33269(18) 0.8756(2) 0.07934(8)
C15 C 0.2874(7) 0.9831(7) 0.0549(2)
C16 C 0.2186(6) 1.0302(6) 0.0703(3)
H7 H 0.184(4) 1.098(4) 0.062(2)
H8 H 0.313(5) 1.000(7) 0.033(2)
S5 S -0.03596(18) 0.3592(2) -0.02112(9)
S6 S 0.28056(10) 0.53214(14) 0.08976(5)
S7 S 0.64770(16) 0.7876(3) 0.14632(9)
C18 C -0.1111(5) 0.2545(9) -0.0255(3)
H10 H -0.1626 0.2582 -0.0434
C19 C -0.0916(5) 0.1671(9) -0.0018(3)
H11 H -0.1286 0.1019 -0.0010
C20 C -0.0084(3) 0.1767(5) 0.02348(14)
H12 H 0.0164 0.1223 0.0423
C21 C 0.0285(4) 0.2910(6) 0.01311(18)
C22 C 0.1123(4) 0.3349(5) 0.03082(17)
C23 C 0.1827(4) 0.3678(5) 0.04513(17)
C24 C 0.2675(4) 0.4048(5) 0.06245(16)
C25 C 0.3461(4) 0.3507(6) 0.0606(2)
H13 H 0.3523 0.2798 0.0472
C26 C 0.4178(4) 0.4106(6) 0.0807(2)
H14 H 0.4763 0.3835 0.0821
C27 C 0.3940(3) 0.5117(5) 0.09788(16)
C28 C 0.4486(4) 0.5948(5) 0.11955(17)
C29 C 0.4950(4) 0.6655(5) 0.13735(17)
C30 C 0.5488(4) 0.7494(5) 0.15869(18)
C31 C 0.5246(4) 0.8156(6) 0.19638(16)
H15 H 0.4727 0.8098 0.2097
C32 C 0.6022(7) 0.8904(8) 0.2066(3)
H16 H 0.6061 0.9409 0.2289
C33 C 0.6653(5) 0.8816(7) 0.1823(3)
H17 H 0.7170 0.9266 0.1856
S4? S 0.18910(18) 0.9766(2) 0.10933(8)
C17? C 0.33269(18) 0.8756(2) 0.07934(8)
H9? H 0.3807 0.8277 0.0746
loop_
_geom_bond_atom_site_label_1
_geom_bond_atom_site_label_2
_geom_bond_site_symmetry_1
_geom_bond_site_symmetry_2
S1 C2 1_555 1_555
S2 C8 1_555 1_555
C1 H1 1_555 1_555
C2 H2 1_555 1_555
C3 C2 1_555 1_555
H3 C3 1_555 1_555
C4 C3 1_555 1_555
H4 C4 1_555 1_555
C5 S1 1_555 1_555
C6 C5 1_555 1_555
C7 C6 1_555 1_555
C8 C7 1_555 1_555
C9 C8 1_555 1_555
H5 C9 1_555 1_555
C10 C9 1_555 1_555
H6 C10 1_555 1_555
C11 S2 1_555 1_555
C12 C11 1_555 1_555
C13 C12 1_555 1_555
C14 C1 1_555 1_555
S3 C14 1_555 1_555
C15 S3 1_555 1_555
C16 C1 1_555 1_555
H7 C16 1_555 1_555
H8 C15 1_555 1_555
S5 C18 1_555 1_555
S6 C24 1_555 1_555
S7 C30 1_555 1_555
C18 H10 1_555 1_555
C19 C18 1_555 1_555
H11 C19 1_555 1_555
C20 C19 1_555 1_555
H12 C20 1_555 1_555
C21 S5 1_555 1_555
C22 C21 1_555 1_555
C23 C22 1_555 1_555
C24 C23 1_555 1_555
C25 C24 1_555 1_555
H13 C25 1_555 1_555
C26 C25 1_555 1_555
H14 C26 1_555 1_555
C27 S6 1_555 1_555
C28 C27 1_555 1_555
C29 C28 1_555 1_555
C30 C29 1_555 1_555
C31 C30 1_555 1_555
H15 C31 1_555 1_555
C32 C31 1_555 1_555
H16 C32 1_555 1_555
C33 S7 1_555 1_555
H17 C33 1_555 1_555
C4 C5 1_555 1_555
C10 C11 1_555 1_555
C13 C14 1_555 1_555
C15 C16 1_555 1_555
C20 C21 1_555 1_555
C26 C27 1_555 1_555
C32 C33 1_555 1_555

#END
