
#######################################################################
#
#                 Cambridge Crystallographic Data Centre
#                                CCDC 
#
#######################################################################
#
# If this CIF has been generated from an entry in the Cambridge 
# Structural Database, then it will include bibliographic, chemical, 
# crystal, experimental, refinement or atomic coordinate data resulting 
# from the CCDC's data processing and validation procedures.
#
#######################################################################

data_EKUHID
_chemical_formula_moiety         'C23 H19 Br1 N2 O2 S1'
_chemical_name_systematic        
5-(4-bromophenyl)-1-((4-methylphenyl)sulfonyl)-3-phenyl-1,6-dihydropyridazine
_symmetry_cell_setting           monoclinic
_symmetry_space_group_name_H-M   'P 21/c'
_symmetry_Int_Tables_number      14
_space_group_name_Hall           '-P 2ybc'
loop_
_symmetry_equiv_pos_site_id
_symmetry_equiv_pos_as_xyz
1 x,y,z
2 -x,1/2+y,1/2-z
3 -x,-y,-z
4 x,1/2-y,1/2+z
_cell_length_a                   10.032(3)
_cell_length_b                   16.807(5)
_cell_length_c                   12.546(4)
_cell_angle_alpha                90
_cell_angle_beta                 94.734(4)
_cell_angle_gamma                90
_cell_volume                     2108.14
_exptl_crystal_colour            colorless
_exptl_crystal_description       block
_cell_formula_units_Z            4
loop_
_atom_site_label
_atom_site_type_symbol
_atom_site_fract_x
_atom_site_fract_y
_atom_site_fract_z
Br1 Br 0.09677(7) 1.04113(5) -0.18531(5)
C1 C 0.7806(4) 0.7177(2) 0.2828(3)
C2 C 0.8822(5) 0.7272(3) 0.3621(4)
H1 H 0.8620 0.7344 0.4325
C3 C 1.0120(5) 0.7261(3) 0.3385(4)
H2 H 1.0794 0.7320 0.3934
C4 C 1.0458(5) 0.7167(3) 0.2356(4)
C5 C 0.9437(6) 0.7064(3) 0.1569(4)
H3 H 0.9646 0.6994 0.0866
C6 C 0.8110(5) 0.7063(3) 0.1787(4)
H4 H 0.7435 0.6986 0.1243
C7 C 1.1893(6) 0.7210(4) 0.2072(5)
H5 H 1.2466 0.7332 0.2702
H6 H 1.1975 0.7618 0.1546
H7 H 1.2148 0.6707 0.1788
C8 C 0.6054(4) 0.9405(2) 0.3599(3)
C9 C 0.5057(4) 0.9688(2) 0.2783(3)
H8 H 0.4674 1.0187 0.2854
C10 C 0.4679(4) 0.9235(2) 0.1926(3)
C11 C 0.5396(4) 0.8454(2) 0.1864(3)
H9 H 0.4847 0.8078 0.1437
H10 H 0.6229 0.8526 0.1535
C12 C 0.6760(4) 0.9938(2) 0.4390(3)
C13 C 0.7895(6) 0.9684(3) 0.4965(5)
H11 H 0.8238 0.9184 0.4821
C14 C 0.8552(6) 1.0145(4) 0.5756(5)
H12 H 0.9317 0.9958 0.6145
C15 C 0.8053(6) 1.0883(3) 0.5956(4)
H13 H 0.8488 1.1201 0.6483
C16 C 0.6932(5) 1.1156(3) 0.5395(4)
H14 H 0.6600 1.1657 0.5542
C17 C 0.6283(5) 1.0690(2) 0.4603(3)
H15 H 0.5522 1.0883 0.4213
C18 C 0.3727(4) 0.9488(2) 0.1042(3)
C19 C 0.3829(5) 0.9190(3) 0.0023(3)
H16 H 0.4463 0.8800 -0.0083
C20 C 0.3010(5) 0.9460(3) -0.0839(4)
H17 H 0.3104 0.9264 -0.1522
C21 C 0.2063(5) 1.0017(3) -0.0675(4)
C22 C 0.1901(5) 1.0303(3) 0.0333(4)
H18 H 0.1231 1.0670 0.0438
C23 C 0.2743(5) 1.0039(2) 0.1190(3)
H19 H 0.2643 1.0236 0.1872
N1 N 0.5659(3) 0.81585(17) 0.2951(3)
N2 N 0.6361(3) 0.86557(18) 0.3700(2)
O1 O 0.6122(3) 0.70749(18) 0.4272(3)
O2 O 0.5328(3) 0.67748(16) 0.2388(3)
S1 S 0.61421(11) 0.72244(6) 0.31504(9)
loop_
_geom_bond_atom_site_label_1
_geom_bond_atom_site_label_2
_geom_bond_site_symmetry_1
_geom_bond_site_symmetry_2
Br1 C21 1_555 1_555
C1 C2 1_555 1_555
C2 H1 1_555 1_555
C3 C2 1_555 1_555
H2 C3 1_555 1_555
C4 C3 1_555 1_555
C5 C4 1_555 1_555
H3 C5 1_555 1_555
C6 C1 1_555 1_555
H4 C6 1_555 1_555
C7 C4 1_555 1_555
H5 C7 1_555 1_555
H6 C7 1_555 1_555
H7 C7 1_555 1_555
C8 C9 1_555 1_555
C9 H8 1_555 1_555
C10 C9 1_555 1_555
C11 C10 1_555 1_555
H9 C11 1_555 1_555
H10 C11 1_555 1_555
C12 C8 1_555 1_555
C13 C12 1_555 1_555
H11 C13 1_555 1_555
C14 C13 1_555 1_555
H12 C14 1_555 1_555
C15 C14 1_555 1_555
H13 C15 1_555 1_555
C16 C15 1_555 1_555
H14 C16 1_555 1_555
C17 C12 1_555 1_555
H15 C17 1_555 1_555
C18 C10 1_555 1_555
C19 C18 1_555 1_555
H16 C19 1_555 1_555
C20 C19 1_555 1_555
H17 C20 1_555 1_555
C21 C20 1_555 1_555
C22 C21 1_555 1_555
H18 C22 1_555 1_555
C23 C18 1_555 1_555
H19 C23 1_555 1_555
N1 C11 1_555 1_555
N2 C8 1_555 1_555
O1 S1 1_555 1_555
O2 S1 1_555 1_555
S1 C1 1_555 1_555
C5 C6 1_555 1_555
C16 C17 1_555 1_555
C22 C23 1_555 1_555
N1 N2 1_555 1_555
N1 S1 1_555 1_555

#END
