
#######################################################################
#
#                 Cambridge Crystallographic Data Centre
#                                CCDC 
#
#######################################################################
#
# If this CIF has been generated from an entry in the Cambridge 
# Structural Database, then it will include bibliographic, chemical, 
# crystal, experimental, refinement or atomic coordinate data resulting 
# from the CCDC's data processing and validation procedures.
#
#######################################################################

data_EKUNAZ
_chemical_formula_moiety         'C14 H25 N3 O6'
_chemical_name_systematic        
't-butoxycarbonyl-alanyl-glycyl-\b-alanine methyl ester'
_symmetry_cell_setting           orthorhombic
_symmetry_space_group_name_H-M   'P 21 21 21'
_symmetry_Int_Tables_number      19
_space_group_name_Hall           'P 2ac 2ab'
loop_
_symmetry_equiv_pos_site_id
_symmetry_equiv_pos_as_xyz
1 x,y,z
2 -x,1/2+y,1/2-z
3 1/2+x,1/2-y,-z
4 1/2-x,-y,1/2+z
_cell_length_a                   5.755(10)
_cell_length_b                   8.127(14)
_cell_length_c                   38.70(4)
_cell_angle_alpha                90
_cell_angle_beta                 90
_cell_angle_gamma                90
_cell_volume                     1810.03
_cell_formula_units_Z            4
_exptl_crystal_recrystallization_method 'ethyl acetate/toluene'
loop_
_atom_site_label
_atom_site_type_symbol
_atom_site_fract_x
_atom_site_fract_y
_atom_site_fract_z
C1 C 0.3793(12) 0.4231(8) 0.11100(17)
H1 H 0.3563 0.5379 0.1050
H2 H 0.2553 0.3919 0.1267
C2 C 0.3577(12) 0.3223(7) 0.07882(18)
H3 H 0.3720 0.2071 0.0850
H4 H 0.2033 0.3384 0.0694
C3 C 0.6088(11) 0.4073(7) 0.12998(16)
O1 O 0.7580(9) 0.3067(6) 0.12209(13)
O2 O 0.6177(8) 0.4920(6) 0.15812(13)
C4 C 0.8290(15) 0.4864(12) 0.1782(2)
H5 H 0.9510 0.5414 0.1658
H6 H 0.8721 0.3738 0.1821
H7 H 0.8044 0.5403 0.1999
N1 N 0.5297(9) 0.3594(5) 0.05153(13)
H8 H 0.6475 0.2952 0.0493
C5 C 0.5116(10) 0.4850(7) 0.03063(14)
O3 O 0.3431(7) 0.5833(5) 0.03037(10)
C6 C 0.7111(10) 0.5007(9) 0.00410(16)
H9 H 0.8402 0.5568 0.0151
H10 H 0.7635 0.3910 -0.0020
N2 N 0.6537(9) 0.5872(6) -0.02725(13)
H11 H 0.7146 0.6815 -0.0317
C7 C 0.5021(9) 0.5170(6) -0.04950(13)
O4 O 0.4155(7) 0.3815(4) -0.04425(10)
C8 C 0.4469(10) 0.6125(7) -0.08255(14)
H12 H 0.5396 0.7137 -0.0825
C9 C 0.1909(13) 0.6604(9) -0.0845(2)
H13 H 0.0971 0.5628 -0.0850
H14 H 0.1640 0.7235 -0.1051
H15 H 0.1506 0.7251 -0.0646
N3 N 0.5194(8) 0.5126(6) -0.11216(11)
H16 H 0.4883 0.4091 -0.1118
C10 C 0.6314(11) 0.5735(7) -0.13975(15)
O5 O 0.7040(8) 0.7152(5) -0.14170(12)
O6 O 0.6592(7) 0.4586(5) -0.16409(10)
C11 C 0.8021(11) 0.4895(8) -0.19629(15)
C12 C 0.7824(17) 0.3339(11) -0.2152(2)
H17 H 0.8638 0.3425 -0.2368
H18 H 0.6215 0.3104 -0.2195
H19 H 0.8489 0.2468 -0.2017
C13 C 0.7037(15) 0.6329(10) -0.2170(2)
H20 H 0.7276 0.7336 -0.2045
H21 H 0.5404 0.6163 -0.2207
H22 H 0.7813 0.6392 -0.2390
C14 C 1.0546(11) 0.5278(10) -0.18621(18)
H23 H 1.0611 0.6328 -0.1749
H24 H 1.1494 0.5304 -0.2066
H25 H 1.1110 0.4441 -0.1708
loop_
_geom_bond_atom_site_label_1
_geom_bond_atom_site_label_2
_geom_bond_site_symmetry_1
_geom_bond_site_symmetry_2
C1 H1 1_555 1_555
H2 C1 1_555 1_555
C2 C1 1_555 1_555
H3 C2 1_555 1_555
H4 C2 1_555 1_555
C3 C1 1_555 1_555
O1 C3 1_555 1_555
O2 C3 1_555 1_555
C4 O2 1_555 1_555
H5 C4 1_555 1_555
H6 C4 1_555 1_555
H7 C4 1_555 1_555
N1 C2 1_555 1_555
H8 N1 1_555 1_555
C5 N1 1_555 1_555
O3 C5 1_555 1_555
C6 C5 1_555 1_555
H9 C6 1_555 1_555
H10 C6 1_555 1_555
N2 C6 1_555 1_555
H11 N2 1_555 1_555
C7 N2 1_555 1_555
O4 C7 1_555 1_555
C8 C7 1_555 1_555
H12 C8 1_555 1_555
C9 C8 1_555 1_555
H13 C9 1_555 1_555
H14 C9 1_555 1_555
H15 C9 1_555 1_555
N3 C8 1_555 1_555
H16 N3 1_555 1_555
C10 N3 1_555 1_555
O5 C10 1_555 1_555
O6 C10 1_555 1_555
C11 O6 1_555 1_555
C12 C11 1_555 1_555
H17 C12 1_555 1_555
H18 C12 1_555 1_555
H19 C12 1_555 1_555
C13 C11 1_555 1_555
H20 C13 1_555 1_555
H21 C13 1_555 1_555
H22 C13 1_555 1_555
C14 C11 1_555 1_555
H23 C14 1_555 1_555
H24 C14 1_555 1_555
H25 C14 1_555 1_555

#END
