
#######################################################################
#
#                 Cambridge Crystallographic Data Centre
#                                CCDC 
#
#######################################################################
#
# If this CIF has been generated from an entry in the Cambridge 
# Structural Database, then it will include bibliographic, chemical, 
# crystal, experimental, refinement or atomic coordinate data resulting 
# from the CCDC's data processing and validation procedures.
#
#######################################################################

data_EKUXEO
_chemical_formula_moiety         'C27 H25 N1 O3 S1'
_chemical_name_systematic        
2-((4-Methylphenyl)sulfonyl)-6,7-diphenyl-1,2,3,3a,4,7a-hexahydro-5H-isoindol-5-one
_symmetry_cell_setting           monoclinic
_symmetry_space_group_name_H-M   'P 21/c'
_symmetry_Int_Tables_number      14
_space_group_name_Hall           '-P 2ybc'
loop_
_symmetry_equiv_pos_site_id
_symmetry_equiv_pos_as_xyz
1 x,y,z
2 -x,1/2+y,1/2-z
3 -x,-y,-z
4 x,1/2-y,1/2+z
_cell_length_a                   18.133(4)
_cell_length_b                   12.922(3)
_cell_length_c                   9.6356(19)
_cell_angle_alpha                90
_cell_angle_beta                 102.83(3)
_cell_angle_gamma                90
_cell_volume                     2201.39
_cell_formula_units_Z            4
loop_
_atom_site_label
_atom_site_type_symbol
_atom_site_fract_x
_atom_site_fract_y
_atom_site_fract_z
C1 C 0.16564(15) 0.3715(2) 0.6676(3)
H1 H 0.1963 0.3329 0.6104
C2 C 0.08688(14) 0.3548(2) 0.5921(3)
H2 H 0.0528 0.3767 0.6539
H3 H 0.0786 0.2800 0.5724
C3 C 0.06665(15) 0.4146(2) 0.4520(3)
C4 C 0.12360(13) 0.48854(19) 0.4170(2)
C5 C 0.18386(13) 0.51946(19) 0.5181(2)
C6 C 0.19226(16) 0.4793(2) 0.6681(3)
H4 H 0.1564 0.5212 0.7106
C7 C 0.26613(13) 0.48436(19) 0.7724(2)
H5 H 0.2770 0.5551 0.8111
H6 H 0.3082 0.4607 0.7301
C8 C 0.19446(13) 0.3323(2) 0.8209(2)
H7 H 0.1531 0.3298 0.8729
H8 H 0.2174 0.2627 0.8221
C9 C 0.10688(12) 0.53206(19) 0.2705(2)
C10 C 0.10759(15) 0.4700(2) 0.1532(3)
H9 H 0.1180 0.3982 0.1662
C11 C 0.09322(17) 0.5118(2) 0.0171(3)
H10 H 0.0938 0.4682 -0.0620
C12 C 0.07834(14) 0.6144(2) -0.0041(3)
H11 H 0.0688 0.6425 -0.0975
C13 C 0.07714(14) 0.6772(2) 0.1105(3)
H12 H 0.0667 0.7490 0.0964
C14 C 0.09123(13) 0.63572(19) 0.2473(3)
H13 H 0.0900 0.6796 0.3258
C15 C 0.24009(12) 0.59401(18) 0.4869(2)
C16 C 0.24950(14) 0.69069(19) 0.5494(2)
H14 H 0.2218 0.7084 0.6189
C17 C 0.29868(14) 0.7621(2) 0.5124(3)
H15 H 0.3029 0.8296 0.5527
C18 C 0.34177(15) 0.7345(2) 0.4160(3)
H16 H 0.3762 0.7830 0.3914
C19 C 0.33517(14) 0.6378(2) 0.3559(3)
H17 H 0.3658 0.6187 0.2917
C20 C 0.28342(13) 0.5678(2) 0.3893(3)
H18 H 0.2776 0.5016 0.3453
C21 C 0.38274(13) 0.30130(19) 0.9624(2)
C22 C 0.37742(14) 0.19544(19) 0.9753(2)
H19 H 0.3409 0.1664 1.0209
C23 C 0.42573(13) 0.1318(2) 0.9213(2)
H20 H 0.4218 0.0590 0.9313
C24 C 0.47953(13) 0.1707(2) 0.8533(2)
C25 C 0.48426(14) 0.2774(2) 0.8420(3)
H21 H 0.5208 0.3061 0.7959
C26 C 0.43729(13) 0.3433(2) 0.8958(3)
H22 H 0.4420 0.4162 0.8878
C27 C 0.53003(14) 0.0998(2) 0.7922(3)
H23 H 0.5209 0.1102 0.6891
H24 H 0.5190 0.0278 0.8122
H25 H 0.5830 0.1153 0.8357
N1 N 0.25200(10) 0.41106(15) 0.8830(2)
O1 O 0.00451(10) 0.40514(15) 0.37285(19)
O2 O 0.28299(9) 0.32517(13) 1.11521(17)
O3 O 0.35718(9) 0.47911(13) 1.06686(17)
S1 S 0.31856(4) 0.38388(5) 1.02120(6)
loop_
_geom_bond_atom_site_label_1
_geom_bond_atom_site_label_2
_geom_bond_site_symmetry_1
_geom_bond_site_symmetry_2
C1 H1 1_555 1_555
C2 C1 1_555 1_555
H2 C2 1_555 1_555
H3 C2 1_555 1_555
C3 C2 1_555 1_555
C4 C3 1_555 1_555
C5 C4 1_555 1_555
C6 C1 1_555 1_555
H4 C6 1_555 1_555
C7 C6 1_555 1_555
H5 C7 1_555 1_555
H6 C7 1_555 1_555
C8 C1 1_555 1_555
H7 C8 1_555 1_555
H8 C8 1_555 1_555
C9 C4 1_555 1_555
C10 C9 1_555 1_555
H9 C10 1_555 1_555
C11 C10 1_555 1_555
H10 C11 1_555 1_555
C12 C11 1_555 1_555
H11 C12 1_555 1_555
C13 C12 1_555 1_555
H12 C13 1_555 1_555
C14 C9 1_555 1_555
H13 C14 1_555 1_555
C15 C5 1_555 1_555
C16 C15 1_555 1_555
H14 C16 1_555 1_555
C17 C16 1_555 1_555
H15 C17 1_555 1_555
C18 C17 1_555 1_555
H16 C18 1_555 1_555
C19 C18 1_555 1_555
H17 C19 1_555 1_555
C20 C15 1_555 1_555
H18 C20 1_555 1_555
C21 C22 1_555 1_555
C22 H19 1_555 1_555
C23 C22 1_555 1_555
H20 C23 1_555 1_555
C24 C23 1_555 1_555
C25 C24 1_555 1_555
H21 C25 1_555 1_555
C26 C21 1_555 1_555
H22 C26 1_555 1_555
C27 C24 1_555 1_555
H23 C27 1_555 1_555
H24 C27 1_555 1_555
H25 C27 1_555 1_555
N1 C7 1_555 1_555
O1 C3 1_555 1_555
O2 S1 1_555 1_555
O3 S1 1_555 1_555
S1 C21 1_555 1_555
C5 C6 1_555 1_555
C8 N1 1_555 1_555
C13 C14 1_555 1_555
C19 C20 1_555 1_555
C25 C26 1_555 1_555
N1 S1 1_555 1_555

#END
