
#######################################################################
#
#                 Cambridge Crystallographic Data Centre
#                                CCDC 
#
#######################################################################
#
# If this CIF has been generated from an entry in the Cambridge 
# Structural Database, then it will include bibliographic, chemical, 
# crystal, experimental, refinement or atomic coordinate data resulting 
# from the CCDC's data processing and validation procedures.
#
#######################################################################

data_ELAHUW
_chemical_formula_moiety         'C29 H33 N1 O4 S1'
_chemical_name_systematic        
'Benzyl 3-(4-methyl-1-((4-methylphenyl)sulfonyl)piperidin-4-yl)-2-phenylpropanoate'
_symmetry_cell_setting           monoclinic
_symmetry_space_group_name_H-M   'C c'
_symmetry_Int_Tables_number      9
_space_group_name_Hall           'C -2yc'
loop_
_symmetry_equiv_pos_site_id
_symmetry_equiv_pos_as_xyz
1 x,y,z
2 x,-y,1/2+z
3 1/2+x,1/2+y,z
4 1/2+x,1/2-y,1/2+z
_cell_length_a                   6.0487(2)
_cell_length_b                   28.2917(10)
_cell_length_c                   14.8950(5)
_cell_angle_alpha                90
_cell_angle_beta                 99.794(2)
_cell_angle_gamma                90
_cell_volume                     2511.8
_exptl_crystal_colour            colorless
_exptl_crystal_description       needle
_chemical_melting_point          '134-136 deg.C'
_cell_formula_units_Z            4
loop_
_atom_site_label
_atom_site_type_symbol
_atom_site_fract_x
_atom_site_fract_y
_atom_site_fract_z
S1 S 0.98611(8) 1.05705(2) 0.25210(4)
O1 O 0.2054(3) 0.84450(6) 0.13052(12)
O2 O 0.5746(3) 0.82817(6) 0.15972(13)
O3 O 1.2220(3) 1.05932(7) 0.24967(13)
O4 O 0.9090(3) 1.05214(6) 0.33741(12)
N1 N 0.8870(3) 1.01184(7) 0.18888(15)
C1 C 0.3964(5) 0.85860(10) 0.35226(19)
H1 H 0.5265 0.8418 0.3429
C2 C 0.4074(5) 0.88957(10) 0.42490(19)
H2 H 0.5452 0.8938 0.4655
C3 C 0.2197(5) 0.91425(11) 0.4386(2)
H3 H 0.2286 0.9356 0.4883
C4 C 0.0181(5) 0.90795(12) 0.3802(2)
H4 H -0.1112 0.9251 0.3895
C5 C 0.0054(5) 0.87658(10) 0.3080(2)
H5 H -0.1337 0.8718 0.2686
C6 C 0.1942(4) 0.85212(9) 0.29287(17)
C7 C 0.1741(5) 0.81908(10) 0.21266(18)
H6 H 0.2885 0.7938 0.2256
H7 H 0.0243 0.8040 0.2028
C8 C 0.4157(4) 0.84564(8) 0.11178(17)
C9 C 0.4201(4) 0.86932(9) 0.02068(17)
H8 H 0.2985 0.8937 0.0100
C10 C 0.3664(4) 0.83035(9) -0.05097(17)
C11 C 0.1590(4) 0.82836(9) -0.10630(18)
H9 H 0.0507 0.8521 -0.1014
C12 C 0.1067(5) 0.79208(9) -0.16890(18)
H10 H -0.0367 0.7912 -0.2066
C13 C 0.2635(5) 0.75704(9) -0.17661(18)
H11 H 0.2279 0.7319 -0.2190
C14 C 0.4729(5) 0.75921(10) -0.12160(19)
H12 H 0.5814 0.7355 -0.1267
C15 C 0.5249(5) 0.79553(9) -0.05938(19)
H13 H 0.6690 0.7968 -0.0223
C16 C 0.6476(4) 0.89377(9) 0.01879(18)
H14 H 0.7662 0.8757 0.0584
H15 H 0.6798 0.8921 -0.0441
C17 C 0.6639(4) 0.94585(9) 0.04952(17)
C18 C 0.5214(4) 0.97607(9) -0.02394(18)
H16 H 0.5378 1.0095 -0.0069
H17 H 0.3635 0.9668 -0.0295
H18 H 0.5719 0.9712 -0.0824
C19 C 0.5914(4) 0.95274(9) 0.14289(17)
H19 H 0.4279 0.9471 0.1364
H20 H 0.6682 0.9289 0.1860
C20 C 0.6447(4) 1.00197(9) 0.18263(18)
H21 H 0.5564 1.0259 0.1433
H22 H 0.6030 1.0039 0.2440
C21 C 0.9129(4) 0.95962(9) 0.06030(17)
H23 H 1.0031 0.9363 0.1006
H24 H 0.9604 0.9580 0.0000
C22 C 0.9622(4) 1.00882(9) 0.09961(17)
H25 H 1.1252 1.0153 0.1072
H26 H 0.8827 1.0327 0.0575
C23 C 0.8592(4) 1.10820(9) 0.19752(17)
C24 C 0.9579(4) 1.13057(9) 0.13119(18)
H27 H 1.0961 1.1194 0.1171
C25 C 0.8530(5) 1.16922(10) 0.0861(2)
H28 H 0.9203 1.1845 0.0407
C26 C 0.6501(5) 1.18629(10) 0.10570(19)
C27 C 0.5561(5) 1.16360(9) 0.17344(19)
H29 H 0.4194 1.1752 0.1884
C28 C 0.6576(4) 1.12458(9) 0.21942(18)
H30 H 0.5911 1.1093 0.2650
C29 C 0.5303(6) 1.22688(11) 0.0527(2)
H31 H 0.6391 1.2515 0.0444
H32 H 0.4182 1.2400 0.0862
H33 H 0.4556 1.2156 -0.0070
loop_
_geom_bond_atom_site_label_1
_geom_bond_atom_site_label_2
_geom_bond_site_symmetry_1
_geom_bond_site_symmetry_2
S1 O3 1_555 1_555
O1 C7 1_555 1_555
O2 C8 1_555 1_555
O4 S1 1_555 1_555
N1 S1 1_555 1_555
C1 H1 1_555 1_555
C2 C1 1_555 1_555
H2 C2 1_555 1_555
C3 C2 1_555 1_555
H3 C3 1_555 1_555
C4 C3 1_555 1_555
H4 C4 1_555 1_555
C5 C4 1_555 1_555
H5 C5 1_555 1_555
C6 C1 1_555 1_555
C7 C6 1_555 1_555
H6 C7 1_555 1_555
H7 C7 1_555 1_555
C8 O1 1_555 1_555
C9 C8 1_555 1_555
H8 C9 1_555 1_555
C10 C9 1_555 1_555
C11 C10 1_555 1_555
H9 C11 1_555 1_555
C12 C11 1_555 1_555
H10 C12 1_555 1_555
C13 C12 1_555 1_555
H11 C13 1_555 1_555
C14 C13 1_555 1_555
H12 C14 1_555 1_555
C15 C10 1_555 1_555
H13 C15 1_555 1_555
C16 C9 1_555 1_555
H14 C16 1_555 1_555
H15 C16 1_555 1_555
C17 C16 1_555 1_555
C18 C17 1_555 1_555
H16 C18 1_555 1_555
H17 C18 1_555 1_555
H18 C18 1_555 1_555
C19 C17 1_555 1_555
H19 C19 1_555 1_555
H20 C19 1_555 1_555
C20 N1 1_555 1_555
H21 C20 1_555 1_555
H22 C20 1_555 1_555
C21 C17 1_555 1_555
H23 C21 1_555 1_555
H24 C21 1_555 1_555
C22 N1 1_555 1_555
H25 C22 1_555 1_555
H26 C22 1_555 1_555
C23 S1 1_555 1_555
C24 C23 1_555 1_555
H27 C24 1_555 1_555
C25 C24 1_555 1_555
H28 C25 1_555 1_555
C26 C25 1_555 1_555
C27 C26 1_555 1_555
H29 C27 1_555 1_555
C28 C23 1_555 1_555
H30 C28 1_555 1_555
C29 C26 1_555 1_555
H31 C29 1_555 1_555
H32 C29 1_555 1_555
H33 C29 1_555 1_555
C5 C6 1_555 1_555
C14 C15 1_555 1_555
C19 C20 1_555 1_555
C21 C22 1_555 1_555
C27 C28 1_555 1_555

#END
