
#######################################################################
#
#                 Cambridge Crystallographic Data Centre
#                                CCDC 
#
#######################################################################
#
# If this CIF has been generated from an entry in the Cambridge 
# Structural Database, then it will include bibliographic, chemical, 
# crystal, experimental, refinement or atomic coordinate data resulting 
# from the CCDC's data processing and validation procedures.
#
#######################################################################

data_ELAQAJ
_chemical_formula_moiety         'C12 H15 N1 O1'
_chemical_name_systematic        
(E)-N-(2-Methylphenyl)-N-(1-propenyl)ethanamide
_symmetry_cell_setting           monoclinic
_symmetry_space_group_name_H-M   'P 21/n'
_symmetry_Int_Tables_number      14
_space_group_name_Hall           '-P 2yn'
loop_
_symmetry_equiv_pos_site_id
_symmetry_equiv_pos_as_xyz
1 x,y,z
2 1/2+x,1/2-y,1/2+z
3 -x,-y,-z
4 1/2-x,1/2+y,1/2-z
_cell_length_a                   10.191(2)
_cell_length_b                   7.3475(15)
_cell_length_c                   15.187(3)
_cell_angle_alpha                90
_cell_angle_beta                 107.07(3)
_cell_angle_gamma                90
_cell_volume                     1087.08
_exptl_crystal_colour            colorless
_exptl_crystal_description       prism
_cell_formula_units_Z            4
loop_
_atom_site_label
_atom_site_type_symbol
_atom_site_fract_x
_atom_site_fract_y
_atom_site_fract_z
N1 N 0.18874(17) 0.1999(2) 0.46646(10)
O1 O 0.1245(2) -0.0740(2) 0.40066(12)
C1 C 0.1538(2) 0.2868(3) 0.38006(14)
H1 H 0.1192 0.2134 0.3285
C2 C 0.1614(2) 0.3796(3) 0.59387(14)
H2 H 0.0675 0.3578 0.5725
C3 C 0.3878(2) 0.3369(3) 0.57814(13)
C4 C 0.2470(2) 0.3064(3) 0.54807(12)
C5 C 0.4377(2) 0.4447(3) 0.65613(14)
H3 H 0.5314 0.4686 0.6775
C6 C 0.1651(2) 0.4603(3) 0.36520(14)
H4 H 0.1984 0.5362 0.4158
C7 C 0.1720(2) 0.0145(3) 0.47039(15)
C8 C 0.2143(3) 0.4851(3) 0.67133(15)
H5 H 0.1562 0.5345 0.7022
C9 C 0.3526(3) 0.5168(3) 0.70244(14)
H6 H 0.3890 0.5871 0.7549
C10 C 0.2143(3) -0.0728(3) 0.56272(17)
H7 H 0.1974 -0.2013 0.5562
H8 H 0.1626 -0.0215 0.6003
H9 H 0.3104 -0.0518 0.5913
C11 C 0.4824(2) 0.2573(4) 0.52957(17)
H10 H 0.5750 0.2934 0.5605
H11 H 0.4571 0.3003 0.4671
H12 H 0.4759 0.1270 0.5298
C12 C 0.1275(3) 0.5437(4) 0.27123(16)
H13 H 0.1445 0.6723 0.2766
H14 H 0.0320 0.5224 0.2407
H15 H 0.1819 0.4898 0.2361
loop_
_geom_bond_atom_site_label_1
_geom_bond_atom_site_label_2
_geom_bond_site_symmetry_1
_geom_bond_site_symmetry_2
N1 C1 1_555 1_555
O1 C7 1_555 1_555
C1 H1 1_555 1_555
C2 H2 1_555 1_555
C3 C4 1_555 1_555
C4 N1 1_555 1_555
C5 C3 1_555 1_555
H3 C5 1_555 1_555
C6 C1 1_555 1_555
H4 C6 1_555 1_555
C7 N1 1_555 1_555
C8 C2 1_555 1_555
H5 C8 1_555 1_555
C9 C5 1_555 1_555
H6 C9 1_555 1_555
C10 C7 1_555 1_555
H7 C10 1_555 1_555
H8 C10 1_555 1_555
H9 C10 1_555 1_555
C11 C3 1_555 1_555
H10 C11 1_555 1_555
H11 C11 1_555 1_555
H12 C11 1_555 1_555
C12 C6 1_555 1_555
H13 C12 1_555 1_555
H14 C12 1_555 1_555
H15 C12 1_555 1_555
C2 C4 1_555 1_555
C8 C9 1_555 1_555

#END
