
#######################################################################
#
#                 Cambridge Crystallographic Data Centre
#                                CCDC 
#
#######################################################################
#
# If this CIF has been generated from an entry in the Cambridge 
# Structural Database, then it will include bibliographic, chemical, 
# crystal, experimental, refinement or atomic coordinate data resulting 
# from the CCDC's data processing and validation procedures.
#
#######################################################################

data_ELARUF
_chemical_formula_moiety         
'0.5(C10 H20 N1 O2),C12 H8 N2 O6 S2 2-,2(C1 H6 N3 1+),0.5(C1 H4 O1)'
_chemical_name_systematic        
"bis(guanidinium) 4,4'-diazene-1,2-diyldibenzenesulfonate hemikis(4-methoxy-2,2,6,6-tetramethylpiperidine-1-oxyl) methanol solvate"
_symmetry_cell_setting           triclinic
_symmetry_space_group_name_H-M   'P -1'
_symmetry_Int_Tables_number      2
_space_group_name_Hall           '-P 1'
loop_
_symmetry_equiv_pos_site_id
_symmetry_equiv_pos_as_xyz
1 x,y,z
2 -x,-y,-z
_cell_length_a                   7.3720(16)
_cell_length_b                   16.324(4)
_cell_length_c                   24.346(5)
_cell_angle_alpha                72.595(4)
_cell_angle_beta                 89.618(4)
_cell_angle_gamma                85.998(4)
_cell_volume                     2788.54
_exptl_crystal_colour            orange
_exptl_crystal_description       slab
_cell_formula_units_Z            4
loop_
_atom_site_label
_atom_site_type_symbol
_atom_site_fract_x
_atom_site_fract_y
_atom_site_fract_z
C1 C 0.9727(3) 0.04947(13) 0.11977(9)
N1 N 1.1279(2) 0.04711(11) 0.09290(8)
H1 H 1.1284 0.0442 0.0574
H2 H 1.2311 0.0485 0.1105
N2 N 0.8186(2) 0.04739(11) 0.09326(8)
H3 H 0.8196 0.0444 0.0578
H4 H 0.7147 0.0489 0.1111
N3 N 0.9708(3) 0.05188(13) 0.17389(8)
H5 H 1.0737 0.0519 0.1920
H6 H 0.8667 0.0534 0.1916
C2 C 0.4539(3) 0.14032(14) 0.34948(9)
N4 N 0.4516(3) 0.13959(13) 0.40410(8)
H7 H 0.5537 0.1419 0.4219
H8 H 0.3480 0.1368 0.4225
N5 N 0.6097(2) 0.14454(11) 0.32212(8)
H9 H 0.6115 0.1464 0.2856
H10 H 0.7118 0.1455 0.3404
N6 N 0.2995(3) 0.13884(12) 0.32237(8)
H11 H 0.3004 0.1407 0.2859
H12 H 0.1960 0.1360 0.3408
C3 C 0.5048(3) 0.86372(14) 0.15139(10)
N7 N 0.6588(3) 0.86189(12) 0.17871(8)
H13 H 0.6583 0.8595 0.2153
H14 H 0.7624 0.8631 0.1604
N8 N 0.5053(3) 0.86551(14) 0.09624(8)
H15 H 0.6089 0.8655 0.0781
H16 H 0.4020 0.8667 0.0780
N9 N 0.3481(3) 0.86194(11) 0.17832(8)
H17 H 0.3463 0.8595 0.2149
H18 H 0.2457 0.8632 0.1597
C4 C 0.9853(3) 0.95688(13) 0.37883(9)
N10 N 0.9831(3) 0.95501(13) 0.32487(8)
H19 H 1.0858 0.9543 0.3063
H20 H 0.8791 0.9545 0.3075
N11 N 1.1388(2) 0.95766(11) 0.40508(8)
H21 H 1.2422 0.9569 0.3869
H22 H 1.1389 0.9589 0.4410
N12 N 0.8297(2) 0.95894(11) 0.40641(8)
H23 H 0.8304 0.9608 0.4422
H24 H 0.7258 0.9584 0.3889
C5 C 0.4630(3) 0.23146(15) 0.11984(10)
C6 C 0.4421(4) 0.23898(16) 0.06233(11)
H25 H 0.4241 0.1896 0.0506
C7 C 0.4475(4) 0.31859(18) 0.02186(12)
H26 H 0.4331 0.3239 -0.0178
C8 C 0.4735(4) 0.38991(17) 0.03843(12)
C9 C 0.4933(4) 0.38322(17) 0.09537(13)
H27 H 0.5111 0.4329 0.1068
C10 C 0.4871(5) 0.30341(17) 0.13635(12)
H28 H 0.4995 0.2985 0.1760
N13 N 0.4821(3) 0.46961(13) -0.00827(10)
S1 S 0.46121(8) 0.13027(4) 0.17290(2)
O1 O 0.6215(2) 0.12269(10) 0.20870(7)
O2 O 0.4675(2) 0.06618(9) 0.14215(6)
O3 O 0.2939(2) 0.13157(10) 0.20462(7)
C5A C 0.5370(3) 0.76854(15) -0.11984(10)
C6A C 0.5579(4) 0.76102(16) -0.06233(11)
H25A H 0.5759 0.8104 -0.0506
C7A C 0.5525(4) 0.68141(18) -0.02186(12)
H26A H 0.5669 0.6761 0.0178
C8A C 0.5265(4) 0.61009(17) -0.03843(12)
C9A C 0.5067(4) 0.61678(17) -0.09537(13)
H27A H 0.4889 0.5671 -0.1068
C10A C 0.5129(5) 0.69659(17) -0.13635(12)
H28A H 0.5005 0.7015 -0.1760
N13A N 0.5179(3) 0.53039(13) 0.00827(10)
S1A S 0.53879(8) 0.86973(4) -0.17290(2)
O1A O 0.3785(2) 0.87731(10) -0.20870(7)
O2A O 0.5325(2) 0.93382(9) -0.14215(6)
O3A O 0.7061(2) 0.86843(10) -0.20462(7)
C11 C 0.9670(3) 0.25667(13) 0.45072(10)
C12 C 0.9191(4) 0.33045(16) 0.40735(11)
H29 H 0.8840 0.3275 0.3706
C13 C 0.9224(4) 0.41001(16) 0.41762(12)
H30 H 0.8860 0.4614 0.3881
C14 C 0.9785(3) 0.41404(15) 0.47072(11)
C15 C 1.0272(4) 0.34011(15) 0.51389(12)
H31 H 1.0644 0.3429 0.5505
C16 C 1.0219(4) 0.26130(15) 0.50375(11)
H32 H 1.0563 0.2099 0.5335
N14 N 0.9775(3) 0.49945(12) 0.47578(8)
S2 S 0.95387(8) 0.15459(3) 0.44025(2)
O4 O 0.9493(2) 0.16914(9) 0.37828(6)
O5 O 1.1144(2) 0.10233(9) 0.46826(6)
O6 O 0.7871(2) 0.12114(10) 0.46797(6)
C11A C 1.0330(3) 0.74333(13) 0.54928(10)
C12A C 1.0809(4) 0.66955(16) 0.59265(11)
H29A H 1.1160 0.6725 0.6294
C13A C 1.0776(4) 0.58999(16) 0.58238(12)
H30A H 1.1140 0.5386 0.6119
C14A C 1.0215(3) 0.58596(15) 0.52928(11)
C15A C 0.9728(4) 0.65989(15) 0.48611(12)
H31A H 0.9356 0.6571 0.4495
C16A C 0.9781(4) 0.73870(15) 0.49625(11)
H32A H 0.9437 0.7901 0.4665
N14A N 1.0225(3) 0.50055(12) 0.52422(8)
S2A S 1.04613(8) 0.84541(3) 0.55975(2)
O4A O 1.0507(2) 0.83086(9) 0.62172(6)
O5A O 0.8856(2) 0.89767(9) 0.53174(6)
O6A O 1.2129(2) 0.87886(10) 0.53203(6)
C17 C 0.0057(3) 0.74332(13) 0.05054(10)
C18 C 0.0650(4) 0.73288(15) -0.00110(10)
H33 H 0.1106 0.7800 -0.0297
C19 C 0.0584(4) 0.65478(15) -0.01125(11)
H34 H 0.0979 0.6480 -0.0470
C20 C -0.0059(3) 0.58632(15) 0.03066(11)
C21 C -0.0634(4) 0.59563(16) 0.08218(12)
H35 H -0.1072 0.5481 0.1109
C22 C -0.0577(4) 0.67476(15) 0.09251(11)
H36 H -0.0972 0.6814 0.1282
N15 N -0.0167(3) 0.50146(13) 0.02471(8)
S3 S 0.00640(8) 0.84568(3) 0.06142(2)
O7 O 0.1686(2) 0.88384(9) 0.03368(6)
O8 O -0.1590(2) 0.89353(10) 0.03368(6)
O9 O 0.0078(2) 0.83101(9) 0.12355(6)
C17A C -0.0057(3) 0.25668(13) -0.05054(10)
C18A C -0.0650(4) 0.26712(15) 0.00110(10)
H33A H -0.1106 0.2200 0.0297
C19A C -0.0584(4) 0.34522(15) 0.01125(11)
H34A H -0.0979 0.3520 0.0470
C20A C 0.0059(3) 0.41368(15) -0.03066(11)
C21A C 0.0634(4) 0.40437(16) -0.08218(12)
H35A H 0.1072 0.4519 -0.1109
C22A C 0.0577(4) 0.32524(15) -0.09251(11)
H36A H 0.0972 0.3186 -0.1282
N15A N 0.0167(3) 0.49854(13) -0.02471(8)
S3A S -0.00640(8) 0.15432(3) -0.06142(2)
O7A O -0.1686(2) 0.11616(9) -0.03368(6)
O8A O 0.1590(2) 0.10647(10) -0.03368(6)
O9A O -0.0078(2) 0.16899(9) -0.12355(6)
C23 C 0.5045(3) 0.77142(14) 0.38233(10)
C24 C 0.5465(4) 0.69778(17) 0.36719(12)
H37 H 0.5770 0.7017 0.3286
C25 C 0.5444(4) 0.61758(17) 0.40826(13)
H38 H 0.5729 0.5667 0.3977
C26 C 0.5016(3) 0.61207(16) 0.46354(12)
C27 C 0.4644(4) 0.68536(17) 0.47882(12)
H39 H 0.4377 0.6812 0.5177
C28 C 0.4652(4) 0.76520(16) 0.43854(11)
H40 H 0.4386 0.8158 0.4496
N16 N 0.4949(3) 0.53186(12) 0.50869(10)
S4 S 0.49874(8) 0.87225(4) 0.32825(2)
O10 O 0.6641(2) 0.87176(10) 0.29556(7)
O11 O 0.3351(2) 0.87733(10) 0.29375(7)
O12 O 0.4907(2) 0.93742(9) 0.35828(6)
C23A C 0.4955(3) 0.22858(14) 0.61767(10)
C24A C 0.4535(4) 0.30222(17) 0.63281(12)
H37A H 0.4230 0.2983 0.6714
C25A C 0.4556(4) 0.38242(17) 0.59174(13)
H38A H 0.4271 0.4333 0.6023
C26A C 0.4984(3) 0.38793(16) 0.53646(12)
C27A C 0.5356(4) 0.31464(17) 0.52118(12)
H39A H 0.5623 0.3188 0.4823
C28A C 0.5348(4) 0.23480(16) 0.56146(11)
H40A H 0.5614 0.1842 0.5504
N16A N 0.5051(3) 0.46814(12) 0.49131(10)
S4A S 0.50126(8) 0.12775(4) 0.67175(2)
O10A O 0.3359(2) 0.12824(10) 0.70444(7)
O11A O 0.6649(2) 0.12267(10) 0.70625(7)
O12A O 0.5093(2) 0.06258(9) 0.64172(6)
C29 C 0.4316(5) 0.5853(2) 0.20421(18)
C30 C 0.2557(6) 0.6224(2) 0.22380(18)
H41 H 0.2656 0.6849 0.2165
H42 H 0.1552 0.6157 0.1991
C31 C 0.2046(5) 0.5861(2) 0.28354(16)
H43 H 0.3023 0.5936 0.3096
C32 C 0.1867(7) 0.4929(3) 0.2924(2)
H44 H 0.0961 0.4869 0.2643
H45 H 0.1385 0.4674 0.3314
C33 C 0.3627(9) 0.4411(3) 0.2863(2)
C34 C 0.0420(6) 0.7031(2) 0.3023(2)
H46 H 0.1165 0.7000 0.3361
H47 H -0.0819 0.7255 0.3072
H48 H 0.0946 0.7414 0.2679
C35 C 0.6004(7) 0.6141(3) 0.2275(3)
H49 H 0.6040 0.5916 0.2696
H50 H 0.5956 0.6771 0.2158
H51 H 0.7097 0.5921 0.2119
C36 C 0.4382(7) 0.6061(3) 0.1417(2)
H52 H 0.5561 0.5848 0.1307
H53 H 0.4222 0.6686 0.1244
H54 H 0.3407 0.5788 0.1281
C37 C 0.5156(11) 0.4338(4) 0.3297(2)
H55 H 0.6254 0.4059 0.3183
H56 H 0.4789 0.3993 0.3680
H57 H 0.5408 0.4914 0.3309
C38 C 0.3338(11) 0.3574(3) 0.2832(3)
H58 H 0.4468 0.3317 0.2721
H59 H 0.2383 0.3614 0.2545
H60 H 0.2963 0.3215 0.3209
N17 N 0.4367(5) 0.48983(19) 0.22794(14)
O13 O 0.5625(5) 0.44707(18) 0.20649(13)
O14 O 0.0374(4) 0.62294(17) 0.29629(13)
C39 C 0.9398(10) 0.3205(5) 0.2015(4)
H61 H 1.0698 0.3027 0.2069
H62 H 0.9067 0.3335 0.1607
H63 H 0.8692 0.2738 0.2244
O15 O 0.9016(11) 0.3948(4) 0.2194(4)
H64 H 0.8106 0.3879 0.2409
loop_
_geom_bond_atom_site_label_1
_geom_bond_atom_site_label_2
_geom_bond_site_symmetry_1
_geom_bond_site_symmetry_2
C1 N1 1_555 1_555
N1 H1 1_555 1_555
H2 N1 1_555 1_555
N2 C1 1_555 1_555
H3 N2 1_555 1_555
H4 N2 1_555 1_555
N3 C1 1_555 1_555
H5 N3 1_555 1_555
H6 N3 1_555 1_555
C2 N4 1_555 1_555
N4 H7 1_555 1_555
H8 N4 1_555 1_555
N5 C2 1_555 1_555
H9 N5 1_555 1_555
H10 N5 1_555 1_555
N6 C2 1_555 1_555
H11 N6 1_555 1_555
H12 N6 1_555 1_555
C3 N7 1_555 1_555
N7 H13 1_555 1_555
H14 N7 1_555 1_555
N8 C3 1_555 1_555
H15 N8 1_555 1_555
H16 N8 1_555 1_555
N9 C3 1_555 1_555
H17 N9 1_555 1_555
H18 N9 1_555 1_555
C4 N10 1_555 1_555
N10 H19 1_555 1_555
H20 N10 1_555 1_555
N11 C4 1_555 1_555
H21 N11 1_555 1_555
H22 N11 1_555 1_555
N12 C4 1_555 1_555
H23 N12 1_555 1_555
H24 N12 1_555 1_555
C5 C6 1_555 1_555
C6 H25 1_555 1_555
C7 C6 1_555 1_555
H26 C7 1_555 1_555
C8 C7 1_555 1_555
C9 C8 1_555 1_555
H27 C9 1_555 1_555
C10 C5 1_555 1_555
H28 C10 1_555 1_555
N13 C8 1_555 1_555
S1 C5 1_555 1_555
O1 S1 1_555 1_555
O2 S1 1_555 1_555
O3 S1 1_555 1_555
C11 C12 1_555 1_555
C12 H29 1_555 1_555
C13 C12 1_555 1_555
H30 C13 1_555 1_555
C14 C13 1_555 1_555
C15 C14 1_555 1_555
H31 C15 1_555 1_555
C16 C11 1_555 1_555
H32 C16 1_555 1_555
N14 C14 1_555 1_555
S2 C11 1_555 1_555
O4 S2 1_555 1_555
O5 S2 1_555 1_555
O6 S2 1_555 1_555
C17 C18 1_555 1_555
C18 H33 1_555 1_555
C19 C18 1_555 1_555
H34 C19 1_555 1_555
C20 C19 1_555 1_555
C21 C20 1_555 1_555
H35 C21 1_555 1_555
C22 C17 1_555 1_555
H36 C22 1_555 1_555
N15 C20 1_555 1_555
S3 C17 1_555 1_555
O7 S3 1_555 1_555
O8 S3 1_555 1_555
O9 S3 1_555 1_555
C23 C24 1_555 1_555
C24 H37 1_555 1_555
C25 C24 1_555 1_555
H38 C25 1_555 1_555
C26 C25 1_555 1_555
C27 C26 1_555 1_555
H39 C27 1_555 1_555
C28 C23 1_555 1_555
H40 C28 1_555 1_555
N16 C26 1_555 1_555
S4 C23 1_555 1_555
O10 S4 1_555 1_555
O11 S4 1_555 1_555
O12 S4 1_555 1_555
C29 C30 1_555 1_555
C30 H41 1_555 1_555
H42 C30 1_555 1_555
C31 C30 1_555 1_555
H43 C31 1_555 1_555
C32 C31 1_555 1_555
H44 C32 1_555 1_555
H45 C32 1_555 1_555
C33 C32 1_555 1_555
C34 H46 1_555 1_555
H47 C34 1_555 1_555
H48 C34 1_555 1_555
C35 C29 1_555 1_555
H49 C35 1_555 1_555
H50 C35 1_555 1_555
H51 C35 1_555 1_555
C36 C29 1_555 1_555
H52 C36 1_555 1_555
H53 C36 1_555 1_555
H54 C36 1_555 1_555
C37 C33 1_555 1_555
H55 C37 1_555 1_555
H56 C37 1_555 1_555
H57 C37 1_555 1_555
C38 C33 1_555 1_555
H58 C38 1_555 1_555
H59 C38 1_555 1_555
H60 C38 1_555 1_555
N17 C29 1_555 1_555
O13 N17 1_555 1_555
O14 C31 1_555 1_555
C39 H61 1_555 1_555
H62 C39 1_555 1_555
H63 C39 1_555 1_555
O15 C39 1_555 1_555
H64 O15 1_555 1_555
C5A C6A 1_555 1_555
C6A H25A 1_555 1_555
C7A C6A 1_555 1_555
H26A C7A 1_555 1_555
C8A C7A 1_555 1_555
C9A C8A 1_555 1_555
H27A C9A 1_555 1_555
C10A C5A 1_555 1_555
H28A C10A 1_555 1_555
N13A N13 1_555 1_555
S1A C5A 1_555 1_555
O1A S1A 1_555 1_555
O2A S1A 1_555 1_555
O3A S1A 1_555 1_555
C11A C12A 1_555 1_555
C12A H29A 1_555 1_555
C13A C12A 1_555 1_555
H30A C13A 1_555 1_555
C14A C13A 1_555 1_555
C15A C14A 1_555 1_555
H31A C15A 1_555 1_555
C16A C11A 1_555 1_555
H32A C16A 1_555 1_555
N14A N14 1_555 1_555
S2A C11A 1_555 1_555
O4A S2A 1_555 1_555
O5A S2A 1_555 1_555
O6A S2A 1_555 1_555
C17A C18A 1_555 1_555
C18A H33A 1_555 1_555
C19A C18A 1_555 1_555
H34A C19A 1_555 1_555
C20A C19A 1_555 1_555
C21A C20A 1_555 1_555
H35A C21A 1_555 1_555
C22A C17A 1_555 1_555
H36A C22A 1_555 1_555
N15A N15 1_555 1_555
S3A C17A 1_555 1_555
O7A S3A 1_555 1_555
O8A S3A 1_555 1_555
O9A S3A 1_555 1_555
C23A C24A 1_555 1_555
C24A H37A 1_555 1_555
C25A C24A 1_555 1_555
H38A C25A 1_555 1_555
C26A C25A 1_555 1_555
C27A C26A 1_555 1_555
H39A C27A 1_555 1_555
C28A C23A 1_555 1_555
H40A C28A 1_555 1_555
N16A N16 1_555 1_555
S4A C23A 1_555 1_555
O10A S4A 1_555 1_555
O11A S4A 1_555 1_555
O12A S4A 1_555 1_555
C9 C10 1_555 1_555
C15 C16 1_555 1_555
C21 C22 1_555 1_555
C27 C28 1_555 1_555
C33 N17 1_555 1_555
C34 O14 1_555 1_555
C8A N13A 1_555 1_555
C9A C10A 1_555 1_555
C14A N14A 1_555 1_555
C15A C16A 1_555 1_555
C20A N15A 1_555 1_555
C21A C22A 1_555 1_555
C26A N16A 1_555 1_555
C27A C28A 1_555 1_555

#END
