
#######################################################################
#
#                 Cambridge Crystallographic Data Centre
#                                CCDC 
#
#######################################################################
#
# If this CIF has been generated from an entry in the Cambridge 
# Structural Database, then it will include bibliographic, chemical, 
# crystal, experimental, refinement or atomic coordinate data resulting 
# from the CCDC's data processing and validation procedures.
#
#######################################################################

data_ELIDEK
_chemical_formula_moiety         'C20 H20 Br1 N1 Si1'
_chemical_name_systematic        3-Bromo-4-(diphenylsilyl)-N,N-dimethylaniline
_symmetry_cell_setting           monoclinic
_symmetry_space_group_name_H-M   'P 21/n'
_symmetry_Int_Tables_number      14
_space_group_name_Hall           '-P 2yn'
loop_
_symmetry_equiv_pos_site_id
_symmetry_equiv_pos_as_xyz
1 x,y,z
2 1/2-x,1/2+y,1/2-z
3 -x,-y,-z
4 1/2+x,1/2-y,1/2+z
_cell_length_a                   10.2159(5)
_cell_length_b                   9.5700(4)
_cell_length_c                   19.2612(10)
_cell_angle_alpha                90
_cell_angle_beta                 93.705(2)
_cell_angle_gamma                90
_cell_volume                     1879.16
_exptl_crystal_colour            colorless
_exptl_crystal_description       block
_cell_formula_units_Z            4
loop_
_atom_site_label
_atom_site_type_symbol
_atom_site_fract_x
_atom_site_fract_y
_atom_site_fract_z
N1 N 0.5267(2) 0.3515(2) -0.09924(11)
Si1 Si 0.91959(6) 0.39010(6) 0.15175(3)
Br1 Br 0.74394(3) 0.09484(3) 0.116599(14)
C1 C 0.7916(2) 0.3774(2) 0.07843(11)
C2 C 0.7192(2) 0.2588(2) 0.06063(11)
C3 C 0.6307(2) 0.2477(2) 0.00431(11)
H1 H 0.5850 0.1647 -0.0040
C4 C 0.6091(2) 0.3619(2) -0.04069(11)
C5 C 0.6779(2) 0.4851(2) -0.02341(12)
H2 H 0.6643 0.5641 -0.0511
C6 C 0.7651(2) 0.4908(2) 0.03373(11)
H3 H 0.8090 0.5745 0.0433
C7 C 0.4496(3) 0.2283(3) -0.11298(17)
H4 H 0.5063 0.1515 -0.1223
H5 H 0.3895 0.2440 -0.1526
H6 H 0.4013 0.2068 -0.0732
C8 C 0.5136(3) 0.4655(3) -0.14832(15)
H7 H 0.4772 0.5453 -0.1263
H8 H 0.4565 0.4380 -0.1875
H9 H 0.5982 0.4891 -0.1638
C9 C 0.9661(2) 0.5774(2) 0.16267(11)
C10 C 0.8940(2) 0.6672(3) 0.20225(12)
H10 H 0.8254 0.6315 0.2264
C11 C 0.9220(3) 0.8079(3) 0.20652(15)
H11 H 0.8713 0.8658 0.2328
C12 C 1.0225(3) 0.8628(3) 0.17286(16)
H12 H 1.0416 0.9576 0.1764
C13 C 1.0955(3) 0.7770(3) 0.13361(16)
H13 H 1.1642 0.8139 0.1101
C14 C 1.0678(3) 0.6364(3) 0.12871(15)
H14 H 1.1187 0.5798 0.1019
C15 C 1.0667(2) 0.2828(2) 0.13361(12)
C16 C 1.1683(3) 0.2652(3) 0.18453(17)
H15 H 1.1616 0.3051 0.2282
C17 C 1.2787(3) 0.1896(4) 0.1714(2)
H16 H 1.3458 0.1793 0.2059
C18 C 1.2898(3) 0.1302(3) 0.1082(3)
H17 H 1.3647 0.0793 0.0997
C19 C 1.1923(3) 0.1441(3) 0.0569(2)
H18 H 1.2004 0.1027 0.0137
C20 C 1.0807(3) 0.2208(3) 0.06969(14)
H19 H 1.0143 0.2304 0.0346
H20 H 0.869(2) 0.347(3) 0.2145(13)
loop_
_geom_bond_atom_site_label_1
_geom_bond_atom_site_label_2
_geom_bond_site_symmetry_1
_geom_bond_site_symmetry_2
N1 C4 1_555 1_555
Si1 C1 1_555 1_555
Br1 C2 1_555 1_555
C1 C2 1_555 1_555
C2 C3 1_555 1_555
C3 H1 1_555 1_555
C4 C3 1_555 1_555
C5 C4 1_555 1_555
H2 C5 1_555 1_555
C6 C1 1_555 1_555
H3 C6 1_555 1_555
C7 N1 1_555 1_555
H4 C7 1_555 1_555
H5 C7 1_555 1_555
H6 C7 1_555 1_555
C8 N1 1_555 1_555
H7 C8 1_555 1_555
H8 C8 1_555 1_555
H9 C8 1_555 1_555
C9 Si1 1_555 1_555
C10 C9 1_555 1_555
H10 C10 1_555 1_555
C11 C10 1_555 1_555
H11 C11 1_555 1_555
C12 C11 1_555 1_555
H12 C12 1_555 1_555
C13 C12 1_555 1_555
H13 C13 1_555 1_555
C14 C9 1_555 1_555
H14 C14 1_555 1_555
C15 Si1 1_555 1_555
C16 C15 1_555 1_555
H15 C16 1_555 1_555
C17 C16 1_555 1_555
H16 C17 1_555 1_555
C18 C17 1_555 1_555
H17 C18 1_555 1_555
C19 C18 1_555 1_555
H18 C19 1_555 1_555
C20 C15 1_555 1_555
H19 C20 1_555 1_555
H20 Si1 1_555 1_555
C5 C6 1_555 1_555
C13 C14 1_555 1_555
C19 C20 1_555 1_555

#END
