
#######################################################################
#
#                 Cambridge Crystallographic Data Centre
#                                CCDC 
#
#######################################################################
#
# If this CIF has been generated from an entry in the Cambridge 
# Structural Database, then it will include bibliographic, chemical, 
# crystal, experimental, refinement or atomic coordinate data resulting 
# from the CCDC's data processing and validation procedures.
#
#######################################################################

data_ELIROI
_chemical_formula_moiety         'C30 H23 N2 O2 P1 S1'
_chemical_name_systematic        
((2-((4-nitrophenyl)sulfanyl)phenyl)imino)(triphenyl)phosphorane
_symmetry_cell_setting           monoclinic
_symmetry_space_group_name_H-M   'P 21/c'
_symmetry_Int_Tables_number      14
_space_group_name_Hall           '-P 2ybc'
loop_
_symmetry_equiv_pos_site_id
_symmetry_equiv_pos_as_xyz
1 x,y,z
2 -x,1/2+y,1/2-z
3 -x,-y,-z
4 x,1/2-y,1/2+z
_cell_length_a                   10.433(2)
_cell_length_b                   18.135(4)
_cell_length_c                   14.028(3)
_cell_angle_alpha                90
_cell_angle_beta                 105.099(4)
_cell_angle_gamma                90
_cell_volume                     2562.5
_exptl_crystal_colour            orange
_exptl_crystal_description       prism
_cell_formula_units_Z            4
loop_
_atom_site_label
_atom_site_type_symbol
_atom_site_fract_x
_atom_site_fract_y
_atom_site_fract_z
P1 P 0.53939(6) 0.68223(3) 0.19458(5)
S1 S 0.88391(7) 0.53107(4) 0.28265(6)
O1 O 1.0925(3) 0.75378(16) 0.6661(2)
O2 O 0.9762(3) 0.67783(17) 0.72670(19)
N1 N 0.6814(2) 0.64730(12) 0.21500(15)
N2 N 1.0182(3) 0.70117(17) 0.6587(2)
C1 C 0.7597(2) 0.63742(14) 0.15092(19)
C2 C 0.8676(2) 0.58810(14) 0.1790(2)
C3 C 0.9501(3) 0.57503(18) 0.1174(3)
H1 H 1.0213 0.5427 0.1374
C4 C 0.9276(4) 0.6094(2) 0.0270(3)
H2 H 0.9827 0.6001 -0.0142
C5 C 0.8236(4) 0.6570(2) -0.0014(2)
H3 H 0.8073 0.6798 -0.0628
C6 C 0.7423(3) 0.67216(17) 0.0593(2)
H4 H 0.6741 0.7063 0.0389
C7 C 0.9132(2) 0.58869(14) 0.3868(2)
C8 C 0.9745(3) 0.65693(14) 0.3930(2)
H5 H 0.9926 0.6778 0.3373
C9 C 1.0086(3) 0.69366(15) 0.4817(2)
H6 H 1.0518 0.7389 0.4868
C10 C 0.9784(3) 0.66301(16) 0.5632(2)
C11 C 0.9123(3) 0.59738(17) 0.5570(2)
H7 H 0.8892 0.5783 0.6117
C12 C 0.8806(3) 0.56028(15) 0.4691(2)
H8 H 0.8365 0.5153 0.4645
C13 C 0.4249(2) 0.65797(13) 0.07830(18)
C14 C 0.4065(3) 0.58342(14) 0.0575(2)
H9 H 0.4537 0.5487 0.1017
C15 C 0.3185(3) 0.56063(17) -0.0284(2)
H10 H 0.3048 0.5106 -0.0414
C16 C 0.2512(3) 0.61145(18) -0.0945(2)
H11 H 0.1913 0.5957 -0.1523
C17 C 0.2709(3) 0.68500(17) -0.0766(2)
H12 H 0.2257 0.7192 -0.1226
C18 C 0.3585(3) 0.70862(14) 0.01003(19)
H13 H 0.3725 0.7588 0.0221
C19 C 0.4680(2) 0.64664(12) 0.28938(18)
C20 C 0.5507(3) 0.63362(15) 0.3821(2)
H14 H 0.6407 0.6447 0.3951
C21 C 0.5002(3) 0.60419(17) 0.4554(2)
H15 H 0.5564 0.5950 0.5175
C22 C 0.3684(4) 0.58849(16) 0.4371(3)
H16 H 0.3350 0.5685 0.4867
C23 C 0.2852(3) 0.60186(16) 0.3465(3)
H17 H 0.1952 0.5912 0.3346
C24 C 0.3343(3) 0.63125(14) 0.2721(2)
H18 H 0.2771 0.6407 0.2104
C25 C 0.5382(3) 0.78165(13) 0.20660(18)
C26 C 0.6572(3) 0.81908(16) 0.2198(2)
H19 H 0.7345 0.7932 0.2208
C27 C 0.6613(4) 0.89424(19) 0.2315(2)
H20 H 0.7414 0.9192 0.2406
C28 C 0.5475(5) 0.93254(18) 0.2298(2)
H21 H 0.5505 0.9836 0.2369
C29 C 0.4298(4) 0.89610(17) 0.2178(3)
H22 H 0.3530 0.9224 0.2170
C30 C 0.4243(3) 0.82020(15) 0.2067(2)
H23 H 0.3443 0.7954 0.1993
loop_
_geom_bond_atom_site_label_1
_geom_bond_atom_site_label_2
_geom_bond_site_symmetry_1
_geom_bond_site_symmetry_2
P1 N1 1_555 1_555
S1 C2 1_555 1_555
O1 N2 1_555 1_555
O2 N2 1_555 1_555
N1 C1 1_555 1_555
N2 C10 1_555 1_555
C1 C2 1_555 1_555
C2 C3 1_555 1_555
C3 H1 1_555 1_555
C4 C3 1_555 1_555
H2 C4 1_555 1_555
C5 C4 1_555 1_555
H3 C5 1_555 1_555
C6 C1 1_555 1_555
H4 C6 1_555 1_555
C7 S1 1_555 1_555
C8 C7 1_555 1_555
H5 C8 1_555 1_555
C9 C8 1_555 1_555
H6 C9 1_555 1_555
C10 C9 1_555 1_555
C11 C10 1_555 1_555
H7 C11 1_555 1_555
C12 C7 1_555 1_555
H8 C12 1_555 1_555
C13 P1 1_555 1_555
C14 C13 1_555 1_555
H9 C14 1_555 1_555
C15 C14 1_555 1_555
H10 C15 1_555 1_555
C16 C15 1_555 1_555
H11 C16 1_555 1_555
C17 C16 1_555 1_555
H12 C17 1_555 1_555
C18 C13 1_555 1_555
H13 C18 1_555 1_555
C19 P1 1_555 1_555
C20 C19 1_555 1_555
H14 C20 1_555 1_555
C21 C20 1_555 1_555
H15 C21 1_555 1_555
C22 C21 1_555 1_555
H16 C22 1_555 1_555
C23 C22 1_555 1_555
H17 C23 1_555 1_555
C24 C19 1_555 1_555
H18 C24 1_555 1_555
C25 P1 1_555 1_555
C26 C25 1_555 1_555
H19 C26 1_555 1_555
C27 C26 1_555 1_555
H20 C27 1_555 1_555
C28 C27 1_555 1_555
H21 C28 1_555 1_555
C29 C28 1_555 1_555
H22 C29 1_555 1_555
C30 C25 1_555 1_555
H23 C30 1_555 1_555
C5 C6 1_555 1_555
C11 C12 1_555 1_555
C17 C18 1_555 1_555
C23 C24 1_555 1_555
C29 C30 1_555 1_555

#END
