
#######################################################################
#
#                 Cambridge Crystallographic Data Centre
#                                CCDC 
#
#######################################################################
#
# If this CIF has been generated from an entry in the Cambridge 
# Structural Database, then it will include bibliographic, chemical, 
# crystal, experimental, refinement or atomic coordinate data resulting 
# from the CCDC's data processing and validation procedures.
#
#######################################################################

data_ELOCUF
_chemical_formula_moiety         'C30 H21 N3,C1 H1 Cl3'
_chemical_name_systematic        
'4-(1,10-phenanthrolin-3-yl)-N,N-diphenylaniline chloroform solvate'
_symmetry_cell_setting           triclinic
_symmetry_space_group_name_H-M   'P -1'
_symmetry_Int_Tables_number      2
_space_group_name_Hall           '-P 1'
loop_
_symmetry_equiv_pos_site_id
_symmetry_equiv_pos_as_xyz
1 x,y,z
2 -x,-y,-z
_cell_length_a                   9.1365(6)
_cell_length_b                   12.1552(9)
_cell_length_c                   13.9070(10)
_cell_angle_alpha                64.8010(10)
_cell_angle_beta                 72.9170(10)
_cell_angle_gamma                89.6090(10)
_cell_volume                     1323.28
_exptl_crystal_colour            yellow
_exptl_crystal_description       block
_cell_formula_units_Z            2
loop_
_atom_site_label
_atom_site_type_symbol
_atom_site_fract_x
_atom_site_fract_y
_atom_site_fract_z
C1 C 0.7302(2) 0.27682(18) 0.75372(16)
H1 H 0.6359 0.2607 0.8097
C2 C 0.8487(2) 0.35601(15) 0.74750(14)
C3 C 0.9865(2) 0.37687(17) 0.66405(15)
H2 H 1.0693 0.4275 0.6564
C4 C 1.0050(2) 0.32375(16) 0.59043(15)
C5 C 1.1464(2) 0.3454(2) 0.50143(17)
H3 H 1.2305 0.3963 0.4916
C6 C 1.1590(3) 0.2931(2) 0.43207(17)
H4 H 1.2518 0.3087 0.3749
C7 C 1.0335(2) 0.21438(18) 0.44418(15)
C8 C 1.0416(3) 0.1590(2) 0.37210(17)
H5 H 1.1317 0.1738 0.3130
C9 C 0.9173(3) 0.0840(2) 0.38933(19)
H6 H 0.9208 0.0482 0.3416
C10 C 0.7847(3) 0.0617(2) 0.47947(19)
H7 H 0.7015 0.0085 0.4913
C11 C 0.8922(2) 0.18881(16) 0.53137(15)
C12 C 0.8783(2) 0.24643(15) 0.60542(14)
C13 C 0.8209(2) 0.41428(16) 0.82513(14)
C14 C 0.6945(2) 0.37483(19) 0.92049(16)
H8 H 0.6246 0.3088 0.9374
C15 C 0.6674(2) 0.42913(18) 0.99193(16)
H9 H 0.5796 0.4004 1.0551
C16 C 0.7710(2) 0.52705(15) 0.96986(14)
C17 C 0.8995(2) 0.56674(16) 0.87432(15)
H10 H 0.9709 0.6316 0.8578
C18 C 0.9233(2) 0.51179(16) 0.80343(15)
H11 H 1.0101 0.5409 0.7396
C19 C 0.6932(2) 0.52524(16) 1.15781(14)
C20 C 0.6940(2) 0.39992(17) 1.21588(16)
H12 H 0.7281 0.3540 1.1765
C21 C 0.6441(3) 0.3428(2) 1.33216(17)
H13 H 0.6444 0.2587 1.3700
C22 C 0.5949(3) 0.4079(2) 1.39169(18)
H14 H 0.5631 0.3690 1.4697
C23 C 0.5929(3) 0.5328(2) 1.33463(19)
H15 H 0.5587 0.5780 1.3747
C24 C 0.6408(2) 0.59021(19) 1.22000(17)
H16 H 0.6383 0.6741 1.1829
C25 C 0.8040(2) 0.71619(15) 0.98588(14)
C26 C 0.9308(2) 0.75816(19) 1.00204(18)
H17 H 0.9793 0.7033 1.0491
C27 C 0.9849(3) 0.8821(2) 0.9478(2)
H18 H 1.0701 0.9105 0.9586
C28 C 0.9139(3) 0.96391(19) 0.87801(18)
H19 H 0.9508 1.0473 0.8420
C29 C 0.7895(3) 0.92267(18) 0.86180(17)
H20 H 0.7418 0.9779 0.8143
C30 C 0.7335(2) 0.79819(17) 0.91604(15)
H21 H 0.6480 0.7704 0.9050
N1 N 0.74165(18) 0.22386(14) 0.68734(13)
N2 N 0.7696(2) 0.11163(15) 0.54965(14)
N3 N 0.74687(19) 0.58742(13) 1.03952(12)
C31 C 0.5579(3) 0.95454(19) 0.25424(19)
H22 H 0.4499 0.9165 0.2937
Cl1 Cl 0.57330(10) 1.10182(6) 0.24701(7)
Cl2 Cl 0.61066(8) 0.96377(8) 0.11938(6)
Cl3 Cl 0.67218(9) 0.86445(7) 0.33006(8)
loop_
_geom_bond_atom_site_label_1
_geom_bond_atom_site_label_2
_geom_bond_site_symmetry_1
_geom_bond_site_symmetry_2
C1 H1 1_555 1_555
C2 C1 1_555 1_555
C3 C2 1_555 1_555
H2 C3 1_555 1_555
C4 C3 1_555 1_555
C5 C4 1_555 1_555
H3 C5 1_555 1_555
C6 C5 1_555 1_555
H4 C6 1_555 1_555
C7 C6 1_555 1_555
C8 C7 1_555 1_555
H5 C8 1_555 1_555
C9 C8 1_555 1_555
H6 C9 1_555 1_555
C10 C9 1_555 1_555
H7 C10 1_555 1_555
C11 C7 1_555 1_555
C12 C4 1_555 1_555
C13 C2 1_555 1_555
C14 C13 1_555 1_555
H8 C14 1_555 1_555
C15 C14 1_555 1_555
H9 C15 1_555 1_555
C16 C15 1_555 1_555
C17 C16 1_555 1_555
H10 C17 1_555 1_555
C18 C13 1_555 1_555
H11 C18 1_555 1_555
C19 C20 1_555 1_555
C20 H12 1_555 1_555
C21 C20 1_555 1_555
H13 C21 1_555 1_555
C22 C21 1_555 1_555
H14 C22 1_555 1_555
C23 C22 1_555 1_555
H15 C23 1_555 1_555
C24 C19 1_555 1_555
H16 C24 1_555 1_555
C25 C26 1_555 1_555
C26 H17 1_555 1_555
C27 C26 1_555 1_555
H18 C27 1_555 1_555
C28 C27 1_555 1_555
H19 C28 1_555 1_555
C29 C28 1_555 1_555
H20 C29 1_555 1_555
C30 C25 1_555 1_555
H21 C30 1_555 1_555
N1 C1 1_555 1_555
N2 C10 1_555 1_555
N3 C16 1_555 1_555
C31 H22 1_555 1_555
Cl1 C31 1_555 1_555
Cl2 C31 1_555 1_555
Cl3 C31 1_555 1_555
C11 C12 1_555 1_555
C11 N2 1_555 1_555
C12 N1 1_555 1_555
C17 C18 1_555 1_555
C19 N3 1_555 1_555
C23 C24 1_555 1_555
C25 N3 1_555 1_555
C29 C30 1_555 1_555

#END
