
#######################################################################
#
#                 Cambridge Crystallographic Data Centre
#                                CCDC 
#
#######################################################################
#
# If this CIF has been generated from an entry in the Cambridge 
# Structural Database, then it will include bibliographic, chemical, 
# crystal, experimental, refinement or atomic coordinate data resulting 
# from the CCDC's data processing and validation procedures.
#
#######################################################################

data_EMALEL
_chemical_formula_moiety         'C41 H41 N5 O2 S1'
_chemical_name_systematic        
1-(2-(3',6'-bis(diethylamino)-3-oxospiro[isoindole-1,9'-xanthen]-2(3H)-yl)phenyl)-3-phenylthiourea
_symmetry_cell_setting           monoclinic
_symmetry_space_group_name_H-M   'P 21/n'
_symmetry_Int_Tables_number      14
_space_group_name_Hall           '-P 2yn'
loop_
_symmetry_equiv_pos_site_id
_symmetry_equiv_pos_as_xyz
1 x,y,z
2 1/2-x,1/2+y,1/2-z
3 -x,-y,-z
4 1/2+x,1/2-y,1/2+z
_cell_length_a                   16.465(3)
_cell_length_b                   11.806(2)
_cell_length_c                   19.957(4)
_cell_angle_alpha                90
_cell_angle_beta                 112.354(3)
_cell_angle_gamma                90
_cell_volume                     3587.83
_exptl_crystal_description       block
_cell_formula_units_Z            4
_chemical_properties_physical    Air-sensitive
loop_
_atom_site_label
_atom_site_type_symbol
_atom_site_fract_x
_atom_site_fract_y
_atom_site_fract_z
S1 S 0.89582(6) 0.48698(8) 1.04401(6)
N1 N 0.93994(19) 0.3493(3) 0.96061(16)
H1 H 0.9809 0.3986 0.9679
N2 N 0.82874(17) 0.2838(2) 0.99217(14)
H2 H 0.8271 0.2289 0.9634
N3 N 0.65109(16) 0.2231(2) 0.91445(14)
N4 N 0.6720(3) 0.7603(3) 0.9167(3)
N5 N 0.2334(2) 0.2093(3) 0.8541(2)
O1 O 0.47278(16) 0.4604(2) 0.90018(15)
O2 O 0.75123(16) 0.0870(2) 0.91512(15)
C1 C 0.9275(3) 0.2912(4) 0.8422(2)
H3 H 0.9205 0.3671 0.8286
C2 C 0.9277(4) 0.2100(5) 0.7926(3)
H4 H 0.9221 0.2311 0.7462
C3 C 0.9362(3) 0.0986(5) 0.8121(3)
H5 H 0.9346 0.0436 0.7783
C4 C 0.9468(4) 0.0677(4) 0.8793(3)
H6 H 0.9535 -0.0084 0.8923
C5 C 0.9476(3) 0.1496(4) 0.9301(3)
H7 H 0.9551 0.1279 0.9769
C6 C 0.9376(2) 0.2612(3) 0.91149(19)
C7 C 0.8874(2) 0.3670(3) 0.99743(17)
C8 C 0.7696(2) 0.2762(3) 1.02846(18)
C9 C 0.7984(3) 0.2953(4) 1.1029(2)
H8 H 0.8563 0.3166 1.1289
C10 C 0.7419(3) 0.2830(5) 1.1380(2)
H9 H 0.7615 0.2965 1.1876
C11 C 0.6561(3) 0.2506(5) 1.1002(2)
H10 H 0.6179 0.2430 1.1243
C12 C 0.6265(2) 0.2296(4) 1.0267(2)
H11 H 0.5689 0.2064 1.0015
C13 C 0.6827(2) 0.2429(3) 0.99040(18)
C14 C 0.6893(2) 0.1506(3) 0.8823(2)
C15 C 0.6455(2) 0.1653(3) 0.80321(19)
C16 C 0.6593(3) 0.1087(4) 0.7479(2)
H12 H 0.7014 0.0519 0.7574
C17 C 0.6077(3) 0.1402(4) 0.6777(3)
H13 H 0.6142 0.1029 0.6389
C18 C 0.5467(3) 0.2265(4) 0.6645(2)
H14 H 0.5140 0.2474 0.6169
C19 C 0.5332(3) 0.2821(3) 0.7199(2)
H15 H 0.4915 0.3394 0.7105
C20 C 0.5838(2) 0.2500(3) 0.79022(18)
C21 C 0.5788(2) 0.2940(3) 0.85995(17)
C22 C 0.6011(2) 0.4182(3) 0.87356(17)
C23 C 0.6769(2) 0.4626(3) 0.86882(19)
H16 H 0.7130 0.4150 0.8552
C24 C 0.7004(2) 0.5739(3) 0.8835(2)
H17 H 0.7518 0.6000 0.8796
C25 C 0.6484(3) 0.6489(3) 0.9042(2)
C26 C 0.5729(2) 0.6050(3) 0.9100(2)
H18 H 0.5372 0.6518 0.9246
C27 C 0.5505(2) 0.4919(3) 0.89414(19)
C28 C 0.4411(2) 0.3531(3) 0.87901(17)
C29 C 0.3573(2) 0.3343(3) 0.87673(19)
H19 H 0.3274 0.3927 0.8887
C30 C 0.3167(2) 0.2289(3) 0.85673(19)
C31 C 0.3660(2) 0.1441(3) 0.8403(2)
H20 H 0.3423 0.0719 0.8280
C32 C 0.4483(2) 0.1659(3) 0.8421(2)
H21 H 0.4785 0.1078 0.8301
C33 C 0.4890(2) 0.2708(3) 0.86100(17)
C34 C 0.7431(3) 0.8106(4) 0.8972(4)
H22 H 0.7481 0.7694 0.8570
H23 H 0.7291 0.8889 0.8826
C35 C 0.8226(5) 0.8051(6) 0.9573(4)
H24 H 0.8189 0.8515 0.9955
H25 H 0.8693 0.8320 0.9438
H26 H 0.8340 0.7281 0.9736
C36 C 0.6270(4) 0.8376(6) 0.9550(3)
H27 H 0.6024 0.7944 0.9842
H28 H 0.6668 0.8947 0.9848
C37 C 0.5637(5) 0.8833(6) 0.8959(4)
H29 H 0.5287 0.9345 0.9109
H30 H 0.5271 0.8240 0.8669
H31 H 0.5906 0.9236 0.8679
C38 C 0.1789(2) 0.3004(4) 0.8619(2)
H32 H 0.2134 0.3457 0.9036
H33 H 0.1306 0.2678 0.8718
C39 C 0.1418(3) 0.3774(5) 0.7972(3)
H34 H 0.1888 0.4080 0.7855
H35 H 0.1101 0.4381 0.8082
H36 H 0.1027 0.3352 0.7566
C40 C 0.1967(4) 0.0779(9) 0.8499(4)
H37 H 0.2440 0.0234 0.8691
H38 H 0.1559 0.0695 0.8740
C41 C 0.1597(6) 0.0719(10) 0.7828(5)
H39? H 0.1607 0.1336 0.7542
H40? H 0.1310 0.0057 0.7613
loop_
_geom_bond_atom_site_label_1
_geom_bond_atom_site_label_2
_geom_bond_site_symmetry_1
_geom_bond_site_symmetry_2
S1 C7 1_555 1_555
N1 H1 1_555 1_555
N2 H2 1_555 1_555
N3 C13 1_555 1_555
N4 C25 1_555 1_555
N5 C30 1_555 1_555
O1 C27 1_555 1_555
O2 C14 1_555 1_555
C1 H3 1_555 1_555
C2 C1 1_555 1_555
H4 C2 1_555 1_555
C3 C2 1_555 1_555
H5 C3 1_555 1_555
C4 C3 1_555 1_555
H6 C4 1_555 1_555
C5 C4 1_555 1_555
H7 C5 1_555 1_555
C6 N1 1_555 1_555
C7 N1 1_555 1_555
C8 N2 1_555 1_555
C9 C8 1_555 1_555
H8 C9 1_555 1_555
C10 C9 1_555 1_555
H9 C10 1_555 1_555
C11 C10 1_555 1_555
H10 C11 1_555 1_555
C12 C11 1_555 1_555
H11 C12 1_555 1_555
C13 C8 1_555 1_555
C14 N3 1_555 1_555
C15 C14 1_555 1_555
C16 C15 1_555 1_555
H12 C16 1_555 1_555
C17 C16 1_555 1_555
H13 C17 1_555 1_555
C18 C17 1_555 1_555
H14 C18 1_555 1_555
C19 C18 1_555 1_555
H15 C19 1_555 1_555
C20 C15 1_555 1_555
C21 N3 1_555 1_555
C22 C21 1_555 1_555
C23 C22 1_555 1_555
H16 C23 1_555 1_555
C24 C23 1_555 1_555
H17 C24 1_555 1_555
C25 C24 1_555 1_555
C26 C25 1_555 1_555
H18 C26 1_555 1_555
C27 C22 1_555 1_555
C28 O1 1_555 1_555
C29 C28 1_555 1_555
H19 C29 1_555 1_555
C30 C29 1_555 1_555
C31 C30 1_555 1_555
H20 C31 1_555 1_555
C32 C31 1_555 1_555
H21 C32 1_555 1_555
C33 C21 1_555 1_555
C34 N4 1_555 1_555
H22 C34 1_555 1_555
H23 C34 1_555 1_555
C35 C34 1_555 1_555
H24 C35 1_555 1_555
H25 C35 1_555 1_555
H26 C35 1_555 1_555
C36 N4 1_555 1_555
H27 C36 1_555 1_555
H28 C36 1_555 1_555
C37 C36 1_555 1_555
H29 C37 1_555 1_555
H30 C37 1_555 1_555
H31 C37 1_555 1_555
C38 N5 1_555 1_555
H32 C38 1_555 1_555
H33 C38 1_555 1_555
C39 C38 1_555 1_555
H34 C39 1_555 1_555
H35 C39 1_555 1_555
H36 C39 1_555 1_555
C40 N5 1_555 1_555
H37 C40 1_555 1_555
H38 C40 1_555 1_555
C41 C40 1_555 1_555
N2 C7 1_555 1_555
C1 C6 1_555 1_555
C5 C6 1_555 1_555
C12 C13 1_555 1_555
C19 C20 1_555 1_555
C20 C21 1_555 1_555
C26 C27 1_555 1_555
C28 C33 1_555 1_555
C32 C33 1_555 1_555

#END
