
#######################################################################
#
#                 Cambridge Crystallographic Data Centre
#                                CCDC 
#
#######################################################################
#
# If this CIF has been generated from an entry in the Cambridge 
# Structural Database, then it will include bibliographic, chemical, 
# crystal, experimental, refinement or atomic coordinate data resulting 
# from the CCDC's data processing and validation procedures.
#
#######################################################################

data_EMEJIP
_chemical_formula_moiety         'C21 H15 Br4 N3'
_chemical_name_systematic        
2,6-bis(1-(2,6-Dibromophenylimino)ethyl)pyridine
_symmetry_cell_setting           triclinic
_symmetry_space_group_name_H-M   'P -1'
_symmetry_Int_Tables_number      2
_space_group_name_Hall           '-P 1'
loop_
_symmetry_equiv_pos_site_id
_symmetry_equiv_pos_as_xyz
1 x,y,z
2 -x,-y,-z
_cell_length_a                   7.9236(10)
_cell_length_b                   11.5210(15)
_cell_length_c                   12.6884(16)
_cell_angle_alpha                90.566(2)
_cell_angle_beta                 105.744(3)
_cell_angle_gamma                79.878(2)
_cell_volume                     1096.62
_cell_formula_units_Z            2
loop_
_atom_site_label
_atom_site_type_symbol
_atom_site_fract_x
_atom_site_fract_y
_atom_site_fract_z
Br1 Br 0.40567(10) 0.14577(7) 0.89445(7)
Br2 Br -0.27624(11) 0.43687(7) 0.78889(8)
Br3 Br 0.19954(11) 1.03978(8) 0.59180(7)
Br4 Br 0.87839(12) 0.74307(7) 0.69664(8)
N1 N 0.2968(6) 0.5864(4) 0.7318(4)
N2 N 0.1035(7) 0.3418(4) 0.7700(4)
N3 N 0.4703(7) 0.8027(5) 0.6192(4)
C1 C 0.2291(8) 0.4867(5) 0.7049(5)
C2 C 0.2087(9) 0.4421(6) 0.6017(6)
H1 H 0.1645 0.3724 0.5855
C3 C 0.2537(10) 0.5007(6) 0.5237(6)
H2 H 0.2397 0.4722 0.4536
C4 C 0.3206(9) 0.6033(6) 0.5506(6)
H3 H 0.3519 0.6451 0.4986
C5 C 0.3400(8) 0.6425(5) 0.6535(5)
C6 C 0.1838(8) 0.4300(5) 0.7949(5)
C7 C 0.2321(11) 0.4783(6) 0.9060(6)
H4 H 0.1643 0.5563 0.9048
H5 H 0.3570 0.4817 0.9275
H6 H 0.2064 0.4282 0.9574
C8 C 0.4203(9) 0.7516(5) 0.6898(5)
C9 C 0.4358(12) 0.7867(7) 0.8049(6)
H7 H 0.4736 0.8618 0.8149
H8 H 0.5216 0.7285 0.8542
H9 H 0.3220 0.7926 0.8196
C10 C 0.0586(9) 0.2826(5) 0.8541(5)
C11 C 0.1774(9) 0.1897(5) 0.9166(5)
C12 C 0.1335(11) 0.1295(6) 0.9945(6)
H10 H 0.2158 0.0679 1.0361
C13 C -0.0320(12) 0.1600(6) 1.0114(6)
H11 H -0.0622 0.1194 1.0646
C14 C -0.1517(10) 0.2497(7) 0.9501(7)
H12 H -0.2643 0.2698 0.9612
C15 C -0.1086(9) 0.3112(6) 0.8720(6)
C16 C 0.5491(9) 0.9050(5) 0.6471(5)
C17 C 0.4534(9) 1.0174(6) 0.6323(5)
C18 C 0.5309(11) 1.1163(6) 0.6467(6)
H13 H 0.4613 1.1914 0.6353
C19 C 0.7146(12) 1.1014(7) 0.6784(6)
H14 H 0.7702 1.1669 0.6887
C20 C 0.8136(11) 0.9914(7) 0.6945(6)
H15 H 0.9373 0.9820 0.7168
C21 C 0.7341(10) 0.8939(6) 0.6785(5)
loop_
_geom_bond_atom_site_label_1
_geom_bond_atom_site_label_2
_geom_bond_site_symmetry_1
_geom_bond_site_symmetry_2
Br1 C11 1_555 1_555
Br2 C15 1_555 1_555
Br3 C17 1_555 1_555
Br4 C21 1_555 1_555
N1 C1 1_555 1_555
N2 C6 1_555 1_555
N3 C8 1_555 1_555
C1 C2 1_555 1_555
C2 H1 1_555 1_555
C3 C2 1_555 1_555
H2 C3 1_555 1_555
C4 C3 1_555 1_555
H3 C4 1_555 1_555
C5 N1 1_555 1_555
C6 C1 1_555 1_555
C7 C6 1_555 1_555
H4 C7 1_555 1_555
H5 C7 1_555 1_555
H6 C7 1_555 1_555
C8 C5 1_555 1_555
C9 C8 1_555 1_555
H7 C9 1_555 1_555
H8 C9 1_555 1_555
H9 C9 1_555 1_555
C10 N2 1_555 1_555
C11 C10 1_555 1_555
C12 C11 1_555 1_555
H10 C12 1_555 1_555
C13 C12 1_555 1_555
H11 C13 1_555 1_555
C14 C13 1_555 1_555
H12 C14 1_555 1_555
C15 C10 1_555 1_555
C16 N3 1_555 1_555
C17 C16 1_555 1_555
C18 C17 1_555 1_555
H13 C18 1_555 1_555
C19 C18 1_555 1_555
H14 C19 1_555 1_555
C20 C19 1_555 1_555
H15 C20 1_555 1_555
C21 C16 1_555 1_555
C4 C5 1_555 1_555
C14 C15 1_555 1_555
C20 C21 1_555 1_555

#END
