
#######################################################################
#
#                 Cambridge Crystallographic Data Centre
#                                CCDC 
#
#######################################################################
#
# If this CIF has been generated from an entry in the Cambridge 
# Structural Database, then it will include bibliographic, chemical, 
# crystal, experimental, refinement or atomic coordinate data resulting 
# from the CCDC's data processing and validation procedures.
#
#######################################################################

data_EMIJEQ
_chemical_formula_moiety         'C22 H23 N1 O3 S1'
_chemical_name_systematic        
3-Methyl-1-(1-((4-methylphenyl)sulfonyl)-3-phenyl-2,5-dihydro-1H-pyrrol-2-yl)but-2-en-1-one
_symmetry_cell_setting           monoclinic
_symmetry_space_group_name_H-M   'P 21/c'
_symmetry_Int_Tables_number      14
_space_group_name_Hall           '-P 2ybc'
loop_
_symmetry_equiv_pos_site_id
_symmetry_equiv_pos_as_xyz
1 x,y,z
2 -x,1/2+y,1/2-z
3 -x,-y,-z
4 x,1/2-y,1/2+z
_cell_length_a                   18.490(2)
_cell_length_b                   8.1298(10)
_cell_length_c                   13.4544(16)
_cell_angle_alpha                90
_cell_angle_beta                 95.440(2)
_cell_angle_gamma                90
_cell_volume                     2013.36
_exptl_crystal_colour            colorless
_exptl_crystal_description       prismatic
_cell_formula_units_Z            4
loop_
_atom_site_label
_atom_site_type_symbol
_atom_site_fract_x
_atom_site_fract_y
_atom_site_fract_z
S1 S 0.16378(3) 0.69862(8) 0.28023(5)
N1 N 0.21414(10) 0.8575(2) 0.26706(14)
O1 O 0.35154(12) 0.7291(2) 0.11910(15)
O2 O 0.20191(9) 0.56137(19) 0.24610(14)
O3 O 0.14377(10) 0.7048(2) 0.37975(13)
C1 C 0.19299(14) 1.0183(3) 0.30402(19)
H1 H 0.2128 1.0356 0.3726
H2 H 0.1406 1.0298 0.2997
C2 C 0.22528(12) 1.1328(3) 0.23559(18)
H3 H 0.2224 1.2466 0.2410
C3 C 0.25878(11) 1.0576(3) 0.16561(16)
C4 C 0.25478(12) 0.8729(3) 0.17817(16)
H4 H 0.2262 0.8250 0.1202
C5 C 0.32924(13) 0.7901(3) 0.19209(19)
C6 C 0.36803(12) 0.7925(3) 0.29061(19)
H5 H 0.3441 0.8398 0.3413
C7 C 0.43432(14) 0.7343(3) 0.3163(2)
C8 C 0.46655(17) 0.7435(4) 0.4217(2)
H6 H 0.4298 0.7756 0.4637
H7 H 0.5051 0.8231 0.4271
H8 H 0.4856 0.6378 0.4424
C9 C 0.48167(19) 0.6577(6) 0.2466(3)
H9 H 0.4591 0.5593 0.2190
H10 H 0.5277 0.6307 0.2818
H11 H 0.4889 0.7333 0.1936
C10 C 0.29385(11) 1.1349(3) 0.08393(17)
C11 C 0.31322(13) 1.2999(3) 0.08903(19)
H12 H 0.3062 1.3603 0.1460
C12 C 0.34278(14) 1.3749(3) 0.0105(2)
H13 H 0.3550 1.4858 0.0144
C13 C 0.35416(15) 1.2869(3) -0.0731(2)
H14 H 0.3748 1.3376 -0.1256
C14 C 0.33544(14) 1.1264(4) -0.07955(19)
H15 H 0.3430 1.0672 -0.1368
C15 C 0.30518(13) 1.0494(3) -0.00208(18)
H16 H 0.2923 0.9390 -0.0077
C16 C 0.08471(13) 0.7250(3) 0.19897(18)
C17 C 0.02415(14) 0.7975(3) 0.2309(2)
H17 H 0.0242 0.8287 0.2974
C18 C -0.03594(15) 0.8244(4) 0.1666(3)
H18 H -0.0765 0.8731 0.1901
C19 C -0.03800(17) 0.7822(4) 0.0696(3)
C20 C 0.0229(2) 0.7063(5) 0.0393(2)
H19 H 0.0225 0.6728 -0.0268
C21 C 0.08386(15) 0.6784(4) 0.1026(2)
H20 H 0.1242 0.6280 0.0797
C22 C -0.1039(2) 0.8158(5) -0.0039(3)
H21 H -0.1444 0.8457 0.0319
H22 H -0.1157 0.7186 -0.0427
H23 H -0.0932 0.9041 -0.0476
loop_
_geom_bond_atom_site_label_1
_geom_bond_atom_site_label_2
_geom_bond_site_symmetry_1
_geom_bond_site_symmetry_2
S1 N1 1_555 1_555
N1 C1 1_555 1_555
O1 C5 1_555 1_555
O2 S1 1_555 1_555
O3 S1 1_555 1_555
C1 H1 1_555 1_555
H2 C1 1_555 1_555
C2 C1 1_555 1_555
H3 C2 1_555 1_555
C3 C2 1_555 1_555
C4 N1 1_555 1_555
H4 C4 1_555 1_555
C5 C4 1_555 1_555
C6 C5 1_555 1_555
H5 C6 1_555 1_555
C7 C6 1_555 1_555
C8 C7 1_555 1_555
H6 C8 1_555 1_555
H7 C8 1_555 1_555
H8 C8 1_555 1_555
C9 C7 1_555 1_555
H9 C9 1_555 1_555
H10 C9 1_555 1_555
H11 C9 1_555 1_555
C10 C3 1_555 1_555
C11 C10 1_555 1_555
H12 C11 1_555 1_555
C12 C11 1_555 1_555
H13 C12 1_555 1_555
C13 C12 1_555 1_555
H14 C13 1_555 1_555
C14 C13 1_555 1_555
H15 C14 1_555 1_555
C15 C10 1_555 1_555
H16 C15 1_555 1_555
C16 S1 1_555 1_555
C17 C16 1_555 1_555
H17 C17 1_555 1_555
C18 C17 1_555 1_555
H18 C18 1_555 1_555
C19 C18 1_555 1_555
C20 C19 1_555 1_555
H19 C20 1_555 1_555
C21 C16 1_555 1_555
H20 C21 1_555 1_555
C22 C19 1_555 1_555
H21 C22 1_555 1_555
H22 C22 1_555 1_555
H23 C22 1_555 1_555
C3 C4 1_555 1_555
C14 C15 1_555 1_555
C20 C21 1_555 1_555

#END
