
#######################################################################
#
#                 Cambridge Crystallographic Data Centre
#                                CCDC 
#
#######################################################################
#
# If this CIF has been generated from an entry in the Cambridge 
# Structural Database, then it will include bibliographic, chemical, 
# crystal, experimental, refinement or atomic coordinate data resulting 
# from the CCDC's data processing and validation procedures.
#
#######################################################################

data_EMIJAM
_chemical_formula_moiety         'C14 H18 O3'
_chemical_name_systematic        
'2-(4-Methoxyphenyl)-4,4-dimethylpent-2-enoic acid'
_symmetry_cell_setting           monoclinic
_symmetry_space_group_name_H-M   'P 21/c'
_symmetry_Int_Tables_number      14
_space_group_name_Hall           '-P 2ybc'
loop_
_symmetry_equiv_pos_site_id
_symmetry_equiv_pos_as_xyz
1 x,y,z
2 -x,1/2+y,1/2-z
3 -x,-y,-z
4 x,1/2-y,1/2+z
_cell_length_a                   5.9511(2)
_cell_length_b                   8.4184(3)
_cell_length_c                   26.7119(9)
_cell_angle_alpha                90
_cell_angle_beta                 96.1180(10)
_cell_angle_gamma                90
_cell_volume                     1330.61
_exptl_crystal_colour            colorless
_exptl_crystal_description       block
_cell_formula_units_Z            4
loop_
_atom_site_label
_atom_site_type_symbol
_atom_site_fract_x
_atom_site_fract_y
_atom_site_fract_z
O1 O -0.3212(3) 1.07527(19) 0.25684(5)
O2 O 0.3167(3) 1.00737(15) 0.44810(6)
O3 O 0.4551(2) 0.79550(16) 0.48880(5)
H1 H 0.5196 0.8642 0.5067
C1 C -0.5099(4) 1.1702(3) 0.26330(9)
H2 H -0.5713 1.2121 0.2313
H3 H -0.4650 1.2562 0.2858
H4 H -0.6224 1.1072 0.2772
C2 C -0.2086(3) 1.0041(2) 0.29849(6)
C3 C -0.2752(3) 1.0088(2) 0.34600(7)
H5 H -0.4042 1.0648 0.3522
C4 C -0.1482(3) 0.9292(2) 0.38496(6)
H6 H -0.1933 0.9334 0.4172
C5 C 0.0429(3) 0.84418(18) 0.37693(6)
C6 C 0.1064(3) 0.8424(2) 0.32871(6)
H7 H 0.2359 0.7874 0.3224
C7 C -0.0182(3) 0.9203(3) 0.28988(7)
H8 H 0.0267 0.9164 0.2576
C8 C 0.1807(3) 0.75838(19) 0.41831(6)
C9 C 0.3245(3) 0.8611(2) 0.45385(6)
C10 C 0.1883(3) 0.6022(2) 0.42595(6)
H9 H 0.2924 0.5719 0.4527
C11 C 0.0626(3) 0.4641(2) 0.40009(6)
C12 C -0.1356(4) 0.5076(3) 0.36149(10)
H10 H -0.0822 0.5707 0.3353
H11 H -0.2451 0.5671 0.3777
H12 H -0.2043 0.4124 0.3472
C13 C 0.2301(4) 0.3649(3) 0.37437(10)
H13 H 0.2869 0.4262 0.3482
H14 H 0.1560 0.2715 0.3601
H15 H 0.3533 0.3343 0.3986
C14 C -0.0253(5) 0.3632(3) 0.44160(8)
H16 H 0.0983 0.3353 0.4661
H17 H -0.0940 0.2683 0.4271
H18 H -0.1352 0.4229 0.4576
loop_
_geom_bond_atom_site_label_1
_geom_bond_atom_site_label_2
_geom_bond_site_symmetry_1
_geom_bond_site_symmetry_2
O1 C1 1_555 1_555
O2 C9 1_555 1_555
O3 H1 1_555 1_555
C1 H2 1_555 1_555
H3 C1 1_555 1_555
H4 C1 1_555 1_555
C2 O1 1_555 1_555
C3 C2 1_555 1_555
H5 C3 1_555 1_555
C4 C3 1_555 1_555
H6 C4 1_555 1_555
C5 C4 1_555 1_555
C6 C5 1_555 1_555
H7 C6 1_555 1_555
C7 C2 1_555 1_555
H8 C7 1_555 1_555
C8 C5 1_555 1_555
C9 O3 1_555 1_555
C10 C8 1_555 1_555
H9 C10 1_555 1_555
C11 C10 1_555 1_555
C12 C11 1_555 1_555
H10 C12 1_555 1_555
H11 C12 1_555 1_555
H12 C12 1_555 1_555
C13 C11 1_555 1_555
H13 C13 1_555 1_555
H14 C13 1_555 1_555
H15 C13 1_555 1_555
C14 C11 1_555 1_555
H16 C14 1_555 1_555
H17 C14 1_555 1_555
H18 C14 1_555 1_555
C6 C7 1_555 1_555
C8 C9 1_555 1_555

#END
