
#######################################################################
#
#                 Cambridge Crystallographic Data Centre
#                                CCDC 
#
#######################################################################
#
# If this CIF has been generated from an entry in the Cambridge 
# Structural Database, then it will include bibliographic, chemical, 
# crystal, experimental, refinement or atomic coordinate data resulting 
# from the CCDC's data processing and validation procedures.
#
#######################################################################

data_EMIJIU
_chemical_formula_moiety         'C20 H16 Br1 F1 O5 S2'
_chemical_name_systematic        
1-(4-Bromophenyl)-2-fluoro-2,2-bis(phenylsulfonyl)ethanol
_symmetry_cell_setting           triclinic
_symmetry_space_group_name_H-M   'P -1'
_symmetry_Int_Tables_number      2
_space_group_name_Hall           '-P 1'
loop_
_symmetry_equiv_pos_site_id
_symmetry_equiv_pos_as_xyz
1 x,y,z
2 -x,-y,-z
_cell_length_a                   10.1563(19)
_cell_length_b                   10.497(2)
_cell_length_c                   11.292(2)
_cell_angle_alpha                98.746(3)
_cell_angle_beta                 114.092(3)
_cell_angle_gamma                104.641(3)
_cell_volume                     1017.93
_exptl_crystal_colour            colorless
_exptl_crystal_description       prismatic
_cell_formula_units_Z            2
_chemical_properties_physical    Heat-sensitive
loop_
_atom_site_label
_atom_site_type_symbol
_atom_site_fract_x
_atom_site_fract_y
_atom_site_fract_z
Br1 Br 1.08687(8) 1.02073(7) 0.87011(7)
S1 S 0.73211(12) 0.40243(11) 0.13090(11)
S2 S 0.52643(12) 0.35356(12) 0.26591(13)
F1 F 0.8260(2) 0.4574(2) 0.3885(2)
O1 O 0.5716(5) 0.6295(5) 0.2405(4)
H1 H 0.5270 0.5916 0.1587
O2 O 0.6277(3) 0.4353(4) 0.0222(3)
O3 O 0.7221(3) 0.2636(3) 0.1219(3)
O4 O 0.4081(3) 0.3248(3) 0.1317(4)
O5 O 0.5168(4) 0.4214(3) 0.3803(4)
C1 C 0.7068(4) 0.4677(4) 0.2792(4)
C2 C 0.7121(6) 0.6182(4) 0.2955(5)
H2 H 0.7646 0.6564 0.2460
C3 C 0.8020(5) 0.7094(4) 0.4397(4)
C4 C 0.7360(5) 0.7294(5) 0.5217(5)
H3 H 0.6324 0.6801 0.4904
C5 C 0.8189(6) 0.8202(5) 0.6486(5)
H4 H 0.7718 0.8330 0.7027
C6 C 0.9699(6) 0.8915(5) 0.6953(5)
C7 C 1.0415(7) 0.8722(6) 0.6186(7)
H5 H 1.1459 0.9197 0.6520
C8 C 0.9557(6) 0.7807(6) 0.4903(6)
H6 H 1.0034 0.7671 0.4369
C9 C 0.9214(4) 0.5002(4) 0.1707(4)
C10 C 1.0395(5) 0.4568(5) 0.2423(4)
H7 H 1.0213 0.3839 0.2780
C11 C 1.1855(5) 0.5231(5) 0.2603(5)
H8 H 1.2667 0.4949 0.3076
C12 C 1.2084(6) 0.6308(5) 0.2075(5)
H9 H 1.3065 0.6760 0.2197
C13 C 1.0922(6) 0.6730(5) 0.1381(5)
H10 H 1.1117 0.7466 0.1036
C14 C 0.9458(5) 0.6094(5) 0.1176(4)
H11 H 0.8657 0.6385 0.0697
C15 C 0.5521(5) 0.1993(4) 0.2906(4)
C16 C 0.4899(5) 0.0834(5) 0.1829(5)
H12 H 0.4403 0.0874 0.0945
C17 C 0.5021(6) -0.0385(5) 0.2078(6)
H13 H 0.4616 -0.1172 0.1358
C18 C 0.5731(6) -0.0444(5) 0.3371(6)
H14 H 0.5793 -0.1278 0.3525
C19 C 0.6350(6) 0.0695(5) 0.4443(6)
H15 H 0.6837 0.0640 0.5322
C20 C 0.6254(5) 0.1932(5) 0.4222(5)
H16 H 0.6678 0.2718 0.4950
H17? H 0.7066 0.6140 0.1257
H18? H 0.6126 0.6200 0.2808
O6? O 0.7106(13) 0.6731(11) 0.1849(12)
loop_
_geom_bond_atom_site_label_1
_geom_bond_atom_site_label_2
_geom_bond_site_symmetry_1
_geom_bond_site_symmetry_2
Br1 C6 1_555 1_555
S1 O2 1_555 1_555
S2 O4 1_555 1_555
F1 C1 1_555 1_555
O1 H1 1_555 1_555
O3 S1 1_555 1_555
O5 S2 1_555 1_555
C1 S1 1_555 1_555
C2 O1 1_555 1_555
H2 C2 1_555 1_555
C3 C2 1_555 1_555
C4 C3 1_555 1_555
H3 C4 1_555 1_555
C5 C4 1_555 1_555
H4 C5 1_555 1_555
C6 C5 1_555 1_555
C7 C6 1_555 1_555
H5 C7 1_555 1_555
C8 C3 1_555 1_555
H6 C8 1_555 1_555
C9 S1 1_555 1_555
C10 C9 1_555 1_555
H7 C10 1_555 1_555
C11 C10 1_555 1_555
H8 C11 1_555 1_555
C12 C11 1_555 1_555
H9 C12 1_555 1_555
C13 C12 1_555 1_555
H10 C13 1_555 1_555
C14 C9 1_555 1_555
H11 C14 1_555 1_555
C15 S2 1_555 1_555
C16 C15 1_555 1_555
H12 C16 1_555 1_555
C17 C16 1_555 1_555
H13 C17 1_555 1_555
C18 C17 1_555 1_555
H14 C18 1_555 1_555
C19 C18 1_555 1_555
H15 C19 1_555 1_555
C20 C15 1_555 1_555
H16 C20 1_555 1_555
S2 C1 1_555 1_555
C1 C2 1_555 1_555
C7 C8 1_555 1_555
C13 C14 1_555 1_555
C19 C20 1_555 1_555

#END
