
#######################################################################
#
#                 Cambridge Crystallographic Data Centre
#                                CCDC 
#
#######################################################################
#
# If this CIF has been generated from an entry in the Cambridge 
# Structural Database, then it will include bibliographic, chemical, 
# crystal, experimental, refinement or atomic coordinate data resulting 
# from the CCDC's data processing and validation procedures.
#
#######################################################################

data_EMIZOP
_chemical_formula_moiety         'C34 H34 N2 O4'
_chemical_name_systematic        
"1,3,3-Trimethyl-spiro-(2H)-indole-2,3'-(3H)-naphtho(2,1-b)(1,4)oxazin-6'-yl 4-pentoxybenzoate"
_symmetry_cell_setting           triclinic
_symmetry_space_group_name_H-M   'P 1'
_symmetry_Int_Tables_number      1
_space_group_name_Hall           'P 1'
loop_
_symmetry_equiv_pos_site_id
_symmetry_equiv_pos_as_xyz
1 x,y,z
_cell_length_a                   8.459(7)
_cell_length_b                   10.881(8)
_cell_length_c                   16.243(1)
_cell_angle_alpha                83.67(2)
_cell_angle_beta                 85.80(2)
_cell_angle_gamma                78.90(2)
_cell_volume                     1456.06
_chemical_melting_point          '160-162 deg.C'
_cell_formula_units_Z            1
_chemical_properties_physical    light-sensitive
_exptl_crystal_recrystallization_method ethanol/acetone
_exptl_crystal_preparation       photochromic
loop_
_atom_site_label
_atom_site_type_symbol
_atom_site_fract_x
_atom_site_fract_y
_atom_site_fract_z
O1 O -0.7844(11) 1.4231(7) 0.6924(5)
O2 O -1.1330(12) 1.2599(8) 0.3356(5)
O3 O -1.3305(13) 1.1960(9) 0.4130(6)
O4 O -1.1717(12) 0.7743(8) 0.1652(6)
N1 N -0.6302(15) 1.2610(10) 0.7742(7)
N2 N -0.7949(13) 1.2452(8) 0.5808(6)
C1 C -0.5045(15) 1.3126(9) 0.8066(8)
C2 C -0.4490(2) 1.2979(12) 0.8851(7)
C3 C -0.3200(3) 1.3522(18) 0.8978(14)
C4 C -0.2470(2) 1.4118(15) 0.8371(14)
C5 C -0.2970(17) 1.4254(13) 0.7536(13)
C6 C -0.4299(14) 1.3746(9) 0.7430(7)
C7 C -0.5006(13) 1.3628(9) 0.6618(7)
C8 C -0.5030(3) 1.4770(2) 0.5986(12)
C9 C -0.3673(18) 1.2773(11) 0.6136(7)
C10 C -0.7490(2) 1.2250(2) 0.8226(9)
C11 C -0.6545(15) 1.3157(9) 0.6906(7)
C12 C -0.6907(17) 1.2203(11) 0.6365(8)
C13 C -0.8866(14) 1.3660(9) 0.5715(7)
C14 C -0.8863(14) 1.4554(11) 0.6277(7)
C15 C -0.9802(13) 1.5733(8) 0.6187(7)
C16 C -1.0798(14) 1.6066(10) 0.5568(7)
C17 C -1.0904(16) 1.5206(10) 0.4968(7)
C18 C -0.9957(13) 1.3994(9) 0.5074(7)
C19 C -1.0108(14) 1.3080(10) 0.4508(6)
C20 C -1.1166(15) 1.3452(11) 0.3921(7)
C21 C -1.2112(18) 1.4657(14) 0.3780(8)
C22 C -1.1996(17) 1.5546(11) 0.4320(9)
C23 C -1.2384(16) 1.1806(11) 0.3561(8)
C24 C -1.2154(16) 1.0775(10) 0.3013(7)
C25 C -1.1066(18) 1.0671(11) 0.2379(8)
C26 C -1.0902(17) 0.9695(12) 0.1860(9)
C27 C -1.1833(16) 0.8749(11) 0.2086(7)
C28 C -1.2940(17) 0.8906(13) 0.2743(8)
C29 C -1.3101(14) 0.9904(11) 0.3181(7)
C30 C -1.0620(2) 0.7637(13) 0.0950(9)
C31 C -1.0670(2) 0.6331(13) 0.0641(9)
C32 C -1.0100(3) 0.5204(13) 0.1247(11)
C33 C -1.0190(4) 0.3990(2) 0.0900(2)
C34 C -0.9270(3) 0.3484(18) 0.0393(16)
O5? O 0.0277(9) 0.8097(6) 0.7593(5)
O6? O 0.3673(11) 0.9736(8) 1.1201(5)
O7? O 0.5701(13) 1.0382(9) 1.0367(6)
O8? O 0.4149(12) 1.4584(8) 1.2889(6)
N3? N -0.2607(14) 0.8772(10) 0.7861(6)
N4? N 0.0343(12) 0.9885(8) 0.8703(7)
loop_
_geom_bond_atom_site_label_1
_geom_bond_atom_site_label_2
_geom_bond_site_symmetry_1
_geom_bond_site_symmetry_2
O1 C11 1_555 1_555
O2 C20 1_555 1_555
O3 C23 1_555 1_555
O4 C27 1_555 1_555
N1 C1 1_555 1_555
N2 C12 1_555 1_555
C1 C2 1_555 1_555
C2 C3 1_555 1_555
C3 C4 1_555 1_555
C4 C5 1_555 1_555
C5 C6 1_555 1_555
C6 C1 1_555 1_555
C7 C6 1_555 1_555
C8 C7 1_555 1_555
C9 C7 1_555 1_555
C10 N1 1_555 1_555
C11 N1 1_555 1_555
C12 C11 1_555 1_555
C13 N2 1_555 1_555
C14 O1 1_555 1_555
C15 C14 1_555 1_555
C16 C15 1_555 1_555
C17 C16 1_555 1_555
C18 C13 1_555 1_555
C19 C18 1_555 1_555
C20 C19 1_555 1_555
C21 C20 1_555 1_555
C22 C17 1_555 1_555
C23 O2 1_555 1_555
C24 C23 1_555 1_555
C25 C24 1_555 1_555
C26 C25 1_555 1_555
C27 C26 1_555 1_555
C28 C27 1_555 1_555
C29 C24 1_555 1_555
C30 O4 1_555 1_555
C31 C30 1_555 1_555
C32 C31 1_555 1_555
C33 C32 1_555 1_555
C34 C33 1_555 1_555
C7 C11 1_555 1_555
C13 C14 1_555 1_555
C17 C18 1_555 1_555
C21 C22 1_555 1_555
C28 C29 1_555 1_555

#END
