
#######################################################################
#
#                 Cambridge Crystallographic Data Centre
#                                CCDC 
#
#######################################################################
#
# If this CIF has been generated from an entry in the Cambridge 
# Structural Database, then it will include bibliographic, chemical, 
# crystal, experimental, refinement or atomic coordinate data resulting 
# from the CCDC's data processing and validation procedures.
#
#######################################################################

data_EMOBEN
_chemical_name_common            'O-Benzylprolyl keterolac'
_chemical_formula_moiety         'C27 H26 N2 O4'
_chemical_name_systematic        
'N-(5-Benzoyl-2,3-dihydro-1H-pyrrolizin-1-ylcarbonyl)-proline benzyl ester'
_symmetry_cell_setting           orthorhombic
_symmetry_space_group_name_H-M   'P 21 21 21'
_symmetry_Int_Tables_number      19
_space_group_name_Hall           'P 2ac 2ab'
loop_
_symmetry_equiv_pos_site_id
_symmetry_equiv_pos_as_xyz
1 x,y,z
2 1/2-x,-y,1/2+z
3 1/2+x,1/2-y,-z
4 -x,1/2+y,1/2-z
_cell_length_a                   8.9645(1)
_cell_length_b                   12.7123(2)
_cell_length_c                   20.7621(4)
_cell_angle_alpha                90
_cell_angle_beta                 90
_cell_angle_gamma                90
_cell_volume                     2366.04
_cell_formula_units_Z            4
loop_
_atom_site_label
_atom_site_type_symbol
_atom_site_fract_x
_atom_site_fract_y
_atom_site_fract_z
O1 O 0.4862(2) 0.3851(1) 0.1381(1)
O2 O 0.5626(2) 0.3718(1) 0.4222(1)
O3 O 0.7604(2) 0.3466(2) 0.5534(1)
O4 O 0.5436(2) 0.3553(2) 0.6056(1)
N1 N 0.5819(2) 0.2804(1) 0.2509(1)
N2 N 0.6289(2) 0.2141(1) 0.4606(1)
C1 C 0.2464(3) 0.3017(2) 0.0660(1)
C2 C 0.1567(4) 0.2573(3) 0.0203(2)
C3 C 0.1714(4) 0.1512(3) 0.0049(2)
C4 C 0.2736(3) 0.0919(2) 0.0366(1)
C5 C 0.3602(2) 0.1348(2) 0.0846(1)
C6 C 0.3477(2) 0.2410(2) 0.1001(1)
C7 C 0.4437(2) 0.2944(2) 0.1483(1)
C8 C 0.4822(2) 0.2398(2) 0.2068(1)
C9 C 0.4288(3) 0.1487(2) 0.2347(1)
C10 C 0.4981(3) 0.1345(2) 0.2940(1)
C11 C 0.5925(2) 0.2174(2) 0.3024(1)
C12 C 0.7014(2) 0.2605(2) 0.3504(1)
C13 C 0.7621(3) 0.3599(2) 0.3156(1)
C14 C 0.6822(3) 0.3701(2) 0.2523(1)
C15 C 0.6246(2) 0.2868(2) 0.4138(1)
C16 C 0.6781(3) 0.1041(2) 0.4552(1)
C17 C 0.6738(3) 0.0671(2) 0.5238(1)
C18 C 0.5539(3) 0.1291(2) 0.5558(1)
C19 C 0.5540(2) 0.2342(2) 0.5219(1)
C20 C 0.6350(3) 0.3181(2) 0.5595(1)
C21 C 0.6070(3) 0.4323(3) 0.6498(2)
C22 C 0.5064(3) 0.4422(3) 0.7056(2)
C23 C 0.5097(5) 0.3717(3) 0.7554(2)
C24 C 0.4151(7) 0.3807(5) 0.8073(2)
C25 C 0.3158(6) 0.4589(7) 0.8087(3)
C26 C 0.3101(5) 0.5294(5) 0.7616(3)
C27 C 0.4058(4) 0.5228(4) 0.7102(2)
loop_
_geom_bond_atom_site_label_1
_geom_bond_atom_site_label_2
_geom_bond_site_symmetry_1
_geom_bond_site_symmetry_2
O1 C7 1_555 1_555
O2 C15 1_555 1_555
O3 C20 1_555 1_555
O4 C20 1_555 1_555
N1 C8 1_555 1_555
N2 C15 1_555 1_555
C1 C2 1_555 1_555
C2 C3 1_555 1_555
C3 C4 1_555 1_555
C4 C5 1_555 1_555
C5 C6 1_555 1_555
C6 C1 1_555 1_555
C7 C6 1_555 1_555
C8 C7 1_555 1_555
C9 C8 1_555 1_555
C10 C9 1_555 1_555
C11 N1 1_555 1_555
C12 C11 1_555 1_555
C13 C12 1_555 1_555
C14 N1 1_555 1_555
C15 C12 1_555 1_555
C16 N2 1_555 1_555
C17 C16 1_555 1_555
C18 C17 1_555 1_555
C19 N2 1_555 1_555
C20 C19 1_555 1_555
C21 O4 1_555 1_555
C22 C21 1_555 1_555
C23 C22 1_555 1_555
C24 C23 1_555 1_555
C25 C24 1_555 1_555
C26 C25 1_555 1_555
C27 C22 1_555 1_555
C10 C11 1_555 1_555
C13 C14 1_555 1_555
C18 C19 1_555 1_555
C26 C27 1_555 1_555

#END
