
#######################################################################
#
#                 Cambridge Crystallographic Data Centre
#                                CCDC 
#
#######################################################################
#
# If this CIF has been generated from an entry in the Cambridge 
# Structural Database, then it will include bibliographic, chemical, 
# crystal, experimental, refinement or atomic coordinate data resulting 
# from the CCDC's data processing and validation procedures.
#
#######################################################################

data_EMOHIY
_chemical_formula_moiety         'C5 H12 N2 O2'
_chemical_name_systematic        Methyl(2-(methylammonio)ethyl)carbamate
_symmetry_cell_setting           monoclinic
_symmetry_space_group_name_H-M   'P 21/n'
_symmetry_Int_Tables_number      14
_space_group_name_Hall           '-P 2yn'
loop_
_symmetry_equiv_pos_site_id
_symmetry_equiv_pos_as_xyz
1 x,y,z
2 1/2-x,1/2+y,1/2-z
3 -x,-y,-z
4 1/2+x,1/2-y,1/2+z
_cell_length_a                   6.6821(3)
_cell_length_b                   7.1569(4)
_cell_length_c                   14.5510(8)
_cell_angle_alpha                90
_cell_angle_beta                 92.028(3)
_cell_angle_gamma                90
_cell_volume                     695.438
_exptl_crystal_colour            colorless
_exptl_crystal_description       lath
_cell_formula_units_Z            4
loop_
_atom_site_label
_atom_site_type_symbol
_atom_site_fract_x
_atom_site_fract_y
_atom_site_fract_z
O1 O 1.1222(4) -0.3429(4) 0.3682(2)
O2 O 0.8667(5) -0.1862(4) 0.3017(2)
C1 C 1.0421(8) -0.1929(7) 0.3375(3)
N1 N 1.1495(6) -0.0309(5) 0.3447(3)
C2 C 1.3472(7) -0.0252(6) 0.3884(4)
H1 H 1.3885 -0.1497 0.4048
H2 H 1.3442 0.0506 0.4427
H3 H 1.4400 0.0272 0.3466
C3 C 1.0612(7) 0.1470(5) 0.3170(4)
H4 H 0.9894 0.1322 0.2583
H5 H 1.1667 0.2381 0.3092
C4 C 0.9189(7) 0.2178(6) 0.3875(4)
H6 H 0.8117 0.1280 0.3946
H7 H 0.9898 0.2310 0.4465
N2 N 0.8325(7) 0.4013(5) 0.3590(4)
H8 H 0.929(4) 0.482(4) 0.354(2)
H9 H 0.774(4) 0.392(4) 0.304(2)
C5 C 0.6783(8) 0.4698(6) 0.4222(4)
H10 H 0.5605 0.3936 0.4155
H11 H 0.6451 0.5970 0.4074
H12 H 0.7301 0.4630 0.4845
loop_
_geom_bond_atom_site_label_1
_geom_bond_atom_site_label_2
_geom_bond_site_symmetry_1
_geom_bond_site_symmetry_2
O1 C1 1_555 1_555
O2 C1 1_555 1_555
C1 N1 1_555 1_555
N1 C2 1_555 1_555
C2 H1 1_555 1_555
H2 C2 1_555 1_555
H3 C2 1_555 1_555
C3 N1 1_555 1_555
H4 C3 1_555 1_555
H5 C3 1_555 1_555
C4 C3 1_555 1_555
H6 C4 1_555 1_555
H7 C4 1_555 1_555
N2 C4 1_555 1_555
H8 N2 1_555 1_555
H9 N2 1_555 1_555
C5 N2 1_555 1_555
H10 C5 1_555 1_555
H11 C5 1_555 1_555
H12 C5 1_555 1_555

#END
