
#######################################################################
#
#                 Cambridge Crystallographic Data Centre
#                                CCDC 
#
#######################################################################
#
# If this CIF has been generated from an entry in the Cambridge 
# Structural Database, then it will include bibliographic, chemical, 
# crystal, experimental, refinement or atomic coordinate data resulting 
# from the CCDC's data processing and validation procedures.
#
#######################################################################

data_EMONOJ
_chemical_formula_moiety         'C58 H40 O2,0.5(C6 H14)'
_chemical_name_systematic        
"5,5'-Diphenyl-6,6'-dipropyl-12H,12H'-7,7'-bi-indeno(1,2-a)fluorenylidene-12,12'-dione hexane solvate"
_symmetry_cell_setting           triclinic
_symmetry_space_group_name_H-M   'P -1'
_symmetry_Int_Tables_number      2
_space_group_name_Hall           '-P 1'
loop_
_symmetry_equiv_pos_site_id
_symmetry_equiv_pos_as_xyz
1 x,y,z
2 -x,-y,-z
_cell_length_a                   9.620(2)
_cell_length_b                   11.737(2)
_cell_length_c                   20.795(3)
_cell_angle_alpha                86.24(1)
_cell_angle_beta                 85.13(2)
_cell_angle_gamma                72.15(2)
_cell_volume                     2224.93
_cell_formula_units_Z            2
loop_
_atom_site_label
_atom_site_type_symbol
_atom_site_fract_x
_atom_site_fract_y
_atom_site_fract_z
O1 O 0.1577(3) 0.5782(3) 0.0474(1)
O2 O 0.6303(3) 0.6588(2) -0.4769(1)
C1 C 0.2471(4) 0.5290(3) -0.2134(2)
C2 C 0.1183(4) 0.5888(3) -0.1715(2)
C3 C -0.0285(4) 0.6395(3) -0.1863(2)
C4 C -0.1348(4) 0.6929(3) -0.1370(2)
C5 C -0.0920(4) 0.6891(3) -0.0747(2)
C6 C -0.1782(4) 0.7420(3) -0.0152(2)
C7 C -0.3193(4) 0.8214(3) -0.0051(2)
C8 C -0.3668(5) 0.8569(4) 0.0574(2)
C9 C -0.2789(5) 0.8164(4) 0.1087(2)
C10 C -0.1395(5) 0.7390(3) 0.0989(2)
C11 C -0.0903(4) 0.7040(3) 0.0369(2)
C12 C 0.0562(4) 0.6267(3) 0.0137(2)
C13 C 0.0514(4) 0.6232(3) -0.0578(2)
C14 C 0.1556(4) 0.5696(3) -0.1061(2)
C15 C 0.3058(4) 0.4884(3) -0.1044(2)
C16 C 0.3930(4) 0.4442(3) -0.0539(2)
C17 C 0.5341(4) 0.3708(3) -0.0664(2)
C18 C 0.5876(4) 0.3434(3) -0.1291(2)
C19 C 0.5017(4) 0.3864(3) -0.1807(2)
C20 C 0.3577(4) 0.4580(3) -0.1688(2)
C21 C 0.2782(4) 0.5557(3) -0.2776(2)
C22 C 0.2430(4) 0.6782(3) -0.3082(2)
C23 C 0.1431(4) 0.7854(3) -0.2903(2)
C24 C 0.1460(5) 0.8902(4) -0.3238(2)
C25 C 0.2498(5) 0.8898(4) -0.3744(2)
C26 C 0.3514(4) 0.7839(3) -0.3927(2)
C27 C 0.3474(4) 0.6785(3) -0.3599(2)
C28 C 0.4405(4) 0.5542(3) -0.3695(2)
C29 C 0.5548(4) 0.5013(3) -0.4137(2)
C30 C 0.6445(4) 0.5538(4) -0.4627(2)
C31 C 0.7597(4) 0.4487(3) -0.4899(2)
C32 C 0.8727(4) 0.4486(4) -0.5351(2)
C33 C 0.9728(5) 0.3398(4) -0.5511(2)
C34 C 0.9579(5) 0.2359(4) -0.5215(2)
C35 C 0.8435(4) 0.2354(4) -0.4761(2)
C36 C 0.7439(4) 0.3430(3) -0.4602(2)
C37 C 0.6136(4) 0.3754(3) -0.4130(2)
C38 C 0.5516(4) 0.3019(3) -0.3724(2)
C39 C 0.4355(4) 0.3549(3) -0.3266(2)
C40 C 0.3911(4) 0.4797(3) -0.3222(2)
C41 C -0.0785(4) 0.6219(3) -0.2508(2)
C42 C -0.1237(5) 0.5066(4) -0.2470(2)
C43 C -0.1901(6) 0.4901(5) -0.3077(2)
C44 C -0.2921(4) 0.7475(3) -0.1518(2)
C45 C -0.3372(4) 0.8593(4) -0.1828(2)
C46 C -0.4812(5) 0.9093(4) -0.1971(2)
C47 C -0.5814(5) 0.8496(5) -0.1808(3)
C48 C -0.5389(5) 0.7397(4) -0.1486(2)
C49 C -0.3946(4) 0.6879(4) -0.1348(2)
C50 C 0.3523(4) 0.2791(3) -0.2902(2)
C51 C 0.2237(5) 0.2752(4) -0.3289(2)
C52 C 0.1413(5) 0.1955(4) -0.2966(3)
C53 C 0.6059(4) 0.1689(3) -0.3768(2)
C54 C 0.7052(5) 0.0993(4) -0.3348(2)
C55 C 0.7517(5) -0.0252(4) -0.3381(2)
C56 C 0.6994(6) -0.0794(4) -0.3825(3)
C57 C 0.6025(6) -0.0112(4) -0.4243(2)
C58 C 0.5565(5) 0.1122(3) -0.4217(2)
H1 H -0.3783(4) 0.8494(3) -0.0392(2)
H2 H -0.4605(5) 0.9094(4) 0.0651(2)
H3 H -0.3142(5) 0.8417(4) 0.1501(2)
H4 H -0.0802(5) 0.7110(3) 0.1331(2)
H5 H 0.3573(4) 0.4635(3) -0.0118(2)
H6 H 0.5934(4) 0.3396(3) -0.0325(2)
H7 H 0.6835(4) 0.2950(3) -0.1368(2)
H8 H 0.5395(4) 0.3678(3) -0.2227(2)
H9 H 0.0743(4) 0.7870(3) -0.2558(2)
H10 H 0.0773(5) 0.9622(4) -0.3123(2)
H11 H 0.2509(5) 0.9614(4) -0.3961(2)
H12 H 0.4213(4) 0.7833(3) -0.4265(2)
H13 H 0.8816(4) 0.5199(4) -0.5545(2)
H14 H 1.0497(5) 0.3372(4) -0.5818(2)
H15 H 1.0267(5) 0.1634(4) -0.5321(2)
H16 H 0.8346(4) 0.1638(4) -0.4571(2)
H17 H 0.0002(4) 0.6161(3) -0.2841(2)
H18 H -0.1609(4) 0.6901(3) -0.2621(2)
H19 H -0.0383(5) 0.4382(4) -0.2399(2)
H20 H -0.1941(5) 0.5092(4) -0.2104(2)
H21 H -0.2193(30) 0.4186(15) -0.3027(6)
H22 H -0.1191(12) 0.4834(26) -0.3437(3)
H23 H -0.2741(19) 0.5579(13) -0.3152(8)
H24 H -0.2700(4) 0.9009(4) -0.1941(2)
H25 H -0.5104(5) 0.9845(4) -0.2181(2)
H26 H -0.6779(5) 0.8831(5) -0.1914(3)
H27 H -0.6076(5) 0.7000(4) -0.1361(2)
H28 H -0.3661(4) 0.6127(4) -0.1138(2)
H29 H 0.3150(4) 0.3122(3) -0.2484(2)
H30 H 0.4172(4) 0.1986(3) -0.2832(2)
H31 H 0.1572(5) 0.3556(4) -0.3341(2)
H32 H 0.2615(5) 0.2468(4) -0.3716(2)
H33 H 0.0651(21) 0.1934(21) -0.3231(7)
H34 H 0.0989(27) 0.2259(15) -0.2554(6)
H35 H 0.2070(8) 0.1160(7) -0.2907(13)
H36 H 0.7410(5) 0.1355(4) -0.3042(2)
H37 H 0.8188(5) -0.0716(4) -0.3099(2)
H38 H 0.7298(6) -0.1625(4) -0.3843(3)
H39 H 0.5671(6) -0.0479(4) -0.4547(2)
H40 H 0.4910(5) 0.1577(3) -0.4509(2)
C59 C -0.0219(8) 1.0136(6) 0.0373(3)
C60 C 0.1014(9) 0.9513(6) 0.0786(4)
C61 C 0.0446(7) 0.9724(6) 0.1561(3)
H41 H -0.0487(8) 1.0993(6) 0.0426(3)
H42 H -0.1064(8) 0.9875(6) 0.0512(3)
H43 H 0.1830(9) 0.9829(6) 0.0678(4)
H44 H 0.1344(9) 0.8663(6) 0.0708(4)
H45 H 0.1254(12) 0.9373(31) 0.1825(3)
H46 H -0.0308(31) 0.9353(31) 0.1674(6)
H47 H 0.0065(40) 1.0567(6) 0.1630(5)
C59A C 0.0219(8) 0.9864(6) -0.0373(3)
C60A C -0.1014(9) 1.0487(6) -0.0786(4)
C61A C -0.0446(7) 1.0276(6) -0.1561(3)
H45A H -0.1254(12) 1.0627(31) -0.1825(3)
H46A H 0.0308(31) 1.0647(31) -0.1674(6)
H47A H -0.0065(40) 0.9433(6) -0.1630(5)
H43A H -0.1830(9) 1.0171(6) -0.0678(4)
H44A H -0.1344(9) 1.1337(6) -0.0708(4)
H41A H 0.0487(8) 0.9007(6) -0.0426(3)
H42A H 0.1064(8) 1.0125(6) -0.0512(3)
loop_
_geom_bond_atom_site_label_1
_geom_bond_atom_site_label_2
_geom_bond_site_symmetry_1
_geom_bond_site_symmetry_2
O1 C12 1_555 1_555
O2 C30 1_555 1_555
C1 C2 1_555 1_555
C2 C3 1_555 1_555
C3 C4 1_555 1_555
C4 C5 1_555 1_555
C5 C6 1_555 1_555
C6 C7 1_555 1_555
C7 C8 1_555 1_555
C8 C9 1_555 1_555
C9 C10 1_555 1_555
C10 C11 1_555 1_555
C11 C6 1_555 1_555
C12 C11 1_555 1_555
C13 C5 1_555 1_555
C14 C2 1_555 1_555
C15 C14 1_555 1_555
C16 C15 1_555 1_555
C17 C16 1_555 1_555
C18 C17 1_555 1_555
C19 C18 1_555 1_555
C20 C1 1_555 1_555
C21 C1 1_555 1_555
C22 C21 1_555 1_555
C23 C22 1_555 1_555
C24 C23 1_555 1_555
C25 C24 1_555 1_555
C26 C25 1_555 1_555
C27 C22 1_555 1_555
C28 C27 1_555 1_555
C29 C28 1_555 1_555
C30 C29 1_555 1_555
C31 C30 1_555 1_555
C32 C31 1_555 1_555
C33 C32 1_555 1_555
C34 C33 1_555 1_555
C35 C34 1_555 1_555
C36 C31 1_555 1_555
C37 C29 1_555 1_555
C38 C37 1_555 1_555
C39 C38 1_555 1_555
C40 C21 1_555 1_555
C41 C3 1_555 1_555
C42 C41 1_555 1_555
C43 C42 1_555 1_555
C44 C4 1_555 1_555
C45 C44 1_555 1_555
C46 C45 1_555 1_555
C47 C46 1_555 1_555
C48 C47 1_555 1_555
C49 C44 1_555 1_555
C50 C39 1_555 1_555
C51 C50 1_555 1_555
C52 C51 1_555 1_555
C53 C38 1_555 1_555
C54 C53 1_555 1_555
C55 C54 1_555 1_555
C56 C55 1_555 1_555
C57 C56 1_555 1_555
C58 C53 1_555 1_555
C59 C60 1_555 1_555
C60 C61 1_555 1_555
C61 H45 1_555 1_555
H1 C7 1_555 1_555
H2 C8 1_555 1_555
H3 C9 1_555 1_555
H4 C10 1_555 1_555
H5 C16 1_555 1_555
H6 C17 1_555 1_555
H7 C18 1_555 1_555
H8 C19 1_555 1_555
H9 C23 1_555 1_555
H10 C24 1_555 1_555
H11 C25 1_555 1_555
H12 C26 1_555 1_555
H13 C32 1_555 1_555
H14 C33 1_555 1_555
H15 C34 1_555 1_555
H16 C35 1_555 1_555
H17 C41 1_555 1_555
H18 C41 1_555 1_555
H19 C42 1_555 1_555
H20 C42 1_555 1_555
H21 C43 1_555 1_555
H22 C43 1_555 1_555
H23 C43 1_555 1_555
H24 C45 1_555 1_555
H25 C46 1_555 1_555
H26 C47 1_555 1_555
H27 C48 1_555 1_555
H28 C49 1_555 1_555
H29 C50 1_555 1_555
H30 C50 1_555 1_555
H31 C51 1_555 1_555
H32 C51 1_555 1_555
H33 C52 1_555 1_555
H34 C52 1_555 1_555
H35 C52 1_555 1_555
H36 C54 1_555 1_555
H37 C55 1_555 1_555
H38 C56 1_555 1_555
H39 C57 1_555 1_555
H40 C58 1_555 1_555
H41 C59 1_555 1_555
H42 C59 1_555 1_555
H43 C60 1_555 1_555
H44 C60 1_555 1_555
H46 C61 1_555 1_555
H47 C61 1_555 1_555
C59A C59 1_555 1_555
C60A C59A 1_555 1_555
C61A C60A 1_555 1_555
H45A C61A 1_555 1_555
H46A C61A 1_555 1_555
H47A C61A 1_555 1_555
H43A C60A 1_555 1_555
H44A C60A 1_555 1_555
H41A C59A 1_555 1_555
H42A C59A 1_555 1_555
C12 C13 1_555 1_555
C13 C14 1_555 1_555
C15 C20 1_555 1_555
C19 C20 1_555 1_555
C26 C27 1_555 1_555
C28 C40 1_555 1_555
C35 C36 1_555 1_555
C36 C37 1_555 1_555
C39 C40 1_555 1_555
C48 C49 1_555 1_555
C57 C58 1_555 1_555

#END
