
#######################################################################
#
#                 Cambridge Crystallographic Data Centre
#                                CCDC 
#
#######################################################################
#
# If this CIF has been generated from an entry in the Cambridge 
# Structural Database, then it will include bibliographic, chemical, 
# crystal, experimental, refinement or atomic coordinate data resulting 
# from the CCDC's data processing and validation procedures.
#
#######################################################################

data_EMONUP
_chemical_formula_moiety         'C58 H40 O1'
_chemical_name_systematic        
11-Phenyl-9-((2-(phenylethynyl)phenyl)ethynyl)-10,10-di-n-propyl-di-indeno(1,2-a:1',2'-f)fluoranthen-16(10H)-one
_symmetry_cell_setting           monoclinic
_symmetry_space_group_name_H-M   'P 21/c'
_symmetry_Int_Tables_number      14
_space_group_name_Hall           '-P 2ybc'
loop_
_symmetry_equiv_pos_site_id
_symmetry_equiv_pos_as_xyz
1 x,y,z
2 -x,1/2+y,1/2-z
3 -x,-y,-z
4 x,1/2-y,1/2+z
_cell_length_a                   21.475(2)
_cell_length_b                   8.823(1)
_cell_length_c                   22.861(2)
_cell_angle_alpha                90
_cell_angle_beta                 110.766(8)
_cell_angle_gamma                90
_cell_volume                     4050.17
_cell_formula_units_Z            4
loop_
_atom_site_label
_atom_site_type_symbol
_atom_site_fract_x
_atom_site_fract_y
_atom_site_fract_z
O1 O 0.3987(1) 0.3326(3) 0.0221(1)
C1 C 0.6581(1) 0.3800(3) 0.1362(1)
C2 C 0.6379(1) 0.3044(3) 0.0772(1)
C3 C 0.5695(1) 0.2863(4) 0.0439(1)
C4 C 0.5352(1) 0.2089(4) -0.0174(1)
C5 C 0.5574(2) 0.1311(4) -0.0588(2)
C6 C 0.5104(2) 0.0713(4) -0.1133(2)
C7 C 0.4433(2) 0.0909(4) -0.1271(2)
C8 C 0.4205(2) 0.1672(4) -0.0862(2)
C9 C 0.4660(1) 0.2250(4) -0.0320(1)
C10 C 0.4534(2) 0.3054(4) 0.0191(1)
C11 C 0.5204(1) 0.3458(4) 0.0655(1)
C12 C 0.5397(1) 0.4250(3) 0.1210(1)
C13 C 0.5040(1) 0.5047(4) 0.1559(1)
C14 C 0.4359(1) 0.5250(4) 0.1421(1)
C15 C 0.4151(2) 0.6125(4) 0.1816(2)
C16 C 0.4604(2) 0.6826(4) 0.2328(2)
C17 C 0.5280(2) 0.6639(4) 0.2469(2)
C18 C 0.5504(1) 0.5719(3) 0.2096(1)
C19 C 0.6183(1) 0.5276(3) 0.2127(1)
C20 C 0.6812(1) 0.5477(3) 0.2544(1)
C21 C 0.7105(1) 0.6231(3) 0.3163(1)
C22 C 0.6847(2) 0.6886(4) 0.3584(1)
C23 C 0.7279(2) 0.7546(4) 0.4130(1)
C24 C 0.7955(2) 0.7550(4) 0.4262(2)
C25 C 0.8224(2) 0.6849(4) 0.3864(1)
C26 C 0.7800(1) 0.6192(4) 0.3322(1)
C27 C 0.7956(1) 0.5353(4) 0.2839(1)
C28 C 0.7371(1) 0.4915(3) 0.2379(1)
C29 C 0.7311(1) 0.3898(3) 0.1822(1)
C30 C 0.6084(1) 0.4400(3) 0.1552(1)
C31 C 0.6838(1) 0.2479(4) 0.0456(1)
C32 C 0.6972(1) 0.3422(4) 0.0027(1)
C33 C 0.7350(2) 0.2908(5) -0.0313(2)
C34 C 0.7590(2) 0.1472(6) -0.0234(2)
C35 C 0.7456(2) 0.0519(5) 0.0179(2)
C36 C 0.7083(2) 0.1026(4) 0.0522(2)
C37 C 0.7530(1) 0.2282(3) 0.2088(1)
C38 C 0.7131(2) 0.1576(4) 0.2447(2)
C39 C 0.7344(2) -0.0025(4) 0.2651(2)
C40 C 0.7794(1) 0.4462(4) 0.1505(1)
C41 C 0.7683(2) 0.6041(4) 0.1234(2)
C42 C 0.8215(2) 0.6443(5) 0.0964(2)
C43 C 0.8629(2) 0.5112(4) 0.2893(1)
C44 C 0.9204(2) 0.4971(4) 0.2962(1)
C45 C 0.9864(1) 0.4796(4) 0.2949(1)
C46 C 0.9951(2) 0.3964(4) 0.2468(2)
C47 C 1.0570(2) 0.3790(4) 0.2431(2)
C48 C 1.1113(2) 0.4487(5) 0.2866(2)
C49 C 1.1037(2) 0.5325(5) 0.3341(2)
C50 C 1.0419(1) 0.5486(4) 0.3402(1)
C51 C 1.0357(2) 0.6287(4) 0.3918(2)
C52 C 1.0345(2) 0.6889(5) 0.4380(2)
C53 C 1.0335(2) 0.7549(5) 0.4948(2)
C54 C 1.0790(2) 0.8651(5) 0.5258(2)
C55 C 1.0775(3) 0.9249(7) 0.5811(2)
C56 C 1.0314(3) 0.8751(7) 0.6056(2)
C57 C 0.9866(2) 0.7684(6) 0.5755(2)
C58 C 0.9876(2) 0.7069(5) 0.5206(2)
H1 H 0.6027(2) 0.1189(4) -0.0505(2)
H2 H 0.5250(2) 0.0170(4) -0.1409(2)
H3 H 0.4131(2) 0.0524(4) -0.1642(2)
H4 H 0.3750(2) 0.1795(4) -0.0951(2)
H5 H 0.4050(1) 0.4802(4) 0.1069(1)
H6 H 0.3698(2) 0.6245(4) 0.1735(2)
H7 H 0.4453(2) 0.7433(4) 0.2583(2)
H8 H 0.5583(2) 0.7130(4) 0.2812(2)
H9 H 0.6391(2) 0.6883(4) 0.3500(1)
H10 H 0.7108(2) 0.7991(4) 0.4409(1)
H11 H 0.8235(2) 0.8027(4) 0.4622(2)
H12 H 0.8683(2) 0.6824(4) 0.3960(1)
H13 H 0.6806(1) 0.4406(4) -0.0032(1)
H14 H 0.7440(2) 0.3550(5) -0.0595(2)
H15 H 0.7846(2) 0.1133(6) -0.0462(2)
H16 H 0.7617(2) -0.0470(5) 0.0228(2)
H17 H 0.6996(2) 0.0372(4) 0.0803(2)
H18 H 0.7505(1) 0.1618(3) 0.1742(1)
H19 H 0.7993(1) 0.2326(3) 0.2362(1)
H20 H 0.7181(2) 0.2189(4) 0.2813(2)
H21 H 0.6663(2) 0.1578(4) 0.2185(2)
H22 H 0.7067(7) -0.0434(10) 0.2862(9)
H23 H 0.7800(4) -0.0027(5) 0.2930(8)
H24 H 0.7302(11) -0.0634(7) 0.2290(2)
H25 H 0.8243(1) 0.4412(4) 0.1810(1)
H26 H 0.7771(1) 0.3760(4) 0.1171(1)
H27 H 0.7696(2) 0.6762(4) 0.1558(2)
H28 H 0.7247(2) 0.6100(4) 0.0907(2)
H29 H 0.8150(8) 0.7466(11) 0.0811(11)
H30 H 0.8185(8) 0.5765(19) 0.0627(8)
H31 H 0.8647(2) 0.6353(28) 0.1285(4)
H32 H 0.9584(2) 0.3519(4) 0.2167(2)
H33 H 1.0624(2) 0.3205(4) 0.2114(2)
H34 H 1.1532(2) 0.4389(5) 0.2836(2)
H35 H 1.1407(2) 0.5795(5) 0.3629(2)
H36 H 1.1104(2) 0.8990(5) 0.5094(2)
H37 H 1.1080(3) 0.9992(7) 0.6019(2)
H38 H 1.0310(3) 0.9151(7) 0.6431(2)
H39 H 0.9550(2) 0.7363(6) 0.5920(2)
H40 H 0.9569(2) 0.6321(5) 0.5005(2)
loop_
_geom_bond_atom_site_label_1
_geom_bond_atom_site_label_2
_geom_bond_site_symmetry_1
_geom_bond_site_symmetry_2
O1 C10 1_555 1_555
C1 C2 1_555 1_555
C2 C3 1_555 1_555
C3 C4 1_555 1_555
C4 C5 1_555 1_555
C5 C6 1_555 1_555
C6 C7 1_555 1_555
C7 C8 1_555 1_555
C8 C9 1_555 1_555
C9 C4 1_555 1_555
C10 C9 1_555 1_555
C11 C3 1_555 1_555
C12 C11 1_555 1_555
C13 C12 1_555 1_555
C14 C13 1_555 1_555
C15 C14 1_555 1_555
C16 C15 1_555 1_555
C17 C16 1_555 1_555
C18 C13 1_555 1_555
C19 C18 1_555 1_555
C20 C19 1_555 1_555
C21 C20 1_555 1_555
C22 C21 1_555 1_555
C23 C22 1_555 1_555
C24 C23 1_555 1_555
C25 C24 1_555 1_555
C26 C21 1_555 1_555
C27 C26 1_555 1_555
C28 C20 1_555 1_555
C29 C1 1_555 1_555
C30 C1 1_555 1_555
C31 C2 1_555 1_555
C32 C31 1_555 1_555
C33 C32 1_555 1_555
C34 C33 1_555 1_555
C35 C34 1_555 1_555
C36 C31 1_555 1_555
C37 C29 1_555 1_555
C38 C37 1_555 1_555
C39 C38 1_555 1_555
C40 C29 1_555 1_555
C41 C40 1_555 1_555
C42 C41 1_555 1_555
C43 C27 1_555 1_555
C44 C43 1_555 1_555
C45 C44 1_555 1_555
C46 C45 1_555 1_555
C47 C46 1_555 1_555
C48 C47 1_555 1_555
C49 C48 1_555 1_555
C50 C45 1_555 1_555
C51 C50 1_555 1_555
C52 C51 1_555 1_555
C53 C52 1_555 1_555
C54 C53 1_555 1_555
C55 C54 1_555 1_555
C56 C55 1_555 1_555
C57 C56 1_555 1_555
C58 C53 1_555 1_555
H1 C5 1_555 1_555
H2 C6 1_555 1_555
H3 C7 1_555 1_555
H4 C8 1_555 1_555
H5 C14 1_555 1_555
H6 C15 1_555 1_555
H7 C16 1_555 1_555
H8 C17 1_555 1_555
H9 C22 1_555 1_555
H10 C23 1_555 1_555
H11 C24 1_555 1_555
H12 C25 1_555 1_555
H13 C32 1_555 1_555
H14 C33 1_555 1_555
H15 C34 1_555 1_555
H16 C35 1_555 1_555
H17 C36 1_555 1_555
H18 C37 1_555 1_555
H19 C37 1_555 1_555
H20 C38 1_555 1_555
H21 C38 1_555 1_555
H22 C39 1_555 1_555
H23 C39 1_555 1_555
H24 C39 1_555 1_555
H25 C40 1_555 1_555
H26 C40 1_555 1_555
H27 C41 1_555 1_555
H28 C41 1_555 1_555
H29 C42 1_555 1_555
H30 C42 1_555 1_555
H31 C42 1_555 1_555
H32 C46 1_555 1_555
H33 C47 1_555 1_555
H34 C48 1_555 1_555
H35 C49 1_555 1_555
H36 C54 1_555 1_555
H37 C55 1_555 1_555
H38 C56 1_555 1_555
H39 C57 1_555 1_555
H40 C58 1_555 1_555
C10 C11 1_555 1_555
C12 C30 1_555 1_555
C17 C18 1_555 1_555
C19 C30 1_555 1_555
C25 C26 1_555 1_555
C27 C28 1_555 1_555
C28 C29 1_555 1_555
C35 C36 1_555 1_555
C49 C50 1_555 1_555
C57 C58 1_555 1_555

#END
