
#######################################################################
#
#                 Cambridge Crystallographic Data Centre
#                                CCDC 
#
#######################################################################
#
# If this CIF has been generated from an entry in the Cambridge 
# Structural Database, then it will include bibliographic, chemical, 
# crystal, experimental, refinement or atomic coordinate data resulting 
# from the CCDC's data processing and validation procedures.
#
#######################################################################

data_EMOQAY
_chemical_formula_moiety         'C21 H24 N2 O2'
_chemical_name_systematic        (+)-Majvinine
_symmetry_cell_setting           orthorhombic
_symmetry_space_group_name_H-M   'P 21 21 21'
_symmetry_Int_Tables_number      19
_space_group_name_Hall           'P 2ac 2ab'
loop_
_symmetry_equiv_pos_site_id
_symmetry_equiv_pos_as_xyz
1 x,y,z
2 1/2-x,-y,1/2+z
3 1/2+x,1/2-y,-z
4 -x,1/2+y,1/2-z
_cell_length_a                   7.5430(1)
_cell_length_b                   11.2927(2)
_cell_length_c                   21.2777(3)
_cell_angle_alpha                90
_cell_angle_beta                 90
_cell_angle_gamma                90
_cell_volume                     1812.45
_cell_formula_units_Z            4
loop_
_atom_site_label
_atom_site_type_symbol
_atom_site_fract_x
_atom_site_fract_y
_atom_site_fract_z
N1 N 0.5578(2) 0.8896(2) 0.8849(1)
C1 C 0.5315(3) 0.7747(2) 0.9056(1)
C2 C 0.6505(3) 0.7103(2) 0.9493(1)
N2 N 0.5462(2) 0.6126(2) 0.9768(1)
C3 C 0.4731(3) 0.5379(2) 0.9257(1)
C4 C 0.3238(3) 0.6044(2) 0.8925(1)
C5 C 0.3832(3) 0.7280(2) 0.8784(1)
C6 C 0.3087(3) 0.8182(2) 0.8395(1)
C7 C 0.1539(3) 0.8246(2) 0.8026(1)
C8 C 0.1154(4) 0.9308(2) 0.7736(1)
O1 O -0.0315(3) 0.9505(2) 0.7369(1)
C9 C -0.1526(5) 0.8568(3) 0.7296(2)
C10 C 0.2274(4) 1.0283(2) 0.7799(1)
C11 C 0.3801(4) 1.0236(2) 0.8148(1)
C12 C 0.4198(3) 0.9180(2) 0.8446(1)
C13 C 0.8199(3) 0.6626(2) 0.9165(1)
C14 C 0.8042(3) 0.5288(2) 0.9112(1)
C15 C 0.6221(3) 0.4994(2) 0.8805(1)
C16 C 0.6145(4) 0.3714(2) 0.8628(1)
O2 O 0.5026(3) 0.3039(2) 0.8757(1)
C17 C 1.0299(4) 0.3160(3) 0.9604(2)
C18 C 0.8947(3) 0.3851(2) 0.9964(2)
C19 C 0.8007(3) 0.4760(2) 0.9758(1)
C20 C 0.6646(3) 0.5397(2) 1.0158(1)
C21 C 0.7041(4) 0.9671(2) 0.9024(2)
H1 H 0.6861 0.7643 0.9831
H2 H 0.4226 0.4665 0.9447
H3 H 0.2930 0.5641 0.8537
H4 H 0.2195 0.6063 0.9192
H5 H 0.0799 0.7592 0.7980
H6 H -0.2473 0.8812 0.7024
H7 H -0.2002 0.8355 0.7699
H8 H -0.0931 0.7898 0.7116
H9 H 0.1977 1.0986 0.7598
H10 H 0.4542 1.0891 0.8183
H11 H 0.8314 0.6975 0.8750
H12 H 0.9241 0.6833 0.9408
H13 H 0.9019 0.4959 0.8863
H14 H 0.6114 0.5463 0.8419
H15 H 0.7085 0.3424 0.8390
H16 H 1.1415 0.3193 0.9820
H17 H 1.0429 0.3494 0.9192
H18 H 0.9921 0.2351 0.9569
H19 H 0.8745 0.3616 1.0377
H20 H 0.5950 0.4820 1.0388
H21 H 0.7249 0.5898 1.0460
H22 H 0.6917 1.0417 0.8813
H23 H 0.8144 0.9310 0.8905
H24 H 0.7028 0.9795 0.9471
loop_
_geom_bond_atom_site_label_1
_geom_bond_atom_site_label_2
_geom_bond_site_symmetry_1
_geom_bond_site_symmetry_2
N1 C1 1_555 1_555
C1 C2 1_555 1_555
C2 N2 1_555 1_555
N2 C3 1_555 1_555
C3 C4 1_555 1_555
C4 C5 1_555 1_555
C5 C1 1_555 1_555
C6 C5 1_555 1_555
C7 C6 1_555 1_555
C8 C7 1_555 1_555
O1 C8 1_555 1_555
C9 O1 1_555 1_555
C10 C8 1_555 1_555
C11 C10 1_555 1_555
C12 N1 1_555 1_555
C13 C2 1_555 1_555
C14 C13 1_555 1_555
C15 C3 1_555 1_555
C16 C15 1_555 1_555
O2 C16 1_555 1_555
C17 C18 1_555 1_555
C18 C19 1_555 1_555
C19 C14 1_555 1_555
C20 N2 1_555 1_555
C21 N1 1_555 1_555
H1 C2 1_555 1_555
H2 C3 1_555 1_555
H3 C4 1_555 1_555
H4 C4 1_555 1_555
H5 C7 1_555 1_555
H6 C9 1_555 1_555
H7 C9 1_555 1_555
H8 C9 1_555 1_555
H9 C10 1_555 1_555
H10 C11 1_555 1_555
H11 C13 1_555 1_555
H12 C13 1_555 1_555
H13 C14 1_555 1_555
H14 C15 1_555 1_555
H15 C16 1_555 1_555
H16 C17 1_555 1_555
H17 C17 1_555 1_555
H18 C17 1_555 1_555
H19 C18 1_555 1_555
H20 C20 1_555 1_555
H21 C20 1_555 1_555
H22 C21 1_555 1_555
H23 C21 1_555 1_555
H24 C21 1_555 1_555
C6 C12 1_555 1_555
C11 C12 1_555 1_555
C14 C15 1_555 1_555
C19 C20 1_555 1_555

#END
