
#######################################################################
#
#                 Cambridge Crystallographic Data Centre
#                                CCDC 
#
#######################################################################
#
# If this CIF has been generated from an entry in the Cambridge 
# Structural Database, then it will include bibliographic, chemical, 
# crystal, experimental, refinement or atomic coordinate data resulting 
# from the CCDC's data processing and validation procedures.
#
#######################################################################

data_EMOQUU
_chemical_formula_moiety         'C16 H8 N4 O3'
_chemical_name_systematic        
5,9-dihydrophthalazino[8',1':5,6,7]oxepino[2,3,4-de]phthalazine-4,10-dione
_symmetry_cell_setting           orthorhombic
_symmetry_space_group_name_H-M   'P b c a'
_symmetry_Int_Tables_number      61
_space_group_name_Hall           '-P 2ac 2ab'
loop_
_symmetry_equiv_pos_site_id
_symmetry_equiv_pos_as_xyz
1 x,y,z
2 1/2-x,-y,1/2+z
3 1/2+x,1/2-y,-z
4 -x,1/2+y,1/2-z
5 -x,-y,-z
6 1/2+x,y,1/2-z
7 1/2-x,1/2+y,z
8 x,1/2-y,1/2+z
_cell_length_a                   21.1754(13)
_cell_length_b                   7.0962(4)
_cell_length_c                   16.6039(14)
_cell_angle_alpha                90
_cell_angle_beta                 90
_cell_angle_gamma                90
_cell_volume                     2494.98
_exptl_crystal_colour            yellow
_exptl_crystal_description       block
_cell_formula_units_Z            8
loop_
_atom_site_label
_atom_site_type_symbol
_atom_site_fract_x
_atom_site_fract_y
_atom_site_fract_z
O1 O 0.37409(7) 0.8738(3) 0.35446(10)
O2 O -0.11461(7) 0.7347(3) 0.34763(9)
N1 N 0.29145(8) 0.8153(3) 0.27163(10)
H1 H 0.3177 0.7778 0.2355
O3 O 0.12825(8) 0.8956(3) 0.27681(12)
N2 N 0.22865(8) 0.8185(3) 0.25041(10)
N3 N -0.03550(8) 0.8324(3) 0.26718(10)
H2 H -0.0629 0.8506 0.2297
C1 C 0.20470(9) 0.8829(3) 0.39094(12)
C2 C 0.09450(9) 0.8357(3) 0.45593(12)
C3 C 0.18784(9) 0.8534(3) 0.30720(12)
C4 C 0.05228(9) 0.8234(3) 0.38922(12)
N4 N 0.02671(8) 0.8638(3) 0.24762(11)
C5 C -0.05769(9) 0.7766(3) 0.33850(12)
C6 C -0.01149(9) 0.7750(3) 0.40397(12)
C7 C 0.16120(9) 0.9030(3) 0.45538(12)
C8 C 0.06800(9) 0.8593(3) 0.30582(12)
C9 C 0.31593(10) 0.8650(3) 0.34340(13)
C10 C 0.26972(9) 0.9036(3) 0.40659(12)
C11 C 0.29169(10) 0.9604(3) 0.48222(13)
H3 H 0.3348 0.9684 0.4923
C12 C -0.03330(10) 0.7325(3) 0.48096(13)
H4 H -0.0758 0.7061 0.4896
C13 C 0.24890(11) 1.0042(3) 0.54113(13)
H5 H 0.2626 1.0529 0.5901
C14 C 0.00856(10) 0.7300(3) 0.54386(13)
H6 H -0.0050 0.6957 0.5951
C15 C 0.18512(10) 0.9757(3) 0.52758(13)
H7 H 0.1568 1.0064 0.5684
C16 C 0.07094(10) 0.7786(3) 0.53093(12)
H8 H 0.0987 0.7731 0.5742
loop_
_geom_bond_atom_site_label_1
_geom_bond_atom_site_label_2
_geom_bond_site_symmetry_1
_geom_bond_site_symmetry_2
O1 C9 1_555 1_555
O2 C5 1_555 1_555
N1 H1 1_555 1_555
O3 C3 1_555 1_555
N2 N1 1_555 1_555
N3 H2 1_555 1_555
C1 C3 1_555 1_555
C2 C4 1_555 1_555
C3 N2 1_555 1_555
C4 C6 1_555 1_555
N4 N3 1_555 1_555
C5 N3 1_555 1_555
C6 C5 1_555 1_555
C7 C1 1_555 1_555
C8 O3 1_555 1_555
C9 N1 1_555 1_555
C10 C1 1_555 1_555
C11 C10 1_555 1_555
H3 C11 1_555 1_555
C12 C6 1_555 1_555
H4 C12 1_555 1_555
C13 C11 1_555 1_555
H5 C13 1_555 1_555
C14 C12 1_555 1_555
H6 C14 1_555 1_555
C15 C7 1_555 1_555
H7 C15 1_555 1_555
C16 C2 1_555 1_555
H8 C16 1_555 1_555
C2 C7 1_555 1_555
C4 C8 1_555 1_555
N4 C8 1_555 1_555
C9 C10 1_555 1_555
C13 C15 1_555 1_555
C14 C16 1_555 1_555

#END
