
#######################################################################
#
#                 Cambridge Crystallographic Data Centre
#                                CCDC 
#
#######################################################################
#
# If this CIF has been generated from an entry in the Cambridge 
# Structural Database, then it will include bibliographic, chemical, 
# crystal, experimental, refinement or atomic coordinate data resulting 
# from the CCDC's data processing and validation procedures.
#
#######################################################################

data_EMUJAY
_chemical_formula_moiety         'C9 H21 N3 2+,2(Cl1 1-)'
_chemical_name_systematic        
'2-(4-(Dimethylammonio)-3-methylbut-2-en-1-ylidene)-1,1-dimethylhydrazinium dichloride'
_symmetry_cell_setting           triclinic
_symmetry_space_group_name_H-M   'P -1'
_symmetry_Int_Tables_number      2
_space_group_name_Hall           '-P 1'
loop_
_symmetry_equiv_pos_site_id
_symmetry_equiv_pos_as_xyz
1 x,y,z
2 -x,-y,-z
_cell_length_a                   7.075(2)
_cell_length_b                   8.224(2)
_cell_length_c                   12.120(2)
_cell_angle_alpha                104.332(5)
_cell_angle_beta                 105.651(4)
_cell_angle_gamma                94.739(4)
_cell_volume                     649.429
_exptl_crystal_colour            colorless
_exptl_crystal_description       platelet
_cell_formula_units_Z            2
loop_
_atom_site_label
_atom_site_type_symbol
_atom_site_fract_x
_atom_site_fract_y
_atom_site_fract_z
C1 C 0.60970(12) 0.29021(11) 0.32585(8)
H1 H 0.7131 0.2600 0.2953
C2 C 0.62982(12) 0.31232(11) 0.45139(7)
H2 H 0.5190 0.3311 0.4772
C3 C 0.80001(12) 0.30703(11) 0.53220(7)
C4 C 0.80515(13) 0.33354(11) 0.66017(7)
H3 H 0.6719 0.3402 0.6663
H4 H 0.8888 0.4408 0.7081
C5 C 0.99216(14) 0.28215(14) 0.50510(9)
H5 H 1.0195 0.1705 0.5076
H6 H 1.0980 0.3658 0.5633
H7 H 0.9819 0.2942 0.4270
C6 C 0.32733(13) 0.10923(12) 0.06510(8)
H8 H 0.3893 0.0234 0.0957
H9 H 0.3196 0.0884 -0.0176
H10 H 0.1958 0.1061 0.0731
C7 C 0.36291(13) 0.41662(12) 0.08601(8)
H11 H 0.2317 0.4207 0.0937
H12 H 0.3563 0.3938 0.0033
H13 H 0.4462 0.5238 0.1302
C8 C 0.75615(14) 0.02474(11) 0.64124(9)
H14 H 0.8122 -0.0624 0.6732
H15 H 0.7502 0.0009 0.5586
H16 H 0.6245 0.0275 0.6484
C9 C 0.89689(14) 0.23127(13) 0.83805(8)
H17 H 0.7659 0.2311 0.8467
H18 H 0.9757 0.3411 0.8801
H19 H 0.9580 0.1464 0.8704
N1 N 0.44681(11) 0.31316(10) 0.25806(7)
N2 N 0.44728(10) 0.27966(10) 0.13372(6)
H20 H 0.5744 0.2801 0.1306
N3 N 0.88297(10) 0.19287(9) 0.70898(6)
H21 H 1.0074 0.1874 0.7021
Cl1 Cl 0.86680(3) 0.30134(3) 0.11769(2)
Cl2 Cl 1.31699(3) 0.14159(3) 0.73811(2)
loop_
_geom_bond_atom_site_label_1
_geom_bond_atom_site_label_2
_geom_bond_site_symmetry_1
_geom_bond_site_symmetry_2
C1 H1 1_555 1_555
C2 C1 1_555 1_555
H2 C2 1_555 1_555
C3 C2 1_555 1_555
C4 C3 1_555 1_555
H3 C4 1_555 1_555
H4 C4 1_555 1_555
C5 C3 1_555 1_555
H5 C5 1_555 1_555
H6 C5 1_555 1_555
H7 C5 1_555 1_555
C6 H8 1_555 1_555
H9 C6 1_555 1_555
H10 C6 1_555 1_555
C7 H11 1_555 1_555
H12 C7 1_555 1_555
H13 C7 1_555 1_555
C8 H14 1_555 1_555
H15 C8 1_555 1_555
H16 C8 1_555 1_555
C9 H17 1_555 1_555
H18 C9 1_555 1_555
H19 C9 1_555 1_555
N1 C1 1_555 1_555
N2 C6 1_555 1_555
H20 N2 1_555 1_555
N3 C4 1_555 1_555
H21 N3 1_555 1_555
C7 N2 1_555 1_555
C8 N3 1_555 1_555
C9 N3 1_555 1_555
N1 N2 1_555 1_555

#END
