
#######################################################################
#
#                 Cambridge Crystallographic Data Centre
#                                CCDC 
#
#######################################################################
#
# If this CIF has been generated from an entry in the Cambridge 
# Structural Database, then it will include bibliographic, chemical, 
# crystal, experimental, refinement or atomic coordinate data resulting 
# from the CCDC's data processing and validation procedures.
#
#######################################################################

data_EMULIJ01
_chemical_name_common            
3-(9-anthryl)-1-(4-methoxyphenyl)prop-2-en-1-one
_chemical_formula_moiety         'C24 H18 O2'
_chemical_name_systematic        
3-(anthracen-9-yl)-1-(4-methoxyphenyl)prop-2-en-1-one
_symmetry_cell_setting           monoclinic
_symmetry_space_group_name_H-M   'C 2/c'
_symmetry_Int_Tables_number      15
_space_group_name_Hall           '-C 2yn'
loop_
_symmetry_equiv_pos_site_id
_symmetry_equiv_pos_as_xyz
1 x,y,z
2 -x,y,1/2-z
3 1/2+x,1/2+y,z
4 1/2-x,1/2+y,1/2-z
5 -x,-y,-z
6 x,-y,1/2+z
7 1/2-x,1/2-y,-z
8 1/2+x,1/2-y,1/2+z
_cell_length_a                   17.9441(3)
_cell_length_b                   5.84250(10)
_cell_length_c                   34.8916(6)
_cell_angle_alpha                90
_cell_angle_beta                 104.481(3)
_cell_angle_gamma                90
_cell_volume                     3541.77
_exptl_crystal_colour            yellow
_exptl_crystal_description       block
_chemical_melting_point          '436 K'
_cell_formula_units_Z            8
loop_
_atom_site_label
_atom_site_type_symbol
_atom_site_fract_x
_atom_site_fract_y
_atom_site_fract_z
O1 O 0.28689(6) 0.03339(14) 0.09249(3)
O2 O 0.42594(6) 0.36734(18) -0.04654(3)
C1 C 0.35214(7) 0.5233(2) -0.00296(4)
H1 H 0.3455 0.6636 -0.0160
C2 C 0.32935(6) 0.27904(18) 0.04893(3)
C3 C 0.39231(7) 0.3505(2) -0.01573(4)
C4 C 0.23599(7) 0.39625(19) 0.13243(3)
H2 H 0.2223 0.2475 0.1372
C5 C 0.32167(7) 0.4869(2) 0.02938(4)
H3 H 0.2954 0.6053 0.0381
C6 C 0.29530(6) 0.23059(18) 0.08262(3)
C7 C 0.26991(7) 0.72532(19) 0.17990(3)
C8 C 0.13529(7) 0.6138(2) 0.15491(3)
C9 C 0.21387(7) 0.58067(19) 0.15633(3)
C10 C 0.27346(7) 0.42527(19) 0.10495(3)
H4 H 0.2868 0.5729 0.0993
C11 C 0.16832(8) 0.9535(2) 0.19610(4)
H5 H 0.1531 1.0811 0.2082
C12 C 0.36950(7) 0.1060(2) 0.03520(4)
H6 H 0.3752 -0.0360 0.0477
C13 C 0.11254(7) 0.8055(2) 0.17498(3)
C14 C 0.35053(8) 0.6873(3) 0.18646(4)
H7 H 0.3678 0.5637 0.1743
C15 C 0.40072(8) 0.1418(2) 0.00360(4)
H8 H 0.4278 0.0247 -0.0049
C16 C 0.24616(8) 0.9164(2) 0.19973(3)
C17 C 0.07664(8) 0.4659(3) 0.13343(4)
H9 H 0.0899 0.3432 0.1195
C18 C 0.30350(10) 1.0601(3) 0.22343(4)
H10 H 0.2884 1.1870 0.2357
C19 C 0.03260(9) 0.8371(3) 0.17264(5)
H11 H 0.0170 0.9621 0.1852
C20 C 0.00124(9) 0.5007(3) 0.13287(5)
H12 H -0.0360 0.3990 0.1193
C21 C 0.37871(10) 1.0171(3) 0.22850(5)
H13 H 0.4151 1.1132 0.2443
C22 C 0.41939(11) 0.5763(3) -0.06762(5)
H14 H 0.4475 0.5660 -0.0876
H15 H 0.4400 0.6984 -0.0497
H16 H 0.3662 0.6064 -0.0799
C23 C 0.40252(9) 0.8268(3) 0.21001(5)
H17 H 0.4548 0.7964 0.2140
C24 C -0.02059(9) 0.6895(4) 0.15262(5)
H18 H -0.0722 0.7124 0.1518
loop_
_geom_bond_atom_site_label_1
_geom_bond_atom_site_label_2
_geom_bond_site_symmetry_1
_geom_bond_site_symmetry_2
O1 C6 1_555 1_555
O2 C3 1_555 1_555
C1 H1 1_555 1_555
C2 C5 1_555 1_555
C3 C1 1_555 1_555
C4 H2 1_555 1_555
C5 C1 1_555 1_555
H3 C5 1_555 1_555
C6 C2 1_555 1_555
C7 C9 1_555 1_555
C8 C9 1_555 1_555
C9 C4 1_555 1_555
C10 C4 1_555 1_555
H4 C10 1_555 1_555
C11 H5 1_555 1_555
C12 C2 1_555 1_555
H6 C12 1_555 1_555
C13 C8 1_555 1_555
C14 C7 1_555 1_555
H7 C14 1_555 1_555
C15 C3 1_555 1_555
H8 C15 1_555 1_555
C16 C7 1_555 1_555
C17 C8 1_555 1_555
H9 C17 1_555 1_555
C18 C16 1_555 1_555
H10 C18 1_555 1_555
C19 C13 1_555 1_555
H11 C19 1_555 1_555
C20 C17 1_555 1_555
H12 C20 1_555 1_555
C21 C18 1_555 1_555
H13 C21 1_555 1_555
C22 O2 1_555 1_555
H14 C22 1_555 1_555
H15 C22 1_555 1_555
H16 C22 1_555 1_555
C23 C14 1_555 1_555
H17 C23 1_555 1_555
C24 C19 1_555 1_555
H18 C24 1_555 1_555
C6 C10 1_555 1_555
C11 C13 1_555 1_555
C11 C16 1_555 1_555
C12 C15 1_555 1_555
C20 C24 1_555 1_555
C21 C23 1_555 1_555

#END
