
#######################################################################
#
#                 Cambridge Crystallographic Data Centre
#                                CCDC 
#
#######################################################################
#
# If this CIF has been generated from an entry in the Cambridge 
# Structural Database, then it will include bibliographic, chemical, 
# crystal, experimental, refinement or atomic coordinate data resulting 
# from the CCDC's data processing and validation procedures.
#
#######################################################################

data_EMUQEJ
_chemical_formula_moiety         'C12 H12 N2 O3,2(H2 O1)'
_chemical_name_systematic        
'3-(4-(N,N-dimethylamino)phenylamino)-4-hydroxycyclobut-3-ene-1,2-dione dihydrate'
_symmetry_cell_setting           orthorhombic
_symmetry_space_group_name_H-M   'P n m a'
_symmetry_Int_Tables_number      62
_space_group_name_Hall           '-P 2ac 2n'
loop_
_symmetry_equiv_pos_site_id
_symmetry_equiv_pos_as_xyz
1 x,y,z
2 1/2-x,-y,1/2+z
3 1/2+x,1/2-y,1/2-z
4 -x,1/2+y,-z
5 -x,-y,-z
6 1/2+x,y,1/2-z
7 1/2-x,1/2+y,1/2+z
8 x,1/2-y,z
_cell_length_a                   19.0772(7)
_cell_length_b                   6.9067(3)
_cell_length_c                   9.6850(3)
_cell_angle_alpha                90
_cell_angle_beta                 90
_cell_angle_gamma                90
_cell_volume                     1276.1
_exptl_crystal_colour            'pale yellow'
_exptl_crystal_description       needles
_cell_formula_units_Z            4
loop_
_atom_site_label
_atom_site_type_symbol
_atom_site_fract_x
_atom_site_fract_y
_atom_site_fract_z
O4 O 0.0299(6) 0.180(5) 1.5515(10)
O4G O 0.0299(6) 0.320(5) 1.5515(10)
O1 O -0.22057(13) 0.2500 0.8648(2)
O2 O -0.06377(13) 0.2500 0.7575(3)
O3 O -0.16476(14) 0.2500 1.1833(3)
N1 N -0.00683(14) 0.2500 1.0895(3)
H1 H -0.0120 0.2500 1.1777
N2 N 0.27590(14) 0.2500 0.9180(3)
H2 H 0.2755 0.2500 0.8241
C1 C -0.16236(19) 0.2500 0.9243(4)
C2 C -0.08975(18) 0.2500 0.8746(4)
C3 C -0.13734(18) 0.2500 1.0667(4)
C4 C -0.06661(18) 0.2500 1.0162(3)
C5 C 0.06270(17) 0.2500 1.0429(4)
C6 C 0.08044(19) 0.2500 0.9050(4)
H3 H 0.0454 0.2500 0.8383
C7 C 0.1495(2) 0.2500 0.8658(4)
H4 H 0.1610 0.2500 0.7725
C8 C 0.20182(17) 0.2500 0.9630(4)
C9 C 0.31321(15) 0.0708(5) 0.9612(3)
H5 H 0.3609 0.0758 0.9295
H6 H 0.2903 -0.0399 0.9219
H7 H 0.3126 0.0610 1.0601
C10 C 0.18514(18) 0.2500 1.1015(4)
H8 H 0.2205 0.2500 1.1676
C11 C 0.11599(18) 0.2500 1.1414(3)
H9 H 0.1047 0.2500 1.2348
C9G C 0.31321(15) 0.4292(5) 0.9612(3)
H5G H 0.3609 0.4242 0.9295
H6G H 0.2903 0.5399 0.9219
H7G H 0.3126 0.4390 1.0601
O5? O 0.0427(5) -0.1417(18) 0.6395(7)
loop_
_geom_bond_atom_site_label_1
_geom_bond_atom_site_label_2
_geom_bond_site_symmetry_1
_geom_bond_site_symmetry_2
O1 C1 1_555 1_555
O2 C2 1_555 1_555
O3 C3 1_555 1_555
N1 H1 1_555 1_555
N2 H2 1_555 1_555
C1 C2 1_555 1_555
C2 C4 1_555 1_555
C3 C1 1_555 1_555
C4 N1 1_555 1_555
C5 N1 1_555 1_555
C6 C5 1_555 1_555
H3 C6 1_555 1_555
C7 C6 1_555 1_555
H4 C7 1_555 1_555
C8 N2 1_555 1_555
C9 N2 1_555 1_555
H5 C9 1_555 1_555
H6 C9 1_555 1_555
H7 C9 1_555 1_555
C10 C8 1_555 1_555
H8 C10 1_555 1_555
C11 C5 1_555 1_555
H9 C11 1_555 1_555
O4 O4G 1_555 1_555
C9G N2 1_555 1_555
H5G C9G 1_555 1_555
H6G C9G 1_555 1_555
H7G C9G 1_555 1_555
C3 C4 1_555 1_555
C7 C8 1_555 1_555
C10 C11 1_555 1_555

#END
