
#######################################################################
#
#                 Cambridge Crystallographic Data Centre
#                                CCDC 
#
#######################################################################
#
# If this CIF has been generated from an entry in the Cambridge 
# Structural Database, then it will include bibliographic, chemical, 
# crystal, experimental, refinement or atomic coordinate data resulting 
# from the CCDC's data processing and validation procedures.
#
#######################################################################

data_ENALOU01
_chemical_formula_moiety         'C13 H13 N1 O1'
_chemical_name_systematic        4-(4-Aminobenzyl)phenol
_symmetry_cell_setting           monoclinic
_symmetry_space_group_name_H-M   'P 21/n'
_symmetry_Int_Tables_number      14
_space_group_name_Hall           '-P 2yn'
loop_
_symmetry_equiv_pos_site_id
_symmetry_equiv_pos_as_xyz
1 x,y,z
2 1/2+x,1/2-y,1/2+z
3 -x,-y,-z
4 1/2-x,1/2+y,1/2-z
_cell_length_a                   5.9180(12)
_cell_length_b                   19.213(4)
_cell_length_c                   9.6510(19)
_cell_angle_alpha                90
_cell_angle_beta                 101.25(3)
_cell_angle_gamma                90
_cell_volume                     1076.26
_exptl_crystal_colour            colorless
_exptl_crystal_description       'irregular prisms'
_chemical_melting_point          '147.59 deg.C'
_cell_formula_units_Z            4
loop_
_atom_site_label
_atom_site_type_symbol
_atom_site_fract_x
_atom_site_fract_y
_atom_site_fract_z
O1 O 1.2754(8) 0.0518(3) 0.0633(4)
H1 H 1.2905(17) 0.0022(7) 0.0806(11)
C1 C 1.1360(5) 0.0830(2) 0.1393(3)
C2 C 1.0112(6) 0.0463(2) 0.2240(3)
C3 C 0.8633(6) 0.0821(2) 0.2950(3)
C4 C 0.8409(6) 0.1544(2) 0.2864(3)
C5 C 0.9693(6) 0.1901(2) 0.2039(3)
C6 C 1.1166(6) 0.1550(2) 0.1310(3)
H2 H 1.026(2) -0.0086(6) 0.2316(12)
H3 H 0.7683(17) 0.0528(6) 0.3598(10)
H4 H 0.959(2) 0.2461(7) 0.1954(12)
H5 H 1.2169(18) 0.1836(6) 0.0679(9)
C7 C 0.6759(6) 0.1922(2) 0.3592(3)
H6 H 0.7290(18) 0.2479(6) 0.3677(10)
H7 H 0.5043(15) 0.1921(7) 0.2937(8)
C8 C 0.6615(5) 0.1650(2) 0.5028(3)
C9 C 0.4641(5) 0.1328(2) 0.5286(3)
C10 C 0.4514(5) 0.1080(2) 0.6620(3)
C11 C 0.6393(5) 0.1149(2) 0.7737(3)
C12 C 0.8386(5) 0.1469(2) 0.7476(3)
C13 C 0.8488(5) 0.1712(2) 0.6148(3)
H8 H 0.3185(15) 0.1266(7) 0.4435(9)
H9 H 0.2981(15) 0.0820(7) 0.6801(9)
H10 H 0.9839(15) 0.1514(7) 0.8332(8)
H11 H 1.0031(14) 0.1955(7) 0.5967(11)
N1 N 0.6331(4) 0.08691(19) 0.9071(2)
H12 H 0.4764(15) 0.0839(7) 0.9332(10)
H13 H 0.7425(17) 0.1104(7) 0.9854(9)
loop_
_geom_bond_atom_site_label_1
_geom_bond_atom_site_label_2
_geom_bond_site_symmetry_1
_geom_bond_site_symmetry_2
O1 H1 1_555 1_555
C1 O1 1_555 1_555
C2 C1 1_555 1_555
C3 C2 1_555 1_555
C4 C3 1_555 1_555
C5 C4 1_555 1_555
C6 C1 1_555 1_555
H2 C2 1_555 1_555
H3 C3 1_555 1_555
H4 C5 1_555 1_555
H5 C6 1_555 1_555
C7 C4 1_555 1_555
H6 C7 1_555 1_555
H7 C7 1_555 1_555
C8 C7 1_555 1_555
C9 C8 1_555 1_555
C10 C9 1_555 1_555
C11 C10 1_555 1_555
C12 C11 1_555 1_555
C13 C8 1_555 1_555
H8 C9 1_555 1_555
H9 C10 1_555 1_555
H10 C12 1_555 1_555
H11 C13 1_555 1_555
N1 C11 1_555 1_555
H12 N1 1_555 1_555
H13 N1 1_555 1_555
C5 C6 1_555 1_555
C12 C13 1_555 1_555

#END
