
#######################################################################
#
#                 Cambridge Crystallographic Data Centre
#                                CCDC 
#
#######################################################################
#
# If this CIF has been generated from an entry in the Cambridge 
# Structural Database, then it will include bibliographic, chemical, 
# crystal, experimental, refinement or atomic coordinate data resulting 
# from the CCDC's data processing and validation procedures.
#
#######################################################################

data_ENAMAH
_chemical_formula_moiety         'C15 H17 N1 O1'
_chemical_name_systematic        4-(3-(4-Aminophenyl)propyl)phenol
_symmetry_cell_setting           orthorhombic
_symmetry_space_group_name_H-M   'P c a 21'
_symmetry_Int_Tables_number      29
_space_group_name_Hall           'P 2c -2ac'
loop_
_symmetry_equiv_pos_site_id
_symmetry_equiv_pos_as_xyz
1 x,y,z
2 -x,-y,1/2+z
3 1/2+x,-y,z
4 1/2-x,y,1/2+z
_cell_length_a                   23.9370(7)
_cell_length_b                   6.2160(2)
_cell_length_c                   8.3970(3)
_cell_angle_alpha                90
_cell_angle_beta                 90
_cell_angle_gamma                90
_cell_volume                     1249.41
_exptl_crystal_colour            colorless
_exptl_crystal_description       plate
_chemical_melting_point          '141.96 deg.C'
_cell_formula_units_Z            4
loop_
_atom_site_label
_atom_site_type_symbol
_atom_site_fract_x
_atom_site_fract_y
_atom_site_fract_z
O1 O 0.30906(5) 0.6252(2) 0.89760(16)
C1 C 0.36016(6) 0.5501(3) 0.84736(19)
C2 C 0.37764(7) 0.3403(3) 0.8759(2)
C3 C 0.42867(6) 0.2707(3) 0.8160(2)
C4 C 0.46344(6) 0.4049(3) 0.72817(19)
C5 C 0.44565(7) 0.6161(3) 0.70390(19)
C6 C 0.39424(7) 0.6890(3) 0.7620(2)
C7 C 0.51706(7) 0.3205(3) 0.6551(2)
C8 C 0.55616(7) 0.2066(3) 0.7723(2)
C9 C 0.60776(8) 0.1120(3) 0.6910(2)
C10 C 0.64508(6) -0.0143(3) 0.80184(19)
C11 C 0.62983(7) -0.2195(3) 0.8552(2)
C12 C 0.66357(7) -0.3346(3) 0.9589(2)
C13 C 0.71364(7) -0.2478(3) 1.01374(19)
C14 C 0.72945(7) -0.0434(3) 0.9621(2)
C15 C 0.69522(7) 0.0704(3) 0.8573(2)
N1 N 0.75022(7) -0.3713(3) 1.11167(19)
H1 H 0.2923(9) 0.535(4) 0.967(3)
H2 H 0.3551(8) 0.244(3) 0.934(2)
H3 H 0.4383(8) 0.127(3) 0.833(3)
H4 H 0.4698(8) 0.711(3) 0.648(2)
H5 H 0.3824(8) 0.834(3) 0.742(2)
H6 H 0.5367(9) 0.439(4) 0.605(3)
H7 H 0.5072(9) 0.221(3) 0.569(3)
H8 H 0.5670(8) 0.303(3) 0.855(2)
H9 H 0.5345(8) 0.096(3) 0.830(2)
H10 H 0.6290(9) 0.228(4) 0.640(3)
H11 H 0.5943(10) 0.022(4) 0.602(3)
H12 H 0.5949(8) -0.275(3) 0.824(2)
H13 H 0.6513(8) -0.472(3) 0.999(2)
H14 H 0.7643(9) 0.017(3) 0.996(3)
H15 H 0.7066(7) 0.209(3) 0.824(2)
H16 H 0.7706(9) -0.292(4) 1.169(3)
H17 H 0.7314(8) -0.471(3) 1.167(2)
loop_
_geom_bond_atom_site_label_1
_geom_bond_atom_site_label_2
_geom_bond_site_symmetry_1
_geom_bond_site_symmetry_2
O1 C1 1_555 1_555
C1 C2 1_555 1_555
C2 C3 1_555 1_555
C3 C4 1_555 1_555
C4 C5 1_555 1_555
C5 C6 1_555 1_555
C6 C1 1_555 1_555
C7 C4 1_555 1_555
C8 C7 1_555 1_555
C9 C8 1_555 1_555
C10 C9 1_555 1_555
C11 C10 1_555 1_555
C12 C11 1_555 1_555
C13 C12 1_555 1_555
C14 C13 1_555 1_555
C15 C10 1_555 1_555
N1 C13 1_555 1_555
H1 O1 1_555 1_555
H2 C2 1_555 1_555
H3 C3 1_555 1_555
H4 C5 1_555 1_555
H5 C6 1_555 1_555
H6 C7 1_555 1_555
H7 C7 1_555 1_555
H8 C8 1_555 1_555
H9 C8 1_555 1_555
H10 C9 1_555 1_555
H11 C9 1_555 1_555
H12 C11 1_555 1_555
H13 C12 1_555 1_555
H14 C14 1_555 1_555
H15 C15 1_555 1_555
H16 N1 1_555 1_555
H17 N1 1_555 1_555
C14 C15 1_555 1_555

#END
