
#######################################################################
#
#                 Cambridge Crystallographic Data Centre
#                                CCDC 
#
#######################################################################
#
# If this CIF has been generated from an entry in the Cambridge 
# Structural Database, then it will include bibliographic, chemical, 
# crystal, experimental, refinement or atomic coordinate data resulting 
# from the CCDC's data processing and validation procedures.
#
#######################################################################

data_ENANAI
_chemical_formula_moiety         'C13 H13 N1 O1 S1'
_chemical_name_systematic        4-((4-Aminophenylsulfanyl)methyl)phenol
_symmetry_cell_setting           monoclinic
_symmetry_space_group_name_H-M   'P c'
_symmetry_Int_Tables_number      7
_space_group_name_Hall           'P -2yc'
loop_
_symmetry_equiv_pos_site_id
_symmetry_equiv_pos_as_xyz
1 x,y,z
2 x,-y,1/2+z
_cell_length_a                   13.7422(12)
_cell_length_b                   5.1725(4)
_cell_length_c                   8.3055(7)
_cell_angle_alpha                90
_cell_angle_beta                 105.548(4)
_cell_angle_gamma                90
_cell_volume                     568.764
_exptl_crystal_colour            colorless
_exptl_crystal_description       block
_chemical_melting_point          '205-207 deg.C'
_cell_formula_units_Z            2
loop_
_atom_site_label
_atom_site_type_symbol
_atom_site_fract_x
_atom_site_fract_y
_atom_site_fract_z
O1 O 1.12565(16) 0.1672(5) 0.7094(3)
H1 H 1.144(3) 0.034(9) 0.756(5)
C1 C 1.0239(2) 0.2061(6) 0.6877(4)
C2 C 0.9792(3) 0.4181(6) 0.5934(4)
H2 H 1.0185 0.5310 0.5459
C3 C 0.8772(3) 0.4627(6) 0.5695(5)
H3 H 0.8472 0.6084 0.5055
C4 C 0.8165(2) 0.2995(6) 0.6368(4)
C5 C 0.8634(2) 0.0887(6) 0.7307(4)
H4 H 0.8240 -0.0259 0.7768
C6 C 0.9658(2) 0.0416(6) 0.7586(4)
H5 H 0.9964 -0.1010 0.8253
C7 C 0.7053(2) 0.3479(7) 0.6071(4)
H6 H 0.6904 0.5343 0.5870
H7 H 0.6830 0.2945 0.7061
S1 S 0.63876(7) 0.15822(17) 0.42323(10)
C8 C 0.5101(2) 0.2088(6) 0.4223(4)
C9 C 0.4534(3) 0.4103(6) 0.3315(4)
H8 H 0.4845 0.5292 0.2736
C10 C 0.3524(2) 0.4385(6) 0.3250(4)
H9 H 0.3146 0.5764 0.2626
C11 C 0.3053(2) 0.2651(6) 0.4099(4)
C12 C 0.3625(2) 0.0674(6) 0.5026(4)
H10 H 0.3322 -0.0488 0.5634
C13 C 0.4630(2) 0.0386(6) 0.5070(4)
H11 H 0.5007 -0.0998 0.5689
N1 N 0.2006(2) 0.2821(6) 0.3939(4)
H12 H 0.175(3) 0.431(7) 0.356(5)
H13 H 0.180(3) 0.251(6) 0.491(4)
loop_
_geom_bond_atom_site_label_1
_geom_bond_atom_site_label_2
_geom_bond_site_symmetry_1
_geom_bond_site_symmetry_2
O1 H1 1_555 1_555
C1 O1 1_555 1_555
C2 C1 1_555 1_555
H2 C2 1_555 1_555
C3 C2 1_555 1_555
H3 C3 1_555 1_555
C4 C3 1_555 1_555
C5 C4 1_555 1_555
H4 C5 1_555 1_555
C6 C1 1_555 1_555
H5 C6 1_555 1_555
C7 C4 1_555 1_555
H6 C7 1_555 1_555
H7 C7 1_555 1_555
S1 C7 1_555 1_555
C8 S1 1_555 1_555
C9 C8 1_555 1_555
H8 C9 1_555 1_555
C10 C9 1_555 1_555
H9 C10 1_555 1_555
C11 C10 1_555 1_555
C12 C11 1_555 1_555
H10 C12 1_555 1_555
C13 C8 1_555 1_555
H11 C13 1_555 1_555
N1 C11 1_555 1_555
H12 N1 1_555 1_555
H13 N1 1_555 1_555
C5 C6 1_555 1_555
C12 C13 1_555 1_555

#END
