
#######################################################################
#
#                 Cambridge Crystallographic Data Centre
#                                CCDC 
#
#######################################################################
#
# If this CIF has been generated from an entry in the Cambridge 
# Structural Database, then it will include bibliographic, chemical, 
# crystal, experimental, refinement or atomic coordinate data resulting 
# from the CCDC's data processing and validation procedures.
#
#######################################################################

data_ENAZOI
_chemical_name_common            
"C-Methylcalix(4)resorcinarene 4,4'-bipyridine benzil clathrate"
_chemical_formula_moiety         'C32 H32 O8,C10 H8 N2,C14 H10 O2'
_chemical_name_systematic        
"2,8,14,20-Tetramethyl-4,6,10,12,16,18,22,24-octahydroxycalix(4)arene 4,4'-bipyridine benzil clathrate"
_symmetry_cell_setting           monoclinic
_symmetry_space_group_name_H-M   'P 21/c'
_symmetry_Int_Tables_number      14
_space_group_name_Hall           '-P 2ybc'
loop_
_symmetry_equiv_pos_site_id
_symmetry_equiv_pos_as_xyz
1 x,y,z
2 -x,1/2+y,1/2-z
3 -x,-y,-z
4 x,1/2-y,1/2+z
_cell_length_a                   19.813(3)
_cell_length_b                   20.818(2)
_cell_length_c                   21.366(3)
_cell_angle_alpha                90
_cell_angle_beta                 92.345(4)
_cell_angle_gamma                90
_cell_volume                     8805.39
_exptl_crystal_colour            yellow
_exptl_crystal_description       block
_cell_formula_units_Z            8
loop_
_atom_site_label
_atom_site_type_symbol
_atom_site_fract_x
_atom_site_fract_y
_atom_site_fract_z
O1 O 0.38939(14) 0.29054(13) -0.25828(13)
H1 H 0.3699 0.2965 -0.2256
O2 O 0.36207(13) 0.51485(13) -0.25386(12)
H2 H 0.3679 0.5479 -0.2739
O3 O 0.46490(13) 0.66488(13) -0.38423(12)
H3 H 0.4722 0.7035 -0.3809
O4 O 0.65402(13) 0.65930(13) -0.23533(12)
H4 H 0.6474 0.6982 -0.2341
O5 O 0.51693(12) 0.52617(12) -0.12997(12)
H5 H 0.4835 0.5197 -0.1094
O6 O 0.51469(12) 0.29681(12) -0.12351(12)
H6 H 0.4812 0.3049 -0.1036
O7 O 0.64041(12) 0.14717(12) -0.21828(12)
H7 H 0.6491 0.1648 -0.1846
O8 O 0.46955(13) 0.15557(13) -0.38005(12)
H8 H 0.4745 0.1166 -0.3764
C1 C 0.43069(18) 0.35137(18) -0.34502(17)
C2 C 0.39815(18) 0.34884(19) -0.28824(18)
C3 C 0.37542(18) 0.40351(19) -0.25969(17)
H9 H 0.3532 0.4004 -0.2223
C4 C 0.38553(17) 0.46331(19) -0.28643(17)
C5 C 0.41915(17) 0.46885(18) -0.34276(17)
C6 C 0.44070(17) 0.41220(18) -0.37022(17)
H10 H 0.4631 0.4151 -0.4075
C7 C 0.43476(18) 0.53471(18) -0.36893(16)
H11 H 0.3945 0.5613 -0.3640
C8 C 0.4476(2) 0.5324(2) -0.43907(17)
H12 H 0.4102 0.5120 -0.4609
H13 H 0.4882 0.5085 -0.4457
H14 H 0.4527 0.5754 -0.4546
C9 C 0.49325(18) 0.56803(18) -0.33211(16)
C10 C 0.50644(18) 0.63231(19) -0.34296(16)
C11 C 0.56130(18) 0.66299(18) -0.31260(17)
H15 H 0.5715 0.7054 -0.3222
C12 C 0.60062(18) 0.62979(19) -0.26783(16)
C13 C 0.58737(18) 0.56570(18) -0.25376(17)
C14 C 0.53411(17) 0.53624(18) -0.28735(16)
H16 H 0.5254 0.4932 -0.2795
C15 C 0.63219(17) 0.53098(18) -0.20441(17)
C16 C 0.70382(18) 0.5222(2) -0.22837(18)
H17 H 0.7316 0.5007 -0.1970
H18 H 0.7229 0.5635 -0.2371
H19 H 0.7017 0.4969 -0.2660
C17 C 0.60193(17) 0.46876(18) -0.18297(16)
C18 C 0.54399(18) 0.46864(18) -0.14719(16)
C19 C 0.51531(17) 0.41155(18) -0.12844(16)
H20 H 0.4764 0.4128 -0.1055
C20 C 0.54296(18) 0.35287(18) -0.14296(16)
C21 C 0.60152(18) 0.35024(18) -0.17782(16)
C22 C 0.62819(17) 0.40891(18) -0.19698(16)
H21 H 0.6664 0.4077 -0.2209
C23 C 0.63212(17) 0.28652(18) -0.19489(17)
H22 H 0.6321 0.2598 -0.1571
C24 C 0.70604(19) 0.2909(2) -0.2142(2)
H23 H 0.7323 0.3134 -0.1824
H24 H 0.7080 0.3136 -0.2531
H25 H 0.7239 0.2484 -0.2190
C25 C 0.59043(17) 0.25061(19) -0.24560(16)
C26 C 0.59636(18) 0.18479(18) -0.25361(16)
C27 C 0.55715(17) 0.15270(18) -0.29894(16)
H26 H 0.5618 0.1086 -0.3040
C28 C 0.51099(18) 0.18651(18) -0.33665(16)
C29 C 0.50467(18) 0.25274(19) -0.33172(16)
C30 C 0.54536(18) 0.28368(19) -0.28606(16)
H27 H 0.5424 0.3281 -0.2824
C31 C 0.45499(19) 0.28996(18) -0.37501(17)
H28 H 0.4152 0.2625 -0.3820
C32 C 0.4857(2) 0.3001(2) -0.43925(18)
H29 H 0.4545 0.3235 -0.4661
H30 H 0.4948 0.2591 -0.4578
H31 H 0.5271 0.3239 -0.4340
O9 O -0.01885(12) 0.43427(12) 0.13500(12)
H32 H 0.0139 0.4410 0.1137
O10 O -0.01975(13) 0.66336(12) 0.12437(12)
H33 H 0.0133 0.6551 0.1040
O11 O -0.13921(12) 0.81366(13) 0.21988(12)
H34 H -0.1347 0.8515 0.2300
O12 O 0.03794(13) 0.80625(13) 0.37655(12)
H35 H 0.0323 0.8452 0.3733
O13 O 0.11254(14) 0.66706(13) 0.25520(13)
H36 H 0.1317 0.6599 0.2226
O14 O 0.13924(13) 0.44337(13) 0.25846(12)
H37 H 0.1307 0.4108 0.2781
O15 O 0.03943(13) 0.29526(13) 0.38719(12)
H38 H 0.0329 0.2566 0.3831
O16 O -0.15333(12) 0.30101(13) 0.24325(12)
H39 H -0.1463 0.2623 0.2415
C33 C -0.10407(17) 0.49184(18) 0.18859(16)
C34 C -0.04682(17) 0.49167(18) 0.15164(16)
C35 C -0.01925(18) 0.54884(18) 0.13098(16)
H40 H 0.0187 0.5476 0.1068
C36 C -0.04710(17) 0.60726(18) 0.14571(16)
C37 C -0.10497(17) 0.61000(18) 0.18200(15)
C38 C -0.13036(18) 0.55188(19) 0.20224(16)
H41 H -0.1679 0.5532 0.2269
C39 C -0.13472(17) 0.67436(18) 0.19953(17)
H42 H -0.1377 0.7005 0.1614
C40 C -0.20630(18) 0.66923(19) 0.22401(18)
H43 H -0.2348 0.6466 0.1940
H44 H -0.2241 0.7115 0.2302
H45 H -0.2047 0.6464 0.2631
C41 C -0.08914(17) 0.71030(18) 0.24719(16)
C42 C -0.09352(17) 0.77655(18) 0.25451(16)
C43 C -0.05243(17) 0.80913(18) 0.29819(16)
H46 H -0.0562 0.8534 0.3025
C44 C -0.00559(17) 0.77508(19) 0.33534(16)
C45 C -0.00066(18) 0.70870(18) 0.33076(16)
C46 C -0.04315(18) 0.67766(18) 0.28684(16)
H47 H -0.0408 0.6332 0.2838
C47 C 0.05080(19) 0.67257(18) 0.37278(17)
H48 H 0.0912 0.6997 0.3764
C48 C 0.0244(2) 0.6661(2) 0.43869(17)
H49 H 0.0570 0.6436 0.4649
H50 H -0.0173 0.6426 0.4368
H51 H 0.0168 0.7081 0.4557
C49 C 0.07228(17) 0.60997(19) 0.34425(16)
C50 C 0.10408(19) 0.60994(19) 0.28727(18)
C51 C 0.12693(18) 0.55407(19) 0.26032(18)
H52 H 0.1494 0.5558 0.2230
C52 C 0.11616(18) 0.49547(18) 0.28914(17)
C53 C 0.08216(17) 0.49222(19) 0.34506(16)
C54 C 0.06134(17) 0.55032(18) 0.37127(16)
H53 H 0.0390 0.5489 0.4087
C55 C 0.06655(18) 0.42728(18) 0.37311(16)
H54 H 0.1070 0.4006 0.3694
C56 C 0.05213(19) 0.43093(19) 0.44300(16)
H55 H 0.0888 0.4525 0.4650
H56 H 0.0476 0.3883 0.4594
H57 H 0.0110 0.4543 0.4483
C57 C 0.00867(17) 0.39312(18) 0.33639(16)
C58 C -0.00403(18) 0.32840(18) 0.34710(16)
C59 C -0.05845(18) 0.29772(19) 0.31752(16)
H58 H -0.0675 0.2549 0.3265
C60 C -0.09945(18) 0.33074(18) 0.27449(17)
C61 C -0.08711(18) 0.39423(18) 0.26006(16)
C62 C -0.03329(17) 0.42468(18) 0.29231(16)
H59 H -0.0251 0.4678 0.2840
C63 C -0.13389(17) 0.42987(19) 0.21282(16)
H60 H -0.1405 0.4014 0.1766
C64 C -0.20354(18) 0.43939(19) 0.24003(18)
H61 H -0.2324 0.4618 0.2102
H62 H -0.1989 0.4640 0.2779
H63 H -0.2229 0.3983 0.2490
O17 O 0.30892(16) 0.81782(14) 0.09410(14)
O18 O 0.14825(15) 0.81496(17) 0.06528(15)
C65 C 0.3356(2) 0.7510(2) -0.0172(2)
H64 H 0.3714 0.7554 0.0121
C66 C 0.3446(2) 0.7184(2) -0.0723(2)
H65 H 0.3872 0.7027 -0.0808
C67 C 0.2919(2) 0.7089(2) -0.1148(2)
H66 H 0.2986 0.6859 -0.1513
C68 C 0.2291(3) 0.7332(2) -0.1034(2)
H67 H 0.1932 0.7265 -0.1321
C69 C 0.2192(2) 0.7680(2) -0.0487(2)
H68 H 0.1768 0.7848 -0.0412
C70 C 0.2725(2) 0.7774(2) -0.00539(18)
C71 C 0.2648(2) 0.8145(2) 0.05292(19)
C72 C 0.1982(2) 0.8480(2) 0.06391(17)
C73 C 0.19785(19) 0.9183(2) 0.07553(17)
C74 C 0.2552(2) 0.9563(2) 0.07261(19)
H69 H 0.2961 0.9379 0.0624
C75 C 0.2519(2) 1.0212(2) 0.0848(2)
H70 H 0.2905 1.0464 0.0834
C76 C 0.1906(2) 1.0488(2) 0.09908(19)
H71 H 0.1881 1.0926 0.1071
C77 C 0.1333(2) 1.0111(2) 0.10145(19)
H72 H 0.0923 1.0298 0.1108
C78 C 0.1365(2) 0.9466(2) 0.09016(19)
H73 H 0.0979 0.9215 0.0922
O19 O 0.36433(14) 0.34899(17) 0.44217(14)
O20 O 0.21438(16) 0.32396(15) 0.39061(14)
C79 C 0.2431(2) 0.4778(2) 0.41659(19)
H74 H 0.2035 0.4555 0.4238
C80 C 0.2407(2) 0.5438(2) 0.4034(2)
H75 H 0.1995 0.5652 0.4018
C81 C 0.3000(2) 0.5771(2) 0.3928(2)
H76 H 0.2986 0.6209 0.3846
C82 C 0.3612(2) 0.5447(2) 0.3945(2)
H77 H 0.4007 0.5670 0.3867
C83 C 0.3642(2) 0.4798(2) 0.40755(18)
H78 H 0.4055 0.4586 0.4089
C84 C 0.3046(2) 0.4459(2) 0.41888(17)
C85 C 0.3104(2) 0.3769(2) 0.43430(17)
C86 C 0.2466(2) 0.3354(2) 0.43886(19)
C87 C 0.2300(2) 0.3082(2) 0.49994(18)
C88 C 0.1661(2) 0.2823(2) 0.5064(2)
H79 H 0.1350 0.2824 0.4726
C89 C 0.1488(2) 0.2565(2) 0.5628(2)
H80 H 0.1058 0.2398 0.5672
C90 C 0.1951(2) 0.2555(2) 0.6127(2)
H81 H 0.1835 0.2370 0.6504
C91 C 0.2591(2) 0.2818(2) 0.6072(2)
H82 H 0.2900 0.2813 0.6411
C92 C 0.2762(2) 0.3085(2) 0.55107(18)
H83 H 0.3186 0.3269 0.5472
C93 C 0.1585(2) 0.4230(2) 0.11118(19)
H84 H 0.1586 0.4283 0.1544
C94 C 0.2175(2) 0.4024(2) 0.08493(19)
H85 H 0.2555 0.3932 0.1104
C95 C 0.21962(19) 0.3957(2) 0.02051(18)
C96 C 0.16082(19) 0.4105(2) -0.01439(18)
H86 H 0.1600 0.4075 -0.0578
C97 C 0.1037(2) 0.4296(2) 0.0156(2)
H87 H 0.0650 0.4389 -0.0088
C98 C 0.28091(19) 0.3710(2) -0.00907(18)
C99 C 0.3448(2) 0.3802(2) 0.01789(18)
H88 H 0.3505 0.4024 0.0555
C100 C 0.3999(2) 0.3560(2) -0.01149(18)
H89 H 0.4423 0.3624 0.0078
C101 C 0.3346(2) 0.3136(2) -0.09135(19)
H90 H 0.3303 0.2904 -0.1285
C102 C 0.2765(2) 0.3360(2) -0.06496(18)
H91 H 0.2345 0.3277 -0.0844
N1 N 0.10091(16) 0.43559(17) 0.07773(16)
N2 N 0.39671(16) 0.32375(17) -0.06608(15)
C103 C 0.0995(2) 0.6232(2) 0.00667(19)
H92 H 0.0605 0.6289 -0.0183
C104 C 0.1561(2) 0.5994(2) -0.02060(19)
H93 H 0.1541 0.5898 -0.0632
C105 C 0.21592(19) 0.58938(19) 0.01384(18)
C106 C 0.2136(2) 0.6038(2) 0.07679(19)
H94 H 0.2515 0.5971 0.1030
C107 C 0.1554(2) 0.6280(2) 0.10107(19)
H95 H 0.1558 0.6378 0.1436
C108 C 0.27815(19) 0.56458(19) -0.01421(17)
C109 C 0.2769(2) 0.5361(2) -0.07346(19)
H96 H 0.2358 0.5290 -0.0950
C110 C 0.3364(2) 0.5186(2) -0.1000(2)
H97 H 0.3341 0.5005 -0.1399
C111 C 0.3981(2) 0.5507(2) -0.01334(19)
H98 H 0.4396 0.5544 0.0082
C112 C 0.34139(19) 0.5705(2) 0.01641(18)
H99 H 0.3452 0.5878 0.0566
N3 N 0.09811(16) 0.63840(16) 0.06670(15)
N4 N 0.39717(16) 0.52628(17) -0.07156(15)
loop_
_geom_bond_atom_site_label_1
_geom_bond_atom_site_label_2
_geom_bond_site_symmetry_1
_geom_bond_site_symmetry_2
O1 H1 1_555 1_555
O2 H2 1_555 1_555
O3 H3 1_555 1_555
O4 H4 1_555 1_555
O5 H5 1_555 1_555
O6 H6 1_555 1_555
O7 H7 1_555 1_555
O8 H8 1_555 1_555
C1 C2 1_555 1_555
C2 O1 1_555 1_555
C3 C2 1_555 1_555
H9 C3 1_555 1_555
C4 O2 1_555 1_555
C5 C4 1_555 1_555
C6 C1 1_555 1_555
H10 C6 1_555 1_555
C7 C5 1_555 1_555
H11 C7 1_555 1_555
C8 C7 1_555 1_555
H12 C8 1_555 1_555
H13 C8 1_555 1_555
H14 C8 1_555 1_555
C9 C7 1_555 1_555
C10 O3 1_555 1_555
C11 C10 1_555 1_555
H15 C11 1_555 1_555
C12 O4 1_555 1_555
C13 C12 1_555 1_555
C14 C9 1_555 1_555
H16 C14 1_555 1_555
C15 C13 1_555 1_555
C16 C15 1_555 1_555
H17 C16 1_555 1_555
H18 C16 1_555 1_555
H19 C16 1_555 1_555
C17 C15 1_555 1_555
C18 O5 1_555 1_555
C19 C18 1_555 1_555
H20 C19 1_555 1_555
C20 O6 1_555 1_555
C21 C20 1_555 1_555
C22 C17 1_555 1_555
H21 C22 1_555 1_555
C23 C21 1_555 1_555
H22 C23 1_555 1_555
C24 C23 1_555 1_555
H23 C24 1_555 1_555
H24 C24 1_555 1_555
H25 C24 1_555 1_555
C25 C23 1_555 1_555
C26 O7 1_555 1_555
C27 C26 1_555 1_555
H26 C27 1_555 1_555
C28 O8 1_555 1_555
C29 C28 1_555 1_555
C30 C25 1_555 1_555
H27 C30 1_555 1_555
C31 C1 1_555 1_555
H28 C31 1_555 1_555
C32 C31 1_555 1_555
H29 C32 1_555 1_555
H30 C32 1_555 1_555
H31 C32 1_555 1_555
O9 H32 1_555 1_555
O10 H33 1_555 1_555
O11 H34 1_555 1_555
O12 H35 1_555 1_555
O13 H36 1_555 1_555
O14 H37 1_555 1_555
O15 H38 1_555 1_555
O16 H39 1_555 1_555
C33 C34 1_555 1_555
C34 O9 1_555 1_555
C35 C34 1_555 1_555
H40 C35 1_555 1_555
C36 O10 1_555 1_555
C37 C36 1_555 1_555
C38 C33 1_555 1_555
H41 C38 1_555 1_555
C39 C37 1_555 1_555
H42 C39 1_555 1_555
C40 C39 1_555 1_555
H43 C40 1_555 1_555
H44 C40 1_555 1_555
H45 C40 1_555 1_555
C41 C39 1_555 1_555
C42 O11 1_555 1_555
C43 C42 1_555 1_555
H46 C43 1_555 1_555
C44 O12 1_555 1_555
C45 C44 1_555 1_555
C46 C41 1_555 1_555
H47 C46 1_555 1_555
C47 C45 1_555 1_555
H48 C47 1_555 1_555
C48 C47 1_555 1_555
H49 C48 1_555 1_555
H50 C48 1_555 1_555
H51 C48 1_555 1_555
C49 C47 1_555 1_555
C50 O13 1_555 1_555
C51 C50 1_555 1_555
H52 C51 1_555 1_555
C52 O14 1_555 1_555
C53 C52 1_555 1_555
C54 C49 1_555 1_555
H53 C54 1_555 1_555
C55 C53 1_555 1_555
H54 C55 1_555 1_555
C56 C55 1_555 1_555
H55 C56 1_555 1_555
H56 C56 1_555 1_555
H57 C56 1_555 1_555
C57 C55 1_555 1_555
C58 O15 1_555 1_555
C59 C58 1_555 1_555
H58 C59 1_555 1_555
C60 O16 1_555 1_555
C61 C60 1_555 1_555
C62 C57 1_555 1_555
H59 C62 1_555 1_555
C63 C33 1_555 1_555
H60 C63 1_555 1_555
C64 C63 1_555 1_555
H61 C64 1_555 1_555
H62 C64 1_555 1_555
H63 C64 1_555 1_555
O17 C71 1_555 1_555
O18 C72 1_555 1_555
C65 H64 1_555 1_555
C66 C65 1_555 1_555
H65 C66 1_555 1_555
C67 C66 1_555 1_555
H66 C67 1_555 1_555
C68 C67 1_555 1_555
H67 C68 1_555 1_555
C69 C68 1_555 1_555
H68 C69 1_555 1_555
C70 C65 1_555 1_555
C71 C70 1_555 1_555
C72 C71 1_555 1_555
C73 C72 1_555 1_555
C74 C73 1_555 1_555
H69 C74 1_555 1_555
C75 C74 1_555 1_555
H70 C75 1_555 1_555
C76 C75 1_555 1_555
H71 C76 1_555 1_555
C77 C76 1_555 1_555
H72 C77 1_555 1_555
C78 C73 1_555 1_555
H73 C78 1_555 1_555
O19 C85 1_555 1_555
O20 C86 1_555 1_555
C79 H74 1_555 1_555
C80 C79 1_555 1_555
H75 C80 1_555 1_555
C81 C80 1_555 1_555
H76 C81 1_555 1_555
C82 C81 1_555 1_555
H77 C82 1_555 1_555
C83 C82 1_555 1_555
H78 C83 1_555 1_555
C84 C79 1_555 1_555
C85 C84 1_555 1_555
C86 C85 1_555 1_555
C87 C86 1_555 1_555
C88 C87 1_555 1_555
H79 C88 1_555 1_555
C89 C88 1_555 1_555
H80 C89 1_555 1_555
C90 C89 1_555 1_555
H81 C90 1_555 1_555
C91 C90 1_555 1_555
H82 C91 1_555 1_555
C92 C87 1_555 1_555
H83 C92 1_555 1_555
C93 H84 1_555 1_555
C94 C93 1_555 1_555
H85 C94 1_555 1_555
C95 C94 1_555 1_555
C96 C95 1_555 1_555
H86 C96 1_555 1_555
C97 C96 1_555 1_555
H87 C97 1_555 1_555
C98 C95 1_555 1_555
C99 C98 1_555 1_555
H88 C99 1_555 1_555
C100 C99 1_555 1_555
H89 C100 1_555 1_555
C101 H90 1_555 1_555
C102 C98 1_555 1_555
H91 C102 1_555 1_555
N1 C93 1_555 1_555
N2 C100 1_555 1_555
C103 H92 1_555 1_555
C104 C103 1_555 1_555
H93 C104 1_555 1_555
C105 C104 1_555 1_555
C106 C105 1_555 1_555
H94 C106 1_555 1_555
C107 C106 1_555 1_555
H95 C107 1_555 1_555
C108 C105 1_555 1_555
C109 C108 1_555 1_555
H96 C109 1_555 1_555
C110 C109 1_555 1_555
H97 C110 1_555 1_555
C111 H98 1_555 1_555
C112 C108 1_555 1_555
H99 C112 1_555 1_555
N3 C103 1_555 1_555
N4 C110 1_555 1_555
C3 C4 1_555 1_555
C5 C6 1_555 1_555
C9 C10 1_555 1_555
C11 C12 1_555 1_555
C13 C14 1_555 1_555
C17 C18 1_555 1_555
C19 C20 1_555 1_555
C21 C22 1_555 1_555
C25 C26 1_555 1_555
C27 C28 1_555 1_555
C29 C30 1_555 1_555
C29 C31 1_555 1_555
C35 C36 1_555 1_555
C37 C38 1_555 1_555
C41 C42 1_555 1_555
C43 C44 1_555 1_555
C45 C46 1_555 1_555
C49 C50 1_555 1_555
C51 C52 1_555 1_555
C53 C54 1_555 1_555
C57 C58 1_555 1_555
C59 C60 1_555 1_555
C61 C62 1_555 1_555
C61 C63 1_555 1_555
C69 C70 1_555 1_555
C77 C78 1_555 1_555
C83 C84 1_555 1_555
C91 C92 1_555 1_555
C97 N1 1_555 1_555
C101 C102 1_555 1_555
C101 N2 1_555 1_555
C107 N3 1_555 1_555
C111 C112 1_555 1_555
C111 N4 1_555 1_555

#END
