
#######################################################################
#
#                 Cambridge Crystallographic Data Centre
#                                CCDC 
#
#######################################################################
#
# If this CIF has been generated from an entry in the Cambridge 
# Structural Database, then it will include bibliographic, chemical, 
# crystal, experimental, refinement or atomic coordinate data resulting 
# from the CCDC's data processing and validation procedures.
#
#######################################################################

data_ENAZOI01
_chemical_name_common            
"C-Methylcalix(4)resorcinarene 4,4'-bipyridine benzil clathrate"
_chemical_formula_moiety         'C32 H32 O8,C10 H8 N2,C14 H10 O2'
_chemical_name_systematic        
"2,8,14,20-Tetramethyl-4,6,10,12,16,18,22,24-octahydroxycalix(4)arene 4,4'-bipyridine benzil clathrate"
_symmetry_cell_setting           triclinic
_symmetry_space_group_name_H-M   'P -1'
_symmetry_Int_Tables_number      2
_space_group_name_Hall           '-P 1'
loop_
_symmetry_equiv_pos_site_id
_symmetry_equiv_pos_as_xyz
1 x,y,z
2 -x,-y,-z
_cell_length_a                   10.0600(4)
_cell_length_b                   12.5603(4)
_cell_length_c                   17.5682(6)
_cell_angle_alpha                93.966(1)
_cell_angle_beta                 93.777(1)
_cell_angle_gamma                96.381(1)
_cell_volume                     2194.76
_exptl_crystal_colour            'bright yellow'
_exptl_crystal_description       prismatic
_cell_formula_units_Z            2
loop_
_atom_site_label
_atom_site_type_symbol
_atom_site_fract_x
_atom_site_fract_y
_atom_site_fract_z
O1 O 0.45697(11) 0.70503(9) 0.94242(6)
O2 O 0.47332(11) 0.47330(9) 0.71677(6)
O3 O 0.21915(11) 0.44092(9) 0.48640(6)
O4 O 0.57749(11) 0.67501(9) 0.40766(6)
O5 O 0.77702(11) 0.67062(9) 0.65735(7)
O6 O 0.71255(14) 0.90093(10) 0.87052(6)
O7 O 0.55855(11) 1.18673(9) 0.91660(7)
O8 O 0.20048(12) 0.94819(10) 1.00231(7)
C1 C 0.40532(15) 0.66740(12) 0.86997(8)
C2 C 0.46739(15) 0.59176(12) 0.82858(9)
C3 C 0.41423(14) 0.55095(12) 0.75590(8)
C4 C 0.29929(14) 0.58785(12) 0.72239(8)
C5 C 0.24078(14) 0.66414(12) 0.76610(8)
C6 C 0.28869(14) 0.70473(12) 0.83982(8)
C7 C 0.24280(15) 0.54547(13) 0.64218(8)
C8 C 0.10042(15) 0.57459(14) 0.62316(9)
C9 C 0.33333(14) 0.58044(11) 0.57987(8)
C10 C 0.31383(14) 0.52884(12) 0.50630(8)
C11 C 0.39091(15) 0.56238(12) 0.44817(8)
C12 C 0.49347(14) 0.64606(12) 0.46294(8)
C13 C 0.51758(14) 0.70032(12) 0.53542(8)
C14 C 0.43569(14) 0.66547(12) 0.59211(8)
C15 C 0.63149(15) 0.79241(12) 0.54988(8)
C16 C 0.60684(18) 0.88656(13) 0.50190(10)
C17 C 0.65928(14) 0.82662(12) 0.63459(8)
C18 C 0.72693(15) 0.76265(12) 0.68231(8)
C19 C 0.74498(16) 0.78912(13) 0.76077(9)
C20 C 0.69668(16) 0.88006(13) 0.79139(8)
C21 C 0.63202(15) 0.94899(12) 0.74670(9)
C22 C 0.61447(15) 0.91878(12) 0.66851(9)
C23 C 0.58373(16) 1.04940(13) 0.78443(9)
C24 C 0.52591(19) 1.12250(14) 0.72757(10)
C25 C 0.48353(15) 1.02175(12) 0.84406(8)
C26 C 0.47343(15) 1.09295(12) 0.90759(8)
C27 C 0.37870(16) 1.07019(13) 0.95993(9)
C28 C 0.29645(15) 0.97331(13) 0.95199(8)
C29 C 0.30751(15) 0.89752(12) 0.89136(8)
C30 C 0.39919(15) 0.92547(12) 0.83812(9)
C31 C 0.22267(15) 0.78873(12) 0.88542(9)
C32 C 0.07829(16) 0.79831(14) 0.85535(10)
H1 H 0.2174(17) 0.7661(14) 0.9389(10)
H2 H 0.5908(19) 1.1447(15) 0.6905(11)
H3 H 0.4517(15) 0.7006(13) 0.6431(9)
H4 H 0.5043(19) 1.1866(16) 0.7572(11)
H5 H 0.7881(19) 0.7445(16) 0.7947(11)
H6 H 0.0751(18) 0.8264(15) 0.8023(11)
H7 H 0.7150(17) 0.7671(13) 0.5298(9)
H8 H 0.3770(16) 0.5226(13) 0.3987(9)
H9 H 0.5474(18) 0.5678(14) 0.8500(10)
H10 H 0.4059(16) 0.8717(13) 0.7944(9)
H11 H 0.2366(16) 0.4701(14) 0.6414(9)
H12 H 0.6032(17) 0.8633(14) 0.4472(11)
H13 H 0.5220(19) 0.9158(15) 0.5116(10)
H14 H 0.0388(18) 0.8506(15) 0.8900(10)
H15 H 0.3705(18) 1.1204(15) 1.0017(11)
H16 H 0.0644(18) 0.5407(14) 0.5725(11)
H17 H 0.1624(17) 0.6905(13) 0.7431(9)
H18 H 0.0388(19) 0.5468(15) 0.6630(11)
H19 H 0.0230(18) 0.7280(15) 0.8542(10)
H20 H 0.1043(18) 0.6548(16) 0.6212(10)
H21 H 0.5656(18) 0.9651(15) 0.6359(10)
H22 H 0.6618(16) 1.0918(13) 0.8118(9)
H23 H 0.6784(18) 0.9464(14) 0.5133(10)
H24 H 0.557(2) 0.6263(17) 0.3681(12)
H25 H 0.554(2) 0.4650(17) 0.7411(12)
H26 H 0.561(2) 1.2175(16) 0.9639(12)
H27 H 0.441(2) 1.0841(16) 0.6992(11)
H28 H 0.531(2) 0.6807(18) 0.9532(13)
H29 H 0.190(2) 0.4127(18) 0.5239(13)
H30 H 0.761(2) 0.6540(18) 0.6082(13)
H31 H 0.215(3) 0.992(2) 1.0439(16)
H32 H 0.634(4) 0.935(3) 0.888(2)
O9 O 0.09412(14) 0.30644(10) 1.59485(7)
O10 O -0.22219(13) 0.22467(13) 1.60360(8)
C33 C -0.06066(18) 0.13970(15) 1.73261(10)
C34 C -0.0307(2) 0.10142(16) 1.80290(11)
C35 C 0.0964(2) 0.12520(16) 1.83916(11)
C36 C 0.1945(2) 0.18823(16) 1.80555(11)
C37 C 0.16572(19) 0.22706(15) 1.73543(11)
C38 C 0.03802(17) 0.20344(14) 1.69851(10)
C39 C 0.01316(17) 0.24283(14) 1.62210(10)
C40 C -0.11918(17) 0.20764(14) 1.57471(10)
C41 C -0.11402(17) 0.16089(13) 1.49570(10)
C42 C 0.00200(17) 0.12573(14) 1.46838(11)
C43 C 0.00016(19) 0.07999(15) 1.39431(11)
C44 C -0.1173(2) 0.07058(15) 1.34666(12)
C45 C -0.2321(2) 0.10646(16) 1.37338(12)
C46 C -0.23132(18) 0.15062(15) 1.44732(11)
H33 H -0.312(2) 0.1745(15) 1.4675(11)
H34 H 0.113(2) 0.0979(17) 1.8895(13)
H35 H -0.119(2) 0.0382(17) 1.2948(13)
H36 H -0.312(2) 0.1012(17) 1.3404(12)
H37 H 0.087(2) 0.1316(16) 1.5027(11)
H38 H 0.081(2) 0.0554(17) 1.3734(12)
H39 H -0.151(2) 0.1237(15) 1.7071(11)
H40 H 0.231(2) 0.2687(17) 1.7090(12)
H41 H -0.098(2) 0.0574(17) 1.8292(12)
H42 H 0.282(2) 0.2057(15) 1.8300(11)
C47 C 0.69477(19) 0.57384(17) 1.04613(12)
C48 C 0.80907(18) 0.55430(16) 1.08918(12)
C49 C 0.93181(16) 0.60841(13) 1.07669(9)
C50 C 0.93355(18) 0.68065(16) 1.01999(10)
C51 C 0.81448(17) 0.69513(16) 0.97968(10)
C52 C 1.05616(16) 0.59326(12) 1.12358(9)
C53 C 1.05266(19) 0.5425(2) 1.18988(12)
C54 C 1.17018(19) 0.5293(2) 1.23187(12)
C55 C 1.2941(2) 0.61210(19) 1.14765(14)
C56 C 1.1821(2) 0.6285(2) 1.10256(14)
N1 N 0.69564(14) 0.64296(12) 0.99204(8)
N2 N 1.29021(13) 0.56299(11) 1.21138(8)
H43 H 0.8131(19) 0.7473(16) 0.9392(11)
H44 H 0.802(2) 0.5037(17) 1.1295(12)
H45 H 1.377(3) 0.641(2) 1.1352(14)
H46 H 1.170(3) 0.500(2) 1.2791(15)
H47 H 1.199(3) 0.661(2) 1.0550(16)
H48 H 0.610(2) 0.5355(19) 1.0565(13)
H49 H 1.016(2) 0.7268(18) 1.0116(12)
H50 H 0.972(3) 0.518(2) 1.2104(14)
loop_
_geom_bond_atom_site_label_1
_geom_bond_atom_site_label_2
_geom_bond_site_symmetry_1
_geom_bond_site_symmetry_2
O1 C1 1_555 1_555
O2 C3 1_555 1_555
O3 C10 1_555 1_555
O4 C12 1_555 1_555
O5 C18 1_555 1_555
O6 C20 1_555 1_555
O7 C26 1_555 1_555
O8 C28 1_555 1_555
C1 C2 1_555 1_555
C2 C3 1_555 1_555
C3 C4 1_555 1_555
C4 C5 1_555 1_555
C5 C6 1_555 1_555
C6 C1 1_555 1_555
C7 C4 1_555 1_555
C8 C7 1_555 1_555
C9 C7 1_555 1_555
C10 C9 1_555 1_555
C11 C10 1_555 1_555
C12 C11 1_555 1_555
C13 C12 1_555 1_555
C14 C9 1_555 1_555
C15 C13 1_555 1_555
C16 C15 1_555 1_555
C17 C15 1_555 1_555
C18 C17 1_555 1_555
C19 C18 1_555 1_555
C20 C19 1_555 1_555
C21 C20 1_555 1_555
C22 C17 1_555 1_555
C23 C21 1_555 1_555
C24 C23 1_555 1_555
C25 C23 1_555 1_555
C26 C25 1_555 1_555
C27 C26 1_555 1_555
C28 C27 1_555 1_555
C29 C28 1_555 1_555
C30 C25 1_555 1_555
C31 C6 1_555 1_555
C32 C31 1_555 1_555
H1 C31 1_555 1_555
H2 C24 1_555 1_555
H3 C14 1_555 1_555
H4 C24 1_555 1_555
H5 C19 1_555 1_555
H6 C32 1_555 1_555
H7 C15 1_555 1_555
H8 C11 1_555 1_555
H9 C2 1_555 1_555
H10 C30 1_555 1_555
H11 C7 1_555 1_555
H12 C16 1_555 1_555
H13 C16 1_555 1_555
H14 C32 1_555 1_555
H15 C27 1_555 1_555
H16 C8 1_555 1_555
H17 C5 1_555 1_555
H18 C8 1_555 1_555
H19 C32 1_555 1_555
H20 C8 1_555 1_555
H21 C22 1_555 1_555
H22 C23 1_555 1_555
H23 C16 1_555 1_555
H24 O4 1_555 1_555
H25 O2 1_555 1_555
H26 O7 1_555 1_555
H27 C24 1_555 1_555
H28 O1 1_555 1_555
H29 O3 1_555 1_555
H30 O5 1_555 1_555
H31 O8 1_555 1_555
H32 O6 1_555 1_555
O9 C39 1_555 1_555
O10 C40 1_555 1_555
C33 C34 1_555 1_555
C34 C35 1_555 1_555
C35 C36 1_555 1_555
C36 C37 1_555 1_555
C37 C38 1_555 1_555
C38 C33 1_555 1_555
C39 C38 1_555 1_555
C40 C39 1_555 1_555
C41 C40 1_555 1_555
C42 C41 1_555 1_555
C43 C42 1_555 1_555
C44 C43 1_555 1_555
C45 C44 1_555 1_555
C46 C41 1_555 1_555
H33 C46 1_555 1_555
H34 C35 1_555 1_555
H35 C44 1_555 1_555
H36 C45 1_555 1_555
H37 C42 1_555 1_555
H38 C43 1_555 1_555
H39 C33 1_555 1_555
H40 C37 1_555 1_555
H41 C34 1_555 1_555
H42 C36 1_555 1_555
C47 C48 1_555 1_555
C48 C49 1_555 1_555
C49 C50 1_555 1_555
C50 C51 1_555 1_555
C51 N1 1_555 1_555
C52 C49 1_555 1_555
C53 C52 1_555 1_555
C54 C53 1_555 1_555
C55 C56 1_555 1_555
C56 C52 1_555 1_555
N1 C47 1_555 1_555
N2 C54 1_555 1_555
H43 C51 1_555 1_555
H44 C48 1_555 1_555
H45 C55 1_555 1_555
H46 C54 1_555 1_555
H47 C56 1_555 1_555
H48 C47 1_555 1_555
H49 C50 1_555 1_555
H50 C53 1_555 1_555
C13 C14 1_555 1_555
C21 C22 1_555 1_555
C29 C30 1_555 1_555
C29 C31 1_555 1_555
C45 C46 1_555 1_555
C55 N2 1_555 1_555

#END
