
#######################################################################
#
#                 Cambridge Crystallographic Data Centre
#                                CCDC 
#
#######################################################################
#
# If this CIF has been generated from an entry in the Cambridge 
# Structural Database, then it will include bibliographic, chemical, 
# crystal, experimental, refinement or atomic coordinate data resulting 
# from the CCDC's data processing and validation procedures.
#
#######################################################################

data_ENIDUC
_chemical_formula_moiety         'C30 H42 N3 O3 P1,0.5(C6 H14)'
_chemical_name_systematic        
'benzyl 2-(((1,3-diisopropyl-2-oxidooctahydro-1H-1,3,2-benzodiazaphosphol-2-yl)amino)(4-methylphenyl)methyl)acrylate hexane solvate'
_symmetry_cell_setting           monoclinic
_symmetry_space_group_name_H-M   'P 21'
_symmetry_Int_Tables_number      4
_space_group_name_Hall           'P 2yb'
loop_
_symmetry_equiv_pos_site_id
_symmetry_equiv_pos_as_xyz
1 x,y,z
2 -x,1/2+y,-z
_cell_length_a                   13.9411(12)
_cell_length_b                   17.7260(10)
_cell_length_c                   14.8278(10)
_cell_angle_alpha                90
_cell_angle_beta                 109.535(9)
_cell_angle_gamma                90
_cell_volume                     3453.32
_cell_formula_units_Z            4
loop_
_atom_site_label
_atom_site_type_symbol
_atom_site_fract_x
_atom_site_fract_y
_atom_site_fract_z
P1 P 0.63076(12) 0.61548(9) -0.04400(11)
N1 N 0.5337(5) 0.6044(4) -0.0024(5)
N2 N 0.7188(5) 0.5903(3) 0.0571(4)
N3 N 0.6375(4) 0.7046(3) -0.0693(4)
H1 H 0.6541 0.7163 -0.1184
O1 O 0.6297(4) 0.5709(3) -0.1288(3)
O2 O 0.3727(4) 0.8562(3) -0.0231(4)
O3 O 0.5107(4) 0.8260(4) 0.1013(4)
C1 C 0.6743(9) 0.5793(5) 0.1329(6)
H2 H 0.6710 0.6284 0.1623
C2 C 0.5662(8) 0.5529(5) 0.0804(7)
H3 H 0.5693 0.5016 0.0568
C3 C 0.5011(10) 0.5513(7) 0.1453(8)
H4 H 0.4337 0.5318 0.1110
H5 H 0.4943 0.6016 0.1681
C4 C 0.5566(13) 0.4996(8) 0.2290(9)
H6 H 0.5220 0.5024 0.2758
H7 H 0.5503 0.4481 0.2056
C5 C 0.6686(14) 0.5159(9) 0.2797(8)
H8 H 0.6974 0.4755 0.3247
H9 H 0.6746 0.5622 0.3160
C6 C 0.7313(11) 0.5239(7) 0.2124(8)
H10 H 0.7987 0.5430 0.2473
H11 H 0.7382 0.4753 0.1852
C7 C 0.4322(7) 0.5955(5) -0.0756(9)
H12 H 0.4347 0.6225 -0.1325
C8 C 0.4082(8) 0.5125(6) -0.1061(9)
H13 H 0.4613 0.4923 -0.1266
H14 H 0.3445 0.5098 -0.1578
H15 H 0.4036 0.4837 -0.0528
C9 C 0.3504(9) 0.6328(7) -0.0466(12)
H16 H 0.3430 0.6068 0.0076
H17 H 0.2872 0.6309 -0.0989
H18 H 0.3686 0.6844 -0.0298
C10 C 0.8281(7) 0.6052(5) 0.0814(7)
H19 H 0.8649 0.5644 0.1234
C11 C 0.8586(7) 0.6032(6) -0.0114(9)
H20 H 0.8284 0.5599 -0.0491
H21 H 0.9314 0.6003 0.0062
H22 H 0.8348 0.6482 -0.0481
C12 C 0.8585(8) 0.6798(6) 0.1368(10)
H23 H 0.8265 0.7211 0.0961
H24 H 0.9311 0.6857 0.1570
H25 H 0.8370 0.6790 0.1919
C13 C 0.4656(6) 0.8278(4) 0.0153(5)
C14 C 0.5091(5) 0.7961(4) -0.0549(5)
C15 C 0.6166(5) 0.7651(4) -0.0122(5)
H26 H 0.6237 0.7443 0.0509
C16 C 0.6932(5) 0.8299(4) 0.0024(5)
C17 C 0.7456(6) 0.8568(4) 0.0945(6)
H27 H 0.7324 0.8354 0.1464
C18 C 0.8167(6) 0.9143(5) 0.1105(7)
H28 H 0.8518 0.9299 0.1727
C19 C 0.8356(6) 0.9486(5) 0.0341(7)
C20 C 0.7818(7) 0.9218(5) -0.0596(7)
H29 H 0.7945 0.9436 -0.1116
C21 C 0.7106(6) 0.8638(4) -0.0757(6)
H30 H 0.6751 0.8479 -0.1376
C22 C 0.9116(8) 1.0116(6) 0.0494(9)
H31 H 0.8855 1.0560 0.0705
H32 H 0.9232 1.0222 -0.0096
H33 H 0.9744 0.9970 0.0971
C23 C 0.4537(6) 0.7945(5) -0.1482(5)
H34 H 0.3877 0.8134 -0.1690
H35 H 0.4813 0.7745 -0.1921
C24 C 0.3211(7) 0.8857(6) 0.0397(6)
H36 H 0.3150 0.9401 0.0335
H37 H 0.3595 0.8735 0.1057
C25 C 0.2172(6) 0.8500(5) 0.0110(5)
C26 C 0.2020(7) 0.7793(5) 0.0390(6)
H38 H 0.2582 0.7515 0.0753
C27 C 0.1083(8) 0.7475(6) 0.0163(7)
H39 H 0.1013 0.6990 0.0371
C28 C 0.0256(8) 0.7862(7) -0.0364(7)
H40 H -0.0387 0.7645 -0.0528
C29 C 0.0371(8) 0.8583(7) -0.0658(7)
H41 H -0.0200 0.8856 -0.1013
C30 C 0.1325(7) 0.8903(5) -0.0431(6)
H42 H 0.1398 0.9387 -0.0641
P2 P 0.61350(16) 0.69436(11) 0.65079(12)
N4 N 0.5053(5) 0.6970(4) 0.5575(4)
N5 N 0.6857(5) 0.7219(4) 0.5884(4)
N6 N 0.6389(5) 0.6064(4) 0.6882(4)
H43 H 0.6609 0.5968 0.7485
O4 O 0.6178(5) 0.7412(3) 0.7353(3)
O5 O 0.3917(5) 0.4418(3) 0.4766(4)
O6 O 0.5158(5) 0.4941(5) 0.4342(4)
C31 C 0.6302(6) 0.7208(5) 0.4859(5)
H44 H 0.6307 0.6692 0.4625
C32 C 0.5218(7) 0.7407(5) 0.4788(5)
H45 H 0.5195 0.7946 0.4931
C33 C 0.4497(7) 0.7267(6) 0.3773(6)
H46 H 0.3807 0.7400 0.3726
H47 H 0.4508 0.6737 0.3612
C34 C 0.4847(8) 0.7753(6) 0.3080(6)
H48 H 0.4435 0.7630 0.2428
H49 H 0.4733 0.8281 0.3187
C35 C 0.5973(8) 0.7640(6) 0.3197(6)
H50 H 0.6066 0.7138 0.2980
H51 H 0.6166 0.8001 0.2796
C36 C 0.6670(7) 0.7739(6) 0.4232(5)
H52 H 0.7367 0.7619 0.4289
H53 H 0.6647 0.8257 0.4434
C37 C 0.4107(6) 0.7060(5) 0.5799(6)
H54 H 0.4248 0.6852 0.6443
C38 C 0.3836(7) 0.7892(6) 0.5859(7)
H55 H 0.4362 0.8131 0.6371
H56 H 0.3201 0.7927 0.5977
H57 H 0.3776 0.8139 0.5266
C39 C 0.3232(8) 0.6608(6) 0.5150(8)
H58 H 0.3078 0.6778 0.4502
H59 H 0.2645 0.6674 0.5343
H60 H 0.3414 0.6083 0.5191
C40 C 0.7981(7) 0.7179(6) 0.6232(6)
H61 H 0.8216 0.7596 0.5925
C41 C 0.8391(8) 0.6457(7) 0.5934(8)
H62 H 0.8201 0.6032 0.6238
H63 H 0.9119 0.6485 0.6124
H64 H 0.8110 0.6400 0.5252
C42 C 0.8431(8) 0.7315(7) 0.7304(7)
H65 H 0.8273 0.7818 0.7447
H66 H 0.9156 0.7252 0.7508
H67 H 0.8147 0.6960 0.7634
C43 C 0.4778(7) 0.4812(5) 0.4950(6)
C44 C 0.5240(7) 0.5058(5) 0.5954(5)
C45 C 0.6242(7) 0.5451(5) 0.6190(5)
H68 H 0.6275 0.5671 0.5595
C46 C 0.7102(7) 0.4853(5) 0.6526(5)
C47 C 0.7423(7) 0.4481(6) 0.5874(6)
H69 H 0.7156 0.4614 0.5232
C48 C 0.8145(8) 0.3904(6) 0.6149(6)
H70 H 0.8323 0.3642 0.5685
C49 C 0.8597(7) 0.3717(5) 0.7098(6)
C50 C 0.8268(7) 0.4110(5) 0.7761(6)
H71 H 0.8553 0.3993 0.8408
C51 C 0.7536(7) 0.4664(5) 0.7483(6)
H72 H 0.7331 0.4912 0.7941
C52 C 0.9408(8) 0.3121(6) 0.7411(7)
H73 H 0.9770 0.3172 0.8084
H74 H 0.9874 0.3178 0.7063
H75 H 0.9099 0.2630 0.7286
C53 C 0.4740(8) 0.4958(5) 0.6577(6)
H76 H 0.4101 0.4733 0.6377
H77 H 0.5033 0.5114 0.7209
C54 C 0.3398(8) 0.4188(5) 0.3761(6)
H78 H 0.3045 0.3715 0.3747
H79 H 0.3901 0.4109 0.3449
C55 C 0.2653(7) 0.4775(5) 0.3225(6)
C56 C 0.2985(9) 0.5397(7) 0.2845(8)
H80 H 0.3677 0.5448 0.2944
C57 C 0.2325(10) 0.5944(7) 0.2325(9)
H81 H 0.2557 0.6339 0.2040
C58 C 0.1316(11) 0.5889(10) 0.2241(10)
H82 H 0.0864 0.6267 0.1931
C59 C 0.0975(10) 0.5277(11) 0.2613(10)
H83 H 0.0288 0.5246 0.2545
C60 C 0.1627(9) 0.4702(9) 0.3090(8)
H84 H 0.1379 0.4280 0.3312
C61 C 0.847(2) 0.262(2) 0.257(2)
H85 H 0.9055 0.2456 0.2425
H86 H 0.7904 0.2679 0.1990
H87 H 0.8304 0.2259 0.2975
C62 C 0.870(3) 0.338(4) 0.309(3)
H88 H 0.8073 0.3570 0.3146
H89 H 0.8914 0.3726 0.2687
C63 C 0.951(4) 0.337(5) 0.407(4)
H90 H 1.0097 0.3101 0.4031
H91 H 0.9244 0.3081 0.4498
C64 C 0.985(3) 0.413(2) 0.453(3)
H92 H 1.0031 0.4449 0.4075
H93 H 0.9292 0.4372 0.4667
C65 C 1.076(3) 0.409(2) 0.545(3)
H94 H 1.1305 0.3829 0.5310
H95 H 1.0568 0.3788 0.5904
C66 C 1.118(3) 0.484(3) 0.593(3)
H96 H 1.1198 0.5199 0.5449
H97 H 1.1856 0.4764 0.6368
H98 H 1.0751 0.5025 0.6267
C67? C 0.896(10) 0.382(6) 0.368(10)
H99? H 0.8249 0.3900 0.3361
H100? H 0.9343 0.4132 0.3386
H101? H 0.9138 0.3954 0.4342
C68? C 0.922(12) 0.299(8) 0.359(12)
H102? H 0.8724 0.2782 0.3023
H103? H 0.9883 0.2963 0.3509
C69? C 0.925(6) 0.251(5) 0.445(5)
H104? H 0.8791 0.2084 0.4224
H105? H 0.8981 0.2808 0.4864
C70? C 1.029(6) 0.221(5) 0.505(6)
H106? H 1.0564 0.1922 0.4633
H107? H 1.0741 0.2634 0.5290
C71? C 1.032(6) 0.171(5) 0.589(5)
H108? H 0.9664 0.1744 0.5987
H109? H 1.0827 0.1909 0.6464
C72? C 1.055(5) 0.088(4) 0.579(5)
H110? H 1.0959 0.0837 0.5376
H111? H 0.9930 0.0607 0.5511
H112? H 1.0923 0.0673 0.6403
loop_
_geom_bond_atom_site_label_1
_geom_bond_atom_site_label_2
_geom_bond_site_symmetry_1
_geom_bond_site_symmetry_2
P1 N1 1_555 1_555
N1 C2 1_555 1_555
N2 P1 1_555 1_555
N3 P1 1_555 1_555
H1 N3 1_555 1_555
O1 P1 1_555 1_555
O2 C13 1_555 1_555
O3 C13 1_555 1_555
C1 N2 1_555 1_555
H2 C1 1_555 1_555
C2 C1 1_555 1_555
H3 C2 1_555 1_555
C3 C2 1_555 1_555
H4 C3 1_555 1_555
H5 C3 1_555 1_555
C4 C3 1_555 1_555
H6 C4 1_555 1_555
H7 C4 1_555 1_555
C5 C4 1_555 1_555
H8 C5 1_555 1_555
H9 C5 1_555 1_555
C6 C1 1_555 1_555
H10 C6 1_555 1_555
H11 C6 1_555 1_555
C7 N1 1_555 1_555
H12 C7 1_555 1_555
C8 C7 1_555 1_555
H13 C8 1_555 1_555
H14 C8 1_555 1_555
H15 C8 1_555 1_555
C9 C7 1_555 1_555
H16 C9 1_555 1_555
H17 C9 1_555 1_555
H18 C9 1_555 1_555
C10 N2 1_555 1_555
H19 C10 1_555 1_555
C11 C10 1_555 1_555
H20 C11 1_555 1_555
H21 C11 1_555 1_555
H22 C11 1_555 1_555
C12 C10 1_555 1_555
H23 C12 1_555 1_555
H24 C12 1_555 1_555
H25 C12 1_555 1_555
C13 C14 1_555 1_555
C14 C15 1_555 1_555
C15 N3 1_555 1_555
H26 C15 1_555 1_555
C16 C15 1_555 1_555
C17 C16 1_555 1_555
H27 C17 1_555 1_555
C18 C17 1_555 1_555
H28 C18 1_555 1_555
C19 C18 1_555 1_555
C20 C19 1_555 1_555
H29 C20 1_555 1_555
C21 C16 1_555 1_555
H30 C21 1_555 1_555
C22 C19 1_555 1_555
H31 C22 1_555 1_555
H32 C22 1_555 1_555
H33 C22 1_555 1_555
C23 C14 1_555 1_555
H34 C23 1_555 1_555
H35 C23 1_555 1_555
C24 O2 1_555 1_555
H36 C24 1_555 1_555
H37 C24 1_555 1_555
C25 C24 1_555 1_555
C26 C25 1_555 1_555
H38 C26 1_555 1_555
C27 C26 1_555 1_555
H39 C27 1_555 1_555
C28 C27 1_555 1_555
H40 C28 1_555 1_555
C29 C28 1_555 1_555
H41 C29 1_555 1_555
C30 C25 1_555 1_555
H42 C30 1_555 1_555
P2 N4 1_555 1_555
N4 C32 1_555 1_555
N5 P2 1_555 1_555
N6 P2 1_555 1_555
H43 N6 1_555 1_555
O4 P2 1_555 1_555
O5 C43 1_555 1_555
O6 C43 1_555 1_555
C31 N5 1_555 1_555
H44 C31 1_555 1_555
C32 C31 1_555 1_555
H45 C32 1_555 1_555
C33 C32 1_555 1_555
H46 C33 1_555 1_555
H47 C33 1_555 1_555
C34 C33 1_555 1_555
H48 C34 1_555 1_555
H49 C34 1_555 1_555
C35 C34 1_555 1_555
H50 C35 1_555 1_555
H51 C35 1_555 1_555
C36 C31 1_555 1_555
H52 C36 1_555 1_555
H53 C36 1_555 1_555
C37 N4 1_555 1_555
H54 C37 1_555 1_555
C38 C37 1_555 1_555
H55 C38 1_555 1_555
H56 C38 1_555 1_555
H57 C38 1_555 1_555
C39 C37 1_555 1_555
H58 C39 1_555 1_555
H59 C39 1_555 1_555
H60 C39 1_555 1_555
C40 N5 1_555 1_555
H61 C40 1_555 1_555
C41 C40 1_555 1_555
H62 C41 1_555 1_555
H63 C41 1_555 1_555
H64 C41 1_555 1_555
C42 C40 1_555 1_555
H65 C42 1_555 1_555
H66 C42 1_555 1_555
H67 C42 1_555 1_555
C43 C44 1_555 1_555
C44 C45 1_555 1_555
C45 N6 1_555 1_555
H68 C45 1_555 1_555
C46 C45 1_555 1_555
C47 C46 1_555 1_555
H69 C47 1_555 1_555
C48 C47 1_555 1_555
H70 C48 1_555 1_555
C49 C48 1_555 1_555
C50 C49 1_555 1_555
H71 C50 1_555 1_555
C51 C46 1_555 1_555
H72 C51 1_555 1_555
C52 C49 1_555 1_555
H73 C52 1_555 1_555
H74 C52 1_555 1_555
H75 C52 1_555 1_555
C53 C44 1_555 1_555
H76 C53 1_555 1_555
H77 C53 1_555 1_555
C54 O5 1_555 1_555
H78 C54 1_555 1_555
H79 C54 1_555 1_555
C55 C54 1_555 1_555
C56 C55 1_555 1_555
H80 C56 1_555 1_555
C57 C56 1_555 1_555
H81 C57 1_555 1_555
C58 C57 1_555 1_555
H82 C58 1_555 1_555
C59 C58 1_555 1_555
H83 C59 1_555 1_555
C60 C55 1_555 1_555
H84 C60 1_555 1_555
C61 H85 1_555 1_555
H86 C61 1_555 1_555
H87 C61 1_555 1_555
C62 C61 1_555 1_555
H88 C62 1_555 1_555
H89 C62 1_555 1_555
C63 C62 1_555 1_555
H90 C63 1_555 1_555
H91 C63 1_555 1_555
C64 C63 1_555 1_555
H92 C64 1_555 1_555
H93 C64 1_555 1_555
C65 C64 1_555 1_555
H94 C65 1_555 1_555
H95 C65 1_555 1_555
C66 C65 1_555 1_555
H96 C66 1_555 1_555
H97 C66 1_555 1_555
H98 C66 1_555 1_555
C5 C6 1_555 1_555
C20 C21 1_555 1_555
C29 C30 1_555 1_555
C35 C36 1_555 1_555
C50 C51 1_555 1_555
C59 C60 1_555 1_555

#END
