
#######################################################################
#
#                 Cambridge Crystallographic Data Centre
#                                CCDC 
#
#######################################################################
#
# If this CIF has been generated from an entry in the Cambridge 
# Structural Database, then it will include bibliographic, chemical, 
# crystal, experimental, refinement or atomic coordinate data resulting 
# from the CCDC's data processing and validation procedures.
#
#######################################################################

data_ENIGEO
_chemical_formula_moiety         'C15 H14 N2 O2'
_chemical_name_systematic        bis(4-methoxyphenyl)-diazomethane
_symmetry_cell_setting           orthorhombic
_symmetry_space_group_name_H-M   'A b a 2'
_symmetry_Int_Tables_number      41
_space_group_name_Hall           'A 2 -2ab'
loop_
_symmetry_equiv_pos_site_id
_symmetry_equiv_pos_as_xyz
1 x,y,z
2 x,1/2+y,1/2+z
3 1/2-x,1/2+y,z
4 1/2-x,y,1/2+z
5 1/2+x,1/2-y,z
6 1/2+x,-y,1/2+z
7 -x,-y,z
8 -x,1/2-y,1/2+z
_cell_length_a                   7.0319(14)
_cell_length_b                   26.390(5)
_cell_length_c                   6.9991(14)
_cell_angle_alpha                90
_cell_angle_beta                 90
_cell_angle_gamma                90
_cell_volume                     1298.84
_exptl_crystal_colour            'pale purple'
_exptl_crystal_description       plate
_cell_formula_units_Z            4
loop_
_atom_site_label
_atom_site_type_symbol
_atom_site_fract_x
_atom_site_fract_y
_atom_site_fract_z
O1 O 0.5134(2) 0.30556(5) 0.4318(3)
C1 C 0.5041(3) 0.35387(6) 0.3594(3)
C2 C 0.4169(3) 0.39435(7) 0.4501(3)
C3 C 0.4192(3) 0.44212(7) 0.3639(3)
C4 C 0.5065(2) 0.44989(6) 0.1879(3)
C5 C 0.5000 0.5000 0.0952(4)
N1 N 0.5000 0.5000 -0.0909(4)
N2 N 0.5000 0.5000 -0.2522(4)
C6 C 0.5946(3) 0.40851(7) 0.0994(3)
C7 C 0.5923(3) 0.36110(7) 0.1832(3)
C8 C 0.4197(4) 0.29666(9) 0.6101(4)
H1 H 0.3579 0.3896 0.5733
H2 H 0.3581 0.4702 0.4282
H3 H 0.6540 0.4137 -0.0222
H4 H 0.6509 0.3331 0.1222
H5 H 0.4385 0.2614 0.6447
H6 H 0.4774 0.3180 0.7090
H7 H 0.2834 0.3039 0.6015
O1F O 0.4866(2) 0.69444(5) 0.4318(3)
C1F C 0.4959(3) 0.64613(6) 0.3594(3)
C2F C 0.5831(3) 0.60565(7) 0.4501(3)
C3F C 0.5808(3) 0.55788(7) 0.3639(3)
C4F C 0.4935(2) 0.55011(6) 0.1879(3)
C6F C 0.4054(3) 0.59149(7) 0.0994(3)
C7F C 0.4077(3) 0.63890(7) 0.1832(3)
C8F C 0.5803(4) 0.70334(9) 0.6101(4)
H1F H 0.6421 0.6104 0.5733
H2F H 0.6419 0.5298 0.4282
H3F H 0.3460 0.5863 -0.0222
H4F H 0.3491 0.6669 0.1222
H5F H 0.5615 0.7386 0.6447
H6F H 0.5226 0.6820 0.7090
H7F H 0.7166 0.6961 0.6015
loop_
_geom_bond_atom_site_label_1
_geom_bond_atom_site_label_2
_geom_bond_site_symmetry_1
_geom_bond_site_symmetry_2
O1 C1 1_555 1_555
C1 C2 1_555 1_555
C2 C3 1_555 1_555
C3 C4 1_555 1_555
C4 C5 1_555 1_555
C5 N1 1_555 1_555
N1 N2 1_555 1_555
C6 C4 1_555 1_555
C7 C1 1_555 1_555
C8 O1 1_555 1_555
H1 C2 1_555 1_555
H2 C3 1_555 1_555
H3 C6 1_555 1_555
H4 C7 1_555 1_555
H5 C8 1_555 1_555
H6 C8 1_555 1_555
H7 C8 1_555 1_555
O1F C1F 1_555 1_555
C1F C2F 1_555 1_555
C2F C3F 1_555 1_555
C3F C4F 1_555 1_555
C4F C5 1_555 1_555
C6F C4F 1_555 1_555
C7F C1F 1_555 1_555
C8F O1F 1_555 1_555
H1F C2F 1_555 1_555
H2F C3F 1_555 1_555
H3F C6F 1_555 1_555
H4F C7F 1_555 1_555
H5F C8F 1_555 1_555
H6F C8F 1_555 1_555
H7F C8F 1_555 1_555
C6 C7 1_555 1_555
C6F C7F 1_555 1_555

#END
