
#######################################################################
#
#                 Cambridge Crystallographic Data Centre
#                                CCDC 
#
#######################################################################
#
# If this CIF has been generated from an entry in the Cambridge 
# Structural Database, then it will include bibliographic, chemical, 
# crystal, experimental, refinement or atomic coordinate data resulting 
# from the CCDC's data processing and validation procedures.
#
#######################################################################

data_ENOKIC
_chemical_formula_moiety         'C12 H17 Cl1 N1 O2 1+,Cl1 1-'
_chemical_name_systematic        
'(2R,3R,5S)-3,5-dimethyl-2-(3-chlorophenyl)-2-morpholinol hydrochloride'
_symmetry_cell_setting           orthorhombic
_symmetry_space_group_name_H-M   'P 21 21 2'
_symmetry_Int_Tables_number      18
_space_group_name_Hall           'P 2 2ab'
loop_
_symmetry_equiv_pos_site_id
_symmetry_equiv_pos_as_xyz
1 x,y,z
2 -x,-y,z
3 1/2+x,1/2-y,-z
4 1/2-x,1/2+y,-z
_cell_length_a                   8.718(2)
_cell_length_b                   20.247(6)
_cell_length_c                   7.883(2)
_cell_angle_alpha                90
_cell_angle_beta                 90
_cell_angle_gamma                90
_cell_volume                     1391.45
_chemical_melting_point          186-188deg.C
_cell_formula_units_Z            4
loop_
_atom_site_label
_atom_site_type_symbol
_atom_site_fract_x
_atom_site_fract_y
_atom_site_fract_z
Cl1 Cl 0.2943(6) 0.4725(8) 0.7009(1)
O1 O 0.3184(9) 0.6952(6) 0.3898(2)
O2 O 0.2395(2) 0.6823(9) 0.1098(2)
N1 N 0.5416(2) 0.7317(8) 0.1524(3)
C1 C 0.3142(3) 0.5637(1) 0.4513(1)
C2 C 0.2715(4) 0.5001(4) 0.4929(4)
C3 C 0.2077(4) 0.4579 0.3751(5)
C4 C 0.1873(3) 0.4806(9) 0.2136(5)
C5 C 0.2261(3) 0.5445(6) 0.1683(4)
C6 C 0.2897(3) 0.5886(4) 0.2879(3)
C7 C 0.3329(3) 0.6568 0.2393(3)
C8 C 0.4988(3) 0.6603(9) 0.1742(3)
C9 C 0.5192(3) 0.7729(1) 0.3086(3)
C10 C 0.3555(3) 0.7637(2) 0.3655(3)
C11 C 0.5270(3) 0.6252(2) 0.0064(4)
C12 C 0.5589(3) 0.8439(4) 0.2731(4)
Cl2 Cl 0.8947(4) 0.7008(5) 0.1745(7)
loop_
_geom_bond_atom_site_label_1
_geom_bond_atom_site_label_2
_geom_bond_site_symmetry_1
_geom_bond_site_symmetry_2
Cl1 C2 1_555 1_555
O1 C7 1_555 1_555
O2 C7 1_555 1_555
N1 C8 1_555 1_555
C1 C2 1_555 1_555
C2 C3 1_555 1_555
C3 C4 1_555 1_555
C4 C5 1_555 1_555
C5 C6 1_555 1_555
C6 C1 1_555 1_555
C7 C6 1_555 1_555
C8 C7 1_555 1_555
C9 N1 1_555 1_555
C10 O1 1_555 1_555
C11 C8 1_555 1_555
C12 C9 1_555 1_555
C9 C10 1_555 1_555

#END
