
#######################################################################
#
#                 Cambridge Crystallographic Data Centre
#                                CCDC 
#
#######################################################################
#
# If this CIF has been generated from an entry in the Cambridge 
# Structural Database, then it will include bibliographic, chemical, 
# crystal, experimental, refinement or atomic coordinate data resulting 
# from the CCDC's data processing and validation procedures.
#
#######################################################################

data_ENONUS
_chemical_compound_source        'basidiomycete Daedaleopsis tricolor'
_chemical_name_common            'Daedatrin D'
_chemical_formula_moiety         'C12 H16 O4'
_chemical_name_systematic        '4-(4-(hydroxymethyl)cyclohexyl)-2-furoic acid'
_symmetry_cell_setting           monoclinic
_symmetry_space_group_name_H-M   'P 21/n'
_symmetry_Int_Tables_number      14
_space_group_name_Hall           '-P 2yn'
loop_
_symmetry_equiv_pos_site_id
_symmetry_equiv_pos_as_xyz
1 x,y,z
2 1/2-x,1/2+y,1/2-z
3 -x,-y,-z
4 1/2+x,1/2-y,1/2+z
_cell_length_a                   11.1726(2)
_cell_length_b                   6.06790(10)
_cell_length_c                   15.7985(3)
_cell_angle_alpha                90
_cell_angle_beta                 91.4050(10)
_cell_angle_gamma                90
_cell_volume                     1070.72
_exptl_crystal_colour            colorless
_exptl_crystal_description       prism
_cell_formula_units_Z            4
loop_
_atom_site_label
_atom_site_type_symbol
_atom_site_fract_x
_atom_site_fract_y
_atom_site_fract_z
O1 O -0.21651(9) 0.3175(2) 0.89425(8)
C1 C 0.66081(14) 0.8145(3) 0.82415(11)
H1 H 0.6972 0.7335 0.7768
H2 H 0.6683 0.9741 0.8124
O2 O 0.72600(10) 0.7634(2) 0.90171(7)
H3 H 0.7453 0.6297 0.9018
O3 O -0.09335(9) 0.0295(2) 0.91696(8)
H4 H -0.1574 -0.0427 0.9134
O4 O -0.02343(9) 0.5849(2) 0.87639(7)
C2 C -0.11608(14) 0.2383(3) 0.90393(10)
C3 C -0.00655(13) 0.3708(3) 0.89995(10)
C4 C 0.11190(14) 0.3278(3) 0.91298(10)
H5 H 0.1465 0.1909 0.9295
C5 C 0.17432(13) 0.5288(3) 0.89689(10)
C6 C 0.30772(13) 0.5696(3) 0.90125(10)
H6 H 0.3407 0.4999 0.9542
C7 C 0.33614(13) 0.8157(3) 0.90471(11)
H7 H 0.2975 0.8897 0.8553
H8 H 0.3023 0.8795 0.9566
C8 C 0.47054(13) 0.8599(3) 0.90448(10)
H9 H 0.5082 0.8000 0.9570
H10 H 0.4847 1.0210 0.9037
C9 C 0.52872(14) 0.7548(3) 0.82779(10)
H11 H 0.4885 0.8186 0.7761
C10 C 0.08820(14) 0.6770(3) 0.87496(11)
H12 H 0.1035 0.8261 0.8604
C11 C 0.50434(13) 0.5072(3) 0.82647(11)
H13 H 0.5422 0.4378 0.8771
H14 H 0.5400 0.4410 0.7756
C12 C 0.36893(13) 0.4625(3) 0.82541(11)
H15 H 0.3550 0.3014 0.8266
H16 H 0.3326 0.5209 0.7722
loop_
_geom_bond_atom_site_label_1
_geom_bond_atom_site_label_2
_geom_bond_site_symmetry_1
_geom_bond_site_symmetry_2
O1 C2 1_555 1_555
C1 H1 1_555 1_555
H2 C1 1_555 1_555
O2 C1 1_555 1_555
H3 O2 1_555 1_555
O3 H4 1_555 1_555
O4 C3 1_555 1_555
C2 O3 1_555 1_555
C3 C2 1_555 1_555
C4 C3 1_555 1_555
H5 C4 1_555 1_555
C5 C4 1_555 1_555
C6 C5 1_555 1_555
H6 C6 1_555 1_555
C7 C6 1_555 1_555
H7 C7 1_555 1_555
H8 C7 1_555 1_555
C8 C7 1_555 1_555
H9 C8 1_555 1_555
H10 C8 1_555 1_555
C9 C1 1_555 1_555
H11 C9 1_555 1_555
C10 O4 1_555 1_555
H12 C10 1_555 1_555
C11 C9 1_555 1_555
H13 C11 1_555 1_555
H14 C11 1_555 1_555
C12 C6 1_555 1_555
H15 C12 1_555 1_555
H16 C12 1_555 1_555
C5 C10 1_555 1_555
C8 C9 1_555 1_555
C11 C12 1_555 1_555

#END
