
#######################################################################
#
#                 Cambridge Crystallographic Data Centre
#                                CCDC 
#
#######################################################################
#
# If this CIF has been generated from an entry in the Cambridge 
# Structural Database, then it will include bibliographic, chemical, 
# crystal, experimental, refinement or atomic coordinate data resulting 
# from the CCDC's data processing and validation procedures.
#
#######################################################################

data_ENONEC
_chemical_name_common            'Daedatrin G sesquihydrate'
_chemical_formula_moiety         'C21 H32 O5,1.5(H2 O1)'
_chemical_name_systematic        
'6-(5,6-Dihydroxy-5,6-dimethylhept-3-en-2-yl)-3a-hydroxy-5a-methyl-3a,4,5,5a,6,7,8,8a-octahydro-2H-indeno[5,4-b]furan-2-one sesquihydrate'
_symmetry_cell_setting           monoclinic
_symmetry_space_group_name_H-M   'P 21'
_symmetry_Int_Tables_number      4
_space_group_name_Hall           'P 2yb'
loop_
_symmetry_equiv_pos_site_id
_symmetry_equiv_pos_as_xyz
1 x,y,z
2 -x,1/2+y,-z
_cell_length_a                   12.6179(3)
_cell_length_b                   6.33140(10)
_cell_length_c                   26.5136(6)
_cell_angle_alpha                90
_cell_angle_beta                 101.6110(10)
_cell_angle_gamma                90
_cell_volume                     2074.8
_exptl_crystal_colour            colorless
_exptl_crystal_description       prism
_cell_formula_units_Z            4
loop_
_atom_site_label
_atom_site_type_symbol
_atom_site_fract_x
_atom_site_fract_y
_atom_site_fract_z
O1 O 0.56092(11) 0.9081(3) 1.12648(6)
O2 O 0.47749(11) 1.1788(3) 1.07917(5)
O3 O 0.31943(12) 1.3812(2) 1.06616(5)
H1 H 0.3026 1.3425 1.0938
C1 C -0.21595(16) 0.6246(4) 0.71845(8)
H2 H -0.2368 0.4810 0.7263
H3 H -0.1369 0.6350 0.7249
H4 H -0.2457 0.6566 0.6822
C2 C -0.26017(14) 0.7818(3) 0.75258(7)
C3 C -0.21626(14) 0.7444(3) 0.81142(7)
C4 C -0.09813(14) 0.8038(3) 0.82661(7)
H5 H -0.0477 0.7191 0.8135
C5 C -0.05921(15) 0.9648(3) 0.85677(7)
H6 H -0.1094 1.0501 0.8699
C6 C 0.05899(15) 1.0219(3) 0.87173(7)
H7 H 0.1024 0.9114 0.8581
C7 C 0.09341(14) 1.0280(3) 0.93085(7)
H8 H 0.0563 1.1521 0.9430
C8 C 0.21554(14) 1.0464(3) 0.95567(7)
C9 C 0.20676(14) 0.9988(3) 1.01261(7)
H9 H 0.1635 1.1162 1.0236
C10 C 0.31447(14) 1.0068(3) 1.04669(7)
C11 C 0.37904(15) 0.8712(3) 1.07606(7)
H10 H 0.3619 0.7287 1.0823
C12 C 0.48111(15) 0.9776(4) 1.09727(7)
C13 C 0.37042(15) 1.2176(3) 1.04632(7)
C14 C 0.13670(15) 0.8000(3) 1.00916(7)
H11 H 0.0979 0.7927 1.0381
H12 H 0.1808 0.6708 1.0091
C15 C 0.05679(15) 0.8285(3) 0.95710(8)
H13 H -0.0178 0.8475 0.9628
H14 H 0.0582 0.7027 0.9351
C16 C 0.07710(16) 1.2352(3) 0.84710(8)
H15 H 0.0463 1.2301 0.8101
H16 H 0.1549 1.2641 0.8524
H17 H 0.0417 1.3474 0.8631
O4 O -0.27590(10) 0.8761(2) 0.83951(5)
H18 H -0.3383 0.8963 0.8219
C17 C -0.23876(16) 1.0071(3) 0.73746(8)
H19 H -0.2722 1.0300 0.7012
H20 H -0.1606 1.0304 0.7424
H21 H -0.2697 1.1060 0.7590
O5 O -0.37658(10) 0.7649(2) 0.74358(5)
H22 H -0.3942 0.6374 0.7449
C18 C -0.22909(15) 0.5133(3) 0.82705(8)
H23 H -0.2082 0.5001 0.8646
H24 H -0.1825 0.4227 0.8108
H25 H -0.3047 0.4698 0.8157
C19 C 0.28149(14) 0.8773(3) 0.93434(7)
H26 H 0.2929 0.9210 0.9004
H27 H 0.2421 0.7430 0.9312
H28 H 0.3517 0.8599 0.9578
C20 C 0.26849(15) 1.2654(3) 0.95474(7)
H29 H 0.2200 1.3743 0.9645
H30 H 0.2779 1.2965 0.9193
C21 C 0.37977(15) 1.2770(4) 0.99196(7)
H31 H 0.4309 1.1797 0.9799
H32 H 0.4089 1.4221 0.9919
O6 O 0.43403(11) 1.0161(3) 0.37780(6)
O7 O 0.53025(10) 1.2712(2) 0.42553(5)
O8 O 0.69449(11) 1.4476(2) 0.43654(5)
H33 H 0.7083 1.4051 0.4085
C22 C 1.22135(17) 0.6166(4) 0.77937(8)
H34 H 1.2451 0.4753 0.7713
H35 H 1.1421 0.6218 0.7723
H36 H 1.2494 0.6478 0.8158
C23 C 1.26420(14) 0.7796(3) 0.74618(7)
C24 C 1.21754(14) 0.7516(3) 0.68711(7)
C25 C 1.10031(14) 0.8169(3) 0.67335(7)
H37 H 1.0496 0.7347 0.6869
C26 C 1.06239(14) 0.9809(3) 0.64371(7)
H38 H 1.1131 1.0641 0.6304
C27 C 0.94510(14) 1.0444(3) 0.62976(7)
H39 H 0.9003 0.9326 0.6420
C28 C 0.91059(14) 1.0639(3) 0.57069(7)
H40 H 0.9515 1.1854 0.5599
C29 C 0.78930(14) 1.0986(3) 0.54636(7)
C30 C 0.79474(14) 1.0509(3) 0.48876(7)
H41 H 0.8408 1.1640 0.4780
C31 C 0.68625(14) 1.0739(3) 0.45566(7)
C32 C 0.61515(15) 0.9461(3) 0.42673(7)
H42 H 0.6260 0.8009 0.4203
C33 C 0.51669(15) 1.0694(4) 0.40648(7)
C34 C 0.63903(14) 1.2925(3) 0.45712(7)
C35 C 0.85896(15) 0.8463(3) 0.49067(7)
H43 H 0.8962 0.8365 0.4613
H44 H 0.8115 0.7216 0.4904
C36 C 0.94134(15) 0.8635(3) 0.54235(7)
H45 H 1.0157 0.8771 0.5360
H46 H 0.9379 0.7359 0.5635
C37 C 0.71788(14) 0.9387(3) 0.56736(7)
H47 H 0.7087 0.9834 0.6016
H48 H 0.7523 0.7993 0.5698
H49 H 0.6470 0.9311 0.5441
C38 C 0.74471(15) 1.3245(3) 0.54881(7)
H50 H 0.7970 1.4268 0.5395
H51 H 0.7370 1.3552 0.5845
C39 C 0.63368(14) 1.3539(3) 0.51199(7)
H52 H 0.5789 1.2657 0.5240
H53 H 0.6109 1.5034 0.5127
O9 O 1.38058(10) 0.7643(2) 0.75413(5)
H54 H 1.3986 0.6367 0.7535
C40 C 1.24379(16) 1.0034(3) 0.76357(8)
H55 H 1.2788 1.0214 0.7998
H56 H 1.1658 1.0267 0.7596
H57 H 1.2738 1.1058 0.7425
C41 C 1.22737(15) 0.5222(3) 0.66951(7)
H58 H 1.2044 0.5138 0.6320
H59 H 1.1812 0.4307 0.6857
H60 H 1.3028 0.4758 0.6796
O10 O 1.27713(10) 0.8863(2) 0.65973(5)
H61 H 1.3410 0.8978 0.6763
C42 C 0.92944(16) 1.2531(3) 0.65687(7)
H62 H 0.9601 1.2401 0.6938
H63 H 0.8520 1.2850 0.6519
H64 H 0.9662 1.3672 0.6422
O11 O 0.49107(12) 0.0222(3) 0.67374(6)
H65 H 0.505(2) -0.005(5) 0.6447(5)
H66 H 0.527(2) -0.060(4) 0.6939(8)
O12 O 0.50591(13) 0.3958(3) 0.73637(7)
H67 H 0.496(2) 0.351(5) 0.7647(6)
H68 H 0.506(2) 0.307(3) 0.7142(8)
O13 O 0.51595(12) 0.0756(3) 0.80956(6)
H69 H 0.480(2) -0.036(3) 0.8038(11)
H70 H 0.491(2) 0.122(4) 0.8342(8)
loop_
_geom_bond_atom_site_label_1
_geom_bond_atom_site_label_2
_geom_bond_site_symmetry_1
_geom_bond_site_symmetry_2
O1 C12 1_555 1_555
O2 C12 1_555 1_555
O3 H1 1_555 1_555
C1 H2 1_555 1_555
H3 C1 1_555 1_555
H4 C1 1_555 1_555
C2 C1 1_555 1_555
C3 C2 1_555 1_555
C4 C3 1_555 1_555
H5 C4 1_555 1_555
C5 C4 1_555 1_555
H6 C5 1_555 1_555
C6 C5 1_555 1_555
H7 C6 1_555 1_555
C7 C6 1_555 1_555
H8 C7 1_555 1_555
C8 C7 1_555 1_555
C9 C8 1_555 1_555
H9 C9 1_555 1_555
C10 C9 1_555 1_555
C11 C10 1_555 1_555
H10 C11 1_555 1_555
C12 C11 1_555 1_555
C13 O2 1_555 1_555
C14 C9 1_555 1_555
H11 C14 1_555 1_555
H12 C14 1_555 1_555
C15 C7 1_555 1_555
H13 C15 1_555 1_555
H14 C15 1_555 1_555
C16 C6 1_555 1_555
H15 C16 1_555 1_555
H16 C16 1_555 1_555
H17 C16 1_555 1_555
O4 C3 1_555 1_555
H18 O4 1_555 1_555
C17 C2 1_555 1_555
H19 C17 1_555 1_555
H20 C17 1_555 1_555
H21 C17 1_555 1_555
O5 C2 1_555 1_555
H22 O5 1_555 1_555
C18 C3 1_555 1_555
H23 C18 1_555 1_555
H24 C18 1_555 1_555
H25 C18 1_555 1_555
C19 C8 1_555 1_555
H26 C19 1_555 1_555
H27 C19 1_555 1_555
H28 C19 1_555 1_555
C20 C8 1_555 1_555
H29 C20 1_555 1_555
H30 C20 1_555 1_555
C21 C13 1_555 1_555
H31 C21 1_555 1_555
H32 C21 1_555 1_555
O6 C33 1_555 1_555
O7 C33 1_555 1_555
O8 H33 1_555 1_555
C22 H34 1_555 1_555
H35 C22 1_555 1_555
H36 C22 1_555 1_555
C23 C22 1_555 1_555
C24 C23 1_555 1_555
C25 C24 1_555 1_555
H37 C25 1_555 1_555
C26 C25 1_555 1_555
H38 C26 1_555 1_555
C27 C26 1_555 1_555
H39 C27 1_555 1_555
C28 C27 1_555 1_555
H40 C28 1_555 1_555
C29 C28 1_555 1_555
C30 C29 1_555 1_555
H41 C30 1_555 1_555
C31 C30 1_555 1_555
C32 C31 1_555 1_555
H42 C32 1_555 1_555
C33 C32 1_555 1_555
C34 O7 1_555 1_555
C35 C30 1_555 1_555
H43 C35 1_555 1_555
H44 C35 1_555 1_555
C36 C28 1_555 1_555
H45 C36 1_555 1_555
H46 C36 1_555 1_555
C37 C29 1_555 1_555
H47 C37 1_555 1_555
H48 C37 1_555 1_555
H49 C37 1_555 1_555
C38 C29 1_555 1_555
H50 C38 1_555 1_555
H51 C38 1_555 1_555
C39 C34 1_555 1_555
H52 C39 1_555 1_555
H53 C39 1_555 1_555
O9 C23 1_555 1_555
H54 O9 1_555 1_555
C40 C23 1_555 1_555
H55 C40 1_555 1_555
H56 C40 1_555 1_555
H57 C40 1_555 1_555
C41 C24 1_555 1_555
H58 C41 1_555 1_555
H59 C41 1_555 1_555
H60 C41 1_555 1_555
O10 C24 1_555 1_555
H61 O10 1_555 1_555
C42 C27 1_555 1_555
H62 C42 1_555 1_555
H63 C42 1_555 1_555
H64 C42 1_555 1_555
O11 H65 1_555 1_555
H66 O11 1_555 1_555
O12 H67 1_555 1_555
H68 O12 1_555 1_555
O13 H69 1_555 1_555
H70 O13 1_555 1_555
O3 C13 1_555 1_555
C10 C13 1_555 1_555
C14 C15 1_555 1_555
C20 C21 1_555 1_555
O8 C34 1_555 1_555
C31 C34 1_555 1_555
C35 C36 1_555 1_555
C38 C39 1_555 1_555

#END
