
#######################################################################
#
#                 Cambridge Crystallographic Data Centre
#                                CCDC 
#
#######################################################################
#
# If this CIF has been generated from an entry in the Cambridge 
# Structural Database, then it will include bibliographic, chemical, 
# crystal, experimental, refinement or atomic coordinate data resulting 
# from the CCDC's data processing and validation procedures.
#
#######################################################################

data_ENOXOW
_chemical_formula_moiety         'C29 H17 B1 F4 N2'
_chemical_name_systematic        
7,7-difluoro-5,9-bis(4-fluorophenyl)-7H-8\l^5^,7\l^5^-isoindolo[2',1':3,4][1,3,2]diazaborinino[6,1-a]isoindole
_symmetry_cell_setting           monoclinic
_symmetry_space_group_name_H-M   'P 21/n'
_symmetry_Int_Tables_number      14
_space_group_name_Hall           '-P 2yn'
loop_
_symmetry_equiv_pos_site_id
_symmetry_equiv_pos_as_xyz
1 x,y,z
2 1/2-x,1/2+y,1/2-z
3 -x,-y,-z
4 1/2+x,1/2-y,1/2+z
_cell_length_a                   12.1936(18)
_cell_length_b                   15.062(2)
_cell_length_c                   12.2515(18)
_cell_angle_alpha                90
_cell_angle_beta                 97.131(2)
_cell_angle_gamma                90
_cell_volume                     2232.71
_exptl_crystal_colour            colorless
_exptl_crystal_description       block
_cell_formula_units_Z            4
loop_
_atom_site_label
_atom_site_type_symbol
_atom_site_fract_x
_atom_site_fract_y
_atom_site_fract_z
B1 B 0.5743(2) 0.08200(18) 0.2835(2)
C1 C 0.74996(16) 0.00662(13) 0.38874(16)
C2 C 0.78871(16) -0.01379(13) 0.50039(17)
C3 C 0.88228(18) -0.06004(16) 0.54889(19)
H1 H 0.9322 -0.0846 0.5059
C4 C 0.8981(2) -0.06799(17) 0.6605(2)
H2 H 0.9595 -0.0985 0.6939
C5 C 0.8233(2) -0.03094(16) 0.7261(2)
H3 H 0.8362 -0.0378 0.8020
C6 C 0.7316(2) 0.01508(14) 0.68088(17)
H4 H 0.6824 0.0392 0.7250
C7 C 0.71434(17) 0.02465(13) 0.56626(16)
C8 C 0.63139(16) 0.06832(13) 0.49364(15)
C9 C 0.53863(17) 0.11515(12) 0.51368(16)
H5 H 0.5256 0.1231 0.5862
C10 C 0.46438(16) 0.15075(12) 0.43115(15)
C11 C 0.36959(17) 0.20613(12) 0.43371(16)
C12 C 0.31602(19) 0.24041(14) 0.51952(18)
H6 H 0.3428 0.2293 0.5927
C13 C 0.2230(2) 0.29074(15) 0.4923(2)
H7 H 0.1863 0.3138 0.5483
C14 C 0.1816(2) 0.30843(15) 0.3832(2)
H8 H 0.1180 0.3425 0.3679
C15 C 0.23318(17) 0.27648(13) 0.29782(18)
H9 H 0.2053 0.2880 0.2251
C16 C 0.32943(16) 0.22579(12) 0.32397(16)
C17 C 0.39948(16) 0.18252(12) 0.25602(15)
C18 C 0.80200(15) -0.02087(14) 0.29192(17)
C19 C 0.82262(16) 0.03790(15) 0.20932(17)
H10 H 0.8027 0.0972 0.2140
C20 C 0.87226(19) 0.00916(17) 0.1206(2)
H11 H 0.8854 0.0484 0.0650
C21 C 0.9017(2) -0.07792(19) 0.1160(2)
C22 C 0.88590(19) -0.13784(17) 0.1959(2)
H12 H 0.9082 -0.1966 0.1910
C23 C 0.83581(17) -0.10869(15) 0.28461(19)
H13 H 0.8245 -0.1484 0.3403
C24 C 0.39208(15) 0.18956(13) 0.13592(15)
C25 C 0.38422(17) 0.27388(14) 0.08879(17)
H14 H 0.3821 0.3235 0.1337
C26 C 0.37948(18) 0.28476(15) -0.02353(18)
H15 H 0.3742 0.3411 -0.0548
C27 C 0.38281(18) 0.21095(16) -0.08751(16)
C28 C 0.38746(18) 0.12701(16) -0.04565(17)
H16 H 0.3875 0.0780 -0.0918
C29 C 0.39208(17) 0.11635(14) 0.06671(16)
H17 H 0.3952 0.0595 0.0965
F1 F 0.62338(13) 0.13209(15) 0.21242(13)
F2 F 0.53299(13) 0.00342(11) 0.23615(13)
F3 F 0.94813(16) -0.10699(13) 0.02708(15)
F4 F 0.38158(13) 0.22217(11) -0.19752(10)
N1 N 0.65621(13) 0.05614(10) 0.38645(12)
N2 N 0.47844(13) 0.13731(10) 0.32130(12)
loop_
_geom_bond_atom_site_label_1
_geom_bond_atom_site_label_2
_geom_bond_site_symmetry_1
_geom_bond_site_symmetry_2
B1 F1 1_555 1_555
C1 C2 1_555 1_555
C2 C3 1_555 1_555
C3 H1 1_555 1_555
C4 C3 1_555 1_555
H2 C4 1_555 1_555
C5 C4 1_555 1_555
H3 C5 1_555 1_555
C6 C5 1_555 1_555
H4 C6 1_555 1_555
C7 C2 1_555 1_555
C8 C7 1_555 1_555
C9 C8 1_555 1_555
H5 C9 1_555 1_555
C10 C9 1_555 1_555
C11 C10 1_555 1_555
C12 C11 1_555 1_555
H6 C12 1_555 1_555
C13 C12 1_555 1_555
H7 C13 1_555 1_555
C14 C13 1_555 1_555
H8 C14 1_555 1_555
C15 C14 1_555 1_555
H9 C15 1_555 1_555
C16 C11 1_555 1_555
C17 C16 1_555 1_555
C18 C1 1_555 1_555
C19 C18 1_555 1_555
H10 C19 1_555 1_555
C20 C19 1_555 1_555
H11 C20 1_555 1_555
C21 C20 1_555 1_555
C22 C21 1_555 1_555
H12 C22 1_555 1_555
C23 C18 1_555 1_555
H13 C23 1_555 1_555
C24 C17 1_555 1_555
C25 C24 1_555 1_555
H14 C25 1_555 1_555
C26 C25 1_555 1_555
H15 C26 1_555 1_555
C27 C26 1_555 1_555
C28 C27 1_555 1_555
H16 C28 1_555 1_555
C29 C24 1_555 1_555
H17 C29 1_555 1_555
F2 B1 1_555 1_555
F3 C21 1_555 1_555
F4 C27 1_555 1_555
N1 B1 1_555 1_555
N2 B1 1_555 1_555
C1 N1 1_555 1_555
C6 C7 1_555 1_555
C8 N1 1_555 1_555
C10 N2 1_555 1_555
C15 C16 1_555 1_555
C17 N2 1_555 1_555
C22 C23 1_555 1_555
C28 C29 1_555 1_555

#END
