
#######################################################################
#
#                 Cambridge Crystallographic Data Centre
#                                CCDC 
#
#######################################################################
#
# If this CIF has been generated from an entry in the Cambridge 
# Structural Database, then it will include bibliographic, chemical, 
# crystal, experimental, refinement or atomic coordinate data resulting 
# from the CCDC's data processing and validation procedures.
#
#######################################################################

data_ENUHOM
_chemical_formula_moiety         'C23 H20 Cl1 F3 N2 O4'
_chemical_name_systematic        
'ethyl (8-chloro-5-(4-methoxybenzyl)-4-oxo-9b-(trifluoromethyl)-1,4,5,9b-tetrahydro-2H-azeto[1,2-c]quinazolin-2-ylidene)acetate'
_symmetry_cell_setting           monoclinic
_symmetry_space_group_name_H-M   'P 21/c'
_symmetry_Int_Tables_number      14
_space_group_name_Hall           '-P 2ybc'
loop_
_symmetry_equiv_pos_site_id
_symmetry_equiv_pos_as_xyz
1 x,y,z
2 -x,1/2+y,1/2-z
3 -x,-y,-z
4 x,1/2-y,1/2+z
_cell_length_a                   10.062(9)
_cell_length_b                   12.589(11)
_cell_length_c                   18.910(17)
_cell_angle_alpha                90
_cell_angle_beta                 101.187(8)
_cell_angle_gamma                90
_cell_volume                     2349.83
_exptl_crystal_colour            colorless
_exptl_crystal_description       block
_cell_formula_units_Z            4
loop_
_atom_site_label
_atom_site_type_symbol
_atom_site_fract_x
_atom_site_fract_y
_atom_site_fract_z
C1 C 0.6807(4) 0.3650(3) 0.95327(18)
C2 C 0.5759(4) 0.3903(3) 0.89712(19)
H1 H 0.5141 0.4425 0.9038
C3 C 0.5610(3) 0.3395(3) 0.83079(18)
H2 H 0.4893 0.3573 0.7937
C4 C 0.6540(3) 0.2614(2) 0.81985(15)
C5 C 0.6996(3) 0.1080(2) 0.74752(15)
C6 C 0.8577(3) -0.0022(2) 0.83995(14)
C7 C 0.9140(3) 0.0629(2) 0.90782(15)
H3 H 1.0111 0.0565 0.9244
H4 H 0.8657 0.0530 0.9470
C8 C 0.8698(3) 0.1633(2) 0.86066(14)
C9 C 0.7628(3) 0.2386(2) 0.87656(14)
C10 C 0.7749(3) 0.2884(2) 0.94336(15)
H5 H 0.8455 0.2706 0.9810
C11 C 0.9888(3) 0.2239(2) 0.84153(17)
C12 C 0.5344(3) 0.2392(2) 0.69000(16)
H6 H 0.4502 0.2551 0.7055
H7 H 0.5174 0.1816 0.6553
C13 C 0.5808(3) 0.3370(2) 0.65389(15)
C14 C 0.7006(3) 0.3340(2) 0.62771(16)
H8 H 0.7545 0.2735 0.6351
C15 C 0.7413(3) 0.4185(3) 0.59111(17)
H9 H 0.8220 0.4143 0.5742
C16 C 0.6635(3) 0.5095(3) 0.57924(15)
C17 C 0.5452(3) 0.5160(3) 0.60580(17)
H10 H 0.4926 0.5773 0.5989
C18 C 0.5055(3) 0.4290(3) 0.64329(18)
H11 H 0.4261 0.4337 0.6614
C19 C 0.6413(4) 0.6866(3) 0.5313(2)
H12 H 0.5509 0.6749 0.5049
H13 H 0.6875 0.7349 0.5050
H14 H 0.6375 0.7164 0.5776
C20 C 0.8446(3) -0.1033(2) 0.82000(16)
H15 H 0.8052 -0.1201 0.7727
C21 C 0.8913(3) -0.1889(2) 0.87139(19)
C22 C 0.8892(6) -0.3781(3) 0.8849(3)
H16 H 0.9809 -0.3697 0.9119
H17 H 0.8296 -0.3876 0.9190
C23 C 0.8823(11) -0.4647(4) 0.8414(5)
H18 H 0.7922 -0.4714 0.8136
H19 H 0.9047 -0.5272 0.8704
H20 H 0.9452 -0.4568 0.8096
Cl1 Cl 0.69697(14) 0.43020(9) 1.03561(5)
F1 F 1.05198(19) 0.28230(15) 0.89686(11)
F2 F 1.08146(17) 0.15887(16) 0.82259(11)
F3 F 0.94896(19) 0.29059(15) 0.78572(10)
N1 N 0.6367(2) 0.20488(18) 0.75292(12)
N2 N 0.8133(2) 0.09146(17) 0.80096(12)
O1 O 0.7126(2) 0.58792(19) 0.54070(12)
O2 O 0.9560(2) -0.17810(16) 0.93207(13)
O3 O 0.8489(3) -0.28243(16) 0.84109(15)
O4 O 0.6609(2) 0.04147(16) 0.70065(11)
loop_
_geom_bond_atom_site_label_1
_geom_bond_atom_site_label_2
_geom_bond_site_symmetry_1
_geom_bond_site_symmetry_2
C1 C2 1_555 1_555
C2 H1 1_555 1_555
C3 C2 1_555 1_555
H2 C3 1_555 1_555
C4 C3 1_555 1_555
C5 N1 1_555 1_555
C6 C7 1_555 1_555
C7 H3 1_555 1_555
H4 C7 1_555 1_555
C8 C7 1_555 1_555
C9 C4 1_555 1_555
C10 C1 1_555 1_555
H5 C10 1_555 1_555
C11 C8 1_555 1_555
C12 H6 1_555 1_555
H7 C12 1_555 1_555
C13 C12 1_555 1_555
C14 C13 1_555 1_555
H8 C14 1_555 1_555
C15 C14 1_555 1_555
H9 C15 1_555 1_555
C16 C15 1_555 1_555
C17 C16 1_555 1_555
H10 C17 1_555 1_555
C18 C13 1_555 1_555
H11 C18 1_555 1_555
C19 H12 1_555 1_555
H13 C19 1_555 1_555
H14 C19 1_555 1_555
C20 C6 1_555 1_555
H15 C20 1_555 1_555
C21 C20 1_555 1_555
C22 H16 1_555 1_555
H17 C22 1_555 1_555
C23 C22 1_555 1_555
H18 C23 1_555 1_555
H19 C23 1_555 1_555
H20 C23 1_555 1_555
Cl1 C1 1_555 1_555
F1 C11 1_555 1_555
F2 C11 1_555 1_555
F3 C11 1_555 1_555
N1 C4 1_555 1_555
N2 C5 1_555 1_555
O1 C16 1_555 1_555
O2 C21 1_555 1_555
O3 C21 1_555 1_555
O4 C5 1_555 1_555
C6 N2 1_555 1_555
C8 C9 1_555 1_555
C8 N2 1_555 1_555
C9 C10 1_555 1_555
C12 N1 1_555 1_555
C17 C18 1_555 1_555
C19 O1 1_555 1_555
C22 O3 1_555 1_555

#END
