
#######################################################################
#
#                 Cambridge Crystallographic Data Centre
#                                CCDC 
#
#######################################################################
#
# If this CIF has been generated from an entry in the Cambridge 
# Structural Database, then it will include bibliographic, chemical, 
# crystal, experimental, refinement or atomic coordinate data resulting 
# from the CCDC's data processing and validation procedures.
#
#######################################################################

data_ENUYIW
_chemical_name_common            'Transtaganolide C'
_chemical_formula_moiety         'C20 H24 O5'
_chemical_name_systematic        
10-Methoxy-2,2,6-trimethyl-6-vinyl-9,14-dioxatetracyclo[10.3.1.0^3,13^.0^7,13^]hexadeca-10,12(16)-diene-8,15-dione
_symmetry_cell_setting           orthorhombic
_symmetry_space_group_name_H-M   'P b c a'
_symmetry_Int_Tables_number      61
_space_group_name_Hall           '-P 2ac 2ab'
loop_
_symmetry_equiv_pos_site_id
_symmetry_equiv_pos_as_xyz
1 x,y,z
2 1/2-x,-y,1/2+z
3 -x,1/2+y,1/2-z
4 1/2+x,1/2-y,-z
5 -x,-y,-z
6 1/2+x,y,1/2-z
7 x,1/2-y,1/2+z
8 1/2-x,1/2+y,z
_cell_length_a                   11.3376(4)
_cell_length_b                   15.6613(5)
_cell_length_c                   19.2798(7)
_cell_angle_alpha                90
_cell_angle_beta                 90
_cell_angle_gamma                90
_cell_volume                     3423.35
_exptl_crystal_colour            colorless
_exptl_crystal_description       plate
_cell_formula_units_Z            8
_exptl_crystal_recrystallization_method acetonitrile
loop_
_atom_site_label
_atom_site_type_symbol
_atom_site_fract_x
_atom_site_fract_y
_atom_site_fract_z
O1 O -0.06654(6) 0.11624(4) 0.50547(3)
O2 O -0.00559(5) 0.18064(4) 0.60204(3)
O3 O -0.14655(6) 0.21778(5) 0.73957(3)
O4 O -0.02229(6) 0.12633(4) 0.78566(3)
O5 O 0.10837(6) 0.08505(4) 0.86209(3)
C1 C 0.01264(9) 0.12850(6) 0.54647(5)
C2 C 0.13545(8) 0.09285(6) 0.54478(5)
C3 C 0.15203(9) 0.04722(7) 0.61291(5)
C4 C 0.13353(8) 0.09573(6) 0.66846(5)
C5 C 0.09729(8) 0.18632(6) 0.64891(4)
C6 C 0.20014(8) 0.22666(7) 0.60718(5)
C7 C 0.22263(8) 0.17068(7) 0.54103(5)
C8 C 0.34968(9) 0.13723(8) 0.54136(6)
C9 C 0.20139(10) 0.21836(8) 0.47282(5)
C10 C 0.18076(10) 0.32182(7) 0.59471(5)
C11 C 0.15707(10) 0.36825(7) 0.66285(5)
C12 C 0.04394(8) 0.33692(6) 0.69925(5)
C13 C 0.05976(8) 0.24023(6) 0.71171(5)
C14 C -0.04528(9) 0.19772(6) 0.74505(5)
C15 C 0.09085(9) 0.09418(6) 0.79323(5)
C16 C 0.15993(9) 0.07308(7) 0.74072(5)
C17 C -0.06373(10) 0.36138(7) 0.65450(5)
C18 C 0.03283(9) 0.38429(7) 0.76750(5)
C19 C 0.03333(10) 0.35400(8) 0.83116(6)
C20 C 0.22590(11) 0.06046(8) 0.88243(6)
H1 H 0.1432(8) 0.0540(6) 0.5040(4)
H2 H 0.1765(8) -0.0111(6) 0.6135(4)
H3 H 0.2683(8) 0.2213(6) 0.6371(4)
H4 H 0.3640(8) 0.0988(7) 0.5000(5)
H5 H 0.3678(8) 0.1047(7) 0.5844(5)
H6 H 0.4047(9) 0.1858(7) 0.5384(5)
H7 H 0.2565(9) 0.2659(7) 0.4669(5)
H8 H 0.1186(9) 0.2407(6) 0.4683(4)
H9 H 0.2142(8) 0.1793(7) 0.4329(5)
H10 H 0.1119(8) 0.3314(6) 0.5607(4)
H11 H 0.2509(8) 0.3462(6) 0.5717(4)
H12 H 0.1493(8) 0.4310(7) 0.6551(4)
H13 H 0.2238(8) 0.3628(6) 0.6943(4)
H14 H 0.1250(8) 0.2351(6) 0.7435(4)
H15 H 0.2316(8) 0.0476(6) 0.7503(4)
H16 H -0.1382(8) 0.3537(6) 0.6793(4)
H17 H -0.0685(8) 0.3284(6) 0.6114(5)
H18 H -0.0544(9) 0.4240(7) 0.6401(4)
H19 H 0.0242(8) 0.4443(7) 0.7608(4)
H20 H 0.0445(9) 0.2908(7) 0.8415(5)
H21 H 0.0237(9) 0.3915(7) 0.8712(5)
H22 H 0.2450(8) 0.0009(7) 0.8677(5)
H23 H 0.2279(8) 0.0647(6) 0.9363(5)
H24 H 0.2843(9) 0.0996(7) 0.8634(5)
loop_
_geom_bond_atom_site_label_1
_geom_bond_atom_site_label_2
_geom_bond_site_symmetry_1
_geom_bond_site_symmetry_2
O1 C1 1_555 1_555
O2 C1 1_555 1_555
O3 C14 1_555 1_555
O4 C14 1_555 1_555
O5 C15 1_555 1_555
C1 C2 1_555 1_555
C2 C3 1_555 1_555
C3 C4 1_555 1_555
C4 C5 1_555 1_555
C5 O2 1_555 1_555
C6 C5 1_555 1_555
C7 C2 1_555 1_555
C8 C7 1_555 1_555
C9 C7 1_555 1_555
C10 C6 1_555 1_555
C11 C10 1_555 1_555
C12 C11 1_555 1_555
C13 C5 1_555 1_555
C14 C13 1_555 1_555
C15 O4 1_555 1_555
C16 C4 1_555 1_555
C17 C12 1_555 1_555
C18 C12 1_555 1_555
C19 C18 1_555 1_555
C20 O5 1_555 1_555
H1 C2 1_555 1_555
H2 C3 1_555 1_555
H3 C6 1_555 1_555
H4 C8 1_555 1_555
H5 C8 1_555 1_555
H6 C8 1_555 1_555
H7 C9 1_555 1_555
H8 C9 1_555 1_555
H9 C9 1_555 1_555
H10 C10 1_555 1_555
H11 C10 1_555 1_555
H12 C11 1_555 1_555
H13 C11 1_555 1_555
H14 C13 1_555 1_555
H15 C16 1_555 1_555
H16 C17 1_555 1_555
H17 C17 1_555 1_555
H18 C17 1_555 1_555
H19 C18 1_555 1_555
H20 C19 1_555 1_555
H21 C19 1_555 1_555
H22 C20 1_555 1_555
H23 C20 1_555 1_555
H24 C20 1_555 1_555
C6 C7 1_555 1_555
C12 C13 1_555 1_555
C15 C16 1_555 1_555

#END
