
#######################################################################
#
#                 Cambridge Crystallographic Data Centre
#                                CCDC 
#
#######################################################################
#
# If this CIF has been generated from an entry in the Cambridge 
# Structural Database, then it will include bibliographic, chemical, 
# crystal, experimental, refinement or atomic coordinate data resulting 
# from the CCDC's data processing and validation procedures.
#
#######################################################################

data_EOXLAT02
_chemical_compound_source        'Euphorbia lathyris'
_chemical_name_common            'Euphorbia Factor L1'
_chemical_formula_moiety         'C32 H40 O8'
_chemical_name_systematic        
"4a,8-diacetoxy-1,1,3,6-tetramethyl-4-oxo-1,1a,4,4a,5,6,7,7a,8,10,11,11a-dodecahydrospiro[cyclopenta[a]cyclopropa[f][11]annulene-9,2'-oxiran]-7-yl phenylacetate"
_symmetry_cell_setting           orthorhombic
_symmetry_space_group_name_H-M   'P 21 21 21'
_symmetry_Int_Tables_number      19
_space_group_name_Hall           'P 2ac 2ab'
loop_
_symmetry_equiv_pos_site_id
_symmetry_equiv_pos_as_xyz
1 x,y,z
2 1/2-x,-y,1/2+z
3 -x,1/2+y,1/2-z
4 1/2+x,1/2-y,-z
_cell_length_a                   8.2474(16)
_cell_length_b                   12.543(3)
_cell_length_c                   29.019(6)
_cell_angle_alpha                90
_cell_angle_beta                 90
_cell_angle_gamma                90
_cell_volume                     3001.93
_exptl_crystal_colour            colorless
_exptl_crystal_description       Orthorhombic
_cell_formula_units_Z            4
_chemical_properties_physical    Air-sensitive
_exptl_crystal_recrystallization_method 'slow evaporation'
loop_
_atom_site_label
_atom_site_type_symbol
_atom_site_fract_x
_atom_site_fract_y
_atom_site_fract_z
O1 O 0.6387(3) 0.76450(17) 0.16316(7)
O2 O 0.7603(3) 0.62927(17) 0.08489(7)
O3 O 0.6586(3) 0.57481(18) 0.21313(6)
O4 O 0.9523(3) 0.4697(2) 0.23371(7)
O5 O 0.5685(3) 0.8486(2) 0.22833(8)
O6 O 0.4433(3) 0.5177(2) 0.17294(9)
C1 C 1.0603(5) 0.6062(3) 0.09429(10)
C2 C 0.7590(5) 0.3468(3) 0.19469(11)
H1 H 0.6650 0.3601 0.2140
H2 H 0.8237 0.2925 0.2098
O7 O 1.1841(3) 0.6587(2) 0.09699(9)
O8 O 0.8855(4) 0.6702(2) 0.01838(8)
C3 C 0.9426(5) 0.4254(3) 0.08793(10)
H3 H 0.8405 0.4559 0.0911
C4 C 0.5339(4) 0.8149(3) 0.19110(12)
C5 C 0.4974(5) 0.5581(3) 0.20670(13)
C6 C 0.3571(4) 0.9268(3) 0.14249(11)
C7 C 0.7667(4) 0.5463(3) 0.17489(10)
H4 H 0.7012 0.5260 0.1481
C8 C 0.8042(4) 0.7517(3) 0.17990(10)
H5 H 0.8113 0.7582 0.2135
C9 C 0.9029(4) 0.6645(3) 0.10981(9)
C10 C 0.8207(5) 0.2376(3) 0.06842(11)
C11 C 0.9506(4) 0.3098(3) 0.08911(10)
H6 H 1.0606 0.2803 0.0885
C12 C 0.8678(4) 0.6449(3) 0.16276(9)
H7 H 0.9736 0.6347 0.1775
C13 C 0.8307(5) 0.2488(3) 0.11983(10)
H8 H 0.8792 0.1867 0.1349
C14 C 1.0372(5) 0.4403(3) 0.19214(10)
H9 H 1.0839 0.3694 0.1906
H10 H 1.0987 0.4952 0.1764
C15 C 0.9127(4) 0.8321(3) 0.15510(10)
H11 H 1.0216 0.8264 0.1684
C16 C 0.9198(5) 0.7865(3) 0.10604(10)
H12 H 0.8324 0.8155 0.0875
H13 H 1.0221 0.8048 0.0916
C17 C 1.0678(5) 0.4924(3) 0.08271(10)
C18 C 0.7664(5) 0.6417(3) 0.03861(12)
C19 C 0.8619(5) 0.9477(3) 0.15764(11)
H14 H 0.8634 0.9709 0.1892
H15 H 0.7544 0.9553 0.1454
H16 H 0.9358 0.9904 0.1399
C20 C 0.6080(5) 0.6145(4) 0.01680(12)
H17 H 0.6160 0.6236 -0.0160
H18 H 0.5251 0.6607 0.0287
H19 H 0.5808 0.5418 0.0236
C21 C 0.4027(5) 0.5962(3) 0.24687(11)
H20 H 0.2893 0.5841 0.2414
H21 H 0.4215 0.6710 0.2512
H22 H 0.4359 0.5580 0.2740
C22 C 0.3707(4) 0.8240(3) 0.16920(12)
H23 H 0.2875 0.8218 0.1928
H24 H 0.3535 0.7641 0.1486
C23 C 0.7009(4) 0.3029(3) 0.14893(11)
H25 H 0.6150 0.2519 0.1548
H26 H 0.6545 0.3610 0.1312
C24 C 0.8589(4) 0.4493(3) 0.19211(10)
C25 C 1.2384(5) 0.4541(3) 0.07173(15)
H27 H 1.2357 0.3794 0.0645
H28 H 1.3072 0.4655 0.0979
H29 H 1.2800 0.4930 0.0458
C26 C 0.3041(5) 1.0183(3) 0.16358(14)
H30 H 0.2718 1.0161 0.1943
C27 C 0.3935(6) 1.0263(5) 0.07254(15)
H31 H 0.4222 1.0289 0.0416
C28 C 0.6845(5) 0.2870(3) 0.04143(12)
H32 H 0.6121 0.2321 0.0310
H33 H 0.7279 0.3243 0.0153
H34 H 0.6264 0.3361 0.0607
C29 C 0.8820(5) 0.1333(3) 0.04891(11)
H35 H 0.7927 0.0935 0.0365
H36 H 0.9331 0.0927 0.0729
H37 H 0.9592 0.1474 0.0249
C30 C 0.2979(6) 1.1149(4) 0.13956(17)
H38 H 0.2627 1.1767 0.1541
C31 C 0.3439(6) 1.1171(4) 0.09485(19)
H39 H 0.3419 1.1814 0.0789
C32 C 0.4006(5) 0.9302(4) 0.09657(14)
H40 H 0.4345 0.8684 0.0817
loop_
_geom_bond_atom_site_label_1
_geom_bond_atom_site_label_2
_geom_bond_site_symmetry_1
_geom_bond_site_symmetry_2
O1 C4 1_555 1_555
O2 C9 1_555 1_555
O3 C5 1_555 1_555
O4 C14 1_555 1_555
O5 C4 1_555 1_555
O6 C5 1_555 1_555
C1 O7 1_555 1_555
C2 H1 1_555 1_555
H2 C2 1_555 1_555
O8 C18 1_555 1_555
C3 H3 1_555 1_555
C4 C22 1_555 1_555
C5 C21 1_555 1_555
C6 C22 1_555 1_555
C7 O3 1_555 1_555
H4 C7 1_555 1_555
C8 O1 1_555 1_555
H5 C8 1_555 1_555
C9 C1 1_555 1_555
C10 C11 1_555 1_555
C11 C3 1_555 1_555
H6 C11 1_555 1_555
C12 C7 1_555 1_555
H7 C12 1_555 1_555
C13 C10 1_555 1_555
H8 C13 1_555 1_555
C14 H9 1_555 1_555
H10 C14 1_555 1_555
C15 C8 1_555 1_555
H11 C15 1_555 1_555
C16 C9 1_555 1_555
H12 C16 1_555 1_555
H13 C16 1_555 1_555
C17 C1 1_555 1_555
C18 O2 1_555 1_555
C19 C15 1_555 1_555
H14 C19 1_555 1_555
H15 C19 1_555 1_555
H16 C19 1_555 1_555
C20 C18 1_555 1_555
H17 C20 1_555 1_555
H18 C20 1_555 1_555
H19 C20 1_555 1_555
C21 H20 1_555 1_555
H21 C21 1_555 1_555
H22 C21 1_555 1_555
C22 H23 1_555 1_555
H24 C22 1_555 1_555
C23 C2 1_555 1_555
H25 C23 1_555 1_555
H26 C23 1_555 1_555
C24 O4 1_555 1_555
C25 C17 1_555 1_555
H27 C25 1_555 1_555
H28 C25 1_555 1_555
H29 C25 1_555 1_555
C26 C6 1_555 1_555
H30 C26 1_555 1_555
C27 H31 1_555 1_555
C28 C10 1_555 1_555
H32 C28 1_555 1_555
H33 C28 1_555 1_555
H34 C28 1_555 1_555
C29 C10 1_555 1_555
H35 C29 1_555 1_555
H36 C29 1_555 1_555
H37 C29 1_555 1_555
C30 C26 1_555 1_555
H38 C30 1_555 1_555
C31 C27 1_555 1_555
H39 C31 1_555 1_555
C32 C6 1_555 1_555
H40 C32 1_555 1_555
C2 C24 1_555 1_555
C3 C17 1_555 1_555
C7 C24 1_555 1_555
C8 C12 1_555 1_555
C9 C12 1_555 1_555
C11 C13 1_555 1_555
C13 C23 1_555 1_555
C14 C24 1_555 1_555
C15 C16 1_555 1_555
C27 C32 1_555 1_555
C30 C31 1_555 1_555

#END
