
#######################################################################
#
#                 Cambridge Crystallographic Data Centre
#                                CCDC 
#
#######################################################################
#
# If this CIF has been generated from an entry in the Cambridge 
# Structural Database, then it will include bibliographic, chemical, 
# crystal, experimental, refinement or atomic coordinate data resulting 
# from the CCDC's data processing and validation procedures.
#
#######################################################################

data_EPABII
_chemical_formula_moiety         'C18 H16 N6 O8,2(H2 O1)'
_chemical_name_systematic        
"2,3-dihydroxy-N'^1^,N'^4^-bis(4-nitrobenzylidene)succinohydrazide dihydrate"
_symmetry_cell_setting           monoclinic
_symmetry_space_group_name_H-M   'C 2'
_symmetry_Int_Tables_number      5
_space_group_name_Hall           'C 2y'
loop_
_symmetry_equiv_pos_site_id
_symmetry_equiv_pos_as_xyz
1 x,y,z
2 -x,y,-z
3 1/2+x,1/2+y,z
4 1/2-x,1/2+y,-z
_cell_length_a                   15.791(3)
_cell_length_b                   5.0056(6)
_cell_length_c                   16.133(3)
_cell_angle_alpha                90
_cell_angle_beta                 122.52(2)
_cell_angle_gamma                90
_cell_volume                     1075.26
_exptl_crystal_colour            'pale yellow'
_exptl_crystal_description       Rod
_cell_formula_units_Z            2
loop_
_atom_site_label
_atom_site_type_symbol
_atom_site_fract_x
_atom_site_fract_y
_atom_site_fract_z
N1 N 0.4180(2) 0.5987(8) 0.6926(2)
O1 O 0.5958(2) 0.5136(8) 0.5873(2)
O2 O 0.45423(19) 1.0171(7) 0.61098(18)
H1 H 0.476(3) 0.281(10) 0.764(2)
H2 H 0.495(4) 0.403(13) 0.645(3)
H3 H 0.580(2) 0.908(8) 0.569(2)
H4 H 0.637(3) 0.517(12) 0.576(3)
C1 C 0.4261(3) 0.4019(10) 0.7467(3)
C2 C 0.2799(2) 0.5513(11) 0.7557(2)
H5 H 0.2663 0.6839 0.7098
C3 C 0.3609(3) 0.3856(9) 0.7861(2)
N2 N 0.4796(2) 0.5809(7) 0.6547(2)
C4 C 0.4875(3) 0.7967(9) 0.6105(2)
C5 C 0.3798(3) 0.1829(11) 0.8532(3)
H6 H 0.4344 0.0697 0.8746
C6 C 0.2370(3) 0.3178(10) 0.8557(2)
C7 C 0.2179(3) 0.5259(11) 0.7915(3)
H7 H 0.1653 0.6445 0.7731
O3 O 0.1760(2) 0.0714(9) 0.9345(2)
N3 N 0.1676(2) 0.2788(10) 0.8894(2)
C8 C 0.5400(3) 0.7538(10) 0.5555(3)
C9 C 0.3169(3) 0.1496(11) 0.8883(3)
H8 H 0.3291 0.0151 0.9332
O4 O 0.1047(2) 0.4493(9) 0.8711(2)
N1A N 0.5820(2) 0.5987(8) 0.3074(2)
O1A O 0.4042(2) 0.5136(8) 0.4127(2)
O2A O 0.54577(19) 1.0171(7) 0.38902(18)
H1A H 0.524(3) 0.281(10) 0.236(2)
H2A H 0.505(4) 0.403(13) 0.355(3)
H3A H 0.420(2) 0.908(8) 0.431(2)
H4A H 0.363(3) 0.517(12) 0.424(3)
C1A C 0.5739(3) 0.4019(10) 0.2533(3)
C2A C 0.7201(2) 0.5513(11) 0.2443(2)
H5A H 0.7337 0.6839 0.2902
C3A C 0.6391(3) 0.3856(9) 0.2139(2)
N2A N 0.5204(2) 0.5809(7) 0.3453(2)
C4A C 0.5125(3) 0.7967(9) 0.3895(2)
C5A C 0.6202(3) 0.1829(11) 0.1468(3)
H6A H 0.5656 0.0697 0.1254
C6A C 0.7630(3) 0.3178(10) 0.1443(2)
C7A C 0.7821(3) 0.5259(11) 0.2085(3)
H7A H 0.8347 0.6445 0.2269
O3A O 0.8240(2) 0.0714(9) 0.0655(2)
N3A N 0.8324(2) 0.2788(10) 0.1106(2)
C8A C 0.4600(3) 0.7538(10) 0.4445(3)
C9A C 0.6831(3) 0.1496(11) 0.1117(3)
H8A H 0.6709 0.0151 0.0668
O4A O 0.8953(2) 0.4493(9) 0.1289(2)
O5 O 0.7486(2) 0.5032(11) 0.5502(3)
H9 H 0.750(6) 0.66(2) 0.521(6)
H10 H 0.807(5) 0.453(16) 0.598(4)
loop_
_geom_bond_atom_site_label_1
_geom_bond_atom_site_label_2
_geom_bond_site_symmetry_1
_geom_bond_site_symmetry_2
N1 C1 1_555 1_555
O1 H4 1_555 1_555
O2 C4 1_555 1_555
H1 C1 1_555 1_555
H2 N2 1_555 1_555
H3 C8 1_555 1_555
C1 C3 1_555 1_555
C2 H5 1_555 1_555
C3 C2 1_555 1_555
N2 N1 1_555 1_555
C4 N2 1_555 1_555
C5 C3 1_555 1_555
H6 C5 1_555 1_555
C6 C7 1_555 1_555
C7 C2 1_555 1_555
H7 C7 1_555 1_555
O3 N3 1_555 1_555
N3 C6 1_555 1_555
C8 O1 1_555 1_555
C9 C5 1_555 1_555
H8 C9 1_555 1_555
O4 N3 1_555 1_555
O5 H9 1_555 1_555
H10 O5 1_555 1_555
N1A C1A 1_555 1_555
O1A H4A 1_555 1_555
O2A C4A 1_555 1_555
H1A C1A 1_555 1_555
H2A N2A 1_555 1_555
H3A C8A 1_555 1_555
C1A C3A 1_555 1_555
C2A H5A 1_555 1_555
C3A C2A 1_555 1_555
N2A N1A 1_555 1_555
C4A N2A 1_555 1_555
C5A C3A 1_555 1_555
H6A C5A 1_555 1_555
C6A C7A 1_555 1_555
C7A C2A 1_555 1_555
H7A C7A 1_555 1_555
O3A N3A 1_555 1_555
N3A C6A 1_555 1_555
C8A C8 1_555 1_555
C9A C5A 1_555 1_555
H8A C9A 1_555 1_555
O4A N3A 1_555 1_555
C4 C8 1_555 1_555
C6 C9 1_555 1_555
O1A C8A 1_555 1_555
C4A C8A 1_555 1_555
C6A C9A 1_555 1_555

#END
