
#######################################################################
#
#                 Cambridge Crystallographic Data Centre
#                                CCDC 
#
#######################################################################
#
# If this CIF has been generated from an entry in the Cambridge 
# Structural Database, then it will include bibliographic, chemical, 
# crystal, experimental, refinement or atomic coordinate data resulting 
# from the CCDC's data processing and validation procedures.
#
#######################################################################

data_EPEQAS
_chemical_formula_moiety         'C21 H26 O3'
_chemical_name_systematic        
6-Methoxy-9b-methyl-7-isopropyl-3b,4,5,9b,10,11-hexahydrophenanthro(1,2-c)furan-3(1H)-one
_symmetry_cell_setting           monoclinic
_symmetry_space_group_name_H-M   'P 21'
_symmetry_Int_Tables_number      4
_space_group_name_Hall           'P 2yb'
loop_
_symmetry_equiv_pos_site_id
_symmetry_equiv_pos_as_xyz
1 x,y,z
2 -x,1/2+y,-z
_cell_length_a                   9.5128(8)
_cell_length_b                   7.9036(7)
_cell_length_c                   12.3434(10)
_cell_angle_alpha                90
_cell_angle_beta                 109.5520(10)
_cell_angle_gamma                90
_cell_volume                     874.53
_exptl_crystal_colour            colorless
_exptl_crystal_description       prismatic
_cell_formula_units_Z            2
loop_
_atom_site_label
_atom_site_type_symbol
_atom_site_fract_x
_atom_site_fract_y
_atom_site_fract_z
O1 O 0.3863(3) -0.1653(3) 0.5562(2)
O2 O 0.3339(2) -0.0268(3) 0.39075(16)
O3 O 0.29616(17) 0.2219(2) 1.05855(13)
C1 C 0.2618(2) 0.4669(3) 0.58151(18)
H1 H 0.3675 0.4844 0.6214
H2 H 0.2110 0.5733 0.5815
C2 C 0.2375(3) 0.4135(4) 0.4563(2)
H3 H 0.1347 0.4345 0.4093
H4 H 0.3011 0.4806 0.4259
C3 C 0.2723(3) 0.2317(4) 0.45080(19)
C4 C 0.2996(2) 0.1248(3) 0.53813(18)
C5 C 0.2975(2) 0.1721(3) 0.65522(17)
H5 H 0.4001 0.2027 0.7008
C6 C 0.2504(3) 0.0346(3) 0.72228(19)
H6 H 0.3013 -0.0705 0.7187
H7 H 0.1437 0.0155 0.6899
C7 C 0.2918(3) 0.0942(3) 0.84673(18)
H8 H 0.2385 0.0254 0.8853
H9 H 0.3976 0.0753 0.8850
C8 C 0.2580(2) 0.2778(2) 0.86026(17)
C9 C 0.2173(2) 0.3912(2) 0.76761(16)
C10 C 0.2031(2) 0.3331(3) 0.64629(15)
C11 C 0.1800(2) 0.5556(3) 0.78675(19)
H10 H 0.1513 0.6313 0.7256
C12 C 0.1845(3) 0.6098(3) 0.89451(19)
H11 H 0.1581 0.7207 0.9043
C13 C 0.2278(2) 0.5013(3) 0.98806(19)
C14 C 0.2628(2) 0.3362(3) 0.96863(17)
C15 C 0.2309(3) 0.5595(4) 1.1064(2)
H12 H 0.3084 0.4933 1.1630
C16 C 0.2725(5) 0.7438(5) 1.1299(3)
H13 H 0.3584 0.7683 1.1084
H14 H 0.2949 0.7667 1.2103
H15 H 0.1906 0.8135 1.0860
C17 C 0.0846(4) 0.5164(7) 1.1226(3)
H16 H 0.0877 0.5507 1.1980
H17 H 0.0681 0.3965 1.1144
H18 H 0.0048 0.5744 1.0658
C18 C 0.2890(4) 0.1423(5) 0.3496(2)
H19 H 0.1954 0.1409 0.2861
H20 H 0.3645 0.1963 0.3246
C19 C 0.3439(3) -0.0389(4) 0.5032(2)
C20 C 0.0357(2) 0.3026(3) 0.58140(19)
H21 H -0.0056 0.2352 0.6281
H22 H 0.0239 0.2444 0.5106
H23 H -0.0153 0.4093 0.5651
C21 C 0.4513(3) 0.1885(4) 1.1121(2)
H24 H 0.4999 0.1923 1.0554
H25 H 0.4642 0.0784 1.1468
H26 H 0.4941 0.2723 1.1700
loop_
_geom_bond_atom_site_label_1
_geom_bond_atom_site_label_2
_geom_bond_site_symmetry_1
_geom_bond_site_symmetry_2
O1 C19 1_555 1_555
O2 C18 1_555 1_555
O3 C14 1_555 1_555
C1 H1 1_555 1_555
H2 C1 1_555 1_555
C2 C1 1_555 1_555
H3 C2 1_555 1_555
H4 C2 1_555 1_555
C3 C2 1_555 1_555
C4 C3 1_555 1_555
C5 C4 1_555 1_555
H5 C5 1_555 1_555
C6 C5 1_555 1_555
H6 C6 1_555 1_555
H7 C6 1_555 1_555
C7 C6 1_555 1_555
H8 C7 1_555 1_555
H9 C7 1_555 1_555
C8 C7 1_555 1_555
C9 C8 1_555 1_555
C10 C1 1_555 1_555
C11 C9 1_555 1_555
H10 C11 1_555 1_555
C12 C11 1_555 1_555
H11 C12 1_555 1_555
C13 C12 1_555 1_555
C14 C8 1_555 1_555
C15 C13 1_555 1_555
H12 C15 1_555 1_555
C16 C15 1_555 1_555
H13 C16 1_555 1_555
H14 C16 1_555 1_555
H15 C16 1_555 1_555
C17 C15 1_555 1_555
H16 C17 1_555 1_555
H17 C17 1_555 1_555
H18 C17 1_555 1_555
C18 C3 1_555 1_555
H19 C18 1_555 1_555
H20 C18 1_555 1_555
C19 O2 1_555 1_555
C20 C10 1_555 1_555
H21 C20 1_555 1_555
H22 C20 1_555 1_555
H23 C20 1_555 1_555
C21 O3 1_555 1_555
H24 C21 1_555 1_555
H25 C21 1_555 1_555
H26 C21 1_555 1_555
C4 C19 1_555 1_555
C5 C10 1_555 1_555
C9 C10 1_555 1_555
C13 C14 1_555 1_555

#END
