
#######################################################################
#
#                 Cambridge Crystallographic Data Centre
#                                CCDC 
#
#######################################################################
#
# If this CIF has been generated from an entry in the Cambridge 
# Structural Database, then it will include bibliographic, chemical, 
# crystal, experimental, refinement or atomic coordinate data resulting 
# from the CCDC's data processing and validation procedures.
#
#######################################################################

data_EPFRED01
_chemical_compound_source        'Dimocarpus Longan Lour'
_chemical_formula_moiety         'C30 H52 O1'
_chemical_name_systematic        'Longan triterpane-A'
_symmetry_cell_setting           monoclinic
_symmetry_space_group_name_H-M   'C 2'
_symmetry_Int_Tables_number      5
_space_group_name_Hall           'C 2y'
loop_
_symmetry_equiv_pos_site_id
_symmetry_equiv_pos_as_xyz
1 x,y,z
2 1/2+x,1/2+y,z
3 -x,y,-z
4 1/2-x,1/2+y,-z
_cell_length_a                   13.419(4)
_cell_length_b                   6.422(2)
_cell_length_c                   29.586(7)
_cell_angle_alpha                90
_cell_angle_beta                 91.91(2)
_cell_angle_gamma                90
_cell_volume                     2548.21
_cell_formula_units_Z            4
loop_
_atom_site_label
_atom_site_type_symbol
_atom_site_fract_x
_atom_site_fract_y
_atom_site_fract_z
O1 O 0.5923(3) 0.6620 0.0247(1)
C1 C 0.5442(3) 0.567(1) 0.1276(2)
C2 C 0.5205(4) 0.745(2) 0.0951(2)
C3 C 0.6011(4) 0.781(1) 0.0614(2)
C4 C 0.7041(4) 0.796(1) 0.0833(1)
C5 C 0.7305(3) 0.607(1) 0.1151(1)
C6 C 0.8295(3) 0.652(1) 0.1402(1)
C7 C 0.8522(3) 0.509(1) 0.1800(1)
C8 C 0.7693(3) 0.524(1) 0.2143(1)
C9 C 0.6675(3) 0.452(1) 0.1928(1)
C10 C 0.6462(3) 0.597(1) 0.1509(1)
C11 C 0.5875(3) 0.488(1) 0.2278(1)
C12 C 0.6142(3) 0.396(1) 0.2751(1)
C13 C 0.7131(3) 0.482(1) 0.2960(1)
C14 C 0.7983(3) 0.439(1) 0.2625(1)
C15 C 0.8944(3) 0.550(1) 0.2809(2)
C16 C 0.9049(3) 0.574(1) 0.3325(2)
C17 C 0.8470(3) 0.425(1) 0.3624(1)
C18 C 0.7382(3) 0.374(1) 0.3420(1)
C19 C 0.6576(3) 0.419(1) 0.3770(1)
C20 C 0.6777(4) 0.326(1) 0.4244(2)
C21 C 0.7827(4) 0.392(2) 0.4426(2)
C22 C 0.8376(4) 0.526(1) 0.4089(2)
C23 C 0.7819(4) 0.844(1) 0.0483(2)
C24 C 0.7402(4) 0.408(1) 0.0868(2)
C25 C 0.6631(4) 0.218(1) 0.1791(2)
C26 C 0.8216(4) 0.203(1) 0.2591(2)
C27 C 0.6971(4) 0.721(1) 0.3027(2)
C28 C 0.9082(4) 0.221(2) 0.3693(2)
C29 C 0.5981(4) 0.411(2) 0.4554(2)
C30 C 0.6683(5) 0.090(2) 0.4229(2)
H1 H 0.5295 0.6893 0.0098
loop_
_geom_bond_atom_site_label_1
_geom_bond_atom_site_label_2
_geom_bond_site_symmetry_1
_geom_bond_site_symmetry_2
O1 C3 1_555 1_555
C1 C2 1_555 1_555
C2 C3 1_555 1_555
C3 C4 1_555 1_555
C4 C5 1_555 1_555
C5 C6 1_555 1_555
C6 C7 1_555 1_555
C7 C8 1_555 1_555
C8 C9 1_555 1_555
C9 C10 1_555 1_555
C10 C1 1_555 1_555
C11 C9 1_555 1_555
C12 C11 1_555 1_555
C13 C12 1_555 1_555
C14 C8 1_555 1_555
C15 C14 1_555 1_555
C16 C15 1_555 1_555
C17 C16 1_555 1_555
C18 C13 1_555 1_555
C19 C18 1_555 1_555
C20 C19 1_555 1_555
C21 C20 1_555 1_555
C22 C17 1_555 1_555
C23 C4 1_555 1_555
C24 C5 1_555 1_555
C25 C9 1_555 1_555
C26 C14 1_555 1_555
C27 C13 1_555 1_555
C28 C17 1_555 1_555
C29 C20 1_555 1_555
C30 C20 1_555 1_555
H1 O1 1_555 1_555
C5 C10 1_555 1_555
C13 C14 1_555 1_555
C17 C18 1_555 1_555
C21 C22 1_555 1_555

#END
