
#######################################################################
#
#                 Cambridge Crystallographic Data Centre
#                                CCDC 
#
#######################################################################
#
# If this CIF has been generated from an entry in the Cambridge 
# Structural Database, then it will include bibliographic, chemical, 
# crystal, experimental, refinement or atomic coordinate data resulting 
# from the CCDC's data processing and validation procedures.
#
#######################################################################

data_EPHTEC
_chemical_formula_moiety         'C14 H14 I6 O2 Te2'
_chemical_name_systematic        
bis(\m-Iodo)-bis(di-iodo-4-methoxyphenyl-tellurium(iv))
_symmetry_cell_setting           triclinic
_symmetry_space_group_name_H-M   'P -1'
_symmetry_Int_Tables_number      2
_space_group_name_Hall           '-P 1'
loop_
_symmetry_equiv_pos_site_id
_symmetry_equiv_pos_as_xyz
1 x,y,z
2 -x,-y,-z
_cell_length_a                   10.846(5)
_cell_length_b                   11.346(6)
_cell_length_c                   11.165(8)
_cell_angle_alpha                102.27(3)
_cell_angle_beta                 93.06
_cell_angle_gamma                104.98(3)
_cell_volume                     1288.37
_cell_formula_units_Z            2
loop_
_atom_site_label
_atom_site_type_symbol
_atom_site_fract_x
_atom_site_fract_y
_atom_site_fract_z
Te1 Te 0.32481 0.17869 0.30642
Te2 Te 0.67781 0.04317 0.38302
I1 I 0.12407 0.09294 0.11676
I2 I 0.22298 0.36708 0.42998
I3 I 0.43849 -0.03440 0.18214
I4 I 0.54237 0.23634 0.53161
I5 I 0.76911 -0.14199 0.24057
I6 I 0.87539 0.10037 0.57541
C1 C 0.45030 0.30180 0.21650
C2 C 0.52130 0.41600 0.28770
C3 C 0.60760 0.49620 0.22910
C4 C 0.61600 0.46020 0.10340
C5 C 0.53930 0.34620 0.03420
C6 C 0.45440 0.26490 0.09150
C7 C 0.72080 0.50950 -0.07080
O1 O 0.70140 0.54380 0.05780
C8 C 0.77540 0.19000 0.29860
C9 C 0.83110 0.30230 0.36930
C10 C 0.89460 0.40240 0.31320
C11 C 0.89690 0.37490 0.18990
C12 C 0.83550 0.25290 0.11430
C13 C 0.77320 0.15850 0.16880
C14 C 1.00250 0.58930 0.19010
O2 O 0.95140 0.45970 0.12430
loop_
_geom_bond_atom_site_label_1
_geom_bond_atom_site_label_2
_geom_bond_site_symmetry_1
_geom_bond_site_symmetry_2
Te1 I1 1_555 1_555
Te2 I3 1_555 1_555
I2 Te1 1_555 1_555
I3 Te1 1_555 1_555
I4 Te1 1_555 1_555
I5 Te2 1_555 1_555
I6 Te2 1_555 1_555
C1 Te1 1_555 1_555
C2 C1 1_555 1_555
C3 C2 1_555 1_555
C4 C3 1_555 1_555
C5 C4 1_555 1_555
C6 C1 1_555 1_555
C7 O1 1_555 1_555
O1 C4 1_555 1_555
C8 Te2 1_555 1_555
C9 C8 1_555 1_555
C10 C9 1_555 1_555
C11 C10 1_555 1_555
C12 C11 1_555 1_555
C13 C8 1_555 1_555
C14 O2 1_555 1_555
O2 C11 1_555 1_555
Te2 I4 1_555 1_555
C5 C6 1_555 1_555
C12 C13 1_555 1_555

#END
