
#######################################################################
#
#                 Cambridge Crystallographic Data Centre
#                                CCDC 
#
#######################################################################
#
# If this CIF has been generated from an entry in the Cambridge 
# Structural Database, then it will include bibliographic, chemical, 
# crystal, experimental, refinement or atomic coordinate data resulting 
# from the CCDC's data processing and validation procedures.
#
#######################################################################

data_EPIRAX
_chemical_formula_moiety         'C26 H20 N6,0.5(C1 H1 Cl3)'
_chemical_name_systematic        
'5-(Dicyanomethylene)-2,4-bis((4-dimethylamino)phenyl)cyclopenta-1,3-diene-1,3-dicarbonitrile chloroform solvate'
_symmetry_cell_setting           triclinic
_symmetry_space_group_name_H-M   'P -1'
_symmetry_Int_Tables_number      2
_space_group_name_Hall           '-P 1'
loop_
_symmetry_equiv_pos_site_id
_symmetry_equiv_pos_as_xyz
1 x,y,z
2 -x,-y,-z
_cell_length_a                   9.1282(3)
_cell_length_b                   11.1896(3)
_cell_length_c                   12.4251(4)
_cell_angle_alpha                102.4170(13)
_cell_angle_beta                 90.4984(13)
_cell_angle_gamma                103.9678(13)
_cell_volume                     1200.32
_exptl_crystal_colour            black
_exptl_crystal_description       cube
_cell_formula_units_Z            2
loop_
_atom_site_label
_atom_site_type_symbol
_atom_site_fract_x
_atom_site_fract_y
_atom_site_fract_z
N1 N 0.7862(5) 0.3679(4) 0.8438(3)
N2 N 0.3789(5) 0.4833(5) 0.8836(3)
N3 N 0.6196(5) 0.1271(4) 0.2770(3)
N4 N 0.2352(4) 0.5273(4) 0.6473(3)
N5 N 1.0425(4) 0.0466(4) 0.6769(4)
N6 N 0.0337(4) 0.3299(4) 0.0931(3)
C1 C 0.5063(4) 0.3408(4) 0.6309(4)
C2 C 0.5870(4) 0.2652(4) 0.5513(3)
C3 C 0.5291(5) 0.2595(4) 0.4478(4)
C4 C 0.4057(4) 0.3249(4) 0.4540(3)
C5 C 0.3952(4) 0.3724(4) 0.5674(3)
C6 C 0.5419(5) 0.3771(4) 0.7431(4)
C7 C 0.6777(5) 0.3670(4) 0.7954(4)
C8 C 0.4505(5) 0.4377(5) 0.8191(4)
C9 C 0.5773(5) 0.1870(4) 0.3520(4)
C10 C 0.3062(5) 0.4566(4) 0.6130(3)
C11 C 0.7025(5) 0.2047(4) 0.5801(4)
C12 C 0.8475(5) 0.2315(5) 0.5400(4)
C13 C 0.9594(5) 0.1805(5) 0.5721(4)
C14 C 0.9304(5) 0.0953(4) 0.6435(4)
C15 C 0.7822(5) 0.0638(4) 0.6782(4)
C16 C 0.6728(5) 0.1183(4) 0.6482(4)
C17 C 1.0115(6) -0.0391(5) 0.7509(4)
C18 C 1.1991(5) 0.0958(5) 0.6545(6)
C19 C 0.3169(4) 0.3331(4) 0.3624(3)
C20 C 0.1788(5) 0.3721(4) 0.3765(4)
C21 C 0.0875(5) 0.3741(4) 0.2899(4)
C22 C 0.1261(5) 0.3354(4) 0.1793(3)
C23 C 0.2681(5) 0.3022(4) 0.1637(3)
C24 C 0.3583(5) 0.3014(4) 0.2515(3)
C25 C 0.0721(6) 0.2890(5) -0.0208(4)
C26 C -0.1050(5) 0.3741(5) 0.1109(4)
H1 H 0.8711 0.2915 0.4846
H2 H 1.0679 0.2051 0.5432
H3 H 0.7548 -0.0023 0.7279
H4 H 0.5642 0.0942 0.6771
H5 H 1.1092 -0.0752 0.7605
H6 H 0.9156 -0.1166 0.7170
H7 H 0.9866 0.0108 0.8304
H8 H 1.2709 0.0508 0.6928
H9 H 1.2322 0.1966 0.6878
H10 H 1.2103 0.0766 0.5664
H11 H 0.1464 0.4004 0.4570
H12 H -0.0122 0.4044 0.3049
H13 H 0.3031 0.2781 0.0833
H14 H 0.4614 0.2766 0.2370
H15 H -0.0242 0.2776 -0.0765
H16 H 0.1026 0.1999 -0.0304
H17 H 0.1664 0.3591 -0.0395
H18 H -0.1591 0.3700 0.0321
H19 H -0.0769 0.4703 0.1587
H20 H -0.1810 0.3144 0.1549
Cl1? Cl 0.4802(7) 0.8500(8) 0.0077(6)
Cl2? Cl 0.7421(6) 1.0206(4) -0.0005(4)
Cl3? Cl 0.5372(11) 1.1225(10) -0.0411(7)
C27? C 0.5546(18) 0.9897(12) -0.0362(13)
Cl4? Cl 0.3499(18) 0.9534(12) 0.0499(13)
Cl5? Cl 0.6278(18) 0.9673(12) -0.0225(13)
Cl6? Cl 0.5429(18) 0.8578(12) 0.0752(13)
C28? C 0.4597(18) 0.9734(12) 0.0265(13)
H21? H 0.5559 0.9506 -0.1234
H22? H 0.5030 1.0504 0.0967
loop_
_geom_bond_atom_site_label_1
_geom_bond_atom_site_label_2
_geom_bond_site_symmetry_1
_geom_bond_site_symmetry_2
N1 C7 1_555 1_555
N2 C8 1_555 1_555
N3 C9 1_555 1_555
N4 C10 1_555 1_555
N5 C14 1_555 1_555
N6 C22 1_555 1_555
C1 C2 1_555 1_555
C2 C3 1_555 1_555
C3 C4 1_555 1_555
C4 C5 1_555 1_555
C5 C1 1_555 1_555
C6 C1 1_555 1_555
C7 C6 1_555 1_555
C8 C6 1_555 1_555
C9 C3 1_555 1_555
C10 C5 1_555 1_555
C11 C2 1_555 1_555
C12 C11 1_555 1_555
C13 C12 1_555 1_555
C14 C13 1_555 1_555
C15 C14 1_555 1_555
C16 C11 1_555 1_555
C17 N5 1_555 1_555
C18 N5 1_555 1_555
C19 C4 1_555 1_555
C20 C19 1_555 1_555
C21 C20 1_555 1_555
C22 C21 1_555 1_555
C23 C22 1_555 1_555
C24 C19 1_555 1_555
C25 N6 1_555 1_555
C26 N6 1_555 1_555
H1 C12 1_555 1_555
H2 C13 1_555 1_555
H3 C15 1_555 1_555
H4 C16 1_555 1_555
H5 C17 1_555 1_555
H6 C17 1_555 1_555
H7 C17 1_555 1_555
H8 C18 1_555 1_555
H9 C18 1_555 1_555
H10 C18 1_555 1_555
H11 C20 1_555 1_555
H12 C21 1_555 1_555
H13 C23 1_555 1_555
H14 C24 1_555 1_555
H15 C25 1_555 1_555
H16 C25 1_555 1_555
H17 C25 1_555 1_555
H18 C26 1_555 1_555
H19 C26 1_555 1_555
H20 C26 1_555 1_555
C15 C16 1_555 1_555
C23 C24 1_555 1_555

#END
