
#######################################################################
#
#                 Cambridge Crystallographic Data Centre
#                                CCDC 
#
#######################################################################
#
# If this CIF has been generated from an entry in the Cambridge 
# Structural Database, then it will include bibliographic, chemical, 
# crystal, experimental, refinement or atomic coordinate data resulting 
# from the CCDC's data processing and validation procedures.
#
#######################################################################

data_EPIRAY
_chemical_formula_moiety         'C78 H78 Mg3 N16 O6,1.5(C7 H8)'
_chemical_name_systematic        
"bis(\m-2,2'-(((2-(dimethylamino)ethyl)imino)bis(methylene))bis(6-(2H-benzotriazol-2-yl)-4-methylphenolato))-bis(\m-phenylmethanolato)-tri-magnesium toluene solvate"
_symmetry_cell_setting           triclinic
_symmetry_space_group_name_H-M   'P -1'
_symmetry_Int_Tables_number      2
_space_group_name_Hall           '-P 1'
loop_
_symmetry_equiv_pos_site_id
_symmetry_equiv_pos_as_xyz
1 x,y,z
2 -x,-y,-z
_cell_length_a                   14.4831(3)
_cell_length_b                   17.4925(3)
_cell_length_c                   17.6584(3)
_cell_angle_alpha                93.0500(10)
_cell_angle_beta                 109.1210(10)
_cell_angle_gamma                105.8990(10)
_cell_volume                     4014.56
_exptl_crystal_colour            yellow
_exptl_crystal_description       columnar
_cell_formula_units_Z            2
loop_
_atom_site_label
_atom_site_type_symbol
_atom_site_fract_x
_atom_site_fract_y
_atom_site_fract_z
Mg1 Mg -0.20429(5) 0.15234(4) 0.13862(4)
Mg2 Mg 0.01521(5) 0.21452(4) 0.25180(4)
Mg3 Mg 0.24114(6) 0.30269(4) 0.35380(4)
O1 O -0.31584(11) 0.17140(9) 0.16362(8)
O2 O -0.06570(11) 0.18853(9) 0.13032(8)
O3 O 0.33892(11) 0.26966(9) 0.43888(8)
O4 O 0.13652(11) 0.29978(8) 0.24587(8)
O5 O -0.11986(11) 0.15107(9) 0.25102(8)
O6 O 0.11286(11) 0.23863(8) 0.36531(8)
N1 N -0.44699(15) 0.16647(11) 0.29090(10)
N2 N -0.47463(14) 0.12469(10) 0.21760(10)
N3 N -0.48250(14) 0.04679(11) 0.21273(10)
N4 N 0.08362(14) 0.12361(10) 0.20704(10)
N5 N 0.09048(13) 0.11392(11) 0.13276(10)
N6 N 0.15917(14) 0.07893(11) 0.12689(11)
N7 N -0.26450(14) 0.19169(11) 0.01698(10)
N8 N -0.28398(14) 0.03441(11) 0.06707(10)
N9 N 0.41310(15) 0.21576(11) 0.61755(11)
N10 N 0.45831(14) 0.28674(11) 0.60241(10)
N11 N 0.45967(17) 0.35152(12) 0.64599(11)
N12 N -0.04529(14) 0.33064(11) 0.22395(10)
N13 N -0.00773(14) 0.38285(11) 0.17998(10)
N14 N -0.04826(15) 0.44270(11) 0.16475(11)
N15 N 0.35192(14) 0.33166(11) 0.28735(10)
N16 N 0.30138(14) 0.43091(11) 0.39689(10)
C1 C -0.40151(17) 0.18368(12) 0.12149(12)
C2 C -0.48598(17) 0.16346(12) 0.14682(12)
C3 C -0.57691(17) 0.17912(13) 0.10730(12)
H1 H -0.6314 0.1655 0.1278
C4 C -0.58879(17) 0.21488(13) 0.03758(13)
C5 C -0.50719(17) 0.23207(13) 0.00944(12)
H2 H -0.5152 0.2544 -0.0393
C6 C -0.41449(17) 0.21807(13) 0.04925(12)
C7 C -0.32442(17) 0.24823(14) 0.02267(13)
H3 H -0.2764 0.2973 0.0609
H4 H -0.3496 0.2645 -0.0313
C8 C -0.17888(17) 0.23728(13) -0.00824(12)
H5 H -0.1418 0.2889 0.0293
H6 H -0.2088 0.2502 -0.0631
C9 C -0.10270(16) 0.19425(13) -0.00970(12)
C10 C -0.04527(16) 0.17432(13) 0.06407(12)
C11 C 0.02889(17) 0.13754(13) 0.06182(12)
C12 C 0.04484(17) 0.12102(14) -0.01070(13)
H7 H 0.0955 0.0961 -0.0105
C13 C -0.01176(18) 0.14032(14) -0.08228(13)
C14 C -0.08512(17) 0.17750(14) -0.08035(12)
H8 H -0.1242 0.1917 -0.1290
C15 C -0.43714(17) 0.10965(13) 0.33967(13)
C16 C -0.41226(19) 0.11530(14) 0.42461(13)
H9 H -0.3981 0.1648 0.4577
C17 C -0.40955(19) 0.04664(14) 0.45667(14)
H10 H -0.3930 0.0486 0.5136
C18 C -0.43029(18) -0.02748(14) 0.40870(14)
H11 H -0.4275 -0.0737 0.4341
C19 C -0.45432(18) -0.03427(13) 0.32670(14)
H12 H -0.4678 -0.0841 0.2945
C20 C -0.45835(16) 0.03591(13) 0.29182(13)
C21 C 0.15492(16) 0.09140(12) 0.25285(12)
C22 C 0.18365(18) 0.08335(13) 0.33550(13)
H13 H 0.1522 0.1012 0.3695
C23 C 0.25927(19) 0.04838(14) 0.36425(14)
H14 H 0.2809 0.0419 0.4198
C24 C 0.30656(18) 0.02149(15) 0.31399(14)
H15 H 0.3593 -0.0019 0.3372
C25 C 0.27915(18) 0.02790(14) 0.23384(14)
H16 H 0.3107 0.0091 0.2005
C26 C 0.20094(17) 0.06416(13) 0.20271(13)
C27 C -0.68729(18) 0.23211(15) -0.00723(14)
H17 H -0.7300 0.2259 0.0264
H18 H -0.7244 0.1943 -0.0582
H19 H -0.6714 0.2873 -0.0191
C28 C 0.0059(2) 0.12282(17) -0.16004(14)
H20 H 0.0363 0.0789 -0.1566
H21 H 0.0527 0.1711 -0.1684
H22 H -0.0598 0.1071 -0.2056
C29 C -0.32942(17) 0.11719(14) -0.04199(12)
H23 H -0.2889 0.1016 -0.0721
H24 H -0.3888 0.1283 -0.0817
C30 C -0.36808(17) 0.04830(14) -0.00167(13)
H25 H -0.4197 0.0594 0.0190
H26 H -0.4027 -0.0013 -0.0424
C31 C -0.32999(19) -0.01959(14) 0.11562(14)
H27 H -0.3739 -0.0712 0.0813
H28 H -0.3713 0.0053 0.1369
H29 H -0.2753 -0.0287 0.1609
C32 C -0.21990(18) -0.00213(15) 0.03672(15)
H30 H -0.2619 -0.0552 0.0046
H31 H -0.1634 -0.0081 0.0827
H32 H -0.1918 0.0325 0.0026
C33 C 0.43819(17) 0.28628(12) 0.45978(12)
C34 C 0.50359(17) 0.29452(12) 0.54097(12)
C35 C 0.60937(17) 0.31354(13) 0.56462(13)
H33 H 0.6496 0.3177 0.6202
C36 C 0.65716(18) 0.32661(13) 0.50811(14)
C37 C 0.59429(18) 0.31929(13) 0.42770(13)
H34 H 0.6254 0.3285 0.3879
C38 C 0.48884(17) 0.29924(13) 0.40308(13)
C39 C 0.42559(17) 0.28452(14) 0.31381(12)
H35 H 0.4732 0.2964 0.2835
H36 H 0.3862 0.2266 0.2979
C40 C 0.30338(18) 0.30747(15) 0.19732(13)
H37 H 0.2728 0.2482 0.1852
H38 H 0.3579 0.3220 0.1737
C41 C 0.22196(18) 0.34444(14) 0.15605(13)
C42 C 0.14100(17) 0.33862(13) 0.18453(12)
C43 C 0.06836(18) 0.37662(14) 0.14673(13)
C44 C 0.0695(2) 0.41128(17) 0.07819(15)
H39 H 0.0177 0.4348 0.0526
C45 C 0.1452(2) 0.4119(2) 0.04681(17)
C46 C 0.2229(2) 0.38093(18) 0.08844(15)
H40 H 0.2785 0.3849 0.0699
C47 C 0.38055(18) 0.23547(14) 0.67770(13)
C48 C 0.3265(2) 0.18639(17) 0.71929(15)
H41 H 0.3068 0.1294 0.7077
C49 C 0.3033(2) 0.22399(18) 0.77727(16)
H42 H 0.2674 0.1923 0.8069
C50 C 0.3312(3) 0.30821(19) 0.79422(17)
H43 H 0.3126 0.3319 0.8343
C51 C 0.3847(3) 0.35732(18) 0.75449(17)
H44 H 0.4043 0.4143 0.7669
C52 C 0.4090(2) 0.31950(14) 0.69478(14)
C53 C -0.11913(19) 0.42829(14) 0.20089(13)
C54 C -0.1890(2) 0.46986(17) 0.20312(15)
H45 H -0.1889 0.5176 0.1799
C55 C -0.2566(2) 0.43831(19) 0.24010(17)
H46 H -0.3055 0.4644 0.2420
C56 C -0.2563(2) 0.36792(18) 0.27585(16)
H47 H -0.3057 0.3479 0.3003
C57 C -0.18730(19) 0.32764(15) 0.27647(14)
H48 H -0.1863 0.2812 0.3019
C58 C -0.11793(18) 0.35893(13) 0.23730(12)
C59 C 0.77224(19) 0.34691(17) 0.53100(15)
H49 H 0.8050 0.3560 0.5902
H50 H 0.7981 0.3957 0.5098
H51 H 0.7882 0.3022 0.5078
C60 C 0.1440(3) 0.4447(3) -0.0310(2)
H52 H 0.0730 0.4297 -0.0694
H53 H 0.1850 0.4220 -0.0548
H54 H 0.1731 0.5034 -0.0193
C61 C 0.40386(18) 0.42020(13) 0.30903(14)
H55 H 0.3682 0.4473 0.2662
H56 H 0.4755 0.4319 0.3109
C62 C 0.40478(17) 0.45446(13) 0.39029(13)
H57 H 0.4518 0.4355 0.4342
H58 H 0.4318 0.5139 0.3981
C63 C 0.23756(18) 0.47699(13) 0.34848(14)
H59 H 0.2687 0.5344 0.3708
H60 H 0.1683 0.4583 0.3506
H61 H 0.2335 0.4687 0.2920
C64 C 0.31273(18) 0.44929(14) 0.48281(13)
H62 H 0.3477 0.5069 0.5024
H63 H 0.3533 0.4183 0.5156
H64 H 0.2447 0.4349 0.4874
C65 C -0.15760(17) 0.12798(14) 0.31282(13)
H65 H -0.2329 0.1175 0.2920
H66 H -0.1273 0.1732 0.3585
C66 C -0.13460(17) 0.05396(13) 0.34439(13)
C67 C -0.08248(18) 0.01272(14) 0.31318(13)
H67 H -0.0631 0.0295 0.2688
C68 C -0.05822(19) -0.05297(14) 0.34591(14)
H68 H -0.0223 -0.0805 0.3240
C69 C -0.0863(2) -0.07807(15) 0.41016(15)
H69 H -0.0692 -0.1225 0.4330
C70 C -0.1394(2) -0.03832(16) 0.44107(16)
H70 H -0.1594 -0.0559 0.4849
C71 C -0.16369(19) 0.02728(14) 0.40844(14)
H71 H -0.2005 0.0541 0.4301
C72 C 0.10893(17) 0.22031(13) 0.44130(12)
H72 H 0.1738 0.2106 0.4732
H73 H 0.0521 0.1701 0.4326
C73 C 0.09319(18) 0.28649(13) 0.48947(13)
C74 C 0.1363(2) 0.30157(16) 0.57372(14)
H74 H 0.1765 0.2701 0.6016
C75 C 0.1210(3) 0.36223(18) 0.61734(16)
H75 H 0.1506 0.3717 0.6749
C76 C 0.0634(3) 0.40899(18) 0.57818(16)
H76 H 0.0533 0.4506 0.6084
C77 C 0.0206(2) 0.39475(16) 0.49478(15)
H77 H -0.0196 0.4264 0.4672
C78 C 0.03592(18) 0.33459(14) 0.45116(14)
H78 H 0.0066 0.3259 0.3936
C79 C 0.9557(6) 0.3200(5) 0.7396(5)
C80 C 0.8650(4) 0.3088(3) 0.7477(3)
C81 C 0.7924(5) 0.2302(3) 0.7158(3)
C82 C 0.7012(5) 0.2118(4) 0.7286(4)
C83 C 0.6728(4) 0.2657(4) 0.7703(3)
C84 C 0.7441(5) 0.3454(3) 0.8022(2)
C85 C 0.8385(4) 0.3644(3) 0.7899(2)
C86? C 0.8452(11) 0.1865(7) 0.6457(7)
C87? C 0.5057(4) 0.5234(2) -0.0746(3)
C88? C 0.4538(4) 0.5562(2) -0.0361(4)
C89? C 0.4480(4) 0.5310(3) 0.0370(4)
C90? C 0.3829(14) 0.5750(7) 0.0982(11)
loop_
_geom_bond_atom_site_label_1
_geom_bond_atom_site_label_2
_geom_bond_site_symmetry_1
_geom_bond_site_symmetry_2
Mg1 O1 1_555 1_555
Mg2 O2 1_555 1_555
Mg3 O3 1_555 1_555
O1 C1 1_555 1_555
O2 Mg1 1_555 1_555
O3 C33 1_555 1_555
O4 Mg2 1_555 1_555
O5 Mg1 1_555 1_555
O6 Mg2 1_555 1_555
N1 N2 1_555 1_555
N2 N3 1_555 1_555
N3 C20 1_555 1_555
N4 Mg2 1_555 1_555
N5 N4 1_555 1_555
N6 N5 1_555 1_555
N7 Mg1 1_555 1_555
N8 Mg1 1_555 1_555
N9 N10 1_555 1_555
N10 N11 1_555 1_555
N11 C52 1_555 1_555
N12 Mg2 1_555 1_555
N13 N12 1_555 1_555
N14 N13 1_555 1_555
N15 Mg3 1_555 1_555
N16 Mg3 1_555 1_555
C1 C2 1_555 1_555
C2 N2 1_555 1_555
C3 C2 1_555 1_555
H1 C3 1_555 1_555
C4 C3 1_555 1_555
C5 C4 1_555 1_555
H2 C5 1_555 1_555
C6 C1 1_555 1_555
C7 N7 1_555 1_555
H3 C7 1_555 1_555
H4 C7 1_555 1_555
C8 N7 1_555 1_555
H5 C8 1_555 1_555
H6 C8 1_555 1_555
C9 C8 1_555 1_555
C10 O2 1_555 1_555
C11 N5 1_555 1_555
C12 C11 1_555 1_555
H7 C12 1_555 1_555
C13 C12 1_555 1_555
C14 C9 1_555 1_555
H8 C14 1_555 1_555
C15 N1 1_555 1_555
C16 C15 1_555 1_555
H9 C16 1_555 1_555
C17 C16 1_555 1_555
H10 C17 1_555 1_555
C18 C17 1_555 1_555
H11 C18 1_555 1_555
C19 C18 1_555 1_555
H12 C19 1_555 1_555
C20 C15 1_555 1_555
C21 N4 1_555 1_555
C22 C21 1_555 1_555
H13 C22 1_555 1_555
C23 C22 1_555 1_555
H14 C23 1_555 1_555
C24 C23 1_555 1_555
H15 C24 1_555 1_555
C25 C24 1_555 1_555
H16 C25 1_555 1_555
C26 N6 1_555 1_555
C27 C4 1_555 1_555
H17 C27 1_555 1_555
H18 C27 1_555 1_555
H19 C27 1_555 1_555
C28 C13 1_555 1_555
H20 C28 1_555 1_555
H21 C28 1_555 1_555
H22 C28 1_555 1_555
C29 N7 1_555 1_555
H23 C29 1_555 1_555
H24 C29 1_555 1_555
C30 N8 1_555 1_555
H25 C30 1_555 1_555
H26 C30 1_555 1_555
C31 N8 1_555 1_555
H27 C31 1_555 1_555
H28 C31 1_555 1_555
H29 C31 1_555 1_555
C32 N8 1_555 1_555
H30 C32 1_555 1_555
H31 C32 1_555 1_555
H32 C32 1_555 1_555
C33 C34 1_555 1_555
C34 N10 1_555 1_555
C35 C34 1_555 1_555
H33 C35 1_555 1_555
C36 C35 1_555 1_555
C37 C36 1_555 1_555
H34 C37 1_555 1_555
C38 C33 1_555 1_555
C39 N15 1_555 1_555
H35 C39 1_555 1_555
H36 C39 1_555 1_555
C40 N15 1_555 1_555
H37 C40 1_555 1_555
H38 C40 1_555 1_555
C41 C40 1_555 1_555
C42 O4 1_555 1_555
C43 N13 1_555 1_555
C44 C43 1_555 1_555
H39 C44 1_555 1_555
C45 C44 1_555 1_555
C46 C41 1_555 1_555
H40 C46 1_555 1_555
C47 N9 1_555 1_555
C48 C47 1_555 1_555
H41 C48 1_555 1_555
C49 C48 1_555 1_555
H42 C49 1_555 1_555
C50 C49 1_555 1_555
H43 C50 1_555 1_555
C51 C50 1_555 1_555
H44 C51 1_555 1_555
C52 C47 1_555 1_555
C53 N14 1_555 1_555
C54 C53 1_555 1_555
H45 C54 1_555 1_555
C55 C54 1_555 1_555
H46 C55 1_555 1_555
C56 C55 1_555 1_555
H47 C56 1_555 1_555
C57 C56 1_555 1_555
H48 C57 1_555 1_555
C58 N12 1_555 1_555
C59 C36 1_555 1_555
H49 C59 1_555 1_555
H50 C59 1_555 1_555
H51 C59 1_555 1_555
C60 C45 1_555 1_555
H52 C60 1_555 1_555
H53 C60 1_555 1_555
H54 C60 1_555 1_555
C61 N15 1_555 1_555
H55 C61 1_555 1_555
H56 C61 1_555 1_555
C62 N16 1_555 1_555
H57 C62 1_555 1_555
H58 C62 1_555 1_555
C63 N16 1_555 1_555
H59 C63 1_555 1_555
H60 C63 1_555 1_555
H61 C63 1_555 1_555
C64 N16 1_555 1_555
H62 C64 1_555 1_555
H63 C64 1_555 1_555
H64 C64 1_555 1_555
C65 O5 1_555 1_555
H65 C65 1_555 1_555
H66 C65 1_555 1_555
C66 C65 1_555 1_555
C67 C66 1_555 1_555
H67 C67 1_555 1_555
C68 C67 1_555 1_555
H68 C68 1_555 1_555
C69 C68 1_555 1_555
H69 C69 1_555 1_555
C70 C69 1_555 1_555
H70 C70 1_555 1_555
C71 C66 1_555 1_555
H71 C71 1_555 1_555
C72 O6 1_555 1_555
H72 C72 1_555 1_555
H73 C72 1_555 1_555
C73 C72 1_555 1_555
C74 C73 1_555 1_555
H74 C74 1_555 1_555
C75 C74 1_555 1_555
H75 C75 1_555 1_555
C76 C75 1_555 1_555
H76 C76 1_555 1_555
C77 C76 1_555 1_555
H77 C77 1_555 1_555
C78 C73 1_555 1_555
H78 C78 1_555 1_555
C79 C80 1_555 1_555
C80 C81 1_555 1_555
C81 C82 1_555 1_555
C82 C83 1_555 1_555
C83 C84 1_555 1_555
C84 C85 1_555 1_555
C85 C80 1_555 1_555
Mg2 O5 1_555 1_555
Mg3 O4 1_555 1_555
Mg3 O6 1_555 1_555
C5 C6 1_555 1_555
C6 C7 1_555 1_555
C9 C10 1_555 1_555
C10 C11 1_555 1_555
C13 C14 1_555 1_555
C19 C20 1_555 1_555
C21 C26 1_555 1_555
C25 C26 1_555 1_555
C29 C30 1_555 1_555
C37 C38 1_555 1_555
C38 C39 1_555 1_555
C41 C42 1_555 1_555
C42 C43 1_555 1_555
C45 C46 1_555 1_555
C51 C52 1_555 1_555
C53 C58 1_555 1_555
C57 C58 1_555 1_555
C61 C62 1_555 1_555
C70 C71 1_555 1_555
C77 C78 1_555 1_555

#END
