
#######################################################################
#
#                 Cambridge Crystallographic Data Centre
#                                CCDC 
#
#######################################################################
#
# If this CIF has been generated from an entry in the Cambridge 
# Structural Database, then it will include bibliographic, chemical, 
# crystal, experimental, refinement or atomic coordinate data resulting 
# from the CCDC's data processing and validation procedures.
#
#######################################################################

data_EPUQEM
_chemical_formula_moiety         '2(C10 H8 N2),C7 H6 O3'
_chemical_name_systematic        "4-Hydroxybenzoic acid bis(4,4'-bipyridine)"
_symmetry_cell_setting           triclinic
_symmetry_space_group_name_H-M   'P 1'
_symmetry_Int_Tables_number      1
_space_group_name_Hall           'P 1'
loop_
_symmetry_equiv_pos_site_id
_symmetry_equiv_pos_as_xyz
1 x,y,z
_cell_length_a                   7.702(3)
_cell_length_b                   9.503(5)
_cell_length_c                   16.765(5)
_cell_angle_alpha                84.074(7)
_cell_angle_beta                 77.313(7)
_cell_angle_gamma                67.731(7)
_cell_volume                     1107.55
_exptl_crystal_colour            colorless
_exptl_crystal_description       block
_cell_formula_units_Z            2
loop_
_atom_site_label
_atom_site_type_symbol
_atom_site_fract_x
_atom_site_fract_y
_atom_site_fract_z
N1 N 0.0837(5) 0.1895(4) 0.6245(2)
N2 N -0.0342(5) 0.2207(4) 0.2120(2)
C1 C -0.0187(6) 0.3175(5) 0.5894(3)
H1 H -0.0817 0.4060 0.6215
C2 C -0.0379(6) 0.3282(4) 0.5089(2)
H2 H -0.1113 0.4227 0.4869
C3 C 0.0500(5) 0.2008(4) 0.4599(2)
C4 C 0.1570(6) 0.0664(4) 0.4972(2)
H3 H 0.2206 -0.0244 0.4670
C5 C 0.1696(6) 0.0667(4) 0.5774(3)
H4 H 0.2436 -0.0257 0.6011
C6 C -0.0617(6) 0.3441(4) 0.2525(2)
H5 H -0.1054 0.4399 0.2251
C7 C -0.0321(5) 0.3437(4) 0.3304(2)
H6 H -0.0517 0.4362 0.3544
C8 C 0.0272(5) 0.2063(4) 0.3741(2)
C9 C 0.0578(6) 0.0764(4) 0.3326(3)
H7 H 0.0999 -0.0209 0.3586
C10 C 0.0268(6) 0.0894(5) 0.2541(3)
H8 H 0.0505 -0.0016 0.2276
N3 N 0.6229(5) 0.1289(4) 0.6249(2)
N4 N 0.5066(5) 0.1413(4) 0.2137(2)
C11 C 0.4896(5) 0.2672(4) 0.2482(2)
H9 H 0.4590 0.3596 0.2170
C12 C 0.5143(5) 0.2707(4) 0.3279(2)
H10 H 0.4998 0.3635 0.3500
C13 C 0.5605(5) 0.1364(4) 0.3746(2)
C14 C 0.5788(5) 0.0058(4) 0.3384(2)
H11 H 0.6109 -0.0886 0.3678
C15 C 0.5501(6) 0.0135(4) 0.2594(2)
H12 H 0.5620 -0.0775 0.2362
C16 C 0.5250(6) 0.2568(5) 0.5875(3)
H13 H 0.4677 0.3478 0.6178
C17 C 0.5024(6) 0.2643(4) 0.5066(2)
H14 H 0.4312 0.3582 0.4832
C18 C 0.5845(5) 0.1337(4) 0.4607(2)
C19 C 0.6850(6) 0.0011(4) 0.4989(2)
H15 H 0.7431 -0.0916 0.4700
C20 C 0.7006(6) 0.0041(5) 0.5801(3)
H16 H 0.7709 -0.0885 0.6049
N5 N 0.4754(5) 0.6324(4) 0.7304(2)
N6 N 0.5983(5) 0.6270(4) 1.1390(2)
C21 C 0.4366(7) 0.7610(5) 0.7682(3)
H17 H 0.3961 0.8544 0.7383
C22 C 0.4525(6) 0.7656(4) 0.8493(2)
H18 H 0.4235 0.8598 0.8736
C23 C 0.5109(5) 0.6312(4) 0.8932(2)
C24 C 0.5496(6) 0.4967(4) 0.8552(2)
H19 H 0.5886 0.4018 0.8837
C25 C 0.5298(6) 0.5045(4) 0.7741(3)
H20 H 0.5570 0.4119 0.7484
C26 C 0.4834(6) 0.7491(5) 1.1061(3)
H21 H 0.4197 0.8373 1.1384
C27 C 0.4487(5) 0.7580(4) 1.0269(2)
H22 H 0.3655 0.8498 1.0063
C28 C 0.5384(5) 0.6297(4) 0.9790(2)
C29 C 0.6550(5) 0.5008(4) 1.0140(2)
H23 H 0.7172 0.4093 0.9843
C30 C 0.6810(6) 0.5054(5) 1.0931(2)
H24 H 0.7635 0.4153 1.1155
N7 N -0.0695(5) 0.7178(4) 0.7276(2)
N8 N 0.0522(5) 0.6825(4) 1.1396(2)
C31 C -0.0526(5) 0.8127(4) 1.1061(2)
H25 H -0.1090 0.9012 1.1384
C32 C -0.0829(5) 0.8249(4) 1.0268(2)
H26 H -0.1605 0.9194 1.0062
C33 C 0.0013(5) 0.6975(4) 0.9771(2)
C34 C 0.1104(5) 0.5635(4) 1.0124(2)
H27 H 0.1701 0.4731 0.9816
C35 C 0.1318(6) 0.5616(4) 1.0916(3)
H28 H 0.2082 0.4683 1.1137
C36 C -0.1038(6) 0.8437(5) 0.7681(3)
H29 H -0.1433 0.9391 0.7400
C37 C -0.0848(6) 0.8422(4) 0.8484(2)
H30 H -0.1123 0.9349 0.8741
C38 C -0.0255(5) 0.7048(4) 0.8913(2)
C39 C 0.0106(6) 0.5737(4) 0.8494(3)
H31 H 0.0515 0.4765 0.8756
C40 C -0.0138(6) 0.5871(5) 0.7697(3)
H32 H 0.0110 0.4964 0.7427
O1 O 0.3646(4) 0.1438(4) 1.08420(19)
H33 H 0.4394 0.1369 1.1154
O2 O 0.6005(4) 0.1713(3) 0.98773(18)
O3 O -0.0146(4) 0.1719(3) 0.78736(18)
H34 H 0.0424 0.1699 0.7384
C41 C 0.3266(5) 0.1616(4) 0.9488(2)
C42 C 0.3982(5) 0.1654(3) 0.8654(2)
H35 H 0.5234 0.1665 0.8465
C43 C 0.2875(5) 0.1677(4) 0.8088(2)
H36 H 0.3370 0.1694 0.7517
C44 C 0.1048(5) 0.1676(3) 0.8375(2)
C45 C 0.0333(5) 0.1602(4) 0.9207(2)
H37 H -0.0904 0.1560 0.9394
C46 C 0.1441(5) 0.1589(3) 0.9770(2)
H38 H 0.0948 0.1563 1.0340
C47 C 0.4465(5) 0.1589(4) 1.0086(2)
O4 O 0.2014(4) 0.6670(4) 0.26949(19)
H39 H 0.1240 0.6837 0.2381
O5 O -0.0567(3) 0.6925(3) 0.36564(18)
O6 O 0.5732(4) 0.6516(3) 0.56800(18)
H40 H 0.5188 0.6461 0.6168
C48 C 0.2313(5) 0.6695(4) 0.4045(2)
C49 C 0.1574(5) 0.6693(4) 0.4888(2)
H41 H 0.0302 0.6728 0.5076
C50 C 0.2682(5) 0.6639(4) 0.5452(2)
H42 H 0.2164 0.6649 0.6021
C51 C 0.4550(5) 0.6570(3) 0.5177(2)
C52 C 0.5305(5) 0.6565(4) 0.4336(2)
H43 H 0.6581 0.6520 0.4147
C53 C 0.4180(5) 0.6625(4) 0.3779(2)
H44 H 0.4696 0.6618 0.3209
C54 C 0.1089(5) 0.6769(3) 0.3460(2)
loop_
_geom_bond_atom_site_label_1
_geom_bond_atom_site_label_2
_geom_bond_site_symmetry_1
_geom_bond_site_symmetry_2
N1 C1 1_555 1_555
N2 C6 1_555 1_555
C1 H1 1_555 1_555
C2 C1 1_555 1_555
H2 C2 1_555 1_555
C3 C2 1_555 1_555
C4 C3 1_555 1_555
H3 C4 1_555 1_555
C5 N1 1_555 1_555
H4 C5 1_555 1_555
C6 H5 1_555 1_555
C7 C6 1_555 1_555
H6 C7 1_555 1_555
C8 C3 1_555 1_555
C9 C8 1_555 1_555
H7 C9 1_555 1_555
C10 N2 1_555 1_555
H8 C10 1_555 1_555
N3 C16 1_555 1_555
N4 C11 1_555 1_555
C11 H9 1_555 1_555
C12 C11 1_555 1_555
H10 C12 1_555 1_555
C13 C12 1_555 1_555
C14 C13 1_555 1_555
H11 C14 1_555 1_555
C15 N4 1_555 1_555
H12 C15 1_555 1_555
C16 H13 1_555 1_555
C17 C16 1_555 1_555
H14 C17 1_555 1_555
C18 C13 1_555 1_555
C19 C18 1_555 1_555
H15 C19 1_555 1_555
C20 N3 1_555 1_555
H16 C20 1_555 1_555
N5 C21 1_555 1_555
N6 C26 1_555 1_555
C21 H17 1_555 1_555
C22 C21 1_555 1_555
H18 C22 1_555 1_555
C23 C22 1_555 1_555
C24 C23 1_555 1_555
H19 C24 1_555 1_555
C25 N5 1_555 1_555
H20 C25 1_555 1_555
C26 H21 1_555 1_555
C27 C26 1_555 1_555
H22 C27 1_555 1_555
C28 C23 1_555 1_555
C29 C28 1_555 1_555
H23 C29 1_555 1_555
C30 N6 1_555 1_555
H24 C30 1_555 1_555
N7 C36 1_555 1_555
N8 C31 1_555 1_555
C31 H25 1_555 1_555
C32 C31 1_555 1_555
H26 C32 1_555 1_555
C33 C32 1_555 1_555
C34 C33 1_555 1_555
H27 C34 1_555 1_555
C35 N8 1_555 1_555
H28 C35 1_555 1_555
C36 H29 1_555 1_555
C37 C36 1_555 1_555
H30 C37 1_555 1_555
C38 C33 1_555 1_555
C39 C38 1_555 1_555
H31 C39 1_555 1_555
C40 N7 1_555 1_555
H32 C40 1_555 1_555
O1 H33 1_555 1_555
O2 C47 1_555 1_555
O3 H34 1_555 1_555
C41 C42 1_555 1_555
C42 H35 1_555 1_555
C43 C42 1_555 1_555
H36 C43 1_555 1_555
C44 O3 1_555 1_555
C45 C44 1_555 1_555
H37 C45 1_555 1_555
C46 C41 1_555 1_555
H38 C46 1_555 1_555
C47 O1 1_555 1_555
O4 H39 1_555 1_555
O5 C54 1_555 1_555
O6 H40 1_555 1_555
C48 C49 1_555 1_555
C49 H41 1_555 1_555
C50 C49 1_555 1_555
H42 C50 1_555 1_555
C51 O6 1_555 1_555
C52 C51 1_555 1_555
H43 C52 1_555 1_555
C53 C48 1_555 1_555
H44 C53 1_555 1_555
C54 O4 1_555 1_555
C4 C5 1_555 1_555
C7 C8 1_555 1_555
C9 C10 1_555 1_555
C14 C15 1_555 1_555
C17 C18 1_555 1_555
C19 C20 1_555 1_555
C24 C25 1_555 1_555
C27 C28 1_555 1_555
C29 C30 1_555 1_555
C34 C35 1_555 1_555
C37 C38 1_555 1_555
C39 C40 1_555 1_555
C41 C47 1_555 1_555
C43 C44 1_555 1_555
C45 C46 1_555 1_555
C48 C54 1_555 1_555
C50 C51 1_555 1_555
C52 C53 1_555 1_555

#END
