
#######################################################################
#
#                 Cambridge Crystallographic Data Centre
#                                CCDC 
#
#######################################################################
#
# If this CIF has been generated from an entry in the Cambridge 
# Structural Database, then it will include bibliographic, chemical, 
# crystal, experimental, refinement or atomic coordinate data resulting 
# from the CCDC's data processing and validation procedures.
#
#######################################################################

data_EQAFAF
_chemical_name_common            
4alpha-Hydroxy-6alpha-(2'-propynyloxy)-1beta,9alpha-diolcyclopentanide-2beta,12-epoxymethano-beta-dihydroagarofuran
_chemical_formula_moiety         'C23 H30 O6'
_chemical_name_systematic        
2',15',15'-trimethyl-17'-(prop-2-yn-1-yloxy)-5',9',11',16'-tetraoxaspiro[cyclopentane-1,10'-pentacyclo[12.2.1.0^1,7^.0^4,8^.0^7,12^]heptadecane]-3-en-2'-ol
_chemical_properties_biological  
'insecticidal acticity against third-instar larvae of M. separata'
_symmetry_cell_setting           orthorhombic
_symmetry_space_group_name_H-M   'P 21 21 21'
_symmetry_Int_Tables_number      19
_space_group_name_Hall           'P 2ac 2ab'
loop_
_symmetry_equiv_pos_site_id
_symmetry_equiv_pos_as_xyz
1 x,y,z
2 1/2-x,-y,1/2+z
3 -x,1/2+y,1/2-z
4 1/2+x,1/2-y,-z
_cell_length_a                   12.180(5)
_cell_length_b                   15.448(6)
_cell_length_c                   22.984(10)
_cell_angle_alpha                90
_cell_angle_beta                 90
_cell_angle_gamma                90
_cell_volume                     4324.59
_exptl_crystal_colour            'light yellow'
_chemical_melting_point          '455-457 K'
_cell_formula_units_Z            8
loop_
_atom_site_label
_atom_site_type_symbol
_atom_site_fract_x
_atom_site_fract_y
_atom_site_fract_z
O1 O 0.2338(2) 0.54769(17) 0.44047(12)
O2 O 0.2059(2) 0.39852(18) 0.44774(11)
O3 O 0.2826(3) 0.60559(19) 0.32591(15)
O4 O 0.43270(18) 0.36743(15) 0.37210(10)
O5 O 0.3986(2) 0.31497(17) 0.24517(10)
O6 O 0.5597(2) 0.4343(2) 0.29541(15)
H1 H 0.6084 0.4696 0.2889
C1 C 0.0682(4) 0.5010(4) 0.4852(2)
H2 H 0.0528 0.5607 0.4749
H3 H 0.0211 0.4635 0.4623
C2 C 0.0506(6) 0.4868(5) 0.5470(3)
H4 H -0.0163 0.4776 0.5654
C3 C 0.1561(7) 0.4899(8) 0.5740(3)
H5 H 0.1667 0.5017 0.6133
C4 C 0.2410(4) 0.4732(3) 0.53529(19)
H6 H 0.3139 0.4609 0.5442
C5 C 0.1887(3) 0.4797(3) 0.47461(18)
C6 C 0.3222(3) 0.5183(2) 0.40511(15)
H7 H 0.3795 0.4895 0.4279
C7 C 0.3671(4) 0.5899(3) 0.36813(19)
H8 H 0.3809 0.6418 0.3915
C8 C 0.4713(4) 0.5583(2) 0.3402(2)
H9 H 0.5233 0.5433 0.3705
H10 H 0.5030 0.6051 0.3176
C9 C 0.4554(3) 0.4788(2) 0.29994(17)
C10 C 0.3723(3) 0.4131(2) 0.32767(14)
C11 C 0.2749(3) 0.4599(2) 0.35864(15)
C12 C 0.1906(3) 0.3987(3) 0.38569(16)
H11 H 0.1174 0.4223 0.3777
C13 C 0.1921(4) 0.3039(3) 0.3649(2)
H12 H 0.1792 0.2667 0.3982
H13 H 0.1318 0.2954 0.3379
C14 C 0.2985(4) 0.2752(3) 0.33523(19)
H14 H 0.2891 0.2181 0.3174
C15 C 0.3240(3) 0.3424(2) 0.28911(16)
H15 H 0.2557 0.3629 0.2712
C16 C 0.2205(4) 0.5280(3) 0.31994(19)
H16 H 0.2205 0.5089 0.2797
H17 H 0.1452 0.5374 0.3320
C17 C 0.4280(5) 0.5078(3) 0.23816(19)
H18 H 0.4869 0.5426 0.2232
H19 H 0.3615 0.5411 0.2386
H20 H 0.4183 0.4579 0.2138
C18 C 0.4008(4) 0.2766(2) 0.37312(18)
C19 C 0.4950(5) 0.2227(3) 0.3473(2)
H21 H 0.5065 0.2393 0.3075
H22 H 0.4764 0.1624 0.3491
H23 H 0.5609 0.2329 0.3692
C20 C 0.3858(5) 0.2513(3) 0.4369(2)
H24 H 0.4556 0.2529 0.4563
H25 H 0.3561 0.1938 0.4392
H26 H 0.3364 0.2912 0.4553
C21 C 0.3488(4) 0.2548(3) 0.20655(19)
H27 H 0.2707 0.2663 0.2038
H28 H 0.3585 0.1964 0.2213
C22 C 0.3994(3) 0.2621(3) 0.1486(2)
C23 C 0.4337(4) 0.2637(3) 0.1016(2)
H29 H 0.4613 0.2650 0.0639
O7 O 0.7791(2) 0.4769(2) 0.05953(12)
O8 O 0.9108(2) 0.4151(2) -0.00260(10)
O9 O 0.93878(19) 0.42934(14) 0.17091(10)
O10 O 0.9855(2) 0.24751(18) 0.03425(12)
O11 O 1.0868(2) 0.3204(2) 0.20737(12)
H30 H 1.0547 0.3624 0.2210
O12 O 0.8713(2) 0.27914(17) 0.24496(11)
C24 C 0.8725(5) 0.5724(4) -0.0049(2)
H31 H 0.8694 0.6039 0.0315
H32 H 0.9481 0.5709 -0.0182
C25 C 0.8001(8) 0.6142(6) -0.0496(4)
H33 H 0.8122 0.6683 -0.0662
C26 C 0.7155(6) 0.5624(7) -0.0622(4)
H34 H 0.6496 0.5803 -0.0787
C27 C 0.7436(4) 0.4692(4) -0.0454(2)
H35 H 0.6791 0.4386 -0.0316
H36 H 0.7746 0.4380 -0.0782
C28 C 0.8274(4) 0.4800(4) 0.00274(19)
C29 C 0.7613(3) 0.3928(3) 0.08336(17)
H37 H 0.7167 0.3603 0.0554
C30 C 0.6952(3) 0.4001(3) 0.13912(18)
H38 H 0.6393 0.3554 0.1388
H39 H 0.6578 0.4556 0.1390
C31 C 0.7603(3) 0.3924(3) 0.19588(17)
H40 H 0.7102 0.3894 0.2292
C32 C 0.8271(3) 0.3095(3) 0.19132(16)
H41 H 0.7844 0.2638 0.1722
C33 C 0.9183(3) 0.3408(2) 0.15208(15)
C34 C 1.0330(3) 0.2932(2) 0.15592(16)
C35 C 1.1060(3) 0.3193(3) 0.10424(15)
H42 H 1.1391 0.3750 0.1126
H43 H 1.1648 0.2774 0.1005
C36 C 1.0456(3) 0.3253(3) 0.04656(16)
H44 H 1.0966 0.3389 0.0148
C37 C 0.9584(3) 0.3948(2) 0.05226(15)
H45 H 0.9859 0.4464 0.0723
C38 C 0.8747(3) 0.3458(2) 0.08838(15)
C39 C 0.8764(3) 0.2583(3) 0.05700(18)
H46 H 0.8589 0.2119 0.0839
H47 H 0.8230 0.2577 0.0257
C40 C 1.0239(4) 0.1948(3) 0.1598(2)
H48 H 1.0955 0.1704 0.1656
H49 H 0.9932 0.1727 0.1243
H50 H 0.9772 0.1795 0.1918
C41 C 0.8475(3) 0.4609(2) 0.20604(17)
C42 C 0.8184(5) 0.5520(3) 0.1853(2)
H51 H 0.8776 0.5908 0.1944
H52 H 0.7528 0.5712 0.2046
H53 H 0.8066 0.5514 0.1440
C43 C 0.8856(4) 0.4670(3) 0.26971(18)
H54 H 0.9094 0.4111 0.2828
H55 H 0.8258 0.4866 0.2936
H56 H 0.9454 0.5073 0.2725
C44 C 0.7891(5) 0.2430(3) 0.2819(2)
H57 H 0.7553 0.1928 0.2638
H58 H 0.7326 0.2853 0.2905
C45 C 0.8619(11) 0.1393(13) 0.3221(5)
H59 H 0.8560 0.0894 0.2997
C46 C 0.8703(14) 0.2095(9) 0.3536(10)
loop_
_geom_bond_atom_site_label_1
_geom_bond_atom_site_label_2
_geom_bond_site_symmetry_1
_geom_bond_site_symmetry_2
O1 C5 1_555 1_555
O2 C5 1_555 1_555
O3 C7 1_555 1_555
O4 C10 1_555 1_555
O5 C15 1_555 1_555
O6 H1 1_555 1_555
C1 H2 1_555 1_555
H3 C1 1_555 1_555
C2 C1 1_555 1_555
H4 C2 1_555 1_555
C3 C2 1_555 1_555
H5 C3 1_555 1_555
C4 C3 1_555 1_555
H6 C4 1_555 1_555
C5 C1 1_555 1_555
C6 O1 1_555 1_555
H7 C6 1_555 1_555
C7 C6 1_555 1_555
H8 C7 1_555 1_555
C8 C7 1_555 1_555
H9 C8 1_555 1_555
H10 C8 1_555 1_555
C9 O6 1_555 1_555
C10 C9 1_555 1_555
C11 C6 1_555 1_555
C12 O2 1_555 1_555
H11 C12 1_555 1_555
C13 C12 1_555 1_555
H12 C13 1_555 1_555
H13 C13 1_555 1_555
C14 C13 1_555 1_555
H14 C14 1_555 1_555
C15 C10 1_555 1_555
H15 C15 1_555 1_555
C16 O3 1_555 1_555
H16 C16 1_555 1_555
H17 C16 1_555 1_555
C17 C9 1_555 1_555
H18 C17 1_555 1_555
H19 C17 1_555 1_555
H20 C17 1_555 1_555
C18 O4 1_555 1_555
C19 C18 1_555 1_555
H21 C19 1_555 1_555
H22 C19 1_555 1_555
H23 C19 1_555 1_555
C20 C18 1_555 1_555
H24 C20 1_555 1_555
H25 C20 1_555 1_555
H26 C20 1_555 1_555
C21 O5 1_555 1_555
H27 C21 1_555 1_555
H28 C21 1_555 1_555
C22 C21 1_555 1_555
C23 C22 1_555 1_555
H29 C23 1_555 1_555
O7 C28 1_555 1_555
O8 C28 1_555 1_555
O9 C33 1_555 1_555
O10 C36 1_555 1_555
O11 H30 1_555 1_555
O12 C32 1_555 1_555
C24 H31 1_555 1_555
H32 C24 1_555 1_555
C25 C24 1_555 1_555
H33 C25 1_555 1_555
C26 C25 1_555 1_555
H34 C26 1_555 1_555
C27 C26 1_555 1_555
H35 C27 1_555 1_555
H36 C27 1_555 1_555
C28 C24 1_555 1_555
C29 O7 1_555 1_555
H37 C29 1_555 1_555
C30 C29 1_555 1_555
H38 C30 1_555 1_555
H39 C30 1_555 1_555
C31 C30 1_555 1_555
H40 C31 1_555 1_555
C32 C31 1_555 1_555
H41 C32 1_555 1_555
C33 C32 1_555 1_555
C34 O11 1_555 1_555
C35 C34 1_555 1_555
H42 C35 1_555 1_555
H43 C35 1_555 1_555
C36 C35 1_555 1_555
H44 C36 1_555 1_555
C37 O8 1_555 1_555
H45 C37 1_555 1_555
C38 C29 1_555 1_555
C39 O10 1_555 1_555
H46 C39 1_555 1_555
H47 C39 1_555 1_555
C40 C34 1_555 1_555
H48 C40 1_555 1_555
H49 C40 1_555 1_555
H50 C40 1_555 1_555
C41 O9 1_555 1_555
C42 C41 1_555 1_555
H51 C42 1_555 1_555
H52 C42 1_555 1_555
H53 C42 1_555 1_555
C43 C41 1_555 1_555
H54 C43 1_555 1_555
H55 C43 1_555 1_555
H56 C43 1_555 1_555
C44 O12 1_555 1_555
H57 C44 1_555 1_555
H58 C44 1_555 1_555
C45 H59 1_555 1_555
C46 C44 1_555 1_555
C4 C5 1_555 1_555
C8 C9 1_555 1_555
C10 C11 1_555 1_555
C11 C12 1_555 1_555
C11 C16 1_555 1_555
C14 C15 1_555 1_555
C14 C18 1_555 1_555
C27 C28 1_555 1_555
C31 C41 1_555 1_555
C33 C34 1_555 1_555
C33 C38 1_555 1_555
C36 C37 1_555 1_555
C37 C38 1_555 1_555
C38 C39 1_555 1_555
C45 C46 1_555 1_555

#END
