
#######################################################################
#
#                 Cambridge Crystallographic Data Centre
#                                CCDC 
#
#######################################################################
#
# If this CIF has been generated from an entry in the Cambridge 
# Structural Database, then it will include bibliographic, chemical, 
# crystal, experimental, refinement or atomic coordinate data resulting 
# from the CCDC's data processing and validation procedures.
#
#######################################################################

data_EQEZAD
_chemical_formula_moiety         'C12 H16 N6,H2 O1'
_chemical_name_systematic        
"N,N'-ethane-1,2-diylbis(1-(1-methyl-1H-imidazol-2-yl)methanimine) monohydrate"
_symmetry_cell_setting           monoclinic
_symmetry_space_group_name_H-M   'C 2/c'
_symmetry_Int_Tables_number      15
_space_group_name_Hall           '-C 2yn'
loop_
_symmetry_equiv_pos_site_id
_symmetry_equiv_pos_as_xyz
1 x,y,z
2 -x,y,1/2-z
3 1/2+x,1/2+y,z
4 1/2-x,1/2+y,1/2-z
5 -x,-y,-z
6 x,-y,1/2+z
7 1/2-x,1/2-y,-z
8 1/2+x,1/2-y,1/2+z
_cell_length_a                   9.37814(17)
_cell_length_b                   12.2120(2)
_cell_length_c                   11.9164(2)
_cell_angle_alpha                90
_cell_angle_beta                 95.9045(16)
_cell_angle_gamma                90
_cell_volume                     1357.5
_exptl_crystal_colour            colorless
_exptl_crystal_description       prism
_cell_formula_units_Z            4
loop_
_atom_site_label
_atom_site_type_symbol
_atom_site_fract_x
_atom_site_fract_y
_atom_site_fract_z
N1 N 0.29008(7) 0.20763(6) 0.63489(5)
N2 N 0.32230(8) 0.02775(6) 0.61997(6)
N3 N 0.59637(7) 0.22840(6) 0.58451(6)
C1 C 0.38435(8) 0.12596(6) 0.61701(6)
C2 C 0.16194(9) 0.15857(7) 0.65005(7)
H1 H 0.0805(13) 0.2027(10) 0.6642(10)
C3 C 0.18340(9) 0.04824(7) 0.64031(7)
H2 H 0.1143(14) -0.0113(11) 0.6440(11)
C4 C 0.31676(9) 0.32543(7) 0.64362(7)
H3 H 0.3669 0.3489 0.5816
H4 H 0.3738 0.3411 0.7133
H5 H 0.2271 0.3636 0.6416
C5 C 0.53361(9) 0.13730(7) 0.59397(7)
H6 H 0.5828(13) 0.0672(10) 0.5847(10)
C6 C 0.74470(9) 0.22305(7) 0.55727(7)
H7 H 0.8046(12) 0.2640(10) 0.6150(10)
H8 H 0.7812(13) 0.1453(10) 0.5559(10)
N1F N 1.20992(7) 0.29237(6) 0.36511(5)
N2F N 1.17770(8) 0.47225(6) 0.38003(6)
N3F N 0.90363(7) 0.27160(6) 0.41549(6)
C1F C 1.11565(8) 0.37404(6) 0.38299(6)
C2F C 1.33806(9) 0.34143(7) 0.34995(7)
H1F H 1.4195(13) 0.2973(10) 0.3358(10)
C3F C 1.31660(9) 0.45176(7) 0.35969(7)
H2F H 1.3857(14) 0.5113(11) 0.3560(11)
C4F C 1.18324(9) 0.17457(7) 0.35638(7)
H3F H 1.1331 0.1511 0.4184
H4F H 1.1262 0.1589 0.2867
H5F H 1.2729 0.1364 0.3584
C5F C 0.96639(9) 0.36270(7) 0.40603(7)
H6F H 0.9172(13) 0.4328(10) 0.4153(10)
C6F C 0.75530(9) 0.27695(7) 0.44273(7)
H7F H 0.6954(12) 0.2360(10) 0.3850(10)
H8F H 0.7188(13) 0.3547(10) 0.4441(10)
O1 O 0.5000 0.12922(7) 0.2500
H9 H 0.4461(16) 0.0851(13) 0.2044(12)
H9A H 0.5539(16) 0.0851(13) 0.2956(12)
loop_
_geom_bond_atom_site_label_1
_geom_bond_atom_site_label_2
_geom_bond_site_symmetry_1
_geom_bond_site_symmetry_2
N1 C1 1_555 1_555
N2 C1 1_555 1_555
N3 C5 1_555 1_555
C1 C5 1_555 1_555
C2 N1 1_555 1_555
H1 C2 1_555 1_555
C3 N2 1_555 1_555
H2 C3 1_555 1_555
C4 N1 1_555 1_555
H3 C4 1_555 1_555
H4 C4 1_555 1_555
H5 C4 1_555 1_555
C5 H6 1_555 1_555
C6 N3 1_555 1_555
H7 C6 1_555 1_555
H8 C6 1_555 1_555
O1 H9 1_555 1_555
N1F C1F 1_555 1_555
N2F C1F 1_555 1_555
N3F C5F 1_555 1_555
C1F C5F 1_555 1_555
C2F N1F 1_555 1_555
H1F C2F 1_555 1_555
C3F N2F 1_555 1_555
H2F C3F 1_555 1_555
C4F N1F 1_555 1_555
H3F C4F 1_555 1_555
H4F C4F 1_555 1_555
H5F C4F 1_555 1_555
C5F H6F 1_555 1_555
C6F C6 1_555 1_555
H7F C6F 1_555 1_555
H8F C6F 1_555 1_555
H9A O1 1_555 1_555
C2 C3 1_555 1_555
N3F C6F 1_555 1_555
C2F C3F 1_555 1_555

#END
