
#######################################################################
#
#                 Cambridge Crystallographic Data Centre
#                                CCDC 
#
#######################################################################
#
# If this CIF has been generated from an entry in the Cambridge 
# Structural Database, then it will include bibliographic, chemical, 
# crystal, experimental, refinement or atomic coordinate data resulting 
# from the CCDC's data processing and validation procedures.
#
#######################################################################

data_EQIDEP
_chemical_formula_moiety         'C14 H22 O5'
_chemical_name_systematic        
7,8-dimethoxy-3,3,11-trimethyl-1,5-dioxaspiro[5.5]undec-7-en-9-one
_symmetry_cell_setting           monoclinic
_symmetry_space_group_name_H-M   'P 21'
_symmetry_Int_Tables_number      4
_space_group_name_Hall           'P 2yb'
loop_
_symmetry_equiv_pos_site_id
_symmetry_equiv_pos_as_xyz
1 x,y,z
2 -x,1/2+y,-z
_cell_length_a                   5.9867(7)
_cell_length_b                   13.6517(15)
_cell_length_c                   8.5379(9)
_cell_angle_alpha                90
_cell_angle_beta                 97.160(6)
_cell_angle_gamma                90
_cell_volume                     692.349
_exptl_crystal_colour            colorless
_exptl_crystal_description       Block
_cell_formula_units_Z            2
loop_
_atom_site_label
_atom_site_type_symbol
_atom_site_fract_x
_atom_site_fract_y
_atom_site_fract_z
O1 O 0.8990(2) 0.46601(10) 0.64108(15)
O2 O 0.5285(2) 0.43903(10) 0.51997(14)
O3 O 0.6719(2) 0.63022(10) 0.68953(16)
O4 O 0.3845(2) 0.62352(10) 0.93925(16)
O5 O 0.2507(3) 0.44139(13) 1.01948(16)
C1 C 0.6697(3) 0.45730(15) 0.6633(2)
C2 C 0.5859(3) 0.54844(15) 0.7457(2)
C3 C 0.4455(3) 0.54183(15) 0.8584(2)
C4 C 0.3624(3) 0.44677(16) 0.9089(2)
C5 C 0.4233(4) 0.35809(15) 0.8193(2)
H1 H 0.3107 0.3493 0.7251
H2 H 0.4176 0.2994 0.8869
C6 C 0.6579(3) 0.36604(15) 0.7668(2)
H3 H 0.7690 0.3745 0.8635
C7 C 0.7185(4) 0.27282(14) 0.6841(3)
H4 H 0.6097 0.2620 0.5901
H5 H 0.7151 0.2171 0.7561
H6 H 0.8699 0.2793 0.6528
C8 C 0.6210(4) 0.72714(16) 0.7386(3)
H7 H 0.6900 0.7751 0.6740
H8 H 0.6807 0.7361 0.8498
H9 H 0.4574 0.7365 0.7254
C9 C 0.1521(3) 0.64970(16) 0.8975(2)
H10 H 0.1274 0.6695 0.7863
H11 H 0.1139 0.7042 0.9639
H12 H 0.0565 0.5932 0.9137
C10 C 0.9553(3) 0.52319(13) 0.5090(2)
H13 H 1.1135 0.5097 0.4933
H14 H 0.9434 0.5936 0.5341
C11 C 0.8032(3) 0.50117(14) 0.3557(2)
C12 C 0.5603(3) 0.50491(14) 0.3928(2)
H15 H 0.5233 0.5725 0.4227
H16 H 0.4571 0.4866 0.2976
C13 C 0.8377(4) 0.58030(16) 0.2344(2)
H17 H 0.7366 0.5681 0.1370
H18 H 0.9942 0.5789 0.2117
H19 H 0.8045 0.6447 0.2767
C14 C 0.8578(4) 0.40066(15) 0.2913(2)
H20 H 0.8486 0.3509 0.3729
H21 H 1.0104 0.4015 0.2608
H22 H 0.7496 0.3852 0.1988
loop_
_geom_bond_atom_site_label_1
_geom_bond_atom_site_label_2
_geom_bond_site_symmetry_1
_geom_bond_site_symmetry_2
O1 C1 1_555 1_555
O2 C1 1_555 1_555
O3 C2 1_555 1_555
O4 C3 1_555 1_555
O5 C4 1_555 1_555
C1 C2 1_555 1_555
C2 C3 1_555 1_555
C3 C4 1_555 1_555
C4 C5 1_555 1_555
C5 H1 1_555 1_555
H2 C5 1_555 1_555
C6 C1 1_555 1_555
H3 C6 1_555 1_555
C7 C6 1_555 1_555
H4 C7 1_555 1_555
H5 C7 1_555 1_555
H6 C7 1_555 1_555
C8 O3 1_555 1_555
H7 C8 1_555 1_555
H8 C8 1_555 1_555
H9 C8 1_555 1_555
C9 O4 1_555 1_555
H10 C9 1_555 1_555
H11 C9 1_555 1_555
H12 C9 1_555 1_555
C10 O1 1_555 1_555
H13 C10 1_555 1_555
H14 C10 1_555 1_555
C11 C10 1_555 1_555
C12 O2 1_555 1_555
H15 C12 1_555 1_555
H16 C12 1_555 1_555
C13 C11 1_555 1_555
H17 C13 1_555 1_555
H18 C13 1_555 1_555
H19 C13 1_555 1_555
C14 C11 1_555 1_555
H20 C14 1_555 1_555
H21 C14 1_555 1_555
H22 C14 1_555 1_555
C5 C6 1_555 1_555
C11 C12 1_555 1_555

#END
