
#######################################################################
#
#                 Cambridge Crystallographic Data Centre
#                                CCDC 
#
#######################################################################
#
# If this CIF has been generated from an entry in the Cambridge 
# Structural Database, then it will include bibliographic, chemical, 
# crystal, experimental, refinement or atomic coordinate data resulting 
# from the CCDC's data processing and validation procedures.
#
#######################################################################

data_EQUBOJ
_chemical_compound_source        
'fermentation broth of an Antarctic moss-derived fungus, Penicillium funiculosum GWT2-24'
_chemical_name_common            'Penipyridone A'
_chemical_formula_moiety         'C13 H12 N2 O3'
_chemical_name_systematic        
(S)-6-(hydroxy(phenyl)methyl)-4-oxo-1,4-dihydropyridine-3-carboxamide
_symmetry_cell_setting           orthorhombic
_symmetry_space_group_name_H-M   'P 21 21 21'
_symmetry_Int_Tables_number      19
_space_group_name_Hall           'P 2ac 2ab'
loop_
_symmetry_equiv_pos_site_id
_symmetry_equiv_pos_as_xyz
1 x,y,z
2 1/2-x,-y,1/2+z
3 1/2+x,1/2-y,-z
4 -x,1/2+y,1/2-z
_cell_length_a                   6.52010(10)
_cell_length_b                   7.23180(10)
_cell_length_c                   24.7168(4)
_cell_angle_alpha                90
_cell_angle_beta                 90
_cell_angle_gamma                90
_cell_volume                     1165.45
_exptl_crystal_colour            colorless
_exptl_crystal_description       block
_chemical_melting_point          '262-264 deg.C'
_cell_formula_units_Z            4
loop_
_atom_site_label
_atom_site_type_symbol
_atom_site_fract_x
_atom_site_fract_y
_atom_site_fract_z
O1 O 0.9675(2) -0.62038(19) 0.02496(6)
O2 O 1.41273(19) -0.22787(19) 0.07333(6)
O3 O 0.6864(3) 0.2421(2) 0.10662(6)
H1 H 0.7221 0.2752 0.0763
N1 N 0.8058(2) -0.1258(2) 0.09115(6)
H2 H 0.6769 -0.1050 0.0954
C1 C 1.0676(2) -0.3299(2) 0.06165(6)
C2 C 0.8584(3) 0.1738(2) 0.13521(7)
H3 H 0.9646 0.2697 0.1360
C3 C 1.1467(3) -0.0277(2) 0.09988(7)
H4 H 1.2397 0.0644 0.1093
C4 C 0.7950(3) 0.1294(2) 0.19273(7)
C5 C 0.9443(3) 0.0033(2) 0.10746(6)
C6 C 0.8667(3) -0.2850(2) 0.06851(7)
H5 H 0.7673 -0.3684 0.0570
C7 C 1.1103(3) -0.5158(2) 0.03804(7)
N2 N 1.3061(3) -0.5610(2) 0.03335(7)
H6 H 1.3399 -0.6675 0.0207
H7 H 1.3997 -0.4838 0.0430
C8 C 1.2232(2) -0.1980(2) 0.07772(6)
C9 C 0.6056(4) 0.0521(3) 0.20454(9)
H8 H 0.5141 0.0261 0.1767
C10 C 0.9306(4) 0.1633(3) 0.23482(9)
H9 H 1.0593 0.2129 0.2276
C11 C 0.5519(4) 0.0134(4) 0.25757(11)
H10 H 0.4243 -0.0377 0.2652
C12 C 0.8748(5) 0.1236(4) 0.28761(9)
H11 H 0.9664 0.1472 0.3156
C13 C 0.6869(5) 0.0503(3) 0.29895(9)
H12 H 0.6502 0.0254 0.3346
loop_
_geom_bond_atom_site_label_1
_geom_bond_atom_site_label_2
_geom_bond_site_symmetry_1
_geom_bond_site_symmetry_2
O1 C7 1_555 1_555
O2 C8 1_555 1_555
O3 H1 1_555 1_555
N1 H2 1_555 1_555
C1 C6 1_555 1_555
C2 O3 1_555 1_555
H3 C2 1_555 1_555
C3 H4 1_555 1_555
C4 C2 1_555 1_555
C5 N1 1_555 1_555
C6 N1 1_555 1_555
H5 C6 1_555 1_555
C7 C1 1_555 1_555
N2 C7 1_555 1_555
H6 N2 1_555 1_555
H7 N2 1_555 1_555
C8 C1 1_555 1_555
C9 C4 1_555 1_555
H8 C9 1_555 1_555
C10 C4 1_555 1_555
H9 C10 1_555 1_555
C11 C9 1_555 1_555
H10 C11 1_555 1_555
C12 C10 1_555 1_555
H11 C12 1_555 1_555
C13 C11 1_555 1_555
H12 C13 1_555 1_555
C2 C5 1_555 1_555
C3 C5 1_555 1_555
C3 C8 1_555 1_555
C12 C13 1_555 1_555

#END
