
#######################################################################
#
#                 Cambridge Crystallographic Data Centre
#                                CCDC 
#
#######################################################################
#
# If this CIF has been generated from an entry in the Cambridge 
# Structural Database, then it will include bibliographic, chemical, 
# crystal, experimental, refinement or atomic coordinate data resulting 
# from the CCDC's data processing and validation procedures.
#
#######################################################################

data_EQUCAW
_chemical_formula_moiety         'C42 H40 B1 N1'
_chemical_name_systematic        
2'-(dimesitylboryl)-N,N-diphenylbiphenyl-2-amine
_symmetry_cell_setting           monoclinic
_symmetry_space_group_name_H-M   'P 21/n'
_symmetry_Int_Tables_number      14
_space_group_name_Hall           '-P 2yn'
loop_
_symmetry_equiv_pos_site_id
_symmetry_equiv_pos_as_xyz
1 x,y,z
2 1/2-x,1/2+y,1/2-z
3 -x,-y,-z
4 1/2+x,1/2-y,1/2+z
_cell_length_a                   10.788(10)
_cell_length_b                   23.33(2)
_cell_length_c                   13.186(12)
_cell_angle_alpha                90
_cell_angle_beta                 97.821(9)
_cell_angle_gamma                90
_cell_volume                     3287.84
_exptl_crystal_description       block
_cell_formula_units_Z            4
loop_
_atom_site_label
_atom_site_type_symbol
_atom_site_fract_x
_atom_site_fract_y
_atom_site_fract_z
B1 B 0.3130(2) 0.39286(12) 0.6337(2)
C1 C 0.1892(3) 0.54788(11) 0.88188(18)
C2 C 0.0879(3) 0.58358(12) 0.8791(2)
H1 H 0.0077 0.5684 0.8755
C3 C 0.1058(4) 0.64234(13) 0.8816(2)
H2 H 0.0372 0.6667 0.8787
C4 C 0.2230(4) 0.66450(15) 0.8885(2)
H3 H 0.2346 0.7040 0.8907
C5 C 0.3239(4) 0.62887(15) 0.8920(2)
H4 H 0.4041 0.6442 0.8971
C6 C 0.3077(3) 0.57050(12) 0.8880(2)
H5 H 0.3765 0.5464 0.8894
C7 C 0.2109(2) 0.45520(11) 0.9685(2)
C8 C 0.2695(3) 0.48042(13) 1.0566(2)
H6 H 0.2793 0.5200 1.0590
C9 C 0.3136(3) 0.44833(17) 1.1405(3)
H7 H 0.3539 0.4666 1.1985
C10 C 0.3000(4) 0.39053(19) 1.1412(3)
H8 H 0.3311 0.3691 1.1984
C11 C 0.2392(4) 0.36479(14) 1.0556(3)
H9 H 0.2275 0.3253 1.0553
C12 C 0.1951(3) 0.39606(13) 0.9698(2)
H10 H 0.1543 0.3775 0.9123
C13 C 0.0763(2) 0.46583(10) 0.8026(2)
C14 C -0.0339(3) 0.44506(13) 0.8315(2)
H11 H -0.0440 0.4442 0.9004
C15 C -0.1279(3) 0.42592(14) 0.7597(3)
H12 H -0.2012 0.4117 0.7802
C16 C -0.1153(3) 0.42747(13) 0.6584(3)
H13 H -0.1793 0.4142 0.6098
C17 C -0.0075(2) 0.44882(11) 0.6287(2)
H14 H -0.0002 0.4506 0.5593
C18 C 0.0906(2) 0.46781(10) 0.69897(19)
C19 C 0.2045(2) 0.49259(10) 0.66232(17)
C20 C 0.2062(3) 0.55119(11) 0.6460(2)
H15 H 0.1367 0.5730 0.6561
C21 C 0.3080(3) 0.57778(12) 0.6153(2)
H16 H 0.3060 0.6169 0.6021
C22 C 0.4118(3) 0.54692(12) 0.6043(2)
H17 H 0.4824 0.5651 0.5866
C23 C 0.4123(2) 0.48880(12) 0.6194(2)
H18 H 0.4845 0.4683 0.6123
C24 C 0.3085(2) 0.45935(10) 0.64502(17)
C25 C 0.4510(3) 0.40969(14) 0.8468(2)
H19 H 0.4765 0.3966 0.9155
H20 H 0.3613 0.4111 0.8336
H21 H 0.4844 0.4473 0.8387
C26 C 0.7803(3) 0.27011(16) 0.7892(3)
H22 H 0.8232 0.2910 0.8463
H23 H 0.8331 0.2672 0.7364
H24 H 0.7602 0.2324 0.8111
C27 C 0.4400(3) 0.30671(13) 0.5038(2)
H25 H 0.4927 0.2793 0.4762
H26 H 0.4354 0.3410 0.4633
H27 H 0.3576 0.2909 0.5026
C28 C 0.4933(2) 0.32056(10) 0.6116(2)
C29 C 0.6036(3) 0.29324(12) 0.6502(2)
H28 H 0.6400 0.2684 0.6077
C30 C 0.6612(3) 0.30124(12) 0.7481(3)
C31 C 0.6075(2) 0.33922(12) 0.8088(2)
H29 H 0.6448 0.3450 0.8758
C32 C 0.4992(2) 0.36930(11) 0.7729(2)
C33 C 0.4379(2) 0.35989(10) 0.67299(19)
C34 C 0.1664(3) 0.30418(12) 0.7293(2)
H30 H 0.1116 0.3249 0.7676
H31 H 0.2515 0.3150 0.7521
H32 H 0.1566 0.2638 0.7396
C35 C -0.1098(3) 0.26841(14) 0.4014(3)
H33 H -0.1042 0.2285 0.4191
H34 H -0.1054 0.2728 0.3296
H35 H -0.1878 0.2836 0.4169
C36 C 0.2150(3) 0.42035(13) 0.4126(2)
H36 H 0.1753 0.4215 0.3429
H37 H 0.3026 0.4126 0.4140
H38 H 0.2043 0.4566 0.4447
C37 C 0.0589(2) 0.34273(12) 0.4164(2)
H39 H 0.0344 0.3508 0.3475
C38 C 0.1564(2) 0.37378(11) 0.46935(19)
C39 C 0.1982(2) 0.36073(10) 0.57185(18)
C40 C 0.1347(2) 0.31784(10) 0.61843(19)
C41 C 0.0354(2) 0.28910(11) 0.5629(2)
H40 H -0.0064 0.2612 0.5955
C42 C -0.0030(2) 0.30043(12) 0.4621(2)
N1 N 0.17241(19) 0.48705(9) 0.87937(16)
loop_
_geom_bond_atom_site_label_1
_geom_bond_atom_site_label_2
_geom_bond_site_symmetry_1
_geom_bond_site_symmetry_2
B1 C24 1_555 1_555
C1 C2 1_555 1_555
C2 H1 1_555 1_555
C3 C2 1_555 1_555
H2 C3 1_555 1_555
C4 C3 1_555 1_555
H3 C4 1_555 1_555
C5 C4 1_555 1_555
H4 C5 1_555 1_555
C6 C1 1_555 1_555
H5 C6 1_555 1_555
C7 C8 1_555 1_555
C8 H6 1_555 1_555
C9 C8 1_555 1_555
H7 C9 1_555 1_555
C10 C9 1_555 1_555
H8 C10 1_555 1_555
C11 C10 1_555 1_555
H9 C11 1_555 1_555
C12 C7 1_555 1_555
H10 C12 1_555 1_555
C13 C14 1_555 1_555
C14 H11 1_555 1_555
C15 C14 1_555 1_555
H12 C15 1_555 1_555
C16 C15 1_555 1_555
H13 C16 1_555 1_555
C17 C16 1_555 1_555
H14 C17 1_555 1_555
C18 C13 1_555 1_555
C19 C18 1_555 1_555
C20 C19 1_555 1_555
H15 C20 1_555 1_555
C21 C20 1_555 1_555
H16 C21 1_555 1_555
C22 C21 1_555 1_555
H17 C22 1_555 1_555
C23 C22 1_555 1_555
H18 C23 1_555 1_555
C24 C19 1_555 1_555
C25 H19 1_555 1_555
H20 C25 1_555 1_555
H21 C25 1_555 1_555
C26 H22 1_555 1_555
H23 C26 1_555 1_555
H24 C26 1_555 1_555
C27 H25 1_555 1_555
H26 C27 1_555 1_555
H27 C27 1_555 1_555
C28 C27 1_555 1_555
C29 C28 1_555 1_555
H28 C29 1_555 1_555
C30 C26 1_555 1_555
C31 C30 1_555 1_555
H29 C31 1_555 1_555
C32 C25 1_555 1_555
C33 B1 1_555 1_555
C34 H30 1_555 1_555
H31 C34 1_555 1_555
H32 C34 1_555 1_555
C35 H33 1_555 1_555
H34 C35 1_555 1_555
H35 C35 1_555 1_555
C36 H36 1_555 1_555
H37 C36 1_555 1_555
H38 C36 1_555 1_555
C37 H39 1_555 1_555
C38 C36 1_555 1_555
C39 B1 1_555 1_555
C40 C34 1_555 1_555
C41 C40 1_555 1_555
H40 C41 1_555 1_555
C42 C35 1_555 1_555
N1 C1 1_555 1_555
C5 C6 1_555 1_555
C7 N1 1_555 1_555
C11 C12 1_555 1_555
C13 N1 1_555 1_555
C17 C18 1_555 1_555
C23 C24 1_555 1_555
C28 C33 1_555 1_555
C29 C30 1_555 1_555
C31 C32 1_555 1_555
C32 C33 1_555 1_555
C37 C38 1_555 1_555
C37 C42 1_555 1_555
C38 C39 1_555 1_555
C39 C40 1_555 1_555
C41 C42 1_555 1_555

#END
