
#######################################################################
#
#                 Cambridge Crystallographic Data Centre
#                                CCDC 
#
#######################################################################
#
# If this CIF has been generated from an entry in the Cambridge 
# Structural Database, then it will include bibliographic, chemical, 
# crystal, experimental, refinement or atomic coordinate data resulting 
# from the CCDC's data processing and validation procedures.
#
#######################################################################

data_EQUHAB
_chemical_formula_moiety         'C48 H76 N12 8+,8(Cl1 1-),4(H2 O1)'
_chemical_name_systematic        
'57,58,59,60-tetraaza-3,9,17,23,31,37,45,51-octaazonianonacyclo[51.3.1.1^11,15^.1^25,29^.1^39,43^.0^4,8^.0^18,22^.0^32,36^.0^46,50^]hexaconta-1(57),11(60),12,14,25(59),26,28,39(58),40,42,53,55-dodecaene octachloride tetrahydrate'
_symmetry_cell_setting           triclinic
_symmetry_space_group_name_H-M   'P -1'
_symmetry_Int_Tables_number      2
_space_group_name_Hall           '-P 1'
loop_
_symmetry_equiv_pos_site_id
_symmetry_equiv_pos_as_xyz
1 x,y,z
2 -x,-y,-z
_cell_length_a                   12.688(3)
_cell_length_b                   12.980(4)
_cell_length_c                   20.266(6)
_cell_angle_alpha                78.23(3)
_cell_angle_beta                 83.88(3)
_cell_angle_gamma                66.76(3)
_cell_volume                     3001.05
_exptl_crystal_colour            colorless
_exptl_crystal_description       block
_cell_formula_units_Z            2
loop_
_atom_site_label
_atom_site_type_symbol
_atom_site_fract_x
_atom_site_fract_y
_atom_site_fract_z
Cl1 Cl 0.83125(12) 0.80265(14) 0.73934(8)
Cl2 Cl 0.63502(10) 0.62464(10) 0.84117(6)
Cl3 Cl 0.67497(11) 0.43337(12) 0.72665(6)
Cl4 Cl 0.82252(12) 0.48968(13) 0.48347(6)
Cl5 Cl 0.43362(10) 0.27099(11) 0.81684(6)
Cl6 Cl 0.81545(13) 0.4428(2) 1.00945(7)
Cl7 Cl 0.7870(5) 1.0499(3) 0.85932(16)
O1 O 1.0959(16) 0.8490(15) 0.9142(10)
O2 O 0.3961(6) 0.9621(5) 0.5261(4)
Cl8 Cl 0.6082(3) 0.2464(3) 0.44942(13)
N1 N 0.5272(4) 0.8898(4) 0.7684(2)
N2 N 0.4908(3) 0.4655(3) 0.85370(19)
H1 H 0.5393 0.4838 0.8214
H2 H 0.4694 0.4145 0.8397
N3 N 0.7635(3) 0.3602(3) 0.88457(18)
H3 H 0.7363 0.4257 0.8539
H4 H 0.7835 0.3773 0.9215
N4 N 0.9336(3) 0.4288(3) 0.85365(18)
N5 N 0.8615(3) 0.6311(3) 0.8902(2)
H5 H 0.8481 0.5775 0.9226
H6 H 0.8153 0.6459 0.8552
N6 N 0.6691(5) 0.9013(4) 0.8584(2)
H7 H 0.7124 0.9435 0.8566
H8 H 0.6872 0.8686 0.8209
N7 N 0.6487(4) 0.7290(4) 0.6897(2)
H9 H 0.6811 0.7776 0.6955
H10 H 0.6586 0.6760 0.7280
N8 N 0.8702(4) 0.4829(5) 0.6308(4)
H11 H 0.8262 0.4482 0.6567
H12 H 0.8536 0.4909 0.5869
N9 N 0.9212(6) 0.2573(5) 0.6583(6)
N10 N 0.7225(7) 0.2291(5) 0.6516(3)
H13 H 0.7325 0.2436 0.6061
H14 H 0.7204 0.2902 0.6679
N11 N 0.4594(6) 0.4088(6) 0.6713(3)
H15 H 0.5138 0.4369 0.6742
H16 H 0.4431 0.3787 0.7139
N12 N 0.3591(6) 0.5569(8) 0.7495(3)
C1 C 0.7093(5) 0.6707(7) 0.6327(4)
H17 H 0.6727 0.6187 0.6251
C2 C 0.7037(9) 0.7585(10) 0.5677(4)
H18 H 0.6993 0.7275 0.5277
H19 H 0.6354 0.8296 0.5694
C3 C 0.7989(9) 0.7785(9) 0.5646(6)
H20 H 0.7850 0.8432 0.5875
H21 H 0.8198 0.8000 0.5168
C4 C 0.8993(6) 0.6731(7) 0.5979(5)
H22 H 0.9472 0.6953 0.6232
H23 H 0.9482 0.6287 0.5639
C5 C 0.8346(5) 0.6023(7) 0.6478(4)
H24 H 0.8497 0.5976 0.6960
C6 C 0.9935(6) 0.4057(7) 0.6404(6)
H25 H 1.0407 0.4295 0.6030
H26 H 1.0189 0.4132 0.6830
C7 C 1.0127(6) 0.2860(7) 0.6423(5)
C8 C 1.1159(7) 0.2050(9) 0.6295(6)
H27 H 1.1803 0.2256 0.6172
C9 C 1.1286(9) 0.0951(9) 0.6339(6)
H28 H 1.2019 0.0393 0.6256
C10 C 1.0323(10) 0.0628(7) 0.6509(6)
H29 H 1.0373 -0.0129 0.6539
C11 C 0.9328(8) 0.1505(6) 0.6624(5)
C12 C 0.8230(9) 0.1273(6) 0.6798(5)
H30 H 0.8287 0.0607 0.6609
H31 H 0.8129 0.1096 0.7294
C13 C 0.6093(8) 0.2175(7) 0.6674(3)
H32 H 0.5940 0.2113 0.7172
C14 C 0.6085(9) 0.1114(7) 0.6463(5)
H33 H 0.6491 0.0413 0.6785
H34 H 0.6423 0.1031 0.6004
C15 C 0.4752(9) 0.1412(8) 0.6486(5)
H35 H 0.4565 0.0981 0.6197
H36 H 0.4480 0.1219 0.6953
C16 C 0.4207(8) 0.2654(8) 0.6234(4)
H37 H 0.3490 0.2995 0.6496
H38 H 0.4018 0.2800 0.5753
C17 C 0.5074(7) 0.3174(8) 0.6317(3)
H39 H 0.5336 0.3474 0.5863
C18 C 0.3513(9) 0.5071(8) 0.6432(4)
H40 H 0.3711 0.5501 0.6009
H41 H 0.2961 0.4765 0.6326
C19 C 0.2979(8) 0.5839(9) 0.6919(3)
C20 C 0.1873(8) 0.6704(9) 0.6874(4)
H42 H 0.1444 0.6888 0.6480
C21 C 0.1425(8) 0.7268(9) 0.7387(5)
H43 H 0.0684 0.7861 0.7351
C22 C 0.2038(7) 0.6990(10) 0.7974(5)
H44 H 0.1721 0.7372 0.8345
C23 C 0.3131(8) 0.6131(10) 0.7995(4)
C24 C 0.3877(4) 0.5694(4) 0.8593(3)
H45 H 0.4123 0.6299 0.8662
H46 H 0.3418 0.5531 0.8998
C25 C 0.4748(6) 0.9439(5) 0.8196(3)
C26 C 0.3582(7) 0.9671(6) 0.8367(4)
H47 H 0.3225 1.0056 0.8732
C27 C 0.2976(8) 0.9337(8) 0.8005(6)
H48 H 0.2186 0.9496 0.8110
C28 C 0.3486(6) 0.8788(6) 0.7502(5)
H49 H 0.3065 0.8559 0.7241
C29 C 0.4655(5) 0.8551(5) 0.7360(3)
C30 C 0.5217(6) 0.7951(6) 0.6796(4)
H50 H 0.5103 0.8513 0.6372
H51 H 0.4853 0.7420 0.6752
C31 C 0.5550(4) 0.4092(4) 0.9182(2)
H52 H 0.5681 0.4672 0.9383
C32 C 0.4915(5) 0.3479(5) 0.9696(2)
H53 H 0.4660 0.3854 1.0096
H54 H 0.4234 0.3489 0.9493
C33 C 0.5765(5) 0.2269(6) 0.9891(4)
H55 H 0.5700 0.1994 1.0381
H56 H 0.5628 0.1755 0.9641
C34 C 0.6921(5) 0.2309(5) 0.9709(3)
H57 H 0.7497 0.1552 0.9645
H58 H 0.7185 0.2583 1.0056
C35 C 0.6692(4) 0.3161(4) 0.9046(2)
H59 H 0.6605 0.2789 0.8680
C36 C 0.8669(4) 0.2786(4) 0.8554(3)
H60 H 0.8468 0.2623 0.8139
H61 H 0.8960 0.2062 0.8880
C37 C 0.9592(4) 0.3264(4) 0.8389(2)
C38 C 1.0651(4) 0.2643(4) 0.8117(2)
H62 H 1.0801 0.1920 0.8005
C39 C 1.1486(4) 0.3109(4) 0.8011(2)
H63 H 1.2220 0.2705 0.7827
C40 C 1.1240(4) 0.4159(4) 0.8176(2)
H64 H 1.1801 0.4487 0.8113
C41 C 1.0153(4) 0.4729(4) 0.8438(2)
C42 C 0.9836(4) 0.5846(4) 0.8663(3)
H65 H 1.0339 0.5744 0.9032
H66 H 0.9967 0.6400 0.8282
C43 C 0.8311(4) 0.7379(4) 0.9182(3)
H67 H 0.8699 0.7855 0.8891
C44 C 0.8677(5) 0.7175(5) 0.9900(3)
H68 H 0.9111 0.6353 1.0060
H69 H 0.9170 0.7594 0.9929
C45 C 0.7670(9) 0.7571(8) 1.0287(5)
H70 H 0.7820 0.7819 1.0685
H71 H 0.7379 0.6955 1.0446
C46 C 0.6779(5) 0.8575(4) 0.9846(3)
H72 H 0.6928 0.9282 0.9790
H73 H 0.5986 0.8717 1.0024
C47 C 0.7022(5) 0.8085(4) 0.9190(3)
H74 H 0.6591 0.7580 0.9204
C48 C 0.5458(7) 0.9797(6) 0.8559(4)
H75 H 0.5145 0.9843 0.9026
H76 H 0.5403 1.0569 0.8337
O3 O 0.7945(5) 0.2539(4) 0.5176(2)
O4 O 0.8975(14) -0.0010(13) 0.5106(9)
O5 O 0.8784(13) 0.9607(13) 1.0585(8)
Cl9? Cl 0.8359(16) 0.371(2) 1.0242(11)
Cl10? Cl 0.8551(12) 1.0150(7) 0.8639(4)
O6? O 1.046(2) 0.970(2) 0.8470(13)
O7? O 0.9951(16) 0.9033(15) 0.7959(9)
Cl11? Cl 0.3702(14) 0.9762(16) 0.5420(10)
O8? O 0.3929(12) 1.0071(14) 0.5511(7)
Cl12? Cl 0.4190(5) 0.4801(5) 0.4506(3)
H77? H 0.6813 0.7747 0.7000
H78? H 0.6602 0.6691 0.7243
N13? N 0.8678(7) 0.5022(7) 0.6313(9)
H79? H 0.8226 0.4745 0.6613
H80? H 0.8551 0.4943 0.5896
N14? N 0.9387(8) 0.2691(8) 0.6594(15)
N15? N 0.7569(8) 0.2119(7) 0.6495(6)
H81? H 0.7688 0.2266 0.6040
H82? H 0.7438 0.2765 0.6655
N16? N 0.4888(8) 0.3648(9) 0.6750(4)
H83? H 0.5436 0.3848 0.6879
H84? H 0.4602 0.3322 0.7128
N17? N 0.3781(10) 0.5299(15) 0.7509(6)
C49? C 0.7012(6) 0.6875(9) 0.6263(3)
H85? H 0.6699 0.6321 0.6175
C50? C 0.6760(12) 0.7877(15) 0.5663(4)
H86? H 0.6087 0.7961 0.5420
H87? H 0.6599 0.8597 0.5824
C51? C 0.7689(15) 0.7635(16) 0.5262(7)
H88? H 0.7750 0.8352 0.5016
H89? H 0.7618 0.7213 0.4925
C52? C 0.8785(11) 0.6913(13) 0.5664(8)
H90? H 0.9146 0.7399 0.5783
H91? H 0.9349 0.6350 0.5408
C53? C 0.8301(6) 0.6297(8) 0.6325(5)
H92? H 0.8551 0.6417 0.6745
C54? C 0.9906(7) 0.4307(8) 0.6474(7)
H93? H 1.0406 0.4610 0.6156
H94? H 1.0046 0.4361 0.6935
C55? C 1.0214(7) 0.3108(8) 0.6434(7)
C56? C 1.1297(7) 0.2391(10) 0.6300(7)
H95? H 1.1875 0.2690 0.6161
C57? C 1.1569(9) 0.1256(9) 0.6360(7)
H96? H 1.2339 0.0765 0.6283
C58? C 1.0704(10) 0.0794(8) 0.6539(7)
H97? H 1.0859 0.0004 0.6593
C59? C 0.9637(9) 0.1593(8) 0.6626(7)
C60? C 0.8631(10) 0.1207(8) 0.6797(7)
H98? H 0.8798 0.0501 0.6619
H99? H 0.8520 0.1042 0.7292
C61? C 0.6518(9) 0.1843(7) 0.6631(4)
H100? H 0.6382 0.1688 0.7130
C62? C 0.6644(10) 0.0797(8) 0.6346(6)
H101? H 0.7113 0.0081 0.6636
H102? H 0.6982 0.0820 0.5882
C63? C 0.5349(11) 0.0946(10) 0.6357(7)
H103? H 0.5229 0.0566 0.6011
H104? H 0.5126 0.0604 0.6804
C64? C 0.4656(9) 0.2186(9) 0.6212(6)
H105? H 0.3976 0.2383 0.6522
H106? H 0.4390 0.2416 0.5743
C65? C 0.5431(8) 0.2799(8) 0.6313(4)
H107? H 0.5637 0.3175 0.5865
C66? C 0.3928(12) 0.4720(10) 0.6429(4)
H108? H 0.4262 0.5172 0.6082
H109? H 0.3415 0.4503 0.6200
C67? C 0.3251(9) 0.5428(12) 0.6921(4)
C68? C 0.2151(9) 0.6288(12) 0.6789(4)
H110? H 0.1780 0.6380 0.6386
C69? C 0.1637(9) 0.6974(11) 0.7238(5)
H111? H 0.0922 0.7589 0.7137
C70? C 0.2140(9) 0.6794(14) 0.7854(6)
H112? H 0.1749 0.7239 0.8189
C71? C 0.3233(10) 0.5942(16) 0.7963(6)
H113? H 0.4095 0.6335 0.8623
H114? H 0.3405 0.5562 0.8998
H115? H 0.9491 0.7072 0.9910
H116? H 0.8576 0.6490 1.0169
C72? C 0.7884(10) 0.8251(9) 1.0172(7)
H117? H 0.7796 0.8089 1.0669
H118? H 0.8186 0.8863 1.0044
H119? H 0.6391 0.9415 0.9744
H120? H 0.6269 0.8268 1.0153
O9? O 0.9899(18) -0.1018(18) 0.5861(11)
O10? O 1.035(2) -0.0592(19) 0.5358(12)
Cl13? Cl 0.9034(18) 0.9916(12) 0.8473(8)
loop_
_geom_bond_atom_site_label_1
_geom_bond_atom_site_label_2
_geom_bond_site_symmetry_1
_geom_bond_site_symmetry_2
N1 C25 1_555 1_555
N2 H1 1_555 1_555
H2 N2 1_555 1_555
N3 H3 1_555 1_555
H4 N3 1_555 1_555
N4 C37 1_555 1_555
N5 H5 1_555 1_555
H6 N5 1_555 1_555
N6 H7 1_555 1_555
H8 N6 1_555 1_555
N7 H9 1_555 1_555
H10 N7 1_555 1_555
N8 H11 1_555 1_555
H12 N8 1_555 1_555
N9 C7 1_555 1_555
N10 H13 1_555 1_555
H14 N10 1_555 1_555
N11 H15 1_555 1_555
H16 N11 1_555 1_555
N12 C19 1_555 1_555
C1 N7 1_555 1_555
H17 C1 1_555 1_555
C2 C1 1_555 1_555
H18 C2 1_555 1_555
H19 C2 1_555 1_555
C3 C2 1_555 1_555
H20 C3 1_555 1_555
H21 C3 1_555 1_555
C4 C3 1_555 1_555
H22 C4 1_555 1_555
H23 C4 1_555 1_555
C5 N8 1_555 1_555
H24 C5 1_555 1_555
C6 N8 1_555 1_555
H25 C6 1_555 1_555
H26 C6 1_555 1_555
C7 C6 1_555 1_555
C8 C7 1_555 1_555
H27 C8 1_555 1_555
C9 C8 1_555 1_555
H28 C9 1_555 1_555
C10 C9 1_555 1_555
H29 C10 1_555 1_555
C11 N9 1_555 1_555
C12 N10 1_555 1_555
H30 C12 1_555 1_555
H31 C12 1_555 1_555
C13 N10 1_555 1_555
H32 C13 1_555 1_555
C14 C13 1_555 1_555
H33 C14 1_555 1_555
H34 C14 1_555 1_555
C15 C14 1_555 1_555
H35 C15 1_555 1_555
H36 C15 1_555 1_555
C16 C15 1_555 1_555
H37 C16 1_555 1_555
H38 C16 1_555 1_555
C17 N11 1_555 1_555
H39 C17 1_555 1_555
C18 N11 1_555 1_555
H40 C18 1_555 1_555
H41 C18 1_555 1_555
C19 C18 1_555 1_555
C20 C19 1_555 1_555
H42 C20 1_555 1_555
C21 C20 1_555 1_555
H43 C21 1_555 1_555
C22 C21 1_555 1_555
H44 C22 1_555 1_555
C23 N12 1_555 1_555
C24 N2 1_555 1_555
H45 C24 1_555 1_555
H46 C24 1_555 1_555
C25 C26 1_555 1_555
C26 H47 1_555 1_555
C27 C26 1_555 1_555
H48 C27 1_555 1_555
C28 C27 1_555 1_555
H49 C28 1_555 1_555
C29 N1 1_555 1_555
C30 N7 1_555 1_555
H50 C30 1_555 1_555
H51 C30 1_555 1_555
C31 N2 1_555 1_555
H52 C31 1_555 1_555
C32 C31 1_555 1_555
H53 C32 1_555 1_555
H54 C32 1_555 1_555
C33 C32 1_555 1_555
H55 C33 1_555 1_555
H56 C33 1_555 1_555
C34 C33 1_555 1_555
H57 C34 1_555 1_555
H58 C34 1_555 1_555
C35 N3 1_555 1_555
H59 C35 1_555 1_555
C36 N3 1_555 1_555
H60 C36 1_555 1_555
H61 C36 1_555 1_555
C37 C36 1_555 1_555
C38 C37 1_555 1_555
H62 C38 1_555 1_555
C39 C38 1_555 1_555
H63 C39 1_555 1_555
C40 C39 1_555 1_555
H64 C40 1_555 1_555
C41 N4 1_555 1_555
C42 N5 1_555 1_555
H65 C42 1_555 1_555
H66 C42 1_555 1_555
C43 N5 1_555 1_555
H67 C43 1_555 1_555
C44 C43 1_555 1_555
H68 C44 1_555 1_555
H69 C44 1_555 1_555
C45 C44 1_555 1_555
H70 C45 1_555 1_555
H71 C45 1_555 1_555
C46 C45 1_555 1_555
H72 C46 1_555 1_555
H73 C46 1_555 1_555
C47 N6 1_555 1_555
H74 C47 1_555 1_555
C48 N6 1_555 1_555
H75 C48 1_555 1_555
H76 C48 1_555 1_555
C1 C5 1_555 1_555
C4 C5 1_555 1_555
C10 C11 1_555 1_555
C11 C12 1_555 1_555
C13 C17 1_555 1_555
C16 C17 1_555 1_555
C22 C23 1_555 1_555
C23 C24 1_555 1_555
C25 C48 1_555 1_555
C28 C29 1_555 1_555
C29 C30 1_555 1_555
C31 C35 1_555 1_555
C34 C35 1_555 1_555
C40 C41 1_555 1_555
C41 C42 1_555 1_555
C43 C47 1_555 1_555
C46 C47 1_555 1_555

#END
