
#######################################################################
#
#                 Cambridge Crystallographic Data Centre
#                                CCDC 
#
#######################################################################
#
# If this CIF has been generated from an entry in the Cambridge 
# Structural Database, then it will include bibliographic, chemical, 
# crystal, experimental, refinement or atomic coordinate data resulting 
# from the CCDC's data processing and validation procedures.
#
#######################################################################

data_ERAXIG
_chemical_formula_moiety         'C8 H4 N1 O6 1-,C6 H11 N2 1+'
_chemical_name_systematic        
'1-ethyl-3-methyl-1H-imidazol-3-ium 3-carboxy-5-nitrobenzoate'
_symmetry_cell_setting           monoclinic
_symmetry_space_group_name_H-M   'P 21/c'
_symmetry_Int_Tables_number      14
_space_group_name_Hall           '-P 2ybc'
loop_
_symmetry_equiv_pos_site_id
_symmetry_equiv_pos_as_xyz
1 x,y,z
2 -x,1/2+y,1/2-z
3 -x,-y,-z
4 x,1/2-y,1/2+z
_cell_length_a                   7.1529(14)
_cell_length_b                   15.431(3)
_cell_length_c                   14.163(4)
_cell_angle_alpha                90
_cell_angle_beta                 107.41(3)
_cell_angle_gamma                90
_cell_volume                     1491.65
_exptl_crystal_colour            colorless
_exptl_crystal_description       Column
_cell_formula_units_Z            4
loop_
_atom_site_label
_atom_site_type_symbol
_atom_site_fract_x
_atom_site_fract_y
_atom_site_fract_z
O1 O 0.8204(5) -0.4084(2) 0.8057(2)
O2 O 0.8031(7) -0.2855(3) 0.7243(3)
O3 O 0.7086(7) -0.6780(3) 0.6158(4)
O4 O 0.7113(7) -0.6796(3) 0.4656(4)
O5 O 0.7394(7) -0.4103(3) 0.2895(3)
O6 O 0.8062(6) -0.2884(2) 0.3774(3)
N1 N 0.7697(7) -0.3697(4) 0.3672(3)
C1 C 0.8036(7) -0.3671(3) 0.7297(3)
C2 C 0.7827(6) -0.4146(3) 0.6342(3)
C3 C 0.7828(7) -0.3714(4) 0.5472(3)
C4 C 0.7652(6) -0.4156(3) 0.4610(3)
C5 C 0.7452(6) -0.5050(3) 0.4588(3)
H1 H 0.7321 -0.5357 0.4007
C6 C 0.7454(6) -0.5471(3) 0.5444(3)
C7 C 0.7658(6) -0.5038(3) 0.6325(4)
C8 C 0.7220(7) -0.6414(3) 0.5418(4)
H2 H 0.768(7) -0.533(3) 0.694(4)
H3 H 0.795(6) -0.321(3) 0.542(3)
N2 N 0.6211(6) -0.8787(3) 0.6023(3)
N3 N 0.6415(6) -0.8796(3) 0.4535(3)
C9 C 0.6768(9) -0.8758(5) 0.7112(4)
H4 H 0.8168 -0.8788 0.7378
H5 H 0.6188 -0.9239 0.7349
H6 H 0.6310 -0.8226 0.7317
C10 C 0.4344(9) -0.8757(4) 0.5391(4)
C11 C 0.4473(7) -0.8767(4) 0.4466(4)
H7 H 0.3431 -0.8756 0.3885
C12 C 0.7453(8) -0.8805(3) 0.5492(4)
C13 C 0.7173(8) -0.8771(5) 0.3673(4)
H8 H 0.6788 -0.9301 0.3297
H9 H 0.6554 -0.8293 0.3250
C14 C 0.9252(9) -0.8678(5) 0.3907(5)
H10 H 0.9613 -0.8661 0.3307
H11 H 0.9885 -0.9160 0.4304
H12 H 0.9653 -0.8149 0.4269
H13 H 0.300(12) -0.879(5) 0.557(5)
H14 H 0.905(8) -0.880(3) 0.585(4)
loop_
_geom_bond_atom_site_label_1
_geom_bond_atom_site_label_2
_geom_bond_site_symmetry_1
_geom_bond_site_symmetry_2
O1 C1 1_555 1_555
O2 C1 1_555 1_555
O3 C8 1_555 1_555
O4 C8 1_555 1_555
O5 N1 1_555 1_555
O6 N1 1_555 1_555
N1 C4 1_555 1_555
C1 C2 1_555 1_555
C2 C3 1_555 1_555
C3 C4 1_555 1_555
C4 C5 1_555 1_555
C5 H1 1_555 1_555
C6 C5 1_555 1_555
C7 C2 1_555 1_555
C8 C6 1_555 1_555
H2 C7 1_555 1_555
H3 C3 1_555 1_555
N2 C9 1_555 1_555
N3 C11 1_555 1_555
C9 H4 1_555 1_555
H5 C9 1_555 1_555
H6 C9 1_555 1_555
C10 N2 1_555 1_555
C11 C10 1_555 1_555
H7 C11 1_555 1_555
C12 N2 1_555 1_555
C13 N3 1_555 1_555
H8 C13 1_555 1_555
H9 C13 1_555 1_555
C14 C13 1_555 1_555
H10 C14 1_555 1_555
H11 C14 1_555 1_555
H12 C14 1_555 1_555
H13 C10 1_555 1_555
H14 C12 1_555 1_555
C6 C7 1_555 1_555
N3 C12 1_555 1_555

#END
