
#######################################################################
#
#                 Cambridge Crystallographic Data Centre
#                                CCDC 
#
#######################################################################
#
# If this CIF has been generated from an entry in the Cambridge 
# Structural Database, then it will include bibliographic, chemical, 
# crystal, experimental, refinement or atomic coordinate data resulting 
# from the CCDC's data processing and validation procedures.
#
#######################################################################

data_EREMEV
_chemical_formula_moiety         'C14 H19 N5 O4 S1'
_chemical_name_systematic        
(S)-5-((2,4-diaminopyrimidin-5-yl)oxy)-4-isopropyl-2-methoxybenzenesulfonamide
_symmetry_cell_setting           orthorhombic
_symmetry_space_group_name_H-M   'P 21 21 21'
_symmetry_Int_Tables_number      19
_space_group_name_Hall           'P 2ac 2ab'
loop_
_symmetry_equiv_pos_site_id
_symmetry_equiv_pos_as_xyz
1 x,y,z
2 1/2-x,-y,1/2+z
3 -x,1/2+y,1/2-z
4 1/2+x,1/2-y,-z
_cell_length_a                   10.0395(7)
_cell_length_b                   10.9015(8)
_cell_length_c                   16.0008(12)
_cell_angle_alpha                90
_cell_angle_beta                 90
_cell_angle_gamma                90
_cell_volume                     1751.22
_exptl_crystal_colour            colorless
_exptl_crystal_description       block
_cell_formula_units_Z            4
loop_
_atom_site_label
_atom_site_type_symbol
_atom_site_fract_x
_atom_site_fract_y
_atom_site_fract_z
S1 S 0.84090(4) 0.95457(3) 0.25932(2)
O1 O 0.94883(12) 1.03655(12) 0.27708(8)
O2 O 0.84964(14) 0.87490(11) 0.18753(7)
N1 N 0.71024(15) 1.03351(14) 0.24797(10)
H1 H 0.6444(16) 1.0003(18) 0.2224(12)
H2 H 0.696(2) 1.0924(15) 0.2824(11)
O3 O 0.77801(16) 1.02560(11) 0.43033(8)
O4 O 0.85488(12) 0.52727(10) 0.39165(8)
N2 N 0.65758(17) 0.26110(13) 0.34293(10)
N3 N 0.51054(16) 0.43167(14) 0.34516(11)
N4 N 0.43324(19) 0.23590(17) 0.32215(16)
H3 H 0.3533(14) 0.266(2) 0.3282(17)
H4 H 0.448(3) 0.1599(11) 0.3300(18)
N5 N 0.88349(17) 0.28598(15) 0.36366(15)
H5 H 0.892(3) 0.2080(10) 0.3581(16)
H6 H 0.9556(17) 0.329(2) 0.3604(16)
C1 C 0.82447(17) 0.85546(14) 0.34632(9)
C2 C 0.79822(18) 0.90228(15) 0.42615(10)
C3 C 0.79359(19) 0.82386(17) 0.49387(11)
H7 H 0.7781 0.8558 0.5469
C4 C 0.81172(18) 0.69743(16) 0.48451(11)
C5 C 0.83569(17) 0.65334(14) 0.40442(10)
C6 C 0.84384(18) 0.73037(14) 0.33584(9)
H8 H 0.8622 0.6985 0.2832
C7 C 0.7345(3) 1.0755(2) 0.50835(13)
H9 H 0.8052 1.0694 0.5486
H10 H 0.6585 1.0305 0.5279
H11 H 0.7107 1.1601 0.5009
C8 C 0.8064(2) 0.6128(2) 0.56009(12)
H12 H 0.8135 0.5281 0.5400
C9 C 0.9216(3) 0.6364(3) 0.61814(19)
H13 H 0.9150 0.5832 0.6658
H14 H 0.9195 0.7203 0.6363
H15 H 1.0038 0.6208 0.5893
C10 C 0.6767(4) 0.6250(5) 0.6064(3)
H16 H 0.6760 0.5695 0.6530
H17 H 0.6043 0.6058 0.5695
H18 H 0.6671 0.7076 0.6263
C11 C 0.74189(16) 0.46122(15) 0.37158(10)
C12 C 0.61676(19) 0.50466(16) 0.36270(13)
H19 H 0.6025 0.5885 0.3689
C13 C 0.53776(19) 0.31311(17) 0.33853(12)
C14 C 0.76229(18) 0.33394(15) 0.35884(11)
loop_
_geom_bond_atom_site_label_1
_geom_bond_atom_site_label_2
_geom_bond_site_symmetry_1
_geom_bond_site_symmetry_2
S1 O1 1_555 1_555
O2 S1 1_555 1_555
N1 S1 1_555 1_555
H1 N1 1_555 1_555
H2 N1 1_555 1_555
O3 C2 1_555 1_555
O4 C5 1_555 1_555
N2 C13 1_555 1_555
N3 C12 1_555 1_555
N4 H3 1_555 1_555
H4 N4 1_555 1_555
N5 H5 1_555 1_555
H6 N5 1_555 1_555
C1 S1 1_555 1_555
C2 C1 1_555 1_555
C3 C2 1_555 1_555
H7 C3 1_555 1_555
C4 C3 1_555 1_555
C5 C4 1_555 1_555
C6 C1 1_555 1_555
H8 C6 1_555 1_555
C7 O3 1_555 1_555
H9 C7 1_555 1_555
H10 C7 1_555 1_555
H11 C7 1_555 1_555
C8 C4 1_555 1_555
H12 C8 1_555 1_555
C9 C8 1_555 1_555
H13 C9 1_555 1_555
H14 C9 1_555 1_555
H15 C9 1_555 1_555
C10 C8 1_555 1_555
H16 C10 1_555 1_555
H17 C10 1_555 1_555
H18 C10 1_555 1_555
C11 O4 1_555 1_555
C12 C11 1_555 1_555
H19 C12 1_555 1_555
C13 N3 1_555 1_555
C14 N2 1_555 1_555
N4 C13 1_555 1_555
N5 C14 1_555 1_555
C5 C6 1_555 1_555
C11 C14 1_555 1_555

#END
