
#######################################################################
#
#                 Cambridge Crystallographic Data Centre
#                                CCDC 
#
#######################################################################
#
# If this CIF has been generated from an entry in the Cambridge 
# Structural Database, then it will include bibliographic, chemical, 
# crystal, experimental, refinement or atomic coordinate data resulting 
# from the CCDC's data processing and validation procedures.
#
#######################################################################

data_ERICEP
_chemical_formula_moiety         'C172 H132 N8 Na4 O4,2(C7 H8)'
_chemical_name_systematic        
'tetrakis(\m-2-(((2,6-bis(diphenylmethyl)-4-methylphenyl)imino)methyl)quinolin-8-olato)-tetra-sodium toluene unknown solvate'
_symmetry_cell_setting           monoclinic
_symmetry_space_group_name_H-M   'C 2/c'
_symmetry_Int_Tables_number      15
_space_group_name_Hall           '-C 2yn'
loop_
_symmetry_equiv_pos_site_id
_symmetry_equiv_pos_as_xyz
1 x,y,z
2 -x,y,1/2-z
3 1/2+x,1/2+y,z
4 1/2-x,1/2+y,1/2-z
5 -x,-y,-z
6 x,-y,1/2+z
7 1/2-x,1/2-y,-z
8 1/2+x,1/2-y,1/2+z
_cell_length_a                   31.790(6)
_cell_length_b                   18.998(4)
_cell_length_c                   30.209(6)
_cell_angle_alpha                90
_cell_angle_beta                 109.39(3)
_cell_angle_gamma                90
_cell_volume                     17209.8
_exptl_crystal_colour            red
_exptl_crystal_description       block
_cell_formula_units_Z            4
loop_
_atom_site_label
_atom_site_type_symbol
_atom_site_fract_x
_atom_site_fract_y
_atom_site_fract_z
Na1 Na -0.00352(4) 0.72043(6) 0.30493(4)
O1 O 0.05548(7) 0.72060(11) 0.27052(7)
N1 N 0.04165(8) 0.62068(13) 0.33036(8)
N2 N -0.02112(8) 0.64230(12) 0.37551(8)
C1 C -0.02964(9) 0.67323(14) 0.45071(9)
C2 C -0.04893(9) 0.64804(14) 0.40481(9)
C3 C 0.01980(9) 0.69332(15) 0.46902(9)
H1 H 0.0260 0.7170 0.4430
C4 C -0.09440(9) 0.63295(14) 0.38639(9)
C5 C -0.12055(10) 0.64145(15) 0.41507(10)
H2 H -0.1509 0.6316 0.4030
C6 C -0.05707(10) 0.68052(16) 0.47801(10)
H3 H -0.0447 0.6968 0.5086
C7 C -0.16364(10) 0.62992(15) 0.31442(9)
C8 C -0.10593(10) 0.52988(16) 0.33014(10)
C9 C -0.00006(10) 0.58425(16) 0.37959(10)
H4 H -0.0070 0.5482 0.3969
C10 C 0.08514(10) 0.67152(16) 0.28661(10)
C11 C 0.05158(10) 0.63105(15) 0.48248(10)
C12 C 0.03476(10) 0.57158(16) 0.35818(11)
C13 C 0.02952(10) 0.74717(16) 0.50877(10)
C14 C 0.07786(10) 0.61480(16) 0.31619(10)
C15 C -0.19862(10) 0.58289(17) 0.29907(10)
H5 H -0.1929 0.5348 0.3006
C16 C -0.10240(10) 0.66418(16) 0.46102(10)
C17 C 0.10908(12) 0.55971(19) 0.33147(12)
C18 C -0.11458(9) 0.60797(15) 0.33557(9)
H6 H -0.0987 0.6335 0.3178
C19 C 0.12583(10) 0.66973(19) 0.27830(10)
H7 H 0.1326 0.7059 0.2610
C20 C 0.02168(13) 0.81701(18) 0.49816(12)
H8 H 0.0121 0.8311 0.4669
C21 C -0.17331(12) 0.70168(18) 0.31070(11)
H9 H -0.1501 0.7341 0.3203
C22 C -0.08634(11) 0.50868(19) 0.29754(11)
H10 H -0.0788 0.5423 0.2790
C23 C -0.11745(12) 0.47888(18) 0.35684(12)
H11 H -0.1305 0.4923 0.3789
C24 C 0.09306(11) 0.63535(18) 0.47642(12)
H12 H 0.1001 0.6749 0.4622
C25 C 0.15684(11) 0.6154(2) 0.29510(11)
H13 H 0.1835 0.6166 0.2887
C26 C 0.04464(12) 0.72801(19) 0.55578(11)
H14 H 0.0506 0.6809 0.5639
C27 C 0.04185(11) 0.57061(16) 0.50341(11)
H15 H 0.0142 0.5663 0.5074
C28 C 0.05106(13) 0.7784(2) 0.59101(12)
H16 H 0.0612 0.7649 0.6224
C29 C 0.07287(12) 0.51694(18) 0.51835(12)
H17 H 0.0661 0.4770 0.5325
C30 C 0.04245(12) 0.84786(19) 0.57937(13)
H18 H 0.0466 0.8816 0.6027
C31 C 0.14909(12) 0.5611(2) 0.32049(12)
H19 H 0.1699 0.5250 0.3306
C32 C -0.13087(12) 0.6735(2) 0.49175(12)
H20 H -0.1355 0.7228 0.4955
H21 H -0.1161 0.6527 0.5219
H22 H -0.1591 0.6509 0.4774
C33 C 0.02768(14) 0.86721(19) 0.53307(14)
H23 H 0.0216 0.9143 0.5250
C34 C 0.11385(12) 0.52284(19) 0.51222(13)
H24 H 0.1347 0.4869 0.5223
C35 C -0.21671(13) 0.7252(2) 0.29298(13)
H25 H -0.2226 0.7733 0.2910
C36 C -0.24247(11) 0.6068(2) 0.28131(12)
H26 H -0.2658 0.5748 0.2715
C37 C -0.25119(12) 0.6781(2) 0.27834(14)
H27 H -0.2804 0.6941 0.2664
C38 C 0.12388(12) 0.5819(2) 0.49118(14)
H28 H 0.1515 0.5857 0.4869
C39 C -0.07779(14) 0.4382(2) 0.29218(15)
H29 H -0.0640 0.4245 0.2708
C40 C 0.06154(14) 0.5113(2) 0.37145(15)
H30 H 0.0545 0.4760 0.3892
C41 C -0.10977(14) 0.4082(2) 0.35119(14)
H31 H -0.1179 0.3744 0.3691
C42 C 0.09821(14) 0.5056(2) 0.35772(15)
H32 H 0.1161 0.4658 0.3657
C43 C -0.09010(15) 0.3887(2) 0.31910(16)
H33 H -0.0849 0.3412 0.3153
Na2 Na 0.05685(4) 0.84073(6) 0.26602(4)
N3 N 0.06898(8) 0.93644(13) 0.31860(8)
N4 N 0.13664(8) 0.91863(13) 0.27809(8)
C44 C 0.17024(10) 0.93717(16) 0.21635(10)
C45 C 0.17468(9) 0.91718(16) 0.26251(10)
C46 C 0.04209(10) 0.94045(16) 0.34556(10)
C47 C 0.12392(10) 0.95887(16) 0.18276(10)
H34 H 0.1027 0.9268 0.1895
C48 C 0.11062(10) 1.03244(16) 0.19315(10)
C49 C 0.13361(11) 0.97375(18) 0.30078(11)
H35 H 0.1535 1.0102 0.3021
C50 C 0.21582(10) 0.89454(16) 0.29358(10)
C51 C 0.11920(10) 0.94618(17) 0.13107(10)
C52 C 0.06922(12) 1.04138(18) 0.19869(11)
H36 H 0.0503 1.0030 0.1954
C53 C 0.04812(12) 0.99363(18) 0.38057(11)
C54 C 0.00842(10) 0.88635(16) 0.33908(10)
C55 C 0.20813(10) 0.93646(16) 0.20293(10)
H37 H 0.2055 0.9502 0.1726
C56 C 0.24958(10) 0.91607(16) 0.23308(10)
C57 C 0.25237(10) 0.89464(16) 0.27813(10)
H38 H 0.2798 0.8798 0.2986
C58 C 0.22500(11) 0.93036(18) 0.37769(11)
C59 C -0.00771(12) 0.9392(2) 0.40561(11)
H39 H -0.0243 0.9373 0.4258
C60 C 0.29007(11) 0.9156(2) 0.21786(13)
H40 H 0.2809 0.9166 0.1842
H41 H 0.3071 0.8737 0.2293
H42 H 0.3081 0.9562 0.2304
C61 C 0.13816(11) 1.09026(18) 0.19817(11)
H43 H 0.1661 1.0849 0.1950
C62 C 0.21969(10) 0.86945(17) 0.34309(10)
H44 H 0.1914 0.8463 0.3404
C63 C 0.25613(10) 0.81349(18) 0.36061(10)
C64 C 0.02217(12) 0.9921(2) 0.41054(12)
H45 H 0.0255 1.0267 0.4332
C65 C 0.11547(12) 0.9999(2) 0.09900(11)
H46 H 0.1179 1.0466 0.1088
C66 C 0.10106(12) 0.98396(17) 0.32499(11)
C67 C -0.01445(11) 0.88700(18) 0.37083(10)
H47 H -0.0351 0.8516 0.3691
C68 C 0.11651(11) 0.87736(18) 0.11501(11)
H48 H 0.1201 0.8406 0.1363
C69 C 0.29658(12) 0.8261(2) 0.39499(12)
H49 H 0.3021 0.8697 0.4098
C70 C 0.10869(12) 0.8620(2) 0.06846(13)
H50 H 0.1063 0.8154 0.0584
C71 C 0.24863(12) 0.7470(2) 0.34020(12)
H51 H 0.2213 0.7372 0.3174
C72 C 0.32912(13) 0.7744(2) 0.40769(13)
H52 H 0.3564 0.7839 0.4306
C73 C 0.10804(15) 0.9838(2) 0.05208(13)
H53 H 0.1055 1.0203 0.0308
C74 C 0.24719(12) 0.9915(2) 0.37461(13)
H54 H 0.2593 0.9967 0.3507
C75 C 0.12460(13) 1.15660(19) 0.20785(13)
H55 H 0.1431 1.1954 0.2103
C76 C 0.05590(13) 1.1074(2) 0.20906(12)
H56 H 0.0282 1.1131 0.2128
C77 C 0.10710(15) 1.0408(2) 0.35642(15)
H57 H 0.1287 1.0748 0.3586
C78 C 0.32165(14) 0.7094(3) 0.38690(14)
H58 H 0.3437 0.6750 0.3954
C79 C 0.08405(14) 1.1645(2) 0.21378(13)
H59 H 0.0754 1.2085 0.2210
C80 C 0.20748(15) 0.9232(2) 0.41389(13)
H60 H 0.1928 0.8819 0.4167
C81 C 0.08055(15) 1.0447(2) 0.38354(14)
H61 H 0.0840 1.0820 0.4044
C82 C 0.10435(15) 0.9162(2) 0.03657(13)
H62 H 0.0990 0.9064 0.0050
C83 C 0.28069(14) 0.6955(2) 0.35295(14)
H63 H 0.2750 0.6514 0.3389
C84 C 0.25155(16) 1.0452(2) 0.40689(15)
H64 H 0.2667 1.0862 0.4045
C85 C 0.23374(18) 1.0383(3) 0.44223(15)
H65 H 0.2364 1.0746 0.4637
C86 C 0.21187(19) 0.9769(3) 0.44551(16)
H66 H 0.1999 0.9718 0.4695
O2 O 0.00158(7) 0.84001(11) 0.30533(7)
Na1A Na 0.00352(4) 0.72043(6) 0.19507(4)
O1A O -0.05548(7) 0.72060(11) 0.22948(7)
N1A N -0.04165(8) 0.62068(13) 0.16964(8)
N2A N 0.02112(8) 0.64230(12) 0.12449(8)
C1A C 0.02964(9) 0.67323(14) 0.04929(9)
C2A C 0.04893(9) 0.64804(14) 0.09519(9)
C3A C -0.01980(9) 0.69332(15) 0.03098(9)
H1A H -0.0260 0.7170 0.0570
C4A C 0.09440(9) 0.63295(14) 0.11361(9)
C5A C 0.12055(10) 0.64145(15) 0.08493(10)
H2A H 0.1509 0.6316 0.0970
C6A C 0.05707(10) 0.68052(16) 0.02199(10)
H3A H 0.0447 0.6968 -0.0086
C7A C 0.16364(10) 0.62992(15) 0.18558(9)
C8A C 0.10593(10) 0.52988(16) 0.16986(10)
C9A C 0.00006(10) 0.58425(16) 0.12041(10)
H4A H 0.0070 0.5482 0.1031
C10A C -0.08514(10) 0.67152(16) 0.21339(10)
C11A C -0.05158(10) 0.63105(15) 0.01752(10)
C12A C -0.03476(10) 0.57158(16) 0.14182(11)
C13A C -0.02952(10) 0.74717(16) -0.00877(10)
C14A C -0.07786(10) 0.61480(16) 0.18381(10)
C15A C 0.19862(10) 0.58289(17) 0.20093(10)
H5A H 0.1929 0.5348 0.1994
C16A C 0.10240(10) 0.66418(16) 0.03898(10)
C17A C -0.10908(12) 0.55971(19) 0.16853(12)
C18A C 0.11458(9) 0.60797(15) 0.16443(9)
H6A H 0.0987 0.6335 0.1822
C19A C -0.12583(10) 0.66973(19) 0.22170(10)
H7A H -0.1326 0.7059 0.2390
C20A C -0.02168(13) 0.81701(18) 0.00184(12)
H8A H -0.0121 0.8311 0.0331
C21A C 0.17331(12) 0.70168(18) 0.18930(11)
H9A H 0.1501 0.7341 0.1797
C22A C 0.08634(11) 0.50868(19) 0.20246(11)
H10A H 0.0788 0.5423 0.2210
C23A C 0.11745(12) 0.47888(18) 0.14316(12)
H11A H 0.1305 0.4923 0.1211
C24A C -0.09306(11) 0.63535(18) 0.02358(12)
H12A H -0.1001 0.6749 0.0378
C25A C -0.15684(11) 0.6154(2) 0.20490(11)
H13A H -0.1835 0.6166 0.2113
C26A C -0.04464(12) 0.72801(19) -0.05578(11)
H14A H -0.0506 0.6809 -0.0639
C27A C -0.04185(11) 0.57061(16) -0.00341(11)
H15A H -0.0142 0.5663 -0.0074
C28A C -0.05106(13) 0.7784(2) -0.09101(12)
H16A H -0.0612 0.7649 -0.1224
C29A C -0.07287(12) 0.51694(18) -0.01835(12)
H17A H -0.0661 0.4770 -0.0325
C30A C -0.04245(12) 0.84786(19) -0.07937(13)
H18A H -0.0466 0.8816 -0.1027
C31A C -0.14909(12) 0.5611(2) 0.17951(12)
H19A H -0.1699 0.5250 0.1694
C32A C 0.13087(12) 0.6735(2) 0.00825(12)
H20A H 0.1355 0.7228 0.0045
H21A H 0.1161 0.6527 -0.0219
H22A H 0.1591 0.6509 0.0226
C33A C -0.02768(14) 0.86721(19) -0.03307(14)
H23A H -0.0216 0.9143 -0.0250
C34A C -0.11385(12) 0.52284(19) -0.01222(13)
H24A H -0.1347 0.4869 -0.0223
C35A C 0.21671(13) 0.7252(2) 0.20702(13)
H25A H 0.2226 0.7733 0.2090
C36A C 0.24247(11) 0.6068(2) 0.21869(12)
H26A H 0.2658 0.5748 0.2285
C37A C 0.25119(12) 0.6781(2) 0.22166(14)
H27A H 0.2804 0.6941 0.2336
C38A C -0.12388(12) 0.5819(2) 0.00882(14)
H28A H -0.1515 0.5857 0.0131
C39A C 0.07779(14) 0.4382(2) 0.20782(15)
H29A H 0.0640 0.4245 0.2292
C40A C -0.06154(14) 0.5113(2) 0.12855(15)
H30A H -0.0545 0.4760 0.1108
C41A C 0.10977(14) 0.4082(2) 0.14881(14)
H31A H 0.1179 0.3744 0.1309
C42A C -0.09821(14) 0.5056(2) 0.14228(15)
H32A H -0.1161 0.4658 0.1343
C43A C 0.09010(15) 0.3887(2) 0.18090(16)
H33A H 0.0849 0.3412 0.1847
Na2A Na -0.05685(4) 0.84073(6) 0.23398(4)
N3A N -0.06898(8) 0.93644(13) 0.18140(8)
N4A N -0.13664(8) 0.91863(13) 0.22191(8)
C44A C -0.17024(10) 0.93717(16) 0.28365(10)
C45A C -0.17468(9) 0.91718(16) 0.23749(10)
C46A C -0.04209(10) 0.94045(16) 0.15444(10)
C47A C -0.12392(10) 0.95887(16) 0.31724(10)
H34A H -0.1027 0.9268 0.3105
C48A C -0.11062(10) 1.03244(16) 0.30685(10)
C49A C -0.13361(11) 0.97375(18) 0.19922(11)
H35A H -0.1535 1.0102 0.1979
C50A C -0.21582(10) 0.89454(16) 0.20642(10)
C51A C -0.11920(10) 0.94618(17) 0.36893(10)
C52A C -0.06922(12) 1.04138(18) 0.30131(11)
H36A H -0.0503 1.0030 0.3046
C53A C -0.04812(12) 0.99363(18) 0.11943(11)
C54A C -0.00842(10) 0.88635(16) 0.16092(10)
C55A C -0.20813(10) 0.93646(16) 0.29707(10)
H37A H -0.2055 0.9502 0.3274
C56A C -0.24958(10) 0.91607(16) 0.26692(10)
C57A C -0.25237(10) 0.89464(16) 0.22187(10)
H38A H -0.2798 0.8798 0.2014
C58A C -0.22500(11) 0.93036(18) 0.12231(11)
C59A C 0.00771(12) 0.9392(2) 0.09439(11)
H39A H 0.0243 0.9373 0.0742
C60A C -0.29007(11) 0.9156(2) 0.28214(13)
H40A H -0.2809 0.9166 0.3158
H41A H -0.3071 0.8737 0.2707
H42A H -0.3081 0.9562 0.2696
C61A C -0.13816(11) 1.09026(18) 0.30183(11)
H43A H -0.1661 1.0849 0.3050
C62A C -0.21969(10) 0.86945(17) 0.15691(10)
H44A H -0.1914 0.8463 0.1596
C63A C -0.25613(10) 0.81349(18) 0.13939(10)
C64A C -0.02217(12) 0.9921(2) 0.08946(12)
H45A H -0.0255 1.0267 0.0668
C65A C -0.11547(12) 0.9999(2) 0.40100(11)
H46A H -0.1179 1.0466 0.3912
C66A C -0.10106(12) 0.98396(17) 0.17501(11)
C67A C 0.01445(11) 0.88700(18) 0.12917(10)
H47A H 0.0351 0.8516 0.1309
C68A C -0.11651(11) 0.87736(18) 0.38499(11)
H48A H -0.1201 0.8406 0.3637
C69A C -0.29658(12) 0.8261(2) 0.10501(12)
H49A H -0.3021 0.8697 0.0902
C70A C -0.10869(12) 0.8620(2) 0.43154(13)
H50A H -0.1063 0.8154 0.4416
C71A C -0.24863(12) 0.7470(2) 0.15980(12)
H51A H -0.2213 0.7372 0.1826
C72A C -0.32912(13) 0.7744(2) 0.09231(13)
H52A H -0.3564 0.7839 0.0694
C73A C -0.10804(15) 0.9838(2) 0.44792(13)
H53A H -0.1055 1.0203 0.4692
C74A C -0.24719(12) 0.9915(2) 0.12539(13)
H54A H -0.2593 0.9967 0.1493
C75A C -0.12460(13) 1.15660(19) 0.29215(13)
H55A H -0.1431 1.1954 0.2897
C76A C -0.05590(13) 1.1074(2) 0.29094(12)
H56A H -0.0282 1.1131 0.2872
C77A C -0.10710(15) 1.0408(2) 0.14358(15)
H57A H -0.1287 1.0748 0.1414
C78A C -0.32165(14) 0.7094(3) 0.11310(14)
H58A H -0.3437 0.6750 0.1046
C79A C -0.08405(14) 1.1645(2) 0.28622(13)
H59A H -0.0754 1.2085 0.2790
C80A C -0.20748(15) 0.9232(2) 0.08611(13)
H60A H -0.1928 0.8819 0.0833
C81A C -0.08055(15) 1.0447(2) 0.11646(14)
H61A H -0.0840 1.0820 0.0956
C82A C -0.10435(15) 0.9162(2) 0.46343(13)
H62A H -0.0990 0.9064 0.4950
C83A C -0.28069(14) 0.6955(2) 0.14705(14)
H63A H -0.2750 0.6514 0.1611
C84A C -0.25155(16) 1.0452(2) 0.09311(15)
H64A H -0.2667 1.0862 0.0955
C85A C -0.23374(18) 1.0383(3) 0.05777(15)
H65A H -0.2364 1.0746 0.0363
C86A C -0.21187(19) 0.9769(3) 0.05449(16)
H66A H -0.1999 0.9718 0.0305
O2A O -0.00158(7) 0.84001(11) 0.19467(7)
C87 C 0.17817(15) 0.7660(3) 0.48101(13)
H67 H 0.2004 0.7584 0.5097
C88 C 0.17860(14) 0.7280(2) 0.44192(14)
C89 C 0.14401(16) 0.7420(3) 0.39924(14)
H68 H 0.1431 0.7183 0.3720
C90 C 0.11175(17) 0.7907(3) 0.39831(16)
H69 H 0.0889 0.7989 0.3702
C91 C 0.14532(19) 0.8146(3) 0.47780(17)
H70 H 0.1459 0.8396 0.5044
C92 C 0.11211(19) 0.8270(3) 0.43681(19)
H71 H 0.0900 0.8599 0.4352
C93 C 0.21183(18) 0.6732(4) 0.4428(2)
H72 H 0.2344 0.6927 0.4318
H73 H 0.1974 0.6348 0.4229
H74 H 0.2253 0.6564 0.4744
loop_
_geom_bond_atom_site_label_1
_geom_bond_atom_site_label_2
_geom_bond_site_symmetry_1
_geom_bond_site_symmetry_2
Na1 O1 1_555 1_555
O1 C10 1_555 1_555
N1 Na1 1_555 1_555
N2 Na1 1_555 1_555
C1 C2 1_555 1_555
C2 N2 1_555 1_555
C3 C1 1_555 1_555
H1 C3 1_555 1_555
C4 C2 1_555 1_555
C5 C4 1_555 1_555
H2 C5 1_555 1_555
C6 C1 1_555 1_555
H3 C6 1_555 1_555
C7 C15 1_555 1_555
C8 C18 1_555 1_555
C9 N2 1_555 1_555
H4 C9 1_555 1_555
C10 C14 1_555 1_555
C11 C3 1_555 1_555
C12 N1 1_555 1_555
C13 C3 1_555 1_555
C14 N1 1_555 1_555
C15 H5 1_555 1_555
C16 C5 1_555 1_555
C17 C14 1_555 1_555
C18 C4 1_555 1_555
H6 C18 1_555 1_555
C19 C10 1_555 1_555
H7 C19 1_555 1_555
C20 C13 1_555 1_555
H8 C20 1_555 1_555
C21 C7 1_555 1_555
H9 C21 1_555 1_555
C22 C8 1_555 1_555
H10 C22 1_555 1_555
C23 C8 1_555 1_555
H11 C23 1_555 1_555
C24 C11 1_555 1_555
H12 C24 1_555 1_555
C25 C19 1_555 1_555
H13 C25 1_555 1_555
C26 C13 1_555 1_555
H14 C26 1_555 1_555
C27 C11 1_555 1_555
H15 C27 1_555 1_555
C28 C26 1_555 1_555
H16 C28 1_555 1_555
C29 C27 1_555 1_555
H17 C29 1_555 1_555
C30 C28 1_555 1_555
H18 C30 1_555 1_555
C31 C17 1_555 1_555
H19 C31 1_555 1_555
C32 C16 1_555 1_555
H20 C32 1_555 1_555
H21 C32 1_555 1_555
H22 C32 1_555 1_555
C33 C20 1_555 1_555
H23 C33 1_555 1_555
C34 C29 1_555 1_555
H24 C34 1_555 1_555
C35 C21 1_555 1_555
H25 C35 1_555 1_555
C36 C15 1_555 1_555
H26 C36 1_555 1_555
C37 C35 1_555 1_555
H27 C37 1_555 1_555
C38 C24 1_555 1_555
H28 C38 1_555 1_555
C39 C22 1_555 1_555
H29 C39 1_555 1_555
C40 C12 1_555 1_555
H30 C40 1_555 1_555
C41 C23 1_555 1_555
H31 C41 1_555 1_555
C42 C17 1_555 1_555
H32 C42 1_555 1_555
C43 C39 1_555 1_555
H33 C43 1_555 1_555
Na2 O1 1_555 1_555
N3 Na2 1_555 1_555
N4 Na2 1_555 1_555
C44 C45 1_555 1_555
C45 N4 1_555 1_555
C46 N3 1_555 1_555
C47 C44 1_555 1_555
H34 C47 1_555 1_555
C48 C47 1_555 1_555
C49 N4 1_555 1_555
H35 C49 1_555 1_555
C50 C45 1_555 1_555
C51 C47 1_555 1_555
C52 C48 1_555 1_555
H36 C52 1_555 1_555
C53 C46 1_555 1_555
C54 C46 1_555 1_555
C55 C44 1_555 1_555
H37 C55 1_555 1_555
C56 C55 1_555 1_555
C57 C50 1_555 1_555
H38 C57 1_555 1_555
C58 C62 1_555 1_555
C59 H39 1_555 1_555
C60 C56 1_555 1_555
H40 C60 1_555 1_555
H41 C60 1_555 1_555
H42 C60 1_555 1_555
C61 C48 1_555 1_555
H43 C61 1_555 1_555
C62 C50 1_555 1_555
H44 C62 1_555 1_555
C63 C62 1_555 1_555
C64 C53 1_555 1_555
H45 C64 1_555 1_555
C65 C51 1_555 1_555
H46 C65 1_555 1_555
C66 N3 1_555 1_555
C67 C54 1_555 1_555
H47 C67 1_555 1_555
C68 C51 1_555 1_555
H48 C68 1_555 1_555
C69 C63 1_555 1_555
H49 C69 1_555 1_555
C70 C68 1_555 1_555
H50 C70 1_555 1_555
C71 C63 1_555 1_555
H51 C71 1_555 1_555
C72 C69 1_555 1_555
H52 C72 1_555 1_555
C73 C65 1_555 1_555
H53 C73 1_555 1_555
C74 C58 1_555 1_555
H54 C74 1_555 1_555
C75 C61 1_555 1_555
H55 C75 1_555 1_555
C76 C52 1_555 1_555
H56 C76 1_555 1_555
C77 C66 1_555 1_555
H57 C77 1_555 1_555
C78 C72 1_555 1_555
H58 C78 1_555 1_555
C79 C75 1_555 1_555
H59 C79 1_555 1_555
C80 C58 1_555 1_555
H60 C80 1_555 1_555
C81 C53 1_555 1_555
H61 C81 1_555 1_555
C82 C70 1_555 1_555
H62 C82 1_555 1_555
C83 C71 1_555 1_555
H63 C83 1_555 1_555
C84 C74 1_555 1_555
H64 C84 1_555 1_555
C85 C84 1_555 1_555
H65 C85 1_555 1_555
C86 C80 1_555 1_555
H66 C86 1_555 1_555
O2 Na1 1_555 1_555
C87 H67 1_555 1_555
C88 C87 1_555 1_555
C89 C88 1_555 1_555
H68 C89 1_555 1_555
C90 C89 1_555 1_555
H69 C90 1_555 1_555
C91 C87 1_555 1_555
H70 C91 1_555 1_555
C92 C90 1_555 1_555
H71 C92 1_555 1_555
C93 C88 1_555 1_555
H72 C93 1_555 1_555
H73 C93 1_555 1_555
H74 C93 1_555 1_555
Na1A O1 1_555 1_555
O1A Na1 1_555 1_555
N1A Na1A 1_555 1_555
N2A Na1A 1_555 1_555
C1A C2A 1_555 1_555
C2A N2A 1_555 1_555
C3A C1A 1_555 1_555
H1A C3A 1_555 1_555
C4A C2A 1_555 1_555
C5A C4A 1_555 1_555
H2A C5A 1_555 1_555
C6A C1A 1_555 1_555
H3A C6A 1_555 1_555
C7A C15A 1_555 1_555
C8A C18A 1_555 1_555
C9A N2A 1_555 1_555
H4A C9A 1_555 1_555
C10A O1A 1_555 1_555
C11A C3A 1_555 1_555
C12A N1A 1_555 1_555
C13A C3A 1_555 1_555
C14A N1A 1_555 1_555
C15A H5A 1_555 1_555
C16A C5A 1_555 1_555
C17A C14A 1_555 1_555
C18A C4A 1_555 1_555
H6A C18A 1_555 1_555
C19A C10A 1_555 1_555
H7A C19A 1_555 1_555
C20A C13A 1_555 1_555
H8A C20A 1_555 1_555
C21A C7A 1_555 1_555
H9A C21A 1_555 1_555
C22A C8A 1_555 1_555
H10A C22A 1_555 1_555
C23A C8A 1_555 1_555
H11A C23A 1_555 1_555
C24A C11A 1_555 1_555
H12A C24A 1_555 1_555
C25A C19A 1_555 1_555
H13A C25A 1_555 1_555
C26A C13A 1_555 1_555
H14A C26A 1_555 1_555
C27A C11A 1_555 1_555
H15A C27A 1_555 1_555
C28A C26A 1_555 1_555
H16A C28A 1_555 1_555
C29A C27A 1_555 1_555
H17A C29A 1_555 1_555
C30A C28A 1_555 1_555
H18A C30A 1_555 1_555
C31A C17A 1_555 1_555
H19A C31A 1_555 1_555
C32A C16A 1_555 1_555
H20A C32A 1_555 1_555
H21A C32A 1_555 1_555
H22A C32A 1_555 1_555
C33A C20A 1_555 1_555
H23A C33A 1_555 1_555
C34A C29A 1_555 1_555
H24A C34A 1_555 1_555
C35A C21A 1_555 1_555
H25A C35A 1_555 1_555
C36A C15A 1_555 1_555
H26A C36A 1_555 1_555
C37A C35A 1_555 1_555
H27A C37A 1_555 1_555
C38A C24A 1_555 1_555
H28A C38A 1_555 1_555
C39A C22A 1_555 1_555
H29A C39A 1_555 1_555
C40A C12A 1_555 1_555
H30A C40A 1_555 1_555
C41A C23A 1_555 1_555
H31A C41A 1_555 1_555
C42A C17A 1_555 1_555
H32A C42A 1_555 1_555
C43A C39A 1_555 1_555
H33A C43A 1_555 1_555
Na2A O2 1_555 1_555
N3A Na2A 1_555 1_555
N4A Na2A 1_555 1_555
C44A C45A 1_555 1_555
C45A N4A 1_555 1_555
C46A N3A 1_555 1_555
C47A C44A 1_555 1_555
H34A C47A 1_555 1_555
C48A C47A 1_555 1_555
C49A N4A 1_555 1_555
H35A C49A 1_555 1_555
C50A C45A 1_555 1_555
C51A C47A 1_555 1_555
C52A C48A 1_555 1_555
H36A C52A 1_555 1_555
C53A C46A 1_555 1_555
C54A C46A 1_555 1_555
C55A C44A 1_555 1_555
H37A C55A 1_555 1_555
C56A C55A 1_555 1_555
C57A C50A 1_555 1_555
H38A C57A 1_555 1_555
C58A C62A 1_555 1_555
C59A H39A 1_555 1_555
C60A C56A 1_555 1_555
H40A C60A 1_555 1_555
H41A C60A 1_555 1_555
H42A C60A 1_555 1_555
C61A C48A 1_555 1_555
H43A C61A 1_555 1_555
C62A C50A 1_555 1_555
H44A C62A 1_555 1_555
C63A C62A 1_555 1_555
C64A C53A 1_555 1_555
H45A C64A 1_555 1_555
C65A C51A 1_555 1_555
H46A C65A 1_555 1_555
C66A N3A 1_555 1_555
C67A C54A 1_555 1_555
H47A C67A 1_555 1_555
C68A C51A 1_555 1_555
H48A C68A 1_555 1_555
C69A C63A 1_555 1_555
H49A C69A 1_555 1_555
C70A C68A 1_555 1_555
H50A C70A 1_555 1_555
C71A C63A 1_555 1_555
H51A C71A 1_555 1_555
C72A C69A 1_555 1_555
H52A C72A 1_555 1_555
C73A C65A 1_555 1_555
H53A C73A 1_555 1_555
C74A C58A 1_555 1_555
H54A C74A 1_555 1_555
C75A C61A 1_555 1_555
H55A C75A 1_555 1_555
C76A C52A 1_555 1_555
H56A C76A 1_555 1_555
C77A C66A 1_555 1_555
H57A C77A 1_555 1_555
C78A C72A 1_555 1_555
H58A C78A 1_555 1_555
C79A C75A 1_555 1_555
H59A C79A 1_555 1_555
C80A C58A 1_555 1_555
H60A C80A 1_555 1_555
C81A C53A 1_555 1_555
H61A C81A 1_555 1_555
C82A C70A 1_555 1_555
H62A C82A 1_555 1_555
C83A C71A 1_555 1_555
H63A C83A 1_555 1_555
C84A C74A 1_555 1_555
H64A C84A 1_555 1_555
C85A C84A 1_555 1_555
H65A C85A 1_555 1_555
C86A C80A 1_555 1_555
H66A C86A 1_555 1_555
O2A Na2 1_555 1_555
C6 C16 1_555 1_555
C7 C18 1_555 1_555
C9 C12 1_555 1_555
C25 C31 1_555 1_555
C30 C33 1_555 1_555
C34 C38 1_555 1_555
C36 C37 1_555 1_555
C40 C42 1_555 1_555
C41 C43 1_555 1_555
Na2 O2 1_555 1_555
C49 C66 1_555 1_555
C54 O2 1_555 1_555
C56 C57 1_555 1_555
C59 C64 1_555 1_555
C59 C67 1_555 1_555
C73 C82 1_555 1_555
C76 C79 1_555 1_555
C77 C81 1_555 1_555
C78 C83 1_555 1_555
C85 C86 1_555 1_555
C91 C92 1_555 1_555
Na1A O1A 1_555 1_555
Na1A O2A 1_555 1_555
O1A Na2A 1_555 1_555
C6A C16A 1_555 1_555
C7A C18A 1_555 1_555
C9A C12A 1_555 1_555
C10A C14A 1_555 1_555
C25A C31A 1_555 1_555
C30A C33A 1_555 1_555
C34A C38A 1_555 1_555
C36A C37A 1_555 1_555
C40A C42A 1_555 1_555
C41A C43A 1_555 1_555
Na2A O2A 1_555 1_555
C49A C66A 1_555 1_555
C54A O2A 1_555 1_555
C56A C57A 1_555 1_555
C59A C64A 1_555 1_555
C59A C67A 1_555 1_555
C73A C82A 1_555 1_555
C76A C79A 1_555 1_555
C77A C81A 1_555 1_555
C78A C83A 1_555 1_555
C85A C86A 1_555 1_555

#END
