
#######################################################################
#
#                 Cambridge Crystallographic Data Centre
#                                CCDC 
#
#######################################################################
#
# If this CIF has been generated from an entry in the Cambridge 
# Structural Database, then it will include bibliographic, chemical, 
# crystal, experimental, refinement or atomic coordinate data resulting 
# from the CCDC's data processing and validation procedures.
#
#######################################################################

data_ERICIT
_chemical_formula_moiety         'C138 H150 N12 Na6 O6,2(C7 H8)'
_chemical_name_systematic        
'hexakis(\m-2-(((2,6-diisopropylphenyl)imino)methyl)-5-methylquinolin-8-olato)-hexa-sodium toluene solvate'
_symmetry_cell_setting           triclinic
_symmetry_space_group_name_H-M   'P -1'
_symmetry_Int_Tables_number      2
_space_group_name_Hall           '-P 1'
loop_
_symmetry_equiv_pos_site_id
_symmetry_equiv_pos_as_xyz
1 x,y,z
2 -x,-y,-z
_cell_length_a                   14.410(3)
_cell_length_b                   17.255(3)
_cell_length_c                   17.335(3)
_cell_angle_alpha                110.08(3)
_cell_angle_beta                 104.88(3)
_cell_angle_gamma                109.92(3)
_cell_volume                     3448.26
_exptl_crystal_colour            red
_exptl_crystal_description       plate
_cell_formula_units_Z            1
loop_
_atom_site_label
_atom_site_type_symbol
_atom_site_fract_x
_atom_site_fract_y
_atom_site_fract_z
Na1 Na 0.46756(17) 0.01755(14) 0.12918(13)
Na2 Na 0.54388(16) -0.13020(14) 0.01632(13)
Na3 Na 0.68873(16) 0.16528(14) 0.12547(13)
C1 C 0.9046(5) 0.5557(4) 0.2443(5)
H1 H 0.8879 0.6021 0.2766
C2 C 0.9536(5) 0.5694(4) 0.1879(5)
H2 H 0.9708 0.6247 0.1819
C3 C 0.9768(5) 0.3447(5) 0.0938(5)
H3 H 0.9226 0.2841 0.0851
C4 C 0.6323(7) 0.3736(5) 0.6090(4)
H4 H 0.6621 0.4375 0.6518
C5 C 0.5224(6) 0.3142(5) 0.5731(4)
H5 H 0.4768 0.3388 0.5902
C6 C 0.9772(5) 0.5021(4) 0.1403(5)
H6 H 1.0105 0.5119 0.1014
C7 C 0.3563(5) 0.1541(6) 0.4743(5)
H7 H 0.3353 0.1028 0.4135
C8 C 0.0142(6) 0.0681(5) -0.2029(5)
H8 H -0.0270 0.0422 -0.1730
H9 H 0.0894 0.0797 -0.1758
H10 H -0.0196 0.0235 -0.2677
C9 C 0.9540(5) 0.4206(4) 0.1473(4)
C10 C -0.1016(5) 0.1449(5) -0.2316(5)
H11 H -0.1383 0.0971 -0.2955
H12 H -0.0996 0.2037 -0.2272
H13 H -0.1414 0.1239 -0.1985
C11 C 0.4621(7) 0.3903(8) -0.1961(7)
H14 H 0.4392 0.4140 -0.2374
H15 H 0.4566 0.3293 -0.2308
H16 H 0.5378 0.4344 -0.1518
C12 C 0.3945(6) 0.4743(5) -0.0983(6)
H17 H 0.4708 0.5232 -0.0655
H18 H 0.3620 0.4733 -0.0552
H19 H 0.3544 0.4874 -0.1428
C13 C 0.3890(5) 0.3799(5) -0.1468(4)
H20 H 0.4181 0.3621 -0.1003
C14 C 0.8985(7) 0.5107(8) 0.4127(5)
H21 H 0.9555 0.4916 0.4203
H22 H 0.8595 0.4963 0.4487
H23 H 0.9317 0.5782 0.4330
C15 C 0.3333(8) 0.1105(8) 0.5321(8)
H24 H 0.3578 0.1595 0.5935
H25 H 0.3722 0.0739 0.5341
H26 H 0.2549 0.0692 0.5067
C16 C 0.8256(7) 0.2806(6) 0.4865(7)
H27 H 0.7979 0.3071 0.4500
H28 H 0.8655 0.2516 0.4603
H29 H 0.8745 0.3306 0.5487
C17 C 0.2834(8) 0.2004(9) 0.4609(8)
H30 H 0.2096 0.1523 0.4153
H31 H 0.3134 0.2457 0.4405
H32 H 0.2807 0.2327 0.5185
C18 C 0.5538(5) 0.2433(4) 0.2774(4)
H33 H 0.5974 0.2173 0.2975
C19 C 0.3692(5) 0.3676(4) 0.1953(4)
H34 H 0.3564 0.4106 0.2370
O1 O 0.6302(3) 0.0211(2) 0.1332(2)
O2 O 0.5236(3) 0.1575(2) 0.1262(2)
O3 O 0.3780(3) -0.1355(2) 0.0241(2)
C20 C 0.8048(4) 0.0952(3) 0.2558(3)
C21 C 0.6959(4) 0.0176(3) 0.1984(3)
N1 N 0.4089(3) -0.0764(3) 0.2032(3)
C22 C 0.3566(4) -0.1977(4) 0.0536(3)
C23 C 0.3230(5) -0.2915(4) 0.0000(4)
H35 H 0.3175 -0.3120 -0.0601
C24 C 0.9854(4) 0.1713(4) 0.3767(4)
H36 H 1.0395 0.1724 0.4224
N2 N 0.8791(3) 0.3259(3) 0.2162(3)
N3 N 0.4054(3) 0.2414(3) 0.0708(3)
C25 C 0.3273(5) 0.3457(4) 0.1064(4)
H37 H 0.2859 0.3729 0.0856
C26 C 1.0102(4) 0.2462(4) 0.3607(4)
H38 H 1.0809 0.2988 0.3943
C27 C 0.3442(4) -0.2386(4) 0.1771(4)
C28 C 0.3056(5) -0.3336(4) 0.1185(4)
N4 N 0.8310(3) 0.1710(3) 0.2424(3)
C29 C 0.5355(5) 0.3053(4) 0.3412(4)
H39 H 0.5660 0.3182 0.4025
C30 C 0.9501(4) 0.3257(4) 0.2772(4)
H40 H 1.0192 0.3800 0.3137
C31 C 0.4478(4) 0.2637(3) 0.1613(3)
C32 C 0.3640(5) -0.2048(4) 0.2697(4)
H41 H 0.3481 -0.2478 0.2929
C33 C 0.2008(4) 0.2649(4) -0.1752(4)
N5 N 0.2409(4) 0.2878(3) -0.0811(3)
C34 C 0.4763(5) 0.3483(4) 0.3202(4)
N6 N 0.5028(3) 0.0879(3) 0.4333(3)
C35 C 0.0881(5) 0.2068(4) -0.2285(4)
C36 C 0.4053(5) -0.1116(4) 0.3264(4)
H42 H 0.4199 -0.0894 0.3887
C37 C 0.2965(5) -0.3576(4) 0.0315(4)
H43 H 0.2713 -0.4215 -0.0089
C38 C 0.5102(4) 0.2184(4) 0.1853(3)
C39 C 0.0483(5) 0.1905(4) -0.3173(4)
H44 H -0.0274 0.1514 -0.3549
C40 C 0.3008(4) 0.2553(4) -0.0513(4)
H45 H 0.3158 0.2137 -0.0923
C41 C 0.8474(4) 0.0138(4) 0.3419(3)
C42 C 0.8792(4) 0.4761(4) 0.2551(4)
C43 C 0.2247(5) 0.2862(4) -0.2992(4)
H46 H 0.2704 0.3123 -0.3242
C44 C 0.3473(4) 0.2815(4) 0.0462(3)
C45 C 0.8811(4) 0.0923(4) 0.3269(3)
C46 C 0.9078(5) 0.4109(4) 0.2083(4)
C47 C 0.6576(5) 0.2453(4) 0.5210(4)
C48 C 0.3699(4) -0.1695(4) 0.1471(3)
C49 C 0.4256(4) -0.0494(4) 0.2900(3)
C50 C 0.4703(4) 0.0513(4) 0.3474(4)
H47 H 0.4753 0.0907 0.3199
C51 C 0.7434(5) -0.0577(4) 0.2873(4)
H48 H 0.7205 -0.1099 0.2981
C52 C 0.4318(5) 0.3278(4) 0.2275(4)
C53 C 0.9286(4) 0.2434(4) 0.2933(4)
C54 C 0.6678(4) -0.0587(4) 0.2154(4)
H49 H 0.6118 -0.0548 0.2385
C55 C 0.9625(6) 0.3337(6) -0.0004(5)
H50 H 0.8928 0.3306 -0.0309
H51 H 0.9632 0.2761 -0.0361
H52 H 1.0222 0.3875 0.0053
C56 C 0.1152(5) 0.2290(4) -0.3531(4)
H53 H 0.0857 0.2161 -0.4145
C57 C 0.2710(5) 0.3071(4) -0.2081(4)
C58 C 0.4590(7) 0.4158(5) 0.3906(4)
H54 H 0.4928 0.4198 0.4496
H55 H 0.3808 0.3936 0.3730
H56 H 0.4923 0.4779 0.3948
C59 C 0.5463(5) 0.1861(4) 0.4872(4)
C60 C 0.9228(5) 0.0102(4) 0.4178(4)
H57 H 0.9897 0.0171 0.4101
H58 H 0.8866 -0.0501 0.4165
H59 H 0.9409 0.0611 0.4762
C61 C 0.2708(5) -0.4082(4) 0.1471(5)
H60 H 0.3336 -0.3971 0.1965
H61 H 0.2419 -0.4699 0.0955
H62 H 0.2141 -0.4061 0.1679
C62 C 0.8204(5) 0.4590(4) 0.3150(4)
H63 H 0.7889 0.3907 0.2965
C63 C 0.4757(5) 0.2194(4) 0.5124(4)
C64 C 0.7308(5) 0.2073(4) 0.4870(5)
H64 H 0.6845 0.1558 0.4232
C65 C 0.6990(5) 0.3397(4) 0.5823(4)
H65 H 0.7744 0.3812 0.6060
C66 C 0.0141(5) 0.1604(4) -0.1909(4)
H66 H 0.0460 0.2032 -0.1243
C67 C 1.0901(6) 0.3601(6) 0.1461(5)
H67 H 1.1452 0.4213 0.1599
H68 H 1.1029 0.3108 0.1092
H69 H 1.0948 0.3580 0.2027
C68 C 0.7269(7) 0.4813(6) 0.2999(7)
H70 H 0.6877 0.4640 0.3349
H71 H 0.6772 0.4458 0.2353
H72 H 0.7551 0.5484 0.3198
C69 C 0.7691(9) 0.1658(9) 0.5426(7)
H73 H 0.8131 0.1396 0.5200
H74 H 0.7061 0.1160 0.5384
H75 H 0.8133 0.2144 0.6060
Na1A Na 0.53244(17) -0.01755(14) -0.12918(13)
Na2A Na 0.45612(16) 0.13020(14) -0.01632(13)
Na3A Na 0.31127(16) -0.16528(14) -0.12547(13)
C1A C 0.0954(5) -0.5557(4) -0.2443(5)
H1A H 0.1121 -0.6021 -0.2766
C2A C 0.0464(5) -0.5694(4) -0.1879(5)
H2A H 0.0292 -0.6247 -0.1819
C3A C 0.0232(5) -0.3447(5) -0.0938(5)
H3A H 0.0774 -0.2841 -0.0851
C4A C 0.3677(7) -0.3736(5) -0.6090(4)
H4A H 0.3379 -0.4375 -0.6518
C5A C 0.4776(6) -0.3142(5) -0.5731(4)
H5A H 0.5232 -0.3388 -0.5902
C6A C 0.0228(5) -0.5021(4) -0.1403(5)
H6A H -0.0105 -0.5119 -0.1014
C7A C 0.6437(5) -0.1541(6) -0.4743(5)
H7A H 0.6647 -0.1028 -0.4135
C8A C 0.9858(6) -0.0681(5) 0.2029(5)
H8A H 1.0270 -0.0422 0.1730
H9A H 0.9106 -0.0797 0.1758
H10A H 1.0196 -0.0235 0.2677
C9A C 0.0460(5) -0.4206(4) -0.1473(4)
C10A C 1.1016(5) -0.1449(5) 0.2316(5)
H11A H 1.1383 -0.0971 0.2955
H12A H 1.0996 -0.2037 0.2272
H13A H 1.1414 -0.1239 0.1985
C11A C 0.5379(7) -0.3903(8) 0.1961(7)
H14A H 0.5608 -0.4140 0.2374
H15A H 0.5434 -0.3293 0.2308
H16A H 0.4622 -0.4344 0.1518
C12A C 0.6055(6) -0.4743(5) 0.0983(6)
H17A H 0.5292 -0.5232 0.0655
H18A H 0.6380 -0.4733 0.0552
H19A H 0.6456 -0.4874 0.1428
C13A C 0.6110(5) -0.3799(5) 0.1468(4)
H20A H 0.5819 -0.3621 0.1003
C14A C 0.1015(7) -0.5107(8) -0.4127(5)
H21A H 0.0445 -0.4916 -0.4203
H22A H 0.1405 -0.4963 -0.4487
H23A H 0.0683 -0.5782 -0.4330
C15A C 0.6667(8) -0.1105(8) -0.5321(8)
H24A H 0.6422 -0.1595 -0.5935
H25A H 0.6278 -0.0739 -0.5341
H26A H 0.7451 -0.0692 -0.5067
C16A C 0.1744(7) -0.2806(6) -0.4865(7)
H27A H 0.2021 -0.3071 -0.4500
H28A H 0.1345 -0.2516 -0.4603
H29A H 0.1255 -0.3306 -0.5487
C17A C 0.7166(8) -0.2004(9) -0.4609(8)
H30A H 0.7904 -0.1523 -0.4153
H31A H 0.6866 -0.2457 -0.4405
H32A H 0.7193 -0.2327 -0.5185
C18A C 0.4462(5) -0.2433(4) -0.2774(4)
H33A H 0.4026 -0.2173 -0.2975
C19A C 0.6308(5) -0.3676(4) -0.1953(4)
H34A H 0.6436 -0.4106 -0.2370
O1A O 0.3698(3) -0.0211(2) -0.1332(2)
O2A O 0.4764(3) -0.1575(2) -0.1262(2)
O3A O 0.6220(3) 0.1355(2) -0.0241(2)
C20A C 0.1952(4) -0.0952(3) -0.2558(3)
C21A C 0.3041(4) -0.0176(3) -0.1984(3)
N1A N 0.5911(3) 0.0764(3) -0.2032(3)
C22A C 0.6434(4) 0.1977(4) -0.0536(3)
C23A C 0.6770(5) 0.2915(4) 0.0000(4)
H35A H 0.6825 0.3120 0.0601
C24A C 0.0146(4) -0.1713(4) -0.3767(4)
H36A H -0.0395 -0.1724 -0.4224
N2A N 0.1209(3) -0.3259(3) -0.2162(3)
N3A N 0.5946(3) -0.2414(3) -0.0708(3)
C25A C 0.6727(5) -0.3457(4) -0.1064(4)
H37A H 0.7141 -0.3729 -0.0856
C26A C -0.0102(4) -0.2462(4) -0.3607(4)
H38A H -0.0809 -0.2988 -0.3943
C27A C 0.6558(4) 0.2386(4) -0.1771(4)
C28A C 0.6944(5) 0.3336(4) -0.1185(4)
N4A N 0.1690(3) -0.1710(3) -0.2424(3)
C29A C 0.4645(5) -0.3053(4) -0.3412(4)
H39A H 0.4340 -0.3182 -0.4025
C30A C 0.0499(4) -0.3257(4) -0.2772(4)
H40A H -0.0192 -0.3800 -0.3137
C31A C 0.5522(4) -0.2637(3) -0.1613(3)
C32A C 0.6360(5) 0.2048(4) -0.2697(4)
H41A H 0.6519 0.2478 -0.2929
C33A C 0.7992(4) -0.2649(4) 0.1752(4)
N5A N 0.7591(4) -0.2878(3) 0.0811(3)
C34A C 0.5237(5) -0.3483(4) -0.3202(4)
N6A N 0.4972(3) -0.0879(3) -0.4333(3)
C35A C 0.9119(5) -0.2068(4) 0.2285(4)
C36A C 0.5947(5) 0.1116(4) -0.3264(4)
H42A H 0.5801 0.0894 -0.3887
C37A C 0.7035(5) 0.3576(4) -0.0315(4)
H43A H 0.7287 0.4215 0.0089
C38A C 0.4898(4) -0.2184(4) -0.1853(3)
C39A C 0.9517(5) -0.1905(4) 0.3173(4)
H44A H 1.0274 -0.1514 0.3549
C40A C 0.6992(4) -0.2553(4) 0.0513(4)
H45A H 0.6842 -0.2137 0.0923
C41A C 0.1526(4) -0.0138(4) -0.3419(3)
C42A C 0.1208(4) -0.4761(4) -0.2551(4)
C43A C 0.7753(5) -0.2862(4) 0.2992(4)
H46A H 0.7296 -0.3123 0.3242
C44A C 0.6527(4) -0.2815(4) -0.0462(3)
C45A C 0.1189(4) -0.0923(4) -0.3269(3)
C46A C 0.0922(5) -0.4109(4) -0.2083(4)
C47A C 0.3424(5) -0.2453(4) -0.5210(4)
C48A C 0.6301(4) 0.1695(4) -0.1471(3)
C49A C 0.5744(4) 0.0494(4) -0.2900(3)
C50A C 0.5297(4) -0.0513(4) -0.3474(4)
H47A H 0.5247 -0.0907 -0.3199
C51A C 0.2566(5) 0.0577(4) -0.2873(4)
H48A H 0.2795 0.1099 -0.2981
C52A C 0.5682(5) -0.3278(4) -0.2275(4)
C53A C 0.0714(4) -0.2434(4) -0.2933(4)
C54A C 0.3322(4) 0.0587(4) -0.2154(4)
H49A H 0.3882 0.0548 -0.2385
C55A C 0.0375(6) -0.3337(6) 0.0004(5)
H50A H 0.1072 -0.3306 0.0309
H51A H 0.0368 -0.2761 0.0361
H52A H -0.0222 -0.3875 -0.0053
C56A C 0.8848(5) -0.2290(4) 0.3531(4)
H53A H 0.9143 -0.2161 0.4145
C57A C 0.7290(5) -0.3071(4) 0.2081(4)
C58A C 0.5410(7) -0.4158(5) -0.3906(4)
H54A H 0.5072 -0.4198 -0.4496
H55A H 0.6192 -0.3936 -0.3730
H56A H 0.5077 -0.4779 -0.3948
C59A C 0.4537(5) -0.1861(4) -0.4872(4)
C60A C 0.0772(5) -0.0102(4) -0.4178(4)
H57A H 0.0103 -0.0171 -0.4101
H58A H 0.1134 0.0501 -0.4165
H59A H 0.0591 -0.0611 -0.4762
C61A C 0.7292(5) 0.4082(4) -0.1471(5)
H60A H 0.6664 0.3971 -0.1965
H61A H 0.7581 0.4699 -0.0955
H62A H 0.7859 0.4061 -0.1679
C62A C 0.1796(5) -0.4590(4) -0.3150(4)
H63A H 0.2111 -0.3907 -0.2965
C63A C 0.5243(5) -0.2194(4) -0.5124(4)
C64A C 0.2692(5) -0.2073(4) -0.4870(5)
H64A H 0.3155 -0.1558 -0.4232
C65A C 0.3010(5) -0.3397(4) -0.5823(4)
H65A H 0.2256 -0.3812 -0.6060
C66A C 0.9859(5) -0.1604(4) 0.1909(4)
H66A H 0.9540 -0.2032 0.1243
C67A C -0.0901(6) -0.3601(6) -0.1461(5)
H67A H -0.1452 -0.4213 -0.1599
H68A H -0.1029 -0.3108 -0.1092
H69A H -0.0948 -0.3580 -0.2027
C68A C 0.2731(7) -0.4813(6) -0.2999(7)
H70A H 0.3123 -0.4640 -0.3349
H71A H 0.3228 -0.4458 -0.2353
H72A H 0.2449 -0.5484 -0.3198
C69A C 0.2309(9) -0.1658(9) -0.5426(7)
H73A H 0.1869 -0.1396 -0.5200
H74A H 0.2939 -0.1160 -0.5384
H75A H 0.1867 -0.2144 -0.6060
C70 C 0.1694(13) 0.1680(8) 0.2010(10)
H76 H 0.0942 0.1447 0.1948
H77 H 0.1928 0.2269 0.1980
H78 H 0.2172 0.1787 0.2594
C71 C 0.2164(8) 0.0406(10) 0.1445(9)
H79 H 0.2418 0.0495 0.2047
C72 C 0.1415(8) 0.0817(8) 0.0369(9)
H80 H 0.1137 0.1192 0.0206
C73 C 0.1487(8) 0.0073(9) -0.0315(8)
H81 H 0.1260 -0.0033 -0.0924
C74 C 0.1858(9) -0.0433(9) -0.0085(8)
H82 H 0.1886 -0.0925 -0.0527
C75 C 0.2207(9) -0.0264(11) 0.0787(10)
H83 H 0.2497 -0.0635 0.0944
C76 C 0.1756(8) 0.0960(7) 0.1246(7)
loop_
_geom_bond_atom_site_label_1
_geom_bond_atom_site_label_2
_geom_bond_site_symmetry_1
_geom_bond_site_symmetry_2
Na1 O1 1_555 1_555
Na2 O1 1_555 1_555
Na3 O1 1_555 1_555
C1 H1 1_555 1_555
C2 C1 1_555 1_555
H2 C2 1_555 1_555
C3 H3 1_555 1_555
C4 H4 1_555 1_555
C5 C4 1_555 1_555
H5 C5 1_555 1_555
C6 C2 1_555 1_555
H6 C6 1_555 1_555
C7 H7 1_555 1_555
C8 H8 1_555 1_555
H9 C8 1_555 1_555
H10 C8 1_555 1_555
C9 C3 1_555 1_555
C10 H11 1_555 1_555
H12 C10 1_555 1_555
H13 C10 1_555 1_555
C11 H14 1_555 1_555
H15 C11 1_555 1_555
H16 C11 1_555 1_555
C12 H17 1_555 1_555
H18 C12 1_555 1_555
H19 C12 1_555 1_555
C13 C11 1_555 1_555
H20 C13 1_555 1_555
C14 H21 1_555 1_555
H22 C14 1_555 1_555
H23 C14 1_555 1_555
C15 C7 1_555 1_555
H24 C15 1_555 1_555
H25 C15 1_555 1_555
H26 C15 1_555 1_555
C16 H27 1_555 1_555
H28 C16 1_555 1_555
H29 C16 1_555 1_555
C17 C7 1_555 1_555
H30 C17 1_555 1_555
H31 C17 1_555 1_555
H32 C17 1_555 1_555
C18 H33 1_555 1_555
C19 H34 1_555 1_555
O1 C21 1_555 1_555
O2 Na1 1_555 1_555
O3 Na1 1_555 1_555
C20 C21 1_555 1_555
C21 C54 1_555 1_555
N1 Na1 1_555 1_555
C22 O3 1_555 1_555
C23 C22 1_555 1_555
H35 C23 1_555 1_555
C24 H36 1_555 1_555
N2 Na3 1_555 1_555
N3 C31 1_555 1_555
C25 C19 1_555 1_555
H37 C25 1_555 1_555
C26 C24 1_555 1_555
H38 C26 1_555 1_555
C27 C28 1_555 1_555
C28 C37 1_555 1_555
N4 Na3 1_555 1_555
C29 C18 1_555 1_555
H39 C29 1_555 1_555
C30 N2 1_555 1_555
H40 C30 1_555 1_555
C31 C38 1_555 1_555
C32 C27 1_555 1_555
H41 C32 1_555 1_555
C33 N5 1_555 1_555
N5 C40 1_555 1_555
C34 C29 1_555 1_555
N6 C50 1_555 1_555
C35 C33 1_555 1_555
C36 C32 1_555 1_555
H42 C36 1_555 1_555
C37 C23 1_555 1_555
H43 C37 1_555 1_555
C38 C18 1_555 1_555
C39 C35 1_555 1_555
H44 C39 1_555 1_555
C40 H45 1_555 1_555
C41 C45 1_555 1_555
C42 C1 1_555 1_555
C43 H46 1_555 1_555
C44 N3 1_555 1_555
C45 C20 1_555 1_555
C46 C9 1_555 1_555
C47 C59 1_555 1_555
C48 N1 1_555 1_555
C49 N1 1_555 1_555
C50 C49 1_555 1_555
H47 C50 1_555 1_555
C51 C41 1_555 1_555
H48 C51 1_555 1_555
C52 C19 1_555 1_555
C53 C26 1_555 1_555
C54 C51 1_555 1_555
H49 C54 1_555 1_555
C55 C3 1_555 1_555
H50 C55 1_555 1_555
H51 C55 1_555 1_555
H52 C55 1_555 1_555
C56 C39 1_555 1_555
H53 C56 1_555 1_555
C57 C13 1_555 1_555
C58 C34 1_555 1_555
H54 C58 1_555 1_555
H55 C58 1_555 1_555
H56 C58 1_555 1_555
C59 N6 1_555 1_555
C60 C41 1_555 1_555
H57 C60 1_555 1_555
H58 C60 1_555 1_555
H59 C60 1_555 1_555
C61 C28 1_555 1_555
H60 C61 1_555 1_555
H61 C61 1_555 1_555
H62 C61 1_555 1_555
C62 C14 1_555 1_555
H63 C62 1_555 1_555
C63 C5 1_555 1_555
C64 C16 1_555 1_555
H64 C64 1_555 1_555
C65 C4 1_555 1_555
H65 C65 1_555 1_555
C66 C8 1_555 1_555
H66 C66 1_555 1_555
C67 C3 1_555 1_555
H67 C67 1_555 1_555
H68 C67 1_555 1_555
H69 C67 1_555 1_555
C68 C62 1_555 1_555
H70 C68 1_555 1_555
H71 C68 1_555 1_555
H72 C68 1_555 1_555
C69 C64 1_555 1_555
H73 C69 1_555 1_555
H74 C69 1_555 1_555
H75 C69 1_555 1_555
C70 H76 1_555 1_555
H77 C70 1_555 1_555
H78 C70 1_555 1_555
C71 H79 1_555 1_555
C72 H80 1_555 1_555
C73 C72 1_555 1_555
H81 C73 1_555 1_555
C74 C73 1_555 1_555
H82 C74 1_555 1_555
C75 C71 1_555 1_555
H83 C75 1_555 1_555
C76 C70 1_555 1_555
Na1A O1A 1_555 1_555
Na2A O2 1_555 1_555
Na3A O3 1_555 1_555
C1A H1A 1_555 1_555
C2A C1A 1_555 1_555
H2A C2A 1_555 1_555
C3A H3A 1_555 1_555
C4A H4A 1_555 1_555
C5A C4A 1_555 1_555
H5A C5A 1_555 1_555
C6A C2A 1_555 1_555
H6A C6A 1_555 1_555
C7A H7A 1_555 1_555
C8A H8A 1_555 1_555
H9A C8A 1_555 1_555
H10A C8A 1_555 1_555
C9A C3A 1_555 1_555
C10A H11A 1_555 1_555
H12A C10A 1_555 1_555
H13A C10A 1_555 1_555
C11A H14A 1_555 1_555
H15A C11A 1_555 1_555
H16A C11A 1_555 1_555
C12A H17A 1_555 1_555
H18A C12A 1_555 1_555
H19A C12A 1_555 1_555
C13A C11A 1_555 1_555
H20A C13A 1_555 1_555
C14A H21A 1_555 1_555
H22A C14A 1_555 1_555
H23A C14A 1_555 1_555
C15A C7A 1_555 1_555
H24A C15A 1_555 1_555
H25A C15A 1_555 1_555
H26A C15A 1_555 1_555
C16A H27A 1_555 1_555
H28A C16A 1_555 1_555
H29A C16A 1_555 1_555
C17A C7A 1_555 1_555
H30A C17A 1_555 1_555
H31A C17A 1_555 1_555
H32A C17A 1_555 1_555
C18A H33A 1_555 1_555
C19A H34A 1_555 1_555
O1A Na2A 1_555 1_555
O2A Na2 1_555 1_555
O3A Na3 1_555 1_555
C20A C21A 1_555 1_555
C21A O1A 1_555 1_555
N1A Na1A 1_555 1_555
C22A O3A 1_555 1_555
C23A C22A 1_555 1_555
H35A C23A 1_555 1_555
C24A H36A 1_555 1_555
N2A Na3A 1_555 1_555
N3A Na2 1_555 1_555
C25A C19A 1_555 1_555
H37A C25A 1_555 1_555
C26A C24A 1_555 1_555
H38A C26A 1_555 1_555
C27A C28A 1_555 1_555
C28A C37A 1_555 1_555
N4A Na3A 1_555 1_555
C29A C18A 1_555 1_555
H39A C29A 1_555 1_555
C30A N2A 1_555 1_555
H40A C30A 1_555 1_555
C31A N3A 1_555 1_555
C32A C27A 1_555 1_555
H41A C32A 1_555 1_555
C33A N5A 1_555 1_555
N5A C40A 1_555 1_555
C34A C29A 1_555 1_555
N6A C50A 1_555 1_555
C35A C33A 1_555 1_555
C36A C32A 1_555 1_555
H42A C36A 1_555 1_555
C37A C23A 1_555 1_555
H43A C37A 1_555 1_555
C38A C18A 1_555 1_555
C39A C35A 1_555 1_555
H44A C39A 1_555 1_555
C40A H45A 1_555 1_555
C41A C45A 1_555 1_555
C42A C1A 1_555 1_555
C43A H46A 1_555 1_555
C44A N3A 1_555 1_555
C45A C20A 1_555 1_555
C46A C9A 1_555 1_555
C47A C59A 1_555 1_555
C48A N1A 1_555 1_555
C49A N1A 1_555 1_555
C50A C49A 1_555 1_555
H47A C50A 1_555 1_555
C51A C41A 1_555 1_555
H48A C51A 1_555 1_555
C52A C19A 1_555 1_555
C53A C26A 1_555 1_555
C54A C21A 1_555 1_555
H49A C54A 1_555 1_555
C55A C3A 1_555 1_555
H50A C55A 1_555 1_555
H51A C55A 1_555 1_555
H52A C55A 1_555 1_555
C56A C39A 1_555 1_555
H53A C56A 1_555 1_555
C57A C13A 1_555 1_555
C58A C34A 1_555 1_555
H54A C58A 1_555 1_555
H55A C58A 1_555 1_555
H56A C58A 1_555 1_555
C59A N6A 1_555 1_555
C60A C41A 1_555 1_555
H57A C60A 1_555 1_555
H58A C60A 1_555 1_555
H59A C60A 1_555 1_555
C61A C28A 1_555 1_555
H60A C61A 1_555 1_555
H61A C61A 1_555 1_555
H62A C61A 1_555 1_555
C62A C14A 1_555 1_555
H63A C62A 1_555 1_555
C63A C5A 1_555 1_555
C64A C16A 1_555 1_555
H64A C64A 1_555 1_555
C65A C4A 1_555 1_555
H65A C65A 1_555 1_555
C66A C8A 1_555 1_555
H66A C66A 1_555 1_555
C67A C3A 1_555 1_555
H67A C67A 1_555 1_555
H68A C67A 1_555 1_555
H69A C67A 1_555 1_555
C68A C62A 1_555 1_555
H70A C68A 1_555 1_555
H71A C68A 1_555 1_555
H72A C68A 1_555 1_555
C69A C64A 1_555 1_555
H73A C69A 1_555 1_555
H74A C69A 1_555 1_555
H75A C69A 1_555 1_555
Na2 O3 1_555 1_555
Na3 O2 1_555 1_555
C6 C9 1_555 1_555
C7 C63 1_555 1_555
C10 C66 1_555 1_555
C12 C13 1_555 1_555
O2 C38 1_555 1_555
C20 N4 1_555 1_555
C22 C48 1_555 1_555
C24 C45 1_555 1_555
N2 C46 1_555 1_555
N3 Na2A 1_555 1_555
C25 C44 1_555 1_555
C27 C48 1_555 1_555
N4 C53 1_555 1_555
C30 C53 1_555 1_555
C31 C52 1_555 1_555
C33 C57 1_555 1_555
C34 C52 1_555 1_555
C35 C66 1_555 1_555
C36 C49 1_555 1_555
C40 C44 1_555 1_555
C42 C46 1_555 1_555
C42 C62 1_555 1_555
C43 C56 1_555 1_555
C43 C57 1_555 1_555
C47 C64 1_555 1_555
C47 C65 1_555 1_555
C59 C63 1_555 1_555
C71 C76 1_555 1_555
C72 C76 1_555 1_555
C74 C75 1_555 1_555
Na1A O2A 1_555 1_555
Na1A O3A 1_555 1_555
Na2A O3A 1_555 1_555
Na3A O1A 1_555 1_555
Na3A O2A 1_555 1_555
C6A C9A 1_555 1_555
C7A C63A 1_555 1_555
C10A C66A 1_555 1_555
C12A C13A 1_555 1_555
O2A C38A 1_555 1_555
C20A N4A 1_555 1_555
C22A C48A 1_555 1_555
C24A C45A 1_555 1_555
N2A C46A 1_555 1_555
C25A C44A 1_555 1_555
C27A C48A 1_555 1_555
N4A C53A 1_555 1_555
C30A C53A 1_555 1_555
C31A C38A 1_555 1_555
C31A C52A 1_555 1_555
C33A C57A 1_555 1_555
C34A C52A 1_555 1_555
C35A C66A 1_555 1_555
C36A C49A 1_555 1_555
C40A C44A 1_555 1_555
C42A C46A 1_555 1_555
C42A C62A 1_555 1_555
C43A C56A 1_555 1_555
C43A C57A 1_555 1_555
C47A C64A 1_555 1_555
C47A C65A 1_555 1_555
C51A C54A 1_555 1_555
C59A C63A 1_555 1_555

#END
