
#######################################################################
#
#                 Cambridge Crystallographic Data Centre
#                                CCDC 
#
#######################################################################
#
# If this CIF has been generated from an entry in the Cambridge 
# Structural Database, then it will include bibliographic, chemical, 
# crystal, experimental, refinement or atomic coordinate data resulting 
# from the CCDC's data processing and validation procedures.
#
#######################################################################

data_ERIKIB
_chemical_formula_moiety         'C15 H18 N4 O6'
_chemical_name_systematic        
1-(2,4-dinitrophenyl)-2-(5-methyltetrahydro-2H,5H-pyrano[2,3-b]pyran-3(4H)-ylidene)hydrazine
_symmetry_cell_setting           monoclinic
_symmetry_space_group_name_H-M   'P 21/c'
_symmetry_Int_Tables_number      14
_space_group_name_Hall           '-P 2ybc'
loop_
_symmetry_equiv_pos_site_id
_symmetry_equiv_pos_as_xyz
1 x,y,z
2 -x,1/2+y,1/2-z
3 -x,-y,-z
4 x,1/2-y,1/2+z
_cell_length_a                   5.76250(10)
_cell_length_b                   23.3095(5)
_cell_length_c                   11.9536(2)
_cell_angle_alpha                90
_cell_angle_beta                 103.9460(10)
_cell_angle_gamma                90
_cell_volume                     1558.29
_exptl_crystal_colour            yellow
_exptl_crystal_description       block
_cell_formula_units_Z            4
loop_
_atom_site_label
_atom_site_type_symbol
_atom_site_fract_x
_atom_site_fract_y
_atom_site_fract_z
O1 O 1.0653(2) 0.33734(5) 0.73751(10)
O2 O 1.1843(2) 0.37718(5) 0.58580(10)
O3 O 0.0561(2) 0.36538(5) 0.31770(11)
O4 O -0.2709(2) 0.39605(6) 0.20463(11)
O5 O -0.3206(2) 0.57085(7) 0.00365(13)
O6 O -0.0012(3) 0.61989(6) 0.00579(11)
N1 N 0.6579(2) 0.44611(6) 0.43199(12)
N2 N 0.4257(2) 0.43258(6) 0.37564(12)
H1 H 0.3600 0.4009 0.3937
N3 N -0.0602(2) 0.40228(6) 0.25215(12)
N4 N -0.1076(3) 0.58032(7) 0.03969(12)
C1 C 0.8025(3) 0.24698(7) 0.59500(14)
H2 H 0.9343 0.2184 0.6004
C2 C 0.7799(3) 0.25842(7) 0.71802(15)
H3 H 0.6438 0.2846 0.7161
H4 H 0.7480 0.2219 0.7540
C3 C 1.0083(3) 0.28511(8) 0.78920(15)
H5 H 0.9892 0.2934 0.8677
H6 H 1.1417 0.2576 0.7961
C4 C 1.1033(3) 0.32631(7) 0.62687(15)
H7 H 1.2331 0.2970 0.6354
C5 C 1.0135(3) 0.42295(7) 0.56995(14)
H8 H 1.0754 0.4557 0.5332
H9 H 0.9956 0.4358 0.6464
C6 C 0.7717(3) 0.40636(7) 0.49709(14)
C7 C 0.6817(3) 0.34748(7) 0.51525(15)
H10 H 0.5631 0.3355 0.4445
H11 H 0.5991 0.3490 0.5789
C8 C 0.8810(3) 0.30258(7) 0.54402(13)
H12 H 0.9254 0.2922 0.4707
C9 C 0.5773(3) 0.22051(8) 0.51869(16)
H13 H 0.5455 0.1835 0.5510
H14 H 0.6003 0.2147 0.4409
H15 H 0.4414 0.2463 0.5152
C10 C 0.2985(3) 0.46747(7) 0.29310(13)
C11 C 0.3980(3) 0.51922(7) 0.26280(15)
H16 H 0.5576 0.5291 0.3006
C12 C 0.2691(3) 0.55529(7) 0.18022(15)
H17 H 0.3401 0.5892 0.1597
C13 C 0.0324(3) 0.54168(7) 0.12655(14)
C14 C -0.0737(3) 0.49226(7) 0.15200(13)
H18 H -0.2349 0.4837 0.1147
C15 C 0.0596(3) 0.45495(7) 0.23363(13)
loop_
_geom_bond_atom_site_label_1
_geom_bond_atom_site_label_2
_geom_bond_site_symmetry_1
_geom_bond_site_symmetry_2
O1 C3 1_555 1_555
O2 C4 1_555 1_555
O3 N3 1_555 1_555
O4 N3 1_555 1_555
O5 N4 1_555 1_555
O6 N4 1_555 1_555
N1 N2 1_555 1_555
N2 H1 1_555 1_555
N3 C15 1_555 1_555
N4 C13 1_555 1_555
C1 H2 1_555 1_555
C2 C1 1_555 1_555
H3 C2 1_555 1_555
H4 C2 1_555 1_555
C3 C2 1_555 1_555
H5 C3 1_555 1_555
H6 C3 1_555 1_555
C4 O1 1_555 1_555
H7 C4 1_555 1_555
C5 O2 1_555 1_555
H8 C5 1_555 1_555
H9 C5 1_555 1_555
C6 N1 1_555 1_555
C7 C6 1_555 1_555
H10 C7 1_555 1_555
H11 C7 1_555 1_555
C8 C1 1_555 1_555
H12 C8 1_555 1_555
C9 C1 1_555 1_555
H13 C9 1_555 1_555
H14 C9 1_555 1_555
H15 C9 1_555 1_555
C10 N2 1_555 1_555
C11 C10 1_555 1_555
H16 C11 1_555 1_555
C12 C11 1_555 1_555
H17 C12 1_555 1_555
C13 C12 1_555 1_555
C14 C13 1_555 1_555
H18 C14 1_555 1_555
C15 C10 1_555 1_555
C4 C8 1_555 1_555
C5 C6 1_555 1_555
C7 C8 1_555 1_555
C14 C15 1_555 1_555

#END
