
#######################################################################
#
#                 Cambridge Crystallographic Data Centre
#                                CCDC 
#
#######################################################################
#
# If this CIF has been generated from an entry in the Cambridge 
# Structural Database, then it will include bibliographic, chemical, 
# crystal, experimental, refinement or atomic coordinate data resulting 
# from the CCDC's data processing and validation procedures.
#
#######################################################################

data_ERILIA
_chemical_formula_moiety         'C26 H24 N2 O8'
_chemical_name_systematic        
2,5-Dimethoxy-1,4-bis(N-(2-(methoxycarbonyl)phenyl)carbamoyl)benzene
_symmetry_cell_setting           monoclinic
_symmetry_space_group_name_H-M   'P 21/n'
_symmetry_Int_Tables_number      14
_space_group_name_Hall           '-P 2yn'
loop_
_symmetry_equiv_pos_site_id
_symmetry_equiv_pos_as_xyz
1 x,y,z
2 1/2+x,1/2-y,1/2+z
3 -x,-y,-z
4 1/2-x,1/2+y,1/2-z
_cell_length_a                   4.0457(6)
_cell_length_b                   9.8264(16)
_cell_length_c                   28.394(4)
_cell_angle_alpha                90
_cell_angle_beta                 91.477(3)
_cell_angle_gamma                90
_cell_volume                     1128.42
_exptl_crystal_colour            colorless
_chemical_melting_point          255-257deg.C
_cell_formula_units_Z            2
_exptl_crystal_recrystallization_method chloroform
loop_
_atom_site_label
_atom_site_type_symbol
_atom_site_fract_x
_atom_site_fract_y
_atom_site_fract_z
N1 N 0.3108(5) 0.69747(18) 0.88774(6)
O1 O 0.7080(4) 0.74331(15) 0.96329(5)
O2 O 0.1545(6) 0.47668(16) 0.88155(6)
O3 O 0.4880(6) 0.96213(17) 0.90616(6)
O4 O 0.5343(4) 1.09382(15) 0.84380(5)
C1 C 0.6034(6) 0.6239(2) 0.98250(7)
C2 C 0.3074(6) 0.4162(2) 0.97245(8)
C3 C 0.4085(6) 0.5401(2) 0.95357(7)
C4 C 0.2798(6) 0.5680(2) 0.90414(8)
C5 C 0.1992(5) 0.7491(2) 0.84403(7)
C6 C 0.0240(6) 0.6695(3) 0.81141(8)
C7 C -0.0785(7) 0.7220(3) 0.76854(9)
C8 C -0.0030(7) 0.8538(3) 0.75606(9)
C9 C 0.1666(6) 0.9330(3) 0.78782(8)
C10 C 0.2674(5) 0.8856(2) 0.83210(7)
C11 C 0.8748(9) 0.8407(3) 0.99220(11)
C12 C 0.4385(6) 0.9801(2) 0.86486(8)
C13 C 0.7003(9) 1.1960(3) 0.87229(11)
H1 H 0.171(5) 0.3644(19) 0.9545(7)
H2 H -0.039(6) 0.583(2) 0.8183(8)
H3 H -0.210(6) 0.671(2) 0.7481(8)
H4 H -0.062(5) 0.884(2) 0.7253(7)
H5 H 0.203(6) 1.025(2) 0.7801(8)
H6 H 0.896(7) 0.913(3) 0.9683(10)
H7 H 0.724(6) 0.874(3) 1.0168(9)
H8 H 1.078(7) 0.805(3) 1.0078(9)
H9 H 0.858(7) 1.223(3) 0.8500(9)
H10 H 0.540(7) 1.252(3) 0.8868(10)
H11 H 0.842(7) 1.162(3) 0.8985(9)
H12 H 0.429(5) 0.757(2) 0.9078(8)
C2B C 0.6926(6) 0.5838(2) 1.02755(8)
C3B C 0.5915(6) 0.4599(2) 1.04643(7)
C1B C 0.3966(6) 0.3761(2) 1.01750(7)
O1B O 0.2920(4) 0.25669(15) 1.03671(5)
C11B C 0.1252(9) 0.1593(3) 1.00780(11)
H6B H 0.104(7) 0.087(3) 1.0317(10)
H7B H 0.276(6) 0.126(3) 0.9832(9)
H8B H -0.078(7) 0.195(3) 0.9922(9)
C4B C 0.7202(6) 0.4320(2) 1.09586(8)
N1B N 0.6892(5) 0.30253(18) 1.11226(6)
C5B C 0.8008(5) 0.2509(2) 1.15597(7)
C6B C 0.9760(6) 0.3305(3) 1.18859(8)
C7B C 1.0785(7) 0.2780(3) 1.23146(9)
C8B C 1.0030(7) 0.1462(3) 1.24394(9)
C9B C 0.8334(6) 0.0670(3) 1.21218(8)
C10B C 0.7326(5) 0.1144(2) 1.16790(7)
C12B C 0.5615(6) 0.0199(2) 1.13514(8)
O3B O 0.5120(6) 0.03787(17) 1.09384(6)
O4B O 0.4657(4) -0.09382(15) 1.15620(5)
C13B C 0.2997(9) -0.1960(3) 1.12771(11)
H9B H 0.142(7) -0.223(3) 1.1500(9)
H10B H 0.460(7) -0.252(3) 1.1132(10)
H11B H 0.158(7) -0.162(3) 1.1015(9)
H5B H 0.797(6) -0.025(2) 1.2199(8)
H4B H 1.062(5) 0.116(2) 1.2747(7)
H3B H 1.210(6) 0.329(2) 1.2519(8)
H2B H 1.039(6) 0.417(2) 1.1817(8)
H12B H 0.571(5) 0.243(2) 1.0922(8)
O2B O 0.8455(6) 0.52332(16) 1.11845(6)
H1B H 0.829(5) 0.6356(19) 1.0455(7)
loop_
_geom_bond_atom_site_label_1
_geom_bond_atom_site_label_2
_geom_bond_site_symmetry_1
_geom_bond_site_symmetry_2
N1 C4 1_555 1_555
O1 C1 1_555 1_555
O2 C4 1_555 1_555
O3 C12 1_555 1_555
O4 C12 1_555 1_555
C1 C3 1_555 1_555
C2 C3 1_555 1_555
C3 C4 1_555 1_555
C5 N1 1_555 1_555
C6 C5 1_555 1_555
C7 C6 1_555 1_555
C8 C7 1_555 1_555
C9 C8 1_555 1_555
C10 C5 1_555 1_555
C11 O1 1_555 1_555
C12 C10 1_555 1_555
C13 O4 1_555 1_555
H1 C2 1_555 1_555
H2 C6 1_555 1_555
H3 C7 1_555 1_555
H4 C8 1_555 1_555
H5 C9 1_555 1_555
H6 C11 1_555 1_555
H7 C11 1_555 1_555
H8 C11 1_555 1_555
H9 C13 1_555 1_555
H10 C13 1_555 1_555
H11 C13 1_555 1_555
H12 N1 1_555 1_555
C2B C1 1_555 1_555
C3B C2B 1_555 1_555
C1B C2 1_555 1_555
O1B C1B 1_555 1_555
C11B O1B 1_555 1_555
H6B C11B 1_555 1_555
H7B C11B 1_555 1_555
H8B C11B 1_555 1_555
C4B C3B 1_555 1_555
N1B C4B 1_555 1_555
C5B N1B 1_555 1_555
C6B C5B 1_555 1_555
C7B C6B 1_555 1_555
C8B C7B 1_555 1_555
C9B C8B 1_555 1_555
C10B C5B 1_555 1_555
C12B C10B 1_555 1_555
O3B C12B 1_555 1_555
O4B C12B 1_555 1_555
C13B O4B 1_555 1_555
H9B C13B 1_555 1_555
H10B C13B 1_555 1_555
H11B C13B 1_555 1_555
H5B C9B 1_555 1_555
H4B C8B 1_555 1_555
H3B C7B 1_555 1_555
H2B C6B 1_555 1_555
H12B N1B 1_555 1_555
O2B C4B 1_555 1_555
H1B C2B 1_555 1_555
C9 C10 1_555 1_555
C3B C1B 1_555 1_555
C9B C10B 1_555 1_555

#END
