
#######################################################################
#
#                 Cambridge Crystallographic Data Centre
#                                CCDC 
#
#######################################################################
#
# If this CIF has been generated from an entry in the Cambridge 
# Structural Database, then it will include bibliographic, chemical, 
# crystal, experimental, refinement or atomic coordinate data resulting 
# from the CCDC's data processing and validation procedures.
#
#######################################################################

data_ERILUO
_chemical_formula_moiety         'C56 H40 N2,x(C1 H2 Cl2)'
_chemical_name_systematic        
'3,6-bis(4-(triphenylvinyl)phenyl)pyridazine dichloromethane solvate'
_symmetry_cell_setting           monoclinic
_symmetry_space_group_name_H-M   'C 2/c'
_symmetry_Int_Tables_number      15
_space_group_name_Hall           '-C 2yn'
loop_
_symmetry_equiv_pos_site_id
_symmetry_equiv_pos_as_xyz
1 x,y,z
2 -x,y,1/2-z
3 1/2+x,1/2+y,z
4 1/2-x,1/2+y,1/2-z
5 -x,-y,-z
6 x,-y,1/2+z
7 1/2-x,1/2-y,-z
8 1/2+x,1/2-y,1/2+z
_cell_length_a                   47.441(2)
_cell_length_b                   5.6576(3)
_cell_length_c                   35.9697(17)
_cell_angle_alpha                90
_cell_angle_beta                 105.817(3)
_cell_angle_gamma                90
_cell_volume                     9288.81
_exptl_crystal_colour            colorless
_exptl_crystal_description       block
_cell_formula_units_Z            8
loop_
_atom_site_label
_atom_site_type_symbol
_atom_site_fract_x
_atom_site_fract_y
_atom_site_fract_z
C1 C 0.02078(19) 0.9048(16) 0.1930(3)
H1 H 0.0011 0.9120 0.1928
C2 C 0.0400(2) 1.0563(15) 0.2163(2)
H2 H 0.0340 1.1585 0.2329
C3 C 0.07035(19) 1.0532(13) 0.2145(2)
H3 H 0.0841 1.1550 0.2298
C4 C 0.07840(15) 0.8982(12) 0.18991(19)
C5 C 0.05750(19) 0.7420(15) 0.1685(2)
H4 H 0.0631 0.6326 0.1525
C6 C 0.02903(19) 0.7444(17) 0.1702(3)
H5 H 0.0155 0.6372 0.1558
C7 C 0.10962(17) 0.8866(11) 0.1893(2)
C8 C 0.11656(17) 0.9123(10) 0.1568(2)
C9 C 0.09429(14) 0.9709(11) 0.11844(17)
C10 C 0.07717(17) 1.1709(13) 0.1129(2)
H6 H 0.0778 1.2699 0.1338
C11 C 0.05965(19) 1.2253(18) 0.0781(4)
H7 H 0.0483 1.3614 0.0754
C12 C 0.0580(2) 1.092(2) 0.0474(3)
H8 H 0.0457 1.1347 0.0235
C13 C 0.07485(19) 0.886(2) 0.0510(2)
H9 H 0.0737 0.7902 0.0297
C14 C 0.09359(14) 0.8261(14) 0.08723(19)
H10 H 0.1053 0.6917 0.0902
C15 C 0.13207(15) 0.8423(11) 0.22638(17)
C16 C 0.12829(18) 0.6545(14) 0.2492(2)
H11 H 0.1123 0.5545 0.2406
C17 C 0.1486(2) 0.6136(16) 0.2853(2)
H12 H 0.1462 0.4866 0.3006
C18 C 0.1721(2) 0.7648(19) 0.2977(2)
H13 H 0.1862 0.7350 0.3208
C19 C 0.17463(19) 0.9529(17) 0.2768(2)
H14 H 0.1898 1.0590 0.2864
C20 C 0.15557(16) 0.9943(14) 0.24150(19)
H15 H 0.1582 1.1257 0.2273
C21 C 0.14797(13) 0.8828(10) 0.15364(17)
C22 C 0.16616(14) 0.6867(11) 0.16612(16)
H16 H 0.1598 0.5671 0.1796
C23 C 0.19302(13) 0.6654(10) 0.15913(17)
H17 H 0.2044 0.5315 0.1673
C24 C 0.20320(13) 0.8465(9) 0.13969(15)
C25 C 0.18550(12) 1.0410(9) 0.12744(15)
H18 H 0.1919 1.1620 0.1143
C26 C 0.15903(13) 1.0575(10) 0.13434(16)
H19 H 0.1477 1.1912 0.1258
C27 C 0.23263(13) 0.8271(9) 0.13188(16)
C28 C 0.24685(14) 0.6176(9) 0.12943(18)
H20 H 0.2384 0.4737 0.1328
C29 C 0.27320(14) 0.6246(10) 0.12214(17)
H21 H 0.2833 0.4859 0.1204
C30 C 0.28495(13) 0.8428(9) 0.11730(15)
C31 C 0.31405(13) 0.8733(9) 0.10939(15)
C32 C 0.33677(13) 0.7158(10) 0.12370(17)
H22 H 0.3334 0.5834 0.1372
C33 C 0.36375(14) 0.7495(11) 0.1185(2)
H23 H 0.3785 0.6404 0.1285
C34 C 0.36959(14) 0.9427(11) 0.0985(2)
C35 C 0.34668(15) 1.0986(11) 0.08296(19)
H24 H 0.3499 1.2269 0.0685
C36 C 0.31953(13) 1.0659(10) 0.08866(17)
H25 H 0.3047 1.1741 0.0785
C37 C 0.40184(18) 0.9927(12) 0.0994(2)
C38 C 0.42298(15) 1.0155(11) 0.13713(18)
C39 C 0.41403(17) 1.1527(15) 0.1650(3)
H26 H 0.3960 1.2293 0.1585
C40 C 0.4328(2) 1.171(2) 0.2025(3)
H27 H 0.4273 1.2601 0.2212
C41 C 0.4588(3) 1.059(2) 0.2113(3)
H28 H 0.4718 1.0783 0.2357
C42 C 0.4663(2) 0.9183(15) 0.1854(3)
H29 H 0.4838 0.8344 0.1925
C43 C 0.44900(14) 0.8981(12) 0.14967(19)
H30 H 0.4549 0.7997 0.1324
C44 C 0.40851(19) 1.0171(11) 0.0677(2)
C45 C 0.38663(14) 0.9812(11) 0.02664(16)
C46 C 0.36926(18) 0.7859(13) 0.0158(2)
H31 H 0.3691 0.6686 0.0339
C47 C 0.35222(17) 0.7620(16) -0.0212(3)
H32 H 0.3410 0.6262 -0.0280
C48 C 0.35121(19) 0.930(2) -0.0483(2)
H33 H 0.3391 0.9118 -0.0732
C49 C 0.36845(18) 1.1305(15) -0.0384(2)
H34 H 0.3680 1.2484 -0.0565
C50 C 0.38634(14) 1.1523(12) -0.00097(18)
H35 H 0.3984 1.2842 0.0057
C51 C 0.45221(18) 1.2960(13) 0.0822(2)
H36 H 0.4420 1.3927 0.0950
C52 C 0.43986(14) 1.0873(11) 0.06687(17)
C53 C 0.45451(16) 0.9444(14) 0.04702(19)
H37 H 0.4461 0.8046 0.0356
C54 C 0.4826(2) 1.015(2) 0.0444(2)
H38 H 0.4934 0.9246 0.0316
C55 C 0.4933(2) 1.234(2) 0.0627(3)
H39 H 0.5119 1.2834 0.0624
C56 C 0.4785(2) 1.3657(17) 0.0795(3)
H40 H 0.4862 1.5104 0.0898
N1 N 0.24481(11) 1.0360(8) 0.12715(15)
N2 N 0.27063(11) 1.0425(8) 0.11972(15)
C57 C 0.2273(3) 0.005(3) 0.0209(4)
H41 H 0.2478 0.0398 0.0239
H42 H 0.2262 -0.1142 0.0400
Cl1 Cl 0.20924(10) 0.2641(7) 0.02968(12)
Cl2 Cl 0.21287(8) -0.0995(6) -0.02189(9)
C58? C 0.2458(7) 1.178(7) 0.2261(9)
Cl3? Cl 0.2330(3) 1.365(3) 0.2574(4)
loop_
_geom_bond_atom_site_label_1
_geom_bond_atom_site_label_2
_geom_bond_site_symmetry_1
_geom_bond_site_symmetry_2
C1 H1 1_555 1_555
C2 C1 1_555 1_555
H2 C2 1_555 1_555
C3 C2 1_555 1_555
H3 C3 1_555 1_555
C4 C3 1_555 1_555
C5 C4 1_555 1_555
H4 C5 1_555 1_555
C6 C1 1_555 1_555
H5 C6 1_555 1_555
C7 C4 1_555 1_555
C8 C7 1_555 1_555
C9 C8 1_555 1_555
C10 C9 1_555 1_555
H6 C10 1_555 1_555
C11 C10 1_555 1_555
H7 C11 1_555 1_555
C12 C11 1_555 1_555
H8 C12 1_555 1_555
C13 C12 1_555 1_555
H9 C13 1_555 1_555
C14 C9 1_555 1_555
H10 C14 1_555 1_555
C15 C7 1_555 1_555
C16 C15 1_555 1_555
H11 C16 1_555 1_555
C17 C16 1_555 1_555
H12 C17 1_555 1_555
C18 C17 1_555 1_555
H13 C18 1_555 1_555
C19 C18 1_555 1_555
H14 C19 1_555 1_555
C20 C15 1_555 1_555
H15 C20 1_555 1_555
C21 C8 1_555 1_555
C22 C21 1_555 1_555
H16 C22 1_555 1_555
C23 C22 1_555 1_555
H17 C23 1_555 1_555
C24 C23 1_555 1_555
C25 C24 1_555 1_555
H18 C25 1_555 1_555
C26 C21 1_555 1_555
H19 C26 1_555 1_555
C27 C24 1_555 1_555
C28 C27 1_555 1_555
H20 C28 1_555 1_555
C29 C28 1_555 1_555
H21 C29 1_555 1_555
C30 C29 1_555 1_555
C31 C30 1_555 1_555
C32 C31 1_555 1_555
H22 C32 1_555 1_555
C33 C32 1_555 1_555
H23 C33 1_555 1_555
C34 C33 1_555 1_555
C35 C34 1_555 1_555
H24 C35 1_555 1_555
C36 C31 1_555 1_555
H25 C36 1_555 1_555
C37 C34 1_555 1_555
C38 C37 1_555 1_555
C39 C38 1_555 1_555
H26 C39 1_555 1_555
C40 C39 1_555 1_555
H27 C40 1_555 1_555
C41 C40 1_555 1_555
H28 C41 1_555 1_555
C42 C41 1_555 1_555
H29 C42 1_555 1_555
C43 C38 1_555 1_555
H30 C43 1_555 1_555
C44 C37 1_555 1_555
C45 C44 1_555 1_555
C46 C45 1_555 1_555
H31 C46 1_555 1_555
C47 C46 1_555 1_555
H32 C47 1_555 1_555
C48 C47 1_555 1_555
H33 C48 1_555 1_555
C49 C48 1_555 1_555
H34 C49 1_555 1_555
C50 C45 1_555 1_555
H35 C50 1_555 1_555
C51 H36 1_555 1_555
C52 C44 1_555 1_555
C53 C52 1_555 1_555
H37 C53 1_555 1_555
C54 C53 1_555 1_555
H38 C54 1_555 1_555
C55 C54 1_555 1_555
H39 C55 1_555 1_555
C56 C51 1_555 1_555
H40 C56 1_555 1_555
N1 C27 1_555 1_555
N2 C30 1_555 1_555
C57 H41 1_555 1_555
H42 C57 1_555 1_555
Cl1 C57 1_555 1_555
Cl2 C57 1_555 1_555
C5 C6 1_555 1_555
C13 C14 1_555 1_555
C19 C20 1_555 1_555
C25 C26 1_555 1_555
C35 C36 1_555 1_555
C42 C43 1_555 1_555
C49 C50 1_555 1_555
C51 C52 1_555 1_555
C55 C56 1_555 1_555
N1 N2 1_555 1_555

#END
