
#######################################################################
#
#                 Cambridge Crystallographic Data Centre
#                                CCDC 
#
#######################################################################
#
# If this CIF has been generated from an entry in the Cambridge 
# Structural Database, then it will include bibliographic, chemical, 
# crystal, experimental, refinement or atomic coordinate data resulting 
# from the CCDC's data processing and validation procedures.
#
#######################################################################

data_ERISAZ
_chemical_compound_source        'perennial herb Isodon lopthanthoids'
_chemical_name_common            'Micranthin C'
_chemical_formula_moiety         'C20 H28 O5'
_chemical_name_systematic        
7\a,11\a-Dihydroxy-14-oxo-13(12-11)abeo-abi\h-8-en-12,16-olide
_chemical_properties_biological  
'folk medicine for treatment of acute hepatitis, cholecystitis, enteritis, dystentry and trauma'
_symmetry_cell_setting           orthorhombic
_symmetry_space_group_name_H-M   'P 21 21 21'
_symmetry_Int_Tables_number      19
_space_group_name_Hall           'P 2ac 2ab'
loop_
_symmetry_equiv_pos_site_id
_symmetry_equiv_pos_as_xyz
1 x,y,z
2 1/2-x,-y,1/2+z
3 1/2+x,1/2-y,-z
4 -x,1/2+y,1/2-z
_cell_length_a                   8.1830(2)
_cell_length_b                   10.8520(5)
_cell_length_c                   20.1230(10)
_cell_angle_alpha                90
_cell_angle_beta                 90
_cell_angle_gamma                90
_cell_volume                     1786.96
_exptl_crystal_colour            colorless
_exptl_crystal_description       column
_chemical_melting_point          174-176deg.C
_cell_formula_units_Z            4
loop_
_atom_site_label
_atom_site_type_symbol
_atom_site_fract_x
_atom_site_fract_y
_atom_site_fract_z
O1 O 0.1715(4) 0.7364(3) 0.0566(1)
O2 O -0.4845(3) 0.7453(3) 0.0610(1)
O3 O -0.0202(4) 0.9867(3) 0.0978(2)
O4 O -0.4300(4) 0.8617(3) 0.2250(1)
O5 O -0.5810(4) 0.7118(3) 0.1847(1)
C1 C -0.3546(6) 0.4999(4) 0.0914(2)
C2 C -0.3367(6) 0.3580(4) 0.0956(3)
C3 C -0.1688(7) 0.3178(4) 0.0703(1)
C4 C -0.0250(6) 0.3744(4) 0.1085(2)
C5 C -0.0483(5) 0.5174(4) 0.1083(2)
C6 C 0.0900(6) 0.5900(4) 0.1428(2)
C7 C 0.0896(5) 0.7241(4) 0.1203(2)
C8 C -0.0813(5) 0.7715(4) 0.1113(2)
C9 C -0.2195(5) 0.7045(4) 0.1173(2)
C10 C -0.2185(5) 0.5667(4) 0.1313(2)
C11 C -0.3724(5) 0.7880(4) 0.1103(2)
C12 C -0.4728(5) 0.7846(4) 0.1758(2)
C13 C -0.3035(5) 0.9170(4) 0.0941(2)
C14 C -0.1165(6) 0.9023(4) 0.0996(2)
C15 C -0.3672(6) 1.0180(4) 0.1408(2)
C16 C -0.3370(7) 0.9736(5) 0.2114(2)
C17 C -0.5472(7) 1.0536(5) 0.1281(3)
C18 C 0.1340(7) 0.3417(5) 0.0707(3)
C19 C -0.0111(8) 0.3135(5) 0.1784(3)
C20 C -0.2493(6) 0.5493(4) 0.2076(2)
H1 H 0.271 0.775 0.061
H2 H -0.428 0.745 0.020
H3 H -0.474 0.527 0.111
H4 H -0.350 0.528 0.039
H5 H -0.432 0.314 0.067
H6 H -0.350 0.330 0.147
H7 H -0.156 0.345 0.018
H8 H -0.158 0.218 0.073
H9 H -0.039 0.544 0.057
H10 H 0.075 0.584 0.196
H11 H 0.207 0.546 0.129
H12 H 0.152 0.780 0.158
H13 H -0.335 0.941 0.043
H14 H -0.292 1.100 0.132
H15 H -0.369 1.046 0.246
H16 H -0.204 0.956 0.218
H17 H -0.626 0.973 0.134
H18 H -0.562 1.088 0.078
H19 H -0.577 1.124 0.164
H20 H 0.137 0.391 0.024
H21 H 0.139 0.244 0.061
H22 H 0.233 0.371 0.103
H23 H 0.076 0.364 0.209
H24 H 0.031 0.219 0.173
H25 H -0.133 0.317 0.200
H26 H -0.353 0.605 0.223
H27 H -0.142 0.581 0.235
H28 H -0.271 0.453 0.215
loop_
_geom_bond_atom_site_label_1
_geom_bond_atom_site_label_2
_geom_bond_site_symmetry_1
_geom_bond_site_symmetry_2
O1 C7 1_555 1_555
O2 C11 1_555 1_555
O3 C14 1_555 1_555
O4 C12 1_555 1_555
O5 C12 1_555 1_555
C1 C2 1_555 1_555
C2 C3 1_555 1_555
C3 C4 1_555 1_555
C4 C5 1_555 1_555
C5 C6 1_555 1_555
C6 C7 1_555 1_555
C7 C8 1_555 1_555
C8 C9 1_555 1_555
C9 C10 1_555 1_555
C10 C1 1_555 1_555
C11 C9 1_555 1_555
C12 C11 1_555 1_555
C13 C11 1_555 1_555
C14 C8 1_555 1_555
C15 C13 1_555 1_555
C16 O4 1_555 1_555
C17 C15 1_555 1_555
C18 C4 1_555 1_555
C19 C4 1_555 1_555
C20 C10 1_555 1_555
H1 O1 1_555 1_555
H2 O2 1_555 1_555
H3 C1 1_555 1_555
H4 C1 1_555 1_555
H5 C2 1_555 1_555
H6 C2 1_555 1_555
H7 C3 1_555 1_555
H8 C3 1_555 1_555
H9 C5 1_555 1_555
H10 C6 1_555 1_555
H11 C6 1_555 1_555
H12 C7 1_555 1_555
H13 C13 1_555 1_555
H14 C15 1_555 1_555
H15 C16 1_555 1_555
H16 C16 1_555 1_555
H17 C17 1_555 1_555
H18 C17 1_555 1_555
H19 C17 1_555 1_555
H20 C18 1_555 1_555
H21 C18 1_555 1_555
H22 C18 1_555 1_555
H23 C19 1_555 1_555
H24 C19 1_555 1_555
H25 C19 1_555 1_555
H26 C20 1_555 1_555
H27 C20 1_555 1_555
H28 C20 1_555 1_555
C5 C10 1_555 1_555
C13 C14 1_555 1_555
C15 C16 1_555 1_555

#END
