
#######################################################################
#
#                 Cambridge Crystallographic Data Centre
#                                CCDC 
#
#######################################################################
#
# If this CIF has been generated from an entry in the Cambridge 
# Structural Database, then it will include bibliographic, chemical, 
# crystal, experimental, refinement or atomic coordinate data resulting 
# from the CCDC's data processing and validation procedures.
#
#######################################################################

data_ERIWUY
_chemical_formula_moiety         '2(C1 H4 N2 O1),C6 H10 O4'
_chemical_name_systematic        'bis(Urea) hexanedioic acid'
_symmetry_cell_setting           triclinic
_symmetry_space_group_name_H-M   'P -1'
_symmetry_Int_Tables_number      2
_space_group_name_Hall           '-P 1'
loop_
_symmetry_equiv_pos_site_id
_symmetry_equiv_pos_as_xyz
1 x,y,z
2 -x,-y,-z
_cell_length_a                   7.2484(14)
_cell_length_b                   7.6965(15)
_cell_length_c                   11.964(2)
_cell_angle_alpha                101.81(3)
_cell_angle_beta                 92.55(3)
_cell_angle_gamma                91.92(3)
_cell_volume                     652.044
_exptl_crystal_colour            colorless
_exptl_crystal_description       block
_cell_formula_units_Z            2
loop_
_atom_site_label
_atom_site_type_symbol
_atom_site_fract_x
_atom_site_fract_y
_atom_site_fract_z
O1 O 0.5934(4) 0.6694(4) 0.8940(2)
O2 O 0.5075(3) 0.7886(3) 1.06743(19)
H1 H 0.4187 0.8216 1.0308
C1 C 0.6238(4) 0.7000(4) 0.9963(3)
C2 C 0.7946(4) 0.6471(4) 1.0527(3)
H2 H 0.7600 0.5941 1.1160
H3 H 0.8716 0.7530 1.0838
C3 C 0.9073(4) 0.5167(4) 0.9733(3)
H4 H 0.8368 0.4046 0.9506
H5 H 0.9276 0.5622 0.9048
O1A O 1.4066(4) 0.3306(4) 1.1060(2)
O2A O 1.4925(3) 0.2114(3) 0.93257(19)
H1A H 1.5813 0.1784 0.9692
C1A C 1.3762(4) 0.3000(4) 1.0037(3)
C2A C 1.2054(4) 0.3529(4) 0.9473(3)
H2A H 1.2400 0.4059 0.8840
H3A H 1.1284 0.2470 0.9162
C3A C 1.0927(4) 0.4833(4) 1.0267(3)
H4A H 1.1632 0.5954 1.0494
H5A H 1.0724 0.4378 1.0952
O3 O 0.1850(4) 0.3529(3) 0.37617(19)
O4 O 0.2542(3) 0.5187(3) 0.54892(18)
H6 H 0.2980 0.5916 0.5130
C4 C 0.1849(4) 0.3734(4) 0.4793(3)
C5 C 0.1037(5) 0.2411(4) 0.5417(3)
H7 H 0.0037 0.2953 0.5857
H8 H 0.1977 0.2146 0.5952
C6 C 0.0300(4) 0.0679(4) 0.4655(3)
H9 H 0.1253 0.0190 0.4153
H10 H -0.0745 0.0914 0.4182
O3A O -0.1850(4) -0.3529(3) 0.62383(19)
O4A O -0.2542(3) -0.5187(3) 0.45108(18)
H6A H -0.2980 -0.5916 0.4870
C4A C -0.1849(4) -0.3734(4) 0.5207(3)
C5A C -0.1037(5) -0.2411(4) 0.4583(3)
H7A H -0.0037 -0.2953 0.4143
H8A H -0.1977 -0.2146 0.4048
C6A C -0.0300(4) -0.0679(4) 0.5345(3)
H9A H -0.1253 -0.0190 0.5847
H10A H 0.0745 -0.0914 0.5818
O5 O 0.3998(3) 0.7766(3) 0.46884(18)
C7 C 0.4225(4) 0.7824(4) 0.3659(3)
N1 N 0.4904(4) 0.9306(3) 0.3376(2)
H11 H 0.5191 1.0232 0.3900
H12 H 0.5054 0.9332 0.2671
N2 N 0.3789(5) 0.6436(4) 0.2825(2)
H13 H 0.3341 0.5469 0.2982
H14 H 0.3953 0.6499 0.2127
O6 O 0.2201(3) 0.9024(3) 0.96911(17)
C8 C 0.1495(4) 0.8482(4) 0.8697(3)
N3 N 0.2432(4) 0.7456(4) 0.7892(2)
H15 H 0.3532 0.7161 0.8053
H16 H 0.1935 0.7093 0.7215
N4 N -0.0194(4) 0.8939(3) 0.8407(2)
H17 H -0.0815 0.9615 0.8904
H18 H -0.0660 0.8558 0.7723
loop_
_geom_bond_atom_site_label_1
_geom_bond_atom_site_label_2
_geom_bond_site_symmetry_1
_geom_bond_site_symmetry_2
O1 C1 1_555 1_555
O2 H1 1_555 1_555
C1 O2 1_555 1_555
C2 C1 1_555 1_555
H2 C2 1_555 1_555
H3 C2 1_555 1_555
C3 C2 1_555 1_555
H4 C3 1_555 1_555
H5 C3 1_555 1_555
O3 C4 1_555 1_555
O4 H6 1_555 1_555
C4 O4 1_555 1_555
C5 C4 1_555 1_555
H7 C5 1_555 1_555
H8 C5 1_555 1_555
C6 C5 1_555 1_555
H9 C6 1_555 1_555
H10 C6 1_555 1_555
O5 C7 1_555 1_555
C7 N1 1_555 1_555
N1 H11 1_555 1_555
H12 N1 1_555 1_555
N2 C7 1_555 1_555
H13 N2 1_555 1_555
H14 N2 1_555 1_555
O6 C8 1_555 1_555
C8 N3 1_555 1_555
N3 H15 1_555 1_555
H16 N3 1_555 1_555
N4 C8 1_555 1_555
H17 N4 1_555 1_555
H18 N4 1_555 1_555
O1A C1A 1_555 1_555
O2A H1A 1_555 1_555
C1A O2A 1_555 1_555
C2A C1A 1_555 1_555
H2A C2A 1_555 1_555
H3A C2A 1_555 1_555
C3A C3 1_555 1_555
H4A C3A 1_555 1_555
H5A C3A 1_555 1_555
O3A C4A 1_555 1_555
O4A H6A 1_555 1_555
C4A O4A 1_555 1_555
C5A C4A 1_555 1_555
H7A C5A 1_555 1_555
H8A C5A 1_555 1_555
C6A C6 1_555 1_555
H9A C6A 1_555 1_555
H10A C6A 1_555 1_555
C2A C3A 1_555 1_555
C5A C6A 1_555 1_555

#END
