
#######################################################################
#
#                 Cambridge Crystallographic Data Centre
#                                CCDC 
#
#######################################################################
#
# If this CIF has been generated from an entry in the Cambridge 
# Structural Database, then it will include bibliographic, chemical, 
# crystal, experimental, refinement or atomic coordinate data resulting 
# from the CCDC's data processing and validation procedures.
#
#######################################################################

data_EROBAQ
_chemical_formula_moiety         'C29 H28 F4 N2 O5'
_chemical_name_systematic        
"diethyl 2,2'-(2,6-dimethyl-5-(4-methylphenyl)-1-oxo-1,2,3,6-tetrahydroazepino[4,3-b]indole-4,10-diyl)bis(difluoroacetate)"
_symmetry_cell_setting           monoclinic
_symmetry_space_group_name_H-M   'P 21/c'
_symmetry_Int_Tables_number      14
_space_group_name_Hall           '-P 2ybc'
loop_
_symmetry_equiv_pos_site_id
_symmetry_equiv_pos_as_xyz
1 x,y,z
2 -x,1/2+y,1/2-z
3 -x,-y,-z
4 x,1/2-y,1/2+z
_cell_length_a                   12.4966(6)
_cell_length_b                   9.7777(4)
_cell_length_c                   22.6334(12)
_cell_angle_alpha                90
_cell_angle_beta                 100.263(4)
_cell_angle_gamma                90
_cell_volume                     2721.28
_exptl_crystal_colour            colorless
_exptl_crystal_description       block
_chemical_melting_point          '190-192 deg.C'
_cell_formula_units_Z            4
loop_
_atom_site_label
_atom_site_type_symbol
_atom_site_fract_x
_atom_site_fract_y
_atom_site_fract_z
F1 F 0.48026(14) 0.56692(19) 0.17009(8)
F2 F 0.43014(13) 0.5537(2) 0.07319(8)
F3 F 0.74710(16) 0.4724(2) 0.45594(8)
F4 F 0.76160(17) 0.2537(2) 0.46661(8)
O1 O 0.5791(2) 0.7755(2) 0.12339(12)
O2 O 0.66010(16) 0.6219(2) 0.07260(9)
O3 O 0.70483(17) 0.6044(2) 0.22054(10)
O4 O 0.92460(18) 0.4645(3) 0.39707(11)
O5 O 0.9696(2) 0.3204(3) 0.47442(12)
N1 N 0.68583(18) 0.1473(2) 0.22603(10)
N2 N 0.65594(19) 0.5443(2) 0.30914(11)
C1 C 0.6382(2) 0.1906(3) 0.16938(13)
C2 C 0.6140(2) 0.1151(3) 0.11634(14)
H1 H 0.6288 0.0220 0.1157
C3 C 0.5672(3) 0.1837(4) 0.06495(14)
H2 H 0.5533 0.1371 0.0286
C4 C 0.5406(2) 0.3216(3) 0.06666(14)
H3 H 0.5071 0.3643 0.0315
C5 C 0.5622(2) 0.3971(3) 0.11897(12)
C6 C 0.6169(2) 0.3322(3) 0.17146(12)
C7 C 0.6562(2) 0.3736(3) 0.23255(12)
C8 C 0.6960(2) 0.2584(3) 0.26411(12)
C9 C 0.7518(2) 0.2531(3) 0.32742(12)
C10 C 0.7189(2) 0.3395(3) 0.36694(13)
C11 C 0.6244(2) 0.4343(3) 0.34623(13)
H4 H 0.5646 0.3830 0.3233
H5 H 0.5997 0.4732 0.3809
C12 C 0.6740(2) 0.5166(3) 0.25283(13)
C13 C 0.6804(3) 0.6805(3) 0.33447(15)
H6 H 0.6359 0.6984 0.3641
H7 H 0.6656 0.7476 0.3031
H8 H 0.7557 0.6851 0.3529
C14 C 0.5198(2) 0.5404(3) 0.11887(13)
C15 C 0.5916(2) 0.6610(3) 0.10747(13)
C16 C 0.7275(3) 0.7292(4) 0.05342(17)
H9 H 0.7836 0.7564 0.0867
H10 H 0.6834 0.8086 0.0400
C17 C 0.7772(3) 0.6751(4) 0.00407(16)
H11 H 0.7211 0.6485 -0.0286
H12 H 0.8212 0.5970 0.0179
H13 H 0.8218 0.7444 -0.0093
C18 C 0.8486(2) 0.1616(3) 0.34237(13)
C19 C 0.8564(2) 0.0590(3) 0.38498(15)
H14 H 0.7999 0.0461 0.4061
C20 C 0.9472(3) -0.0251(3) 0.39670(15)
H15 H 0.9506 -0.0929 0.4258
C21 C 1.0326(2) -0.0102(3) 0.36607(16)
C22 C 1.0253(2) 0.0923(3) 0.32370(15)
H16 H 1.0824 0.1052 0.3030
C23 C 0.9348(2) 0.1766(3) 0.31126(13)
H17 H 0.9316 0.2438 0.2819
C24 C 1.1312(3) -0.1026(4) 0.3778(2)
H18 H 1.1323 -0.1597 0.3434
H19 H 1.1279 -0.1588 0.4122
H20 H 1.1960 -0.0479 0.3853
C25 C 0.6997(3) 0.0027(3) 0.24234(14)
H21 H 0.7747 -0.0225 0.2450
H22 H 0.6555 -0.0522 0.2123
H23 H 0.6780 -0.0122 0.2804
C26 C 0.7814(3) 0.3571(3) 0.43022(13)
C27 C 0.9049(3) 0.3754(4) 0.43672(15)
C28 C 1.0386(3) 0.5008(6) 0.3972(2)
H24 H 1.0595 0.5765 0.4245
H25 H 1.0850 0.4235 0.4110
C29 C 1.0522(5) 0.5374(7) 0.3398(2)
H26 H 1.0395 0.4593 0.3138
H27 H 1.1251 0.5699 0.3410
H28 H 1.0016 0.6084 0.3249
loop_
_geom_bond_atom_site_label_1
_geom_bond_atom_site_label_2
_geom_bond_site_symmetry_1
_geom_bond_site_symmetry_2
F1 C14 1_555 1_555
F2 C14 1_555 1_555
F3 C26 1_555 1_555
F4 C26 1_555 1_555
O1 C15 1_555 1_555
O2 C15 1_555 1_555
O3 C12 1_555 1_555
O4 C27 1_555 1_555
O5 C27 1_555 1_555
N1 C1 1_555 1_555
N2 C11 1_555 1_555
C1 C2 1_555 1_555
C2 H1 1_555 1_555
C3 C2 1_555 1_555
H2 C3 1_555 1_555
C4 C3 1_555 1_555
H3 C4 1_555 1_555
C5 C4 1_555 1_555
C6 C1 1_555 1_555
C7 C6 1_555 1_555
C8 N1 1_555 1_555
C9 C8 1_555 1_555
C10 C9 1_555 1_555
C11 C10 1_555 1_555
H4 C11 1_555 1_555
H5 C11 1_555 1_555
C12 N2 1_555 1_555
C13 N2 1_555 1_555
H6 C13 1_555 1_555
H7 C13 1_555 1_555
H8 C13 1_555 1_555
C14 C5 1_555 1_555
C15 C14 1_555 1_555
C16 O2 1_555 1_555
H9 C16 1_555 1_555
H10 C16 1_555 1_555
C17 C16 1_555 1_555
H11 C17 1_555 1_555
H12 C17 1_555 1_555
H13 C17 1_555 1_555
C18 C9 1_555 1_555
C19 C18 1_555 1_555
H14 C19 1_555 1_555
C20 C19 1_555 1_555
H15 C20 1_555 1_555
C21 C20 1_555 1_555
C22 C21 1_555 1_555
H16 C22 1_555 1_555
C23 C18 1_555 1_555
H17 C23 1_555 1_555
C24 C21 1_555 1_555
H18 C24 1_555 1_555
H19 C24 1_555 1_555
H20 C24 1_555 1_555
C25 N1 1_555 1_555
H21 C25 1_555 1_555
H22 C25 1_555 1_555
H23 C25 1_555 1_555
C26 C10 1_555 1_555
C27 C26 1_555 1_555
C28 O4 1_555 1_555
H24 C28 1_555 1_555
H25 C28 1_555 1_555
C29 C28 1_555 1_555
H26 C29 1_555 1_555
H27 C29 1_555 1_555
H28 C29 1_555 1_555
C5 C6 1_555 1_555
C7 C8 1_555 1_555
C7 C12 1_555 1_555
C22 C23 1_555 1_555

#END
