
#######################################################################
#
#                 Cambridge Crystallographic Data Centre
#                                CCDC 
#
#######################################################################
#
# If this CIF has been generated from an entry in the Cambridge 
# Structural Database, then it will include bibliographic, chemical, 
# crystal, experimental, refinement or atomic coordinate data resulting 
# from the CCDC's data processing and validation procedures.
#
#######################################################################

data_EROGOI
_chemical_formula_moiety         'C3 H2 N4 O4,0.25(C6 H6)'
_chemical_name_systematic        '3,4-Dinitro-1H-pyrazole benzene solvate'
_symmetry_cell_setting           monoclinic
_symmetry_space_group_name_H-M   'P 21/n'
_symmetry_Int_Tables_number      14
_space_group_name_Hall           '-P 2yn'
loop_
_symmetry_equiv_pos_site_id
_symmetry_equiv_pos_as_xyz
1 x,y,z
2 1/2-x,1/2+y,1/2-z
3 -x,-y,-z
4 1/2+x,1/2-y,1/2+z
_cell_length_a                   7.4579(15)
_cell_length_b                   9.787(2)
_cell_length_c                   19.534(4)
_cell_angle_alpha                90
_cell_angle_beta                 94.87(3)
_cell_angle_gamma                90
_cell_volume                     1420.65
_exptl_crystal_colour            colorless
_exptl_crystal_description       block
_cell_formula_units_Z            8
_exptl_crystal_recrystallization_method benzene
loop_
_atom_site_label
_atom_site_type_symbol
_atom_site_fract_x
_atom_site_fract_y
_atom_site_fract_z
C1 C 0.9887(4) 0.1907(3) 0.19586(16)
C2 C 1.1357(4) 0.1088(4) 0.19047(17)
H1 H 1.2585 0.1359 0.1953
C3 C 0.8410(4) 0.1014(3) 0.18468(16)
N1 N 0.9970(4) 0.3361(3) 0.20565(14)
N2 N 0.6477(3) 0.1259(3) 0.18791(15)
N3 N 1.0721(3) -0.0172(3) 0.17704(15)
N4 N 0.8896(3) -0.0246(3) 0.17325(13)
O1 O 1.1467(3) 0.3853(3) 0.22096(13)
O2 O 0.8580(3) 0.4027(3) 0.19682(14)
O3 O 0.6020(3) 0.2140(3) 0.22658(13)
O4 O 0.5471(3) 0.0518(3) 0.15166(14)
H7 H 1.138(3) -0.091(2) 0.1735(17)
C4 C 0.5086(4) 0.5510(3) 0.09984(17)
C5 C 0.3685(4) 0.6383(3) 0.11466(16)
C6 C 0.6606(4) 0.6268(4) 0.10959(18)
H2 H 0.7801 0.5975 0.1045
N5 N 0.5049(4) 0.4072(3) 0.08235(17)
N6 N 0.1748(3) 0.6197(3) 0.10954(15)
N7 N 0.6079(4) 0.7520(4) 0.12796(17)
N8 N 0.4295(3) 0.7621(3) 0.13217(14)
O5 O 0.6340(4) 0.3642(3) 0.05424(15)
O6 O 0.3762(4) 0.3390(3) 0.09674(17)
O7 O 0.1130(3) 0.5307(3) 0.07052(13)
O8 O 0.0861(3) 0.6953(3) 0.14284(14)
H6 H 0.684(5) 0.820(4) 0.127(3)
C7 C 1.1648(8) 0.0615(7) 0.0108(2)
H3 H 1.2790 0.1045 0.0180
C8 C 1.0067(11) 0.1372(5) 0.0150(2)
H4 H 1.0132 0.2318 0.0258
C9 C 0.8469(8) 0.0760(7) 0.0040(2)
H5 H 0.7399 0.1279 0.0063
C7B C 0.8352(8) -0.0615(7) -0.0108(2)
H3B H 0.7210 -0.1045 -0.0180
C8B C 0.9933(11) -0.1372(5) -0.0150(2)
H4B H 0.9868 -0.2318 -0.0258
C9B C 1.1531(8) -0.0760(7) -0.0040(2)
H5B H 1.2601 -0.1279 -0.0063
loop_
_geom_bond_atom_site_label_1
_geom_bond_atom_site_label_2
_geom_bond_site_symmetry_1
_geom_bond_site_symmetry_2
C1 C2 1_555 1_555
C2 H1 1_555 1_555
C3 C1 1_555 1_555
C4 C5 1_555 1_555
C5 N6 1_555 1_555
C6 C4 1_555 1_555
H2 C6 1_555 1_555
C7 H3 1_555 1_555
C8 C7 1_555 1_555
H4 C8 1_555 1_555
C9 C8 1_555 1_555
H5 C9 1_555 1_555
N1 C1 1_555 1_555
N2 C3 1_555 1_555
N3 C2 1_555 1_555
N4 C3 1_555 1_555
N5 C4 1_555 1_555
N6 O7 1_555 1_555
N7 C6 1_555 1_555
N8 C5 1_555 1_555
O1 N1 1_555 1_555
O2 N1 1_555 1_555
O3 N2 1_555 1_555
O4 N2 1_555 1_555
O5 N5 1_555 1_555
O6 N5 1_555 1_555
O8 N6 1_555 1_555
H6 N7 1_555 1_555
H7 N3 1_555 1_555
C7B C9 1_555 1_555
H3B C7B 1_555 1_555
C8B C7B 1_555 1_555
H4B C8B 1_555 1_555
C9B C7 1_555 1_555
H5B C9B 1_555 1_555
N3 N4 1_555 1_555
N7 N8 1_555 1_555
C8B C9B 1_555 1_555

#END
