
#######################################################################
#
#                 Cambridge Crystallographic Data Centre
#                                CCDC 
#
#######################################################################
#
# If this CIF has been generated from an entry in the Cambridge 
# Structural Database, then it will include bibliographic, chemical, 
# crystal, experimental, refinement or atomic coordinate data resulting 
# from the CCDC's data processing and validation procedures.
#
#######################################################################

data_EROGID
_chemical_formula_moiety         'C38 H26 F2'
_chemical_name_systematic        
4'-fluoro-2-(2-(4'-fluorobiphenyl-2-yl)-1,2-diphenylvinyl)biphenyl
_symmetry_cell_setting           triclinic
_symmetry_space_group_name_H-M   'P -1'
_symmetry_Int_Tables_number      2
_space_group_name_Hall           '-P 1'
loop_
_symmetry_equiv_pos_site_id
_symmetry_equiv_pos_as_xyz
1 x,y,z
2 -x,-y,-z
_cell_length_a                   9.3318(6)
_cell_length_b                   16.3035(9)
_cell_length_c                   18.6019(10)
_cell_angle_alpha                94.673(2)
_cell_angle_beta                 90.768(2)
_cell_angle_gamma                100.362(2)
_cell_volume                     2773.56
_exptl_crystal_description       block
_cell_formula_units_Z            4
loop_
_atom_site_label
_atom_site_type_symbol
_atom_site_fract_x
_atom_site_fract_y
_atom_site_fract_z
C1 C 0.2153(2) 0.72812(12) 0.58899(10)
C2 C 0.2244(2) 0.81623(12) 0.56921(11)
C3 C 0.3326(2) 0.88355(13) 0.59570(11)
C4 C 0.3272(3) 0.96299(14) 0.57286(12)
H1 H 0.4001 1.0091 0.5901
C5 C 0.2192(3) 0.97583(15) 0.52611(13)
H2 H 0.2184 1.0303 0.5117
C6 C 0.1122(3) 0.90974(15) 0.50021(12)
H3 H 0.0378 0.9182 0.4678
C7 C 0.1148(2) 0.83091(13) 0.52215(11)
H4 H 0.0405 0.7855 0.5049
C8 C 0.6796(3) 0.87004(17) 0.74202(15)
C9 C 0.7083(3) 0.91208(16) 0.68177(17)
H5 H 0.8048 0.9383 0.6723
C10 C 0.5941(3) 0.91559(14) 0.63487(14)
H6 H 0.6129 0.9456 0.5933
C11 C 0.4521(2) 0.87629(12) 0.64672(12)
C12 C 0.4290(3) 0.83344(13) 0.70861(12)
H7 H 0.3333 0.8060 0.7182
C13 C 0.5423(3) 0.82994(15) 0.75635(13)
H8 H 0.5252 0.8003 0.7982
C14 C 0.0747(2) 0.69136(12) 0.62108(11)
C15 C 0.0161(2) 0.73385(13) 0.67794(11)
H9 H 0.0671 0.7869 0.6975
C16 C -0.1161(3) 0.70005(15) 0.70676(12)
H10 H -0.1525 0.7290 0.7469
C17 C -0.1946(3) 0.62466(15) 0.67739(13)
H11 H -0.2852 0.6016 0.6968
C18 C -0.1401(3) 0.58330(14) 0.61977(14)
H12 H -0.1946 0.5319 0.5986
C19 C -0.0067(2) 0.61548(13) 0.59200(12)
H13 H 0.0298 0.5854 0.5526
C20 C 0.3224(2) 0.68342(11) 0.57517(10)
C21 C 0.4538(2) 0.71520(11) 0.53333(10)
C22 C 0.4482(2) 0.73773(12) 0.46210(11)
C23 C 0.5806(2) 0.76936(13) 0.43084(12)
H14 H 0.5787 0.7861 0.3832
C24 C 0.7125(2) 0.77700(13) 0.46642(12)
H15 H 0.7997 0.7989 0.4434
C25 C 0.7186(2) 0.75279(13) 0.53572(12)
H16 H 0.8095 0.7573 0.5607
C26 C 0.5897(2) 0.72190(12) 0.56786(11)
H17 H 0.5937 0.7046 0.6153
C27 C 0.0657(3) 0.70152(17) 0.32859(13)
C28 C 0.1650(3) 0.77356(16) 0.32605(12)
H18 H 0.1500 0.8143 0.2944
C29 C 0.2882(3) 0.78598(14) 0.37074(12)
H19 H 0.3579 0.8362 0.3700
C30 C 0.3120(2) 0.72586(13) 0.41701(10)
C31 C 0.2070(3) 0.65361(14) 0.41632(11)
H20 H 0.2210 0.6117 0.4469
C32 C 0.0830(3) 0.64074(15) 0.37268(12)
H21 H 0.0118 0.5912 0.3732
C33 C 0.3253(2) 0.60117(12) 0.60500(10)
C34 C 0.3598(2) 0.53391(12) 0.56182(11)
H22 H 0.3779 0.5399 0.5122
C35 C 0.3684(3) 0.45882(13) 0.58928(12)
H23 H 0.3893 0.4134 0.5584
C36 C 0.3466(3) 0.44970(14) 0.66128(13)
H24 H 0.3535 0.3983 0.6806
C37 C 0.3147(3) 0.51600(15) 0.70530(13)
H25 H 0.3004 0.5102 0.7552
C38 C 0.3032(3) 0.59054(13) 0.67767(11)
H26 H 0.2798 0.6352 0.7087
F1 F 0.79107(18) 0.86891(10) 0.78975(9)
F2 F -0.05620(17) 0.68900(10) 0.28457(8)
C39 C 0.5011(2) 0.72736(12) 0.11201(10)
C40 C 0.4038(2) 0.79006(12) 0.12796(10)
C41 C 0.4448(2) 0.86365(12) 0.17447(11)
C42 C 0.3410(3) 0.91516(13) 0.18750(12)
H27 H 0.3675 0.9654 0.2181
C43 C 0.2026(3) 0.89559(15) 0.15759(12)
H28 H 0.1348 0.9318 0.1678
C44 C 0.1620(3) 0.82287(15) 0.11252(12)
H29 H 0.0665 0.8085 0.0916
C45 C 0.2629(2) 0.77155(13) 0.09853(11)
H30 H 0.2348 0.7217 0.0676
C46 C 0.8547(3) 0.93494(18) 0.28495(13)
C47 C 0.7962(3) 0.99478(16) 0.25364(14)
H31 H 0.8456 1.0513 0.2566
C48 C 0.6621(3) 0.97071(14) 0.21721(12)
H32 H 0.6195 1.0115 0.1951
C49 C 0.5889(2) 0.88778(13) 0.21251(11)
C50 C 0.6541(2) 0.83012(14) 0.24603(11)
H33 H 0.6058 0.7735 0.2440
C51 C 0.7877(3) 0.85322(16) 0.28224(12)
H34 H 0.8315 0.8132 0.3046
C52 C 0.4348(2) 0.64140(12) 0.13064(11)
C53 C 0.3628(2) 0.62890(13) 0.19517(11)
H35 H 0.3630 0.6751 0.2298
C54 C 0.2915(3) 0.55062(14) 0.20941(13)
H36 H 0.2444 0.5432 0.2540
C55 C 0.2879(3) 0.48296(15) 0.15936(14)
H37 H 0.2379 0.4291 0.1690
C56 C 0.3576(3) 0.49447(14) 0.09536(13)
H38 H 0.3559 0.4482 0.0607
C57 C 0.4296(2) 0.57241(13) 0.08106(12)
H39 H 0.4768 0.5792 0.0364
C58 C 0.6297(2) 0.74621(12) 0.07912(10)
C59 C 0.6754(2) 0.82843(13) 0.04810(11)
C60 C 0.6017(3) 0.85246(14) -0.01078(12)
C61 C 0.6543(3) 0.93118(15) -0.03547(14)
H40 H 0.6053 0.9490 -0.0748
C62 C 0.7755(3) 0.98310(16) -0.00383(15)
H41 H 0.8092 1.0358 -0.0218
C63 C 0.8484(3) 0.95929(14) 0.05361(14)
H42 H 0.9314 0.9954 0.0756
C64 C 0.7987(2) 0.88215(13) 0.07863(12)
H43 H 0.8497 0.8651 0.1177
C65 C 0.2390(3) 0.6993(3) -0.12472(14)
C66 C 0.2349(3) 0.7822(3) -0.10710(15)
H44 H 0.1531 0.8055 -0.1204
C67 C 0.3534(3) 0.83129(19) -0.06933(13)
H45 H 0.3522 0.8889 -0.0570
C68 C 0.4741(3) 0.79812(16) -0.04902(12)
C69 C 0.4716(3) 0.71346(16) -0.06930(12)
H46 H 0.5532 0.6894 -0.0570
C70 C 0.3541(3) 0.66356(19) -0.10670(13)
H47 H 0.3537 0.6059 -0.1194
C71 C 0.7424(2) 0.69067(12) 0.07394(11)
C72 C 0.8292(2) 0.68856(13) 0.01341(12)
H48 H 0.8158 0.7217 -0.0250
C73 C 0.9350(2) 0.63840(14) 0.00889(13)
H49 H 0.9910 0.6362 -0.0333
C74 C 0.9596(3) 0.59208(15) 0.06441(14)
H50 H 1.0323 0.5580 0.0610
C75 C 0.8777(3) 0.59539(14) 0.12527(14)
H51 H 0.8951 0.5640 0.1643
C76 C 0.7706(2) 0.64384(13) 0.13003(12)
H52 H 0.7151 0.6452 0.1724
F3 F 0.98594(17) 0.95814(10) 0.32154(9)
F4 F 0.1213(2) 0.65092(14) -0.16127(9)
loop_
_geom_bond_atom_site_label_1
_geom_bond_atom_site_label_2
_geom_bond_site_symmetry_1
_geom_bond_site_symmetry_2
C1 C2 1_555 1_555
C2 C3 1_555 1_555
C3 C4 1_555 1_555
C4 H1 1_555 1_555
C5 C4 1_555 1_555
H2 C5 1_555 1_555
C6 C5 1_555 1_555
H3 C6 1_555 1_555
C7 C2 1_555 1_555
H4 C7 1_555 1_555
C8 C9 1_555 1_555
C9 H5 1_555 1_555
C10 C9 1_555 1_555
H6 C10 1_555 1_555
C11 C3 1_555 1_555
C12 C11 1_555 1_555
H7 C12 1_555 1_555
C13 C8 1_555 1_555
H8 C13 1_555 1_555
C14 C1 1_555 1_555
C15 C14 1_555 1_555
H9 C15 1_555 1_555
C16 C15 1_555 1_555
H10 C16 1_555 1_555
C17 C16 1_555 1_555
H11 C17 1_555 1_555
C18 C17 1_555 1_555
H12 C18 1_555 1_555
C19 C14 1_555 1_555
H13 C19 1_555 1_555
C20 C1 1_555 1_555
C21 C20 1_555 1_555
C22 C21 1_555 1_555
C23 C22 1_555 1_555
H14 C23 1_555 1_555
C24 C23 1_555 1_555
H15 C24 1_555 1_555
C25 C24 1_555 1_555
H16 C25 1_555 1_555
C26 C21 1_555 1_555
H17 C26 1_555 1_555
C27 C28 1_555 1_555
C28 H18 1_555 1_555
C29 C28 1_555 1_555
H19 C29 1_555 1_555
C30 C22 1_555 1_555
C31 C30 1_555 1_555
H20 C31 1_555 1_555
C32 C27 1_555 1_555
H21 C32 1_555 1_555
C33 C20 1_555 1_555
C34 C33 1_555 1_555
H22 C34 1_555 1_555
C35 C34 1_555 1_555
H23 C35 1_555 1_555
C36 C35 1_555 1_555
H24 C36 1_555 1_555
C37 C36 1_555 1_555
H25 C37 1_555 1_555
C38 C33 1_555 1_555
H26 C38 1_555 1_555
F1 C8 1_555 1_555
F2 C27 1_555 1_555
C39 C40 1_555 1_555
C40 C41 1_555 1_555
C41 C42 1_555 1_555
C42 H27 1_555 1_555
C43 C42 1_555 1_555
H28 C43 1_555 1_555
C44 C43 1_555 1_555
H29 C44 1_555 1_555
C45 C40 1_555 1_555
H30 C45 1_555 1_555
C46 C47 1_555 1_555
C47 H31 1_555 1_555
C48 C47 1_555 1_555
H32 C48 1_555 1_555
C49 C41 1_555 1_555
C50 C49 1_555 1_555
H33 C50 1_555 1_555
C51 C46 1_555 1_555
H34 C51 1_555 1_555
C52 C39 1_555 1_555
C53 C52 1_555 1_555
H35 C53 1_555 1_555
C54 C53 1_555 1_555
H36 C54 1_555 1_555
C55 C54 1_555 1_555
H37 C55 1_555 1_555
C56 C55 1_555 1_555
H38 C56 1_555 1_555
C57 C52 1_555 1_555
H39 C57 1_555 1_555
C58 C39 1_555 1_555
C59 C58 1_555 1_555
C60 C59 1_555 1_555
C61 C60 1_555 1_555
H40 C61 1_555 1_555
C62 C61 1_555 1_555
H41 C62 1_555 1_555
C63 C62 1_555 1_555
H42 C63 1_555 1_555
C64 C59 1_555 1_555
H43 C64 1_555 1_555
C65 C66 1_555 1_555
C66 H44 1_555 1_555
C67 C66 1_555 1_555
H45 C67 1_555 1_555
C68 C60 1_555 1_555
C69 C68 1_555 1_555
H46 C69 1_555 1_555
C70 C65 1_555 1_555
H47 C70 1_555 1_555
C71 C58 1_555 1_555
C72 C71 1_555 1_555
H48 C72 1_555 1_555
C73 C72 1_555 1_555
H49 C73 1_555 1_555
C74 C73 1_555 1_555
H50 C74 1_555 1_555
C75 C74 1_555 1_555
H51 C75 1_555 1_555
C76 C71 1_555 1_555
H52 C76 1_555 1_555
F3 C46 1_555 1_555
F4 C65 1_555 1_555
C6 C7 1_555 1_555
C10 C11 1_555 1_555
C12 C13 1_555 1_555
C18 C19 1_555 1_555
C25 C26 1_555 1_555
C29 C30 1_555 1_555
C31 C32 1_555 1_555
C37 C38 1_555 1_555
C44 C45 1_555 1_555
C48 C49 1_555 1_555
C50 C51 1_555 1_555
C56 C57 1_555 1_555
C63 C64 1_555 1_555
C67 C68 1_555 1_555
C69 C70 1_555 1_555
C75 C76 1_555 1_555

#END
