
#######################################################################
#
#                 Cambridge Crystallographic Data Centre
#                                CCDC 
#
#######################################################################
#
# If this CIF has been generated from an entry in the Cambridge 
# Structural Database, then it will include bibliographic, chemical, 
# crystal, experimental, refinement or atomic coordinate data resulting 
# from the CCDC's data processing and validation procedures.
#
#######################################################################

data_EROSAG
_chemical_formula_moiety         'C19 H20 O5'
_chemical_name_systematic        
(E)-1-(4-Methoxyphenyl)-3-(2,4,6-trimethoxyphenyl)prop-2-en-1-one
_symmetry_cell_setting           orthorhombic
_symmetry_space_group_name_H-M   'P b c a'
_symmetry_Int_Tables_number      61
_space_group_name_Hall           '-P 2ac 2ab'
loop_
_symmetry_equiv_pos_site_id
_symmetry_equiv_pos_as_xyz
1 x,y,z
2 1/2+x,1/2-y,-z
3 -x,1/2+y,1/2-z
4 1/2-x,-y,1/2+z
5 -x,-y,-z
6 1/2-x,1/2+y,z
7 x,1/2-y,1/2+z
8 1/2+x,y,1/2-z
_cell_length_a                   7.3339(6)
_cell_length_b                   16.8260(14)
_cell_length_c                   26.677(2)
_cell_angle_alpha                90
_cell_angle_beta                 90
_cell_angle_gamma                90
_cell_volume                     3291.95
_exptl_crystal_colour            colorless
_exptl_crystal_description       block
_cell_formula_units_Z            8
_exptl_crystal_recrystallization_method dichloromethane/ethanol
loop_
_atom_site_label
_atom_site_type_symbol
_atom_site_fract_x
_atom_site_fract_y
_atom_site_fract_z
O1 O -0.11440(12) 0.09104(5) 0.52298(3)
O2 O 0.09328(11) 0.52918(4) 0.42318(3)
O3 O 0.15756(13) 0.77278(5) 0.33786(3)
O4 O -0.01580(13) 0.53324(5) 0.24951(3)
O5 O -0.12136(16) 0.28670(6) 0.32160(3)
C1 C -0.17359(15) 0.18362(6) 0.40208(4)
H1 H -0.2334 0.1716 0.3714
C2 C -0.18310(15) 0.13044(6) 0.44147(4)
H2 H -0.2496 0.0823 0.4378
C3 C -0.09526(15) 0.14727(6) 0.48666(4)
C4 C 0.00426(15) 0.21720(6) 0.49199(4)
H3 H 0.0660 0.2285 0.5225
C5 C 0.01209(15) 0.27031(6) 0.45199(4)
H4 H 0.0797 0.3181 0.4556
C6 C -0.07673(14) 0.25507(6) 0.40679(4)
C7 C -0.07394(16) 0.31067(7) 0.36306(4)
C8 C -0.01821(16) 0.39334(7) 0.37223(4)
H5 H 0.0155 0.4091 0.4051
C9 C -0.01402(15) 0.44698(7) 0.33494(4)
H6 H -0.0486 0.4273 0.3029
C10 C 0.03548(14) 0.53061(6) 0.33628(4)
C11 C 0.08965(14) 0.57253(6) 0.37997(4)
C12 C 0.13343(15) 0.65221(6) 0.37886(4)
H7 H 0.1726 0.6784 0.4085
C13 C 0.11981(15) 0.69401(6) 0.33384(4)
C14 C 0.07144(15) 0.65615(7) 0.28945(4)
H8 H 0.0653 0.6847 0.2588
C15 C 0.03215(15) 0.57507(7) 0.29121(4)
C16 C -0.0194(2) 0.10198(8) 0.56923(5)
H9 H 0.1116 0.1067 0.5626
H10 H -0.0416 0.0563 0.5912
H11 H -0.0631 0.1505 0.5856
C17 C 0.15775(17) 0.56770(7) 0.46741(4)
H12 H 0.2826 0.5866 0.4619
H13 H 0.1563 0.5300 0.4954
H14 H 0.0787 0.6130 0.4752
C18 C 0.1300(2) 0.82163(7) 0.29468(5)
H15 H 0.2094 0.8034 0.2675
H16 H 0.1595 0.8769 0.3029
H17 H 0.0024 0.8181 0.2840
C19 C 0.02210(17) 0.56754(7) 0.20163(4)
H18 H -0.0531 0.6151 0.1970
H19 H -0.0059 0.5289 0.1752
H20 H 0.1513 0.5821 0.1998
loop_
_geom_bond_atom_site_label_1
_geom_bond_atom_site_label_2
_geom_bond_site_symmetry_1
_geom_bond_site_symmetry_2
O1 C3 1_555 1_555
O2 C11 1_555 1_555
O3 C13 1_555 1_555
O4 C15 1_555 1_555
O5 C7 1_555 1_555
C1 H1 1_555 1_555
C2 C1 1_555 1_555
H2 C2 1_555 1_555
C3 C2 1_555 1_555
C4 C3 1_555 1_555
H3 C4 1_555 1_555
C5 C4 1_555 1_555
H4 C5 1_555 1_555
C6 C1 1_555 1_555
C7 C6 1_555 1_555
C8 C7 1_555 1_555
H5 C8 1_555 1_555
C9 C8 1_555 1_555
H6 C9 1_555 1_555
C10 C9 1_555 1_555
C11 C10 1_555 1_555
C12 C11 1_555 1_555
H7 C12 1_555 1_555
C13 C12 1_555 1_555
C14 C13 1_555 1_555
H8 C14 1_555 1_555
C15 C10 1_555 1_555
C16 O1 1_555 1_555
H9 C16 1_555 1_555
H10 C16 1_555 1_555
H11 C16 1_555 1_555
C17 O2 1_555 1_555
H12 C17 1_555 1_555
H13 C17 1_555 1_555
H14 C17 1_555 1_555
C18 O3 1_555 1_555
H15 C18 1_555 1_555
H16 C18 1_555 1_555
H17 C18 1_555 1_555
C19 O4 1_555 1_555
H18 C19 1_555 1_555
H19 C19 1_555 1_555
H20 C19 1_555 1_555
C5 C6 1_555 1_555
C14 C15 1_555 1_555

#END
