
#######################################################################
#
#                 Cambridge Crystallographic Data Centre
#                                CCDC 
#
#######################################################################
#
# If this CIF has been generated from an entry in the Cambridge 
# Structural Database, then it will include bibliographic, chemical, 
# crystal, experimental, refinement or atomic coordinate data resulting 
# from the CCDC's data processing and validation procedures.
#
#######################################################################

data_EROWIS
_chemical_name_common            
1-(2-(Allyloxy)-2-(2,4-dichlorophenyl)ethyl)-1H-imidazole
_chemical_formula_moiety         'C14 H14 Cl2 N2 O1'
_chemical_name_systematic        
1-[2-(2,4-dichlorophenyl)-2-(prop-2-enyloxy)ethyl]-1H-imidazole
_symmetry_cell_setting           monoclinic
_symmetry_space_group_name_H-M   'P 21/c'
_symmetry_Int_Tables_number      14
_space_group_name_Hall           '-P 2ybc'
loop_
_symmetry_equiv_pos_site_id
_symmetry_equiv_pos_as_xyz
1 x,y,z
2 -x,1/2+y,1/2-z
3 -x,-y,-z
4 x,1/2-y,1/2+z
_cell_length_a                   7.9374(6)
_cell_length_b                   13.4144(12)
_cell_length_c                   13.4790(10)
_cell_angle_alpha                90
_cell_angle_beta                 103.386(5)
_cell_angle_gamma                90
_cell_volume                     1396.19
_exptl_crystal_colour            colorless
_exptl_crystal_description       plate
_cell_formula_units_Z            4
loop_
_atom_site_label
_atom_site_type_symbol
_atom_site_fract_x
_atom_site_fract_y
_atom_site_fract_z
Cl1 Cl 0.41595(8) 0.69956(5) 0.57733(5)
Cl2 Cl 0.77994(7) 0.98990(4) 0.47431(5)
O1 O 0.0431(2) 0.71310(11) 0.25901(12)
N1 N -0.1440(2) 0.69576(14) 0.40437(15)
N2 N -0.3936(3) 0.60867(17) 0.34432(19)
C1 C 0.4327(3) 0.78309(16) 0.48568(17)
C2 C 0.5822(3) 0.84344(16) 0.51200(18)
H1 H 0.6668 0.8363 0.5742
C3 C 0.5937(3) 0.91175(16) 0.44116(18)
C4 C 0.4636(3) 0.91953(16) 0.34627(18)
H2 H 0.4775 0.9689 0.2982
C5 C 0.3172(3) 0.85669(16) 0.32241(18)
H3 H 0.2343 0.8632 0.2594
C6 C 0.2977(3) 0.78727(15) 0.39102(17)
C7 C 0.1325(3) 0.72205(16) 0.36550(17)
H4 H 0.1605 0.6540 0.3949
C8 C -0.0025(3) 0.76633(17) 0.40885(19)
H5 H 0.0469 0.7854 0.4806
H6 H -0.0474 0.8274 0.3704
C9 C -0.3009(3) 0.68361(19) 0.3287(2)
H7 H -0.3345 0.7269 0.2718
C10 C -0.2883(4) 0.5710(2) 0.4355(2)
H8 H -0.3197 0.5139 0.4688
C11 C -0.1353(4) 0.6230(2) 0.4733(2)
H9 H -0.0471 0.6102 0.5328
C12 C 0.1149(3) 0.63442(17) 0.21546(18)
H10 H 0.2426 0.6410 0.2344
H11 H 0.0777 0.6401 0.1403
C13 C 0.0682(3) 0.53464(18) 0.24568(19)
H12 H -0.0508 0.5167 0.2311
C14 C 0.1862(4) 0.4672(2) 0.2933(2)
H13 H 0.3060 0.4833 0.3087
H14 H 0.1493 0.4037 0.3112
loop_
_geom_bond_atom_site_label_1
_geom_bond_atom_site_label_2
_geom_bond_site_symmetry_1
_geom_bond_site_symmetry_2
Cl1 C1 1_555 1_555
Cl2 C3 1_555 1_555
O1 C7 1_555 1_555
N1 C8 1_555 1_555
N2 C9 1_555 1_555
C1 C2 1_555 1_555
C2 H1 1_555 1_555
C3 C2 1_555 1_555
C4 C3 1_555 1_555
H2 C4 1_555 1_555
C5 C4 1_555 1_555
H3 C5 1_555 1_555
C6 C1 1_555 1_555
C7 C6 1_555 1_555
H4 C7 1_555 1_555
C8 C7 1_555 1_555
H5 C8 1_555 1_555
H6 C8 1_555 1_555
C9 N1 1_555 1_555
H7 C9 1_555 1_555
C10 N2 1_555 1_555
H8 C10 1_555 1_555
C11 N1 1_555 1_555
H9 C11 1_555 1_555
C12 O1 1_555 1_555
H10 C12 1_555 1_555
H11 C12 1_555 1_555
C13 C12 1_555 1_555
H12 C13 1_555 1_555
C14 C13 1_555 1_555
H13 C14 1_555 1_555
H14 C14 1_555 1_555
C5 C6 1_555 1_555
C10 C11 1_555 1_555

#END
