
#######################################################################
#
#                 Cambridge Crystallographic Data Centre
#                                CCDC 
#
#######################################################################
#
# If this CIF has been generated from an entry in the Cambridge 
# Structural Database, then it will include bibliographic, chemical, 
# crystal, experimental, refinement or atomic coordinate data resulting 
# from the CCDC's data processing and validation procedures.
#
#######################################################################

data_EROXOZ
_chemical_name_common            
3-((2-(4-(Pyridin-4-yl)-1,3-dithiol-2-ylidene)-1,3-dithiol-4-yl)sulfanyl)propanenitrile
_chemical_formula_moiety         'C14 H10 N2 S5'
_chemical_name_systematic        
3-((2-[4-(pyridin-4-yl)-2H-1,3-dithiol-2-ylidene]-2H-1,3-dithiol-4-yl)sulfanyl)propanenitrile
_symmetry_cell_setting           monoclinic
_symmetry_space_group_name_H-M   'P 21/c'
_symmetry_Int_Tables_number      14
_space_group_name_Hall           '-P 2ybc'
loop_
_symmetry_equiv_pos_site_id
_symmetry_equiv_pos_as_xyz
1 x,y,z
2 -x,1/2+y,1/2-z
3 -x,-y,-z
4 x,1/2-y,1/2+z
_cell_length_a                   14.6231(18)
_cell_length_b                   10.7197(12)
_cell_length_c                   9.9211(12)
_cell_angle_alpha                90
_cell_angle_beta                 94.775(4)
_cell_angle_gamma                90
_cell_volume                     1549.79
_exptl_crystal_colour            red
_exptl_crystal_description       block
_cell_formula_units_Z            4
loop_
_atom_site_label
_atom_site_type_symbol
_atom_site_fract_x
_atom_site_fract_y
_atom_site_fract_z
S1 S 0.45140(7) 0.17432(9) 0.11234(11)
S2 S 0.57042(7) -0.02950(10) 0.22543(11)
S3 S 0.61033(7) 0.25532(10) -0.08148(12)
S4 S 0.72869(7) 0.05022(10) 0.03146(11)
S5 S 0.87437(8) 0.10167(11) -0.16139(12)
N1 N 0.1558(3) 0.1902(4) 0.3981(5)
N2 N 0.9396(3) 0.4512(4) -0.1998(5)
C1 C 0.1881(3) 0.2455(5) 0.2923(6)
H1 H 0.1532 0.3107 0.2508
C2 C 0.2690(3) 0.2145(4) 0.2386(5)
H2 H 0.2865 0.2562 0.1615
C3 C 0.3240(3) 0.1224(4) 0.2984(4)
C4 C 0.2907(3) 0.0618(4) 0.4090(5)
H3 H 0.3242 -0.0035 0.4528
C5 C 0.2082(3) 0.0989(5) 0.4532(5)
H4 H 0.1873 0.0568 0.5278
C6 C 0.4131(3) 0.0883(4) 0.2484(4)
C7 C 0.4680(3) -0.0036(4) 0.2963(4)
H5 H 0.4512 -0.0538 0.3680
C8 C 0.5581(2) 0.0973(3) 0.1123(4)
C9 C 0.6232(3) 0.1293(4) 0.0326(4)
C10 C 0.7170(3) 0.2350(4) -0.1449(4)
H6 H 0.7363 0.2886 -0.2120
C11 C 0.7705(3) 0.1427(4) -0.0967(4)
C12 C 0.9586(3) 0.1601(5) -0.0324(5)
H7 H 0.9549 0.1103 0.0498
H8 H 1.0199 0.1478 -0.0632
C13 C 0.9480(3) 0.2965(5) 0.0034(5)
H9 H 0.8915 0.3064 0.0491
H10 H 0.9995 0.3207 0.0676
C14 C 0.9445(3) 0.3823(5) -0.1136(5)
loop_
_geom_bond_atom_site_label_1
_geom_bond_atom_site_label_2
_geom_bond_site_symmetry_1
_geom_bond_site_symmetry_2
S1 C6 1_555 1_555
S2 C7 1_555 1_555
S3 C9 1_555 1_555
S4 C9 1_555 1_555
S5 C11 1_555 1_555
N1 C1 1_555 1_555
N2 C14 1_555 1_555
C1 H1 1_555 1_555
C2 C1 1_555 1_555
H2 C2 1_555 1_555
C3 C2 1_555 1_555
C4 C3 1_555 1_555
H3 C4 1_555 1_555
C5 N1 1_555 1_555
H4 C5 1_555 1_555
C6 C3 1_555 1_555
C7 C6 1_555 1_555
H5 C7 1_555 1_555
C8 S1 1_555 1_555
C9 C8 1_555 1_555
C10 S3 1_555 1_555
H6 C10 1_555 1_555
C11 S4 1_555 1_555
C12 S5 1_555 1_555
H7 C12 1_555 1_555
H8 C12 1_555 1_555
C13 C12 1_555 1_555
H9 C13 1_555 1_555
H10 C13 1_555 1_555
C14 C13 1_555 1_555
S2 C8 1_555 1_555
C4 C5 1_555 1_555
C10 C11 1_555 1_555

#END
