
#######################################################################
#
#                 Cambridge Crystallographic Data Centre
#                                CCDC 
#
#######################################################################
#
# If this CIF has been generated from an entry in the Cambridge 
# Structural Database, then it will include bibliographic, chemical, 
# crystal, experimental, refinement or atomic coordinate data resulting 
# from the CCDC's data processing and validation procedures.
#
#######################################################################

data_ERUCUQ
_chemical_formula_moiety         'C24 H34 O3 S1'
_chemical_name_systematic        'bis(2,6-diisopropylphenyl) sulfite'
_symmetry_cell_setting           orthorhombic
_symmetry_space_group_name_H-M   'P c a 21'
_symmetry_Int_Tables_number      29
_space_group_name_Hall           'P 2c -2ac'
loop_
_symmetry_equiv_pos_site_id
_symmetry_equiv_pos_as_xyz
1 x,y,z
2 -x,-y,1/2+z
3 1/2+x,-y,z
4 1/2-x,y,1/2+z
_cell_length_a                   14.2083(15)
_cell_length_b                   16.3332(17)
_cell_length_c                   10.1321(10)
_cell_angle_alpha                90
_cell_angle_beta                 90
_cell_angle_gamma                90
_cell_volume                     2351.33
_exptl_crystal_colour            colorless
_exptl_crystal_description       block
_cell_formula_units_Z            4
loop_
_atom_site_label
_atom_site_type_symbol
_atom_site_fract_x
_atom_site_fract_y
_atom_site_fract_z
S1 S 0.52350(6) 0.68862(5) 0.76210(11)
O1 O 0.41636(13) 0.65661(11) 0.7617(2)
O2 O 0.49612(14) 0.77870(12) 0.8211(2)
O3 O 0.5471(2) 0.69638(16) 0.6283(3)
C1 C 0.3791(2) 0.62106(18) 0.8793(3)
C2 C 0.4071(2) 0.54182(19) 0.9131(3)
C3 C 0.3640(3) 0.5082(2) 1.0244(4)
H1 H 0.3809 0.4559 1.0517
C4 C 0.2976(3) 0.5505(3) 1.0940(4)
H2 H 0.2696 0.5263 1.1672
C5 C 0.2718(3) 0.6278(2) 1.0577(4)
H3 H 0.2269 0.6556 1.1071
C6 C 0.3116(2) 0.6660(2) 0.9481(4)
C7 C 0.4794(3) 0.4944(2) 0.8367(4)
H4 H 0.4967 0.5268 0.7589
C8 C 0.5690(3) 0.4806(3) 0.9188(5)
H5 H 0.5924 0.5324 0.9495
H6 H 0.6159 0.4545 0.8651
H7 H 0.5546 0.4464 0.9931
C9 C 0.4408(4) 0.4119(2) 0.7885(5)
H8 H 0.4237 0.3789 0.8630
H9 H 0.4882 0.3842 0.7378
H10 H 0.3863 0.4211 0.7344
C10 C 0.2805(2) 0.7509(2) 0.9078(4)
H11 H 0.3119 0.7645 0.8244
C11 C 0.1758(3) 0.7547(3) 0.8849(5)
H12 H 0.1435 0.7452 0.9667
H13 H 0.1580 0.7135 0.8221
H14 H 0.1592 0.8077 0.8514
C12 C 0.3108(3) 0.8143(2) 1.0108(5)
H15 H 0.2802 0.8028 1.0932
H16 H 0.2933 0.8681 0.9812
H17 H 0.3778 0.8118 1.0224
C13 C 0.5700(2) 0.83653(17) 0.8272(3)
C14 C 0.5699(2) 0.89670(17) 0.7302(3)
C15 C 0.6400(2) 0.95698(18) 0.7404(4)
H18 H 0.6434 0.9984 0.6777
C16 C 0.7037(3) 0.9551(2) 0.8426(4)
H19 H 0.7496 0.9956 0.8480
C17 C 0.7008(2) 0.8946(2) 0.9368(4)
H20 H 0.7450 0.8946 1.0045
C18 C 0.6329(2) 0.83355(19) 0.9324(3)
C19 C 0.4951(2) 0.8998(2) 0.6238(3)
H21 H 0.4796 0.8430 0.6011
C20 C 0.4062(3) 0.9389(4) 0.6776(6)
H22 H 0.4199 0.9933 0.7075
H23 H 0.3828 0.9069 0.7500
H24 H 0.3594 0.9411 0.6093
C21 C 0.5251(4) 0.9419(5) 0.4970(5)
H25 H 0.5815 0.9169 0.4642
H26 H 0.5366 0.9989 0.5143
H27 H 0.4760 0.9367 0.4324
C22 C 0.6297(3) 0.7684(2) 1.0382(4)
H28 H 0.5803 0.7298 1.0123
C23 C 0.721(2) 0.719(3) 1.050(3)
H29 H 0.7406 0.7015 0.9645
H30 H 0.7095 0.6718 1.1050
H31 H 0.7685 0.7523 1.0897
C24 C 0.598(2) 0.8068(17) 1.1701(16)
H32 H 0.6454 0.8442 1.2006
H33 H 0.5891 0.7644 1.2344
H34 H 0.5399 0.8357 1.1572
C25? C 0.442(2) 0.9801(14) 0.647(4)
C26? C 0.539(3) 0.886(3) 0.4883(19)
C27? C 0.715(4) 0.714(4) 1.007(5)
C28? C 0.637(3) 0.804(3) 1.178(2)
H35? H 0.4526 0.8531 0.6354
H36? H 0.4739 1.0240 0.6029
H37? H 0.4398 0.9913 0.7403
H38? H 0.3791 0.9753 0.6137
H39? H 0.5658 0.9361 0.4568
H40? H 0.4915 0.8675 0.4278
H41? H 0.5875 0.8450 0.4949
H42? H 0.5704 0.7383 1.0302
H43? H 0.7720 0.7440 1.0249
H44? H 0.7138 0.6983 0.9161
H45? H 0.7133 0.6660 1.0617
H46? H 0.6997 0.8243 1.1922
H47? H 0.6242 0.7613 1.2414
H48? H 0.5926 0.8473 1.1886
loop_
_geom_bond_atom_site_label_1
_geom_bond_atom_site_label_2
_geom_bond_site_symmetry_1
_geom_bond_site_symmetry_2
S1 O1 1_555 1_555
O1 C1 1_555 1_555
O2 S1 1_555 1_555
O3 S1 1_555 1_555
C1 C2 1_555 1_555
C2 C3 1_555 1_555
C3 H1 1_555 1_555
C4 C3 1_555 1_555
H2 C4 1_555 1_555
C5 C4 1_555 1_555
H3 C5 1_555 1_555
C6 C1 1_555 1_555
C7 C2 1_555 1_555
H4 C7 1_555 1_555
C8 C7 1_555 1_555
H5 C8 1_555 1_555
H6 C8 1_555 1_555
H7 C8 1_555 1_555
C9 C7 1_555 1_555
H8 C9 1_555 1_555
H9 C9 1_555 1_555
H10 C9 1_555 1_555
C10 C6 1_555 1_555
H11 C10 1_555 1_555
C11 C10 1_555 1_555
H12 C11 1_555 1_555
H13 C11 1_555 1_555
H14 C11 1_555 1_555
C12 C10 1_555 1_555
H15 C12 1_555 1_555
H16 C12 1_555 1_555
H17 C12 1_555 1_555
C13 O2 1_555 1_555
C14 C13 1_555 1_555
C15 C14 1_555 1_555
H18 C15 1_555 1_555
C16 C15 1_555 1_555
H19 C16 1_555 1_555
C17 C16 1_555 1_555
H20 C17 1_555 1_555
C18 C13 1_555 1_555
C19 C14 1_555 1_555
H21 C19 1_555 1_555
C20 C19 1_555 1_555
H22 C20 1_555 1_555
H23 C20 1_555 1_555
H24 C20 1_555 1_555
C21 C19 1_555 1_555
H25 C21 1_555 1_555
H26 C21 1_555 1_555
H27 C21 1_555 1_555
C22 C18 1_555 1_555
H28 C22 1_555 1_555
C23 C22 1_555 1_555
H29 C23 1_555 1_555
H30 C23 1_555 1_555
H31 C23 1_555 1_555
C24 C22 1_555 1_555
H32 C24 1_555 1_555
H33 C24 1_555 1_555
H34 C24 1_555 1_555
C5 C6 1_555 1_555
C17 C18 1_555 1_555

#END
