
#######################################################################
#
#                 Cambridge Crystallographic Data Centre
#                                CCDC 
#
#######################################################################
#
# If this CIF has been generated from an entry in the Cambridge 
# Structural Database, then it will include bibliographic, chemical, 
# crystal, experimental, refinement or atomic coordinate data resulting 
# from the CCDC's data processing and validation procedures.
#
#######################################################################

data_ERUSUH
_chemical_formula_moiety         'C19 H14 N2 O3'
_chemical_name_systematic        
6-(3-nitrophenyl)-5,6-dihydrophenanthridin-7-ol
_symmetry_cell_setting           tetragonal
_symmetry_space_group_name_H-M   'I 41/a'
_symmetry_Int_Tables_number      88
_space_group_name_Hall           '-I 4ad'
loop_
_symmetry_equiv_pos_site_id
_symmetry_equiv_pos_as_xyz
1 x,y,z
2 1/2-x,-y,1/2+z
3 3/4-y,1/4+x,1/4+z
4 3/4+y,3/4-x,3/4+z
5 1/2+x,1/2+y,1/2+z
6 -x,1/2-y,z
7 1/4-y,3/4+x,3/4+z
8 1/4+y,1/4-x,1/4+z
9 -x,-y,-z
10 1/2+x,y,1/2-z
11 1/4+y,3/4-x,3/4-z
12 1/4-y,1/4+x,1/4-z
13 1/2-x,1/2-y,1/2-z
14 x,1/2+y,-z
15 3/4+y,1/4-x,1/4-z
16 3/4-y,3/4+x,3/4-z
_cell_length_a                   29.019(2)
_cell_length_b                   29.019(2)
_cell_length_c                   7.7204(6)
_cell_angle_alpha                90
_cell_angle_beta                 90
_cell_angle_gamma                90
_cell_volume                     6501.37
_exptl_crystal_description       block
_cell_formula_units_Z            16
loop_
_atom_site_label
_atom_site_type_symbol
_atom_site_fract_x
_atom_site_fract_y
_atom_site_fract_z
N1 N 0.66071(7) 0.13605(7) 0.5764(3)
H1 H 0.6590 0.1062 0.6071
N2 N 0.83040(9) 0.25801(11) 0.5969(3)
O1 O 0.78661(7) 0.10623(7) 0.3728(3)
H2 H 0.8092 0.0943 0.3277
O2 O 0.85586(8) 0.22569(9) 0.6268(4)
O3 O 0.84313(7) 0.29836(8) 0.6072(3)
C1 C 0.62530(9) 0.13834(8) 0.2886(5)
C2 C 0.62221(9) 0.14525(8) 0.4679(5)
C3 C 0.58071(11) 0.15909(9) 0.5433(5)
H3 H 0.5786 0.1628 0.6627
C4 C 0.54265(12) 0.16723(11) 0.4394(8)
H4 H 0.5149 0.1762 0.4896
C5 C 0.54557(12) 0.16221(11) 0.2637(7)
H5 H 0.5200 0.1683 0.1947
C6 C 0.58653(10) 0.14809(9) 0.1878(5)
H6 H 0.5882 0.1451 0.0681
C7 C 0.66872(9) 0.12051(9) 0.2179(4)
C8 C 0.70818(9) 0.12213(8) 0.3217(4)
C9 C 0.74950(10) 0.10308(9) 0.2620(5)
C10 C 0.75196(11) 0.08279(10) 0.1007(5)
H7 H 0.7796 0.0705 0.0611
C11 C 0.71295(12) 0.08095(10) -0.0010(5)
H8 H 0.7143 0.0671 -0.1095
C12 C 0.67178(11) 0.09962(10) 0.0569(5)
H9 H 0.6458 0.0981 -0.0133
C13 C 0.70647(8) 0.14331(8) 0.5010(4)
H10 H 0.7284 0.1262 0.5730
C14 C 0.72251(9) 0.19352(8) 0.4986(4)
C15 C 0.76721(9) 0.20371(9) 0.5488(4)
H11 H 0.7866 0.1803 0.5867
C16 C 0.78289(9) 0.24846(10) 0.5427(4)
C17 C 0.75556(10) 0.28462(9) 0.4895(4)
H12 H 0.7667 0.3147 0.4881
C18 C 0.71117(10) 0.27471(10) 0.4384(4)
H13 H 0.6920 0.2983 0.4006
C19 C 0.69482(9) 0.22989(9) 0.4429(4)
H14 H 0.6647 0.2239 0.4080
loop_
_geom_bond_atom_site_label_1
_geom_bond_atom_site_label_2
_geom_bond_site_symmetry_1
_geom_bond_site_symmetry_2
N1 H1 1_555 1_555
N2 O2 1_555 1_555
O1 H2 1_555 1_555
O3 N2 1_555 1_555
C1 C2 1_555 1_555
C2 N1 1_555 1_555
C3 C2 1_555 1_555
H3 C3 1_555 1_555
C4 C3 1_555 1_555
H4 C4 1_555 1_555
C5 C4 1_555 1_555
H5 C5 1_555 1_555
C6 C1 1_555 1_555
H6 C6 1_555 1_555
C7 C1 1_555 1_555
C8 C7 1_555 1_555
C9 O1 1_555 1_555
C10 C9 1_555 1_555
H7 C10 1_555 1_555
C11 C10 1_555 1_555
H8 C11 1_555 1_555
C12 C7 1_555 1_555
H9 C12 1_555 1_555
C13 N1 1_555 1_555
H10 C13 1_555 1_555
C14 C13 1_555 1_555
C15 C14 1_555 1_555
H11 C15 1_555 1_555
C16 N2 1_555 1_555
C17 C16 1_555 1_555
H12 C17 1_555 1_555
C18 C17 1_555 1_555
H13 C18 1_555 1_555
C19 C14 1_555 1_555
H14 C19 1_555 1_555
C5 C6 1_555 1_555
C8 C9 1_555 1_555
C8 C13 1_555 1_555
C11 C12 1_555 1_555
C15 C16 1_555 1_555
C18 C19 1_555 1_555

#END
