
#######################################################################
#
#                 Cambridge Crystallographic Data Centre
#                                CCDC 
#
#######################################################################
#
# If this CIF has been generated from an entry in the Cambridge 
# Structural Database, then it will include bibliographic, chemical, 
# crystal, experimental, refinement or atomic coordinate data resulting 
# from the CCDC's data processing and validation procedures.
#
#######################################################################

data_ESADAF
_chemical_formula_moiety         'C27 H21 N3 O2'
_chemical_name_systematic        
7-(4-methoxyphenyl)-9-phenyl-5,6,9,10-tetrahydro-8H-benzo[h]pyrazolo[3,4-b]quinolin-8-one
_symmetry_cell_setting           orthorhombic
_symmetry_space_group_name_H-M   'P b c a'
_symmetry_Int_Tables_number      61
_space_group_name_Hall           '-P 2ac 2ab'
loop_
_symmetry_equiv_pos_site_id
_symmetry_equiv_pos_as_xyz
1 x,y,z
2 1/2-x,-y,1/2+z
3 -x,1/2+y,1/2-z
4 1/2+x,1/2-y,-z
5 -x,-y,-z
6 1/2+x,y,1/2-z
7 x,1/2-y,1/2+z
8 1/2-x,1/2+y,z
_cell_length_a                   11.996(2)
_cell_length_b                   18.421(3)
_cell_length_c                   19.133(3)
_cell_angle_alpha                90
_cell_angle_beta                 90
_cell_angle_gamma                90
_cell_volume                     4227.98
_exptl_crystal_colour            brown
_exptl_crystal_description       prism
_cell_formula_units_Z            8
loop_
_atom_site_label
_atom_site_type_symbol
_atom_site_fract_x
_atom_site_fract_y
_atom_site_fract_z
N1 N 1.05960(9) 0.03999(6) 0.40665(6)
N2 N 1.05125(9) -0.03568(6) 0.30622(6)
H1 H 1.1244 -0.0260 0.2879
O1 O 0.77920(8) -0.02863(6) 0.24313(6)
C1 C 0.99733(12) 0.07931(7) 0.45105(7)
O2 O 0.38210(8) 0.13698(7) 0.32128(6)
C2 C 1.05740(12) 0.11393(8) 0.50993(7)
N3 N 0.96842(9) -0.04917(6) 0.25528(6)
C3 C 1.00372(11) 0.01158(7) 0.35310(7)
C4 C 0.89185(11) 0.02298(7) 0.33748(7)
C5 C 0.48608(12) 0.11333(8) 0.33958(8)
C6 C 0.86704(11) -0.01816(8) 0.27459(8)
C7 C 0.88113(12) 0.09011(8) 0.44365(8)
C8 C 0.67877(12) 0.11124(8) 0.30733(8)
H2 H 0.7345 0.1221 0.2752
C9 C 0.82643(12) 0.06290(8) 0.38463(7)
C10 C 0.70679(12) 0.07718(8) 0.36969(8)
C11 C 0.98102(12) -0.11196(8) 0.21292(8)
C12 C 0.57020(12) 0.12908(9) 0.29236(8)
H3 H 0.5531 0.1518 0.2503
C13 C 1.00533(14) 0.16835(9) 0.54915(8)
C14 C 1.05700(13) -0.16505(9) 0.23077(9)
H4 H 1.1034 -0.1587 0.2692
C15 C 0.62176(13) 0.06001(9) 0.41534(9)
H5 H 0.6386 0.0361 0.4568
C16 C 1.06365(15) -0.22752(9) 0.19124(10)
H6 H 1.1146 -0.2634 0.2034
C17 C 0.51163(13) 0.07760(9) 0.40085(9)
H7 H 0.4555 0.0654 0.4322
C18 C 1.16662(14) 0.09475(9) 0.52591(8)
H8 H 1.2018 0.0586 0.5001
C19 C 0.82114(15) 0.13071(10) 0.50102(9)
H9 H 0.7524 0.1506 0.4823
H10 H 0.8015 0.0968 0.5378
C20 C 0.91595(16) -0.12042(10) 0.15399(10)
H11 H 0.8670 -0.0839 0.1403
C21 C 0.29403(14) 0.12413(13) 0.36946(10)
H12 H 0.2256 0.1428 0.3507
H13 H 0.3103 0.1481 0.4128
H14 H 0.2868 0.0729 0.3774
C22 C 0.88882(15) 0.19126(11) 0.53191(10)
H15 H 0.8914 0.2313 0.4990
H16 H 0.8525 0.2084 0.5741
C23 C 1.06447(18) 0.20133(11) 0.60259(10)
H17 H 1.0303 0.2376 0.6288
C24 C 1.22359(16) 0.12850(11) 0.57956(10)
H18 H 1.2966 0.1152 0.5898
C25 C 0.92428(18) -0.18371(12) 0.11553(11)
H19 H 0.8800 -0.1898 0.0761
C26 C 0.99656(17) -0.23742(11) 0.13458(11)
H20 H 1.0000 -0.2804 0.1091
C27 C 1.17170(19) 0.18199(12) 0.61776(11)
H21 H 1.2096 0.2050 0.6539
loop_
_geom_bond_atom_site_label_1
_geom_bond_atom_site_label_2
_geom_bond_site_symmetry_1
_geom_bond_site_symmetry_2
N1 C1 1_555 1_555
N2 H1 1_555 1_555
O1 C6 1_555 1_555
C1 C2 1_555 1_555
O2 C5 1_555 1_555
C2 C13 1_555 1_555
N3 N2 1_555 1_555
C3 N1 1_555 1_555
C4 C3 1_555 1_555
C5 C12 1_555 1_555
C6 N3 1_555 1_555
C7 C1 1_555 1_555
C8 H2 1_555 1_555
C9 C4 1_555 1_555
C10 C8 1_555 1_555
C11 N3 1_555 1_555
C12 C8 1_555 1_555
H3 C12 1_555 1_555
C13 C22 1_555 1_555
C14 C11 1_555 1_555
H4 C14 1_555 1_555
C15 C10 1_555 1_555
H5 C15 1_555 1_555
C16 C14 1_555 1_555
H6 C16 1_555 1_555
C17 C5 1_555 1_555
H7 C17 1_555 1_555
C18 C2 1_555 1_555
H8 C18 1_555 1_555
C19 C7 1_555 1_555
H9 C19 1_555 1_555
H10 C19 1_555 1_555
C20 C11 1_555 1_555
H11 C20 1_555 1_555
C21 O2 1_555 1_555
H12 C21 1_555 1_555
H13 C21 1_555 1_555
H14 C21 1_555 1_555
C22 C19 1_555 1_555
H15 C22 1_555 1_555
H16 C22 1_555 1_555
C23 C13 1_555 1_555
H17 C23 1_555 1_555
C24 C18 1_555 1_555
H18 C24 1_555 1_555
C25 C20 1_555 1_555
H19 C25 1_555 1_555
C26 C16 1_555 1_555
H20 C26 1_555 1_555
C27 C23 1_555 1_555
H21 C27 1_555 1_555
N2 C3 1_555 1_555
C4 C6 1_555 1_555
C7 C9 1_555 1_555
C9 C10 1_555 1_555
C15 C17 1_555 1_555
C24 C27 1_555 1_555
C25 C26 1_555 1_555

#END
