
#######################################################################
#
#                 Cambridge Crystallographic Data Centre
#                                CCDC 
#
#######################################################################
#
# If this CIF has been generated from an entry in the Cambridge 
# Structural Database, then it will include bibliographic, chemical, 
# crystal, experimental, refinement or atomic coordinate data resulting 
# from the CCDC's data processing and validation procedures.
#
#######################################################################

data_ESALEP
_chemical_formula_moiety         'C38 H42 N2 O1'
_chemical_name_systematic        
(E,E)-4,6-Diformylbenzofuranbis(2,6-diisopropylanil)
_symmetry_cell_setting           triclinic
_symmetry_space_group_name_H-M   'P -1'
_symmetry_Int_Tables_number      2
_space_group_name_Hall           '-P 1'
loop_
_symmetry_equiv_pos_site_id
_symmetry_equiv_pos_as_xyz
1 x,y,z
2 -x,-y,-z
_cell_length_a                   13.4263(4)
_cell_length_b                   14.2964(10)
_cell_length_c                   8.4860(3)
_cell_angle_alpha                95.440(3)
_cell_angle_beta                 105.183(2)
_cell_angle_gamma                78.230(3)
_cell_volume                     1537.48
_exptl_crystal_colour            'pale yellow'
_exptl_crystal_description       platelets
_chemical_melting_point          180-182deg.C
_cell_formula_units_Z            2
_exptl_crystal_recrystallization_method ethanol
loop_
_atom_site_label
_atom_site_type_symbol
_atom_site_fract_x
_atom_site_fract_y
_atom_site_fract_z
O1 O 0.39597(12) 0.34572(11) 0.33983(19)
N1 N 0.65395(15) 0.18676(14) 0.6446(2)
N2 N 0.07625(16) 0.35178(14) 0.2038(3)
C1 C 0.49332(18) 0.37035(16) 0.3715(3)
C2 C 0.49207(19) 0.44912(17) 0.2871(3)
C3 C 0.5845(2) 0.48316(18) 0.3099(3)
H1 H 0.5864 0.5359 0.2552
C4 C 0.6736(2) 0.43707(18) 0.4156(3)
H2 H 0.7359 0.4598 0.4329
C5 C 0.67249(19) 0.35773(18) 0.4967(3)
H3 H 0.7342 0.3284 0.5669
C6 C 0.58193(19) 0.32095(17) 0.4760(3)
C7 C 0.57545(19) 0.23548(17) 0.5527(3)
H4 H 0.5108 0.2166 0.5325
C8 C 0.63896(18) 0.10429(16) 0.7121(3)
C9 C 0.62189(18) 0.11381(18) 0.8672(3)
C10 C 0.6104(2) 0.03342(19) 0.9352(3)
H5 H 0.5987 0.0386 1.0392
C11 C 0.6162(2) -0.0533(2) 0.8517(4)
H6 H 0.6078 -0.1065 0.8987
C12 C 0.6342(2) -0.06192(18) 0.6987(4)
H7 H 0.6381 -0.1213 0.6431
C13 C 0.64682(19) 0.01608(17) 0.6249(3)
C14 C 0.6699(2) 0.00764(19) 0.4583(3)
H8 H 0.6217 0.0598 0.3951
C15 C 0.7785(3) 0.0224(3) 0.4710(4)
H9 H 0.8284 -0.0274 0.5328
H10 H 0.7875 0.0833 0.5248
H11 H 0.7897 0.0206 0.3634
C16 C 0.6513(2) -0.08350(19) 0.3634(4)
H12 H 0.6634 -0.0820 0.2571
H13 H 0.5801 -0.0905 0.3519
H14 H 0.6984 -0.1365 0.4202
C17 C 0.6119(2) 0.21032(19) 0.9552(3)
H15 H 0.6480 0.2495 0.9083
C18 C 0.6633(3) 0.2070(2) 1.1363(4)
H16 H 0.6255 0.1744 1.1883
H17 H 0.6624 0.2710 1.1827
H18 H 0.7346 0.1734 1.1530
C19 C 0.4983(2) 0.26076(19) 0.9283(4)
H19 H 0.4679 0.2684 0.8134
H20 H 0.4951 0.3225 0.9842
H21 H 0.4599 0.2234 0.9701
C20 C 0.33041(19) 0.41196(16) 0.2318(3)
C21 C 0.38439(19) 0.47599(17) 0.1927(3)
C22 C 0.3285(2) 0.54616(18) 0.0847(3)
H22 H 0.3624 0.5890 0.0527
C23 C 0.2214(2) 0.55127(18) 0.0252(3)
H23 H 0.1832 0.5984 -0.0468
C24 C 0.1699(2) 0.48766(18) 0.0707(3)
H24 H 0.0976 0.4939 0.0297
C25 C 0.22330(19) 0.41476(17) 0.1758(3)
C26 C 0.17433(19) 0.34583(18) 0.2319(3)
H25 H 0.2178 0.2950 0.2913
C27 C 0.04119(19) 0.28081(18) 0.2728(3)
C28 C 0.0020(2) 0.20761(19) 0.1693(3)
C29 C -0.0321(2) 0.1391(2) 0.2370(4)
H26 H -0.0582 0.0897 0.1704
C30 C -0.0278(3) 0.1433(2) 0.4006(4)
H27 H -0.0489 0.0958 0.4447
C31 C 0.0075(3) 0.2172(2) 0.4991(4)
H28 H 0.0077 0.2203 0.6091
C32 C 0.0429(2) 0.2874(2) 0.4386(3)
C33 C 0.0801(2) 0.36808(19) 0.5520(3)
H29 H 0.0786 0.4204 0.4842
C34 C 0.1924(2) 0.3396(2) 0.6533(4)
H30 H 0.1972 0.2860 0.7167
H31 H 0.2120 0.3925 0.7251
H32 H 0.2388 0.3225 0.5820
C35 C 0.0079(3) 0.4067(2) 0.6649(4)
H33 H -0.0638 0.4181 0.6019
H34 H 0.0254 0.4656 0.7185
H35 H 0.0167 0.3609 0.7454
C36 C 0.0029(2) 0.2006(2) -0.0075(3)
H36 H 0.0018 0.2650 -0.0395
C37 C -0.0920(2) 0.1658(3) -0.1184(4)
H37 H -0.0890 0.1002 -0.0983
H38 H -0.0922 0.1711 -0.2304
H39 H -0.1549 0.2042 -0.0967
C38 C 0.1043(2) 0.1377(2) -0.0311(4)
H40 H 0.1631 0.1648 0.0316
H41 H 0.1042 0.1337 -0.1447
H42 H 0.1096 0.0748 0.0050
loop_
_geom_bond_atom_site_label_1
_geom_bond_atom_site_label_2
_geom_bond_site_symmetry_1
_geom_bond_site_symmetry_2
O1 C1 1_555 1_555
N1 C7 1_555 1_555
N2 C26 1_555 1_555
C1 C2 1_555 1_555
C2 C3 1_555 1_555
C3 H1 1_555 1_555
C4 C3 1_555 1_555
H2 C4 1_555 1_555
C5 C4 1_555 1_555
H3 C5 1_555 1_555
C6 C1 1_555 1_555
C7 C6 1_555 1_555
H4 C7 1_555 1_555
C8 N1 1_555 1_555
C9 C8 1_555 1_555
C10 C9 1_555 1_555
H5 C10 1_555 1_555
C11 C10 1_555 1_555
H6 C11 1_555 1_555
C12 C11 1_555 1_555
H7 C12 1_555 1_555
C13 C8 1_555 1_555
C14 C13 1_555 1_555
H8 C14 1_555 1_555
C15 C14 1_555 1_555
H9 C15 1_555 1_555
H10 C15 1_555 1_555
H11 C15 1_555 1_555
C16 C14 1_555 1_555
H12 C16 1_555 1_555
H13 C16 1_555 1_555
H14 C16 1_555 1_555
C17 C9 1_555 1_555
H15 C17 1_555 1_555
C18 C17 1_555 1_555
H16 C18 1_555 1_555
H17 C18 1_555 1_555
H18 C18 1_555 1_555
C19 C17 1_555 1_555
H19 C19 1_555 1_555
H20 C19 1_555 1_555
H21 C19 1_555 1_555
C20 O1 1_555 1_555
C21 C2 1_555 1_555
C22 C21 1_555 1_555
H22 C22 1_555 1_555
C23 C22 1_555 1_555
H23 C23 1_555 1_555
C24 C23 1_555 1_555
H24 C24 1_555 1_555
C25 C20 1_555 1_555
C26 C25 1_555 1_555
H25 C26 1_555 1_555
C27 N2 1_555 1_555
C28 C27 1_555 1_555
C29 C28 1_555 1_555
H26 C29 1_555 1_555
C30 C29 1_555 1_555
H27 C30 1_555 1_555
C31 C30 1_555 1_555
H28 C31 1_555 1_555
C32 C27 1_555 1_555
C33 C32 1_555 1_555
H29 C33 1_555 1_555
C34 C33 1_555 1_555
H30 C34 1_555 1_555
H31 C34 1_555 1_555
H32 C34 1_555 1_555
C35 C33 1_555 1_555
H33 C35 1_555 1_555
H34 C35 1_555 1_555
H35 C35 1_555 1_555
C36 C28 1_555 1_555
H36 C36 1_555 1_555
C37 C36 1_555 1_555
H37 C37 1_555 1_555
H38 C37 1_555 1_555
H39 C37 1_555 1_555
C38 C36 1_555 1_555
H40 C38 1_555 1_555
H41 C38 1_555 1_555
H42 C38 1_555 1_555
C5 C6 1_555 1_555
C12 C13 1_555 1_555
C20 C21 1_555 1_555
C24 C25 1_555 1_555
C31 C32 1_555 1_555

#END
