
#######################################################################
#
#                 Cambridge Crystallographic Data Centre
#                                CCDC 
#
#######################################################################
#
# If this CIF has been generated from an entry in the Cambridge 
# Structural Database, then it will include bibliographic, chemical, 
# crystal, experimental, refinement or atomic coordinate data resulting 
# from the CCDC's data processing and validation procedures.
#
#######################################################################

data_ESEWOQ
_chemical_formula_moiety         'C26 H22 N1 O2 P1 S1'
_chemical_name_systematic        
3-(diphenylphosphorothioyl)-3-(1-oxidopyridin-3-yl)-1-phenylpropan-1-one
_symmetry_cell_setting           orthorhombic
_symmetry_space_group_name_H-M   'P 21 21 21'
_symmetry_Int_Tables_number      19
_space_group_name_Hall           'P 2ac 2ab'
loop_
_symmetry_equiv_pos_site_id
_symmetry_equiv_pos_as_xyz
1 x,y,z
2 1/2-x,-y,1/2+z
3 -x,1/2+y,1/2-z
4 1/2+x,1/2-y,-z
_cell_length_a                   6.2681(5)
_cell_length_b                   16.6286(15)
_cell_length_c                   21.762(3)
_cell_angle_alpha                90
_cell_angle_beta                 90
_cell_angle_gamma                90
_cell_volume                     2268.25
_exptl_crystal_colour            colorless
_exptl_crystal_description       plate
_cell_formula_units_Z            4
loop_
_atom_site_label
_atom_site_type_symbol
_atom_site_fract_x
_atom_site_fract_y
_atom_site_fract_z
C1 C 0.4316(9) 0.6561(3) 0.5374(3)
H1 H 0.4577 0.7005 0.511
C2 C 0.5871(9) 0.5999(3) 0.5465(3)
H2 H 0.7194 0.6054 0.5256
C3 C 0.5564(9) 0.5351(3) 0.5854(3)
H3 H 0.664 0.4955 0.5907
C4 C 0.3624(8) 0.5299(3) 0.6167(3)
C5 C 0.2077(8) 0.5874(3) 0.6060(3)
H4 H 0.0755 0.5838 0.6271
C6 C 0.3240(7) 0.4673(3) 0.6660(2)
H5 H 0.1689 0.469 0.6767
C7 C 0.3768(8) 0.3807(3) 0.6466(3)
H6 H 0.5164 0.38 0.6253
H7 H 0.3887 0.3465 0.6837
C8 C 0.2087(9) 0.3467(3) 0.6047(3)
C9 C 0.2307(10) 0.2611(3) 0.5836(3)
C10 C 0.4088(10) 0.2140(3) 0.5993(3)
H8 H 0.5226 0.2369 0.6222
C11 C 0.4187(13) 0.1343(4) 0.5813(3)
H9 H 0.5396 0.1025 0.5914
C12 C 0.2518(13) 0.1012(4) 0.5486(3)
H10 H 0.2579 0.0462 0.5368
C13 C 0.0759(13) 0.1467(4) 0.5328(3)
H11 H -0.0371 0.1234 0.5098
C14 C 0.0651(11) 0.2264(4) 0.5506(3)
H12 H -0.0564 0.2577 0.5401
C15 C 0.4000(8) 0.4307(3) 0.7976(3)
C16 C 0.2066(9) 0.3897(3) 0.7991(3)
H13 H 0.105 0.3978 0.7673
C17 C 0.1619(10) 0.3371(4) 0.8470(4)
H14 H 0.0292 0.3095 0.8478
C18 C 0.3076(11) 0.3244(4) 0.8932(3)
H15 H 0.2766 0.2877 0.9254
C19 C 0.4993(12) 0.3653(4) 0.8925(3)
H16 H 0.5999 0.3573 0.9245
C20 C 0.5452(10) 0.4183(3) 0.8450(3)
H17 H 0.6772 0.4464 0.8448
C21 C 0.3697(8) 0.5942(3) 0.7542(3)
C22 C 0.1852(9) 0.6025(3) 0.7883(3)
H18 H 0.1186 0.5563 0.8054
C23 C 0.0958(11) 0.6785(4) 0.7979(4)
H19 H -0.0309 0.6838 0.8215
C24 C 0.1902(13) 0.7451(4) 0.7735(4)
H20 H 0.1281 0.7966 0.7795
C25 C 0.3756(14) 0.7376(3) 0.7399(4)
H21 H 0.4428 0.7843 0.7238
C26 C 0.4643(11) 0.6632(3) 0.7296(3)
H22 H 0.5904 0.6587 0.7057
N1 N 0.2399(7) 0.6490(2) 0.5660(2)
O1 O 0.0890(7) 0.7015(2) 0.5560(2)
O2 O 0.0551(7) 0.3862(3) 0.5893(2)
P1 P 0.47574(18) 0.49711(9) 0.73571(6)
S1 S 0.7828(2) 0.49765(12) 0.72171(8)
loop_
_geom_bond_atom_site_label_1
_geom_bond_atom_site_label_2
_geom_bond_site_symmetry_1
_geom_bond_site_symmetry_2
C1 H1 1_555 1_555
C2 C1 1_555 1_555
H2 C2 1_555 1_555
C3 C2 1_555 1_555
H3 C3 1_555 1_555
C4 C3 1_555 1_555
C5 C4 1_555 1_555
H4 C5 1_555 1_555
C6 C4 1_555 1_555
H5 C6 1_555 1_555
C7 C6 1_555 1_555
H6 C7 1_555 1_555
H7 C7 1_555 1_555
C8 C7 1_555 1_555
C9 C8 1_555 1_555
C10 C9 1_555 1_555
H8 C10 1_555 1_555
C11 C10 1_555 1_555
H9 C11 1_555 1_555
C12 C11 1_555 1_555
H10 C12 1_555 1_555
C13 C12 1_555 1_555
H11 C13 1_555 1_555
C14 C9 1_555 1_555
H12 C14 1_555 1_555
C15 C16 1_555 1_555
C16 H13 1_555 1_555
C17 C16 1_555 1_555
H14 C17 1_555 1_555
C18 C17 1_555 1_555
H15 C18 1_555 1_555
C19 C18 1_555 1_555
H16 C19 1_555 1_555
C20 C15 1_555 1_555
H17 C20 1_555 1_555
C21 C22 1_555 1_555
C22 H18 1_555 1_555
C23 C22 1_555 1_555
H19 C23 1_555 1_555
C24 C23 1_555 1_555
H20 C24 1_555 1_555
C25 C24 1_555 1_555
H21 C25 1_555 1_555
C26 C21 1_555 1_555
H22 C26 1_555 1_555
N1 C1 1_555 1_555
O1 N1 1_555 1_555
O2 C8 1_555 1_555
P1 C6 1_555 1_555
S1 P1 1_555 1_555
C5 N1 1_555 1_555
C13 C14 1_555 1_555
C15 P1 1_555 1_555
C19 C20 1_555 1_555
C21 P1 1_555 1_555
C25 C26 1_555 1_555

#END
