
#######################################################################
#
#                 Cambridge Crystallographic Data Centre
#                                CCDC 
#
#######################################################################
#
# If this CIF has been generated from an entry in the Cambridge 
# Structural Database, then it will include bibliographic, chemical, 
# crystal, experimental, refinement or atomic coordinate data resulting 
# from the CCDC's data processing and validation procedures.
#
#######################################################################

data_ESIHAR
_chemical_name_common            
'(SO2)6-corona[3]arene[3]pyridazine acetone solvate'
_chemical_formula_moiety         'C57 H54 N6 O24 S6,2(C3 H6 O1)'
_chemical_name_systematic        
'hexaethyl 2,7,15,20,28,33-hexathia-40,41,44,45,48,49-hexaazadecacyclo[32.5.2.2^3,6^.2^8,14^.2^16,19^.2^21,27^.2^29,32^.0^9,13^.0^22,26^.0^35,39^]henpentaconta-1(39),3,5,8,13,16,18,21,26,29,31,34,40,42,44,46,48,50-octadecaene-4,17,30,42,46,50-hexacarboxylate 2,2,7,7,15,15,20,20,28,28,33,33-dodecaoxide acetone solvate'
_symmetry_cell_setting           monoclinic
_symmetry_space_group_name_H-M   'P 21/n'
_symmetry_Int_Tables_number      14
_space_group_name_Hall           '-P 2yn'
loop_
_symmetry_equiv_pos_site_id
_symmetry_equiv_pos_as_xyz
1 x,y,z
2 1/2-x,1/2+y,1/2-z
3 -x,-y,-z
4 1/2+x,1/2-y,1/2+z
_cell_length_a                   18.130(4)
_cell_length_b                   17.264(4)
_cell_length_c                   23.010(5)
_cell_angle_alpha                90
_cell_angle_beta                 99.01(3)
_cell_angle_gamma                90
_cell_volume                     7113.18
_exptl_crystal_colour            colorless
_exptl_crystal_description       plate
_cell_formula_units_Z            4
loop_
_atom_site_label
_atom_site_type_symbol
_atom_site_fract_x
_atom_site_fract_y
_atom_site_fract_z
S1 S 0.62656(7) 0.92154(7) 0.37870(5)
S2 S 0.85351(8) 0.92658(8) 0.60728(6)
S3 S 1.02260(9) 0.61674(8) 0.67381(6)
S4 S 0.91008(8) 0.31347(8) 0.55133(6)
S5 S 0.57970(9) 0.31244(8) 0.42196(7)
S6 S 0.43452(8) 0.62008(8) 0.33017(6)
O1 O 0.6684(2) 0.9268(2) 0.33134(16)
O2 O 0.5683(2) 0.97679(19) 0.38278(16)
O3 O 0.9146(2) 0.9793(2) 0.60595(16)
O4 O 0.8056(2) 0.9359(2) 0.65078(17)
O5 O 1.0537(2) 0.8746(2) 0.55134(19)
O6 O 0.9381(2) 0.8775(2) 0.49999(16)
O7 O 1.0895(2) 0.6256(2) 0.6501(2)
O8 O 1.0251(3) 0.6176(2) 0.73609(17)
O9 O 0.8648(3) 0.5825(2) 0.6914(2)
O10 O 0.8231(3) 0.6824(2) 0.73922(19)
O11 O 0.9078(2) 0.2490(2) 0.58990(18)
O12 O 0.9551(2) 0.3094(3) 0.50570(19)
O13 O 0.7955(2) 0.3519(3) 0.64760(16)
O14 O 0.7406(3) 0.2353(3) 0.6248(2)
O15 O 0.7581(3) 0.3241(3) 0.33257(17)
O16 O 0.6731(3) 0.4136(3) 0.3397(2)
O17 O 0.5889(3) 0.2581(2) 0.3767(2)
O18 O 0.5370(2) 0.2918(3) 0.4661(2)
O19 O 0.4104(3) 0.6255(2) 0.26814(18)
O20 O 0.3805(2) 0.6274(2) 0.3685(2)
O21 O 0.5630(3) 0.5892(2) 0.2702(2)
O22 O 0.6274(3) 0.6876(3) 0.2427(2)
O23 O 0.4397(2) 0.8716(2) 0.45966(18)
O24 O 0.5614(2) 0.8801(2) 0.49596(16)
N1 N 0.7181(3) 0.8610(2) 0.46764(19)
N2 N 0.7688(3) 0.8624(3) 0.51668(19)
N3 N 0.9481(3) 0.5285(3) 0.5916(2)
N4 N 0.9243(3) 0.4622(3) 0.56567(19)
N5 N 0.5519(3) 0.4614(3) 0.4210(2)
N6 N 0.5212(3) 0.5284(3) 0.40115(19)
C1 C 0.6928(3) 0.9285(3) 0.4438(2)
C2 C 0.7166(3) 1.0008(3) 0.4650(2)
C3 C 0.7709(3) 1.0026(3) 0.5145(2)
C4 C 0.7930(3) 0.9309(3) 0.5386(2)
C5 C 0.6987(10) 1.0817(12) 0.4392(7)
H1 H 0.7000 1.0827 0.3972
H2 H 0.6503 1.0996 0.4465
C6 C 0.7613(8) 1.1295(6) 0.4727(7)
H3 H 0.7417 1.1782 0.4847
H4 H 0.7982 1.1408 0.4476
C7 C 0.7978(10) 1.0846(13) 0.5271(8)
H5 H 0.8519 1.0875 0.5315
H6 H 0.7817 1.1043 0.5625
C8 C 0.8913(3) 0.8310(3) 0.6138(2)
C9 C 0.9553(3) 0.8120(3) 0.5903(2)
C10 C 0.9911(3) 0.7440(3) 0.6074(2)
H7 H 1.0356 0.7320 0.5941
C11 C 0.9621(3) 0.6930(3) 0.6440(2)
C12 C 0.8951(3) 0.7096(3) 0.6657(2)
C13 C 0.8613(3) 0.7811(3) 0.6506(2)
H8 H 0.8184 0.7951 0.6655
C14 C 0.9887(3) 0.8600(3) 0.5463(2)
C15 C 0.9670(4) 0.9120(4) 0.4494(3)
H9 H 0.9928 0.9601 0.4612
H10 H 1.0020 0.8769 0.4354
C16 C 0.9042(5) 0.9269(7) 0.4029(3)
H11 H 0.9223 0.9479 0.3692
H12 H 0.8707 0.9633 0.4166
H13 H 0.8781 0.8793 0.3922
C17 C 0.8601(4) 0.6509(4) 0.6999(3)
C18 C 0.7852(4) 0.6262(4) 0.7737(3)
H14 H 0.7456 0.6522 0.7899
H15 H 0.7629 0.5851 0.7480
C19 C 0.8387(5) 0.5928(5) 0.8216(3)
H16 H 0.8781 0.5675 0.8055
H17 H 0.8137 0.5559 0.8428
H18 H 0.8594 0.6333 0.8478
C20 C 0.9853(3) 0.5262(3) 0.6457(2)
C21 C 1.0028(3) 0.4592(3) 0.6786(2)
C22 C 0.9783(3) 0.3902(3) 0.6514(2)
C23 C 0.9392(3) 0.3961(3) 0.5952(2)
C24 C 1.0330(11) 0.4474(14) 0.7424(9)
H19 H 1.0037 0.4757 0.7672
H20 H 1.0846 0.4642 0.7512
C25 C 1.0267(13) 0.3601(9) 0.7514(6)
H21 H 1.0757 0.3383 0.7646
H22 H 0.9954 0.3498 0.7810
C26 C 0.9934(11) 0.3241(13) 0.6945(9)
H23 H 0.9474 0.2974 0.6985
H24 H 1.0278 0.2873 0.6816
C27 C 0.8168(3) 0.3324(3) 0.5175(2)
C28 C 0.7575(3) 0.3215(3) 0.5479(2)
C29 C 0.6853(3) 0.3239(3) 0.5176(2)
H25 H 0.6453 0.3172 0.5380
C30 C 0.6717(3) 0.3359(3) 0.4579(2)
C31 C 0.7304(3) 0.3483(3) 0.4267(2)
C32 C 0.8032(3) 0.3456(3) 0.4565(2)
H26 H 0.8430 0.3526 0.4360
C33 C 0.7654(4) 0.2971(4) 0.6119(3)
C34 C 0.7923(4) 0.3359(4) 0.7100(3)
H27 H 0.7445 0.3135 0.7144
H28 H 0.8315 0.2999 0.7258
C35 C 0.8025(6) 0.4088(5) 0.7401(3)
H29 H 0.7628 0.4433 0.7247
H30 H 0.8495 0.4309 0.7345
H31 H 0.8022 0.4008 0.7814
C36 C 0.7154(3) 0.3652(4) 0.3599(3)
C37 C 0.7572(4) 0.3458(5) 0.2704(3)
H32 H 0.7501 0.4013 0.2661
H33 H 0.8049 0.3330 0.2589
C38 C 0.6975(5) 0.3056(7) 0.2318(3)
H34 H 0.7040 0.3128 0.1915
H35 H 0.6500 0.3264 0.2375
H36 H 0.6992 0.2514 0.2410
C39 C 0.5395(3) 0.3980(3) 0.3870(2)
C40 C 0.4962(3) 0.3961(3) 0.3321(2)
C41 C 0.4818(10) 0.3337(12) 0.2847(8)
H37 H 0.4482 0.2944 0.2954
H38 H 0.5281 0.3093 0.2786
C42 C 0.4462(9) 0.3777(7) 0.2296(5)
H39 H 0.4806 0.3796 0.2013
H40 H 0.4011 0.3515 0.2115
C43 C 0.4281(10) 0.4579(13) 0.2472(8)
H41 H 0.3745 0.4649 0.2437
H42 H 0.4478 0.4960 0.2228
C44 C 0.4648(3) 0.4655(3) 0.3107(2)
C45 C 0.4787(3) 0.5287(3) 0.3480(2)
C46 C 0.5037(3) 0.6936(3) 0.3513(2)
C47 C 0.5636(3) 0.7083(3) 0.3218(2)
C48 C 0.6036(3) 0.7773(3) 0.3350(2)
H43 H 0.6427 0.7894 0.3148
C49 C 0.5860(3) 0.8275(3) 0.3775(2)
C50 C 0.5283(3) 0.8107(3) 0.4085(2)
C51 C 0.4870(3) 0.7435(3) 0.3944(2)
H44 H 0.4475 0.7320 0.4143
C52 C 0.5845(4) 0.6547(4) 0.2758(3)
C53 C 0.6533(6) 0.6375(5) 0.1971(4)
H45 H 0.6730 0.6699 0.1686
H46 H 0.6113 0.6087 0.1765
C54 C 0.7124(6) 0.5822(7) 0.2240(5)
H47 H 0.7343 0.5573 0.1935
H48 H 0.6906 0.5438 0.2463
H49 H 0.7503 0.6099 0.2496
C55 C 0.5037(3) 0.8588(3) 0.4569(2)
C56 C 0.5789(12) 0.8819(11) 0.5993(6)
H50 H 0.6284 0.8634 0.5973
H51 H 0.5462 0.8386 0.6014
H52 H 0.5798 0.9136 0.6336
C57 C 0.5524(11) 0.9270(11) 0.5474(8)
H53 H 0.5810 0.9745 0.5476
H54 H 0.5003 0.9404 0.5465
O25 O 0.1429(6) 0.3451(6) 0.6291(4)
C69 C 0.1521(6) 0.3209(7) 0.5297(5)
H78 H 0.2010 0.3116 0.5203
H79 H 0.1225 0.3480 0.4978
H80 H 0.1287 0.2724 0.5360
C70 C 0.1581(6) 0.3678(6) 0.5833(5)
C71 C 0.1746(13) 0.4483(8) 0.5774(7)
H81 H 0.1738 0.4741 0.6142
H82 H 0.1379 0.4711 0.5477
H83 H 0.2232 0.4536 0.5662
O26 O 0.3307(6) 0.3595(7) 0.3678(4)
C72 C 0.3519(7) 0.3300(9) 0.4693(6)
H84 H 0.3709 0.2818 0.4569
H85 H 0.3099 0.3201 0.4889
H86 H 0.3903 0.3558 0.4958
C73 C 0.3282(6) 0.3800(8) 0.4170(6)
C74 C 0.2982(10) 0.4598(7) 0.4276(6)
H87 H 0.2833 0.4853 0.3906
H88 H 0.3364 0.4896 0.4512
H89 H 0.2559 0.4550 0.4477
C58? C 0.5324(13) 0.9062(13) 0.5510(10)
H55? H 0.5060 0.8647 0.5673
H56? H 0.4994 0.9505 0.5430
C59? C 0.6034(12) 0.9279(18) 0.5923(9)
H57? H 0.6364 0.9554 0.5708
H58? H 0.6276 0.8818 0.6089
H59? H 0.5910 0.9603 0.6233
C60? C 0.4656(16) 0.329(2) 0.2946(14)
H60? H 0.5049 0.3018 0.2788
H61? H 0.4401 0.2926 0.3168
C61? C 0.4130(13) 0.3655(10) 0.2474(9)
H62? H 0.3635 0.3443 0.2473
H63? H 0.4280 0.3539 0.2097
C62? C 0.4106(16) 0.454(2) 0.2555(14)
H64? H 0.4265 0.4809 0.2226
H65? H 0.3610 0.4713 0.2601
C63? C 1.0146(13) 0.3209(16) 0.6881(11)
H66? H 0.9770 0.2875 0.7006
H67? H 1.0458 0.2906 0.6661
C64? C 1.0616(13) 0.3611(9) 0.7410(7)
H68? H 1.0450 0.3443 0.7771
H69? H 1.1136 0.3465 0.7430
C65? C 1.0544(12) 0.4446(15) 0.7355(10)
H70? H 1.1028 0.4682 0.7346
H71? H 1.0336 0.4660 0.7684
C66? C 0.7842(18) 1.083(2) 0.5376(14)
H72? H 0.7679 1.0881 0.5756
H73? H 0.8368 1.0959 0.5418
C67? C 0.7409(13) 1.1318(11) 0.4947(11)
H74? H 0.7738 1.1610 0.4734
H75? H 0.7119 1.1681 0.5140
C68? C 0.6897(18) 1.081(2) 0.4528(13)
H76? H 0.6384 1.0869 0.4595
H77? H 0.6922 1.0956 0.4123
loop_
_geom_bond_atom_site_label_1
_geom_bond_atom_site_label_2
_geom_bond_site_symmetry_1
_geom_bond_site_symmetry_2
S1 O1 1_555 1_555
S2 O3 1_555 1_555
S3 O7 1_555 1_555
S4 O11 1_555 1_555
S5 O17 1_555 1_555
S6 O19 1_555 1_555
O2 S1 1_555 1_555
O4 S2 1_555 1_555
O5 C14 1_555 1_555
O6 C14 1_555 1_555
O8 S3 1_555 1_555
O9 C17 1_555 1_555
O10 C17 1_555 1_555
O12 S4 1_555 1_555
O13 C33 1_555 1_555
O14 C33 1_555 1_555
O15 C36 1_555 1_555
O16 C36 1_555 1_555
O18 S5 1_555 1_555
O20 S6 1_555 1_555
O21 C52 1_555 1_555
O22 C52 1_555 1_555
O23 C55 1_555 1_555
O24 C55 1_555 1_555
N1 N2 1_555 1_555
N2 C4 1_555 1_555
N3 N4 1_555 1_555
N4 C23 1_555 1_555
N5 N6 1_555 1_555
N6 C45 1_555 1_555
C1 S1 1_555 1_555
C2 C1 1_555 1_555
C3 C2 1_555 1_555
C4 S2 1_555 1_555
C5 C2 1_555 1_555
H1 C5 1_555 1_555
H2 C5 1_555 1_555
C6 C5 1_555 1_555
H3 C6 1_555 1_555
H4 C6 1_555 1_555
C7 C3 1_555 1_555
H5 C7 1_555 1_555
H6 C7 1_555 1_555
C8 S2 1_555 1_555
C9 C8 1_555 1_555
C10 C9 1_555 1_555
H7 C10 1_555 1_555
C11 S3 1_555 1_555
C12 C11 1_555 1_555
C13 C8 1_555 1_555
H8 C13 1_555 1_555
C14 C9 1_555 1_555
C15 O6 1_555 1_555
H9 C15 1_555 1_555
H10 C15 1_555 1_555
C16 C15 1_555 1_555
H11 C16 1_555 1_555
H12 C16 1_555 1_555
H13 C16 1_555 1_555
C17 C12 1_555 1_555
C18 O10 1_555 1_555
H14 C18 1_555 1_555
H15 C18 1_555 1_555
C19 C18 1_555 1_555
H16 C19 1_555 1_555
H17 C19 1_555 1_555
H18 C19 1_555 1_555
C20 S3 1_555 1_555
C21 C20 1_555 1_555
C22 C21 1_555 1_555
C23 S4 1_555 1_555
C24 C21 1_555 1_555
H19 C24 1_555 1_555
H20 C24 1_555 1_555
C25 C24 1_555 1_555
H21 C25 1_555 1_555
H22 C25 1_555 1_555
C26 C22 1_555 1_555
H23 C26 1_555 1_555
H24 C26 1_555 1_555
C27 S4 1_555 1_555
C28 C27 1_555 1_555
C29 C28 1_555 1_555
H25 C29 1_555 1_555
C30 S5 1_555 1_555
C31 C30 1_555 1_555
C32 C27 1_555 1_555
H26 C32 1_555 1_555
C33 C28 1_555 1_555
C34 O13 1_555 1_555
H27 C34 1_555 1_555
H28 C34 1_555 1_555
C35 C34 1_555 1_555
H29 C35 1_555 1_555
H30 C35 1_555 1_555
H31 C35 1_555 1_555
C36 C31 1_555 1_555
C37 O15 1_555 1_555
H32 C37 1_555 1_555
H33 C37 1_555 1_555
C38 C37 1_555 1_555
H34 C38 1_555 1_555
H35 C38 1_555 1_555
H36 C38 1_555 1_555
C39 S5 1_555 1_555
C40 C39 1_555 1_555
C41 C40 1_555 1_555
H37 C41 1_555 1_555
H38 C41 1_555 1_555
C42 C41 1_555 1_555
H39 C42 1_555 1_555
H40 C42 1_555 1_555
C43 C42 1_555 1_555
H41 C43 1_555 1_555
H42 C43 1_555 1_555
C44 C40 1_555 1_555
C45 S6 1_555 1_555
C46 S6 1_555 1_555
C47 C46 1_555 1_555
C48 C47 1_555 1_555
H43 C48 1_555 1_555
C49 S1 1_555 1_555
C50 C49 1_555 1_555
C51 C46 1_555 1_555
H44 C51 1_555 1_555
C52 C47 1_555 1_555
C53 O22 1_555 1_555
H45 C53 1_555 1_555
H46 C53 1_555 1_555
C54 C53 1_555 1_555
H47 C54 1_555 1_555
H48 C54 1_555 1_555
H49 C54 1_555 1_555
C55 C50 1_555 1_555
C56 H50 1_555 1_555
H51 C56 1_555 1_555
H52 C56 1_555 1_555
C57 O24 1_555 1_555
H53 C57 1_555 1_555
H54 C57 1_555 1_555
O25 C70 1_555 1_555
C69 H78 1_555 1_555
H79 C69 1_555 1_555
H80 C69 1_555 1_555
C70 C69 1_555 1_555
C71 C70 1_555 1_555
H81 C71 1_555 1_555
H82 C71 1_555 1_555
H83 C71 1_555 1_555
O26 C73 1_555 1_555
C72 H84 1_555 1_555
H85 C72 1_555 1_555
H86 C72 1_555 1_555
C73 C72 1_555 1_555
C74 C73 1_555 1_555
H87 C74 1_555 1_555
H88 C74 1_555 1_555
H89 C74 1_555 1_555
N1 C1 1_555 1_555
N3 C20 1_555 1_555
N5 C39 1_555 1_555
C3 C4 1_555 1_555
C6 C7 1_555 1_555
C10 C11 1_555 1_555
C12 C13 1_555 1_555
C22 C23 1_555 1_555
C25 C26 1_555 1_555
C29 C30 1_555 1_555
C31 C32 1_555 1_555
C43 C44 1_555 1_555
C44 C45 1_555 1_555
C48 C49 1_555 1_555
C50 C51 1_555 1_555
C56 C57 1_555 1_555

#END
