
#######################################################################
#
#                 Cambridge Crystallographic Data Centre
#                                CCDC 
#
#######################################################################
#
# If this CIF has been generated from an entry in the Cambridge 
# Structural Database, then it will include bibliographic, chemical, 
# crystal, experimental, refinement or atomic coordinate data resulting 
# from the CCDC's data processing and validation procedures.
#
#######################################################################

data_ESIJOH
_chemical_formula_moiety         'C14 H14 F6 N1 O2 1+,Cl1 1-'
_chemical_name_systematic        
'1-(3,5-bis(trifluoromethyl)benzyl)-2-carboxypyrrolidinium chloride'
_symmetry_cell_setting           orthorhombic
_symmetry_space_group_name_H-M   'P 21 21 21'
_symmetry_Int_Tables_number      19
_space_group_name_Hall           'P 2ac 2ab'
loop_
_symmetry_equiv_pos_site_id
_symmetry_equiv_pos_as_xyz
1 x,y,z
2 1/2-x,-y,1/2+z
3 1/2+x,1/2-y,-z
4 -x,1/2+y,1/2-z
_cell_length_a                   6.16744(8)
_cell_length_b                   12.83505(12)
_cell_length_c                   20.6643(2)
_cell_angle_alpha                90
_cell_angle_beta                 90
_cell_angle_gamma                90
_cell_volume                     1635.77
_exptl_crystal_colour            colorless
_exptl_crystal_description       plate
_cell_formula_units_Z            4
loop_
_atom_site_label
_atom_site_type_symbol
_atom_site_fract_x
_atom_site_fract_y
_atom_site_fract_z
Cl1 Cl 0.27621(12) 0.71220(5) 0.29627(4)
F1 F 0.3167(5) 0.2909(4) 0.40307(19)
F2 F 0.4690(6) 0.2816(3) 0.49579(15)
F3 F 0.5610(6) 0.1833(3) 0.4201(2)
C1 C 0.9208(18) 0.6190(8) 0.4671(5)
F4 F 0.7834(17) 0.6953(6) 0.4415(4)
F5 F 0.8215(16) 0.6119(5) 0.5274(3)
F6 F 1.1188(16) 0.6448(6) 0.4695(3)
O1 O 0.6953(4) 0.64810(18) 0.24444(16)
H1 H 0.5905 0.6578 0.2697
O2 O 0.5807(4) 0.48215(18) 0.23922(13)
N1 N 1.0006(4) 0.41109(19) 0.22037(13)
H2 H 0.8723 0.3732 0.2178
C2 C 0.9560(6) 0.4118(2) 0.34098(16)
C3 C 0.7968(6) 0.3399(3) 0.35874(15)
H3 H 0.7772 0.2781 0.3341
C4 C 0.6676(7) 0.3589(3) 0.41232(17)
C5 C 0.6910(9) 0.4498(3) 0.44825(19)
H4 H 0.6007 0.4632 0.4845
C6 C 0.8485(12) 0.5199(3) 0.42985(19)
C7 C 0.9808(10) 0.5023(3) 0.37709(18)
H5 H 1.0884 0.5519 0.3655
C8 C 0.5010(7) 0.2801(4) 0.43181(18)
C9 C 1.1033(6) 0.3882(3) 0.28471(16)
H6 H 1.2373 0.4301 0.2890
H7 H 1.1447 0.3138 0.2862
C10 C 0.9464(5) 0.5244(2) 0.21020(15)
H8 H 1.0533 0.5690 0.2338
C11 C 0.9724(7) 0.5397(3) 0.13736(18)
H9 H 0.8444 0.5132 0.1136
H10 H 0.9941 0.6141 0.1266
C12 C 1.1696(9) 0.4772(5) 0.1221(2)
H11 H 1.3031 0.5159 0.1335
H12 H 1.1745 0.4589 0.0755
C13 C 1.1442(6) 0.3781(3) 0.16464(19)
H13 H 1.0759 0.3210 0.1397
H14 H 1.2870 0.3541 0.1806
C14 C 0.7192(6) 0.5477(2) 0.23398(15)
C15? C 0.821(2) 0.6162(8) 0.4712(5)
F7? F 0.9486(15) 0.5991(7) 0.5289(4)
F8? F 0.636(2) 0.6329(10) 0.5009(7)
F9? F 0.915(3) 0.6982(10) 0.4459(6)
H15? H 1.0847 0.5926 0.1278
H16? H 0.8339 0.5616 0.1173
C16? C 1.045(3) 0.4262(12) 0.1118(6)
H17? H 0.9177 0.3857 0.0972
H18? H 1.1483 0.4327 0.0752
H19? H 1.2947 0.4032 0.1706
H20? H 1.1457 0.3014 0.1597
loop_
_geom_bond_atom_site_label_1
_geom_bond_atom_site_label_2
_geom_bond_site_symmetry_1
_geom_bond_site_symmetry_2
F1 C8 1_555 1_555
F2 C8 1_555 1_555
F3 C8 1_555 1_555
C1 F4 1_555 1_555
F5 C1 1_555 1_555
F6 C1 1_555 1_555
O1 H1 1_555 1_555
O2 C14 1_555 1_555
N1 H2 1_555 1_555
C2 C3 1_555 1_555
C3 H3 1_555 1_555
C4 C3 1_555 1_555
C5 C4 1_555 1_555
H4 C5 1_555 1_555
C6 C1 1_555 1_555
C7 C2 1_555 1_555
H5 C7 1_555 1_555
C8 C4 1_555 1_555
C9 N1 1_555 1_555
H6 C9 1_555 1_555
H7 C9 1_555 1_555
C10 N1 1_555 1_555
H8 C10 1_555 1_555
C11 C10 1_555 1_555
H9 C11 1_555 1_555
H10 C11 1_555 1_555
C12 C11 1_555 1_555
H11 C12 1_555 1_555
H12 C12 1_555 1_555
C13 N1 1_555 1_555
H13 C13 1_555 1_555
H14 C13 1_555 1_555
C14 O1 1_555 1_555
C2 C9 1_555 1_555
C5 C6 1_555 1_555
C6 C7 1_555 1_555
C10 C14 1_555 1_555
C12 C13 1_555 1_555

#END
