
#######################################################################
#
#                 Cambridge Crystallographic Data Centre
#                                CCDC 
#
#######################################################################
#
# If this CIF has been generated from an entry in the Cambridge 
# Structural Database, then it will include bibliographic, chemical, 
# crystal, experimental, refinement or atomic coordinate data resulting 
# from the CCDC's data processing and validation procedures.
#
#######################################################################

data_ESIKAU
_chemical_formula_moiety         'C16 H36 N1 1+,2(C9 H5 F6 N1 O1),Br1 1-'
_chemical_name_systematic        
'tetrabutylammonium bromide bis(3,5-bis(trifluoromethyl)benzamide)'
_symmetry_cell_setting           orthorhombic
_symmetry_space_group_name_H-M   'P 21 c n'
_symmetry_Int_Tables_number      33
_space_group_name_Hall           'P -2n 2a'
loop_
_symmetry_equiv_pos_site_id
_symmetry_equiv_pos_as_xyz
1 x,y,z
2 1/2+x,-y,-z
3 1/2+x,1/2+y,1/2-z
4 x,1/2-y,1/2+z
_cell_length_a                   14.4480(5)
_cell_length_b                   8.6909(3)
_cell_length_c                   30.5646(9)
_cell_angle_alpha                90
_cell_angle_beta                 90
_cell_angle_gamma                90
_cell_volume                     3837.88
_exptl_crystal_colour            colorless
_cell_formula_units_Z            4
loop_
_atom_site_label
_atom_site_type_symbol
_atom_site_fract_x
_atom_site_fract_y
_atom_site_fract_z
N1 N 0.3369(6) 0.7686(8) 0.7002(2)
C1 C 0.4298(7) 0.7340(12) 0.6778(3)
H1 H 0.4738 0.7037 0.7001
H2 H 0.4212 0.6466 0.6585
C2 C 0.4718(8) 0.8641(12) 0.6515(4)
H3 H 0.4958 0.9420 0.6712
H4 H 0.4245 0.9113 0.6334
C3 C 0.5502(8) 0.8035(14) 0.6224(4)
H5 H 0.5868 0.8899 0.6121
H6 H 0.5904 0.7383 0.6398
C4 C 0.5162(10) 0.7126(15) 0.5832(4)
H7 H 0.5682 0.6783 0.5663
H8 H 0.4774 0.7769 0.5654
H9 H 0.4814 0.6251 0.5931
C5 C 0.2657(7) 0.8160(10) 0.6660(3)
H10 H 0.2877 0.9082 0.6515
H11 H 0.2086 0.8423 0.6810
C6 C 0.2440(8) 0.6944(11) 0.6310(3)
H12 H 0.3010 0.6589 0.6176
H13 H 0.2134 0.6068 0.6444
C7 C 0.1810(8) 0.7665(12) 0.5963(3)
H14 H 0.1559 0.6851 0.5782
H15 H 0.1295 0.8165 0.6109
C8 C 0.2283(9) 0.8817(14) 0.5675(4)
H16 H 0.1857 0.9180 0.5458
H17 H 0.2803 0.8341 0.5534
H18 H 0.2493 0.9667 0.5849
C9 C 0.3466(6) 0.9046(10) 0.7303(3)
H19 H 0.2862 0.9262 0.7427
H20 H 0.3640 0.9930 0.7128
C10 C 0.4157(8) 0.8912(11) 0.7681(3)
H21 H 0.3958 0.8112 0.7881
H22 H 0.4761 0.8633 0.7568
C11 C 0.4219(8) 1.0433(12) 0.7921(3)
H23 H 0.3605 1.0725 0.8020
H24 H 0.4432 1.1219 0.7720
C12 C 0.4865(9) 1.0385(15) 0.8312(4)
H25 H 0.5456 0.9992 0.8222
H26 H 0.4608 0.9728 0.8533
H27 H 0.4939 1.1405 0.8428
C13 C 0.3098(8) 0.6248(10) 0.7248(3)
H28 H 0.3596 0.5976 0.7446
H29 H 0.3028 0.5412 0.7040
C14 C 0.2196(8) 0.6402(12) 0.7513(4)
H30 H 0.2311 0.7020 0.7771
H31 H 0.1735 0.6927 0.7337
C15 C 0.1826(11) 0.4846(17) 0.7650(6)
H32 H 0.1248 0.5009 0.7805
H33 H 0.1682 0.4269 0.7387
C16 C 0.2417(9) 0.3896(14) 0.7923(4)
H34 H 0.2934 0.3537 0.7754
H35 H 0.2071 0.3031 0.8030
H36 H 0.2637 0.4493 0.8166
F1 F 0.5671(6) 0.9062(10) 0.9704(3)
F2 F 0.6874(7) 0.8485(13) 0.9348(3)
F3 F 0.6409(6) 0.7078(10) 0.9873(3)
F4 F 0.2580(5) 0.5509(8) 0.9101(3)
F5 F 0.3199(7) 0.3303(6) 0.9104(2)
F6 F 0.3225(6) 0.4678(9) 0.96820(18)
O1 O 0.4954(5) 0.4827(10) 0.7819(2)
N2 N 0.6305(5) 0.6108(9) 0.7877(3)
H37 H 0.6267 0.6236 0.7596
H38 H 0.6422 0.6992 0.7995
C17 C 0.5286(7) 0.5876(11) 0.8512(3)
C18 C 0.5819(7) 0.6756(11) 0.8794(3)
H39 H 0.6362 0.7209 0.8693
C19 C 0.5556(7) 0.6963(11) 0.9217(3)
C20 C 0.4735(7) 0.6296(11) 0.9382(3)
H40 H 0.4559 0.6438 0.9672
C21 C 0.4197(7) 0.5419(12) 0.9098(3)
C22 C 0.4450(7) 0.5212(11) 0.8669(3)
H41 H 0.4077 0.4639 0.8482
C23 C 0.5494(7) 0.5576(11) 0.8047(3)
C24 C 0.6125(8) 0.7861(14) 0.9537(3)
C25 C 0.3293(8) 0.4707(11) 0.9255(3)
F7 F 0.3708(5) -0.0092(9) 0.9280(2)
F8 F 0.2874(4) 0.0981(8) 0.9775(2)
F9 F 0.3348(5) -0.1336(8) 0.9863(2)
F10 F -0.0869(10) -0.230(4) 0.9595(7)
F11 F 0.0095(19) -0.278(4) 1.0091(8)
O2 O 0.1668(5) -0.0104(8) 0.8024(2)
N3 N 0.0315(6) -0.1379(9) 0.8031(3)
H42 H 0.0227 -0.1156 0.7760
H43 H -0.0089 -0.1914 0.8171
C26 C 0.1194(6) -0.1206(10) 0.8698(3)
C27 C 0.2019(7) -0.0701(10) 0.8901(3)
H44 H 0.2472 -0.0215 0.8735
C28 C 0.2160(7) -0.0919(10) 0.9340(3)
C29 C 0.1497(7) -0.1665(11) 0.9597(3)
H45 H 0.1595 -0.1819 0.9895
C30 C 0.0690(7) -0.2169(11) 0.9397(3)
C31 C 0.0543(7) -0.2004(11) 0.8957(3)
H46 H 0.0015 -0.2418 0.8829
C32 C 0.1073(7) -0.0897(11) 0.8233(3)
C33 C 0.3010(7) -0.0362(11) 0.9563(3)
C34 C -0.0041(9) -0.2976(14) 0.9671(3)
F12 F -0.015(2) -0.436(2) 0.9577(9)
Br1 Br 0.32021(9) 0.25594(11) 0.66022(3)
F13? F -0.017(3) -0.246(6) 1.0054(16)
F14? F -0.074(3) -0.340(7) 0.9474(10)
F15? F 0.034(3) -0.446(4) 0.9788(15)
loop_
_geom_bond_atom_site_label_1
_geom_bond_atom_site_label_2
_geom_bond_site_symmetry_1
_geom_bond_site_symmetry_2
N1 C1 1_555 1_555
C1 H1 1_555 1_555
H2 C1 1_555 1_555
C2 C1 1_555 1_555
H3 C2 1_555 1_555
H4 C2 1_555 1_555
C3 C2 1_555 1_555
H5 C3 1_555 1_555
H6 C3 1_555 1_555
C4 C3 1_555 1_555
H7 C4 1_555 1_555
H8 C4 1_555 1_555
H9 C4 1_555 1_555
C5 N1 1_555 1_555
H10 C5 1_555 1_555
H11 C5 1_555 1_555
C6 C5 1_555 1_555
H12 C6 1_555 1_555
H13 C6 1_555 1_555
C7 C6 1_555 1_555
H14 C7 1_555 1_555
H15 C7 1_555 1_555
C8 C7 1_555 1_555
H16 C8 1_555 1_555
H17 C8 1_555 1_555
H18 C8 1_555 1_555
C9 N1 1_555 1_555
H19 C9 1_555 1_555
H20 C9 1_555 1_555
C10 C9 1_555 1_555
H21 C10 1_555 1_555
H22 C10 1_555 1_555
C11 C10 1_555 1_555
H23 C11 1_555 1_555
H24 C11 1_555 1_555
C12 C11 1_555 1_555
H25 C12 1_555 1_555
H26 C12 1_555 1_555
H27 C12 1_555 1_555
C13 N1 1_555 1_555
H28 C13 1_555 1_555
H29 C13 1_555 1_555
C14 C13 1_555 1_555
H30 C14 1_555 1_555
H31 C14 1_555 1_555
C15 C14 1_555 1_555
H32 C15 1_555 1_555
H33 C15 1_555 1_555
C16 C15 1_555 1_555
H34 C16 1_555 1_555
H35 C16 1_555 1_555
H36 C16 1_555 1_555
F1 C24 1_555 1_555
F2 C24 1_555 1_555
F3 C24 1_555 1_555
F4 C25 1_555 1_555
F5 C25 1_555 1_555
F6 C25 1_555 1_555
O1 C23 1_555 1_555
N2 H37 1_555 1_555
H38 N2 1_555 1_555
C17 C18 1_555 1_555
C18 H39 1_555 1_555
C19 C18 1_555 1_555
C20 C19 1_555 1_555
H40 C20 1_555 1_555
C21 C20 1_555 1_555
C22 C17 1_555 1_555
H41 C22 1_555 1_555
C23 N2 1_555 1_555
C24 C19 1_555 1_555
C25 C21 1_555 1_555
F7 C33 1_555 1_555
F8 C33 1_555 1_555
F9 C33 1_555 1_555
F10 C34 1_555 1_555
F11 C34 1_555 1_555
O2 C32 1_555 1_555
N3 H42 1_555 1_555
H43 N3 1_555 1_555
C26 C27 1_555 1_555
C27 H44 1_555 1_555
C28 C27 1_555 1_555
C29 C28 1_555 1_555
H45 C29 1_555 1_555
C30 C29 1_555 1_555
C31 C26 1_555 1_555
H46 C31 1_555 1_555
C32 N3 1_555 1_555
C33 C28 1_555 1_555
C34 C30 1_555 1_555
F12 C34 1_555 1_555
C17 C23 1_555 1_555
C21 C22 1_555 1_555
C26 C32 1_555 1_555
C30 C31 1_555 1_555

#END
