
#######################################################################
#
#                 Cambridge Crystallographic Data Centre
#                                CCDC 
#
#######################################################################
#
# If this CIF has been generated from an entry in the Cambridge 
# Structural Database, then it will include bibliographic, chemical, 
# crystal, experimental, refinement or atomic coordinate data resulting 
# from the CCDC's data processing and validation procedures.
#
#######################################################################

data_ESIQEE
_chemical_formula_moiety         'C24 H17 Br1 N4 O2,0.5(C1 H2 Cl2)'
_chemical_name_systematic        
'4-((4-bromophenyl)(3-oxoimidazo[1,2-a]pyridin-1-ium-2(3H)-ylidene)methyl)-3-methyl-1-phenyl-1H-pyrazol-5-olate dichloromethane solvate'
_symmetry_cell_setting           triclinic
_symmetry_space_group_name_H-M   'P -1'
_symmetry_Int_Tables_number      2
_space_group_name_Hall           '-P 1'
loop_
_symmetry_equiv_pos_site_id
_symmetry_equiv_pos_as_xyz
1 x,y,z
2 -x,-y,-z
_cell_length_a                   11.9807(10)
_cell_length_b                   13.8079(7)
_cell_length_c                   14.9517(10)
_cell_angle_alpha                63.872(4)
_cell_angle_beta                 87.040(6)
_cell_angle_gamma                77.745(5)
_cell_volume                     2167.61
_exptl_crystal_colour            colorless
_exptl_crystal_description       Prism
_cell_formula_units_Z            4
loop_
_atom_site_label
_atom_site_type_symbol
_atom_site_fract_x
_atom_site_fract_y
_atom_site_fract_z
Br1 Br 0.72560(3) 0.80057(3) 0.18903(3)
O1 O 0.3212(2) 0.8275(2) -0.03691(19)
O2 O -0.06534(19) 0.9208(2) 0.16979(17)
N1 N 0.1350(2) 0.8218(2) -0.0682(2)
N2 N 0.0432(2) 0.8624(2) 0.0461(2)
N3 N 0.1021(2) 0.9169(2) 0.3557(2)
N4 N -0.0003(2) 0.9265(2) 0.3103(2)
C1 C 0.0302(3) 0.8408(3) -0.0302(2)
C2 C -0.0669(3) 0.8335(3) -0.0739(3)
H1 H -0.1406 0.8472 -0.0498
C3 C -0.0530(3) 0.8063(3) -0.1515(3)
H2 H -0.1179 0.8007 -0.1814
C4 C 0.0571(3) 0.7859(3) -0.1888(3)
H3 H 0.0655 0.7663 -0.2427
C5 C 0.1490(3) 0.7948(3) -0.1469(2)
H4 H 0.2228 0.7825 -0.1715
C6 C 0.2215(3) 0.8362(3) -0.0150(2)
C7 C 0.1584(3) 0.8594(3) 0.0615(2)
C8 C 0.2020(3) 0.8712(3) 0.1398(2)
C9 C 0.3297(3) 0.8559(3) 0.1462(2)
C10 C 0.3826(3) 0.9447(3) 0.1101(3)
H5 H 0.3381 1.0175 0.0764
C11 C 0.5006(3) 0.9285(3) 0.1226(3)
H6 H 0.5364 0.9899 0.0981
C12 C 0.5652(3) 0.8226(3) 0.1707(2)
C13 C 0.5140(3) 0.7325(3) 0.2062(3)
H7 H 0.5590 0.6598 0.2389
C14 C 0.3967(3) 0.7494(3) 0.1936(3)
H8 H 0.3613 0.6878 0.2175
C15 C 0.1396(3) 0.8906(3) 0.2154(2)
C16 C 0.0165(3) 0.9121(3) 0.2243(2)
C17 C 0.1838(3) 0.8962(3) 0.3007(2)
C18 C 0.3036(3) 0.8821(3) 0.3356(3)
H9 H 0.3026 0.8851 0.3999
H10 H 0.3378 0.9415 0.2865
H11 H 0.3486 0.8107 0.3431
C19 C -0.1035(3) 0.9486(3) 0.3557(2)
C20 C -0.0960(3) 0.9471(3) 0.4491(2)
H12 H -0.0232 0.9305 0.4808
C21 C -0.1944(3) 0.9695(3) 0.4958(3)
H13 H -0.1886 0.9692 0.5590
C22 C -0.3011(3) 0.9924(3) 0.4506(3)
H14 H -0.3685 1.0077 0.4826
C23 C -0.3084(3) 0.9927(3) 0.3583(3)
H15 H -0.3815 1.0077 0.3275
C24 C -0.2105(3) 0.9714(3) 0.3101(3)
H16 H -0.2167 0.9725 0.2466
H17 H -0.013(4) 0.882(4) 0.081(4)
Br2 Br 0.58790(3) 0.41267(3) 0.16043(3)
O3 O 1.0591(2) 0.3057(2) 0.31633(17)
O4 O 1.03673(19) 0.3531(2) 0.67618(18)
N5 N 1.2148(2) 0.2945(2) 0.4094(2)
N6 N 1.1318(2) 0.3232(2) 0.5321(2)
N7 N 0.7397(2) 0.4421(2) 0.6495(2)
N8 N 0.8469(2) 0.4179(2) 0.6955(2)
C25 C 1.2321(3) 0.3002(3) 0.4968(2)
C26 C 1.3452(3) 0.2812(3) 0.5323(3)
H18 H 1.3601 0.2832 0.5932
C27 C 1.4322(3) 0.2600(3) 0.4775(3)
H19 H 1.5088 0.2477 0.5002
C28 C 1.4113(3) 0.2558(3) 0.3871(3)
H20 H 1.4735 0.2412 0.3495
C29 C 1.3027(3) 0.2726(3) 0.3544(3)
H21 H 1.2876 0.2692 0.2942
C30 C 1.0945(3) 0.3113(3) 0.3882(2)
C31 C 1.0432(3) 0.3322(3) 0.4696(2)
C32 C 0.9272(3) 0.3596(2) 0.4834(2)
C33 C 0.8484(3) 0.3688(3) 0.4039(2)
C34 C 0.8154(3) 0.4696(3) 0.3212(2)
H22 H 0.8452 0.5307 0.3148
C35 C 0.7399(3) 0.4829(3) 0.2478(2)
H23 H 0.7179 0.5522 0.1912
C36 C 0.6970(3) 0.3929(3) 0.2586(2)
C37 C 0.7305(3) 0.2902(3) 0.3388(2)
H24 H 0.7017 0.2290 0.3441
C38 C 0.8074(3) 0.2785(3) 0.4116(2)
H25 H 0.8319 0.2085 0.4667
C39 C 0.8776(3) 0.3839(3) 0.5613(2)
C40 C 0.9333(3) 0.3816(3) 0.6466(2)
C41 C 0.7571(3) 0.4211(3) 0.5718(3)
C42 C 0.6523(3) 0.4404(4) 0.5113(3)
H26 H 0.5843 0.4554 0.5463
H27 H 0.6520 0.3747 0.5017
H28 H 0.6518 0.5038 0.4463
C43 C 0.8509(3) 0.4318(3) 0.7842(2)
C44 C 0.9540(3) 0.4151(3) 0.8331(3)
H29 H 1.0244 0.3924 0.8085
C45 C 0.9531(4) 0.4320(3) 0.9181(3)
H30 H 1.0235 0.4223 0.9506
C46 C 0.8514(4) 0.4627(3) 0.9563(3)
H31 H 0.8515 0.4738 1.0146
C47 C 0.7497(4) 0.4771(3) 0.9082(3)
H32 H 0.6794 0.4969 0.9346
C48 C 0.7484(3) 0.4631(3) 0.8222(3)
H33 H 0.6777 0.4748 0.7892
H34 H 1.113(5) 0.328(4) 0.589(4)
Cl1 Cl 0.69713(10) 0.70919(11) 0.99217(8)
Cl2 Cl 0.56507(15) 0.83901(12) 0.80828(10)
C49 C 0.5653(4) 0.7480(5) 0.9349(4)
H35 H 0.5104 0.7842 0.9685
H36 H 0.5397 0.6817 0.9416
loop_
_geom_bond_atom_site_label_1
_geom_bond_atom_site_label_2
_geom_bond_site_symmetry_1
_geom_bond_site_symmetry_2
Br1 C12 1_555 1_555
O1 C6 1_555 1_555
O2 C16 1_555 1_555
N1 C1 1_555 1_555
N2 C1 1_555 1_555
N3 N4 1_555 1_555
N4 C16 1_555 1_555
C1 C2 1_555 1_555
C2 H1 1_555 1_555
C3 C2 1_555 1_555
H2 C3 1_555 1_555
C4 C3 1_555 1_555
H3 C4 1_555 1_555
C5 N1 1_555 1_555
H4 C5 1_555 1_555
C6 N1 1_555 1_555
C7 N2 1_555 1_555
C8 C7 1_555 1_555
C9 C8 1_555 1_555
C10 C9 1_555 1_555
H5 C10 1_555 1_555
C11 C10 1_555 1_555
H6 C11 1_555 1_555
C12 C11 1_555 1_555
C13 C12 1_555 1_555
H7 C13 1_555 1_555
C14 C9 1_555 1_555
H8 C14 1_555 1_555
C15 C8 1_555 1_555
C16 C15 1_555 1_555
C17 N3 1_555 1_555
C18 C17 1_555 1_555
H9 C18 1_555 1_555
H10 C18 1_555 1_555
H11 C18 1_555 1_555
C19 N4 1_555 1_555
C20 C19 1_555 1_555
H12 C20 1_555 1_555
C21 C20 1_555 1_555
H13 C21 1_555 1_555
C22 C21 1_555 1_555
H14 C22 1_555 1_555
C23 C22 1_555 1_555
H15 C23 1_555 1_555
C24 C19 1_555 1_555
H16 C24 1_555 1_555
H17 N2 1_555 1_555
Br2 C36 1_555 1_555
O3 C30 1_555 1_555
O4 C40 1_555 1_555
N5 C25 1_555 1_555
N6 C25 1_555 1_555
N7 N8 1_555 1_555
N8 C40 1_555 1_555
C25 C26 1_555 1_555
C26 H18 1_555 1_555
C27 C26 1_555 1_555
H19 C27 1_555 1_555
C28 C27 1_555 1_555
H20 C28 1_555 1_555
C29 N5 1_555 1_555
H21 C29 1_555 1_555
C30 N5 1_555 1_555
C31 N6 1_555 1_555
C32 C31 1_555 1_555
C33 C32 1_555 1_555
C34 C33 1_555 1_555
H22 C34 1_555 1_555
C35 C34 1_555 1_555
H23 C35 1_555 1_555
C36 C35 1_555 1_555
C37 C36 1_555 1_555
H24 C37 1_555 1_555
C38 C33 1_555 1_555
H25 C38 1_555 1_555
C39 C32 1_555 1_555
C40 C39 1_555 1_555
C41 N7 1_555 1_555
C42 C41 1_555 1_555
H26 C42 1_555 1_555
H27 C42 1_555 1_555
H28 C42 1_555 1_555
C43 N8 1_555 1_555
C44 C43 1_555 1_555
H29 C44 1_555 1_555
C45 C44 1_555 1_555
H30 C45 1_555 1_555
C46 C45 1_555 1_555
H31 C46 1_555 1_555
C47 C46 1_555 1_555
H32 C47 1_555 1_555
C48 C43 1_555 1_555
H33 C48 1_555 1_555
H34 N6 1_555 1_555
Cl1 C49 1_555 1_555
Cl2 C49 1_555 1_555
C49 H35 1_555 1_555
H36 C49 1_555 1_555
C4 C5 1_555 1_555
C6 C7 1_555 1_555
C13 C14 1_555 1_555
C15 C17 1_555 1_555
C23 C24 1_555 1_555
C28 C29 1_555 1_555
C30 C31 1_555 1_555
C37 C38 1_555 1_555
C39 C41 1_555 1_555
C47 C48 1_555 1_555

#END
