
#######################################################################
#
#                 Cambridge Crystallographic Data Centre
#                                CCDC 
#
#######################################################################
#
# If this CIF has been generated from an entry in the Cambridge 
# Structural Database, then it will include bibliographic, chemical, 
# crystal, experimental, refinement or atomic coordinate data resulting 
# from the CCDC's data processing and validation procedures.
#
#######################################################################

data_ESITUX
_chemical_name_common            
'(5,10,15,20-tetramesityl-benzoporphryin[2,3,b]-8,9,16,17-tetrakis(2,6-dimethylphenoxy)-1,4-diazasubphthalocyanin)-(phenoxy)-boron chloroform acetonitrile  solvate'
_chemical_formula_moiety         'C118 H99 B1 N12 O5,5(C1 H1 Cl3),0.5(C2 H3 N1)'
_chemical_name_systematic        
'35,36,46,47-tetrakis(2,6-dimethylphenoxy)-8,13,18,23-tetramesityl-41-phenoxy-3,28,31,40,42,51,52,53,54,55,56,57-dodecaaza-41-borapentadecacyclo[28.21.1.1^7,24^.1^9,12^.1^14,17^.1^19,22^.1^39,43^.0^2,29^.0^4,27^.0^6,25^.0^32,40^.0^33,38^.0^41,52^.0^42,50^.0^44,49^]heptapentaconta-1(52),2,4(27),5,7(54),8,10,12,14(56),15,17,19,21,23,25,28,30,32(40),33,35,37,39(53),42,44,46,48,50-heptacosaene chloroform acetonitrile solvate'
_symmetry_cell_setting           orthorhombic
_symmetry_space_group_name_H-M   'C m c 21'
_symmetry_Int_Tables_number      36
_space_group_name_Hall           'C 2n -2'
loop_
_symmetry_equiv_pos_site_id
_symmetry_equiv_pos_as_xyz
1 x,y,z
2 -x,-y,1/2+z
3 -x,y,z
4 x,-y,1/2+z
5 1/2+x,1/2+y,z
6 1/2-x,1/2-y,1/2+z
7 1/2-x,1/2+y,z
8 1/2+x,1/2-y,1/2+z
_cell_length_a                   26.6592(9)
_cell_length_b                   23.6211(7)
_cell_length_c                   19.6982(7)
_cell_angle_alpha                90
_cell_angle_beta                 90
_cell_angle_gamma                90
_cell_volume                     12404.3
_exptl_crystal_colour            purple
_exptl_crystal_description       rod
_cell_formula_units_Z            4
loop_
_atom_site_label
_atom_site_type_symbol
_atom_site_fract_x
_atom_site_fract_y
_atom_site_fract_z
Cl1 Cl 0.0000 0.29739(15) 0.1768(3)
Cl2 Cl 0.05435(11) 0.39830(15) 0.20495(17)
C63 C 0.0000 0.3699(5) 0.1666(8)
H53 H 0.0000 0.3790 0.1180
Cl2B Cl -0.05435(11) 0.39830(15) 0.20495(17)
C64 C 0.0000 0.4800(4) 0.8729(7)
H54 H 0.0000 0.4528 0.9105
Cl3 Cl 0.0000 0.44180(13) 0.80190(18)
Cl4 Cl 0.05485(10) 0.52091(10) 0.88267(14)
Cl4B Cl -0.05485(10) 0.52091(10) 0.88267(14)
N1 N 0.0000 0.3764(2) -0.0033(3)
N2 N 0.0000 0.5364(2) 0.0799(4)
N3 N 0.05394(18) 0.73259(19) 0.2519(3)
C1 C 0.0409(2) 0.3424(2) -0.0157(3)
N4 N 0.0000 0.8322(3) 0.3609(4)
C2 C 0.0432(2) 0.8130(2) 0.3328(4)
C3 C 0.12980(15) 0.31757(14) -0.0339(2)
C4 C 0.14524(18) 0.31844(16) -0.1013(2)
C5 C 0.1797(2) 0.2787(2) -0.1245(2)
H1 H 0.1900 0.2793 -0.1696
C6 C 0.19867(17) 0.23814(18) -0.0803(3)
C7 C 0.18323(18) 0.23728(16) -0.0129(3)
H2 H 0.1959 0.2101 0.0166
C8 C 0.14879(17) 0.27699(16) 0.01030(19)
N5 N 0.08688(19) 0.84015(19) 0.3375(4)
O1 O 0.2360(2) 1.0006(2) 0.2807(4)
C9 C 0.0274(2) 0.7677(2) 0.2887(4)
C10 C 0.0917(2) 0.3587(2) -0.0106(3)
C11 C 0.0913(2) 0.5499(2) 0.0864(3)
C12 C 0.0528(2) 0.6560(2) 0.1762(3)
H3 H 0.0877 0.6566 0.1757
C13 C 0.10791(12) 0.50005(12) 0.0563(2)
C14 C 0.15843(10) 0.48438(15) 0.0433(3)
H4 H 0.1866 0.5064 0.0519
C15 C 0.15834(10) 0.42916(15) 0.0148(3)
H5 H 0.1865 0.4087 0.0015
C16 C 0.10776(12) 0.41069(12) 0.0102(2)
N6 N 0.07659(9) 0.45451(13) 0.0358(2)
H6 H 0.0444 0.4536 0.0385
C17 C 0.13295(13) 0.58806(15) 0.1079(2)
C18 C 0.14661(16) 0.63371(17) 0.06737(19)
C19 C 0.18452(18) 0.67013(17) 0.0883(2)
H7 H 0.1937 0.7007 0.0612
C20 C 0.20878(16) 0.66090(19) 0.1498(3)
C21 C 0.19512(16) 0.6153(2) 0.1903(2)
H8 H 0.2114 0.6091 0.2314
C22 C 0.15721(15) 0.57883(16) 0.1694(2)
N7 N 0.0448(2) 0.9168(2) 0.3900(4)
C23 C 0.0268(2) 0.6958(2) 0.2136(4)
O2 O 0.0000 0.8574(3) 0.4786(3)
C24 C 0.0422(2) 0.5647(2) 0.0994(3)
C25 C 0.0270(2) 0.6150(2) 0.1391(3)
C26 C 0.0851(3) 0.8943(3) 0.3604(5)
O3 O 0.1900(2) 1.0923(2) 0.3089(4)
C27 C 0.0243(2) 0.2864(2) -0.0372(3)
H9 H 0.0449 0.2561 -0.0487
C28 C 0.1312(3) 0.2747(3) 0.0809(5)
H10 H 0.0981 0.2585 0.0822
H11 H 0.1302 0.3122 0.0994
H12 H 0.1536 0.2517 0.1072
N8 N 0.0000 1.0043(3) 0.3861(6)
C29 C 0.1411(3) 0.5320(2) 0.2154(4)
H13 H 0.1547 0.5382 0.2600
H14 H 0.1532 0.4965 0.1981
H15 H 0.1052 0.5311 0.2179
C30 C 0.0437(3) 0.9740(3) 0.3830(5)
C31 C 0.2626(2) 0.95292(18) 0.2672(3)
C32 C 0.2590(2) 0.9277(2) 0.2036(3)
C33 C 0.2879(2) 0.8804(2) 0.1884(3)
H16 H 0.2855 0.8635 0.1459
C34 C 0.3203(2) 0.8582(2) 0.2369(3)
H17 H 0.3396 0.8265 0.2267
C35 C 0.3238(2) 0.8833(2) 0.3005(3)
H18 H 0.3455 0.8685 0.3329
C36 C 0.2950(2) 0.9307(2) 0.3156(2)
C37 C 0.2997(4) 0.9584(4) 0.3837(6)
H19 H 0.2705 0.9501 0.4105
H20 H 0.3027 0.9986 0.3780
H21 H 0.3290 0.9442 0.4064
C38 C 0.1255(4) 0.3614(4) -0.1498(5)
H22 H 0.0895 0.3614 -0.1483
H23 H 0.1365 0.3523 -0.1949
H24 H 0.1378 0.3982 -0.1374
C39 C 0.1214(4) 0.6453(3) -0.0008(5)
H25 H 0.0874 0.6569 0.0066
H26 H 0.1219 0.6116 -0.0279
H27 H 0.1392 0.6749 -0.0241
B1 B 0.0000 0.8815(5) 0.4109(8)
C40 C 0.1373(4) 1.1657(4) 0.2699(4)
C41 C 0.1131(4) 1.2164(4) 0.2843(6)
H28 H 0.0921 1.2328 0.2521
C42 C 0.1204(4) 1.2426(3) 0.3467(6)
H29 H 0.1042 1.2766 0.3563
C43 C 0.1518(4) 1.2181(4) 0.3947(5)
H30 H 0.1566 1.2357 0.4365
C44 C 0.1760(3) 1.1674(3) 0.3804(4)
C45 C 0.1688(3) 1.1412(2) 0.3180(4)
C46 C 0.11497(18) 1.04207(13) 0.3464(3)
H31 H 0.0978 1.0756 0.3553
C47 C 0.16317(19) 1.04384(14) 0.3196(3)
C48 C 0.18876(15) 0.99380(18) 0.3062(3)
C49 C 0.16614(16) 0.94198(14) 0.3197(4)
H32 H 0.1833 0.9085 0.3107
C50 C 0.11794(17) 0.94020(13) 0.3465(3)
C51 C 0.09235(15) 0.99025(18) 0.3598(3)
C52 C 0.2357(4) 0.1941(4) -0.1048(9)
H33 H 0.2567 0.2103 -0.1393
H34 H 0.2177 0.1624 -0.1233
H35 H 0.2560 0.1817 -0.0675
C53 C 0.2502(5) 0.7013(6) 0.1767(7)
H36 H 0.2826 0.6859 0.1661
H37 H 0.2470 0.7052 0.2250
H38 H 0.2467 0.7377 0.1556
C54 C 0.2269(4) 0.9518(5) 0.1511(7)
H39 H 0.1934 0.9558 0.1684
H40 H 0.2266 0.9272 0.1123
H41 H 0.2395 0.9883 0.1381
C55 C 0.0000 0.9402(3) 0.5484(4)
H42 H 0.0000 0.9645 0.5113
C56 C 0.00000(9) 0.9622(3) 0.6139(5)
H43 H 0.0000 1.0011 0.6206
C57 C 0.0000(2) 0.9258(4) 0.6694(4)
H44 H 0.0000 0.9405 0.7132
C58 C 0.0000(3) 0.8676(4) 0.6595(4)
H45 H 0.0000 0.8433 0.6966
C59 C 0.00000(18) 0.8457(3) 0.5940(4)
H46 H 0.0000 0.8067 0.5873
C60 C 0.00000(6) 0.8820(3) 0.5385(3)
C61 C 0.1283(7) 1.1320(8) 0.2027(10)
H47 H 0.1000 1.1072 0.2084
H48 H 0.1575 1.1101 0.1921
H49 H 0.1216 1.1581 0.1664
C62 C 0.2119(6) 1.1399(7) 0.4347(9)
H50 H 0.2086 1.1597 0.4770
H51 H 0.2460 1.1425 0.4192
H52 H 0.2031 1.1009 0.4409
N3B N -0.05394(18) 0.73259(19) 0.2519(3)
C1B C -0.0409(2) 0.3424(2) -0.0157(3)
C2B C -0.0432(2) 0.8130(2) 0.3328(4)
C3B C -0.12980(15) 0.31757(14) -0.0339(2)
C4B C -0.14524(18) 0.31844(16) -0.1013(2)
C5B C -0.1797(2) 0.2787(2) -0.1245(2)
H1B H -0.1900 0.2793 -0.1696
C6B C -0.19867(17) 0.23814(18) -0.0803(3)
C7B C -0.18323(18) 0.23728(16) -0.0129(3)
H2B H -0.1959 0.2101 0.0166
C8B C -0.14879(17) 0.27699(16) 0.01030(19)
N5B N -0.08688(19) 0.84015(19) 0.3375(4)
O1B O -0.2360(2) 1.0006(2) 0.2807(4)
C9B C -0.0274(2) 0.7677(2) 0.2887(4)
C10B C -0.0917(2) 0.3587(2) -0.0106(3)
C11B C -0.0913(2) 0.5499(2) 0.0864(3)
C12B C -0.0528(2) 0.6560(2) 0.1762(3)
H3B H -0.0877 0.6566 0.1757
C13B C -0.10791(12) 0.50005(12) 0.0563(2)
C14B C -0.15843(10) 0.48438(15) 0.0433(3)
H4B H -0.1866 0.5064 0.0519
C15B C -0.15834(10) 0.42916(15) 0.0148(3)
H5B H -0.1865 0.4087 0.0015
C16B C -0.10776(12) 0.41069(12) 0.0102(2)
N6B N -0.07659(9) 0.45451(13) 0.0358(2)
H6B H -0.0444 0.4536 0.0385
C17B C -0.13295(13) 0.58806(15) 0.1079(2)
C18B C -0.14661(16) 0.63371(17) 0.06737(19)
C19B C -0.18452(18) 0.67013(17) 0.0883(2)
H7B H -0.1937 0.7007 0.0612
C20B C -0.20878(16) 0.66090(19) 0.1498(3)
C21B C -0.19512(16) 0.6153(2) 0.1903(2)
H8B H -0.2114 0.6091 0.2314
C22B C -0.15721(15) 0.57883(16) 0.1694(2)
N7B N -0.0448(2) 0.9168(2) 0.3900(4)
C23B C -0.0268(2) 0.6958(2) 0.2136(4)
C24B C -0.0422(2) 0.5647(2) 0.0994(3)
C25B C -0.0270(2) 0.6150(2) 0.1391(3)
C26B C -0.0851(3) 0.8943(3) 0.3604(5)
O3B O -0.1900(2) 1.0923(2) 0.3089(4)
C27B C -0.0243(2) 0.2864(2) -0.0372(3)
H9B H -0.0449 0.2561 -0.0487
C28B C -0.1312(3) 0.2747(3) 0.0809(5)
H10B H -0.0981 0.2585 0.0822
H11B H -0.1302 0.3122 0.0994
H12B H -0.1536 0.2517 0.1072
C29B C -0.1411(3) 0.5320(2) 0.2154(4)
H13B H -0.1547 0.5382 0.2600
H14B H -0.1532 0.4965 0.1981
H15B H -0.1052 0.5311 0.2179
C30B C -0.0437(3) 0.9740(3) 0.3830(5)
C31B C -0.2626(2) 0.95292(18) 0.2672(3)
C32B C -0.2590(2) 0.9277(2) 0.2036(3)
C33B C -0.2879(2) 0.8804(2) 0.1884(3)
H16B H -0.2855 0.8635 0.1459
C34B C -0.3203(2) 0.8582(2) 0.2369(3)
H17B H -0.3396 0.8265 0.2267
C35B C -0.3238(2) 0.8833(2) 0.3005(3)
H18B H -0.3455 0.8685 0.3329
C36B C -0.2950(2) 0.9307(2) 0.3156(2)
C37B C -0.2997(4) 0.9584(4) 0.3837(6)
H19B H -0.2705 0.9501 0.4105
H20B H -0.3027 0.9986 0.3780
H21B H -0.3290 0.9442 0.4064
C38B C -0.1255(4) 0.3614(4) -0.1498(5)
H22B H -0.0895 0.3614 -0.1483
H23B H -0.1365 0.3523 -0.1949
H24B H -0.1378 0.3982 -0.1374
C39B C -0.1214(4) 0.6453(3) -0.0008(5)
H25B H -0.0874 0.6569 0.0066
H26B H -0.1219 0.6116 -0.0279
H27B H -0.1392 0.6749 -0.0241
C40B C -0.1373(4) 1.1657(4) 0.2699(4)
C41B C -0.1131(4) 1.2164(4) 0.2843(6)
H28B H -0.0921 1.2328 0.2521
C42B C -0.1204(4) 1.2426(3) 0.3467(6)
H29B H -0.1042 1.2766 0.3563
C43B C -0.1518(4) 1.2181(4) 0.3947(5)
H30B H -0.1566 1.2357 0.4365
C44B C -0.1760(3) 1.1674(3) 0.3804(4)
C45B C -0.1688(3) 1.1412(2) 0.3180(4)
C46B C -0.11497(18) 1.04207(13) 0.3464(3)
H31B H -0.0978 1.0756 0.3553
C47B C -0.16317(19) 1.04384(14) 0.3196(3)
C48B C -0.18876(15) 0.99380(18) 0.3062(3)
C49B C -0.16614(16) 0.94198(14) 0.3197(4)
H32B H -0.1833 0.9085 0.3107
C50B C -0.11794(17) 0.94020(13) 0.3465(3)
C51B C -0.09235(15) 0.99025(18) 0.3598(3)
C52B C -0.2357(4) 0.1941(4) -0.1048(9)
H33B H -0.2567 0.2103 -0.1393
H34B H -0.2177 0.1624 -0.1233
H35B H -0.2560 0.1817 -0.0675
C53B C -0.2502(5) 0.7013(6) 0.1767(7)
H36B H -0.2826 0.6859 0.1661
H37B H -0.2470 0.7052 0.2250
H38B H -0.2467 0.7377 0.1556
C54B C -0.2269(4) 0.9518(5) 0.1511(7)
H39B H -0.1934 0.9558 0.1684
H40B H -0.2266 0.9272 0.1123
H41B H -0.2395 0.9883 0.1381
C61B C -0.1283(7) 1.1320(8) 0.2027(10)
H47B H -0.1000 1.1072 0.2084
H48B H -0.1575 1.1101 0.1921
H49B H -0.1216 1.1581 0.1664
C62B C -0.2119(6) 1.1399(7) 0.4347(9)
H50B H -0.2086 1.1597 0.4770
H51B H -0.2460 1.1425 0.4192
H52B H -0.2031 1.1009 0.4409
loop_
_geom_bond_atom_site_label_1
_geom_bond_atom_site_label_2
_geom_bond_site_symmetry_1
_geom_bond_site_symmetry_2
N1 C1 1_555 1_555
N2 C24 1_555 1_555
N3 C9 1_555 1_555
C1 C10 1_555 1_555
N4 C2 1_555 1_555
C2 N5 1_555 1_555
C3 C4 1_555 1_555
C4 C5 1_555 1_555
C5 H1 1_555 1_555
C6 C5 1_555 1_555
C7 C6 1_555 1_555
H2 C7 1_555 1_555
C8 C3 1_555 1_555
N5 C26 1_555 1_555
O1 C31 1_555 1_555
C9 C2 1_555 1_555
C10 C3 1_555 1_555
C11 C13 1_555 1_555
C12 H3 1_555 1_555
C13 C14 1_555 1_555
C14 H4 1_555 1_555
C15 C14 1_555 1_555
H5 C15 1_555 1_555
C16 C10 1_555 1_555
N6 C13 1_555 1_555
H6 N6 1_555 1_555
C17 C11 1_555 1_555
C18 C17 1_555 1_555
C19 C18 1_555 1_555
H7 C19 1_555 1_555
C20 C19 1_555 1_555
C21 C20 1_555 1_555
H8 C21 1_555 1_555
C22 C17 1_555 1_555
N7 C26 1_555 1_555
C23 N3 1_555 1_555
O2 B1 1_555 1_555
C24 C11 1_555 1_555
C25 C12 1_555 1_555
C26 C50 1_555 1_555
O3 C45 1_555 1_555
C27 C1 1_555 1_555
H9 C27 1_555 1_555
C28 C8 1_555 1_555
H10 C28 1_555 1_555
H11 C28 1_555 1_555
H12 C28 1_555 1_555
N8 C30 1_555 1_555
C29 C22 1_555 1_555
H13 C29 1_555 1_555
H14 C29 1_555 1_555
H15 C29 1_555 1_555
C30 N7 1_555 1_555
C31 C32 1_555 1_555
C32 C33 1_555 1_555
C33 H16 1_555 1_555
C34 C33 1_555 1_555
H17 C34 1_555 1_555
C35 C34 1_555 1_555
H18 C35 1_555 1_555
C36 C31 1_555 1_555
C37 C36 1_555 1_555
H19 C37 1_555 1_555
H20 C37 1_555 1_555
H21 C37 1_555 1_555
C38 C4 1_555 1_555
H22 C38 1_555 1_555
H23 C38 1_555 1_555
H24 C38 1_555 1_555
C39 C18 1_555 1_555
H25 C39 1_555 1_555
H26 C39 1_555 1_555
H27 C39 1_555 1_555
B1 N4 1_555 1_555
C40 C41 1_555 1_555
C41 H28 1_555 1_555
C42 C41 1_555 1_555
H29 C42 1_555 1_555
C43 C42 1_555 1_555
H30 C43 1_555 1_555
C44 C43 1_555 1_555
C45 C40 1_555 1_555
C46 H31 1_555 1_555
C47 O3 1_555 1_555
C48 O1 1_555 1_555
C49 C48 1_555 1_555
H32 C49 1_555 1_555
C50 C49 1_555 1_555
C51 C30 1_555 1_555
C52 C6 1_555 1_555
H33 C52 1_555 1_555
H34 C52 1_555 1_555
H35 C52 1_555 1_555
C53 C20 1_555 1_555
H36 C53 1_555 1_555
H37 C53 1_555 1_555
H38 C53 1_555 1_555
C54 C32 1_555 1_555
H39 C54 1_555 1_555
H40 C54 1_555 1_555
H41 C54 1_555 1_555
C55 H42 1_555 1_555
C56 C55 1_555 1_555
H43 C56 1_555 1_555
C57 C56 1_555 1_555
H44 C57 1_555 1_555
C58 C57 1_555 1_555
H45 C58 1_555 1_555
C59 C58 1_555 1_555
H46 C59 1_555 1_555
C60 O2 1_555 1_555
C61 C40 1_555 1_555
H47 C61 1_555 1_555
H48 C61 1_555 1_555
H49 C61 1_555 1_555
C62 C44 1_555 1_555
H50 C62 1_555 1_555
H51 C62 1_555 1_555
H52 C62 1_555 1_555
Cl1 C63 1_555 1_555
Cl2 C63 1_555 1_555
C63 H53 1_555 1_555
C64 H54 1_555 1_555
Cl3 C64 1_555 1_555
Cl4 C64 1_555 1_555
N3B C9B 1_555 1_555
C1B N1 1_555 1_555
C2B N4 1_555 1_555
C3B C4B 1_555 1_555
C4B C5B 1_555 1_555
C5B H1B 1_555 1_555
C6B C5B 1_555 1_555
C7B C6B 1_555 1_555
H2B C7B 1_555 1_555
C8B C3B 1_555 1_555
N5B C2B 1_555 1_555
O1B C31B 1_555 1_555
C9B C9 1_555 1_555
C10B C1B 1_555 1_555
C11B C13B 1_555 1_555
C12B H3B 1_555 1_555
C13B C14B 1_555 1_555
C14B H4B 1_555 1_555
C15B C14B 1_555 1_555
H5B C15B 1_555 1_555
C16B C10B 1_555 1_555
N6B C13B 1_555 1_555
H6B N6B 1_555 1_555
C17B C11B 1_555 1_555
C18B C17B 1_555 1_555
C19B C18B 1_555 1_555
H7B C19B 1_555 1_555
C20B C19B 1_555 1_555
C21B C20B 1_555 1_555
H8B C21B 1_555 1_555
C22B C17B 1_555 1_555
N7B B1 1_555 1_555
C23B C23 1_555 1_555
C24B N2 1_555 1_555
C25B C25 1_555 1_555
C26B N5B 1_555 1_555
O3B C45B 1_555 1_555
C27B C27 1_555 1_555
H9B C27B 1_555 1_555
C28B C8B 1_555 1_555
H10B C28B 1_555 1_555
H11B C28B 1_555 1_555
H12B C28B 1_555 1_555
C29B C22B 1_555 1_555
H13B C29B 1_555 1_555
H14B C29B 1_555 1_555
H15B C29B 1_555 1_555
C30B N8 1_555 1_555
C31B C32B 1_555 1_555
C32B C33B 1_555 1_555
C33B H16B 1_555 1_555
C34B C33B 1_555 1_555
H17B C34B 1_555 1_555
C35B C34B 1_555 1_555
H18B C35B 1_555 1_555
C36B C31B 1_555 1_555
C37B C36B 1_555 1_555
H19B C37B 1_555 1_555
H20B C37B 1_555 1_555
H21B C37B 1_555 1_555
C38B C4B 1_555 1_555
H22B C38B 1_555 1_555
H23B C38B 1_555 1_555
H24B C38B 1_555 1_555
C39B C18B 1_555 1_555
H25B C39B 1_555 1_555
H26B C39B 1_555 1_555
H27B C39B 1_555 1_555
C40B C41B 1_555 1_555
C41B H28B 1_555 1_555
C42B C41B 1_555 1_555
H29B C42B 1_555 1_555
C43B C42B 1_555 1_555
H30B C43B 1_555 1_555
C44B C43B 1_555 1_555
C45B C40B 1_555 1_555
C46B H31B 1_555 1_555
C47B O3B 1_555 1_555
C48B O1B 1_555 1_555
C49B C48B 1_555 1_555
H32B C49B 1_555 1_555
C50B C26B 1_555 1_555
C51B C30B 1_555 1_555
C52B C6B 1_555 1_555
H33B C52B 1_555 1_555
H34B C52B 1_555 1_555
H35B C52B 1_555 1_555
C53B C20B 1_555 1_555
H36B C53B 1_555 1_555
H37B C53B 1_555 1_555
H38B C53B 1_555 1_555
C54B C32B 1_555 1_555
H39B C54B 1_555 1_555
H40B C54B 1_555 1_555
H41B C54B 1_555 1_555
C61B C40B 1_555 1_555
H47B C61B 1_555 1_555
H48B C61B 1_555 1_555
H49B C61B 1_555 1_555
C62B C44B 1_555 1_555
H50B C62B 1_555 1_555
H51B C62B 1_555 1_555
H52B C62B 1_555 1_555
Cl2B C63 1_555 1_555
Cl4B C64 1_555 1_555
C7 C8 1_555 1_555
C12 C23 1_555 1_555
C15 C16 1_555 1_555
C16 N6 1_555 1_555
C21 C22 1_555 1_555
N7 B1 1_555 1_555
C24 C25 1_555 1_555
C35 C36 1_555 1_555
C44 C45 1_555 1_555
C46 C47 1_555 1_555
C46 C51 1_555 1_555
C47 C48 1_555 1_555
C50 C51 1_555 1_555
C55 C60 1_555 1_555
C59 C60 1_555 1_555
N3B C23B 1_555 1_555
C1B C27B 1_555 1_555
C2B C9B 1_555 1_555
C3B C10B 1_555 1_555
C7B C8B 1_555 1_555
C11B C24B 1_555 1_555
C12B C23B 1_555 1_555
C12B C25B 1_555 1_555
C15B C16B 1_555 1_555
C16B N6B 1_555 1_555
C21B C22B 1_555 1_555
N7B C26B 1_555 1_555
N7B C30B 1_555 1_555
C24B C25B 1_555 1_555
C35B C36B 1_555 1_555
C44B C45B 1_555 1_555
C46B C47B 1_555 1_555
C46B C51B 1_555 1_555
C47B C48B 1_555 1_555
C49B C50B 1_555 1_555
C50B C51B 1_555 1_555

#END
