
#######################################################################
#
#                 Cambridge Crystallographic Data Centre
#                                CCDC 
#
#######################################################################
#
# If this CIF has been generated from an entry in the Cambridge 
# Structural Database, then it will include bibliographic, chemical, 
# crystal, experimental, refinement or atomic coordinate data resulting 
# from the CCDC's data processing and validation procedures.
#
#######################################################################

data_ESIVEJ
_chemical_formula_moiety         'C20 H13 N1 O2'
_chemical_name_systematic        
4-(4-methylphenyl)-2-oxo-2,5-dihydroindeno[1,2-b]pyran-3-carbonitrile
_symmetry_cell_setting           monoclinic
_symmetry_space_group_name_H-M   'P 21'
_symmetry_Int_Tables_number      4
_space_group_name_Hall           'P 2yb'
loop_
_symmetry_equiv_pos_site_id
_symmetry_equiv_pos_as_xyz
1 x,y,z
2 -x,1/2+y,-z
_cell_length_a                   7.7305(8)
_cell_length_b                   7.8246(8)
_cell_length_c                   12.9282(12)
_cell_angle_alpha                90
_cell_angle_beta                 102.6780(10)
_cell_angle_gamma                90
_cell_volume                     762.936
_exptl_crystal_colour            yellow
_exptl_crystal_description       block
_cell_formula_units_Z            2
loop_
_atom_site_label
_atom_site_type_symbol
_atom_site_fract_x
_atom_site_fract_y
_atom_site_fract_z
N1 N 0.0620(4) 0.2614(5) 0.5687(3)
O1 O 0.0688(3) 0.4697(3) 0.22498(19)
O2 O -0.1217(3) 0.3356(4) 0.30207(19)
C1 C 0.0240(5) 0.3997(6) 0.3141(3)
C2 C 0.1560(5) 0.4103(5) 0.4123(3)
C3 C 0.3213(4) 0.4828(5) 0.4195(3)
C4 C 0.3605(4) 0.5387(5) 0.3234(3)
C5 C 0.5243(4) 0.6205(5) 0.2981(3)
H1 H 0.5577 0.7232 0.3398
H2 H 0.6236 0.5417 0.3108
C6 C 0.4643(5) 0.6617(5) 0.1816(3)
C7 C 0.5512(5) 0.7401(6) 0.1140(3)
H3 H 0.6681 0.7753 0.1377
C8 C 0.4640(7) 0.7671(7) 0.0092(4)
H4 H 0.5223 0.8229 -0.0368
C9 C 0.2922(6) 0.7119(6) -0.0272(3)
H5 H 0.2364 0.7295 -0.0978
C10 C 0.2029(5) 0.6317(6) 0.0389(3)
H6 H 0.0868 0.5945 0.0145
C11 C 0.2906(5) 0.6072(5) 0.1439(3)
C12 C 0.2340(5) 0.5341(5) 0.2326(3)
C13 C 0.1045(5) 0.3295(6) 0.5007(3)
C14 C 0.4446(5) 0.5083(5) 0.5232(3)
C15 C 0.3838(5) 0.5782(5) 0.6074(3)
H7 H 0.2655 0.6102 0.5978
C16 C 0.4970(5) 0.6009(5) 0.7052(3)
H8 H 0.4540 0.6490 0.7604
C17 C 0.6725(5) 0.5533(5) 0.7222(3)
C18 C 0.7341(5) 0.4888(5) 0.6389(3)
H9 H 0.8531 0.4591 0.6489
C19 C 0.6238(4) 0.4667(5) 0.5399(3)
H10 H 0.6695 0.4239 0.4843
C20 C 0.7923(5) 0.5729(6) 0.8309(3)
H11 H 0.7881 0.6889 0.8544
H12 H 0.9118 0.5446 0.8275
H13 H 0.7533 0.4977 0.8799
loop_
_geom_bond_atom_site_label_1
_geom_bond_atom_site_label_2
_geom_bond_site_symmetry_1
_geom_bond_site_symmetry_2
N1 C13 1_555 1_555
O1 C1 1_555 1_555
O2 C1 1_555 1_555
C1 C2 1_555 1_555
C2 C3 1_555 1_555
C3 C4 1_555 1_555
C4 C5 1_555 1_555
C5 H1 1_555 1_555
H2 C5 1_555 1_555
C6 C5 1_555 1_555
C7 C6 1_555 1_555
H3 C7 1_555 1_555
C8 C7 1_555 1_555
H4 C8 1_555 1_555
C9 C8 1_555 1_555
H5 C9 1_555 1_555
C10 C9 1_555 1_555
H6 C10 1_555 1_555
C11 C6 1_555 1_555
C12 O1 1_555 1_555
C13 C2 1_555 1_555
C14 C3 1_555 1_555
C15 C14 1_555 1_555
H7 C15 1_555 1_555
C16 C15 1_555 1_555
H8 C16 1_555 1_555
C17 C16 1_555 1_555
C18 C17 1_555 1_555
H9 C18 1_555 1_555
C19 C14 1_555 1_555
H10 C19 1_555 1_555
C20 C17 1_555 1_555
H11 C20 1_555 1_555
H12 C20 1_555 1_555
H13 C20 1_555 1_555
C4 C12 1_555 1_555
C10 C11 1_555 1_555
C11 C12 1_555 1_555
C18 C19 1_555 1_555

#END
