
#######################################################################
#
#                 Cambridge Crystallographic Data Centre
#                                CCDC 
#
#######################################################################
#
# If this CIF has been generated from an entry in the Cambridge 
# Structural Database, then it will include bibliographic, chemical, 
# crystal, experimental, refinement or atomic coordinate data resulting 
# from the CCDC's data processing and validation procedures.
#
#######################################################################

data_ESOJUT
_chemical_formula_moiety         'C20 H11 N3 O3'
_chemical_name_systematic        
2-amino-4-(4-cyanophenyl)-5-oxo-4H,5H-pyrano[3,2-c]chromene-3-carbonitrile
_chemical_properties_biological  
'evaluated for their antitumor activity in vitro'
_symmetry_cell_setting           monoclinic
_symmetry_space_group_name_H-M   'P 21/n'
_symmetry_Int_Tables_number      14
_space_group_name_Hall           '-P 2yn'
loop_
_symmetry_equiv_pos_site_id
_symmetry_equiv_pos_as_xyz
1 x,y,z
2 1/2-x,1/2+y,1/2-z
3 -x,-y,-z
4 1/2+x,1/2-y,1/2+z
_cell_length_a                   5.7829(10)
_cell_length_b                   20.767(6)
_cell_length_c                   14.012(2)
_cell_angle_alpha                90
_cell_angle_beta                 98.548(15)
_cell_angle_gamma                90
_cell_volume                     1664.06
_exptl_crystal_colour            colorless
_exptl_crystal_description       block
_cell_formula_units_Z            4
loop_
_atom_site_label
_atom_site_type_symbol
_atom_site_fract_x
_atom_site_fract_y
_atom_site_fract_z
O1 O 0.6378(4) 0.00082(13) 0.19772(15)
C1 C 0.4656(5) -0.09320(19) 0.1159(2)
O2 O 0.1813(4) 0.00009(17) 0.39526(18)
C2 C 0.4863(6) -0.0057(2) 0.2635(2)
O3 O -0.0050(5) -0.08589(18) 0.32780(19)
C3 C 0.3577(6) 0.0445(2) 0.4019(2)
C4 C 0.3233(5) -0.0516(2) 0.2594(2)
N1 N 0.7804(5) -0.02971(17) 0.06657(18)
H1 H 0.8731 0.0026 0.0788
H2 H 0.7896 -0.0536 0.0172
C5 C 0.5177(6) 0.0438(2) 0.3362(2)
C6 C 0.6216(5) -0.04283(19) 0.1246(2)
C7 C 0.2943(5) -0.1047(2) 0.1862(2)
H3 H 0.1356 -0.1022 0.1504
C8 C 0.5712(6) -0.2506(2) 0.3220(2)
H4 H 0.7140 -0.2621 0.3576
C9 C 0.5415(5) -0.1904(2) 0.2814(2)
H5 H 0.6658 -0.1615 0.2885
C10 C 0.6957(7) 0.0910(2) 0.3466(3)
H6 H 0.8037 0.0916 0.3037
C11 C 0.1568(6) -0.0484(2) 0.3271(3)
C12 C 0.3290(5) -0.1724(2) 0.2303(2)
C13 C 0.3884(7) -0.2941(2) 0.3096(2)
N2 N 0.4295(7) -0.4088(2) 0.3836(3)
C14 C 0.1762(7) -0.2763(3) 0.2582(3)
H7 H 0.0517 -0.3051 0.2505
C15 C 0.4136(7) -0.3577(3) 0.3518(3)
C16 C 0.3727(8) 0.0906(3) 0.4746(3)
H8 H 0.2644 0.0913 0.5174
C17 C 0.4758(7) -0.1384(3) 0.0403(3)
C18 C 0.1492(6) -0.2158(2) 0.2184(3)
H9 H 0.0066 -0.2043 0.1828
C19 C 0.5475(9) 0.1344(3) 0.4819(3)
H10 H 0.5580 0.1648 0.5312
C20 C 0.7118(8) 0.1361(3) 0.4192(3)
H11 H 0.8298 0.1669 0.4261
N3 N 0.4864(8) -0.1735(3) -0.0204(3)
loop_
_geom_bond_atom_site_label_1
_geom_bond_atom_site_label_2
_geom_bond_site_symmetry_1
_geom_bond_site_symmetry_2
O1 C2 1_555 1_555
C1 C6 1_555 1_555
O2 C3 1_555 1_555
C2 C4 1_555 1_555
O3 C11 1_555 1_555
C3 C5 1_555 1_555
C4 C7 1_555 1_555
N1 H1 1_555 1_555
H2 N1 1_555 1_555
C5 C2 1_555 1_555
C6 O1 1_555 1_555
C7 C1 1_555 1_555
H3 C7 1_555 1_555
C8 H4 1_555 1_555
C9 C8 1_555 1_555
H5 C9 1_555 1_555
C10 C5 1_555 1_555
H6 C10 1_555 1_555
C11 O2 1_555 1_555
C12 C7 1_555 1_555
C13 C8 1_555 1_555
N2 C15 1_555 1_555
C14 C13 1_555 1_555
H7 C14 1_555 1_555
C15 C13 1_555 1_555
C16 C3 1_555 1_555
H8 C16 1_555 1_555
C17 C1 1_555 1_555
C18 C12 1_555 1_555
H9 C18 1_555 1_555
C19 C16 1_555 1_555
H10 C19 1_555 1_555
C20 C10 1_555 1_555
H11 C20 1_555 1_555
N3 C17 1_555 1_555
C4 C11 1_555 1_555
N1 C6 1_555 1_555
C9 C12 1_555 1_555
C14 C18 1_555 1_555
C19 C20 1_555 1_555

#END
