
#######################################################################
#
#                 Cambridge Crystallographic Data Centre
#                                CCDC 
#
#######################################################################
#
# If this CIF has been generated from an entry in the Cambridge 
# Structural Database, then it will include bibliographic, chemical, 
# crystal, experimental, refinement or atomic coordinate data resulting 
# from the CCDC's data processing and validation procedures.
#
#######################################################################

data_ESUJIN
_chemical_formula_moiety         'C28 H21 N3 O9 S2'
_chemical_name_systematic        
N-(2-((1,3-dioxo-1,3-dihydro-2H-isoindol-2-yl)oxy)-2-(4-nitrophenyl)ethyl)-N-(phenylsulfonyl)benzenesulfonamide
_symmetry_cell_setting           triclinic
_symmetry_space_group_name_H-M   'P -1'
_symmetry_Int_Tables_number      2
_space_group_name_Hall           '-P 1'
loop_
_symmetry_equiv_pos_site_id
_symmetry_equiv_pos_as_xyz
1 x,y,z
2 -x,-y,-z
_cell_length_a                   7.695(5)
_cell_length_b                   13.108(5)
_cell_length_c                   13.514(5)
_cell_angle_alpha                93.793(5)
_cell_angle_beta                 100.632(5)
_cell_angle_gamma                96.966(5)
_cell_volume                     1324.33
_cell_formula_units_Z            2
loop_
_atom_site_label
_atom_site_type_symbol
_atom_site_fract_x
_atom_site_fract_y
_atom_site_fract_z
C1 C 0.6947(5) 0.3070(3) 0.4755(3)
C2 C 0.7600(5) 0.2307(3) 0.5319(3)
H1 H 0.7336 0.1617 0.5066
C3 C 0.8656(5) 0.2588(3) 0.6270(3)
H2 H 0.9116 0.2084 0.6653
C4 C 0.9029(6) 0.3614(3) 0.6651(3)
H3 H 0.9738 0.3797 0.7289
C5 C 0.8348(7) 0.4367(3) 0.6084(3)
H4 H 0.8601 0.5056 0.6340
C6 C 0.7289(6) 0.4096(3) 0.5134(3)
H5 H 0.6813 0.4599 0.4755
C7 C 0.5004(5) 0.3973(3) 0.1212(3)
C8 C 0.3512(6) 0.4373(3) 0.1438(3)
H6 H 0.3539 0.4688 0.2079
C9 C 0.2002(6) 0.4296(4) 0.0702(4)
H7 H 0.0999 0.4562 0.0844
C10 C 0.1964(6) 0.3824(4) -0.0255(4)
H8 H 0.0931 0.3767 -0.0748
C11 C 0.3443(7) 0.3441(4) -0.0475(4)
H9 H 0.3414 0.3128 -0.1117
C12 C 0.4993(6) 0.3522(3) 0.0265(3)
H10 H 0.6007 0.3273 0.0117
C13 C 1.1574(5) 0.0796(3) 0.4554(3)
C14 C 1.2920(5) 0.1195(3) 0.5492(3)
C15 C 1.3972(5) 0.0659(3) 0.6143(3)
H11 H 1.3976 -0.0045 0.6010
C16 C 1.5020(6) 0.1194(3) 0.6996(3)
H12 H 1.5732 0.0847 0.7455
C17 C 1.5026(6) 0.2245(3) 0.7178(3)
H13 H 1.5756 0.2593 0.7757
C18 C 1.3974(5) 0.2796(3) 0.6523(3)
H14 H 1.3976 0.3502 0.6652
C19 C 1.2923(5) 0.2245(3) 0.5668(3)
C20 C 1.1615(5) 0.2591(3) 0.4849(3)
C21 C 0.7455(5) 0.2056(3) 0.2156(3)
H15 H 0.7346 0.2159 0.1444
H16 H 0.6699 0.1422 0.2209
C22 C 0.9381(5) 0.1940(3) 0.2591(3)
H17 H 1.0141 0.2607 0.2649
C23 C 1.0090(5) 0.1136(3) 0.1975(3)
C24 C 1.1508(5) 0.1410(3) 0.1513(3)
H18 H 1.1963 0.2102 0.1530
C25 C 1.2263(5) 0.0671(3) 0.1024(3)
H19 H 1.3226 0.0855 0.0715
C26 C 1.1548(5) -0.0345(3) 0.1007(3)
C27 C 1.0103(6) -0.0647(3) 0.1434(3)
H20 H 0.9619 -0.1338 0.1387
C28 C 0.9391(6) 0.0101(3) 0.1935(3)
H21 H 0.8435 -0.0087 0.2248
N1 N 0.6807(4) 0.2928(2) 0.2672(2)
N2 N 1.0918(4) 0.1688(2) 0.4205(2)
N3 N 1.2372(5) -0.1165(3) 0.0520(3)
O1 O 0.5051(4) 0.16127(19) 0.3466(2)
O2 O 0.4216(4) 0.3376(2) 0.3421(2)
O3 O 0.8442(4) 0.4058(2) 0.1670(2)
O4 O 0.6907(4) 0.48457(19) 0.2916(2)
O5 O 0.9255(3) 0.16249(19) 0.35844(19)
O6 O 1.1183(4) 0.34277(18) 0.4714(2)
O7 O 1.1103(4) -0.0064(2) 0.4169(2)
O8 O 1.3688(5) -0.0899(3) 0.0177(3)
O9 O 1.1721(5) -0.2055(3) 0.0501(3)
S1 S 0.55566(12) 0.27086(7) 0.35698(7)
S2 S 0.69419(12) 0.40547(7) 0.21559(8)
loop_
_geom_bond_atom_site_label_1
_geom_bond_atom_site_label_2
_geom_bond_site_symmetry_1
_geom_bond_site_symmetry_2
C1 C2 1_555 1_555
C2 H1 1_555 1_555
C3 C2 1_555 1_555
H2 C3 1_555 1_555
C4 C3 1_555 1_555
H3 C4 1_555 1_555
C5 C4 1_555 1_555
H4 C5 1_555 1_555
C6 C1 1_555 1_555
H5 C6 1_555 1_555
C7 C8 1_555 1_555
C8 H6 1_555 1_555
C9 C8 1_555 1_555
H7 C9 1_555 1_555
C10 C9 1_555 1_555
H8 C10 1_555 1_555
C11 C10 1_555 1_555
H9 C11 1_555 1_555
C12 C7 1_555 1_555
H10 C12 1_555 1_555
C13 C14 1_555 1_555
C14 C15 1_555 1_555
C15 H11 1_555 1_555
C16 C15 1_555 1_555
H12 C16 1_555 1_555
C17 C16 1_555 1_555
H13 C17 1_555 1_555
C18 C17 1_555 1_555
H14 C18 1_555 1_555
C19 C14 1_555 1_555
C20 C19 1_555 1_555
C21 H15 1_555 1_555
H16 C21 1_555 1_555
C22 C21 1_555 1_555
H17 C22 1_555 1_555
C23 C22 1_555 1_555
C24 C23 1_555 1_555
H18 C24 1_555 1_555
C25 C24 1_555 1_555
H19 C25 1_555 1_555
C26 C25 1_555 1_555
C27 C26 1_555 1_555
H20 C27 1_555 1_555
C28 C23 1_555 1_555
H21 C28 1_555 1_555
N1 C21 1_555 1_555
N2 C13 1_555 1_555
N3 C26 1_555 1_555
O1 S1 1_555 1_555
O2 S1 1_555 1_555
O3 S2 1_555 1_555
O4 S2 1_555 1_555
O5 C22 1_555 1_555
O6 C20 1_555 1_555
O7 C13 1_555 1_555
O8 N3 1_555 1_555
O9 N3 1_555 1_555
S1 C1 1_555 1_555
S2 C7 1_555 1_555
C5 C6 1_555 1_555
C11 C12 1_555 1_555
C18 C19 1_555 1_555
C20 N2 1_555 1_555
C27 C28 1_555 1_555
N1 S1 1_555 1_555
N1 S2 1_555 1_555
N2 O5 1_555 1_555

#END
