
#######################################################################
#
#                 Cambridge Crystallographic Data Centre
#                                CCDC 
#
#######################################################################
#
# If this CIF has been generated from an entry in the Cambridge 
# Structural Database, then it will include bibliographic, chemical, 
# crystal, experimental, refinement or atomic coordinate data resulting 
# from the CCDC's data processing and validation procedures.
#
#######################################################################

data_ESULUB
_chemical_formula_moiety         'C32 H44 Li1 N1 O2 Si1'
_chemical_name_systematic        
(N-(2,6-diisopropylphenyl)-1,1-diphenylsilanaminato)-bis(tetrahydrofuran)-lithium(i)
_symmetry_cell_setting           monoclinic
_symmetry_space_group_name_H-M   'P 21'
_symmetry_Int_Tables_number      4
_space_group_name_Hall           'P 2yb'
loop_
_symmetry_equiv_pos_site_id
_symmetry_equiv_pos_as_xyz
1 x,y,z
2 -x,1/2+y,-z
_cell_length_a                   9.6978(4)
_cell_length_b                   17.2298(7)
_cell_length_c                   10.1433(5)
_cell_angle_alpha                90
_cell_angle_beta                 115.925(6)
_cell_angle_gamma                90
_cell_volume                     1524.3
_exptl_crystal_colour            colorless
_exptl_crystal_description       block
_cell_formula_units_Z            2
loop_
_atom_site_label
_atom_site_type_symbol
_atom_site_fract_x
_atom_site_fract_y
_atom_site_fract_z
Li1 Li 0.8915(10) 0.7782(5) 0.4464(9)
Si1 Si 0.82209(13) 0.94381(7) 0.49773(12)
O1 O 1.0570(4) 0.7335(2) 0.6098(4)
O2 O 0.8578(4) 0.7084(3) 0.2888(4)
N1 N 0.7458(4) 0.8591(2) 0.4254(4)
C1 C 0.5970(5) 0.8305(3) 0.3485(5)
C2 C 0.4993(5) 0.8562(3) 0.2025(5)
C3 C 0.3580(5) 0.8211(3) 0.1243(6)
H1 H 0.2960 0.8379 0.0295
C4 C 0.3074(6) 0.7622(4) 0.1830(6)
H2 H 0.2118 0.7397 0.1294
C5 C 0.4009(6) 0.7368(3) 0.3234(6)
H3 H 0.3676 0.6960 0.3621
C6 C 0.5414(5) 0.7698(3) 0.4078(5)
C7 C 0.6386(6) 0.7439(3) 0.5637(6)
H4 H 0.7459 0.7527 0.5839
C8 C 0.6061(8) 0.7944(4) 0.6711(6)
H5 H 0.5021 0.7868 0.6556
H6 H 0.6215 0.8480 0.6553
H7 H 0.6745 0.7802 0.7698
C9 C 0.6234(9) 0.6587(4) 0.5925(8)
H8 H 0.6330 0.6279 0.5181
H9 H 0.5250 0.6497 0.5908
H10 H 0.7026 0.6446 0.6868
C10 C 0.5480(6) 0.9189(3) 0.1287(6)
H11 H 0.6536 0.9328 0.1957
C11 C 0.5506(10) 0.8884(5) -0.0153(8)
H12 H 0.4481 0.8760 -0.0855
H13 H 0.6134 0.8427 0.0059
H14 H 0.5919 0.9278 -0.0548
C12 C 0.4551(8) 0.9914(5) 0.0993(12)
H15 H 0.4580 1.0105 0.1894
H16 H 0.3509 0.9805 0.0315
H17 H 0.4966 1.0298 0.0581
C13 C 0.8499(5) 0.9631(3) 0.6913(5)
C14 C 0.7672(5) 1.0193(3) 0.7221(5)
H18 H 0.6977 1.0493 0.6456
C15 C 0.7840(7) 1.0330(4) 0.8636(7)
H19 H 0.7261 1.0713 0.8807
C16 C 0.8864(7) 0.9895(4) 0.9777(6)
H20 H 0.8991 0.9986 1.0727
C17 C 0.9701(7) 0.9324(5) 0.9514(5)
H21 H 1.0391 0.9026 1.0286
C18 C 0.9518(6) 0.9190(4) 0.8097(5)
H22 H 1.0084 0.8799 0.7931
C19 C 1.0184(5) 0.9465(3) 0.4992(4)
C20 C 1.1474(5) 0.9793(3) 0.6117(5)
H23 H 1.1386 1.0014 0.6913
C21 C 1.2889(6) 0.9797(3) 0.6080(6)
H24 H 1.3730 1.0024 0.6843
C22 C 1.3056(5) 0.9470(4) 0.4934(5)
H25 H 1.4006 0.9472 0.4914
C23 C 1.1811(6) 0.9138(3) 0.3811(6)
H26 H 1.1916 0.8915 0.3025
C24 C 1.0393(6) 0.9135(3) 0.3842(5)
H27 H 0.9562 0.8905 0.3073
C25 C 1.2055(6) 0.7604(4) 0.6870(8)
H28 H 1.2087 0.8014 0.7537
H29 H 1.2437 0.7808 0.6201
C26 C 1.3010(7) 0.6932(4) 0.7705(9)
H30 H 1.3507 0.6686 0.7166
H31 H 1.3787 0.7096 0.8654
C27 C 1.1909(7) 0.6405(4) 0.7866(7)
H32 H 1.2230 0.5868 0.7907
H33 H 1.1786 0.6523 0.8743
C28 C 1.0505(8) 0.6551(5) 0.6557(12)
H34 H 1.0411 0.6189 0.5789
H35 H 0.9625 0.6486 0.6764
C29 C 0.9796(6) 0.6875(5) 0.2540(8)
H36 H 1.0283 0.6399 0.3036
H37 H 1.0560 0.7283 0.2820
C30 C 0.9052(7) 0.6765(9) 0.0925(9)
H38 H 0.9239 0.7213 0.0446
H39 H 0.9469 0.6310 0.0665
C31 C 0.7521(7) 0.6675(6) 0.0487(7)
H40 H 0.7212 0.6155 0.0105
H41 H 0.6956 0.7042 -0.0286
C32 C 0.7172(6) 0.6805(4) 0.1752(6)
H42 H 0.6362 0.7186 0.1515
H43 H 0.6859 0.6326 0.2044
H44 H 0.729(5) 1.003(3) 0.417(5)
loop_
_geom_bond_atom_site_label_1
_geom_bond_atom_site_label_2
_geom_bond_site_symmetry_1
_geom_bond_site_symmetry_2
Li1 O1 1_555 1_555
Si1 N1 1_555 1_555
O1 C25 1_555 1_555
O2 Li1 1_555 1_555
N1 Li1 1_555 1_555
C1 N1 1_555 1_555
C2 C1 1_555 1_555
C3 C2 1_555 1_555
H1 C3 1_555 1_555
C4 C3 1_555 1_555
H2 C4 1_555 1_555
C5 C4 1_555 1_555
H3 C5 1_555 1_555
C6 C1 1_555 1_555
C7 C6 1_555 1_555
H4 C7 1_555 1_555
C8 C7 1_555 1_555
H5 C8 1_555 1_555
H6 C8 1_555 1_555
H7 C8 1_555 1_555
C9 C7 1_555 1_555
H8 C9 1_555 1_555
H9 C9 1_555 1_555
H10 C9 1_555 1_555
C10 C2 1_555 1_555
H11 C10 1_555 1_555
C11 C10 1_555 1_555
H12 C11 1_555 1_555
H13 C11 1_555 1_555
H14 C11 1_555 1_555
C12 C10 1_555 1_555
H15 C12 1_555 1_555
H16 C12 1_555 1_555
H17 C12 1_555 1_555
C13 Si1 1_555 1_555
C14 C13 1_555 1_555
H18 C14 1_555 1_555
C15 C14 1_555 1_555
H19 C15 1_555 1_555
C16 C15 1_555 1_555
H20 C16 1_555 1_555
C17 C16 1_555 1_555
H21 C17 1_555 1_555
C18 C13 1_555 1_555
H22 C18 1_555 1_555
C19 Si1 1_555 1_555
C20 C19 1_555 1_555
H23 C20 1_555 1_555
C21 C20 1_555 1_555
H24 C21 1_555 1_555
C22 C21 1_555 1_555
H25 C22 1_555 1_555
C23 C22 1_555 1_555
H26 C23 1_555 1_555
C24 C19 1_555 1_555
H27 C24 1_555 1_555
C25 H28 1_555 1_555
H29 C25 1_555 1_555
C26 C25 1_555 1_555
H30 C26 1_555 1_555
H31 C26 1_555 1_555
C27 C26 1_555 1_555
H32 C27 1_555 1_555
H33 C27 1_555 1_555
C28 O1 1_555 1_555
H34 C28 1_555 1_555
H35 C28 1_555 1_555
C29 O2 1_555 1_555
H36 C29 1_555 1_555
H37 C29 1_555 1_555
C30 C29 1_555 1_555
H38 C30 1_555 1_555
H39 C30 1_555 1_555
C31 C30 1_555 1_555
H40 C31 1_555 1_555
H41 C31 1_555 1_555
C32 O2 1_555 1_555
H42 C32 1_555 1_555
H43 C32 1_555 1_555
H44 Si1 1_555 1_555
C5 C6 1_555 1_555
C17 C18 1_555 1_555
C23 C24 1_555 1_555
C27 C28 1_555 1_555
C31 C32 1_555 1_555

#END
