
#######################################################################
#
#                 Cambridge Crystallographic Data Centre
#                                CCDC 
#
#######################################################################
#
# If this CIF has been generated from an entry in the Cambridge 
# Structural Database, then it will include bibliographic, chemical, 
# crystal, experimental, refinement or atomic coordinate data resulting 
# from the CCDC's data processing and validation procedures.
#
#######################################################################

data_ESUMAI
_chemical_formula_moiety         'C20 H26 N2 Si1'
_chemical_name_systematic        1-(diphenyl(pyrrolidin-1-yl)silyl)pyrrolidine
_symmetry_cell_setting           orthorhombic
_symmetry_space_group_name_H-M   'P n a 21'
_symmetry_Int_Tables_number      33
_space_group_name_Hall           'P 2c -2n'
loop_
_symmetry_equiv_pos_site_id
_symmetry_equiv_pos_as_xyz
1 x,y,z
2 -x,-y,1/2+z
3 1/2-x,1/2+y,1/2+z
4 1/2+x,1/2-y,z
_cell_length_a                   7.7656(5)
_cell_length_b                   15.2381(10)
_cell_length_c                   15.9883(12)
_cell_angle_alpha                90
_cell_angle_beta                 90
_cell_angle_gamma                90
_cell_volume                     1891.94
_exptl_crystal_colour            colorless
_exptl_crystal_description       needle
_cell_formula_units_Z            4
loop_
_atom_site_label
_atom_site_type_symbol
_atom_site_fract_x
_atom_site_fract_y
_atom_site_fract_z
Si1 Si 0.04662(10) 0.48305(5) 0.55980(8)
C1 C 0.1841(4) 0.4118(2) 0.6284(3)
N1 N 0.1824(4) 0.5538(2) 0.5098(2)
N2 N -0.0671(5) 0.4249(3) 0.4871(3)
C2 C -0.1138(4) 0.5416(2) 0.6270(2)
C3 C -0.1149(6) 0.6323(3) 0.6320(3)
H1 H -0.0340 0.6639 0.6015
C4 C 0.4065(7) 0.3011(4) 0.6460(5)
H2 H 0.4894 0.2645 0.6226
C5 C 0.3053(6) 0.3548(3) 0.5933(4)
H3 H 0.3191 0.3522 0.5356
C6 C -0.2324(7) 0.6775(3) 0.6809(4)
H4 H -0.2291 0.7385 0.6833
C7 C 0.3462(6) 0.5848(4) 0.5413(4)
H5 H 0.4179 0.5360 0.5587
H6 H 0.3298 0.6239 0.5884
C8 C -0.2377(5) 0.4966(3) 0.6741(3)
H7 H -0.2419 0.4356 0.6727
C9 C 0.1395(9) 0.6037(5) 0.4348(4)
H8 H 0.1106 0.5645 0.3891
H9 H 0.0424 0.6422 0.4452
C10 C -0.3544(6) 0.5432(4) 0.7230(4)
H10 H -0.4350 0.5125 0.7545
C11 C 0.2709(7) 0.3566(3) 0.7641(4)
H11 H 0.2581 0.3574 0.8219
C12 C -0.2502(8) 0.4124(7) 0.4805(5)
H12 H -0.2885 0.3692 0.5210
H13 H -0.3098 0.4671 0.4914
C13 C 0.4255(11) 0.6320(7) 0.4697(8)
H14 H 0.4832 0.6848 0.4888
H15 H 0.5089 0.5949 0.4416
C14 C -0.3542(7) 0.6319(4) 0.7259(4)
H16 H -0.4352 0.6617 0.7580
C15 C 0.1720(5) 0.4119(3) 0.7154(3)
H17 H 0.0953 0.4501 0.7413
C16 C 0.2893(14) 0.6533(8) 0.4154(8)
H18 H 0.3237 0.6415 0.3581
H19 H 0.2635 0.7154 0.4200
C17 C 0.3849(7) 0.3020(4) 0.7293(5)
H20 H 0.4495 0.2646 0.7628
C18 C -0.2867(14) 0.3829(7) 0.3980(6)
H21 H -0.3271 0.4314 0.3639
H22 H -0.3754 0.3381 0.3991
C19 C 0.0102(10) 0.3686(6) 0.4248(6)
H23 H 0.0539 0.3154 0.4505
H24 H 0.1046 0.3984 0.3971
C20 C -0.1294(16) 0.3476(8) 0.3638(7)
H25 H -0.1048 0.3739 0.3099
H26 H -0.1393 0.2846 0.3565
loop_
_geom_bond_atom_site_label_1
_geom_bond_atom_site_label_2
_geom_bond_site_symmetry_1
_geom_bond_site_symmetry_2
Si1 C1 1_555 1_555
C1 C5 1_555 1_555
N1 Si1 1_555 1_555
N2 Si1 1_555 1_555
C2 Si1 1_555 1_555
C3 C2 1_555 1_555
H1 C3 1_555 1_555
C4 H2 1_555 1_555
C5 C4 1_555 1_555
H3 C5 1_555 1_555
C6 C3 1_555 1_555
H4 C6 1_555 1_555
C7 N1 1_555 1_555
H5 C7 1_555 1_555
H6 C7 1_555 1_555
C8 C2 1_555 1_555
H7 C8 1_555 1_555
C9 N1 1_555 1_555
H8 C9 1_555 1_555
H9 C9 1_555 1_555
C10 C8 1_555 1_555
H10 C10 1_555 1_555
C11 H11 1_555 1_555
C12 N2 1_555 1_555
H12 C12 1_555 1_555
H13 C12 1_555 1_555
C13 C7 1_555 1_555
H14 C13 1_555 1_555
H15 C13 1_555 1_555
C14 C6 1_555 1_555
H16 C14 1_555 1_555
C15 C1 1_555 1_555
H17 C15 1_555 1_555
C16 C9 1_555 1_555
H18 C16 1_555 1_555
H19 C16 1_555 1_555
C17 C4 1_555 1_555
H20 C17 1_555 1_555
C18 C12 1_555 1_555
H21 C18 1_555 1_555
H22 C18 1_555 1_555
C19 N2 1_555 1_555
H23 C19 1_555 1_555
H24 C19 1_555 1_555
C20 C18 1_555 1_555
H25 C20 1_555 1_555
H26 C20 1_555 1_555
C10 C14 1_555 1_555
C11 C15 1_555 1_555
C11 C17 1_555 1_555
C13 C16 1_555 1_555
C19 C20 1_555 1_555

#END
