
#######################################################################
#
#                 Cambridge Crystallographic Data Centre
#                                CCDC 
#
#######################################################################
#
# If this CIF has been generated from an entry in the Cambridge 
# Structural Database, then it will include bibliographic, chemical, 
# crystal, experimental, refinement or atomic coordinate data resulting 
# from the CCDC's data processing and validation procedures.
#
#######################################################################

data_ETAGEL
_chemical_formula_moiety         'C15 H21 Cl1 N1 P1'
_chemical_name_systematic        3-(Di-isopropylamino(chloro)phosphino)indene
_symmetry_cell_setting           monoclinic
_symmetry_space_group_name_H-M   'P 21/n'
_symmetry_Int_Tables_number      14
_space_group_name_Hall           '-P 2yn'
loop_
_symmetry_equiv_pos_site_id
_symmetry_equiv_pos_as_xyz
1 x,y,z
2 1/2+x,1/2-y,1/2+z
3 -x,-y,-z
4 1/2-x,1/2+y,1/2-z
_cell_length_a                   13.364(4)
_cell_length_b                   7.5144(12)
_cell_length_c                   15.789(5)
_cell_angle_alpha                90
_cell_angle_beta                 91.108(5)
_cell_angle_gamma                90
_cell_volume                     1585.27
_exptl_crystal_colour            colorless
_exptl_crystal_description       plate
_cell_formula_units_Z            4
_exptl_crystal_recrystallization_method n-hexane
loop_
_atom_site_label
_atom_site_type_symbol
_atom_site_fract_x
_atom_site_fract_y
_atom_site_fract_z
P1 P 0.26305(6) 0.18823(10) 0.44178(5)
Cl1 Cl 0.41762(7) 0.17585(13) 0.40867(6)
N1 N 0.23308(17) 0.4014(3) 0.43820(15)
C1 C 0.2787(2) 0.1465(4) 0.55479(19)
C2 C 0.3607(3) 0.1092(4) 0.6016(2)
H1 H 0.4256 0.1159 0.5816
C3 C 0.3350(3) 0.0551(5) 0.6906(2)
H2 H 0.3571 -0.0654 0.7028
H3 H 0.3647 0.1355 0.7320
C4 C 0.1547(4) 0.0319(5) 0.7525(3)
H4 H 0.1765 -0.0044 0.8060
C5 C 0.0548(4) 0.0507(6) 0.7343(3)
H5 H 0.0087 0.0272 0.7763
C6 C 0.0207(3) 0.1038(6) 0.6550(3)
H6 H -0.0476 0.1147 0.6440
C7 C 0.0888(3) 0.1411(5) 0.5911(2)
H7 H 0.0663 0.1769 0.5376
C8 C 0.1897(3) 0.1238(4) 0.6086(2)
C9 C 0.2231(3) 0.0681(4) 0.6895(2)
C10 C 0.2794(3) 0.5397(4) 0.4937(2)
H8 H 0.3176 0.4768 0.5381
C11 C 0.3535(3) 0.6572(5) 0.4471(3)
H9 H 0.4028 0.5838 0.4208
H10 H 0.3859 0.7364 0.4867
H11 H 0.3184 0.7253 0.4045
C12 C 0.1999(3) 0.6481(5) 0.5379(3)
H12 H 0.1555 0.5695 0.5669
H13 H 0.1626 0.7162 0.4967
H14 H 0.2314 0.7272 0.5780
C13 C 0.1772(3) 0.4664(5) 0.3606(2)
H15 H 0.1784 0.5967 0.3624
C14 C 0.0680(3) 0.4099(6) 0.3638(3)
H16 H 0.0398 0.4502 0.4159
H17 H 0.0636 0.2826 0.3608
H18 H 0.0316 0.4614 0.3168
C15 C 0.2269(4) 0.4108(6) 0.2791(2)
H19 H 0.2950 0.4517 0.2797
H20 H 0.1914 0.4621 0.2316
H21 H 0.2258 0.2834 0.2744
loop_
_geom_bond_atom_site_label_1
_geom_bond_atom_site_label_2
_geom_bond_site_symmetry_1
_geom_bond_site_symmetry_2
P1 Cl1 1_555 1_555
N1 P1 1_555 1_555
C1 P1 1_555 1_555
C2 C1 1_555 1_555
H1 C2 1_555 1_555
C3 C2 1_555 1_555
H2 C3 1_555 1_555
H3 C3 1_555 1_555
C4 H4 1_555 1_555
C5 C4 1_555 1_555
H5 C5 1_555 1_555
C6 C5 1_555 1_555
H6 C6 1_555 1_555
C7 C6 1_555 1_555
H7 C7 1_555 1_555
C8 C1 1_555 1_555
C9 C3 1_555 1_555
C10 N1 1_555 1_555
H8 C10 1_555 1_555
C11 C10 1_555 1_555
H9 C11 1_555 1_555
H10 C11 1_555 1_555
H11 C11 1_555 1_555
C12 C10 1_555 1_555
H12 C12 1_555 1_555
H13 C12 1_555 1_555
H14 C12 1_555 1_555
C13 N1 1_555 1_555
H15 C13 1_555 1_555
C14 C13 1_555 1_555
H16 C14 1_555 1_555
H17 C14 1_555 1_555
H18 C14 1_555 1_555
C15 C13 1_555 1_555
H19 C15 1_555 1_555
H20 C15 1_555 1_555
H21 C15 1_555 1_555
C4 C9 1_555 1_555
C7 C8 1_555 1_555
C8 C9 1_555 1_555

#END
