
#######################################################################
#
#                 Cambridge Crystallographic Data Centre
#                                CCDC 
#
#######################################################################
#
# If this CIF has been generated from an entry in the Cambridge 
# Structural Database, then it will include bibliographic, chemical, 
# crystal, experimental, refinement or atomic coordinate data resulting 
# from the CCDC's data processing and validation procedures.
#
#######################################################################

data_ETAMUJ
_chemical_compound_source        'Lecanicillium sp.'
_chemical_name_common            'Lecanicillone A'
_chemical_formula_moiety         'C28 H32 O6'
_chemical_name_systematic        
5,8-diethyl-2,3,5,8,10,11-hexamethyl-5,6a,6b,8,12b,12c-hexahydrochromeno[6',5':3,4]cyclobuta[1,2-f]chromene-1,6,7,12-tetrone
_symmetry_cell_setting           monoclinic
_symmetry_space_group_name_H-M   'P 21'
_symmetry_Int_Tables_number      4
_space_group_name_Hall           'P 2yb'
loop_
_symmetry_equiv_pos_site_id
_symmetry_equiv_pos_as_xyz
1 x,y,z
2 -x,1/2+y,-z
_cell_length_a                   12.0422(2)
_cell_length_b                   6.75793(12)
_cell_length_c                   15.1547(3)
_cell_angle_alpha                90
_cell_angle_beta                 103.4452(19)
_cell_angle_gamma                90
_cell_volume                     1199.49
_exptl_crystal_colour            colorless
_exptl_crystal_description       block
_cell_formula_units_Z            2
_exptl_crystal_recrystallization_method 'ethyl acetate'
loop_
_atom_site_label
_atom_site_type_symbol
_atom_site_fract_x
_atom_site_fract_y
_atom_site_fract_z
O1 O 1.03929(8) 0.46600(17) 0.34325(7)
O2 O 0.67588(9) 0.93834(19) 0.32055(7)
O3 O 0.36158(9) 0.69343(18) 0.25442(7)
C1 C 0.96517(13) 0.4877(2) 0.47546(10)
C2 C 0.83824(12) 0.4580(2) 0.32164(10)
O4 O 0.80535(9) 0.4396(2) 0.04883(7)
C3 C 0.84812(13) 0.4832(2) 0.41947(10)
O5 O 0.76314(10) 0.49351(18) 0.45141(7)
C4 C 1.05380(13) 0.4800(2) 0.43595(10)
C5 C 0.58164(13) 0.8562(3) 0.30621(10)
C6 C 0.72343(12) 0.4235(2) 0.26109(10)
H1 H 0.6775 0.3430 0.2930
C7 C 0.64771(12) 0.5960(2) 0.20842(10)
H2 H 0.6964 0.7001 0.1927
O6 O 0.49667(10) 0.1589(2) 0.11618(10)
C8 C 0.44812(13) 0.6144(2) 0.22158(10)
C9 C 0.48821(13) 0.9231(3) 0.34553(10)
C10 C 0.55504(13) 0.6850(2) 0.24588(10)
C11 C 0.40442(12) 0.4508(3) 0.15405(10)
C12 C 0.93235(12) 0.4481(2) 0.28904(9)
C13 C 0.38420(14) 0.8433(3) 0.31739(10)
C14 C 1.17796(13) 0.4847(3) 0.48056(11)
H3 H 1.2034 0.6196 0.4883
H4 H 1.2200 0.4163 0.4433
H5 H 1.1905 0.4214 0.5387
C15 C 0.93898(12) 0.4117(2) 0.19146(10)
C16 C 0.32763(14) 0.3088(3) 0.19186(12)
H6 H 0.2596 0.3768 0.1974
H7 H 0.3678 0.2621 0.2504
H8 H 0.3074 0.1983 0.1514
C17 C 0.61098(12) 0.4492(3) 0.12822(10)
H9 H 0.6087 0.5080 0.0687
C18 C 1.01697(14) 0.1501(3) 0.09442(11)
H10 H 0.9447 0.1402 0.0516
H11 H 1.0556 0.0250 0.0987
H12 H 1.0627 0.2495 0.0746
C19 C 0.27702(15) 0.9007(3) 0.34428(12)
H13 H 0.2228 0.7945 0.3305
H14 H 0.2456 1.0171 0.3115
H15 H 0.2937 0.9275 0.4082
C20 C 0.98052(15) 0.4959(3) 0.57687(10)
H16 H 0.9677 0.3669 0.5991
H17 H 0.9268 0.5878 0.5917
H18 H 1.0568 0.5383 0.6044
C21 C 0.51349(15) 1.0881(3) 0.41458(12)
H19 H 0.5526 1.1932 0.3918
H20 H 0.5607 1.0386 0.4702
H21 H 0.4432 1.1374 0.4257
C22 C 0.33677(14) 0.5503(3) 0.06453(11)
H22 H 0.2719 0.6206 0.0771
H23 H 0.3857 0.6470 0.0452
C23 C 0.81897(12) 0.3996(2) 0.12817(10)
C24 C 0.99774(13) 0.2070(3) 0.18758(10)
H24 H 1.0710 0.2080 0.2309
H25 H 0.9513 0.1056 0.2066
C25 C 0.50452(12) 0.3339(3) 0.13233(11)
C26 C 1.00602(14) 0.5804(3) 0.16051(11)
H26 H 1.0839 0.5764 0.1945
H27 H 0.9726 0.7049 0.1706
H28 H 1.0036 0.5657 0.0971
C27 C 0.72097(12) 0.3302(3) 0.16758(10)
H29 H 0.7100 0.1865 0.1656
C28 C 0.29395(15) 0.4057(3) -0.01279(12)
H30 H 0.2423 0.4724 -0.0615
H31 H 0.2550 0.2981 0.0084
H32 H 0.3575 0.3553 -0.0341
loop_
_geom_bond_atom_site_label_1
_geom_bond_atom_site_label_2
_geom_bond_site_symmetry_1
_geom_bond_site_symmetry_2
O1 C4 1_555 1_555
O2 C5 1_555 1_555
O3 C8 1_555 1_555
C1 C3 1_555 1_555
C2 C3 1_555 1_555
O4 C23 1_555 1_555
C3 O5 1_555 1_555
C4 C1 1_555 1_555
C5 C9 1_555 1_555
C6 C2 1_555 1_555
H1 C6 1_555 1_555
C7 C6 1_555 1_555
H2 C7 1_555 1_555
O6 C25 1_555 1_555
C8 C10 1_555 1_555
C9 C13 1_555 1_555
C10 C5 1_555 1_555
C11 C8 1_555 1_555
C12 O1 1_555 1_555
C13 O3 1_555 1_555
C14 C4 1_555 1_555
H3 C14 1_555 1_555
H4 C14 1_555 1_555
H5 C14 1_555 1_555
C15 C12 1_555 1_555
C16 C11 1_555 1_555
H6 C16 1_555 1_555
H7 C16 1_555 1_555
H8 C16 1_555 1_555
C17 C7 1_555 1_555
H9 C17 1_555 1_555
C18 H10 1_555 1_555
H11 C18 1_555 1_555
H12 C18 1_555 1_555
C19 C13 1_555 1_555
H13 C19 1_555 1_555
H14 C19 1_555 1_555
H15 C19 1_555 1_555
C20 C1 1_555 1_555
H16 C20 1_555 1_555
H17 C20 1_555 1_555
H18 C20 1_555 1_555
C21 C9 1_555 1_555
H19 C21 1_555 1_555
H20 C21 1_555 1_555
H21 C21 1_555 1_555
C22 C11 1_555 1_555
H22 C22 1_555 1_555
H23 C22 1_555 1_555
C23 C15 1_555 1_555
C24 C15 1_555 1_555
H24 C24 1_555 1_555
H25 C24 1_555 1_555
C25 C11 1_555 1_555
C26 C15 1_555 1_555
H26 C26 1_555 1_555
H27 C26 1_555 1_555
H28 C26 1_555 1_555
C27 C6 1_555 1_555
H29 C27 1_555 1_555
C28 C22 1_555 1_555
H30 C28 1_555 1_555
H31 C28 1_555 1_555
H32 C28 1_555 1_555
C2 C12 1_555 1_555
C7 C10 1_555 1_555
C17 C25 1_555 1_555
C17 C27 1_555 1_555
C18 C24 1_555 1_555
C23 C27 1_555 1_555

#END
