
#######################################################################
#
#                 Cambridge Crystallographic Data Centre
#                                CCDC 
#
#######################################################################
#
# If this CIF has been generated from an entry in the Cambridge 
# Structural Database, then it will include bibliographic, chemical, 
# crystal, experimental, refinement or atomic coordinate data resulting 
# from the CCDC's data processing and validation procedures.
#
#######################################################################

data_ETANIY
_chemical_formula_moiety         'C15 H10 O5'
_chemical_name_systematic        1,3,8-trihydroxy-6-methyl-9,10-anthraquinone
_symmetry_cell_setting           monoclinic
_symmetry_space_group_name_H-M   'C 2/c'
_symmetry_Int_Tables_number      15
_space_group_name_Hall           '-C 2yn'
loop_
_symmetry_equiv_pos_site_id
_symmetry_equiv_pos_as_xyz
1 x,y,z
2 -x,y,1/2-z
3 1/2+x,1/2+y,z
4 1/2-x,1/2+y,1/2-z
5 -x,-y,-z
6 x,-y,1/2+z
7 1/2-x,1/2-y,-z
8 1/2+x,1/2-y,1/2+z
_cell_length_a                   27.783(4)
_cell_length_b                   4.6822(8)
_cell_length_c                   20.212(3)
_cell_angle_alpha                90
_cell_angle_beta                 118.891(8)
_cell_angle_gamma                90
_cell_volume                     2302.05
_exptl_crystal_colour            yellow
_exptl_crystal_description       needle
_cell_formula_units_Z            8
loop_
_atom_site_label
_atom_site_type_symbol
_atom_site_fract_x
_atom_site_fract_y
_atom_site_fract_z
O1 O 0.49069(10) 1.1957(6) 0.33220(13)
H1 H 0.4744(16) 1.280(9) 0.364(2)
O2 O 0.73311(9) -0.0672(6) 0.57707(14)
H2 H 0.7274(17) 0.028(10) 0.537(2)
O3 O 0.55157(9) 0.6405(5) 0.57336(12)
O4 O 0.63607(10) 0.6264(6) 0.35056(14)
H3 H 0.6569(18) 0.504(10) 0.377(2)
O5 O 0.68596(9) 0.2912(5) 0.46656(12)
C1 C 0.70094(13) -0.0867(8) 0.6647(2)
H4 H 0.7276 -0.2306 0.6906
C2 C 0.66692(13) -0.0038(8) 0.69291(19)
C3 C 0.62767(13) 0.2106(8) 0.65322(19)
H5 H 0.6037 0.2730 0.6715
C4 C 0.62347(13) 0.3305(8) 0.58873(18)
C5 C 0.58085(13) 0.5531(8) 0.54760(17)
C6 C 0.57542(13) 0.6699(8) 0.47650(18)
C7 C 0.53520(13) 0.8709(8) 0.43757(18)
H6 H 0.5110 0.9278 0.4559
C8 C 0.53004(13) 0.9910(8) 0.37116(18)
C9 C 0.69775(13) 0.0325(8) 0.59955(19)
C10 C 0.65843(12) 0.2458(8) 0.55983(18)
C11 C 0.67049(14) -0.1283(9) 0.76229(19)
H7 H 0.6962 -0.2895 0.7789
H8 H 0.6341 -0.1951 0.7519
H9 H 0.6836 0.0171 0.8021
C12 C 0.61128(12) 0.5792(7) 0.44946(17)
C13 C 0.60455(13) 0.6990(8) 0.38133(18)
C14 C 0.56392(13) 0.9057(8) 0.34309(18)
H10 H 0.5598 0.9870 0.2976
C15 C 0.65404(13) 0.3686(7) 0.49080(18)
loop_
_geom_bond_atom_site_label_1
_geom_bond_atom_site_label_2
_geom_bond_site_symmetry_1
_geom_bond_site_symmetry_2
O1 H1 1_555 1_555
O2 H2 1_555 1_555
O3 C5 1_555 1_555
O4 H3 1_555 1_555
O5 C15 1_555 1_555
C1 H4 1_555 1_555
C2 C1 1_555 1_555
C3 C2 1_555 1_555
H5 C3 1_555 1_555
C4 C3 1_555 1_555
C5 C4 1_555 1_555
C6 C5 1_555 1_555
C7 C6 1_555 1_555
H6 C7 1_555 1_555
C8 O1 1_555 1_555
C9 O2 1_555 1_555
C10 C4 1_555 1_555
C11 C2 1_555 1_555
H7 C11 1_555 1_555
H8 C11 1_555 1_555
H9 C11 1_555 1_555
C12 C6 1_555 1_555
C13 O4 1_555 1_555
C14 C8 1_555 1_555
H10 C14 1_555 1_555
C15 C10 1_555 1_555
C1 C9 1_555 1_555
C7 C8 1_555 1_555
C9 C10 1_555 1_555
C12 C13 1_555 1_555
C12 C15 1_555 1_555
C13 C14 1_555 1_555

#END
