
#######################################################################
#
#                 Cambridge Crystallographic Data Centre
#                                CCDC 
#
#######################################################################
#
# If this CIF has been generated from an entry in the Cambridge 
# Structural Database, then it will include bibliographic, chemical, 
# crystal, experimental, refinement or atomic coordinate data resulting 
# from the CCDC's data processing and validation procedures.
#
#######################################################################

data_ETGLFR
_chemical_formula_moiety         'C8 H16 O5 S1'
_chemical_name_systematic        Ethyl-1-thio-\a-D-glucofuranoside
_symmetry_cell_setting           monoclinic
_symmetry_space_group_name_H-M   'P 21'
_symmetry_Int_Tables_number      4
_space_group_name_Hall           'P 2yb'
loop_
_symmetry_equiv_pos_site_id
_symmetry_equiv_pos_as_xyz
1 x,y,z
2 -x,1/2+y,-z
_cell_length_a                   11.118(3)
_cell_length_b                   5.662(5)
_cell_length_c                   8.842(3)
_cell_angle_alpha                90
_cell_angle_beta                 108.18(2)
_cell_angle_gamma                90
_cell_volume                     528.82
_cell_formula_units_Z            2
loop_
_atom_site_label
_atom_site_type_symbol
_atom_site_fract_x
_atom_site_fract_y
_atom_site_fract_z
C1 C 0.18690 0.44710 0.34370
C2 C 0.12960 0.63600 0.42000
C3 C 0.24270 0.70660 0.55870
C4 C 0.30340 0.47240 0.61440
C5 C 0.44600 0.48290 0.70410
C6 C 0.50400 0.24330 0.75190
C7 C 0.17280 0.12520 0.11030
C8 C 0.18550 0.26790 -0.02280
H1 H 0.19600 0.46300 0.21500
H2 H 0.48200 0.81400 0.80700
H3 H 0.10200 0.77400 0.34200
H4 H 0.21500 0.82200 0.63200
H5 H 0.26200 0.38000 0.68300
H6 H 0.49200 0.55900 0.63800
H7 H 0.58100 0.30900 0.82700
H8 H 0.26200 0.07100 0.18800
H9 H 0.22700 0.13000 -0.07900
H10 H 0.29500 1.05300 0.47000
O1 O 0.28150 0.32890 0.47410
O2 O 0.03200 0.52720 0.47340
O3 O 0.32610 0.84780 0.50310
O4 O 0.46200 0.62340 0.84150
O5 O 0.43690 0.10100 0.83320
S1 S 0.07560 0.25000 0.22010
loop_
_geom_bond_atom_site_label_1
_geom_bond_atom_site_label_2
_geom_bond_site_symmetry_1
_geom_bond_site_symmetry_2
C1 C2 1_555 1_555
C2 C3 1_555 1_555
C3 C4 1_555 1_555
C4 C5 1_555 1_555
C5 C6 1_555 1_555
C6 H7 1_555 1_555
C7 C8 1_555 1_555
C8 H9 1_555 1_555
H1 C1 1_555 1_555
H2 O4 1_555 1_555
H3 C2 1_555 1_555
H4 C3 1_555 1_555
H5 C4 1_555 1_555
H6 C5 1_555 1_555
H8 C7 1_555 1_555
H10 O3 1_555 1_555
O1 C1 1_555 1_555
O2 C2 1_555 1_555
O3 C3 1_555 1_555
O4 C5 1_555 1_555
O5 C6 1_555 1_555
S1 C1 1_555 1_555
C4 O1 1_555 1_555
C7 S1 1_555 1_555

#END
