
#######################################################################
#
#                 Cambridge Crystallographic Data Centre
#                                CCDC 
#
#######################################################################
#
# If this CIF has been generated from an entry in the Cambridge 
# Structural Database, then it will include bibliographic, chemical, 
# crystal, experimental, refinement or atomic coordinate data resulting 
# from the CCDC's data processing and validation procedures.
#
#######################################################################

data_ETIGUJ01
_chemical_name_common            'Melaminium hemikis(terephthalate) monohydrate'
_chemical_formula_moiety         'C3 H7 N6 1+,0.5(C8 H4 O4 2-),H2 O1'
_chemical_name_systematic        
'2,4,6-Triamino-1,3,5-triazin-1-ium hemikis(benzene-1,4-dicarboxylate) monohydrate'
_symmetry_cell_setting           monoclinic
_symmetry_space_group_name_H-M   'P 21/c'
_symmetry_Int_Tables_number      14
_space_group_name_Hall           '-P 2ybc'
loop_
_symmetry_equiv_pos_site_id
_symmetry_equiv_pos_as_xyz
1 x,y,z
2 -x,1/2+y,1/2-z
3 -x,-y,-z
4 x,1/2-y,1/2+z
_cell_length_a                   6.7992(8)
_cell_length_b                   20.156(2)
_cell_length_c                   7.0861(8)
_cell_angle_alpha                90
_cell_angle_beta                 93.366(2)
_cell_angle_gamma                90
_cell_volume                     969.437
_exptl_crystal_colour            colorless
_exptl_crystal_description       plate
_cell_formula_units_Z            4
loop_
_atom_site_label
_atom_site_type_symbol
_atom_site_fract_x
_atom_site_fract_y
_atom_site_fract_z
O1 O 0.17936(15) 0.67030(5) 0.57913(18)
O2 O -0.13217(16) 0.67564(5) 0.47043(18)
C1 C 0.01066(19) 0.56921(7) 0.51012(19)
C2 C -0.1516(2) 0.53833(7) 0.4180(2)
C3 C 0.02031(19) 0.64364(7) 0.5204(2)
C5 C 0.1615(2) 0.52986(8) 0.5915(2)
H2 H -0.262(3) 0.5644(10) 0.360(3)
H3 H 0.273(3) 0.5492(10) 0.653(3)
O1B O -0.17936(15) 0.32970(5) 0.42087(18)
O2B O 0.13217(16) 0.32436(5) 0.52957(18)
C1B C -0.01066(19) 0.43079(7) 0.48988(19)
C2B C 0.1516(2) 0.46167(7) 0.5820(2)
C3B C -0.02031(19) 0.35636(7) 0.4796(2)
C5B C -0.1615(2) 0.47014(8) 0.4085(2)
H2B H 0.262(3) 0.4356(10) 0.640(3)
H3B H -0.273(3) 0.4508(10) 0.347(3)
N1 N 0.20832(17) 0.80430(6) 0.59385(17)
N2 N -0.10700(19) 0.81467(7) 0.4663(2)
N3 N 0.07356(18) 0.90978(6) 0.52937(18)
N4 N 0.40160(18) 0.89800(6) 0.6730(2)
N5 N 0.2674(2) 0.99943(6) 0.5996(2)
C4 C 0.0572(2) 0.84445(7) 0.52871(19)
N6 N 0.5196(2) 0.79308(7) 0.7346(2)
C6 C 0.2474(2) 0.93406(7) 0.6012(2)
C7 C 0.3769(2) 0.83315(7) 0.6675(2)
H1 H 0.506(3) 0.7476(10) 0.729(3)
H4 H 0.192(3) 0.7556(11) 0.591(3)
H5 H -0.208(3) 0.8389(12) 0.420(3)
H6 H -0.110(3) 0.7678(11) 0.469(3)
H7 H 0.626(3) 0.8119(11) 0.783(3)
H8 H 0.169(4) 1.0212(13) 0.571(3)
H9 H 0.377(3) 1.0120(10) 0.655(3)
O3 O 0.44490(19) 0.35734(7) 0.2866(2)
H10 H 0.367(5) 0.3491(15) 0.384(4)
H11 H 0.569(4) 0.3534(13) 0.337(4)
loop_
_geom_bond_atom_site_label_1
_geom_bond_atom_site_label_2
_geom_bond_site_symmetry_1
_geom_bond_site_symmetry_2
O1 C3 1_555 1_555
N1 C4 1_555 1_555
O2 C3 1_555 1_555
N2 C4 1_555 1_555
N3 C4 1_555 1_555
N4 C6 1_555 1_555
C1 C2 1_555 1_555
N5 C6 1_555 1_555
C2 H2 1_555 1_555
C3 C1 1_555 1_555
C5 C1 1_555 1_555
N6 C7 1_555 1_555
C6 N3 1_555 1_555
C7 N1 1_555 1_555
O3 H10 1_555 1_555
H1 N6 1_555 1_555
H3 C5 1_555 1_555
H4 N1 1_555 1_555
H5 N2 1_555 1_555
H6 N2 1_555 1_555
H7 N6 1_555 1_555
H8 N5 1_555 1_555
H9 N5 1_555 1_555
H11 O3 1_555 1_555
O1B C3B 1_555 1_555
O2B C3B 1_555 1_555
C1B C2B 1_555 1_555
C2B C5 1_555 1_555
C3B C1B 1_555 1_555
C5B C2 1_555 1_555
H2B C2B 1_555 1_555
H3B C5B 1_555 1_555
N4 C7 1_555 1_555
C1B C5B 1_555 1_555

#END
