
#######################################################################
#
#                 Cambridge Crystallographic Data Centre
#                                CCDC 
#
#######################################################################
#
# If this CIF has been generated from an entry in the Cambridge 
# Structural Database, then it will include bibliographic, chemical, 
# crystal, experimental, refinement or atomic coordinate data resulting 
# from the CCDC's data processing and validation procedures.
#
#######################################################################

data_ETIHUK
_chemical_formula_moiety         'C18 H33 N3 Si2'
_chemical_name_systematic        
4,4-Dimethyl-1-(4-pyridyl)-N-(trimethylsilyl)-3-(trimethylsilylimino)pentene-1-amine
_symmetry_cell_setting           triclinic
_symmetry_space_group_name_H-M   'P -1'
_symmetry_Int_Tables_number      2
_space_group_name_Hall           '-P 1'
loop_
_symmetry_equiv_pos_site_id
_symmetry_equiv_pos_as_xyz
1 x,y,z
2 -x,-y,-z
_cell_length_a                   6.2160(10)
_cell_length_b                   10.011(2)
_cell_length_c                   16.911(3)
_cell_angle_alpha                97.952(3)
_cell_angle_beta                 93.786(3)
_cell_angle_gamma                96.541(3)
_cell_volume                     1031.86
_exptl_crystal_colour            yellow
_exptl_crystal_description       block
_cell_formula_units_Z            2
loop_
_atom_site_label
_atom_site_type_symbol
_atom_site_fract_x
_atom_site_fract_y
_atom_site_fract_z
N1 N 1.0948(3) 0.32452(16) 0.28149(9)
N2 N 0.8167(3) 0.08200(19) 0.27406(10)
Si1 Si 1.27093(9) 0.40283(6) 0.36162(3)
Si2 Si 0.67707(9) -0.02741(6) 0.33110(3)
C1 C 1.0175(3) 0.3280(2) 0.20924(12)
C2 C 0.8646(3) 0.2161(2) 0.16683(12)
H1 H 0.8247 0.2201 0.1133
C3 C 0.7744(3) 0.1064(2) 0.19753(12)
C4 C 0.6173(3) 0.0030(2) 0.14409(12)
C5 C 0.4181(4) 0.0352(2) 0.11535(14)
H2 H 0.3797 0.1221 0.1288
C6 C 0.2773(4) -0.0643(3) 0.06635(15)
H3 H 0.1441 -0.0413 0.0480
N3 N 0.3205(4) -0.1910(2) 0.04383(11)
C7 C 0.5129(4) -0.2193(2) 0.07117(13)
H4 H 0.5481 -0.3065 0.0560
C8 C 0.6639(4) -0.1281(2) 0.12050(13)
H5 H 0.7958 -0.1543 0.1378
C9 C 1.0743(3) 0.4439(2) 0.15940(12)
C10 C 1.2070(4) 0.3903(2) 0.09146(14)
H6 H 1.2411 0.4604 0.0592
H7 H 1.1240 0.3131 0.0589
H8 H 1.3392 0.3640 0.1137
C11 C 0.8661(4) 0.4898(2) 0.12383(15)
H9 H 0.7761 0.5151 0.1661
H10 H 0.7885 0.4165 0.0864
H11 H 0.9033 0.5663 0.0968
C12 C 1.2051(4) 0.5690(2) 0.20918(14)
H12 H 1.2338 0.6383 0.1760
H13 H 1.3402 0.5451 0.2305
H14 H 1.1239 0.6024 0.2524
C13 C 1.5602(3) 0.4052(2) 0.33785(14)
H15 H 1.5817 0.3179 0.3102
H16 H 1.6534 0.4254 0.3867
H17 H 1.5944 0.4735 0.3044
C14 C 1.2114(4) 0.5748(2) 0.40707(13)
H18 H 1.2911 0.6433 0.3823
H19 H 1.2539 0.5888 0.4635
H20 H 1.0586 0.5803 0.3987
C15 C 1.2337(4) 0.2953(2) 0.44217(12)
H21 H 1.0898 0.2974 0.4593
H22 H 1.3384 0.3296 0.4867
H23 H 1.2536 0.2035 0.4221
C16 C 0.7457(4) 0.0510(3) 0.43688(13)
H24 H 0.9005 0.0623 0.4486
H25 H 0.6787 -0.0068 0.4715
H26 H 0.6935 0.1381 0.4454
C17 C 0.7667(4) -0.1993(2) 0.31806(16)
H27 H 0.7193 -0.2451 0.2650
H28 H 0.7049 -0.2507 0.3568
H29 H 0.9224 -0.1910 0.3256
C18 C 0.3781(3) -0.0439(3) 0.30693(14)
H30 H 0.3352 0.0441 0.3024
H31 H 0.3053 -0.0811 0.3488
H32 H 0.3395 -0.1031 0.2571
H33 H 0.900(4) 0.140(2) 0.2964(13)
loop_
_geom_bond_atom_site_label_1
_geom_bond_atom_site_label_2
_geom_bond_site_symmetry_1
_geom_bond_site_symmetry_2
N1 Si1 1_555 1_555
N2 Si2 1_555 1_555
Si1 C13 1_555 1_555
Si2 C16 1_555 1_555
C1 N1 1_555 1_555
C2 C1 1_555 1_555
H1 C2 1_555 1_555
C3 N2 1_555 1_555
C4 C3 1_555 1_555
C5 C4 1_555 1_555
H2 C5 1_555 1_555
C6 C5 1_555 1_555
H3 C6 1_555 1_555
N3 C6 1_555 1_555
C7 N3 1_555 1_555
H4 C7 1_555 1_555
C8 C4 1_555 1_555
H5 C8 1_555 1_555
C9 C1 1_555 1_555
C10 C9 1_555 1_555
H6 C10 1_555 1_555
H7 C10 1_555 1_555
H8 C10 1_555 1_555
C11 C9 1_555 1_555
H9 C11 1_555 1_555
H10 C11 1_555 1_555
H11 C11 1_555 1_555
C12 C9 1_555 1_555
H12 C12 1_555 1_555
H13 C12 1_555 1_555
H14 C12 1_555 1_555
C13 H15 1_555 1_555
H16 C13 1_555 1_555
H17 C13 1_555 1_555
C14 Si1 1_555 1_555
H18 C14 1_555 1_555
H19 C14 1_555 1_555
H20 C14 1_555 1_555
C15 Si1 1_555 1_555
H21 C15 1_555 1_555
H22 C15 1_555 1_555
H23 C15 1_555 1_555
C16 H24 1_555 1_555
H25 C16 1_555 1_555
H26 C16 1_555 1_555
C17 Si2 1_555 1_555
H27 C17 1_555 1_555
H28 C17 1_555 1_555
H29 C17 1_555 1_555
C18 Si2 1_555 1_555
H30 C18 1_555 1_555
H31 C18 1_555 1_555
H32 C18 1_555 1_555
H33 N2 1_555 1_555
C2 C3 1_555 1_555
C7 C8 1_555 1_555

#END
