
#######################################################################
#
#                 Cambridge Crystallographic Data Centre
#                                CCDC 
#
#######################################################################
#
# If this CIF has been generated from an entry in the Cambridge 
# Structural Database, then it will include bibliographic, chemical, 
# crystal, experimental, refinement or atomic coordinate data resulting 
# from the CCDC's data processing and validation procedures.
#
#######################################################################

data_ETILOI
_chemical_formula_moiety         'C23 H22 O6,0.5(C2 H4 O2)'
_chemical_name_systematic        'Rotenone hemikis(acetic acid)'
_chemical_properties_biological  'insecticide activity'
_symmetry_cell_setting           monoclinic
_symmetry_space_group_name_H-M   'P 21'
_symmetry_Int_Tables_number      4
_space_group_name_Hall           'P 2yb'
loop_
_symmetry_equiv_pos_site_id
_symmetry_equiv_pos_as_xyz
1 x,y,z
2 -x,1/2+y,-z
_cell_length_a                   9.1356(16)
_cell_length_b                   15.359(3)
_cell_length_c                   15.082(3)
_cell_angle_alpha                90
_cell_angle_beta                 92.652(4)
_cell_angle_gamma                90
_cell_volume                     2113.94
_exptl_crystal_colour            colorless
_exptl_crystal_description       block
_cell_formula_units_Z            4
loop_
_atom_site_label
_atom_site_type_symbol
_atom_site_fract_x
_atom_site_fract_y
_atom_site_fract_z
O1 O 0.9153(5) 0.0213(2) 0.3699(2)
O2 O 0.8380(3) 0.27909(19) 0.31431(19)
O3 O 0.8033(3) 0.33043(19) 0.4907(2)
O4 O 1.1258(4) 0.2753(2) 0.0722(2)
O5 O 1.1954(4) 0.1033(2) 0.6567(2)
O6 O 1.1735(4) 0.2630(2) 0.7136(2)
C1 C 1.0108(5) 0.1297(3) 0.5387(3)
H2 H 1.0204 0.0730 0.5180
C2 C 1.0959(5) 0.1561(3) 0.6102(3)
C3 C 1.0854(5) 0.2418(3) 0.6400(3)
C4 C 0.9863(5) 0.2978(3) 0.5990(3)
H3 H 0.9778 0.3547 0.6191
C5 C 0.8989(4) 0.2687(3) 0.5274(3)
C6 C 0.9094(5) 0.1853(3) 0.4954(3)
C7 C 0.8127(5) 0.1555(3) 0.4164(3)
H4 H 0.7344 0.1199 0.4399
C8 C 0.7405(5) 0.2315(3) 0.3692(3)
H5 H 0.6569 0.2103 0.3322
C9 C 0.6873(5) 0.2966(3) 0.4343(3)
H6 H 0.6396 0.3443 0.4022
H7 H 0.6152 0.2693 0.4705
C10 C 0.8949(5) 0.0982(3) 0.3538(3)
C11 C 0.9482(5) 0.1421(3) 0.2749(3)
C12 C 0.9214(5) 0.2304(3) 0.2613(3)
C13 C 0.9852(5) 0.2728(3) 0.1928(3)
C14 C 1.0712(5) 0.2259(3) 0.1371(3)
C15 C 1.0980(6) 0.1383(3) 0.1470(3)
H8 H 1.1563 0.1082 0.1084
C16 C 1.0351(5) 0.0972(3) 0.2164(3)
H9 H 1.0507 0.0378 0.2247
C17 C 0.9780(6) 0.3653(3) 0.1617(3)
H10 H 0.9985 0.4057 0.2102
H11 H 0.8831 0.3788 0.1335
C18 C 1.1001(6) 0.3669(3) 0.0942(3)
H12 H 1.1894 0.3908 0.1234
C19 C 1.0670(6) 0.4164(3) 0.0102(3)
C20 C 0.9266(7) 0.4032(5) -0.0367(4)
H13 H 0.9272 0.4310 -0.0937
H14 H 0.8504 0.4280 -0.0029
H15 H 0.9093 0.3420 -0.0444
C21 C 1.1675(8) 0.4707(5) -0.0174(5)
H16 H 1.1497 0.5027 -0.0691
H17 H 1.2561 0.4769 0.0150
C22 C 1.1848(6) 0.0131(3) 0.6392(4)
H18 H 1.0854 -0.0056 0.6449
H19 H 1.2477 -0.0181 0.6809
H20 H 1.2141 0.0016 0.5801
C23 C 1.1554(7) 0.3471(4) 0.7485(4)
H21 H 1.1807 0.3896 0.7051
H22 H 1.2179 0.3540 0.8009
H23 H 1.0551 0.3551 0.7632
O7 O 0.6209(4) 0.1117(2) 0.6224(2)
O8 O 0.6269(3) -0.1255(2) 0.49791(19)
O9 O 0.7096(3) -0.22307(19) 0.6511(2)
O10 O 0.2809(4) -0.0438(3) 0.2837(2)
O11 O 0.3899(4) -0.0374(3) 0.8873(3)
O12 O 0.4032(4) -0.2048(2) 0.8978(2)
C24 C 0.5445(5) -0.0350(3) 0.7596(3)
H24 H 0.5372 0.0253 0.7547
C25 C 0.4739(5) -0.0772(3) 0.8255(3)
C26 C 0.4799(5) -0.1672(4) 0.8319(3)
C27 C 0.5627(5) -0.2134(3) 0.7738(3)
H25 H 0.5709 -0.2735 0.7791
C28 C 0.6341(5) -0.1696(3) 0.7072(3)
C29 C 0.6271(5) -0.0813(3) 0.6998(3)
C30 C 0.7061(5) -0.0344(3) 0.6270(3)
H26 H 0.7962 -0.0097 0.6544
C31 C 0.7511(5) -0.0987(3) 0.5562(3)
H27 H 0.8256 -0.0717 0.5204
C32 C 0.8122(5) -0.1817(3) 0.5968(3)
H28 H 0.8380 -0.2212 0.5498
H29 H 0.9007 -0.1685 0.6322
C33 C 0.6176(5) 0.0400(3) 0.5878(3)
C34 C 0.5262(5) 0.0206(3) 0.5075(3)
C35 C 0.5385(5) -0.0605(3) 0.4675(3)
C36 C 0.4521(5) -0.0796(3) 0.3917(3)
C37 C 0.3572(5) -0.0167(3) 0.3587(3)
C38 C 0.3425(6) 0.0647(4) 0.3960(4)
H30 H 0.2774 0.1057 0.3716
C39 C 0.4277(5) 0.0821(3) 0.4703(3)
H31 H 0.4205 0.1363 0.4972
C40 C 0.4385(6) -0.1592(3) 0.3343(3)
H32 H 0.3892 -0.2060 0.3640
H33 H 0.5336 -0.1793 0.3168
C41 C 0.3457(5) -0.1250(4) 0.2544(3)
H34 H 0.2669 -0.1667 0.2401
C42 C 0.4296(7) -0.1102(5) 0.1741(4)
C43 C 0.4633(10) -0.0320(6) 0.1476(6)
H35 H 0.4345 0.0164 0.1794
H36 H 0.5162 -0.0248 0.0968
C44 C 0.4748(9) -0.1916(6) 0.1281(5)
H37 H 0.5352 -0.1769 0.0799
H38 H 0.3891 -0.2220 0.1055
H39 H 0.5289 -0.2283 0.1695
C45 C 0.3868(8) 0.0541(4) 0.8858(5)
H40 H 0.4846 0.0762 0.8949
H41 H 0.3273 0.0749 0.9321
H42 H 0.3463 0.0736 0.8294
C46 C 0.4079(8) -0.2962(4) 0.9069(4)
H43 H 0.3781 -0.3229 0.8514
H44 H 0.3428 -0.3139 0.9517
H45 H 0.5060 -0.3140 0.9238
O13 O 0.7921(8) 0.1707(4) 0.7670(5)
H1 H 0.7511 0.1390 0.7298
O14 O 0.9080(9) 0.0560(5) 0.7822(5)
C47 C 0.8792(10) 0.1287(5) 0.8118(7)
C48 C 0.9771(12) 0.1576(6) 0.8839(6)
H46 H 1.0500 0.1956 0.8612
H47 H 1.0241 0.1081 0.9117
H48 H 0.9223 0.1884 0.9268
loop_
_geom_bond_atom_site_label_1
_geom_bond_atom_site_label_2
_geom_bond_site_symmetry_1
_geom_bond_site_symmetry_2
O1 C10 1_555 1_555
O2 C8 1_555 1_555
O3 C5 1_555 1_555
O4 C14 1_555 1_555
O5 C2 1_555 1_555
O6 C3 1_555 1_555
O7 C33 1_555 1_555
O8 C31 1_555 1_555
O9 C28 1_555 1_555
O10 C37 1_555 1_555
O11 C25 1_555 1_555
O12 C26 1_555 1_555
O13 H1 1_555 1_555
O14 C47 1_555 1_555
C1 H2 1_555 1_555
C2 C1 1_555 1_555
C3 C2 1_555 1_555
C4 C3 1_555 1_555
H3 C4 1_555 1_555
C5 C4 1_555 1_555
C6 C1 1_555 1_555
C7 C6 1_555 1_555
H4 C7 1_555 1_555
C8 C7 1_555 1_555
H5 C8 1_555 1_555
C9 O3 1_555 1_555
H6 C9 1_555 1_555
H7 C9 1_555 1_555
C10 C7 1_555 1_555
C11 C10 1_555 1_555
C12 O2 1_555 1_555
C13 C12 1_555 1_555
C14 C13 1_555 1_555
C15 C14 1_555 1_555
H8 C15 1_555 1_555
C16 C11 1_555 1_555
H9 C16 1_555 1_555
C17 C13 1_555 1_555
H10 C17 1_555 1_555
H11 C17 1_555 1_555
C18 O4 1_555 1_555
H12 C18 1_555 1_555
C19 C18 1_555 1_555
C20 C19 1_555 1_555
H13 C20 1_555 1_555
H14 C20 1_555 1_555
H15 C20 1_555 1_555
C21 C19 1_555 1_555
H16 C21 1_555 1_555
H17 C21 1_555 1_555
C22 O5 1_555 1_555
H18 C22 1_555 1_555
H19 C22 1_555 1_555
H20 C22 1_555 1_555
C23 O6 1_555 1_555
H21 C23 1_555 1_555
H22 C23 1_555 1_555
H23 C23 1_555 1_555
C24 H24 1_555 1_555
C25 C24 1_555 1_555
C26 C25 1_555 1_555
C27 C26 1_555 1_555
H25 C27 1_555 1_555
C28 C27 1_555 1_555
C29 C24 1_555 1_555
C30 C29 1_555 1_555
H26 C30 1_555 1_555
C31 C30 1_555 1_555
H27 C31 1_555 1_555
C32 O9 1_555 1_555
H28 C32 1_555 1_555
H29 C32 1_555 1_555
C33 C30 1_555 1_555
C34 C33 1_555 1_555
C35 O8 1_555 1_555
C36 C35 1_555 1_555
C37 C36 1_555 1_555
C38 C37 1_555 1_555
H30 C38 1_555 1_555
C39 C34 1_555 1_555
H31 C39 1_555 1_555
C40 C36 1_555 1_555
H32 C40 1_555 1_555
H33 C40 1_555 1_555
C41 O10 1_555 1_555
H34 C41 1_555 1_555
C42 C41 1_555 1_555
C43 C42 1_555 1_555
H35 C43 1_555 1_555
H36 C43 1_555 1_555
C44 C42 1_555 1_555
H37 C44 1_555 1_555
H38 C44 1_555 1_555
H39 C44 1_555 1_555
C45 O11 1_555 1_555
H40 C45 1_555 1_555
H41 C45 1_555 1_555
H42 C45 1_555 1_555
C46 O12 1_555 1_555
H43 C46 1_555 1_555
H44 C46 1_555 1_555
H45 C46 1_555 1_555
C47 O13 1_555 1_555
C48 C47 1_555 1_555
H46 C48 1_555 1_555
H47 C48 1_555 1_555
H48 C48 1_555 1_555
C5 C6 1_555 1_555
C8 C9 1_555 1_555
C11 C12 1_555 1_555
C15 C16 1_555 1_555
C17 C18 1_555 1_555
C28 C29 1_555 1_555
C31 C32 1_555 1_555
C34 C35 1_555 1_555
C38 C39 1_555 1_555
C40 C41 1_555 1_555

#END
