
#######################################################################
#
#                 Cambridge Crystallographic Data Centre
#                                CCDC 
#
#######################################################################
#
# If this CIF has been generated from an entry in the Cambridge 
# Structural Database, then it will include bibliographic, chemical, 
# crystal, experimental, refinement or atomic coordinate data resulting 
# from the CCDC's data processing and validation procedures.
#
#######################################################################

data_ETIYUC
_chemical_formula_moiety         'C26 H30 N4 O5'
_chemical_name_systematic        
'Dimethyl 12-oxo-7-(pyridin-2-yl)-10-(1-(pyridin-2-yl)ethyl)-6,10-diazatricyclo[6.3.1.0^2,6^]dodecane-1,8-dicarboxylate'
_symmetry_cell_setting           monoclinic
_symmetry_space_group_name_H-M   'P 21'
_symmetry_Int_Tables_number      4
_space_group_name_Hall           'P 2yb'
loop_
_symmetry_equiv_pos_site_id
_symmetry_equiv_pos_as_xyz
1 x,y,z
2 -x,1/2+y,-z
_cell_length_a                   13.7796(11)
_cell_length_b                   11.1522(8)
_cell_length_c                   16.8019(13)
_cell_angle_alpha                90
_cell_angle_beta                 110.4860(10)
_cell_angle_gamma                90
_cell_volume                     2418.7
_exptl_crystal_colour            colorless
_exptl_crystal_description       irregular
_cell_formula_units_Z            4
loop_
_atom_site_label
_atom_site_type_symbol
_atom_site_fract_x
_atom_site_fract_y
_atom_site_fract_z
C1 C 0.19399(18) 0.3639(2) 0.19177(15)
C2 C 0.16726(17) 0.3701(2) 0.09291(14)
H1 H 0.1991 0.4447 0.0799
C3 C 0.32997(18) 0.2763(2) 0.10785(15)
H2 H 0.3522 0.3565 0.0939
C4 C 0.36342(18) 0.2646(2) 0.20603(15)
C5 C 0.3237(2) 0.1486(2) 0.23446(16)
H3 H 0.2907 0.0968 0.1844
H4 H 0.3828 0.1042 0.2746
C6 C 0.15826(19) 0.2432(2) 0.21867(17)
H5 H 0.1084 0.2590 0.2478
H6 H 0.1229 0.1943 0.1676
C7 C 0.31151(18) 0.3682(2) 0.23426(15)
C8 C 0.15102(18) 0.4713(2) 0.22496(15)
C9 C 0.1277(2) 0.6803(3) 0.2170(2)
H7 H 0.1376 0.7495 0.1848
H8 H 0.1677 0.6918 0.2775
H9 H 0.0540 0.6724 0.2090
C10 C 0.48087(19) 0.2796(3) 0.24837(15)
C11 C 0.6220(2) 0.4017(3) 0.2524(2)
H10 H 0.6407 0.4618 0.2177
H11 H 0.6653 0.3303 0.2578
H12 H 0.6332 0.4349 0.3089
C12 C 0.1984(2) 0.2579(3) -0.02281(15)
H13 H 0.2048 0.3370 -0.0472
H14 H 0.1288 0.2246 -0.0539
C13 C 0.2838(2) 0.1719(3) -0.02649(16)
H15 H 0.3110 0.1969 -0.0713
H16 H 0.2569 0.0890 -0.0385
C14 C 0.3697(2) 0.1798(3) 0.06257(16)
H17 H 0.3781 0.1022 0.0928
H18 H 0.4368 0.2033 0.0581
C15 C 0.05137(18) 0.3762(2) 0.04527(16)
C16 C 0.0070(2) 0.4827(3) 0.00672(19)
H19 H 0.0497 0.5500 0.0078
C17 C -0.0994(2) 0.4913(3) -0.03337(18)
H20 H -0.1306 0.5641 -0.0593
C18 C -0.1588(2) 0.3913(3) -0.03459(18)
H21 H -0.2320 0.3936 -0.0614
C19 C -0.1092(2) 0.2876(3) 0.00413(19)
H22 H -0.1505 0.2189 0.0031
C20 C 0.21782(19) 0.0617(3) 0.30492(16)
H23 H 0.2099 0.0003 0.2597
C21 C 0.3023(2) 0.0194(3) 0.38576(16)
C22 C 0.3605(2) 0.0990(3) 0.44745(17)
H24 H 0.3533 0.1830 0.4379
C23 C 0.4293(2) 0.0543(4) 0.52341(18)
H25 H 0.4691 0.1069 0.5672
C24 C 0.4385(2) -0.0688(3) 0.53368(19)
H26 H 0.4852 -0.1025 0.5846
C25 C 0.3792(2) -0.1412(3) 0.4691(2)
H27 H 0.3869 -0.2255 0.4766
N1 N -0.00619(17) 0.2783(2) 0.04312(15)
N2 N 0.31061(18) -0.0997(2) 0.39540(15)
N3 N 0.21701(15) 0.2675(2) 0.06916(13)
N4 N 0.24793(16) 0.1768(2) 0.27593(13)
O1 O 0.11425(15) 0.4661(2) 0.27981(12)
O2 O 0.16275(14) 0.57254(19) 0.18707(12)
O3 O 0.53503(15) 0.2219(2) 0.30725(13)
O4 O 0.51436(14) 0.3695(2) 0.21225(12)
O5 O 0.35748(14) 0.44513(19) 0.28436(12)
C26 C 0.1162(2) 0.0678(3) 0.32223(18)
H28 H 0.1036 -0.0093 0.3449
H29 H 0.0591 0.0852 0.2692
H30 H 0.1206 0.1313 0.3637
C27 C 0.18381(17) 0.2831(2) 0.68595(15)
C28 C 0.15798(17) 0.2816(2) 0.58738(14)
H31 H 0.1889 0.2074 0.5727
C29 C 0.32259(17) 0.3767(2) 0.60559(14)
H32 H 0.3457 0.2983 0.5894
C30 C 0.35560(17) 0.3824(2) 0.70387(15)
C31 C 0.31646(18) 0.4954(2) 0.73678(16)
H33 H 0.3757 0.5392 0.7774
H34 H 0.2808 0.5495 0.6888
C32 C 0.15148(18) 0.4013(2) 0.71783(16)
H35 H 0.1194 0.4561 0.6694
H36 H 0.1001 0.3846 0.7454
C33 C 0.30216(18) 0.2756(2) 0.72787(15)
C34 C 0.14121(18) 0.1738(2) 0.71792(16)
C35 C 0.1169(2) -0.0342(3) 0.70842(19)
H37 H 0.1256 -0.1034 0.6757
H38 H 0.0438 -0.0267 0.7024
H39 H 0.1589 -0.0454 0.7685
C36 C 0.47271(18) 0.3645(3) 0.74702(15)
C37 C 0.6150(2) 0.2462(3) 0.7484(2)
H40 H 0.6317 0.1802 0.7169
H41 H 0.6264 0.2203 0.8067
H42 H 0.6596 0.3151 0.7494
C38 C 0.19139(19) 0.3977(3) 0.47498(15)
H43 H 0.1231 0.4348 0.4448
H44 H 0.1944 0.3187 0.4490
C39 C 0.2801(2) 0.4798(3) 0.47179(16)
H45 H 0.2547 0.5623 0.4552
H46 H 0.3107 0.4489 0.4306
C40 C 0.36099(19) 0.4776(3) 0.56331(16)
H47 H 0.4313 0.4603 0.5629
H48 H 0.3622 0.5549 0.5926
C41 C 0.04190(18) 0.2785(2) 0.53933(15)
C42 C -0.0030(2) 0.1712(2) 0.50138(17)
H49 H 0.0390 0.1032 0.5026
C43 C -0.1097(2) 0.1649(3) 0.46190(16)
H50 H -0.1418 0.0925 0.4360
C44 C -0.16849(19) 0.2656(3) 0.46085(16)
H51 H -0.2418 0.2639 0.4348
C45 C -0.11719(19) 0.3695(3) 0.49908(16)
H52 H -0.1576 0.4391 0.4976
C46 C 0.21758(19) 0.5528(3) 0.82804(16)
H53 H 0.1630 0.5185 0.8479
C47 C 0.3110(2) 0.5789(3) 0.90838(18)
C48 C 0.3839(2) 0.4915(4) 0.94617(18)
H54 H 0.3802 0.4152 0.9202
C49 C 0.4625(3) 0.5170(5) 1.0227(2)
H55 H 0.5136 0.4588 1.0502
C50 C 0.4643(3) 0.6293(6) 1.0576(2)
H56 H 0.5159 0.6497 1.1104
C51 C 0.3905(3) 0.7105(6) 1.0150(3)
H57 H 0.3932 0.7879 1.0394
N5 N -0.01415(16) 0.3774(2) 0.53793(13)
N6 N 0.3143(2) 0.6882(4) 0.9406(2)
N7 N 0.20936(15) 0.3850(2) 0.56638(12)
N8 N 0.24431(15) 0.4576(2) 0.77910(13)
O6 O 0.10843(15) 0.1769(2) 0.77539(12)
O7 O 0.14976(14) 0.07363(18) 0.67697(12)
O8 O 0.52574(15) 0.4155(2) 0.81041(13)
O9 O 0.50753(14) 0.2802(2) 0.70727(13)
O10 O 0.34641(14) 0.19355(19) 0.77268(12)
C52 C 0.1704(2) 0.6655(3) 0.77779(19)
H58 H 0.1440 0.7176 0.8126
H59 H 0.1135 0.6428 0.7259
H60 H 0.2236 0.7083 0.7626
loop_
_geom_bond_atom_site_label_1
_geom_bond_atom_site_label_2
_geom_bond_site_symmetry_1
_geom_bond_site_symmetry_2
C1 C2 1_555 1_555
C2 H1 1_555 1_555
C3 H2 1_555 1_555
C4 C3 1_555 1_555
C5 C4 1_555 1_555
H3 C5 1_555 1_555
H4 C5 1_555 1_555
C6 C1 1_555 1_555
H5 C6 1_555 1_555
H6 C6 1_555 1_555
C7 C1 1_555 1_555
C8 C1 1_555 1_555
C9 H7 1_555 1_555
H8 C9 1_555 1_555
H9 C9 1_555 1_555
C10 C4 1_555 1_555
C11 H10 1_555 1_555
H11 C11 1_555 1_555
H12 C11 1_555 1_555
C12 H13 1_555 1_555
H14 C12 1_555 1_555
C13 C12 1_555 1_555
H15 C13 1_555 1_555
H16 C13 1_555 1_555
C14 C3 1_555 1_555
H17 C14 1_555 1_555
H18 C14 1_555 1_555
C15 C2 1_555 1_555
C16 C15 1_555 1_555
H19 C16 1_555 1_555
C17 C16 1_555 1_555
H20 C17 1_555 1_555
C18 C17 1_555 1_555
H21 C18 1_555 1_555
C19 C18 1_555 1_555
H22 C19 1_555 1_555
C20 H23 1_555 1_555
C21 C20 1_555 1_555
C22 C21 1_555 1_555
H24 C22 1_555 1_555
C23 C22 1_555 1_555
H25 C23 1_555 1_555
C24 C23 1_555 1_555
H26 C24 1_555 1_555
C25 C24 1_555 1_555
H27 C25 1_555 1_555
N1 C15 1_555 1_555
N2 C21 1_555 1_555
N3 C2 1_555 1_555
N4 C5 1_555 1_555
O1 C8 1_555 1_555
O2 C8 1_555 1_555
O3 C10 1_555 1_555
O4 C10 1_555 1_555
O5 C7 1_555 1_555
C26 C20 1_555 1_555
H28 C26 1_555 1_555
H29 C26 1_555 1_555
H30 C26 1_555 1_555
C27 C28 1_555 1_555
C28 H31 1_555 1_555
C29 H32 1_555 1_555
C30 C29 1_555 1_555
C31 C30 1_555 1_555
H33 C31 1_555 1_555
H34 C31 1_555 1_555
C32 C27 1_555 1_555
H35 C32 1_555 1_555
H36 C32 1_555 1_555
C33 C27 1_555 1_555
C34 C27 1_555 1_555
C35 H37 1_555 1_555
H38 C35 1_555 1_555
H39 C35 1_555 1_555
C36 C30 1_555 1_555
C37 H40 1_555 1_555
H41 C37 1_555 1_555
H42 C37 1_555 1_555
C38 H43 1_555 1_555
H44 C38 1_555 1_555
C39 C38 1_555 1_555
H45 C39 1_555 1_555
H46 C39 1_555 1_555
C40 C29 1_555 1_555
H47 C40 1_555 1_555
H48 C40 1_555 1_555
C41 C28 1_555 1_555
C42 C41 1_555 1_555
H49 C42 1_555 1_555
C43 C42 1_555 1_555
H50 C43 1_555 1_555
C44 C43 1_555 1_555
H51 C44 1_555 1_555
C45 C44 1_555 1_555
H52 C45 1_555 1_555
C46 H53 1_555 1_555
C47 C46 1_555 1_555
C48 C47 1_555 1_555
H54 C48 1_555 1_555
C49 C48 1_555 1_555
H55 C49 1_555 1_555
C50 C49 1_555 1_555
H56 C50 1_555 1_555
C51 C50 1_555 1_555
H57 C51 1_555 1_555
N5 C41 1_555 1_555
N6 C47 1_555 1_555
N7 C28 1_555 1_555
N8 C31 1_555 1_555
O6 C34 1_555 1_555
O7 C34 1_555 1_555
O8 C36 1_555 1_555
O9 C36 1_555 1_555
O10 C33 1_555 1_555
C52 C46 1_555 1_555
H58 C52 1_555 1_555
H59 C52 1_555 1_555
H60 C52 1_555 1_555
C3 N3 1_555 1_555
C4 C7 1_555 1_555
C6 N4 1_555 1_555
C9 O2 1_555 1_555
C11 O4 1_555 1_555
C12 N3 1_555 1_555
C13 C14 1_555 1_555
C19 N1 1_555 1_555
C20 N4 1_555 1_555
C25 N2 1_555 1_555
C29 N7 1_555 1_555
C30 C33 1_555 1_555
C32 N8 1_555 1_555
C35 O7 1_555 1_555
C37 O9 1_555 1_555
C38 N7 1_555 1_555
C39 C40 1_555 1_555
C45 N5 1_555 1_555
C46 N8 1_555 1_555
C51 N6 1_555 1_555

#END
