
#######################################################################
#
#                 Cambridge Crystallographic Data Centre
#                                CCDC 
#
#######################################################################
#
# If this CIF has been generated from an entry in the Cambridge 
# Structural Database, then it will include bibliographic, chemical, 
# crystal, experimental, refinement or atomic coordinate data resulting 
# from the CCDC's data processing and validation procedures.
#
#######################################################################

data_ETOXES
_chemical_compound_source        'fruits of Callistemon viminalis'
_chemical_name_common            'Callistiviminene M'
_chemical_formula_moiety         'C24 H36 O3'
_chemical_name_systematic        
7,9-di-isopropyl-2,2,4,4,10a-pentamethyl-4,7,8,8a,9,10a-hexahydro-1H-xanthene-1,3(2H)-dione
_symmetry_cell_setting           orthorhombic
_symmetry_space_group_name_H-M   'P 21 21 21'
_symmetry_Int_Tables_number      19
_space_group_name_Hall           'P 2ac 2ab'
loop_
_symmetry_equiv_pos_site_id
_symmetry_equiv_pos_as_xyz
1 x,y,z
2 1/2-x,-y,1/2+z
3 1/2+x,1/2-y,-z
4 -x,1/2+y,1/2-z
_cell_length_a                   6.16260(10)
_cell_length_b                   18.0717(4)
_cell_length_c                   19.5881(3)
_cell_angle_alpha                90
_cell_angle_beta                 90
_cell_angle_gamma                90
_cell_volume                     2181.5
_cell_formula_units_Z            4
loop_
_atom_site_label
_atom_site_type_symbol
_atom_site_fract_x
_atom_site_fract_y
_atom_site_fract_z
O1 O 0.6542(3) 0.13431(9) 0.05391(7)
O2 O 0.2289(4) -0.07578(12) 0.08202(10)
C1 C 0.5171(4) 0.12440(13) 0.17044(10)
H1 H 0.4261 0.1499 0.2040
C2 C 0.6782(4) 0.04176(13) -0.02915(11)
C3 C 0.4810(4) 0.02111(12) 0.08434(11)
C4 C 0.3942(4) -0.04874(13) 0.05851(12)
C5 C 0.6218(6) -0.03760(15) -0.04863(14)
C6 C 0.4038(4) 0.05044(13) 0.15317(11)
H2 H 0.2510 0.0633 0.1462
C7 C 0.5977(4) 0.06329(12) 0.04111(11)
C8 C 0.6512(5) 0.24324(13) 0.11947(12)
H3 H 0.6296 0.2829 0.0899
O3 O 0.6652(7) -0.05847(14) -0.10526(13)
C9 C 0.5129(5) -0.08957(14) 0.00140(13)
C10 C 0.8534(4) 0.19245(13) 0.21897(13)
H4 H 1.0091 0.1847 0.2118
C11 C 0.7452(4) 0.11799(13) 0.20128(12)
H5 H 0.8374 0.0918 0.1692
H6 H 0.7365 0.0884 0.2425
C12 C 0.5259(5) 0.17344(13) 0.10652(11)
C13 C 0.7897(5) 0.25192(14) 0.16997(13)
H7 H 0.8524 0.2983 0.1755
C14 C 0.8304(5) 0.21595(15) 0.29447(14)
H8 H 0.8836 0.1747 0.3223
C15 C 0.5698(6) 0.09199(17) -0.08270(13)
H9 H 0.4160 0.0836 -0.0825
H10 H 0.6272 0.0808 -0.1271
H11 H 0.5988 0.1429 -0.0719
C16 C 0.9254(5) 0.0506(2) -0.03264(16)
H12 H 0.9635 0.1011 -0.0231
H13 H 0.9753 0.0375 -0.0775
H14 H 0.9922 0.0188 0.0005
C17 C 0.4021(6) -0.00938(16) 0.21046(13)
H15 H 0.2931 -0.0457 0.1962
C18 C 0.6096(7) -0.05301(17) 0.22025(17)
H16 H 0.7148 -0.0228 0.2432
H17 H 0.6655 -0.0677 0.1765
H18 H 0.5802 -0.0962 0.2472
C19 C 0.3064(5) 0.19109(16) 0.07619(15)
H19 H 0.3252 0.2199 0.0355
H20 H 0.2222 0.2187 0.1086
H21 H 0.2325 0.1459 0.0652
C20 C 0.3175(7) 0.0227(2) 0.27777(15)
H22 H 0.2821 -0.0169 0.3085
H23 H 0.1900 0.0518 0.2691
H24 H 0.4273 0.0534 0.2979
C21 C 0.5990(7) 0.2305(2) 0.31600(16)
H25 H 0.5972 0.2494 0.3618
H26 H 0.5177 0.1852 0.3141
H27 H 0.5348 0.2661 0.2858
C22 C 0.9724(8) 0.2830(2) 0.31110(19)
H28 H 0.9163 0.3259 0.2881
H29 H 1.1183 0.2738 0.2961
H30 H 0.9718 0.2914 0.3595
C23 C 0.6977(7) -0.1337(2) 0.0353(2)
H31 H 0.7763 -0.1606 0.0010
H32 H 0.6377 -0.1678 0.0678
H33 H 0.7943 -0.1003 0.0582
C24 C 0.3577(8) -0.1414(2) -0.0360(2)
H34 H 0.2521 -0.1127 -0.0605
H35 H 0.2853 -0.1726 -0.0036
H36 H 0.4380 -0.1715 -0.0676
loop_
_geom_bond_atom_site_label_1
_geom_bond_atom_site_label_2
_geom_bond_site_symmetry_1
_geom_bond_site_symmetry_2
O1 C7 1_555 1_555
O2 C4 1_555 1_555
C1 H1 1_555 1_555
C2 C5 1_555 1_555
C3 C4 1_555 1_555
C4 C9 1_555 1_555
C5 O3 1_555 1_555
C6 C1 1_555 1_555
H2 C6 1_555 1_555
C7 C2 1_555 1_555
C8 H3 1_555 1_555
C9 C5 1_555 1_555
C10 H4 1_555 1_555
C11 C1 1_555 1_555
H5 C11 1_555 1_555
H6 C11 1_555 1_555
C12 O1 1_555 1_555
C13 C8 1_555 1_555
H7 C13 1_555 1_555
C14 C10 1_555 1_555
H8 C14 1_555 1_555
C15 C2 1_555 1_555
H9 C15 1_555 1_555
H10 C15 1_555 1_555
H11 C15 1_555 1_555
C16 C2 1_555 1_555
H12 C16 1_555 1_555
H13 C16 1_555 1_555
H14 C16 1_555 1_555
C17 C6 1_555 1_555
H15 C17 1_555 1_555
C18 C17 1_555 1_555
H16 C18 1_555 1_555
H17 C18 1_555 1_555
H18 C18 1_555 1_555
C19 C12 1_555 1_555
H19 C19 1_555 1_555
H20 C19 1_555 1_555
H21 C19 1_555 1_555
C20 C17 1_555 1_555
H22 C20 1_555 1_555
H23 C20 1_555 1_555
H24 C20 1_555 1_555
C21 C14 1_555 1_555
H25 C21 1_555 1_555
H26 C21 1_555 1_555
H27 C21 1_555 1_555
C22 C14 1_555 1_555
H28 C22 1_555 1_555
H29 C22 1_555 1_555
H30 C22 1_555 1_555
C23 C9 1_555 1_555
H31 C23 1_555 1_555
H32 C23 1_555 1_555
H33 C23 1_555 1_555
C24 C9 1_555 1_555
H34 C24 1_555 1_555
H35 C24 1_555 1_555
H36 C24 1_555 1_555
C1 C12 1_555 1_555
C3 C6 1_555 1_555
C3 C7 1_555 1_555
C8 C12 1_555 1_555
C10 C11 1_555 1_555
C10 C13 1_555 1_555

#END
