
#######################################################################
#
#                 Cambridge Crystallographic Data Centre
#                                CCDC 
#
#######################################################################
#
# If this CIF has been generated from an entry in the Cambridge 
# Structural Database, then it will include bibliographic, chemical, 
# crystal, experimental, refinement or atomic coordinate data resulting 
# from the CCDC's data processing and validation procedures.
#
#######################################################################

data_ETUFAC
_chemical_formula_moiety         'C25 H20 O4 S1'
_chemical_name_systematic        
(2-methyl-5-((4-methylphenyl)sulfonyl)-4-phenyl-3-furyl)(phenyl)methanone
_symmetry_cell_setting           monoclinic
_symmetry_space_group_name_H-M   'C 2/c'
_symmetry_Int_Tables_number      15
_space_group_name_Hall           '-C 2yn'
loop_
_symmetry_equiv_pos_site_id
_symmetry_equiv_pos_as_xyz
1 x,y,z
2 -x,y,1/2-z
3 1/2+x,1/2+y,z
4 1/2-x,1/2+y,1/2-z
5 -x,-y,-z
6 x,-y,1/2+z
7 1/2-x,1/2-y,-z
8 1/2+x,1/2-y,1/2+z
_cell_length_a                   14.0035(12)
_cell_length_b                   11.5935(10)
_cell_length_c                   25.751(2)
_cell_angle_alpha                90
_cell_angle_beta                 91.1740(10)
_cell_angle_gamma                90
_cell_volume                     4179.79
_exptl_crystal_colour            colorless
_exptl_crystal_description       block
_cell_formula_units_Z            8
loop_
_atom_site_label
_atom_site_type_symbol
_atom_site_fract_x
_atom_site_fract_y
_atom_site_fract_z
C1 C 0.01221(12) 0.66403(14) 0.18062(6)
H1 H -0.0019 0.6932 0.1464
H2 H 0.0394 0.7245 0.2017
H3 H -0.0456 0.6370 0.1959
C2 C 0.08100(10) 0.56779(12) 0.17722(5)
C3 C 0.12420(9) 0.51427(11) 0.13708(5)
C4 C 0.18363(9) 0.42367(11) 0.15826(5)
C5 C 0.17182(9) 0.43085(11) 0.21046(5)
C6 C 0.14811(10) 0.27155(11) 0.29183(5)
C7 C 0.15311(12) 0.15598(13) 0.27896(6)
H4 H 0.1961 0.1306 0.2544
C8 C 0.09335(12) 0.07868(14) 0.30301(7)
H5 H 0.0966 0.0009 0.2944
C9 C 0.02869(11) 0.11475(14) 0.33962(7)
C10 C 0.02440(11) 0.23142(15) 0.35157(7)
H6 H -0.0190 0.2569 0.3759
C11 C 0.08329(11) 0.31013(13) 0.32805(6)
H7 H 0.0797 0.3881 0.3363
C12 C -0.03432(14) 0.02839(18) 0.36634(10)
H8 H -0.0849 0.0048 0.3429
H9 H -0.0611 0.0631 0.3966
H10 H 0.0030 -0.0376 0.3765
C13 C 0.24303(10) 0.34622(12) 0.12693(5)
C14 C 0.24221(11) 0.22781(13) 0.13400(6)
H11 H 0.2073 0.1960 0.1608
C15 C 0.29296(13) 0.15642(15) 0.10150(8)
H12 H 0.2920 0.0770 0.1067
C16 C 0.34491(14) 0.20181(18) 0.06157(8)
H13 H 0.3772 0.1533 0.0392
C17 C 0.34864(14) 0.31950(19) 0.05505(7)
H14 H 0.3852 0.3508 0.0288
C18 C 0.29809(12) 0.39160(15) 0.08742(6)
H15 H 0.3010 0.4711 0.0827
C19 C 0.10710(10) 0.53902(12) 0.08064(5)
C20 C 0.12641(10) 0.65712(12) 0.06177(5)
C21 C 0.18239(12) 0.73304(13) 0.09085(6)
H16 H 0.2067 0.7104 0.1232
C22 C 0.20225(15) 0.84156(16) 0.07225(7)
H17 H 0.2401 0.8917 0.0919
C23 C 0.16630(17) 0.87565(16) 0.02492(8)
H18 H 0.1796 0.9491 0.0125
C24 C 0.11079(16) 0.80196(18) -0.00417(7)
H19 H 0.0862 0.8260 -0.0362
C25 C 0.09075(12) 0.69204(16) 0.01355(6)
H20 H 0.0537 0.6420 -0.0066
O1 O 0.10883(7) 0.51711(8) 0.22286(3)
O2 O 0.24398(9) 0.46032(10) 0.30169(4)
O3 O 0.30904(8) 0.30621(11) 0.24593(5)
O4 O 0.07980(11) 0.46216(11) 0.05182(5)
S1 S 0.22912(2) 0.36910(3) 0.264768(13)
loop_
_geom_bond_atom_site_label_1
_geom_bond_atom_site_label_2
_geom_bond_site_symmetry_1
_geom_bond_site_symmetry_2
C1 H1 1_555 1_555
H2 C1 1_555 1_555
H3 C1 1_555 1_555
C2 C1 1_555 1_555
C3 C2 1_555 1_555
C4 C3 1_555 1_555
C5 C4 1_555 1_555
C6 C7 1_555 1_555
C7 H4 1_555 1_555
C8 C7 1_555 1_555
H5 C8 1_555 1_555
C9 C8 1_555 1_555
C10 C9 1_555 1_555
H6 C10 1_555 1_555
C11 C6 1_555 1_555
H7 C11 1_555 1_555
C12 C9 1_555 1_555
H8 C12 1_555 1_555
H9 C12 1_555 1_555
H10 C12 1_555 1_555
C13 C4 1_555 1_555
C14 C13 1_555 1_555
H11 C14 1_555 1_555
C15 C14 1_555 1_555
H12 C15 1_555 1_555
C16 C15 1_555 1_555
H13 C16 1_555 1_555
C17 C16 1_555 1_555
H14 C17 1_555 1_555
C18 C13 1_555 1_555
H15 C18 1_555 1_555
C19 C3 1_555 1_555
C20 C19 1_555 1_555
C21 C20 1_555 1_555
H16 C21 1_555 1_555
C22 C21 1_555 1_555
H17 C22 1_555 1_555
C23 C22 1_555 1_555
H18 C23 1_555 1_555
C24 C23 1_555 1_555
H19 C24 1_555 1_555
C25 C20 1_555 1_555
H20 C25 1_555 1_555
O1 C2 1_555 1_555
O2 S1 1_555 1_555
O3 S1 1_555 1_555
O4 C19 1_555 1_555
S1 C5 1_555 1_555
C5 O1 1_555 1_555
C6 S1 1_555 1_555
C10 C11 1_555 1_555
C17 C18 1_555 1_555
C24 C25 1_555 1_555

#END
