
#######################################################################
#
#                 Cambridge Crystallographic Data Centre
#                                CCDC 
#
#######################################################################
#
# If this CIF has been generated from an entry in the Cambridge 
# Structural Database, then it will include bibliographic, chemical, 
# crystal, experimental, refinement or atomic coordinate data resulting 
# from the CCDC's data processing and validation procedures.
#
#######################################################################

data_EVAHEP
_chemical_formula_moiety         'C19 H19 N1 O2'
_chemical_name_systematic        
5-p-Tolyl-1,2,3,3a-tetrahydrobenzo[e]pyrrolo-[2,1-b][1,3]oxazepin-10(5H)-one
_symmetry_cell_setting           monoclinic
_symmetry_space_group_name_H-M   'P 21/c'
_symmetry_Int_Tables_number      14
_space_group_name_Hall           '-P 2ybc'
loop_
_symmetry_equiv_pos_site_id
_symmetry_equiv_pos_as_xyz
1 x,y,z
2 -x,1/2+y,1/2-z
3 -x,-y,-z
4 x,1/2-y,1/2+z
_cell_length_a                   8.237(3)
_cell_length_b                   16.868(6)
_cell_length_c                   11.267(4)
_cell_angle_alpha                90
_cell_angle_beta                 100.851(6)
_cell_angle_gamma                90
_cell_volume                     1537.47
_exptl_crystal_colour            colorless
_exptl_crystal_description       prism
_cell_formula_units_Z            4
_exptl_crystal_recrystallization_method dichloromethane
loop_
_atom_site_label
_atom_site_type_symbol
_atom_site_fract_x
_atom_site_fract_y
_atom_site_fract_z
O1 O 0.15809(16) 0.47030(7) 0.33133(12)
N1 N 0.00869(19) 0.40627(9) 0.15419(14)
C1 C 0.2534(3) 0.33184(14) 0.1825(2)
H1 H 0.2936 0.2797 0.1659
H2 H 0.3427 0.3699 0.1866
O2 O -0.18305(19) 0.44457(9) -0.00756(13)
C2 C 0.1855(3) 0.33170(12) 0.2983(2)
H3 H 0.2735 0.3382 0.3681
H4 H 0.1272 0.2827 0.3069
C3 C 0.1049(3) 0.35569(13) 0.0862(2)
H5 H 0.1393 0.3849 0.0210
H6 H 0.0417 0.3096 0.0531
C4 C -0.3496(3) 0.58920(13) 0.3392(2)
H7 H -0.3995 0.6193 0.3914
C5 C 0.4603(3) 0.79714(14) 0.5623(2)
H8 H 0.4984 0.7799 0.6440
H9 H 0.3937 0.8438 0.5622
H10 H 0.5535 0.8089 0.5255
C6 C -0.3713(2) 0.50009(12) 0.17358(19)
H11 H -0.4362 0.4709 0.1124
C7 C -0.4450(3) 0.54405(13) 0.2524(2)
H12 H -0.5592 0.5429 0.2463
C8 C 0.2897(3) 0.74206(12) 0.3717(2)
H13 H 0.3033 0.7900 0.3341
C9 C 0.2009(2) 0.68221(12) 0.30601(19)
H14 H 0.1555 0.6906 0.2250
C10 C -0.1795(2) 0.59058(11) 0.35038(18)
H15 H -0.1167 0.6224 0.4092
C11 C 0.3356(3) 0.66015(12) 0.54475(18)
H16 H 0.3809 0.6522 0.6259
C12 C -0.2000(2) 0.49935(11) 0.18561(16)
C13 C 0.0680(2) 0.40196(11) 0.28510(17)
H17 H -0.0237 0.3922 0.3274
C14 C 0.3585(2) 0.73232(11) 0.49200(19)
C15 C 0.2468(3) 0.59949(12) 0.47968(18)
H18 H 0.2331 0.5516 0.5175
C16 C 0.1782(2) 0.60969(11) 0.35837(16)
C17 C 0.0854(2) 0.54463(10) 0.28326(16)
H19 H 0.1067 0.5501 0.2010
C18 C -0.1249(2) 0.44804(11) 0.10158(17)
C19 C -0.1014(2) 0.54521(10) 0.27503(16)
loop_
_geom_bond_atom_site_label_1
_geom_bond_atom_site_label_2
_geom_bond_site_symmetry_1
_geom_bond_site_symmetry_2
O1 C13 1_555 1_555
N1 C3 1_555 1_555
C1 H1 1_555 1_555
H2 C1 1_555 1_555
O2 C18 1_555 1_555
C2 C1 1_555 1_555
H3 C2 1_555 1_555
H4 C2 1_555 1_555
C3 C1 1_555 1_555
H5 C3 1_555 1_555
H6 C3 1_555 1_555
C4 H7 1_555 1_555
C5 H8 1_555 1_555
H9 C5 1_555 1_555
H10 C5 1_555 1_555
C6 H11 1_555 1_555
C7 C4 1_555 1_555
H12 C7 1_555 1_555
C8 H13 1_555 1_555
C9 C8 1_555 1_555
H14 C9 1_555 1_555
C10 C4 1_555 1_555
H15 C10 1_555 1_555
C11 H16 1_555 1_555
C12 C6 1_555 1_555
C13 N1 1_555 1_555
H17 C13 1_555 1_555
C14 C5 1_555 1_555
C15 C11 1_555 1_555
H18 C15 1_555 1_555
C16 C9 1_555 1_555
C17 O1 1_555 1_555
H19 C17 1_555 1_555
C18 N1 1_555 1_555
C19 C10 1_555 1_555
C2 C13 1_555 1_555
C6 C7 1_555 1_555
C8 C14 1_555 1_555
C11 C14 1_555 1_555
C12 C18 1_555 1_555
C12 C19 1_555 1_555
C15 C16 1_555 1_555
C16 C17 1_555 1_555
C17 C19 1_555 1_555

#END
