
#######################################################################
#
#                 Cambridge Crystallographic Data Centre
#                                CCDC 
#
#######################################################################
#
# If this CIF has been generated from an entry in the Cambridge 
# Structural Database, then it will include bibliographic, chemical, 
# crystal, experimental, refinement or atomic coordinate data resulting 
# from the CCDC's data processing and validation procedures.
#
#######################################################################

data_EVAMOE
_chemical_formula_moiety         'C17 H11 Cl1 N2 O3'
_chemical_name_systematic        
(E)-1-[(2-Chloro-4-nitrophenylimino)methyl]naphthalen-2-ol
_symmetry_cell_setting           monoclinic
_symmetry_space_group_name_H-M   'P 21/c'
_symmetry_Int_Tables_number      14
_space_group_name_Hall           '-P 2ybc'
loop_
_symmetry_equiv_pos_site_id
_symmetry_equiv_pos_as_xyz
1 x,y,z
2 -x,1/2+y,1/2-z
3 -x,-y,-z
4 x,1/2-y,1/2+z
_cell_length_a                   7.0530(8)
_cell_length_b                   12.8699(13)
_cell_length_c                   15.7701(17)
_cell_angle_alpha                90
_cell_angle_beta                 98.1800(10)
_cell_angle_gamma                90
_cell_volume                     1416.91
_exptl_crystal_colour            orange
_exptl_crystal_description       needle-like
_cell_formula_units_Z            4
loop_
_atom_site_label
_atom_site_type_symbol
_atom_site_fract_x
_atom_site_fract_y
_atom_site_fract_z
Cl1 Cl 0.2762(3) 0.18899(12) 1.41156(10)
N1 N 0.2572(8) 0.4009(4) 1.4787(3)
N2 N 0.5023(10) 0.0960(4) 1.7252(4)
O1 O 0.1367(7) 0.4326(3) 1.3208(3)
H1 H 0.1721 0.3999 1.3648
O2 O 0.4914(9) 0.0043(4) 1.7011(3)
O3 O 0.5720(9) 0.1209(3) 1.7972(3)
C1 C 0.2399(9) 0.5024(5) 1.4905(4)
H2 H 0.2700 0.5291 1.5456
C2 C 0.1788(9) 0.5698(4) 1.4240(4)
C3 C 0.1298(11) 0.5312(5) 1.3387(4)
C4 C 0.0772(10) 0.6039(5) 1.2683(4)
H3 H 0.0473 0.5789 1.2127
C5 C 0.0714(10) 0.7060(5) 1.2830(4)
H4 H 0.0401 0.7506 1.2366
C6 C 0.1122(9) 0.7501(4) 1.3681(4)
C7 C 0.1664(9) 0.6842(4) 1.4387(4)
C8 C 0.2087(9) 0.7311(5) 1.5193(4)
H5 H 0.2425 0.6894 1.5672
C9 C 0.2017(10) 0.8362(5) 1.5295(5)
H6 H 0.2331 0.8656 1.5836
C10 C 0.1475(10) 0.8988(5) 1.4589(5)
H7 H 0.1407 0.9704 1.4661
C11 C 0.1037(10) 0.8572(4) 1.3787(5)
H8 H 0.0687 0.9002 1.3316
C12 C 0.3140(9) 0.3279(4) 1.5437(4)
C13 C 0.3278(9) 0.2238(5) 1.5197(4)
C14 C 0.3845(10) 0.1468(4) 1.5788(4)
H9 H 0.3892 0.0775 1.5624
C15 C 0.4332(9) 0.1761(5) 1.6617(4)
C16 C 0.4224(9) 0.2773(5) 1.6893(4)
H10 H 0.4532 0.2941 1.7470
C17 C 0.3651(9) 0.3523(4) 1.6296(4)
H11 H 0.3604 0.4212 1.6470
loop_
_geom_bond_atom_site_label_1
_geom_bond_atom_site_label_2
_geom_bond_site_symmetry_1
_geom_bond_site_symmetry_2
Cl1 C13 1_555 1_555
N1 C1 1_555 1_555
N2 O2 1_555 1_555
O1 H1 1_555 1_555
O3 N2 1_555 1_555
C1 H2 1_555 1_555
C2 C1 1_555 1_555
C3 O1 1_555 1_555
C4 C3 1_555 1_555
H3 C4 1_555 1_555
C5 C4 1_555 1_555
H4 C5 1_555 1_555
C6 C5 1_555 1_555
C7 C2 1_555 1_555
C8 C7 1_555 1_555
H5 C8 1_555 1_555
C9 C8 1_555 1_555
H6 C9 1_555 1_555
C10 C9 1_555 1_555
H7 C10 1_555 1_555
C11 C6 1_555 1_555
H8 C11 1_555 1_555
C12 N1 1_555 1_555
C13 C12 1_555 1_555
C14 C13 1_555 1_555
H9 C14 1_555 1_555
C15 N2 1_555 1_555
C16 C15 1_555 1_555
H10 C16 1_555 1_555
C17 C12 1_555 1_555
H11 C17 1_555 1_555
C2 C3 1_555 1_555
C6 C7 1_555 1_555
C10 C11 1_555 1_555
C14 C15 1_555 1_555
C16 C17 1_555 1_555

#END
