
#######################################################################
#
#                 Cambridge Crystallographic Data Centre
#                                CCDC 
#
#######################################################################
#
# If this CIF has been generated from an entry in the Cambridge 
# Structural Database, then it will include bibliographic, chemical, 
# crystal, experimental, refinement or atomic coordinate data resulting 
# from the CCDC's data processing and validation procedures.
#
#######################################################################

data_EVAPUM
_chemical_compound_source        'roots of Brachystemma calcinum D. Don'
_chemical_formula_moiety         'C38 H56 N8 O9,C1 H4 O1,2(H2 O1)'
_chemical_name_systematic        'Brachystemin C methanol solvate dihydrate'
_chemical_properties_biological  
'used in folk medicine for treatment of rheumatism, limb numbness, impotence and foot oedema'
_symmetry_cell_setting           orthorhombic
_symmetry_space_group_name_H-M   'P 21 21 21'
_symmetry_Int_Tables_number      19
_space_group_name_Hall           'P 2ac 2ab'
loop_
_symmetry_equiv_pos_site_id
_symmetry_equiv_pos_as_xyz
1 x,y,z
2 1/2-x,-y,1/2+z
3 -x,1/2+y,1/2-z
4 1/2+x,1/2-y,-z
_cell_length_a                   10.477(1)
_cell_length_b                   14.556(1)
_cell_length_c                   28.264(1)
_cell_angle_alpha                90
_cell_angle_beta                 90
_cell_angle_gamma                90
_cell_volume                     4310.35
_exptl_crystal_colour            colorless
_exptl_crystal_description       block
_chemical_melting_point          'above 250 deg.C'
_cell_formula_units_Z            4
_exptl_crystal_recrystallization_method ethanol/water
loop_
_atom_site_label
_atom_site_type_symbol
_atom_site_fract_x
_atom_site_fract_y
_atom_site_fract_z
O1 O 0.7516(6) 0.9779(4) 0.9106(2)
O2 O 0.5546(9) 0.8838(7) 1.1252(3)
H1 H 0.6185 0.8762 1.1414
N1 N 0.6143(8) 0.8230(6) 0.8490(2)
H2 H 0.6692 0.8490 0.8308
C1 C 0.6450(9) 0.9582(5) 0.8974(3)
C2 C 0.5935(8) 0.8596(5) 0.8964(2)
H3 H 0.5017 0.8605 0.9031
C3 C 0.6638(11) 0.7964(7) 0.9346(3)
H4 H 0.6374 0.7332 0.9300
H5 H 0.7552 0.7994 0.9293
C4 C 0.6364(10) 0.8237(6) 0.9846(3)
C5 C 0.5129(13) 0.8329(9) 1.0007(5)
H6 H 0.4468 0.8250 0.9791
C6 C 0.4810(10) 0.8533(8) 1.0475(4)
H7 H 0.3963 0.8573 1.0572
C7 C 0.5828(11) 0.8676(6) 1.0796(3)
C8 C 0.7081(12) 0.8602(7) 1.0634(4)
H8 H 0.7756 0.8664 1.0846
C9 C 0.7326(10) 0.8435(7) 1.0154(3)
H9 H 0.8161 0.8459 1.0044
O3 O 0.7380(8) 1.2252(5) 0.9174(3)
N2 N 0.5606(7) 1.0244(4) 0.8841(2)
C10 C 0.6580(8) 1.1612(5) 0.9237(3)
C11 C 0.6016(9) 1.1230(6) 0.8789(3)
H10 H 0.6666 1.1262 0.8540
C12 C 0.4807(12) 1.1696(9) 0.8607(4)
H11 H 0.4266 1.1894 0.8866
H12 H 0.5011 1.2222 0.8410
C13 C 0.4169(9) 1.0938(7) 0.8320(3)
H13 H 0.4575 1.0871 0.8013
H14 H 0.3270 1.1069 0.8273
C14 C 0.4348(9) 1.0068(7) 0.8620(3)
H15 H 0.3681 1.0008 0.8856
H16 H 0.4366 0.9520 0.8424
O4 O 0.8986(10) 1.2071(6) 1.0365(3)
N3 N 0.6279(8) 1.1349(5) 0.9654(3)
C15 C 0.8351(11) 1.1594(6) 1.0101(3)
C16 C 0.6900(10) 1.1760(6) 1.0087(3)
H17 H 0.6730 1.2422 1.0096
C17 C 0.6255(12) 1.1304(9) 1.0499(3)
H18 H 0.6245 1.1706 1.0773
H19 H 0.6684 1.0736 1.0582
C18 C 0.4863(9) 1.1112(9) 1.0318(3)
H20 H 0.4461 1.0618 1.0494
H21 H 0.4333 1.1658 1.0335
C19 C 0.5130(9) 1.0831(7) 0.9799(4)
H22 H 0.5282 1.0175 0.9777
H23 H 0.4410 1.0987 0.9599
O5 O 1.1901(10) 1.0975(8) 0.9237(5)
N4 N 0.8815(7) 1.0924(4) 0.9820(3)
H24 H 0.8305 1.0593 0.9653
C20 C 1.0732(9) 1.1069(8) 0.9335(4)
C21 C 1.0205(9) 1.0762(7) 0.9799(4)
H25 H 1.0599 1.1143 1.0045
C22 C 1.0517(9) 0.9719(7) 0.9923(4)
H26 H 0.9831 0.9522 1.0136
C23 C 1.047(2) 0.9090(16) 0.9529(11)
H27 H 0.9686 0.9180 0.9358
H28 H 1.0504 0.8470 0.9644
H29 H 1.1179 0.9201 0.9323
C24 C 1.183(2) 0.966(2) 1.0240(13)
H30 H 1.2118 0.9026 1.0255
H31 H 1.2496 1.0020 1.0090
C25 C 1.160(2) 1.0013(16) 1.0736(4)
H32 H 1.2372 0.9950 1.0918
H33 H 1.0932 0.9666 1.0882
H34 H 1.1365 1.0649 1.0722
O6 O 1.0921(8) 1.1547(5) 0.7796(3)
N5 N 0.9938(8) 1.1519(7) 0.9025(3)
H35 H 0.9138 1.1561 0.9090
C26 C 1.0381(8) 1.1295(5) 0.8145(2)
C27 C 1.0403(13) 1.1912(8) 0.8606(5)
H36 H 1.0712 1.2511 0.8599
O7 O 0.7433(8) 0.9715(5) 0.7975(2)
N6 N 0.9693(8) 1.0532(6) 0.8173(3)
H37 H 0.9226 1.0445 0.8420
C28 C 0.8246(8) 0.9593(5) 0.7670(3)
C29 C 0.9699(8) 0.9832(6) 0.7800(3)
H38 H 1.0109 1.0094 0.7519
C30 C 1.0371(12) 0.8937(8) 0.7924(4)
H39 H 1.0390 0.8548 0.7641
C31 C 1.1763(12) 0.9210(10) 0.8050(7)
H40 H 1.2237 0.8670 0.8135
H41 H 1.1757 0.9631 0.8312
H42 H 1.2158 0.9497 0.7782
C32 C 0.9822(14) 0.8400(8) 0.8318(6)
H43 H 1.0323 0.7856 0.8367
H44 H 0.8961 0.8229 0.8241
H45 H 0.9825 0.8765 0.8600
O8 O 0.4826(8) 0.8507(6) 0.7396(4)
N7 N 0.8046(7) 0.9248(5) 0.7261(3)
H46 H 0.8678 0.9068 0.7091
C33 C 0.5991(8) 0.8421(8) 0.7369(3)
C34 C 0.6744(9) 0.9159(7) 0.7082(3)
H47 H 0.6314 0.9751 0.7125
C35 C 0.6751(10) 0.8941(7) 0.6562(3)
H48 H 0.7223 0.9406 0.6395
H49 H 0.5890 0.8926 0.6446
H50 H 0.7146 0.8354 0.6512
O9 O 0.4664(7) 0.7142(6) 0.8567(3)
N8 N 0.6617(8) 0.7744(5) 0.7560(2)
H51 H 0.7424 0.7702 0.7510
C36 C 0.5507(11) 0.7509(8) 0.8336(4)
C37 C 0.5979(9) 0.7035(6) 0.7863(3)
H52 H 0.5238 0.6790 0.7693
C38 C 0.6831(14) 0.6277(8) 0.7984(5)
H53 H 0.7120 0.5983 0.7700
H54 H 0.6382 0.5840 0.8176
H55 H 0.7552 0.6510 0.8156
O10 O 0.2529(14) 1.1599(11) 1.1694(6)
O11 O 0.4754(10) 1.0623(7) 1.1642(3)
O12 O 0.7566(9) 0.8618(8) 1.1837(3)
H56 H 0.6926 0.8896 1.1752
C39 C 0.7371(14) 0.8263(9) 1.2314(4)
H57 H 0.6525 0.8414 1.2419
H58 H 0.7985 0.8532 1.2524
H59 H 0.7473 0.7607 1.2313
loop_
_geom_bond_atom_site_label_1
_geom_bond_atom_site_label_2
_geom_bond_site_symmetry_1
_geom_bond_site_symmetry_2
O1 C1 1_555 1_555
O2 H1 1_555 1_555
N1 H2 1_555 1_555
C1 C2 1_555 1_555
C2 N1 1_555 1_555
H3 C2 1_555 1_555
C3 C2 1_555 1_555
H4 C3 1_555 1_555
H5 C3 1_555 1_555
C4 C3 1_555 1_555
C5 C4 1_555 1_555
H6 C5 1_555 1_555
C6 C5 1_555 1_555
H7 C6 1_555 1_555
C7 O2 1_555 1_555
C8 C7 1_555 1_555
H8 C8 1_555 1_555
C9 C4 1_555 1_555
H9 C9 1_555 1_555
O3 C10 1_555 1_555
N2 C1 1_555 1_555
C10 C11 1_555 1_555
C11 N2 1_555 1_555
H10 C11 1_555 1_555
C12 C11 1_555 1_555
H11 C12 1_555 1_555
H12 C12 1_555 1_555
C13 C12 1_555 1_555
H13 C13 1_555 1_555
H14 C13 1_555 1_555
C14 N2 1_555 1_555
H15 C14 1_555 1_555
H16 C14 1_555 1_555
O4 C15 1_555 1_555
N3 C10 1_555 1_555
C15 C16 1_555 1_555
C16 N3 1_555 1_555
H17 C16 1_555 1_555
C17 C16 1_555 1_555
H18 C17 1_555 1_555
H19 C17 1_555 1_555
C18 C17 1_555 1_555
H20 C18 1_555 1_555
H21 C18 1_555 1_555
C19 N3 1_555 1_555
H22 C19 1_555 1_555
H23 C19 1_555 1_555
O5 C20 1_555 1_555
N4 C15 1_555 1_555
H24 N4 1_555 1_555
C20 C21 1_555 1_555
C21 N4 1_555 1_555
H25 C21 1_555 1_555
C22 C21 1_555 1_555
H26 C22 1_555 1_555
C23 C22 1_555 1_555
H27 C23 1_555 1_555
H28 C23 1_555 1_555
H29 C23 1_555 1_555
C24 C22 1_555 1_555
H30 C24 1_555 1_555
H31 C24 1_555 1_555
C25 C24 1_555 1_555
H32 C25 1_555 1_555
H33 C25 1_555 1_555
H34 C25 1_555 1_555
O6 C26 1_555 1_555
N5 C20 1_555 1_555
H35 N5 1_555 1_555
C26 C27 1_555 1_555
C27 N5 1_555 1_555
H36 C27 1_555 1_555
O7 C28 1_555 1_555
N6 C26 1_555 1_555
H37 N6 1_555 1_555
C28 C29 1_555 1_555
C29 N6 1_555 1_555
H38 C29 1_555 1_555
C30 C29 1_555 1_555
H39 C30 1_555 1_555
C31 C30 1_555 1_555
H40 C31 1_555 1_555
H41 C31 1_555 1_555
H42 C31 1_555 1_555
C32 C30 1_555 1_555
H43 C32 1_555 1_555
H44 C32 1_555 1_555
H45 C32 1_555 1_555
O8 C33 1_555 1_555
N7 C28 1_555 1_555
H46 N7 1_555 1_555
C33 C34 1_555 1_555
C34 N7 1_555 1_555
H47 C34 1_555 1_555
C35 C34 1_555 1_555
H48 C35 1_555 1_555
H49 C35 1_555 1_555
H50 C35 1_555 1_555
O9 C36 1_555 1_555
N8 C33 1_555 1_555
H51 N8 1_555 1_555
C36 N1 1_555 1_555
C37 N8 1_555 1_555
H52 C37 1_555 1_555
C38 C37 1_555 1_555
H53 C38 1_555 1_555
H54 C38 1_555 1_555
H55 C38 1_555 1_555
O12 H56 1_555 1_555
C39 O12 1_555 1_555
H57 C39 1_555 1_555
H58 C39 1_555 1_555
H59 C39 1_555 1_555
C6 C7 1_555 1_555
C8 C9 1_555 1_555
C13 C14 1_555 1_555
C18 C19 1_555 1_555
C36 C37 1_555 1_555

#END
