
#######################################################################
#
#                 Cambridge Crystallographic Data Centre
#                                CCDC 
#
#######################################################################
#
# If this CIF has been generated from an entry in the Cambridge 
# Structural Database, then it will include bibliographic, chemical, 
# crystal, experimental, refinement or atomic coordinate data resulting 
# from the CCDC's data processing and validation procedures.
#
#######################################################################

data_EVAXUV
_chemical_formula_moiety         'C9 H11 N1 O1,C6 H5 N3 O4'
_chemical_name_systematic        
'4-(Dimethylamino)benzaldehyde 2,4-dinitroaniline'
_symmetry_cell_setting           monoclinic
_symmetry_space_group_name_H-M   'P 21/n'
_symmetry_Int_Tables_number      14
_space_group_name_Hall           '-P 2yn'
loop_
_symmetry_equiv_pos_site_id
_symmetry_equiv_pos_as_xyz
1 x,y,z
2 1/2-x,1/2+y,1/2-z
3 -x,-y,-z
4 1/2+x,1/2-y,1/2+z
_cell_length_a                   18.7512(18)
_cell_length_b                   7.3182(6)
_cell_length_c                   24.338(2)
_cell_angle_alpha                90
_cell_angle_beta                 109.493(1)
_cell_angle_gamma                90
_cell_volume                     3148.35
_exptl_crystal_colour            colorless
_exptl_crystal_description       flake
_cell_formula_units_Z            8
_exptl_crystal_recrystallization_method ethanol
loop_
_atom_site_label
_atom_site_type_symbol
_atom_site_fract_x
_atom_site_fract_y
_atom_site_fract_z
N1 N 0.13405(12) 0.4177(3) 0.64855(9)
H1 H 0.1570 0.4459 0.6844
H2 H 0.0892 0.3723 0.6382
N2 N 0.06120(14) 0.3253(3) 0.52459(12)
N3 N 0.28629(16) 0.5458(4) 0.49136(12)
O1 O 0.02442(11) 0.2921(3) 0.55713(9)
O2 O 0.03664(10) 0.2926(3) 0.47188(9)
O3 O 0.25494(12) 0.5097(3) 0.43926(10)
O4 O 0.34929(12) 0.6141(3) 0.51053(9)
C1 C 0.16792(16) 0.4443(4) 0.60916(12)
C2 C 0.13580(14) 0.4027(3) 0.54922(12)
C3 C 0.17543(15) 0.4359(3) 0.51131(11)
H5 H 0.1537 0.4080 0.4719
C4 C 0.24568(16) 0.5087(4) 0.53145(13)
C5 C 0.27963(15) 0.5507(3) 0.59022(13)
H6 H 0.3281 0.6002 0.6037
C6 C 0.24120(15) 0.5186(4) 0.62736(12)
H7 H 0.2642 0.5469 0.6666
N4 N 0.62137(12) 0.6263(3) 0.60594(9)
H3 H 0.5991 0.6520 0.5698
H4 H 0.6661 0.5802 0.6172
N5 N 0.69136(14) 0.5410(3) 0.73034(12)
N6 N 0.46369(16) 0.7627(3) 0.75848(12)
O5 O 0.72847(10) 0.4992(3) 0.69840(9)
O6 O 0.71548(10) 0.5136(3) 0.78306(9)
O7 O 0.49526(11) 0.7428(3) 0.81136(9)
O8 O 0.39780(12) 0.8089(3) 0.73743(9)
C7 C 0.58660(16) 0.6579(4) 0.64448(12)
C8 C 0.61777(14) 0.6216(4) 0.70481(11)
C9 C 0.57746(15) 0.6585(4) 0.74155(11)
H8 H 0.5987 0.6345 0.7812
C10 C 0.50712(16) 0.7295(4) 0.72008(12)
C11 C 0.47405(15) 0.7694(3) 0.66082(12)
H9 H 0.4258 0.8197 0.6465
C12 C 0.51349(16) 0.7334(4) 0.62468(12)
H10 H 0.4915 0.7596 0.5852
N7 N 0.54203(14) 0.1901(3) 0.78750(11)
O9 O 0.45542(14) 0.2464(4) 0.51132(9)
C13 C 0.5127(2) 0.2137(4) 0.55089(14)
H11 H 0.5553 0.1856 0.5410
C14 C 0.52185(17) 0.2138(4) 0.61208(12)
C15 C 0.46240(16) 0.2653(4) 0.63065(13)
H12 H 0.4171 0.3036 0.6034
C16 C 0.46925(15) 0.2606(3) 0.68821(13)
H13 H 0.4288 0.2980 0.6995
C17 C 0.53573(17) 0.2010(4) 0.73066(13)
C18 C 0.59579(15) 0.1494(4) 0.71130(12)
H14 H 0.6411 0.1096 0.7382
C19 C 0.58822(15) 0.1569(4) 0.65354(13)
H15 H 0.6288 0.1229 0.6419
C20 C 0.48038(17) 0.2435(4) 0.80759(12)
H16 H 0.4740 0.3736 0.8045
H17 H 0.4918 0.2071 0.8475
H18 H 0.4346 0.1849 0.7840
C21 C 0.61157(16) 0.1308(4) 0.83177(11)
H19 H 0.6202 0.0040 0.8260
H20 H 0.6073 0.1472 0.8697
H21 H 0.6532 0.2019 0.8288
N8 N 0.79608(13) 0.0474(3) 0.53617(10)
O10 O 0.72731(12) -0.0839(3) 0.26313(9)
C22 C 0.77930(18) -0.0195(4) 0.30214(14)
H22 H 0.8208 0.0196 0.2925
C23 C 0.78384(17) 0.0032(4) 0.36245(13)
C24 C 0.72267(15) -0.0435(3) 0.37970(13)
H23 H 0.6786 -0.0873 0.3521
C25 C 0.72604(15) -0.0264(4) 0.43635(13)
H24 H 0.6838 -0.0552 0.4466
C26 C 0.79240(16) 0.0341(4) 0.47947(12)
C27 C 0.85369(15) 0.0821(4) 0.46156(12)
H25 H 0.8981 0.1253 0.4888
C28 C 0.84891(15) 0.0661(4) 0.40456(13)
H26 H 0.8904 0.0982 0.3938
C29 C 0.73431(16) -0.0077(4) 0.55566(12)
H27 H 0.6893 0.0574 0.5339
H28 H 0.7468 0.0196 0.5964
H29 H 0.7259 -0.1366 0.5496
C30 C 0.86512(15) 0.1111(4) 0.58117(11)
H30 H 0.9054 0.0262 0.5846
H31 H 0.8564 0.1195 0.6178
H32 H 0.8787 0.2291 0.5706
loop_
_geom_bond_atom_site_label_1
_geom_bond_atom_site_label_2
_geom_bond_site_symmetry_1
_geom_bond_site_symmetry_2
N1 H1 1_555 1_555
H2 N1 1_555 1_555
N2 O1 1_555 1_555
N3 O3 1_555 1_555
N4 H3 1_555 1_555
H4 N4 1_555 1_555
N5 O5 1_555 1_555
N6 O7 1_555 1_555
N7 C17 1_555 1_555
N8 C26 1_555 1_555
O2 N2 1_555 1_555
O4 N3 1_555 1_555
O6 N5 1_555 1_555
O8 N6 1_555 1_555
O9 C13 1_555 1_555
O10 C22 1_555 1_555
C1 N1 1_555 1_555
C2 N2 1_555 1_555
C3 C2 1_555 1_555
H5 C3 1_555 1_555
C4 N3 1_555 1_555
C5 C4 1_555 1_555
H6 C5 1_555 1_555
C6 C1 1_555 1_555
H7 C6 1_555 1_555
C7 N4 1_555 1_555
C8 N5 1_555 1_555
C9 C8 1_555 1_555
H8 C9 1_555 1_555
C10 N6 1_555 1_555
C11 C10 1_555 1_555
H9 C11 1_555 1_555
C12 C7 1_555 1_555
H10 C12 1_555 1_555
C13 H11 1_555 1_555
C14 C13 1_555 1_555
C15 C14 1_555 1_555
H12 C15 1_555 1_555
C16 C15 1_555 1_555
H13 C16 1_555 1_555
C17 C16 1_555 1_555
C18 C17 1_555 1_555
H14 C18 1_555 1_555
C19 C14 1_555 1_555
H15 C19 1_555 1_555
C20 N7 1_555 1_555
H16 C20 1_555 1_555
H17 C20 1_555 1_555
H18 C20 1_555 1_555
C21 N7 1_555 1_555
H19 C21 1_555 1_555
H20 C21 1_555 1_555
H21 C21 1_555 1_555
C22 H22 1_555 1_555
C23 C22 1_555 1_555
C24 C23 1_555 1_555
H23 C24 1_555 1_555
C25 C24 1_555 1_555
H24 C25 1_555 1_555
C26 C25 1_555 1_555
C27 C26 1_555 1_555
H25 C27 1_555 1_555
C28 C23 1_555 1_555
H26 C28 1_555 1_555
C29 N8 1_555 1_555
H27 C29 1_555 1_555
H28 C29 1_555 1_555
H29 C29 1_555 1_555
C30 N8 1_555 1_555
H30 C30 1_555 1_555
H31 C30 1_555 1_555
H32 C30 1_555 1_555
C1 C2 1_555 1_555
C3 C4 1_555 1_555
C5 C6 1_555 1_555
C7 C8 1_555 1_555
C9 C10 1_555 1_555
C11 C12 1_555 1_555
C18 C19 1_555 1_555
C27 C28 1_555 1_555

#END
