
#######################################################################
#
#                 Cambridge Crystallographic Data Centre
#                                CCDC 
#
#######################################################################
#
# If this CIF has been generated from an entry in the Cambridge 
# Structural Database, then it will include bibliographic, chemical, 
# crystal, experimental, refinement or atomic coordinate data resulting 
# from the CCDC's data processing and validation procedures.
#
#######################################################################

data_EVEDOA
_chemical_formula_moiety         'C23 H18 Cl1 N1 O3 S1'
_chemical_name_systematic        
2-(4-chlorophenyl)-5-(((4-methylphenyl)sulfonyl)(phenyl)methyl)-1,3-oxazole
_symmetry_cell_setting           monoclinic
_symmetry_space_group_name_H-M   'P 21/c'
_symmetry_Int_Tables_number      14
_space_group_name_Hall           '-P 2ybc'
loop_
_symmetry_equiv_pos_site_id
_symmetry_equiv_pos_as_xyz
1 x,y,z
2 -x,1/2+y,1/2-z
3 -x,-y,-z
4 x,1/2-y,1/2+z
_cell_length_a                   13.752(3)
_cell_length_b                   8.4132(13)
_cell_length_c                   19.307(3)
_cell_angle_alpha                90
_cell_angle_beta                 110.58(2)
_cell_angle_gamma                90
_cell_volume                     2091.23
_exptl_crystal_colour            'light yellow'
_exptl_crystal_description       parallelepiped
_cell_formula_units_Z            4
loop_
_atom_site_label
_atom_site_type_symbol
_atom_site_fract_x
_atom_site_fract_y
_atom_site_fract_z
Cl1 Cl -0.1213(2) 0.5787(3) 0.22952(15)
S1 S 0.45959(13) 0.67624(19) 0.06864(9)
O1 O 0.4831(4) 0.5428(5) 0.1182(3)
O2 O 0.5358(4) 0.7285(6) 0.0387(3)
O3 O 0.2140(4) 0.5862(5) 0.0477(2)
N1 N 0.1706(5) 0.3320(6) 0.0285(3)
C1 C 0.4245(5) 0.8400(7) 0.1123(3)
C2 C 0.3830(6) 0.8145(8) 0.1667(4)
H1 H 0.3727 0.7117 0.1805
C3 C 0.3569(6) 0.9434(9) 0.2004(4)
H2 H 0.3290 0.9266 0.2372
C4 C 0.3711(5) 1.0963(8) 0.1809(4)
C5 C 0.4157(6) 1.1200(8) 0.1279(4)
H3 H 0.4279 1.2230 0.1154
C6 C 0.4426(5) 0.9923(7) 0.0931(4)
H4 H 0.4723 1.0089 0.0573
C7 C 0.3425(7) 1.2385(10) 0.2174(4)
H5 H 0.3582 1.3342 0.1963
H6 H 0.2697 1.2353 0.2096
H7 H 0.3816 1.2363 0.2695
C8 C 0.3464(5) 0.6200(7) -0.0112(3)
H8 H 0.3741 0.5489 -0.0400
C9 C 0.2720(5) 0.5211(7) 0.0090(3)
C10 C 0.2451(6) 0.3689(7) -0.0019(4)
H9 H 0.2726 0.2969 -0.0266
C11 C 0.1548(5) 0.4631(7) 0.0571(3)
C12 C 0.0856(5) 0.4973(7) 0.0980(3)
C13 C 0.0808(6) 0.6466(8) 0.1265(4)
H10 H 0.1207 0.7293 0.1189
C14 C 0.0164(6) 0.6726(8) 0.1666(4)
H11 H 0.0120 0.7732 0.1852
C15 C -0.0418(6) 0.5481(8) 0.1790(4)
C16 C -0.0382(6) 0.4015(9) 0.1499(4)
H12 H -0.0792 0.3198 0.1571
C17 C 0.0262(6) 0.3728(8) 0.1097(4)
H13 H 0.0296 0.2721 0.0908
C18 C 0.3004(5) 0.7582(7) -0.0629(3)
C19 C 0.3286(6) 0.7748(9) -0.1252(4)
H14 H 0.3753 0.7038 -0.1333
C20 C 0.2874(7) 0.8958(11) -0.1748(4)
H15 H 0.3069 0.9073 -0.2161
C21 C 0.2170(7) 1.0004(10) -0.1632(5)
H16 H 0.1871 1.0801 -0.1975
C22 C 0.1911(7) 0.9863(7) -0.1006(4)
H17 H 0.1455 1.0585 -0.0919
C23 C 0.2326(6) 0.8657(7) -0.0510(4)
H18 H 0.2146 0.8566 -0.0091
loop_
_geom_bond_atom_site_label_1
_geom_bond_atom_site_label_2
_geom_bond_site_symmetry_1
_geom_bond_site_symmetry_2
Cl1 C15 1_555 1_555
S1 O1 1_555 1_555
O2 S1 1_555 1_555
O3 C9 1_555 1_555
N1 C10 1_555 1_555
C1 S1 1_555 1_555
C2 C1 1_555 1_555
H1 C2 1_555 1_555
C3 C2 1_555 1_555
H2 C3 1_555 1_555
C4 C3 1_555 1_555
C5 C4 1_555 1_555
H3 C5 1_555 1_555
C6 C1 1_555 1_555
H4 C6 1_555 1_555
C7 C4 1_555 1_555
H5 C7 1_555 1_555
H6 C7 1_555 1_555
H7 C7 1_555 1_555
C8 S1 1_555 1_555
H8 C8 1_555 1_555
C9 C8 1_555 1_555
C10 C9 1_555 1_555
H9 C10 1_555 1_555
C11 O3 1_555 1_555
C12 C11 1_555 1_555
C13 C12 1_555 1_555
H10 C13 1_555 1_555
C14 C13 1_555 1_555
H11 C14 1_555 1_555
C15 C14 1_555 1_555
C16 C15 1_555 1_555
H12 C16 1_555 1_555
C17 C12 1_555 1_555
H13 C17 1_555 1_555
C18 C8 1_555 1_555
C19 C18 1_555 1_555
H14 C19 1_555 1_555
C20 C19 1_555 1_555
H15 C20 1_555 1_555
C21 C20 1_555 1_555
H16 C21 1_555 1_555
C22 C21 1_555 1_555
H17 C22 1_555 1_555
C23 C18 1_555 1_555
H18 C23 1_555 1_555
N1 C11 1_555 1_555
C5 C6 1_555 1_555
C16 C17 1_555 1_555
C22 C23 1_555 1_555

#END
