
#######################################################################
#
#                 Cambridge Crystallographic Data Centre
#                                CCDC 
#
#######################################################################
#
# If this CIF has been generated from an entry in the Cambridge 
# Structural Database, then it will include bibliographic, chemical, 
# crystal, experimental, refinement or atomic coordinate data resulting 
# from the CCDC's data processing and validation procedures.
#
#######################################################################

data_EVEDAM
_chemical_formula_moiety         'C16 H12 Br1 N1 O3 S1'
_chemical_name_systematic        
5-(((4-bromophenyl)sulfonyl)methyl)-2-phenyl-1,3-oxazole
_symmetry_cell_setting           triclinic
_symmetry_space_group_name_H-M   'P -1'
_symmetry_Int_Tables_number      2
_space_group_name_Hall           '-P 1'
loop_
_symmetry_equiv_pos_site_id
_symmetry_equiv_pos_as_xyz
1 x,y,z
2 -x,-y,-z
_cell_length_a                   6.0573(8)
_cell_length_b                   9.8062(15)
_cell_length_c                   13.5008(17)
_cell_angle_alpha                70.435(13)
_cell_angle_beta                 82.679(10)
_cell_angle_gamma                82.699(11)
_cell_volume                     746.41
_exptl_crystal_colour            brown
_exptl_crystal_description       parallelepiped
_cell_formula_units_Z            2
loop_
_atom_site_label
_atom_site_type_symbol
_atom_site_fract_x
_atom_site_fract_y
_atom_site_fract_z
Br1 Br 0.98901(11) 0.35904(7) 0.21392(5)
S1 S 0.8301(2) 0.81552(15) 0.46556(11)
O1 O 0.6291(7) 0.7879(5) 0.5343(3)
O2 O 1.0325(7) 0.8229(5) 0.5073(3)
O3 O 0.6428(5) 0.9099(4) 0.2265(3)
N1 N 0.2899(7) 1.0057(6) 0.2182(4)
C1 C 0.8787(9) 0.6828(6) 0.4017(4)
C2 C 0.7092(9) 0.5978(7) 0.4049(5)
H1 H 0.5733 0.6071 0.4438
C3 C 0.7425(9) 0.5000(6) 0.3504(4)
H2 H 0.6296 0.4432 0.3518
C4 C 0.9464(10) 0.4872(6) 0.2935(4)
C5 C 1.1179(9) 0.5689(7) 0.2917(5)
H3 H 1.2543 0.5585 0.2534
C6 C 1.0840(9) 0.6659(7) 0.3472(5)
H4 H 1.1990 0.7199 0.3481
C7 C 0.7846(9) 0.9822(6) 0.3607(4)
H5 H 0.7519 1.0608 0.3903
H6 H 0.9212 0.9999 0.3142
C8 C 0.5994(8) 0.9849(6) 0.2973(4)
C9 C 0.3871(9) 1.0416(7) 0.2920(5)
H7 H 0.3150 1.0973 0.3324
C10 C 0.4471(8) 0.9276(6) 0.1826(4)
C11 C 0.4363(8) 0.8509(6) 0.1071(4)
C12 C 0.2390(9) 0.8670(7) 0.0582(4)
H8 H 0.1163 0.9264 0.0734
C13 C 0.2275(9) 0.7948(7) -0.0121(4)
H9 H 0.0973 0.8061 -0.0450
C14 C 0.4098(10) 0.7050(7) -0.0342(5)
H10 H 0.4022 0.6577 -0.0828
C15 C 0.6022(9) 0.6856(7) 0.0158(5)
H11 H 0.7227 0.6237 0.0021
C16 C 0.6152(9) 0.7586(6) 0.0863(4)
H12 H 0.7449 0.7456 0.1198
loop_
_geom_bond_atom_site_label_1
_geom_bond_atom_site_label_2
_geom_bond_site_symmetry_1
_geom_bond_site_symmetry_2
Br1 C4 1_555 1_555
S1 O1 1_555 1_555
O2 S1 1_555 1_555
O3 C8 1_555 1_555
N1 C9 1_555 1_555
C1 S1 1_555 1_555
C2 C1 1_555 1_555
H1 C2 1_555 1_555
C3 C2 1_555 1_555
H2 C3 1_555 1_555
C4 C3 1_555 1_555
C5 C4 1_555 1_555
H3 C5 1_555 1_555
C6 C1 1_555 1_555
H4 C6 1_555 1_555
C7 S1 1_555 1_555
H5 C7 1_555 1_555
H6 C7 1_555 1_555
C8 C7 1_555 1_555
C9 C8 1_555 1_555
H7 C9 1_555 1_555
C10 O3 1_555 1_555
C11 C10 1_555 1_555
C12 C11 1_555 1_555
H8 C12 1_555 1_555
C13 C12 1_555 1_555
H9 C13 1_555 1_555
C14 C13 1_555 1_555
H10 C14 1_555 1_555
C15 C14 1_555 1_555
H11 C15 1_555 1_555
C16 C11 1_555 1_555
H12 C16 1_555 1_555
N1 C10 1_555 1_555
C5 C6 1_555 1_555
C15 C16 1_555 1_555

#END
