
#######################################################################
#
#                 Cambridge Crystallographic Data Centre
#                                CCDC 
#
#######################################################################
#
# If this CIF has been generated from an entry in the Cambridge 
# Structural Database, then it will include bibliographic, chemical, 
# crystal, experimental, refinement or atomic coordinate data resulting 
# from the CCDC's data processing and validation procedures.
#
#######################################################################

data_EVEVUY
_chemical_formula_moiety         'C22 H20 N2 O7 S1,C6 H6'
_chemical_name_systematic        
'Methyl (2S,5R)-5-(2-hydroxynaphthalen-1-yl)-1-((4-nitrophenyl)sulfonyl)pyrrolidine-2-carboxylate benzene solvate'
_symmetry_cell_setting           orthorhombic
_symmetry_space_group_name_H-M   'P 21 21 21'
_symmetry_Int_Tables_number      19
_space_group_name_Hall           'P 2ac 2ab'
loop_
_symmetry_equiv_pos_site_id
_symmetry_equiv_pos_as_xyz
1 x,y,z
2 1/2-x,-y,1/2+z
3 -x,1/2+y,1/2-z
4 1/2+x,1/2-y,-z
_cell_length_a                   6.1126(9)
_cell_length_b                   11.1682(16)
_cell_length_c                   37.608(5)
_cell_angle_alpha                90
_cell_angle_beta                 90
_cell_angle_gamma                90
_cell_volume                     2567.38
_exptl_crystal_colour            yellow
_exptl_crystal_description       prism
_cell_formula_units_Z            4
_exptl_crystal_preparation       
'The data crystal was mounted using oil (Parantone-N, Exxon) to a  0.3 mm cryo-loop (Hampton Research) with the (1 1 1) scattering  planes roughly normal to the spindle axis.'
loop_
_atom_site_label
_atom_site_type_symbol
_atom_site_fract_x
_atom_site_fract_y
_atom_site_fract_z
S1 S 0.37586(6) 0.94573(4) 0.886243(11)
O1 O 0.2855(2) 0.87227(12) 0.76998(3)
O2 O 0.4419(2) 1.04147(13) 0.78943(3)
O3 O 0.48884(19) 1.03287(11) 0.90701(3)
O4 O 0.4939(2) 0.85156(12) 0.86883(3)
O5 O -0.4822(2) 0.82978(13) 0.98674(4)
O6 O -0.4488(3) 0.65731(13) 0.96149(4)
O7 O 0.4487(2) 1.23932(13) 0.83466(4)
H1 H 0.413(4) 1.167(2) 0.8289(6)
N1 N 0.2409(2) 1.01713(12) 0.85497(3)
N2 N -0.3867(3) 0.75983(14) 0.96726(4)
C1 C 0.0731(3) 1.11088(15) 0.86481(4)
H2 H -0.023(3) 1.0728(16) 0.8817(4)
C2 C -0.0483(3) 1.12517(17) 0.82959(4)
H3 H -0.1949 1.1608 0.8333
H4 H 0.0354 1.1758 0.8128
C3 C -0.0657(3) 0.99752(17) 0.81613(5)
H5 H -0.0959 0.9957 0.7903
H6 H -0.1826 0.9533 0.8288
C4 C 0.1608(2) 0.94446(16) 0.82447(4)
H7 H 0.1482 0.8582 0.8313
C5 C 0.3152(3) 0.95969(16) 0.79320(4)
C6 C 0.4110(4) 0.8776(2) 0.73718(5)
H8 H 0.3907 0.8030 0.7238
H9 H 0.5664 0.8879 0.7428
H10 H 0.3605 0.9453 0.7228
C7 C 0.1700(3) 0.88186(15) 0.91338(4)
C8 C 0.0783(3) 0.95223(15) 0.93994(4)
H11 H 0.1409 1.0277 0.9457
C9 C -0.1044(3) 0.91196(14) 0.95801(4)
H12 H -0.1714 0.9594 0.9759
C10 C -0.1865(3) 0.80070(15) 0.94924(4)
C11 C -0.0922(3) 0.72749(15) 0.92404(4)
H13 H -0.1495 0.6499 0.9195
C12 C 0.0876(3) 0.76924(15) 0.90546(4)
H14 H 0.1538 0.7215 0.8875
C13 C 0.1691(3) 1.22381(15) 0.88042(4)
C14 C 0.3491(3) 1.27818(16) 0.86501(5)
C15 C 0.4430(3) 1.38201(17) 0.87941(6)
H15 H 0.5673 1.4169 0.8683
C16 C 0.3582(3) 1.43264(18) 0.90889(6)
H16 H 0.4256 1.5019 0.9186
C17 C 0.1698(3) 1.38415(17) 0.92559(5)
C18 C 0.0786(4) 1.4387(2) 0.95582(6)
H17 H 0.1450 1.5087 0.9653
C19 C -0.1013(5) 1.3935(2) 0.97162(6)
H18 H -0.1590 1.4309 0.9923
C20 C -0.2043(4) 1.2905(2) 0.95750(5)
H19 H -0.3319 1.2594 0.9686
C21 C -0.1210(3) 1.23507(17) 0.92784(5)
H20 H -0.1934 1.1670 0.9183
C22 C 0.0725(3) 1.27847(15) 0.91122(4)
C23 C 0.9105(4) 0.67416(19) 0.77704(6)
H21 H 0.8948 0.7189 0.7557
C24 C 0.7532(4) 0.68180(18) 0.80320(6)
H22 H 0.6296 0.7322 0.8000
C25 C 0.7754(4) 0.61660(17) 0.83388(5)
H23 H 0.6681 0.6229 0.8521
C26 C 0.9523(4) 0.54226(19) 0.83841(5)
H24 H 0.9654 0.4961 0.8595
C27 C 1.1110(3) 0.53445(19) 0.81237(5)
H25 H 1.2334 0.4831 0.8155
C28 C 1.0910(4) 0.60129(19) 0.78184(6)
H26 H 1.2012 0.5974 0.7641
loop_
_geom_bond_atom_site_label_1
_geom_bond_atom_site_label_2
_geom_bond_site_symmetry_1
_geom_bond_site_symmetry_2
S1 O3 1_555 1_555
O1 C5 1_555 1_555
O2 C5 1_555 1_555
O4 S1 1_555 1_555
O5 N2 1_555 1_555
O6 N2 1_555 1_555
O7 H1 1_555 1_555
N1 S1 1_555 1_555
N2 C10 1_555 1_555
C1 N1 1_555 1_555
H2 C1 1_555 1_555
C2 C1 1_555 1_555
H3 C2 1_555 1_555
H4 C2 1_555 1_555
C3 C2 1_555 1_555
H5 C3 1_555 1_555
H6 C3 1_555 1_555
C4 N1 1_555 1_555
H7 C4 1_555 1_555
C5 C4 1_555 1_555
C6 O1 1_555 1_555
H8 C6 1_555 1_555
H9 C6 1_555 1_555
H10 C6 1_555 1_555
C7 S1 1_555 1_555
C8 C7 1_555 1_555
H11 C8 1_555 1_555
C9 C8 1_555 1_555
H12 C9 1_555 1_555
C10 C9 1_555 1_555
C11 C10 1_555 1_555
H13 C11 1_555 1_555
C12 C7 1_555 1_555
H14 C12 1_555 1_555
C13 C1 1_555 1_555
C14 O7 1_555 1_555
C15 C14 1_555 1_555
H15 C15 1_555 1_555
C16 C15 1_555 1_555
H16 C16 1_555 1_555
C17 C16 1_555 1_555
C18 C17 1_555 1_555
H17 C18 1_555 1_555
C19 C18 1_555 1_555
H18 C19 1_555 1_555
C20 C19 1_555 1_555
H19 C20 1_555 1_555
C21 C20 1_555 1_555
H20 C21 1_555 1_555
C22 C13 1_555 1_555
C23 H21 1_555 1_555
C24 C23 1_555 1_555
H22 C24 1_555 1_555
C25 C24 1_555 1_555
H23 C25 1_555 1_555
C26 C25 1_555 1_555
H24 C26 1_555 1_555
C27 C26 1_555 1_555
H25 C27 1_555 1_555
C28 C23 1_555 1_555
H26 C28 1_555 1_555
C3 C4 1_555 1_555
C11 C12 1_555 1_555
C13 C14 1_555 1_555
C17 C22 1_555 1_555
C21 C22 1_555 1_555
C27 C28 1_555 1_555

#END
