
#######################################################################
#
#                 Cambridge Crystallographic Data Centre
#                                CCDC 
#
#######################################################################
#
# If this CIF has been generated from an entry in the Cambridge 
# Structural Database, then it will include bibliographic, chemical, 
# crystal, experimental, refinement or atomic coordinate data resulting 
# from the CCDC's data processing and validation procedures.
#
#######################################################################

data_EVEZEL
_chemical_formula_moiety         'C21 H26 N2 O1'
_chemical_name_systematic        2,2-Diphenyl-4-(piperidin-1-yl)butanamide
_symmetry_cell_setting           orthorhombic
_symmetry_space_group_name_H-M   'P c a 21'
_symmetry_Int_Tables_number      29
_space_group_name_Hall           'P 2c -2ac'
loop_
_symmetry_equiv_pos_site_id
_symmetry_equiv_pos_as_xyz
1 x,y,z
2 -x,-y,1/2+z
3 1/2+x,-y,z
4 1/2-x,y,1/2+z
_cell_length_a                   18.1070(12)
_cell_length_b                   10.3025(9)
_cell_length_c                   9.6150(6)
_cell_angle_alpha                90
_cell_angle_beta                 90
_cell_angle_gamma                90
_cell_volume                     1793.65
_exptl_crystal_colour            colorless
_exptl_crystal_description       block
_cell_formula_units_Z            4
loop_
_atom_site_label
_atom_site_type_symbol
_atom_site_fract_x
_atom_site_fract_y
_atom_site_fract_z
O1 O 0.68400(5) 0.34583(11) 0.96707(9)
N1 N 0.75885(6) 0.33139(12) 0.78130(11)
H1 H 0.7944(8) 0.2941(16) 0.8267(16)
H2 H 0.7651(9) 0.3416(16) 0.6956(14)
N2 N 0.62349(5) 0.19366(9) 0.43291(9)
C1 C 0.69459(6) 0.36080(11) 0.84208(11)
C2 C 0.63630(5) 0.42567(10) 0.74607(9)
C3 C 0.64319(6) 0.37719(10) 0.59391(10)
H3 H 0.6058 0.4219 0.5361
H4 H 0.6925 0.4011 0.5577
C4 C 0.63287(7) 0.23102(11) 0.57931(11)
H5 H 0.6764 0.1858 0.6183
H6 H 0.5889 0.2036 0.6330
C5 C 0.54694(6) 0.21203(12) 0.38868(13)
H7 H 0.5320 0.3030 0.4065
H8 H 0.5144 0.1547 0.4440
C6 C 0.53738(9) 0.18176(15) 0.23557(15)
H9 H 0.5671 0.2433 0.1797
H10 H 0.4849 0.1928 0.2094
C7 C 0.56157(11) 0.04385(16) 0.20378(18)
H11 H 0.5270 -0.0182 0.2477
H12 H 0.5606 0.0292 0.1020
C8 C 0.63853(10) 0.02107(16) 0.25826(18)
H13 H 0.6740 0.0726 0.2028
H14 H 0.6513 -0.0718 0.2471
C9 C 0.64546(8) 0.05852(13) 0.41083(16)
H15 H 0.6138 0.0009 0.4677
H16 H 0.6972 0.0465 0.4414
C10 C 0.55575(5) 0.40102(11) 0.78870(11)
C11 C 0.53249(7) 0.30304(12) 0.87673(13)
H17 H 0.5678 0.2506 0.9235
C12 C 0.45683(8) 0.28120(16) 0.89694(16)
H18 H 0.4414 0.2148 0.9589
C13 C 0.40475(7) 0.35405(17) 0.82879(16)
H19 H 0.3537 0.3367 0.8417
C14 C 0.42691(7) 0.45219(15) 0.74177(16)
H20 H 0.3912 0.5038 0.6951
C15 C 0.50184(6) 0.47598(12) 0.72201(13)
H21 H 0.5167 0.5445 0.6621
C16 C 0.65362(5) 0.57150(11) 0.76043(11)
C17 C 0.63429(7) 0.63353(13) 0.88404(14)
H22 H 0.6108 0.5856 0.9559
C18 C 0.64896(8) 0.76405(15) 0.90339(19)
H23 H 0.6355 0.8050 0.9882
C19 C 0.68294(9) 0.83480(15) 0.8005(2)
H24 H 0.6922 0.9248 0.8133
C20 C 0.70346(9) 0.77430(15) 0.6784(2)
H25 H 0.7272 0.8228 0.6073
C21 C 0.68962(7) 0.64287(13) 0.65859(15)
H26 H 0.7049 0.6018 0.5749
loop_
_geom_bond_atom_site_label_1
_geom_bond_atom_site_label_2
_geom_bond_site_symmetry_1
_geom_bond_site_symmetry_2
O1 C1 1_555 1_555
N1 H1 1_555 1_555
H2 N1 1_555 1_555
N2 C4 1_555 1_555
C1 N1 1_555 1_555
C2 C1 1_555 1_555
C3 C2 1_555 1_555
H3 C3 1_555 1_555
H4 C3 1_555 1_555
C4 C3 1_555 1_555
H5 C4 1_555 1_555
H6 C4 1_555 1_555
C5 N2 1_555 1_555
H7 C5 1_555 1_555
H8 C5 1_555 1_555
C6 C5 1_555 1_555
H9 C6 1_555 1_555
H10 C6 1_555 1_555
C7 C6 1_555 1_555
H11 C7 1_555 1_555
H12 C7 1_555 1_555
C8 C7 1_555 1_555
H13 C8 1_555 1_555
H14 C8 1_555 1_555
C9 N2 1_555 1_555
H15 C9 1_555 1_555
H16 C9 1_555 1_555
C10 C2 1_555 1_555
C11 C10 1_555 1_555
H17 C11 1_555 1_555
C12 C11 1_555 1_555
H18 C12 1_555 1_555
C13 C12 1_555 1_555
H19 C13 1_555 1_555
C14 C13 1_555 1_555
H20 C14 1_555 1_555
C15 C10 1_555 1_555
H21 C15 1_555 1_555
C16 C2 1_555 1_555
C17 C16 1_555 1_555
H22 C17 1_555 1_555
C18 C17 1_555 1_555
H23 C18 1_555 1_555
C19 C18 1_555 1_555
H24 C19 1_555 1_555
C20 C19 1_555 1_555
H25 C20 1_555 1_555
C21 C16 1_555 1_555
H26 C21 1_555 1_555
C8 C9 1_555 1_555
C14 C15 1_555 1_555
C20 C21 1_555 1_555

#END
