
#######################################################################
#
#                 Cambridge Crystallographic Data Centre
#                                CCDC 
#
#######################################################################
#
# If this CIF has been generated from an entry in the Cambridge 
# Structural Database, then it will include bibliographic, chemical, 
# crystal, experimental, refinement or atomic coordinate data resulting 
# from the CCDC's data processing and validation procedures.
#
#######################################################################

data_EVIDIW
_chemical_formula_moiety         'C10 H14 O4 S1'
_chemical_name_systematic        
(4aSR,9aSR)-9a-Methyl-5,5-dioxo-1,2,4a,6,7,9a-hexahydro-8-oxa-5\l^6^-thiabenzo-1,4-cyclohepten-9-one
_symmetry_cell_setting           monoclinic
_symmetry_space_group_name_H-M   'P 21/c'
_symmetry_Int_Tables_number      14
_space_group_name_Hall           '-P 2ybc'
loop_
_symmetry_equiv_pos_site_id
_symmetry_equiv_pos_as_xyz
1 x,y,z
2 x,1/2-y,1/2+z
3 -x,-y,-z
4 -x,1/2+y,1/2-z
_cell_length_a                   10.9599(8)
_cell_length_b                   22.4386(16)
_cell_length_c                   9.1966(7)
_cell_angle_alpha                90
_cell_angle_beta                 113.6900(10)
_cell_angle_gamma                90
_cell_volume                     2071.09
_exptl_crystal_colour            colorless
_exptl_crystal_description       block
_cell_formula_units_Z            8
_exptl_crystal_recrystallization_method ethanol
loop_
_atom_site_label
_atom_site_type_symbol
_atom_site_fract_x
_atom_site_fract_y
_atom_site_fract_z
C1 C 0.93555(14) 0.14741(7) 0.49486(17)
H1 H 0.8987(19) 0.1837(9) 0.522(2)
H2 H 0.8610(19) 0.1185(9) 0.446(2)
O1 O 0.79491(10) 0.06710(5) 0.17016(12)
C2 C 1.04209(16) 0.11855(8) 0.64078(18)
H3 H 1.102(2) 0.1498(10) 0.704(2)
H4 H 1.001(2) 0.1017(9) 0.703(2)
O2 O 0.97912(12) 0.00677(5) 0.15568(13)
C3 C 1.11669(15) 0.07123(7) 0.59524(18)
H5 H 1.168(2) 0.0439(9) 0.677(2)
O3 O 0.76793(10) 0.20463(5) 0.21895(13)
C4 C 1.11592(14) 0.06593(7) 0.45123(18)
H6 H 1.1629(19) 0.0347(9) 0.429(2)
C5 C 1.04464(13) 0.10805(6) 0.31617(15)
H7 H 1.1041(18) 0.1202(8) 0.269(2)
S1 S 0.92202(3) 0.064467(14) 0.15659(4)
C6 C 0.90426(14) 0.10181(6) -0.02254(16)
H8 H 0.9925(19) 0.1058(9) -0.019(2)
H9 H 0.8525(18) 0.0749(9) -0.104(2)
C7 C 0.83455(15) 0.16137(6) -0.03976(17)
H10 H 0.8323(19) 0.1840(9) -0.133(2)
H11 H 0.7381(19) 0.1569(9) -0.051(2)
O4 O 0.91088(10) 0.19662(4) 0.09941(12)
C8 C 0.87542(14) 0.19003(6) 0.22489(16)
C9 C 0.98783(13) 0.16361(6) 0.36847(16)
C10 C 1.10009(15) 0.21055(7) 0.43004(19)
H12 H 1.121(2) 0.2253(10) 0.341(3)
H13 H 1.177(2) 0.1920(10) 0.508(3)
H14 H 1.074(2) 0.2448(10) 0.478(3)
C11 C 0.32610(13) 0.05026(6) 0.19669(17)
H15 H 0.3131(18) 0.0620(8) 0.293(2)
H16 H 0.2457(18) 0.0469(8) 0.112(2)
O5 O 0.42213(11) 0.14709(4) 0.47853(13)
C12 C 0.39663(13) -0.00994(6) 0.22937(17)
H17 H 0.3574(18) -0.0363(9) 0.280(2)
H18 H 0.3879(18) -0.0302(9) 0.130(2)
O6 O 0.66913(11) 0.14200(5) 0.59954(12)
C13 C 0.54107(14) -0.00461(6) 0.33648(17)
H19 H 0.5851(18) -0.0403(9) 0.383(2)
O7 O 0.21756(10) 0.16328(5) 0.10992(14)
C14 C 0.60739(13) 0.04676(6) 0.37097(17)
H20 H 0.6988(18) 0.0489(8) 0.442(2)
C15 C 0.54725(12) 0.10599(6) 0.30114(15)
H21 H 0.6094(17) 0.1270(8) 0.264(2)
S2 S 0.54750(3) 0.153594(14) 0.46231(4)
C16 C 0.55733(14) 0.22842(6) 0.40071(17)
H22 H 0.5708(18) 0.2511(9) 0.489(2)
H23 H 0.6314(19) 0.2304(9) 0.379(2)
C17 C 0.43262(15) 0.24740(6) 0.26064(17)
H24 H 0.3562(19) 0.2476(9) 0.285(2)
H25 H 0.4461(19) 0.2857(9) 0.223(2)
O8 O 0.41163(10) 0.20533(4) 0.13295(12)
C18 C 0.33245(13) 0.15749(6) 0.13246(16)
C19 C 0.40846(12) 0.09908(6) 0.16131(15)
C20 C 0.43230(16) 0.08504(7) 0.01056(17)
H26 H 0.352(2) 0.0751(10) -0.074(3)
H27 H 0.490(2) 0.0508(10) 0.032(3)
H28 H 0.473(2) 0.1192(10) -0.019(3)
loop_
_geom_bond_atom_site_label_1
_geom_bond_atom_site_label_2
_geom_bond_site_symmetry_1
_geom_bond_site_symmetry_2
C1 H1 1_555 1_555
H2 C1 1_555 1_555
O1 S1 1_555 1_555
C2 C1 1_555 1_555
H3 C2 1_555 1_555
H4 C2 1_555 1_555
O2 S1 1_555 1_555
C3 C2 1_555 1_555
H5 C3 1_555 1_555
O3 C8 1_555 1_555
C4 C3 1_555 1_555
H6 C4 1_555 1_555
C5 C4 1_555 1_555
H7 C5 1_555 1_555
S1 C5 1_555 1_555
C6 S1 1_555 1_555
H8 C6 1_555 1_555
H9 C6 1_555 1_555
C7 C6 1_555 1_555
H10 C7 1_555 1_555
H11 C7 1_555 1_555
O4 C7 1_555 1_555
C8 O4 1_555 1_555
C9 C1 1_555 1_555
C10 C9 1_555 1_555
H12 C10 1_555 1_555
H13 C10 1_555 1_555
H14 C10 1_555 1_555
C11 H15 1_555 1_555
H16 C11 1_555 1_555
O5 S2 1_555 1_555
C12 C11 1_555 1_555
H17 C12 1_555 1_555
H18 C12 1_555 1_555
O6 S2 1_555 1_555
C13 C12 1_555 1_555
H19 C13 1_555 1_555
O7 C18 1_555 1_555
C14 C13 1_555 1_555
H20 C14 1_555 1_555
C15 C14 1_555 1_555
H21 C15 1_555 1_555
S2 C15 1_555 1_555
C16 S2 1_555 1_555
H22 C16 1_555 1_555
H23 C16 1_555 1_555
C17 C16 1_555 1_555
H24 C17 1_555 1_555
H25 C17 1_555 1_555
O8 C17 1_555 1_555
C18 O8 1_555 1_555
C19 C11 1_555 1_555
C20 C19 1_555 1_555
H26 C20 1_555 1_555
H27 C20 1_555 1_555
H28 C20 1_555 1_555
C5 C9 1_555 1_555
C8 C9 1_555 1_555
C15 C19 1_555 1_555
C18 C19 1_555 1_555

#END
