
#######################################################################
#
#                 Cambridge Crystallographic Data Centre
#                                CCDC 
#
#######################################################################
#
# If this CIF has been generated from an entry in the Cambridge 
# Structural Database, then it will include bibliographic, chemical, 
# crystal, experimental, refinement or atomic coordinate data resulting 
# from the CCDC's data processing and validation procedures.
#
#######################################################################

data_EVIHIB
_chemical_formula_moiety         'C30 H38 O4 Si2'
_chemical_name_systematic        
'Diethyl 4,5-diphenyl-3,6-bis(trimethylsilyl)benzene-1,2-dicarboxylate'
_symmetry_cell_setting           triclinic
_symmetry_space_group_name_H-M   'P -1'
_symmetry_Int_Tables_number      2
_space_group_name_Hall           '-P 1'
loop_
_symmetry_equiv_pos_site_id
_symmetry_equiv_pos_as_xyz
1 x,y,z
2 -x,-y,-z
_cell_length_a                   11.534(2)
_cell_length_b                   12.389(3)
_cell_length_c                   12.853(3)
_cell_angle_alpha                63.40(3)
_cell_angle_beta                 67.63(3)
_cell_angle_gamma                65.99(3)
_cell_volume                     1455.21
_exptl_crystal_colour            colorless
_exptl_crystal_description       block
_cell_formula_units_Z            2
loop_
_atom_site_label
_atom_site_type_symbol
_atom_site_fract_x
_atom_site_fract_y
_atom_site_fract_z
Si1 Si 0.73346(5) 0.73464(5) 1.08693(5)
Si2 Si 0.27477(5) 0.80890(5) 0.83890(5)
O1 O 0.77590(13) 0.91083(15) 0.81335(14)
O2 O 0.81690(12) 0.76114(14) 0.74003(13)
O3 O 0.59560(14) 0.92819(15) 0.63566(13)
O4 O 0.56124(12) 0.74465(14) 0.67925(11)
C1 C 0.59901(16) 0.76175(17) 1.01700(17)
C2 C 0.47780(16) 0.73924(17) 1.08678(16)
C3 C 0.38661(16) 0.74403(17) 1.03477(16)
C4 C 0.40993(16) 0.77728(17) 0.91040(16)
C5 C 0.53145(17) 0.79973(18) 0.84046(16)
C6 C 0.62236(16) 0.79331(17) 0.89246(17)
C7 C 0.74488(18) 0.8302(2) 0.81181(18)
C8 C 0.9196(6) 0.8173(6) 0.6438(7)
H1 H 0.9635 0.8450 0.6763
H2 H 0.8814 0.8906 0.5795
C9 C 1.0145(4) 0.7134(5) 0.5967(4)
H3 H 1.0914 0.7403 0.5398
H4 H 0.9722 0.6946 0.5560
H5 H 1.0417 0.6378 0.6635
C10 C 0.89613(18) 0.6606(2) 1.0013(2)
H6 H 0.9650 0.6464 1.0368
H7 H 0.9123 0.7168 0.9175
H8 H 0.8962 0.5799 1.0047
C11 C 0.7302(2) 0.8833(2) 1.0921(2)
H9 H 0.7997 0.8663 1.1282
H10 H 0.6452 0.9175 1.1403
H11 H 0.7441 0.9446 1.0105
C12 C 0.72081(19) 0.6150(2) 1.24164(19)
H12 H 0.7912 0.6043 1.2734
H13 H 0.7286 0.5344 1.2391
H14 H 0.6360 0.6435 1.2936
C13 C 0.43822(16) 0.71655(18) 1.21850(16)
C14 C 0.41489(17) 0.8136(2) 1.25575(18)
H15 H 0.4273 0.8919 1.1977
C15 C 0.3737(2) 0.7989(2) 1.3765(2)
H16 H 0.3586 0.8665 1.4008
C16 C 0.3547(2) 0.6856(2) 1.4612(2)
H17 H 0.3266 0.6748 1.5441
C17 C 0.37663(19) 0.5881(2) 1.42545(19)
H18 H 0.3634 0.5102 1.4839
C18 C 0.41791(17) 0.60276(19) 1.30465(17)
H19 H 0.4323 0.5352 1.2807
C19 C 0.26591(16) 0.70700(19) 1.11783(16)
C20 C 0.16765(17) 0.7812(2) 1.18300(17)
H20 H 0.1745 0.8595 1.1726
C21 C 0.05982(19) 0.7405(2) 1.26302(19)
H21 H -0.0072 0.7912 1.3070
C22 C 0.0498(2) 0.6273(3) 1.2788(2)
H22 H -0.0237 0.5996 1.3342
C23 C 0.1457(2) 0.5537(2) 1.21452(19)
H23 H 0.1383 0.4756 1.2250
C24 C 0.25341(18) 0.5944(2) 1.13433(18)
H24 H 0.3196 0.5434 1.0901
C25 C 0.10646(17) 0.8685(2) 0.92639(18)
H25 H 0.0419 0.8829 0.8859
H26 H 0.0982 0.9477 0.9320
H27 H 0.0910 0.8060 1.0072
C26 C 0.2847(2) 0.6650(2) 0.8199(2)
H28 H 0.2147 0.6837 0.7835
H29 H 0.2747 0.5979 0.8984
H30 H 0.3697 0.6375 0.7677
C27 C 0.28319(19) 0.9412(2) 0.69133(18)
H31 H 0.2133 0.9556 0.6570
H32 H 0.3683 0.9194 0.6365
H33 H 0.2725 1.0179 0.7032
C28 C 0.56678(17) 0.8339(2) 0.70744(18)
C29 C 0.5882(2) 0.7649(2) 0.55243(18)
H34 H 0.5612 0.8563 0.5071
H35 H 0.5362 0.7248 0.5424
C30 C 0.7289(2) 0.7116(2) 0.5031(2)
H36 H 0.7442 0.7265 0.4180
H37 H 0.7554 0.6207 0.5469
H38 H 0.7804 0.7521 0.5118
C31? C 0.9492(8) 0.7716(10) 0.6688(10)
C32? C 0.9316(6) 0.8881(7) 0.5594(6)
H39? H 1.0016 0.6964 0.6453
H40? H 0.9947 0.7790 0.7159
H41? H 1.0171 0.9018 0.5115
H42? H 0.8752 0.9609 0.5841
H43? H 0.8912 0.8774 0.5113
loop_
_geom_bond_atom_site_label_1
_geom_bond_atom_site_label_2
_geom_bond_site_symmetry_1
_geom_bond_site_symmetry_2
Si1 C1 1_555 1_555
Si2 C4 1_555 1_555
O1 C7 1_555 1_555
O2 C7 1_555 1_555
O3 C28 1_555 1_555
O4 C28 1_555 1_555
C1 C2 1_555 1_555
C2 C3 1_555 1_555
C3 C4 1_555 1_555
C4 C5 1_555 1_555
C5 C6 1_555 1_555
C6 C1 1_555 1_555
C7 C6 1_555 1_555
C8 O2 1_555 1_555
H1 C8 1_555 1_555
H2 C8 1_555 1_555
C9 C8 1_555 1_555
H3 C9 1_555 1_555
H4 C9 1_555 1_555
H5 C9 1_555 1_555
C10 Si1 1_555 1_555
H6 C10 1_555 1_555
H7 C10 1_555 1_555
H8 C10 1_555 1_555
C11 Si1 1_555 1_555
H9 C11 1_555 1_555
H10 C11 1_555 1_555
H11 C11 1_555 1_555
C12 Si1 1_555 1_555
H12 C12 1_555 1_555
H13 C12 1_555 1_555
H14 C12 1_555 1_555
C13 C2 1_555 1_555
C14 C13 1_555 1_555
H15 C14 1_555 1_555
C15 C14 1_555 1_555
H16 C15 1_555 1_555
C16 C15 1_555 1_555
H17 C16 1_555 1_555
C17 C16 1_555 1_555
H18 C17 1_555 1_555
C18 C13 1_555 1_555
H19 C18 1_555 1_555
C19 C3 1_555 1_555
C20 C19 1_555 1_555
H20 C20 1_555 1_555
C21 C20 1_555 1_555
H21 C21 1_555 1_555
C22 C21 1_555 1_555
H22 C22 1_555 1_555
C23 C22 1_555 1_555
H23 C23 1_555 1_555
C24 C19 1_555 1_555
H24 C24 1_555 1_555
C25 Si2 1_555 1_555
H25 C25 1_555 1_555
H26 C25 1_555 1_555
H27 C25 1_555 1_555
C26 Si2 1_555 1_555
H28 C26 1_555 1_555
H29 C26 1_555 1_555
H30 C26 1_555 1_555
C27 Si2 1_555 1_555
H31 C27 1_555 1_555
H32 C27 1_555 1_555
H33 C27 1_555 1_555
C28 C5 1_555 1_555
C29 O4 1_555 1_555
H34 C29 1_555 1_555
H35 C29 1_555 1_555
C30 C29 1_555 1_555
H36 C30 1_555 1_555
H37 C30 1_555 1_555
H38 C30 1_555 1_555
C17 C18 1_555 1_555
C23 C24 1_555 1_555

#END
