
#######################################################################
#
#                 Cambridge Crystallographic Data Centre
#                                CCDC 
#
#######################################################################
#
# If this CIF has been generated from an entry in the Cambridge 
# Structural Database, then it will include bibliographic, chemical, 
# crystal, experimental, refinement or atomic coordinate data resulting 
# from the CCDC's data processing and validation procedures.
#
#######################################################################

data_EVIHUN
_chemical_formula_moiety         'C18 H19 N3 O5'
_chemical_name_systematic        
'Benzyl (3-hydroxy-1-(2-(2-hydroxybenzylidene)hydrazino)-1-oxopropan-2-yl)carbamate'
_symmetry_cell_setting           monoclinic
_symmetry_space_group_name_H-M   'P 21'
_symmetry_Int_Tables_number      4
_space_group_name_Hall           'P 2yb'
loop_
_symmetry_equiv_pos_site_id
_symmetry_equiv_pos_as_xyz
1 x,y,z
2 -x,1/2+y,-z
_cell_length_a                   5.0338(5)
_cell_length_b                   31.357(3)
_cell_length_c                   5.5882(6)
_cell_angle_alpha                90
_cell_angle_beta                 97.890(3)
_cell_angle_gamma                90
_cell_volume                     873.719
_exptl_crystal_colour            colorless
_exptl_crystal_description       lath
_cell_formula_units_Z            2
loop_
_atom_site_label
_atom_site_type_symbol
_atom_site_fract_x
_atom_site_fract_y
_atom_site_fract_z
O1 O 0.7558(5) 0.24963(8) 0.4299(5)
H1 H 0.629(9) 0.2299(15) 0.440(9)
O2 O 0.2652(5) 0.16299(9) 0.6800(5)
O3 O -0.2389(5) 0.15356(10) 0.8847(5)
H2 H -0.401(10) 0.1591(16) 0.838(8)
O4 O -0.5493(5) 0.07490(8) 0.2844(5)
O5 O -0.2450(4) 0.03271(7) 0.1329(4)
N1 N 0.3164(6) 0.20615(9) 0.2693(6)
N2 N 0.1183(6) 0.17580(9) 0.2843(6)
H3 H -0.011(8) 0.1717(13) 0.159(7)
N3 N -0.1010(6) 0.08812(9) 0.3608(5)
H4 H 0.069(7) 0.0788(11) 0.327(6)
C1 C 0.4747(7) 0.26400(11) 0.0505(7)
C2 C 0.6973(7) 0.27309(12) 0.2247(8)
C3 C 0.8652(8) 0.30728(12) 0.1904(8)
H5 H 1.0135 0.3136 0.3093
C4 C 0.8165(9) 0.33195(13) -0.0161(8)
H6 H 0.9325 0.3551 -0.0386
C5 C 0.5994(9) 0.32322(14) -0.1910(8)
H7 H 0.5663 0.3403 -0.3322
C6 C 0.4311(8) 0.28924(13) -0.1577(8)
H8 H 0.2841 0.2830 -0.2783
C7 C 0.2850(7) 0.22982(12) 0.0788(8)
H9 H 0.1376 0.2250 -0.0437
C8 C 0.1053(6) 0.15684(11) 0.4959(6)
C9 C -0.1351(7) 0.12663(11) 0.4999(6)
H10 H -0.2995 0.1417 0.4215
C10 C -0.1744(7) 0.11639(12) 0.7568(7)
H11 H -0.3207 0.0953 0.7555
H12 H -0.0082 0.1035 0.8416
C11 C -0.3170(7) 0.06639(11) 0.2608(6)
C12 C -0.4669(8) 0.00648(12) 0.0233(8)
H13 H -0.6019 0.0244 -0.0757
H14 H -0.5545 -0.0076 0.1503
C13 C -0.3575(7) -0.02651(11) -0.1330(7)
C14 C -0.1860(8) -0.01563(12) -0.2975(7)
H15 H -0.1289 0.0131 -0.3075
C15 C -0.0973(9) -0.04597(13) -0.4467(7)
H16 H 0.0198 -0.0380 -0.5587
C16 C -0.1781(8) -0.08796(12) -0.4336(7)
H17 H -0.1178 -0.1089 -0.5368
C17 C -0.3479(8) -0.09931(13) -0.2687(7)
H18 H -0.4039 -0.1281 -0.2588
C18 C -0.4360(8) -0.06899(12) -0.1191(7)
H19 H -0.5510 -0.0771 -0.0057
loop_
_geom_bond_atom_site_label_1
_geom_bond_atom_site_label_2
_geom_bond_site_symmetry_1
_geom_bond_site_symmetry_2
O1 H1 1_555 1_555
O2 C8 1_555 1_555
O3 H2 1_555 1_555
O4 C11 1_555 1_555
O5 C11 1_555 1_555
N1 N2 1_555 1_555
N2 H3 1_555 1_555
N3 H4 1_555 1_555
C1 C2 1_555 1_555
C2 O1 1_555 1_555
C3 C2 1_555 1_555
H5 C3 1_555 1_555
C4 C3 1_555 1_555
H6 C4 1_555 1_555
C5 C4 1_555 1_555
H7 C5 1_555 1_555
C6 C1 1_555 1_555
H8 C6 1_555 1_555
C7 N1 1_555 1_555
H9 C7 1_555 1_555
C8 N2 1_555 1_555
C9 N3 1_555 1_555
H10 C9 1_555 1_555
C10 O3 1_555 1_555
H11 C10 1_555 1_555
H12 C10 1_555 1_555
C11 N3 1_555 1_555
C12 O5 1_555 1_555
H13 C12 1_555 1_555
H14 C12 1_555 1_555
C13 C12 1_555 1_555
C14 C13 1_555 1_555
H15 C14 1_555 1_555
C15 C14 1_555 1_555
H16 C15 1_555 1_555
C16 C15 1_555 1_555
H17 C16 1_555 1_555
C17 C16 1_555 1_555
H18 C17 1_555 1_555
C18 C13 1_555 1_555
H19 C18 1_555 1_555
C1 C7 1_555 1_555
C5 C6 1_555 1_555
C8 C9 1_555 1_555
C9 C10 1_555 1_555
C17 C18 1_555 1_555

#END
