
#######################################################################
#
#                 Cambridge Crystallographic Data Centre
#                                CCDC 
#
#######################################################################
#
# If this CIF has been generated from an entry in the Cambridge 
# Structural Database, then it will include bibliographic, chemical, 
# crystal, experimental, refinement or atomic coordinate data resulting 
# from the CCDC's data processing and validation procedures.
#
#######################################################################

data_EVIHEW
_chemical_formula_moiety         'C9 H8 O5,H2 O1'
_chemical_name_systematic        '3-Carboxyphenoxyacetic acid monohydrate'
_symmetry_cell_setting           monoclinic
_symmetry_space_group_name_H-M   'P 21/n'
_symmetry_Int_Tables_number      14
_space_group_name_Hall           '-P 2yn'
loop_
_symmetry_equiv_pos_site_id
_symmetry_equiv_pos_as_xyz
1 x,y,z
2 1/2+x,1/2-y,1/2+z
3 -x,-y,-z
4 1/2-x,1/2+y,1/2-z
_cell_length_a                   8.728(2)
_cell_length_b                   4.8470(10)
_cell_length_c                   21.935(4)
_cell_angle_alpha                90
_cell_angle_beta                 97.22(3)
_cell_angle_gamma                90
_cell_volume                     920.594
_exptl_crystal_colour            colorless
_exptl_crystal_description       plate
_cell_formula_units_Z            4
loop_
_atom_site_label
_atom_site_type_symbol
_atom_site_fract_x
_atom_site_fract_y
_atom_site_fract_z
O1 O 0.6169(2) 0.5669(3) 0.12001(6)
O2 O 0.7714(2) 0.9306(3) 0.13044(5)
O3 O 0.7568(2) 0.9910(3) 0.01102(5)
O4 O 1.04680(10) 1.6457(3) -0.09513(5)
O5 O 0.9775(2) 1.5923(3) -0.19571(6)
C1 C 0.6935(2) 0.7679(4) 0.09922(8)
C2 C 0.6724(2) 0.7693(4) 0.03005(7)
C3 C 0.7544(2) 1.0394(4) -0.05081(7)
C4 C 0.6579(2) 0.9097(4) -0.09631(8)
C5 C 0.6627(2) 0.9830(4) -0.15686(8)
C6 C 0.7617(2) 1.1832(4) -0.17202(7)
C7 C 0.8592(2) 1.3125(3) -0.12620(7)
C8 C 0.8553(2) 1.2405(4) -0.06552(7)
C9 C 0.9658(2) 1.5287(4) -0.14309(7)
H1 H 0.7093 0.5974 0.0146
H2 H 0.5639 0.7896 0.0145
H3 H 0.5900 0.7739 -0.0864
H4 H 0.5979 0.8950 -0.1877
H5 H 0.7634 1.2321 -0.2129
H6 H 0.9206 1.3274 -0.0346
H7 H 1.102(2) 1.773(4) -0.1062(9)
H8 H 0.627(3) 0.565(5) 0.1594(7)
O6 O 0.6439(2) 0.5666(4) 0.23774(7)
H9 H 0.587(3) 0.651(5) 0.2600(10)
H10 H 0.684(3) 0.439(5) 0.2580(10)
loop_
_geom_bond_atom_site_label_1
_geom_bond_atom_site_label_2
_geom_bond_site_symmetry_1
_geom_bond_site_symmetry_2
O1 C1 1_555 1_555
O2 C1 1_555 1_555
O3 C2 1_555 1_555
O4 C9 1_555 1_555
O5 C9 1_555 1_555
O6 H9 1_555 1_555
C1 C2 1_555 1_555
C2 H1 1_555 1_555
C3 O3 1_555 1_555
C4 C3 1_555 1_555
C5 C4 1_555 1_555
C6 C5 1_555 1_555
C7 C6 1_555 1_555
C8 C3 1_555 1_555
C9 C7 1_555 1_555
H2 C2 1_555 1_555
H3 C4 1_555 1_555
H4 C5 1_555 1_555
H5 C6 1_555 1_555
H6 C8 1_555 1_555
H7 O4 1_555 1_555
H8 O1 1_555 1_555
H10 O6 1_555 1_555
C7 C8 1_555 1_555

#END
