
#######################################################################
#
#                 Cambridge Crystallographic Data Centre
#                                CCDC 
#
#######################################################################
#
# If this CIF has been generated from an entry in the Cambridge 
# Structural Database, then it will include bibliographic, chemical, 
# crystal, experimental, refinement or atomic coordinate data resulting 
# from the CCDC's data processing and validation procedures.
#
#######################################################################

data_EVIKEA
_chemical_formula_moiety         'C11 H14 Br1 N2 1+,N1 O3 1-'
_chemical_name_systematic        
'N-((5-Bromo-1H-indol-3-yl)methyl)-N,N-dimethylammonium nitrate'
_symmetry_cell_setting           orthorhombic
_symmetry_space_group_name_H-M   'P 21 21 21'
_symmetry_Int_Tables_number      19
_space_group_name_Hall           'P 2ac 2ab'
loop_
_symmetry_equiv_pos_site_id
_symmetry_equiv_pos_as_xyz
1 x,y,z
2 1/2-x,-y,1/2+z
3 -x,1/2+y,1/2-z
4 1/2+x,1/2-y,-z
_cell_length_a                   9.1449(2)
_cell_length_b                   10.8270(3)
_cell_length_c                   13.1344(3)
_cell_angle_alpha                90
_cell_angle_beta                 90
_cell_angle_gamma                90
_cell_volume                     1300.46
_exptl_crystal_colour            yellow
_exptl_crystal_description       block
_cell_formula_units_Z            4
loop_
_atom_site_label
_atom_site_type_symbol
_atom_site_fract_x
_atom_site_fract_y
_atom_site_fract_z
Br1 Br 0.08934(5) 0.37702(4) 0.62866(4)
N1 N 0.0708(3) 0.7763(3) 0.2870(2)
H1 H 0.1132 0.7060 0.3108
N2 N -0.3723(3) 0.6214(3) 0.3766(2)
H2 H -0.4617 0.6044 0.3618
C1 C 0.0076(5) 0.7478(4) 0.1850(3)
H3 H 0.0844 0.7227 0.1396
H4 H -0.0396 0.8201 0.1584
H5 H -0.0625 0.6823 0.1914
C2 C 0.1875(4) 0.8720(4) 0.2783(3)
H6 H 0.2598 0.8452 0.2302
H7 H 0.2325 0.8840 0.3436
H8 H 0.1451 0.9483 0.2557
C3 C -0.0444(4) 0.8157(4) 0.3639(3)
H9 H 0.0033 0.8342 0.4281
H10 H -0.0909 0.8909 0.3401
C4 C -0.1584(4) 0.7205(4) 0.3813(3)
C5 C -0.2987(4) 0.7213(4) 0.3437(3)
H11 H -0.3371 0.7822 0.3015
C6 C -0.2829(4) 0.5507(4) 0.4374(3)
C7 C -0.3083(5) 0.4384(4) 0.4854(3)
H12 H -0.3982 0.3989 0.4796
C8 C -0.1965(5) 0.3868(4) 0.5421(3)
H13 H -0.2104 0.3119 0.5753
C9 C -0.0612(4) 0.4490(4) 0.5491(3)
C10 C -0.0335(4) 0.5599(4) 0.5012(3)
H14 H 0.0564 0.5992 0.5075
C11 C -0.1466(4) 0.6110(4) 0.4426(3)
N3 N 0.2674(4) 0.5222(3) 0.3505(2)
O1 O 0.3385(4) 0.4266(3) 0.3625(3)
O2 O 0.3106(3) 0.6231(3) 0.3859(2)
O3 O 0.1487(3) 0.5214(3) 0.3021(2)
loop_
_geom_bond_atom_site_label_1
_geom_bond_atom_site_label_2
_geom_bond_site_symmetry_1
_geom_bond_site_symmetry_2
Br1 C9 1_555 1_555
N1 H1 1_555 1_555
N2 H2 1_555 1_555
C1 N1 1_555 1_555
H3 C1 1_555 1_555
H4 C1 1_555 1_555
H5 C1 1_555 1_555
C2 N1 1_555 1_555
H6 C2 1_555 1_555
H7 C2 1_555 1_555
H8 C2 1_555 1_555
C3 N1 1_555 1_555
H9 C3 1_555 1_555
H10 C3 1_555 1_555
C4 C3 1_555 1_555
C5 N2 1_555 1_555
H11 C5 1_555 1_555
C6 N2 1_555 1_555
C7 C6 1_555 1_555
H12 C7 1_555 1_555
C8 C7 1_555 1_555
H13 C8 1_555 1_555
C9 C8 1_555 1_555
C10 C9 1_555 1_555
H14 C10 1_555 1_555
C11 C4 1_555 1_555
N3 O1 1_555 1_555
O2 N3 1_555 1_555
O3 N3 1_555 1_555
C4 C5 1_555 1_555
C6 C11 1_555 1_555
C10 C11 1_555 1_555

#END
