
#######################################################################
#
#                 Cambridge Crystallographic Data Centre
#                                CCDC 
#
#######################################################################
#
# If this CIF has been generated from an entry in the Cambridge 
# Structural Database, then it will include bibliographic, chemical, 
# crystal, experimental, refinement or atomic coordinate data resulting 
# from the CCDC's data processing and validation procedures.
#
#######################################################################

data_EVIRIM
_chemical_formula_moiety         'C10 H13 N1 O4'
_chemical_name_systematic        
(1R,2R,3S,6R)-1-Hydroxymethyl-2-methyl-3,6-epoxycyclohexane-1,2-dicarboximide
_chemical_properties_biological  'isolated from Mylabis phalerata Palla'
_symmetry_cell_setting           orthorhombic
_symmetry_space_group_name_H-M   'P 21 21 21'
_symmetry_Int_Tables_number      19
_space_group_name_Hall           'P 2ac 2ab'
loop_
_symmetry_equiv_pos_site_id
_symmetry_equiv_pos_as_xyz
1 x,y,z
2 1/2-x,-y,1/2+z
3 1/2+x,1/2-y,-z
4 -x,1/2+y,1/2-z
_cell_length_a                   7.33508(19)
_cell_length_b                   7.7336(2)
_cell_length_c                   16.8499(4)
_cell_angle_alpha                90
_cell_angle_beta                 90
_cell_angle_gamma                90
_cell_volume                     955.837
_exptl_crystal_colour            colorless
_exptl_crystal_description       orthorhombic
_cell_formula_units_Z            4
loop_
_atom_site_label
_atom_site_type_symbol
_atom_site_fract_x
_atom_site_fract_y
_atom_site_fract_z
O1 O 0.09765(15) 0.54765(14) 0.22285(6)
O2 O 0.17914(18) 0.17178(16) 0.42690(7)
O3 O 0.52823(15) 0.38040(14) 0.31546(6)
O4 O 0.05666(14) 0.77328(15) 0.37632(7)
H1 H 0.0109 0.8693 0.3643
N1 N 0.10138(18) 0.34385(17) 0.32129(8)
H2 H 0.0159 0.2766 0.3015
C1 C 0.4860(2) 0.5588(2) 0.29766(9)
H3 H 0.4843 0.5847 0.2395
C2 C 0.2432(2) 0.7699(2) 0.35277(9)
H4 H 0.3205 0.8206 0.3949
H5 H 0.2601 0.8382 0.3036
C3 C 0.6528(2) 0.5435(2) 0.41889(9)
H6 H 0.7784 0.4992 0.4257
H7 H 0.6168 0.6091 0.4669
C4 C 0.6354(2) 0.6558(2) 0.34279(9)
H8 H 0.5979 0.7756 0.3555
H9 H 0.7510 0.6584 0.3125
C5 C 0.1541(2) 0.4946(2) 0.28685(9)
C6 C 0.2671(2) 0.5248(2) 0.49384(9)
H10 H 0.3333 0.6322 0.5047
H11 H 0.2994 0.4379 0.5338
H12 H 0.1356 0.5469 0.4959
C7 C 0.5183(2) 0.3970(2) 0.40126(9)
H13 H 0.5464 0.2873 0.4302
C8 C 0.3185(2) 0.45824(19) 0.41143(8)
C9 C 0.1955(2) 0.30592(19) 0.39084(9)
C10 C 0.2970(2) 0.58192(19) 0.33839(8)
loop_
_geom_bond_atom_site_label_1
_geom_bond_atom_site_label_2
_geom_bond_site_symmetry_1
_geom_bond_site_symmetry_2
O1 C5 1_555 1_555
O2 C9 1_555 1_555
O3 C1 1_555 1_555
O4 H1 1_555 1_555
N1 H2 1_555 1_555
C1 H3 1_555 1_555
C2 O4 1_555 1_555
H4 C2 1_555 1_555
H5 C2 1_555 1_555
C3 H6 1_555 1_555
H7 C3 1_555 1_555
C4 C1 1_555 1_555
H8 C4 1_555 1_555
H9 C4 1_555 1_555
C5 N1 1_555 1_555
C6 H10 1_555 1_555
H11 C6 1_555 1_555
H12 C6 1_555 1_555
C7 O3 1_555 1_555
H13 C7 1_555 1_555
C8 C6 1_555 1_555
C9 N1 1_555 1_555
C10 C1 1_555 1_555
C2 C10 1_555 1_555
C3 C4 1_555 1_555
C3 C7 1_555 1_555
C5 C10 1_555 1_555
C7 C8 1_555 1_555
C8 C9 1_555 1_555
C8 C10 1_555 1_555

#END
