
#######################################################################
#
#                 Cambridge Crystallographic Data Centre
#                                CCDC 
#
#######################################################################
#
# If this CIF has been generated from an entry in the Cambridge 
# Structural Database, then it will include bibliographic, chemical, 
# crystal, experimental, refinement or atomic coordinate data resulting 
# from the CCDC's data processing and validation procedures.
#
#######################################################################

data_EVOGEC
_chemical_name_common            
'2,5-bis[2-(4-methylphenyl)ethynyl]benzyl methacrylate'
_chemical_formula_moiety         'C29 H24 O2'
_chemical_name_systematic        
'2,5-Bis[2-(4-methylphenyl)ethynyl]benzyl 2-methylpropenoate'
_symmetry_cell_setting           monoclinic
_symmetry_space_group_name_H-M   'P 21/c'
_symmetry_Int_Tables_number      14
_space_group_name_Hall           '-P 2ybc'
loop_
_symmetry_equiv_pos_site_id
_symmetry_equiv_pos_as_xyz
1 x,y,z
2 -x,1/2+y,1/2-z
3 -x,-y,-z
4 x,1/2-y,1/2+z
_cell_length_a                   13.479(3)
_cell_length_b                   10.314(2)
_cell_length_c                   18.390(7)
_cell_angle_alpha                90
_cell_angle_beta                 116.06(2)
_cell_angle_gamma                90
_cell_volume                     2296.7
_exptl_crystal_colour            colorless
_exptl_crystal_description       block
_cell_formula_units_Z            4
loop_
_atom_site_label
_atom_site_type_symbol
_atom_site_fract_x
_atom_site_fract_y
_atom_site_fract_z
O1 O 0.46919(9) 0.83960(11) 0.94444(6)
O2 O 0.31533(11) 0.86679(15) 0.95953(9)
C1 C 1.02239(16) 0.9345(3) 0.88082(12)
H1 H 1.0037 0.9592 0.8260
H2 H 1.0873 0.8811 0.9011
H3 H 1.0364 1.0109 0.9137
C2 C 0.92826(13) 0.8602(2) 0.88343(9)
C3 C 0.85824(15) 0.9179(2) 0.90984(10)
H4 H 0.8717 1.0029 0.9285
C4 C 0.76866(14) 0.8535(2) 0.90948(11)
H5 H 0.7228 0.8952 0.9278
C5 C 0.74624(12) 0.72585(18) 0.88170(9)
C6 C 0.81733(13) 0.66578(19) 0.85598(9)
H6 H 0.8044 0.5806 0.8376
C7 C 0.90735(13) 0.7320(2) 0.85748(10)
H7 H 0.9549 0.6900 0.8408
C8 C 0.65017(13) 0.66127(19) 0.87854(10)
C9 C 0.56739(13) 0.61534(18) 0.87514(9)
C10 C 0.46640(12) 0.56551(16) 0.87212(9)
C11 C 0.42631(11) 0.61130(15) 0.92603(8)
C12 C 0.32830(12) 0.56368(16) 0.92154(9)
H8 H 0.3025 0.5933 0.9578
C13 C 0.26695(12) 0.47142(16) 0.86327(9)
C14 C 0.30682(13) 0.42763(17) 0.80977(9)
H9 H 0.2663 0.3673 0.7703
C15 C 0.40513(13) 0.47212(17) 0.81438(9)
H10 H 0.4315 0.4401 0.7789
C16 C 0.16510(13) 0.42429(17) 0.85986(10)
C17 C 0.08020(13) 0.38608(18) 0.85793(10)
C18 C -0.02216(13) 0.34409(17) 0.85662(9)
C19 C -0.03831(14) 0.35079(19) 0.92580(10)
H11 H 0.0188 0.3789 0.9741
C20 C -0.13764(15) 0.3163(2) 0.92386(10)
H12 H -0.1464 0.3212 0.9712
C21 C -0.22507(13) 0.27457(17) 0.85347(10)
C22 C -0.20792(14) 0.2662(2) 0.78517(10)
H13 H -0.2651 0.2375 0.7371
C23 C -0.10906(14) 0.2989(2) 0.78607(10)
H14 H -0.0998 0.2908 0.7391
C24 C -0.33470(16) 0.2402(2) 0.85113(14)
H15 H -0.3242 0.1757 0.8915
H16 H -0.3827 0.2066 0.7986
H17 H -0.3673 0.3162 0.8617
C25 C 0.48771(13) 0.71594(16) 0.98580(9)
H18 H 0.4623 0.7200 1.0276
H19 H 0.5661 0.6964 1.0114
C26 C 0.37595(13) 0.90213(17) 0.93213(9)
C27 C 0.35602(14) 1.01911(17) 0.87936(9)
C28 C 0.42569(17) 1.0441(2) 0.84353(11)
H20 H 0.4046 1.1243 0.8141
H21 H 0.4202 0.9749 0.8071
H22 H 0.5004 1.0505 0.8847
C29 C 0.26432(16) 1.0942(2) 0.86929(13)
H23 H 0.2461 1.1673 0.8364
H24 H 0.2216 1.0709 0.8955
loop_
_geom_bond_atom_site_label_1
_geom_bond_atom_site_label_2
_geom_bond_site_symmetry_1
_geom_bond_site_symmetry_2
O1 C25 1_555 1_555
O2 C26 1_555 1_555
C1 H1 1_555 1_555
H2 C1 1_555 1_555
H3 C1 1_555 1_555
C2 C1 1_555 1_555
C3 C2 1_555 1_555
H4 C3 1_555 1_555
C4 C3 1_555 1_555
H5 C4 1_555 1_555
C5 C4 1_555 1_555
C6 C5 1_555 1_555
H6 C6 1_555 1_555
C7 C2 1_555 1_555
H7 C7 1_555 1_555
C8 C5 1_555 1_555
C9 C8 1_555 1_555
C10 C9 1_555 1_555
C11 C10 1_555 1_555
C12 C11 1_555 1_555
H8 C12 1_555 1_555
C13 C12 1_555 1_555
C14 C13 1_555 1_555
H9 C14 1_555 1_555
C15 C10 1_555 1_555
H10 C15 1_555 1_555
C16 C13 1_555 1_555
C17 C16 1_555 1_555
C18 C17 1_555 1_555
C19 C18 1_555 1_555
H11 C19 1_555 1_555
C20 C19 1_555 1_555
H12 C20 1_555 1_555
C21 C20 1_555 1_555
C22 C21 1_555 1_555
H13 C22 1_555 1_555
C23 C18 1_555 1_555
H14 C23 1_555 1_555
C24 C21 1_555 1_555
H15 C24 1_555 1_555
H16 C24 1_555 1_555
H17 C24 1_555 1_555
C25 C11 1_555 1_555
H18 C25 1_555 1_555
H19 C25 1_555 1_555
C26 O1 1_555 1_555
C27 C26 1_555 1_555
C28 C27 1_555 1_555
H20 C28 1_555 1_555
H21 C28 1_555 1_555
H22 C28 1_555 1_555
C29 C27 1_555 1_555
H23 C29 1_555 1_555
H24 C29 1_555 1_555
C6 C7 1_555 1_555
C14 C15 1_555 1_555
C22 C23 1_555 1_555

#END
