
#######################################################################
#
#                 Cambridge Crystallographic Data Centre
#                                CCDC 
#
#######################################################################
#
# If this CIF has been generated from an entry in the Cambridge 
# Structural Database, then it will include bibliographic, chemical, 
# crystal, experimental, refinement or atomic coordinate data resulting 
# from the CCDC's data processing and validation procedures.
#
#######################################################################

data_EVOWIV
_chemical_formula_moiety         'C10 H16 O3'
_chemical_name_systematic        
'(+-)-3-Ethyl-2-methyl-4-oxocyclohexanecarboxylic acid'
_symmetry_cell_setting           triclinic
_symmetry_space_group_name_H-M   'P -1'
_symmetry_Int_Tables_number      2
_space_group_name_Hall           '-P 1'
loop_
_symmetry_equiv_pos_site_id
_symmetry_equiv_pos_as_xyz
1 x,y,z
2 -x,-y,-z
_cell_length_a                   5.5739(12)
_cell_length_b                   12.814(3)
_cell_length_c                   14.396(3)
_cell_angle_alpha                80.425(14)
_cell_angle_beta                 85.53(2)
_cell_angle_gamma                82.67(2)
_cell_volume                     1003.92
_exptl_crystal_colour            colorless
_exptl_crystal_description       'trapezoidal block'
_chemical_melting_point          '376 K'
_cell_formula_units_Z            4
_exptl_crystal_recrystallization_method 'ethyl acetate'
loop_
_atom_site_label
_atom_site_type_symbol
_atom_site_fract_x
_atom_site_fract_y
_atom_site_fract_z
O1 O -0.1032(3) 0.76596(14) 0.97307(11)
O2 O 0.3582(3) 0.62351(14) 0.61493(11)
O3 O 0.6454(3) 0.72226(14) 0.63338(12)
H1 H 0.689(5) 0.713(2) 0.576(2)
C1 C 0.3789(3) 0.67917(15) 0.76584(13)
H3 H 0.5167 0.6468 0.8032
C2 C 0.3247(3) 0.79592(14) 0.78220(12)
H4 H 0.4715 0.8305 0.7624
C3 C 0.2722(3) 0.79885(15) 0.88911(12)
H5 H 0.4186 0.7643 0.9201
C4 C 0.0721(4) 0.73110(17) 0.92687(13)
C5 C 0.1016(4) 0.61980(17) 0.90570(15)
H6 H -0.0484 0.5888 0.9237
H7 H 0.2274 0.5774 0.9431
C6 C 0.1681(4) 0.61569(16) 0.80092(14)
H8 H 0.2117 0.5422 0.7919
H9 H 0.0288 0.6445 0.7645
C7 C 0.1208(4) 0.85732(17) 0.72333(14)
H10 H 0.0937 0.9294 0.7355
H11 H -0.0248 0.8240 0.7399
H12 H 0.1652 0.8571 0.6576
C8 C 0.2248(4) 0.91063(17) 0.91547(14)
H13 H 0.0742 0.9455 0.8896
H14 H 0.2040 0.9044 0.9836
C9 C 0.4240(5) 0.98048(19) 0.88093(18)
H15 H 0.3807 1.0493 0.8995
H16 H 0.4446 0.9882 0.8134
H17 H 0.5728 0.9481 0.9081
C10 C 0.4543(4) 0.67122(16) 0.66359(14)
O4 O 1.1683(3) 0.30886(14) 0.54323(11)
O5 O 0.5939(3) 0.38549(15) 0.90124(11)
O6 O 0.3455(3) 0.28282(15) 0.86003(11)
H2 H 0.291(5) 0.280(2) 0.918(2)
C11 C 0.6222(3) 0.35140(14) 0.74084(12)
H18 H 0.4899 0.3862 0.7015
C12 C 0.6992(3) 0.24070(14) 0.71172(12)
H19 H 0.5561 0.2022 0.7199
C13 C 0.7838(4) 0.25465(16) 0.60548(12)
H20 H 0.6429 0.2892 0.5708
C14 C 0.9743(4) 0.33089(17) 0.58496(13)
C15 C 0.9140(4) 0.43568(17) 0.61828(15)
H21 H 0.7893 0.4785 0.5806
H22 H 1.0566 0.4732 0.6097
C16 C 0.8252(4) 0.42206(15) 0.72231(14)
H23 H 0.9587 0.3906 0.7610
H24 H 0.7675 0.4913 0.7396
C17 C 0.8924(4) 0.17515(16) 0.77360(14)
H25 H 0.9351 0.1071 0.7534
H26 H 0.8302 0.1650 0.8381
H27 H 1.0334 0.2121 0.7682
C18 C 0.8627(4) 0.14994(19) 0.56777(16)
H28 H 0.9121 0.1661 0.5013
H29 H 1.0028 0.1134 0.6004
C19 C 0.6679(5) 0.0754(2) 0.5790(2)
H30 H 0.7304 0.0116 0.5542
H31 H 0.5302 0.1099 0.5451
H32 H 0.6199 0.0576 0.6446
C20 C 0.5245(3) 0.34263(15) 0.84264(13)
loop_
_geom_bond_atom_site_label_1
_geom_bond_atom_site_label_2
_geom_bond_site_symmetry_1
_geom_bond_site_symmetry_2
O1 C4 1_555 1_555
O2 C10 1_555 1_555
O3 H1 1_555 1_555
O4 C14 1_555 1_555
O5 C20 1_555 1_555
O6 H2 1_555 1_555
C1 H3 1_555 1_555
C2 C1 1_555 1_555
H4 C2 1_555 1_555
C3 C2 1_555 1_555
H5 C3 1_555 1_555
C4 C3 1_555 1_555
C5 C4 1_555 1_555
H6 C5 1_555 1_555
H7 C5 1_555 1_555
C6 C1 1_555 1_555
H8 C6 1_555 1_555
H9 C6 1_555 1_555
C7 C2 1_555 1_555
H10 C7 1_555 1_555
H11 C7 1_555 1_555
H12 C7 1_555 1_555
C8 C3 1_555 1_555
H13 C8 1_555 1_555
H14 C8 1_555 1_555
C9 C8 1_555 1_555
H15 C9 1_555 1_555
H16 C9 1_555 1_555
H17 C9 1_555 1_555
C10 O3 1_555 1_555
C11 H18 1_555 1_555
C12 C11 1_555 1_555
H19 C12 1_555 1_555
C13 C12 1_555 1_555
H20 C13 1_555 1_555
C14 C13 1_555 1_555
C15 C14 1_555 1_555
H21 C15 1_555 1_555
H22 C15 1_555 1_555
C16 C11 1_555 1_555
H23 C16 1_555 1_555
H24 C16 1_555 1_555
C17 C12 1_555 1_555
H25 C17 1_555 1_555
H26 C17 1_555 1_555
H27 C17 1_555 1_555
C18 C13 1_555 1_555
H28 C18 1_555 1_555
H29 C18 1_555 1_555
C19 C18 1_555 1_555
H30 C19 1_555 1_555
H31 C19 1_555 1_555
H32 C19 1_555 1_555
C20 O6 1_555 1_555
C1 C10 1_555 1_555
C5 C6 1_555 1_555
C11 C20 1_555 1_555
C15 C16 1_555 1_555

#END
