
#######################################################################
#
#                 Cambridge Crystallographic Data Centre
#                                CCDC 
#
#######################################################################
#
# If this CIF has been generated from an entry in the Cambridge 
# Structural Database, then it will include bibliographic, chemical, 
# crystal, experimental, refinement or atomic coordinate data resulting 
# from the CCDC's data processing and validation procedures.
#
#######################################################################

data_EVULEN
_chemical_compound_source        'endophytic fungus Paraconiothyrium sp. MY-42'
_chemical_name_common            
19-(alpha-D-Glucopyranosyloxy)isopimara-7,15-dien-3beta-ol
_chemical_formula_moiety         'C26 H42 O7'
_chemical_name_systematic        
2-(Hydroxymethyl)-6-((3-hydroxypimara-7,15-dien-18-yl)oxy)tetrahydro-2H-pyran-3,4,5-triol
_chemical_properties_biological  
'Moderate cytotoxic activity against the human promyelocytic leukemia cell line HL60 (IC50 value 11.2): caused the digestion of genomic DNA into ladders.'
_symmetry_cell_setting           monoclinic
_symmetry_space_group_name_H-M   'P 21'
_symmetry_Int_Tables_number      4
_space_group_name_Hall           'P 2yb'
loop_
_symmetry_equiv_pos_site_id
_symmetry_equiv_pos_as_xyz
1 x,y,z
2 -x,1/2+y,-z
_cell_length_a                   7.407(3)
_cell_length_b                   9.809(4)
_cell_length_c                   16.628(7)
_cell_angle_alpha                90
_cell_angle_beta                 95.142(3)
_cell_angle_gamma                90
_cell_volume                     1203.25
_exptl_crystal_colour            colorless
_exptl_crystal_description       prism
_cell_formula_units_Z            2
loop_
_atom_site_label
_atom_site_type_symbol
_atom_site_fract_x
_atom_site_fract_y
_atom_site_fract_z
O1 O 0.64808(19) 0.30461(15) 0.50445(8)
O2 O 0.96631(19) 0.16634(17) 0.53994(8)
O3 O 1.05236(17) -0.02508(16) 0.41599(8)
O4 O 0.55301(15) -0.01827(14) 0.39778(7)
O5 O 0.67085(17) -0.27782(14) 0.41365(7)
O6 O 0.54240(17) 0.20910(14) 0.35672(7)
O7 O 0.5899(2) 0.47629(17) 0.34793(9)
C1 C 0.5328(2) 0.4387(2) 0.12259(12)
C2 C 0.5252(2) 0.1182(2) 0.42017(10)
C3 C 0.6302(3) 0.4190(2) 0.20742(12)
C4 C 0.6618(2) 0.16257(19) 0.48920(10)
C5 C 0.4998(3) 0.4529(2) 0.26915(12)
C6 C 0.8545(2) 0.1342(2) 0.46928(10)
C7 C 0.3420(2) 0.3515(2) 0.26747(10)
C8 C 0.8761(2) -0.0128(2) 0.44307(10)
C9 C 0.2454(2) 0.3544(2) 0.17999(10)
C10 C 0.7321(2) -0.04783(19) 0.37491(10)
C11 C 0.0899(2) 0.2527(2) 0.16761(10)
C12 C 0.7280(2) -0.19624(19) 0.35010(10)
C13 C -0.0098(2) 0.2712(2) 0.08575(11)
C14 C 0.0554(2) 0.3387(2) 0.02556(10)
C15 C 0.2447(2) 0.39887(19) 0.03176(10)
C16 C 0.3660(2) 0.34564(19) 0.10737(10)
C17 C 0.3335(2) 0.3810(2) -0.04846(11)
C18 C 0.2065(2) 0.4181(2) -0.12277(11)
C19 C 0.0282(2) 0.3378(2) -0.12783(11)
C20 C -0.0631(2) 0.3691(2) -0.05064(11)
C21 C -0.0905(3) 0.3790(2) -0.20316(11)
C22 C -0.2677(3) 0.3675(3) -0.21501(17)
C23 C 0.0645(3) 0.1847(2) -0.13355(13)
C24 C 0.2095(3) 0.4005(2) 0.32786(12)
C25 C 0.4003(2) 0.2056(2) 0.29179(11)
C26 C 0.4311(2) 0.2002(2) 0.09115(12)
H1 H 0.6147 0.4200 0.0832
H2 H 0.4940 0.5309 0.1177
H3 H 0.6678 0.3268 0.2138
H4 H 0.7331 0.4771 0.2143
H5 H 0.4474 0.5380 0.2528
H6 H 0.1892 0.4415 0.1751
H7 H 0.1375 0.1628 0.1718
H8 H 0.0086 0.2663 0.2079
H9 H -0.1378 0.2395 0.0777
H10 H 0.2309 0.4942 0.0393
H11 H 0.3680 0.2883 -0.0532
H12 H 0.4381 0.4373 -0.0473
H13 H 0.2660 0.4011 -0.1701
H14 H 0.1788 0.5124 -0.1198
H15 H -0.1702 0.3159 -0.0509
H16 H -0.0939 0.4632 -0.0507
H17 H -0.0286 0.3953 -0.2556
H18 H -0.3302 0.3965 -0.2645
H19 H -0.3331 0.3287 -0.1741
H20 H 0.1300 0.1546 -0.0851
H21 H 0.1340 0.1679 -0.1779
H22 H -0.0471 0.1368 -0.1413
H23 H 0.2655 0.3937 0.3814
H24 H 0.1031 0.3459 0.3228
H25 H 0.1781 0.4928 0.3164
H26 H 0.4419 0.1596 0.2467
H27 H 0.2991 0.1583 0.3094
H28 H 0.5069 0.2017 0.0480
H29 H 0.3296 0.1430 0.0772
H30 H 0.4975 0.1661 0.1384
H31 H 0.4064 0.1261 0.4370
H32 H 0.6400 0.1135 0.5366
H33 H 0.5487 0.3229 0.5365
H34 H 0.8832 0.1926 0.4267
H35 H 1.0709 0.1605 0.5326
H36 H 0.8643 -0.0718 0.4876
H37 H 1.0952 -0.0867 0.4344
H38 H 0.7530 0.0066 0.3294
H39 H 0.6455 -0.2076 0.3035
H40 H 0.8457 -0.2236 0.3382
H41 H 0.6428 -0.3704 0.4002
H42 H 0.6003 0.4085 0.3661
loop_
_geom_bond_atom_site_label_1
_geom_bond_atom_site_label_2
_geom_bond_site_symmetry_1
_geom_bond_site_symmetry_2
O1 C4 1_555 1_555
O2 C6 1_555 1_555
O3 C8 1_555 1_555
O4 C2 1_555 1_555
O5 C12 1_555 1_555
O6 C2 1_555 1_555
O7 C5 1_555 1_555
C1 C3 1_555 1_555
C2 C4 1_555 1_555
C3 C5 1_555 1_555
C4 C6 1_555 1_555
C5 C7 1_555 1_555
C6 C8 1_555 1_555
C7 C9 1_555 1_555
C8 C10 1_555 1_555
C9 C11 1_555 1_555
C10 O4 1_555 1_555
C11 C13 1_555 1_555
C12 C10 1_555 1_555
C13 C14 1_555 1_555
C14 C15 1_555 1_555
C15 C16 1_555 1_555
C16 C1 1_555 1_555
C17 C15 1_555 1_555
C18 C17 1_555 1_555
C19 C18 1_555 1_555
C20 C14 1_555 1_555
C21 C19 1_555 1_555
C22 C21 1_555 1_555
C23 C19 1_555 1_555
C24 C7 1_555 1_555
C25 O6 1_555 1_555
C26 C16 1_555 1_555
H1 C1 1_555 1_555
H2 C1 1_555 1_555
H3 C3 1_555 1_555
H4 C3 1_555 1_555
H5 C5 1_555 1_555
H6 C9 1_555 1_555
H7 C11 1_555 1_555
H8 C11 1_555 1_555
H9 C13 1_555 1_555
H10 C15 1_555 1_555
H11 C17 1_555 1_555
H12 C17 1_555 1_555
H13 C18 1_555 1_555
H14 C18 1_555 1_555
H15 C20 1_555 1_555
H16 C20 1_555 1_555
H17 C21 1_555 1_555
H18 C22 1_555 1_555
H19 C22 1_555 1_555
H20 C23 1_555 1_555
H21 C23 1_555 1_555
H22 C23 1_555 1_555
H23 C24 1_555 1_555
H24 C24 1_555 1_555
H25 C24 1_555 1_555
H26 C25 1_555 1_555
H27 C25 1_555 1_555
H28 C26 1_555 1_555
H29 C26 1_555 1_555
H30 C26 1_555 1_555
H31 C2 1_555 1_555
H32 C4 1_555 1_555
H33 O1 1_555 1_555
H34 C6 1_555 1_555
H35 O2 1_555 1_555
H36 C8 1_555 1_555
H37 O3 1_555 1_555
H38 C10 1_555 1_555
H39 C12 1_555 1_555
H40 C12 1_555 1_555
H41 O5 1_555 1_555
H42 O7 1_555 1_555
C7 C25 1_555 1_555
C9 C16 1_555 1_555
C19 C20 1_555 1_555

#END
