
#######################################################################
#
#                 Cambridge Crystallographic Data Centre
#                                CCDC 
#
#######################################################################
#
# If this CIF has been generated from an entry in the Cambridge 
# Structural Database, then it will include bibliographic, chemical, 
# crystal, experimental, refinement or atomic coordinate data resulting 
# from the CCDC's data processing and validation procedures.
#
#######################################################################

data_EWANEW
_chemical_name_common            'Orcinol hexamine'
_chemical_formula_moiety         'C7 H8 O2,C6 H12 N4'
_chemical_name_systematic        
'5-Methylbenzene-1,3-diol 1,3,5,7-tetraazatricyclo[3.3.1.1^3,7^]decane'
_symmetry_cell_setting           orthorhombic
_symmetry_space_group_name_H-M   'P c c n'
_symmetry_Int_Tables_number      56
_space_group_name_Hall           '-P 2ab 2ac'
loop_
_symmetry_equiv_pos_site_id
_symmetry_equiv_pos_as_xyz
1 x,y,z
2 1/2-x,1/2-y,z
3 1/2+x,-y,1/2-z
4 -x,1/2+y,1/2-z
5 -x,-y,-z
6 1/2+x,1/2+y,-z
7 1/2-x,y,1/2+z
8 x,1/2-y,1/2+z
_cell_length_a                   17.572(3)
_cell_length_b                   21.702(4)
_cell_length_c                   7.0650(14)
_cell_angle_alpha                90
_cell_angle_beta                 90
_cell_angle_gamma                90
_cell_volume                     2694.22
_exptl_crystal_colour            colorless
_exptl_crystal_description       block
_cell_formula_units_Z            8
loop_
_atom_site_label
_atom_site_type_symbol
_atom_site_fract_x
_atom_site_fract_y
_atom_site_fract_z
N1 N 0.54472(6) 0.13668(4) 0.45510(14)
N2 N 0.60968(5) 0.08288(4) 0.71291(15)
N3 N 0.68392(6) 0.13244(5) 0.46250(15)
N4 N 0.61515(6) 0.19559(4) 0.69234(14)
C1 C 0.54268(7) 0.08402(5) 0.58726(19)
C2 C 0.61564(7) 0.13253(6) 0.34243(18)
C3 C 0.67906(7) 0.08005(6) 0.59382(19)
C4 C 0.68362(7) 0.18939(6) 0.57437(18)
C5 C 0.61171(7) 0.14191(5) 0.81888(17)
C6 C 0.54835(7) 0.19423(5) 0.56771(16)
H1 H 0.4949(10) 0.0867(8) 0.670(3)
H2 H 0.5429(10) 0.0441(8) 0.510(3)
H3 H 0.6140(11) 0.0910(9) 0.268(3)
H4 H 0.6168(9) 0.1691(8) 0.256(3)
H5 H 0.6764(10) 0.0410(8) 0.520(3)
H6 H 0.7238(10) 0.0806(8) 0.680(3)
H7 H 0.7292(10) 0.1884(8) 0.662(2)
H8 H 0.6864(10) 0.2261(7) 0.489(2)
H9 H 0.5643(9) 0.1437(7) 0.899(2)
H10 H 0.6568(9) 0.1409(7) 0.902(2)
H11 H 0.5498(8) 0.2309(7) 0.480(2)
H12 H 0.5012(10) 0.1967(8) 0.647(3)
O1 O 0.14643(7) -0.01595(4) 0.47096(14)
O2 O 0.04825(5) 0.18068(4) 0.67385(14)
C7 C 0.15565(6) 0.13612(5) 0.25601(16)
C8 C 0.16534(7) 0.07318(5) 0.28708(17)
C9 C 0.13502(7) 0.04575(5) 0.44840(17)
C10 C 0.09487(7) 0.08065(5) 0.58074(17)
C11 C 0.08600(6) 0.14353(5) 0.54999(16)
C12 C 0.11568(6) 0.17126(5) 0.38777(17)
C13 C 0.18886(9) 0.16597(7) 0.0820(2)
H13 H 0.1938(9) 0.0494(7) 0.196(2)
H14 H 0.0751(10) 0.0617(8) 0.690(2)
H15 H 0.1095(8) 0.2140(8) 0.363(2)
H16 H 0.1790(19) 0.1427(15) -0.033(5)
H17 H 0.1792(15) 0.2058(13) 0.075(4)
H18 H 0.243(2) 0.1617(14) 0.084(5)
H19 H 0.1266(12) -0.0302(10) 0.585(3)
H20 H 0.0263(11) 0.1565(10) 0.771(3)
loop_
_geom_bond_atom_site_label_1
_geom_bond_atom_site_label_2
_geom_bond_site_symmetry_1
_geom_bond_site_symmetry_2
N1 C1 1_555 1_555
N2 C1 1_555 1_555
N3 C2 1_555 1_555
N4 C4 1_555 1_555
C1 H1 1_555 1_555
C2 N1 1_555 1_555
C3 N2 1_555 1_555
C4 N3 1_555 1_555
C5 N2 1_555 1_555
C6 N1 1_555 1_555
O1 C9 1_555 1_555
O2 C11 1_555 1_555
C7 C8 1_555 1_555
C8 C9 1_555 1_555
C9 C10 1_555 1_555
C10 C11 1_555 1_555
C11 C12 1_555 1_555
C12 C7 1_555 1_555
C13 C7 1_555 1_555
H2 C1 1_555 1_555
H3 C2 1_555 1_555
H4 C2 1_555 1_555
H5 C3 1_555 1_555
H6 C3 1_555 1_555
H7 C4 1_555 1_555
H8 C4 1_555 1_555
H9 C5 1_555 1_555
H10 C5 1_555 1_555
H11 C6 1_555 1_555
H12 C6 1_555 1_555
H13 C8 1_555 1_555
H14 C10 1_555 1_555
H15 C12 1_555 1_555
H16 C13 1_555 1_555
H17 C13 1_555 1_555
H18 C13 1_555 1_555
H19 O1 1_555 1_555
H20 O2 1_555 1_555
N3 C3 1_555 1_555
N4 C5 1_555 1_555
N4 C6 1_555 1_555

#END
