
#######################################################################
#
#                 Cambridge Crystallographic Data Centre
#                                CCDC 
#
#######################################################################
#
# If this CIF has been generated from an entry in the Cambridge 
# Structural Database, then it will include bibliographic, chemical, 
# crystal, experimental, refinement or atomic coordinate data resulting 
# from the CCDC's data processing and validation procedures.
#
#######################################################################

data_EWANIA
_chemical_name_common            'Orcinol pyrimidin-2-amine'
_chemical_formula_moiety         'C7 H8 O2,C4 H5 N3'
_chemical_name_systematic        '5-Methylbenzene-1,3-diol pyrimidin-2-amine'
_symmetry_cell_setting           triclinic
_symmetry_space_group_name_H-M   'P -1'
_symmetry_Int_Tables_number      2
_space_group_name_Hall           '-P 1'
loop_
_symmetry_equiv_pos_site_id
_symmetry_equiv_pos_as_xyz
1 x,y,z
2 -x,-y,-z
_cell_length_a                   8.7636(7)
_cell_length_b                   10.9081(9)
_cell_length_c                   13.3171(11)
_cell_angle_alpha                112.508(8)
_cell_angle_beta                 104.169(7)
_cell_angle_gamma                92.570(7)
_cell_volume                     1126.56
_exptl_crystal_colour            colorless
_exptl_crystal_description       block
_cell_formula_units_Z            4
loop_
_atom_site_label
_atom_site_type_symbol
_atom_site_fract_x
_atom_site_fract_y
_atom_site_fract_z
O1 O 0.86924(13) 0.91323(11) 1.04086(9)
O2 O 0.53507(12) 0.59050(9) 0.69782(8)
C1 C 0.74125(16) 0.88595(14) 0.94847(11)
C2 C 0.69853(15) 0.75363(13) 0.87001(11)
C3 C 0.57128(15) 0.72178(13) 0.77452(11)
C4 C 0.48566(16) 0.81982(14) 0.75780(11)
C5 C 0.52924(17) 0.95221(14) 0.83700(12)
C6 C 0.65689(17) 0.98492(14) 0.93249(12)
C7 C 0.4389(2) 1.06014(17) 0.81892(15)
H1 H 0.884(2) 1.000(2) 1.0816(18)
H2 H 0.75570 0.68590 0.88160
H3 H 0.454(3) 0.582(2) 0.6376(18)
H4 H 0.39760 0.79640 0.69240
H5 H 0.68680 1.07520 0.98710
H6 H 0.34640 1.01890 0.75200
H7 H 0.50870 1.12320 0.80730
H8 H 0.40290 1.10850 0.88570
O3 O -0.06973(12) 0.17791(10) 0.18863(8)
O4 O 0.27173(13) 0.53368(10) 0.52158(8)
C8 C 0.05503(15) 0.22286(13) 0.28513(10)
C9 C 0.09463(15) 0.35871(12) 0.35605(10)
C10 C 0.22424(16) 0.39996(13) 0.45168(11)
C11 C 0.30957(16) 0.30747(14) 0.47898(11)
C12 C 0.26769(16) 0.17173(14) 0.40764(12)
C13 C 0.14029(16) 0.12949(13) 0.31030(11)
C14 C 0.3637(2) 0.07150(16) 0.43482(15)
H9 H -0.109(2) 0.250(2) 0.1769(16)
H10 H 0.03410 0.42210 0.33930
H11 H 0.229(2) 0.587(2) 0.4869(18)
H12 H 0.39610 0.33670 0.54600
H13 H 0.11180 0.03690 0.26120
H14 H 0.47380 0.11500 0.47690
H15 H 0.36250 -0.00370 0.36420
H16 H 0.31730 0.03790 0.48100
N1 N 0.23408(14) 0.53804(12) 1.01064(10)
N2 N 0.18257(14) 0.62488(13) 0.86738(10)
N3 N 0.09534(16) 0.71461(14) 1.02624(12)
C15 C 0.17171(15) 0.62401(14) 0.96649(11)
C16 C 0.30826(18) 0.44785(15) 0.94894(13)
C17 C 0.32544(19) 0.44098(17) 0.84656(13)
C18 C 0.25909(17) 0.53324(16) 0.80916(13)
H17 H 0.047(2) 0.773(2) 0.9997(17)
H18 H 0.083(2) 0.7159(18) 1.0907(17)
H19 H 0.35170 0.38480 0.97660
H20 H 0.38000 0.37620 0.80430
H21 H 0.26830 0.53150 0.73900
N4 N 0.14936(15) 0.68719(11) 0.41170(10)
N5 N 0.06949(14) 0.73635(12) 0.24818(10)
N6 N 0.25597(17) 0.59885(14) 0.26137(12)
C19 C 0.15634(17) 0.67531(13) 0.30836(11)
C20 C -0.02922(18) 0.81235(14) 0.29499(13)
C21 C -0.0439(2) 0.83179(15) 0.40029(14)
C22 C 0.0484(2) 0.76549(15) 0.45553(13)
H22 H 0.246(2) 0.582(2) 0.1893(18)
H23 H 0.306(2) 0.5491(19) 0.2915(15)
H24 H -0.09280 0.85540 0.25390
H25 H -0.11400 0.88790 0.43300
H26 H 0.04020 0.77570 0.52800
loop_
_geom_bond_atom_site_label_1
_geom_bond_atom_site_label_2
_geom_bond_site_symmetry_1
_geom_bond_site_symmetry_2
O1 C1 1_555 1_555
O2 C3 1_555 1_555
C1 C2 1_555 1_555
C2 C3 1_555 1_555
C3 C4 1_555 1_555
C4 C5 1_555 1_555
C5 C6 1_555 1_555
C6 C1 1_555 1_555
C7 C5 1_555 1_555
O3 C8 1_555 1_555
O4 C10 1_555 1_555
C8 C9 1_555 1_555
C9 C10 1_555 1_555
C10 C11 1_555 1_555
C11 C12 1_555 1_555
C12 C13 1_555 1_555
C13 C8 1_555 1_555
C14 C12 1_555 1_555
N1 C15 1_555 1_555
N2 C15 1_555 1_555
N3 C15 1_555 1_555
C16 N1 1_555 1_555
C17 C16 1_555 1_555
C18 N2 1_555 1_555
N4 C19 1_555 1_555
N5 C19 1_555 1_555
N6 C19 1_555 1_555
C20 N5 1_555 1_555
C21 C20 1_555 1_555
C22 N4 1_555 1_555
H1 O1 1_555 1_555
H2 C2 1_555 1_555
H3 O2 1_555 1_555
H4 C4 1_555 1_555
H5 C6 1_555 1_555
H6 C7 1_555 1_555
H7 C7 1_555 1_555
H8 C7 1_555 1_555
H9 O3 1_555 1_555
H10 C9 1_555 1_555
H11 O4 1_555 1_555
H12 C11 1_555 1_555
H13 C13 1_555 1_555
H14 C14 1_555 1_555
H15 C14 1_555 1_555
H16 C14 1_555 1_555
H17 N3 1_555 1_555
H18 N3 1_555 1_555
H19 C16 1_555 1_555
H20 C17 1_555 1_555
H21 C18 1_555 1_555
H22 N6 1_555 1_555
H23 N6 1_555 1_555
H24 C20 1_555 1_555
H25 C21 1_555 1_555
H26 C22 1_555 1_555
C17 C18 1_555 1_555
C21 C22 1_555 1_555

#END
