
#######################################################################
#
#                 Cambridge Crystallographic Data Centre
#                                CCDC 
#
#######################################################################
#
# If this CIF has been generated from an entry in the Cambridge 
# Structural Database, then it will include bibliographic, chemical, 
# crystal, experimental, refinement or atomic coordinate data resulting 
# from the CCDC's data processing and validation procedures.
#
#######################################################################

data_EWAQUP
_chemical_name_common            'Orcinol hemikis(pyrazine)'
_chemical_formula_moiety         'C7 H8 O2,0.5(C4 H4 N2)'
_chemical_name_systematic        '5-Methylbenzene-1,3-diol hemikis(pyrazine)'
_symmetry_cell_setting           monoclinic
_symmetry_space_group_name_H-M   'P 21/n'
_symmetry_Int_Tables_number      14
_space_group_name_Hall           '-P 2yn'
loop_
_symmetry_equiv_pos_site_id
_symmetry_equiv_pos_as_xyz
1 x,y,z
2 1/2-x,1/2+y,1/2-z
3 -x,-y,-z
4 1/2+x,1/2-y,1/2+z
_cell_length_a                   6.9967(14)
_cell_length_b                   8.5801(17)
_cell_length_c                   13.531(3)
_cell_angle_alpha                90
_cell_angle_beta                 95.16(3)
_cell_angle_gamma                90
_cell_volume                     809.006
_exptl_crystal_colour            colorless
_exptl_crystal_description       block
_cell_formula_units_Z            4
loop_
_atom_site_label
_atom_site_type_symbol
_atom_site_fract_x
_atom_site_fract_y
_atom_site_fract_z
O1 O 0.55511(13) 0.90114(9) 0.15745(6)
O2 O 0.85153(12) 0.40174(9) 0.14181(6)
C1 C 0.66109(14) 0.66791(12) -0.05553(8)
C2 C 0.59453(15) 0.78731(12) 0.00190(8)
C3 C 0.62072(15) 0.77879(12) 0.10492(8)
C4 C 0.70960(15) 0.65014(12) 0.15182(7)
C5 C 0.77026(14) 0.52922(11) 0.09338(7)
C6 C 0.74917(15) 0.53812(12) -0.00961(8)
C7 C 0.63664(17) 0.67892(14) -0.16706(8)
H1 H 0.5336(19) 0.8771(16) -0.0301(10)
H2 H 0.729(2) 0.6432(17) 0.2228(11)
H3 H 0.793(2) 0.4498(17) -0.0496(10)
H4 H 0.516(3) 0.632(2) -0.1921(14)
H5 H 0.740(3) 0.626(2) -0.1980(13)
H6 H 0.632(3) 0.790(2) -0.1892(15)
H7 H 0.590(2) 0.8893(19) 0.2226(14)
H8 H 0.868(2) 0.323(2) 0.0988(13)
N1 N 0.92773(13) 0.13747(11) 0.03766(7)
C8 C 0.91253(16) 0.10663(13) -0.05936(9)
C9 C 1.01509(17) 0.02966(13) 0.09626(8)
H9 H 0.850(2) 0.1806(17) -0.1034(11)
H10 H 1.026(2) 0.0514(18) 0.1659(11)
N1B N 1.07227(13) -0.13747(11) -0.03766(7)
C8B C 1.08747(16) -0.10663(13) 0.05936(9)
C9B C 0.98491(17) -0.02966(13) -0.09626(8)
H9B H 1.150(2) -0.1806(17) 0.1034(11)
H10B H 0.974(2) -0.0514(18) -0.1659(11)
loop_
_geom_bond_atom_site_label_1
_geom_bond_atom_site_label_2
_geom_bond_site_symmetry_1
_geom_bond_site_symmetry_2
O1 C3 1_555 1_555
O2 C5 1_555 1_555
C1 C2 1_555 1_555
C2 C3 1_555 1_555
C3 C4 1_555 1_555
C4 C5 1_555 1_555
C5 C6 1_555 1_555
C6 C1 1_555 1_555
C7 C1 1_555 1_555
N1 C8 1_555 1_555
C8 H9 1_555 1_555
C9 N1 1_555 1_555
H1 C2 1_555 1_555
H2 C4 1_555 1_555
H3 C6 1_555 1_555
H4 C7 1_555 1_555
H5 C7 1_555 1_555
H6 C7 1_555 1_555
H7 O1 1_555 1_555
H8 O2 1_555 1_555
H10 C9 1_555 1_555
N1B C8B 1_555 1_555
C8B C9 1_555 1_555
C9B C8 1_555 1_555
H9B C8B 1_555 1_555
H10B C9B 1_555 1_555
N1B C9B 1_555 1_555

#END
