
#######################################################################
#
#                 Cambridge Crystallographic Data Centre
#                                CCDC 
#
#######################################################################
#
# If this CIF has been generated from an entry in the Cambridge 
# Structural Database, then it will include bibliographic, chemical, 
# crystal, experimental, refinement or atomic coordinate data resulting 
# from the CCDC's data processing and validation procedures.
#
#######################################################################

data_EWAREA
_chemical_name_common            'Orcinol hemikis(quinoxaline)'
_chemical_formula_moiety         'C7 H8 O2,0.5(C8 H6 N2)'
_chemical_name_systematic        '5-Methylbenzene-1,3-diol hemikis(quinoxaline)'
_symmetry_cell_setting           triclinic
_symmetry_space_group_name_H-M   'P -1'
_symmetry_Int_Tables_number      2
_space_group_name_Hall           '-P 1'
loop_
_symmetry_equiv_pos_site_id
_symmetry_equiv_pos_as_xyz
1 x,y,z
2 -x,-y,-z
_cell_length_a                   8.2900(17)
_cell_length_b                   9.990(2)
_cell_length_c                   12.690(3)
_cell_angle_alpha                104.66(3)
_cell_angle_beta                 103.82(3)
_cell_angle_gamma                96.33(3)
_cell_volume                     970.864
_exptl_crystal_colour            colorless
_exptl_crystal_description       platelet
_cell_formula_units_Z            4
loop_
_atom_site_label
_atom_site_type_symbol
_atom_site_fract_x
_atom_site_fract_y
_atom_site_fract_z
O1 O 0.8137(4) 1.0379(3) 1.0078(2)
O2 O 0.4261(4) 0.7101(3) 0.6800(2)
C1 C 0.7460(5) 0.9947(4) 0.8924(3)
C2 C 0.6184(5) 0.8782(4) 0.8465(3)
C3 C 0.5506(5) 0.8282(4) 0.7293(4)
C4 C 0.6066(5) 0.8983(4) 0.6592(3)
C5 C 0.7332(6) 1.0171(4) 0.7052(4)
C6 C 0.8046(6) 1.0659(4) 0.8228(3)
C7 C 0.7958(7) 1.0942(5) 0.6300(4)
H1 H 0.912(7) 1.110(6) 1.032(4)
H2 H 0.57710 0.83250 0.89450
H3 H 0.377(8) 0.664(7) 0.733(5)
H4 H 0.55800 0.86480 0.57940
H5 H 0.89190 1.14650 0.85520
H6 H 0.75890 1.03410 0.55130
H7 H 0.91940 1.11740 0.65500
H8 H 0.74950 1.18100 0.63490
O3 O 0.0524(4) 0.2862(3) 0.0932(2)
O4 O 0.3743(4) 0.6184(3) 0.4436(3)
C8 C 0.0940(5) 0.3351(4) 0.2114(3)
C9 C 0.2129(6) 0.4570(4) 0.2697(3)
C10 C 0.2526(5) 0.5008(4) 0.3868(3)
C11 C 0.1721(5) 0.4259(4) 0.4456(3)
C12 C 0.0526(5) 0.3059(4) 0.3856(3)
C13 C 0.0129(5) 0.2591(4) 0.2666(3)
C14 C -0.0298(7) 0.2220(5) 0.4484(4)
H9 H 0.126(9) 0.354(8) 0.058(6)
H10 H 0.26560 0.50900 0.23000
H11 H 0.386(8) 0.643(7) 0.519(6)
H12 H 0.19970 0.45740 0.52600
H13 H -0.06860 0.17650 0.22490
H14 H 0.04630 0.16220 0.47590
H15 H -0.13570 0.16300 0.39720
H16 H -0.05350 0.28630 0.51290
N1 N 0.6499(5) 0.4304(4) 0.1632(3)
N2 N 0.7671(5) 0.5680(4) 0.0189(3)
C15 C 0.6934(6) 0.3629(5) 0.0753(4)
C16 C 0.7529(6) 0.4306(5) 0.0027(4)
C17 C 0.7270(6) 0.7891(5) 0.1307(4)
C18 C 0.6769(6) 0.8629(5) 0.2196(4)
C19 C 0.6195(6) 0.7956(5) 0.2928(4)
C20 C 0.6159(6) 0.6539(5) 0.2765(4)
C21 C 0.6625(5) 0.5744(4) 0.1836(3)
C22 C 0.7201(5) 0.6429(4) 0.1100(3)
H17 H 0.68500 0.26370 0.05910
H18 H 0.78350 0.37540 -0.05970
H19 H 0.76650 0.83620 0.08280
H20 H 0.68050 0.96120 0.23260
H21 H 0.58330 0.84860 0.35350
H22 H 0.58210 0.60980 0.32780
loop_
_geom_bond_atom_site_label_1
_geom_bond_atom_site_label_2
_geom_bond_site_symmetry_1
_geom_bond_site_symmetry_2
O1 C1 1_555 1_555
O2 C3 1_555 1_555
C1 C2 1_555 1_555
C2 C3 1_555 1_555
C3 C4 1_555 1_555
C4 C5 1_555 1_555
C5 C6 1_555 1_555
C6 C1 1_555 1_555
C7 C5 1_555 1_555
O3 C8 1_555 1_555
O4 C10 1_555 1_555
C8 C9 1_555 1_555
C9 C10 1_555 1_555
C10 C11 1_555 1_555
C11 C12 1_555 1_555
C12 C13 1_555 1_555
C13 C8 1_555 1_555
C14 C12 1_555 1_555
N1 C15 1_555 1_555
N2 C16 1_555 1_555
C15 C16 1_555 1_555
C16 H18 1_555 1_555
C17 C18 1_555 1_555
C18 C19 1_555 1_555
C19 C20 1_555 1_555
C20 C21 1_555 1_555
C21 N1 1_555 1_555
C22 N2 1_555 1_555
H1 O1 1_555 1_555
H2 C2 1_555 1_555
H3 O2 1_555 1_555
H4 C4 1_555 1_555
H5 C6 1_555 1_555
H6 C7 1_555 1_555
H7 C7 1_555 1_555
H8 C7 1_555 1_555
H9 O3 1_555 1_555
H10 C9 1_555 1_555
H11 O4 1_555 1_555
H12 C11 1_555 1_555
H13 C13 1_555 1_555
H14 C14 1_555 1_555
H15 C14 1_555 1_555
H16 C14 1_555 1_555
H17 C15 1_555 1_555
H19 C17 1_555 1_555
H20 C18 1_555 1_555
H21 C19 1_555 1_555
H22 C20 1_555 1_555
C17 C22 1_555 1_555
C21 C22 1_555 1_555

#END
