
#######################################################################
#
#                 Cambridge Crystallographic Data Centre
#                                CCDC 
#
#######################################################################
#
# If this CIF has been generated from an entry in the Cambridge 
# Structural Database, then it will include bibliographic, chemical, 
# crystal, experimental, refinement or atomic coordinate data resulting 
# from the CCDC's data processing and validation procedures.
#
#######################################################################

data_EWATUS
_chemical_formula_moiety         'C22 H16 N4 O3,C4 H8 O2'
_chemical_name_systematic        
"10b-(1H-Indol-3-yl)-2-methyl-6,10b-dihydro-2H-pyrazino[1',2':1,5]pyrrolo[2,3-b]indole-1,3,4(5aH)-trione ethyl acetate solvate"
_symmetry_cell_setting           monoclinic
_symmetry_space_group_name_H-M   'P 21'
_symmetry_Int_Tables_number      4
_space_group_name_Hall           'P 2yb'
loop_
_symmetry_equiv_pos_site_id
_symmetry_equiv_pos_as_xyz
1 x,y,z
2 -x,1/2+y,-z
_cell_length_a                   9.3456(6)
_cell_length_b                   10.2047(6)
_cell_length_c                   12.7683(8)
_cell_angle_alpha                90
_cell_angle_beta                 110.3436(7)
_cell_angle_gamma                90
_cell_volume                     1141.75
_exptl_crystal_colour            colorless
_exptl_crystal_description       prism
_cell_formula_units_Z            2
loop_
_atom_site_label
_atom_site_type_symbol
_atom_site_fract_x
_atom_site_fract_y
_atom_site_fract_z
N1 N 0.33600(17) 1.02660(15) 0.39042(12)
N2 N 0.42110(18) 1.56359(15) 0.32746(13)
H1 H 0.4441 1.6402 0.3607
C1 C 0.2138(2) 1.03700(19) 0.53578(15)
C2 C 0.4542(2) 1.52447(18) 0.23567(15)
C3 C 0.3463(2) 1.46391(18) 0.35923(16)
H2 H 0.3110 1.4675 0.4206
C4 C 0.3281(2) 0.83244(19) 0.49874(15)
C5 C 0.3298(2) 1.35833(18) 0.28931(14)
C6 C 0.3976(2) 1.39551(18) 0.20779(15)
C7 C 0.3742(2) 0.90001(18) 0.40914(15)
C8 C 0.4136(2) 1.33356(19) 0.11472(16)
H3 H 0.3760 1.2472 0.0948
N3 N 0.25715(18) 0.90574(16) 0.55772(13)
C9 C 0.3525(2) 1.10343(17) 0.29622(15)
H4 H 0.4616 1.1256 0.3091
C10 C 0.4853(2) 1.4002(2) 0.05200(16)
H5 H 0.4952 1.3597 -0.0121
N4 N 0.28004(18) 1.03947(16) 0.18921(13)
H6 H 0.3232 0.9811 0.1590
C11 C 0.1304(2) 1.08579(19) 0.14208(15)
C12 C 0.5435(2) 1.5276(2) 0.08247(17)
H7 H 0.5940 1.5706 0.0391
C13 C 0.0099(2) 1.0323(2) 0.05399(16)
H8 H 0.0217 0.9523 0.0198
C14 C 0.5292(2) 1.5913(2) 0.17358(17)
H9 H 0.5685 1.6772 0.1936
C15 C -0.1272(2) 1.0996(2) 0.01802(17)
H10 H -0.2111 1.0639 -0.0408
C16 C -0.1452(2) 1.2178(2) 0.06560(17)
H11 H -0.2398 1.2632 0.0379
C17 C 0.2540(2) 1.23019(17) 0.29436(15)
C18 C 0.1115(2) 1.20265(18) 0.19280(15)
C19 C -0.0248(2) 1.2700(2) 0.15398(16)
H12 H -0.0364 1.3508 0.1870
C20 C 0.2113(2) 1.21448(19) 0.39835(15)
H13 H 0.1612 1.2794 0.4264
C21 C 0.2537(2) 1.09747(18) 0.44474(15)
C22 C 0.2105(3) 0.8363(2) 0.64226(17)
H14 H 0.2988 0.7906 0.6945
H15 H 0.1306 0.7726 0.6051
H16 H 0.1713 0.8998 0.6832
O1 O 0.35446(16) 0.71644(14) 0.51590(11)
O2 O 0.44005(15) 0.83872(13) 0.35649(12)
O3 O 0.14583(18) 1.09526(15) 0.58603(12)
C23 C 0.9628(3) 0.6676(3) 0.1961(2)
H17 H 1.0674 0.6339 0.2264
H18 H 0.9324 0.6768 0.1149
H19 H 0.8937 0.6063 0.2138
C24 C 0.9550(3) 0.7990(2) 0.24732(18)
O4 O 1.06181(18) 0.85680(18) 0.31153(14)
O5 O 0.81268(17) 0.84461(17) 0.21245(13)
C25 C 0.7909(3) 0.9703(2) 0.2616(2)
H20 H 0.6926 1.0096 0.2147
H21 H 0.8736 1.0315 0.2626
C26 C 0.7913(3) 0.9525(2) 0.3782(2)
H22 H 0.7676 1.0361 0.4062
H23 H 0.8923 0.9224 0.4266
H24 H 0.7144 0.8872 0.3782
loop_
_geom_bond_atom_site_label_1
_geom_bond_atom_site_label_2
_geom_bond_site_symmetry_1
_geom_bond_site_symmetry_2
N1 C7 1_555 1_555
N2 H1 1_555 1_555
C1 N3 1_555 1_555
C2 N2 1_555 1_555
C3 N2 1_555 1_555
H2 C3 1_555 1_555
C4 C7 1_555 1_555
C5 C3 1_555 1_555
C6 C2 1_555 1_555
C7 O2 1_555 1_555
C8 C6 1_555 1_555
H3 C8 1_555 1_555
N3 C4 1_555 1_555
C9 N1 1_555 1_555
H4 C9 1_555 1_555
C10 C8 1_555 1_555
H5 C10 1_555 1_555
N4 C9 1_555 1_555
H6 N4 1_555 1_555
C11 N4 1_555 1_555
C12 C10 1_555 1_555
H7 C12 1_555 1_555
C13 C11 1_555 1_555
H8 C13 1_555 1_555
C14 C2 1_555 1_555
H9 C14 1_555 1_555
C15 C13 1_555 1_555
H10 C15 1_555 1_555
C16 C15 1_555 1_555
H11 C16 1_555 1_555
C17 C5 1_555 1_555
C18 C11 1_555 1_555
C19 C16 1_555 1_555
H12 C19 1_555 1_555
C20 C17 1_555 1_555
H13 C20 1_555 1_555
C21 N1 1_555 1_555
C22 N3 1_555 1_555
H14 C22 1_555 1_555
H15 C22 1_555 1_555
H16 C22 1_555 1_555
O1 C4 1_555 1_555
O3 C1 1_555 1_555
C23 H17 1_555 1_555
H18 C23 1_555 1_555
H19 C23 1_555 1_555
C24 C23 1_555 1_555
O4 C24 1_555 1_555
O5 C24 1_555 1_555
C25 O5 1_555 1_555
H20 C25 1_555 1_555
H21 C25 1_555 1_555
C26 C25 1_555 1_555
H22 C26 1_555 1_555
H23 C26 1_555 1_555
H24 C26 1_555 1_555
C1 C21 1_555 1_555
C5 C6 1_555 1_555
C9 C17 1_555 1_555
C12 C14 1_555 1_555
C17 C18 1_555 1_555
C18 C19 1_555 1_555
C20 C21 1_555 1_555

#END
