
#######################################################################
#
#                 Cambridge Crystallographic Data Centre
#                                CCDC 
#
#######################################################################
#
# If this CIF has been generated from an entry in the Cambridge 
# Structural Database, then it will include bibliographic, chemical, 
# crystal, experimental, refinement or atomic coordinate data resulting 
# from the CCDC's data processing and validation procedures.
#
#######################################################################

data_EWAVAA
_chemical_formula_moiety         'C25 H22 N4 O4 S2,1.5(C1 H2 Cl2)'
_chemical_name_systematic        
'3-(1H-Indol-3-yl)-14,18-dimethyl-13,17-dioxo-15,16-dithia-10,12,18-triazapentacyclo[12.2.2.0^1,12^.0^3,11^.0^4,9^]octadeca-4,6,8-trien-2-yl acetate dichloromethane solvate'
_symmetry_cell_setting           monoclinic
_symmetry_space_group_name_H-M   'P 21/n'
_symmetry_Int_Tables_number      14
_space_group_name_Hall           '-P 2yn'
loop_
_symmetry_equiv_pos_site_id
_symmetry_equiv_pos_as_xyz
1 x,y,z
2 1/2-x,1/2+y,1/2-z
3 -x,-y,-z
4 1/2+x,1/2-y,1/2+z
_cell_length_a                   17.4546(11)
_cell_length_b                   11.2020(7)
_cell_length_c                   29.4320(19)
_cell_angle_alpha                90
_cell_angle_beta                 105.5710(8)
_cell_angle_gamma                90
_cell_volume                     5543.53
_exptl_crystal_colour            colorless
_exptl_crystal_description       block
_cell_formula_units_Z            8
loop_
_atom_site_label
_atom_site_type_symbol
_atom_site_fract_x
_atom_site_fract_y
_atom_site_fract_z
S1 S 0.72322(4) 0.20299(6) 0.14873(2)
S2 S 0.76542(4) 0.27742(6) 0.09575(2)
O1 O 0.88953(11) 0.08745(18) 0.22182(6)
O2 O 0.82012(11) 0.02836(18) 0.04085(6)
O3 O 0.81031(10) -0.12598(16) 0.19092(6)
O4 O 0.80491(12) -0.10917(18) 0.26634(6)
N1 N 0.89944(12) 0.1615(2) 0.15104(8)
N2 N 0.77876(12) 0.00872(19) 0.10725(7)
N3 N 0.65271(12) -0.0430(2) 0.05202(7)
H1 H 0.6495 -0.0494 0.0218
N4 N 0.64233(13) -0.3856(2) 0.18641(8)
H2 H 0.6399 -0.4301 0.2106
C1 C 0.86222(14) 0.1013(2) 0.17916(9)
C2 C 0.62191(14) -0.4221(2) 0.14005(9)
C3 C 0.66704(15) -0.2692(2) 0.18901(9)
H3 H 0.6840 -0.2242 0.2173
C4 C 0.85736(14) 0.1800(2) 0.10213(9)
C5 C 0.66368(14) -0.2270(2) 0.14472(8)
C6 C 0.63332(14) -0.3237(2) 0.11230(9)
C7 C 0.81875(14) 0.0641(2) 0.07976(9)
C8 C 0.61345(16) -0.3368(3) 0.06313(9)
H4 H 0.6188 -0.2718 0.0435
C9 C 0.71784(14) -0.0849(2) 0.09018(8)
H5 H 0.7415 -0.1605 0.0819
C10 C 0.58578(17) -0.4467(3) 0.04380(10)
H6 H 0.5723 -0.4566 0.0105
C11 C 0.59563(15) 0.0094(2) 0.07106(9)
C12 C 0.57713(17) -0.5441(3) 0.07235(11)
H7 H 0.5591 -0.6187 0.0581
C13 C 0.53246(16) 0.0836(2) 0.04896(10)
H8 H 0.5251 0.1086 0.0172
C14 C 0.59455(16) -0.5326(2) 0.12074(10)
H9 H 0.5881 -0.5977 0.1401
C15 C 0.48052(16) 0.1198(3) 0.07494(11)
H10 H 0.4375 0.1712 0.0606
C16 C 0.48997(16) 0.0828(3) 0.12141(11)
H11 H 0.4530 0.1073 0.1381
C17 C 0.68223(14) -0.1013(2) 0.13349(8)
C18 C 0.60699(14) -0.0246(2) 0.11802(9)
C19 C 0.55418(15) 0.0094(2) 0.14335(9)
H12 H 0.5614 -0.0165 0.1749
C20 C 0.77994(14) 0.0581(2) 0.15201(8)
C21 C 0.74489(14) -0.0429(2) 0.17508(8)
H13 H 0.7222 -0.0150 0.2010
C22 C 0.97197(15) 0.2293(3) 0.17290(10)
H14 H 0.9910 0.2080 0.2063
H15 H 0.9603 0.3150 0.1700
H16 H 1.0131 0.2103 0.1570
C23 C 0.90662(16) 0.2367(3) 0.07274(10)
H17 H 0.9521 0.1852 0.0729
H18 H 0.9258 0.3148 0.0860
H19 H 0.8738 0.2468 0.0403
C24 C 0.83859(16) -0.1424(2) 0.23822(9)
C25 C 0.91659(18) -0.2061(3) 0.24970(11)
H20 H 0.9212 -0.2571 0.2774
H21 H 0.9599 -0.1476 0.2565
H22 H 0.9198 -0.2554 0.2228
S3 S 0.21929(4) 0.75344(6) 0.14131(2)
S4 S 0.26181(4) 0.68539(6) 0.08730(2)
O5 O 0.38601(11) 0.86002(18) 0.21676(6)
O6 O 0.32063(11) 0.94138(18) 0.03758(6)
O7 O 0.30992(10) 1.07752(16) 0.18899(6)
O8 O 0.30280(12) 1.06152(17) 0.26424(6)
N5 N 0.39643(12) 0.7945(2) 0.14502(8)
N6 N 0.27628(12) 0.95269(19) 0.10350(7)
N7 N 0.15014(12) 1.0134(2) 0.04998(7)
H23 H 0.1469 1.0243 0.0199
N8 N 0.14351(12) 1.3389(2) 0.18945(7)
H24 H 0.1420 1.3813 0.2144
C26 C 0.35948(14) 0.8511(2) 0.17410(9)
C27 C 0.12138(14) 1.3790(2) 0.14357(9)
C28 C 0.16829(14) 1.2229(2) 0.19029(9)
H25 H 0.1862 1.1757 0.2179
C29 C 0.35426(15) 0.7822(2) 0.09579(9)
C30 C 0.16350(14) 1.1846(2) 0.14538(8)
C31 C 0.13192(14) 1.2825(2) 0.11441(9)
C32 C 0.31703(14) 0.9010(2) 0.07514(8)
C33 C 0.10976(15) 1.3000(2) 0.06527(9)
H26 H 0.1148 1.2371 0.0446
C34 C 0.21635(14) 1.0482(2) 0.08865(8)
H27 H 0.2409 1.1247 0.0820
C35 C 0.08061(17) 1.4100(3) 0.04759(10)
H28 H 0.0653 1.4218 0.0144
C36 C 0.09224(14) 0.9598(2) 0.06763(9)
C37 C 0.07290(17) 1.5052(3) 0.07726(10)
H29 H 0.0538 1.5803 0.0639
C38 C 0.02693(15) 0.8914(2) 0.04395(10)
H30 H 0.0180 0.8728 0.0115
C39 C 0.09292(15) 1.4903(2) 0.12574(10)
H31 H 0.0874 1.5537 0.1461
C40 C -0.02487(16) 0.8511(3) 0.06944(10)
H32 H -0.0694 0.8037 0.0540
C41 C -0.01299(16) 0.8786(2) 0.11705(10)
H33 H -0.0494 0.8507 0.1335
C42 C 0.05267(15) 0.9472(2) 0.14044(9)
H34 H 0.0610 0.9672 0.1728
C43 C 0.10534(14) 0.9855(2) 0.11570(8)
C44 C 0.18136(14) 1.0593(2) 0.13241(8)
C45 C 0.24372(14) 0.9966(2) 0.17253(8)
H35 H 0.2215 0.9662 0.1983
C46 C 0.27756(14) 0.8979(2) 0.14749(8)
C47 C 0.46840(15) 0.7252(3) 0.16572(10)
H36 H 0.4875 0.7432 0.1995
H37 H 0.5095 0.7460 0.1501
H38 H 0.4563 0.6398 0.1615
C48 C 0.40371(17) 0.7284(3) 0.06544(10)
H39 H 0.4507 0.7782 0.0676
H40 H 0.3717 0.7246 0.0326
H41 H 0.4206 0.6477 0.0767
C49 C 0.33688(16) 1.0950(2) 0.23629(9)
C50 C 0.41448(18) 1.1600(3) 0.24788(11)
H42 H 0.4201 1.2069 0.2767
H43 H 0.4160 1.2135 0.2218
H44 H 0.4581 1.1023 0.2527
C51 C 0.82605(19) 0.5438(3) 0.17076(13)
H45 H 0.7865 0.4885 0.1512
H46 H 0.7974 0.6150 0.1776
Cl1 Cl 0.89490(8) 0.58660(10) 0.14005(4)
Cl2 Cl 0.87618(7) 0.47298(10) 0.22408(4)
C52 C 0.2652(2) 0.4116(3) 0.02231(13)
H47 H 0.2439 0.4253 0.0499
H48 H 0.3209 0.4398 0.0305
Cl3 Cl 0.26251(7) 0.25655(8) 0.00944(4)
Cl4 Cl 0.20952(8) 0.49201(12) -0.02547(4)
C53 C 0.32291(18) 0.4288(3) 0.17340(12)
H49 H 0.2906 0.3632 0.1812
H50 H 0.2862 0.4907 0.1559
Cl5 Cl 0.38129(6) 0.37340(9) 0.13768(3)
Cl6 Cl 0.38377(5) 0.49040(8) 0.22582(3)
loop_
_geom_bond_atom_site_label_1
_geom_bond_atom_site_label_2
_geom_bond_site_symmetry_1
_geom_bond_site_symmetry_2
S1 S2 1_555 1_555
S2 C4 1_555 1_555
O1 C1 1_555 1_555
O2 C7 1_555 1_555
O3 C21 1_555 1_555
O4 C24 1_555 1_555
N1 C1 1_555 1_555
N2 C7 1_555 1_555
N3 H1 1_555 1_555
N4 H2 1_555 1_555
C1 C20 1_555 1_555
C2 N4 1_555 1_555
C3 N4 1_555 1_555
H3 C3 1_555 1_555
C4 N1 1_555 1_555
C5 C3 1_555 1_555
C6 C2 1_555 1_555
C7 C4 1_555 1_555
C8 C6 1_555 1_555
H4 C8 1_555 1_555
C9 N2 1_555 1_555
H5 C9 1_555 1_555
C10 C8 1_555 1_555
H6 C10 1_555 1_555
C11 N3 1_555 1_555
C12 C10 1_555 1_555
H7 C12 1_555 1_555
C13 C11 1_555 1_555
H8 C13 1_555 1_555
C14 C2 1_555 1_555
H9 C14 1_555 1_555
C15 C13 1_555 1_555
H10 C15 1_555 1_555
C16 C15 1_555 1_555
H11 C16 1_555 1_555
C17 C5 1_555 1_555
C18 C11 1_555 1_555
C19 C16 1_555 1_555
H12 C19 1_555 1_555
C20 S1 1_555 1_555
C21 C17 1_555 1_555
H13 C21 1_555 1_555
C22 N1 1_555 1_555
H14 C22 1_555 1_555
H15 C22 1_555 1_555
H16 C22 1_555 1_555
C23 C4 1_555 1_555
H17 C23 1_555 1_555
H18 C23 1_555 1_555
H19 C23 1_555 1_555
C24 O3 1_555 1_555
C25 C24 1_555 1_555
H20 C25 1_555 1_555
H21 C25 1_555 1_555
H22 C25 1_555 1_555
S3 S4 1_555 1_555
S4 C29 1_555 1_555
O5 C26 1_555 1_555
O6 C32 1_555 1_555
O7 C45 1_555 1_555
O8 C49 1_555 1_555
N5 C26 1_555 1_555
N6 C32 1_555 1_555
N7 H23 1_555 1_555
N8 H24 1_555 1_555
C26 C46 1_555 1_555
C27 N8 1_555 1_555
C28 N8 1_555 1_555
H25 C28 1_555 1_555
C29 N5 1_555 1_555
C30 C28 1_555 1_555
C31 C27 1_555 1_555
C32 C29 1_555 1_555
C33 C31 1_555 1_555
H26 C33 1_555 1_555
C34 N6 1_555 1_555
H27 C34 1_555 1_555
C35 C33 1_555 1_555
H28 C35 1_555 1_555
C36 N7 1_555 1_555
C37 C35 1_555 1_555
H29 C37 1_555 1_555
C38 C36 1_555 1_555
H30 C38 1_555 1_555
C39 C27 1_555 1_555
H31 C39 1_555 1_555
C40 C38 1_555 1_555
H32 C40 1_555 1_555
C41 C40 1_555 1_555
H33 C41 1_555 1_555
C42 C41 1_555 1_555
H34 C42 1_555 1_555
C43 C36 1_555 1_555
C44 C30 1_555 1_555
C45 C44 1_555 1_555
H35 C45 1_555 1_555
C46 S3 1_555 1_555
C47 N5 1_555 1_555
H36 C47 1_555 1_555
H37 C47 1_555 1_555
H38 C47 1_555 1_555
C48 C29 1_555 1_555
H39 C48 1_555 1_555
H40 C48 1_555 1_555
H41 C48 1_555 1_555
C49 O7 1_555 1_555
C50 C49 1_555 1_555
H42 C50 1_555 1_555
H43 C50 1_555 1_555
H44 C50 1_555 1_555
C51 H45 1_555 1_555
H46 C51 1_555 1_555
Cl1 C51 1_555 1_555
Cl2 C51 1_555 1_555
C52 H47 1_555 1_555
H48 C52 1_555 1_555
Cl3 C52 1_555 1_555
Cl4 C52 1_555 1_555
C53 H49 1_555 1_555
H50 C53 1_555 1_555
Cl5 C53 1_555 1_555
Cl6 C53 1_555 1_555
N2 C20 1_555 1_555
N3 C9 1_555 1_555
C5 C6 1_555 1_555
C9 C17 1_555 1_555
C12 C14 1_555 1_555
C17 C18 1_555 1_555
C18 C19 1_555 1_555
C20 C21 1_555 1_555
N6 C46 1_555 1_555
N7 C34 1_555 1_555
C30 C31 1_555 1_555
C34 C44 1_555 1_555
C37 C39 1_555 1_555
C42 C43 1_555 1_555
C43 C44 1_555 1_555
C45 C46 1_555 1_555

#END
