
#######################################################################
#
#                 Cambridge Crystallographic Data Centre
#                                CCDC 
#
#######################################################################
#
# If this CIF has been generated from an entry in the Cambridge 
# Structural Database, then it will include bibliographic, chemical, 
# crystal, experimental, refinement or atomic coordinate data resulting 
# from the CCDC's data processing and validation procedures.
#
#######################################################################

data_EWAYUY
_chemical_formula_moiety         'C18 H22 N2 S1,0.5(H1 Cl1)'
_chemical_name_systematic        
'1-(2-((2,4-dimethylphenyl)sulfanyl)phenyl)piperazine hemikis(hydrochloride)'
_symmetry_cell_setting           monoclinic
_symmetry_space_group_name_H-M   'P 21/c'
_symmetry_Int_Tables_number      14
_space_group_name_Hall           '-P 2ybc'
loop_
_symmetry_equiv_pos_site_id
_symmetry_equiv_pos_as_xyz
1 x,y,z
2 -x,1/2+y,1/2-z
3 -x,-y,-z
4 x,1/2-y,1/2+z
_cell_length_a                   20.9755(12)
_cell_length_b                   7.7160(4)
_cell_length_c                   10.6432(7)
_cell_angle_alpha                90
_cell_angle_beta                 93.067(2)
_cell_angle_gamma                90
_cell_volume                     1720.1
_exptl_crystal_colour            colorless
_exptl_crystal_description       platelet
_cell_formula_units_Z            4
loop_
_atom_site_label
_atom_site_type_symbol
_atom_site_fract_x
_atom_site_fract_y
_atom_site_fract_z
C1 C 0.3373(3) 0.4608(7) 0.2359(7)
C2 C 0.3646(3) 0.4408(10) 0.1257(8)
H1 H 0.3395 0.4426 0.0509
C3 C 0.4308(4) 0.4171(10) 0.1229(9)
H2 H 0.4484 0.4060 0.0450
C4 C 0.4698(3) 0.4095(8) 0.2261(9)
C5 C 0.4410(4) 0.4292(10) 0.3398(8)
H3 H 0.4663 0.4250 0.4141
C6 C 0.3739(4) 0.4558(8) 0.3467(7)
C7 C 0.5410(3) 0.3894(12) 0.2199(12)
H4 H 0.5504 0.3314 0.1432
H5 H 0.5573 0.3223 0.2905
H6 H 0.5608 0.5017 0.2220
C8 C 0.3466(6) 0.4830(15) 0.4709(9)
H7 H 0.3555 0.5991 0.4991
H8 H 0.3653 0.4021 0.5306
H9 H 0.3012 0.4655 0.4633
C9 C 0.2415(2) 0.6928(7) 0.2894(6)
C10 C 0.2817(3) 0.8262(7) 0.2524(7)
H10 H 0.3159 0.8016 0.2034
C11 C 0.2703(3) 0.9928(7) 0.2887(6)
H11 H 0.2988 1.0802 0.2697
C12 C 0.2180(3) 1.0312(7) 0.3520(7)
H12 H 0.2090 1.1460 0.3710
C13 C 0.1777(3) 0.9010(7) 0.3887(6)
H13 H 0.1423 0.9285 0.4340
C14 C 0.1895(2) 0.7315(6) 0.3588(5)
C15 C 0.0944(3) 0.5618(7) 0.3111(5)
H14 H 0.1068 0.5619 0.2247
H15 H 0.0638 0.6547 0.3206
C16 C 0.0640(3) 0.3904(7) 0.3407(5)
H16 H 0.0256 0.3743 0.2869
H17 H 0.0932 0.2969 0.3241
C17 C 0.1038(3) 0.4226(7) 0.5594(5)
H18 H 0.1356 0.3326 0.5518
H19 H 0.0912 0.4243 0.6458
C18 C 0.1317(3) 0.5956(7) 0.5267(5)
H20 H 0.1005 0.6866 0.5372
H21 H 0.1689 0.6200 0.5820
N1 N 0.14994(18) 0.5905(5) 0.3953(4)
N2 N 0.04764(19) 0.3850(5) 0.4740(4)
H22 H 0.0323 0.2794 0.4918
S1 S 0.25296(8) 0.4753(2) 0.2394(2)
Cl1 Cl 0.0000 0.0000 0.5000
H23? H 0.0168 0.4632 0.4868
loop_
_geom_bond_atom_site_label_1
_geom_bond_atom_site_label_2
_geom_bond_site_symmetry_1
_geom_bond_site_symmetry_2
C1 C2 1_555 1_555
C2 H1 1_555 1_555
C3 C2 1_555 1_555
H2 C3 1_555 1_555
C4 C3 1_555 1_555
C5 C4 1_555 1_555
H3 C5 1_555 1_555
C6 C1 1_555 1_555
C7 C4 1_555 1_555
H4 C7 1_555 1_555
H5 C7 1_555 1_555
H6 C7 1_555 1_555
C8 C6 1_555 1_555
H7 C8 1_555 1_555
H8 C8 1_555 1_555
H9 C8 1_555 1_555
C9 C10 1_555 1_555
C10 H10 1_555 1_555
C11 C10 1_555 1_555
H11 C11 1_555 1_555
C12 C11 1_555 1_555
H12 C12 1_555 1_555
C13 C12 1_555 1_555
H13 C13 1_555 1_555
C14 C9 1_555 1_555
C15 H14 1_555 1_555
H15 C15 1_555 1_555
C16 C15 1_555 1_555
H16 C16 1_555 1_555
H17 C16 1_555 1_555
C17 H18 1_555 1_555
H19 C17 1_555 1_555
C18 C17 1_555 1_555
H20 C18 1_555 1_555
H21 C18 1_555 1_555
N1 C14 1_555 1_555
N2 C16 1_555 1_555
H22 N2 1_555 1_555
S1 C1 1_555 1_555
C5 C6 1_555 1_555
C9 S1 1_555 1_555
C13 C14 1_555 1_555
C15 N1 1_555 1_555
C17 N2 1_555 1_555
C18 N1 1_555 1_555

#END
