
#######################################################################
#
#                 Cambridge Crystallographic Data Centre
#                                CCDC 
#
#######################################################################
#
# If this CIF has been generated from an entry in the Cambridge 
# Structural Database, then it will include bibliographic, chemical, 
# crystal, experimental, refinement or atomic coordinate data resulting 
# from the CCDC's data processing and validation procedures.
#
#######################################################################

data_EWEHEV
_chemical_formula_moiety         'C12 H14 N2 O2 S1'
_chemical_name_systematic        't-butyl 1,3-benzothiazol-2-ylcarbamate'
_symmetry_cell_setting           monoclinic
_symmetry_space_group_name_H-M   'P 21/c'
_symmetry_Int_Tables_number      14
_space_group_name_Hall           '-P 2ybc'
loop_
_symmetry_equiv_pos_site_id
_symmetry_equiv_pos_as_xyz
1 x,y,z
2 -x,1/2+y,1/2-z
3 -x,-y,-z
4 x,1/2-y,1/2+z
_cell_length_a                   6.1687(2)
_cell_length_b                   22.8670(8)
_cell_length_c                   8.7061(3)
_cell_angle_alpha                90
_cell_angle_beta                 94.893(2)
_cell_angle_gamma                90
_cell_volume                     1223.6
_exptl_crystal_colour            white
_exptl_crystal_description       Block
_cell_formula_units_Z            4
loop_
_atom_site_label
_atom_site_type_symbol
_atom_site_fract_x
_atom_site_fract_y
_atom_site_fract_z
C1 C 0.4708(6) 0.40433(16) 0.2861(4)
C2 C 0.2877(5) 0.48967(15) 0.1803(4)
C3 C -0.0326(6) 0.54768(16) 0.2217(4)
C4 C -0.2200(6) 0.57693(17) 0.2551(4)
H1 H -0.3036 0.5635 0.3348
C5 C -0.2821(6) 0.62592(18) 0.1698(4)
H2 H -0.4097 0.6467 0.1909
C6 C -0.1584(6) 0.64515(18) 0.0528(4)
H3 H -0.2033 0.6789 -0.0051
C7 C 0.0276(6) 0.61608(16) 0.0198(4)
H4 H 0.1112 0.6298 -0.0595
C8 C 0.0915(6) 0.56649(15) 0.1035(4)
C9 C 0.7038(6) 0.32308(16) 0.3741(4)
C10 C 0.8983(7) 0.29574(19) 0.3070(5)
H5 H 0.8552 0.2815 0.2027
H6 H 0.9522 0.2630 0.3721
H7 H 1.0135 0.3251 0.3027
C11 C 0.7717(8) 0.3517(2) 0.5281(5)
H8 H 0.8323 0.3221 0.6008
H9 H 0.6447 0.3700 0.5687
H10 H 0.8821 0.3817 0.5140
C12 C 0.5242(7) 0.27827(18) 0.3826(5)
H11 H 0.4728 0.2656 0.2783
H12 H 0.4032 0.2958 0.4325
H13 H 0.5803 0.2444 0.4426
N1 N 0.2724(5) 0.53216(13) 0.0814(3)
N2 N 0.4532(5) 0.44950(13) 0.1826(3)
H14 H 0.5513 0.4529 0.1154
O1 O 0.3484(5) 0.39799(12) 0.3863(3)
O2 O 0.6367(4) 0.36926(11) 0.2597(3)
S1 S 0.08534(16) 0.48598(4) 0.31003(10)
loop_
_geom_bond_atom_site_label_1
_geom_bond_atom_site_label_2
_geom_bond_site_symmetry_1
_geom_bond_site_symmetry_2
C1 N2 1_555 1_555
C2 N1 1_555 1_555
C3 C4 1_555 1_555
C4 H1 1_555 1_555
C5 C4 1_555 1_555
H2 C5 1_555 1_555
C6 C5 1_555 1_555
H3 C6 1_555 1_555
C7 C6 1_555 1_555
H4 C7 1_555 1_555
C8 C3 1_555 1_555
C9 C10 1_555 1_555
C10 H5 1_555 1_555
H6 C10 1_555 1_555
H7 C10 1_555 1_555
C11 C9 1_555 1_555
H8 C11 1_555 1_555
H9 C11 1_555 1_555
H10 C11 1_555 1_555
C12 C9 1_555 1_555
H11 C12 1_555 1_555
H12 C12 1_555 1_555
H13 C12 1_555 1_555
N1 C8 1_555 1_555
N2 C2 1_555 1_555
H14 N2 1_555 1_555
O1 C1 1_555 1_555
O2 C1 1_555 1_555
S1 C2 1_555 1_555
C3 S1 1_555 1_555
C7 C8 1_555 1_555
C9 O2 1_555 1_555

#END
