
#######################################################################
#
#                 Cambridge Crystallographic Data Centre
#                                CCDC 
#
#######################################################################
#
# If this CIF has been generated from an entry in the Cambridge 
# Structural Database, then it will include bibliographic, chemical, 
# crystal, experimental, refinement or atomic coordinate data resulting 
# from the CCDC's data processing and validation procedures.
#
#######################################################################

data_EWEMID
_chemical_formula_moiety         'C26 H42 Cl3 Li1 N2 O2 Si2'
_chemical_name_systematic        
(1,2-bis(Dimethylamino)ethane-N,N')-(3-(\a-oxy-2,4,6-trichlorobenzylidene)-1,2-dimethyl-4-oxo-5,5-bis(trimethylsilyl)cyclopentene-O,O')-lithium
_symmetry_cell_setting           triclinic
_symmetry_space_group_name_H-M   'P -1'
_symmetry_Int_Tables_number      2
_space_group_name_Hall           '-P 1'
loop_
_symmetry_equiv_pos_site_id
_symmetry_equiv_pos_as_xyz
1 x,y,z
2 -x,-y,-z
_cell_length_a                   9.4842(19)
_cell_length_b                   13.224(3)
_cell_length_c                   14.156(3)
_cell_angle_alpha                78.42(3)
_cell_angle_beta                 82.64(3)
_cell_angle_gamma                80.47(3)
_cell_volume                     1707
_cell_formula_units_Z            2
loop_
_atom_site_label
_atom_site_type_symbol
_atom_site_fract_x
_atom_site_fract_y
_atom_site_fract_z
C1 C 0.8295(7) 0.7597(5) 0.2779(6)
C2 C 0.7786(7) 0.8637(5) 0.2185(5)
C3 C 0.8312(7) 0.8595(5) 0.1145(5)
C4 C 0.9035(7) 0.7617(5) 0.1049(5)
C5 C 0.9116(6) 0.6896(4) 0.2060(5)
C6 C 0.6955(7) 0.9475(6) 0.2612(6)
C7 C 0.8094(7) 0.9510(4) 0.0315(4)
H1 H 0.8661 0.9342 -0.0259
H2 H 0.8384 1.0111 0.0477
H3 H 0.7098 0.9658 0.0202
C8 C 0.9705(7) 0.7294(5) 0.0107(4)
H4 H 0.9119 0.7632 -0.0403
H5 H 0.9772 0.6551 0.0171
H6 H 1.0648 0.7492 -0.0044
C9 C 0.6468(9) 1.0527(5) 0.1999(4)
C10 C 0.7270(7) 1.1315(6) 0.1868(5)
C11 C 0.6819(8) 1.2280(5) 0.1403(5)
H7 H 0.7348 1.2825 0.1347
C12 C 0.5557(10) 1.2413(5) 0.1021(5)
C13 C 0.4650(7) 1.1647(6) 0.1119(4)
H8 H 0.3756 1.1787 0.0879
C14 C 0.5198(8) 1.0668(5) 0.1603(5)
C15 C 0.6133(6) 0.6280(5) 0.2269(5)
H9 H 0.5842 0.6573 0.2844
H10 H 0.5585 0.5731 0.2272
H11 H 0.5971 0.6813 0.1708
C16 C 0.8419(8) 0.4973(5) 0.1245(5)
H12 H 0.8330 0.5432 0.0630
H13 H 0.7745 0.4486 0.1336
H14 H 0.9377 0.4601 0.1258
C17 C 0.8325(7) 0.4803(4) 0.3392(5)
H15 H 0.9336 0.4581 0.3429
H16 H 0.7857 0.4209 0.3404
H17 H 0.7930 0.5130 0.3933
C18 C 1.2061(6) 0.5426(4) 0.1745(5)
H18 H 1.1929 0.5577 0.1068
H19 H 1.1681 0.4796 0.2045
H20 H 1.3068 0.5338 0.1823
C19 C 1.1253(6) 0.6131(5) 0.3689(5)
H21 H 1.2202 0.6191 0.3818
H22 H 1.1091 0.5418 0.3885
H23 H 1.0558 0.6564 0.4045
C20 C 1.1946(7) 0.7761(5) 0.1892(6)
H24 H 1.2191 0.8015 0.2430
H25 H 1.1294 0.8289 0.1534
H26 H 1.2801 0.7595 0.1477
C21 C 0.5641(8) 0.6344(6) 0.5413(6)
H27 H 0.5113 0.5966 0.5957
H28 H 0.6630 0.6032 0.5379
H29 H 0.5245 0.6322 0.4828
C22 C 0.4085(10) 0.7827(6) 0.5506(7)
H30 H 0.3750 0.7686 0.4941
H31 H 0.3947 0.8567 0.5486
H32 H 0.3553 0.7498 0.6076
C23 C 0.5955(15) 0.7524(12) 0.6481(9)
H33 H 0.5703 0.6923 0.6950
H34 H 0.5382 0.8138 0.6680
C24 C 0.7547(17) 0.7596(14) 0.6529(13)
H35 H 0.7683 0.7836 0.7110
H36 H 0.8143 0.6928 0.6509
C25 C 0.7717(9) 0.9398(6) 0.5782(6)
H37 H 0.6723 0.9700 0.5800
H38 H 0.8247 0.9764 0.5233
H39 H 0.8093 0.9450 0.6366
C26 C 0.9465(12) 0.8025(11) 0.5556(9)
H40 H 0.9892 0.8151 0.6093
H41 H 0.9836 0.8438 0.4968
H42 H 0.9690 0.7299 0.5514
Cl1 Cl 0.8896(2) 1.11129(13) 0.23716(14)
Cl2 Cl 0.4839(2) 1.36479(12) 0.03937(15)
Cl3 Cl 0.41728(19) 0.96558(12) 0.17333(14)
Li1 Li 0.6937(12) 0.8147(7) 0.4538(8)
N1 N 0.5538(8) 0.7438(5) 0.5531(6)
N2 N 0.7846(11) 0.8322(7) 0.5704(8)
O1 O 0.8074(5) 0.7303(3) 0.3680(3)
O2 O 0.6555(4) 0.9369(3) 0.3533(3)
Si1 Si 0.8035(2) 0.57556(15) 0.22384(17)
Si2 Si 1.1071(2) 0.65635(15) 0.23483(17)
loop_
_geom_bond_atom_site_label_1
_geom_bond_atom_site_label_2
_geom_bond_site_symmetry_1
_geom_bond_site_symmetry_2
C1 C2 1_555 1_555
C2 C3 1_555 1_555
C3 C4 1_555 1_555
C4 C5 1_555 1_555
C5 C1 1_555 1_555
C6 C2 1_555 1_555
C7 C3 1_555 1_555
H1 C7 1_555 1_555
H2 C7 1_555 1_555
H3 C7 1_555 1_555
C8 C4 1_555 1_555
H4 C8 1_555 1_555
H5 C8 1_555 1_555
H6 C8 1_555 1_555
C9 C6 1_555 1_555
C10 C9 1_555 1_555
C11 C10 1_555 1_555
H7 C11 1_555 1_555
C12 C11 1_555 1_555
C13 C12 1_555 1_555
H8 C13 1_555 1_555
C14 C9 1_555 1_555
C15 H9 1_555 1_555
H10 C15 1_555 1_555
H11 C15 1_555 1_555
C16 H12 1_555 1_555
H13 C16 1_555 1_555
H14 C16 1_555 1_555
C17 H15 1_555 1_555
H16 C17 1_555 1_555
H17 C17 1_555 1_555
C18 H18 1_555 1_555
H19 C18 1_555 1_555
H20 C18 1_555 1_555
C19 H21 1_555 1_555
H22 C19 1_555 1_555
H23 C19 1_555 1_555
C20 H24 1_555 1_555
H25 C20 1_555 1_555
H26 C20 1_555 1_555
C21 H27 1_555 1_555
H28 C21 1_555 1_555
H29 C21 1_555 1_555
C22 H30 1_555 1_555
H31 C22 1_555 1_555
H32 C22 1_555 1_555
C23 H33 1_555 1_555
H34 C23 1_555 1_555
C24 C23 1_555 1_555
H35 C24 1_555 1_555
H36 C24 1_555 1_555
C25 H37 1_555 1_555
H38 C25 1_555 1_555
H39 C25 1_555 1_555
C26 H40 1_555 1_555
H41 C26 1_555 1_555
H42 C26 1_555 1_555
Cl1 C10 1_555 1_555
Cl2 C12 1_555 1_555
Cl3 C14 1_555 1_555
Li1 N1 1_555 1_555
N1 C21 1_555 1_555
N2 C24 1_555 1_555
O1 C1 1_555 1_555
O2 C6 1_555 1_555
Si1 C5 1_555 1_555
Si2 C5 1_555 1_555
C13 C14 1_555 1_555
C15 Si1 1_555 1_555
C16 Si1 1_555 1_555
C17 Si1 1_555 1_555
C18 Si2 1_555 1_555
C19 Si2 1_555 1_555
C20 Si2 1_555 1_555
C22 N1 1_555 1_555
C23 N1 1_555 1_555
C25 N2 1_555 1_555
C26 N2 1_555 1_555
Li1 N2 1_555 1_555
Li1 O1 1_555 1_555
Li1 O2 1_555 1_555

#END
