
#######################################################################
#
#                 Cambridge Crystallographic Data Centre
#                                CCDC 
#
#######################################################################
#
# If this CIF has been generated from an entry in the Cambridge 
# Structural Database, then it will include bibliographic, chemical, 
# crystal, experimental, refinement or atomic coordinate data resulting 
# from the CCDC's data processing and validation procedures.
#
#######################################################################

data_EWEVOT
_chemical_formula_moiety         'C22 H17 N3 O5'
_chemical_name_systematic        
'methyl 3-(1,3-dioxo-1,3-dihydro-2H-isoindol-2-yl)-4-oxo-4-(quinolin-8-ylamino)butanoate'
_symmetry_cell_setting           orthorhombic
_symmetry_space_group_name_H-M   'P 21 21 21'
_symmetry_Int_Tables_number      19
_space_group_name_Hall           'P 2ac 2ab'
loop_
_symmetry_equiv_pos_site_id
_symmetry_equiv_pos_as_xyz
1 x,y,z
2 1/2-x,-y,1/2+z
3 1/2+x,1/2-y,-z
4 -x,1/2+y,1/2-z
_cell_length_a                   10.4773(6)
_cell_length_b                   11.3275(6)
_cell_length_c                   15.9059(8)
_cell_angle_alpha                90
_cell_angle_beta                 90
_cell_angle_gamma                90
_cell_volume                     1887.74
_exptl_crystal_colour            colorless
_exptl_crystal_description       block
_cell_formula_units_Z            4
loop_
_atom_site_label
_atom_site_type_symbol
_atom_site_fract_x
_atom_site_fract_y
_atom_site_fract_z
O1 O 0.6740(2) 0.94369(17) -0.03966(12)
O2 O 0.39250(19) 0.71164(17) 0.10315(11)
O3 O 0.69252(17) 0.65170(16) 0.07771(10)
O4 O 0.5637(2) 0.61511(19) -0.20654(11)
O5 O 0.3918(2) 0.50708(18) -0.17838(11)
N1 N 0.5305(2) 0.80885(17) 0.01320(11)
N2 N 0.68272(19) 0.52584(18) -0.03275(12)
H1 H 0.6503 0.5187 -0.0822
N3 N 0.70700(19) 0.34991(18) -0.14011(12)
C1 C 0.5604(2) 0.9772(2) 0.09179(15)
C2 C 0.6004(3) 1.0840(3) 0.12393(18)
H2 H 0.6588 1.1311 0.0953
C3 C 0.5500(3) 1.1181(3) 0.20063(19)
H3 H 0.5770 1.1885 0.2249
C4 C 0.4606(3) 1.0500(3) 0.24197(18)
H4 H 0.4278 1.0758 0.2931
C5 C 0.4192(3) 0.9446(3) 0.20869(15)
H5 H 0.3576 0.8993 0.2358
C6 C 0.4723(2) 0.9083(2) 0.13354(14)
C7 C 0.4555(2) 0.7968(2) 0.08589(14)
C8 C 0.5996(2) 0.9148(2) 0.01409(15)
C9 C 0.5647(2) 0.7112(2) -0.04120(13)
H6 H 0.6148 0.7438 -0.0878
C10 C 0.6528(2) 0.6268(2) 0.00812(13)
C11 C 0.7589(2) 0.4311(2) -0.00634(14)
C12 C 0.8210(3) 0.4234(2) 0.06959(15)
H7 H 0.8122 0.4830 0.1094
C13 C 0.8982(3) 0.3242(3) 0.08662(18)
H8 H 0.9407 0.3198 0.1379
C14 C 0.9122(3) 0.2354(3) 0.03059(17)
H9 H 0.9637 0.1711 0.0437
C15 C 0.8491(2) 0.2399(2) -0.04777(16)
C16 C 0.7714(2) 0.3384(2) -0.06599(14)
C17 C 0.7231(3) 0.2660(2) -0.19631(17)
H10 H 0.6806 0.2737 -0.2474
C18 C 0.7990(3) 0.1666(2) -0.18471(19)
H11 H 0.8075 0.1107 -0.2272
C19 C 0.8604(3) 0.1525(2) -0.11029(19)
H12 H 0.9097 0.0856 -0.1006
C20 C 0.4469(2) 0.6511(2) -0.07946(14)
H13 H 0.4142 0.5934 -0.0399
H14 H 0.3810 0.7099 -0.0884
C21 C 0.4756(3) 0.5908(2) -0.16148(15)
C22 C 0.4117(3) 0.4395(3) -0.25483(18)
H15 H 0.4005 0.4899 -0.3028
H16 H 0.3511 0.3760 -0.2572
H17 H 0.4967 0.4078 -0.2551
loop_
_geom_bond_atom_site_label_1
_geom_bond_atom_site_label_2
_geom_bond_site_symmetry_1
_geom_bond_site_symmetry_2
O1 C8 1_555 1_555
O2 C7 1_555 1_555
O3 C10 1_555 1_555
O4 C21 1_555 1_555
O5 C21 1_555 1_555
N1 C7 1_555 1_555
N2 H1 1_555 1_555
N3 C16 1_555 1_555
C1 C2 1_555 1_555
C2 H2 1_555 1_555
C3 C2 1_555 1_555
H3 C3 1_555 1_555
C4 C3 1_555 1_555
H4 C4 1_555 1_555
C5 C4 1_555 1_555
H5 C5 1_555 1_555
C6 C1 1_555 1_555
C7 C6 1_555 1_555
C8 N1 1_555 1_555
C9 N1 1_555 1_555
H6 C9 1_555 1_555
C10 N2 1_555 1_555
C11 N2 1_555 1_555
C12 C11 1_555 1_555
H7 C12 1_555 1_555
C13 C12 1_555 1_555
H8 C13 1_555 1_555
C14 C13 1_555 1_555
H9 C14 1_555 1_555
C15 C14 1_555 1_555
C16 C11 1_555 1_555
C17 N3 1_555 1_555
H10 C17 1_555 1_555
C18 C17 1_555 1_555
H11 C18 1_555 1_555
C19 C15 1_555 1_555
H12 C19 1_555 1_555
C20 C9 1_555 1_555
H13 C20 1_555 1_555
H14 C20 1_555 1_555
C21 C20 1_555 1_555
C22 O5 1_555 1_555
H15 C22 1_555 1_555
H16 C22 1_555 1_555
H17 C22 1_555 1_555
C1 C8 1_555 1_555
C5 C6 1_555 1_555
C9 C10 1_555 1_555
C15 C16 1_555 1_555
C18 C19 1_555 1_555

#END
