
#######################################################################
#
#                 Cambridge Crystallographic Data Centre
#                                CCDC 
#
#######################################################################
#
# If this CIF has been generated from an entry in the Cambridge 
# Structural Database, then it will include bibliographic, chemical, 
# crystal, experimental, refinement or atomic coordinate data resulting 
# from the CCDC's data processing and validation procedures.
#
#######################################################################

data_EWIQOS
_chemical_compound_source        'endolichenic fungus Biatriospora sp. (8331C)'
_chemical_name_common            'Biatriosporin A'
_chemical_formula_moiety         'C15 H20 O5'
_chemical_name_systematic        
(2R,3R,4S)-4,8-dihydroxy-3-((S)-2-hydroxypropyl)-6-methoxy-2-methyl-3,4-dihydronaphthalen-1(2H)-one
_symmetry_cell_setting           orthorhombic
_symmetry_space_group_name_H-M   'P 21 21 21'
_symmetry_Int_Tables_number      19
_space_group_name_Hall           'P 2ac 2ab'
loop_
_symmetry_equiv_pos_site_id
_symmetry_equiv_pos_as_xyz
1 x,y,z
2 1/2+x,1/2-y,-z
3 -x,1/2+y,1/2-z
4 1/2-x,-y,1/2+z
_cell_length_a                   5.0164(3)
_cell_length_b                   14.1582(7)
_cell_length_c                   19.7723(11)
_cell_angle_alpha                90
_cell_angle_beta                 90
_cell_angle_gamma                90
_cell_volume                     1404.29
_exptl_crystal_colour            colorless
_cell_formula_units_Z            4
_exptl_crystal_recrystallization_method methanol
loop_
_atom_site_label
_atom_site_type_symbol
_atom_site_fract_x
_atom_site_fract_y
_atom_site_fract_z
O1 O 0.8392(5) 0.78943(15) 0.98044(12)
H1 H 0.974(9) 0.761(3) 0.991(2)
O2 O 0.1313(5) 0.90830(13) 0.60245(11)
O3 O 0.5282(5) 0.60577(14) 0.62348(12)
H2 H 0.635(10) 0.581(3) 0.650(2)
O4 O 0.6830(5) 0.94650(13) 0.80070(11)
H3 H 0.795(9) 0.994(3) 0.802(2)
O5 O 0.8962(5) 0.58821(12) 0.71299(12)
C1 C 0.9195(6) 0.87115(18) 0.94229(16)
H4 H 0.7583 0.9052 0.9286
C2 C 1.0660(6) 0.84121(19) 0.87898(15)
H5 H 1.2054 0.7971 0.8916
H6 H 1.1513 0.8963 0.8595
C3 C 0.8902(5) 0.79485(18) 0.82462(15)
H7 H 0.7255 0.7731 0.8463
C4 C 0.8166(5) 0.86810(16) 0.77103(15)
H8 H 0.9817 0.8911 0.7503
C5 C 0.6429(5) 0.82796(16) 0.71602(14)
C6 C 0.4611(5) 0.88343(17) 0.68292(15)
H9 H 0.4419 0.9465 0.6952
C7 C 0.3037(6) 0.84639(19) 0.63078(15)
C8 C -0.0272(7) 0.8769(2) 0.54699(18)
H10 H 0.0870 0.8551 0.5113
H11 H -0.1344 0.9283 0.5308
H12 H -0.1408 0.8263 0.5615
C9 C 0.3270(6) 0.75284(18) 0.61187(15)
H13 H 0.2202 0.7282 0.5777
C10 C 0.5121(6) 0.69615(18) 0.64455(15)
C11 C 0.6740(5) 0.73137(17) 0.69699(14)
C12 C 1.0850(8) 0.9364(2) 0.9859(2)
H14 H 0.9930 0.9483 1.0276
H15 H 1.1131 0.9950 0.9625
H16 H 1.2540 0.9074 0.9953
C13 C 1.0239(6) 0.70940(18) 0.79023(15)
H17 H 1.1932 0.7319 0.7715
C14 C 1.0916(11) 0.6301(2) 0.8399(2)
H18 H 0.9299 0.6028 0.8569
H19 H 1.1933 0.6554 0.8769
H20 H 1.1942 0.5825 0.8172
C15 C 0.8639(6) 0.67115(17) 0.73180(15)
loop_
_geom_bond_atom_site_label_1
_geom_bond_atom_site_label_2
_geom_bond_site_symmetry_1
_geom_bond_site_symmetry_2
O1 H1 1_555 1_555
O2 C7 1_555 1_555
O3 H2 1_555 1_555
O4 H3 1_555 1_555
O5 C15 1_555 1_555
C1 O1 1_555 1_555
H4 C1 1_555 1_555
C2 C1 1_555 1_555
H5 C2 1_555 1_555
H6 C2 1_555 1_555
C3 C2 1_555 1_555
H7 C3 1_555 1_555
C4 O4 1_555 1_555
H8 C4 1_555 1_555
C5 C4 1_555 1_555
C6 C5 1_555 1_555
H9 C6 1_555 1_555
C7 C6 1_555 1_555
C8 O2 1_555 1_555
H10 C8 1_555 1_555
H11 C8 1_555 1_555
H12 C8 1_555 1_555
C9 C7 1_555 1_555
H13 C9 1_555 1_555
C10 O3 1_555 1_555
C11 C5 1_555 1_555
C12 C1 1_555 1_555
H14 C12 1_555 1_555
H15 C12 1_555 1_555
H16 C12 1_555 1_555
C13 C3 1_555 1_555
H17 C13 1_555 1_555
C14 C13 1_555 1_555
H18 C14 1_555 1_555
H19 C14 1_555 1_555
H20 C14 1_555 1_555
C15 C11 1_555 1_555
C3 C4 1_555 1_555
C9 C10 1_555 1_555
C10 C11 1_555 1_555
C13 C15 1_555 1_555

#END
