
#######################################################################
#
#                 Cambridge Crystallographic Data Centre
#                                CCDC 
#
#######################################################################
#
# If this CIF has been generated from an entry in the Cambridge 
# Structural Database, then it will include bibliographic, chemical, 
# crystal, experimental, refinement or atomic coordinate data resulting 
# from the CCDC's data processing and validation procedures.
#
#######################################################################

data_EWIROT
_chemical_formula_moiety         'C33 H21 N1 O3'
_chemical_name_systematic        
1,16-diphenyl-19-azahexacyclo[14.5.1.0^2,15^.0^3,8^.0^9,14^.0^17,21^]docosa-2,4,6,8,10,12,14-heptaene-18,20,22-trione
_symmetry_cell_setting           monoclinic
_symmetry_space_group_name_H-M   'P 21/c'
_symmetry_Int_Tables_number      14
_space_group_name_Hall           '-P 2ybc'
loop_
_symmetry_equiv_pos_site_id
_symmetry_equiv_pos_as_xyz
1 x,y,z
2 -x,1/2+y,1/2-z
3 -x,-y,-z
4 x,1/2-y,1/2+z
_cell_length_a                   14.9967(16)
_cell_length_b                   10.0571(8)
_cell_length_c                   19.0345(15)
_cell_angle_alpha                90
_cell_angle_beta                 127.575(5)
_cell_angle_gamma                90
_cell_volume                     2275.31
_exptl_crystal_description       prism
_cell_formula_units_Z            4
loop_
_atom_site_label
_atom_site_type_symbol
_atom_site_fract_x
_atom_site_fract_y
_atom_site_fract_z
O1 O 0.11156(17) 0.9625(2) 0.47467(14)
O2 O 0.3378(2) 0.7364(2) 0.35916(17)
O3 O -0.02665(19) 0.6041(2) 0.20362(14)
N1 N 0.1614(2) 0.6457(3) 0.27797(17)
H1 H 0.1755 0.5774 0.2590
C1 C 0.5259(3) 0.9319(4) 0.6993(3)
H2 H 0.5914 0.9602 0.7530
C2 C 0.5068(3) 0.9635(4) 0.6217(3)
H3 H 0.5598 1.0136 0.6227
C3 C 0.4085(3) 0.9218(4) 0.5401(3)
H4 H 0.3965 0.9437 0.4875
C4 C 0.3299(2) 0.8480(3) 0.5385(2)
C5 C 0.2199(2) 0.8019(3) 0.45479(18)
C6 C 0.1151(2) 0.8720(3) 0.43623(18)
C7 C 0.0217(2) 0.7878(3) 0.35633(17)
C8 C -0.0987(2) 0.8263(3) 0.31271(18)
C9 C -0.1304(2) 0.8771(3) 0.36204(19)
H5 H -0.0760 0.8927 0.4223
C10 C -0.2417(3) 0.9051(3) 0.3231(2)
H6 H -0.2616 0.9391 0.3573
C11 C -0.3234(3) 0.8829(4) 0.2340(2)
H7 H -0.3986 0.9001 0.2081
C12 C -0.1815(2) 0.8075(3) 0.22205(19)
H8 H -0.1618 0.7761 0.1872
C13 C -0.2931(3) 0.8351(3) 0.1835(2)
H9 H -0.3479 0.8213 0.1231
C14 C 0.0626(2) 0.8012(3) 0.29765(18)
H10 H 0.0223 0.8729 0.2542
C15 C 0.1900(2) 0.8308(3) 0.36193(19)
H11 H 0.2058 0.9235 0.3572
C16 C 0.1830(2) 0.6596(3) 0.45362(17)
C17 C 0.2521(2) 0.5424(3) 0.49089(17)
C18 C 0.1992(2) 0.4215(3) 0.48266(18)
C19 C 0.0788(2) 0.4182(3) 0.43954(18)
C20 C 0.0116(2) 0.5331(3) 0.39667(17)
C21 C -0.1050(2) 0.5244(3) 0.3535(2)
H12 H -0.1501 0.5987 0.3242
C22 C -0.1532(3) 0.4097(3) 0.3536(2)
H13 H -0.2303 0.4063 0.3250
C23 C -0.0872(3) 0.2980(3) 0.3965(2)
H14 H -0.1200 0.2201 0.3974
C24 C 0.0252(3) 0.3017(3) 0.4373(2)
H15 H 0.0678 0.2251 0.4645
C25 C 0.0685(2) 0.6534(3) 0.40349(17)
C26 C 0.2653(3) 0.3053(3) 0.5145(2)
H16 H 0.2324 0.2245 0.5107
C27 C 0.3770(3) 0.3090(3) 0.5510(2)
H17 H 0.4191 0.2310 0.5717
C28 C 0.4279(3) 0.4276(3) 0.5573(2)
H18 H 0.5036 0.4290 0.5813
C29 C 0.3674(2) 0.5428(3) 0.5283(2)
H19 H 0.4023 0.6224 0.5333
C30 C 0.4481(3) 0.8581(4) 0.6982(2)
H20 H 0.4608 0.8354 0.7510
C31 C 0.3510(3) 0.8179(3) 0.6182(2)
H21 H 0.2981 0.7689 0.6178
C32 C 0.2435(3) 0.7359(3) 0.3359(2)
C33 C 0.0554(3) 0.6723(3) 0.25260(19)
loop_
_geom_bond_atom_site_label_1
_geom_bond_atom_site_label_2
_geom_bond_site_symmetry_1
_geom_bond_site_symmetry_2
O1 C6 1_555 1_555
O2 C32 1_555 1_555
O3 C33 1_555 1_555
N1 H1 1_555 1_555
C1 H2 1_555 1_555
C2 C1 1_555 1_555
H3 C2 1_555 1_555
C3 C2 1_555 1_555
H4 C3 1_555 1_555
C4 C3 1_555 1_555
C5 C4 1_555 1_555
C6 C5 1_555 1_555
C7 C6 1_555 1_555
C8 C7 1_555 1_555
C9 C8 1_555 1_555
H5 C9 1_555 1_555
C10 C9 1_555 1_555
H6 C10 1_555 1_555
C11 C10 1_555 1_555
H7 C11 1_555 1_555
C12 C8 1_555 1_555
H8 C12 1_555 1_555
C13 C11 1_555 1_555
H9 C13 1_555 1_555
C14 C7 1_555 1_555
H10 C14 1_555 1_555
C15 C5 1_555 1_555
H11 C15 1_555 1_555
C16 C5 1_555 1_555
C17 C16 1_555 1_555
C18 C17 1_555 1_555
C19 C18 1_555 1_555
C20 C19 1_555 1_555
C21 C20 1_555 1_555
H12 C21 1_555 1_555
C22 C21 1_555 1_555
H13 C22 1_555 1_555
C23 C22 1_555 1_555
H14 C23 1_555 1_555
C24 C19 1_555 1_555
H15 C24 1_555 1_555
C25 C7 1_555 1_555
C26 C18 1_555 1_555
H16 C26 1_555 1_555
C27 C26 1_555 1_555
H17 C27 1_555 1_555
C28 C27 1_555 1_555
H18 C28 1_555 1_555
C29 C17 1_555 1_555
H19 C29 1_555 1_555
C30 C1 1_555 1_555
H20 C30 1_555 1_555
C31 C4 1_555 1_555
H21 C31 1_555 1_555
C32 N1 1_555 1_555
C33 N1 1_555 1_555
C12 C13 1_555 1_555
C14 C15 1_555 1_555
C14 C33 1_555 1_555
C15 C32 1_555 1_555
C16 C25 1_555 1_555
C20 C25 1_555 1_555
C23 C24 1_555 1_555
C28 C29 1_555 1_555
C30 C31 1_555 1_555

#END
