
#######################################################################
#
#                 Cambridge Crystallographic Data Centre
#                                CCDC 
#
#######################################################################
#
# If this CIF has been generated from an entry in the Cambridge 
# Structural Database, then it will include bibliographic, chemical, 
# crystal, experimental, refinement or atomic coordinate data resulting 
# from the CCDC's data processing and validation procedures.
#
#######################################################################

data_EWIRUZ
_chemical_formula_moiety         'C32 H19 N1 O2'
_chemical_name_systematic        
9,13-diphenyl-10H-phenanthro[9,10-f]isoindole-10,12(11H)-dione
_symmetry_cell_setting           triclinic
_symmetry_space_group_name_H-M   'P -1'
_symmetry_Int_Tables_number      2
_space_group_name_Hall           '-P 1'
loop_
_symmetry_equiv_pos_site_id
_symmetry_equiv_pos_as_xyz
1 x,y,z
2 -x,-y,-z
_cell_length_a                   10.1389(4)
_cell_length_b                   10.7963(4)
_cell_length_c                   12.5118(5)
_cell_angle_alpha                115.0670(10)
_cell_angle_beta                 108.334(2)
_cell_angle_gamma                96.253(2)
_cell_volume                     1129.93
_exptl_crystal_description       prism
_cell_formula_units_Z            2
loop_
_atom_site_label
_atom_site_type_symbol
_atom_site_fract_x
_atom_site_fract_y
_atom_site_fract_z
O1 O 0.37564(15) 0.08308(16) 0.06340(12)
O2 O 0.81044(15) 0.09654(17) 0.32682(13)
N1 N 0.60296(16) 0.08127(17) 0.17395(14)
H1 H 0.6278 0.0469 0.1098
C1 C 0.0227(3) 0.2540(3) 0.0639(2)
H2 H -0.0552 0.2560 0.0015
C2 C 0.1576(3) 0.3338(3) 0.1015(2)
H3 H 0.1720 0.3911 0.0655
C3 C 0.2732(2) 0.3304(2) 0.19285(17)
H4 H 0.3657 0.3849 0.2175
C4 C 0.25433(18) 0.24720(18) 0.24897(15)
C5 C 0.38319(17) 0.23976(17) 0.34368(15)
C6 C 0.47819(18) 0.17615(18) 0.29712(15)
C7 C 0.60436(18) 0.16577(18) 0.37583(16)
C8 C 0.63193(18) 0.20133(18) 0.50190(15)
C9 C 0.77153(18) 0.19190(19) 0.58091(16)
C10 C 0.8046(2) 0.0626(2) 0.54708(19)
H5 H 0.7394 -0.0192 0.4736
C11 C 0.9328(2) 0.0543(3) 0.6210(2)
H6 H 0.9542 -0.0326 0.5972
C12 C 1.0291(2) 0.1742(3) 0.7298(2)
H7 H 1.1149 0.1682 0.7807
C13 C 0.0002(2) 0.1700(3) 0.1170(2)
H8 H -0.0929 0.1154 0.0906
C14 C 0.1167(2) 0.1662(2) 0.21101(19)
H9 H 0.1015 0.1096 0.2475
C15 C 0.6907(2) 0.1117(2) 0.29732(17)
C16 C 0.47358(19) 0.11128(19) 0.16407(16)
C17 C 0.8710(2) 0.3133(2) 0.68912(18)
H10 H 0.8518 0.4011 0.7116
C18 C 0.9990(2) 0.3037(3) 0.7639(2)
H11 H 1.0650 0.3851 0.8374
C19 C 0.52681(17) 0.25261(17) 0.55003(15)
C20 C 0.52734(18) 0.26416(18) 0.67245(16)
C21 C 0.6052(2) 0.1937(2) 0.73178(18)
H12 H 0.6605 0.1408 0.6946
C22 C 0.6011(2) 0.2014(2) 0.8435(2)
H13 H 0.6562 0.1569 0.8825
C23 C 0.5157(3) 0.2749(3) 0.8979(2)
H14 H 0.5138 0.2809 0.9737
C24 C 0.4341(3) 0.3386(2) 0.83965(19)
H15 H 0.3743 0.3852 0.8753
C25 C 0.43772(19) 0.33567(19) 0.72699(16)
C26 C 0.34934(19) 0.40426(19) 0.66649(16)
C27 C 0.2770(2) 0.4958(2) 0.72854(19)
H16 H 0.2859 0.5122 0.8100
C28 C 0.1943(2) 0.5613(2) 0.6734(2)
H17 H 0.1448 0.6183 0.7153
C29 C 0.1850(2) 0.5422(2) 0.55477(19)
H18 H 0.1306 0.5881 0.5171
C30 C 0.25583(19) 0.45554(19) 0.49216(17)
H19 H 0.2505 0.4461 0.4134
C31 C 0.33623(17) 0.38051(18) 0.54315(15)
C32 C 0.41421(17) 0.28918(17) 0.47721(15)
loop_
_geom_bond_atom_site_label_1
_geom_bond_atom_site_label_2
_geom_bond_site_symmetry_1
_geom_bond_site_symmetry_2
O1 C16 1_555 1_555
O2 C15 1_555 1_555
N1 H1 1_555 1_555
C1 H2 1_555 1_555
C2 C1 1_555 1_555
H3 C2 1_555 1_555
C3 C2 1_555 1_555
H4 C3 1_555 1_555
C4 C3 1_555 1_555
C5 C4 1_555 1_555
C6 C5 1_555 1_555
C7 C6 1_555 1_555
C8 C7 1_555 1_555
C9 C8 1_555 1_555
C10 C9 1_555 1_555
H5 C10 1_555 1_555
C11 C10 1_555 1_555
H6 C11 1_555 1_555
C12 C11 1_555 1_555
H7 C12 1_555 1_555
C13 C1 1_555 1_555
H8 C13 1_555 1_555
C14 C4 1_555 1_555
H9 C14 1_555 1_555
C15 N1 1_555 1_555
C16 N1 1_555 1_555
C17 C9 1_555 1_555
H10 C17 1_555 1_555
C18 C12 1_555 1_555
H11 C18 1_555 1_555
C19 C8 1_555 1_555
C20 C19 1_555 1_555
C21 C20 1_555 1_555
H12 C21 1_555 1_555
C22 C21 1_555 1_555
H13 C22 1_555 1_555
C23 C22 1_555 1_555
H14 C23 1_555 1_555
C24 C23 1_555 1_555
H15 C24 1_555 1_555
C25 C20 1_555 1_555
C26 C25 1_555 1_555
C27 C26 1_555 1_555
H16 C27 1_555 1_555
C28 C27 1_555 1_555
H17 C28 1_555 1_555
C29 C28 1_555 1_555
H18 C29 1_555 1_555
C30 C29 1_555 1_555
H19 C30 1_555 1_555
C31 C26 1_555 1_555
C32 C5 1_555 1_555
C6 C16 1_555 1_555
C7 C15 1_555 1_555
C13 C14 1_555 1_555
C17 C18 1_555 1_555
C19 C32 1_555 1_555
C24 C25 1_555 1_555
C30 C31 1_555 1_555
C31 C32 1_555 1_555

#END
