
#######################################################################
#
#                 Cambridge Crystallographic Data Centre
#                                CCDC 
#
#######################################################################
#
# If this CIF has been generated from an entry in the Cambridge 
# Structural Database, then it will include bibliographic, chemical, 
# crystal, experimental, refinement or atomic coordinate data resulting 
# from the CCDC's data processing and validation procedures.
#
#######################################################################

data_EWISUA
_chemical_compound_source        'roots of Pentas parvifolia'
_chemical_name_common            'parvinaphthol C'
_chemical_formula_moiety         'C24 H28 O7'
_chemical_name_systematic        
'2-ethoxy-9-hydroxy-12-methoxy-3,5a-dimethyl-2,3,3a,4,5,5a,12c,12d-octahydro-1,6-dioxabenzo[l]acephenanthrylene-10-carboxylic acid'
_chemical_properties_biological  'marginal cytotoxic activity'
_symmetry_cell_setting           orthorhombic
_symmetry_space_group_name_H-M   'P 21 21 21'
_symmetry_Int_Tables_number      19
_space_group_name_Hall           'P 2ac 2ab'
loop_
_symmetry_equiv_pos_site_id
_symmetry_equiv_pos_as_xyz
1 x,y,z
2 1/2-x,-y,1/2+z
3 1/2+x,1/2-y,-z
4 -x,1/2+y,1/2-z
_cell_length_a                   5.20049(4)
_cell_length_b                   18.36541(10)
_cell_length_c                   22.63281(12)
_cell_angle_alpha                90
_cell_angle_beta                 90
_cell_angle_gamma                90
_cell_volume                     2161.64
_exptl_crystal_colour            colorless
_exptl_crystal_description       plate
_chemical_melting_point          '196.2 deg.C'
_cell_formula_units_Z            4
loop_
_atom_site_label
_atom_site_type_symbol
_atom_site_fract_x
_atom_site_fract_y
_atom_site_fract_z
C1 C 0.2876(4) 0.34497(10) 0.37570(8)
C2 C 0.4835(4) 0.39557(10) 0.37305(8)
C3 C 0.5222(4) 0.43816(10) 0.32079(8)
C4 C 0.3661(4) 0.42677(9) 0.26972(8)
C5 C 0.1704(4) 0.37084(10) 0.27380(8)
C6 C 0.1321(4) 0.33316(10) 0.32479(8)
H1 H 0.0009 0.2988 0.3265
C7 C 0.2380(4) 0.30560(9) 0.43044(8)
C8 C 0.7208(4) 0.49064(10) 0.32022(9)
H2 H 0.8238 0.4967 0.3534
C9 C 0.7626(4) 0.53240(10) 0.27149(9)
H3 H 0.8915 0.5675 0.2715
C10 C 0.6086(4) 0.52191(10) 0.22106(8)
C11 C 0.4152(4) 0.47030(9) 0.21849(8)
C12 C 0.4519(4) 0.59351(10) 0.14038(8)
C13 C 0.2514(4) 0.53425(9) 0.12647(8)
H4 H 0.0811 0.5529 0.1372
C14 C 0.2927(4) 0.46120(9) 0.15824(8)
H5 H 0.1275 0.4360 0.1624
C15 C 0.3650(4) 0.39007(11) 0.07145(9)
H6 H 0.5076 0.3785 0.0448
C16 C 0.1905(4) 0.44526(11) 0.04075(8)
H7 H 0.0145 0.4361 0.0543
C17 C 0.2593(4) 0.52321(10) 0.05846(8)
H8 H 0.1318 0.5559 0.0408
C18 C 0.5269(4) 0.55050(12) 0.04070(9)
H9 H 0.6576 0.5140 0.0484
H10 H 0.5323 0.5640 -0.0007
C19 C 0.5612(4) 0.61673(11) 0.08046(9)
H11 H 0.4678 0.6582 0.0649
H12 H 0.7415 0.6295 0.0839
C20 C 0.3457(5) 0.65659(11) 0.17626(10)
H13 H 0.2925 0.6393 0.2144
H14 H 0.2009 0.6773 0.1561
H15 H 0.4765 0.6930 0.1810
C21 C 0.3458(6) 0.26540(12) 0.10130(13)
H16 H 0.3821 0.2722 0.1430
H17 H 0.5078 0.2592 0.0807
C22 C 0.1779(7) 0.19844(14) 0.09266(15)
H18 H 0.1498 0.1907 0.0512
H19 H 0.0158 0.2057 0.1121
H20 H 0.2623 0.1567 0.1092
C23 C 0.1939(6) 0.43368(14) -0.02625(10)
H21 H 0.0681 0.4647 -0.0444
H22 H 0.1544 0.3838 -0.0350
H23 H 0.3613 0.4453 -0.0414
C24 C -0.1490(4) 0.30108(12) 0.22376(9)
H24 H -0.2299 0.2982 0.1857
H25 H -0.2774 0.3090 0.2536
H26 H -0.0598 0.2564 0.2317
O1 O 0.6448(3) 0.40902(8) 0.41858(6)
H27 H 0.6123 0.3812 0.4459
O2 O 0.0285(3) 0.35965(8) 0.22420(6)
O3 O 0.3831(3) 0.30861(8) 0.47385(6)
O4 O 0.0236(3) 0.26717(8) 0.43047(6)
H28 H 0.0041 0.2481 0.4629
O5 O 0.6689(3) 0.56378(7) 0.17327(6)
O6 O 0.4695(3) 0.41579(7) 0.12543(6)
O7 O 0.2141(3) 0.32672(8) 0.07881(7)
loop_
_geom_bond_atom_site_label_1
_geom_bond_atom_site_label_2
_geom_bond_site_symmetry_1
_geom_bond_site_symmetry_2
C1 C2 1_555 1_555
C2 C3 1_555 1_555
C3 C4 1_555 1_555
C4 C5 1_555 1_555
C5 C6 1_555 1_555
C6 C1 1_555 1_555
H1 C6 1_555 1_555
C7 C1 1_555 1_555
C8 C3 1_555 1_555
H2 C8 1_555 1_555
C9 C8 1_555 1_555
H3 C9 1_555 1_555
C10 C9 1_555 1_555
C11 C4 1_555 1_555
C12 C13 1_555 1_555
C13 H4 1_555 1_555
C14 C11 1_555 1_555
H5 C14 1_555 1_555
C15 H6 1_555 1_555
C16 C15 1_555 1_555
H7 C16 1_555 1_555
C17 C13 1_555 1_555
H8 C17 1_555 1_555
C18 C17 1_555 1_555
H9 C18 1_555 1_555
H10 C18 1_555 1_555
C19 C12 1_555 1_555
H11 C19 1_555 1_555
H12 C19 1_555 1_555
C20 C12 1_555 1_555
H13 C20 1_555 1_555
H14 C20 1_555 1_555
H15 C20 1_555 1_555
C21 H16 1_555 1_555
H17 C21 1_555 1_555
C22 C21 1_555 1_555
H18 C22 1_555 1_555
H19 C22 1_555 1_555
H20 C22 1_555 1_555
C23 C16 1_555 1_555
H21 C23 1_555 1_555
H22 C23 1_555 1_555
H23 C23 1_555 1_555
C24 H24 1_555 1_555
H25 C24 1_555 1_555
H26 C24 1_555 1_555
O1 C2 1_555 1_555
H27 O1 1_555 1_555
O2 C5 1_555 1_555
O3 C7 1_555 1_555
O4 C7 1_555 1_555
H28 O4 1_555 1_555
O5 C10 1_555 1_555
O6 C14 1_555 1_555
O7 C15 1_555 1_555
C10 C11 1_555 1_555
C12 O5 1_555 1_555
C13 C14 1_555 1_555
C15 O6 1_555 1_555
C16 C17 1_555 1_555
C18 C19 1_555 1_555
C21 O7 1_555 1_555
C24 O2 1_555 1_555

#END
