
#######################################################################
#
#                 Cambridge Crystallographic Data Centre
#                                CCDC 
#
#######################################################################
#
# If this CIF has been generated from an entry in the Cambridge 
# Structural Database, then it will include bibliographic, chemical, 
# crystal, experimental, refinement or atomic coordinate data resulting 
# from the CCDC's data processing and validation procedures.
#
#######################################################################

data_EWITAH
_chemical_compound_source        'roots of Pentas bussei'
_chemical_name_common            'Busseihydroquinone E'
_chemical_formula_moiety         'C23 H26 O7'
_chemical_name_systematic        
'9-hydroxy-2,12-dimethoxy-3,5a-dimethyl-2,3,3a,4,5,5a,12c,12d-octahydro-1,6-dioxabenzo[l]acephenanthrylene-10-carboxylic acid'
_chemical_properties_biological  'marginal cytotoxic activity'
_symmetry_cell_setting           orthorhombic
_symmetry_space_group_name_H-M   'P 21 21 21'
_symmetry_Int_Tables_number      19
_space_group_name_Hall           'P 2ac 2ab'
loop_
_symmetry_equiv_pos_site_id
_symmetry_equiv_pos_as_xyz
1 x,y,z
2 1/2-x,-y,1/2+z
3 1/2+x,1/2-y,-z
4 -x,1/2+y,1/2-z
_cell_length_a                   9.1399(2)
_cell_length_b                   11.2214(3)
_cell_length_c                   19.3280(5)
_cell_angle_alpha                90
_cell_angle_beta                 90
_cell_angle_gamma                90
_cell_volume                     1982.33
_exptl_crystal_colour            colorless
_exptl_crystal_description       plate
_chemical_melting_point          '198.4 deg.C'
_cell_formula_units_Z            4
loop_
_atom_site_label
_atom_site_type_symbol
_atom_site_fract_x
_atom_site_fract_y
_atom_site_fract_z
O1 O 0.2711(3) 0.96207(19) 0.19930(10)
O2 O 0.0154(3) 0.91088(19) 0.10924(12)
O3 O 0.1499(3) 0.4451(2) 0.04249(13)
H1 H 0.1118 0.4249 0.0059
O4 O 0.0279(3) 0.4785(2) -0.07592(14)
O5 O -0.0830(3) 0.6524(2) -0.09659(12)
H2 H -0.1072 0.6177 -0.1321
O6 O 0.2668(3) 0.7034(2) 0.32056(12)
C1 C 0.0104(3) 0.7510(3) 0.02728(16)
H3 H -0.0397 0.7990 -0.0040
C2 C 0.0504(3) 0.7971(3) 0.09004(15)
C3 C 0.0437(3) 0.6317(3) 0.00874(15)
C4 C 0.1261(3) 0.7263(3) 0.14093(15)
O7 O 0.1583(3) 1.1390(2) 0.15886(13)
C5 C 0.1548(3) 0.6052(3) 0.12247(15)
C6 C -0.0026(3) 0.5806(3) -0.05807(17)
C7 C 0.1157(3) 0.5599(3) 0.05619(16)
C8 C 0.2557(4) 1.0886(3) 0.20685(15)
H4 H 0.3519 1.1257 0.2008
C9 C 0.1696(3) 0.7668(3) 0.20876(15)
C10 C 0.2281(4) 0.6832(3) 0.25403(16)
C11 C 0.2175(4) 0.5262(3) 0.17084(17)
H5 H 0.2363 0.4478 0.1581
C12 C 0.1561(3) 0.8951(3) 0.23310(14)
H6 H 0.0614 0.9264 0.2178
C13 C 0.2505(4) 0.5630(3) 0.23519(17)
H7 H 0.2880 0.5094 0.2673
C14 C -0.0863(4) 0.9752(3) 0.06759(18)
H8 H -0.0416 0.9949 0.0241
H9 H -0.1144 1.0471 0.0910
H10 H -0.1714 0.9270 0.0596
C15 C 0.1668(3) 0.9093(3) 0.31220(15)
H11 H 0.0692 0.9004 0.3325
C16 C 0.2295(3) 1.0324(3) 0.33235(15)
H12 H 0.1847 1.0578 0.3760
C17 C 0.2720(4) 0.8225(3) 0.34742(16)
C18 C 0.2510(5) 1.2492(3) 0.29616(19)
H13 H 0.3554 1.2473 0.3016
H14 H 0.2065 1.2744 0.3387
H15 H 0.2256 1.3040 0.2600
C19 C 0.3962(4) 1.0106(4) 0.3448(2)
H16 H 0.4539 1.0563 0.3120
H17 H 0.4233 1.0348 0.3912
C20 C 0.1957(4) 1.1242(3) 0.27733(16)
H18 H 0.0890 1.1289 0.2731
C21 C 0.4236(4) 0.8776(4) 0.3350(2)
H19 H 0.4944 0.8481 0.3682
H20 H 0.4582 0.8606 0.2886
C22 C 0.2393(6) 0.8082(4) 0.42343(19)
H21 H 0.1414 0.7789 0.4292
H22 H 0.2486 0.8839 0.4461
H23 H 0.3072 0.7527 0.4434
C23 C 0.2110(5) 1.1453(4) 0.08999(19)
H24 H 0.1466 1.1940 0.0628
H25 H 0.2150 1.0666 0.0706
H26 H 0.3073 1.1795 0.0899
loop_
_geom_bond_atom_site_label_1
_geom_bond_atom_site_label_2
_geom_bond_site_symmetry_1
_geom_bond_site_symmetry_2
O1 C8 1_555 1_555
O2 C2 1_555 1_555
O3 H1 1_555 1_555
O4 C6 1_555 1_555
O5 H2 1_555 1_555
O6 C10 1_555 1_555
C1 H3 1_555 1_555
C2 C1 1_555 1_555
C3 C1 1_555 1_555
C4 C2 1_555 1_555
O7 C8 1_555 1_555
C5 C4 1_555 1_555
C6 O5 1_555 1_555
C7 O3 1_555 1_555
C8 H4 1_555 1_555
C9 C4 1_555 1_555
C10 C9 1_555 1_555
C11 C5 1_555 1_555
H5 C11 1_555 1_555
C12 O1 1_555 1_555
H6 C12 1_555 1_555
C13 C10 1_555 1_555
H7 C13 1_555 1_555
C14 O2 1_555 1_555
H8 C14 1_555 1_555
H9 C14 1_555 1_555
H10 C14 1_555 1_555
C15 C12 1_555 1_555
H11 C15 1_555 1_555
C16 C15 1_555 1_555
H12 C16 1_555 1_555
C17 O6 1_555 1_555
C18 H13 1_555 1_555
H14 C18 1_555 1_555
H15 C18 1_555 1_555
C19 C16 1_555 1_555
H16 C19 1_555 1_555
H17 C19 1_555 1_555
C20 C8 1_555 1_555
H18 C20 1_555 1_555
C21 C17 1_555 1_555
H19 C21 1_555 1_555
H20 C21 1_555 1_555
C22 C17 1_555 1_555
H21 C22 1_555 1_555
H22 C22 1_555 1_555
H23 C22 1_555 1_555
C23 O7 1_555 1_555
H24 C23 1_555 1_555
H25 C23 1_555 1_555
H26 C23 1_555 1_555
C3 C6 1_555 1_555
C3 C7 1_555 1_555
C5 C7 1_555 1_555
C9 C12 1_555 1_555
C11 C13 1_555 1_555
C15 C17 1_555 1_555
C16 C20 1_555 1_555
C18 C20 1_555 1_555
C19 C21 1_555 1_555

#END
