
#######################################################################
#
#                 Cambridge Crystallographic Data Centre
#                                CCDC 
#
#######################################################################
#
# If this CIF has been generated from an entry in the Cambridge 
# Structural Database, then it will include bibliographic, chemical, 
# crystal, experimental, refinement or atomic coordinate data resulting 
# from the CCDC's data processing and validation procedures.
#
#######################################################################

data_EWODUR
_chemical_compound_source        
'fermentation extract from mangrove endophytic fungus Lasiodiplodia theobromae ZJHQ1'
_chemical_name_common            'chloropreussomerin A'
_chemical_formula_moiety         'C21 H15 Cl1 O8'
_chemical_name_systematic        
9-chloro-6,10-dihydroxy-20-methoxy-2,12,21-trioxahexacyclo[9.9.1.1^1,13^.1^3,7^.0^11,23^.0^17,22^]tricosa-3(23),4,6,13(22),14,16-hexaene-8,18-dione
_chemical_properties_biological  'cytotoxic activity'
_symmetry_cell_setting           orthorhombic
_symmetry_space_group_name_H-M   'P 21 21 21'
_symmetry_Int_Tables_number      19
_space_group_name_Hall           'P 2ac 2ab'
loop_
_symmetry_equiv_pos_site_id
_symmetry_equiv_pos_as_xyz
1 x,y,z
2 1/2-x,-y,1/2+z
3 -x,1/2+y,1/2-z
4 1/2+x,1/2-y,-z
_cell_length_a                   8.2824(2)
_cell_length_b                   11.9132(3)
_cell_length_c                   18.2409(5)
_cell_angle_alpha                90
_cell_angle_beta                 90
_cell_angle_gamma                90
_cell_volume                     1799.83
_exptl_crystal_colour            colorless
_exptl_crystal_description       block
_chemical_melting_point          '191-193 deg.C'
_cell_formula_units_Z            4
loop_
_atom_site_label
_atom_site_type_symbol
_atom_site_fract_x
_atom_site_fract_y
_atom_site_fract_z
Cl1 Cl 0.84205(8) 0.41110(6) 0.73569(3)
O1 O 0.6961(2) 0.39922(16) 0.57851(9)
H1 H 0.6508 0.3472 0.5996
O2 O 1.11594(19) 0.41765(15) 0.53319(8)
O3 O 0.9025(2) 0.51926(14) 0.37586(8)
O4 O 0.8966(2) 0.36834(14) 0.45841(8)
C1 C 1.2502(3) 0.4074(2) 0.34095(13)
O5 O 0.9626(2) 0.22496(15) 0.34661(9)
O6 O 0.8463(2) 0.64817(16) 0.69281(9)
C2 C 1.2128(3) 0.4176(2) 0.47154(12)
C3 C 0.9672(3) 0.4108(2) 0.39315(13)
C4 C 0.8655(3) 0.3901(2) 0.58849(13)
H2 H 0.8957 0.3117 0.5973
C5 C 0.9462(3) 0.4333(2) 0.51897(13)
C6 C 0.8385(4) 0.7014(2) 0.42027(14)
H3 H 0.8230 0.7247 0.3721
O7 O 1.2642(2) 0.39488(16) 0.21146(9)
C7 C 0.8864(3) 0.5912(2) 0.43451(13)
O8 O 0.8005(3) 0.81547(16) 0.60313(12)
H4 H 0.8239 0.7884 0.6431
C8 C 0.8782(3) 0.5868(2) 0.64089(13)
C9 C 0.9992(3) 0.3773(2) 0.25961(14)
H5 H 0.9777 0.3236 0.2208
H6 H 0.9516 0.4483 0.2451
C10 C 1.4160(3) 0.4091(2) 0.35071(14)
H7 H 1.4845 0.4059 0.3104
C11 C 1.1473(3) 0.4138(2) 0.40188(13)
C12 C 0.9211(3) 0.4634(2) 0.65151(13)
H8 H 1.0390 0.4580 0.6541
C13 C 1.3788(3) 0.4188(2) 0.48181(14)
H9 H 1.4219 0.4216 0.5289
C14 C 0.9071(3) 0.5549(2) 0.50573(13)
C15 C 0.8779(3) 0.6285(2) 0.56475(14)
C16 C 1.4798(3) 0.4157(2) 0.42136(14)
H10 H 1.5911 0.4181 0.4279
C17 C 0.8326(4) 0.7401(2) 0.54961(15)
C18 C 0.9165(3) 0.3371(2) 0.32911(12)
H11 H 0.7991 0.3410 0.3229
C19 C 1.1803(3) 0.3926(2) 0.26624(13)
C20 C 0.8143(4) 0.7752(2) 0.47666(15)
H12 H 0.7856 0.8491 0.4666
C21 C 0.8693(4) 0.1435(2) 0.30987(16)
H13 H 0.8871 0.0713 0.3319
H14 H 0.9003 0.1409 0.2592
H15 H 0.7570 0.1627 0.3135
loop_
_geom_bond_atom_site_label_1
_geom_bond_atom_site_label_2
_geom_bond_site_symmetry_1
_geom_bond_site_symmetry_2
Cl1 C12 1_555 1_555
O1 H1 1_555 1_555
O2 C2 1_555 1_555
O3 C3 1_555 1_555
O4 C3 1_555 1_555
C1 C10 1_555 1_555
O5 C18 1_555 1_555
O6 C8 1_555 1_555
C2 C11 1_555 1_555
C3 C11 1_555 1_555
C4 O1 1_555 1_555
H2 C4 1_555 1_555
C5 O2 1_555 1_555
C6 H3 1_555 1_555
O7 C19 1_555 1_555
C7 O3 1_555 1_555
O8 H4 1_555 1_555
C8 C12 1_555 1_555
C9 H5 1_555 1_555
H6 C9 1_555 1_555
C10 H7 1_555 1_555
C11 C1 1_555 1_555
C12 C4 1_555 1_555
H8 C12 1_555 1_555
C13 C2 1_555 1_555
H9 C13 1_555 1_555
C14 C5 1_555 1_555
C15 C8 1_555 1_555
C16 C10 1_555 1_555
H10 C16 1_555 1_555
C17 O8 1_555 1_555
C18 C3 1_555 1_555
H11 C18 1_555 1_555
C19 C1 1_555 1_555
C20 C6 1_555 1_555
H12 C20 1_555 1_555
C21 O5 1_555 1_555
H13 C21 1_555 1_555
H14 C21 1_555 1_555
H15 C21 1_555 1_555
O4 C5 1_555 1_555
C4 C5 1_555 1_555
C6 C7 1_555 1_555
C7 C14 1_555 1_555
C9 C18 1_555 1_555
C9 C19 1_555 1_555
C13 C16 1_555 1_555
C14 C15 1_555 1_555
C15 C17 1_555 1_555
C17 C20 1_555 1_555

#END
