
#######################################################################
#
#                 Cambridge Crystallographic Data Centre
#                                CCDC 
#
#######################################################################
#
# If this CIF has been generated from an entry in the Cambridge 
# Structural Database, then it will include bibliographic, chemical, 
# crystal, experimental, refinement or atomic coordinate data resulting 
# from the CCDC's data processing and validation procedures.
#
#######################################################################

data_EWOFAZ
_chemical_formula_moiety         'C19 H13 N1 O4'
_chemical_name_systematic        
10-(4-methoxyphenyl)-1H,3H-furo[3',4':3,4]pyrrolo[2,1-b][1,3]benzoxazol-3-one
_symmetry_cell_setting           monoclinic
_symmetry_space_group_name_H-M   'P 21/n'
_symmetry_Int_Tables_number      14
_space_group_name_Hall           '-P 2yn'
loop_
_symmetry_equiv_pos_site_id
_symmetry_equiv_pos_as_xyz
1 x,y,z
2 1/2-x,1/2+y,1/2-z
3 -x,-y,-z
4 1/2+x,1/2-y,1/2+z
_cell_length_a                   10.7549(6)
_cell_length_b                   7.0492(4)
_cell_length_c                   19.1664(12)
_cell_angle_alpha                90
_cell_angle_beta                 102.500(2)
_cell_angle_gamma                90
_cell_volume                     1418.63
_exptl_crystal_colour            colorless
_exptl_crystal_description       block
_cell_formula_units_Z            4
loop_
_atom_site_label
_atom_site_type_symbol
_atom_site_fract_x
_atom_site_fract_y
_atom_site_fract_z
O1 O -0.01112(11) 0.24652(18) 0.50341(6)
O2 O 0.11373(12) 0.2858(2) 0.42486(6)
O3 O 0.42422(10) 0.41787(16) 0.56207(5)
O4 O 0.07881(11) 0.42802(18) 0.94084(6)
N1 N 0.32988(11) 0.38169(17) 0.65535(6)
C1 C 0.10412(16) 0.2862(2) 0.48640(9)
C2 C 0.19304(14) 0.3237(2) 0.55280(8)
C3 C 0.13070(14) 0.3084(2) 0.61044(8)
C4 C -0.00377(15) 0.2514(3) 0.58020(8)
H1 H -0.0220 0.1277 0.5978
H2 H -0.0630 0.3433 0.5921
C5 C 0.31584(14) 0.3706(2) 0.58326(8)
C6 C 0.51020(14) 0.4652(2) 0.62512(8)
C7 C 0.63246(15) 0.5300(2) 0.62990(9)
H3 H 0.6666 0.5461 0.5897
C8 C 0.70174(15) 0.5697(2) 0.69793(9)
H4 H 0.7847 0.6145 0.7039
C9 C 0.64953(15) 0.5439(2) 0.75760(9)
H5 H 0.6992 0.5695 0.8027
C10 C 0.52511(15) 0.4808(2) 0.75178(9)
H6 H 0.4907 0.4644 0.7919
C11 C 0.45516(14) 0.4436(2) 0.68405(8)
C12 C 0.21150(14) 0.3461(2) 0.67443(8)
C13 C 0.18555(14) 0.3644(2) 0.74583(8)
C14 C 0.26961(14) 0.3131(2) 0.80863(8)
H7 H 0.3487 0.2635 0.8062
C15 C 0.23892(14) 0.3336(2) 0.87503(8)
H8 H 0.2975 0.3010 0.9165
C16 C 0.11975(14) 0.4035(2) 0.87882(8)
C17 C 0.03356(14) 0.4541(2) 0.81658(8)
H9 H -0.0464 0.5000 0.8190
C18 C 0.06617(14) 0.4364(2) 0.75148(8)
H10 H 0.0081 0.4727 0.7103
C19 C 0.16410(17) 0.3790(3) 1.00596(9)
H11 H 0.1871 0.2476 1.0047
H12 H 0.1235 0.4002 1.0452
H13 H 0.2393 0.4560 1.0119
loop_
_geom_bond_atom_site_label_1
_geom_bond_atom_site_label_2
_geom_bond_site_symmetry_1
_geom_bond_site_symmetry_2
O1 C1 1_555 1_555
O2 C1 1_555 1_555
O3 C5 1_555 1_555
O4 C16 1_555 1_555
N1 C5 1_555 1_555
C1 C2 1_555 1_555
C2 C3 1_555 1_555
C3 C4 1_555 1_555
C4 O1 1_555 1_555
H1 C4 1_555 1_555
H2 C4 1_555 1_555
C5 C2 1_555 1_555
C6 O3 1_555 1_555
C7 C6 1_555 1_555
H3 C7 1_555 1_555
C8 C7 1_555 1_555
H4 C8 1_555 1_555
C9 C8 1_555 1_555
H5 C9 1_555 1_555
C10 C9 1_555 1_555
H6 C10 1_555 1_555
C11 N1 1_555 1_555
C12 N1 1_555 1_555
C13 C12 1_555 1_555
C14 C13 1_555 1_555
H7 C14 1_555 1_555
C15 C14 1_555 1_555
H8 C15 1_555 1_555
C16 C15 1_555 1_555
C17 C16 1_555 1_555
H9 C17 1_555 1_555
C18 C13 1_555 1_555
H10 C18 1_555 1_555
C19 O4 1_555 1_555
H11 C19 1_555 1_555
H12 C19 1_555 1_555
H13 C19 1_555 1_555
C3 C12 1_555 1_555
C6 C11 1_555 1_555
C10 C11 1_555 1_555
C17 C18 1_555 1_555

#END
