
#######################################################################
#
#                 Cambridge Crystallographic Data Centre
#                                CCDC 
#
#######################################################################
#
# If this CIF has been generated from an entry in the Cambridge 
# Structural Database, then it will include bibliographic, chemical, 
# crystal, experimental, refinement or atomic coordinate data resulting 
# from the CCDC's data processing and validation procedures.
#
#######################################################################

data_EWOHAB
_chemical_formula_moiety         'C20 H17 N1 O4'
_chemical_name_systematic        
'methyl 4-formyl-5-(4-methoxyphenyl)-2-phenyl-1H-pyrrole-3-carboxylate'
_symmetry_cell_setting           triclinic
_symmetry_space_group_name_H-M   'P -1'
_symmetry_Int_Tables_number      2
_space_group_name_Hall           '-P 1'
loop_
_symmetry_equiv_pos_site_id
_symmetry_equiv_pos_as_xyz
1 x,y,z
2 -x,-y,-z
_cell_length_a                   11.1811(4)
_cell_length_b                   11.6175(5)
_cell_length_c                   14.5096(6)
_cell_angle_alpha                70.505(2)
_cell_angle_beta                 78.122(2)
_cell_angle_gamma                74.189(2)
_cell_volume                     1695.7
_exptl_crystal_colour            colorless
_cell_formula_units_Z            4
loop_
_atom_site_label
_atom_site_type_symbol
_atom_site_fract_x
_atom_site_fract_y
_atom_site_fract_z
O1 O 0.99825(12) -0.19536(13) -0.02673(11)
C1 C 0.79849(15) 0.11487(17) -0.12396(13)
H1 H 0.8007 0.1896 -0.1740
C2 C 0.1558(2) 0.5454(2) 0.15342(16)
H2 H 0.1008 0.5909 0.1929
C3 C 0.10987(19) 0.4962(2) 0.09763(16)
H3 H 0.0238 0.5086 0.0995
N1 N 0.51102(12) 0.25214(13) 0.00106(9)
H4 H 0.5328 0.2307 0.0590
O2 O 0.48506(12) 0.27178(13) -0.31471(9)
O3 O 0.21435(15) 0.40001(15) -0.19661(14)
C4 C 0.90487(15) 0.01817(17) -0.11519(14)
H5 H 0.9775 0.0282 -0.1589
C5 C 0.68862(14) 0.10233(15) -0.05942(12)
C6 C 0.57521(14) 0.20264(15) -0.07227(12)
C7 C 0.50999(14) 0.26168(15) -0.15401(12)
C8 C 0.2829(2) 0.52753(19) 0.15081(15)
H6 H 0.3140 0.5603 0.1890
C9 C 0.19090(16) 0.42812(19) 0.03856(14)
H7 H 0.1591 0.3939 0.0018
C10 C 0.31975(15) 0.41100(15) 0.03428(11)
C11 C 0.36474(17) 0.46085(16) 0.09142(12)
H8 H 0.4507 0.4493 0.0898
C12 C 0.40599(14) 0.34174(15) -0.03044(11)
C13 C 0.79326(17) -0.10683(18) 0.02434(14)
H9 H 0.7913 -0.1816 0.0744
C14 C 0.68865(16) -0.01057(17) 0.01551(13)
H10 H 0.6168 -0.0208 0.0601
C15 C 1.11577(18) -0.1847(2) -0.08574(18)
H11 H 1.1751 -0.2631 -0.0676
H12 H 1.1457 -0.1206 -0.0754
H13 H 1.1057 -0.1633 -0.1540
C16 C 0.90182(15) -0.09322(17) -0.04095(14)
C17 C 0.40300(14) 0.34926(15) -0.12628(11)
C18 C 0.30457(16) 0.43106(17) -0.18882(12)
O4 O 0.32486(17) 0.54070(16) -0.23506(16)
C19 C 0.2300(3) 0.6235(3) -0.2987(3)
H14 H 0.2522 0.7030 -0.3304
H15 H 0.1498 0.6351 -0.2595
H16 H 0.2261 0.5864 -0.3477
C20 C 0.54262(16) 0.22723(17) -0.24297(13)
H17 H 0.6145 0.1649 -0.2469
C21 C 0.65991(16) -0.03071(16) 0.67800(12)
H18 H 0.5740 -0.0005 0.6903
N2 N 0.54823(11) 0.17768(12) 0.51447(9)
H19 H 0.5261 0.1986 0.5681
O5 O 0.08426(14) 0.65020(15) 0.40716(14)
O6 O 0.58651(11) 0.17408(13) 0.19608(8)
O7 O 0.85215(11) -0.00401(14) 0.32937(11)
O8 O 0.69630(12) -0.09598(13) 0.34946(11)
C22 C 0.85329(19) -0.15329(19) 0.73792(15)
H20 H 0.8977 -0.2052 0.7898
C23 C 0.72625(19) -0.10720(18) 0.75518(13)
H21 H 0.6849 -0.1276 0.8190
C24 C 0.72072(14) 0.00163(14) 0.58167(11)
C25 C 0.64816(13) 0.08197(14) 0.50036(11)
C26 C 0.48981(14) 0.23426(15) 0.43270(11)
C27 C 0.38340(14) 0.34258(15) 0.42734(11)
C28 C 0.39922(17) 0.45253(19) 0.43592(17)
H22 H 0.4774 0.4566 0.4457
C29 C 0.30129(18) 0.5567(2) 0.43031(18)
H23 H 0.3140 0.6298 0.4359
C30 C 0.91447(17) -0.12201(19) 0.64311(15)
H24 H 1.0003 -0.1529 0.6312
C31 C 0.84852(15) -0.04479(17) 0.56547(13)
H25 H 0.8906 -0.0240 0.5019
C32 C 0.55315(14) 0.17428(15) 0.36215(11)
C33 C 0.52716(15) 0.21638(16) 0.26243(12)
H26 H 0.4584 0.2823 0.2467
C34 C 0.26616(16) 0.33991(18) 0.41229(15)
H27 H 0.2532 0.2676 0.4055
C35 C 0.18575(16) 0.55133(18) 0.41655(14)
C36 C 0.1001(3) 0.7635(2) 0.4170(2)
H28 H 0.0230 0.8254 0.4089
H29 H 0.1651 0.7934 0.3675
H30 H 0.1227 0.7476 0.4811
C37 C 0.65346(13) 0.07819(14) 0.40598(11)
C38 C 0.74542(14) -0.00999(15) 0.35757(11)
C39 C 0.7789(2) -0.1863(3) 0.3036(2)
H31 H 0.7337 -0.2447 0.3017
H32 H 0.8479 -0.2304 0.3408
H33 H 0.8100 -0.1439 0.2376
C40 C 0.16846(17) 0.4428(2) 0.40728(17)
H34 H 0.0901 0.4391 0.3976
loop_
_geom_bond_atom_site_label_1
_geom_bond_atom_site_label_2
_geom_bond_site_symmetry_1
_geom_bond_site_symmetry_2
O1 C15 1_555 1_555
C1 H1 1_555 1_555
C2 H2 1_555 1_555
C3 C2 1_555 1_555
H3 C3 1_555 1_555
N1 H4 1_555 1_555
O2 C20 1_555 1_555
O3 C18 1_555 1_555
C4 C1 1_555 1_555
H5 C4 1_555 1_555
C5 C1 1_555 1_555
C6 N1 1_555 1_555
C7 C6 1_555 1_555
C8 C2 1_555 1_555
H6 C8 1_555 1_555
C9 C3 1_555 1_555
H7 C9 1_555 1_555
C10 C9 1_555 1_555
C11 C8 1_555 1_555
H8 C11 1_555 1_555
C12 N1 1_555 1_555
C13 H9 1_555 1_555
C14 C5 1_555 1_555
H10 C14 1_555 1_555
C15 H11 1_555 1_555
H12 C15 1_555 1_555
H13 C15 1_555 1_555
C16 O1 1_555 1_555
C17 C7 1_555 1_555
C18 C17 1_555 1_555
O4 C18 1_555 1_555
C19 O4 1_555 1_555
H14 C19 1_555 1_555
H15 C19 1_555 1_555
H16 C19 1_555 1_555
C20 C7 1_555 1_555
H17 C20 1_555 1_555
C21 H18 1_555 1_555
N2 H19 1_555 1_555
O5 C35 1_555 1_555
O6 C33 1_555 1_555
O7 C38 1_555 1_555
O8 C38 1_555 1_555
C22 H20 1_555 1_555
C23 C21 1_555 1_555
H21 C23 1_555 1_555
C24 C21 1_555 1_555
C25 N2 1_555 1_555
C26 N2 1_555 1_555
C27 C26 1_555 1_555
C28 C27 1_555 1_555
H22 C28 1_555 1_555
C29 C28 1_555 1_555
H23 C29 1_555 1_555
C30 C22 1_555 1_555
H24 C30 1_555 1_555
C31 C24 1_555 1_555
H25 C31 1_555 1_555
C32 C26 1_555 1_555
C33 C32 1_555 1_555
H26 C33 1_555 1_555
C34 C27 1_555 1_555
H27 C34 1_555 1_555
C35 C29 1_555 1_555
C36 O5 1_555 1_555
H28 C36 1_555 1_555
H29 C36 1_555 1_555
H30 C36 1_555 1_555
C37 C25 1_555 1_555
C38 C37 1_555 1_555
C39 O8 1_555 1_555
H31 C39 1_555 1_555
H32 C39 1_555 1_555
H33 C39 1_555 1_555
C40 C34 1_555 1_555
H34 C40 1_555 1_555
C4 C16 1_555 1_555
C5 C6 1_555 1_555
C10 C11 1_555 1_555
C10 C12 1_555 1_555
C12 C17 1_555 1_555
C13 C14 1_555 1_555
C13 C16 1_555 1_555
C22 C23 1_555 1_555
C24 C25 1_555 1_555
C30 C31 1_555 1_555
C32 C37 1_555 1_555
C35 C40 1_555 1_555

#END
