
#######################################################################
#
#                 Cambridge Crystallographic Data Centre
#                                CCDC 
#
#######################################################################
#
# If this CIF has been generated from an entry in the Cambridge 
# Structural Database, then it will include bibliographic, chemical, 
# crystal, experimental, refinement or atomic coordinate data resulting 
# from the CCDC's data processing and validation procedures.
#
#######################################################################

data_EWOYUK
_chemical_formula_moiety         'C15 H17 F1 O1'
_chemical_name_systematic        (E)-2-(2-Fluorobenzylidene)cyclooctanone
_symmetry_cell_setting           orthorhombic
_symmetry_space_group_name_H-M   'P n a 21'
_symmetry_Int_Tables_number      33
_space_group_name_Hall           'P 2c -2n'
loop_
_symmetry_equiv_pos_site_id
_symmetry_equiv_pos_as_xyz
1 x,y,z
2 -x,-y,1/2+z
3 1/2+x,1/2-y,z
4 1/2-x,1/2+y,1/2+z
_cell_length_a                   12.2910(10)
_cell_length_b                   8.2940(10)
_cell_length_c                   12.2730(10)
_cell_angle_alpha                90
_cell_angle_beta                 90
_cell_angle_gamma                90
_cell_volume                     1251.13
_exptl_crystal_colour            colorless
_exptl_crystal_description       block
_chemical_melting_point          '465-466 K'
_cell_formula_units_Z            4
_exptl_crystal_recrystallization_method DMF/methanol
loop_
_atom_site_label
_atom_site_type_symbol
_atom_site_fract_x
_atom_site_fract_y
_atom_site_fract_z
F1 F 0.74470(11) 0.76983(16) 0.40459(10)
O1 O 0.46008(14) 0.37243(18) 0.41115(12)
C1 C 0.52979(17) 0.3016(2) 0.35914(16)
C2 C 0.5466(2) 0.1227(2) 0.37770(17)
H1 H 0.5406 0.1003 0.4550
H2 H 0.6196 0.0938 0.3549
C3 C 0.4650(2) 0.0181(3) 0.31624(19)
H3 H 0.4708 -0.0913 0.3437
H4 H 0.3924 0.0562 0.3334
C4 C 0.47646(18) 0.0126(2) 0.19302(18)
H5 H 0.4245 -0.0646 0.1646
H6 H 0.5487 -0.0268 0.1755
C5 C 0.45920(16) 0.1737(2) 0.13445(16)
H7 H 0.4126 0.1550 0.0720
H8 H 0.4206 0.2456 0.1834
C6 C 0.56082(18) 0.2586(2) 0.09556(16)
H9 H 0.5395 0.3585 0.0605
H10 H 0.5955 0.1917 0.0408
C7 C 0.64514(13) 0.2979(2) 0.18409(17)
H11 H 0.6763 0.1979 0.2107
H12 H 0.7034 0.3606 0.1519
C8 C 0.59863(13) 0.3901(2) 0.27899(14)
C9 C 0.61667(15) 0.5459(2) 0.30104(15)
H13 H 0.5837 0.5854 0.3638
C10 C 0.68198(15) 0.6627(2) 0.23886(15)
C11 C 0.68246(16) 0.6746(2) 0.12592(16)
H14 H 0.6400 0.6041 0.0852
C12 C 0.74456(19) 0.7889(3) 0.0728(2)
H15 H 0.7431 0.7949 -0.0028
C13 C 0.8086(2) 0.8937(3) 0.1311(2)
H16 H 0.8513 0.9690 0.0948
C14 C 0.80958(18) 0.8877(3) 0.2435(2)
H17 H 0.8523 0.9585 0.2838
C15 C 0.74594(17) 0.7745(2) 0.29407(17)
loop_
_geom_bond_atom_site_label_1
_geom_bond_atom_site_label_2
_geom_bond_site_symmetry_1
_geom_bond_site_symmetry_2
F1 C15 1_555 1_555
O1 C1 1_555 1_555
C1 C2 1_555 1_555
C2 H1 1_555 1_555
H2 C2 1_555 1_555
C3 C2 1_555 1_555
H3 C3 1_555 1_555
H4 C3 1_555 1_555
C4 C3 1_555 1_555
H5 C4 1_555 1_555
H6 C4 1_555 1_555
C5 C4 1_555 1_555
H7 C5 1_555 1_555
H8 C5 1_555 1_555
C6 C5 1_555 1_555
H9 C6 1_555 1_555
H10 C6 1_555 1_555
C7 C6 1_555 1_555
H11 C7 1_555 1_555
H12 C7 1_555 1_555
C8 C1 1_555 1_555
C9 C8 1_555 1_555
H13 C9 1_555 1_555
C10 C9 1_555 1_555
C11 C10 1_555 1_555
H14 C11 1_555 1_555
C12 C11 1_555 1_555
H15 C12 1_555 1_555
C13 C12 1_555 1_555
H16 C13 1_555 1_555
C14 C13 1_555 1_555
H17 C14 1_555 1_555
C15 C10 1_555 1_555
C7 C8 1_555 1_555
C14 C15 1_555 1_555

#END
