
#######################################################################
#
#                 Cambridge Crystallographic Data Centre
#                                CCDC 
#
#######################################################################
#
# If this CIF has been generated from an entry in the Cambridge 
# Structural Database, then it will include bibliographic, chemical, 
# crystal, experimental, refinement or atomic coordinate data resulting 
# from the CCDC's data processing and validation procedures.
#
#######################################################################

data_EWUHEL
_chemical_formula_moiety         'H4 B3 O8 3-,2(H2 O1),3(K1 1+)'
_chemical_name_systematic        
'tri-potassium tetrahydroxo(oxo)triborate dihydrate'
_symmetry_cell_setting           orthorhombic
_symmetry_space_group_name_H-M   'C m c 21'
_symmetry_Int_Tables_number      36
_space_group_name_Hall           'C 2n -2'
loop_
_symmetry_equiv_pos_site_id
_symmetry_equiv_pos_as_xyz
1 x,y,z
2 -x,-y,1/2+z
3 x,-y,1/2+z
4 -x,y,z
5 1/2+x,1/2+y,z
6 1/2-x,1/2-y,1/2+z
7 1/2+x,1/2-y,1/2+z
8 1/2-x,1/2+y,z
_cell_length_a                   13.806(4)
_cell_length_b                   7.910(2)
_cell_length_c                   9.093(3)
_cell_angle_alpha                90
_cell_angle_beta                 90
_cell_angle_gamma                90
_cell_volume                     993.005
_exptl_crystal_colour            colorless
_exptl_crystal_description       block
_cell_formula_units_Z            4
loop_
_atom_site_label
_atom_site_type_symbol
_atom_site_fract_x
_atom_site_fract_y
_atom_site_fract_z
K1 K 0.71159(8) 0.95266(13) 0.6438(2)
B1 B 0.5902(6) 0.7531(11) 0.9382(11)
B2 B 0.5000 1.0218(16) 0.8784(18)
O1 O 0.6240(4) 0.7340(8) 1.0925(7)
O2 O 0.6656(4) 0.6692(8) 0.8455(7)
O3 O 0.5860(4) 0.9376(6) 0.8992(8)
O4 O 0.5000 1.1832(9) 0.8356(11)
O5 O 0.5000 0.6700(10) 0.9126(10)
H1 H 0.5885 0.7562 1.1620
H2 H 0.7117 0.7136 0.8713
B1C B 0.4098(6) 0.7531(11) 0.9382(11)
O1C O 0.3760(4) 0.7340(8) 1.0925(7)
O2C O 0.3344(4) 0.6692(8) 0.8455(7)
O3C O 0.4140(4) 0.9376(6) 0.8992(8)
H1C H 0.4115 0.7562 1.1620
H2C H 0.2883 0.7136 0.8713
O6 O 0.6612(5) 0.6711(8) 0.4393(8)
H3 H 0.6150 0.7119 0.4086
H4 H 0.6624 0.5731 0.4112
K2 K 0.5000 0.5705(2) 0.6335(3)
O6C O 0.3388(5) 0.6711(8) 0.4393(8)
H3C H 0.3850 0.7119 0.4086
H4C H 0.3376 0.5731 0.4112
loop_
_geom_bond_atom_site_label_1
_geom_bond_atom_site_label_2
_geom_bond_site_symmetry_1
_geom_bond_site_symmetry_2
B1 O1 1_555 1_555
B2 O3 1_555 1_555
O1 H1 1_555 1_555
O2 B1 1_555 1_555
O3 B1 1_555 1_555
O4 B2 1_555 1_555
O5 B1 1_555 1_555
H2 O2 1_555 1_555
O6 H3 1_555 1_555
H4 O6 1_555 1_555
B1C O5 1_555 1_555
O1C B1C 1_555 1_555
O2C B1C 1_555 1_555
O3C B2 1_555 1_555
H1C O1C 1_555 1_555
H2C O2C 1_555 1_555
O6C H3C 1_555 1_555
H4C O6C 1_555 1_555
B1C O3C 1_555 1_555

#END
