
#######################################################################
#
#                 Cambridge Crystallographic Data Centre
#                                CCDC 
#
#######################################################################
#
# If this CIF has been generated from an entry in the Cambridge 
# Structural Database, then it will include bibliographic, chemical, 
# crystal, experimental, refinement or atomic coordinate data resulting 
# from the CCDC's data processing and validation procedures.
#
#######################################################################

data_EXAGEQ
_chemical_formula_moiety         'C24 H23 F1 O6 S2'
_chemical_name_systematic        
'Methyl 4-fluoro-2-methyl-3-phenyl-4,4-bis(phenylsulfonyl)butanoate'
_symmetry_cell_setting           monoclinic
_symmetry_space_group_name_H-M   'P 21'
_symmetry_Int_Tables_number      4
_space_group_name_Hall           'P 2yb'
loop_
_symmetry_equiv_pos_site_id
_symmetry_equiv_pos_as_xyz
1 x,y,z
2 -x,1/2+y,-z
_cell_length_a                   8.6410(13)
_cell_length_b                   10.3969(16)
_cell_length_c                   13.1330(19)
_cell_angle_alpha                90
_cell_angle_beta                 105.305(3)
_cell_angle_gamma                90
_cell_volume                     1138.02
_exptl_crystal_colour            colorless
_exptl_crystal_description       block
_cell_formula_units_Z            2
loop_
_atom_site_label
_atom_site_type_symbol
_atom_site_fract_x
_atom_site_fract_y
_atom_site_fract_z
S1 S 0.85046(6) 0.97149(5) 0.63325(4)
S2 S 1.00467(6) 0.92268(6) 0.86937(4)
F1 F 0.80172(13) 0.77965(12) 0.74389(9)
O1 O 0.73875(18) 1.04502(15) 0.67362(12)
O2 O 0.98203(18) 1.03313(16) 0.60561(12)
O3 O 1.09143(19) 1.03774(18) 0.86151(13)
O4 O 1.0815(2) 0.81939(19) 0.93707(12)
O5 O 1.3037(2) 0.6477(2) 0.61673(13)
O6 O 1.44860(18) 0.62831(18) 0.78539(14)
C1 C 0.9354(2) 0.8484(2) 0.73521(15)
C2 C 0.7437(2) 0.8745(2) 0.52849(15)
C3 C 0.8115(3) 0.8463(2) 0.44635(16)
H1 H 0.9114 0.8831 0.4445
C4 C 0.7313(3) 0.7637(2) 0.36686(16)
H2 H 0.7755 0.7440 0.3097
C5 C 0.5861(3) 0.7098(2) 0.37132(16)
H3 H 0.5325 0.6519 0.3175
C6 C 0.5181(2) 0.7393(2) 0.45311(16)
H4 H 0.4185 0.7020 0.4549
C7 C 0.5959(2) 0.8234(2) 0.53246(16)
H5 H 0.5496 0.8455 0.5881
C8 C 0.8273(2) 0.9630(2) 0.90458(15)
C9 C 0.7432(3) 0.8682(3) 0.94042(18)
H6 H 0.7775 0.7811 0.9446
C10 C 0.6054(3) 0.9045(4) 0.9705(2)
H7 H 0.5446 0.8413 0.9951
C11 C 0.5574(3) 1.0313(4) 0.9647(2)
H8 H 0.4634 1.0545 0.9848
C12 C 0.6445(3) 1.1251(3) 0.9299(2)
H9 H 0.6111 1.2124 0.9268
C13 C 0.7809(3) 1.0910(3) 0.89957(17)
H10 H 0.8420 1.1547 0.8756
C14 C 1.0544(2) 0.7563(2) 0.69969(15)
H11 H 1.0381 0.7731 0.6226
C15 C 1.0014(2) 0.6174(2) 0.70737(15)
C16 C 0.8975(2) 0.5618(2) 0.61795(16)
H12 H 0.8658 0.6098 0.5543
C17 C 0.8401(2) 0.4374(2) 0.62108(16)
H13 H 0.7680 0.4018 0.5602
C18 C 0.8875(3) 0.3652(2) 0.71276(18)
H14 H 0.8493 0.2799 0.7149
C19 C 0.9917(3) 0.4194(3) 0.80143(17)
H15 H 1.0250 0.3703 0.8645
C20 C 1.0478(3) 0.5444(2) 0.79914(17)
H16 H 1.1183 0.5802 0.8607
C21 C 1.2366(2) 0.7779(2) 0.75077(16)
H17 H 1.2603 0.7705 0.8293
C22 C 1.2997(3) 0.9069(2) 0.72057(17)
H18 H 1.4168 0.9092 0.7470
H19 H 1.2531 0.9777 0.7519
H20 H 1.2693 0.9160 0.6436
C23 C 1.3283(2) 0.6757(2) 0.70814(17)
C24 C 1.5548(3) 0.5400(3) 0.7511(3)
H21 H 1.4949 0.4628 0.7210
H22 H 1.6434 0.5159 0.8116
H23 H 1.5977 0.5818 0.6974
loop_
_geom_bond_atom_site_label_1
_geom_bond_atom_site_label_2
_geom_bond_site_symmetry_1
_geom_bond_site_symmetry_2
S1 O1 1_555 1_555
S2 O3 1_555 1_555
F1 C1 1_555 1_555
O2 S1 1_555 1_555
O4 S2 1_555 1_555
O5 C23 1_555 1_555
O6 C23 1_555 1_555
C1 S1 1_555 1_555
C2 S1 1_555 1_555
C3 C2 1_555 1_555
H1 C3 1_555 1_555
C4 C3 1_555 1_555
H2 C4 1_555 1_555
C5 C4 1_555 1_555
H3 C5 1_555 1_555
C6 C5 1_555 1_555
H4 C6 1_555 1_555
C7 C2 1_555 1_555
H5 C7 1_555 1_555
C8 S2 1_555 1_555
C9 C8 1_555 1_555
H6 C9 1_555 1_555
C10 C9 1_555 1_555
H7 C10 1_555 1_555
C11 C10 1_555 1_555
H8 C11 1_555 1_555
C12 C11 1_555 1_555
H9 C12 1_555 1_555
C13 C8 1_555 1_555
H10 C13 1_555 1_555
C14 C1 1_555 1_555
H11 C14 1_555 1_555
C15 C14 1_555 1_555
C16 C15 1_555 1_555
H12 C16 1_555 1_555
C17 C16 1_555 1_555
H13 C17 1_555 1_555
C18 C17 1_555 1_555
H14 C18 1_555 1_555
C19 C18 1_555 1_555
H15 C19 1_555 1_555
C20 C15 1_555 1_555
H16 C20 1_555 1_555
C21 C14 1_555 1_555
H17 C21 1_555 1_555
C22 C21 1_555 1_555
H18 C22 1_555 1_555
H19 C22 1_555 1_555
H20 C22 1_555 1_555
C23 C21 1_555 1_555
C24 O6 1_555 1_555
H21 C24 1_555 1_555
H22 C24 1_555 1_555
H23 C24 1_555 1_555
S2 C1 1_555 1_555
C6 C7 1_555 1_555
C12 C13 1_555 1_555
C19 C20 1_555 1_555

#END
