
#######################################################################
#
#                 Cambridge Crystallographic Data Centre
#                                CCDC 
#
#######################################################################
#
# If this CIF has been generated from an entry in the Cambridge 
# Structural Database, then it will include bibliographic, chemical, 
# crystal, experimental, refinement or atomic coordinate data resulting 
# from the CCDC's data processing and validation procedures.
#
#######################################################################

data_EXAWAD
_chemical_formula_moiety         'C66 H92 Mg1 N12 O2,2(C1 H4 O1)'
_chemical_name_systematic        
"bis(methanol)-(N,N,N',N',N'',N'',N''',N'''-octabutyl-29H,31H-phthalocyanine-1,8,15,22-tetraminato)-magnesium methanol solvate"
_symmetry_cell_setting           monoclinic
_symmetry_space_group_name_H-M   'P 21/c'
_symmetry_Int_Tables_number      14
_space_group_name_Hall           '-P 2ybc'
loop_
_symmetry_equiv_pos_site_id
_symmetry_equiv_pos_as_xyz
1 x,y,z
2 -x,1/2+y,1/2-z
3 -x,-y,-z
4 x,1/2-y,1/2+z
_cell_length_a                   16.6724(4)
_cell_length_b                   9.2766(2)
_cell_length_c                   21.1588(5)
_cell_angle_alpha                90
_cell_angle_beta                 95.710(2)
_cell_angle_gamma                90
_cell_volume                     3256.25
_exptl_crystal_colour            green
_exptl_crystal_description       block
_cell_formula_units_Z            2
loop_
_atom_site_label
_atom_site_type_symbol
_atom_site_fract_x
_atom_site_fract_y
_atom_site_fract_z
O2 O 0.87809(16) 0.9225(2) 0.44183(10)
H47 H 0.8658 0.9819 0.4138
C34 C 0.8751(3) 0.9864(4) 0.50076(18)
H48 H 0.9235 1.0407 0.5116
H49 H 0.8702 0.9131 0.5322
H50 H 0.8293 1.0496 0.4994
Mg1 Mg 1.0000 0.5000 0.5000
N1 N 1.00531(12) 0.3638(2) 0.42648(10)
N2 N 0.88105(12) 0.4664(2) 0.49990(10)
N3 N 0.86683(12) 0.2849(2) 0.41676(10)
C1 C 0.83998(15) 0.3689(3) 0.46189(12)
C2 C 0.69342(16) 0.2764(3) 0.45353(13)
H1 H 0.7001 0.2063 0.4230
C3 C 1.05270(15) 0.2165(3) 0.35128(12)
N4 N 0.84897(13) 0.0532(2) 0.31163(10)
C4 C 0.94184(15) 0.2841(3) 0.40022(11)
N5 N 0.65867(15) 0.6138(3) 0.58449(13)
C5 C 0.96986(15) 0.1906(3) 0.35069(11)
C6 C 1.07352(15) 0.3272(3) 0.39997(11)
C7 C 0.93180(16) 0.0837(3) 0.31016(11)
C8 C 0.83018(15) 0.5302(3) 0.53850(12)
C9 C 0.75615(15) 0.3663(3) 0.47635(12)
C10 C 1.10112(16) 0.1390(3) 0.31344(12)
H2 H 1.1562 0.1564 0.3146
C11 C 1.06344(16) 0.0344(3) 0.27376(12)
H3 H 1.0940 -0.0193 0.2478
C12 C 0.74830(15) 0.4727(3) 0.52240(12)
C13 C 0.98086(16) 0.0084(3) 0.27201(12)
H4 H 0.9578 -0.0616 0.2445
C14 C 0.67218(16) 0.4999(3) 0.54409(14)
C15 C 0.82181(18) -0.0905(3) 0.28789(14)
H5 H 0.8620 -0.1620 0.3023
H6 H 0.8167 -0.0901 0.2418
C16 C 0.61012(16) 0.4049(3) 0.52194(14)
H7 H 0.5599 0.4152 0.5370
C17 C 0.62055(16) 0.2958(3) 0.47825(14)
H8 H 0.5777 0.2348 0.4655
C18 C 0.79130(19) 0.2007(3) 0.21731(14)
H9 H 0.7734 0.1144 0.1941
H10 H 0.8449 0.2242 0.2063
C19 C 0.74117(19) -0.1318(3) 0.31102(15)
H11 H 0.7426 -0.1105 0.3560
H12 H 0.6989 -0.0737 0.2889
C20 C 0.5848(2) 0.6149(4) 0.61587(18)
H13 H 0.5392 0.6031 0.5841
H14 H 0.5796 0.7081 0.6358
C21 C 0.7209(2) -0.2907(3) 0.30037(17)
H15 H 0.6646 -0.3058 0.3064
H16 H 0.7281 -0.3156 0.2568
C22 C 0.7344(2) 0.3240(3) 0.19758(16)
H17 H 0.6803 0.2977 0.2066
H18 H 0.7505 0.4082 0.2229
C23 C 0.5816(3) 0.4985(5) 0.6655(2)
H19 H 0.6274 0.5093 0.6973
H20 H 0.5858 0.4050 0.6456
C24 C 0.5042(3) 0.5043(6) 0.6980(3)
H21 H 0.4962 0.6020 0.7125
H22 H 0.4591 0.4804 0.6672
C25 C 0.7329(3) 0.3622(4) 0.12824(19)
H23 H 0.7856 0.3933 0.1194
H24 H 0.6948 0.4385 0.1183
H25 H 0.7174 0.2791 0.1028
C26 C 0.5046(5) 0.4041(9) 0.7531(3)
H26 H 0.4988 0.3067 0.7379
H27 H 0.4606 0.4273 0.7773
H28 H 0.5546 0.4136 0.7795
C27 C 0.7720(2) -0.3904(4) 0.34438(18)
H29 H 0.8271 -0.3851 0.3350
H30 H 0.7529 -0.4876 0.3384
H31 H 0.7685 -0.3618 0.3876
C28 C 0.79499(17) 0.1710(3) 0.28787(14)
H32 H 0.8120 0.2585 0.3104
H33 H 0.7410 0.1487 0.2982
O1 O 0.97773(13) 0.6843(2) 0.43499(10)
C29 C 1.0242(2) 0.7190(4) 0.38443(14)
H34 H 1.0702 0.6564 0.3859
H35 H 1.0420 0.8173 0.3886
H36 H 0.9919 0.7068 0.3446
N6 N 0.85138(13) 0.6252(2) 0.58517(10)
C30 C 0.6837(2) 0.7597(4) 0.56619(18)
H37 H 0.7334 0.7505 0.5462
H38 H 0.6960 0.8154 0.6047
C31 C 0.6237(2) 0.8468(4) 0.52132(19)
H39 H 0.5734 0.8561 0.5405
H40 H 0.6451 0.9430 0.5165
C32 C 0.6069(2) 0.7800(4) 0.4572(2)
H41 H 0.5810 0.6874 0.4614
H42 H 0.6575 0.7634 0.4393
C33 C 0.5523(3) 0.8766(5) 0.4117(2)
H43 H 0.5020 0.8924 0.4291
H44 H 0.5425 0.8301 0.3712
H45 H 0.5785 0.9675 0.4066
H46 H 0.949(2) 0.747(5) 0.4366(19)
N1B N 0.99469(12) 0.6362(2) 0.57352(10)
N2B N 1.11895(12) 0.5336(2) 0.50010(10)
N3B N 1.13317(12) 0.7151(2) 0.58324(10)
C1B C 1.16002(15) 0.6311(3) 0.53811(12)
C2B C 1.30658(16) 0.7236(3) 0.54647(13)
H1B H 1.2999 0.7937 0.5770
C3B C 0.94730(15) 0.7835(3) 0.64872(12)
N4B N 1.15103(13) 0.9468(2) 0.68837(10)
C4B C 1.05816(15) 0.7159(3) 0.59978(11)
N5B N 1.34133(15) 0.3862(3) 0.41551(13)
C5B C 1.03014(15) 0.8094(3) 0.64931(11)
C6B C 0.92648(15) 0.6728(3) 0.60003(11)
C7B C 1.06820(16) 0.9163(3) 0.68984(11)
C8B C 1.16982(15) 0.4698(3) 0.46150(12)
C9B C 1.24385(15) 0.6337(3) 0.52365(12)
C10B C 0.89888(16) 0.8610(3) 0.68656(12)
H2B H 0.8438 0.8436 0.6854
C11B C 0.93656(16) 0.9656(3) 0.72624(12)
H3B H 0.9060 1.0193 0.7522
C12B C 1.25170(15) 0.5273(3) 0.47760(12)
C13B C 1.01914(16) 0.9916(3) 0.72799(12)
H4B H 1.0422 1.0616 0.7555
C14B C 1.32782(16) 0.5001(3) 0.45591(14)
C15B C 1.17819(18) 1.0905(3) 0.71211(14)
H5B H 1.1380 1.1620 0.6977
H6B H 1.1833 1.0901 0.7582
C16B C 1.38988(16) 0.5951(3) 0.47806(14)
H7B H 1.4401 0.5848 0.4630
C17B C 1.37945(16) 0.7042(3) 0.52175(14)
H8B H 1.4223 0.7652 0.5345
C18B C 1.20870(19) 0.7993(3) 0.78269(14)
H9B H 1.2266 0.8856 0.8059
H10B H 1.1551 0.7758 0.7937
C19B C 1.25883(19) 1.1318(3) 0.68898(15)
H11B H 1.2574 1.1105 0.6440
H12B H 1.3011 1.0737 0.7111
C20B C 1.4152(2) 0.3851(4) 0.38413(18)
H13B H 1.4608 0.3969 0.4159
H14B H 1.4204 0.2919 0.3642
C21B C 1.2791(2) 1.2907(3) 0.69963(17)
H15B H 1.3354 1.3058 0.6936
H16B H 1.2719 1.3156 0.7432
C22B C 1.2656(2) 0.6760(3) 0.80242(16)
H17B H 1.3197 0.7023 0.7934
H18B H 1.2495 0.5918 0.7771
C23B C 1.4184(3) 0.5015(5) 0.3345(2)
H19B H 1.3726 0.4907 0.3027
H20B H 1.4142 0.5950 0.3544
C24B C 1.4958(3) 0.4957(6) 0.3020(3)
H21B H 1.5038 0.3980 0.2875
H22B H 1.5409 0.5196 0.3328
C25B C 1.2671(3) 0.6378(4) 0.87176(19)
H23B H 1.2144 0.6067 0.8806
H24B H 1.3052 0.5615 0.8817
H25B H 1.2826 0.7209 0.8972
C26B C 1.4954(5) 0.5959(9) 0.2469(3)
H26B H 1.5012 0.6933 0.2621
H27B H 1.5394 0.5727 0.2227
H28B H 1.4454 0.5864 0.2205
C27B C 1.2280(2) 1.3904(4) 0.65562(18)
H29B H 1.1729 1.3851 0.6650
H30B H 1.2471 1.4876 0.6616
H31B H 1.2315 1.3618 0.6124
C28B C 1.20501(17) 0.8290(3) 0.71213(14)
H32B H 1.1880 0.7415 0.6896
H33B H 1.2590 0.8513 0.7018
N6B N 1.14862(13) 0.3748(2) 0.41483(10)
C30B C 1.3163(2) 0.2403(4) 0.43381(18)
H37B H 1.2666 0.2495 0.4538
H38B H 1.3040 0.1846 0.3953
C31B C 1.3763(2) 0.1532(4) 0.47868(19)
H39B H 1.4266 0.1439 0.4595
H40B H 1.3549 0.0570 0.4835
C32B C 1.3931(2) 0.2200(4) 0.5428(2)
H41B H 1.4190 0.3126 0.5386
H42B H 1.3425 0.2366 0.5607
C33B C 1.4477(3) 0.1234(5) 0.5883(2)
H43B H 1.4980 0.1076 0.5709
H44B H 1.4575 0.1699 0.6288
H45B H 1.4215 0.0325 0.5934
O1B O 1.02227(13) 0.3157(2) 0.56501(10)
C29B C 0.9758(2) 0.2810(4) 0.61557(14)
H34B H 0.9298 0.3436 0.6141
H35B H 0.9580 0.1827 0.6114
H36B H 1.0081 0.2932 0.6554
H46B H 1.051(2) 0.253(5) 0.5634(19)
loop_
_geom_bond_atom_site_label_1
_geom_bond_atom_site_label_2
_geom_bond_site_symmetry_1
_geom_bond_site_symmetry_2
Mg1 N1 1_555 1_555
N1 C4 1_555 1_555
N2 Mg1 1_555 1_555
N3 C1 1_555 1_555
C1 N2 1_555 1_555
C2 H1 1_555 1_555
C3 C5 1_555 1_555
N4 C7 1_555 1_555
C4 N3 1_555 1_555
N5 C14 1_555 1_555
C5 C4 1_555 1_555
C6 N1 1_555 1_555
C7 C5 1_555 1_555
C8 N2 1_555 1_555
C9 C1 1_555 1_555
C10 C3 1_555 1_555
H2 C10 1_555 1_555
C11 C10 1_555 1_555
H3 C11 1_555 1_555
C12 C8 1_555 1_555
C13 C7 1_555 1_555
H4 C13 1_555 1_555
C14 C12 1_555 1_555
C15 N4 1_555 1_555
H5 C15 1_555 1_555
H6 C15 1_555 1_555
C16 C14 1_555 1_555
H7 C16 1_555 1_555
C17 C2 1_555 1_555
H8 C17 1_555 1_555
C18 H9 1_555 1_555
H10 C18 1_555 1_555
C19 C15 1_555 1_555
H11 C19 1_555 1_555
H12 C19 1_555 1_555
C20 N5 1_555 1_555
H13 C20 1_555 1_555
H14 C20 1_555 1_555
C21 C19 1_555 1_555
H15 C21 1_555 1_555
H16 C21 1_555 1_555
C22 C18 1_555 1_555
H17 C22 1_555 1_555
H18 C22 1_555 1_555
C23 C20 1_555 1_555
H19 C23 1_555 1_555
H20 C23 1_555 1_555
C24 C23 1_555 1_555
H21 C24 1_555 1_555
H22 C24 1_555 1_555
C25 C22 1_555 1_555
H23 C25 1_555 1_555
H24 C25 1_555 1_555
H25 C25 1_555 1_555
C26 C24 1_555 1_555
H26 C26 1_555 1_555
H27 C26 1_555 1_555
H28 C26 1_555 1_555
C27 C21 1_555 1_555
H29 C27 1_555 1_555
H30 C27 1_555 1_555
H31 C27 1_555 1_555
C28 N4 1_555 1_555
H32 C28 1_555 1_555
H33 C28 1_555 1_555
O1 Mg1 1_555 1_555
C29 O1 1_555 1_555
H34 C29 1_555 1_555
H35 C29 1_555 1_555
H36 C29 1_555 1_555
N6 C8 1_555 1_555
C30 N5 1_555 1_555
H37 C30 1_555 1_555
H38 C30 1_555 1_555
C31 C30 1_555 1_555
H39 C31 1_555 1_555
H40 C31 1_555 1_555
C32 C31 1_555 1_555
H41 C32 1_555 1_555
H42 C32 1_555 1_555
C33 C32 1_555 1_555
H43 C33 1_555 1_555
H44 C33 1_555 1_555
H45 C33 1_555 1_555
H46 O1 1_555 1_555
O2 H47 1_555 1_555
C34 O2 1_555 1_555
H48 C34 1_555 1_555
H49 C34 1_555 1_555
H50 C34 1_555 1_555
N1B Mg1 1_555 1_555
N2B Mg1 1_555 1_555
N3B C1B 1_555 1_555
C1B N2B 1_555 1_555
C2B H1B 1_555 1_555
C3B C5B 1_555 1_555
N4B C7B 1_555 1_555
C4B N1B 1_555 1_555
N5B C14B 1_555 1_555
C5B C4B 1_555 1_555
C6B N6 1_555 1_555
C7B C5B 1_555 1_555
C8B N2B 1_555 1_555
C9B C1B 1_555 1_555
C10B C3B 1_555 1_555
H2B C10B 1_555 1_555
C11B C10B 1_555 1_555
H3B C11B 1_555 1_555
C12B C8B 1_555 1_555
C13B C7B 1_555 1_555
H4B C13B 1_555 1_555
C14B C12B 1_555 1_555
C15B N4B 1_555 1_555
H5B C15B 1_555 1_555
H6B C15B 1_555 1_555
C16B C14B 1_555 1_555
H7B C16B 1_555 1_555
C17B C2B 1_555 1_555
H8B C17B 1_555 1_555
C18B H9B 1_555 1_555
H10B C18B 1_555 1_555
C19B C15B 1_555 1_555
H11B C19B 1_555 1_555
H12B C19B 1_555 1_555
C20B N5B 1_555 1_555
H13B C20B 1_555 1_555
H14B C20B 1_555 1_555
C21B C19B 1_555 1_555
H15B C21B 1_555 1_555
H16B C21B 1_555 1_555
C22B C18B 1_555 1_555
H17B C22B 1_555 1_555
H18B C22B 1_555 1_555
C23B C20B 1_555 1_555
H19B C23B 1_555 1_555
H20B C23B 1_555 1_555
C24B C23B 1_555 1_555
H21B C24B 1_555 1_555
H22B C24B 1_555 1_555
C25B C22B 1_555 1_555
H23B C25B 1_555 1_555
H24B C25B 1_555 1_555
H25B C25B 1_555 1_555
C26B C24B 1_555 1_555
H26B C26B 1_555 1_555
H27B C26B 1_555 1_555
H28B C26B 1_555 1_555
C27B C21B 1_555 1_555
H29B C27B 1_555 1_555
H30B C27B 1_555 1_555
H31B C27B 1_555 1_555
C28B N4B 1_555 1_555
H32B C28B 1_555 1_555
H33B C28B 1_555 1_555
N6B C6 1_555 1_555
C30B N5B 1_555 1_555
H37B C30B 1_555 1_555
H38B C30B 1_555 1_555
C31B C30B 1_555 1_555
H39B C31B 1_555 1_555
H40B C31B 1_555 1_555
C32B C31B 1_555 1_555
H41B C32B 1_555 1_555
H42B C32B 1_555 1_555
C33B C32B 1_555 1_555
H43B C33B 1_555 1_555
H44B C33B 1_555 1_555
H45B C33B 1_555 1_555
O1B Mg1 1_555 1_555
C29B O1B 1_555 1_555
H34B C29B 1_555 1_555
H35B C29B 1_555 1_555
H36B C29B 1_555 1_555
H46B O1B 1_555 1_555
C2 C9 1_555 1_555
C3 C6 1_555 1_555
C9 C12 1_555 1_555
C11 C13 1_555 1_555
C16 C17 1_555 1_555
C18 C28 1_555 1_555
N1B C6B 1_555 1_555
N3B C4B 1_555 1_555
C2B C9B 1_555 1_555
C3B C6B 1_555 1_555
C8B N6B 1_555 1_555
C9B C12B 1_555 1_555
C11B C13B 1_555 1_555
C16B C17B 1_555 1_555
C18B C28B 1_555 1_555

#END
