
#######################################################################
#
#                 Cambridge Crystallographic Data Centre
#                                CCDC 
#
#######################################################################
#
# If this CIF has been generated from an entry in the Cambridge 
# Structural Database, then it will include bibliographic, chemical, 
# crystal, experimental, refinement or atomic coordinate data resulting 
# from the CCDC's data processing and validation procedures.
#
#######################################################################

data_EXEGOE
_chemical_formula_moiety         'C26 H29 Br1 O8'
_chemical_name_systematic        
5a-Bromo-9-butoxy-5-(3,4,5-trimethoxyphenyl)-5,8,8a,9-tetrahydrofuro[3',4':6,7]naphtho[2,3-d][1,3]dioxol-6(5aH)-one
_symmetry_cell_setting           orthorhombic
_symmetry_space_group_name_H-M   'P 21 21 21'
_symmetry_Int_Tables_number      19
_space_group_name_Hall           'P 2ac 2ab'
loop_
_symmetry_equiv_pos_site_id
_symmetry_equiv_pos_as_xyz
1 x,y,z
2 1/2-x,-y,1/2+z
3 -x,1/2+y,1/2-z
4 1/2+x,1/2-y,-z
_cell_length_a                   11.050(8)
_cell_length_b                   12.853(9)
_cell_length_c                   17.940(13)
_cell_angle_alpha                90
_cell_angle_beta                 90
_cell_angle_gamma                90
_cell_volume                     2547.94
_exptl_crystal_colour            colorless
_exptl_crystal_description       block
_cell_formula_units_Z            4
loop_
_atom_site_label
_atom_site_type_symbol
_atom_site_fract_x
_atom_site_fract_y
_atom_site_fract_z
Br1 Br 0.29780(10) 0.77297(8) 0.78591(6)
C1 C 0.0257(8) 0.5418(7) 0.7474(5)
H1 H 0.0128 0.4863 0.7840
C2 C 0.0786(7) 0.4917(6) 0.6793(4)
C3 C 0.0238(8) 0.3988(7) 0.6552(5)
H2 H -0.0412 0.3701 0.6809
C4 C 0.0685(9) 0.3529(7) 0.5938(6)
C5 C 0.1150(14) 0.2432(10) 0.5029(6)
H3 H 0.0710 0.2373 0.4563
H4 H 0.1586 0.1787 0.5111
C6 C 0.1699(9) 0.3925(7) 0.5573(5)
C7 C 0.2217(9) 0.4814(7) 0.5766(5)
H5 H 0.2856 0.5086 0.5490
C8 C 0.1767(7) 0.5345(6) 0.6409(5)
C9 C 0.2362(8) 0.6319(6) 0.6661(5)
H6 H 0.3225 0.6241 0.6548
C10 C 0.2271(8) 0.6403(7) 0.7492(5)
C11 C 0.3050(10) 0.5597(7) 0.7901(7)
C12 C 0.1385(10) 0.5921(8) 0.8657(6)
H7 H 0.1533 0.6526 0.8967
H8 H 0.0762 0.5498 0.8887
C13 C 0.1014(7) 0.6249(6) 0.7859(5)
H9 H 0.0572 0.6910 0.7872
C14 C -0.1710(12) 0.5710(14) 0.7888(11)
H10 H -0.1449 0.6136 0.8305
H11 H -0.1707 0.4990 0.8051
C15 C -0.2993(12) 0.6015(12) 0.7678(9)
H12 H -0.3511 0.5405 0.7669
H13 H -0.3004 0.6333 0.7187
C16 C -0.3458(16) 0.6817(12) 0.8285(8)
H14 H -0.4240 0.6622 0.8488
H15 H -0.2881 0.6911 0.8687
C17 C -0.3538(15) 0.7782(11) 0.7773(10)
H16 H -0.2787 0.8157 0.7790
H17 H -0.4183 0.8226 0.7940
H18 H -0.3694 0.7563 0.7270
C18 C 0.1934(9) 0.7291(6) 0.6240(4)
C19 C 0.2761(9) 0.7963(7) 0.5957(5)
H19 H 0.3582 0.7840 0.6030
C20 C 0.2391(10) 0.8835(7) 0.5557(5)
C21 C 0.1176(11) 0.9005(7) 0.5419(5)
C22 C 0.0340(10) 0.8316(7) 0.5702(5)
C23 C 0.0707(8) 0.7457(6) 0.6112(4)
H20 H 0.0136 0.6996 0.6301
C24 C 0.4432(12) 0.9465(10) 0.5427(8)
H21 H 0.4768 0.8915 0.5130
H22 H 0.4540 0.9306 0.5946
H23 H 0.4835 1.0107 0.5312
C25 C 0.0851(13) 0.9771(9) 0.4245(6)
H24 H 0.1644 0.9954 0.4069
H25 H 0.0263 1.0227 0.4025
H26 H 0.0674 0.9065 0.4108
C26 C -0.1755(9) 0.7972(8) 0.5917(7)
H27 H -0.1724 0.7258 0.5760
H28 H -0.2532 0.8259 0.5795
H29 H -0.1631 0.8010 0.6446
O1 O -0.0884(6) 0.5826(6) 0.7302(4)
O2 O 0.0333(7) 0.2605(5) 0.5619(4)
O3 O 0.1985(10) 0.3280(6) 0.4987(4)
O4 O 0.3973(6) 0.5202(6) 0.7685(4)
O5 O 0.2477(7) 0.5332(5) 0.8550(5)
O6 O 0.3171(9) 0.9564(6) 0.5268(5)
O7 O 0.0811(7) 0.9871(5) 0.5036(4)
O8 O -0.0838(7) 0.8545(5) 0.5547(4)
loop_
_geom_bond_atom_site_label_1
_geom_bond_atom_site_label_2
_geom_bond_site_symmetry_1
_geom_bond_site_symmetry_2
Br1 C10 1_555 1_555
C1 H1 1_555 1_555
C2 C1 1_555 1_555
C3 C2 1_555 1_555
H2 C3 1_555 1_555
C4 C3 1_555 1_555
C5 H3 1_555 1_555
H4 C5 1_555 1_555
C6 C4 1_555 1_555
C7 C6 1_555 1_555
H5 C7 1_555 1_555
C8 C2 1_555 1_555
C9 C8 1_555 1_555
H6 C9 1_555 1_555
C10 C9 1_555 1_555
C11 C10 1_555 1_555
C12 H7 1_555 1_555
H8 C12 1_555 1_555
C13 C1 1_555 1_555
H9 C13 1_555 1_555
C14 H10 1_555 1_555
H11 C14 1_555 1_555
C15 C14 1_555 1_555
H12 C15 1_555 1_555
H13 C15 1_555 1_555
C16 C15 1_555 1_555
H14 C16 1_555 1_555
H15 C16 1_555 1_555
C17 C16 1_555 1_555
H16 C17 1_555 1_555
H17 C17 1_555 1_555
H18 C17 1_555 1_555
C18 C9 1_555 1_555
C19 C18 1_555 1_555
H19 C19 1_555 1_555
C20 C19 1_555 1_555
C21 C20 1_555 1_555
C22 C21 1_555 1_555
C23 C18 1_555 1_555
H20 C23 1_555 1_555
C24 H21 1_555 1_555
H22 C24 1_555 1_555
H23 C24 1_555 1_555
C25 H24 1_555 1_555
H25 C25 1_555 1_555
H26 C25 1_555 1_555
C26 H27 1_555 1_555
H28 C26 1_555 1_555
H29 C26 1_555 1_555
O1 C1 1_555 1_555
O2 C4 1_555 1_555
O3 C5 1_555 1_555
O4 C11 1_555 1_555
O5 C11 1_555 1_555
O6 C20 1_555 1_555
O7 C21 1_555 1_555
O8 C22 1_555 1_555
C5 O2 1_555 1_555
C6 O3 1_555 1_555
C7 C8 1_555 1_555
C10 C13 1_555 1_555
C12 C13 1_555 1_555
C12 O5 1_555 1_555
C14 O1 1_555 1_555
C22 C23 1_555 1_555
C24 O6 1_555 1_555
C25 O7 1_555 1_555
C26 O8 1_555 1_555

#END
