
#######################################################################
#
#                 Cambridge Crystallographic Data Centre
#                                CCDC 
#
#######################################################################
#
# If this CIF has been generated from an entry in the Cambridge 
# Structural Database, then it will include bibliographic, chemical, 
# crystal, experimental, refinement or atomic coordinate data resulting 
# from the CCDC's data processing and validation procedures.
#
#######################################################################

data_EXESAD
_chemical_name_common            '(2S,6S)-(+)-hydroxynorketamine hydrochloride'
_chemical_formula_moiety         'C12 H15 Cl1 N1 O2 1+,Cl1 1-'
_chemical_name_systematic        
'(2S,6S)-2-amino-2-(2-chlorophenyl)-6-hydroxycyclohexanone hydrochloride'
_symmetry_cell_setting           monoclinic
_symmetry_space_group_name_H-M   'P 21'
_symmetry_Int_Tables_number      4
_space_group_name_Hall           'P 2yb'
loop_
_symmetry_equiv_pos_site_id
_symmetry_equiv_pos_as_xyz
1 x,y,z
2 -x,1/2+y,-z
_cell_length_a                   7.3493(8)
_cell_length_b                   7.4846(8)
_cell_length_c                   11.3404(12)
_cell_angle_alpha                90
_cell_angle_beta                 96.866(3)
_cell_angle_gamma                90
_cell_volume                     619.323
_exptl_crystal_colour            colorless
_exptl_crystal_description       Block
_cell_formula_units_Z            2
loop_
_atom_site_label
_atom_site_type_symbol
_atom_site_fract_x
_atom_site_fract_y
_atom_site_fract_z
Cl1 Cl 0.65629(7) 0.19303(7) 0.13632(4)
O1 O 0.52262(19) 0.2952(2) 0.38498(13)
O2 O 0.19218(18) 0.4022(2) 0.27433(13)
H1 H 0.220(4) 0.301(3) 0.316(3)
N1 N 0.8564(2) 0.4290(2) 0.36895(15)
H2 H 0.965(3) 0.453(4) 0.336(2)
H3 H 0.846(3) 0.306(3) 0.369(2)
H4 H 0.873(4) 0.457(4) 0.4506(19)
C1 C 0.5225(2) 0.4235(3) 0.31966(17)
C2 C 0.3480(2) 0.5092(2) 0.26264(18)
H5 H 0.3575 0.5291 0.1764
C3 C 0.3299(3) 0.6901(3) 0.32329(18)
H6 H 0.2209 0.7535 0.2840
H7 H 0.3116 0.6706 0.4074
C4 C 0.4997(3) 0.8055(3) 0.31740(19)
H8 H 0.4882 0.9168 0.3631
H9 H 0.5086 0.8387 0.2338
C5 C 0.6740(2) 0.7066(3) 0.36779(18)
H10 H 0.6695 0.6831 0.4533
H11 H 0.7815 0.7836 0.3604
C6 C 0.6981(2) 0.5272(3) 0.30343(17)
C7 C 0.7326(2) 0.5480(3) 0.17337(17)
C8 C 0.7195(3) 0.4052(3) 0.09387(18)
C9 C 0.7583(3) 0.4231(3) -0.02245(18)
H12 H 0.7474 0.3232 -0.0745
C10 C 0.8130(3) 0.5875(3) -0.0621(2)
H13 H 0.8397 0.6012 -0.1416
C11 C 0.8284(3) 0.7311(3) 0.0146(2)
H14 H 0.8650 0.8442 -0.0124
C12 C 0.7907(3) 0.7117(3) 0.13110(19)
H15 H 0.8047 0.8115 0.1832
Cl2 Cl 0.03762(6) 0.04812(6) 0.37078(4)
loop_
_geom_bond_atom_site_label_1
_geom_bond_atom_site_label_2
_geom_bond_site_symmetry_1
_geom_bond_site_symmetry_2
Cl1 C8 1_555 1_555
O1 C1 1_555 1_555
O2 H1 1_555 1_555
N1 H2 1_555 1_555
H3 N1 1_555 1_555
H4 N1 1_555 1_555
C1 C2 1_555 1_555
C2 O2 1_555 1_555
H5 C2 1_555 1_555
C3 C2 1_555 1_555
H6 C3 1_555 1_555
H7 C3 1_555 1_555
C4 C3 1_555 1_555
H8 C4 1_555 1_555
H9 C4 1_555 1_555
C5 C4 1_555 1_555
H10 C5 1_555 1_555
H11 C5 1_555 1_555
C6 N1 1_555 1_555
C7 C6 1_555 1_555
C8 C7 1_555 1_555
C9 C8 1_555 1_555
H12 C9 1_555 1_555
C10 C9 1_555 1_555
H13 C10 1_555 1_555
C11 C10 1_555 1_555
H14 C11 1_555 1_555
C12 C7 1_555 1_555
H15 C12 1_555 1_555
C1 C6 1_555 1_555
C5 C6 1_555 1_555
C11 C12 1_555 1_555

#END
