
#######################################################################
#
#                 Cambridge Crystallographic Data Centre
#                                CCDC 
#
#######################################################################
#
# If this CIF has been generated from an entry in the Cambridge 
# Structural Database, then it will include bibliographic, chemical, 
# crystal, experimental, refinement or atomic coordinate data resulting 
# from the CCDC's data processing and validation procedures.
#
#######################################################################

data_EXESAD01
_chemical_formula_moiety         'C12 H15 Cl1 N1 O2 1+,Cl1 1-'
_chemical_name_systematic        
'(S,S)-1-(2-chlorophenyl)-3-hydroxy-2-oxocyclohexan-1-aminium chloride'
_symmetry_cell_setting           monoclinic
_symmetry_space_group_name_H-M   'P 21'
_symmetry_Int_Tables_number      4
_space_group_name_Hall           'P 2yb'
loop_
_symmetry_equiv_pos_site_id
_symmetry_equiv_pos_as_xyz
1 x,y,z
2 -x,1/2+y,-z
_cell_length_a                   7.3612(9)
_cell_length_b                   7.4951(9)
_cell_length_c                   11.3569(13)
_cell_angle_alpha                90
_cell_angle_beta                 96.832(3)
_cell_angle_gamma                90
_cell_volume                     622.144
_exptl_crystal_colour            colorless
_exptl_crystal_description       Rod
_cell_formula_units_Z            2
loop_
_atom_site_label
_atom_site_type_symbol
_atom_site_fract_x
_atom_site_fract_y
_atom_site_fract_z
Cl1 Cl 0.65647(7) 0.19323(7) 0.13629(4)
O1 O 0.5224(2) 0.2955(2) 0.38508(13)
O2 O 0.19222(19) 0.4026(2) 0.27457(13)
H1 H 0.221(4) 0.304(4) 0.317(3)
N1 N 0.8565(2) 0.4290(3) 0.36893(15)
H2 H 0.965(3) 0.460(3) 0.338(2)
H3 H 0.873(4) 0.458(4) 0.4508(19)
H4 H 0.850(4) 0.305(3) 0.366(2)
C1 C 0.5223(3) 0.4237(3) 0.31967(17)
C2 C 0.3483(3) 0.5092(3) 0.26274(18)
H5 H 0.3578 0.5290 0.1766
C3 C 0.3301(3) 0.6901(3) 0.32322(18)
H6 H 0.2214 0.7534 0.2840
H7 H 0.3118 0.6707 0.4072
C4 C 0.5001(3) 0.8056(3) 0.31739(19)
H8 H 0.4885 0.9167 0.3630
H9 H 0.5090 0.8388 0.2339
C5 C 0.6740(3) 0.7069(3) 0.36779(17)
H10 H 0.6695 0.6835 0.4532
H11 H 0.7814 0.7837 0.3603
C6 C 0.6978(3) 0.5273(3) 0.30326(17)
C7 C 0.7327(2) 0.5480(3) 0.17314(16)
C8 C 0.7194(3) 0.4056(3) 0.09345(18)
C9 C 0.7586(3) 0.4236(3) -0.02248(18)
H12 H 0.7483 0.3237 -0.0744
C10 C 0.8126(3) 0.5872(3) -0.06220(19)
H13 H 0.8389 0.6009 -0.1416
C11 C 0.8281(3) 0.7308(3) 0.0146(2)
H14 H 0.8646 0.8438 -0.0124
C12 C 0.7907(3) 0.7115(3) 0.13100(18)
H15 H 0.8048 0.8111 0.1830
Cl2 Cl 0.96235(7) 0.54826(7) 0.62907(4)
loop_
_geom_bond_atom_site_label_1
_geom_bond_atom_site_label_2
_geom_bond_site_symmetry_1
_geom_bond_site_symmetry_2
Cl1 C8 1_555 1_555
O1 C1 1_555 1_555
O2 H1 1_555 1_555
N1 H2 1_555 1_555
H3 N1 1_555 1_555
H4 N1 1_555 1_555
C1 C2 1_555 1_555
C2 O2 1_555 1_555
H5 C2 1_555 1_555
C3 C2 1_555 1_555
H6 C3 1_555 1_555
H7 C3 1_555 1_555
C4 C3 1_555 1_555
H8 C4 1_555 1_555
H9 C4 1_555 1_555
C5 C4 1_555 1_555
H10 C5 1_555 1_555
H11 C5 1_555 1_555
C6 N1 1_555 1_555
C7 C6 1_555 1_555
C8 C7 1_555 1_555
C9 C8 1_555 1_555
H12 C9 1_555 1_555
C10 C9 1_555 1_555
H13 C10 1_555 1_555
C11 C10 1_555 1_555
H14 C11 1_555 1_555
C12 C7 1_555 1_555
H15 C12 1_555 1_555
C1 C6 1_555 1_555
C5 C6 1_555 1_555
C11 C12 1_555 1_555

#END
