
#######################################################################
#
#                 Cambridge Crystallographic Data Centre
#                                CCDC 
#
#######################################################################
#
# If this CIF has been generated from an entry in the Cambridge 
# Structural Database, then it will include bibliographic, chemical, 
# crystal, experimental, refinement or atomic coordinate data resulting 
# from the CCDC's data processing and validation procedures.
#
#######################################################################

data_EXIGOJ01
_chemical_formula_moiety         'C12 H15 Cl1 N1 O2 1+,Cl1 1-'
_chemical_name_systematic        
'(R,R)-1-(2-chlorophenyl)-3-hydroxy-2-oxocyclohexan-1-aminium chloride'
_symmetry_cell_setting           monoclinic
_symmetry_space_group_name_H-M   'P 21'
_symmetry_Int_Tables_number      4
_space_group_name_Hall           'P 2yb'
loop_
_symmetry_equiv_pos_site_id
_symmetry_equiv_pos_as_xyz
1 x,y,z
2 -x,1/2+y,-z
_cell_length_a                   7.3539(8)
_cell_length_b                   7.4949(7)
_cell_length_c                   11.3571(13)
_cell_angle_alpha                90
_cell_angle_beta                 96.835(3)
_cell_angle_gamma                90
_cell_volume                     621.518
_exptl_crystal_colour            colorless
_exptl_crystal_description       Block
_cell_formula_units_Z            2
loop_
_atom_site_label
_atom_site_type_symbol
_atom_site_fract_x
_atom_site_fract_y
_atom_site_fract_z
Cl1 Cl 0.34350(7) 0.80664(7) 0.86345(5)
O1 O 0.4774(2) 0.7043(2) 0.61505(14)
O2 O 0.8076(2) 0.5975(2) 0.72540(14)
H1 H 0.780(5) 0.698(4) 0.686(3)
N1 N 0.1435(2) 0.5709(3) 0.63106(16)
H2 H 0.032(3) 0.543(3) 0.661(2)
H3 H 0.150(4) 0.696(3) 0.633(2)
H4 H 0.127(4) 0.541(4) 0.550(2)
C1 C 0.4775(3) 0.5761(3) 0.68030(18)
C2 C 0.6514(3) 0.4903(3) 0.73704(19)
H5 H 0.6418 0.4707 0.8232
C3 C 0.6696(3) 0.3098(3) 0.67701(19)
H6 H 0.6881 0.3289 0.5930
H7 H 0.7785 0.2466 0.7164
C4 C 0.4999(3) 0.1942(3) 0.6828(2)
H8 H 0.4909 0.1610 0.7663
H9 H 0.5116 0.0831 0.6372
C5 C 0.3260(3) 0.2929(3) 0.63235(19)
H10 H 0.2185 0.2160 0.6397
H11 H 0.3306 0.3162 0.5470
C6 C 0.3019(3) 0.4724(3) 0.69667(18)
C7 C 0.2673(3) 0.4519(3) 0.82684(17)
C8 C 0.2804(3) 0.5943(3) 0.90638(19)
C9 C 0.2417(3) 0.5760(4) 1.02232(19)
H12 H 0.2526 0.6758 1.0743
C10 C 0.1874(3) 0.4126(3) 1.0622(2)
H13 H 0.1611 0.3991 1.1416
C11 C 0.1716(3) 0.2689(3) 0.9853(2)
H14 H 0.1348 0.1560 1.0122
C12 C 0.2091(3) 0.2884(3) 0.86892(19)
H15 H 0.1950 0.1888 0.8169
Cl2 Cl 0.03786(7) 0.45154(7) 0.37081(4)
loop_
_geom_bond_atom_site_label_1
_geom_bond_atom_site_label_2
_geom_bond_site_symmetry_1
_geom_bond_site_symmetry_2
Cl1 C8 1_555 1_555
O1 C1 1_555 1_555
O2 H1 1_555 1_555
N1 H2 1_555 1_555
H3 N1 1_555 1_555
H4 N1 1_555 1_555
C1 C2 1_555 1_555
C2 O2 1_555 1_555
H5 C2 1_555 1_555
C3 C2 1_555 1_555
H6 C3 1_555 1_555
H7 C3 1_555 1_555
C4 C3 1_555 1_555
H8 C4 1_555 1_555
H9 C4 1_555 1_555
C5 C4 1_555 1_555
H10 C5 1_555 1_555
H11 C5 1_555 1_555
C6 N1 1_555 1_555
C7 C6 1_555 1_555
C8 C7 1_555 1_555
C9 C8 1_555 1_555
H12 C9 1_555 1_555
C10 C9 1_555 1_555
H13 C10 1_555 1_555
C11 C10 1_555 1_555
H14 C11 1_555 1_555
C12 C7 1_555 1_555
H15 C12 1_555 1_555
C1 C6 1_555 1_555
C5 C6 1_555 1_555
C11 C12 1_555 1_555

#END
