
#######################################################################
#
#                 Cambridge Crystallographic Data Centre
#                                CCDC 
#
#######################################################################
#
# If this CIF has been generated from an entry in the Cambridge 
# Structural Database, then it will include bibliographic, chemical, 
# crystal, experimental, refinement or atomic coordinate data resulting 
# from the CCDC's data processing and validation procedures.
#
#######################################################################

data_EXITUB
_chemical_name_common            
3-(4-((4-Methoxybenzylidene)amino)-3-phenyl-5-thioxo-4,5-dihydro-1H-1,2,4-triazol-1-yl)-1,3-diphenylpropan-1-one
_chemical_formula_moiety         'C31 H26 N4 O2 S1'
_chemical_name_systematic        
3-(4-[(4-Methoxybenzylidene)amino]-3-phenyl-5-sulfanylidene-4,5-dihydro-1H-1,2,4-triazol-1-yl)-1,3-diphenylpropan-1-one
_symmetry_cell_setting           monoclinic
_symmetry_space_group_name_H-M   'P 21/c'
_symmetry_Int_Tables_number      14
_space_group_name_Hall           '-P 2ybc'
loop_
_symmetry_equiv_pos_site_id
_symmetry_equiv_pos_as_xyz
1 x,y,z
2 -x,1/2+y,1/2-z
3 -x,-y,-z
4 x,1/2-y,1/2+z
_cell_length_a                   6.0131(12)
_cell_length_b                   13.940(2)
_cell_length_c                   31.490(4)
_cell_angle_alpha                90
_cell_angle_beta                 92.007(6)
_cell_angle_gamma                90
_cell_volume                     2637.95
_exptl_crystal_colour            colorless
_exptl_crystal_description       prism
_cell_formula_units_Z            4
loop_
_atom_site_label
_atom_site_type_symbol
_atom_site_fract_x
_atom_site_fract_y
_atom_site_fract_z
S1 S 0.23615(15) 0.69419(6) 0.33669(3)
O1 O 0.3196(5) 0.7950(2) 0.48255(9)
O2 O 0.1052(4) 0.15537(16) 0.24902(7)
N1 N 0.5402(4) 0.73453(18) 0.40025(8)
N2 N 0.7135(4) 0.69513(18) 0.42388(8)
N3 N 0.5571(4) 0.58826(17) 0.38083(8)
N4 N 0.5420(4) 0.50339(17) 0.35608(8)
C1 C 0.5395(7) 0.8105(3) 0.56280(13)
H1 H 0.3998 0.7786 0.5615
C2 C 0.6540(8) 0.8187(3) 0.60105(12)
H2 H 0.5935 0.7920 0.6259
C3 C 0.8573(8) 0.8656(3) 0.60374(13)
H3 H 0.9359 0.8710 0.6303
C4 C 0.9454(7) 0.9043(3) 0.56763(12)
H4 H 1.0840 0.9371 0.5694
C5 C 0.8309(7) 0.8954(3) 0.52858(12)
H5 H 0.8935 0.9215 0.5038
C6 C 0.6266(6) 0.8490(2) 0.52528(11)
C7 C 0.4977(6) 0.8366(2) 0.48405(12)
C8 C 0.5941(6) 0.8789(2) 0.44398(11)
H6 H 0.7566 0.8671 0.4447
H7 H 0.5713 0.9492 0.4442
C9 C 0.4928(6) 0.8383(2) 0.40247(11)
H8 H 0.3278 0.8475 0.4024
C10 C 0.5829(6) 0.8909(2) 0.36457(11)
C11 C 0.7910(6) 0.8697(3) 0.34881(11)
H9 H 0.8776 0.8190 0.3610
C12 C 0.8718(7) 0.9226(3) 0.31521(12)
H10 H 1.0120 0.9067 0.3041
C13 C 0.7509(8) 0.9976(3) 0.29786(12)
H11 H 0.8080 1.0343 0.2753
C14 C 0.5448(9) 1.0187(3) 0.31375(14)
H12 H 0.4607 1.0707 0.3022
C15 C 0.4606(7) 0.9650(3) 0.34621(13)
H13 H 0.3167 0.9790 0.3561
C16 C 0.4396(5) 0.6727(2) 0.37249(10)
C17 C 0.7243(5) 0.6060(2) 0.41084(9)
C18 C 0.8904(5) 0.5381(2) 0.42774(9)
C19 C 0.8585(5) 0.4386(2) 0.42829(9)
H14 H 0.7240 0.4117 0.4169
C20 C 1.0228(6) 0.3795(2) 0.44547(10)
H15 H 1.0005 0.3121 0.4458
C21 C 1.2204(6) 0.4177(2) 0.46231(10)
H16 H 1.3333 0.3765 0.4737
C22 C 1.2516(6) 0.5166(2) 0.46237(10)
H17 H 1.3856 0.5430 0.4742
C23 C 1.0891(5) 0.5767(2) 0.44532(9)
H18 H 1.1116 0.6441 0.4455
C24 C 0.3397(5) 0.4742(2) 0.34988(9)
H19 H 0.2228 0.5062 0.3637
C25 C 0.2871(5) 0.3929(2) 0.32204(9)
C26 C 0.0753(5) 0.3513(2) 0.32370(10)
H20 H -0.0311 0.3776 0.3420
C27 C 0.0199(5) 0.2725(2) 0.29886(10)
H21 H -0.1234 0.2443 0.3003
C28 C 0.1763(5) 0.2344(2) 0.27151(9)
C29 C 0.3856(5) 0.2765(2) 0.26850(9)
H22 H 0.4902 0.2516 0.2495
C30 C 0.4381(5) 0.3550(2) 0.29371(9)
H23 H 0.5804 0.3839 0.2917
C31 C 0.2434(6) 0.1194(3) 0.21661(10)
H24 H 0.2660 0.1697 0.1954
H25 H 0.1713 0.0639 0.2029
H26 H 0.3875 0.1000 0.2293
loop_
_geom_bond_atom_site_label_1
_geom_bond_atom_site_label_2
_geom_bond_site_symmetry_1
_geom_bond_site_symmetry_2
S1 C16 1_555 1_555
O1 C7 1_555 1_555
O2 C28 1_555 1_555
N1 N2 1_555 1_555
N2 C17 1_555 1_555
N3 N4 1_555 1_555
N4 C24 1_555 1_555
C1 H1 1_555 1_555
C2 C1 1_555 1_555
H2 C2 1_555 1_555
C3 C2 1_555 1_555
H3 C3 1_555 1_555
C4 C3 1_555 1_555
H4 C4 1_555 1_555
C5 C4 1_555 1_555
H5 C5 1_555 1_555
C6 C1 1_555 1_555
C7 C6 1_555 1_555
C8 C7 1_555 1_555
H6 C8 1_555 1_555
H7 C8 1_555 1_555
C9 N1 1_555 1_555
H8 C9 1_555 1_555
C10 C9 1_555 1_555
C11 C10 1_555 1_555
H9 C11 1_555 1_555
C12 C11 1_555 1_555
H10 C12 1_555 1_555
C13 C12 1_555 1_555
H11 C13 1_555 1_555
C14 C13 1_555 1_555
H12 C14 1_555 1_555
C15 C10 1_555 1_555
H13 C15 1_555 1_555
C16 N1 1_555 1_555
C17 N3 1_555 1_555
C18 C17 1_555 1_555
C19 C18 1_555 1_555
H14 C19 1_555 1_555
C20 C19 1_555 1_555
H15 C20 1_555 1_555
C21 C20 1_555 1_555
H16 C21 1_555 1_555
C22 C21 1_555 1_555
H17 C22 1_555 1_555
C23 C18 1_555 1_555
H18 C23 1_555 1_555
C24 H19 1_555 1_555
C25 C24 1_555 1_555
C26 C25 1_555 1_555
H20 C26 1_555 1_555
C27 C26 1_555 1_555
H21 C27 1_555 1_555
C28 C27 1_555 1_555
C29 C28 1_555 1_555
H22 C29 1_555 1_555
C30 C25 1_555 1_555
H23 C30 1_555 1_555
C31 O2 1_555 1_555
H24 C31 1_555 1_555
H25 C31 1_555 1_555
H26 C31 1_555 1_555
N3 C16 1_555 1_555
C5 C6 1_555 1_555
C8 C9 1_555 1_555
C14 C15 1_555 1_555
C22 C23 1_555 1_555
C29 C30 1_555 1_555

#END
