
#######################################################################
#
#                 Cambridge Crystallographic Data Centre
#                                CCDC 
#
#######################################################################
#
# If this CIF has been generated from an entry in the Cambridge 
# Structural Database, then it will include bibliographic, chemical, 
# crystal, experimental, refinement or atomic coordinate data resulting 
# from the CCDC's data processing and validation procedures.
#
#######################################################################

data_EXIVOX
_chemical_name_common            3-(2-Bromophenyl)thiazolo[3,2-a]benzimidazole
_chemical_formula_moiety         'C15 H9 Br1 N2 S1'
_chemical_name_systematic        
3-(2-Bromophenyl)[1,3]thiazolo[3,2-a]benzimidazole
_symmetry_cell_setting           monoclinic
_symmetry_space_group_name_H-M   'P 21/c'
_symmetry_Int_Tables_number      14
_space_group_name_Hall           '-P 2ybc'
loop_
_symmetry_equiv_pos_site_id
_symmetry_equiv_pos_as_xyz
1 x,y,z
2 -x,1/2+y,1/2-z
3 -x,-y,-z
4 x,1/2-y,1/2+z
_cell_length_a                   11.2459(19)
_cell_length_b                   9.1554(16)
_cell_length_c                   14.2842(18)
_cell_angle_alpha                90
_cell_angle_beta                 118.159(9)
_cell_angle_gamma                90
_cell_volume                     1296.64
_exptl_crystal_colour            colorless
_exptl_crystal_description       block
_cell_formula_units_Z            4
loop_
_atom_site_label
_atom_site_type_symbol
_atom_site_fract_x
_atom_site_fract_y
_atom_site_fract_z
Br1 Br 0.22834(4) 0.45478(5) 0.55293(3)
C1 C 0.2162(3) 0.0447(4) 0.5360(3)
H1 H 0.1460 0.0949 0.4811
C2 C 0.1918(4) -0.0647(4) 0.5901(3)
H2 H 0.1033 -0.0901 0.5711
C3 C 0.2968(4) -0.1382(4) 0.6728(3)
H3 H 0.2766 -0.2115 0.7082
C4 C 0.4298(4) -0.1059(4) 0.7041(3)
H4 H 0.4991 -0.1562 0.7596
C5 C 0.4574(3) 0.0052(4) 0.6498(3)
C6 C 0.3489(3) 0.0771(3) 0.5661(3)
C7 C 0.5470(3) 0.1543(4) 0.5890(3)
C8 C 0.4831(3) 0.3354(4) 0.4467(3)
H5 H 0.4781 0.4050 0.3975
C9 C 0.3737(3) 0.2780(4) 0.4475(3)
C10 C 0.2316(3) 0.3134(4) 0.3760(3)
C11 C 0.1737(4) 0.2726(5) 0.2701(3)
H6 H 0.2244 0.2219 0.2449
C12 C 0.0396(5) 0.3077(5) 0.2014(4)
H7 H 0.0014 0.2812 0.1302
C13 C -0.0352(4) 0.3798(6) 0.2377(4)
H8 H -0.1247 0.4020 0.1912
C14 C 0.0187(4) 0.4208(5) 0.3418(4)
H9 H -0.0338 0.4697 0.3662
C15 C 0.1524(3) 0.3888(4) 0.4105(3)
N1 N 0.4104(2) 0.1755(3) 0.5283(2)
N2 N 0.5811(3) 0.0540(3) 0.6619(2)
S1 S 0.63442(8) 0.26789(10) 0.54574(8)
loop_
_geom_bond_atom_site_label_1
_geom_bond_atom_site_label_2
_geom_bond_site_symmetry_1
_geom_bond_site_symmetry_2
Br1 C15 1_555 1_555
C1 H1 1_555 1_555
C2 C1 1_555 1_555
H2 C2 1_555 1_555
C3 C2 1_555 1_555
H3 C3 1_555 1_555
C4 C3 1_555 1_555
H4 C4 1_555 1_555
C5 C4 1_555 1_555
C6 C1 1_555 1_555
C7 N1 1_555 1_555
C8 H5 1_555 1_555
C9 C8 1_555 1_555
C10 C9 1_555 1_555
C11 C10 1_555 1_555
H6 C11 1_555 1_555
C12 C11 1_555 1_555
H7 C12 1_555 1_555
C13 C12 1_555 1_555
H8 C13 1_555 1_555
C14 C13 1_555 1_555
H9 C14 1_555 1_555
C15 C10 1_555 1_555
N1 C6 1_555 1_555
N2 C5 1_555 1_555
S1 C7 1_555 1_555
C5 C6 1_555 1_555
C7 N2 1_555 1_555
C8 S1 1_555 1_555
C9 N1 1_555 1_555
C14 C15 1_555 1_555

#END
