
#######################################################################
#
#                 Cambridge Crystallographic Data Centre
#                                CCDC 
#
#######################################################################
#
# If this CIF has been generated from an entry in the Cambridge 
# Structural Database, then it will include bibliographic, chemical, 
# crystal, experimental, refinement or atomic coordinate data resulting 
# from the CCDC's data processing and validation procedures.
#
#######################################################################

data_EXIVEN
_chemical_formula_moiety         'C16 H12 Cl1 F1 N2 O4'
_chemical_name_systematic        
2-Chloro-N-[2-(2-fluorobenzoyl)-4-nitrophenyl]-N-methylacetamide
_symmetry_cell_setting           triclinic
_symmetry_space_group_name_H-M   'P -1'
_symmetry_Int_Tables_number      2
_space_group_name_Hall           '-P 1'
loop_
_symmetry_equiv_pos_site_id
_symmetry_equiv_pos_as_xyz
1 x,y,z
2 -x,-y,-z
_cell_length_a                   8.1339(6)
_cell_length_b                   10.9639(8)
_cell_length_c                   17.8690(11)
_cell_angle_alpha                81.251(6)
_cell_angle_beta                 82.239(6)
_cell_angle_gamma                87.937(6)
_cell_volume                     1560.38
_exptl_crystal_colour            colorless
_exptl_crystal_description       block
_chemical_melting_point          '387-389 K'
_cell_formula_units_Z            4
loop_
_atom_site_label
_atom_site_type_symbol
_atom_site_fract_x
_atom_site_fract_y
_atom_site_fract_z
C1 C 0.6305(4) 0.5284(3) 0.37754(17)
H1 H 0.5092 0.5222 0.3930
H2 H 0.6554 0.6170 0.3618
C2 C 0.6740(4) 0.4643(3) 0.30868(17)
C3 C 0.6349(4) 0.4613(2) 0.17778(16)
C4 C 0.7948(4) 0.4601(3) 0.13956(18)
H3 H 0.8838 0.4889 0.1612
C5 C 0.8253(4) 0.4175(3) 0.07052(18)
H4 H 0.9352 0.4142 0.0449
C6 C 0.6941(4) 0.3797(3) 0.03924(17)
C7 C 0.5340(4) 0.3788(3) 0.07590(17)
H5 H 0.4455 0.3525 0.0529
C8 C 0.5044(4) 0.4168(3) 0.14665(17)
C9 C 0.3307(4) 0.4051(3) 0.18774(19)
C10 C 0.3030(4) 0.3575(3) 0.27043(19)
C11 C 0.3959(4) 0.2618(3) 0.3054(2)
C12 C 0.3721(5) 0.2190(4) 0.3814(2)
H6 H 0.4374 0.1526 0.4030
C13 C 0.2500(6) 0.2752(4) 0.4261(2)
H7 H 0.2326 0.2486 0.4797
C14 C 0.1531(5) 0.3689(4) 0.3946(3)
H8 H 0.0692 0.4065 0.4263
C15 C 0.1775(4) 0.4089(4) 0.3168(2)
H9 H 0.1078 0.4720 0.2950
C16 C 0.5018(4) 0.6286(3) 0.24344(19)
H10 H 0.4059 0.6184 0.2833
H11 H 0.4633 0.6481 0.1933
H12 H 0.5702 0.6961 0.2516
N1 N 0.6014(3) 0.5132(2) 0.24675(13)
N2 N 0.7239(4) 0.3326(3) -0.03396(17)
O1 O 0.7643(3) 0.3733(2) 0.30914(13)
O2 O 0.6212(9) 0.2889(10) -0.0650(6)
O3 O 0.8746(8) 0.3465(9) -0.0608(4)
O6 O 0.2145(3) 0.4335(3) 0.15219(15)
F1 F 0.5148(2) 0.20503(17) 0.26090(12)
Cl1 Cl 0.7252(8) 0.4779(4) 0.45561(19)
C17 C 0.8713(5) 0.0822(3) 0.37310(19)
H13 H 0.8236 0.1665 0.3629
H14 H 0.9934 0.0900 0.3682
C18 C 0.8310(4) 0.0101(3) 0.31241(19)
C19 C 0.8622(4) -0.0031(3) 0.17869(17)
C20 C 0.7930(5) 0.0703(3) 0.1207(2)
H15 H 0.7735 0.1555 0.1237
C21 C 0.7519(6) 0.0231(4) 0.0590(2)
H16 H 0.7064 0.0745 0.0189
C22 C 0.7787(4) -0.1018(3) 0.05717(19)
C23 C 0.8398(4) -0.1771(3) 0.11459(18)
H17 H 0.8512 -0.2631 0.1127
C24 C 0.8858(4) -0.1294(3) 0.17617(17)
C25 C 0.9562(4) -0.2199(3) 0.23510(17)
C26 C 1.0948(4) -0.1857(3) 0.27359(18)
C27 C 1.1021(4) -0.2291(3) 0.3501(2)
C28 C 1.2290(6) -0.1986(4) 0.3868(2)
H19 H 1.2299 -0.2281 0.4396
C29 C 1.3531(5) -0.1262(4) 0.3474(3)
H20 H 1.4411 -0.1053 0.3729
C30 C 1.3528(4) -0.0830(3) 0.2716(3)
H21 H 1.4407 -0.0336 0.2437
C31 C 1.0045(5) 0.1643(3) 0.2218(2)
H22 H 0.9343 0.2371 0.2294
H23 H 1.0555 0.1722 0.1684
H24 H 1.0916 0.1578 0.2552
N3 N 0.9025(3) 0.0527(2) 0.24041(14)
N4 N 0.7393(4) -0.1532(4) -0.00907(19)
O7 O 0.7432(3) -0.0798(2) 0.32668(13)
O8 O 0.6964(13) -0.0882(7) -0.0642(5)
O9 O 0.775(2) -0.2652(7) -0.0057(5)
O12 O 0.9024(3) -0.32484(19) 0.24960(14)
F2 F 0.9848(4) -0.3000(3) 0.39096(18)
Cl2 Cl 0.8013(6) 0.0204(5) 0.46559(17)
C32 C 1.2222(4) -0.1128(3) 0.2367(2)
H25 H 1.2206 -0.0810 0.1843
H18? H 1.0170 -0.2814 0.3778
O4? O 0.5898(8) 0.3148(10) -0.0579(6)
O5? O 0.8581(8) 0.3038(9) -0.0666(5)
O10? O 0.6291(12) -0.0950(8) -0.0452(5)
O11? O 0.7985(19) -0.2503(8) -0.0264(6)
F3? F 1.2279(7) -0.0727(5) 0.1659(4)
Cl3? Cl 0.7034(6) 0.4317(3) 0.45940(14)
Cl4? Cl 0.7300(5) 0.0317(4) 0.45918(13)
loop_
_geom_bond_atom_site_label_1
_geom_bond_atom_site_label_2
_geom_bond_site_symmetry_1
_geom_bond_site_symmetry_2
C1 H1 1_555 1_555
H2 C1 1_555 1_555
C2 C1 1_555 1_555
C3 C4 1_555 1_555
C4 H3 1_555 1_555
C5 C4 1_555 1_555
H4 C5 1_555 1_555
C6 C5 1_555 1_555
C7 C6 1_555 1_555
H5 C7 1_555 1_555
C8 C3 1_555 1_555
C9 C8 1_555 1_555
C10 C9 1_555 1_555
C11 C10 1_555 1_555
C12 C11 1_555 1_555
H6 C12 1_555 1_555
C13 C12 1_555 1_555
H7 C13 1_555 1_555
C14 C13 1_555 1_555
H8 C14 1_555 1_555
C15 C10 1_555 1_555
H9 C15 1_555 1_555
C16 H10 1_555 1_555
H11 C16 1_555 1_555
H12 C16 1_555 1_555
C17 H13 1_555 1_555
H14 C17 1_555 1_555
C18 C17 1_555 1_555
C19 C20 1_555 1_555
C20 H15 1_555 1_555
C21 C20 1_555 1_555
H16 C21 1_555 1_555
C22 C21 1_555 1_555
C23 C22 1_555 1_555
H17 C23 1_555 1_555
C24 C19 1_555 1_555
C25 C24 1_555 1_555
C26 C25 1_555 1_555
C27 C26 1_555 1_555
C28 C27 1_555 1_555
H19 C28 1_555 1_555
C29 C28 1_555 1_555
H20 C29 1_555 1_555
C30 C29 1_555 1_555
H21 C30 1_555 1_555
C31 H22 1_555 1_555
H23 C31 1_555 1_555
H24 C31 1_555 1_555
N1 C2 1_555 1_555
N2 C6 1_555 1_555
N3 C18 1_555 1_555
N4 C22 1_555 1_555
O1 C2 1_555 1_555
O2 N2 1_555 1_555
O3 N2 1_555 1_555
O6 C9 1_555 1_555
O7 C18 1_555 1_555
O8 N4 1_555 1_555
O9 N4 1_555 1_555
O12 C25 1_555 1_555
F1 C11 1_555 1_555
F2 C27 1_555 1_555
Cl1 C1 1_555 1_555
Cl2 C17 1_555 1_555
C32 C26 1_555 1_555
H25 C32 1_555 1_555
C3 N1 1_555 1_555
C7 C8 1_555 1_555
C14 C15 1_555 1_555
C16 N1 1_555 1_555
C19 N3 1_555 1_555
C23 C24 1_555 1_555
C30 C32 1_555 1_555
C31 N3 1_555 1_555

#END
