
#######################################################################
#
#                 Cambridge Crystallographic Data Centre
#                                CCDC 
#
#######################################################################
#
# If this CIF has been generated from an entry in the Cambridge 
# Structural Database, then it will include bibliographic, chemical, 
# crystal, experimental, refinement or atomic coordinate data resulting 
# from the CCDC's data processing and validation procedures.
#
#######################################################################

data_EXOGOP
_chemical_formula_moiety         'C36 H34 Cl2 N2 O1'
_chemical_name_systematic        
N-(1-(2,8-bis(4-chlorophenyl)-5-phenyladamantan-1-yl)ethyl)pyridine-2-carboxamide
_symmetry_cell_setting           monoclinic
_symmetry_space_group_name_H-M   'P 21'
_symmetry_Int_Tables_number      4
_space_group_name_Hall           'P 2yb'
loop_
_symmetry_equiv_pos_site_id
_symmetry_equiv_pos_as_xyz
1 x,y,z
2 -x,1/2+y,-z
_cell_length_a                   11.2659(3)
_cell_length_b                   22.7794(6)
_cell_length_c                   11.6694(3)
_cell_angle_alpha                90
_cell_angle_beta                 95.182(2)
_cell_angle_gamma                90
_cell_volume                     2982.48
_exptl_crystal_colour            colorless
_exptl_crystal_description       block
_cell_formula_units_Z            4
_exptl_crystal_recrystallization_method dichloromethane/n-Hexane
loop_
_atom_site_label
_atom_site_type_symbol
_atom_site_fract_x
_atom_site_fract_y
_atom_site_fract_z
Cl1 Cl 1.36462(6) 0.55737(3) 0.37873(7)
Cl2 Cl 0.70313(6) 0.51564(3) -0.51647(5)
O1 O 1.00533(19) 0.65385(9) -0.24942(16)
N1 N 1.20682(19) 0.56707(11) -0.0699(2)
N2 N 1.01123(16) 0.63163(8) -0.05919(17)
H1 H 1.0499 0.6131 -0.0035
C1 C 1.3459(3) 0.51616(18) -0.1751(5)
H2 H 1.4128 0.4922 -0.1738
C2 C 1.3014(2) 0.53211(15) -0.0743(4)
H3 H 1.3389 0.5179 -0.0056
C3 C 1.1552(2) 0.58752(11) -0.1705(3)
C4 C 1.0503(2) 0.62795(10) -0.1638(2)
C5 C 0.90648(18) 0.66547(10) -0.03448(19)
H4 H 0.8604 0.6723 -0.1086
C6 C 0.82443(18) 0.63078(9) 0.04037(17)
C7 C 0.70488(18) 0.66460(10) 0.03714(18)
H5 H 0.7201 0.7036 0.0683
H6 H 0.6726 0.6689 -0.0423
C8 C 0.61088(19) 0.63414(10) 0.10556(19)
C9 C 0.4947(2) 0.66965(11) 0.0929(2)
C10 C 0.4408(3) 0.69069(14) 0.1870(3)
H7 H 0.4747 0.6833 0.2612
C11 C 0.3349(3) 0.72307(16) 0.1696(4)
H8 H 0.2986 0.7363 0.2333
C12 C 0.2839(2) 0.73570(15) 0.0626(3)
H9 H 0.2140 0.7575 0.0528
C13 C 1.2924(4) 0.53524(17) -0.2763(5)
H10 H 1.3202 0.5236 -0.3454
C14 C 1.1941(3) 0.57293(14) -0.2756(3)
H11 H 1.1564 0.5876 -0.3438
C15 C 0.87114(18) 0.62866(10) 0.17063(18)
H12 H 0.8662 0.6693 0.1972
C16 C 0.99904(19) 0.60902(10) 0.21119(18)
C17 C 1.0544(2) 0.55712(11) 0.1826(2)
H13 H 1.0154 0.5322 0.1285
C18 C 1.1666(2) 0.54157(11) 0.2328(2)
H14 H 1.2026 0.5071 0.2110
C19 C 1.2237(2) 0.57723(12) 0.3144(2)
C20 C 1.1732(2) 0.62912(13) 0.3457(2)
H15 H 1.2127 0.6534 0.4007
C21 C 1.0621(2) 0.64432(11) 0.2934(2)
H16 H 1.0281 0.6795 0.3140
C22 C 0.7807(2) 0.59471(10) 0.23748(18)
H17 H 0.8121 0.5917 0.3184
C23 C 0.66329(19) 0.62871(11) 0.23014(18)
H18 H 0.6071 0.6086 0.2747
H19 H 0.6770 0.6676 0.2627
C24 C 0.58937(19) 0.57086(10) 0.0599(2)
H20 H 0.5351 0.5507 0.1065
H21 H 0.5529 0.5723 -0.0186
C25 C 0.70682(19) 0.53703(10) 0.06353(18)
H22 H 0.6913 0.4973 0.0334
C26 C 0.80038(18) 0.56734(9) -0.00654(17)
H23 H 0.8748 0.5459 0.0129
C27 C 0.77366(18) 0.56002(10) -0.13656(17)
C28 C 0.6714(2) 0.57986(10) -0.2030(2)
H24 H 0.6161 0.6025 -0.1682
C29 C 0.6507(2) 0.56661(11) -0.31852(19)
H25 H 0.5818 0.5799 -0.3605
C30 C 0.7326(2) 0.53366(10) -0.37119(18)
C31 C 0.8356(2) 0.51438(11) -0.31047(18)
H26 H 0.8918 0.4930 -0.3467
C32 C 0.85385(19) 0.52738(10) -0.19431(18)
H27 H 0.9228 0.5137 -0.1531
C33 C 0.7587(2) 0.53308(10) 0.18895(19)
H28 H 0.7037 0.5123 0.2339
H29 H 0.8331 0.5114 0.1936
C34 C 0.4409(2) 0.68280(13) -0.0162(3)
H30 H 0.4754 0.6692 -0.0806
C35 C 0.3376(3) 0.71560(15) -0.0309(3)
H31 H 0.3041 0.7241 -0.1048
C36 C 0.9458(2) 0.72583(10) 0.0120(2)
H32 H 0.9969 0.7211 0.0818
H33 H 0.8770 0.7483 0.0274
H34 H 0.9882 0.7459 -0.0440
Cl3 Cl 0.44436(7) 0.87777(4) 0.82595(7)
Cl4 Cl 1.02039(12) 0.91443(4) -0.01533(6)
O2 O 0.75526(15) 0.77721(7) 0.22085(14)
N3 N 0.57081(18) 0.87403(10) 0.36248(17)
N4 N 0.75377(16) 0.80058(8) 0.40950(15)
H35 H 0.7177 0.8199 0.4593
C37 C 0.4075(2) 0.91026(12) 0.2371(2)
H36 H 0.3407 0.9343 0.2267
C38 C 0.4732(2) 0.90750(12) 0.3420(2)
H37 H 0.4488 0.9300 0.4020
C39 C 0.6043(2) 0.84213(10) 0.2746(2)
C40 C 0.71181(19) 0.80352(9) 0.29879(19)
C41 C 0.85890(18) 0.76575(10) 0.44937(18)
H38 H 0.8996 0.7563 0.3810
C42 C 0.94892(18) 0.80069(9) 0.53074(17)
C43 C 1.06940(18) 0.76752(10) 0.53529(18)
H39 H 1.0918 0.7626 0.4575
H40 H 1.0594 0.7287 0.5674
C44 C 1.17132(19) 0.79972(10) 0.60822(19)
C45 C 1.28594(19) 0.76502(10) 0.60043(19)
C46 C 1.2989(2) 0.70951(12) 0.6468(2)
H41 H 1.2378 0.6938 0.6857
C47 C 1.4004(3) 0.67660(14) 0.6367(3)
H42 H 1.4079 0.6399 0.6716
C48 C 1.4902(2) 0.69733(13) 0.5761(3)
H43 H 1.5576 0.6747 0.5678
C49 C 0.4418(2) 0.87715(14) 0.1486(2)
H44 H 0.3982 0.8778 0.0771
C50 C 0.5429(2) 0.84242(12) 0.1669(2)
H45 H 0.5687 0.8198 0.1077
C51 C 0.91547(19) 0.80180(10) 0.65770(17)
H46 H 0.9217 0.7609 0.6835
C52 C 0.7921(2) 0.82217(10) 0.68705(18)
C53 C 0.7342(2) 0.87447(11) 0.6543(2)
H47 H 0.7684 0.8990 0.6027
C54 C 0.6278(2) 0.89131(12) 0.6954(2)
H48 H 0.5911 0.9263 0.6712
C55 C 0.5772(2) 0.85581(13) 0.7721(2)
C56 C 0.6291(3) 0.80336(14) 0.8066(3)
H49 H 0.5938 0.7791 0.8578
C57 C 0.7346(2) 0.78746(12) 0.7637(2)
H50 H 0.7692 0.7518 0.7870
C58 C 1.0145(2) 0.83498(10) 0.73349(18)
H51 H 0.9927 0.8366 0.8128
C59 C 1.0285(2) 0.89751(10) 0.6892(2)
H52 H 1.0891 0.9180 0.7382
H53 H 0.9539 0.9186 0.6911
C60 C 1.0642(2) 0.89530(10) 0.56591(19)
H54 H 1.0738 0.9355 0.5384
C61 C 0.96599(19) 0.86439(9) 0.48678(17)
H55 H 0.8919 0.8851 0.4990
C62 C 0.9819(2) 0.87156(10) 0.35907(18)
C63 C 1.0728(2) 0.84761(11) 0.3007(2)
H56 H 1.1277 0.8226 0.3399
C64 C 1.0839(3) 0.85991(11) 0.1858(2)
H57 H 1.1456 0.8434 0.1487
C65 C 1.0036(3) 0.89643(11) 0.1276(2)
C66 C 0.9106(3) 0.92015(11) 0.1804(2)
H58 H 0.8546 0.9440 0.1396
C67 C 0.9019(2) 0.90799(10) 0.2951(2)
H59 H 0.8399 0.9248 0.3313
C68 C 1.1831(2) 0.86336(10) 0.5662(2)
H60 H 1.2429 0.8838 0.6164
H61 H 1.2088 0.8633 0.4891
C69 C 1.1330(2) 0.80253(10) 0.73146(18)
H62 H 1.1249 0.7630 0.7608
H63 H 1.1938 0.8226 0.7810
C70 C 1.3783(3) 0.78561(14) 0.5414(3)
H64 H 1.3734 0.8230 0.5096
C71 C 1.4786(3) 0.75141(17) 0.5287(4)
H65 H 1.5387 0.7660 0.4870
C72 C 0.8199(2) 0.70725(10) 0.4985(2)
H66 H 0.7713 0.7146 0.5605
H67 H 0.8890 0.6851 0.5266
H68 H 0.7748 0.6854 0.4392
loop_
_geom_bond_atom_site_label_1
_geom_bond_atom_site_label_2
_geom_bond_site_symmetry_1
_geom_bond_site_symmetry_2
Cl1 C19 1_555 1_555
Cl2 C30 1_555 1_555
O1 C4 1_555 1_555
N1 C2 1_555 1_555
N2 H1 1_555 1_555
C1 H2 1_555 1_555
C2 C1 1_555 1_555
H3 C2 1_555 1_555
C3 N1 1_555 1_555
C4 N2 1_555 1_555
C5 N2 1_555 1_555
H4 C5 1_555 1_555
C6 C5 1_555 1_555
C7 C6 1_555 1_555
H5 C7 1_555 1_555
H6 C7 1_555 1_555
C8 C7 1_555 1_555
C9 C8 1_555 1_555
C10 C9 1_555 1_555
H7 C10 1_555 1_555
C11 C10 1_555 1_555
H8 C11 1_555 1_555
C12 C11 1_555 1_555
H9 C12 1_555 1_555
C13 C1 1_555 1_555
H10 C13 1_555 1_555
C14 C3 1_555 1_555
H11 C14 1_555 1_555
C15 C6 1_555 1_555
H12 C15 1_555 1_555
C16 C15 1_555 1_555
C17 C16 1_555 1_555
H13 C17 1_555 1_555
C18 C17 1_555 1_555
H14 C18 1_555 1_555
C19 C18 1_555 1_555
C20 C19 1_555 1_555
H15 C20 1_555 1_555
C21 C16 1_555 1_555
H16 C21 1_555 1_555
C22 C15 1_555 1_555
H17 C22 1_555 1_555
C23 C8 1_555 1_555
H18 C23 1_555 1_555
H19 C23 1_555 1_555
C24 C8 1_555 1_555
H20 C24 1_555 1_555
H21 C24 1_555 1_555
C25 C24 1_555 1_555
H22 C25 1_555 1_555
C26 C6 1_555 1_555
H23 C26 1_555 1_555
C27 C26 1_555 1_555
C28 C27 1_555 1_555
H24 C28 1_555 1_555
C29 C28 1_555 1_555
H25 C29 1_555 1_555
C30 C29 1_555 1_555
C31 C30 1_555 1_555
H26 C31 1_555 1_555
C32 C27 1_555 1_555
H27 C32 1_555 1_555
C33 C22 1_555 1_555
H28 C33 1_555 1_555
H29 C33 1_555 1_555
C34 C9 1_555 1_555
H30 C34 1_555 1_555
C35 C12 1_555 1_555
H31 C35 1_555 1_555
C36 C5 1_555 1_555
H32 C36 1_555 1_555
H33 C36 1_555 1_555
H34 C36 1_555 1_555
Cl3 C55 1_555 1_555
Cl4 C65 1_555 1_555
O2 C40 1_555 1_555
N3 C38 1_555 1_555
N4 H35 1_555 1_555
C37 H36 1_555 1_555
C38 C37 1_555 1_555
H37 C38 1_555 1_555
C39 N3 1_555 1_555
C40 N4 1_555 1_555
C41 N4 1_555 1_555
H38 C41 1_555 1_555
C42 C41 1_555 1_555
C43 C42 1_555 1_555
H39 C43 1_555 1_555
H40 C43 1_555 1_555
C44 C43 1_555 1_555
C45 C44 1_555 1_555
C46 C45 1_555 1_555
H41 C46 1_555 1_555
C47 C46 1_555 1_555
H42 C47 1_555 1_555
C48 C47 1_555 1_555
H43 C48 1_555 1_555
C49 C37 1_555 1_555
H44 C49 1_555 1_555
C50 C39 1_555 1_555
H45 C50 1_555 1_555
C51 C42 1_555 1_555
H46 C51 1_555 1_555
C52 C51 1_555 1_555
C53 C52 1_555 1_555
H47 C53 1_555 1_555
C54 C53 1_555 1_555
H48 C54 1_555 1_555
C55 C54 1_555 1_555
C56 C55 1_555 1_555
H49 C56 1_555 1_555
C57 C52 1_555 1_555
H50 C57 1_555 1_555
C58 C51 1_555 1_555
H51 C58 1_555 1_555
C59 C58 1_555 1_555
H52 C59 1_555 1_555
H53 C59 1_555 1_555
C60 C59 1_555 1_555
H54 C60 1_555 1_555
C61 C42 1_555 1_555
H55 C61 1_555 1_555
C62 C61 1_555 1_555
C63 C62 1_555 1_555
H56 C63 1_555 1_555
C64 C63 1_555 1_555
H57 C64 1_555 1_555
C65 C64 1_555 1_555
C66 C65 1_555 1_555
H58 C66 1_555 1_555
C67 C62 1_555 1_555
H59 C67 1_555 1_555
C68 C44 1_555 1_555
H60 C68 1_555 1_555
H61 C68 1_555 1_555
C69 C44 1_555 1_555
H62 C69 1_555 1_555
H63 C69 1_555 1_555
C70 C45 1_555 1_555
H64 C70 1_555 1_555
C71 C48 1_555 1_555
H65 C71 1_555 1_555
C72 C41 1_555 1_555
H66 C72 1_555 1_555
H67 C72 1_555 1_555
H68 C72 1_555 1_555
C3 C4 1_555 1_555
C13 C14 1_555 1_555
C20 C21 1_555 1_555
C22 C23 1_555 1_555
C25 C26 1_555 1_555
C25 C33 1_555 1_555
C31 C32 1_555 1_555
C34 C35 1_555 1_555
C39 C40 1_555 1_555
C49 C50 1_555 1_555
C56 C57 1_555 1_555
C58 C69 1_555 1_555
C60 C61 1_555 1_555
C60 C68 1_555 1_555
C66 C67 1_555 1_555
C70 C71 1_555 1_555

#END
