
#######################################################################
#
#                 Cambridge Crystallographic Data Centre
#                                CCDC 
#
#######################################################################
#
# If this CIF has been generated from an entry in the Cambridge 
# Structural Database, then it will include bibliographic, chemical, 
# crystal, experimental, refinement or atomic coordinate data resulting 
# from the CCDC's data processing and validation procedures.
#
#######################################################################

data_EXUKAL
_chemical_formula_moiety         'C23 H18 Cl2 N2 O3'
_chemical_name_systematic        
2-(2,6-dichloro-3,4,5-trimethoxyphenyl)-3-phenylquinoxaline
_symmetry_cell_setting           monoclinic
_symmetry_space_group_name_H-M   'P 21/n'
_symmetry_Int_Tables_number      14
_space_group_name_Hall           '-P 2yn'
loop_
_symmetry_equiv_pos_site_id
_symmetry_equiv_pos_as_xyz
1 x,y,z
2 1/2-x,1/2+y,1/2-z
3 -x,-y,-z
4 1/2+x,1/2-y,1/2+z
_cell_length_a                   13.0039(3)
_cell_length_b                   10.5539(3)
_cell_length_c                   14.6344(4)
_cell_angle_alpha                90
_cell_angle_beta                 94.023(2)
_cell_angle_gamma                90
_cell_volume                     2003.5
_exptl_crystal_colour            yellow
_exptl_crystal_description       parallelepiped
_cell_formula_units_Z            4
loop_
_atom_site_label
_atom_site_type_symbol
_atom_site_fract_x
_atom_site_fract_y
_atom_site_fract_z
Cl1 Cl 0.20145(3) 0.16327(3) 0.02200(2)
Cl2 Cl 0.30854(3) -0.08500(3) 0.33831(2)
O1 O 0.42217(8) 0.22425(10) 0.02706(6)
O2 O 0.57306(8) 0.13750(10) 0.15682(7)
O3 O 0.51889(8) -0.00550(9) 0.30250(7)
N1 N 0.10815(9) 0.10157(12) 0.24710(8)
N2 N -0.00453(9) -0.09172(11) 0.15179(8)
C1 C 0.29353(11) 0.11690(13) 0.10713(9)
C2 C 0.39580(11) 0.15124(13) 0.09926(9)
C3 C 0.47118(11) 0.10857(13) 0.16492(9)
C4 C 0.44392(11) 0.03765(13) 0.23960(9)
C5 C 0.34037(11) 0.00831(13) 0.24719(9)
C6 C 0.26367(10) 0.04614(13) 0.18133(9)
C7 C 0.45318(13) 0.35040(14) 0.05465(11)
H1 H 0.4712 0.3987 0.0009
H2 H 0.5132 0.3458 0.0990
H3 H 0.3962 0.3926 0.0829
C8 C 0.61715(12) 0.06305(16) 0.08668(11)
H4 H 0.6897 0.0864 0.0831
H5 H 0.5794 0.0793 0.0275
H6 H 0.6123 -0.0271 0.1018
C9 C 0.53464(12) 0.07810(15) 0.38049(10)
H7 H 0.5887 0.0434 0.4234
H8 H 0.4703 0.0856 0.4112
H9 H 0.5555 0.1619 0.3597
C10 C 0.15178(11) 0.02181(13) 0.19257(9)
C11 C 0.00502(11) 0.08701(14) 0.25624(9)
C12 C -0.04646(12) 0.17078(15) 0.31296(10)
H10 H -0.0094 0.2369 0.3447
C13 C -0.14996(12) 0.15633(16) 0.32201(10)
H11 H -0.1844 0.2128 0.3602
C14 C -0.20586(12) 0.05867(16) 0.27535(10)
H12 H -0.2777 0.0502 0.2822
C15 C -0.15763(11) -0.02409(15) 0.22028(10)
H13 H -0.1957 -0.0903 0.1897
C16 C -0.05127(11) -0.01090(14) 0.20894(9)
C17 C 0.09498(11) -0.07676(13) 0.14345(9)
C18 C 0.14400(11) -0.16300(13) 0.07923(9)
C19 C 0.09605(11) -0.18179(14) -0.00827(10)
H14 H 0.0343 -0.1375 -0.0263
C20 C 0.13829(12) -0.26481(14) -0.06886(10)
H15 H 0.1058 -0.2770 -0.1284
C21 C 0.22799(12) -0.33002(15) -0.04247(10)
H16 H 0.2574 -0.3860 -0.0843
C22 C 0.27511(12) -0.31373(14) 0.04496(10)
H17 H 0.3357 -0.3601 0.0632
C23 C 0.23390(11) -0.22993(13) 0.10557(10)
H18 H 0.2668 -0.2180 0.1650
loop_
_geom_bond_atom_site_label_1
_geom_bond_atom_site_label_2
_geom_bond_site_symmetry_1
_geom_bond_site_symmetry_2
Cl1 C1 1_555 1_555
Cl2 C5 1_555 1_555
O1 C2 1_555 1_555
O2 C3 1_555 1_555
O3 C4 1_555 1_555
N1 C10 1_555 1_555
N2 C16 1_555 1_555
C1 C2 1_555 1_555
C2 C3 1_555 1_555
C3 C4 1_555 1_555
C4 C5 1_555 1_555
C5 C6 1_555 1_555
C6 C1 1_555 1_555
C7 O1 1_555 1_555
H1 C7 1_555 1_555
H2 C7 1_555 1_555
H3 C7 1_555 1_555
C8 O2 1_555 1_555
H4 C8 1_555 1_555
H5 C8 1_555 1_555
H6 C8 1_555 1_555
C9 O3 1_555 1_555
H7 C9 1_555 1_555
H8 C9 1_555 1_555
H9 C9 1_555 1_555
C10 C6 1_555 1_555
C11 N1 1_555 1_555
C12 C11 1_555 1_555
H10 C12 1_555 1_555
C13 C12 1_555 1_555
H11 C13 1_555 1_555
C14 C13 1_555 1_555
H12 C14 1_555 1_555
C15 C14 1_555 1_555
H13 C15 1_555 1_555
C16 C11 1_555 1_555
C17 N2 1_555 1_555
C18 C17 1_555 1_555
C19 C18 1_555 1_555
H14 C19 1_555 1_555
C20 C19 1_555 1_555
H15 C20 1_555 1_555
C21 C20 1_555 1_555
H16 C21 1_555 1_555
C22 C21 1_555 1_555
H17 C22 1_555 1_555
C23 C18 1_555 1_555
H18 C23 1_555 1_555
C10 C17 1_555 1_555
C15 C16 1_555 1_555
C22 C23 1_555 1_555

#END
