
#######################################################################
#
#                 Cambridge Crystallographic Data Centre
#                                CCDC 
#
#######################################################################
#
# If this CIF has been generated from an entry in the Cambridge 
# Structural Database, then it will include bibliographic, chemical, 
# crystal, experimental, refinement or atomic coordinate data resulting 
# from the CCDC's data processing and validation procedures.
#
#######################################################################

data_EYAWOQ
_chemical_compound_source        'Begonia nantoensis rhizome'
_chemical_formula_moiety         'C32 H44 O8'
_chemical_name_systematic        'Cucurbitacin E'
_chemical_properties_biological  
'cytotoxic activity in vitro to four human cancer cell lines'
_symmetry_cell_setting           orthorhombic
_symmetry_space_group_name_H-M   'P 21 21 21'
_symmetry_Int_Tables_number      19
_space_group_name_Hall           'P 2ac 2ab'
loop_
_symmetry_equiv_pos_site_id
_symmetry_equiv_pos_as_xyz
1 x,y,z
2 1/2-x,-y,1/2+z
3 1/2+x,1/2-y,-z
4 -x,1/2+y,1/2-z
_cell_length_a                   8.0423(6)
_cell_length_b                   16.5503(12)
_cell_length_c                   22.0277(17)
_cell_angle_alpha                90
_cell_angle_beta                 90
_cell_angle_gamma                90
_cell_volume                     2931.94
_cell_formula_units_Z            4
loop_
_atom_site_label
_atom_site_type_symbol
_atom_site_fract_x
_atom_site_fract_y
_atom_site_fract_z
O1 O 0.4035(3) 0.5903(2) 0.5695(1)
O2 O 0.1321(4) 0.6813(2) 0.5854(1)
O3 O 0.3480(3) 0.3317(2) 0.4567(1)
O4 O -0.2723(3) 0.3297(2) 0.2312(1)
O5 O 0.0268(3) 0.3084(2) 0.1684(1)
O6 O 0.3932(3) 0.2761(2) 0.2428(1)
O7 O 0.5086(4) 0.5759(2) 0.2770(1)
O8 O 0.2693(4) 0.5564(2) 0.3257(2)
C1 C 0.0945(4) 0.4807(2) 0.4720(1)
C2 C 0.2477(5) 0.5061(2) 0.5058(2)
C3 C 0.2569(4) 0.5711(2) 0.5411(2)
C4 C 0.1172(5) 0.6253(2) 0.5510(2)
C5 C -0.0380(5) 0.6122(2) 0.5125(2)
C6 C -0.0620(4) 0.5238(2) 0.4964(2)
C7 C -0.2054(4) 0.4857(2) 0.4982(2)
C8 C -0.2390(5) 0.4015(2) 0.4770(2)
C9 C -0.0950(4) 0.3594(2) 0.4437(2)
C10 C 0.0767(4) 0.3861(2) 0.4707(1)
C11 C -0.1033(4) 0.3630(2) 0.3733(2)
C12 C 0.0495(4) 0.3177(2) 0.3449(1)
C13 C 0.2110(4) 0.3594(2) 0.3645(2)
C14 C 0.2240(4) 0.3560(2) 0.4330(2)
C15 C -0.2485(4) 0.3156(2) 0.3445(2)
C16 C -0.1859(4) 0.2929(2) 0.2800(2)
C17 C -0.0007(4) 0.3200(2) 0.2773(1)
C18 C -0.0123(6) 0.6611(3) 0.4543(2)
C19 C -0.1904(6) 0.6474(3) 0.5465(2)
C20 C 0.0884(5) 0.3513(2) 0.5356(2)
C21 C -0.1199(4) 0.4510(2) 0.3502(2)
C22 C 0.0645(5) 0.2285(2) 0.3683(2)
C23 C 0.0978(4) 0.2794(2) 0.2240(2)
C24 C 0.2747(4) 0.3168(2) 0.2270(2)
C25 C 0.2931(4) 0.4034(2) 0.2126(2)
C26 C 0.4123(4) 0.4477(2) 0.2367(2)
C27 C 0.4532(5) 0.5337(2) 0.2213(2)
C28 C 0.4093(6) 0.5822(2) 0.3245(2)
C29 C 0.4907(8) 0.6281(3) 0.3743(2)
C30 C 0.1055(5) 0.1894(2) 0.2220(2)
C31 C 0.3128(7) 0.5798(3) 0.1918(2)
C32 C 0.6072(6) 0.5336(3) 0.1828(2)
H1 H 0.1131 0.5025 0.4320
H2 H 0.3207 0.4800 0.4927
H3 H -0.3003 0.5181 0.5052
H4 H -0.2660 0.3679 0.5118
H5 H -0.3252 0.3938 0.4483
H6 H -0.0965 0.3012 0.4563
H7 H 0.2066 0.4185 0.3544
H8 H 0.3036 0.3455 0.3439
H9 H -0.3578 0.3421 0.3447
H10 H -0.2789 0.2725 0.3677
H11 H -0.1752 0.2318 0.2764
H12 H -0.0177 0.3799 0.2649
H13 H 0.0906 0.6578 0.4280
H14 H -0.0210 0.7214 0.4582
H15 H -0.1201 0.6478 0.4298
H16 H -0.2780 0.6320 0.5152
H17 H -0.2213 0.6353 0.5868
H18 H -0.1358 0.6994 0.5535
H19 H -0.0050 0.3749 0.5553
H20 H 0.0826 0.2948 0.5441
H21 H 0.1869 0.3717 0.5474
H22 H -0.1943 0.4738 0.3700
H23 H -0.0173 0.4826 0.3516
H24 H -0.1921 0.4589 0.3140
H25 H 0.1630 0.2110 0.3526
H26 H -0.0257 0.1999 0.3536
H27 H 0.0786 0.2329 0.4170
H28 H 0.1971 0.4242 0.1867
H29 H 0.4754 0.4261 0.2672
H30 H 0.4472 0.6266 0.4081
H31 H 0.5809 0.6664 0.3706
H32 H 0.5688 0.5832 0.3852
H33 H -0.0008 0.1706 0.2195
H34 H 0.1353 0.1650 0.1875
H35 H 0.1720 0.1738 0.2503
H36 H 0.2897 0.5621 0.1469
H37 H 0.3556 0.6310 0.1800
H38 H 0.2459 0.5975 0.2258
H39 H 0.5870 0.5168 0.1424
H40 H 0.6365 0.5833 0.1700
H41 H 0.7292 0.5004 0.1953
H42 H 0.3821 0.6234 0.5989
H43 H -0.2071 0.3333 0.2002
H44 H -0.0753 0.3213 0.1745
loop_
_geom_bond_atom_site_label_1
_geom_bond_atom_site_label_2
_geom_bond_site_symmetry_1
_geom_bond_site_symmetry_2
O1 C3 1_555 1_555
O2 C4 1_555 1_555
O3 C14 1_555 1_555
O4 C16 1_555 1_555
O5 C23 1_555 1_555
O6 C24 1_555 1_555
O7 C27 1_555 1_555
O8 C28 1_555 1_555
C1 C2 1_555 1_555
C2 C3 1_555 1_555
C3 C4 1_555 1_555
C4 C5 1_555 1_555
C5 C6 1_555 1_555
C6 C1 1_555 1_555
C7 C6 1_555 1_555
C8 C7 1_555 1_555
C9 C8 1_555 1_555
C10 C1 1_555 1_555
C11 C9 1_555 1_555
C12 C11 1_555 1_555
C13 C12 1_555 1_555
C14 C10 1_555 1_555
C15 C11 1_555 1_555
C16 C15 1_555 1_555
C17 C12 1_555 1_555
C18 C5 1_555 1_555
C19 C5 1_555 1_555
C20 C10 1_555 1_555
C21 C11 1_555 1_555
C22 C12 1_555 1_555
C23 C17 1_555 1_555
C24 C23 1_555 1_555
C25 C24 1_555 1_555
C26 C25 1_555 1_555
C27 C26 1_555 1_555
C28 O7 1_555 1_555
C29 C28 1_555 1_555
C30 C23 1_555 1_555
C31 C27 1_555 1_555
C32 C27 1_555 1_555
H1 C1 1_555 1_555
H2 C2 1_555 1_555
H3 C7 1_555 1_555
H4 C8 1_555 1_555
H5 C8 1_555 1_555
H6 C9 1_555 1_555
H7 C13 1_555 1_555
H8 C13 1_555 1_555
H9 C15 1_555 1_555
H10 C15 1_555 1_555
H11 C16 1_555 1_555
H12 C17 1_555 1_555
H13 C18 1_555 1_555
H14 C18 1_555 1_555
H15 C18 1_555 1_555
H16 C19 1_555 1_555
H17 C19 1_555 1_555
H18 C19 1_555 1_555
H19 C20 1_555 1_555
H20 C20 1_555 1_555
H21 C20 1_555 1_555
H22 C21 1_555 1_555
H23 C21 1_555 1_555
H24 C21 1_555 1_555
H25 C22 1_555 1_555
H26 C22 1_555 1_555
H27 C22 1_555 1_555
H28 C25 1_555 1_555
H29 C26 1_555 1_555
H30 C29 1_555 1_555
H31 C29 1_555 1_555
H32 C29 1_555 1_555
H33 C30 1_555 1_555
H34 C30 1_555 1_555
H35 C30 1_555 1_555
H36 C31 1_555 1_555
H37 C31 1_555 1_555
H38 C31 1_555 1_555
H39 C32 1_555 1_555
H40 C32 1_555 1_555
H41 C32 1_555 1_555
H42 O1 1_555 1_555
H43 O4 1_555 1_555
H44 O5 1_555 1_555
C9 C10 1_555 1_555
C13 C14 1_555 1_555
C16 C17 1_555 1_555

#END
