
#######################################################################
#
#                 Cambridge Crystallographic Data Centre
#                                CCDC 
#
#######################################################################
#
# If this CIF has been generated from an entry in the Cambridge 
# Structural Database, then it will include bibliographic, chemical, 
# crystal, experimental, refinement or atomic coordinate data resulting 
# from the CCDC's data processing and validation procedures.
#
#######################################################################

data_EYEHIB
_chemical_formula_moiety         'C17 H20 Cl1 F2 N1 O3'
_chemical_name_systematic        
'ethyl (4-chloro-1-(2,2-dimethylpropanoyl)-2,3-dihydro-1H-indol-5-yl)(difluoro)acetate'
_symmetry_cell_setting           monoclinic
_symmetry_space_group_name_H-M   'P 21/n'
_symmetry_Int_Tables_number      14
_space_group_name_Hall           '-P 2yn'
loop_
_symmetry_equiv_pos_site_id
_symmetry_equiv_pos_as_xyz
1 x,y,z
2 1/2-x,1/2+y,1/2-z
3 -x,-y,-z
4 1/2+x,1/2-y,1/2+z
_cell_length_a                   8.1010(6)
_cell_length_b                   9.6695(8)
_cell_length_c                   22.3350(19)
_cell_angle_alpha                90
_cell_angle_beta                 90.768(2)
_cell_angle_gamma                90
_cell_volume                     1749.4
_exptl_crystal_colour            colorless
_exptl_crystal_description       block
_cell_formula_units_Z            4
_exptl_crystal_recrystallization_method dichloromethane
loop_
_atom_site_label
_atom_site_type_symbol
_atom_site_fract_x
_atom_site_fract_y
_atom_site_fract_z
Cl1 Cl 0.62306(9) 0.87702(7) 0.61769(3)
F1 F 0.72862(18) 0.58091(17) 0.58405(6)
F2 F 0.88004(19) 0.47918(15) 0.65157(7)
O1 O 0.9935(2) 0.71893(19) 0.57165(8)
N1 N 0.3402(2) 0.77810(19) 0.80812(8)
O2 O 0.3743(3) 0.6260(2) 0.88220(8)
O3 O 1.0283(3) 0.7490(3) 0.66999(10)
C1 C 0.4650(2) 0.7215(2) 0.77171(9)
C2 C 0.4846(2) 0.8044(2) 0.72109(9)
C3 C 0.6716(3) 0.5687(2) 0.73569(10)
H1 H 0.7351 0.4893 0.7406
C4 C 0.6920(3) 0.6474(2) 0.68453(10)
C5 C 0.5603(3) 0.6035(2) 0.77997(10)
H2 H 0.5498 0.5494 0.8141
C6 C 0.5979(3) 0.7676(2) 0.67867(9)
C7 C 0.3725(3) 0.9273(3) 0.72345(11)
H3 H 0.3079 0.9358 0.6868
H4 H 0.4349 1.0118 0.7298
C8 C 0.2994(3) 0.7256(2) 0.86302(9)
C9 C 0.8098(3) 0.6032(2) 0.63688(10)
C10 C 0.2628(3) 0.8968(3) 0.77632(11)
H5 H 0.2566 0.9765 0.8025
H6 H 0.1521 0.8732 0.7627
C11 C 0.1596(3) 0.7903(3) 0.90002(11)
C12 C 0.9563(3) 0.7021(3) 0.62787(11)
C13 C 0.1425(4) 0.7017(4) 0.95662(12)
H7 H 0.0563 0.7387 0.9810
H8 H 0.1156 0.6084 0.9455
H9 H 0.2448 0.7026 0.9788
C14 C -0.0054(3) 0.7852(3) 0.86612(14)
H10 H -0.0897 0.8261 0.8902
H11 H 0.0035 0.8356 0.8293
H12 H -0.0336 0.6907 0.8576
C15 C 1.1377(4) 0.8066(3) 0.55998(15)
H13 H 1.1185 0.8998 0.5744
H14 H 1.2346 0.7698 0.5803
C16 C 0.2032(5) 0.9388(4) 0.91933(17)
H15 H 0.1144 0.9766 0.9422
H16 H 0.3023 0.9377 0.9434
H17 H 0.2200 0.9948 0.8844
C17 C 1.1622(5) 0.8079(5) 0.49543(17)
H18 H 1.2559 0.8646 0.4863
H19 H 1.1813 0.7153 0.4817
H20 H 1.0656 0.8447 0.4758
loop_
_geom_bond_atom_site_label_1
_geom_bond_atom_site_label_2
_geom_bond_site_symmetry_1
_geom_bond_site_symmetry_2
Cl1 C6 1_555 1_555
F1 C9 1_555 1_555
F2 C9 1_555 1_555
O1 C12 1_555 1_555
N1 C1 1_555 1_555
O2 C8 1_555 1_555
O3 C12 1_555 1_555
C1 C2 1_555 1_555
C2 C6 1_555 1_555
C3 H1 1_555 1_555
C4 C3 1_555 1_555
C5 C1 1_555 1_555
H2 C5 1_555 1_555
C6 C4 1_555 1_555
C7 C2 1_555 1_555
H3 C7 1_555 1_555
H4 C7 1_555 1_555
C8 N1 1_555 1_555
C9 C4 1_555 1_555
C10 N1 1_555 1_555
H5 C10 1_555 1_555
H6 C10 1_555 1_555
C11 C8 1_555 1_555
C12 C9 1_555 1_555
C13 C11 1_555 1_555
H7 C13 1_555 1_555
H8 C13 1_555 1_555
H9 C13 1_555 1_555
C14 C11 1_555 1_555
H10 C14 1_555 1_555
H11 C14 1_555 1_555
H12 C14 1_555 1_555
C15 O1 1_555 1_555
H13 C15 1_555 1_555
H14 C15 1_555 1_555
C16 C11 1_555 1_555
H15 C16 1_555 1_555
H16 C16 1_555 1_555
H17 C16 1_555 1_555
C17 C15 1_555 1_555
H18 C17 1_555 1_555
H19 C17 1_555 1_555
H20 C17 1_555 1_555
C3 C5 1_555 1_555
C7 C10 1_555 1_555

#END
