
#######################################################################
#
#                 Cambridge Crystallographic Data Centre
#                                CCDC 
#
#######################################################################
#
# If this CIF has been generated from an entry in the Cambridge 
# Structural Database, then it will include bibliographic, chemical, 
# crystal, experimental, refinement or atomic coordinate data resulting 
# from the CCDC's data processing and validation procedures.
#
#######################################################################

data_EYEJID
_chemical_formula_moiety         'C24 H23 N3 S1'
_chemical_name_systematic        
(E)-4-(((4-(1,3-benzothiazol-2-yl)phenyl)imino)methyl)-N,N-diethylaniline
_symmetry_cell_setting           monoclinic
_symmetry_space_group_name_H-M   'P 21'
_symmetry_Int_Tables_number      4
_space_group_name_Hall           'P 2yb'
loop_
_symmetry_equiv_pos_site_id
_symmetry_equiv_pos_as_xyz
1 x,y,z
2 -x,1/2+y,-z
_cell_length_a                   8.895(5)
_cell_length_b                   7.648(5)
_cell_length_c                   15.091(5)
_cell_angle_alpha                90
_cell_angle_beta                 98.566(5)
_cell_angle_gamma                90
_cell_volume                     1015.17
_exptl_crystal_colour            yellow
_exptl_crystal_description       block
_cell_formula_units_Z            2
loop_
_atom_site_label
_atom_site_type_symbol
_atom_site_fract_x
_atom_site_fract_y
_atom_site_fract_z
S1 S 1.41511(8) 0.16492(14) 1.18673(5)
N1 N 1.2597(3) 0.3273(4) 1.29530(16)
N2 N 0.7097(3) 0.2212(3) 0.96102(15)
N3 N 0.0747(3) 0.2513(4) 0.69361(15)
C1 C 1.4589(4) 0.3630(6) 1.4264(2)
H1 H 1.3944 0.4240 1.4586
C2 C 1.6035(5) 0.3290(7) 1.4630(2)
H2 H 1.6383 0.3681 1.5207
C3 C 1.7014(4) 0.2380(6) 1.4172(3)
H3 H 1.7999 0.2151 1.4451
C4 C 1.6555(3) 0.1801(6) 1.3303(2)
H4 H 1.7214 0.1199 1.2988
C5 C 1.5068(3) 0.2160(4) 1.2925(2)
C6 C 1.4073(3) 0.3051(4) 1.33936(19)
C7 C 1.2487(3) 0.2597(4) 1.21464(17)
C8 C 1.1075(3) 0.2557(4) 1.15066(17)
C9 C 0.9747(3) 0.3337(4) 1.17029(18)
H5 H 0.9753 0.3904 1.2249
C10 C 0.8426(3) 0.3278(4) 1.10960(18)
H6 H 0.7556 0.3824 1.1233
C11 C 0.8375(3) 0.2414(4) 1.02829(17)
C12 C 0.9689(3) 0.1634(5) 1.00924(17)
H7 H 0.9677 0.1055 0.9550
C13 C 1.1012(3) 0.1698(5) 1.06886(17)
H8 H 1.1881 0.1159 1.0544
C14 C 0.5823(3) 0.2863(4) 0.96753(18)
H9 H 0.5718 0.3493 1.0190
C15 C 0.4502(3) 0.2683(4) 0.89868(17)
C16 C 0.3150(3) 0.3497(4) 0.90676(19)
H10 H 0.3071 0.4113 0.9590
C17 C 0.1925(3) 0.3434(4) 0.84128(18)
H11 H 0.1032 0.3998 0.8500
C18 C 0.1979(3) 0.2539(4) 0.76100(17)
C19 C 0.3333(3) 0.1671(5) 0.75167(17)
H12 H 0.3405 0.1053 0.6994
C20 C 0.4569(3) 0.1725(5) 0.81967(18)
H13 H 0.5452 0.1120 0.8130
C21 C -0.0560(3) 0.3699(5) 0.6928(2)
H14 H -0.0899 0.4077 0.6318
H15 H -0.0234 0.4729 0.7281
C22 C -0.1861(4) 0.2892(6) 0.7288(2)
H16 H -0.2191 0.1870 0.6944
H17 H -0.2682 0.3716 0.7251
H18 H -0.1550 0.2568 0.7903
C23 C 0.0718(3) 0.1430(5) 0.61427(18)
H19 H -0.0327 0.1119 0.5921
H20 H 0.1269 0.0356 0.6309
C24 C 0.1398(4) 0.2295(6) 0.5403(2)
H21 H 0.0835 0.3337 0.5217
H22 H 0.1355 0.1508 0.4905
H23 H 0.2437 0.2595 0.5614
loop_
_geom_bond_atom_site_label_1
_geom_bond_atom_site_label_2
_geom_bond_site_symmetry_1
_geom_bond_site_symmetry_2
S1 C5 1_555 1_555
N1 C6 1_555 1_555
N2 C11 1_555 1_555
N3 C18 1_555 1_555
C1 H1 1_555 1_555
C2 C1 1_555 1_555
H2 C2 1_555 1_555
C3 C2 1_555 1_555
H3 C3 1_555 1_555
C4 C3 1_555 1_555
H4 C4 1_555 1_555
C5 C4 1_555 1_555
C6 C1 1_555 1_555
C7 S1 1_555 1_555
C8 C7 1_555 1_555
C9 C8 1_555 1_555
H5 C9 1_555 1_555
C10 C9 1_555 1_555
H6 C10 1_555 1_555
C11 C10 1_555 1_555
C12 C11 1_555 1_555
H7 C12 1_555 1_555
C13 C8 1_555 1_555
H8 C13 1_555 1_555
C14 N2 1_555 1_555
H9 C14 1_555 1_555
C15 C14 1_555 1_555
C16 C15 1_555 1_555
H10 C16 1_555 1_555
C17 C16 1_555 1_555
H11 C17 1_555 1_555
C18 C17 1_555 1_555
C19 C18 1_555 1_555
H12 C19 1_555 1_555
C20 C15 1_555 1_555
H13 C20 1_555 1_555
C21 N3 1_555 1_555
H14 C21 1_555 1_555
H15 C21 1_555 1_555
C22 C21 1_555 1_555
H16 C22 1_555 1_555
H17 C22 1_555 1_555
H18 C22 1_555 1_555
C23 N3 1_555 1_555
H19 C23 1_555 1_555
H20 C23 1_555 1_555
C24 C23 1_555 1_555
H21 C24 1_555 1_555
H22 C24 1_555 1_555
H23 C24 1_555 1_555
N1 C7 1_555 1_555
C5 C6 1_555 1_555
C12 C13 1_555 1_555
C19 C20 1_555 1_555

#END
