
#######################################################################
#
#                 Cambridge Crystallographic Data Centre
#                                CCDC 
#
#######################################################################
#
# If this CIF has been generated from an entry in the Cambridge 
# Structural Database, then it will include bibliographic, chemical, 
# crystal, experimental, refinement or atomic coordinate data resulting 
# from the CCDC's data processing and validation procedures.
#
#######################################################################

data_EYEPEF
_chemical_formula_moiety         'C15 H14 F2 N2 O2'
_chemical_name_systematic        
'ethyl difluoro(2-methyl-5-(pyrimidin-2-yl)phenyl)acetate'
_symmetry_cell_setting           monoclinic
_symmetry_space_group_name_H-M   'P 21/n'
_symmetry_Int_Tables_number      14
_space_group_name_Hall           '-P 2yn'
loop_
_symmetry_equiv_pos_site_id
_symmetry_equiv_pos_as_xyz
1 x,y,z
2 1/2-x,1/2+y,1/2-z
3 -x,-y,-z
4 1/2+x,1/2-y,1/2+z
_cell_length_a                   11.8627(7)
_cell_length_b                   7.5770(4)
_cell_length_c                   16.1929(9)
_cell_angle_alpha                90
_cell_angle_beta                 104.622(2)
_cell_angle_gamma                90
_cell_volume                     1408.34
_exptl_crystal_colour            colorless
_exptl_crystal_description       block
_cell_formula_units_Z            4
_exptl_crystal_recrystallization_method dichloromethane
loop_
_atom_site_label
_atom_site_type_symbol
_atom_site_fract_x
_atom_site_fract_y
_atom_site_fract_z
F1 F 0.88765(10) 0.65930(16) 0.50634(8)
O1 O 0.82550(12) 0.32277(15) 0.49796(8)
F2 F 0.82549(12) 0.68772(17) 0.36929(9)
O2 O 0.83975(16) 0.3415(2) 0.36353(10)
N1 N 0.44686(15) 0.8663(2) 0.62768(11)
C1 C 0.56451(15) 0.7611(2) 0.53692(11)
C2 C 0.67258(15) 0.7149(2) 0.52465(11)
H1 H 0.7389 0.7278 0.5694
C3 C 0.68337(15) 0.6497(2) 0.44666(10)
N2 N 0.65302(17) 0.8706(3) 0.67792(11)
C4 C 0.55463(17) 0.8361(2) 0.61945(12)
C5 C 0.82537(16) 0.4050(3) 0.42713(12)
C6 C 0.46704(16) 0.7372(2) 0.46941(13)
H2 H 0.3936 0.7654 0.4763
C7 C 0.58520(17) 0.6277(2) 0.37869(11)
C8 C 0.80294(18) 0.6032(2) 0.43742(12)
C9 C 0.47784(18) 0.6724(2) 0.39269(13)
H3 H 0.4111 0.6579 0.3485
C10 C 0.8488(2) 0.1332(2) 0.50004(14)
H4 H 0.9082 0.1071 0.4702
H5 H 0.7785 0.0692 0.4725
C11 C 0.4393(2) 0.9378(3) 0.70151(15)
H6 H 0.3659 0.9602 0.7098
C12 C 0.5889(2) 0.5615(3) 0.29126(12)
H7 H 0.6680 0.5358 0.2908
H8 H 0.5428 0.4562 0.2781
H9 H 0.5582 0.6504 0.2494
C13 C 0.5349(2) 0.9792(3) 0.76514(15)
H10 H 0.5281 1.0298 0.8160
C14 C 0.8889(2) 0.0806(3) 0.59018(14)
H11 H 0.9049 -0.0437 0.5936
H12 H 0.9585 0.1445 0.6167
H13 H 0.8294 0.1068 0.6190
C15 C 0.6407(3) 0.9432(4) 0.75088(14)
H14 H 0.7074 0.9700 0.7934
loop_
_geom_bond_atom_site_label_1
_geom_bond_atom_site_label_2
_geom_bond_site_symmetry_1
_geom_bond_site_symmetry_2
F1 C8 1_555 1_555
O1 C5 1_555 1_555
F2 C8 1_555 1_555
O2 C5 1_555 1_555
N1 C4 1_555 1_555
C1 C2 1_555 1_555
C2 H1 1_555 1_555
C3 C2 1_555 1_555
N2 C4 1_555 1_555
C4 C1 1_555 1_555
C5 C8 1_555 1_555
C6 C1 1_555 1_555
H2 C6 1_555 1_555
C7 C3 1_555 1_555
C8 C3 1_555 1_555
C9 C6 1_555 1_555
H3 C9 1_555 1_555
C10 O1 1_555 1_555
H4 C10 1_555 1_555
H5 C10 1_555 1_555
C11 N1 1_555 1_555
H6 C11 1_555 1_555
C12 C7 1_555 1_555
H7 C12 1_555 1_555
H8 C12 1_555 1_555
H9 C12 1_555 1_555
C13 C11 1_555 1_555
H10 C13 1_555 1_555
C14 C10 1_555 1_555
H11 C14 1_555 1_555
H12 C14 1_555 1_555
H13 C14 1_555 1_555
C15 N2 1_555 1_555
H14 C15 1_555 1_555
C7 C9 1_555 1_555
C13 C15 1_555 1_555

#END
