
#######################################################################
#
#                 Cambridge Crystallographic Data Centre
#                                CCDC 
#
#######################################################################
#
# If this CIF has been generated from an entry in the Cambridge 
# Structural Database, then it will include bibliographic, chemical, 
# crystal, experimental, refinement or atomic coordinate data resulting 
# from the CCDC's data processing and validation procedures.
#
#######################################################################

data_EYHENO
_chemical_name_common            Norethynodrel
_chemical_formula_moiety         'C20 H26 O2'
_chemical_name_systematic        17\a-Ethynyl-17\b-hydroxyestr-5(10)-en-3-one
_symmetry_cell_setting           orthorhombic
_symmetry_space_group_name_H-M   'P 21 21 21'
_symmetry_Int_Tables_number      19
_space_group_name_Hall           'P 2ac 2ab'
loop_
_symmetry_equiv_pos_site_id
_symmetry_equiv_pos_as_xyz
1 x,y,z
2 1/2+x,1/2-y,-z
3 -x,1/2+y,1/2-z
4 1/2-x,-y,1/2+z
_cell_length_a                   21.593(13)
_cell_length_b                   22.075(13)
_cell_length_c                   7.015(8)
_cell_angle_alpha                90
_cell_angle_beta                 90
_cell_angle_gamma                90
_cell_volume                     3343.81
_cell_formula_units_Z            8
loop_
_atom_site_label
_atom_site_type_symbol
_atom_site_fract_x
_atom_site_fract_y
_atom_site_fract_z
C1 C 0.01230 -0.24110 0.21660
C2 C 0.05070 -0.18260 0.21720
C3 C 0.01620 -0.13090 0.29970
C4 C -0.01880 -0.14220 0.47710
C5 C -0.03480 -0.20740 0.51990
C6 C -0.06920 -0.21530 0.70260
C7 C -0.10000 -0.27720 0.72540
C8 C -0.05940 -0.32770 0.64760
C9 C -0.04580 -0.31670 0.43530
C10 C -0.02150 -0.25260 0.40000
C11 C -0.00530 -0.36780 0.35250
C12 C -0.03530 -0.42990 0.38130
C13 C -0.04970 -0.44190 0.59130
C14 C -0.08990 -0.38980 0.66940
C15 C -0.11100 -0.41170 0.86550
C16 C -0.11600 -0.48220 0.84110
C17 C -0.09380 -0.49560 0.63680
C18 C 0.01050 -0.45130 0.70420
O1 O -0.06480 -0.55440 0.63460
O2 O 0.01630 -0.08100 0.22470
C19 C -0.14670 -0.49670 0.50370
C20 C -0.18950 -0.49650 0.40030
H1 H -0.02000 -0.23600 0.10400
H2 H 0.04000 -0.28000 0.17600
H3 H 0.06600 -0.17500 0.08900
H4 H 0.08900 -0.19300 0.31700
H5 H -0.05700 -0.11600 0.47900
H6 H 0.00800 -0.12700 0.57600
H7 H -0.10400 -0.18000 0.72600
H8 H -0.04500 -0.20800 0.80500
H9 H -0.14500 -0.28200 0.64400
H10 H -0.11000 -0.28500 0.86100
H11 H -0.01900 -0.33000 0.73000
H12 H -0.08800 -0.31400 0.36900
H13 H 0.00300 -0.36200 0.22100
H14 H 0.04100 -0.36800 0.40600
H15 H -0.07500 -0.42300 0.30100
H16 H -0.01200 -0.46400 0.32400
H17 H -0.12700 -0.39200 0.58700
H18 H -0.15300 -0.39700 0.89900
H19 H -0.07800 -0.40300 0.96300
H20 H -0.16000 -0.49800 0.85500
H21 H -0.08700 -0.50300 0.93100
H22 H 0.00700 -0.46000 0.84000
H23 H 0.03400 -0.48800 0.63400
H24 H -0.06200 -0.57800 0.52700
H25 H -0.22200 -0.49400 0.31800
C21 C -0.28310 0.05070 0.09360
C22 C -0.33400 0.00510 0.13360
C23 C -0.35040 -0.02860 -0.04250
C24 C -0.36830 0.01000 -0.20580
C25 C -0.33660 0.07150 -0.21450
C26 C -0.35340 0.10850 -0.38380
C27 C -0.33690 0.17540 -0.35820
C28 C -0.27150 0.18100 -0.28410
C29 C -0.26610 0.15190 -0.08720
C30 C -0.29680 0.08950 -0.08050
C31 C -0.19820 0.15270 -0.01790
C32 C -0.17280 0.21810 -0.01330
C33 C -0.18020 0.25000 -0.20280
C34 C -0.24870 0.24600 -0.26540
C35 C -0.25320 0.28950 -0.43650
C36 C -0.20680 0.33980 -0.38930
C37 C -0.17170 0.32020 -0.20560
C38 C -0.13610 0.22220 -0.34990
O3 O -0.10750 0.33550 -0.21090
O4 O -0.34890 -0.08360 -0.05650
C39 C -0.20030 0.34860 -0.03670
C40 C -0.22190 0.37320 0.09590
H26 H -0.24400 0.02600 0.07700
H27 H -0.28000 0.08000 0.20500
H28 H -0.37700 0.02500 0.19400
H29 H -0.32100 -0.01800 0.23800
H30 H -0.41600 0.01700 -0.20100
H31 H -0.36300 -0.01100 -0.31700
H32 H -0.39700 0.10100 -0.42500
H33 H -0.33100 0.09300 -0.49400
H34 H -0.36500 0.19500 -0.25600
H35 H -0.33800 0.19500 -0.47500
H36 H -0.24600 0.16100 -0.36300
H37 H -0.28900 0.18000 0.00100
H38 H -0.19500 0.13500 0.10500
H39 H -0.17400 0.12300 -0.11600
H40 H -0.19900 0.23600 0.08300
H41 H -0.12900 0.21500 0.01700
H42 H -0.27300 0.26800 -0.16100
H43 H -0.29600 0.30300 -0.46200
H44 H -0.24400 0.27300 -0.55100
H45 H -0.23000 0.38200 -0.36300
H46 H -0.17700 0.34100 -0.49700
H47 H -0.14500 0.17600 -0.36300
H48 H -0.13900 0.24000 -0.46600
H49 H -0.09300 0.22400 -0.30400
H50 H -0.10700 0.37600 -0.25300
H51 H -0.24100 0.39100 0.21700
H52? H 0.03500 -0.41300 0.66800
loop_
_geom_bond_atom_site_label_1
_geom_bond_atom_site_label_2
_geom_bond_site_symmetry_1
_geom_bond_site_symmetry_2
C1 C2 1_555 1_555
C2 C3 1_555 1_555
C3 C4 1_555 1_555
C4 C5 1_555 1_555
C5 C6 1_555 1_555
C6 C7 1_555 1_555
C7 C8 1_555 1_555
C8 C9 1_555 1_555
C9 C10 1_555 1_555
C10 C1 1_555 1_555
C11 C9 1_555 1_555
C12 C11 1_555 1_555
C13 C12 1_555 1_555
C14 C8 1_555 1_555
C15 C14 1_555 1_555
C16 C15 1_555 1_555
C17 C13 1_555 1_555
C18 C13 1_555 1_555
O1 C17 1_555 1_555
O2 C3 1_555 1_555
C19 C17 1_555 1_555
C20 C19 1_555 1_555
H1 C1 1_555 1_555
H2 C1 1_555 1_555
H3 C2 1_555 1_555
H4 C2 1_555 1_555
H5 C4 1_555 1_555
H6 C4 1_555 1_555
H7 C6 1_555 1_555
H8 C6 1_555 1_555
H9 C7 1_555 1_555
H10 C7 1_555 1_555
H11 C8 1_555 1_555
H12 C9 1_555 1_555
H13 C11 1_555 1_555
H14 C11 1_555 1_555
H15 C12 1_555 1_555
H16 C12 1_555 1_555
H17 C14 1_555 1_555
H18 C15 1_555 1_555
H19 C15 1_555 1_555
H20 C16 1_555 1_555
H21 C16 1_555 1_555
H22 C18 1_555 1_555
H23 C18 1_555 1_555
H24 O1 1_555 1_555
H25 C20 1_555 1_555
C21 C22 1_555 1_555
C22 C23 1_555 1_555
C23 C24 1_555 1_555
C24 C25 1_555 1_555
C25 C26 1_555 1_555
C26 C27 1_555 1_555
C27 C28 1_555 1_555
C28 C29 1_555 1_555
C29 C30 1_555 1_555
C30 C21 1_555 1_555
C31 C29 1_555 1_555
C32 C31 1_555 1_555
C33 C32 1_555 1_555
C34 C28 1_555 1_555
C35 C34 1_555 1_555
C36 C35 1_555 1_555
C37 C33 1_555 1_555
C38 C33 1_555 1_555
O3 C37 1_555 1_555
O4 C23 1_555 1_555
C39 C37 1_555 1_555
C40 C39 1_555 1_555
H26 C21 1_555 1_555
H27 C21 1_555 1_555
H28 C22 1_555 1_555
H29 C22 1_555 1_555
H30 C24 1_555 1_555
H31 C24 1_555 1_555
H32 C26 1_555 1_555
H33 C26 1_555 1_555
H34 C27 1_555 1_555
H35 C27 1_555 1_555
H36 C28 1_555 1_555
H37 C29 1_555 1_555
H38 C31 1_555 1_555
H39 C31 1_555 1_555
H40 C32 1_555 1_555
H41 C32 1_555 1_555
H42 C34 1_555 1_555
H43 C35 1_555 1_555
H44 C35 1_555 1_555
H45 C36 1_555 1_555
H46 C36 1_555 1_555
H47 C38 1_555 1_555
H48 C38 1_555 1_555
H49 C38 1_555 1_555
H50 O3 1_555 1_555
H51 C40 1_555 1_555
C5 C10 1_555 1_555
C13 C14 1_555 1_555
C16 C17 1_555 1_555
C25 C30 1_555 1_555
C33 C34 1_555 1_555
C36 C37 1_555 1_555

#END
