
#######################################################################
#
#                 Cambridge Crystallographic Data Centre
#                                CCDC 
#
#######################################################################
#
# If this CIF has been generated from an entry in the Cambridge 
# Structural Database, then it will include bibliographic, chemical, 
# crystal, experimental, refinement or atomic coordinate data resulting 
# from the CCDC's data processing and validation procedures.
#
#######################################################################

data_EYOFON
_chemical_formula_moiety         'C13 H11 I1 N2 O2'
_chemical_name_systematic        2-Iodo-N-(2-nitrobenzyl)aniline
_symmetry_cell_setting           triclinic
_symmetry_space_group_name_H-M   'P -1'
_symmetry_Int_Tables_number      2
_space_group_name_Hall           '-P 1'
loop_
_symmetry_equiv_pos_site_id
_symmetry_equiv_pos_as_xyz
1 x,y,z
2 -x,-y,-z
_cell_length_a                   8.16850(10)
_cell_length_b                   10.8834(2)
_cell_length_c                   15.4372(2)
_cell_angle_alpha                76.9219(9)
_cell_angle_beta                 80.0727(7)
_cell_angle_gamma                74.2167(7)
_cell_volume                     1277.36
_exptl_crystal_colour            orange
_exptl_crystal_description       block
_cell_formula_units_Z            4
_exptl_crystal_recrystallization_method ethanol
loop_
_atom_site_label
_atom_site_type_symbol
_atom_site_fract_x
_atom_site_fract_y
_atom_site_fract_z
N1 N 0.4705(4) 0.2423(3) 0.9345(2)
C1 C 0.4270(4) 0.2768(3) 0.8436(2)
C2 C 0.2877(4) 0.4032(3) 0.8265(2)
C3 C 0.2322(4) 0.4634(3) 0.7422(2)
N2 N 0.3066(4) 0.4045(3) 0.6618(2)
O1 O 0.3889(5) 0.2939(3) 0.6714(2)
O2 O 0.2783(6) 0.4727(3) 0.5893(2)
C4 C 0.1083(5) 0.5799(4) 0.7286(3)
C5 C 0.0350(5) 0.6411(4) 0.7996(3)
C6 C 0.0868(5) 0.5853(4) 0.8841(3)
C7 C 0.2114(4) 0.4685(4) 0.8962(2)
C8 C 0.3852(4) 0.1721(3) 1.0040(2)
C9 C 0.4396(4) 0.1328(3) 1.0891(2)
I1 I 0.65858(3) 0.18196(3) 1.112805(16)
C10 C 0.3554(5) 0.0627(4) 1.1602(3)
C11 C 0.2062(5) 0.0271(3) 1.1469(3)
C12 C 0.1520(5) 0.0662(4) 1.0658(3)
C13 C 0.2359(4) 0.1373(4) 0.9942(3)
H1 H 0.5567 0.2679 0.9458
H2 H 0.3875 0.2053 0.8307
H3 H 0.5313 0.2861 0.8018
H4 H 0.0745 0.6171 0.6706
H5 H -0.0501 0.7207 0.7911
H6 H 0.0371 0.6270 0.9336
H7 H 0.2454 0.4322 0.9543
H8 H 0.3959 0.0383 1.2173
H9 H 0.1475 -0.0228 1.1944
H10 H 0.0520 0.0444 1.0568
H11 H 0.1922 0.1628 0.9379
N3 N 0.3333(4) 0.4467(3) 0.3894(2)
C14 C 0.4815(4) 0.3380(3) 0.3986(2)
C15 C 0.4493(4) 0.2081(3) 0.3948(2)
C16 C 0.5812(4) 0.0980(3) 0.3838(2)
N4 N 0.7619(3) 0.1039(3) 0.37277(19)
O3 O 0.8008(3) 0.1726(3) 0.41571(18)
O4 O 0.8636(3) 0.0400(3) 0.32235(19)
C17 C 0.5523(4) -0.0216(3) 0.3823(2)
C18 C 0.3859(4) -0.0339(4) 0.3937(2)
C19 C 0.2509(4) 0.0741(4) 0.4027(2)
C20 C 0.2832(4) 0.1924(3) 0.4020(2)
C21 C 0.2796(4) 0.5121(3) 0.3080(2)
C22 C 0.1545(4) 0.6315(3) 0.3003(2)
I2 I 0.05593(3) 0.71566(2) 0.413668(17)
C23 C 0.0967(4) 0.6963(4) 0.2184(3)
C24 C 0.1630(5) 0.6451(4) 0.1420(3)
C25 C 0.2878(5) 0.5286(4) 0.1476(2)
C26 C 0.3450(5) 0.4626(3) 0.2298(2)
H12 H 0.2745 0.4723 0.4383
H13 H 0.5236 0.3304 0.4565
H14 H 0.5734 0.3566 0.3504
H15 H 0.6457 -0.0936 0.3735
H16 H 0.3637 -0.1158 0.3954
H17 H 0.1361 0.0665 0.4093
H18 H 0.1893 0.2656 0.4066
H19 H 0.0114 0.7759 0.2151
H20 H 0.1236 0.6891 0.0861
H21 H 0.3348 0.4936 0.0951
H22 H 0.4297 0.3827 0.2325
loop_
_geom_bond_atom_site_label_1
_geom_bond_atom_site_label_2
_geom_bond_site_symmetry_1
_geom_bond_site_symmetry_2
N1 C1 1_555 1_555
C1 C2 1_555 1_555
C2 C3 1_555 1_555
C3 N2 1_555 1_555
N2 O1 1_555 1_555
O2 N2 1_555 1_555
C4 C3 1_555 1_555
C5 C4 1_555 1_555
C6 C5 1_555 1_555
C7 C2 1_555 1_555
C8 N1 1_555 1_555
C9 C8 1_555 1_555
I1 C9 1_555 1_555
C10 C9 1_555 1_555
C11 C10 1_555 1_555
C12 C11 1_555 1_555
C13 C8 1_555 1_555
N3 C14 1_555 1_555
C14 C15 1_555 1_555
C15 C16 1_555 1_555
C16 N4 1_555 1_555
N4 O3 1_555 1_555
O4 N4 1_555 1_555
C17 C16 1_555 1_555
C18 C17 1_555 1_555
C19 C18 1_555 1_555
C20 C15 1_555 1_555
C21 N3 1_555 1_555
C22 C21 1_555 1_555
I2 C22 1_555 1_555
C23 C22 1_555 1_555
C24 C23 1_555 1_555
C25 C24 1_555 1_555
C26 C21 1_555 1_555
H1 N1 1_555 1_555
H2 C1 1_555 1_555
H3 C1 1_555 1_555
H4 C4 1_555 1_555
H5 C5 1_555 1_555
H6 C6 1_555 1_555
H7 C7 1_555 1_555
H8 C10 1_555 1_555
H9 C11 1_555 1_555
H10 C12 1_555 1_555
H11 C13 1_555 1_555
H12 N3 1_555 1_555
H13 C14 1_555 1_555
H14 C14 1_555 1_555
H15 C17 1_555 1_555
H16 C18 1_555 1_555
H17 C19 1_555 1_555
H18 C20 1_555 1_555
H19 C23 1_555 1_555
H20 C24 1_555 1_555
H21 C25 1_555 1_555
H22 C26 1_555 1_555
C6 C7 1_555 1_555
C12 C13 1_555 1_555
C19 C20 1_555 1_555
C25 C26 1_555 1_555

#END
