
#######################################################################
#
#                 Cambridge Crystallographic Data Centre
#                                CCDC 
#
#######################################################################
#
# If this CIF has been generated from an entry in the Cambridge 
# Structural Database, then it will include bibliographic, chemical, 
# crystal, experimental, refinement or atomic coordinate data resulting 
# from the CCDC's data processing and validation procedures.
#
#######################################################################

data_EYOXAS
_chemical_formula_moiety         'C20 H22 Br2 N2'
_chemical_name_systematic        
2,3-bis(4-bromo-2,6-dimethylphenylimino)butane
_symmetry_cell_setting           monoclinic
_symmetry_space_group_name_H-M   'I 2/a'
_symmetry_Int_Tables_number      15
_space_group_name_Hall           '-I 2ya'
loop_
_symmetry_equiv_pos_site_id
_symmetry_equiv_pos_as_xyz
1 x,y,z
2 1/2-x,y,-z
3 1/2+x,1/2+y,1/2+z
4 -x,1/2+y,1/2-z
5 -x,-y,-z
6 1/2+x,-y,z
7 1/2-x,1/2-y,1/2-z
8 x,1/2-y,1/2+z
_cell_length_a                   16.335(16)
_cell_length_b                   7.376(7)
_cell_length_c                   16.89(3)
_cell_angle_alpha                90
_cell_angle_beta                 90.977(7)
_cell_angle_gamma                90
_cell_volume                     2034.73
_exptl_crystal_colour            yellow
_exptl_crystal_description       block
_cell_formula_units_Z            4
loop_
_atom_site_label
_atom_site_type_symbol
_atom_site_fract_x
_atom_site_fract_y
_atom_site_fract_z
Br1 Br 0.20222(6) 0.09949(15) 0.40463(5)
C1 C 0.1494(4) 0.0453(9) 0.3066(4)
C2 C 0.0650(4) 0.0580(9) 0.3000(4)
H1 H 0.0345 0.0919 0.3436
C3 C 0.0258(3) 0.0202(8) 0.2283(3)
C4 C 0.0735(4) -0.0297(8) 0.1645(3)
C5 C 0.1580(4) -0.0450(9) 0.1718(4)
C6 C 0.1952(4) -0.0076(11) 0.2436(4)
H2 H 0.2517 -0.0183 0.2494
C7 C -0.0651(4) 0.0356(10) 0.2207(4)
H3 H -0.0794 0.1538 0.2011
H4 H -0.0891 0.0179 0.2717
H5 H -0.0854 -0.0550 0.1846
C8 C 0.0184(4) 0.0370(9) 0.0382(3)
C9 C 0.0285(5) 0.2380(9) 0.0465(4)
H6 H -0.0243 0.2950 0.0453
H7 H 0.0605 0.2830 0.0036
H8 H 0.0559 0.2647 0.0959
C10 C 0.2088(5) -0.1030(12) 0.1017(5)
H9 H 0.2050 -0.0125 0.0610
H10 H 0.1886 -0.2164 0.0815
H11 H 0.2649 -0.1169 0.1184
N1 N 0.0366(3) -0.0824(7) 0.0908(3)
Br1D Br -0.20222(6) -0.09949(15) -0.40463(5)
C1D C -0.1494(4) -0.0453(9) -0.3066(4)
C2D C -0.0650(4) -0.0580(9) -0.3000(4)
H1D H -0.0345 -0.0919 -0.3436
C3D C -0.0258(3) -0.0202(8) -0.2283(3)
C4D C -0.0735(4) 0.0297(8) -0.1645(3)
C5D C -0.1580(4) 0.0450(9) -0.1718(4)
C6D C -0.1952(4) 0.0076(11) -0.2436(4)
H2D H -0.2517 0.0183 -0.2494
C7D C 0.0651(4) -0.0356(10) -0.2207(4)
H3D H 0.0794 -0.1538 -0.2011
H4D H 0.0891 -0.0179 -0.2717
H5D H 0.0854 0.0550 -0.1846
C8D C -0.0184(4) -0.0370(9) -0.0382(3)
C9D C -0.0285(5) -0.2380(9) -0.0465(4)
H6D H 0.0243 -0.2950 -0.0453
H7D H -0.0605 -0.2830 -0.0036
H8D H -0.0559 -0.2647 -0.0959
C10D C -0.2088(5) 0.1030(12) -0.1017(5)
H9D H -0.2050 0.0125 -0.0610
H10D H -0.1886 0.2164 -0.0815
H11D H -0.2649 0.1169 -0.1184
N1D N -0.0366(3) 0.0824(7) -0.0908(3)
loop_
_geom_bond_atom_site_label_1
_geom_bond_atom_site_label_2
_geom_bond_site_symmetry_1
_geom_bond_site_symmetry_2
Br1 C1 1_555 1_555
C1 C2 1_555 1_555
C2 H1 1_555 1_555
C3 C2 1_555 1_555
C4 C3 1_555 1_555
C5 C4 1_555 1_555
C6 C1 1_555 1_555
H2 C6 1_555 1_555
C7 C3 1_555 1_555
H3 C7 1_555 1_555
H4 C7 1_555 1_555
H5 C7 1_555 1_555
C8 C9 1_555 1_555
C9 H6 1_555 1_555
H7 C9 1_555 1_555
H8 C9 1_555 1_555
C10 C5 1_555 1_555
H9 C10 1_555 1_555
H10 C10 1_555 1_555
H11 C10 1_555 1_555
N1 C4 1_555 1_555
Br1D C1D 1_555 1_555
C1D C2D 1_555 1_555
C2D H1D 1_555 1_555
C3D C2D 1_555 1_555
C4D C3D 1_555 1_555
C5D C4D 1_555 1_555
C6D C1D 1_555 1_555
H2D C6D 1_555 1_555
C7D C3D 1_555 1_555
H3D C7D 1_555 1_555
H4D C7D 1_555 1_555
H5D C7D 1_555 1_555
C8D C8 1_555 1_555
C9D C8D 1_555 1_555
H6D C9D 1_555 1_555
H7D C9D 1_555 1_555
H8D C9D 1_555 1_555
C10D C5D 1_555 1_555
H9D C10D 1_555 1_555
H10D C10D 1_555 1_555
H11D C10D 1_555 1_555
N1D C4D 1_555 1_555
C5 C6 1_555 1_555
C8 N1 1_555 1_555
C5D C6D 1_555 1_555
C8D N1D 1_555 1_555

#END
