
#######################################################################
#
#                 Cambridge Crystallographic Data Centre
#                                CCDC 
#
#######################################################################
#
# If this CIF has been generated from an entry in the Cambridge 
# Structural Database, then it will include bibliographic, chemical, 
# crystal, experimental, refinement or atomic coordinate data resulting 
# from the CCDC's data processing and validation procedures.
#
#######################################################################

data_EYOYEY
_chemical_formula_moiety         'C28 H21 N1'
_chemical_name_systematic        3,4,5-triphenyl-1H-2-benzazepine
_symmetry_cell_setting           monoclinic
_symmetry_space_group_name_H-M   'C 2'
_symmetry_Int_Tables_number      5
_space_group_name_Hall           'C 2y'
loop_
_symmetry_equiv_pos_site_id
_symmetry_equiv_pos_as_xyz
1 x,y,z
2 -x,y,-z
3 1/2+x,1/2+y,z
4 1/2-x,1/2+y,-z
_cell_length_a                   33.035(3)
_cell_length_b                   5.8720(4)
_cell_length_c                   25.1938(16)
_cell_angle_alpha                90
_cell_angle_beta                 127.2276(13)
_cell_angle_gamma                90
_cell_volume                     3891.32
_exptl_crystal_colour            colorless
_exptl_crystal_description       needle
_cell_formula_units_Z            8
loop_
_atom_site_label
_atom_site_type_symbol
_atom_site_fract_x
_atom_site_fract_y
_atom_site_fract_z
N1 N 0.28045(10) 0.5770(5) 0.28087(13)
C1 C 0.28612(12) 0.4079(6) 0.31775(15)
C2 C 0.24761(12) 0.3383(6) 0.32802(15)
C3 C 0.19821(12) 0.2970(6) 0.27612(15)
C4 C 0.17673(12) 0.3459(6) 0.20552(15)
C5 C 0.13934(13) 0.2059(7) 0.15254(16)
C6 C 0.11817(14) 0.2595(7) 0.08682(16)
C7 C 0.13247(14) 0.4570(7) 0.07204(17)
C8 C 0.16873(13) 0.5994(7) 0.12270(16)
C9 C 0.19103(12) 0.5466(6) 0.18922(16)
C10 C 0.23158(12) 0.6975(6) 0.24476(16)
C11 C 0.33445(12) 0.2747(6) 0.35317(14)
C12 C 0.37764(12) 0.3629(6) 0.36188(14)
C13 C 0.42166(13) 0.2384(6) 0.39420(15)
C14 C 0.42413(13) 0.0213(7) 0.41802(15)
C15 C 0.38192(13) -0.0680(6) 0.40893(15)
C16 C 0.33735(12) 0.0560(6) 0.37676(14)
C17 C 0.26896(11) 0.3166(6) 0.39955(14)
C18 C 0.29987(12) 0.4931(6) 0.44220(15)
C19 C 0.32319(12) 0.4844(6) 0.50982(16)
C20 C 0.31683(12) 0.2932(6) 0.53650(16)
C21 C 0.28648(12) 0.1155(6) 0.49549(15)
C22 C 0.26248(12) 0.1270(6) 0.42725(16)
C23 C 0.16121(12) 0.2269(6) 0.28891(14)
C24 C 0.14991(11) 0.3828(6) 0.32011(14)
C25 C 0.11595(12) 0.3283(6) 0.33313(15)
C26 C 0.09236(12) 0.1172(7) 0.31517(15)
C27 C 0.10264(12) -0.0401(6) 0.28361(15)
C28 C 0.13727(11) 0.0126(6) 0.27113(14)
H1 H 0.1284 0.0726 0.1620
H2 H 0.0938 0.1605 0.0519
H3 H 0.1173 0.4948 0.0269
H4 H 0.1785 0.7339 0.1122
H5 H 0.2336 0.8419 0.2262
H6 H 0.2232 0.7339 0.2755
H7 H 0.3763 0.5101 0.3453
H8 H 0.4507 0.3011 0.4004
H9 H 0.4547 -0.0644 0.4404
H10 H 0.3834 -0.2166 0.4249
H11 H 0.3084 -0.0084 0.3707
H12 H 0.3050 0.6226 0.4243
H13 H 0.3434 0.6082 0.5378
H14 H 0.3334 0.2845 0.5831
H15 H 0.2820 -0.0146 0.5138
H16 H 0.2415 0.0046 0.3992
H17 H 0.1658 0.5282 0.3326
H18 H 0.1088 0.4362 0.3545
H19 H 0.0692 0.0803 0.3244
H20 H 0.0861 -0.1838 0.2705
H21 H 0.1448 -0.0968 0.2505
N2 N 0.50036(9) -0.0099(5) 0.25731(12)
C29 C 0.47250(12) 0.1538(6) 0.25193(15)
C30 C 0.42208(11) 0.2160(6) 0.18891(15)
C31 C 0.41648(11) 0.2540(6) 0.13186(15)
C32 C 0.45890(12) 0.2216(6) 0.12695(14)
C33 C 0.46828(13) 0.3737(7) 0.09254(15)
C34 C 0.50701(13) 0.3331(7) 0.08662(16)
C35 C 0.53653(13) 0.1391(7) 0.11403(17)
C36 C 0.52769(12) -0.0141(7) 0.14804(16)
C37 C 0.48963(12) 0.0248(6) 0.15501(14)
C38 C 0.48161(13) -0.1307(6) 0.19515(15)
C39 C 0.49249(12) 0.2918(6) 0.31347(15)
C40 C 0.53281(11) 0.2127(6) 0.37662(15)
C41 C 0.55233(12) 0.3466(7) 0.43261(16)
C42 C 0.53218(13) 0.5614(6) 0.42650(16)
C43 C 0.49244(13) 0.6402(6) 0.36443(16)
C44 C 0.47240(12) 0.5060(6) 0.30778(15)
C45 C 0.37905(11) 0.2142(6) 0.19366(14)
C46 C 0.37389(12) 0.0260(6) 0.22287(14)
C47 C 0.33374(12) 0.0092(6) 0.22661(14)
C48 C 0.29848(12) 0.1827(6) 0.20206(15)
C49 C 0.30394(12) 0.3743(6) 0.17501(14)
C50 C 0.34322(12) 0.3891(6) 0.16969(14)
C51 C 0.36486(12) 0.3030(6) 0.06756(14)
C52 C 0.32805(12) 0.1350(6) 0.04053(15)
C53 C 0.28021(13) 0.1705(6) -0.01854(15)
C54 C 0.26824(13) 0.3738(7) -0.05209(15)
C55 C 0.30472(12) 0.5437(6) -0.02566(15)
C56 C 0.35231(12) 0.5120(6) 0.03372(15)
H22 H 0.4479 0.5064 0.0730
H23 H 0.5131 0.4391 0.0637
H24 H 0.5627 0.1106 0.1096
H25 H 0.5480 -0.1475 0.1668
H26 H 0.4451 -0.1672 0.1702
H27 H 0.5006 -0.2746 0.2051
H28 H 0.5469 0.0664 0.3812
H29 H 0.5796 0.2913 0.4753
H30 H 0.5457 0.6532 0.4649
H31 H 0.4786 0.7868 0.3601
H32 H 0.4449 0.5615 0.2652
H33 H 0.3983 -0.0930 0.2406
H34 H 0.3306 -0.1215 0.2460
H35 H 0.2706 0.1706 0.2037
H36 H 0.2806 0.4968 0.1600
H37 H 0.3458 0.5193 0.1496
H38 H 0.3358 -0.0068 0.0629
H39 H 0.2554 0.0534 -0.0361
H40 H 0.2354 0.3974 -0.0929
H41 H 0.2968 0.6841 -0.0488
H42 H 0.3767 0.6313 0.0518
loop_
_geom_bond_atom_site_label_1
_geom_bond_atom_site_label_2
_geom_bond_site_symmetry_1
_geom_bond_site_symmetry_2
N1 C1 1_555 1_555
C1 C2 1_555 1_555
C2 C3 1_555 1_555
C3 C4 1_555 1_555
C4 C5 1_555 1_555
C5 C6 1_555 1_555
C6 C7 1_555 1_555
C7 C8 1_555 1_555
C8 C9 1_555 1_555
C9 C4 1_555 1_555
C10 N1 1_555 1_555
C11 C1 1_555 1_555
C12 C11 1_555 1_555
C13 C12 1_555 1_555
C14 C13 1_555 1_555
C15 C14 1_555 1_555
C16 C11 1_555 1_555
C17 C2 1_555 1_555
C18 C17 1_555 1_555
C19 C18 1_555 1_555
C20 C19 1_555 1_555
C21 C20 1_555 1_555
C22 C17 1_555 1_555
C23 C3 1_555 1_555
C24 C23 1_555 1_555
C25 C24 1_555 1_555
C26 C25 1_555 1_555
C27 C26 1_555 1_555
C28 C23 1_555 1_555
H1 C5 1_555 1_555
H2 C6 1_555 1_555
H3 C7 1_555 1_555
H4 C8 1_555 1_555
H5 C10 1_555 1_555
H6 C10 1_555 1_555
H7 C12 1_555 1_555
H8 C13 1_555 1_555
H9 C14 1_555 1_555
H10 C15 1_555 1_555
H11 C16 1_555 1_555
H12 C18 1_555 1_555
H13 C19 1_555 1_555
H14 C20 1_555 1_555
H15 C21 1_555 1_555
H16 C22 1_555 1_555
H17 C24 1_555 1_555
H18 C25 1_555 1_555
H19 C26 1_555 1_555
H20 C27 1_555 1_555
H21 C28 1_555 1_555
N2 C29 1_555 1_555
C29 C30 1_555 1_555
C30 C31 1_555 1_555
C31 C32 1_555 1_555
C32 C33 1_555 1_555
C33 C34 1_555 1_555
C34 C35 1_555 1_555
C35 C36 1_555 1_555
C36 C37 1_555 1_555
C37 C32 1_555 1_555
C38 N2 1_555 1_555
C39 C29 1_555 1_555
C40 C39 1_555 1_555
C41 C40 1_555 1_555
C42 C41 1_555 1_555
C43 C42 1_555 1_555
C44 C39 1_555 1_555
C45 C30 1_555 1_555
C46 C45 1_555 1_555
C47 C46 1_555 1_555
C48 C47 1_555 1_555
C49 C48 1_555 1_555
C50 C45 1_555 1_555
C51 C31 1_555 1_555
C52 C51 1_555 1_555
C53 C52 1_555 1_555
C54 C53 1_555 1_555
C55 C54 1_555 1_555
C56 C51 1_555 1_555
H22 C33 1_555 1_555
H23 C34 1_555 1_555
H24 C35 1_555 1_555
H25 C36 1_555 1_555
H26 C38 1_555 1_555
H27 C38 1_555 1_555
H28 C40 1_555 1_555
H29 C41 1_555 1_555
H30 C42 1_555 1_555
H31 C43 1_555 1_555
H32 C44 1_555 1_555
H33 C46 1_555 1_555
H34 C47 1_555 1_555
H35 C48 1_555 1_555
H36 C49 1_555 1_555
H37 C50 1_555 1_555
H38 C52 1_555 1_555
H39 C53 1_555 1_555
H40 C54 1_555 1_555
H41 C55 1_555 1_555
H42 C56 1_555 1_555
C9 C10 1_555 1_555
C15 C16 1_555 1_555
C21 C22 1_555 1_555
C27 C28 1_555 1_555
C37 C38 1_555 1_555
C43 C44 1_555 1_555
C49 C50 1_555 1_555
C55 C56 1_555 1_555

#END
