
#######################################################################
#
#                 Cambridge Crystallographic Data Centre
#                                CCDC 
#
#######################################################################
#
# If this CIF has been generated from an entry in the Cambridge 
# Structural Database, then it will include bibliographic, chemical, 
# crystal, experimental, refinement or atomic coordinate data resulting 
# from the CCDC's data processing and validation procedures.
#
#######################################################################

data_EYUJUF
_chemical_formula_moiety         'C7 H5 N2 O4 1-,C2 H8 N1 1+'
_chemical_name_systematic        'dimethylammonium 2-amino-4-nitrobenzoate'
_symmetry_cell_setting           monoclinic
_symmetry_space_group_name_H-M   'P 21/c'
_symmetry_Int_Tables_number      14
_space_group_name_Hall           '-P 2ybc'
loop_
_symmetry_equiv_pos_site_id
_symmetry_equiv_pos_as_xyz
1 x,y,z
2 -x,1/2+y,1/2-z
3 -x,-y,-z
4 x,1/2-y,1/2+z
_cell_length_a                   11.2593(5)
_cell_length_b                   7.5563(2)
_cell_length_c                   13.0437(6)
_cell_angle_alpha                90
_cell_angle_beta                 96.716(2)
_cell_angle_gamma                90
_cell_volume                     1102.13
_exptl_crystal_colour            yellow
_exptl_crystal_description       block
_cell_formula_units_Z            4
loop_
_atom_site_label
_atom_site_type_symbol
_atom_site_fract_x
_atom_site_fract_y
_atom_site_fract_z
O1 O 0.03429(9) 0.26005(14) 0.33705(8)
O2 O 0.13527(9) 0.07211(13) 0.44549(7)
O3 O 0.51006(10) 0.21618(17) 0.03910(9)
O4 O 0.61013(10) 0.06520(18) 0.16030(9)
N1 N 0.11153(11) 0.31535(17) 0.15387(10)
H1 H 0.0543(16) 0.334(2) 0.1919(14)
H2 H 0.1060(15) 0.355(2) 0.0893(14)
N2 N 0.51972(10) 0.14316(17) 0.12332(9)
C1 C 0.22560(12) 0.16283(17) 0.29838(10)
C2 C 0.21430(12) 0.23829(17) 0.19798(10)
C3 C 0.31350(12) 0.22848(18) 0.14090(10)
H3 H 0.3084 0.2758 0.0730
C4 C 0.41748(12) 0.14978(18) 0.18468(11)
C5 C 0.43157(12) 0.07721(18) 0.28298(11)
H4 H 0.5049 0.0248 0.3113
C6 C 0.33365(12) 0.08477(18) 0.33791(11)
H5 H 0.3403 0.0348 0.4052
C7 C 0.12404(12) 0.16464(17) 0.36448(10)
N3 N 0.14643(10) -0.25004(16) 0.04241(9)
H6 H 0.0796(15) -0.249(2) 0.0799(13)
H7 H 0.1435(14) -0.349(2) 0.0013(13)
C8 C 0.14422(13) -0.0913(2) -0.02465(12)
H8 H 0.1384 0.0153 0.0173
H9 H 0.0750 -0.0976 -0.0776
H10 H 0.2178 -0.0866 -0.0579
C9 C 0.25270(13) -0.2585(2) 0.12109(12)
H11 H 0.3256 -0.2555 0.0867
H12 H 0.2506 -0.3686 0.1606
H13 H 0.2521 -0.1571 0.1679
loop_
_geom_bond_atom_site_label_1
_geom_bond_atom_site_label_2
_geom_bond_site_symmetry_1
_geom_bond_site_symmetry_2
O1 C7 1_555 1_555
O2 C7 1_555 1_555
O3 N2 1_555 1_555
O4 N2 1_555 1_555
N1 H1 1_555 1_555
H2 N1 1_555 1_555
N2 C4 1_555 1_555
C1 C2 1_555 1_555
C2 N1 1_555 1_555
C3 C2 1_555 1_555
H3 C3 1_555 1_555
C4 C3 1_555 1_555
C5 C4 1_555 1_555
H4 C5 1_555 1_555
C6 C1 1_555 1_555
H5 C6 1_555 1_555
C7 C1 1_555 1_555
N3 H6 1_555 1_555
H7 N3 1_555 1_555
C8 N3 1_555 1_555
H8 C8 1_555 1_555
H9 C8 1_555 1_555
H10 C8 1_555 1_555
C9 N3 1_555 1_555
H11 C9 1_555 1_555
H12 C9 1_555 1_555
H13 C9 1_555 1_555
C5 C6 1_555 1_555

#END
