
#######################################################################
#
#                 Cambridge Crystallographic Data Centre
#                                CCDC 
#
#######################################################################
#
# If this CIF has been generated from an entry in the Cambridge 
# Structural Database, then it will include bibliographic, chemical, 
# crystal, experimental, refinement or atomic coordinate data resulting 
# from the CCDC's data processing and validation procedures.
#
#######################################################################

data_EYUMUH
_chemical_formula_moiety         'C19 H18 N2 O2'
_chemical_name_systematic        
2-(6-Hydroxy-2-naphthyl)-N-(pyridin-4-ylmethyl)propanamide
_symmetry_cell_setting           orthorhombic
_symmetry_space_group_name_H-M   'P 21 21 21'
_symmetry_Int_Tables_number      19
_space_group_name_Hall           'P 2ac 2ab'
loop_
_symmetry_equiv_pos_site_id
_symmetry_equiv_pos_as_xyz
1 x,y,z
2 1/2-x,-y,1/2+z
3 -x,1/2+y,1/2-z
4 1/2+x,1/2-y,-z
_cell_length_a                   5.5129(6)
_cell_length_b                   10.7042(11)
_cell_length_c                   27.232(3)
_cell_angle_alpha                90
_cell_angle_beta                 90
_cell_angle_gamma                90
_cell_volume                     1606.99
_exptl_crystal_colour            colorless
_exptl_crystal_description       block
_cell_formula_units_Z            4
loop_
_atom_site_label
_atom_site_type_symbol
_atom_site_fract_x
_atom_site_fract_y
_atom_site_fract_z
C1 C 0.8246(7) 0.6471(4) 0.71408(13)
H1 H 0.9398 0.6881 0.6950
C2 C 0.6786(9) 0.5584(4) 0.69336(15)
H2 H 0.6985 0.5410 0.6601
N1 N 0.5124(6) 0.4966(3) 0.71754(13)
C3 C 0.4890(8) 0.5239(4) 0.76496(15)
H3 H 0.3708 0.4820 0.7829
C4 C 0.6295(8) 0.6104(3) 0.78876(13)
H4 H 0.6085 0.6246 0.8222
C5 C 0.8013(7) 0.6757(3) 0.76298(12)
C6 C 0.9633(7) 0.7729(4) 0.78578(13)
H5 H 1.1154 0.7339 0.7950
H6 H 0.9990 0.8364 0.7614
N2 N 0.8603(6) 0.8319(2) 0.82816(10)
H7 H 0.7257 0.8716 0.8247
C7 C 0.9599(7) 0.8287(3) 0.87199(13)
O1 O 1.1542(6) 0.7760(2) 0.87994(10)
C8 C 0.8241(7) 0.9003(3) 0.91177(12)
H8 H 0.6614 0.9190 0.8993
C9 C 0.7961(10) 0.8203(3) 0.95696(14)
H9 H 0.7144 0.7442 0.9484
H10 H 0.7027 0.8646 0.9811
H11 H 0.9533 0.8013 0.9701
C10 C 0.9524(6) 1.0242(3) 0.92136(10)
C11 C 0.8697(6) 1.1322(3) 0.90168(11)
H12 H 0.7263 1.1307 0.8837
C12 C 0.9915(6) 1.2464(3) 0.90734(10)
C13 C 0.9066(7) 1.3578(3) 0.88624(13)
H13 H 0.7612 1.3572 0.8689
C14 C 1.0323(7) 1.4666(3) 0.89063(14)
H14 H 0.9734 1.5391 0.8760
C15 C 1.2496(6) 1.4701(3) 0.91702(12)
O2 O 1.3805(5) 1.57821(19) 0.92122(9)
H15 H 1.3056 1.6357 0.9083
C16 C 1.3337(7) 1.3648(3) 0.93926(11)
H16 H 1.4754 1.3684 0.9578
C17 C 1.2101(6) 1.2512(3) 0.93470(10)
C18 C 1.2925(6) 1.1380(3) 0.95552(11)
H17 H 1.4339 1.1380 0.9741
C19 C 1.1695(7) 1.0284(3) 0.94897(11)
H18 H 1.2296 0.9553 0.9629
loop_
_geom_bond_atom_site_label_1
_geom_bond_atom_site_label_2
_geom_bond_site_symmetry_1
_geom_bond_site_symmetry_2
C1 H1 1_555 1_555
C2 C1 1_555 1_555
H2 C2 1_555 1_555
N1 C2 1_555 1_555
C3 N1 1_555 1_555
H3 C3 1_555 1_555
C4 C3 1_555 1_555
H4 C4 1_555 1_555
C5 C1 1_555 1_555
C6 C5 1_555 1_555
H5 C6 1_555 1_555
H6 C6 1_555 1_555
N2 C6 1_555 1_555
H7 N2 1_555 1_555
C7 N2 1_555 1_555
O1 C7 1_555 1_555
C8 C7 1_555 1_555
H8 C8 1_555 1_555
C9 C8 1_555 1_555
H9 C9 1_555 1_555
H10 C9 1_555 1_555
H11 C9 1_555 1_555
C10 C8 1_555 1_555
C11 C10 1_555 1_555
H12 C11 1_555 1_555
C12 C11 1_555 1_555
C13 C12 1_555 1_555
H13 C13 1_555 1_555
C14 C13 1_555 1_555
H14 C14 1_555 1_555
C15 C14 1_555 1_555
O2 C15 1_555 1_555
H15 O2 1_555 1_555
C16 C15 1_555 1_555
H16 C16 1_555 1_555
C17 C12 1_555 1_555
C18 C17 1_555 1_555
H17 C18 1_555 1_555
C19 C10 1_555 1_555
H18 C19 1_555 1_555
C4 C5 1_555 1_555
C16 C17 1_555 1_555
C18 C19 1_555 1_555

#END
