
#######################################################################
#
#                 Cambridge Crystallographic Data Centre
#                                CCDC 
#
#######################################################################
#
# If this CIF has been generated from an entry in the Cambridge 
# Structural Database, then it will include bibliographic, chemical, 
# crystal, experimental, refinement or atomic coordinate data resulting 
# from the CCDC's data processing and validation procedures.
#
#######################################################################

data_EZAJAS
_chemical_formula_moiety         'C14 H13 F2 S1 1+,C1 F3 O3 S1 1-'
_chemical_name_systematic        
'(2,2-difluoroethyl)(diphenyl)sulfonium trifluoromethanesulfonate'
_symmetry_cell_setting           orthorhombic
_symmetry_space_group_name_H-M   'P b c a'
_symmetry_Int_Tables_number      61
_space_group_name_Hall           '-P 2ac 2ab'
loop_
_symmetry_equiv_pos_site_id
_symmetry_equiv_pos_as_xyz
1 x,y,z
2 1/2-x,-y,1/2+z
3 -x,1/2+y,1/2-z
4 1/2+x,1/2-y,-z
5 -x,-y,-z
6 1/2+x,y,1/2-z
7 x,1/2-y,1/2+z
8 1/2-x,1/2+y,z
_cell_length_a                   8.7786(6)
_cell_length_b                   19.1808(17)
_cell_length_c                   20.6930(19)
_cell_angle_alpha                90
_cell_angle_beta                 90
_cell_angle_gamma                90
_cell_volume                     3484.3
_cell_formula_units_Z            8
loop_
_atom_site_label
_atom_site_type_symbol
_atom_site_fract_x
_atom_site_fract_y
_atom_site_fract_z
S1 S 0.68192(8) 0.07948(3) 0.44752(3)
F1 F 0.9897(2) 0.08123(11) 0.49567(11)
F2 F 0.8502(3) 0.09899(14) 0.57869(11)
C1 C 0.7766(3) 0.15321(14) 0.48390(14)
H1 H 0.8151 0.1837 0.4503
H2 H 0.7043 0.1794 0.5097
C2 C 0.9047(4) 0.12967(18) 0.52543(17)
H3 H 0.9684 0.1696 0.5374
C3 C 0.7891(3) 0.06228(13) 0.37621(13)
C4 C 0.8179(4) 0.11269(16) 0.33032(15)
H4 H 0.7821 0.1580 0.3354
C5 C 0.9011(4) 0.09403(19) 0.27687(16)
H5 H 0.9230 0.1272 0.2454
C6 C 0.9523(4) 0.0268(2) 0.26935(17)
H6 H 1.0076 0.0147 0.2327
C7 C 0.9225(4) -0.02216(18) 0.31522(17)
H7 H 0.9578 -0.0675 0.3099
C8 C 0.8408(3) -0.00493(15) 0.36922(15)
H8 H 0.8206 -0.0382 0.4008
C9 C 0.5087(3) 0.11453(14) 0.41792(14)
C10 C 0.4904(4) 0.18359(15) 0.40109(16)
H9 H 0.5708 0.2149 0.4046
C11 C 0.3495(4) 0.20504(18) 0.37896(18)
H10 H 0.3338 0.2513 0.3674
C12 C 0.2333(4) 0.1579(2) 0.37409(19)
H11 H 0.1381 0.1728 0.3599
C13 C 0.2538(4) 0.0898(2) 0.38948(17)
H12 H 0.1738 0.0585 0.3846
C14 C 0.3916(3) 0.06708(16) 0.41216(15)
H13 H 0.4059 0.0206 0.4234
S2 S 0.40392(9) 0.16793(4) 0.59302(4)
F3 F 0.3807(3) 0.11899(12) 0.71003(10)
F4 F 0.4213(4) 0.22782(13) 0.70527(11)
F5 F 0.5997(3) 0.15732(16) 0.68645(14)
O1 O 0.2441(3) 0.17938(12) 0.59351(12)
O2 O 0.4926(3) 0.22454(10) 0.56773(11)
O3 O 0.4509(3) 0.10082(10) 0.57169(11)
C15 C 0.4532(5) 0.16818(19) 0.67797(19)
loop_
_geom_bond_atom_site_label_1
_geom_bond_atom_site_label_2
_geom_bond_site_symmetry_1
_geom_bond_site_symmetry_2
S1 C1 1_555 1_555
F1 C2 1_555 1_555
F2 C2 1_555 1_555
C1 H1 1_555 1_555
H2 C1 1_555 1_555
C2 C1 1_555 1_555
H3 C2 1_555 1_555
C3 S1 1_555 1_555
C4 C3 1_555 1_555
H4 C4 1_555 1_555
C5 C4 1_555 1_555
H5 C5 1_555 1_555
C6 C5 1_555 1_555
H6 C6 1_555 1_555
C7 C6 1_555 1_555
H7 C7 1_555 1_555
C8 C3 1_555 1_555
H8 C8 1_555 1_555
C9 S1 1_555 1_555
C10 C9 1_555 1_555
H9 C10 1_555 1_555
C11 C10 1_555 1_555
H10 C11 1_555 1_555
C12 C11 1_555 1_555
H11 C12 1_555 1_555
C13 C12 1_555 1_555
H12 C13 1_555 1_555
C14 C9 1_555 1_555
H13 C14 1_555 1_555
S2 O1 1_555 1_555
F3 C15 1_555 1_555
F4 C15 1_555 1_555
F5 C15 1_555 1_555
O2 S2 1_555 1_555
O3 S2 1_555 1_555
C15 S2 1_555 1_555
C7 C8 1_555 1_555
C13 C14 1_555 1_555

#END
