
#######################################################################
#
#                 Cambridge Crystallographic Data Centre
#                                CCDC 
#
#######################################################################
#
# If this CIF has been generated from an entry in the Cambridge 
# Structural Database, then it will include bibliographic, chemical, 
# crystal, experimental, refinement or atomic coordinate data resulting 
# from the CCDC's data processing and validation procedures.
#
#######################################################################

data_EZAQAZ
_chemical_formula_moiety         'C14 H5 F6 N1 O2'
_chemical_name_systematic        
6,8,9-trifluoro-7-(trifluoromethyl)dibenzo[b,f][1,4]oxazepin-11(10H)-one
_symmetry_cell_setting           triclinic
_symmetry_space_group_name_H-M   'P -1'
_symmetry_Int_Tables_number      2
_space_group_name_Hall           '-P 1'
loop_
_symmetry_equiv_pos_site_id
_symmetry_equiv_pos_as_xyz
1 x,y,z
2 -x,-y,-z
_cell_length_a                   7.5465(13)
_cell_length_b                   7.9565(14)
_cell_length_c                   22.733(4)
_cell_angle_alpha                84.375(4)
_cell_angle_beta                 89.317(4)
_cell_angle_gamma                72.275(4)
_cell_volume                     1293.69
_exptl_crystal_colour            colorless
_exptl_crystal_description       prismatic
_cell_formula_units_Z            4
loop_
_atom_site_label
_atom_site_type_symbol
_atom_site_fract_x
_atom_site_fract_y
_atom_site_fract_z
N1 N 0.3442(4) 0.6990(4) 0.27738(11)
O1 O 0.2361(4) 0.8488(3) 0.19070(10)
O2 O 0.4381(3) 0.3321(3) 0.25725(10)
C1 C 0.4996(5) 0.3897(5) 0.20330(15)
C2 C 0.5967(6) 0.2638(6) 0.1681(2)
H1 H 0.6292 0.1443 0.1820
C3 C 0.6455(7) 0.3140(9) 0.1127(3)
H2 H 0.7104 0.2279 0.0888
C4 C 0.6003(7) 0.4886(9) 0.0919(2)
H3 H 0.6356 0.5213 0.0543
C5 C 0.5018(6) 0.6174(6) 0.12697(16)
H4 H 0.4697 0.7366 0.1126
C6 C 0.4507(5) 0.5686(5) 0.18369(14)
C7 C 0.3364(5) 0.7134(4) 0.21709(13)
C8 C 0.4530(4) 0.5625(4) 0.31662(13)
C9 C 0.4999(4) 0.3847(4) 0.30702(14)
C10 C 0.5958(5) 0.2570(4) 0.34958(17)
C11 C 0.6463(5) 0.2958(5) 0.40424(17)
C12 C 0.6009(5) 0.4731(5) 0.41263(15)
C13 C 0.5060(5) 0.6037(4) 0.36996(14)
C14 C 0.7381(7) 0.1527(7) 0.4504(2)
F1 F 0.6328(3) 0.0874(3) 0.33864(12)
F2 F 0.6470(3) 0.5249(3) 0.46304(8)
F3 F 0.4651(3) 0.7729(3) 0.38066(9)
F4 F 0.6163(8) 0.0963(9) 0.4803(3)
F5 F 0.8182(11) 0.2177(8) 0.4955(3)
F6 F 0.8704(13) 0.0258(8) 0.4305(3)
H5 H 0.281(4) 0.793(3) 0.2880(14)
N2 N 0.0699(4) 0.1971(3) 0.22886(11)
O3 O 0.1120(4) 0.0278(3) 0.31492(10)
O4 O -0.1542(3) 0.5444(3) 0.25345(12)
C15 C -0.0484(5) 0.5041(5) 0.30591(16)
C16 C -0.0637(6) 0.6394(6) 0.3405(2)
H6 H -0.1318 0.7552 0.3273
C17 C 0.0239(8) 0.6009(8) 0.3957(3)
H7 H 0.0132 0.6911 0.4199
C18 C 0.1262(7) 0.4302(8) 0.41463(19)
H8 H 0.1858 0.4052 0.4515
C19 C 0.1412(5) 0.2963(6) 0.37953(16)
H9 H 0.2097 0.1807 0.3929
C20 C 0.0549(4) 0.3314(4) 0.32405(14)
C21 C 0.0790(5) 0.1761(4) 0.28939(14)
C22 C 0.0501(4) 0.3489(4) 0.18996(14)
C23 C -0.0540(5) 0.5169(4) 0.20194(15)
C24 C -0.0731(5) 0.6598(4) 0.16019(19)
C25 C 0.0056(6) 0.6439(5) 0.10499(18)
C26 C 0.1085(5) 0.4747(5) 0.09346(15)
C27 C 0.1299(5) 0.3315(4) 0.13464(14)
C28 C -0.0237(8) 0.8000(6) 0.0597(3)
F10 F -0.1795(4) 0.8193(3) 0.17377(13)
F11 F 0.1898(4) 0.4456(3) 0.04109(9)
F12 F 0.2305(3) 0.1713(2) 0.12063(8)
F13 F -0.2162(12) 0.8714(12) 0.0466(4)
F14 F 0.0498(9) 0.7601(6) 0.0052(2)
F15 F 0.0262(11) 0.9243(11) 0.0754(4)
H10 H 0.108(4) 0.101(3) 0.2151(12)
F7? F 0.7160(19) 0.1777(16) 0.5011(6)
F8? F 0.906(2) 0.0886(18) 0.4463(6)
F9? F 0.6856(16) 0.0000(13) 0.4489(5)
F16? F -0.152(2) 0.8303(19) 0.0276(5)
F17? F 0.1422(16) 0.8048(12) 0.0391(4)
F18? F -0.0559(18) 0.9605(18) 0.0914(6)
loop_
_geom_bond_atom_site_label_1
_geom_bond_atom_site_label_2
_geom_bond_site_symmetry_1
_geom_bond_site_symmetry_2
N1 C7 1_555 1_555
O1 C7 1_555 1_555
O2 C1 1_555 1_555
C1 C2 1_555 1_555
C2 H1 1_555 1_555
C3 C2 1_555 1_555
H2 C3 1_555 1_555
C4 C3 1_555 1_555
H3 C4 1_555 1_555
C5 C4 1_555 1_555
H4 C5 1_555 1_555
C6 C1 1_555 1_555
C7 C6 1_555 1_555
C8 N1 1_555 1_555
C9 O2 1_555 1_555
C10 C9 1_555 1_555
C11 C10 1_555 1_555
C12 C11 1_555 1_555
C13 C8 1_555 1_555
C14 C11 1_555 1_555
F1 C10 1_555 1_555
F2 C12 1_555 1_555
F3 C13 1_555 1_555
F4 C14 1_555 1_555
F5 C14 1_555 1_555
F6 C14 1_555 1_555
H5 N1 1_555 1_555
N2 C21 1_555 1_555
O3 C21 1_555 1_555
O4 C15 1_555 1_555
C15 C16 1_555 1_555
C16 H6 1_555 1_555
C17 C16 1_555 1_555
H7 C17 1_555 1_555
C18 C17 1_555 1_555
H8 C18 1_555 1_555
C19 C18 1_555 1_555
H9 C19 1_555 1_555
C20 C15 1_555 1_555
C21 C20 1_555 1_555
C22 N2 1_555 1_555
C23 O4 1_555 1_555
C24 C23 1_555 1_555
C25 C24 1_555 1_555
C26 C25 1_555 1_555
C27 C22 1_555 1_555
C28 C25 1_555 1_555
F10 C24 1_555 1_555
F11 C26 1_555 1_555
F12 C27 1_555 1_555
F13 C28 1_555 1_555
F14 C28 1_555 1_555
F15 C28 1_555 1_555
H10 N2 1_555 1_555
C5 C6 1_555 1_555
C8 C9 1_555 1_555
C12 C13 1_555 1_555
C19 C20 1_555 1_555
C22 C23 1_555 1_555
C26 C27 1_555 1_555

#END
