
#######################################################################
#
#                 Cambridge Crystallographic Data Centre
#                                CCDC 
#
#######################################################################
#
# If this CIF has been generated from an entry in the Cambridge 
# Structural Database, then it will include bibliographic, chemical, 
# crystal, experimental, refinement or atomic coordinate data resulting 
# from the CCDC's data processing and validation procedures.
#
#######################################################################

data_EZAQUT
_chemical_formula_moiety         'C20 H21 N1 O8'
_chemical_name_systematic        
'triethyl 9b-hydroxy-5-oxo-5,9b-dihydro-3H-pyrrolo[2,1-a]isoindole-1,3,3-tricarboxylate'
_symmetry_cell_setting           monoclinic
_symmetry_space_group_name_H-M   'P 21/c'
_symmetry_Int_Tables_number      14
_space_group_name_Hall           '-P 2ybc'
loop_
_symmetry_equiv_pos_site_id
_symmetry_equiv_pos_as_xyz
1 x,y,z
2 -x,1/2+y,1/2-z
3 -x,-y,-z
4 x,1/2-y,1/2+z
_cell_length_a                   8.1010(16)
_cell_length_b                   19.041(4)
_cell_length_c                   13.693(3)
_cell_angle_alpha                90
_cell_angle_beta                 107.19(3)
_cell_angle_gamma                90
_cell_volume                     2017.81
_cell_formula_units_Z            4
loop_
_atom_site_label
_atom_site_type_symbol
_atom_site_fract_x
_atom_site_fract_y
_atom_site_fract_z
N1 N 0.6414(3) 0.55656(12) 0.63547(17)
O1 O 0.4022(3) 0.59780(11) 0.49917(15)
H1 H 0.4276 0.5868 0.4475
C1 C 0.5961(4) 0.54729(14) 0.7304(2)
O2 O 0.9096(3) 0.50424(14) 0.67465(19)
C2 C 0.5070(4) 0.61611(15) 0.7365(2)
H2 H 0.4689 0.6292 0.7916
O3 O 0.4666(4) 0.43679(12) 0.66720(18)
C3 C 0.4896(4) 0.65533(16) 0.6551(2)
O4 O 0.4021(4) 0.48737(12) 0.79825(19)
C4 C 0.5522(4) 0.61751(15) 0.5762(2)
O5 O 0.7855(4) 0.48668(13) 0.87480(18)
C5 C 0.6909(5) 0.64646(17) 0.5338(2)
O6 O 0.8536(3) 0.59503(12) 0.83670(15)
C6 C 0.6821(6) 0.70266(19) 0.4680(3)
H3 H 0.5858 0.7318 0.4486
O7 O 0.3936(5) 0.75926(14) 0.5617(2)
C7 C 0.8247(7) 0.7134(2) 0.4324(3)
H4 H 0.8231 0.7510 0.3887
O8 O 0.3386(4) 0.74280(12) 0.7092(2)
C8 C 0.9669(7) 0.6706(3) 0.4595(3)
H5 H 1.0597 0.6801 0.4346
C9 C 0.9745(5) 0.6143(2) 0.5227(3)
H6 H 1.0700 0.5847 0.5407
C10 C 0.8321(5) 0.60318(19) 0.5590(2)
C11 C 0.8075(5) 0.54787(18) 0.6285(2)
C12 C 0.4807(5) 0.48383(17) 0.7266(2)
C13 C 0.2967(6) 0.4278(2) 0.8099(3)
H7 H 0.3246 0.3869 0.7756
H8 H 0.1752 0.4385 0.7799
C14 C 0.3332(8) 0.4137(3) 0.9195(4)
H9 H 0.2645 0.3747 0.9292
H10 H 0.3055 0.4544 0.9528
H11 H 0.4535 0.4026 0.9483
C15 C 0.7583(5) 0.53768(18) 0.8233(2)
C16 C 1.0200(5) 0.5925(3) 0.9143(3)
H12 H 1.0113 0.6145 0.9765
H13 H 1.0543 0.5439 0.9298
C17 C 1.1471(6) 0.6280(3) 0.8791(4)
H14 H 1.2566 0.6263 0.9311
H15 H 1.1133 0.6761 0.8644
H16 H 1.1568 0.6056 0.8183
C18 C 0.4037(5) 0.72482(18) 0.6356(3)
C19 C 0.2548(8) 0.8108(2) 0.6977(6)
H17 H 0.3340 0.8448 0.7396
H18 H 0.2290 0.8257 0.6270
C20 C 0.1078(11) 0.8106(3) 0.7244(8)
H19 H 0.0585 0.8569 0.7158
H20 H 0.1326 0.7967 0.7947
H21 H 0.0274 0.7781 0.6819
loop_
_geom_bond_atom_site_label_1
_geom_bond_atom_site_label_2
_geom_bond_site_symmetry_1
_geom_bond_site_symmetry_2
N1 C1 1_555 1_555
O1 H1 1_555 1_555
C1 C2 1_555 1_555
O2 C11 1_555 1_555
C2 H2 1_555 1_555
O3 C12 1_555 1_555
C3 C2 1_555 1_555
O4 C12 1_555 1_555
C4 N1 1_555 1_555
O5 C15 1_555 1_555
C5 C4 1_555 1_555
O6 C15 1_555 1_555
C6 C5 1_555 1_555
H3 C6 1_555 1_555
O7 C18 1_555 1_555
C7 C6 1_555 1_555
H4 C7 1_555 1_555
O8 C18 1_555 1_555
C8 C7 1_555 1_555
H5 C8 1_555 1_555
C9 C8 1_555 1_555
H6 C9 1_555 1_555
C10 C5 1_555 1_555
C11 N1 1_555 1_555
C12 C1 1_555 1_555
C13 O4 1_555 1_555
H7 C13 1_555 1_555
H8 C13 1_555 1_555
C14 C13 1_555 1_555
H9 C14 1_555 1_555
H10 C14 1_555 1_555
H11 C14 1_555 1_555
C15 C1 1_555 1_555
C16 O6 1_555 1_555
H12 C16 1_555 1_555
H13 C16 1_555 1_555
C17 C16 1_555 1_555
H14 C17 1_555 1_555
H15 C17 1_555 1_555
H16 C17 1_555 1_555
C18 C3 1_555 1_555
C19 O8 1_555 1_555
H17 C19 1_555 1_555
H18 C19 1_555 1_555
C20 C19 1_555 1_555
H19 C20 1_555 1_555
H20 C20 1_555 1_555
H21 C20 1_555 1_555
O1 C4 1_555 1_555
C3 C4 1_555 1_555
C9 C10 1_555 1_555
C10 C11 1_555 1_555

#END
