
#######################################################################
#
#                 Cambridge Crystallographic Data Centre
#                                CCDC 
#
#######################################################################
#
# If this CIF has been generated from an entry in the Cambridge 
# Structural Database, then it will include bibliographic, chemical, 
# crystal, experimental, refinement or atomic coordinate data resulting 
# from the CCDC's data processing and validation procedures.
#
#######################################################################

data_EZAVAC
_chemical_formula_moiety         'C30 H32 O9'
_chemical_name_systematic        
2,3-(4',5'-bis((4-Formylphenoxy)methyl)benzo)-1,4,7,10,13-pentaoxa-2-cyclopentadecene
_symmetry_cell_setting           triclinic
_symmetry_space_group_name_H-M   'P -1'
_symmetry_Int_Tables_number      2
_space_group_name_Hall           '-P 1'
loop_
_symmetry_equiv_pos_site_id
_symmetry_equiv_pos_as_xyz
1 x,y,z
2 -x,-y,-z
_cell_length_a                   10.245(3)
_cell_length_b                   11.124(4)
_cell_length_c                   12.367(4)
_cell_angle_alpha                88.171(7)
_cell_angle_beta                 85.853(7)
_cell_angle_gamma                74.120(7)
_cell_volume                     1351.97
_exptl_crystal_colour            colorless
_exptl_crystal_description       prism
_chemical_melting_point          '156-158 deg.C'
_cell_formula_units_Z            2
_exptl_crystal_recrystallization_method acetone
loop_
_atom_site_label
_atom_site_type_symbol
_atom_site_fract_x
_atom_site_fract_y
_atom_site_fract_z
O1 O 0.1778(3) 0.8539(2) 0.2660(2)
O2 O 0.0889(4) 0.8310(4) 0.0637(3)
O3 O 0.1160(8) 0.5499(7) 0.0835(7)
O5 O 0.4019(4) 0.4401(3) 0.2367(3)
O6 O 0.3883(3) 0.6792(2) 0.3125(2)
O7 O 0.2305(3) 1.2116(2) 0.5022(2)
O8 O 0.0439(6) 1.7490(3) 0.7209(4)
O9 O 0.3845(3) 0.8752(2) 0.7283(2)
O10 O 0.7059(5) 0.8275(4) 1.1548(3)
C1 C 0.2014(4) 0.9787(3) 0.4168(3)
H1 H 0.1261 1.0424 0.3984
C2 C 0.2422(4) 0.8766(3) 0.3542(3)
C3 C 0.0798(4) 0.9506(4) 0.2203(3)
H2 H 0.1229 1.0095 0.1836
H3 H 0.0156 0.9946 0.2769
C4 C 0.0068(5) 0.8989(5) 0.1416(4)
H4 H -0.0436 0.8471 0.1806
H5 H -0.0584 0.9676 0.1081
C5 C 0.0266(6) 0.7557(7) 0.0022(5)
H6 H 0.0134 0.7900 -0.0706
H7 H -0.0615 0.7556 0.0366
C6 C 0.1198(12) 0.6222(7) -0.0026(6)
C7 C 0.2180(12) 0.5539(13) 0.1469(9)
C8 C 0.3532(11) 0.4636(10) 0.1340(7)
H8 H 0.3462 0.3869 0.1026
H9 H 0.4139 0.4980 0.0866
C9 C 0.5140(5) 0.4853(4) 0.2450(4)
H10 H 0.5307 0.5279 0.1779
H11 H 0.5934 0.4157 0.2553
C10 C 0.4943(4) 0.5738(3) 0.3373(3)
H12 H 0.4706 0.5347 0.4043
H13 H 0.5771 0.5978 0.3456
C11 C 0.3523(4) 0.7796(3) 0.3814(3)
C12 C 0.4189(4) 0.7899(4) 0.4728(3)
H14 H 0.4922 0.7245 0.4921
C13 C 0.3782(4) 0.8961(4) 0.5358(3)
C14 C 0.2683(4) 0.9925(3) 0.5084(3)
C15 C 0.2183(5) 1.1100(3) 0.5738(3)
H15 H 0.1243 1.1214 0.6003
H16 H 0.2729 1.1058 0.6354
C16 C 0.1937(4) 1.3295(3) 0.5417(3)
C17 C 0.2085(4) 1.4219(4) 0.4677(4)
H17 H 0.2413 1.4012 0.3967
C18 C 0.1747(4) 1.5436(4) 0.4996(4)
H18 H 0.1840 1.6052 0.4494
C19 C 0.1276(4) 1.5770(4) 0.6033(4)
C20 C 0.0926(6) 1.7096(5) 0.6348(6)
H19 H 0.1100 1.7667 0.5830
C21 C 0.1126(4) 1.4846(4) 0.6774(4)
H20 H 0.0803 1.5064 0.7484
C22 C 0.1448(4) 1.3610(4) 0.6476(3)
H21 H 0.1339 1.2997 0.6976
C23 C 0.4592(4) 0.9001(4) 0.6318(3)
H22 H 0.5465 0.8379 0.6241
H23 H 0.4753 0.9817 0.6359
C24 C 0.4462(4) 0.8624(3) 0.8222(3)
C25 C 0.5758(4) 0.8743(4) 0.8325(3)
H24 H 0.6276 0.8920 0.7723
C26 C 0.6267(4) 0.8594(4) 0.9344(3)
H25 H 0.7143 0.8655 0.9419
C27 C 0.5503(5) 0.8355(4) 1.0252(3)
C28 C 0.6013(7) 0.8237(5) 1.1348(5)
H26 H 0.5421 0.8122 1.1924
C29 C 0.4210(5) 0.8251(4) 1.0126(3)
H27 H 0.3680 0.8104 1.0731
C30 C 0.3700(4) 0.8360(4) 0.9135(3)
H28 H 0.2839 0.8258 0.9063
O4? O 0.1842(18) 0.5099(12) 0.0506(12)
loop_
_geom_bond_atom_site_label_1
_geom_bond_atom_site_label_2
_geom_bond_site_symmetry_1
_geom_bond_site_symmetry_2
O1 C2 1_555 1_555
O2 C4 1_555 1_555
O3 C6 1_555 1_555
O5 C8 1_555 1_555
O6 C10 1_555 1_555
O7 C15 1_555 1_555
O8 C20 1_555 1_555
O9 C23 1_555 1_555
O10 C28 1_555 1_555
C1 H1 1_555 1_555
C2 C1 1_555 1_555
C3 O1 1_555 1_555
H2 C3 1_555 1_555
H3 C3 1_555 1_555
C4 C3 1_555 1_555
H4 C4 1_555 1_555
H5 C4 1_555 1_555
C5 O2 1_555 1_555
H6 C5 1_555 1_555
H7 C5 1_555 1_555
C6 C5 1_555 1_555
C7 O3 1_555 1_555
C8 C7 1_555 1_555
H8 C8 1_555 1_555
H9 C8 1_555 1_555
C9 O5 1_555 1_555
H10 C9 1_555 1_555
H11 C9 1_555 1_555
C10 C9 1_555 1_555
H12 C10 1_555 1_555
H13 C10 1_555 1_555
C11 O6 1_555 1_555
C12 C11 1_555 1_555
H14 C12 1_555 1_555
C13 C12 1_555 1_555
C14 C1 1_555 1_555
C15 C14 1_555 1_555
H15 C15 1_555 1_555
H16 C15 1_555 1_555
C16 O7 1_555 1_555
C17 C16 1_555 1_555
H17 C17 1_555 1_555
C18 C17 1_555 1_555
H18 C18 1_555 1_555
C19 C18 1_555 1_555
C20 C19 1_555 1_555
H19 C20 1_555 1_555
C21 C19 1_555 1_555
H20 C21 1_555 1_555
C22 C16 1_555 1_555
H21 C22 1_555 1_555
C23 C13 1_555 1_555
H22 C23 1_555 1_555
H23 C23 1_555 1_555
C24 O9 1_555 1_555
C25 C24 1_555 1_555
H24 C25 1_555 1_555
C26 C25 1_555 1_555
H25 C26 1_555 1_555
C27 C26 1_555 1_555
C28 C27 1_555 1_555
H26 C28 1_555 1_555
C29 C27 1_555 1_555
H27 C29 1_555 1_555
C30 C24 1_555 1_555
H28 C30 1_555 1_555
C2 C11 1_555 1_555
C13 C14 1_555 1_555
C21 C22 1_555 1_555
C29 C30 1_555 1_555

#END
