
#######################################################################
#
#                 Cambridge Crystallographic Data Centre
#                                CCDC 
#
#######################################################################
#
# If this CIF has been generated from an entry in the Cambridge 
# Structural Database, then it will include bibliographic, chemical, 
# crystal, experimental, refinement or atomic coordinate data resulting 
# from the CCDC's data processing and validation procedures.
#
#######################################################################

data_EZAWAD
_chemical_name_common            
'1$2!,2$2!,3$2!,4$2!-Tetraphenyl-1$7!,2$7!,3$7!,4$7!-tetrakis((morpholin-4-yl)methyl)-1(2,4),2,3,4(4,2)-tetrakis((1,3,2)dioxaborolo(4,5-b)pyridina)cyclotetraphane benzene n-pentane solvate'
_chemical_formula_moiety         'C64 H68 B4 N8 O12,2(C6 H6),0.5(C5 H12)'
_chemical_name_systematic        
"tetrakis(\m~2~-2,3-Dioxy-4-((morpholin-4-yl)methyl)pyridine-N,O,O')-tetraphenyl-tetra-boron benzene n-pentane solvate"
_symmetry_cell_setting           orthorhombic
_symmetry_space_group_name_H-M   'I b a 2'
_symmetry_Int_Tables_number      45
_space_group_name_Hall           'I 2 -2c'
loop_
_symmetry_equiv_pos_site_id
_symmetry_equiv_pos_as_xyz
1 x,y,z
2 -x,-y,z
3 1/2+x,1/2-y,z
4 1/2-x,1/2+y,z
5 1/2+x,1/2+y,1/2+z
6 1/2-x,1/2-y,1/2+z
7 x,-y,1/2+z
8 -x,y,1/2+z
_cell_length_a                   26.3143(18)
_cell_length_b                   28.029(2)
_cell_length_c                   20.2248(11)
_cell_angle_alpha                90
_cell_angle_beta                 90
_cell_angle_gamma                90
_cell_volume                     14917.1
_exptl_crystal_colour            colorless
_exptl_crystal_description       prismatic
_cell_formula_units_Z            8
loop_
_atom_site_label
_atom_site_type_symbol
_atom_site_fract_x
_atom_site_fract_y
_atom_site_fract_z
O1 O 0.16759(10) 0.17117(9) 0.40568(14)
O2 O 0.20978(10) 0.14764(10) 0.30809(14)
O3 O 0.43772(15) 0.25139(14) 0.1846(2)
O4 O 0.19081(9) 0.19541(9) 0.54209(14)
O5 O 0.14301(10) 0.25459(9) 0.48659(15)
O6 O -0.1040(2) 0.3018(2) 0.5648(3)
O7 O 0.19649(9) 0.09199(9) 0.54961(13)
O8 O 0.19065(10) 0.12988(10) 0.65408(14)
O9 O 0.24972(9) 0.09928(9) 0.42491(13)
O10 O 0.25936(9) 0.02373(9) 0.47526(13)
O11 O 0.11224(13) -0.17709(11) 0.38899(18)
N1 N 0.22623(11) 0.22915(11) 0.43831(17)
N2 N 0.35674(15) 0.20962(16) 0.2535(2)
N3 N 0.12348(12) 0.14561(11) 0.56986(16)
N4 N -0.02164(13) 0.25461(12) 0.50544(19)
N5 N 0.28483(11) 0.09585(11) 0.53909(17)
N6 N 0.16940(12) 0.08467(11) 0.37780(17)
N7 N 0.14738(13) -0.08898(12) 0.43958(19)
C1 C 0.20939(15) 0.19584(14) 0.3958(2)
C2 C 0.23506(14) 0.18227(14) 0.3391(2)
C3 C 0.28019(16) 0.20297(16) 0.3215(2)
C4 C 0.29806(16) 0.23868(16) 0.3656(2)
H1 H 0.3292 0.2544 0.3562
C5 C 0.27159(15) 0.25099(15) 0.4215(2)
H2 H 0.2848 0.2752 0.4495
C6 C 0.30898(18) 0.1850(2) 0.2623(3)
H3 H 0.3156 0.1504 0.2677
H4 H 0.2879 0.1892 0.2222
C7 C 0.3930(2) 0.1794(2) 0.2147(3)
H5 H 0.3809 0.1751 0.1687
H6 H 0.3970 0.1476 0.2354
C8 C 0.4429(2) 0.2068(2) 0.2160(4)
H7 H 0.4537 0.2116 0.2625
H8 H 0.4696 0.1879 0.1934
C9 C 0.40112(19) 0.27876(19) 0.2157(3)
H9 H 0.3963 0.3090 0.1912
H10 H 0.4124 0.2866 0.2611
C10 C 0.3517(2) 0.2520(2) 0.2185(3)
H11 H 0.3257 0.2722 0.2400
H12 H 0.3401 0.2450 0.1730
C11 C 0.14224(14) 0.18453(14) 0.5422(2)
C12 C 0.11286(14) 0.21919(14) 0.5112(2)
C13 C 0.06115(15) 0.21533(15) 0.5075(2)
C14 C 0.04133(15) 0.17352(15) 0.5364(2)
H13 H 0.0057 0.1683 0.5351
C15 C 0.07097(15) 0.14084(15) 0.5659(2)
H14 H 0.0555 0.1134 0.5847
C16 C 0.02757(17) 0.25174(17) 0.4741(3)
H15 H 0.0442 0.2834 0.4758
H16 H 0.0231 0.2429 0.4270
C17 C -0.05698(18) 0.28294(18) 0.4660(3)
H17 H -0.0610 0.2685 0.4217
H18 H -0.0437 0.3157 0.4605
C18 C -0.1073(2) 0.2844(2) 0.5009(4)
H19 H -0.1310 0.3046 0.4753
H20 H -0.1217 0.2517 0.5022
C19 C -0.0704(3) 0.2736(3) 0.6027(3)
H21 H -0.0830 0.2403 0.6048
H22 H -0.0683 0.2862 0.6484
C20 C -0.0189(2) 0.2747(2) 0.5710(3)
H23 H -0.0066 0.3080 0.5685
H24 H 0.0055 0.2562 0.5981
C21 C 0.24177(15) 0.10406(13) 0.5727(2)
C22 C 0.23935(15) 0.12587(14) 0.6339(2)
C23 C 0.28252(16) 0.13865(15) 0.6668(2)
C24 C 0.32813(16) 0.12954(16) 0.6319(2)
H25 H 0.3595 0.1378 0.6522
C25 C 0.32917(17) 0.11004(15) 0.5721(2)
H26 H 0.3610 0.1056 0.5509
C26 C 0.2820(2) 0.1624(2) 0.7334(3)
H27 H 0.2847 0.1974 0.7275
H28 H 0.2494 0.1555 0.7558
N8 N 0.3247(4) 0.1455(3) 0.7754(5)
C27 C 0.3314(5) 0.1788(5) 0.8301(6)
H29 H 0.3007 0.1795 0.8584
H30 H 0.3379 0.2114 0.8133
C28 C 0.3796(5) 0.1594(5) 0.8710(5)
H31 H 0.4106 0.1596 0.8432
H32 H 0.3857 0.1793 0.9107
O12 O 0.3657(4) 0.1092(4) 0.8905(5)
C29 C 0.3566(6) 0.0800(5) 0.8354(6)
H33 H 0.3492 0.0472 0.8505
H34 H 0.3875 0.0789 0.8075
C30 C 0.3136(4) 0.0978(4) 0.7958(5)
H35 H 0.3085 0.0772 0.7566
H36 H 0.2821 0.0973 0.8225
C35 C 0.21026(14) 0.07139(13) 0.41323(19)
C36 C 0.21575(14) 0.02661(14) 0.4424(2)
C37 C 0.17802(14) -0.00740(14) 0.4361(2)
C38 C 0.13569(15) 0.00698(14) 0.3983(2)
H45 H 0.1086 -0.0149 0.3918
C39 C 0.13253(16) 0.05043(15) 0.3712(2)
H46 H 0.1031 0.0580 0.3461
C40 C 0.18149(17) -0.05465(15) 0.4701(2)
H47 H 0.2168 -0.0666 0.4676
H48 H 0.1725 -0.0508 0.5173
C41 C 0.16843(17) -0.10936(16) 0.3797(2)
H49 H 0.1986 -0.1289 0.3905
H50 H 0.1791 -0.0835 0.3493
C42 C 0.1287(2) -0.14004(17) 0.3467(3)
H51 H 0.0992 -0.1200 0.3342
H52 H 0.1430 -0.1540 0.3058
C43 C 0.09191(17) -0.15686(16) 0.4471(3)
H53 H 0.0795 -0.1826 0.4764
H54 H 0.0626 -0.1364 0.4355
C44 C 0.13109(19) -0.12751(16) 0.4834(3)
H55 H 0.1162 -0.1141 0.5243
H56 H 0.1605 -0.1477 0.4955
C45 C 0.11298(16) 0.14387(14) 0.3075(2)
C46 C 0.06774(17) 0.15924(18) 0.3385(3)
H57 H 0.0674 0.1643 0.3849
C47 C 0.0238(2) 0.1671(2) 0.3021(3)
H58 H -0.0063 0.1774 0.3238
C48 C 0.0238(2) 0.16007(19) 0.2345(3)
H59 H -0.0062 0.1659 0.2096
C49 C 0.0665(2) 0.1449(2) 0.2039(3)
H60 H 0.0665 0.1402 0.1574
C50 C 0.10992(18) 0.13620(18) 0.2393(2)
H61 H 0.1390 0.1245 0.2167
C51 C 0.22423(15) 0.28216(15) 0.5464(2)
C52 C 0.20773(17) 0.32883(16) 0.5446(3)
H62 H 0.1795 0.3370 0.5175
C53 C 0.2319(2) 0.36440(18) 0.5819(3)
H63 H 0.2201 0.3964 0.5795
C54 C 0.2719(2) 0.35364(17) 0.6214(2)
H64 H 0.2879 0.3777 0.6470
C55 C 0.28889(18) 0.30751(18) 0.6238(2)
H65 H 0.3168 0.2996 0.6515
C56 C 0.26582(17) 0.27203(16) 0.5863(2)
H66 H 0.2787 0.2404 0.5880
C57 C 0.12708(14) 0.06313(15) 0.6300(2)
C58 C 0.11626(18) 0.0598(2) 0.6970(2)
H67 H 0.1269 0.0848 0.7256
C59 C 0.0904(2) 0.0212(2) 0.7235(3)
H68 H 0.0842 0.0198 0.7697
C60 C 0.0739(2) -0.0149(2) 0.6833(3)
H69 H 0.0554 -0.0410 0.7011
C61 C 0.08448(19) -0.01285(18) 0.6166(3)
H70 H 0.0738 -0.0379 0.5881
C62 C 0.11080(17) 0.02589(16) 0.5912(2)
H71 H 0.1179 0.0267 0.5451
C63 C 0.34144(15) 0.06666(15) 0.4389(2)
C64 C 0.36932(18) 0.02610(19) 0.4471(3)
H72 H 0.3554 0.0002 0.4714
C65 C 0.41817(19) 0.0221(2) 0.4204(4)
H73 H 0.4372 -0.0064 0.4270
C66 C 0.4385(2) 0.0585(3) 0.3852(3)
H74 H 0.4717 0.0558 0.3673
C67 C 0.4106(2) 0.0996(2) 0.3758(3)
H75 H 0.4245 0.1254 0.3513
C68 C 0.36269(17) 0.10314(18) 0.4018(2)
H76 H 0.3435 0.1313 0.3942
B1 B 0.16416(19) 0.13714(16) 0.3473(2)
B2 B 0.19625(18) 0.24215(18) 0.5041(3)
B3 B 0.15889(17) 0.10677(17) 0.6031(2)
B4 B 0.28544(17) 0.07080(16) 0.4694(2)
C69 C 0.2848(4) -0.00640(16) 0.6405(2)
H77 H 0.2842 0.0014 0.5948
C70 C 0.2395(2) -0.01054(18) 0.6755(4)
H78 H 0.2080 -0.0055 0.6537
C71 C 0.2404(2) -0.0220(2) 0.7424(4)
H79 H 0.2095 -0.0248 0.7663
C72 C 0.2866(3) -0.0293(3) 0.7742(2)
H80 H 0.2872 -0.0371 0.8199
C73 C 0.33181(19) -0.0252(2) 0.7393(4)
H81 H 0.3633 -0.0302 0.7610
C74 C 0.3309(2) -0.01372(19) 0.6724(4)
H82 H 0.3618 -0.0109 0.6485
C75 C 0.0056(2) 0.0485(2) 0.4178(5)
H83 H 0.0093 0.0822 0.4185
C76 C 0.0028(2) 0.0243(3) 0.3597(4)
H84 H 0.0047 0.0411 0.3190
C77 C 0.0031(3) 0.0235(3) 0.4737(4)
H85 H 0.0059 0.0397 0.5148
C76A C -0.0028(2) -0.0243(3) 0.3597(4)
C75A C -0.0056(2) -0.0485(2) 0.4178(5)
H83A H -0.0093 -0.0822 0.4185
C77A C -0.0031(3) -0.0235(3) 0.4737(4)
H85A H -0.0059 -0.0397 0.5148
H84A H -0.0047 -0.0411 0.3190
C84 C 0.5364(8) 0.0663(11) 1.2127(11)
H92 H 0.5714 0.0590 1.2256
H93 H 0.5140 0.0401 1.2263
H94 H 0.5255 0.0958 1.2345
C85 C 0.5336(7) 0.0725(11) 1.1387(12)
H95 H 0.5534 0.1007 1.1248
H96 H 0.5474 0.0440 1.1161
C86 C 0.4800(7) 0.0788(9) 1.1223(11)
H97 H 0.4594 0.0533 1.1429
H98 H 0.4677 0.1100 1.1389
C87 C 0.4753(9) 0.0768(11) 1.0506(11)
H99 H 0.4815 0.0438 1.0351
H100 H 0.5011 0.0978 1.0300
C88 C 0.4225(8) 0.0926(7) 1.0301(10)
H101 H 0.4197 0.0916 0.9818
H102 H 0.4166 0.1253 1.0456
H103 H 0.3972 0.0713 1.0498
N9? N 0.3306(6) 0.1632(5) 0.7640(11)
C31? C 0.3396(7) 0.2133(6) 0.7697(17)
H37? H 0.3214 0.2260 0.8088
H38? H 0.3265 0.2298 0.7300
C32? C 0.3951(7) 0.2224(9) 0.7767(10)
H39? H 0.4163 0.1990 0.7526
H40? H 0.4049 0.2554 0.7645
O13? O 0.3943(5) 0.2149(6) 0.8441(8)
C33? C 0.3950(14) 0.1629(9) 0.854(2)
H41? H 0.4022 0.1531 0.9001
H42? H 0.4170 0.1456 0.8224
C34? C 0.3369(12) 0.1616(10) 0.8356(12)
H43? H 0.3213 0.1320 0.8532
H44? H 0.3193 0.1892 0.8559
C78? C 0.4846(9) 0.0740(8) 1.1549(8)
H86? H 0.4885 0.0693 1.2011
C79? C 0.4367(7) 0.0823(6) 1.1285(12)
H87? H 0.4078 0.0833 1.1566
C80? C 0.4310(4) 0.0892(8) 1.0608(13)
H88? H 0.3982 0.0949 1.0427
C81? C 0.4732(7) 0.0877(8) 1.0196(8)
H89? H 0.4693 0.0924 0.9733
C82? C 0.5212(5) 0.0794(6) 1.0460(9)
H90? H 0.5500 0.0784 1.0178
C83? C 0.5269(6) 0.0725(8) 1.1137(10)
H91? H 0.5596 0.0668 1.1317
loop_
_geom_bond_atom_site_label_1
_geom_bond_atom_site_label_2
_geom_bond_site_symmetry_1
_geom_bond_site_symmetry_2
O1 C1 1_555 1_555
O2 C2 1_555 1_555
O3 C8 1_555 1_555
O4 C11 1_555 1_555
O5 C12 1_555 1_555
O6 C18 1_555 1_555
O7 C21 1_555 1_555
O8 C22 1_555 1_555
O9 C35 1_555 1_555
O10 C36 1_555 1_555
O11 C42 1_555 1_555
N1 C1 1_555 1_555
N2 C6 1_555 1_555
N3 C11 1_555 1_555
N4 C16 1_555 1_555
N5 C21 1_555 1_555
N6 C35 1_555 1_555
N7 C40 1_555 1_555
C1 C2 1_555 1_555
C2 C3 1_555 1_555
C3 C4 1_555 1_555
C4 H1 1_555 1_555
C5 N1 1_555 1_555
H2 C5 1_555 1_555
C6 C3 1_555 1_555
H3 C6 1_555 1_555
H4 C6 1_555 1_555
C7 N2 1_555 1_555
H5 C7 1_555 1_555
H6 C7 1_555 1_555
C8 C7 1_555 1_555
H7 C8 1_555 1_555
H8 C8 1_555 1_555
C9 O3 1_555 1_555
H9 C9 1_555 1_555
H10 C9 1_555 1_555
C10 N2 1_555 1_555
H11 C10 1_555 1_555
H12 C10 1_555 1_555
C11 C12 1_555 1_555
C12 C13 1_555 1_555
C13 C14 1_555 1_555
C14 H13 1_555 1_555
C15 N3 1_555 1_555
H14 C15 1_555 1_555
C16 C13 1_555 1_555
H15 C16 1_555 1_555
H16 C16 1_555 1_555
C17 N4 1_555 1_555
H17 C17 1_555 1_555
H18 C17 1_555 1_555
C18 C17 1_555 1_555
H19 C18 1_555 1_555
H20 C18 1_555 1_555
C19 O6 1_555 1_555
H21 C19 1_555 1_555
H22 C19 1_555 1_555
C20 N4 1_555 1_555
H23 C20 1_555 1_555
H24 C20 1_555 1_555
C21 C22 1_555 1_555
C22 C23 1_555 1_555
C23 C24 1_555 1_555
C24 H25 1_555 1_555
C25 N5 1_555 1_555
H26 C25 1_555 1_555
C26 C23 1_555 1_555
H27 C26 1_555 1_555
H28 C26 1_555 1_555
N8 C26 1_555 1_555
C27 N8 1_555 1_555
H29 C27 1_555 1_555
H30 C27 1_555 1_555
C28 C27 1_555 1_555
H31 C28 1_555 1_555
H32 C28 1_555 1_555
O12 C28 1_555 1_555
C29 O12 1_555 1_555
H33 C29 1_555 1_555
H34 C29 1_555 1_555
C30 N8 1_555 1_555
H35 C30 1_555 1_555
H36 C30 1_555 1_555
C35 C36 1_555 1_555
C36 C37 1_555 1_555
C37 C38 1_555 1_555
C38 H45 1_555 1_555
C39 N6 1_555 1_555
H46 C39 1_555 1_555
C40 C37 1_555 1_555
H47 C40 1_555 1_555
H48 C40 1_555 1_555
C41 N7 1_555 1_555
H49 C41 1_555 1_555
H50 C41 1_555 1_555
C42 C41 1_555 1_555
H51 C42 1_555 1_555
H52 C42 1_555 1_555
C43 O11 1_555 1_555
H53 C43 1_555 1_555
H54 C43 1_555 1_555
C44 N7 1_555 1_555
H55 C44 1_555 1_555
H56 C44 1_555 1_555
C45 C46 1_555 1_555
C46 H57 1_555 1_555
C47 C46 1_555 1_555
H58 C47 1_555 1_555
C48 C47 1_555 1_555
H59 C48 1_555 1_555
C49 C48 1_555 1_555
H60 C49 1_555 1_555
C50 C45 1_555 1_555
H61 C50 1_555 1_555
C51 C52 1_555 1_555
C52 H62 1_555 1_555
C53 C52 1_555 1_555
H63 C53 1_555 1_555
C54 C53 1_555 1_555
H64 C54 1_555 1_555
C55 C54 1_555 1_555
H65 C55 1_555 1_555
C56 C51 1_555 1_555
H66 C56 1_555 1_555
C57 C58 1_555 1_555
C58 H67 1_555 1_555
C59 C58 1_555 1_555
H68 C59 1_555 1_555
C60 C59 1_555 1_555
H69 C60 1_555 1_555
C61 C60 1_555 1_555
H70 C61 1_555 1_555
C62 C57 1_555 1_555
H71 C62 1_555 1_555
C63 C64 1_555 1_555
C64 H72 1_555 1_555
C65 C64 1_555 1_555
H73 C65 1_555 1_555
C66 C65 1_555 1_555
H74 C66 1_555 1_555
C67 C66 1_555 1_555
H75 C67 1_555 1_555
C68 C63 1_555 1_555
H76 C68 1_555 1_555
B1 O1 1_555 1_555
B2 O4 1_555 1_555
B3 O7 1_555 1_555
B4 O9 1_555 1_555
C69 H77 1_555 1_555
C70 C69 1_555 1_555
H78 C70 1_555 1_555
C71 C70 1_555 1_555
H79 C71 1_555 1_555
C72 C71 1_555 1_555
H80 C72 1_555 1_555
C73 C72 1_555 1_555
H81 C73 1_555 1_555
C74 C69 1_555 1_555
H82 C74 1_555 1_555
C75 H83 1_555 1_555
C76 C75 1_555 1_555
H84 C76 1_555 1_555
C77 C75 1_555 1_555
H85 C77 1_555 1_555
C84 H92 1_555 1_555
H93 C84 1_555 1_555
H94 C84 1_555 1_555
C85 C84 1_555 1_555
H95 C85 1_555 1_555
H96 C85 1_555 1_555
C86 C85 1_555 1_555
H97 C86 1_555 1_555
H98 C86 1_555 1_555
C87 C86 1_555 1_555
H99 C87 1_555 1_555
H100 C87 1_555 1_555
C88 C87 1_555 1_555
H101 C88 1_555 1_555
H102 C88 1_555 1_555
H103 C88 1_555 1_555
C76A C76 1_555 1_555
C75A C76A 1_555 1_555
H83A C75A 1_555 1_555
C77A C77 1_555 1_555
H85A C77A 1_555 1_555
H84A C76A 1_555 1_555
O2 B1 1_555 1_555
O5 B2 1_555 1_555
O8 B3 1_555 1_555
O10 B4 1_555 1_555
N1 B2 1_555 1_555
N3 B3 1_555 1_555
N5 B4 1_555 1_555
N6 B1 1_555 1_555
C4 C5 1_555 1_555
C9 C10 1_555 1_555
C14 C15 1_555 1_555
C19 C20 1_555 1_555
C24 C25 1_555 1_555
C29 C30 1_555 1_555
C38 C39 1_555 1_555
C43 C44 1_555 1_555
C45 B1 1_555 1_555
C49 C50 1_555 1_555
C51 B2 1_555 1_555
C55 C56 1_555 1_555
C57 B3 1_555 1_555
C61 C62 1_555 1_555
C63 B4 1_555 1_555
C67 C68 1_555 1_555
C73 C74 1_555 1_555
C75A C77A 1_555 1_555

#END
