
#######################################################################
#
#                 Cambridge Crystallographic Data Centre
#                                CCDC 
#
#######################################################################
#
# If this CIF has been generated from an entry in the Cambridge 
# Structural Database, then it will include bibliographic, chemical, 
# crystal, experimental, refinement or atomic coordinate data resulting 
# from the CCDC's data processing and validation procedures.
#
#######################################################################

data_EZEFAS
_chemical_formula_moiety         'C21 H18 N2 O5,C2 H6 O1 S1'
_chemical_name_systematic        
'1-(4-(4-methoxybenzoyl)-2-methyl-5-(4-nitrophenyl)-1H-pyrrol-3-yl)ethanone dimethyl sulfoxide solvate'
_symmetry_cell_setting           triclinic
_symmetry_space_group_name_H-M   'P -1'
_symmetry_Int_Tables_number      2
_space_group_name_Hall           '-P 1'
loop_
_symmetry_equiv_pos_site_id
_symmetry_equiv_pos_as_xyz
1 x,y,z
2 -x,-y,-z
_cell_length_a                   8.5455(4)
_cell_length_b                   12.0470(6)
_cell_length_c                   12.1501(6)
_cell_angle_alpha                60.7330(10)
_cell_angle_beta                 81.883(2)
_cell_angle_gamma                87.112(2)
_cell_volume                     1079.97
_exptl_crystal_colour            yellow
_exptl_crystal_description       plate
_cell_formula_units_Z            2
loop_
_atom_site_label
_atom_site_type_symbol
_atom_site_fract_x
_atom_site_fract_y
_atom_site_fract_z
S1 S 0.65116(5) 0.40617(4) 0.88756(3)
O1 O 0.52602(15) 0.50458(11) 0.83177(11)
C1 C 0.7700(2) 0.46859(17) 0.95571(18)
H1 H 0.8242 0.5471 0.8881
H2 H 0.8484 0.4059 0.9996
H3 H 0.7024 0.4870 1.0167
C2 C 0.55319(19) 0.28165(15) 1.03249(15)
H4 H 0.4933 0.3182 1.0816
H5 H 0.6317 0.2234 1.0822
H6 H 0.4807 0.2349 1.0132
O2 O 0.98259(16) 0.19765(12) 0.54846(13)
O3 O 1.08370(18) 0.33123(14) 0.35633(14)
O4 O 0.52571(14) 0.79415(11) 0.17881(10)
O5 O 1.03981(13) 1.24085(11) -0.06907(11)
O6 O 0.36450(14) 1.02466(11) 0.22889(11)
N1 N 0.51347(15) 0.68289(13) 0.57691(12)
H7 H 0.5230 0.6197 0.6535
N2 N 0.99258(17) 0.30386(14) 0.45423(14)
C3 C 0.59199(18) 0.69239(14) 0.46481(14)
C4 C 0.54516(17) 0.80324(14) 0.36635(14)
C5 C 0.43615(18) 0.86346(14) 0.42089(14)
C6 C 0.42018(18) 0.78407(15) 0.55263(15)
C7 C 0.69670(18) 0.59271(14) 0.46422(14)
C8 C 0.68187(18) 0.46778(15) 0.56643(14)
H8 H 0.6042 0.4478 0.6379
C9 C 0.77926(18) 0.37326(15) 0.56421(15)
H9 H 0.7701 0.2891 0.6340
C10 C 0.89053(18) 0.40370(15) 0.45818(15)
C11 C 0.90895(19) 0.52615(15) 0.35536(15)
H10 H 0.9861 0.5449 0.2838
C12 C 0.81272(18) 0.62020(15) 0.35933(15)
H11 H 0.8251 0.7047 0.2902
C13 C 0.58548(18) 0.84741(14) 0.22677(14)
C14 C 0.70440(17) 0.95266(14) 0.15158(14)
C15 C 0.80493(18) 0.98628(14) 0.21180(14)
H12 H 0.7944 0.9437 0.3021
C16 C 0.92071(18) 1.08139(15) 0.14162(15)
H13 H 0.9898 1.1030 0.1834
C17 C 0.93363(18) 1.14427(14) 0.00939(15)
C18 C 0.83329(18) 1.11140(14) -0.05241(14)
H14 H 0.8427 1.1549 -0.1427
C19 C 0.72081(18) 1.01572(14) 0.01821(14)
H15 H 0.6540 0.9924 -0.0237
C20 C 1.1548(2) 1.26980(16) -0.01167(17)
H16 H 1.2283 1.3360 -0.0782
H17 H 1.2134 1.1930 0.0374
H18 H 1.1016 1.3003 0.0451
C21 C 0.35301(18) 0.97987(15) 0.34459(15)
C22 C 0.2544(2) 1.04545(17) 0.40851(17)
H19 H 0.2268 1.1302 0.3438
H20 H 0.3150 1.0535 0.4671
H21 H 0.1575 0.9951 0.4561
C23 C 0.3226(2) 0.79246(17) 0.66087(15)
H22 H 0.3296 0.7128 0.7402
H23 H 0.2121 0.8068 0.6451
H24 H 0.3623 0.8633 0.6681
loop_
_geom_bond_atom_site_label_1
_geom_bond_atom_site_label_2
_geom_bond_site_symmetry_1
_geom_bond_site_symmetry_2
S1 O1 1_555 1_555
C1 S1 1_555 1_555
H1 C1 1_555 1_555
H2 C1 1_555 1_555
H3 C1 1_555 1_555
C2 S1 1_555 1_555
H4 C2 1_555 1_555
H5 C2 1_555 1_555
H6 C2 1_555 1_555
O2 N2 1_555 1_555
O3 N2 1_555 1_555
O4 C13 1_555 1_555
O5 C17 1_555 1_555
O6 C21 1_555 1_555
N1 H7 1_555 1_555
N2 C10 1_555 1_555
C3 N1 1_555 1_555
C4 C3 1_555 1_555
C5 C4 1_555 1_555
C6 N1 1_555 1_555
C7 C3 1_555 1_555
C8 C7 1_555 1_555
H8 C8 1_555 1_555
C9 C8 1_555 1_555
H9 C9 1_555 1_555
C10 C9 1_555 1_555
C11 C10 1_555 1_555
H10 C11 1_555 1_555
C12 C7 1_555 1_555
H11 C12 1_555 1_555
C13 C4 1_555 1_555
C14 C13 1_555 1_555
C15 C14 1_555 1_555
H12 C15 1_555 1_555
C16 C15 1_555 1_555
H13 C16 1_555 1_555
C17 C16 1_555 1_555
C18 C17 1_555 1_555
H14 C18 1_555 1_555
C19 C14 1_555 1_555
H15 C19 1_555 1_555
C20 O5 1_555 1_555
H16 C20 1_555 1_555
H17 C20 1_555 1_555
H18 C20 1_555 1_555
C21 C5 1_555 1_555
C22 C21 1_555 1_555
H19 C22 1_555 1_555
H20 C22 1_555 1_555
H21 C22 1_555 1_555
C23 C6 1_555 1_555
H22 C23 1_555 1_555
H23 C23 1_555 1_555
H24 C23 1_555 1_555
C5 C6 1_555 1_555
C11 C12 1_555 1_555
C18 C19 1_555 1_555

#END
