
#######################################################################
#
#                 Cambridge Crystallographic Data Centre
#                                CCDC 
#
#######################################################################
#
# If this CIF has been generated from an entry in the Cambridge 
# Structural Database, then it will include bibliographic, chemical, 
# crystal, experimental, refinement or atomic coordinate data resulting 
# from the CCDC's data processing and validation procedures.
#
#######################################################################

data_EZESOT
_chemical_compound_source        'Parasenecio roborowskii'
_chemical_formula_moiety         'C16 H24 O5'
_chemical_name_systematic        
8\b,10\b-dihydroxy-6\b-methoxyl-eremophilenolid
_symmetry_cell_setting           orthorhombic
_symmetry_space_group_name_H-M   'P 21 21 21'
_symmetry_Int_Tables_number      19
_space_group_name_Hall           'P 2ac 2ab'
loop_
_symmetry_equiv_pos_site_id
_symmetry_equiv_pos_as_xyz
1 x,y,z
2 1/2-x,-y,1/2+z
3 1/2+x,1/2-y,-z
4 -x,1/2+y,1/2-z
_cell_length_a                   7.12437(18)
_cell_length_b                   21.9535(6)
_cell_length_c                   9.8431(3)
_cell_angle_alpha                90
_cell_angle_beta                 90
_cell_angle_gamma                90
_cell_volume                     1539.51
_exptl_crystal_colour            colorless
_exptl_crystal_description       block
_cell_formula_units_Z            4
loop_
_atom_site_label
_atom_site_type_symbol
_atom_site_fract_x
_atom_site_fract_y
_atom_site_fract_z
O1 O 0.8456(3) 0.00678(8) 0.0850(2)
O2 O 0.9505(3) 0.08097(9) -0.0634(2)
O3 O 0.4404(3) 0.03027(9) 0.1556(2)
C1 C 0.6371(3) 0.08675(10) 0.0021(2)
C2 C 0.8857(3) 0.10548(12) 0.1731(3)
H1 H 0.9179 0.1462 0.1428
H2 H 0.9971 0.0876 0.2134
C3 C 0.4810(3) 0.08928(11) 0.1030(3)
H3 H 0.3684 0.1059 0.0594
O4 O 0.7155(4) 0.05105(9) 0.3450(2)
H4 H 0.6632 0.0276 0.2923
C4 C 0.7323(4) 0.11011(11) 0.2825(3)
O5 O 0.9153(4) 0.11731(10) -0.2742(2)
C5 C 0.5578(4) 0.19811(12) 0.1737(3)
H5 H 0.6529 0.1981 0.1018
C6 C 0.5387(4) 0.13113(12) 0.2243(2)
C7 C 0.6466(4) 0.10425(11) -0.1267(3)
C8 C 0.8119(5) 0.21842(13) 0.3505(3)
H6 H 0.8410 0.2438 0.4284
H7 H 0.9130 0.2229 0.2852
C9 C 0.8288(3) 0.06790(11) 0.0515(3)
C10 C 0.8005(5) 0.15215(13) 0.3957(3)
H8 H 0.7155 0.1491 0.4724
H9 H 0.9236 0.1389 0.4256
C11 C 0.8455(5) 0.10196(12) -0.1688(3)
C12 C 0.6301(4) 0.24022(13) 0.2867(3)
H10 H 0.6494 0.2806 0.2495
H11 H 0.5350 0.2433 0.3569
C13 C 0.3855(5) 0.12613(18) 0.3331(4)
H12 H 0.2667 0.1374 0.2945
H13 H 0.4146 0.1529 0.4072
H14 H 0.3793 0.0850 0.3656
C14 C 0.3587(4) -0.00939(13) 0.0566(4)
H15 H 0.4463 -0.0158 -0.0161
H16 H 0.2463 0.0088 0.0212
H17 H 0.3287 -0.0477 0.0982
C15 C 0.3795(5) 0.22542(16) 0.1127(4)
H18 H 0.3325 0.1989 0.0430
H19 H 0.4075 0.2646 0.0743
H20 H 0.2864 0.2299 0.1825
C16 C 0.4993(6) 0.12522(16) -0.2231(3)
H21 H 0.4922 0.0975 -0.2984
H22 H 0.5302 0.1652 -0.2556
H23 H 0.3802 0.1265 -0.1775
H24 H 0.820(5) -0.0129(17) 0.018(4)
loop_
_geom_bond_atom_site_label_1
_geom_bond_atom_site_label_2
_geom_bond_site_symmetry_1
_geom_bond_site_symmetry_2
O1 C9 1_555 1_555
O2 C9 1_555 1_555
O3 C3 1_555 1_555
C1 C3 1_555 1_555
C2 H1 1_555 1_555
H2 C2 1_555 1_555
C3 H3 1_555 1_555
O4 H4 1_555 1_555
C4 C2 1_555 1_555
O5 C11 1_555 1_555
C5 H5 1_555 1_555
C6 C3 1_555 1_555
C7 C1 1_555 1_555
C8 H6 1_555 1_555
H7 C8 1_555 1_555
C9 C1 1_555 1_555
C10 C4 1_555 1_555
H8 C10 1_555 1_555
H9 C10 1_555 1_555
C11 O2 1_555 1_555
C12 C5 1_555 1_555
H10 C12 1_555 1_555
H11 C12 1_555 1_555
C13 C6 1_555 1_555
H12 C13 1_555 1_555
H13 C13 1_555 1_555
H14 C13 1_555 1_555
C14 O3 1_555 1_555
H15 C14 1_555 1_555
H16 C14 1_555 1_555
H17 C14 1_555 1_555
C15 C5 1_555 1_555
H18 C15 1_555 1_555
H19 C15 1_555 1_555
H20 C15 1_555 1_555
C16 C7 1_555 1_555
H21 C16 1_555 1_555
H22 C16 1_555 1_555
H23 C16 1_555 1_555
H24 O1 1_555 1_555
C2 C9 1_555 1_555
O4 C4 1_555 1_555
C4 C6 1_555 1_555
C5 C6 1_555 1_555
C7 C11 1_555 1_555
C8 C10 1_555 1_555
C8 C12 1_555 1_555

#END
