
#######################################################################
#
#                 Cambridge Crystallographic Data Centre
#                                CCDC 
#
#######################################################################
#
# If this CIF has been generated from an entry in the Cambridge 
# Structural Database, then it will include bibliographic, chemical, 
# crystal, experimental, refinement or atomic coordinate data resulting 
# from the CCDC's data processing and validation procedures.
#
#######################################################################

data_EZIGOL
_chemical_formula_moiety         'C19 H19 N3 O5'
_chemical_name_systematic        
'4-azido-2-(2-naphthylmethoxy)-6,8-dioxabicyclo[3.2.1]octan-3-yl acetate'
_symmetry_cell_setting           orthorhombic
_symmetry_space_group_name_H-M   'P 21 21 21'
_symmetry_Int_Tables_number      19
_space_group_name_Hall           'P 2ac 2ab'
loop_
_symmetry_equiv_pos_site_id
_symmetry_equiv_pos_as_xyz
1 x,y,z
2 1/2-x,-y,1/2+z
3 -x,1/2+y,1/2-z
4 1/2+x,1/2-y,-z
_cell_length_a                   6.8459(3)
_cell_length_b                   8.6718(3)
_cell_length_c                   29.3079(11)
_cell_angle_alpha                90
_cell_angle_beta                 90
_cell_angle_gamma                90
_cell_volume                     1739.9
_exptl_crystal_colour            colorless
_exptl_crystal_description       prism
_cell_formula_units_Z            4
loop_
_atom_site_label
_atom_site_type_symbol
_atom_site_fract_x
_atom_site_fract_y
_atom_site_fract_z
O1 O 0.82392(15) 0.52232(13) 0.90009(4)
O2 O 0.70149(15) 0.93745(13) 0.92963(4)
O3 O 0.54355(13) 0.68264(13) 0.84308(3)
O4 O 0.98237(14) 0.68048(14) 0.94885(4)
O5 O 0.41519(17) 1.03042(15) 0.95511(4)
N1 N 0.45879(19) 0.57132(19) 0.95394(5)
N2 N 0.43758(19) 0.47364(19) 0.92362(5)
N3 N 0.3952(2) 0.3767(2) 0.89952(6)
C1 C 0.8177(2) 0.5834(2) 0.94474(6)
H1 H 0.8246 0.4982 0.9677
C2 C 0.6293(2) 0.6753(2) 0.95102(6)
H2 H 0.6395 0.7302 0.9809
C3 C 0.60515(19) 0.79936(19) 0.91380(5)
H3 H 0.4630 0.8213 0.9094
C4 C 0.69597(19) 0.75790(19) 0.86782(5)
H4 H 0.7340 0.8546 0.8515
C5 C 0.87555(19) 0.6560(2) 0.87369(6)
H5 H 0.9304 0.6254 0.8434
C6 C 1.0324(2) 0.7297(2) 0.90359(5)
H6 H 1.1642 0.6929 0.8949
H7 H 1.0289 0.8436 0.9011
C7 C 0.5893(2) 1.0422(2) 0.95153(6)
C8 C 0.7112(3) 1.1695(2) 0.96972(7)
H8 H 0.8256 1.1265 0.9853
H9 H 0.6344 1.2307 0.9914
H10 H 0.7543 1.2355 0.9445
C9 C 0.5960(2) 0.6408(2) 0.79753(5)
H11 H 0.6825 0.5493 0.7980
H12 H 0.6671 0.7267 0.7827
C10 C 0.4126(2) 0.6051(2) 0.77130(5)
C11 C 0.3797(2) 0.6665(2) 0.72934(5)
H13 H 0.4747 0.7335 0.7165
C12 C 0.1668(2) 0.7017(2) 0.66165(5)
H14 H 0.2611 0.7673 0.6479
C13 C -0.0069(2) 0.6746(2) 0.64003(6)
H15 H -0.0339 0.7238 0.6118
C14 C -0.1457(2) 0.5745(2) 0.65933(6)
H16 H -0.2653 0.5560 0.6438
C15 C -0.1107(2) 0.5041(2) 0.69985(6)
H17 H -0.2049 0.4353 0.7122
C16 C 0.1060(2) 0.4674(2) 0.76711(5)
H18 H 0.0149 0.3975 0.7802
C17 C 0.2727(2) 0.5030(2) 0.79030(6)
H19 H 0.2954 0.4589 0.8195
C18 C 0.2068(2) 0.63324(18) 0.70413(5)
C19 C 0.0666(2) 0.5326(2) 0.72399(5)
loop_
_geom_bond_atom_site_label_1
_geom_bond_atom_site_label_2
_geom_bond_site_symmetry_1
_geom_bond_site_symmetry_2
O1 C1 1_555 1_555
O2 C3 1_555 1_555
O3 C4 1_555 1_555
O4 C1 1_555 1_555
O5 C7 1_555 1_555
N1 N2 1_555 1_555
N2 N3 1_555 1_555
C1 H1 1_555 1_555
C2 N1 1_555 1_555
H2 C2 1_555 1_555
C3 C2 1_555 1_555
H3 C3 1_555 1_555
C4 C3 1_555 1_555
H4 C4 1_555 1_555
C5 O1 1_555 1_555
H5 C5 1_555 1_555
C6 O4 1_555 1_555
H6 C6 1_555 1_555
H7 C6 1_555 1_555
C7 O2 1_555 1_555
C8 C7 1_555 1_555
H8 C8 1_555 1_555
H9 C8 1_555 1_555
H10 C8 1_555 1_555
C9 O3 1_555 1_555
H11 C9 1_555 1_555
H12 C9 1_555 1_555
C10 C9 1_555 1_555
C11 C10 1_555 1_555
H13 C11 1_555 1_555
C12 H14 1_555 1_555
C13 C12 1_555 1_555
H15 C13 1_555 1_555
C14 C13 1_555 1_555
H16 C14 1_555 1_555
C15 C14 1_555 1_555
H17 C15 1_555 1_555
C16 H18 1_555 1_555
C17 C10 1_555 1_555
H19 C17 1_555 1_555
C18 C11 1_555 1_555
C19 C15 1_555 1_555
C1 C2 1_555 1_555
C4 C5 1_555 1_555
C5 C6 1_555 1_555
C12 C18 1_555 1_555
C16 C17 1_555 1_555
C16 C19 1_555 1_555
C18 C19 1_555 1_555

#END
