
#######################################################################
#
#                 Cambridge Crystallographic Data Centre
#                                CCDC 
#
#######################################################################
#
# If this CIF has been generated from an entry in the Cambridge 
# Structural Database, then it will include bibliographic, chemical, 
# crystal, experimental, refinement or atomic coordinate data resulting 
# from the CCDC's data processing and validation procedures.
#
#######################################################################

data_EZOJUZ
_chemical_compound_source        
'stem bark of Kandelia candel (L) Druce, Rhizophoraceae'
_chemical_name_common            7-Epiaustdiol
_chemical_formula_moiety         'C12 H12 O5'
_chemical_name_systematic        
7,8-Dihydroxy-3,7-dimethyl-6-oxo-7,8-dihydro-6H-isochromene-5-carbaldehyde
_chemical_properties_biological  
'tested for antimicrobial and in vitro cytotoxic activity'
_symmetry_cell_setting           orthorhombic
_symmetry_space_group_name_H-M   'P 21 21 21'
_symmetry_Int_Tables_number      19
_space_group_name_Hall           'P 2ac 2ab'
loop_
_symmetry_equiv_pos_site_id
_symmetry_equiv_pos_as_xyz
1 x,y,z
2 1/2-x,-y,1/2+z
3 -x,1/2+y,1/2-z
4 1/2+x,1/2-y,-z
_cell_length_a                   6.96760(10)
_cell_length_b                   8.5409(2)
_cell_length_c                   17.1140(3)
_cell_angle_alpha                90
_cell_angle_beta                 90
_cell_angle_gamma                90
_cell_volume                     1018.45
_exptl_crystal_colour            'pale yellow'
_exptl_crystal_description       block
_cell_formula_units_Z            4
loop_
_atom_site_label
_atom_site_type_symbol
_atom_site_fract_x
_atom_site_fract_y
_atom_site_fract_z
C1 C 0.1276(2) 0.76247(17) 0.29397(8)
H1 H 0.1486 0.8377 0.2500
C2 C 0.2538(2) 0.61751(18) 0.28269(8)
C3 C 0.2299(2) 0.50878(19) 0.35412(8)
C4 C 0.2187(2) 0.58005(17) 0.43112(9)
C5 C 0.2077(2) 0.74395(18) 0.43861(8)
C6 C 0.1758(2) 0.84016(17) 0.37101(8)
C7 C 0.1750(2) 0.99669(19) 0.37828(9)
H2 H 0.1549 1.0582 0.3328
C8 C 0.2268(2) 0.98381(19) 0.51270(9)
C9 C 0.2291(2) 0.82605(18) 0.51079(9)
H3 H 0.2451 0.7689 0.5580
C10 C 0.4654(2) 0.6633(2) 0.27516(10)
H4 H 0.5437 0.5686 0.2697
H5 H 0.5055 0.7207 0.3220
H6 H 0.4826 0.7298 0.2290
C11 C 0.2189(3) 0.47390(19) 0.49663(9)
H7 H 0.2425 0.3668 0.4851
C12 C 0.2507(3) 1.08295(19) 0.58342(9)
H8 H 0.2800 1.0163 0.6285
H9 H 0.1318 1.1409 0.5933
H10 H 0.3562 1.1570 0.5751
O1 O -0.06734(16) 0.71212(13) 0.29476(6)
H11 H -0.1316 0.7829 0.2757
O2 O 0.19199(17) 0.53151(13) 0.21690(6)
H12 H 0.2551 0.5601 0.1791
O3 O 0.22903(19) 0.36642(13) 0.34366(7)
O4 O 0.1923(2) 0.50632(14) 0.56535(7)
O5 O 0.20126(18) 1.07107(12) 0.44717(6)
loop_
_geom_bond_atom_site_label_1
_geom_bond_atom_site_label_2
_geom_bond_site_symmetry_1
_geom_bond_site_symmetry_2
C1 H1 1_555 1_555
C2 C1 1_555 1_555
C3 C2 1_555 1_555
C4 C3 1_555 1_555
C5 C4 1_555 1_555
C6 C1 1_555 1_555
C7 C6 1_555 1_555
H2 C7 1_555 1_555
C8 C9 1_555 1_555
C9 C5 1_555 1_555
H3 C9 1_555 1_555
C10 C2 1_555 1_555
H4 C10 1_555 1_555
H5 C10 1_555 1_555
H6 C10 1_555 1_555
C11 C4 1_555 1_555
H7 C11 1_555 1_555
C12 C8 1_555 1_555
H8 C12 1_555 1_555
H9 C12 1_555 1_555
H10 C12 1_555 1_555
O1 C1 1_555 1_555
H11 O1 1_555 1_555
O2 C2 1_555 1_555
H12 O2 1_555 1_555
O3 C3 1_555 1_555
O4 C11 1_555 1_555
O5 C7 1_555 1_555
C5 C6 1_555 1_555
C8 O5 1_555 1_555

#END
