
#######################################################################
#
#                 Cambridge Crystallographic Data Centre
#                                CCDC 
#
#######################################################################
#
# If this CIF has been generated from an entry in the Cambridge 
# Structural Database, then it will include bibliographic, chemical, 
# crystal, experimental, refinement or atomic coordinate data resulting 
# from the CCDC's data processing and validation procedures.
#
#######################################################################

data_EZUFOU
_chemical_formula_moiety         'C16 H24 N2 O4'
_chemical_name_systematic        
'Ethyl 4-isopropyl-6-oxo-7-(p-tolyl)-2,7-diaza-3-oxaheptanoate'
_symmetry_cell_setting           orthorhombic
_symmetry_space_group_name_H-M   'P 21 21 21'
_symmetry_Int_Tables_number      19
_space_group_name_Hall           'P 2ac 2ab'
loop_
_symmetry_equiv_pos_site_id
_symmetry_equiv_pos_as_xyz
1 x,y,z
2 1/2-x,-y,1/2+z
3 1/2+x,1/2-y,-z
4 -x,1/2+y,1/2-z
_cell_length_a                   5.6200(10)
_cell_length_b                   13.030(2)
_cell_length_c                   23.463(3)
_cell_angle_alpha                90
_cell_angle_beta                 90
_cell_angle_gamma                90
_cell_volume                     1718.16
_exptl_crystal_colour            colorless
_exptl_crystal_description       prism
_chemical_melting_point          96-98deg.C
_cell_formula_units_Z            4
loop_
_atom_site_label
_atom_site_type_symbol
_atom_site_fract_x
_atom_site_fract_y
_atom_site_fract_z
C1 C 0.4977(3) 0.57548(10) 0.25913(5)
H1 H 0.3838 0.5957 0.2887
C2 C 0.4189(3) 0.47269(11) 0.23391(6)
H2 H 0.3862 0.4252 0.2648
H3 H 0.2722 0.4827 0.2129
C3 C 0.6010(3) 0.42602(10) 0.19502(6)
C4 C 0.7641(3) 0.44069(9) 0.09705(5)
C5 C 0.7024(3) 0.47427(12) 0.04363(6)
H4 H 0.5656 0.5135 0.0387
C6 C 0.8412(3) 0.45034(14) -0.00237(6)
H5 H 0.7954 0.4733 -0.0383
C7 C 1.0464(3) 0.39343(12) 0.00263(6)
C8 C 1.1068(3) 0.36200(11) 0.05666(6)
H6 H 1.2452 0.3240 0.0616
C9 C 0.9700(3) 0.38471(10) 0.10372(6)
H7 H 1.0164 0.3624 0.1397
C10 C 1.1960(4) 0.36606(15) -0.04830(7)
H8 H 1.3287 0.3250 -0.0363
H9 H 1.2531 0.4277 -0.0661
H10 H 1.1015 0.3280 -0.0751
C11 C 0.7459(3) 0.57748(11) 0.28430(6)
H11 H 0.8596 0.5647 0.2534
C12 C 0.7806(5) 0.49547(14) 0.32901(7)
H12 H 0.7484 0.4294 0.3127
H13 H 0.6739 0.5075 0.3602
H14 H 0.9418 0.4974 0.3425
C13 C 0.8016(4) 0.68211(13) 0.30992(8)
H15 H 0.7822 0.7342 0.2813
H16 H 0.9627 0.6828 0.3235
H17 H 0.6952 0.6954 0.3411
C14 C 0.1930(3) 0.68439(11) 0.15224(6)
C15 C -0.1194(5) 0.74124(18) 0.09228(10)
H18 H -0.0078 0.7392 0.0608
H19 H -0.2110 0.6781 0.0917
C16 C -0.2732(9) 0.8250(4) 0.0853(2)
H20 H -0.3556 0.8188 0.0496
H21 H -0.1828 0.8875 0.0856
H22 H -0.3866 0.8261 0.1159
N1 N 0.6133(2) 0.46754(8) 0.14281(5)
H23 H 0.5162 0.5172 0.1363
N2 N 0.2708(3) 0.69179(10) 0.20643(5)
H24 H 0.1864 0.7180 0.2333
O1 O 0.2721(2) 0.62836(9) 0.11666(5)
O2 O 0.0095(2) 0.74789(9) 0.14495(5)
O3 O 0.49977(19) 0.65332(7) 0.21535(4)
O4 O 0.7274(2) 0.35451(8) 0.21049(4)
C17? C -0.080(2) 0.8241(5) 0.0568(3)
loop_
_geom_bond_atom_site_label_1
_geom_bond_atom_site_label_2
_geom_bond_site_symmetry_1
_geom_bond_site_symmetry_2
C1 H1 1_555 1_555
C2 C1 1_555 1_555
H2 C2 1_555 1_555
H3 C2 1_555 1_555
C3 C2 1_555 1_555
C4 C5 1_555 1_555
C5 H4 1_555 1_555
C6 C5 1_555 1_555
H5 C6 1_555 1_555
C7 C6 1_555 1_555
C8 C7 1_555 1_555
H6 C8 1_555 1_555
C9 C4 1_555 1_555
H7 C9 1_555 1_555
C10 C7 1_555 1_555
H8 C10 1_555 1_555
H9 C10 1_555 1_555
H10 C10 1_555 1_555
C11 C1 1_555 1_555
H11 C11 1_555 1_555
C12 C11 1_555 1_555
H12 C12 1_555 1_555
H13 C12 1_555 1_555
H14 C12 1_555 1_555
C13 C11 1_555 1_555
H15 C13 1_555 1_555
H16 C13 1_555 1_555
H17 C13 1_555 1_555
C14 N2 1_555 1_555
C15 H18 1_555 1_555
H19 C15 1_555 1_555
C16 C15 1_555 1_555
H20 C16 1_555 1_555
H21 C16 1_555 1_555
H22 C16 1_555 1_555
N1 C3 1_555 1_555
H23 N1 1_555 1_555
N2 H24 1_555 1_555
O1 C14 1_555 1_555
O2 C14 1_555 1_555
O3 C1 1_555 1_555
O4 C3 1_555 1_555
C4 N1 1_555 1_555
C8 C9 1_555 1_555
C15 O2 1_555 1_555
N2 O3 1_555 1_555

#END
