
#######################################################################
#
#                 Cambridge Crystallographic Data Centre
#                                CCDC 
#
#######################################################################
#
# If this CIF has been generated from an entry in the Cambridge 
# Structural Database, then it will include bibliographic, chemical, 
# crystal, experimental, refinement or atomic coordinate data resulting 
# from the CCDC's data processing and validation procedures.
#
#######################################################################

data_EZUHAK
_chemical_compound_source        
'halophilic strain Nocardiopsis chromatogenes YIM 90109'
_chemical_formula_moiety         'C12 H22 O3'
_chemical_name_systematic        
(1\b,4\b,4a\b,7\a,8a\a)-4,8a-dimethyloctahydronaphthalene-1,4a,7(2H)-triol
_chemical_properties_biological  'no observed antimicrobial activity'
_symmetry_cell_setting           monoclinic
_symmetry_space_group_name_H-M   'P 21'
_symmetry_Int_Tables_number      4
_space_group_name_Hall           'P 2yb'
loop_
_symmetry_equiv_pos_site_id
_symmetry_equiv_pos_as_xyz
1 x,y,z
2 -x,1/2+y,-z
_cell_length_a                   6.6313(8)
_cell_length_b                   11.9056(10)
_cell_length_c                   7.4582(8)
_cell_angle_alpha                90
_cell_angle_beta                 95.212(2)
_cell_angle_gamma                90
_cell_volume                     586.387
_cell_formula_units_Z            2
loop_
_atom_site_label
_atom_site_type_symbol
_atom_site_fract_x
_atom_site_fract_y
_atom_site_fract_z
O1 O 0.4088(4) 0.5161(2) 0.1325(3)
H1 H 0.4494 0.4887 0.2301
O2 O 0.4907(4) 0.5042(2) 0.4876(4)
H2 H 0.4951 0.4644 0.5776
O3 O 0.5129(4) 0.8951(2) 0.1787(3)
H3 H 0.5581 0.9374 0.1055
C1 C 0.2732(5) 0.6089(3) 0.1603(5)
C2 C 0.0571(5) 0.5606(3) 0.1685(5)
H4 H -0.0332 0.6242 0.1856
C3 C 0.0504(6) 0.4835(4) 0.3320(6)
H5 H -0.0886 0.4604 0.3409
H6 H 0.1288 0.4165 0.3128
C4 C 0.1317(6) 0.5374(4) 0.5101(5)
H7 H 0.1405 0.4808 0.6039
H8 H 0.0376 0.5947 0.5426
C5 C 0.3404(6) 0.5905(3) 0.4999(5)
H9 H 0.3748 0.6331 0.6109
C6 C 0.3462(5) 0.6718(3) 0.3384(4)
C7 C 0.5632(5) 0.7149(3) 0.3275(5)
H10 H 0.6009 0.7601 0.4334
H11 H 0.6537 0.6508 0.3313
C8 C 0.5968(5) 0.7845(3) 0.1609(5)
H12 H 0.7430 0.7923 0.1542
C9 C 0.5070(6) 0.7278(3) -0.0117(5)
H13 H 0.5918 0.6646 -0.0380
H14 H 0.5082 0.7806 -0.1106
C10 C 0.2897(5) 0.6860(3) -0.0003(4)
H15 H 0.2009 0.7501 0.0093
H16 H 0.2449 0.6460 -0.1100
C11 C -0.0256(6) 0.5000(4) -0.0027(6)
H17 H 0.0643 0.4400 -0.0278
H18 H -0.0360 0.5520 -0.1016
H19 H -0.1571 0.4700 0.0133
C12 C 0.2073(5) 0.7716(3) 0.3760(5)
H20 H 0.2543 0.8058 0.4887
H21 H 0.0712 0.7452 0.3815
H22 H 0.2100 0.8259 0.2811
loop_
_geom_bond_atom_site_label_1
_geom_bond_atom_site_label_2
_geom_bond_site_symmetry_1
_geom_bond_site_symmetry_2
O1 H1 1_555 1_555
O2 H2 1_555 1_555
O3 H3 1_555 1_555
C1 O1 1_555 1_555
C2 C1 1_555 1_555
H4 C2 1_555 1_555
C3 C2 1_555 1_555
H5 C3 1_555 1_555
H6 C3 1_555 1_555
C4 C3 1_555 1_555
H7 C4 1_555 1_555
H8 C4 1_555 1_555
C5 O2 1_555 1_555
H9 C5 1_555 1_555
C6 C1 1_555 1_555
C7 C6 1_555 1_555
H10 C7 1_555 1_555
H11 C7 1_555 1_555
C8 O3 1_555 1_555
H12 C8 1_555 1_555
C9 C8 1_555 1_555
H13 C9 1_555 1_555
H14 C9 1_555 1_555
C10 C1 1_555 1_555
H15 C10 1_555 1_555
H16 C10 1_555 1_555
C11 C2 1_555 1_555
H17 C11 1_555 1_555
H18 C11 1_555 1_555
H19 C11 1_555 1_555
C12 C6 1_555 1_555
H20 C12 1_555 1_555
H21 C12 1_555 1_555
H22 C12 1_555 1_555
C4 C5 1_555 1_555
C5 C6 1_555 1_555
C7 C8 1_555 1_555
C9 C10 1_555 1_555

#END
