
#######################################################################
#
#                 Cambridge Crystallographic Data Centre
#                                CCDC 
#
#######################################################################
#
# If this CIF has been generated from an entry in the Cambridge 
# Structural Database, then it will include bibliographic, chemical, 
# crystal, experimental, refinement or atomic coordinate data resulting 
# from the CCDC's data processing and validation procedures.
#
#######################################################################

data_EZUKER
_chemical_formula_moiety         'C29 H21 N1 O3 S2'
_chemical_name_systematic        
'3-(1,3-dioxo-1,3-dihydro-2H-isoindol-2-yl)-3-phenyl-2,2-bis(phenylsulfanyl)propanal unknown solvate'
_symmetry_cell_setting           triclinic
_symmetry_space_group_name_H-M   'P -1'
_symmetry_Int_Tables_number      2
_space_group_name_Hall           '-P 1'
loop_
_symmetry_equiv_pos_site_id
_symmetry_equiv_pos_as_xyz
1 x,y,z
2 -x,-y,-z
_cell_length_a                   9.995(3)
_cell_length_b                   15.594(5)
_cell_length_c                   17.952(6)
_cell_angle_alpha                76.027(7)
_cell_angle_beta                 81.673(6)
_cell_angle_gamma                77.580(6)
_cell_volume                     2638.93
_exptl_crystal_colour            yellow
_exptl_crystal_description       block
_cell_formula_units_Z            4
loop_
_atom_site_label
_atom_site_type_symbol
_atom_site_fract_x
_atom_site_fract_y
_atom_site_fract_z
S1 S 0.64298(11) 0.80405(8) 0.40431(6)
S2 S 0.42987(11) 0.92786(8) 0.29419(6)
N1 N 0.6778(3) 1.0217(2) 0.23125(18)
O1 O 0.8109(3) 0.9586(2) 0.13464(16)
O2 O 0.4058(3) 0.9882(2) 0.43129(16)
O3 O 0.5452(3) 1.1246(2) 0.29832(18)
C1 C 0.7094(4) 0.9404(3) 0.2931(2)
H1 H 0.7408 0.8905 0.2667
C2 C 0.5763(4) 0.9187(3) 0.3460(2)
C3 C 0.6080(5) 1.1058(3) 0.2398(3)
C4 C 0.8308(4) 0.9438(3) 0.3335(2)
C5 C 0.7410(4) 1.0227(3) 0.1564(2)
C6 C 0.4967(4) 0.8758(3) 0.2151(3)
C7 C 0.4963(4) 0.7756(3) 0.4662(2)
C8 C 0.5254(4) 0.9697(3) 0.4087(2)
H2 H 0.5897 0.9879 0.4312
C9 C 0.6263(5) 1.1674(3) 0.1630(3)
C10 C 0.7091(5) 1.1168(3) 0.1134(3)
C11 C 0.3978(4) 0.7422(3) 0.4398(3)
H3 H 0.4054 0.7374 0.3886
C12 C 0.2750(5) 0.7245(3) 0.5652(3)
H4 H 0.2001 0.7076 0.5984
C13 C 0.9453(4) 0.8758(3) 0.3333(2)
H5 H 0.9442 0.8271 0.3121
C14 C 0.5599(5) 0.7893(4) 0.2209(3)
H6 H 0.5829 0.7549 0.2689
C15 C 0.8357(4) 1.0161(3) 0.3648(2)
H7 H 0.7601 1.0629 0.3643
C16 C 0.9524(5) 1.0191(4) 0.3967(3)
H8 H 0.9544 1.0675 0.4181
C17 C 0.5918(5) 0.7500(4) 0.1578(4)
H9 H 0.6397 0.6910 0.1630
C18 C 0.2895(5) 0.7164(3) 0.4901(3)
H10 H 0.2246 0.6930 0.4729
C19 C 0.3713(5) 0.7575(3) 0.5911(3)
H11 H 0.3610 0.7636 0.6420
C20 C 0.7108(6) 1.2499(4) 0.0172(3)
H12 H 0.7402 1.2791 -0.0321
C21 C 0.4612(5) 0.9257(4) 0.1429(3)
H13 H 0.4189 0.9859 0.1367
C22 C 0.4843(5) 0.7820(3) 0.5424(3)
H14 H 0.5511 0.8026 0.5609
C23 C 0.7525(5) 1.1560(4) 0.0393(3)
H15 H 0.8064 1.1224 0.0057
C24 C 1.0616(5) 0.8802(4) 0.3646(3)
H16 H 1.1388 0.8348 0.3638
C25 C 0.5849(5) 1.2599(3) 0.1397(3)
H17 H 0.5299 1.2934 0.1731
C26 C 1.0638(5) 0.9515(4) 0.3969(3)
H18 H 1.1417 0.9534 0.4188
C27 C 0.5524(6) 0.7981(5) 0.0881(4)
H19 H 0.5691 0.7710 0.0460
C28 C 0.6280(7) 1.3004(4) 0.0658(4)
H20 H 0.6012 1.3622 0.0484
C29 C 0.4894(6) 0.8848(5) 0.0796(3)
H21 H 0.4645 0.9177 0.0315
S3 S 0.18843(11) 0.41940(8) 0.21706(7)
S4 S -0.07495(11) 0.55748(8) 0.25320(7)
O4 O -0.1169(3) 0.23332(19) 0.27121(17)
O5 O 0.1488(3) 0.5604(2) 0.08822(17)
N2 N -0.0300(3) 0.3340(2) 0.16877(18)
O6 O 0.0695(3) 0.3957(2) 0.04905(16)
C30 C 0.0171(4) 0.1859(3) 0.1590(2)
C31 C -0.0866(4) 0.4125(3) 0.2013(2)
H22 H -0.1026 0.3891 0.2570
C32 C 0.0160(4) 0.4778(3) 0.1919(2)
C33 C 0.0684(4) 0.2361(3) 0.0907(2)
C34 C -0.2298(4) 0.4570(3) 0.1745(2)
C35 C -0.0508(4) 0.2478(3) 0.2099(2)
C36 C 0.0410(4) 0.3310(3) 0.0963(2)
C37 C 0.0405(5) 0.5390(3) 0.1142(2)
H23 H -0.0334 0.5616 0.0845
C38 C 0.0346(4) 0.6376(3) 0.2361(3)
C39 C -0.2560(4) 0.4907(3) 0.0979(3)
H24 H -0.1827 0.4891 0.0596
C40 C -0.3429(4) 0.4607(3) 0.2295(3)
H25 H -0.3294 0.4387 0.2814
C41 C 0.1596(4) 0.3351(3) 0.2998(3)
C42 C 0.0348(4) 0.0938(3) 0.1713(3)
H26 H 0.0026 0.0598 0.2179
C43 C 0.1009(5) 0.3531(4) 0.3703(3)
H27 H 0.0678 0.4122 0.3751
C44 C 0.2132(5) 0.2457(3) 0.2954(3)
H28 H 0.2546 0.2326 0.2486
C45 C -0.0063(5) 0.7200(3) 0.1843(3)
H29 H -0.0875 0.7317 0.1610
C46 C 0.2056(6) 0.1772(4) 0.3592(5)
H30 H 0.2406 0.1179 0.3554
C47 C -0.3848(5) 0.5257(3) 0.0776(3)
H31 H -0.4003 0.5475 0.0260
C48 C 0.1463(6) 0.1961(5) 0.4285(4)
H32 H 0.1433 0.1499 0.4721
C49 C 0.1488(5) 0.1037(4) 0.0442(3)
H33 H 0.1923 0.0749 0.0050
C50 C -0.4924(5) 0.5284(4) 0.1345(4)
H34 H -0.5811 0.5534 0.1209
C51 C 0.1970(6) 0.7644(5) 0.2059(4)
H35 H 0.2535 0.8070 0.1954
C52 C 0.1336(5) 0.1964(4) 0.0315(3)
H36 H 0.1661 0.2301 -0.0151
C53 C 0.1020(5) 0.0534(4) 0.1124(3)
H37 H 0.1156 -0.0088 0.1192
C54 C 0.0787(7) 0.7830(4) 0.1693(3)
H38 H 0.0559 0.8375 0.1346
C55 C 0.2333(5) 0.6854(4) 0.2570(4)
H39 H 0.3136 0.6746 0.2809
C56 C 0.1509(5) 0.6207(3) 0.2735(3)
H40 H 0.1741 0.5671 0.3093
C57 C -0.4725(5) 0.4957(4) 0.2093(4)
H41 H -0.5469 0.4971 0.2470
C58 C 0.0913(6) 0.2830(5) 0.4335(3)
H42 H 0.0470 0.2951 0.4802
loop_
_geom_bond_atom_site_label_1
_geom_bond_atom_site_label_2
_geom_bond_site_symmetry_1
_geom_bond_site_symmetry_2
S1 C2 1_555 1_555
S2 C2 1_555 1_555
N1 C1 1_555 1_555
O1 C5 1_555 1_555
O2 C8 1_555 1_555
O3 C3 1_555 1_555
C1 H1 1_555 1_555
C2 C1 1_555 1_555
C3 N1 1_555 1_555
C4 C1 1_555 1_555
C5 N1 1_555 1_555
C6 S2 1_555 1_555
C7 S1 1_555 1_555
C8 C2 1_555 1_555
H2 C8 1_555 1_555
C9 C3 1_555 1_555
C10 C5 1_555 1_555
C11 C7 1_555 1_555
H3 C11 1_555 1_555
C12 H4 1_555 1_555
C13 C4 1_555 1_555
H5 C13 1_555 1_555
C14 C6 1_555 1_555
H6 C14 1_555 1_555
C15 C4 1_555 1_555
H7 C15 1_555 1_555
C16 C15 1_555 1_555
H8 C16 1_555 1_555
C17 C14 1_555 1_555
H9 C17 1_555 1_555
C18 C11 1_555 1_555
H10 C18 1_555 1_555
C19 C12 1_555 1_555
H11 C19 1_555 1_555
C20 H12 1_555 1_555
C21 C6 1_555 1_555
H13 C21 1_555 1_555
C22 C7 1_555 1_555
H14 C22 1_555 1_555
C23 C10 1_555 1_555
H15 C23 1_555 1_555
C24 C13 1_555 1_555
H16 C24 1_555 1_555
C25 C9 1_555 1_555
H17 C25 1_555 1_555
C26 C16 1_555 1_555
H18 C26 1_555 1_555
C27 C17 1_555 1_555
H19 C27 1_555 1_555
C28 C20 1_555 1_555
H20 C28 1_555 1_555
C29 C21 1_555 1_555
H21 C29 1_555 1_555
S3 C32 1_555 1_555
S4 C32 1_555 1_555
O4 C35 1_555 1_555
O5 C37 1_555 1_555
N2 C31 1_555 1_555
O6 C36 1_555 1_555
C30 C33 1_555 1_555
C31 H22 1_555 1_555
C32 C31 1_555 1_555
C33 C36 1_555 1_555
C34 C31 1_555 1_555
C35 N2 1_555 1_555
C36 N2 1_555 1_555
C37 C32 1_555 1_555
H23 C37 1_555 1_555
C38 S4 1_555 1_555
C39 C34 1_555 1_555
H24 C39 1_555 1_555
C40 C34 1_555 1_555
H25 C40 1_555 1_555
C41 S3 1_555 1_555
C42 C30 1_555 1_555
H26 C42 1_555 1_555
C43 C41 1_555 1_555
H27 C43 1_555 1_555
C44 C41 1_555 1_555
H28 C44 1_555 1_555
C45 C38 1_555 1_555
H29 C45 1_555 1_555
C46 C44 1_555 1_555
H30 C46 1_555 1_555
C47 C39 1_555 1_555
H31 C47 1_555 1_555
C48 C46 1_555 1_555
H32 C48 1_555 1_555
C49 H33 1_555 1_555
C50 C47 1_555 1_555
H34 C50 1_555 1_555
C51 H35 1_555 1_555
C52 C33 1_555 1_555
H36 C52 1_555 1_555
C53 C42 1_555 1_555
H37 C53 1_555 1_555
C54 C45 1_555 1_555
H38 C54 1_555 1_555
C55 C51 1_555 1_555
H39 C55 1_555 1_555
C56 C38 1_555 1_555
H40 C56 1_555 1_555
C57 C40 1_555 1_555
H41 C57 1_555 1_555
C58 C43 1_555 1_555
H42 C58 1_555 1_555
C9 C10 1_555 1_555
C12 C18 1_555 1_555
C19 C22 1_555 1_555
C20 C23 1_555 1_555
C24 C26 1_555 1_555
C25 C28 1_555 1_555
C27 C29 1_555 1_555
C30 C35 1_555 1_555
C48 C58 1_555 1_555
C49 C52 1_555 1_555
C49 C53 1_555 1_555
C50 C57 1_555 1_555
C51 C54 1_555 1_555
C55 C56 1_555 1_555

#END
