
#######################################################################
#
#                 Cambridge Crystallographic Data Centre
#                                CCDC 
#
#######################################################################
#
# If this CIF has been generated from an entry in the Cambridge 
# Structural Database, then it will include bibliographic, chemical, 
# crystal, experimental, refinement or atomic coordinate data resulting 
# from the CCDC's data processing and validation procedures.
#
#######################################################################

data_EZUKAN
_chemical_formula_moiety         'C29 H22 N1 O1 P1'
_chemical_name_systematic        
2-(diphenylphosphoryl)-1-phenyl-9H-pyrrolo[1,2-a]indole
_symmetry_cell_setting           triclinic
_symmetry_space_group_name_H-M   'P -1'
_symmetry_Int_Tables_number      2
_space_group_name_Hall           '-P 1'
loop_
_symmetry_equiv_pos_site_id
_symmetry_equiv_pos_as_xyz
1 x,y,z
2 -x,-y,-z
_cell_length_a                   8.3377(5)
_cell_length_b                   10.0809(6)
_cell_length_c                   13.3153(9)
_cell_angle_alpha                79.488(5)
_cell_angle_beta                 89.208(5)
_cell_angle_gamma                77.301(5)
_cell_volume                     1073.07
_exptl_crystal_colour            colorless
_exptl_crystal_description       block
_cell_formula_units_Z            2
loop_
_atom_site_label
_atom_site_type_symbol
_atom_site_fract_x
_atom_site_fract_y
_atom_site_fract_z
P1 P 0.17988(4) 0.43059(4) 0.21202(3)
O1 O 0.02967(13) 0.53525(12) 0.17078(9)
N1 N 0.18396(15) 0.23775(13) 0.49652(9)
C1 C 0.21087(18) 0.35955(15) 0.51823(12)
C2 C 0.36532(18) 0.49155(15) 0.17647(11)
C3 C 0.16063(19) 0.00511(16) 0.59729(13)
H1 H 0.1416 -0.0323 0.5409
C4 C 0.24647(18) 0.58993(15) 0.41732(12)
C5 C 0.3366(2) 0.62364(16) 0.49278(12)
H2 H 0.3678 0.5598 0.5528
C6 C 0.21461(17) 0.44980(15) 0.42771(11)
C7 C 0.19010(17) 0.37495(15) 0.34772(11)
C8 C 0.20098(19) 0.27536(16) 0.15743(11)
C9 C 0.4953(2) 0.64880(19) 0.06404(14)
H3 H 0.4880 0.7238 0.0107
C10 C 0.51704(19) 0.42739(17) 0.22363(12)
H4 H 0.5250 0.3530 0.2775
C11 C 0.3366(2) 0.16494(17) 0.17683(13)
H5 H 0.4173 0.1648 0.2244
C12 C 0.17113(18) 0.24502(16) 0.39384(11)
H6 H 0.1530 0.1757 0.3608
C13 C 0.3805(2) 0.75037(17) 0.47998(14)
H7 H 0.4420 0.7703 0.5307
C14 C 0.21100(18) 0.19833(16) 0.66918(12)
C15 C 0.18389(17) 0.13814(15) 0.58679(11)
C16 C 0.3542(2) 0.60216(17) 0.09621(13)
H8 H 0.2531 0.6452 0.0639
C17 C 0.19366(19) 0.69142(16) 0.33082(13)
H9 H 0.1287 0.6735 0.2809
C18 C 0.0817(2) 0.27475(18) 0.08555(12)
H10 H -0.0090 0.3484 0.0717
C19 C 0.3520(2) 0.05472(17) 0.12529(13)
H11 H 0.4428 -0.0190 0.1385
C20 C 0.6562(2) 0.47382(18) 0.19071(13)
H12 H 0.7577 0.4305 0.2225
C21 C 0.23004(19) 0.34498(16) 0.63191(11)
H13 H 0.1454 0.4113 0.6584
H14 H 0.3373 0.3565 0.6510
C22 C 0.2164(2) 0.12170(18) 0.76662(13)
H15 H 0.2346 0.1595 0.8230
C23 C 0.1943(2) -0.01267(19) 0.77912(14)
H16 H 0.1978 -0.0649 0.8446
C24 C 0.6452(2) 0.58417(18) 0.11088(14)
H17 H 0.7393 0.6149 0.0887
C25 C 0.2366(2) 0.81797(17) 0.31852(14)
H18 H 0.2003 0.8842 0.2604
C26 C 0.3329(2) 0.84750(17) 0.39162(14)
H19 H 0.3653 0.9314 0.3816
C27 C 0.0979(2) 0.1645(2) 0.03443(13)
H20 H 0.0177 0.1646 -0.0135
C28 C 0.2321(2) 0.05491(19) 0.05429(13)
H21 H 0.2421 -0.0189 0.0200
C29 C 0.1670(2) -0.07050(17) 0.69616(14)
H22 H 0.1527 -0.1609 0.7066
loop_
_geom_bond_atom_site_label_1
_geom_bond_atom_site_label_2
_geom_bond_site_symmetry_1
_geom_bond_site_symmetry_2
P1 O1 1_555 1_555
N1 C1 1_555 1_555
C1 C6 1_555 1_555
C2 P1 1_555 1_555
C3 H1 1_555 1_555
C4 C5 1_555 1_555
C5 H2 1_555 1_555
C6 C4 1_555 1_555
C7 P1 1_555 1_555
C8 P1 1_555 1_555
C9 H3 1_555 1_555
C10 C2 1_555 1_555
H4 C10 1_555 1_555
C11 C8 1_555 1_555
H5 C11 1_555 1_555
C12 N1 1_555 1_555
H6 C12 1_555 1_555
C13 C5 1_555 1_555
H7 C13 1_555 1_555
C14 C15 1_555 1_555
C15 N1 1_555 1_555
C16 C2 1_555 1_555
H8 C16 1_555 1_555
C17 C4 1_555 1_555
H9 C17 1_555 1_555
C18 C8 1_555 1_555
H10 C18 1_555 1_555
C19 C11 1_555 1_555
H11 C19 1_555 1_555
C20 C10 1_555 1_555
H12 C20 1_555 1_555
C21 C1 1_555 1_555
H13 C21 1_555 1_555
H14 C21 1_555 1_555
C22 C14 1_555 1_555
H15 C22 1_555 1_555
C23 C22 1_555 1_555
H16 C23 1_555 1_555
C24 C9 1_555 1_555
H17 C24 1_555 1_555
C25 C17 1_555 1_555
H18 C25 1_555 1_555
C26 C13 1_555 1_555
H19 C26 1_555 1_555
C27 C18 1_555 1_555
H20 C27 1_555 1_555
C28 C19 1_555 1_555
H21 C28 1_555 1_555
C29 C3 1_555 1_555
H22 C29 1_555 1_555
C3 C15 1_555 1_555
C6 C7 1_555 1_555
C7 C12 1_555 1_555
C9 C16 1_555 1_555
C14 C21 1_555 1_555
C20 C24 1_555 1_555
C23 C29 1_555 1_555
C25 C26 1_555 1_555
C27 C28 1_555 1_555

#END
