
#######################################################################
#
#                 Cambridge Crystallographic Data Centre
#                                CCDC 
#
#######################################################################
#
# If this CIF has been generated from an entry in the Cambridge 
# Structural Database, then it will include bibliographic, chemical, 
# crystal, experimental, refinement or atomic coordinate data resulting 
# from the CCDC's data processing and validation procedures.
#
#######################################################################

data_EZUYIJ01
_chemical_formula_moiety         'C12 H14 O5'
_chemical_name_systematic        
3,4'-bi(6,8-dioxabicyclo[3.2.1]octan)-3(4')-en-4-one
_symmetry_cell_setting           monoclinic
_symmetry_space_group_name_H-M   'P 21'
_symmetry_Int_Tables_number      4
_space_group_name_Hall           'P 2yb'
loop_
_symmetry_equiv_pos_site_id
_symmetry_equiv_pos_as_xyz
1 x,y,z
2 -x,1/2+y,-z
_cell_length_a                   6.53804(18)
_cell_length_b                   9.9588(3)
_cell_length_c                   8.6752(2)
_cell_angle_alpha                90
_cell_angle_beta                 96.590(3)
_cell_angle_gamma                90
_cell_volume                     561.119
_exptl_crystal_colour            colorless
_exptl_crystal_description       block
_cell_formula_units_Z            2
_exptl_crystal_recrystallization_method dichloromethane
loop_
_atom_site_label
_atom_site_type_symbol
_atom_site_fract_x
_atom_site_fract_y
_atom_site_fract_z
O1 O -0.3967(3) -0.26740(15) -0.83896(18)
O2 O -0.1417(3) -0.73392(16) -0.39754(19)
O3 O -0.5731(3) -0.43735(17) -0.9659(2)
O4 O -0.1385(3) -0.5142(2) -0.3294(2)
C1 C 0.0302(3) -0.6753(2) -0.4635(2)
H1 H 0.1518 -0.7333 -0.4466
O5 O -0.5567(3) -0.5768(4) -0.5701(4)
C2 C -0.2275(2) -0.56881(19) -0.66731(19)
C3 C -0.1311(4) -0.4782(2) -0.9202(2)
H2 H -0.1809 -0.5383 -1.0042
H3 H 0.0071 -0.5064 -0.8807
C4 C -0.2691(3) -0.48975(18) -0.7920(2)
C5 C -0.1231(4) -0.3345(2) -0.9837(3)
H4 H -0.0247 -0.2820 -0.9164
H5 H -0.0772 -0.3367 -1.0861
C6 C -0.0312(3) -0.6514(2) -0.6355(2)
H6 H -0.0511 -0.7374 -0.6877
H7 H 0.0800 -0.6052 -0.6785
C7 C -0.4594(3) -0.4012(2) -0.8213(2)
H8 H -0.5452 -0.4089 -0.7362
C8 C -0.3325(4) -0.2687(2) -0.9932(2)
H9 H -0.3280 -0.1774 -1.0349
C9 C -0.3722(3) -0.5850(3) -0.5471(3)
C10 C -0.5054(5) -0.3490(3) -1.0808(3)
H10 H -0.6163 -0.2905 -1.1236
H11 H -0.4560 -0.3997 -1.1646
C11 C 0.0638(4) -0.5453(2) -0.3716(3)
H12 H 0.1619 -0.5581 -0.2801
H13 H 0.1130 -0.4746 -0.4348
C12 C -0.2684(4) -0.6213(3) -0.3857(3)
H14 H -0.3716 -0.6395 -0.3149
loop_
_geom_bond_atom_site_label_1
_geom_bond_atom_site_label_2
_geom_bond_site_symmetry_1
_geom_bond_site_symmetry_2
O1 C7 1_555 1_555
O2 C1 1_555 1_555
O3 C7 1_555 1_555
O4 C11 1_555 1_555
C1 H1 1_555 1_555
O5 C9 1_555 1_555
C2 C4 1_555 1_555
C3 H2 1_555 1_555
H3 C3 1_555 1_555
C4 C3 1_555 1_555
C5 C3 1_555 1_555
H4 C5 1_555 1_555
H5 C5 1_555 1_555
C6 C1 1_555 1_555
H6 C6 1_555 1_555
H7 C6 1_555 1_555
C7 C4 1_555 1_555
H8 C7 1_555 1_555
C8 O1 1_555 1_555
H9 C8 1_555 1_555
C9 C2 1_555 1_555
C10 O3 1_555 1_555
H10 C10 1_555 1_555
H11 C10 1_555 1_555
C11 C1 1_555 1_555
H12 C11 1_555 1_555
H13 C11 1_555 1_555
C12 O2 1_555 1_555
H14 C12 1_555 1_555
O4 C12 1_555 1_555
C2 C6 1_555 1_555
C5 C8 1_555 1_555
C8 C10 1_555 1_555
C9 C12 1_555 1_555

#END
