
#######################################################################
#
#                 Cambridge Crystallographic Data Centre
#                                CCDC 
#
#######################################################################
#
# If this CIF has been generated from an entry in the Cambridge 
# Structural Database, then it will include bibliographic, chemical, 
# crystal, experimental, refinement or atomic coordinate data resulting 
# from the CCDC's data processing and validation procedures.
#
#######################################################################

data_FABFIY
_chemical_formula_moiety         'C8 H11 Br2 N1 O2'
_chemical_name_systematic        
5,6-Dibromo-3-methyl-2-methoxycarbonyl-2-azabicyclo(2.1.1)hexane
_symmetry_cell_setting           monoclinic
_symmetry_space_group_name_H-M   'P 2/a'
_symmetry_Int_Tables_number      13
_space_group_name_Hall           '-P 2ya'
loop_
_symmetry_equiv_pos_site_id
_symmetry_equiv_pos_as_xyz
1 x,y,z
2 1/2-x,y,-z
3 -x,-y,-z
4 1/2+x,-y,z
_cell_length_a                   14.942(2)
_cell_length_b                   8.977(2)
_cell_length_c                   8.200(2)
_cell_angle_alpha                90
_cell_angle_beta                 99.04(1)
_cell_angle_gamma                90
_cell_volume                     1086.24
_cell_formula_units_Z            4
_exptl_crystal_recrystallization_method 'ethyl acetate'
loop_
_atom_site_label
_atom_site_type_symbol
_atom_site_fract_x
_atom_site_fract_y
_atom_site_fract_z
Br1 Br 0.40370(5) 0.88506(7) 0.5895(1)
Br2 Br 0.41091(5) 0.85507(8) 1.0048(1)
O1 O 0.1606(2) 0.4523(5) 0.7799(5)
O2 O 0.2575(2) 0.2602(4) 0.7758(5)
N1 N 0.3046(2) 0.4891(5) 0.7358(6)
C1 C 0.3068(3) 0.6511(5) 0.7529(8)
C2 C 0.4028(3) 0.4434(6) 0.7635(6)
C3 C 0.4403(3) 0.6028(6) 0.7825(6)
C4 C 0.3815(4) 0.6628(6) 0.9021(7)
C5 C 0.3765(4) 0.6808(6) 0.6417(7)
C6 C 0.4307(4) 0.3507(7) 0.6278(8)
C7 C 0.2345(3) 0.4031(6) 0.7679(7)
C8 C 0.1860(5) 0.1579(8) 0.7932(9)
H1 H 0.257(3) 0.703(6) 0.761(5)
H2 H 0.425(3) 0.386(4) 0.852(5)
H3 H 0.509(4) 0.626(6) 0.797(7)
H4 H 0.370(3) 0.606(5) 0.985(5)
H5 H 0.358(3) 0.644(5) 0.547(5)
H6 H 0.492(4) 0.332(7) 0.643(7)
H7 H 0.396(4) 0.275(9) 0.592(8)
H8 H 0.428(3) 0.411(6) 0.517(6)
H9 H 0.217(4) 0.087(7) 0.800(7)
H10 H 0.168(6) 0.17(1) 0.89(1)
H11 H 0.144(4) 0.161(7) 0.701(8)
loop_
_geom_bond_atom_site_label_1
_geom_bond_atom_site_label_2
_geom_bond_site_symmetry_1
_geom_bond_site_symmetry_2
Br1 C5 1_555 1_555
Br2 C4 1_555 1_555
O1 C7 1_555 1_555
O2 C7 1_555 1_555
N1 C1 1_555 1_555
C1 C4 1_555 1_555
C2 N1 1_555 1_555
C3 C2 1_555 1_555
C4 C3 1_555 1_555
C5 C1 1_555 1_555
C6 C2 1_555 1_555
C7 N1 1_555 1_555
C8 O2 1_555 1_555
H1 C1 1_555 1_555
H2 C2 1_555 1_555
H3 C3 1_555 1_555
H4 C4 1_555 1_555
H5 C5 1_555 1_555
H6 C6 1_555 1_555
H7 C6 1_555 1_555
H8 C6 1_555 1_555
H9 C8 1_555 1_555
H10 C8 1_555 1_555
H11 C8 1_555 1_555
C3 C5 1_555 1_555

#END
