
#######################################################################
#
#                 Cambridge Crystallographic Data Centre
#                                CCDC 
#
#######################################################################
#
# If this CIF has been generated from an entry in the Cambridge 
# Structural Database, then it will include bibliographic, chemical, 
# crystal, experimental, refinement or atomic coordinate data resulting 
# from the CCDC's data processing and validation procedures.
#
#######################################################################

data_FABTIN
_chemical_formula_moiety         'C13 H9 N2 O3 1-,C5 H7 N2 1+,H2 O1'
_chemical_name_systematic        
'2-(Pyridin-4-ylcarbamoyl)benzoate 4-aminopyridinium monohydrate'
_symmetry_cell_setting           triclinic
_symmetry_space_group_name_H-M   'P -1'
_symmetry_Int_Tables_number      2
_space_group_name_Hall           '-P 1'
loop_
_symmetry_equiv_pos_site_id
_symmetry_equiv_pos_as_xyz
1 x,y,z
2 -x,-y,-z
_cell_length_a                   8.2523(17)
_cell_length_b                   9.7476(19)
_cell_length_c                   10.918(2)
_cell_angle_alpha                97.451(10)
_cell_angle_beta                 96.45(3)
_cell_angle_gamma                96.82(2)
_cell_volume                     857.359
_exptl_crystal_colour            colorless
_exptl_crystal_description       block
_cell_formula_units_Z            2
loop_
_atom_site_label
_atom_site_type_symbol
_atom_site_fract_x
_atom_site_fract_y
_atom_site_fract_z
C1 C 1.2146(2) 0.66049(16) 0.74167(14)
C2 C 1.2002(3) 0.61967(19) 0.61342(16)
H1 H 1.0972 0.5858 0.5692
C3 C 1.3375(3) 0.6289(2) 0.55076(17)
H2 H 1.3265 0.6003 0.4652
C4 C 1.4898(3) 0.6802(2) 0.61531(18)
H3 H 1.5822 0.6843 0.5737
C5 C 1.5061(2) 0.72584(19) 0.74184(17)
H4 H 1.6090 0.7630 0.7846
C6 C 1.3694(2) 0.71644(16) 0.80545(14)
C7 C 1.38546(19) 0.77822(16) 0.94061(14)
C8 C 1.55409(19) 0.77529(16) 1.14193(14)
C9 C 1.5268(2) 0.90096(18) 1.20534(16)
H5 H 1.4657 0.9604 1.1656
C10 C 1.5922(3) 0.9361(2) 1.32872(17)
H6 H 1.5738 1.0213 1.3700
C11 C 1.7012(2) 0.73498(19) 1.33100(16)
H7 H 1.7605 0.6766 1.3737
C12 C 1.6419(2) 0.68950(18) 1.20817(16)
H8 H 1.6602 0.6028 1.1699
C13 C 1.0676(2) 0.63049(16) 0.80891(15)
N1 N 1.50551(16) 0.73185(14) 1.01441(12)
H9 H 1.5569 0.6693 0.9789
N2 N 1.6799(2) 0.85670(17) 1.39332(13)
O1 O 1.09076(14) 0.57624(12) 0.90652(10)
O2 O 0.93105(15) 0.65572(15) 0.76156(13)
O3 O 1.29937(15) 0.86381(13) 0.97698(11)
C14 C 0.0726(2) 0.98149(18) 0.29333(15)
C15 C -0.0181(2) 0.96812(19) 0.17414(16)
H10 H -0.0673 1.0428 0.1492
C16 C -0.0333(2) 0.8467(2) 0.09628(17)
H11 H -0.0914 0.8392 0.0171
C17 C 0.1149(3) 0.7433(2) 0.2444(2)
H12 H 0.1587 0.6651 0.2670
C18 C 0.1349(2) 0.8615(2) 0.32720(18)
H13 H 0.1899 0.8636 0.4067
N3 N 0.0332(2) 0.73684(17) 0.13046(15)
H14 H 0.0234 0.6611 0.0786
N4 N 0.0983(2) 1.10187(16) 0.36977(14)
H15 H 0.1543 1.1079 0.4421
H16 H 0.0590 1.1738 0.3469
O4 O 0.70695(15) 0.53877(14) 0.91350(12)
H17 H 0.7732 0.4926 0.9684
H18 H 0.7802 0.5749 0.8602
loop_
_geom_bond_atom_site_label_1
_geom_bond_atom_site_label_2
_geom_bond_site_symmetry_1
_geom_bond_site_symmetry_2
C1 C2 1_555 1_555
C2 H1 1_555 1_555
C3 C2 1_555 1_555
H2 C3 1_555 1_555
C4 C3 1_555 1_555
H3 C4 1_555 1_555
C5 C4 1_555 1_555
H4 C5 1_555 1_555
C6 C1 1_555 1_555
C7 C6 1_555 1_555
C8 C9 1_555 1_555
C9 H5 1_555 1_555
C10 C9 1_555 1_555
H6 C10 1_555 1_555
C11 H7 1_555 1_555
C12 C8 1_555 1_555
H8 C12 1_555 1_555
C13 C1 1_555 1_555
N1 C7 1_555 1_555
H9 N1 1_555 1_555
N2 C10 1_555 1_555
O1 C13 1_555 1_555
O2 C13 1_555 1_555
O3 C7 1_555 1_555
C14 C15 1_555 1_555
C15 H10 1_555 1_555
C16 C15 1_555 1_555
H11 C16 1_555 1_555
C17 H12 1_555 1_555
C18 C14 1_555 1_555
H13 C18 1_555 1_555
N3 C16 1_555 1_555
H14 N3 1_555 1_555
N4 C14 1_555 1_555
H15 N4 1_555 1_555
H16 N4 1_555 1_555
O4 H17 1_555 1_555
H18 O4 1_555 1_555
C5 C6 1_555 1_555
C8 N1 1_555 1_555
C11 C12 1_555 1_555
C11 N2 1_555 1_555
C17 C18 1_555 1_555
C17 N3 1_555 1_555

#END
