
#######################################################################
#
#                 Cambridge Crystallographic Data Centre
#                                CCDC 
#
#######################################################################
#
# If this CIF has been generated from an entry in the Cambridge 
# Structural Database, then it will include bibliographic, chemical, 
# crystal, experimental, refinement or atomic coordinate data resulting 
# from the CCDC's data processing and validation procedures.
#
#######################################################################

data_FABVOV
_chemical_formula_moiety         'C24 H24 O1 S2'
_chemical_name_systematic        
4-(3,4-bis(2,5-dimethyl-3-thienyl)cyclopent-3-en-1-yl)benzaldehyde
_symmetry_cell_setting           monoclinic
_symmetry_space_group_name_H-M   'P 21/c'
_symmetry_Int_Tables_number      14
_space_group_name_Hall           '-P 2ybc'
loop_
_symmetry_equiv_pos_site_id
_symmetry_equiv_pos_as_xyz
1 x,y,z
2 -x,1/2+y,1/2-z
3 -x,-y,-z
4 x,1/2-y,1/2+z
_cell_length_a                   17.971(8)
_cell_length_b                   14.910(7)
_cell_length_c                   7.964(4)
_cell_angle_alpha                90
_cell_angle_beta                 93.453(6)
_cell_angle_gamma                90
_cell_volume                     2130.06
_exptl_crystal_colour            colorless
_exptl_crystal_description       block
_cell_formula_units_Z            4
loop_
_atom_site_label
_atom_site_type_symbol
_atom_site_fract_x
_atom_site_fract_y
_atom_site_fract_z
S1 S 0.48700(7) 0.41637(9) 0.31728(18)
S2 S 0.30584(8) 0.60971(8) 0.82911(16)
O1 O -0.0493(3) 0.4211(4) -0.3280(6)
C1 C 0.1148(2) 0.3500(3) 0.1922(5)
C2 C 0.0428(2) 0.3234(3) 0.1406(6)
H1 H 0.0179 0.2829 0.2060
C3 C 0.0077(3) 0.3560(3) -0.0058(6)
H2 H -0.0400 0.3364 -0.0390
C4 C 0.0433(3) 0.4180(3) -0.1040(5)
C5 C 0.1138(3) 0.4454(3) -0.0523(5)
H3 H 0.1379 0.4875 -0.1160
C6 C 0.1500(3) 0.4116(3) 0.0932(5)
H4 H 0.1983 0.4303 0.1244
C7 C 0.0064(4) 0.4512(4) -0.2617(7)
H5 H 0.0283 0.4995 -0.3137
C8 C 0.1511(2) 0.3147(3) 0.3541(5)
H6 H 0.1232 0.2624 0.3907
C9 C 0.2336(2) 0.2886(3) 0.3420(5)
H7 H 0.2446 0.2328 0.4012
H8 H 0.2455 0.2815 0.2255
C10 C 0.2777(2) 0.3658(3) 0.4241(5)
C11 C 0.2327(2) 0.4194(3) 0.5088(5)
C12 C 0.1527(2) 0.3871(3) 0.4933(5)
H9 H 0.1191 0.4361 0.4616
H10 H 0.1382 0.3618 0.5987
C13 C 0.3943(2) 0.4420(3) 0.3399(6)
C14 C 0.3575(2) 0.3707(3) 0.4032(5)
C15 C 0.4069(2) 0.2960(3) 0.4324(6)
H11 H 0.3909 0.2420 0.4762
C16 C 0.4772(2) 0.3088(3) 0.3928(6)
C17 C 0.3647(3) 0.5330(3) 0.2925(7)
H12 H 0.3135 0.5279 0.2521
H13 H 0.3933 0.5578 0.2058
H14 H 0.3684 0.5715 0.3893
C18 C 0.5419(3) 0.2450(4) 0.4066(9)
H15 H 0.5290 0.1937 0.4714
H16 H 0.5843 0.2745 0.4610
H17 H 0.5538 0.2262 0.2961
C19 C 0.3057(2) 0.5045(3) 0.7375(5)
C20 C 0.2513(2) 0.4994(3) 0.6096(5)
C21 C 0.2104(3) 0.5816(3) 0.5892(5)
H18 H 0.1711 0.5888 0.5089
C22 C 0.2337(3) 0.6478(3) 0.6964(6)
C23 C 0.3570(3) 0.4333(3) 0.8073(7)
H19 H 0.3342 0.3756 0.7894
H20 H 0.3670 0.4430 0.9257
H21 H 0.4029 0.4354 0.7517
C24 C 0.2044(5) 0.7421(4) 0.7080(8)
H22 H 0.2390 0.7830 0.6617
H23 H 0.1986 0.7569 0.8237
H24 H 0.1571 0.7464 0.6459
loop_
_geom_bond_atom_site_label_1
_geom_bond_atom_site_label_2
_geom_bond_site_symmetry_1
_geom_bond_site_symmetry_2
S1 C13 1_555 1_555
S2 C19 1_555 1_555
O1 C7 1_555 1_555
C1 C2 1_555 1_555
C2 H1 1_555 1_555
C3 C2 1_555 1_555
H2 C3 1_555 1_555
C4 C3 1_555 1_555
C5 C4 1_555 1_555
H3 C5 1_555 1_555
C6 C1 1_555 1_555
H4 C6 1_555 1_555
C7 C4 1_555 1_555
H5 C7 1_555 1_555
C8 C1 1_555 1_555
H6 C8 1_555 1_555
C9 C8 1_555 1_555
H7 C9 1_555 1_555
H8 C9 1_555 1_555
C10 C9 1_555 1_555
C11 C10 1_555 1_555
C12 C8 1_555 1_555
H9 C12 1_555 1_555
H10 C12 1_555 1_555
C13 C14 1_555 1_555
C14 C10 1_555 1_555
C15 C14 1_555 1_555
H11 C15 1_555 1_555
C16 S1 1_555 1_555
C17 C13 1_555 1_555
H12 C17 1_555 1_555
H13 C17 1_555 1_555
H14 C17 1_555 1_555
C18 C16 1_555 1_555
H15 C18 1_555 1_555
H16 C18 1_555 1_555
H17 C18 1_555 1_555
C19 C20 1_555 1_555
C20 C11 1_555 1_555
C21 C20 1_555 1_555
H18 C21 1_555 1_555
C22 S2 1_555 1_555
C23 C19 1_555 1_555
H19 C23 1_555 1_555
H20 C23 1_555 1_555
H21 C23 1_555 1_555
C24 C22 1_555 1_555
H22 C24 1_555 1_555
H23 C24 1_555 1_555
H24 C24 1_555 1_555
C5 C6 1_555 1_555
C11 C12 1_555 1_555
C15 C16 1_555 1_555
C21 C22 1_555 1_555

#END
