
#######################################################################
#
#                 Cambridge Crystallographic Data Centre
#                                CCDC 
#
#######################################################################
#
# If this CIF has been generated from an entry in the Cambridge 
# Structural Database, then it will include bibliographic, chemical, 
# crystal, experimental, refinement or atomic coordinate data resulting 
# from the CCDC's data processing and validation procedures.
#
#######################################################################

data_FABVAI
_chemical_formula_moiety         'C28 H4 F14 I4 N4'
_chemical_name_systematic        
2,9-bis(heptafluoropropyl)-4,7,11,14-tetraiodopyrimido[4',5',6':6,7]phenaleno[1,2,3-gh]perimidine
_symmetry_cell_setting           triclinic
_symmetry_space_group_name_H-M   'P -1'
_symmetry_Int_Tables_number      2
_space_group_name_Hall           '-P 1'
loop_
_symmetry_equiv_pos_site_id
_symmetry_equiv_pos_as_xyz
1 x,y,z
2 -x,-y,-z
_cell_length_a                   5.0400(6)
_cell_length_b                   10.5468(13)
_cell_length_c                   14.3120(19)
_cell_angle_alpha                106.013(11)
_cell_angle_beta                 94.290(10)
_cell_angle_gamma                91.147(10)
_cell_volume                     728.543
_exptl_crystal_colour            'light red'
_exptl_crystal_description       needle
_cell_formula_units_Z            1
loop_
_atom_site_label
_atom_site_type_symbol
_atom_site_fract_x
_atom_site_fract_y
_atom_site_fract_z
I1 I 0.2221(3) 0.37173(13) 0.41388(10)
I2 I 0.0182(3) 0.04469(17) 0.88112(11)
F1 F 0.729(2) 0.4425(11) 0.7294(9)
F2 F 0.650(2) 0.3685(13) 0.8526(9)
F3 F 0.306(2) 0.5983(13) 0.7620(9)
F4 F 0.225(2) 0.5382(13) 0.8798(8)
F5 F 0.788(3) 0.6955(14) 0.8539(11)
F6 F 0.704(3) 0.6197(13) 0.9769(10)
F7 F 0.458(3) 0.7637(13) 0.9387(11)
N1 N 0.276(3) 0.3264(15) 0.6276(12)
N2 N 0.215(3) 0.2382(18) 0.7642(13)
C1 C 0.070(4) 0.246(2) 0.5720(15)
C2 C 0.005(4) 0.253(2) 0.4746(15)
C3 C -0.200(4) 0.174(2) 0.4196(16)
H1 H -0.2421 0.1778 0.3546
C4 C -0.357(4) 0.0830(19) 0.4579(14)
C5 C -0.289(4) 0.0791(17) 0.5532(15)
C6 C -0.073(4) 0.1619(19) 0.6125(15)
C7 C 0.007(4) 0.157(2) 0.7074(14)
C8 C -0.125(4) 0.064(2) 0.7479(14)
C9 C -0.335(4) -0.011(2) 0.6950(14)
H2 H -0.4272 -0.0690 0.7229
C10 C -0.574(4) 0.0051(18) 0.4025(14)
C11 C 0.328(3) 0.3162(19) 0.7137(15)
C12 C 0.538(4) 0.417(2) 0.7854(15)
C13 C 0.410(4) 0.554(2) 0.8343(17)
C14 C 0.600(5) 0.653(2) 0.9025(18)
I1A I -1.2221(3) -0.37173(13) 0.58612(10)
I2A I -1.0182(3) -0.04469(17) 0.11888(11)
F1A F -1.729(2) -0.4425(11) 0.2706(9)
F2A F -1.650(2) -0.3685(13) 0.1474(9)
F3A F -1.306(2) -0.5983(13) 0.2380(9)
F4A F -1.225(2) -0.5382(13) 0.1202(8)
F5A F -1.788(3) -0.6955(14) 0.1461(11)
F6A F -1.704(3) -0.6197(13) 0.0231(10)
F7A F -1.458(3) -0.7637(13) 0.0613(11)
N1A N -1.276(3) -0.3264(15) 0.3724(12)
N2A N -1.215(3) -0.2382(18) 0.2358(13)
C1A C -1.070(4) -0.246(2) 0.4280(15)
C2A C -1.005(4) -0.253(2) 0.5254(15)
C3A C -0.800(4) -0.174(2) 0.5804(16)
H1A H -0.7579 -0.1778 0.6454
C4A C -0.643(4) -0.0830(19) 0.5421(14)
C5A C -0.711(4) -0.0791(17) 0.4468(15)
C6A C -0.927(4) -0.1619(19) 0.3875(15)
C7A C -1.007(4) -0.157(2) 0.2926(14)
C8A C -0.875(4) -0.064(2) 0.2521(14)
C9A C -0.665(4) 0.011(2) 0.3050(14)
H2A H -0.5728 0.0690 0.2771
C10A C -0.426(4) -0.0051(18) 0.5975(14)
C11A C -1.328(3) -0.3162(19) 0.2863(15)
C12A C -1.538(4) -0.417(2) 0.2146(15)
C13A C -1.410(4) -0.554(2) 0.1657(17)
C14A C -1.600(5) -0.653(2) 0.0975(18)
loop_
_geom_bond_atom_site_label_1
_geom_bond_atom_site_label_2
_geom_bond_site_symmetry_1
_geom_bond_site_symmetry_2
I1 C2 1_555 1_555
I2 C8 1_555 1_555
F1 C12 1_555 1_555
F2 C12 1_555 1_555
F3 C13 1_555 1_555
F4 C13 1_555 1_555
F5 C14 1_555 1_555
F6 C14 1_555 1_555
F7 C14 1_555 1_555
N1 C1 1_555 1_555
N2 C7 1_555 1_555
C1 C2 1_555 1_555
C2 C3 1_555 1_555
C3 H1 1_555 1_555
C4 C3 1_555 1_555
C5 C4 1_555 1_555
C6 C1 1_555 1_555
C7 C6 1_555 1_555
C8 C7 1_555 1_555
C9 C8 1_555 1_555
H2 C9 1_555 1_555
C10 C4 1_555 1_555
C11 N1 1_555 1_555
C12 C11 1_555 1_555
C13 C12 1_555 1_555
C14 C13 1_555 1_555
I1A C2A 1_555 1_555
I2A C8A 1_555 1_555
F1A C12A 1_555 1_555
F2A C12A 1_555 1_555
F3A C13A 1_555 1_555
F4A C13A 1_555 1_555
F5A C14A 1_555 1_555
F6A C14A 1_555 1_555
F7A C14A 1_555 1_555
N1A C1A 1_555 1_555
N2A C7A 1_555 1_555
C1A C2A 1_555 1_555
C2A C3A 1_555 1_555
C3A H1A 1_555 1_555
C4A C3A 1_555 1_555
C5A C10 1_555 1_555
C6A C1A 1_555 1_555
C7A C6A 1_555 1_555
C8A C7A 1_555 1_555
C9A C10 1_555 1_555
H2A C9A 1_555 1_555
C10A C5 1_555 1_555
C11A N1A 1_555 1_555
C12A C11A 1_555 1_555
C13A C12A 1_555 1_555
C14A C13A 1_555 1_555
N2 C11 1_555 1_555
C5 C6 1_555 1_555
C9 C10A 1_555 1_555
N2A C11A 1_555 1_555
C4A C5A 1_555 1_555
C4A C10A 1_555 1_555
C5A C6A 1_555 1_555
C8A C9A 1_555 1_555

#END
