
#######################################################################
#
#                 Cambridge Crystallographic Data Centre
#                                CCDC 
#
#######################################################################
#
# If this CIF has been generated from an entry in the Cambridge 
# Structural Database, then it will include bibliographic, chemical, 
# crystal, experimental, refinement or atomic coordinate data resulting 
# from the CCDC's data processing and validation procedures.
#
#######################################################################

data_FABXAK
_chemical_formula_moiety         'C18 H12 F1 I1 O2'
_chemical_name_systematic        'methyl 4-(7-fluoro-3-iodo-2-naphthyl)benzoate'
_symmetry_cell_setting           monoclinic
_symmetry_space_group_name_H-M   'P 21/n'
_symmetry_Int_Tables_number      14
_space_group_name_Hall           '-P 2yn'
loop_
_symmetry_equiv_pos_site_id
_symmetry_equiv_pos_as_xyz
1 x,y,z
2 1/2-x,1/2+y,1/2-z
3 -x,-y,-z
4 1/2+x,1/2-y,1/2+z
_cell_length_a                   10.8646(5)
_cell_length_b                   4.0729(2)
_cell_length_c                   34.6781(17)
_cell_angle_alpha                90
_cell_angle_beta                 97.636(2)
_cell_angle_gamma                90
_cell_volume                     1520.91
_exptl_crystal_colour            colorless
_exptl_crystal_description       block
_cell_formula_units_Z            4
loop_
_atom_site_label
_atom_site_type_symbol
_atom_site_fract_x
_atom_site_fract_y
_atom_site_fract_z
I1 I 0.843359(12) 0.95008(3) 0.586216(4)
F1 F 1.53464(14) 0.1603(6) 0.55398(5)
O1 O 1.04851(16) 0.8531(6) 0.80950(4)
O2 O 0.87516(15) 0.5793(5) 0.78899(4)
C1 C 1.02406(17) 0.7550(5) 0.59007(5)
C2 C 1.06935(19) 0.7067(5) 0.55560(5)
H1 H 1.020(2) 0.759(6) 0.5308(7)
C3 C 1.18882(19) 0.5734(5) 0.55444(5)
C4 C 1.2367(2) 0.5073(6) 0.51902(6)
H2 H 1.186(3) 0.563(7) 0.4957(9)
C5 C 1.3509(2) 0.3699(7) 0.51923(7)
H3 H 1.382(3) 0.333(8) 0.4970(8)
C6 C 1.4207(2) 0.2982(7) 0.55462(7)
C7 C 1.3819(2) 0.3573(7) 0.58956(7)
H4 H 1.430(2) 0.306(7) 0.6123(8)
C8 C 1.26216(19) 0.4966(5) 0.58980(6)
C9 C 1.21431(19) 0.5596(6) 0.62510(6)
H5 H 1.262(2) 0.512(6) 0.6473(8)
C10 C 1.09720(17) 0.6824(5) 0.62637(5)
C11 C 1.05730(16) 0.7213(5) 0.66562(5)
C12 C 0.94934(18) 0.5751(5) 0.67512(5)
H6 H 0.897(2) 0.451(6) 0.6567(7)
C13 C 0.92174(18) 0.5802(5) 0.71312(5)
H7 H 0.848(2) 0.463(5) 0.7185(7)
C14 C 1.00124(16) 0.7343(5) 0.74202(5)
C15 C 1.10819(18) 0.8855(5) 0.73271(5)
H8 H 1.155(2) 0.995(5) 0.7503(7)
C16 C 1.13609(18) 0.8785(5) 0.69491(5)
H9 H 1.211(2) 0.985(6) 0.6892(7)
C17 C 0.97972(18) 0.7333(6) 0.78351(5)
C18 C 0.8534(3) 0.5469(9) 0.82894(7)
H10 H 0.917(3) 0.413(7) 0.8428(8)
H11 H 0.855(3) 0.759(8) 0.8413(8)
H12 H 0.782(4) 0.449(8) 0.8312(11)
loop_
_geom_bond_atom_site_label_1
_geom_bond_atom_site_label_2
_geom_bond_site_symmetry_1
_geom_bond_site_symmetry_2
I1 C1 1_555 1_555
F1 C6 1_555 1_555
O1 C17 1_555 1_555
O2 C17 1_555 1_555
C1 C2 1_555 1_555
C2 H1 1_555 1_555
C3 C2 1_555 1_555
C4 C3 1_555 1_555
H2 C4 1_555 1_555
C5 C4 1_555 1_555
H3 C5 1_555 1_555
C6 C5 1_555 1_555
C7 C6 1_555 1_555
H4 C7 1_555 1_555
C8 C3 1_555 1_555
C9 C8 1_555 1_555
H5 C9 1_555 1_555
C10 C1 1_555 1_555
C11 C10 1_555 1_555
C12 C11 1_555 1_555
H6 C12 1_555 1_555
C13 C12 1_555 1_555
H7 C13 1_555 1_555
C14 C13 1_555 1_555
C15 C14 1_555 1_555
H8 C15 1_555 1_555
C16 C11 1_555 1_555
H9 C16 1_555 1_555
C17 C14 1_555 1_555
C18 O2 1_555 1_555
H10 C18 1_555 1_555
H11 C18 1_555 1_555
H12 C18 1_555 1_555
C7 C8 1_555 1_555
C9 C10 1_555 1_555
C15 C16 1_555 1_555

#END
