
#######################################################################
#
#                 Cambridge Crystallographic Data Centre
#                                CCDC 
#
#######################################################################
#
# If this CIF has been generated from an entry in the Cambridge 
# Structural Database, then it will include bibliographic, chemical, 
# crystal, experimental, refinement or atomic coordinate data resulting 
# from the CCDC's data processing and validation procedures.
#
#######################################################################

data_FABXUE
_chemical_formula_moiety         'C26 H16 Br2'
_chemical_name_systematic        2,2'-(1,4-phenylene)bis(3-bromonaphthalene)
_symmetry_cell_setting           triclinic
_symmetry_space_group_name_H-M   'P -1'
_symmetry_Int_Tables_number      2
_space_group_name_Hall           '-P 1'
loop_
_symmetry_equiv_pos_site_id
_symmetry_equiv_pos_as_xyz
1 x,y,z
2 -x,-y,-z
_cell_length_a                   9.76400(10)
_cell_length_b                   10.14250(10)
_cell_length_c                   10.58780(10)
_cell_angle_alpha                108.6070(10)
_cell_angle_beta                 91.6710(10)
_cell_angle_gamma                102.9730(10)
_cell_volume                     962.57
_exptl_crystal_colour            colorless
_exptl_crystal_description       block
_cell_formula_units_Z            2
loop_
_atom_site_label
_atom_site_type_symbol
_atom_site_fract_x
_atom_site_fract_y
_atom_site_fract_z
Br1 Br 0.09898(3) 0.23475(4) -0.07349(3)
C1 C 0.4500(3) 0.3527(3) -0.0564(3)
H1 H 0.4172 0.2537 -0.0950
C2 C 0.4624(3) 0.5709(3) 0.1232(3)
H2 H 0.4378 0.6195 0.2064
C3 C 0.4106(3) 0.4228(3) 0.0681(3)
C4 C 0.3226(3) 0.3448(3) 0.1453(3)
C5 C 0.3748(3) 0.3575(3) 0.2716(3)
H3 H 0.4670 0.4111 0.3033
C6 C 0.2958(3) 0.2934(3) 0.3562(3)
C7 C 0.3508(3) 0.3078(3) 0.4852(3)
H4 H 0.4451 0.3546 0.5154
C8 C 0.2657(4) 0.2530(3) 0.5673(3)
H5 H 0.3024 0.2648 0.6534
C9 C 0.1253(4) 0.1799(3) 0.5223(3)
H6 H 0.0680 0.1463 0.5798
C10 C 0.0708(3) 0.1571(3) 0.3951(3)
H7 H -0.0219 0.1041 0.3651
C11 C 0.1540(3) 0.2134(3) 0.3079(3)
C12 C 0.1015(3) 0.1960(3) 0.1770(3)
H8 H 0.0102 0.1411 0.1429
C13 C 0.1830(3) 0.2588(3) 0.0996(3)
Br1A Br 0.90102(3) 0.76525(4) 0.07349(3)
C1A C 0.5500(3) 0.6473(3) 0.0564(3)
H1A H 0.5828 0.7463 0.0950
C2A C 0.5376(3) 0.4291(3) -0.1232(3)
H2A H 0.5622 0.3805 -0.2064
C3A C 0.5894(3) 0.5772(3) -0.0681(3)
C4A C 0.6774(3) 0.6552(3) -0.1453(3)
C5A C 0.6252(3) 0.6425(3) -0.2716(3)
H3A H 0.5330 0.5889 -0.3033
C6A C 0.7042(3) 0.7066(3) -0.3562(3)
C7A C 0.6492(3) 0.6922(3) -0.4852(3)
H4A H 0.5549 0.6454 -0.5154
C8A C 0.7343(4) 0.7470(3) -0.5673(3)
H5A H 0.6976 0.7352 -0.6534
C9A C 0.8747(4) 0.8201(3) -0.5223(3)
H6A H 0.9320 0.8537 -0.5798
C10A C 0.9292(3) 0.8429(3) -0.3951(3)
H7A H 1.0219 0.8959 -0.3651
C11A C 0.8460(3) 0.7866(3) -0.3079(3)
C12A C 0.8985(3) 0.8040(3) -0.1770(3)
H8A H 0.9898 0.8589 -0.1429
C13A C 0.8170(3) 0.7412(3) -0.0996(3)
Br2 Br 0.76798(3) 0.40021(3) 0.15716(3)
C14 C 0.6449(3) 0.0488(3) 0.0057(3)
H9 H 0.7423 0.0808 0.0087
C15 C 0.4344(3) 0.0309(3) 0.1155(3)
H10 H 0.3896 0.0511 0.1932
C16 C 0.5807(3) 0.0820(3) 0.1239(3)
C17 C 0.6614(3) 0.1668(3) 0.2574(3)
C18 C 0.6512(3) 0.1091(3) 0.3590(3)
H11 H 0.5988 0.0150 0.3398
C19 C 0.7165(3) 0.1855(3) 0.4913(3)
C20 C 0.7100(3) 0.1254(3) 0.5947(3)
H12 H 0.6607 0.0305 0.5768
C21 C 0.7749(3) 0.2042(4) 0.7206(3)
H13 H 0.7691 0.1628 0.7876
C22 C 0.8500(3) 0.3473(3) 0.7496(3)
H14 H 0.8940 0.4002 0.8357
C23 C 0.8592(3) 0.4092(3) 0.6532(3)
H15 H 0.9084 0.5046 0.6741
C24 C 0.7948(3) 0.3303(3) 0.5205(3)
C25 C 0.8062(3) 0.3894(3) 0.4168(3)
H16 H 0.8562 0.4842 0.4350
C26 C 0.7450(3) 0.3098(3) 0.2896(3)
Br2A Br 0.23202(3) -0.40021(3) -0.15716(3)
C14A C 0.3551(3) -0.0488(3) -0.0057(3)
H9A H 0.2577 -0.0808 -0.0087
C15A C 0.5656(3) -0.0309(3) -0.1155(3)
H10A H 0.6104 -0.0511 -0.1932
C16A C 0.4193(3) -0.0820(3) -0.1239(3)
C17A C 0.3386(3) -0.1668(3) -0.2574(3)
C18A C 0.3488(3) -0.1091(3) -0.3590(3)
H11A H 0.4012 -0.0150 -0.3398
C19A C 0.2835(3) -0.1855(3) -0.4913(3)
C20A C 0.2900(3) -0.1254(3) -0.5947(3)
H12A H 0.3393 -0.0305 -0.5768
C21A C 0.2251(3) -0.2042(4) -0.7206(3)
H13A H 0.2309 -0.1628 -0.7876
C22A C 0.1500(3) -0.3473(3) -0.7496(3)
H14A H 0.1060 -0.4002 -0.8357
C23A C 0.1408(3) -0.4092(3) -0.6532(3)
H15A H 0.0916 -0.5046 -0.6741
C24A C 0.2052(3) -0.3303(3) -0.5205(3)
C25A C 0.1938(3) -0.3894(3) -0.4168(3)
H16A H 0.1438 -0.4842 -0.4350
C26A C 0.2550(3) -0.3098(3) -0.2896(3)
loop_
_geom_bond_atom_site_label_1
_geom_bond_atom_site_label_2
_geom_bond_site_symmetry_1
_geom_bond_site_symmetry_2
Br1 C13 1_555 1_555
C1 H1 1_555 1_555
C2 H2 1_555 1_555
C3 C1 1_555 1_555
C4 C3 1_555 1_555
C5 C4 1_555 1_555
H3 C5 1_555 1_555
C6 C5 1_555 1_555
C7 C6 1_555 1_555
H4 C7 1_555 1_555
C8 C7 1_555 1_555
H5 C8 1_555 1_555
C9 C8 1_555 1_555
H6 C9 1_555 1_555
C10 C9 1_555 1_555
H7 C10 1_555 1_555
C11 C6 1_555 1_555
C12 C11 1_555 1_555
H8 C12 1_555 1_555
C13 C4 1_555 1_555
Br2 C26 1_555 1_555
C14 H9 1_555 1_555
C15 H10 1_555 1_555
C16 C14 1_555 1_555
C17 C16 1_555 1_555
C18 C17 1_555 1_555
H11 C18 1_555 1_555
C19 C18 1_555 1_555
C20 C19 1_555 1_555
H12 C20 1_555 1_555
C21 C20 1_555 1_555
H13 C21 1_555 1_555
C22 C21 1_555 1_555
H14 C22 1_555 1_555
C23 C22 1_555 1_555
H15 C23 1_555 1_555
C24 C19 1_555 1_555
C25 C24 1_555 1_555
H16 C25 1_555 1_555
C26 C17 1_555 1_555
Br1A C13A 1_555 1_555
C1A C2 1_555 1_555
H1A C1A 1_555 1_555
C2A C1 1_555 1_555
H2A C2A 1_555 1_555
C3A C1A 1_555 1_555
C4A C3A 1_555 1_555
C5A C4A 1_555 1_555
H3A C5A 1_555 1_555
C6A C5A 1_555 1_555
C7A C6A 1_555 1_555
H4A C7A 1_555 1_555
C8A C7A 1_555 1_555
H5A C8A 1_555 1_555
C9A C8A 1_555 1_555
H6A C9A 1_555 1_555
C10A C9A 1_555 1_555
H7A C10A 1_555 1_555
C11A C6A 1_555 1_555
C12A C11A 1_555 1_555
H8A C12A 1_555 1_555
C13A C4A 1_555 1_555
Br2A C26A 1_555 1_555
C14A C15 1_555 1_555
H9A C14A 1_555 1_555
C15A C14 1_555 1_555
H10A C15A 1_555 1_555
C16A C14A 1_555 1_555
C17A C16A 1_555 1_555
C18A C17A 1_555 1_555
H11A C18A 1_555 1_555
C19A C18A 1_555 1_555
C20A C19A 1_555 1_555
H12A C20A 1_555 1_555
C21A C20A 1_555 1_555
H13A C21A 1_555 1_555
C22A C21A 1_555 1_555
H14A C22A 1_555 1_555
C23A C22A 1_555 1_555
H15A C23A 1_555 1_555
C24A C19A 1_555 1_555
C25A C24A 1_555 1_555
H16A C25A 1_555 1_555
C26A C17A 1_555 1_555
C2 C3 1_555 1_555
C10 C11 1_555 1_555
C12 C13 1_555 1_555
C15 C16 1_555 1_555
C23 C24 1_555 1_555
C25 C26 1_555 1_555
C2A C3A 1_555 1_555
C10A C11A 1_555 1_555
C12A C13A 1_555 1_555
C15A C16A 1_555 1_555
C23A C24A 1_555 1_555
C25A C26A 1_555 1_555

#END
