
#######################################################################
#
#                 Cambridge Crystallographic Data Centre
#                                CCDC 
#
#######################################################################
#
# If this CIF has been generated from an entry in the Cambridge 
# Structural Database, then it will include bibliographic, chemical, 
# crystal, experimental, refinement or atomic coordinate data resulting 
# from the CCDC's data processing and validation procedures.
#
#######################################################################

data_FABXOY
_chemical_formula_moiety         'C17 H12 Cl1 F1'
_chemical_name_systematic        
3-chloro-6-fluoro-2-(4-methylphenyl)naphthalene
_symmetry_cell_setting           monoclinic
_symmetry_space_group_name_H-M   'P 21/n'
_symmetry_Int_Tables_number      14
_space_group_name_Hall           '-P 2yn'
loop_
_symmetry_equiv_pos_site_id
_symmetry_equiv_pos_as_xyz
1 x,y,z
2 1/2-x,1/2+y,1/2-z
3 -x,-y,-z
4 1/2+x,1/2-y,1/2+z
_cell_length_a                   14.8923(7)
_cell_length_b                   3.9900(2)
_cell_length_c                   22.1455(10)
_cell_angle_alpha                90
_cell_angle_beta                 102.795(3)
_cell_angle_gamma                90
_cell_volume                     1283.22
_exptl_crystal_colour            colorless
_exptl_crystal_description       block
_cell_formula_units_Z            4
loop_
_atom_site_label
_atom_site_type_symbol
_atom_site_fract_x
_atom_site_fract_y
_atom_site_fract_z
Cl1 Cl 0.89446(4) 0.48836(15) 0.11474(2)
F1 F 0.87288(11) -0.2047(5) -0.20172(6)
C1 C 0.83239(13) 0.3005(5) 0.04719(8)
C2 C 0.87827(14) 0.2369(5) 0.00159(9)
H1 H 0.9438(15) 0.287(5) 0.0077(9)
C3 C 0.83284(13) 0.0917(5) -0.05499(9)
C4 C 0.87837(16) 0.0152(6) -0.10324(10)
H2 H 0.9405(17) 0.062(6) -0.0991(10)
C5 C 0.82964(17) -0.1270(7) -0.15560(10)
C6 C 0.73633(18) -0.2019(7) -0.16546(10)
H3 H 0.7064(16) -0.302(6) -0.2022(11)
C7 C 0.69117(16) -0.1293(6) -0.11992(9)
H4 H 0.6280(16) -0.177(6) -0.1241(10)
C8 C 0.73794(13) 0.0159(5) -0.06346(8)
C9 C 0.69354(13) 0.0877(5) -0.01478(9)
H5 H 0.6309(14) 0.028(5) -0.0195(9)
C10 C 0.73766(12) 0.2246(5) 0.04074(8)
C11 C 0.68507(12) 0.2897(5) 0.08939(8)
C12 C 0.71471(14) 0.1771(5) 0.15011(9)
H6 H 0.7695(15) 0.057(5) 0.1615(9)
C13 C 0.66281(14) 0.2331(5) 0.19357(9)
H7 H 0.6834(14) 0.153(5) 0.2341(10)
C14 C 0.57965(13) 0.4023(5) 0.17866(9)
C15 C 0.54950(13) 0.5103(5) 0.11793(9)
H8 H 0.4921(14) 0.630(5) 0.1054(9)
C16 C 0.60074(13) 0.4546(5) 0.07404(9)
H9 H 0.5803(13) 0.532(5) 0.0318(9)
C17 C 0.52463(16) 0.4717(6) 0.22692(10)
H10 H 0.4991 0.2658 0.2381
H11 H 0.4757 0.6252 0.2104
H12 H 0.5641 0.5680 0.2629
loop_
_geom_bond_atom_site_label_1
_geom_bond_atom_site_label_2
_geom_bond_site_symmetry_1
_geom_bond_site_symmetry_2
Cl1 C1 1_555 1_555
F1 C5 1_555 1_555
C1 C2 1_555 1_555
C2 H1 1_555 1_555
C3 C2 1_555 1_555
C4 C3 1_555 1_555
H2 C4 1_555 1_555
C5 C4 1_555 1_555
C6 C5 1_555 1_555
H3 C6 1_555 1_555
C7 C6 1_555 1_555
H4 C7 1_555 1_555
C8 C3 1_555 1_555
C9 C8 1_555 1_555
H5 C9 1_555 1_555
C10 C1 1_555 1_555
C11 C10 1_555 1_555
C12 C11 1_555 1_555
H6 C12 1_555 1_555
C13 C12 1_555 1_555
H7 C13 1_555 1_555
C14 C13 1_555 1_555
C15 C14 1_555 1_555
H8 C15 1_555 1_555
C16 C11 1_555 1_555
H9 C16 1_555 1_555
C17 C14 1_555 1_555
H10 C17 1_555 1_555
H11 C17 1_555 1_555
H12 C17 1_555 1_555
C7 C8 1_555 1_555
C9 C10 1_555 1_555
C15 C16 1_555 1_555

#END
