
#######################################################################
#
#                 Cambridge Crystallographic Data Centre
#                                CCDC 
#
#######################################################################
#
# If this CIF has been generated from an entry in the Cambridge 
# Structural Database, then it will include bibliographic, chemical, 
# crystal, experimental, refinement or atomic coordinate data resulting 
# from the CCDC's data processing and validation procedures.
#
#######################################################################

data_FACPIL
_chemical_name_common            
N-(3,3,3-trifluoro-2-phenyl-2-((2-(2-thienyl)ethyl)amino)propyl)adamantane-1-carboxamide
_chemical_formula_moiety         'C26 H31 F3 N2 O1 S1'
_chemical_name_systematic        
(3R,5R,7R)-N-((R)-3,3,3-trifluoro-2-phenyl-2-((2-(thiophen-2-yl)ethyl)amino)propyl)adamantane-1-carboxamide
_symmetry_cell_setting           orthorhombic
_symmetry_space_group_name_H-M   'P 21 21 21'
_symmetry_Int_Tables_number      19
_space_group_name_Hall           'P 2ac 2ab'
loop_
_symmetry_equiv_pos_site_id
_symmetry_equiv_pos_as_xyz
1 x,y,z
2 1/2+x,1/2-y,-z
3 -x,1/2+y,1/2-z
4 1/2-x,-y,1/2+z
_cell_length_a                   10.52730(10)
_cell_length_b                   10.79420(10)
_cell_length_c                   22.0025(15)
_cell_angle_alpha                90
_cell_angle_beta                 90
_cell_angle_gamma                90
_cell_volume                     2500.23
_exptl_crystal_colour            colorless
_exptl_crystal_description       block
_cell_formula_units_Z            4
_exptl_crystal_recrystallization_method 
'Re-crystallisation from solvent: diethyl ether and hexane'
loop_
_atom_site_label
_atom_site_type_symbol
_atom_site_fract_x
_atom_site_fract_y
_atom_site_fract_z
F1 F 0.0854(2) 0.0620(2) 0.63148(8)
F2 F 0.1533(2) -0.11908(19) 0.60777(9)
F3 F 0.28393(18) 0.0227(2) 0.63388(8)
O1 O 0.0296(2) 0.3294(3) 0.47013(10)
N1 N 0.31528(18) 0.0012(2) 0.51129(10)
H1 H 0.3653 0.0542 0.4946
N2 N 0.21396(19) 0.22860(18) 0.47273(9)
H2 H 0.2836 0.2118 0.4541
C1 C 0.3541(3) -0.1284(3) 0.51470(15)
H3 H 0.2847 -0.1812 0.5016
H4 H 0.3748 -0.1496 0.5564
C2 C 0.0829(2) -0.0026(2) 0.49632(11)
C3 C 0.1478(2) 0.3262(2) 0.37708(11)
C4 C 0.1253(3) 0.2939(2) 0.44365(11)
C5 C 0.1978(3) 0.1850(2) 0.53422(11)
H5 H 0.1192 0.2173 0.5508
H6 H 0.2673 0.2146 0.5592
C6 C 0.1445(3) 0.4682(2) 0.37084(12)
H7 H 0.0648 0.4997 0.3867
H8 H 0.2131 0.5043 0.3943
C7 C -0.0424(3) 0.0128(3) 0.51438(14)
H9 H -0.0601 0.0461 0.5525
C8 C 0.1948(2) 0.0424(2) 0.53537(10)
C9 C 0.1782(3) 0.0014(3) 0.60194(12)
C10 C 0.1044(3) -0.0519(3) 0.43907(12)
H10 H 0.1873 -0.0615 0.4252
C11 C 0.0377(3) 0.2710(3) 0.33974(13)
H11 H 0.0386 0.1814 0.3431
H12 H -0.0427 0.3008 0.3556
C12 C 0.1584(3) 0.5048(3) 0.30432(13)
H13 H 0.1565 0.5953 0.3009
C13 C 0.0479(4) 0.4499(3) 0.26795(14)
H14 H -0.0321 0.4810 0.2837
H15 H 0.0548 0.4744 0.2257
C14 C -0.1189(3) -0.0714(3) 0.42050(14)
H16 H -0.1857 -0.0948 0.3954
C15 C 0.0038(3) -0.0871(3) 0.40227(13)
H17 H 0.0204 -0.1221 0.3645
C16 C 0.2734(3) 0.2780(3) 0.35120(13)
H18 H 0.2761 0.1884 0.3544
H19 H 0.3438 0.3116 0.3744
C17 C -0.1418(3) -0.0208(3) 0.47626(15)
H20 H -0.2252 -0.0086 0.4889
C18 C 0.2859(4) 0.3168(3) 0.28420(14)
H21 H 0.3667 0.2859 0.2681
C19 C 0.0509(4) 0.3087(3) 0.27283(14)
H22 H -0.0194 0.2734 0.2493
C20 C 0.2832(4) 0.4567(3) 0.27926(16)
H23 H 0.2921 0.4812 0.2371
H24 H 0.3534 0.4918 0.3020
C21 C 0.4695(3) -0.1498(3) 0.47426(19)
H25 H 0.5366 -0.0937 0.4867
H26 H 0.4998 -0.2337 0.4805
C22 C 0.1769(4) 0.2600(4) 0.24812(15)
H27 H 0.1794 0.1704 0.2516
H28 H 0.1851 0.2816 0.2055
C23 C 0.4439(3) -0.1311(3) 0.40812(19)
C24 C 0.4812(2) -0.0057(2) 0.37300(11)
H29 H 0.5257 0.0654 0.3838
C25 C 0.407(2) -0.055(2) 0.3076(10)
H30 H 0.3985 -0.0039 0.2737
C26 C 0.361(2) -0.169(2) 0.3087(9)
H31 H 0.3255 -0.2060 0.2744
S1 S 0.3701(2) -0.23343(19) 0.36556(10)
S2? S 0.4812(2) -0.0057(2) 0.37300(11)
C27? C 0.436(3) -0.031(3) 0.3115(10)
H32? H 0.4487 0.0253 0.2800
C28? C 0.374(2) -0.139(2) 0.3026(7)
H33? H 0.3376 -0.1600 0.2656
C29? C 0.3701(2) -0.23343(19) 0.36556(10)
H34? H 0.3382 -0.3124 0.3727
loop_
_geom_bond_atom_site_label_1
_geom_bond_atom_site_label_2
_geom_bond_site_symmetry_1
_geom_bond_site_symmetry_2
F1 C9 1_555 1_555
F2 C9 1_555 1_555
F3 C9 1_555 1_555
O1 C4 1_555 1_555
N1 H1 1_555 1_555
N2 H2 1_555 1_555
C1 N1 1_555 1_555
H3 C1 1_555 1_555
H4 C1 1_555 1_555
C2 C7 1_555 1_555
C3 C4 1_555 1_555
C4 N2 1_555 1_555
C5 N2 1_555 1_555
H5 C5 1_555 1_555
H6 C5 1_555 1_555
C6 C3 1_555 1_555
H7 C6 1_555 1_555
H8 C6 1_555 1_555
C7 H9 1_555 1_555
C8 N1 1_555 1_555
C9 C8 1_555 1_555
C10 C2 1_555 1_555
H10 C10 1_555 1_555
C11 C3 1_555 1_555
H11 C11 1_555 1_555
H12 C11 1_555 1_555
C12 C6 1_555 1_555
H13 C12 1_555 1_555
C13 C12 1_555 1_555
H14 C13 1_555 1_555
H15 C13 1_555 1_555
C14 H16 1_555 1_555
C15 C10 1_555 1_555
H17 C15 1_555 1_555
C16 C3 1_555 1_555
H18 C16 1_555 1_555
H19 C16 1_555 1_555
C17 C7 1_555 1_555
H20 C17 1_555 1_555
C18 C16 1_555 1_555
H21 C18 1_555 1_555
C19 C11 1_555 1_555
H22 C19 1_555 1_555
C20 C12 1_555 1_555
H23 C20 1_555 1_555
H24 C20 1_555 1_555
C21 C1 1_555 1_555
H25 C21 1_555 1_555
H26 C21 1_555 1_555
C22 C18 1_555 1_555
H27 C22 1_555 1_555
H28 C22 1_555 1_555
C23 C21 1_555 1_555
C24 C23 1_555 1_555
H29 C24 1_555 1_555
C25 C24 1_555 1_555
H30 C25 1_555 1_555
C26 C25 1_555 1_555
H31 C26 1_555 1_555
S1 C23 1_555 1_555
C2 C8 1_555 1_555
C5 C8 1_555 1_555
C13 C19 1_555 1_555
C14 C15 1_555 1_555
C14 C17 1_555 1_555
C18 C20 1_555 1_555
C19 C22 1_555 1_555
C26 S1 1_555 1_555

#END
