
#######################################################################
#
#                 Cambridge Crystallographic Data Centre
#                                CCDC 
#
#######################################################################
#
# If this CIF has been generated from an entry in the Cambridge 
# Structural Database, then it will include bibliographic, chemical, 
# crystal, experimental, refinement or atomic coordinate data resulting 
# from the CCDC's data processing and validation procedures.
#
#######################################################################

data_FACQUY
_chemical_formula_moiety         'C46 H30 N2 O2,2(C1 H4 O1),H2 O1'
_chemical_name_systematic        
'8-methoxy-11-(4-methoxyphenyl)-3,12-diphenyl-4-(pyridin-4-yl)-7-azabenzo[ghi]perylene methanol solvate monohydrate'
_symmetry_cell_setting           triclinic
_symmetry_space_group_name_H-M   'P -1'
_symmetry_Int_Tables_number      2
_space_group_name_Hall           '-P 1'
loop_
_symmetry_equiv_pos_site_id
_symmetry_equiv_pos_as_xyz
1 x,y,z
2 -x,-y,-z
_cell_length_a                   10.0331(8)
_cell_length_b                   13.1942(9)
_cell_length_c                   14.3163(13)
_cell_angle_alpha                97.335(7)
_cell_angle_beta                 103.496(8)
_cell_angle_gamma                98.270(6)
_cell_volume                     1797.89
_exptl_crystal_colour            red
_exptl_crystal_description       block
_cell_formula_units_Z            2
loop_
_atom_site_label
_atom_site_type_symbol
_atom_site_fract_x
_atom_site_fract_y
_atom_site_fract_z
O1 O 0.50023(15) 0.23769(10) 0.52690(10)
O2 O 0.92332(17) 0.35724(12) 0.00754(11)
N1 N 0.53367(17) 0.37888(12) 0.67881(12)
N2 N 0.5826(2) 0.77428(14) 1.09315(14)
C1 C 0.59627(19) 0.44679(14) 0.63270(14)
C2 C 0.62130(19) 0.41036(14) 0.53855(14)
C3 C 0.69989(19) 0.48222(14) 0.49529(13)
C4 C 0.74535(19) 0.58943(14) 0.54072(13)
C5 C 0.71569(19) 0.62537(14) 0.63060(13)
C6 C 0.64230(19) 0.55382(14) 0.67604(13)
C7 C 0.5770(2) 0.30651(15) 0.48870(14)
C8 C 0.6133(2) 0.27537(15) 0.40214(14)
H1 H 0.5842 0.2052 0.3702
C9 C 0.6902(2) 0.34474(15) 0.36283(14)
H2 H 0.7132 0.3214 0.3040
C10 C 0.7360(2) 0.44945(15) 0.40711(13)
C11 C 0.81738(19) 0.52141(15) 0.36447(14)
C12 C 0.85859(19) 0.62349(14) 0.40826(13)
C13 C 0.82338(19) 0.65929(14) 0.49736(13)
C14 C 0.8677(2) 0.76359(15) 0.54565(14)
H3 H 0.9208 0.8111 0.5179
C15 C 0.8367(2) 0.79817(15) 0.63065(14)
H4 H 0.8670 0.8692 0.6597
C16 C 0.7604(2) 0.73048(15) 0.67646(14)
C17 C 0.7290(2) 0.76582(15) 0.76739(14)
C18 C 0.6609(2) 0.69656(15) 0.81180(14)
C19 C 0.6173(2) 0.58899(15) 0.76731(14)
C20 C 0.5505(2) 0.51554(15) 0.81205(15)
H5 H 0.5315 0.5355 0.8731
C21 C 0.5134(2) 0.41446(15) 0.76566(15)
H6 H 0.4698 0.3655 0.7975
C22 C 0.4752(3) 0.13004(16) 0.48449(16)
H7 H 0.4161 0.1199 0.4178
H8 H 0.4281 0.0884 0.5234
H9 H 0.5641 0.1081 0.4833
C23 C 0.8501(2) 0.48276(14) 0.27095(14)
C24 C 0.9315(2) 0.40554(15) 0.26422(14)
H10 H 0.9716 0.3796 0.3212
C25 C 0.9544(2) 0.36638(16) 0.17584(15)
H11 H 1.0108 0.3146 0.1731
C26 C 0.8956(2) 0.40231(15) 0.09120(14)
C27 C 0.8170(2) 0.48020(15) 0.09642(14)
H12 H 0.7778 0.5065 0.0394
C28 C 0.7960(2) 0.51964(15) 0.18587(14)
H13 H 0.7430 0.5735 0.1888
C29 C 0.8524(3) 0.38331(18) -0.08208(15)
H14 H 0.8811 0.3465 -0.1359
H15 H 0.8757 0.4584 -0.0802
H16 H 0.7516 0.3630 -0.0918
C30 C 0.9485(2) 0.69918(15) 0.36890(13)
C31 C 1.0830(2) 0.68485(16) 0.36753(14)
H17 H 1.1147 0.6247 0.3877
C32 C 1.1717(2) 0.75711(17) 0.33712(15)
H18 H 1.2629 0.7460 0.3360
C33 C 1.1264(2) 0.84557(17) 0.30838(15)
H19 H 1.1872 0.8960 0.2889
C34 C 0.9927(2) 0.86023(16) 0.30819(15)
H20 H 0.9614 0.9203 0.2876
C35 C 0.9038(2) 0.78757(16) 0.33802(14)
H21 H 0.8119 0.7982 0.3374
C36 C 0.7699(2) 0.87795(15) 0.81326(14)
C37 C 0.9100(2) 0.92501(16) 0.84929(14)
H22 H 0.9814 0.8867 0.8424
C38 C 0.9444(3) 1.02847(16) 0.89545(15)
H23 H 1.0395 1.0605 0.9199
C39 C 0.8411(3) 1.08486(16) 0.90599(16)
H24 H 0.8654 1.1547 0.9390
C40 C 0.7020(3) 1.03924(17) 0.86828(17)
H25 H 0.6311 1.0785 0.8737
C41 C 0.6664(2) 0.93583(16) 0.82242(15)
H26 H 0.5711 0.9046 0.7972
C42 C 0.4813(3) 0.76098(17) 1.01057(17)
H27 H 0.3902 0.7680 1.0155
C43 C 0.5018(2) 0.73766(17) 0.91853(16)
H28 H 0.4260 0.7285 0.8624
C44 C 0.6339(2) 0.72782(14) 0.90892(14)
C45 C 0.7401(3) 0.74085(16) 0.99383(16)
H29 H 0.8320 0.7340 0.9909
C46 C 0.7094(3) 0.76414(18) 1.08328(16)
H30 H 0.7831 0.7734 1.1407
O3 O 0.44698(18) 0.16777(11) 0.70774(11)
H31 H 0.4495 0.1879 0.7685
H32 H 0.4759 0.2209 0.6829
C47 C 0.1905(3) -0.0399(2) 0.5620(3)
H33 H 0.2133 0.0041 0.5157
H34 H 0.1118 -0.0194 0.5845
H35 H 0.1655 -0.1127 0.5299
O4 O 0.3106(3) -0.02783(16) 0.64469(18)
H36 H 0.3499 0.0348 0.6594
C48 C 0.2969(4) -0.0638(3) 0.8701(3)
H37 H 0.2472 -0.0075 0.8521
H38 H 0.3960 -0.0353 0.8984
H39 H 0.2583 -0.0969 0.9179
O5 O 0.2815(3) -0.13698(18) 0.78746(18)
H40 H 0.2821 -0.1067 0.7393
loop_
_geom_bond_atom_site_label_1
_geom_bond_atom_site_label_2
_geom_bond_site_symmetry_1
_geom_bond_site_symmetry_2
O1 C7 1_555 1_555
O2 C26 1_555 1_555
N1 C1 1_555 1_555
N2 C42 1_555 1_555
C1 C2 1_555 1_555
C2 C3 1_555 1_555
C3 C4 1_555 1_555
C4 C5 1_555 1_555
C5 C6 1_555 1_555
C6 C1 1_555 1_555
C7 C2 1_555 1_555
C8 C7 1_555 1_555
H1 C8 1_555 1_555
C9 C8 1_555 1_555
H2 C9 1_555 1_555
C10 C3 1_555 1_555
C11 C10 1_555 1_555
C12 C11 1_555 1_555
C13 C4 1_555 1_555
C14 C13 1_555 1_555
H3 C14 1_555 1_555
C15 C14 1_555 1_555
H4 C15 1_555 1_555
C16 C5 1_555 1_555
C17 C16 1_555 1_555
C18 C17 1_555 1_555
C19 C6 1_555 1_555
C20 C19 1_555 1_555
H5 C20 1_555 1_555
C21 N1 1_555 1_555
H6 C21 1_555 1_555
C22 O1 1_555 1_555
H7 C22 1_555 1_555
H8 C22 1_555 1_555
H9 C22 1_555 1_555
C23 C11 1_555 1_555
C24 C23 1_555 1_555
H10 C24 1_555 1_555
C25 C24 1_555 1_555
H11 C25 1_555 1_555
C26 C25 1_555 1_555
C27 C26 1_555 1_555
H12 C27 1_555 1_555
C28 C23 1_555 1_555
H13 C28 1_555 1_555
C29 O2 1_555 1_555
H14 C29 1_555 1_555
H15 C29 1_555 1_555
H16 C29 1_555 1_555
C30 C12 1_555 1_555
C31 C30 1_555 1_555
H17 C31 1_555 1_555
C32 C31 1_555 1_555
H18 C32 1_555 1_555
C33 C32 1_555 1_555
H19 C33 1_555 1_555
C34 C33 1_555 1_555
H20 C34 1_555 1_555
C35 C30 1_555 1_555
H21 C35 1_555 1_555
C36 C17 1_555 1_555
C37 C36 1_555 1_555
H22 C37 1_555 1_555
C38 C37 1_555 1_555
H23 C38 1_555 1_555
C39 C38 1_555 1_555
H24 C39 1_555 1_555
C40 C39 1_555 1_555
H25 C40 1_555 1_555
C41 C36 1_555 1_555
H26 C41 1_555 1_555
C42 H27 1_555 1_555
C43 C42 1_555 1_555
H28 C43 1_555 1_555
C44 C18 1_555 1_555
C45 C44 1_555 1_555
H29 C45 1_555 1_555
C46 N2 1_555 1_555
H30 C46 1_555 1_555
O3 H31 1_555 1_555
H32 O3 1_555 1_555
C47 H33 1_555 1_555
H34 C47 1_555 1_555
H35 C47 1_555 1_555
O4 C47 1_555 1_555
H36 O4 1_555 1_555
C48 H37 1_555 1_555
H38 C48 1_555 1_555
H39 C48 1_555 1_555
O5 C48 1_555 1_555
H40 O5 1_555 1_555
C9 C10 1_555 1_555
C12 C13 1_555 1_555
C15 C16 1_555 1_555
C18 C19 1_555 1_555
C20 C21 1_555 1_555
C27 C28 1_555 1_555
C34 C35 1_555 1_555
C40 C41 1_555 1_555
C43 C44 1_555 1_555
C45 C46 1_555 1_555

#END
