
#######################################################################
#
#                 Cambridge Crystallographic Data Centre
#                                CCDC 
#
#######################################################################
#
# If this CIF has been generated from an entry in the Cambridge 
# Structural Database, then it will include bibliographic, chemical, 
# crystal, experimental, refinement or atomic coordinate data resulting 
# from the CCDC's data processing and validation procedures.
#
#######################################################################

data_FADYUH
_chemical_formula_moiety         'C17 H17 N1 O3 S1'
_chemical_name_systematic        
'methyl 2-(cyclohex-1-en-1-ylcarbonyl)-4H-1,4-benzothiazine-4-carboxylate'
_symmetry_cell_setting           monoclinic
_symmetry_space_group_name_H-M   'P 21/c'
_symmetry_Int_Tables_number      14
_space_group_name_Hall           '-P 2ybc'
loop_
_symmetry_equiv_pos_site_id
_symmetry_equiv_pos_as_xyz
1 x,y,z
2 -x,1/2+y,1/2-z
3 -x,-y,-z
4 x,1/2-y,1/2+z
_cell_length_a                   9.6590(17)
_cell_length_b                   16.840(3)
_cell_length_c                   9.5133(17)
_cell_angle_alpha                90
_cell_angle_beta                 90.289(4)
_cell_angle_gamma                90
_cell_volume                     1547.39
_exptl_crystal_colour            colorless
_exptl_crystal_description       prismatic
_cell_formula_units_Z            4
loop_
_atom_site_label
_atom_site_type_symbol
_atom_site_fract_x
_atom_site_fract_y
_atom_site_fract_z
S1 S 0.18772(9) 0.05436(5) 0.59398(8)
N1 N 0.2392(3) 0.20376(15) 0.7607(3)
O1 O 0.2755(3) -0.07307(15) 0.7584(3)
O2 O 0.3263(3) 0.32786(16) 0.7224(3)
O3 O 0.4055(3) 0.25198(14) 0.8985(3)
C1 C 0.1310(3) 0.21027(18) 0.6571(3)
C2 C 0.0557(4) 0.2797(2) 0.6406(3)
H1 H 0.0767 0.3238 0.6956
C3 C -0.0499(4) 0.2837(2) 0.5432(4)
H2 H -0.0983 0.3310 0.5309
C4 C -0.0843(4) 0.2182(2) 0.4639(4)
H3 H -0.1556 0.2212 0.3980
C5 C -0.0132(4) 0.1486(2) 0.4823(3)
H4 H -0.0383 0.1039 0.4306
C6 C 0.0957(3) 0.14401(18) 0.5772(3)
C7 C 0.2298(3) 0.06156(17) 0.7740(3)
C8 C 0.2526(3) 0.13211(16) 0.8345(3)
H5 H 0.2783 0.1337 0.9288
C9 C 0.3243(3) 0.26768(19) 0.7895(3)
C10 C 0.5007(4) 0.3147(3) 0.9370(5)
H6 H 0.5668 0.3220 0.8632
H7 H 0.5482 0.3005 1.0223
H8 H 0.4502 0.3631 0.9512
C11 C 0.2574(3) -0.01699(18) 0.8377(3)
C12 C 0.2699(3) -0.02743(17) 0.9920(3)
C13 C 0.3722(4) -0.0894(2) 1.0410(4)
C14 C 0.3423(10) -0.1193(5) 1.1915(8)
H9 H 0.2611 -0.1531 1.1910
H10 H 0.4203 -0.1499 1.2264
C15 C 0.3179(10) -0.0470(5) 1.2863(8)
H11 H 0.3956 -0.0107 1.2805
H12 H 0.3080 -0.0637 1.3833
C16 C 0.1818(5) -0.0048(2) 1.2344(4)
C17 C 0.1841(3) 0.0092(2) 1.0791(3)
H13 H 0.1219 0.0456 1.0415
H14 H 0.465(2) -0.072(2) 1.023(4)
H15 H 0.093(3) -0.025(3) 1.252(5)
H16 H 0.352(5) -0.1398(17) 0.998(5)
H17 H 0.190(5) 0.0434(18) 1.285(5)
C18? C 0.3915(9) -0.0830(6) 1.2004(9)
H18? H 0.4437 -0.1284 1.2342
H19? H 0.4439 -0.0354 1.2225
C19? C 0.2550(9) -0.0799(5) 1.2724(9)
H20? H 0.2687 -0.0824 1.3734
H21? H 0.1992 -0.1252 1.2443
loop_
_geom_bond_atom_site_label_1
_geom_bond_atom_site_label_2
_geom_bond_site_symmetry_1
_geom_bond_site_symmetry_2
S1 C6 1_555 1_555
N1 C1 1_555 1_555
O1 C11 1_555 1_555
O2 C9 1_555 1_555
O3 C9 1_555 1_555
C1 C2 1_555 1_555
C2 H1 1_555 1_555
C3 C2 1_555 1_555
H2 C3 1_555 1_555
C4 C3 1_555 1_555
H3 C4 1_555 1_555
C5 C4 1_555 1_555
H4 C5 1_555 1_555
C6 C1 1_555 1_555
C7 S1 1_555 1_555
C8 N1 1_555 1_555
H5 C8 1_555 1_555
C9 N1 1_555 1_555
C10 O3 1_555 1_555
H6 C10 1_555 1_555
H7 C10 1_555 1_555
H8 C10 1_555 1_555
C11 C7 1_555 1_555
C12 C11 1_555 1_555
C13 C12 1_555 1_555
C14 C13 1_555 1_555
H9 C14 1_555 1_555
H10 C14 1_555 1_555
C15 C14 1_555 1_555
H11 C15 1_555 1_555
H12 C15 1_555 1_555
C16 C15 1_555 1_555
C17 C12 1_555 1_555
H13 C17 1_555 1_555
H14 C13 1_555 1_555
H15 C16 1_555 1_555
H16 C13 1_555 1_555
H17 C16 1_555 1_555
C5 C6 1_555 1_555
C7 C8 1_555 1_555
C16 C17 1_555 1_555

#END
