
#######################################################################
#
#                 Cambridge Crystallographic Data Centre
#                                CCDC 
#
#######################################################################
#
# If this CIF has been generated from an entry in the Cambridge 
# Structural Database, then it will include bibliographic, chemical, 
# crystal, experimental, refinement or atomic coordinate data resulting 
# from the CCDC's data processing and validation procedures.
#
#######################################################################

data_FAFDAT
_chemical_formula_moiety         'C7 H8 O2'
_chemical_name_systematic        5-Oxatricyclo[5.1.0.0^1,3^]octane-4-one
_symmetry_cell_setting           monoclinic
_symmetry_space_group_name_H-M   'P 21/c'
_symmetry_Int_Tables_number      14
_space_group_name_Hall           '-P 2ybc'
loop_
_symmetry_equiv_pos_site_id
_symmetry_equiv_pos_as_xyz
1 x,y,z
2 x,1/2-y,1/2+z
3 -x,-y,-z
4 -x,1/2+y,1/2-z
_cell_length_a                   9.9533(8)
_cell_length_b                   8.1831(7)
_cell_length_c                   7.8129(6)
_cell_angle_alpha                90
_cell_angle_beta                 108.61(2)
_cell_angle_gamma                90
_cell_volume                     603.079
_exptl_crystal_colour            colorless
_exptl_crystal_description       plate
_chemical_melting_point          42-43deg.C
_cell_formula_units_Z            4
_exptl_crystal_preparation       'part of a composite crystal with FAFDAS01'
loop_
_atom_site_label
_atom_site_type_symbol
_atom_site_fract_x
_atom_site_fract_y
_atom_site_fract_z
O1 O 0.75403(11) 0.60977(13) 0.21444(15)
O2 O 0.59845(11) 0.80545(12) 0.19477(15)
C1 C 0.65810(15) 1.09741(19) 0.2253(2)
C2 C 0.77115(18) 1.1846(2) 0.3804(2)
C3 C 0.84934(15) 0.87395(18) 0.31893(19)
C4 C 0.90300(17) 0.9773(2) 0.1871(2)
C5 C 0.80878(15) 1.04741(18) 0.28113(19)
C6 C 0.56940(16) 0.9651(2) 0.2670(2)
C7 C 0.73306(15) 0.75293(17) 0.24005(18)
H1 H 0.616(2) 1.159(3) 0.116(3)
H2 H 0.788(2) 1.297(2) 0.350(3)
H3 H 0.770(2) 1.158(2) 0.506(3)
H4 H 0.931(2) 0.835(3) 0.434(3)
H5 H 0.995(3) 0.999(3) 0.221(3)
H6 H 0.868(2) 0.956(2) 0.064(3)
H7 H 0.4684(19) 0.977(2) 0.205(2)
H8 H 0.5890(17) 0.948(2) 0.391(2)
loop_
_geom_bond_atom_site_label_1
_geom_bond_atom_site_label_2
_geom_bond_site_symmetry_1
_geom_bond_site_symmetry_2
O1 C7 1_555 1_555
O2 C6 1_555 1_555
C1 C2 1_555 1_555
C2 C5 1_555 1_555
C3 C4 1_555 1_555
C4 C5 1_555 1_555
C5 C1 1_555 1_555
C6 C1 1_555 1_555
C7 O2 1_555 1_555
H1 C1 1_555 1_555
H2 C2 1_555 1_555
H3 C2 1_555 1_555
H4 C3 1_555 1_555
H5 C4 1_555 1_555
H6 C4 1_555 1_555
H7 C6 1_555 1_555
H8 C6 1_555 1_555
C3 C5 1_555 1_555
C3 C7 1_555 1_555

#END
