
#######################################################################
#
#                 Cambridge Crystallographic Data Centre
#                                CCDC 
#
#######################################################################
#
# If this CIF has been generated from an entry in the Cambridge 
# Structural Database, then it will include bibliographic, chemical, 
# crystal, experimental, refinement or atomic coordinate data resulting 
# from the CCDC's data processing and validation procedures.
#
#######################################################################

data_FAFNAD
_chemical_formula_moiety         '2(C19 H13 N5),C8 H6 O4,4(H2 O1)'
_chemical_name_systematic        
'bis(2,6-bis(Benzimidazol-2-yl)pyridine) terephthalic acid tetrahydrate'
_symmetry_cell_setting           triclinic
_symmetry_space_group_name_H-M   'P -1'
_symmetry_Int_Tables_number      2
_space_group_name_Hall           '-P 1'
loop_
_symmetry_equiv_pos_site_id
_symmetry_equiv_pos_as_xyz
1 x,y,z
2 -x,-y,-z
_cell_length_a                   9.5040(19)
_cell_length_b                   9.888(2)
_cell_length_c                   11.713(2)
_cell_angle_alpha                80.19(3)
_cell_angle_beta                 81.13(3)
_cell_angle_gamma                74.88(3)
_cell_volume                     1040.1
_exptl_crystal_colour            yellow
_exptl_crystal_description       block
_cell_formula_units_Z            1
loop_
_atom_site_label
_atom_site_type_symbol
_atom_site_fract_x
_atom_site_fract_y
_atom_site_fract_z
N1 N 0.1641(2) 0.8680(3) 0.1945(2)
H1 H 0.2028 0.8023 0.1516
N2 N -0.0078(2) 1.0315(3) 0.2810(2)
N3 N -0.0278(2) 0.8192(3) 0.0638(2)
N4 N -0.1258(2) 0.6490(3) -0.1512(2)
N5 N 0.0903(2) 0.6236(3) -0.0879(2)
H2 H 0.1540 0.6361 -0.0485
C1 C 0.2364(3) 0.9215(4) 0.2658(3)
C2 C 0.3815(3) 0.8940(4) 0.2815(3)
H3 H 0.4524 0.8256 0.2451
C3 C 0.4170(4) 0.9729(5) 0.3540(3)
H4 H 0.5144 0.9582 0.3666
C4 C 0.3089(4) 1.0754(5) 0.4095(3)
H5 H 0.3358 1.1278 0.4576
C5 C 0.1648(3) 1.0987(4) 0.3933(3)
H6 H 0.0929 1.1648 0.4313
C6 C 0.1284(3) 1.0220(4) 0.3191(3)
C7 C 0.0218(3) 0.9389(3) 0.2065(2)
C8 C -0.0829(3) 0.9177(4) 0.1366(2)
C9 C -0.2281(3) 0.9958(3) 0.1418(3)
H7 H -0.2634 1.0634 0.1923
C10 C -0.3174(3) 0.9708(4) 0.0708(3)
H8 H -0.4147 1.0218 0.0726
C11 C -0.2645(3) 0.8716(4) -0.0024(3)
H9 H -0.3247 0.8541 -0.0509
C12 C -0.1198(3) 0.7975(3) -0.0035(2)
C13 C -0.0546(3) 0.6907(3) -0.0812(2)
C14 C -0.0198(3) 0.5495(3) -0.2093(2)
C15 C -0.0325(3) 0.4745(4) -0.2952(3)
H10 H -0.1223 0.4863 -0.3225
C16 C 0.0900(4) 0.3825(4) -0.3388(3)
H11 H 0.0836 0.3317 -0.3969
C17 C 0.2262(3) 0.3638(4) -0.2967(3)
H12 H 0.3080 0.2998 -0.3270
C18 C 0.2402(3) 0.4384(4) -0.2115(3)
H13 H 0.3298 0.4261 -0.1836
C19 C 0.1163(3) 0.5318(3) -0.1696(2)
O1 O 0.6153(2) 0.2410(3) 0.2946(2)
O2 O 0.7970(2) 0.2170(3) 0.40003(18)
H14 H 0.8460 0.1739 0.3476
C20 C 0.4424(3) 0.4649(4) 0.4124(3)
H15 H 0.4035 0.4414 0.3523
C21 C 0.5803(3) 0.3894(3) 0.4407(2)
C22 C 0.6370(3) 0.4268(4) 0.5284(3)
H16 H 0.7300 0.3782 0.5476
C23 C 0.6644(3) 0.2755(4) 0.3714(3)
O1A O 0.3847(2) 0.7590(3) 0.7054(2)
O2A O 0.2030(2) 0.7830(3) 0.59997(18)
H14A H 0.1540 0.8261 0.6524
C20A C 0.5576(3) 0.5351(4) 0.5876(3)
H15A H 0.5965 0.5586 0.6477
C21A C 0.4197(3) 0.6106(3) 0.5593(2)
C22A C 0.3630(3) 0.5732(4) 0.4716(3)
H16A H 0.2700 0.6218 0.4524
C23A C 0.3356(3) 0.7245(4) 0.6286(3)
O3 O 0.4218(2) 0.3516(3) 0.1293(2)
H17 H 0.337(2) 0.341(5) 0.145(3)
H18 H 0.468(3) 0.319(5) 0.187(2)
O4 O 0.3381(2) 0.6469(4) 0.0495(3)
H19 H 0.410(4) 0.658(5) 0.087(3)
H20 H 0.392(5) 0.645(8) -0.019(2)
H21? H 0.350(8) 0.556(3) 0.074(6)
loop_
_geom_bond_atom_site_label_1
_geom_bond_atom_site_label_2
_geom_bond_site_symmetry_1
_geom_bond_site_symmetry_2
N1 H1 1_555 1_555
N2 C6 1_555 1_555
N3 C8 1_555 1_555
N4 C13 1_555 1_555
N5 H2 1_555 1_555
C1 N1 1_555 1_555
C2 C1 1_555 1_555
H3 C2 1_555 1_555
C3 C2 1_555 1_555
H4 C3 1_555 1_555
C4 C3 1_555 1_555
H5 C4 1_555 1_555
C5 C4 1_555 1_555
H6 C5 1_555 1_555
C6 C1 1_555 1_555
C7 N1 1_555 1_555
C8 C7 1_555 1_555
C9 C8 1_555 1_555
H7 C9 1_555 1_555
C10 C9 1_555 1_555
H8 C10 1_555 1_555
C11 C10 1_555 1_555
H9 C11 1_555 1_555
C12 N3 1_555 1_555
C13 N5 1_555 1_555
C14 N4 1_555 1_555
C15 C14 1_555 1_555
H10 C15 1_555 1_555
C16 C15 1_555 1_555
H11 C16 1_555 1_555
C17 C16 1_555 1_555
H12 C17 1_555 1_555
C18 C17 1_555 1_555
H13 C18 1_555 1_555
C19 N5 1_555 1_555
O1 C23 1_555 1_555
O2 H14 1_555 1_555
C20 H15 1_555 1_555
C21 C20 1_555 1_555
C22 C21 1_555 1_555
H16 C22 1_555 1_555
C23 O2 1_555 1_555
O3 H17 1_555 1_555
H18 O3 1_555 1_555
O4 H19 1_555 1_555
H20 O4 1_555 1_555
O1A C23A 1_555 1_555
O2A H14A 1_555 1_555
C20A C22 1_555 1_555
H15A C20A 1_555 1_555
C21A C20A 1_555 1_555
C22A C20 1_555 1_555
H16A C22A 1_555 1_555
C23A O2A 1_555 1_555
N2 C7 1_555 1_555
C5 C6 1_555 1_555
C11 C12 1_555 1_555
C12 C13 1_555 1_555
C14 C19 1_555 1_555
C18 C19 1_555 1_555
C21 C23 1_555 1_555
C21A C22A 1_555 1_555
C21A C23A 1_555 1_555

#END
