
#######################################################################
#
#                 Cambridge Crystallographic Data Centre
#                                CCDC 
#
#######################################################################
#
# If this CIF has been generated from an entry in the Cambridge 
# Structural Database, then it will include bibliographic, chemical, 
# crystal, experimental, refinement or atomic coordinate data resulting 
# from the CCDC's data processing and validation procedures.
#
#######################################################################

data_FAFSOV
_chemical_formula_moiety         'C16 H16 O3'
_chemical_name_systematic        
5-Acetyl-3a-hydroxy-4-phenyl-3,3a,6,6a-tetrahydro-2H-pentalen-1-one
_symmetry_cell_setting           monoclinic
_symmetry_space_group_name_H-M   'P 21/c'
_symmetry_Int_Tables_number      14
_space_group_name_Hall           '-P 2ybc'
loop_
_symmetry_equiv_pos_site_id
_symmetry_equiv_pos_as_xyz
1 x,y,z
2 x,1/2-y,1/2+z
3 -x,-y,-z
4 -x,1/2+y,1/2-z
_cell_length_a                   7.395(1)
_cell_length_b                   10.65
_cell_length_c                   16.25
_cell_angle_alpha                90
_cell_angle_beta                 99.52
_cell_angle_gamma                90
_cell_volume                     1262.17
_exptl_crystal_colour            colorless
_exptl_crystal_description       rhombic
_cell_formula_units_Z            4
_exptl_crystal_recrystallization_method dichloromethane/pentane
loop_
_atom_site_label
_atom_site_type_symbol
_atom_site_fract_x
_atom_site_fract_y
_atom_site_fract_z
O1 O 0.201 0.144 0.289
O2 O 0.175 0.588 0.254
O3 O -0.233 0.434 0.464
C1 C 0.221 0.485 0.283
C2 C 0.407 0.453 0.332
C3 C 0.418 0.311 0.329
C4 C 0.219 0.267 0.325
C5 C 0.155 0.267 0.410
C6 C 0.000 0.334 0.408
C7 C -0.067 0.389 0.322
C8 C 0.098 0.370 0.277
C9 C -0.105 0.360 0.477
C10 C -0.053 0.299 0.561
C11 C 0.260 0.195 0.481
C12 C 0.398 0.252 0.537
C13 C 0.494 0.183 0.603
C14 C 0.454 0.058 0.613
C15 C 0.316 0.001 0.558
C16 C 0.221 0.068 0.491
H1 H 0.09(1) 0.12 0.28
H2 H 0.501 0.491 0.307
H3 H 0.416 0.481 0.388
H4 H 0.464 0.284 0.280
H5 H 0.494 0.279 0.377
H6 H -0.096 0.475 0.326
H7 H -0.172 0.344 0.295
H8 H 0.059 0.346 0.220
H9 H -0.13 0.33 0.60
H10 H -0.05 0.20 0.56
H11 H 0.07 0.33 0.59
H12 H 0.426 0.338 0.530
H13 H 0.589 0.222 0.641
H14 H 0.520 0.012 0.658
H15 H 0.287 -0.085 0.565
H16 H 0.128 0.028 0.453
loop_
_geom_bond_atom_site_label_1
_geom_bond_atom_site_label_2
_geom_bond_site_symmetry_1
_geom_bond_site_symmetry_2
O1 C4 1_555 1_555
O2 C1 1_555 1_555
O3 C9 1_555 1_555
C1 C2 1_555 1_555
C2 C3 1_555 1_555
C3 C4 1_555 1_555
C4 C5 1_555 1_555
C5 C6 1_555 1_555
C6 C7 1_555 1_555
C7 C8 1_555 1_555
C8 C1 1_555 1_555
C9 C6 1_555 1_555
C10 C9 1_555 1_555
C11 C5 1_555 1_555
C12 C11 1_555 1_555
C13 C12 1_555 1_555
C14 C13 1_555 1_555
C15 C14 1_555 1_555
C16 C11 1_555 1_555
H1 O1 1_555 1_555
H2 C2 1_555 1_555
H3 C2 1_555 1_555
H4 C3 1_555 1_555
H5 C3 1_555 1_555
H6 C7 1_555 1_555
H7 C7 1_555 1_555
H8 C8 1_555 1_555
H9 C10 1_555 1_555
H10 C10 1_555 1_555
H11 C10 1_555 1_555
H12 C12 1_555 1_555
H13 C13 1_555 1_555
H14 C14 1_555 1_555
H15 C15 1_555 1_555
H16 C16 1_555 1_555
C4 C8 1_555 1_555
C15 C16 1_555 1_555

#END
