
#######################################################################
#
#                 Cambridge Crystallographic Data Centre
#                                CCDC 
#
#######################################################################
#
# If this CIF has been generated from an entry in the Cambridge 
# Structural Database, then it will include bibliographic, chemical, 
# crystal, experimental, refinement or atomic coordinate data resulting 
# from the CCDC's data processing and validation procedures.
#
#######################################################################

data_FAFWIS
_chemical_name_common            Diflunisal
_chemical_formula_moiety         'C13 H8 F2 O3'
_chemical_name_systematic        
"2',4'-Difluoro-4-hydroxy-3-biphenylcarboxylic acid"
_chemical_properties_biological  'non-steroidal antiinflammatory drug'
_symmetry_cell_setting           monoclinic
_symmetry_space_group_name_H-M   'C 2/c'
_symmetry_Int_Tables_number      15
_space_group_name_Hall           '-C 2yn'
loop_
_symmetry_equiv_pos_site_id
_symmetry_equiv_pos_as_xyz
1 x,y,z
2 -x,y,1/2-z
3 1/2+x,1/2+y,z
4 1/2-x,1/2+y,1/2-z
5 -x,-y,-z
6 x,-y,1/2+z
7 1/2-x,1/2-y,-z
8 1/2+x,1/2-y,1/2+z
_cell_length_a                   34.666(6)
_cell_length_b                   3.743(1)
_cell_length_c                   20.737(4)
_cell_angle_alpha                90
_cell_angle_beta                 110.57(2)
_cell_angle_gamma                90
_cell_volume                     2519.18
_exptl_crystal_colour            colorless
_exptl_crystal_description       prism
_cell_formula_units_Z            8
_exptl_crystal_recrystallization_method acetone/water
loop_
_atom_site_label
_atom_site_type_symbol
_atom_site_fract_x
_atom_site_fract_y
_atom_site_fract_z
F1 F 0.5427(1) 0.2321(12) 0.0154(1)
F2 F 0.6480(2) 0.0215(19) 0.2235(3)
O1 O 0.7168(1) 0.6566(14) 0.4114(2)
O2 O 0.7100(1) 0.5814(13) 0.5132(2)
O3 O 0.6413(1) 0.3149(14) 0.5181(2)
C1 C 0.6007(1) 0.2715(14) 0.3042(2)
C2 C 0.6394(2) 0.3998(15) 0.3406(2)
C3 C 0.6543(1) 0.4176(15) 0.4126(2)
C4 C 0.6295(2) 0.3039(16) 0.4485(2)
C5 C 0.5899(2) 0.1761(17) 0.4124(3)
C6 C 0.5764(2) 0.1601(16) 0.3415(3)
C7 C 0.5851(1) 0.2584(14) 0.2279(2)
C8 C 0.6093(1) 0.1399(16) 0.1915(3)
C9 C 0.5952(2) 0.1326(19) 0.1204(3)
C10 C 0.5564(2) 0.2416(17) 0.0854(3)
C11 C 0.5307(2) 0.3594(19) 0.1175(3)
C12 C 0.5456(1) 0.3678(16) 0.1886(2)
C13 C 0.6958(2) 0.5581(16) 0.4497(3)
F3? F 0.5200(2) 0.5119(18) 0.2179(3)
loop_
_geom_bond_atom_site_label_1
_geom_bond_atom_site_label_2
_geom_bond_site_symmetry_1
_geom_bond_site_symmetry_2
F1 C10 1_555 1_555
F2 C8 1_555 1_555
O1 C13 1_555 1_555
O2 C13 1_555 1_555
O3 C4 1_555 1_555
C1 C2 1_555 1_555
C2 C3 1_555 1_555
C3 C4 1_555 1_555
C4 C5 1_555 1_555
C5 C6 1_555 1_555
C6 C1 1_555 1_555
C7 C1 1_555 1_555
C8 C7 1_555 1_555
C9 C8 1_555 1_555
C10 C9 1_555 1_555
C11 C10 1_555 1_555
C12 C7 1_555 1_555
C13 C3 1_555 1_555
C11 C12 1_555 1_555

#END
