
#######################################################################
#
#                 Cambridge Crystallographic Data Centre
#                                CCDC 
#
#######################################################################
#
# If this CIF has been generated from an entry in the Cambridge 
# Structural Database, then it will include bibliographic, chemical, 
# crystal, experimental, refinement or atomic coordinate data resulting 
# from the CCDC's data processing and validation procedures.
#
#######################################################################

data_FAFYOD
_chemical_formula_moiety         'C34 H24 N1 P1'
_chemical_name_systematic        
7-(2-(diphenylphosphino)phenyl)-7H-benzo[c]carbazole
_symmetry_cell_setting           triclinic
_symmetry_space_group_name_H-M   'P -1'
_symmetry_Int_Tables_number      2
_space_group_name_Hall           '-P 1'
loop_
_symmetry_equiv_pos_site_id
_symmetry_equiv_pos_as_xyz
1 x,y,z
2 -x,-y,-z
_cell_length_a                   9.9764(5)
_cell_length_b                   11.8382(6)
_cell_length_c                   12.5698(6)
_cell_angle_alpha                115.716(2)
_cell_angle_beta                 100.125(2)
_cell_angle_gamma                93.876(2)
_cell_volume                     1299.22
_exptl_crystal_colour            colorless
_exptl_crystal_description       block
_chemical_melting_point          '421 K'
_cell_formula_units_Z            2
_chemical_properties_physical    Air-sensitive
_exptl_crystal_recrystallization_method chloroform/hexane
loop_
_atom_site_label
_atom_site_type_symbol
_atom_site_fract_x
_atom_site_fract_y
_atom_site_fract_z
P1 P 0.28208(4) 0.70250(3) 0.44492(3)
N1 N 0.20001(10) 0.62578(9) 0.17568(9)
C1 C 0.25370(12) 0.53969(10) 0.32060(10)
C2 C 0.21416(12) 0.52012(11) 0.20077(10)
C3 C 0.18972(15) 0.39900(13) 0.10440(11)
H1 H 0.1631 0.3878 0.0253
C4 C 0.20478(15) 0.29542(12) 0.12578(12)
H2 H 0.1894 0.2143 0.0611
C5 C 0.24267(14) 0.31215(11) 0.24295(12)
H3 H 0.2520 0.2422 0.2576
C6 C 0.26679(14) 0.43267(11) 0.33879(11)
H4 H 0.2925 0.4426 0.4175
C7 C 0.29503(12) 0.68081(12) 0.13705(10)
C8 C 0.42036(14) 0.64473(15) 0.11146(13)
H5 H 0.4496 0.5743 0.1173
C9 C 0.49873(15) 0.71728(17) 0.07733(15)
H6 H 0.5829 0.6956 0.0598
C10 C 0.45537(16) 0.82172(17) 0.06842(15)
H7 H 0.5114 0.8691 0.0455
C11 C 0.33109(14) 0.85769(14) 0.09258(13)
H8 H 0.3033 0.9282 0.0858
C12 C 0.24745(12) 0.78597(11) 0.12758(10)
C13 C 0.11668(11) 0.79423(10) 0.16231(9)
C14 C 0.01923(12) 0.87904(10) 0.17373(10)
C15 C 0.03190(15) 0.98170(12) 0.14494(13)
H9 H 0.1082 0.9969 0.1170
C16 C -0.06624(18) 1.05903(14) 0.15760(16)
H10 H -0.0559 1.1258 0.1378
C17 C -0.18080(18) 1.03926(15) 0.19951(17)
H11 H -0.2469 1.0924 0.2077
C18 C -0.19625(16) 0.94158(15) 0.22877(14)
H12 H -0.2727 0.9296 0.2579
C19 C -0.09845(13) 0.85820(12) 0.21581(11)
C20 C -0.11800(13) 0.75392(14) 0.24203(12)
H13 H -0.1966 0.7410 0.2682
C21 C -0.02597(13) 0.67240(12) 0.23014(11)
H14 H -0.0405 0.6043 0.2473
C22 C 0.09209(12) 0.69451(11) 0.19096(10)
C23 C 0.46829(16) 0.74951(11) 0.47184(11)
C24 C 0.56010(16) 0.66856(13) 0.42677(13)
H15 H 0.5270 0.5827 0.3765
C25 C 0.70009(19) 0.71214(17) 0.45456(15)
H16 H 0.7599 0.6557 0.4234
C26 C 0.7508(2) 0.8384(2) 0.52804(16)
H17 H 0.8449 0.8680 0.5468
C27 C 0.6625(3) 0.91991(19) 0.57313(18)
H18 H 0.6969 1.0056 0.6231
C28 C 0.5223(2) 0.87773(15) 0.54605(16)
H19 H 0.4635 0.9352 0.5775
C29 C 0.27037(14) 0.66825(12) 0.57248(11)
C30 C 0.38347(15) 0.67316(14) 0.65617(12)
H20 H 0.4717 0.6912 0.6470
C31 C 0.36808(18) 0.65164(17) 0.75364(14)
H21 H 0.4459 0.6562 0.8092
C32 C 0.2400(2) 0.62390(17) 0.76905(16)
H22 H 0.2303 0.6096 0.8346
C33 C 0.12612(18) 0.61743(16) 0.68675(17)
H23 H 0.0385 0.5977 0.6961
C34 C 0.14022(16) 0.63998(15) 0.58956(16)
H24 H 0.0618 0.6362 0.5350
loop_
_geom_bond_atom_site_label_1
_geom_bond_atom_site_label_2
_geom_bond_site_symmetry_1
_geom_bond_site_symmetry_2
P1 C1 1_555 1_555
N1 C2 1_555 1_555
C1 C2 1_555 1_555
C2 C3 1_555 1_555
C3 H1 1_555 1_555
C4 C3 1_555 1_555
H2 C4 1_555 1_555
C5 C4 1_555 1_555
H3 C5 1_555 1_555
C6 C1 1_555 1_555
H4 C6 1_555 1_555
C7 N1 1_555 1_555
C8 C7 1_555 1_555
H5 C8 1_555 1_555
C9 C8 1_555 1_555
H6 C9 1_555 1_555
C10 C9 1_555 1_555
H7 C10 1_555 1_555
C11 C10 1_555 1_555
H8 C11 1_555 1_555
C12 C7 1_555 1_555
C13 C12 1_555 1_555
C14 C13 1_555 1_555
C15 C14 1_555 1_555
H9 C15 1_555 1_555
C16 C15 1_555 1_555
H10 C16 1_555 1_555
C17 C16 1_555 1_555
H11 C17 1_555 1_555
C18 C17 1_555 1_555
H12 C18 1_555 1_555
C19 C14 1_555 1_555
C20 C19 1_555 1_555
H13 C20 1_555 1_555
C21 C20 1_555 1_555
H14 C21 1_555 1_555
C22 N1 1_555 1_555
C23 P1 1_555 1_555
C24 C23 1_555 1_555
H15 C24 1_555 1_555
C25 C24 1_555 1_555
H16 C25 1_555 1_555
C26 C25 1_555 1_555
H17 C26 1_555 1_555
C27 C26 1_555 1_555
H18 C27 1_555 1_555
C28 C23 1_555 1_555
H19 C28 1_555 1_555
C29 P1 1_555 1_555
C30 C29 1_555 1_555
H20 C30 1_555 1_555
C31 C30 1_555 1_555
H21 C31 1_555 1_555
C32 C31 1_555 1_555
H22 C32 1_555 1_555
C33 C32 1_555 1_555
H23 C33 1_555 1_555
C34 C29 1_555 1_555
H24 C34 1_555 1_555
C5 C6 1_555 1_555
C11 C12 1_555 1_555
C13 C22 1_555 1_555
C18 C19 1_555 1_555
C21 C22 1_555 1_555
C27 C28 1_555 1_555
C33 C34 1_555 1_555

#END
