
#######################################################################
#
#                 Cambridge Crystallographic Data Centre
#                                CCDC 
#
#######################################################################
#
# If this CIF has been generated from an entry in the Cambridge 
# Structural Database, then it will include bibliographic, chemical, 
# crystal, experimental, refinement or atomic coordinate data resulting 
# from the CCDC's data processing and validation procedures.
#
#######################################################################

data_FAGMUX
_chemical_formula_moiety         'C75 H108 N6 O6,2(C2 H3 N1),C1 H4 O1'
_chemical_name_systematic        
'rac-tris(1-(2-(3,5-di-t-butylsalicylaldimino)cyclohexyliminio)ethyl)benzene-1,3,5-triolate acetonitrile methanol solvate'
_symmetry_cell_setting           monoclinic
_symmetry_space_group_name_H-M   'P 21/n'
_symmetry_Int_Tables_number      14
_space_group_name_Hall           '-P 2yn'
loop_
_symmetry_equiv_pos_site_id
_symmetry_equiv_pos_as_xyz
1 x,y,z
2 1/2-x,1/2+y,1/2-z
3 -x,-y,-z
4 1/2+x,1/2-y,1/2+z
_cell_length_a                   16.2391(6)
_cell_length_b                   19.4933(7)
_cell_length_c                   25.6868(10)
_cell_angle_alpha                90
_cell_angle_beta                 106.2800(10)
_cell_angle_gamma                90
_cell_volume                     7805.21
_exptl_crystal_colour            yellow
_exptl_crystal_description       column
_cell_formula_units_Z            4
_exptl_crystal_recrystallization_method methanol/acetonitrile/dichloromethane
loop_
_atom_site_label
_atom_site_type_symbol
_atom_site_fract_x
_atom_site_fract_y
_atom_site_fract_z
O1 O 0.0362(2) 0.61336(15) 0.81154(11)
O2 O -0.15917(19) 0.85060(15) 0.67333(13)
H1 H -0.130(3) 0.846(2) 0.707(2)
O3 O 0.1185(2) 0.68000(15) 0.65684(13)
O4 O 0.43853(19) 0.55381(15) 0.68978(12)
H2 H 0.402(3) 0.572(2) 0.6582(19)
O5 O 0.0256(3) 0.45691(17) 0.67040(15)
O6 O 0.02477(19) 0.32930(17) 0.93023(12)
H3 H 0.004(3) 0.319(3) 0.899(2)
N1 N 0.0763(2) 0.73711(17) 0.80188(13)
H4 H 0.067(3) 0.696(2) 0.8201(16)
N2 N -0.0881(2) 0.80167(17) 0.76817(13)
N3 N 0.1481(2) 0.58984(19) 0.59564(14)
H5 H 0.132(3) 0.633(2) 0.6045(17)
N4 N 0.3242(2) 0.62354(18) 0.61733(13)
N5 N -0.0411(2) 0.42464(18) 0.74234(15)
H6 H -0.019(3) 0.422(2) 0.7075(18)
N6 N 0.0071(2) 0.31780(17) 0.82697(13)
C1 C 0.0423(3) 0.6009(2) 0.76395(16)
C2 C 0.0713(2) 0.65357(19) 0.73341(15)
C3 C 0.0925(3) 0.6350(2) 0.68371(16)
C4 C 0.0876(3) 0.5647(2) 0.66710(15)
C5 C 0.0439(3) 0.5153(2) 0.69195(17)
C6 C 0.0183(3) 0.53403(19) 0.73984(15)
C7 C 0.0792(2) 0.7231(2) 0.75185(15)
C8 C 0.0875(3) 0.7820(2) 0.71638(17)
H7 H 0.0792 0.8252 0.7338
H8 H 0.0441 0.7779 0.6813
H9 H 0.1448 0.7815 0.7108
C9 C 0.0610(3) 0.8034(2) 0.82417(16)
H10 H 0.0737 0.8409 0.8010
C10 C 0.1188(3) 0.8116(3) 0.88150(18)
H11 H 0.1796 0.8094 0.8813
H12 H 0.1081 0.7738 0.9044
C11 C 0.1016(3) 0.8800(3) 0.90496(19)
H13 H 0.1149 0.9179 0.8830
H14 H 0.1393 0.8847 0.9424
C12 C 0.0077(3) 0.8849(2) 0.90531(19)
H15 H -0.0044 0.8493 0.9297
H16 H -0.0031 0.9303 0.9193
C13 C -0.0514(3) 0.8749(2) 0.84847(18)
H17 H -0.0437 0.9135 0.8253
H18 H -0.1117 0.8753 0.8498
C14 C -0.0336(3) 0.8076(2) 0.82343(16)
H19 H -0.0466 0.7687 0.8453
C15 C -0.1234(3) 0.7439(2) 0.75114(17)
H20 H -0.1127 0.7059 0.7753
C16 C 0.1248(3) 0.5436(2) 0.62548(17)
C17 C 0.1429(6) 0.4702(3) 0.6152(3)
H21 H 0.0926 0.4501 0.5892
H22 H 0.1559 0.4445 0.6493
H23 H 0.1922 0.4680 0.6002
C18 C 0.1927(3) 0.5814(2) 0.55400(16)
H24 H 0.2184 0.5344 0.5570
C19 C 0.1302(3) 0.5901(3) 0.49766(17)
H25 H 0.0859 0.5538 0.4914
H26 H 0.1011 0.6351 0.4954
C20 C 0.1768(4) 0.5859(3) 0.45427(19)
H27 H 0.2008 0.5393 0.4541
H28 H 0.1356 0.5942 0.4183
C21 C 0.2479(4) 0.6375(3) 0.46374(19)
H29 H 0.2233 0.6843 0.4600
H30 H 0.2789 0.6317 0.4359
C22 C 0.3106(3) 0.6297(3) 0.51966(18)
H31 H 0.3549 0.6659 0.5252
H32 H 0.3396 0.5847 0.5222
C23 C 0.2649(3) 0.6349(2) 0.56393(16)
H33 H 0.2393 0.6817 0.5629
C24 C 0.3190(3) 0.6629(2) 0.65613(17)
H34 H 0.2804 0.7005 0.6479
C25 C -0.0303(3) 0.4868(2) 0.76179(16)
C26 C -0.0747(4) 0.5055(3) 0.8034(2)
H35 H -0.1332 0.4872 0.7926
H36 H -0.0768 0.5556 0.8063
H37 H -0.0432 0.4861 0.8385
C27 C -0.0983(3) 0.36913(19) 0.74879(16)
H38 H -0.1315 0.3836 0.7743
C28 C -0.1594(3) 0.3537(2) 0.69316(17)
H39 H -0.1965 0.3942 0.6805
H40 H -0.1258 0.3454 0.6671
C29 C -0.2153(3) 0.2916(2) 0.69428(19)
H41 H -0.2527 0.3013 0.7179
H42 H -0.2525 0.2825 0.6572
C30 C -0.1615(3) 0.2294(2) 0.71497(18)
H43 H -0.1281 0.2171 0.6895
H44 H -0.1992 0.1902 0.7170
C31 C -0.1004(3) 0.2431(2) 0.77087(17)
H45 H -0.0637 0.2023 0.7828
H46 H -0.1342 0.2505 0.7970
C32 C -0.0434(3) 0.3056(2) 0.77145(15)
H47 H -0.0040 0.2958 0.7486
C33 C 0.0884(3) 0.3257(2) 0.83790(16)
H48 H 0.1138 0.3248 0.8088
C34 C -0.1963(3) 0.7884(2) 0.65909(18)
C35 C -0.1793(2) 0.7342(2) 0.69643(16)
C36 C -0.2192(3) 0.6707(2) 0.68168(17)
H49 H -0.2066 0.6340 0.7070
C37 C -0.2761(3) 0.6601(2) 0.63167(17)
C38 C -0.2903(3) 0.7151(2) 0.59516(18)
H50 H -0.3296 0.7084 0.5604
C39 C -0.2511(3) 0.7788(2) 0.60627(17)
C40 C -0.2654(3) 0.8355(2) 0.5634(2)
C41 C -0.3053(4) 0.8986(3) 0.5827(2)
H51 H -0.3600 0.8858 0.5891
H52 H -0.3152 0.9345 0.5549
H53 H -0.2661 0.9159 0.6165
C42 C -0.3265(4) 0.8118(3) 0.5092(2)
H54 H -0.3822 0.7998 0.5144
H55 H -0.3022 0.7715 0.4960
H56 H -0.3339 0.8489 0.4825
C43 C -0.1783(3) 0.8538(3) 0.5531(2)
H57 H -0.1379 0.8691 0.5871
H58 H -0.1868 0.8906 0.5261
H59 H -0.1552 0.8132 0.5396
C44 C -0.3259(3) 0.5923(2) 0.61537(18)
C45 C -0.4156(3) 0.6006(3) 0.6207(3)
H60 H -0.4473 0.5576 0.6104
H61 H -0.4449 0.6376 0.5967
H62 H -0.4127 0.6119 0.6583
C46 C -0.2825(4) 0.5331(3) 0.6515(2)
H63 H -0.3155 0.4909 0.6402
H64 H -0.2798 0.5433 0.6893
H65 H -0.2242 0.5269 0.6482
C47 C -0.3321(5) 0.5729(3) 0.5572(2)
H66 H -0.3639 0.5298 0.5481
H67 H -0.2743 0.5672 0.5531
H68 H -0.3621 0.6093 0.5328
C48 C 0.4270(3) 0.5988(2) 0.72736(16)
C49 C 0.3693(2) 0.6532(2) 0.71251(16)
C50 C 0.3556(3) 0.6984(2) 0.75190(16)
H69 H 0.3152 0.7346 0.7411
C51 C 0.3999(3) 0.6910(2) 0.80596(16)
C52 C 0.4581(3) 0.6369(2) 0.81934(16)
H70 H 0.4898 0.6320 0.8563
C53 C 0.4734(2) 0.5893(2) 0.78246(16)
C54 C 0.5342(3) 0.5279(2) 0.80106(17)
C55 C 0.6054(3) 0.5282(2) 0.7729(2)
H71 H 0.6432 0.4887 0.7852
H72 H 0.6387 0.5707 0.7819
H73 H 0.5800 0.5255 0.7335
C56 C 0.5755(3) 0.5288(2) 0.86219(19)
H74 H 0.6135 0.4891 0.8726
H75 H 0.5307 0.5268 0.8810
H76 H 0.6088 0.5711 0.8723
C57 C 0.4817(3) 0.4618(2) 0.78734(19)
H77 H 0.5196 0.4221 0.7989
H78 H 0.4551 0.4594 0.7481
H79 H 0.4370 0.4615 0.8062
C58 C 0.3864(3) 0.7380(2) 0.85107(17)
C59 C 0.3205(3) 0.7940(2) 0.82825(19)
H80 H 0.3135 0.8229 0.8579
H81 H 0.2653 0.7728 0.8096
H82 H 0.3402 0.8222 0.8025
C60 C 0.4707(3) 0.7735(3) 0.88055(18)
H83 H 0.4614 0.8032 0.9092
H84 H 0.4907 0.8012 0.8546
H85 H 0.5140 0.7388 0.8967
C61 C 0.3541(3) 0.6949(2) 0.89090(19)
H86 H 0.3454 0.7244 0.9198
H87 H 0.3965 0.6594 0.9067
H88 H 0.2996 0.6732 0.8717
C62 C 0.1100(3) 0.3382(2) 0.93742(17)
C63 C 0.1434(3) 0.3361(2) 0.89222(16)
C64 C 0.2313(3) 0.3456(2) 0.89981(17)
H89 H 0.2533 0.3435 0.8693
C65 C 0.2869(3) 0.3578(2) 0.95008(17)
C66 C 0.2501(3) 0.3605(2) 0.99388(17)
H90 H 0.2875 0.3690 1.0290
C67 C 0.1646(3) 0.3517(2) 0.98959(16)
C68 C 0.3842(3) 0.3670(3) 0.95829(18)
C69 C 0.4295(4) 0.4029(5) 1.0082(3)
H91 H 0.4067 0.4495 1.0076
H92 H 0.4909 0.4051 1.0109
H93 H 0.4213 0.3781 1.0396
C70 C 0.4052(4) 0.3909(5) 0.9098(2)
H94 H 0.3839 0.4378 0.9014
H95 H 0.3783 0.3607 0.8793
H96 H 0.4676 0.3902 0.9161
C71 C 0.4258(4) 0.2908(4) 0.9629(3)
H97 H 0.4879 0.2945 0.9683
H98 H 0.3999 0.2652 0.9295
H99 H 0.4149 0.2666 0.9938
C72 C 0.1278(3) 0.3568(3) 1.03877(17)
C73 C 0.1980(3) 0.3725(3) 1.09142(18)
H100 H 0.2258 0.4161 1.0876
H101 H 0.2408 0.3356 1.0987
H102 H 0.1723 0.3757 1.1216
C74 C 0.0865(3) 0.2879(3) 1.04688(19)
H103 H 0.0412 0.2763 1.0139
H104 H 0.0617 0.2917 1.0774
H105 H 0.1303 0.2518 1.0545
C75 C 0.0624(3) 0.4147(3) 1.03081(19)
H106 H 0.0896 0.4581 1.0257
H107 H 0.0411 0.4180 1.0629
H108 H 0.0143 0.4051 0.9988
C76 C -0.0850(4) 0.6542(4) 0.5781(3)
H109 H -0.0327 0.6804 0.5802
H110 H -0.0696 0.6086 0.5940
H111 H -0.1193 0.6783 0.5983
C77 C -0.1339(4) 0.6472(4) 0.5225(3)
N7 N -0.1735(5) 0.6486(4) 0.4814(3)
C78 C 0.2589(4) 0.5394(3) 0.7951(3)
H112 H 0.2278 0.5538 0.8209
H113 H 0.2400 0.5670 0.7620
H114 H 0.3206 0.5460 0.8114
C79 C 0.2421(4) 0.4694(3) 0.7822(3)
N8 N 0.2298(4) 0.4143(3) 0.7751(2)
O7 O 0.1481(8) 0.5196(6) 0.9131(5)
C80 C 0.2415(8) 0.5352(7) 0.9279(6)
H115 H 0.2505 0.5842 0.9358
H116 H 0.2644 0.5229 0.8976
H117 H 0.2713 0.5086 0.9601
loop_
_geom_bond_atom_site_label_1
_geom_bond_atom_site_label_2
_geom_bond_site_symmetry_1
_geom_bond_site_symmetry_2
O1 C1 1_555 1_555
O2 H1 1_555 1_555
O3 C3 1_555 1_555
O4 H2 1_555 1_555
O5 C5 1_555 1_555
O6 H3 1_555 1_555
N1 H4 1_555 1_555
N2 C14 1_555 1_555
N3 H5 1_555 1_555
N4 C23 1_555 1_555
N5 H6 1_555 1_555
N6 C32 1_555 1_555
C1 C2 1_555 1_555
C2 C3 1_555 1_555
C3 C4 1_555 1_555
C4 C5 1_555 1_555
C5 C6 1_555 1_555
C6 C1 1_555 1_555
C7 N1 1_555 1_555
C8 C7 1_555 1_555
H7 C8 1_555 1_555
H8 C8 1_555 1_555
H9 C8 1_555 1_555
C9 N1 1_555 1_555
H10 C9 1_555 1_555
C10 C9 1_555 1_555
H11 C10 1_555 1_555
H12 C10 1_555 1_555
C11 C10 1_555 1_555
H13 C11 1_555 1_555
H14 C11 1_555 1_555
C12 C11 1_555 1_555
H15 C12 1_555 1_555
H16 C12 1_555 1_555
C13 C12 1_555 1_555
H17 C13 1_555 1_555
H18 C13 1_555 1_555
C14 C9 1_555 1_555
H19 C14 1_555 1_555
C15 N2 1_555 1_555
H20 C15 1_555 1_555
C16 N3 1_555 1_555
C17 C16 1_555 1_555
H21 C17 1_555 1_555
H22 C17 1_555 1_555
H23 C17 1_555 1_555
C18 N3 1_555 1_555
H24 C18 1_555 1_555
C19 C18 1_555 1_555
H25 C19 1_555 1_555
H26 C19 1_555 1_555
C20 C19 1_555 1_555
H27 C20 1_555 1_555
H28 C20 1_555 1_555
C21 C20 1_555 1_555
H29 C21 1_555 1_555
H30 C21 1_555 1_555
C22 C21 1_555 1_555
H31 C22 1_555 1_555
H32 C22 1_555 1_555
C23 C18 1_555 1_555
H33 C23 1_555 1_555
C24 N4 1_555 1_555
H34 C24 1_555 1_555
C25 N5 1_555 1_555
C26 C25 1_555 1_555
H35 C26 1_555 1_555
H36 C26 1_555 1_555
H37 C26 1_555 1_555
C27 N5 1_555 1_555
H38 C27 1_555 1_555
C28 C27 1_555 1_555
H39 C28 1_555 1_555
H40 C28 1_555 1_555
C29 C28 1_555 1_555
H41 C29 1_555 1_555
H42 C29 1_555 1_555
C30 C29 1_555 1_555
H43 C30 1_555 1_555
H44 C30 1_555 1_555
C31 C30 1_555 1_555
H45 C31 1_555 1_555
H46 C31 1_555 1_555
C32 C27 1_555 1_555
H47 C32 1_555 1_555
C33 N6 1_555 1_555
H48 C33 1_555 1_555
C34 O2 1_555 1_555
C35 C15 1_555 1_555
C36 C35 1_555 1_555
H49 C36 1_555 1_555
C37 C36 1_555 1_555
C38 C37 1_555 1_555
H50 C38 1_555 1_555
C39 C34 1_555 1_555
C40 C39 1_555 1_555
C41 C40 1_555 1_555
H51 C41 1_555 1_555
H52 C41 1_555 1_555
H53 C41 1_555 1_555
C42 C40 1_555 1_555
H54 C42 1_555 1_555
H55 C42 1_555 1_555
H56 C42 1_555 1_555
C43 C40 1_555 1_555
H57 C43 1_555 1_555
H58 C43 1_555 1_555
H59 C43 1_555 1_555
C44 C37 1_555 1_555
C45 C44 1_555 1_555
H60 C45 1_555 1_555
H61 C45 1_555 1_555
H62 C45 1_555 1_555
C46 C44 1_555 1_555
H63 C46 1_555 1_555
H64 C46 1_555 1_555
H65 C46 1_555 1_555
C47 C44 1_555 1_555
H66 C47 1_555 1_555
H67 C47 1_555 1_555
H68 C47 1_555 1_555
C48 O4 1_555 1_555
C49 C24 1_555 1_555
C50 C49 1_555 1_555
H69 C50 1_555 1_555
C51 C50 1_555 1_555
C52 C51 1_555 1_555
H70 C52 1_555 1_555
C53 C48 1_555 1_555
C54 C53 1_555 1_555
C55 C54 1_555 1_555
H71 C55 1_555 1_555
H72 C55 1_555 1_555
H73 C55 1_555 1_555
C56 C54 1_555 1_555
H74 C56 1_555 1_555
H75 C56 1_555 1_555
H76 C56 1_555 1_555
C57 C54 1_555 1_555
H77 C57 1_555 1_555
H78 C57 1_555 1_555
H79 C57 1_555 1_555
C58 C51 1_555 1_555
C59 C58 1_555 1_555
H80 C59 1_555 1_555
H81 C59 1_555 1_555
H82 C59 1_555 1_555
C60 C58 1_555 1_555
H83 C60 1_555 1_555
H84 C60 1_555 1_555
H85 C60 1_555 1_555
C61 C58 1_555 1_555
H86 C61 1_555 1_555
H87 C61 1_555 1_555
H88 C61 1_555 1_555
C62 O6 1_555 1_555
C63 C33 1_555 1_555
C64 C63 1_555 1_555
H89 C64 1_555 1_555
C65 C64 1_555 1_555
C66 C65 1_555 1_555
H90 C66 1_555 1_555
C67 C62 1_555 1_555
C68 C65 1_555 1_555
C69 C68 1_555 1_555
H91 C69 1_555 1_555
H92 C69 1_555 1_555
H93 C69 1_555 1_555
C70 C68 1_555 1_555
H94 C70 1_555 1_555
H95 C70 1_555 1_555
H96 C70 1_555 1_555
C71 C68 1_555 1_555
H97 C71 1_555 1_555
H98 C71 1_555 1_555
H99 C71 1_555 1_555
C72 C67 1_555 1_555
C73 C72 1_555 1_555
H100 C73 1_555 1_555
H101 C73 1_555 1_555
H102 C73 1_555 1_555
C74 C72 1_555 1_555
H103 C74 1_555 1_555
H104 C74 1_555 1_555
H105 C74 1_555 1_555
C75 C72 1_555 1_555
H106 C75 1_555 1_555
H107 C75 1_555 1_555
H108 C75 1_555 1_555
C76 H109 1_555 1_555
H110 C76 1_555 1_555
H111 C76 1_555 1_555
C77 C76 1_555 1_555
N7 C77 1_555 1_555
C78 H112 1_555 1_555
H113 C78 1_555 1_555
H114 C78 1_555 1_555
C79 C78 1_555 1_555
N8 C79 1_555 1_555
O7 C80 1_555 1_555
C80 H115 1_555 1_555
H116 C80 1_555 1_555
H117 C80 1_555 1_555
C2 C7 1_555 1_555
C4 C16 1_555 1_555
C6 C25 1_555 1_555
C13 C14 1_555 1_555
C22 C23 1_555 1_555
C31 C32 1_555 1_555
C34 C35 1_555 1_555
C38 C39 1_555 1_555
C48 C49 1_555 1_555
C52 C53 1_555 1_555
C62 C63 1_555 1_555
C66 C67 1_555 1_555

#END
