
#######################################################################
#
#                 Cambridge Crystallographic Data Centre
#                                CCDC 
#
#######################################################################
#
# If this CIF has been generated from an entry in the Cambridge 
# Structural Database, then it will include bibliographic, chemical, 
# crystal, experimental, refinement or atomic coordinate data resulting 
# from the CCDC's data processing and validation procedures.
#
#######################################################################

data_FAGMEH
_chemical_formula_moiety         'C60 H72,0.5(C1 H4 O1),H2 O1'
_chemical_name_systematic        
'1,3,8,10,15,17,22,24-octa-t-butylcyclooctacosa-1,2,8,9,15,16,22,23-octaene-4,6,11,13,18,20,25,27-octayne methanol solvate monohydrate'
_symmetry_cell_setting           monoclinic
_symmetry_space_group_name_H-M   'P 21/n'
_symmetry_Int_Tables_number      14
_space_group_name_Hall           '-P 2yn'
loop_
_symmetry_equiv_pos_site_id
_symmetry_equiv_pos_as_xyz
1 x,y,z
2 1/2-x,1/2+y,1/2-z
3 -x,-y,-z
4 1/2+x,1/2-y,1/2+z
_cell_length_a                   12.8969(12)
_cell_length_b                   30.468(2)
_cell_length_c                   15.3610(13)
_cell_angle_alpha                90
_cell_angle_beta                 107.645(12)
_cell_angle_gamma                90
_cell_volume                     5752.02
_exptl_crystal_colour            colorless
_cell_formula_units_Z            4
_exptl_crystal_recrystallization_method hexane/ethanol/methanol
loop_
_atom_site_label
_atom_site_type_symbol
_atom_site_fract_x
_atom_site_fract_y
_atom_site_fract_z
C1 C 0.2812(2) 0.08391(9) 0.77042(18)
C2 C 0.2709(2) 0.12653(8) 0.75734(18)
C3 C 0.3652(2) 0.15411(9) 0.77894(18)
C4 C 0.4391(2) 0.17952(9) 0.78897(18)
C5 C 0.5233(2) 0.20794(9) 0.79502(18)
C6 C 0.5944(2) 0.23342(9) 0.79417(18)
C7 C 0.6763(2) 0.26281(8) 0.78258(18)
C8 C 0.6475(2) 0.29020(8) 0.71410(18)
C9 C 0.6211(2) 0.31306(8) 0.63792(18)
C10 C 0.6332(2) 0.28964(9) 0.56055(19)
C11 C 0.6473(2) 0.26633(9) 0.50230(18)
C12 C 0.6662(2) 0.23755(9) 0.44006(18)
C13 C 0.6824(2) 0.21100(9) 0.38799(18)
C14 C 0.7065(2) 0.17793(9) 0.33065(18)
C15 C 0.6311(2) 0.16522(8) 0.25691(19)
C16 C 0.5591(2) 0.14946(8) 0.18405(17)
C17 C 0.4993(2) 0.11127(9) 0.19530(17)
C18 C 0.4543(2) 0.07841(9) 0.20714(17)
C19 C 0.4066(2) 0.04060(9) 0.22433(18)
C20 C 0.3687(2) 0.00736(9) 0.24452(18)
C21 C 0.3229(2) -0.03127(9) 0.27130(19)
C22 C 0.3623(2) -0.04515(9) 0.3563(2)
C23 C 0.4046(2) -0.06026(9) 0.43988(19)
C24 C 0.3685(2) -0.04223(9) 0.51235(19)
C25 C 0.3448(2) -0.02599(9) 0.57531(19)
C26 C 0.3212(2) -0.00500(9) 0.64632(19)
C27 C 0.3034(2) 0.01560(8) 0.70693(19)
C28 C 0.2867(2) 0.04124(8) 0.77990(18)
C29 C 0.2784(3) 0.01731(9) 0.8655(2)
C30 C 0.2745(4) 0.04957(12) 0.9392(3)
H1 H 0.2700 0.0337 0.9926
H2 H 0.2112 0.0683 0.9168
H3 H 0.3399 0.0674 0.9554
C31 C 0.3746(5) -0.01311(19) 0.8989(4)
H4 H 0.4410 0.0040 0.9191
H5 H 0.3778 -0.0324 0.8496
H6 H 0.3668 -0.0305 0.9494
C32 C 0.1745(4) -0.01038(16) 0.8389(3)
H7 H 0.1711 -0.0277 0.8909
H8 H 0.1749 -0.0298 0.7889
H9 H 0.1116 0.0088 0.8198
C33 C 0.4921(3) -0.09620(9) 0.4647(2)
C34 C 0.4422(3) -0.13637(11) 0.4958(3)
H10 H 0.4236 -0.1293 0.5508
H11 H 0.4942 -0.1603 0.5084
H12 H 0.3771 -0.1451 0.4480
C35 C 0.5904(3) -0.08028(13) 0.5418(3)
H13 H 0.6192 -0.0538 0.5227
H14 H 0.6460 -0.1029 0.5561
H15 H 0.5683 -0.0741 0.5955
C36 C 0.5291(3) -0.10815(13) 0.3830(3)
H16 H 0.4681 -0.1200 0.3349
H17 H 0.5863 -0.1300 0.4010
H18 H 0.5565 -0.0821 0.3609
C37 C 0.2319(3) -0.05497(11) 0.1984(2)
C38 C 0.1862(4) -0.09230(13) 0.2415(3)
H19 H 0.1297 -0.1073 0.1947
H20 H 0.1558 -0.0805 0.2872
H21 H 0.2440 -0.1128 0.2702
C39 C 0.1435(3) -0.02229(15) 0.1531(4)
H22 H 0.1755 0.0026 0.1313
H23 H 0.1082 -0.0123 0.1970
H24 H 0.0903 -0.0362 0.1020
C40 C 0.2808(4) -0.07337(15) 0.1269(3)
H25 H 0.3027 -0.0493 0.0949
H26 H 0.2270 -0.0912 0.0836
H27 H 0.3438 -0.0912 0.1569
C41 C 0.5385(3) 0.16814(9) 0.08725(19)
C42 C 0.5727(3) 0.13370(11) 0.0292(2)
H28 H 0.6500 0.1278 0.0547
H29 H 0.5578 0.1445 -0.0328
H30 H 0.5322 0.1069 0.0287
C43 C 0.4174(3) 0.17807(14) 0.0460(2)
H31 H 0.3759 0.1512 0.0427
H32 H 0.4042 0.1901 -0.0148
H33 H 0.3952 0.1992 0.0841
C44 C 0.6056(4) 0.20973(12) 0.0908(3)
H34 H 0.5866 0.2312 0.1301
H35 H 0.5905 0.2217 0.0298
H36 H 0.6824 0.2027 0.1148
C45 C 0.8222(2) 0.15864(10) 0.3611(2)
C46 C 0.8294(3) 0.12000(12) 0.2999(3)
H37 H 0.7780 0.0975 0.3043
H38 H 0.9025 0.1081 0.3194
H39 H 0.8121 0.1299 0.2371
C47 C 0.9024(3) 0.19485(14) 0.3544(3)
H40 H 0.8830 0.2057 0.2921
H41 H 0.9756 0.1830 0.3714
H42 H 0.8992 0.2187 0.3952
C48 C 0.8481(3) 0.14243(15) 0.4601(3)
H43 H 0.8438 0.1668 0.4994
H44 H 0.9210 0.1302 0.4799
H45 H 0.7960 0.1200 0.4635
C49 C 0.5783(3) 0.36039(9) 0.6282(2)
C50 C 0.5996(4) 0.38138(12) 0.7218(3)
H46 H 0.6774 0.3827 0.7520
H47 H 0.5653 0.3640 0.7583
H48 H 0.5697 0.4108 0.7149
C51 C 0.6365(5) 0.38644(12) 0.5733(4)
H49 H 0.6074 0.4160 0.5641
H50 H 0.6257 0.3724 0.5145
H51 H 0.7136 0.3876 0.6060
C52 C 0.4562(4) 0.35870(15) 0.5802(3)
H52 H 0.4265 0.3882 0.5745
H53 H 0.4214 0.3409 0.6156
H54 H 0.4428 0.3460 0.5199
C53 C 0.7939(2) 0.25898(11) 0.8460(2)
C54 C 0.8664(3) 0.29021(14) 0.8139(3)
H55 H 0.8636 0.2829 0.7518
H56 H 0.9407 0.2876 0.8535
H57 H 0.8413 0.3201 0.8160
C55 C 0.7953(4) 0.27048(19) 0.9424(2)
H58 H 0.7623 0.2991 0.9425
H59 H 0.8699 0.2711 0.9820
H60 H 0.7547 0.2486 0.9644
C56 C 0.8320(4) 0.21169(14) 0.8401(4)
H61 H 0.7877 0.1917 0.8629
H62 H 0.9076 0.2089 0.8767
H63 H 0.8249 0.2046 0.7770
C57 C 0.1603(2) 0.14903(10) 0.7135(2)
C58 C 0.1604(3) 0.16887(12) 0.6226(2)
H64 H 0.1700 0.1458 0.5822
H65 H 0.2196 0.1898 0.6327
H66 H 0.0918 0.1837 0.5948
C59 C 0.1470(4) 0.18548(13) 0.7774(3)
H67 H 0.2065 0.2062 0.7870
H68 H 0.1475 0.1729 0.8355
H69 H 0.0785 0.2005 0.7503
C60 C 0.0692(3) 0.11539(14) 0.6973(3)
H70 H -0.0003 0.1298 0.6704
H71 H 0.0704 0.1022 0.7550
H72 H 0.0795 0.0928 0.6562
C61 C 0.9365(9) 0.0320(4) 0.5259(18)
O1 O 0.9403(12) 0.0115(4) 0.6171(9)
O2 O 0.8832(4) -0.06617(17) 0.5348(4)
loop_
_geom_bond_atom_site_label_1
_geom_bond_atom_site_label_2
_geom_bond_site_symmetry_1
_geom_bond_site_symmetry_2
C1 C2 1_555 1_555
C2 C3 1_555 1_555
C3 C4 1_555 1_555
C4 C5 1_555 1_555
C5 C6 1_555 1_555
C6 C7 1_555 1_555
C7 C8 1_555 1_555
C8 C9 1_555 1_555
C9 C10 1_555 1_555
C10 C11 1_555 1_555
C11 C12 1_555 1_555
C12 C13 1_555 1_555
C13 C14 1_555 1_555
C14 C15 1_555 1_555
C15 C16 1_555 1_555
C16 C17 1_555 1_555
C17 C18 1_555 1_555
C18 C19 1_555 1_555
C19 C20 1_555 1_555
C20 C21 1_555 1_555
C21 C22 1_555 1_555
C22 C23 1_555 1_555
C23 C24 1_555 1_555
C24 C25 1_555 1_555
C25 C26 1_555 1_555
C26 C27 1_555 1_555
C27 C28 1_555 1_555
C28 C1 1_555 1_555
C29 C28 1_555 1_555
C30 C29 1_555 1_555
H1 C30 1_555 1_555
H2 C30 1_555 1_555
H3 C30 1_555 1_555
C31 C29 1_555 1_555
H4 C31 1_555 1_555
H5 C31 1_555 1_555
H6 C31 1_555 1_555
C32 C29 1_555 1_555
H7 C32 1_555 1_555
H8 C32 1_555 1_555
H9 C32 1_555 1_555
C33 C23 1_555 1_555
C34 C33 1_555 1_555
H10 C34 1_555 1_555
H11 C34 1_555 1_555
H12 C34 1_555 1_555
C35 C33 1_555 1_555
H13 C35 1_555 1_555
H14 C35 1_555 1_555
H15 C35 1_555 1_555
C36 C33 1_555 1_555
H16 C36 1_555 1_555
H17 C36 1_555 1_555
H18 C36 1_555 1_555
C37 C21 1_555 1_555
C38 C37 1_555 1_555
H19 C38 1_555 1_555
H20 C38 1_555 1_555
H21 C38 1_555 1_555
C39 C37 1_555 1_555
H22 C39 1_555 1_555
H23 C39 1_555 1_555
H24 C39 1_555 1_555
C40 C37 1_555 1_555
H25 C40 1_555 1_555
H26 C40 1_555 1_555
H27 C40 1_555 1_555
C41 C16 1_555 1_555
C42 C41 1_555 1_555
H28 C42 1_555 1_555
H29 C42 1_555 1_555
H30 C42 1_555 1_555
C43 C41 1_555 1_555
H31 C43 1_555 1_555
H32 C43 1_555 1_555
H33 C43 1_555 1_555
C44 C41 1_555 1_555
H34 C44 1_555 1_555
H35 C44 1_555 1_555
H36 C44 1_555 1_555
C45 C14 1_555 1_555
C46 C45 1_555 1_555
H37 C46 1_555 1_555
H38 C46 1_555 1_555
H39 C46 1_555 1_555
C47 C45 1_555 1_555
H40 C47 1_555 1_555
H41 C47 1_555 1_555
H42 C47 1_555 1_555
C48 C45 1_555 1_555
H43 C48 1_555 1_555
H44 C48 1_555 1_555
H45 C48 1_555 1_555
C49 C9 1_555 1_555
C50 C49 1_555 1_555
H46 C50 1_555 1_555
H47 C50 1_555 1_555
H48 C50 1_555 1_555
C51 C49 1_555 1_555
H49 C51 1_555 1_555
H50 C51 1_555 1_555
H51 C51 1_555 1_555
C52 C49 1_555 1_555
H52 C52 1_555 1_555
H53 C52 1_555 1_555
H54 C52 1_555 1_555
C53 C7 1_555 1_555
C54 C53 1_555 1_555
H55 C54 1_555 1_555
H56 C54 1_555 1_555
H57 C54 1_555 1_555
C55 C53 1_555 1_555
H58 C55 1_555 1_555
H59 C55 1_555 1_555
H60 C55 1_555 1_555
C56 C53 1_555 1_555
H61 C56 1_555 1_555
H62 C56 1_555 1_555
H63 C56 1_555 1_555
C57 C2 1_555 1_555
C58 C57 1_555 1_555
H64 C58 1_555 1_555
H65 C58 1_555 1_555
H66 C58 1_555 1_555
C59 C57 1_555 1_555
H67 C59 1_555 1_555
H68 C59 1_555 1_555
H69 C59 1_555 1_555
C60 C57 1_555 1_555
H70 C60 1_555 1_555
H71 C60 1_555 1_555
H72 C60 1_555 1_555
C61 O1 1_555 1_555

#END
