
#######################################################################
#
#                 Cambridge Crystallographic Data Centre
#                                CCDC 
#
#######################################################################
#
# If this CIF has been generated from an entry in the Cambridge 
# Structural Database, then it will include bibliographic, chemical, 
# crystal, experimental, refinement or atomic coordinate data resulting 
# from the CCDC's data processing and validation procedures.
#
#######################################################################

data_FAGQOV
_chemical_formula_moiety         'C5 H8 N2 O3 S1'
_chemical_name_systematic        
(3-Methyl-1H-imidazol-3-ium-1-yl)methanesulfonate
_symmetry_cell_setting           monoclinic
_symmetry_space_group_name_H-M   'P 21/n'
_symmetry_Int_Tables_number      14
_space_group_name_Hall           '-P 2yn'
loop_
_symmetry_equiv_pos_site_id
_symmetry_equiv_pos_as_xyz
1 x,y,z
2 1/2-x,1/2+y,1/2-z
3 -x,-y,-z
4 1/2+x,1/2-y,1/2+z
_cell_length_a                   5.0885(5)
_cell_length_b                   14.4433(14)
_cell_length_c                   9.7345(10)
_cell_angle_alpha                90
_cell_angle_beta                 92.025(9)
_cell_angle_gamma                90
_cell_volume                     714.988
_exptl_crystal_colour            colorless
_exptl_crystal_description       prismatic
_cell_formula_units_Z            4
loop_
_atom_site_label
_atom_site_type_symbol
_atom_site_fract_x
_atom_site_fract_y
_atom_site_fract_z
S1 S 0.48816(6) 0.23499(2) 0.47124(3)
O1 O 0.2228(2) 0.26989(8) 0.48733(11)
O2 O 0.5065(2) 0.13488(7) 0.45912(11)
O3 O 0.6294(2) 0.28389(8) 0.36633(11)
N1 N 0.6504(2) 0.35582(8) 0.66645(12)
N2 N 0.5162(2) 0.48332(8) 0.75585(12)
C1 C 0.7972(3) 0.42633(11) 0.61171(16)
H1 H 0.923(4) 0.4155(13) 0.550(2)
C2 C 0.7126(3) 0.50615(11) 0.66725(16)
H2 H 0.761(4) 0.5676(14) 0.6515(19)
C3 C 0.4822(3) 0.39225(10) 0.75314(15)
H3 H 0.367(3) 0.3613(12) 0.8052(18)
C4 C 0.3730(4) 0.54766(11) 0.84325(17)
H4 H 0.242(4) 0.5149(13) 0.887(2)
H5 H 0.308(4) 0.5984(15) 0.786(2)
H6 H 0.497(4) 0.5727(14) 0.912(2)
C5 C 0.6631(3) 0.25805(10) 0.63154(14)
H7 H 0.585(3) 0.2234(12) 0.6997(18)
H8 H 0.837(4) 0.2420(11) 0.6208(18)
loop_
_geom_bond_atom_site_label_1
_geom_bond_atom_site_label_2
_geom_bond_site_symmetry_1
_geom_bond_site_symmetry_2
S1 O1 1_555 1_555
O2 S1 1_555 1_555
O3 S1 1_555 1_555
N1 C1 1_555 1_555
N2 C2 1_555 1_555
C1 H1 1_555 1_555
C2 C1 1_555 1_555
H2 C2 1_555 1_555
C3 N1 1_555 1_555
H3 C3 1_555 1_555
C4 N2 1_555 1_555
H4 C4 1_555 1_555
H5 C4 1_555 1_555
H6 C4 1_555 1_555
C5 S1 1_555 1_555
H7 C5 1_555 1_555
H8 C5 1_555 1_555
N1 C5 1_555 1_555
N2 C3 1_555 1_555

#END
