
#######################################################################
#
#                 Cambridge Crystallographic Data Centre
#                                CCDC 
#
#######################################################################
#
# If this CIF has been generated from an entry in the Cambridge 
# Structural Database, then it will include bibliographic, chemical, 
# crystal, experimental, refinement or atomic coordinate data resulting 
# from the CCDC's data processing and validation procedures.
#
#######################################################################

data_FAGYOD
_chemical_formula_moiety         'C24 H14 N4,F1 1-,C16 H36 N1 1+'
_chemical_name_systematic        
"tetrabutylammonium fluoride 5,6-dihydrodiindolo[3,2-a:2',3'-c]phenazine"
_symmetry_cell_setting           monoclinic
_symmetry_space_group_name_H-M   'C c'
_symmetry_Int_Tables_number      9
_space_group_name_Hall           'C -2yc'
loop_
_symmetry_equiv_pos_site_id
_symmetry_equiv_pos_as_xyz
1 x,y,z
2 x,-y,1/2+z
3 1/2+x,1/2+y,z
4 1/2+x,1/2-y,1/2+z
_cell_length_a                   22.428(6)
_cell_length_b                   8.4214(17)
_cell_length_c                   19.787(8)
_cell_angle_alpha                90
_cell_angle_beta                 113.21(3)
_cell_angle_gamma                90
_cell_volume                     3434.8
_cell_formula_units_Z            4
loop_
_atom_site_label
_atom_site_type_symbol
_atom_site_fract_x
_atom_site_fract_y
_atom_site_fract_z
N1 N -0.02020(19) 0.9715(5) 0.1437(2)
N2 N 0.12783(18) 0.7457(5) 0.3603(2)
N3 N 0.04217(17) 0.8007(5) 0.4335(2)
N4 N -0.11281(19) 1.0334(6) 0.2229(2)
C1 C 0.0350(2) 0.9248(6) 0.1318(3)
C2 C 0.0471(3) 0.9341(7) 0.0688(3)
H1 H 0.0166 0.9764 0.0255
C3 C 0.1060(3) 0.8785(7) 0.0721(3)
H2 H 0.1150 0.8819 0.0300
C4 C 0.1526(3) 0.8172(7) 0.1371(3)
H3 H 0.1923 0.7829 0.1380
C5 C 0.1402(2) 0.8068(7) 0.2002(3)
H4 H 0.1710 0.7640 0.2431
C6 C 0.0807(3) 0.8617(6) 0.1985(3)
C7 C 0.0514(2) 0.8687(6) 0.2517(3)
C8 C 0.0702(2) 0.8180(6) 0.3268(3)
C9 C 0.1428(2) 0.6982(6) 0.4308(3)
C10 C 0.2021(2) 0.6161(7) 0.4687(3)
H5 H 0.2293 0.5934 0.4447
C11 C 0.2194(3) 0.5701(7) 0.5402(3)
H6 H 0.2585 0.5175 0.5646
C12 C 0.1783(2) 0.6023(8) 0.5769(3)
H7 H 0.1905 0.5700 0.6255
C13 C 0.1206(2) 0.6804(7) 0.5424(3)
H8 H 0.0945 0.7026 0.5679
C14 C 0.1004(2) 0.7277(6) 0.4673(3)
C15 C 0.0266(2) 0.8433(6) 0.3640(3)
C16 C -0.0355(2) 0.9161(6) 0.3234(3)
C17 C -0.0907(2) 0.9518(6) 0.3408(3)
C18 C -0.1059(2) 0.9313(6) 0.4021(3)
H9 H -0.0760 0.8842 0.4444
C19 C -0.1659(2) 0.9812(7) 0.4002(3)
H10 H -0.1762 0.9660 0.4409
C20 C -0.2099(2) 1.0532(7) 0.3377(3)
H11 H -0.2495 1.0872 0.3373
C21 C -0.1965(2) 1.0765(6) 0.2749(3)
H12 H -0.2265 1.1246 0.2330
C22 C -0.1369(2) 1.0251(6) 0.2778(3)
C23 C -0.0524(2) 0.9647(6) 0.2510(3)
C24 C -0.0099(2) 0.9394(6) 0.2154(3)
H49 H -0.133(4) 1.058(11) 0.1745(15)
H50 H -0.0581(17) 1.014(7) 0.112(3)
N5 N 0.39372(19) 0.0183(4) 0.0378(2)
C25 C 0.4451(2) -0.0992(6) 0.0843(3)
H13 H 0.4255 -0.1689 0.1087
H14 H 0.4574 -0.1643 0.0514
C26 C 0.5067(2) -0.0298(6) 0.1423(3)
H15 H 0.5303 0.0290 0.1187
H16 H 0.4954 0.0428 0.1735
C27 C 0.5491(2) -0.1628(7) 0.1888(3)
H17 H 0.5266 -0.2142 0.2158
H18 H 0.5556 -0.2414 0.1565
C28 C 0.6149(2) -0.1055(7) 0.2429(3)
H19 H 0.6379 -0.0569 0.2164
H20 H 0.6393 -0.1941 0.2706
H21 H 0.6089 -0.0293 0.2757
C29 C 0.3717(2) 0.1242(6) 0.0863(3)
H22 H 0.4093 0.1798 0.1207
H23 H 0.3421 0.2036 0.0553
C30 C 0.3384(3) 0.0393(7) 0.1297(3)
H24 H 0.2951 0.0073 0.0969
H25 H 0.3626 -0.0554 0.1524
C31 C 0.3344(3) 0.1494(7) 0.1886(3)
H26 H 0.3128 0.2466 0.1654
H27 H 0.3781 0.1770 0.2221
C32 C 0.2985(3) 0.0789(9) 0.2328(3)
H28 H 0.2536 0.0655 0.2015
H29 H 0.3024 0.1490 0.2726
H30 H 0.3171 -0.0224 0.2523
C33 C 0.3373(2) -0.0794(6) -0.0137(3)
H31 H 0.3201 -0.1421 0.0156
H32 H 0.3536 -0.1527 -0.0403
C34 C 0.2820(2) 0.0167(7) -0.0694(3)
H33 H 0.2971 0.0699 -0.1032
H34 H 0.2676 0.0970 -0.0440
C35 C 0.2249(2) -0.0947(7) -0.1125(3)
H35 H 0.1956 -0.0399 -0.1561
H36 H 0.2416 -0.1871 -0.1286
C36 C 0.1874(3) -0.1489(8) -0.0681(3)
H37 H 0.2147 -0.2142 -0.0281
H38 H 0.1503 -0.2089 -0.0989
H39 H 0.1734 -0.0579 -0.0489
C37 C 0.4212(2) 0.1265(6) -0.0040(3)
H40 H 0.4564 0.1875 0.0314
H41 H 0.3877 0.2010 -0.0323
C38 C 0.4466(3) 0.0441(7) -0.0561(3)
H42 H 0.4836 -0.0217 -0.0278
H43 H 0.4131 -0.0242 -0.0894
C39 C 0.4665(3) 0.1631(8) -0.0996(3)
H44 H 0.4292 0.2288 -0.1267
H45 H 0.4993 0.2316 -0.0654
C40 C 0.4923(3) 0.0973(8) -0.1526(4)
H46 H 0.5329 0.0450 -0.1261
H47 H 0.4988 0.1821 -0.1814
H48 H 0.4619 0.0224 -0.1845
F1 F 0.86294(14) 0.0968(4) 0.0854(2)
loop_
_geom_bond_atom_site_label_1
_geom_bond_atom_site_label_2
_geom_bond_site_symmetry_1
_geom_bond_site_symmetry_2
N1 C1 1_555 1_555
N2 C8 1_555 1_555
N3 C14 1_555 1_555
N4 C22 1_555 1_555
C1 C2 1_555 1_555
C2 H1 1_555 1_555
C3 C2 1_555 1_555
H2 C3 1_555 1_555
C4 C3 1_555 1_555
H3 C4 1_555 1_555
C5 C4 1_555 1_555
H4 C5 1_555 1_555
C6 C1 1_555 1_555
C7 C6 1_555 1_555
C8 C7 1_555 1_555
C9 N2 1_555 1_555
C10 C9 1_555 1_555
H5 C10 1_555 1_555
C11 C10 1_555 1_555
H6 C11 1_555 1_555
C12 C11 1_555 1_555
H7 C12 1_555 1_555
C13 C12 1_555 1_555
H8 C13 1_555 1_555
C14 C9 1_555 1_555
C15 N3 1_555 1_555
C16 C15 1_555 1_555
C17 C16 1_555 1_555
C18 C17 1_555 1_555
H9 C18 1_555 1_555
C19 C18 1_555 1_555
H10 C19 1_555 1_555
C20 C19 1_555 1_555
H11 C20 1_555 1_555
C21 C20 1_555 1_555
H12 C21 1_555 1_555
C22 C17 1_555 1_555
C23 N4 1_555 1_555
C24 N1 1_555 1_555
N5 C25 1_555 1_555
C25 H13 1_555 1_555
H14 C25 1_555 1_555
C26 C25 1_555 1_555
H15 C26 1_555 1_555
H16 C26 1_555 1_555
C27 C26 1_555 1_555
H17 C27 1_555 1_555
H18 C27 1_555 1_555
C28 C27 1_555 1_555
H19 C28 1_555 1_555
H20 C28 1_555 1_555
H21 C28 1_555 1_555
C29 N5 1_555 1_555
H22 C29 1_555 1_555
H23 C29 1_555 1_555
C30 C29 1_555 1_555
H24 C30 1_555 1_555
H25 C30 1_555 1_555
C31 C30 1_555 1_555
H26 C31 1_555 1_555
H27 C31 1_555 1_555
C32 C31 1_555 1_555
H28 C32 1_555 1_555
H29 C32 1_555 1_555
H30 C32 1_555 1_555
C33 N5 1_555 1_555
H31 C33 1_555 1_555
H32 C33 1_555 1_555
C34 C33 1_555 1_555
H33 C34 1_555 1_555
H34 C34 1_555 1_555
C35 C34 1_555 1_555
H35 C35 1_555 1_555
H36 C35 1_555 1_555
C36 C35 1_555 1_555
H37 C36 1_555 1_555
H38 C36 1_555 1_555
H39 C36 1_555 1_555
C37 N5 1_555 1_555
H40 C37 1_555 1_555
H41 C37 1_555 1_555
C38 C37 1_555 1_555
H42 C38 1_555 1_555
H43 C38 1_555 1_555
C39 C38 1_555 1_555
H44 C39 1_555 1_555
H45 C39 1_555 1_555
C40 C39 1_555 1_555
H46 C40 1_555 1_555
H47 C40 1_555 1_555
H48 C40 1_555 1_555
H49 N4 1_555 1_555
H50 N1 1_555 1_555
C5 C6 1_555 1_555
C7 C24 1_555 1_555
C8 C15 1_555 1_555
C13 C14 1_555 1_555
C16 C23 1_555 1_555
C21 C22 1_555 1_555
C23 C24 1_555 1_555

#END
