
#######################################################################
#
#                 Cambridge Crystallographic Data Centre
#                                CCDC 
#
#######################################################################
#
# If this CIF has been generated from an entry in the Cambridge 
# Structural Database, then it will include bibliographic, chemical, 
# crystal, experimental, refinement or atomic coordinate data resulting 
# from the CCDC's data processing and validation procedures.
#
#######################################################################

data_FAHPOU
_chemical_formula_moiety         'C27 H23 N1 O1'
_chemical_name_systematic        
trans-4-(N,N-diphenylamino)-4'-methoxystilbene
_symmetry_cell_setting           monoclinic
_symmetry_space_group_name_H-M   'P 21/c'
_symmetry_Int_Tables_number      14
_space_group_name_Hall           '-P 2ybc'
loop_
_symmetry_equiv_pos_site_id
_symmetry_equiv_pos_as_xyz
1 x,y,z
2 -x,1/2+y,1/2-z
3 -x,-y,-z
4 x,1/2-y,1/2+z
_cell_length_a                   10.872(2)
_cell_length_b                   23.494(5)
_cell_length_c                   24.378(5)
_cell_angle_alpha                90
_cell_angle_beta                 93.585(5)
_cell_angle_gamma                90
_cell_volume                     6214.61
_exptl_crystal_colour            colorless
_exptl_crystal_description       Tabular
_chemical_melting_point          162-163deg.C
_cell_formula_units_Z            12
loop_
_atom_site_label
_atom_site_type_symbol
_atom_site_fract_x
_atom_site_fract_y
_atom_site_fract_z
O1 O -0.2531(4) -0.69080(17) -0.00681(17)
N1 N -0.2232(4) -0.17130(17) 0.00803(18)
C1 C -0.1095(4) -0.1423(2) 0.0012(2)
C2 C -0.0021(5) -0.1607(2) 0.0295(2)
H1 H -0.0027 -0.1927 0.0519
C3 C 0.1050(5) -0.1309(3) 0.0239(2)
H2 H 0.1776 -0.1434 0.0422
C4 C 0.1070(5) -0.0824(3) -0.0086(3)
H3 H 0.1796 -0.0620 -0.0113
C5 C 0.0000(5) -0.0652(2) -0.0367(2)
H4 H -0.0001 -0.0331 -0.0589
C6 C -0.1076(5) -0.0957(2) -0.0317(2)
H5 H -0.1796 -0.0841 -0.0512
C7 C -0.3300(5) -0.1379(2) 0.0160(2)
C8 C -0.3216(5) -0.0888(2) 0.0467(2)
H6 H -0.2455 -0.0772 0.0624
C9 C -0.4257(5) -0.0562(2) 0.0544(2)
H7 H -0.4183 -0.0228 0.0748
C10 C -0.5395(5) -0.0726(3) 0.0323(2)
H8 H -0.6095 -0.0511 0.0378
C11 C -0.5468(5) -0.1219(2) 0.0016(2)
H9 H -0.6228 -0.1333 -0.0143
C12 C -0.4448(5) -0.1545(2) -0.0061(2)
H10 H -0.4528 -0.1880 -0.0264
C13 C -0.2275(5) -0.2312(2) 0.0066(2)
C14 C -0.3038(5) -0.2623(2) 0.0392(2)
H11 H -0.3524 -0.2437 0.0637
C15 C -0.3069(5) -0.3212(3) 0.0349(3)
H12 H -0.3596 -0.3414 0.0564
C16 C -0.2344(7) -0.3513(2) -0.0001(3)
C17 C -0.1596(6) -0.3195(3) -0.0301(2)
H13 H -0.1079 -0.3382 -0.0532
C18 C -0.1559(5) -0.2614(2) -0.0284(2)
H14 H -0.1046 -0.2418 -0.0511
C19 C -0.2120(16) -0.4151(5) -0.0091(6)
H15 H -0.1485 -0.4256 -0.0289
C21 C -0.2825(17) -0.4491(5) 0.0126(5)
H17 H -0.3473 -0.4403 0.0340
C23 C -0.2579(8) -0.5142(3) 0.0037(3)
C24 C -0.3525(7) -0.5457(3) 0.0225(2)
H19 H -0.4172 -0.5267 0.0378
C25 C -0.3555(6) -0.6044(3) 0.0197(2)
H20 H -0.4221 -0.6243 0.0323
C26 C -0.2606(5) -0.6329(2) -0.0017(2)
C27 C -0.1646(5) -0.6027(3) -0.0228(2)
H21 H -0.1009 -0.6219 -0.0386
C28 C -0.1642(6) -0.5439(3) -0.0202(3)
H22 H -0.1001 -0.5238 -0.0347
C29 C -0.3445(6) -0.7240(3) 0.0157(3)
H23 H -0.3283 -0.7635 0.0094
H24 H -0.4236 -0.7141 -0.0013
H25 H -0.3442 -0.7170 0.0546
O2 O -0.4517(3) 0.61590(16) 0.15218(15)
N2 N -0.5267(3) 0.09830(16) 0.17198(17)
C30 C -0.4235(4) 0.0611(2) 0.1774(2)
C31 C -0.3200(4) 0.0708(2) 0.1481(2)
H26 H -0.3181 0.1022 0.1249
C32 C -0.2198(5) 0.0345(2) 0.1529(2)
H27 H -0.1501 0.0425 0.1340
C33 C -0.2227(5) -0.0134(2) 0.1854(2)
H28 H -0.1565 -0.0386 0.1878
C34 C -0.3259(5) -0.0235(2) 0.2143(2)
H29 H -0.3291 -0.0557 0.2364
C35 C -0.4253(5) 0.0141(2) 0.2109(2)
H30 H -0.4933 0.0074 0.2313
C36 C -0.6456(5) 0.0739(2) 0.1746(2)
C37 C -0.6780(5) 0.0268(2) 0.1426(2)
H31 H -0.6233 0.0122 0.1184
C38 C -0.7919(6) 0.0018(3) 0.1470(3)
H32 H -0.8134 -0.0300 0.1257
C39 C -0.8743(6) 0.0232(3) 0.1825(3)
H33 H -0.9502 0.0057 0.1857
C40 C -0.8434(6) 0.0696(3) 0.2123(3)
H34 H -0.8995 0.0845 0.2357
C41 C -0.7286(5) 0.0962(2) 0.2091(2)
H35 H -0.7089 0.1285 0.2299
C42 C -0.5120(4) 0.1574(2) 0.1715(2)
C43 C -0.5942(5) 0.1930(2) 0.1413(2)
H36 H -0.6610 0.1768 0.1213
C44 C -0.5791(5) 0.2510(2) 0.1402(2)
H37 H -0.6366 0.2734 0.1204
C45 C -0.4774(5) 0.2767(2) 0.1688(2)
C46 C -0.3967(5) 0.2417(2) 0.1996(2)
H38 H -0.3303 0.2580 0.2198
C47 C -0.4121(5) 0.1838(2) 0.2010(2)
H39 H -0.3557 0.1616 0.2218
C48 C -0.4568(5) 0.3390(2) 0.1699(2)
H40 H -0.3829 0.3515 0.1871
C49 C -0.5303(5) 0.3780(2) 0.1496(2)
H41 H -0.6049 0.3658 0.1328
C50 C -0.5070(5) 0.4408(2) 0.1504(2)
C51 C -0.6012(5) 0.4774(2) 0.1332(2)
H42 H -0.6766 0.4621 0.1205
C52 C -0.5876(5) 0.5354(2) 0.1340(2)
H43 H -0.6538 0.5589 0.1237
C53 C -0.4755(5) 0.5583(2) 0.1503(2)
C54 C -0.3788(5) 0.5237(2) 0.1673(2)
H44 H -0.3030 0.5396 0.1785
C55 C -0.3940(5) 0.4645(2) 0.1677(2)
H45 H -0.3286 0.4410 0.1794
C56 C -0.5508(6) 0.6536(2) 0.1417(3)
H46 H -0.5216 0.6921 0.1446
H47 H -0.6116 0.6473 0.1680
H48 H -0.5871 0.6471 0.1053
O3 O 0.0341(4) 0.22447(17) 0.16127(16)
N3 N 0.0010(4) 0.74225(17) 0.17087(17)
C57 C 0.1025(5) 0.7799(2) 0.1722(2)
C58 C 0.2007(5) 0.7692(2) 0.1394(2)
H49 H 0.1985 0.7374 0.1166
C59 C 0.3014(5) 0.8054(3) 0.1403(3)
H50 H 0.3662 0.7981 0.1182
C60 C 0.3050(6) 0.8515(3) 0.1734(3)
H51 H 0.3727 0.8757 0.1742
C61 C 0.2078(6) 0.8631(3) 0.2067(3)
H52 H 0.2095 0.8956 0.2284
C62 C 0.1101(5) 0.8263(2) 0.2072(2)
H53 H 0.0484 0.8326 0.2313
C63 C -0.1189(5) 0.7621(2) 0.17977(19)
C64 C -0.1616(5) 0.8144(2) 0.1603(2)
H54 H -0.1099 0.8376 0.1411
C65 C -0.2806(6) 0.8326(2) 0.1689(2)
H55 H -0.3079 0.8676 0.1551
C66 C -0.3576(5) 0.7995(2) 0.1974(2)
H56 H -0.4367 0.8119 0.2037
C67 C -0.3162(5) 0.7471(2) 0.2169(2)
H57 H -0.3687 0.7241 0.2359
C68 C -0.1988(5) 0.7285(2) 0.2086(2)
H58 H -0.1726 0.6932 0.2222
C69 C 0.0196(4) 0.6832(2) 0.1691(2)
C70 C -0.0551(5) 0.6487(2) 0.1347(2)
H59 H -0.1153 0.6657 0.1113
C71 C -0.0433(5) 0.5903(2) 0.1339(2)
H60 H -0.0960 0.5686 0.1108
C72 C 0.0484(4) 0.5636(2) 0.1678(2)
C73 C 0.1270(4) 0.5981(2) 0.1999(2)
H61 H 0.1907 0.5812 0.2214
C74 C 0.1144(4) 0.6561(2) 0.2013(2)
H62 H 0.1688 0.6777 0.2236
C75 C 0.0613(5) 0.5014(2) 0.1699(2)
H63 H 0.1319 0.4876 0.1890
C76 C -0.0159(5) 0.4621(2) 0.1477(2)
H64 H -0.0854 0.4755 0.1276
C77 C -0.0025(5) 0.4013(2) 0.1518(2)
C78 C -0.0975(5) 0.3662(2) 0.1322(2)
H65 H -0.1691 0.3829 0.1168
C79 C -0.0908(5) 0.3068(2) 0.1345(2)
H66 H -0.1568 0.2845 0.1211
C80 C 0.0143(6) 0.2823(2) 0.1568(2)
C81 C 0.1114(5) 0.3155(2) 0.1775(2)
H67 H 0.1823 0.2984 0.1932
C82 C 0.1032(5) 0.3737(2) 0.1748(2)
H68 H 0.1695 0.3955 0.1886
C83 C -0.0603(6) 0.1879(2) 0.1410(3)
H69 H -0.0348 0.1491 0.1465
H70 H -0.0773 0.1949 0.1024
H71 H -0.1333 0.1949 0.1601
C20? C -0.272(3) -0.4096(9) 0.0135(16)
H16? H -0.3451 -0.4154 0.0391
C22? C -0.213(4) -0.4564(9) -0.0069(13)
H18? H -0.1358 -0.4514 -0.0293
loop_
_geom_bond_atom_site_label_1
_geom_bond_atom_site_label_2
_geom_bond_site_symmetry_1
_geom_bond_site_symmetry_2
O1 C26 1_555 1_555
O2 C53 1_555 1_555
O3 C80 1_555 1_555
N1 C1 1_555 1_555
N2 C30 1_555 1_555
N3 C57 1_555 1_555
C1 C2 1_555 1_555
C2 H1 1_555 1_555
C3 C2 1_555 1_555
H2 C3 1_555 1_555
C4 C3 1_555 1_555
H3 C4 1_555 1_555
C5 C4 1_555 1_555
H4 C5 1_555 1_555
C6 C1 1_555 1_555
H5 C6 1_555 1_555
C7 N1 1_555 1_555
C8 C7 1_555 1_555
H6 C8 1_555 1_555
C9 C8 1_555 1_555
H7 C9 1_555 1_555
C10 C9 1_555 1_555
H8 C10 1_555 1_555
C11 C10 1_555 1_555
H9 C11 1_555 1_555
C12 C7 1_555 1_555
H10 C12 1_555 1_555
C13 N1 1_555 1_555
C14 C13 1_555 1_555
H11 C14 1_555 1_555
C15 C14 1_555 1_555
H12 C15 1_555 1_555
C16 C15 1_555 1_555
C17 C16 1_555 1_555
H13 C17 1_555 1_555
C18 C13 1_555 1_555
H14 C18 1_555 1_555
C19 C16 1_555 1_555
H15 C19 1_555 1_555
C21 C19 1_555 1_555
H17 C21 1_555 1_555
C23 C21 1_555 1_555
C24 C23 1_555 1_555
H19 C24 1_555 1_555
C25 C24 1_555 1_555
H20 C25 1_555 1_555
C26 C25 1_555 1_555
C27 C26 1_555 1_555
H21 C27 1_555 1_555
C28 C23 1_555 1_555
H22 C28 1_555 1_555
C29 O1 1_555 1_555
H23 C29 1_555 1_555
H24 C29 1_555 1_555
H25 C29 1_555 1_555
C30 C31 1_555 1_555
C31 H26 1_555 1_555
C32 C31 1_555 1_555
H27 C32 1_555 1_555
C33 C32 1_555 1_555
H28 C33 1_555 1_555
C34 C33 1_555 1_555
H29 C34 1_555 1_555
C35 C30 1_555 1_555
H30 C35 1_555 1_555
C36 N2 1_555 1_555
C37 C36 1_555 1_555
H31 C37 1_555 1_555
C38 C37 1_555 1_555
H32 C38 1_555 1_555
C39 C38 1_555 1_555
H33 C39 1_555 1_555
C40 C39 1_555 1_555
H34 C40 1_555 1_555
C41 C36 1_555 1_555
H35 C41 1_555 1_555
C42 N2 1_555 1_555
C43 C42 1_555 1_555
H36 C43 1_555 1_555
C44 C43 1_555 1_555
H37 C44 1_555 1_555
C45 C44 1_555 1_555
C46 C45 1_555 1_555
H38 C46 1_555 1_555
C47 C42 1_555 1_555
H39 C47 1_555 1_555
C48 C45 1_555 1_555
H40 C48 1_555 1_555
C49 C48 1_555 1_555
H41 C49 1_555 1_555
C50 C49 1_555 1_555
C51 C50 1_555 1_555
H42 C51 1_555 1_555
C52 C51 1_555 1_555
H43 C52 1_555 1_555
C53 C52 1_555 1_555
C54 C53 1_555 1_555
H44 C54 1_555 1_555
C55 C50 1_555 1_555
H45 C55 1_555 1_555
C56 O2 1_555 1_555
H46 C56 1_555 1_555
H47 C56 1_555 1_555
H48 C56 1_555 1_555
C57 C58 1_555 1_555
C58 H49 1_555 1_555
C59 C58 1_555 1_555
H50 C59 1_555 1_555
C60 C59 1_555 1_555
H51 C60 1_555 1_555
C61 C60 1_555 1_555
H52 C61 1_555 1_555
C62 C57 1_555 1_555
H53 C62 1_555 1_555
C63 N3 1_555 1_555
C64 C63 1_555 1_555
H54 C64 1_555 1_555
C65 C64 1_555 1_555
H55 C65 1_555 1_555
C66 C65 1_555 1_555
H56 C66 1_555 1_555
C67 C66 1_555 1_555
H57 C67 1_555 1_555
C68 C63 1_555 1_555
H58 C68 1_555 1_555
C69 N3 1_555 1_555
C70 C69 1_555 1_555
H59 C70 1_555 1_555
C71 C70 1_555 1_555
H60 C71 1_555 1_555
C72 C71 1_555 1_555
C73 C72 1_555 1_555
H61 C73 1_555 1_555
C74 C69 1_555 1_555
H62 C74 1_555 1_555
C75 C72 1_555 1_555
H63 C75 1_555 1_555
C76 C75 1_555 1_555
H64 C76 1_555 1_555
C77 C76 1_555 1_555
C78 C77 1_555 1_555
H65 C78 1_555 1_555
C79 C78 1_555 1_555
H66 C79 1_555 1_555
C80 C79 1_555 1_555
C81 C80 1_555 1_555
H67 C81 1_555 1_555
C82 C77 1_555 1_555
H68 C82 1_555 1_555
C83 O3 1_555 1_555
H69 C83 1_555 1_555
H70 C83 1_555 1_555
H71 C83 1_555 1_555
C5 C6 1_555 1_555
C11 C12 1_555 1_555
C17 C18 1_555 1_555
C27 C28 1_555 1_555
C34 C35 1_555 1_555
C40 C41 1_555 1_555
C46 C47 1_555 1_555
C54 C55 1_555 1_555
C61 C62 1_555 1_555
C67 C68 1_555 1_555
C73 C74 1_555 1_555
C81 C82 1_555 1_555

#END
