
#######################################################################
#
#                 Cambridge Crystallographic Data Centre
#                                CCDC 
#
#######################################################################
#
# If this CIF has been generated from an entry in the Cambridge 
# Structural Database, then it will include bibliographic, chemical, 
# crystal, experimental, refinement or atomic coordinate data resulting 
# from the CCDC's data processing and validation procedures.
#
#######################################################################

data_FAJPUC
_chemical_formula_moiety         'C24 H25 F1 N2 O1 S1'
_chemical_name_systematic        
(1S)-1-(3-Thienyl)-1-((4aR,5S)-1-(4-fluorophenyl)-4a-methyl-4,4a,5,6,7,8-hexahydro-1H-benzo(f)indazol-5-yl)ethanol
_chemical_properties_biological  
'potent human glucocorticoid receptor binding activity'
_symmetry_cell_setting           orthorhombic
_symmetry_space_group_name_H-M   'P 21 21 21'
_symmetry_Int_Tables_number      19
_space_group_name_Hall           'P 2ac 2ab'
loop_
_symmetry_equiv_pos_site_id
_symmetry_equiv_pos_as_xyz
1 x,y,z
2 1/2-x,-y,1/2+z
3 1/2+x,1/2-y,-z
4 -x,1/2+y,1/2-z
_cell_length_a                   10.693(3)
_cell_length_b                   11.337(3)
_cell_length_c                   16.970(4)
_cell_angle_alpha                90
_cell_angle_beta                 90
_cell_angle_gamma                90
_cell_volume                     2057.21
_exptl_crystal_colour            colorless
_cell_formula_units_Z            4
loop_
_atom_site_label
_atom_site_type_symbol
_atom_site_fract_x
_atom_site_fract_y
_atom_site_fract_z
S1 S 1.02508(5) 0.74842(5) 1.06533(3)
F1 F 0.86513(11) 0.84281(11) 0.19553(6)
O1 O 1.12852(11) 1.01211(11) 0.85118(7)
H1 H 1.17040 1.03160 0.89100
N1 N 1.09524(12) 0.90346(12) 0.48386(8)
N2 N 1.21637(12) 0.94395(14) 0.48650(8)
C1 C 0.97171(16) 0.86626(17) 1.01079(10)
H2 H 0.90730 0.91830 1.02750
C2 C 1.03333(15) 0.87583(15) 0.94048(9)
C3 C 1.12752(16) 0.78704(15) 0.93281(10)
H3 H 1.18180 0.78150 0.88860
C4 C 1.13195(19) 0.71126(18) 0.99479(11)
H4 H 1.18740 0.64600 0.99840
C5 C 1.00949(14) 0.96644(14) 0.87579(9)
C6 C 0.94892(14) 0.89782(13) 0.80437(9)
H5 H 0.98760 0.81750 0.80580
C7 C 0.80974(14) 0.87771(16) 0.82245(9)
H6 H 0.80160 0.84160 0.87530
H7 H 0.76630 0.95480 0.82350
C8 C 0.74679(15) 0.79821(16) 0.76194(10)
H8 H 0.78950 0.72080 0.76010
H9 H 0.65830 0.78500 0.77660
C9 C 0.75414(14) 0.85792(16) 0.68168(10)
H10 H 0.71520 0.80620 0.64160
H11 H 0.70640 0.93270 0.68320
C10 C 0.88712(14) 0.88342(14) 0.65833(9)
C11 C 0.92150(14) 0.86351(14) 0.58345(9)
H12 H 0.86390 0.82950 0.54740
C12 C 1.04606(14) 0.89375(14) 0.55771(9)
C13 C 1.24015(15) 0.95756(15) 0.56313(10)
H13 H 1.31770 0.98490 0.58340
C14 C 1.13778(15) 0.92700(14) 0.61020(9)
C15 C 1.11379(14) 0.91870(15) 0.69702(9)
H14 H 1.16860 0.97540 0.72490
H15 H 1.13570 0.83840 0.71540
C16 C 0.97456(14) 0.94512(13) 0.71867(9)
C17 C 0.95113(16) 1.07797(14) 0.71023(9)
H16 H 0.86360 1.09540 0.72280
H17 H 0.96890 1.10240 0.65600
H18 H 1.00590 1.12110 0.74650
C18 C 1.03745(14) 0.88673(14) 0.40925(9)
C19 C 0.95576(16) 0.79244(16) 0.39787(10)
H19 H 0.94020 0.73830 0.43950
C20 C 0.89740(15) 0.77801(16) 0.32565(10)
H20 H 0.84040 0.71500 0.31730
C21 C 0.92361(15) 0.85662(17) 0.26633(10)
C22 C 1.00615(16) 0.94858(16) 0.2752(1)
H21 H 1.02390 1.00010 0.23250
C23 C 1.06295(15) 0.96437(15) 0.34799(9)
H22 H 1.11920 1.02820 0.35590
C24 C 0.93076(17) 1.06904(15) 0.9078(1)
H23 H 0.97580 1.10760 0.95100
H24 H 0.85070 1.03880 0.92730
H25 H 0.91560 1.12620 0.86560
loop_
_geom_bond_atom_site_label_1
_geom_bond_atom_site_label_2
_geom_bond_site_symmetry_1
_geom_bond_site_symmetry_2
S1 C1 1_555 1_555
F1 C21 1_555 1_555
O1 H1 1_555 1_555
N1 N2 1_555 1_555
N2 C13 1_555 1_555
C1 H2 1_555 1_555
C2 C1 1_555 1_555
C3 C2 1_555 1_555
H3 C3 1_555 1_555
C4 S1 1_555 1_555
H4 C4 1_555 1_555
C5 O1 1_555 1_555
C6 C5 1_555 1_555
H5 C6 1_555 1_555
C7 C6 1_555 1_555
H6 C7 1_555 1_555
H7 C7 1_555 1_555
C8 C7 1_555 1_555
H8 C8 1_555 1_555
H9 C8 1_555 1_555
C9 C8 1_555 1_555
H10 C9 1_555 1_555
H11 C9 1_555 1_555
C10 C9 1_555 1_555
C11 C10 1_555 1_555
H12 C11 1_555 1_555
C12 N1 1_555 1_555
C13 H13 1_555 1_555
C14 C12 1_555 1_555
C15 C14 1_555 1_555
H14 C15 1_555 1_555
H15 C15 1_555 1_555
C16 C6 1_555 1_555
C17 C16 1_555 1_555
H16 C17 1_555 1_555
H17 C17 1_555 1_555
H18 C17 1_555 1_555
C18 N1 1_555 1_555
C19 C18 1_555 1_555
H19 C19 1_555 1_555
C20 C19 1_555 1_555
H20 C20 1_555 1_555
C21 C20 1_555 1_555
C22 C21 1_555 1_555
H21 C22 1_555 1_555
C23 C18 1_555 1_555
H22 C23 1_555 1_555
C24 C5 1_555 1_555
H23 C24 1_555 1_555
H24 C24 1_555 1_555
H25 C24 1_555 1_555
C2 C5 1_555 1_555
C3 C4 1_555 1_555
C10 C16 1_555 1_555
C11 C12 1_555 1_555
C13 C14 1_555 1_555
C15 C16 1_555 1_555
C22 C23 1_555 1_555

#END
