
#######################################################################
#
#                 Cambridge Crystallographic Data Centre
#                                CCDC 
#
#######################################################################
#
# If this CIF has been generated from an entry in the Cambridge 
# Structural Database, then it will include bibliographic, chemical, 
# crystal, experimental, refinement or atomic coordinate data resulting 
# from the CCDC's data processing and validation procedures.
#
#######################################################################

data_FAKJAF
_chemical_formula_moiety         'C15 H13 N5 S1'
_chemical_name_systematic        
1-cyclopropyl-3,5-bis(pyridin-2-yl)-1\l^4^,2,4,6-thiatriazine
_symmetry_cell_setting           monoclinic
_symmetry_space_group_name_H-M   'P 21/c'
_symmetry_Int_Tables_number      14
_space_group_name_Hall           '-P 2ybc'
loop_
_symmetry_equiv_pos_site_id
_symmetry_equiv_pos_as_xyz
1 x,y,z
2 -x,1/2+y,1/2-z
3 -x,-y,-z
4 x,1/2-y,1/2+z
_cell_length_a                   10.4365(14)
_cell_length_b                   15.482(2)
_cell_length_c                   9.3960(12)
_cell_angle_alpha                90
_cell_angle_beta                 110.5890(10)
_cell_angle_gamma                90
_cell_volume                     1421.21
_exptl_crystal_colour            yellow
_exptl_crystal_description       block
_cell_formula_units_Z            4
loop_
_atom_site_label
_atom_site_type_symbol
_atom_site_fract_x
_atom_site_fract_y
_atom_site_fract_z
S1 S 0.39241(4) 0.84256(2) 0.49738(4)
N1 N 0.51743(12) 0.70292(7) 0.39323(14)
N2 N 0.55622(13) 0.84251(8) 0.51485(15)
N3 N 0.34148(13) 0.74114(8) 0.49250(15)
N4 N 0.22596(14) 0.58481(9) 0.41119(18)
N5 N 0.82029(14) 0.83483(10) 0.53748(17)
C1 C 0.59241(14) 0.77399(9) 0.45451(15)
C2 C 0.34211(14) 0.60033(9) 0.38553(16)
C3 C 0.40288(14) 0.68871(9) 0.42463(15)
C4 C 0.73801(14) 0.77097(10) 0.46100(16)
C5 C 0.31048(14) 0.87801(9) 0.30856(18)
H1 H 0.3311 0.8464 0.2263
C6 C 0.78190(16) 0.70448(11) 0.39126(19)
H2 H 0.7192 0.6621 0.3337
C7 C 0.40478(18) 0.53974(10) 0.32478(19)
H3 H 0.4878 0.5530 0.3093
C8 C 0.28211(18) 0.97348(10) 0.2879(2)
H4 H 0.3141 1.0105 0.3795
H5 H 0.2858 1.0007 0.1941
C9 C 0.16823(17) 0.91258(11) 0.2727(2)
H6 H 0.1011 0.9021 0.1695
H7 H 0.1294 0.9119 0.3549
C10 C 0.91872(18) 0.70068(13) 0.4066(2)
H8 H 0.9516 0.6553 0.3606
C11 C 0.2255(2) 0.44197(11) 0.3116(2)
H9 H 0.1814 0.3875 0.2862
C12 C 1.00623(18) 0.76368(15) 0.4896(2)
H10 H 1.1011 0.7621 0.5049
C13 C 0.3446(2) 0.45884(11) 0.2864(2)
H11 H 0.3854 0.4160 0.2435
C14 C 0.1715(2) 0.50595(13) 0.3745(2)
H12 H 0.0898 0.4935 0.3933
C15 C 0.95195(19) 0.82911(15) 0.5499(2)
H13 H 1.0122 0.8735 0.6043
loop_
_geom_bond_atom_site_label_1
_geom_bond_atom_site_label_2
_geom_bond_site_symmetry_1
_geom_bond_site_symmetry_2
S1 N2 1_555 1_555
N1 C1 1_555 1_555
N2 C1 1_555 1_555
N3 S1 1_555 1_555
N4 C2 1_555 1_555
N5 C4 1_555 1_555
C1 C4 1_555 1_555
C2 C3 1_555 1_555
C3 N1 1_555 1_555
C4 C6 1_555 1_555
C5 S1 1_555 1_555
H1 C5 1_555 1_555
C6 H2 1_555 1_555
C7 C2 1_555 1_555
H3 C7 1_555 1_555
C8 C5 1_555 1_555
H4 C8 1_555 1_555
H5 C8 1_555 1_555
C9 C5 1_555 1_555
H6 C9 1_555 1_555
H7 C9 1_555 1_555
C10 C6 1_555 1_555
H8 C10 1_555 1_555
C11 H9 1_555 1_555
C12 C10 1_555 1_555
H10 C12 1_555 1_555
C13 C7 1_555 1_555
H11 C13 1_555 1_555
C14 N4 1_555 1_555
H12 C14 1_555 1_555
C15 N5 1_555 1_555
H13 C15 1_555 1_555
N3 C3 1_555 1_555
C8 C9 1_555 1_555
C11 C13 1_555 1_555
C11 C14 1_555 1_555
C12 C15 1_555 1_555

#END
