
#######################################################################
#
#                 Cambridge Crystallographic Data Centre
#                                CCDC 
#
#######################################################################
#
# If this CIF has been generated from an entry in the Cambridge 
# Structural Database, then it will include bibliographic, chemical, 
# crystal, experimental, refinement or atomic coordinate data resulting 
# from the CCDC's data processing and validation procedures.
#
#######################################################################

data_FAKKAE
_chemical_formula_moiety         'C21 H21 Cl3 N3 P3'
_chemical_name_systematic        
cis-1,3,5-tris(Chloromethyl)-1,3,5-triphenylcyclotriphosphazene
_symmetry_cell_setting           monoclinic
_symmetry_space_group_name_H-M   'P 2/c'
_symmetry_Int_Tables_number      13
_space_group_name_Hall           '-P 2yc'
loop_
_symmetry_equiv_pos_site_id
_symmetry_equiv_pos_as_xyz
1 x,y,z
2 -x,y,1/2-z
3 -x,-y,-z
4 x,-y,1/2+z
_cell_length_a                   12.278(1)
_cell_length_b                   9.287(1)
_cell_length_c                   21.823(2)
_cell_angle_alpha                90
_cell_angle_beta                 104.413(6)
_cell_angle_gamma                90
_cell_volume                     2410.07
_exptl_crystal_colour            colorless
_exptl_crystal_description       plates
_cell_formula_units_Z            4
_exptl_crystal_recrystallization_method 'ethyl acetate'
loop_
_atom_site_label
_atom_site_type_symbol
_atom_site_fract_x
_atom_site_fract_y
_atom_site_fract_z
P1 P 0.46974(5) 0.32168(7) 0.40882(3)
P2 P 0.31490(5) 0.25760(7) 0.29524(3)
P3 P 0.24281(5) 0.39089(7) 0.39218(3)
N1 N 0.36863(16) 0.3807(2) 0.43591(9)
N2 N 0.43968(16) 0.2496(2) 0.34014(9)
N3 N 0.21735(16) 0.3139(3) 0.32530(9)
Cl1 Cl 0.51049(7) 0.60043(8) 0.35124(4)
Cl2 Cl 0.20163(7) 0.38602(10) 0.16960(4)
Cl3 Cl 0.07240(8) 0.61473(11) 0.33969(5)
C1 C 0.5678(2) 0.4681(3) 0.40970(12)
H1 H 0.5862 0.5128 0.4512
H2 H 0.6367 0.4301 0.4019
C2 C 0.3277(2) 0.3725(3) 0.23009(12)
H3 H 0.3502 0.4681 0.2463
H4 H 0.3865 0.3348 0.2121
C3 C 0.2128(2) 0.5820(3) 0.38260(15)
H5 H 0.2256 0.6267 0.4240
H6 H 0.2639 0.6258 0.3605
C4 C 0.5571(2) 0.2029(3) 0.46546(12)
C5 C 0.5391(2) 0.1847(3) 0.52482(12)
H7 H 0.4791 0.2311 0.5353
C6 C 0.6093(3) 0.0981(3) 0.56880(14)
H8 H 0.5962 0.0866 0.6087
C7 C 0.6973(3) 0.0293(4) 0.55447(17)
H9 H 0.7447 -0.0281 0.5846
C8 C 0.7164(3) 0.0444(4) 0.4956(2)
H10 H 0.7760 -0.0042 0.4856
C9 C 0.6473(2) 0.1317(4) 0.45090(16)
H11 H 0.6611 0.1427 0.4111
C10 C 0.2700(9) 0.0798(12) 0.2628(6)
C11 C 0.1580(7) 0.0504(10) 0.2403(5)
H12 H 0.1045 0.1191 0.2433
C12 C 0.1247(8) -0.0813(11) 0.2131(6)
H13 H 0.0490 -0.0997 0.1954
C13 C 0.2035(10) -0.1850(13) 0.2122(8)
H14 H 0.1806 -0.2772 0.1981
C14 C 0.3155(7) -0.1537(9) 0.2319(5)
H15 H 0.3687 -0.2220 0.2278
C15 C 0.3497(5) -0.0211(8) 0.2577(4)
H16 H 0.4258 0.0003 0.2716
C22 C 0.14542(19) 0.3259(3) 0.43514(11)
C23 C 0.1543(3) 0.3716(5) 0.49638(15)
H22 H 0.2109 0.4358 0.5152
C24 C 0.0799(3) 0.3231(6) 0.52999(16)
H23 H 0.0859 0.3562 0.5709
C25 C -0.0009(3) 0.2282(4) 0.50390(17)
H24 H -0.0493 0.1941 0.5273
C26 C -0.0125(3) 0.1814(4) 0.44306(18)
H25 H -0.0691 0.1166 0.4249
C27 C 0.0613(2) 0.2316(3) 0.40858(14)
H26 H 0.0533 0.2008 0.3672
C16? C 0.2808(11) 0.0913(16) 0.2566(7)
C17? C 0.1887(13) 0.0117(14) 0.2627(5)
H17? H 0.1419 0.0487 0.2864
C18? C 0.1650(15) -0.1204(15) 0.2344(7)
H18? H 0.1038 -0.1729 0.2402
C19? C 0.2308(16) -0.1757(18) 0.1978(9)
H19? H 0.2133 -0.2641 0.1778
C20? C 0.3223(10) -0.0997(12) 0.1911(9)
H20? H 0.3685 -0.1371 0.1671
C21? C 0.3458(7) 0.0320(11) 0.2199(7)
H21? H 0.4079 0.0830 0.2144
loop_
_geom_bond_atom_site_label_1
_geom_bond_atom_site_label_2
_geom_bond_site_symmetry_1
_geom_bond_site_symmetry_2
P1 N1 1_555 1_555
P2 N2 1_555 1_555
P3 N1 1_555 1_555
N2 P1 1_555 1_555
N3 P2 1_555 1_555
Cl1 C1 1_555 1_555
Cl2 C2 1_555 1_555
Cl3 C3 1_555 1_555
C1 P1 1_555 1_555
H1 C1 1_555 1_555
H2 C1 1_555 1_555
C2 P2 1_555 1_555
H3 C2 1_555 1_555
H4 C2 1_555 1_555
C3 P3 1_555 1_555
H5 C3 1_555 1_555
H6 C3 1_555 1_555
C4 P1 1_555 1_555
C5 C4 1_555 1_555
H7 C5 1_555 1_555
C6 C5 1_555 1_555
H8 C6 1_555 1_555
C7 C6 1_555 1_555
H9 C7 1_555 1_555
C8 C7 1_555 1_555
H10 C8 1_555 1_555
C9 C4 1_555 1_555
H11 C9 1_555 1_555
C10 P2 1_555 1_555
C11 C10 1_555 1_555
H12 C11 1_555 1_555
C12 C11 1_555 1_555
H13 C12 1_555 1_555
C13 C12 1_555 1_555
H14 C13 1_555 1_555
C14 C13 1_555 1_555
H15 C14 1_555 1_555
C15 C10 1_555 1_555
H16 C15 1_555 1_555
C22 P3 1_555 1_555
C23 C22 1_555 1_555
H22 C23 1_555 1_555
C24 C23 1_555 1_555
H23 C24 1_555 1_555
C25 C24 1_555 1_555
H24 C25 1_555 1_555
C26 C25 1_555 1_555
H25 C26 1_555 1_555
C27 C22 1_555 1_555
H26 C27 1_555 1_555
P3 N3 1_555 1_555
C8 C9 1_555 1_555
C14 C15 1_555 1_555
C26 C27 1_555 1_555

#END
