
#######################################################################
#
#                 Cambridge Crystallographic Data Centre
#                                CCDC 
#
#######################################################################
#
# If this CIF has been generated from an entry in the Cambridge 
# Structural Database, then it will include bibliographic, chemical, 
# crystal, experimental, refinement or atomic coordinate data resulting 
# from the CCDC's data processing and validation procedures.
#
#######################################################################

data_FALBIG
_chemical_formula_moiety         'C44 H72 Li4 O4 S4 Si4'
_chemical_name_systematic        
bis(\m-5,5'-bis(trimethylsilyl)[3,3'-bithiophene]-2,2'-diyl)-tetrakis(tetrahydrofuran)-tetra-lithium
_symmetry_cell_setting           tetragonal
_symmetry_space_group_name_H-M   'I 41/a'
_symmetry_Int_Tables_number      88
_space_group_name_Hall           '-I 4ad'
loop_
_symmetry_equiv_pos_site_id
_symmetry_equiv_pos_as_xyz
1 x,y,z
2 1/2-x,-y,1/2+z
3 3/4-y,1/4+x,1/4+z
4 3/4+y,3/4-x,3/4+z
5 1/2+x,1/2+y,1/2+z
6 -x,1/2-y,z
7 1/4-y,3/4+x,3/4+z
8 1/4+y,1/4-x,1/4+z
9 -x,-y,-z
10 1/2+x,y,1/2-z
11 1/4+y,3/4-x,3/4-z
12 1/4-y,1/4+x,1/4-z
13 1/2-x,1/2-y,1/2-z
14 x,1/2+y,-z
15 3/4+y,1/4-x,1/4-z
16 3/4-y,3/4+x,3/4-z
_cell_length_a                   20.763(3)
_cell_length_b                   20.763(3)
_cell_length_c                   13.7545(18)
_cell_angle_alpha                90
_cell_angle_beta                 90
_cell_angle_gamma                90
_cell_volume                     5929.59
_exptl_crystal_colour            colorless
_exptl_crystal_description       block
_cell_formula_units_Z            4
_exptl_crystal_recrystallization_method hexane
loop_
_atom_site_label
_atom_site_type_symbol
_atom_site_fract_x
_atom_site_fract_y
_atom_site_fract_z
S1 S 0.59462(7) 0.36868(7) 0.01803(9)
Si1 Si 0.61597(9) 0.41401(9) 0.23650(11)
C1 C 0.5467(2) 0.3051(2) -0.0182(3)
C2 C 0.5217(2) 0.2777(2) 0.0675(3)
C3 C 0.5430(2) 0.3094(2) 0.1548(3)
H1 H 0.5303 0.2959 0.2164
C4 C 0.5829(2) 0.3601(2) 0.1412(3)
C5 C 0.6868(3) 0.4593(4) 0.1911(5)
H2 H 0.6743 0.4852 0.1365
H3 H 0.7030 0.4866 0.2419
H4 H 0.7197 0.4295 0.1716
C6 C 0.5532(4) 0.4732(5) 0.2729(7)
H5 H 0.5414 0.4989 0.2177
H6 H 0.5160 0.4507 0.2966
H7 H 0.5699 0.5006 0.3232
C7 C 0.6389(6) 0.3652(5) 0.3394(6)
H8 H 0.6020 0.3418 0.3625
H9 H 0.6718 0.3353 0.3200
H10 H 0.6551 0.3923 0.3903
C8 C 0.5912(5) 0.4069(5) -0.3095(8)
H11 H 0.5887 0.4499 -0.2823
H12 H 0.5505 0.3965 -0.3403
C9 C 0.6455(6) 0.4014(7) -0.3795(9)
H13 H 0.6291 0.3830 -0.4394
H14 H 0.6609 0.4444 -0.3942
C10 C 0.6994(7) 0.3631(8) -0.3473(9)
H15 H 0.7375 0.3889 -0.3350
H16 H 0.7095 0.3285 -0.3921
C11 C 0.6697(4) 0.3400(5) -0.2586(7)
H17 H 0.6684 0.2934 -0.2609
H18 H 0.6969 0.3521 -0.2043
O1 O 0.6065(2) 0.3627(2) -0.2397(3)
Li1 Li 0.5465(4) 0.3057(4) -0.1783(5)
S1E S 0.40538(7) 0.13132(7) 0.01803(9)
Si1E Si 0.38403(9) 0.08599(9) 0.23650(11)
C1E C 0.4533(2) 0.1949(2) -0.0182(3)
C2E C 0.4783(2) 0.2223(2) 0.0675(3)
C3E C 0.4570(2) 0.1906(2) 0.1548(3)
H1E H 0.4697 0.2041 0.2164
C4E C 0.4171(2) 0.1399(2) 0.1412(3)
C5E C 0.3132(3) 0.0407(4) 0.1911(5)
H2E H 0.3257 0.0148 0.1365
H3E H 0.2970 0.0134 0.2419
H4E H 0.2803 0.0705 0.1716
C6E C 0.4468(4) 0.0268(5) 0.2729(7)
H5E H 0.4586 0.0011 0.2177
H6E H 0.4840 0.0493 0.2966
H7E H 0.4301 -0.0006 0.3232
C7E C 0.3611(6) 0.1348(5) 0.3394(6)
H8E H 0.3980 0.1582 0.3625
H9E H 0.3282 0.1647 0.3200
H10E H 0.3449 0.1077 0.3903
C8E C 0.4088(5) 0.0931(5) -0.3095(8)
H11E H 0.4113 0.0501 -0.2823
H12E H 0.4495 0.1035 -0.3403
C9E C 0.3545(6) 0.0986(7) -0.3795(9)
H13E H 0.3709 0.1170 -0.4394
H14E H 0.3391 0.0556 -0.3942
C10E C 0.3006(7) 0.1369(8) -0.3473(9)
H15E H 0.2625 0.1111 -0.3350
H16E H 0.2905 0.1715 -0.3921
C11E C 0.3303(4) 0.1600(5) -0.2586(7)
H17E H 0.3316 0.2066 -0.2609
H18E H 0.3031 0.1479 -0.2043
O1E O 0.3935(2) 0.1373(2) -0.2397(3)
Li1E Li 0.4535(4) 0.1943(4) -0.1783(5)
S1J S 0.61868(7) 0.15538(7) -0.26803(9)
Si1J Si 0.66401(9) 0.13403(9) -0.48650(11)
C1J C 0.5551(2) 0.2033(2) -0.2318(3)
C2J C 0.5277(2) 0.2283(2) -0.3175(3)
C3J C 0.5594(2) 0.2070(2) -0.4048(3)
H1J H 0.5459 0.2197 -0.4664
C4J C 0.6101(2) 0.1671(2) -0.3912(3)
C5J C 0.7093(4) 0.0632(3) -0.4411(5)
H2J H 0.7352 0.0757 -0.3865
H3J H 0.7366 0.0470 -0.4919
H4J H 0.6795 0.0303 -0.4216
C6J C 0.7232(5) 0.1968(4) -0.5229(7)
H5J H 0.7489 0.2086 -0.4677
H6J H 0.7007 0.2340 -0.5466
H7J H 0.7506 0.1801 -0.5732
C7J C 0.6152(5) 0.1111(6) -0.5894(6)
H8J H 0.5918 0.1480 -0.6125
H9J H 0.5853 0.0782 -0.5700
H10J H 0.6423 0.0949 -0.6403
C8J C 0.6569(5) 0.1588(5) 0.0595(8)
H11J H 0.6999 0.1613 0.0323
H12J H 0.6465 0.1995 0.0903
C9J C 0.6514(7) 0.1045(6) 0.1295(9)
H13J H 0.6330 0.1209 0.1894
H14J H 0.6944 0.0891 0.1442
C10J C 0.6131(8) 0.0506(7) 0.0973(9)
H15J H 0.6389 0.0125 0.0850
H16J H 0.5785 0.0405 0.1421
C11J C 0.5900(5) 0.0803(4) 0.0086(7)
H17J H 0.5434 0.0816 0.0109
H18J H 0.6021 0.0531 -0.0457
O1J O 0.6127(2) 0.1435(2) -0.0103(3)
Li1J Li 0.5557(4) 0.2035(4) -0.0717(5)
S1O S 0.38132(7) 0.34462(7) -0.26803(9)
Si1O Si 0.33599(9) 0.36597(9) -0.48650(11)
C1O C 0.4449(2) 0.2967(2) -0.2318(3)
C2O C 0.4723(2) 0.2717(2) -0.3175(3)
C3O C 0.4406(2) 0.2930(2) -0.4048(3)
H1O H 0.4541 0.2803 -0.4664
C4O C 0.3899(2) 0.3329(2) -0.3912(3)
C5O C 0.2907(4) 0.4368(3) -0.4411(5)
H2O H 0.2648 0.4243 -0.3865
H3O H 0.2634 0.4530 -0.4919
H4O H 0.3205 0.4697 -0.4216
C6O C 0.2768(5) 0.3032(4) -0.5229(7)
H5O H 0.2511 0.2914 -0.4677
H6O H 0.2993 0.2660 -0.5466
H7O H 0.2494 0.3199 -0.5732
C7O C 0.3848(5) 0.3889(6) -0.5894(6)
H8O H 0.4082 0.3520 -0.6125
H9O H 0.4147 0.4218 -0.5700
H10O H 0.3577 0.4051 -0.6403
C8O C 0.3431(5) 0.3412(5) 0.0595(8)
H11O H 0.3001 0.3387 0.0323
H12O H 0.3535 0.3005 0.0903
C9O C 0.3486(7) 0.3955(6) 0.1295(9)
H13O H 0.3670 0.3791 0.1894
H14O H 0.3056 0.4109 0.1442
C10O C 0.3869(8) 0.4494(7) 0.0973(9)
H15O H 0.3611 0.4875 0.0850
H16O H 0.4215 0.4595 0.1421
C11O C 0.4100(5) 0.4197(4) 0.0086(7)
H17O H 0.4566 0.4184 0.0109
H18O H 0.3979 0.4469 -0.0457
O1O O 0.3873(2) 0.3565(2) -0.0103(3)
Li1O Li 0.4443(4) 0.2965(4) -0.0717(5)
loop_
_geom_bond_atom_site_label_1
_geom_bond_atom_site_label_2
_geom_bond_site_symmetry_1
_geom_bond_site_symmetry_2
S1 C1 1_555 1_555
Si1 C4 1_555 1_555
C1 C2 1_555 1_555
C2 C3 1_555 1_555
C3 H1 1_555 1_555
C4 S1 1_555 1_555
C5 Si1 1_555 1_555
H2 C5 1_555 1_555
H3 C5 1_555 1_555
H4 C5 1_555 1_555
C6 Si1 1_555 1_555
H5 C6 1_555 1_555
H6 C6 1_555 1_555
H7 C6 1_555 1_555
C7 Si1 1_555 1_555
H8 C7 1_555 1_555
H9 C7 1_555 1_555
H10 C7 1_555 1_555
C8 H11 1_555 1_555
H12 C8 1_555 1_555
C9 C8 1_555 1_555
H13 C9 1_555 1_555
H14 C9 1_555 1_555
C10 C9 1_555 1_555
H15 C10 1_555 1_555
H16 C10 1_555 1_555
C11 C10 1_555 1_555
H17 C11 1_555 1_555
H18 C11 1_555 1_555
O1 C8 1_555 1_555
Li1 C1 1_555 1_555
S1E C1E 1_555 1_555
Si1E C4E 1_555 1_555
C1E C2E 1_555 1_555
C2E C2 1_555 1_555
C3E C2E 1_555 1_555
H1E C3E 1_555 1_555
C4E S1E 1_555 1_555
C5E Si1E 1_555 1_555
H2E C5E 1_555 1_555
H3E C5E 1_555 1_555
H4E C5E 1_555 1_555
C6E Si1E 1_555 1_555
H5E C6E 1_555 1_555
H6E C6E 1_555 1_555
H7E C6E 1_555 1_555
C7E Si1E 1_555 1_555
H8E C7E 1_555 1_555
H9E C7E 1_555 1_555
H10E C7E 1_555 1_555
C8E H11E 1_555 1_555
H12E C8E 1_555 1_555
C9E C8E 1_555 1_555
H13E C9E 1_555 1_555
H14E C9E 1_555 1_555
C10E C9E 1_555 1_555
H15E C10E 1_555 1_555
H16E C10E 1_555 1_555
C11E C10E 1_555 1_555
H17E C11E 1_555 1_555
H18E C11E 1_555 1_555
O1E C8E 1_555 1_555
Li1E C1E 1_555 1_555
S1J C1J 1_555 1_555
Si1J C4J 1_555 1_555
C1J Li1 1_555 1_555
C2J Li1 1_555 1_555
C3J C2J 1_555 1_555
H1J C3J 1_555 1_555
C4J S1J 1_555 1_555
C5J Si1J 1_555 1_555
H2J C5J 1_555 1_555
H3J C5J 1_555 1_555
H4J C5J 1_555 1_555
C6J Si1J 1_555 1_555
H5J C6J 1_555 1_555
H6J C6J 1_555 1_555
H7J C6J 1_555 1_555
C7J Si1J 1_555 1_555
H8J C7J 1_555 1_555
H9J C7J 1_555 1_555
H10J C7J 1_555 1_555
C8J H11J 1_555 1_555
H12J C8J 1_555 1_555
C9J C8J 1_555 1_555
H13J C9J 1_555 1_555
H14J C9J 1_555 1_555
C10J C9J 1_555 1_555
H15J C10J 1_555 1_555
H16J C10J 1_555 1_555
C11J C10J 1_555 1_555
H17J C11J 1_555 1_555
H18J C11J 1_555 1_555
O1J C8J 1_555 1_555
Li1J C1 1_555 1_555
S1O C1O 1_555 1_555
Si1O C4O 1_555 1_555
C1O Li1 1_555 1_555
C2O Li1 1_555 1_555
C3O C2O 1_555 1_555
H1O C3O 1_555 1_555
C4O S1O 1_555 1_555
C5O Si1O 1_555 1_555
H2O C5O 1_555 1_555
H3O C5O 1_555 1_555
H4O C5O 1_555 1_555
C6O Si1O 1_555 1_555
H5O C6O 1_555 1_555
H6O C6O 1_555 1_555
H7O C6O 1_555 1_555
C7O Si1O 1_555 1_555
H8O C7O 1_555 1_555
H9O C7O 1_555 1_555
H10O C7O 1_555 1_555
C8O H11O 1_555 1_555
H12O C8O 1_555 1_555
C9O C8O 1_555 1_555
H13O C9O 1_555 1_555
H14O C9O 1_555 1_555
C10O C9O 1_555 1_555
H15O C10O 1_555 1_555
H16O C10O 1_555 1_555
C11O C10O 1_555 1_555
H17O C11O 1_555 1_555
H18O C11O 1_555 1_555
O1O C8O 1_555 1_555
Li1O C1 1_555 1_555
C2 Li1J 1_555 1_555
C2 Li1O 1_555 1_555
C3 C4 1_555 1_555
C11 O1 1_555 1_555
O1 Li1 1_555 1_555
C1E Li1J 1_555 1_555
C1E Li1O 1_555 1_555
C2E Li1J 1_555 1_555
C2E Li1O 1_555 1_555
C3E C4E 1_555 1_555
C11E O1E 1_555 1_555
O1E Li1E 1_555 1_555
Li1E C1J 1_555 1_555
Li1E C2J 1_555 1_555
Li1E C1O 1_555 1_555
Li1E C2O 1_555 1_555
C1J C2J 1_555 1_555
C1J Li1J 1_555 1_555
C2J C2O 1_555 1_555
C3J C4J 1_555 1_555
C11J O1J 1_555 1_555
O1J Li1J 1_555 1_555
C1O C2O 1_555 1_555
C1O Li1O 1_555 1_555
C3O C4O 1_555 1_555
C11O O1O 1_555 1_555
O1O Li1O 1_555 1_555

#END
