
#######################################################################
#
#                 Cambridge Crystallographic Data Centre
#                                CCDC 
#
#######################################################################
#
# If this CIF has been generated from an entry in the Cambridge 
# Structural Database, then it will include bibliographic, chemical, 
# crystal, experimental, refinement or atomic coordinate data resulting 
# from the CCDC's data processing and validation procedures.
#
#######################################################################

data_FALGEF
_chemical_formula_moiety         'C15 H22 O3'
_chemical_name_systematic        
(+-)-4a\a-hydroxy-2,5,5,8a\a-tetramethyl-8(7H)-oxo-3,4,4a,5,6,8a-hexahydronaphthalene-1-carboxaldehyde
_symmetry_cell_setting           monoclinic
_symmetry_space_group_name_H-M   'P 21/n'
_symmetry_Int_Tables_number      14
_space_group_name_Hall           '-P 2yn'
loop_
_symmetry_equiv_pos_site_id
_symmetry_equiv_pos_as_xyz
1 x,y,z
2 1/2-x,1/2+y,1/2-z
3 -x,-y,-z
4 1/2+x,1/2-y,1/2+z
_cell_length_a                   7.838(1)
_cell_length_b                   13.757(2)
_cell_length_c                   12.465(2)
_cell_angle_alpha                90
_cell_angle_beta                 94.797(2)
_cell_angle_gamma                90
_cell_volume                     1339.36
_exptl_crystal_colour            colorless
_exptl_crystal_description       block
_chemical_melting_point          '162-164 deg.C'
_cell_formula_units_Z            4
loop_
_atom_site_label
_atom_site_type_symbol
_atom_site_fract_x
_atom_site_fract_y
_atom_site_fract_z
O1 O -0.18206(11) 0.81861(7) 0.92636(7)
O2 O 0.17855(10) 0.77327(6) 0.81819(6)
H1 H 0.281(3) 0.7602(13) 0.8016(14)
O3 O -0.47477(11) 0.73046(8) 0.78049(8)
C1 C -0.10821(13) 0.72090(8) 0.77586(8)
C2 C -0.17842(14) 0.81146(9) 0.82926(9)
C3 C -0.21576(16) 0.89614(9) 0.75470(10)
H2 H -0.2708 0.9494 0.7925
H3 H -0.2932 0.8762 0.6917
C4 C -0.04260(16) 0.92944(9) 0.71870(10)
H4 H 0.0331 0.9483 0.7829
H5 H -0.0604 0.9876 0.6723
C5 C 0.04634(15) 0.85009(9) 0.65655(9)
C6 C 0.22778(18) 0.88802(11) 0.63942(12)
H6 H 0.2188 0.9487 0.5981
H7 H 0.2889 0.8394 0.5999
H8 H 0.2906 0.9001 0.7095
C7 C -0.04743(18) 0.83796(10) 0.54373(10)
H9 H -0.0528 0.9008 0.5067
H10 H -0.1638 0.8141 0.5506
H11 H 0.0147 0.7913 0.5022
C8 C 0.06187(13) 0.75351(8) 0.72587(8)
C9 C 0.12984(14) 0.66677(9) 0.66449(9)
H12 H 0.2215 0.6906 0.6212
H13 H 0.1828 0.6201 0.7178
C10 C -0.00176(14) 0.61176(9) 0.58944(9)
H14 H 0.0161 0.6303 0.5145
H15 H 0.0234 0.5414 0.5967
C11 C -0.18718(14) 0.62642(8) 0.60553(9)
C12 C -0.30407(15) 0.57653(9) 0.52048(9)
H16 H -0.4235 0.5881 0.5346
H17 H -0.2810 0.5065 0.5220
H18 H -0.2837 0.6026 0.4495
C13 C -0.23709(13) 0.67913(8) 0.68890(9)
C14 C -0.41877(14) 0.68777(9) 0.70492(10)
H19 H -0.4986 0.6583 0.6533
C15 C -0.07199(15) 0.64136(9) 0.86176(9)
H20 H -0.1793 0.6225 0.8911
H21 H 0.0080 0.6664 0.9199
H22 H -0.0216 0.5846 0.8289
loop_
_geom_bond_atom_site_label_1
_geom_bond_atom_site_label_2
_geom_bond_site_symmetry_1
_geom_bond_site_symmetry_2
O1 C2 1_555 1_555
O2 H1 1_555 1_555
O3 C14 1_555 1_555
C1 C2 1_555 1_555
C2 C3 1_555 1_555
C3 H2 1_555 1_555
H3 C3 1_555 1_555
C4 C3 1_555 1_555
H4 C4 1_555 1_555
H5 C4 1_555 1_555
C5 C4 1_555 1_555
C6 C5 1_555 1_555
H6 C6 1_555 1_555
H7 C6 1_555 1_555
H8 C6 1_555 1_555
C7 C5 1_555 1_555
H9 C7 1_555 1_555
H10 C7 1_555 1_555
H11 C7 1_555 1_555
C8 O2 1_555 1_555
C9 C8 1_555 1_555
H12 C9 1_555 1_555
H13 C9 1_555 1_555
C10 C9 1_555 1_555
H14 C10 1_555 1_555
H15 C10 1_555 1_555
C11 C10 1_555 1_555
C12 C11 1_555 1_555
H16 C12 1_555 1_555
H17 C12 1_555 1_555
H18 C12 1_555 1_555
C13 C1 1_555 1_555
C14 C13 1_555 1_555
H19 C14 1_555 1_555
C15 C1 1_555 1_555
H20 C15 1_555 1_555
H21 C15 1_555 1_555
H22 C15 1_555 1_555
C1 C8 1_555 1_555
C5 C8 1_555 1_555
C11 C13 1_555 1_555

#END
