
#######################################################################
#
#                 Cambridge Crystallographic Data Centre
#                                CCDC 
#
#######################################################################
#
# If this CIF has been generated from an entry in the Cambridge 
# Structural Database, then it will include bibliographic, chemical, 
# crystal, experimental, refinement or atomic coordinate data resulting 
# from the CCDC's data processing and validation procedures.
#
#######################################################################

data_FALWOE10
_chemical_formula_moiety         'C22 H19 N1 O2'
_chemical_name_systematic        
N-Methyl-8,9-naphtho-4-phenyl-1-oxa-6-azaspiro(4.4)nona-7-one
_symmetry_cell_setting           monoclinic
_symmetry_space_group_name_H-M   'P 21/n'
_symmetry_Int_Tables_number      14
_space_group_name_Hall           '-P 2yn'
loop_
_symmetry_equiv_pos_site_id
_symmetry_equiv_pos_as_xyz
1 x,y,z
2 1/2-x,1/2+y,1/2-z
3 -x,-y,-z
4 1/2+x,1/2-y,1/2+z
_cell_length_a                   7.140(1)
_cell_length_b                   14.038(1)
_cell_length_c                   16.729(3)
_cell_angle_alpha                90
_cell_angle_beta                 97.28(1)
_cell_angle_gamma                90
_cell_volume                     1663.25
_exptl_crystal_colour            colorless
_cell_formula_units_Z            4
loop_
_atom_site_label
_atom_site_type_symbol
_atom_site_fract_x
_atom_site_fract_y
_atom_site_fract_z
O1 O 0.5813(2) 0.4036(1) 0.6115(1)
O2 O 0.1060(3) 0.3199(1) 0.7423(1)
N1 N 0.4052(3) 0.3688(2) 0.7130(1)
C1 C 0.4447(4) 0.4173(2) 0.6470(2)
C2 C 0.2891(3) 0.4865(2) 0.6270(1)
C3 C 0.2569(4) 0.5481(2) 0.5645(2)
C4 C 0.0851(3) 0.5997(2) 0.5541(2)
C5 C 0.0399(4) 0.6626(2) 0.4885(2)
C6 C -0.1294(5) 0.7089(2) 0.4783(2)
C7 C -0.2612(5) 0.6940(2) 0.5323(2)
C8 C -0.2228(4) 0.6342(2) 0.5962(2)
C9 C -0.0486(3) 0.5852(2) 0.6093(2)
C10 C -0.0076(4) 0.5210(2) 0.6748(2)
C11 C 0.1593(3) 0.4733(2) 0.6824(1)
C12 C 0.2319(3) 0.3988(2) 0.7435(2)
C13 C 0.2591(4) 0.4337(2) 0.8325(2)
C14 C 0.2216(5) 0.3429(2) 0.8784(2)
C15 C 0.0694(6) 0.2960(3) 0.8219(2)
C16 C 0.4412(4) 0.4864(2) 0.8565(1)
C17 C 0.5923(5) 0.4478(3) 0.9050(2)
C18 C 0.7577(5) 0.4978(3) 0.9238(2)
C19 C 0.7765(5) 0.5874(3) 0.8951(2)
C20 C 0.6277(5) 0.6289(3) 0.8480(2)
C21 C 0.4615(4) 0.5787(2) 0.8293(2)
C22 C 0.5151(7) 0.2861(3) 0.7425(3)
H1 H 0.344(3) 0.557(2) 0.525(1)
H2 H 0.134(4) 0.670(2) 0.451(2)
H3 H -0.154(4) 0.750(2) 0.431(2)
H4 H -0.377(4) 0.726(2) 0.525(2)
H5 H -0.318(4) 0.618(2) 0.635(2)
H6 H -0.105(3) 0.511(2) 0.710(1)
H7 H 0.150(3) 0.476(2) 0.837(1)
H8 H 0.188(3) 0.359(2) 0.932(2)
H9 H 0.344(5) 0.302(2) 0.885(2)
H10 H 0.071(5) 0.227(3) 0.825(2)
H11 H -0.055(5) 0.327(2) 0.828(2)
H12 H 0.579(4) 0.386(2) 0.928(2)
H13 H 0.860(5) 0.468(2) 0.958(2)
H14 H 0.897(4) 0.623(2) 0.908(2)
H15 H 0.631(4) 0.695(2) 0.827(2)
H16 H 0.357(4) 0.608(2) 0.798(2)
H17 H 0.572(6) 0.293(3) 0.794(3)
H18 H 0.432(6) 0.232(3) 0.742(2)
H19 H 0.596(7) 0.272(4) 0.703(3)
loop_
_geom_bond_atom_site_label_1
_geom_bond_atom_site_label_2
_geom_bond_site_symmetry_1
_geom_bond_site_symmetry_2
O1 C1 1_555 1_555
O2 C12 1_555 1_555
N1 C1 1_555 1_555
C1 C2 1_555 1_555
C2 C3 1_555 1_555
C3 C4 1_555 1_555
C4 C5 1_555 1_555
C5 C6 1_555 1_555
C6 C7 1_555 1_555
C7 C8 1_555 1_555
C8 C9 1_555 1_555
C9 C4 1_555 1_555
C10 C9 1_555 1_555
C11 C2 1_555 1_555
C12 N1 1_555 1_555
C13 C12 1_555 1_555
C14 C13 1_555 1_555
C15 O2 1_555 1_555
C16 C13 1_555 1_555
C17 C16 1_555 1_555
C18 C17 1_555 1_555
C19 C18 1_555 1_555
C20 C19 1_555 1_555
C21 C16 1_555 1_555
C22 N1 1_555 1_555
H1 C3 1_555 1_555
H2 C5 1_555 1_555
H3 C6 1_555 1_555
H4 C7 1_555 1_555
H5 C8 1_555 1_555
H6 C10 1_555 1_555
H7 C13 1_555 1_555
H8 C14 1_555 1_555
H9 C14 1_555 1_555
H10 C15 1_555 1_555
H11 C15 1_555 1_555
H12 C17 1_555 1_555
H13 C18 1_555 1_555
H14 C19 1_555 1_555
H15 C20 1_555 1_555
H16 C21 1_555 1_555
H17 C22 1_555 1_555
H18 C22 1_555 1_555
H19 C22 1_555 1_555
C10 C11 1_555 1_555
C11 C12 1_555 1_555
C14 C15 1_555 1_555
C20 C21 1_555 1_555

#END
