
#######################################################################
#
#                 Cambridge Crystallographic Data Centre
#                                CCDC 
#
#######################################################################
#
# If this CIF has been generated from an entry in the Cambridge 
# Structural Database, then it will include bibliographic, chemical, 
# crystal, experimental, refinement or atomic coordinate data resulting 
# from the CCDC's data processing and validation procedures.
#
#######################################################################

data_FALYAU
_chemical_formula_moiety         
'C10 H4 O8 2-,C10 H5 O8 1-,C18 H15 N6 3+,1.5(H2 O1)'
_chemical_name_systematic        
"4,4',4''-(1,3,5-triazine-2,4,6-triyl)tripyridinium 2,4,5-tricarboxybenzoate 2,5-dicarboxyterephthalate sesquihydrate"
_symmetry_cell_setting           triclinic
_symmetry_space_group_name_H-M   'P -1'
_symmetry_Int_Tables_number      2
_space_group_name_Hall           '-P 1'
loop_
_symmetry_equiv_pos_site_id
_symmetry_equiv_pos_as_xyz
1 x,y,z
2 -x,-y,-z
_cell_length_a                   7.8884(16)
_cell_length_b                   9.6713(19)
_cell_length_c                   25.380(5)
_cell_angle_alpha                82.76(3)
_cell_angle_beta                 89.58(2)
_cell_angle_gamma                68.29(3)
_cell_volume                     1782.96
_exptl_crystal_colour            yellow
_exptl_crystal_description       block
_cell_formula_units_Z            2
loop_
_atom_site_label
_atom_site_type_symbol
_atom_site_fract_x
_atom_site_fract_y
_atom_site_fract_z
O1 O -0.1123(4) 0.4173(3) 0.17424(15)
O2 O 0.1657(4) 0.3536(3) 0.14371(11)
O3 O -0.2736(3) 0.1568(3) 0.02149(9)
O4 O -0.1580(4) -0.0858(3) 0.02262(9)
O5 O 0.0372(4) -0.3089(2) 0.07638(10)
O6 O 0.1703(4) -0.3728(2) 0.15529(9)
O7 O 0.3388(3) -0.0779(2) 0.25373(8)
O8 O 0.1988(4) 0.1700(2) 0.24799(9)
C19 C 0.1279(4) 0.0432(3) 0.18284(10)
C20 C 0.1372(4) -0.0934(3) 0.16971(10)
H15 H 0.2058 -0.1793 0.1923
C21 C 0.0513(4) -0.1113(3) 0.12498(11)
C22 C -0.0566(4) 0.0206(3) 0.09126(11)
C23 C -0.0660(4) 0.1588(3) 0.10465(11)
H16 H -0.1374 0.2455 0.0828
C24 C 0.0256(4) 0.1739(3) 0.14890(11)
C25 C 0.0149(5) 0.3275(3) 0.15783(13)
C26 C -0.1692(4) 0.0315(3) 0.04213(11)
C27 C 0.0888(5) -0.2746(3) 0.11852(12)
C28 C 0.2272(4) 0.0505(3) 0.23196(11)
H22 H 0.151(12) 0.451(4) 0.143(4)
O9 O 0.5582(3) -0.2872(2) 0.36278(9)
O10 O 0.5179(3) -0.0548(2) 0.32814(8)
O11 O 0.6872(4) -0.4721(3) 0.48426(10)
O12 O 0.8950(3) -0.4860(2) 0.42384(8)
O13 O 0.8456(3) -0.1619(2) 0.60050(8)
O14 O 0.8707(3) 0.0523(2) 0.57326(9)
O15 O 0.7690(3) 0.23996(19) 0.49494(9)
O16 O 0.5699(3) 0.29740(18) 0.42802(8)
C29 C 0.6500(4) -0.1384(3) 0.41433(10)
C30 C 0.7357(4) -0.2536(3) 0.45558(10)
C31 C 0.7894(4) -0.2188(3) 0.50211(10)
H17 H 0.8419 -0.2959 0.5298
C32 C 0.7685(3) -0.0728(2) 0.50941(10)
C33 C 0.6920(3) 0.0427(2) 0.46656(10)
C34 C 0.6311(4) 0.0065(3) 0.42135(10)
H18 H 0.5741 0.0836 0.3940
C35 C 0.5715(4) -0.1649(3) 0.36488(11)
C36 C 0.7785(4) -0.4157(3) 0.45130(11)
C37 C 0.8307(4) -0.0625(3) 0.56468(10)
C38 C 0.6718(4) 0.2051(3) 0.46337(11)
H25 H 0.719(7) -0.575(6) 0.482(2)
H26 H 0.835(6) 0.126(5) 0.5436(19)
O17 O 0.1990(19) 0.4167(14) 0.0143(5)
H1 H 0.1346 0.4695 -0.0196
H2 H 0.2493 0.4323 0.0415
C1 C 0.5522(5) -0.2513(3) 0.09650(12)
H3 H 0.5698 -0.3457 0.0874
C2 C 0.6358(4) -0.2392(3) 0.14157(11)
H4 H 0.7093 -0.3250 0.1634
C3 C 0.4162(4) 0.0096(3) 0.07666(11)
H5 H 0.3406 0.0931 0.0542
C4 C 0.4980(4) 0.0285(3) 0.12137(11)
H6 H 0.4785 0.1243 0.1293
C5 C 0.6104(4) -0.0978(3) 0.15455(10)
C6 C 0.7018(4) -0.0810(3) 0.20284(10)
C7 C 0.7566(4) 0.0678(3) 0.25625(10)
C8 C 0.9018(4) -0.1831(3) 0.27271(10)
C9 C 0.7144(4) 0.2182(3) 0.27289(11)
C10 C 0.5791(4) 0.3441(3) 0.24565(13)
H7 H 0.5153 0.3356 0.2163
C11 C 0.5416(5) 0.4807(3) 0.26281(14)
H8 H 0.4531 0.5661 0.2446
C12 C 0.8091(4) 0.2338(3) 0.31601(11)
H9 H 0.9031 0.1512 0.3337
C13 C 0.7623(5) 0.3734(3) 0.33245(13)
H10 H 0.8217 0.3851 0.3621
C14 C 1.0342(4) -0.3165(3) 0.30574(10)
C15 C 1.0682(4) -0.4608(3) 0.29372(11)
H11 H 1.0101 -0.4746 0.2642
C16 C 1.1879(4) -0.5825(3) 0.32574(11)
H12 H 1.2113 -0.6795 0.3183
C17 C 1.1241(4) -0.2982(3) 0.34949(11)
H13 H 1.1038 -0.2027 0.3580
C18 C 1.2436(4) -0.4232(3) 0.38004(12)
H14 H 1.3058 -0.4126 0.4093
N1 N 0.4448(4) -0.1281(3) 0.06524(10)
N2 N 0.6311(4) 0.4919(3) 0.30541(11)
H19 H 0.606(6) 0.584(5) 0.3173(16)
N3 N 1.2707(4) -0.5591(3) 0.36795(10)
H20 H 1.358(5) -0.636(4) 0.3900(14)
N4 N 0.8799(3) -0.0487(2) 0.28622(9)
N5 N 0.8134(3) -0.2056(2) 0.23191(9)
N6 N 0.6672(3) 0.0587(2) 0.21320(9)
H21 H 0.382(6) -0.135(4) 0.0344(17)
O18? O 0.541(3) -0.511(2) 0.0235(6)
H23? H -0.049(7) -0.200(6) 0.047(2)
H24? H 0.421(6) -0.066(4) 0.2884(18)
loop_
_geom_bond_atom_site_label_1
_geom_bond_atom_site_label_2
_geom_bond_site_symmetry_1
_geom_bond_site_symmetry_2
O1 C25 1_555 1_555
O2 C25 1_555 1_555
O3 C26 1_555 1_555
O4 C26 1_555 1_555
O5 C27 1_555 1_555
O6 C27 1_555 1_555
O7 C28 1_555 1_555
O8 C28 1_555 1_555
O9 C35 1_555 1_555
O10 C35 1_555 1_555
O11 C36 1_555 1_555
O12 C36 1_555 1_555
O13 C37 1_555 1_555
O14 C37 1_555 1_555
O15 C38 1_555 1_555
O16 C38 1_555 1_555
O17 H1 1_555 1_555
H2 O17 1_555 1_555
C1 H3 1_555 1_555
C2 C1 1_555 1_555
H4 C2 1_555 1_555
C3 H5 1_555 1_555
C4 C3 1_555 1_555
H6 C4 1_555 1_555
C5 C2 1_555 1_555
C6 C5 1_555 1_555
C7 C9 1_555 1_555
C8 C14 1_555 1_555
C9 C10 1_555 1_555
C10 H7 1_555 1_555
C11 C10 1_555 1_555
H8 C11 1_555 1_555
C12 C9 1_555 1_555
H9 C12 1_555 1_555
C13 C12 1_555 1_555
H10 C13 1_555 1_555
C14 C15 1_555 1_555
C15 H11 1_555 1_555
C16 C15 1_555 1_555
H12 C16 1_555 1_555
C17 C14 1_555 1_555
H13 C17 1_555 1_555
C18 C17 1_555 1_555
H14 C18 1_555 1_555
C19 C20 1_555 1_555
C20 H15 1_555 1_555
C21 C20 1_555 1_555
C22 C21 1_555 1_555
C23 C22 1_555 1_555
H16 C23 1_555 1_555
C24 C19 1_555 1_555
C25 C24 1_555 1_555
C26 C22 1_555 1_555
C27 C21 1_555 1_555
C28 C19 1_555 1_555
C29 C30 1_555 1_555
C30 C31 1_555 1_555
C31 H17 1_555 1_555
C32 C31 1_555 1_555
C33 C32 1_555 1_555
C34 C29 1_555 1_555
H18 C34 1_555 1_555
C35 C29 1_555 1_555
C36 C30 1_555 1_555
C37 C32 1_555 1_555
C38 C33 1_555 1_555
N1 C1 1_555 1_555
N2 C11 1_555 1_555
H19 N2 1_555 1_555
N3 C16 1_555 1_555
H20 N3 1_555 1_555
N4 C7 1_555 1_555
N5 C6 1_555 1_555
N6 C6 1_555 1_555
H21 N1 1_555 1_555
H22 O2 1_555 1_555
H25 O11 1_555 1_555
H26 O14 1_555 1_555
C3 N1 1_555 1_555
C4 C5 1_555 1_555
C7 N6 1_555 1_555
C8 N4 1_555 1_555
C8 N5 1_555 1_555
C13 N2 1_555 1_555
C18 N3 1_555 1_555
C23 C24 1_555 1_555
C33 C34 1_555 1_555

#END
