
#######################################################################
#
#                 Cambridge Crystallographic Data Centre
#                                CCDC 
#
#######################################################################
#
# If this CIF has been generated from an entry in the Cambridge 
# Structural Database, then it will include bibliographic, chemical, 
# crystal, experimental, refinement or atomic coordinate data resulting 
# from the CCDC's data processing and validation procedures.
#
#######################################################################

data_FALYAU01
_chemical_formula_moiety         
'C10 H4 O8 2-,C10 H5 O8 1-,C18 H15 N6 3+,1.5(H2 O1)'
_chemical_name_systematic        
"4,4',4''-(1,3,5-triazine-2,4,6-triyl)tripyridinium 2,4,5-tricarboxybenzoate 2,5-dicarboxyterephthalate sesquihydrate"
_symmetry_cell_setting           triclinic
_symmetry_space_group_name_H-M   'P -1'
_symmetry_Int_Tables_number      2
_space_group_name_Hall           '-P 1'
loop_
_symmetry_equiv_pos_site_id
_symmetry_equiv_pos_as_xyz
1 x,y,z
2 -x,-y,-z
_cell_length_a                   7.8201(14)
_cell_length_b                   9.6697(18)
_cell_length_c                   25.351(5)
_cell_angle_alpha                82.651(3)
_cell_angle_beta                 89.211(3)
_cell_angle_gamma                68.329(3)
_cell_volume                     1765.7
_exptl_crystal_colour            red
_exptl_crystal_description       block
_cell_formula_units_Z            2
_exptl_crystal_preparation       
'irradiated product; crystal irradiated with 150 W Xe lamp prior to data collection'
loop_
_atom_site_label
_atom_site_type_symbol
_atom_site_fract_x
_atom_site_fract_y
_atom_site_fract_z
O1 O -0.6130(3) 0.4185(3) 0.17636(11)
O2 O -0.3311(3) 0.3567(2) 0.14462(9)
O3 O -0.7721(3) 0.1610(2) 0.02158(8)
O4 O -0.6566(3) -0.0831(2) 0.02290(8)
O5 O -0.4647(3) -0.3073(2) 0.07718(8)
O6 O -0.3288(3) -0.3714(2) 0.15622(8)
O7 O -0.1589(3) -0.0788(2) 0.25444(7)
O8 O -0.2972(3) 0.1710(2) 0.24849(8)
C19 C -0.3708(3) 0.0451(3) 0.18305(9)
C20 C -0.3606(3) -0.0921(3) 0.17033(9)
H15 H -0.2919 -0.1779 0.1930
C21 C -0.4477(3) -0.1094(3) 0.12522(10)
C22 C -0.5547(3) 0.0234(3) 0.09180(10)
C23 C -0.5637(4) 0.1616(3) 0.10530(10)
H16 H -0.6344 0.2485 0.0835
C24 C -0.4724(4) 0.1755(3) 0.14969(10)
C25 C -0.4823(4) 0.3296(3) 0.15932(12)
C26 C -0.6676(4) 0.0347(3) 0.04233(10)
C27 C -0.4116(4) -0.2729(3) 0.11962(11)
C28 C -0.2703(3) 0.0510(3) 0.23284(10)
H26 H -0.353(7) 0.458(3) 0.148(2)
O9 O 0.0568(3) -0.2886(2) 0.36374(7)
O10 O 0.0216(3) -0.0562(2) 0.32832(7)
O11 O 0.1880(3) -0.4737(2) 0.48562(8)
O12 O 0.3971(2) -0.48689(19) 0.42330(7)
O13 O 0.3447(3) -0.1627(2) 0.60123(7)
O14 O 0.3705(3) 0.0529(2) 0.57386(8)
O15 O 0.2692(3) 0.24080(19) 0.49517(8)
O16 O 0.0710(2) 0.29696(18) 0.42774(7)
C29 C 0.1512(3) -0.1393(3) 0.41495(9)
C30 C 0.2368(3) -0.2546(3) 0.45602(9)
C31 C 0.2908(3) -0.2197(3) 0.50288(9)
H17 H 0.3432 -0.2966 0.5306
C32 C 0.2695(3) -0.0733(3) 0.50989(9)
C33 C 0.1926(3) 0.0420(3) 0.46708(9)
C34 C 0.1326(3) 0.0056(3) 0.42133(9)
H18 H 0.0775 0.0821 0.3937
C35 C 0.0718(3) -0.1657(3) 0.36545(10)
C36 C 0.2804(4) -0.4171(3) 0.45190(10)
C37 C 0.3314(3) -0.0627(3) 0.56554(10)
C38 C 0.1721(3) 0.2053(3) 0.46326(10)
H23 H 0.212(7) -0.575(6) 0.478(2)
H24 H 0.340(5) 0.130(5) 0.5471(16)
O17 O -0.2952(11) 0.3971(7) 0.0223(2)
H1 H -0.4139 0.4167 0.0344
H2 H -0.2940 0.4813 -0.0015
C1 C 0.0516(4) -0.2512(3) 0.09554(11)
H3 H 0.0684 -0.3454 0.0865
C2 C 0.1360(4) -0.2395(3) 0.14095(10)
H4 H 0.2098 -0.3252 0.1628
C3 C -0.0832(3) 0.0114(3) 0.07572(10)
H5 H -0.1581 0.0952 0.0532
C4 C -0.0017(3) 0.0291(3) 0.12056(10)
H6 H -0.0207 0.1247 0.1286
C5 C 0.1096(3) -0.0970(3) 0.15396(10)
C6 C 0.2010(3) -0.0803(3) 0.20247(10)
C7 C 0.2572(3) 0.0675(3) 0.25578(9)
C8 C 0.4015(3) -0.1826(3) 0.27194(9)
C9 C 0.2147(3) 0.2192(3) 0.27211(10)
C10 C 0.0782(4) 0.3449(3) 0.24524(11)
H7 H 0.0141 0.3365 0.2159
C11 C 0.0392(4) 0.4824(3) 0.26264(11)
H8 H -0.0505 0.5679 0.2448
C12 C 0.3092(4) 0.2348(3) 0.31559(10)
H9 H 0.4029 0.1521 0.3334
C13 C 0.2624(4) 0.3740(3) 0.33192(11)
H10 H 0.3227 0.3853 0.3615
C14 C 0.5342(3) -0.3167(3) 0.30512(9)
C15 C 0.5677(3) -0.4613(3) 0.29314(10)
H11 H 0.5096 -0.4751 0.2636
C16 C 0.6867(3) -0.5826(3) 0.32528(10)
H12 H 0.7090 -0.6795 0.3180
C17 C 0.6255(4) -0.2985(3) 0.34879(10)
H13 H 0.6064 -0.2031 0.3571
C18 C 0.7448(4) -0.4240(3) 0.37956(10)
H14 H 0.8073 -0.4138 0.4089
N1 N -0.0548(3) -0.1274(3) 0.06423(9)
N2 N 0.1308(3) 0.4927(3) 0.30540(9)
N3 N 0.7708(3) -0.5603(2) 0.36734(9)
N4 N 0.3814(3) -0.0482(2) 0.28543(8)
N5 N 0.3123(3) -0.2054(2) 0.23156(8)
N6 N 0.1666(3) 0.0594(2) 0.21274(8)
H19 H 0.099(5) 0.592(4) 0.3195(16)
H20 H 0.857(5) -0.637(4) 0.3901(13)
H25 H -0.113(4) -0.142(3) 0.0327(13)
O18? O 0.0656(16) -0.5141(8) 0.0207(3)
H21? H -0.553(6) -0.200(5) 0.0515(17)
H22? H -0.066(6) -0.065(5) 0.2925(19)
loop_
_geom_bond_atom_site_label_1
_geom_bond_atom_site_label_2
_geom_bond_site_symmetry_1
_geom_bond_site_symmetry_2
O1 C25 1_555 1_555
O2 C25 1_555 1_555
O3 C26 1_555 1_555
O4 C26 1_555 1_555
O5 C27 1_555 1_555
O6 C27 1_555 1_555
O7 C28 1_555 1_555
O8 C28 1_555 1_555
O9 C35 1_555 1_555
O10 C35 1_555 1_555
O11 C36 1_555 1_555
O12 C36 1_555 1_555
O13 C37 1_555 1_555
O14 C37 1_555 1_555
O15 C38 1_555 1_555
O16 C38 1_555 1_555
O17 H1 1_555 1_555
H2 O17 1_555 1_555
C1 H3 1_555 1_555
C2 C1 1_555 1_555
H4 C2 1_555 1_555
C3 H5 1_555 1_555
C4 C3 1_555 1_555
H6 C4 1_555 1_555
C5 C2 1_555 1_555
C6 C5 1_555 1_555
C7 C9 1_555 1_555
C8 C14 1_555 1_555
C9 C10 1_555 1_555
C10 H7 1_555 1_555
C11 C10 1_555 1_555
H8 C11 1_555 1_555
C12 C9 1_555 1_555
H9 C12 1_555 1_555
C13 C12 1_555 1_555
H10 C13 1_555 1_555
C14 C15 1_555 1_555
C15 H11 1_555 1_555
C16 C15 1_555 1_555
H12 C16 1_555 1_555
C17 C14 1_555 1_555
H13 C17 1_555 1_555
C18 C17 1_555 1_555
H14 C18 1_555 1_555
C19 C20 1_555 1_555
C20 H15 1_555 1_555
C21 C20 1_555 1_555
C22 C21 1_555 1_555
C23 C22 1_555 1_555
H16 C23 1_555 1_555
C24 C19 1_555 1_555
C25 C24 1_555 1_555
C26 C22 1_555 1_555
C27 C21 1_555 1_555
C28 C19 1_555 1_555
C29 C30 1_555 1_555
C30 C31 1_555 1_555
C31 H17 1_555 1_555
C32 C31 1_555 1_555
C33 C32 1_555 1_555
C34 C29 1_555 1_555
H18 C34 1_555 1_555
C35 C29 1_555 1_555
C36 C30 1_555 1_555
C37 C32 1_555 1_555
C38 C33 1_555 1_555
N1 C1 1_555 1_555
N2 C11 1_555 1_555
N3 C16 1_555 1_555
N4 C7 1_555 1_555
N5 C6 1_555 1_555
N6 C6 1_555 1_555
H19 N2 1_555 1_555
H20 N3 1_555 1_555
H23 O11 1_555 1_555
H24 O14 1_555 1_555
H25 N1 1_555 1_555
H26 O2 1_555 1_555
C3 N1 1_555 1_555
C4 C5 1_555 1_555
C7 N6 1_555 1_555
C8 N4 1_555 1_555
C8 N5 1_555 1_555
C13 N2 1_555 1_555
C18 N3 1_555 1_555
C23 C24 1_555 1_555
C33 C34 1_555 1_555

#END
