
#######################################################################
#
#                 Cambridge Crystallographic Data Centre
#                                CCDC 
#
#######################################################################
#
# If this CIF has been generated from an entry in the Cambridge 
# Structural Database, then it will include bibliographic, chemical, 
# crystal, experimental, refinement or atomic coordinate data resulting 
# from the CCDC's data processing and validation procedures.
#
#######################################################################

data_FAMGAE
_chemical_name_common            'azilsartan 1,4-dioxane solvate'
_chemical_formula_moiety         'C25 H20 N4 O5,0.5(C4 H8 O2)'
_chemical_name_systematic        
"2-ethoxy-1-((2'-(5-oxo-4,5-dihydro-1,2,4-oxadiazol-3-yl)biphenyl-4-yl)methyl)-1H-benzimidazole-7-carboxylic acid 1,4-dioxane solvate"
_chemical_properties_biological  'Azilsartan is an antihypertensive drug.'
_symmetry_cell_setting           monoclinic
_symmetry_space_group_name_H-M   'C 2/c'
_symmetry_Int_Tables_number      15
_space_group_name_Hall           '-C 2yn'
loop_
_symmetry_equiv_pos_site_id
_symmetry_equiv_pos_as_xyz
1 x,y,z
2 -x,y,1/2-z
3 1/2+x,1/2+y,z
4 1/2-x,1/2+y,1/2-z
5 -x,-y,-z
6 x,-y,1/2+z
7 1/2-x,1/2-y,-z
8 1/2+x,1/2-y,1/2+z
_cell_length_a                   20.8764(18)
_cell_length_b                   14.2051(14)
_cell_length_c                   16.1517(16)
_cell_angle_alpha                90
_cell_angle_beta                 92.761(9)
_cell_angle_gamma                90
_cell_volume                     4784.25
_exptl_crystal_colour            colorless
_exptl_crystal_description       plate
_cell_formula_units_Z            8
loop_
_atom_site_label
_atom_site_type_symbol
_atom_site_fract_x
_atom_site_fract_y
_atom_site_fract_z
C1 C 0.03126(16) 1.0041(3) 0.3976(2)
C2 C 0.03913(15) 0.8503(2) 0.4089(2)
C3 C 0.06469(15) 0.7577(2) 0.4352(2)
C4 C 0.02818(19) 0.7034(3) 0.4859(3)
H1 H -0.0125 0.7241 0.4985
C5 C 0.0507(2) 0.6195(3) 0.5181(3)
H2 H 0.0251 0.5831 0.5512
C6 C 0.1109(2) 0.5901(3) 0.5012(3)
H3 H 0.1271 0.5346 0.5244
C7 C 0.14753(19) 0.6426(3) 0.4496(2)
H4 H 0.1883 0.6213 0.4380
C8 C 0.12536(15) 0.7264(2) 0.4143(2)
C9 C 0.16443(15) 0.7793(2) 0.3553(2)
C10 C 0.22912(16) 0.7968(3) 0.3723(2)
H5 H 0.2485 0.7751 0.4218
C11 C 0.26501(16) 0.8454(3) 0.3177(2)
H6 H 0.3083 0.8563 0.3308
C12 C 0.23789(15) 0.8789(2) 0.2429(2)
C13 C 0.17380(15) 0.8596(2) 0.2244(2)
H7 H 0.1547 0.8800 0.1743
C14 C 0.13783(15) 0.8102(2) 0.2794(2)
H8 H 0.0950 0.7973 0.2654
C15 C 0.27872(16) 0.9383(3) 0.1886(2)
H9 H 0.2855 0.9991 0.2149
H10 H 0.3203 0.9084 0.1854
C16 C 0.1064(2) 1.1653(4) 0.2091(3)
H11 H 0.0923 1.1124 0.2405
H12 H 0.0710 1.2074 0.1980
H13 H 0.1399 1.1978 0.2402
C17 C 0.13095(16) 1.1317(3) 0.1293(2)
H14 H 0.0971 1.1002 0.0967
H15 H 0.1462 1.1844 0.0975
C18 C 0.20460(15) 1.0173(2) 0.0866(2)
C19 C 0.26646(14) 0.9132(2) 0.0278(2)
C20 C 0.22500(15) 0.9591(2) -0.0304(2)
C21 C 0.22411(18) 0.9383(3) -0.1138(2)
H16 H 0.1966 0.9693 -0.1517
C22 C 0.2659(2) 0.8692(3) -0.1388(2)
H17 H 0.2666 0.8535 -0.1947
C23 C 0.30644(18) 0.8234(3) -0.0824(2)
H18 H 0.3338 0.7776 -0.1018
C24 C 0.30843(15) 0.8425(2) 0.0027(2)
C25 C 0.35495(17) 0.7891(3) 0.0570(2)
H19 H 0.109(2) 0.949(3) 0.455(2)
N1 N 0.07032(13) 0.9340(2) 0.42403(18)
N2 N -0.01640(14) 0.8616(2) 0.3725(2)
N3 N 0.25173(12) 0.9533(2) 0.10422(17)
N4 N 0.18644(13) 1.0237(2) 0.00801(17)
O1 O 0.03784(13) 1.08895(19) 0.40051(19)
O2 O -0.02217(12) 0.96235(19) 0.36381(19)
O3 O 0.18340(11) 1.06653(18) 0.14928(15)
O4 O 0.37845(18) 0.8151(3) 0.1212(2)
O5 O 0.37175(13) 0.70851(19) 0.02293(18)
H20 H 0.3945 0.6785 0.0563
C26 C 0.9473(4) 0.5690(8) 0.2708(9)
C27 C 0.9451(3) 0.4735(9) 0.2852(7)
O6 O 1.0000 0.4200(9) 0.2500
O7 O 1.0000 0.6083(8) 0.2500
C26A C 1.0527(4) 0.5690(8) 0.2292(9)
C27A C 1.0549(3) 0.4735(9) 0.2148(7)
loop_
_geom_bond_atom_site_label_1
_geom_bond_atom_site_label_2
_geom_bond_site_symmetry_1
_geom_bond_site_symmetry_2
C1 N1 1_555 1_555
C2 C3 1_555 1_555
C3 C4 1_555 1_555
C4 H1 1_555 1_555
C5 C4 1_555 1_555
H2 C5 1_555 1_555
C6 C5 1_555 1_555
H3 C6 1_555 1_555
C7 C6 1_555 1_555
H4 C7 1_555 1_555
C8 C3 1_555 1_555
C9 C8 1_555 1_555
C10 C9 1_555 1_555
H5 C10 1_555 1_555
C11 C10 1_555 1_555
H6 C11 1_555 1_555
C12 C11 1_555 1_555
C13 C12 1_555 1_555
H7 C13 1_555 1_555
C14 C9 1_555 1_555
H8 C14 1_555 1_555
C15 C12 1_555 1_555
H9 C15 1_555 1_555
H10 C15 1_555 1_555
C16 H11 1_555 1_555
H12 C16 1_555 1_555
H13 C16 1_555 1_555
C17 C16 1_555 1_555
H14 C17 1_555 1_555
H15 C17 1_555 1_555
C18 N3 1_555 1_555
C19 C20 1_555 1_555
C20 C21 1_555 1_555
C21 H16 1_555 1_555
C22 C21 1_555 1_555
H17 C22 1_555 1_555
C23 C22 1_555 1_555
H18 C23 1_555 1_555
C24 C19 1_555 1_555
C25 C24 1_555 1_555
H19 N1 1_555 1_555
N1 C2 1_555 1_555
N2 C2 1_555 1_555
N3 C15 1_555 1_555
N4 C18 1_555 1_555
O1 C1 1_555 1_555
O2 C1 1_555 1_555
O3 C17 1_555 1_555
O4 C25 1_555 1_555
O5 C25 1_555 1_555
H20 O5 1_555 1_555
C26 C27 1_555 1_555
C27 O6 1_555 1_555
O6 C27A 1_555 1_555
O7 C26 1_555 1_555
C26A O7 1_555 1_555
C27A C26A 1_555 1_555
C7 C8 1_555 1_555
C13 C14 1_555 1_555
C18 O3 1_555 1_555
C19 N3 1_555 1_555
C20 N4 1_555 1_555
C23 C24 1_555 1_555
N2 O2 1_555 1_555

#END
