
#######################################################################
#
#                 Cambridge Crystallographic Data Centre
#                                CCDC 
#
#######################################################################
#
# If this CIF has been generated from an entry in the Cambridge 
# Structural Database, then it will include bibliographic, chemical, 
# crystal, experimental, refinement or atomic coordinate data resulting 
# from the CCDC's data processing and validation procedures.
#
#######################################################################

data_FAMVUL
_chemical_formula_moiety         'C32 H21 N3'
_chemical_name_systematic        (4-(1-Pyrenyl)phenyl)bis(2-pyridyl)amine
_symmetry_cell_setting           monoclinic
_symmetry_space_group_name_H-M   'P 21/c'
_symmetry_Int_Tables_number      14
_space_group_name_Hall           '-P 2ybc'
loop_
_symmetry_equiv_pos_site_id
_symmetry_equiv_pos_as_xyz
1 x,y,z
2 -x,1/2+y,1/2-z
3 -x,-y,-z
4 x,1/2-y,1/2+z
_cell_length_a                   14.192(3)
_cell_length_b                   14.734(3)
_cell_length_c                   10.8767(19)
_cell_angle_alpha                90
_cell_angle_beta                 97.973(4)
_cell_angle_gamma                90
_cell_volume                     2252.39
_exptl_crystal_colour            colorless
_exptl_crystal_description       block
_cell_formula_units_Z            4
_exptl_crystal_preparation       luminescent
loop_
_atom_site_label
_atom_site_type_symbol
_atom_site_fract_x
_atom_site_fract_y
_atom_site_fract_z
N1 N 0.47009(7) 0.16433(7) 0.12734(9)
N2 N 0.32224(8) 0.09337(7) 0.11659(9)
N3 N 0.45531(8) 0.32088(7) 0.12017(9)
C1 C 0.84691(8) 0.19050(8) 0.39623(11)
C2 C 0.90256(9) 0.26320(9) 0.36741(12)
H1 H 0.8777 0.3035 0.3054
C3 C 0.99336(10) 0.27736(10) 0.42794(13)
H2 H 1.0281 0.3269 0.4061
C4 C 1.03385(9) 0.21908(10) 0.52077(12)
C5 C 1.12956(10) 0.23061(11) 0.58317(14)
H3 H 1.1661 0.2789 0.5615
C6 C 1.16654(10) 0.17305(12) 0.67157(15)
H4 H 1.2288 0.1820 0.7093
C7 C 1.11399(10) 0.09833(11) 0.71012(12)
C8 C 1.15010(11) 0.03882(13) 0.80556(14)
H5 H 1.2115 0.0476 0.8464
C9 C 1.09697(12) -0.03229(12) 0.84025(14)
H6 H 1.1220 -0.0699 0.9054
C10 C 1.00684(11) -0.04819(10) 0.77910(12)
H7 H 0.9719 -0.0971 0.8025
C11 C 0.96718(9) 0.00836(9) 0.68225(11)
C12 C 0.87665(9) -0.00828(9) 0.61204(11)
H8 H 0.8426 -0.0594 0.6299
C13 C 0.83870(8) 0.04770(8) 0.52044(11)
H9 H 0.7799 0.0333 0.4759
C14 C 0.88598(8) 0.12866(8) 0.48949(10)
C15 C 1.01957(8) 0.08362(9) 0.64886(11)
C16 C 0.97950(8) 0.14433(8) 0.55293(11)
C17 C 0.74887(8) 0.18102(8) 0.32804(10)
C18 C 0.73099(9) 0.19713(8) 0.19983(11)
H10 H 0.7813 0.2121 0.1573
C19 C 0.64026(9) 0.19117(9) 0.13556(12)
H11 H 0.6305 0.2014 0.0504
C20 C 0.56401(9) 0.17027(8) 0.19605(11)
C21 C 0.57992(8) 0.15562(8) 0.32224(11)
H12 H 0.5289 0.1424 0.3645
C22 C 0.67068(8) 0.16032(8) 0.38680(11)
H13 H 0.6797 0.1493 0.4718
C23 C 0.41657(9) 0.08436(8) 0.13234(10)
C24 C 0.46195(10) 0.00112(9) 0.15334(11)
H14 H 0.5279 -0.0031 0.1610
C25 C 0.40738(13) -0.07434(10) 0.16253(13)
H15 H 0.4359 -0.1307 0.1786
C26 C 0.30953(13) -0.06615(11) 0.14781(13)
H16 H 0.2709 -0.1165 0.1540
C27 C 0.27140(10) 0.01770(11) 0.12404(12)
H17 H 0.2054 0.0228 0.1122
C28 C 0.43008(8) 0.24255(8) 0.06533(11)
C29 C 0.37172(9) 0.23698(9) -0.04676(11)
H18 H 0.3560 0.1809 -0.0833
C30 C 0.33729(9) 0.31554(10) -0.10320(12)
H19 H 0.2971 0.3134 -0.1784
C31 C 0.36231(9) 0.39729(9) -0.04839(12)
H20 H 0.3398 0.4515 -0.0851
C32 C 0.42106(10) 0.39662(9) 0.06112(12)
H21 H 0.4388 0.4522 0.0978
loop_
_geom_bond_atom_site_label_1
_geom_bond_atom_site_label_2
_geom_bond_site_symmetry_1
_geom_bond_site_symmetry_2
N1 C20 1_555 1_555
N2 C23 1_555 1_555
N3 C28 1_555 1_555
C1 C2 1_555 1_555
C2 H1 1_555 1_555
C3 C2 1_555 1_555
H2 C3 1_555 1_555
C4 C3 1_555 1_555
C5 C4 1_555 1_555
H3 C5 1_555 1_555
C6 C5 1_555 1_555
H4 C6 1_555 1_555
C7 C6 1_555 1_555
C8 C7 1_555 1_555
H5 C8 1_555 1_555
C9 C8 1_555 1_555
H6 C9 1_555 1_555
C10 C9 1_555 1_555
H7 C10 1_555 1_555
C11 C10 1_555 1_555
C12 C11 1_555 1_555
H8 C12 1_555 1_555
C13 C12 1_555 1_555
H9 C13 1_555 1_555
C14 C1 1_555 1_555
C15 C7 1_555 1_555
C16 C4 1_555 1_555
C17 C1 1_555 1_555
C18 C17 1_555 1_555
H10 C18 1_555 1_555
C19 C18 1_555 1_555
H11 C19 1_555 1_555
C20 C19 1_555 1_555
C21 C20 1_555 1_555
H12 C21 1_555 1_555
C22 C17 1_555 1_555
H13 C22 1_555 1_555
C23 N1 1_555 1_555
C24 C23 1_555 1_555
H14 C24 1_555 1_555
C25 C24 1_555 1_555
H15 C25 1_555 1_555
C26 C25 1_555 1_555
H16 C26 1_555 1_555
C27 N2 1_555 1_555
H17 C27 1_555 1_555
C28 N1 1_555 1_555
C29 C28 1_555 1_555
H18 C29 1_555 1_555
C30 C29 1_555 1_555
H19 C30 1_555 1_555
C31 C30 1_555 1_555
H20 C31 1_555 1_555
C32 N3 1_555 1_555
H21 C32 1_555 1_555
C11 C15 1_555 1_555
C13 C14 1_555 1_555
C14 C16 1_555 1_555
C15 C16 1_555 1_555
C21 C22 1_555 1_555
C26 C27 1_555 1_555
C31 C32 1_555 1_555

#END
