
#######################################################################
#
#                 Cambridge Crystallographic Data Centre
#                                CCDC 
#
#######################################################################
#
# If this CIF has been generated from an entry in the Cambridge 
# Structural Database, then it will include bibliographic, chemical, 
# crystal, experimental, refinement or atomic coordinate data resulting 
# from the CCDC's data processing and validation procedures.
#
#######################################################################

data_FAPZII
_chemical_formula_moiety         'C21 H16 F2 N2 O3'
_chemical_name_systematic        
1-(3,5-difluorophenyl)-5-(3-furyl)-4a,8-dimethyl-1,4,4a,5-tetrahydro-7H-furo[3,4-f]indazol-7-one
_symmetry_cell_setting           monoclinic
_symmetry_space_group_name_H-M   'P 21'
_symmetry_Int_Tables_number      4
_space_group_name_Hall           'P 2yb'
loop_
_symmetry_equiv_pos_site_id
_symmetry_equiv_pos_as_xyz
1 x,y,z
2 -x,1/2+y,-z
_cell_length_a                   7.9128(5)
_cell_length_b                   13.2459(9)
_cell_length_c                   8.7406(6)
_cell_angle_alpha                90
_cell_angle_beta                 99.323(7)
_cell_angle_gamma                90
_cell_volume                     904.02
_exptl_crystal_colour            'light yellow'
_cell_formula_units_Z            2
loop_
_atom_site_label
_atom_site_type_symbol
_atom_site_fract_x
_atom_site_fract_y
_atom_site_fract_z
F1 F -0.4322(6) -0.5282(4) -1.1059(5)
F2 F -0.5735(7) -0.8097(4) -0.8335(9)
O1 O -0.4713(5) -0.1529(4) -0.5630(5)
O2 O -0.7201(5) -0.0758(3) -0.5618(5)
O3 O -1.2067(7) 0.1060(5) -0.7055(6)
N1 N -0.8518(5) -0.4981(4) -0.7745(5)
N2 N -1.0144(6) -0.5363(4) -0.7923(6)
C1 C -0.6372(7) -0.5112(5) -0.9405(7)
H1 H -0.6535 -0.4436 -0.9677
C2 C -0.5218(9) -0.5706(6) -1.0043(8)
C3 C -0.4989(9) -0.6699(7) -0.9695(10)
H2 H -0.4219 -0.7089 -1.0138
C4 C -0.5926(9) -0.7103(6) -0.8674(10)
C5 C -0.7070(8) -0.6568(6) -0.7980(8)
H3 H -0.7690 -0.6869 -0.7285
C6 C -0.7261(6) -0.5552(5) -0.8367(6)
C7 C -1.1080(7) -0.4597(6) -0.7561(8)
H4 H -1.2255 -0.4637 -0.7570
C8 C -1.0123(7) -0.3723(5) -0.7164(6)
C9 C -0.8469(6) -0.3993(4) -0.7274(6)
C10 C -0.6995(6) -0.3347(5) -0.6735(6)
C11 C -0.7401(6) -0.2382(5) -0.6555(6)
C12 C -0.9199(6) -0.1938(5) -0.6962(6)
C13 C -1.0527(7) -0.2700(5) -0.6582(7)
H5 H -1.0506 -0.2725 -0.5470
H6 H -1.1664 -0.2494 -0.7069
C14 C -0.5226(7) -0.3785(6) -0.6228(8)
H7 H -0.4542 -0.3314 -0.5559
H8 H -0.4697 -0.3912 -0.7123
H9 H -0.5317 -0.4406 -0.5682
C15 C -0.6246(7) -0.1570(5) -0.5891(6)
C16 C -0.9024(7) -0.1001(5) -0.5891(6)
H10 H -0.9370 -0.1188 -0.4902
C17 C -0.9976(8) -0.0082(5) -0.6489(7)
C18 C -1.1649(9) 0.0125(6) -0.6406(8)
H11 H -1.2389 -0.0297 -0.5979
C19 C -1.0640(10) 0.1412(6) -0.7566(9)
H12 H -1.0557 0.2025 -0.8066
C20 C -0.9401(12) 0.0749(6) -0.7242(11)
H13 H -0.8303 0.0822 -0.7478
C21 C -0.9542(7) -0.1655(6) -0.8687(6)
H14 H -0.9508 -0.2253 -0.9302
H15 H -0.8681 -0.1190 -0.8904
H16 H -1.0650 -0.1347 -0.8932
loop_
_geom_bond_atom_site_label_1
_geom_bond_atom_site_label_2
_geom_bond_site_symmetry_1
_geom_bond_site_symmetry_2
F1 C2 1_555 1_555
F2 C4 1_555 1_555
O1 C15 1_555 1_555
O2 C15 1_555 1_555
O3 C18 1_555 1_555
N1 N2 1_555 1_555
N2 C7 1_555 1_555
C1 H1 1_555 1_555
C2 C1 1_555 1_555
C3 C2 1_555 1_555
H2 C3 1_555 1_555
C4 C3 1_555 1_555
C5 C4 1_555 1_555
H3 C5 1_555 1_555
C6 N1 1_555 1_555
C7 H4 1_555 1_555
C8 C7 1_555 1_555
C9 N1 1_555 1_555
C10 C9 1_555 1_555
C11 C10 1_555 1_555
C12 C11 1_555 1_555
C13 C8 1_555 1_555
H5 C13 1_555 1_555
H6 C13 1_555 1_555
C14 C10 1_555 1_555
H7 C14 1_555 1_555
H8 C14 1_555 1_555
H9 C14 1_555 1_555
C15 C11 1_555 1_555
C16 O2 1_555 1_555
H10 C16 1_555 1_555
C17 C16 1_555 1_555
C18 C17 1_555 1_555
H11 C18 1_555 1_555
C19 O3 1_555 1_555
H12 C19 1_555 1_555
C20 C17 1_555 1_555
H13 C20 1_555 1_555
C21 C12 1_555 1_555
H14 C21 1_555 1_555
H15 C21 1_555 1_555
H16 C21 1_555 1_555
C1 C6 1_555 1_555
C5 C6 1_555 1_555
C8 C9 1_555 1_555
C12 C13 1_555 1_555
C12 C16 1_555 1_555
C19 C20 1_555 1_555

#END
