
#######################################################################
#
#                 Cambridge Crystallographic Data Centre
#                                CCDC 
#
#######################################################################
#
# If this CIF has been generated from an entry in the Cambridge 
# Structural Database, then it will include bibliographic, chemical, 
# crystal, experimental, refinement or atomic coordinate data resulting 
# from the CCDC's data processing and validation procedures.
#
#######################################################################

data_FAQHIQ
_chemical_name_common            
'Methyl 3-(3,3-bis(ethoxycarbonyl)-1-phenylpropyl)-1-((methoxycarbonyl)methyl)-2,5-diphenylimidazolidine-4-carboxylate'
_chemical_formula_moiety         'C35 H40 N2 O8'
_chemical_name_systematic        
'Diethyl (2-(5-(methoxycarbonyl)-3-(2-methoxy-2-oxoethyl)-2,4-diphenylimidazolidin-1-yl)-2-phenylethyl)malonate'
_symmetry_cell_setting           monoclinic
_symmetry_space_group_name_H-M   'P 21/c'
_symmetry_Int_Tables_number      14
_space_group_name_Hall           '-P 2ybc'
loop_
_symmetry_equiv_pos_site_id
_symmetry_equiv_pos_as_xyz
1 x,y,z
2 -x,1/2+y,1/2-z
3 -x,-y,-z
4 x,1/2-y,1/2+z
_cell_length_a                   10.170(5)
_cell_length_b                   26.595(11)
_cell_length_c                   13.097(6)
_cell_angle_alpha                90
_cell_angle_beta                 110.233(6)
_cell_angle_gamma                90
_cell_volume                     3323.78
_exptl_crystal_colour            colorless
_exptl_crystal_description       prism
_chemical_melting_point          '98-99 deg.C'
_cell_formula_units_Z            4
loop_
_atom_site_label
_atom_site_type_symbol
_atom_site_fract_x
_atom_site_fract_y
_atom_site_fract_z
C1 C 0.30546(18) 0.29662(7) 0.42396(14)
H1 H 0.2534 0.2718 0.4457
C2 C 0.2589(2) 0.34647(7) 0.41042(15)
H2 H 0.1751 0.3554 0.4226
C3 C 0.3347(2) 0.38284(7) 0.37926(16)
H3 H 0.3020 0.4166 0.3691
C4 C 0.4578(2) 0.37035(7) 0.36281(16)
H4 H 0.5100 0.3955 0.3421
C5 C 0.50504(19) 0.32083(6) 0.37661(14)
H5 H 0.5903 0.3124 0.3662
C6 C 0.42805(17) 0.28334(6) 0.40562(13)
C7 C 0.47519(17) 0.22925(6) 0.40861(14)
H6 H 0.5773 0.2286 0.4190
C8 C 0.39378(17) 0.19767(6) 0.30587(14)
H7 H 0.4443 0.1989 0.2526
C9 C 0.24242(18) 0.21513(6) 0.25072(14)
C10 C 0.0969(2) 0.26950(9) 0.11444(18)
H8 H 0.0262 0.2428 0.0957
H9 H 0.0962 0.2865 0.0479
H10 H 0.0755 0.2938 0.1627
C11 C 0.43401(17) 0.10546(6) 0.28572(14)
H11 H 0.4451 0.0742 0.3303
C12 C 0.57258(17) 0.11382(6) 0.26693(14)
C13 C 0.69770(18) 0.09684(7) 0.34415(15)
H12 H 0.6946 0.0776 0.4043
C14 C 0.8267(2) 0.10767(8) 0.33443(17)
H13 H 0.9105 0.0955 0.3873
C15 C 0.83312(19) 0.13629(7) 0.24769(17)
H14 H 0.9213 0.1448 0.2426
C16 C 0.71053(18) 0.15229(7) 0.16873(16)
H15 H 0.7146 0.1714 0.1086
C17 C 0.58085(18) 0.14055(6) 0.17702(14)
H16 H 0.4972 0.1508 0.1211
C18 C 0.30896(17) 0.09688(6) 0.18058(14)
H17 H 0.2906 0.1281 0.1367
H18 H 0.3329 0.0701 0.1375
C19 C 0.17586(17) 0.08182(6) 0.20275(14)
H19 H 0.1659 0.1058 0.2584
C20 C 0.04534(18) 0.08776(7) 0.10163(15)
C21 C -0.18502(19) 0.05778(7) 0.00510(16)
H20 H -0.1749 0.0495 -0.0655
H21 H -0.2199 0.0927 0.0018
C22 C -0.2846(2) 0.02190(9) 0.0290(2)
H22 H -0.2472 -0.0123 0.0345
H23 H -0.3757 0.0234 -0.0298
H24 H -0.2959 0.0312 0.0979
C23 C 0.18984(17) 0.02958(6) 0.25242(14)
C24 C 0.1171(2) -0.02555(7) 0.36523(16)
H25 H 0.0738 -0.0233 0.4221
H26 H 0.2172 -0.0343 0.4013
C25 C 0.0462(3) -0.06676(8) 0.2864(2)
H27 H -0.0509 -0.0571 0.2459
H28 H 0.0470 -0.0979 0.3267
H29 H 0.0962 -0.0721 0.2355
C26 C 0.46894(17) 0.14637(6) 0.46682(13)
H30 H 0.5705 0.1381 0.4859
C27 C 0.39970(17) 0.11032(6) 0.52259(14)
C28 C 0.47536(19) 0.07202(6) 0.58947(15)
H31 H 0.5722 0.0683 0.6004
C29 C 0.4117(2) 0.03904(7) 0.64078(16)
H32 H 0.4643 0.0127 0.6853
C30 C 0.2710(2) 0.04502(7) 0.62637(15)
H33 H 0.2268 0.0227 0.6611
C31 C 0.19466(19) 0.08375(7) 0.56095(15)
H34 H 0.0987 0.0882 0.5522
C32 C 0.25794(18) 0.11593(7) 0.50836(15)
H35 H 0.2047 0.1418 0.4626
C33 C 0.52392(18) 0.21346(7) 0.60619(14)
H36 H 0.4887 0.1920 0.6529
H37 H 0.4969 0.2485 0.6151
C34 C 0.68360(19) 0.21059(7) 0.64950(15)
C35 C 0.8832(2) 0.21896(12) 0.81082(19)
H38 H 0.9210 0.1870 0.7961
H39 H 0.9057 0.2229 0.8894
H40 H 0.9248 0.2467 0.7833
N1 N 0.45139(14) 0.19884(5) 0.49370(11)
N2 N 0.39759(14) 0.14645(5) 0.34762(11)
O1 O 0.14292(12) 0.20237(5) 0.27418(10)
O2 O 0.23511(12) 0.24772(5) 0.16966(10)
O3 O 0.02844(14) 0.12206(6) 0.03781(12)
O4 O -0.05026(12) 0.05245(5) 0.09382(10)
O5 O 0.26892(13) -0.00235(4) 0.24165(10)
O6 O 0.10707(12) 0.02330(4) 0.31249(10)
O7 O 0.75844(14) 0.20223(6) 0.59793(12)
O8 O 0.73125(14) 0.21944(6) 0.75661(11)
loop_
_geom_bond_atom_site_label_1
_geom_bond_atom_site_label_2
_geom_bond_site_symmetry_1
_geom_bond_site_symmetry_2
C1 H1 1_555 1_555
C2 C1 1_555 1_555
H2 C2 1_555 1_555
C3 C2 1_555 1_555
H3 C3 1_555 1_555
C4 C3 1_555 1_555
H4 C4 1_555 1_555
C5 C4 1_555 1_555
H5 C5 1_555 1_555
C6 C1 1_555 1_555
C7 C6 1_555 1_555
H6 C7 1_555 1_555
C8 C7 1_555 1_555
H7 C8 1_555 1_555
C9 C8 1_555 1_555
C10 H8 1_555 1_555
H9 C10 1_555 1_555
H10 C10 1_555 1_555
C11 H11 1_555 1_555
C12 C11 1_555 1_555
C13 C12 1_555 1_555
H12 C13 1_555 1_555
C14 C13 1_555 1_555
H13 C14 1_555 1_555
C15 C14 1_555 1_555
H14 C15 1_555 1_555
C16 C15 1_555 1_555
H15 C16 1_555 1_555
C17 C12 1_555 1_555
H16 C17 1_555 1_555
C18 C11 1_555 1_555
H17 C18 1_555 1_555
H18 C18 1_555 1_555
C19 C18 1_555 1_555
H19 C19 1_555 1_555
C20 C19 1_555 1_555
C21 H20 1_555 1_555
H21 C21 1_555 1_555
C22 C21 1_555 1_555
H22 C22 1_555 1_555
H23 C22 1_555 1_555
H24 C22 1_555 1_555
C23 C19 1_555 1_555
C24 H25 1_555 1_555
H26 C24 1_555 1_555
C25 C24 1_555 1_555
H27 C25 1_555 1_555
H28 C25 1_555 1_555
H29 C25 1_555 1_555
C26 H30 1_555 1_555
C27 C26 1_555 1_555
C28 C27 1_555 1_555
H31 C28 1_555 1_555
C29 C28 1_555 1_555
H32 C29 1_555 1_555
C30 C29 1_555 1_555
H33 C30 1_555 1_555
C31 C30 1_555 1_555
H34 C31 1_555 1_555
C32 C27 1_555 1_555
H35 C32 1_555 1_555
C33 H36 1_555 1_555
H37 C33 1_555 1_555
C34 C33 1_555 1_555
C35 H38 1_555 1_555
H39 C35 1_555 1_555
H40 C35 1_555 1_555
N1 C7 1_555 1_555
N2 C8 1_555 1_555
O1 C9 1_555 1_555
O2 C9 1_555 1_555
O3 C20 1_555 1_555
O4 C20 1_555 1_555
O5 C23 1_555 1_555
O6 C23 1_555 1_555
O7 C34 1_555 1_555
O8 C34 1_555 1_555
C5 C6 1_555 1_555
C10 O2 1_555 1_555
C11 N2 1_555 1_555
C16 C17 1_555 1_555
C21 O4 1_555 1_555
C24 O6 1_555 1_555
C26 N1 1_555 1_555
C26 N2 1_555 1_555
C31 C32 1_555 1_555
C33 N1 1_555 1_555
C35 O8 1_555 1_555

#END
