
#######################################################################
#
#                 Cambridge Crystallographic Data Centre
#                                CCDC 
#
#######################################################################
#
# If this CIF has been generated from an entry in the Cambridge 
# Structural Database, then it will include bibliographic, chemical, 
# crystal, experimental, refinement or atomic coordinate data resulting 
# from the CCDC's data processing and validation procedures.
#
#######################################################################

data_FAQPEV
_chemical_formula_moiety         'C19 H23 B1 N4'
_chemical_name_systematic        
2,8-diethyl-1,3,7,9-tetramethyl-5H-6,5-dipyrrolo[1,2-c:2',1'-f][1,3,2]diazaborinine-5,5-dicarbonitrile
_symmetry_cell_setting           monoclinic
_symmetry_space_group_name_H-M   'P 21/c'
_symmetry_Int_Tables_number      14
_space_group_name_Hall           '-P 2ybc'
loop_
_symmetry_equiv_pos_site_id
_symmetry_equiv_pos_as_xyz
1 x,y,z
2 -x,1/2+y,1/2-z
3 -x,-y,-z
4 x,1/2-y,1/2+z
_cell_length_a                   13.8407(4)
_cell_length_b                   8.5881(2)
_cell_length_c                   16.2914(4)
_cell_angle_alpha                90
_cell_angle_beta                 113.3350(10)
_cell_angle_gamma                90
_cell_volume                     1778.09
_exptl_crystal_colour            orange
_exptl_crystal_description       plate
_cell_formula_units_Z            4
loop_
_atom_site_label
_atom_site_type_symbol
_atom_site_fract_x
_atom_site_fract_y
_atom_site_fract_z
N1 N 0.21960(7) 0.70247(11) 0.22886(6)
N2 N 0.40013(7) 0.59490(10) 0.30971(6)
N3 N 0.32836(9) 0.56965(13) 0.07301(7)
N4 N 0.21059(9) 0.28897(13) 0.24729(8)
C1 C 0.12099(9) 0.73338(13) 0.16706(7)
C2 C 0.07310(9) 0.84757(13) 0.20048(8)
C3 C 0.14457(9) 0.88572(13) 0.28631(8)
C4 C 0.23584(9) 0.79562(12) 0.30364(7)
C5 C 0.33067(9) 0.79171(12) 0.37729(7)
H1 H 0.3397 0.8562 0.4272
C6 C 0.41248(8) 0.69660(12) 0.38025(7)
C7 C 0.51640(8) 0.68072(13) 0.44579(7)
C8 C 0.56605(9) 0.56855(13) 0.41471(7)
C9 C 0.49221(9) 0.51702(13) 0.33099(7)
C10 C 0.07639(9) 0.65169(15) 0.07920(8)
H2 H 0.1145 0.6841 0.0426
H3 H 0.0018 0.6784 0.0484
H4 H 0.0836 0.5389 0.0889
C11 C -0.03405(9) 0.91827(14) 0.15320(9)
H5 H -0.0691 0.9257 0.1955
H6 H -0.0769 0.8488 0.1036
C12 C -0.03018(10) 1.07979(14) 0.11567(9)
H7 H 0.0147 1.1480 0.1640
H8 H -0.1014 1.1232 0.0892
H9 H -0.0013 1.0720 0.0698
C13 C 0.12867(10) 0.99904(14) 0.34931(8)
H10 H 0.1382 1.1052 0.3318
H11 H 0.1800 0.9786 0.4102
H12 H 0.0573 0.9877 0.3473
C14 C 0.56242(9) 0.77201(14) 0.53079(8)
H13 H 0.6035 0.7025 0.5799
H14 H 0.5056 0.8196 0.5437
H15 H 0.6083 0.8538 0.5244
C15 C 0.67771(9) 0.51311(15) 0.45855(8)
H16 H 0.6792 0.3982 0.4542
H17 H 0.7061 0.5412 0.5227
C16 C 0.74778(10) 0.58386(19) 0.41548(10)
H18 H 0.7194 0.5575 0.3518
H19 H 0.8192 0.5421 0.4447
H20 H 0.7495 0.6973 0.4224
C17 C 0.50752(10) 0.39431(15) 0.27268(8)
H21 H 0.4465 0.3246 0.2517
H22 H 0.5711 0.3344 0.3067
H23 H 0.5151 0.4432 0.2212
C18 C 0.31385(9) 0.57047(13) 0.13766(7)
C19 C 0.24560(9) 0.40557(13) 0.23808(7)
B1 B 0.29516(10) 0.57118(14) 0.22915(8)
loop_
_geom_bond_atom_site_label_1
_geom_bond_atom_site_label_2
_geom_bond_site_symmetry_1
_geom_bond_site_symmetry_2
N1 C1 1_555 1_555
N2 C6 1_555 1_555
N3 C18 1_555 1_555
N4 C19 1_555 1_555
C1 C2 1_555 1_555
C2 C3 1_555 1_555
C3 C4 1_555 1_555
C4 N1 1_555 1_555
C5 C4 1_555 1_555
H1 C5 1_555 1_555
C6 C5 1_555 1_555
C7 C6 1_555 1_555
C8 C7 1_555 1_555
C9 N2 1_555 1_555
C10 C1 1_555 1_555
H2 C10 1_555 1_555
H3 C10 1_555 1_555
H4 C10 1_555 1_555
C11 C2 1_555 1_555
H5 C11 1_555 1_555
H6 C11 1_555 1_555
C12 C11 1_555 1_555
H7 C12 1_555 1_555
H8 C12 1_555 1_555
H9 C12 1_555 1_555
C13 C3 1_555 1_555
H10 C13 1_555 1_555
H11 C13 1_555 1_555
H12 C13 1_555 1_555
C14 C7 1_555 1_555
H13 C14 1_555 1_555
H14 C14 1_555 1_555
H15 C14 1_555 1_555
C15 C8 1_555 1_555
H16 C15 1_555 1_555
H17 C15 1_555 1_555
C16 C15 1_555 1_555
H18 C16 1_555 1_555
H19 C16 1_555 1_555
H20 C16 1_555 1_555
C17 C9 1_555 1_555
H21 C17 1_555 1_555
H22 C17 1_555 1_555
H23 C17 1_555 1_555
C18 B1 1_555 1_555
C19 B1 1_555 1_555
B1 N1 1_555 1_555
N2 B1 1_555 1_555
C8 C9 1_555 1_555

#END
