
#######################################################################
#
#                 Cambridge Crystallographic Data Centre
#                                CCDC 
#
#######################################################################
#
# If this CIF has been generated from an entry in the Cambridge 
# Structural Database, then it will include bibliographic, chemical, 
# crystal, experimental, refinement or atomic coordinate data resulting 
# from the CCDC's data processing and validation procedures.
#
#######################################################################

data_FAQTID
_chemical_formula_moiety         'C19 H18 N2 O6'
_chemical_name_systematic        
4-(3-(3,5-dioxo-10-oxa-4-azatricyclo[5.2.1.0^2,6^]dec-8-en-4-yl)propyl)-10-oxa-4-azatricyclo[5.2.1.0^2,6^]dec-8-ene-3,5-dione
_symmetry_cell_setting           monoclinic
_symmetry_space_group_name_H-M   'C 2/c'
_symmetry_Int_Tables_number      15
_space_group_name_Hall           '-C 2yn'
loop_
_symmetry_equiv_pos_site_id
_symmetry_equiv_pos_as_xyz
1 x,y,z
2 -x,y,1/2-z
3 1/2+x,1/2+y,z
4 1/2-x,1/2+y,1/2-z
5 -x,-y,-z
6 x,-y,1/2+z
7 1/2-x,1/2-y,-z
8 1/2+x,1/2-y,1/2+z
_cell_length_a                   21.61(2)
_cell_length_b                   6.961(7)
_cell_length_c                   13.351(17)
_cell_angle_alpha                90
_cell_angle_beta                 123.58(3)
_cell_angle_gamma                90
_cell_volume                     1673.19
_exptl_crystal_colour            colorless
_exptl_crystal_description       block
_cell_formula_units_Z            4
loop_
_atom_site_label
_atom_site_type_symbol
_atom_site_fract_x
_atom_site_fract_y
_atom_site_fract_z
C1 C 0.78795(17) 0.1277(5) -0.0814(3)
C2 C 0.85835(16) 0.1267(4) -0.0861(3)
C3 C 0.89856(16) -0.0539(4) -0.0128(3)
C4 C 0.84522(18) -0.1198(5) 0.0253(3)
C5 C 0.77726(17) -0.1954(5) -0.0877(3)
H1 H 0.7633 -0.3233 -0.1071
C6 C 0.74132(18) -0.0430(5) -0.1539(3)
H2 H 0.6968 -0.0413 -0.2291
C7 C 0.90914(16) 0.2907(5) -0.0114(3)
C8 C 0.97277(16) 0.0166(5) 0.0930(3)
C9 C 1.02828(19) 0.3397(6) 0.1875(3)
C10 C 1.0000 0.4564(8) 0.2500
N1 N 0.97087(13) 0.2170(4) 0.0919(2)
O1 O 0.82001(11) 0.0622(3) 0.04074(18)
O2 O 0.89836(13) 0.4608(3) -0.0357(2)
O3 O 1.02506(12) -0.0774(3) 0.1652(2)
H3 H 0.7629(16) 0.252(5) -0.092(3)
H4 H 0.849(2) 0.124(5) -0.172(3)
H5 H 0.9083(17) -0.164(4) -0.052(3)
H6 H 0.8697(18) -0.196(5) 0.099(3)
H7 H 1.040(2) 0.431(6) 0.146(4)
H8 H 1.0683(14) 0.242(4) 0.243(2)
H9 H 0.9634(18) 0.521(5) 0.194(3)
C1A C 1.21205(17) 0.1277(5) 0.5814(3)
C2A C 1.14165(16) 0.1267(4) 0.5861(3)
C3A C 1.10144(16) -0.0539(4) 0.5128(3)
C4A C 1.15478(18) -0.1198(5) 0.4747(3)
C5A C 1.22274(17) -0.1954(5) 0.5877(3)
H1A H 1.2367 -0.3233 0.6071
C6A C 1.25868(18) -0.0430(5) 0.6539(3)
H2A H 1.3032 -0.0413 0.7291
C7A C 1.09086(16) 0.2907(5) 0.5114(3)
C8A C 1.02723(16) 0.0166(5) 0.4070(3)
C9A C 0.97172(19) 0.3397(6) 0.3125(3)
N1A N 1.02913(13) 0.2170(4) 0.4081(2)
O1A O 1.17999(11) 0.0622(3) 0.45926(18)
O2A O 1.10164(13) 0.4608(3) 0.5357(2)
O3A O 0.97494(12) -0.0774(3) 0.3348(2)
H3A H 1.2371(16) 0.252(5) 0.592(3)
H4A H 1.151(2) 0.124(5) 0.672(3)
H5A H 1.0917(17) -0.164(4) 0.552(3)
H6A H 1.1303(18) -0.196(5) 0.401(3)
H7A H 0.960(2) 0.431(6) 0.354(4)
H8A H 0.9317(14) 0.242(4) 0.257(2)
H9A H 1.0366(18) 0.521(5) 0.306(3)
loop_
_geom_bond_atom_site_label_1
_geom_bond_atom_site_label_2
_geom_bond_site_symmetry_1
_geom_bond_site_symmetry_2
C1 C2 1_555 1_555
C2 C3 1_555 1_555
C3 C4 1_555 1_555
C4 C5 1_555 1_555
C5 H1 1_555 1_555
C6 C1 1_555 1_555
H2 C6 1_555 1_555
C7 C2 1_555 1_555
C8 C3 1_555 1_555
C9 C10 1_555 1_555
C10 H9 1_555 1_555
N1 C7 1_555 1_555
O1 C1 1_555 1_555
O2 C7 1_555 1_555
O3 C8 1_555 1_555
H3 C1 1_555 1_555
H4 C2 1_555 1_555
H5 C3 1_555 1_555
H6 C4 1_555 1_555
H7 C9 1_555 1_555
H8 C9 1_555 1_555
C1A C2A 1_555 1_555
C2A C3A 1_555 1_555
C3A C4A 1_555 1_555
C4A C5A 1_555 1_555
C5A H1A 1_555 1_555
C6A C1A 1_555 1_555
H2A C6A 1_555 1_555
C7A C2A 1_555 1_555
C8A C3A 1_555 1_555
C9A C10 1_555 1_555
N1A C7A 1_555 1_555
O1A C1A 1_555 1_555
O2A C7A 1_555 1_555
O3A C8A 1_555 1_555
H3A C1A 1_555 1_555
H4A C2A 1_555 1_555
H5A C3A 1_555 1_555
H6A C4A 1_555 1_555
H7A C9A 1_555 1_555
H8A C9A 1_555 1_555
H9A C10 1_555 1_555
C4 O1 1_555 1_555
C5 C6 1_555 1_555
C8 N1 1_555 1_555
C9 N1 1_555 1_555
C4A O1A 1_555 1_555
C5A C6A 1_555 1_555
C8A N1A 1_555 1_555
C9A N1A 1_555 1_555

#END
