
#######################################################################
#
#                 Cambridge Crystallographic Data Centre
#                                CCDC 
#
#######################################################################
#
# If this CIF has been generated from an entry in the Cambridge 
# Structural Database, then it will include bibliographic, chemical, 
# crystal, experimental, refinement or atomic coordinate data resulting 
# from the CCDC's data processing and validation procedures.
#
#######################################################################

data_FAQYEB
_chemical_formula_moiety         'C43 H40'
_chemical_name_systematic        
1-(Di(4-t-butylphenyl)methyl)-2-phenylfluoranthene
_symmetry_cell_setting           triclinic
_symmetry_space_group_name_H-M   'P -1'
_symmetry_Int_Tables_number      2
_space_group_name_Hall           '-P 1'
loop_
_symmetry_equiv_pos_site_id
_symmetry_equiv_pos_as_xyz
1 x,y,z
2 -x,-y,-z
_cell_length_a                   10.401(1)
_cell_length_b                   12.477(2)
_cell_length_c                   12.686(2)
_cell_angle_alpha                83.08(1)
_cell_angle_beta                 89.46(1)
_cell_angle_gamma                88.93(1)
_cell_volume                     1633.98
_exptl_crystal_colour            'pale yellow'
_chemical_melting_point          227-229deg.C
_cell_formula_units_Z            2
_exptl_crystal_recrystallization_method ethanol/pentane
loop_
_atom_site_label
_atom_site_type_symbol
_atom_site_fract_x
_atom_site_fract_y
_atom_site_fract_z
C1 C 0.3940(3) 0.2024(3) 0.6112(2)
C2 C 0.3785(3) 0.1201(3) 0.5484(3)
H1 H 0.4401(3) 0.1100(3) 0.4967(3)
C3 C 0.2727(3) 0.0515(3) 0.5605(3)
C4 C 0.2479(4) -0.0387(3) 0.5065(3)
H2 H 0.3044(4) -0.0566(3) 0.4538(3)
C5 C 0.1416(5) -0.0998(3) 0.5309(4)
H3 H 0.1280(5) -0.1596(3) 0.4955(4)
C6 C 0.0525(4) -0.0745(3) 0.6081(3)
H4 H -0.0196(4) -0.1167(3) 0.6229(3)
C7 C 0.0720(3) 0.0122(3) 0.6613(3)
C8 C 0.0036(4) 0.0612(3) 0.7456(3)
C9 C -0.1106(4) 0.0343(3) 0.7962(3)
H5 H -0.1574(4) -0.0232(3) 0.7775(3)
C10 C -0.1554(5) 0.0926(4) 0.8743(4)
H6 H -0.2332(5) 0.0753(4) 0.9082(4)
C11 C -0.0845(5) 0.1772(4) 0.9025(4)
H7 H -0.1152(5) 0.2160(4) 0.9559(4)
C12 C 0.0310(4) 0.2051(3) 0.8532(3)
H8 H 0.0783(4) 0.2613(3) 0.8743(3)
C13 C 0.0759(3) 0.1491(3) 0.7723(3)
C14 C 0.1932(3) 0.1584(3) 0.7031(2)
C15 C 0.3003(3) 0.2244(2) 0.6897(2)
C16 C 0.1830(3) 0.0735(2) 0.6379(2)
C17 C 0.3262(3) 0.3187(2) 0.7532(2)
H9 H 0.3917(3) 0.3612(2) 0.7118(2)
C18 C 0.2123(3) 0.3966(2) 0.7592(2)
C19 C 0.1881(3) 0.4496(3) 0.8474(2)
H10 H 0.2431(3) 0.4380(3) 0.9051(2)
C20 C 0.0839(3) 0.5194(3) 0.8513(3)
H11 H 0.0694(3) 0.5519(3) 0.9127(3)
C21 C 0.0000(3) 0.5427(2) 0.7667(3)
C22 C 0.0285(3) 0.4926(3) 0.6777(3)
H12 H -0.0234(3) 0.5073(3) 0.6182(3)
C23 C 0.1314(3) 0.4213(3) 0.6741(2)
H13 H 0.1464(3) 0.3891(3) 0.6125(2)
C24 C 0.3897(3) 0.2824(3) 0.8602(2)
C25 C 0.3600(4) 0.1883(3) 0.9221(3)
H14 H 0.3000(4) 0.1428(3) 0.8980(3)
C26 C 0.4175(4) 0.1594(3) 1.0200(3)
H15 H 0.3933(4) 0.0957(3) 1.0604(3)
C27 C 0.5090(3) 0.2218(3) 1.0592(3)
C28 C 0.5391(3) 0.3155(3) 0.9961(3)
H16 H 0.6002(3) 0.3605(3) 1.0196(3)
C29 C 0.4819(3) 0.3453(3) 0.8989(3)
H17 H 0.5060(3) 0.4091(3) 0.8587(3)
C30 C 0.5138(3) 0.2659(3) 0.5929(2)
C31 C 0.5284(4) 0.3380(3) 0.5022(3)
H18 H 0.4602(4) 0.3507(3) 0.4551(3)
C32 C 0.6413(5) 0.3912(4) 0.4801(4)
H19 H 0.6490(5) 0.4399(4) 0.4189(4)
C33 C 0.7412(5) 0.3729(4) 0.5473(4)
H20 H 0.8179(5) 0.4086(4) 0.5311(4)
C34 C 0.7320(4) 0.3031(4) 0.6385(4)
H21 H 0.8014(4) 0.2919(4) 0.6845(4)
C35 C 0.6165(4) 0.2485(3) 0.6619(3)
H22 H 0.6089(4) 0.2007(3) 0.7237(3)
C36 C -0.1203(3) 0.6134(3) 0.7752(3)
C37 C -0.1685(4) 0.6608(3) 0.6654(3)
H23 H -0.0986(7) 0.6945(17) 0.6248(8)
H24 H -0.2353(17) 0.7134(15) 0.6732(3)
H25 H -0.2018(21) 0.6040(5) 0.6292(8)
C38 C -0.2253(4) 0.5423(4) 0.8311(4)
H26 H -0.2463(17) 0.4866(13) 0.7885(10)
H27 H -0.3006(9) 0.5858(5) 0.8409(18)
H28 H -0.1947(9) 0.5100(16) 0.8990(9)
C39 C -0.0937(4) 0.7067(3) 0.8396(4)
H29 H -0.0245(17) 0.7488(12) 0.8070(12)
H30 H -0.0703(24) 0.6782(3) 0.9107(7)
H31 H -0.1695(9) 0.7514(12) 0.8415(17)
C40 C 0.5750(4) 0.1871(3) 1.1649(3)
C41 C 0.4960(6) 0.1103(6) 1.2376(4)
H32 H 0.4930(37) 0.0421(12) 1.2099(20)
H33 H 0.4103(15) 0.1393(18) 1.2426(29)
H34 H 0.5341(27) 0.1003(31) 1.3068(11)
C42 C 0.6986(5) 0.1344(6) 1.1480(4)
H35 H 0.6860(7) 0.0750(22) 1.1079(30)
H36 H 0.7358(21) 0.1082(33) 1.2154(4)
H37 H 0.7552(14) 0.1853(10) 1.1096(31)
C43 C 0.5938(9) 0.2810(5) 1.2257(5)
H38 H 0.6656(34) 0.3220(27) 1.1965(30)
H39 H 0.6100(58) 0.2553(5) 1.2988(10)
H40 H 0.5177(21) 0.3261(26) 1.2208(39)
loop_
_geom_bond_atom_site_label_1
_geom_bond_atom_site_label_2
_geom_bond_site_symmetry_1
_geom_bond_site_symmetry_2
C1 C2 1_555 1_555
C2 H1 1_555 1_555
C3 C2 1_555 1_555
C4 C3 1_555 1_555
H2 C4 1_555 1_555
C5 C4 1_555 1_555
H3 C5 1_555 1_555
C6 C5 1_555 1_555
H4 C6 1_555 1_555
C7 C6 1_555 1_555
C8 C7 1_555 1_555
C9 C8 1_555 1_555
H5 C9 1_555 1_555
C10 C9 1_555 1_555
H6 C10 1_555 1_555
C11 C10 1_555 1_555
H7 C11 1_555 1_555
C12 C11 1_555 1_555
H8 C12 1_555 1_555
C13 C8 1_555 1_555
C14 C13 1_555 1_555
C15 C1 1_555 1_555
C16 C3 1_555 1_555
C17 C15 1_555 1_555
H9 C17 1_555 1_555
C18 C17 1_555 1_555
C19 C18 1_555 1_555
H10 C19 1_555 1_555
C20 C19 1_555 1_555
H11 C20 1_555 1_555
C21 C20 1_555 1_555
C22 C21 1_555 1_555
H12 C22 1_555 1_555
C23 C18 1_555 1_555
H13 C23 1_555 1_555
C24 C17 1_555 1_555
C25 C24 1_555 1_555
H14 C25 1_555 1_555
C26 C25 1_555 1_555
H15 C26 1_555 1_555
C27 C26 1_555 1_555
C28 C27 1_555 1_555
H16 C28 1_555 1_555
C29 C24 1_555 1_555
H17 C29 1_555 1_555
C30 C1 1_555 1_555
C31 C30 1_555 1_555
H18 C31 1_555 1_555
C32 C31 1_555 1_555
H19 C32 1_555 1_555
C33 C32 1_555 1_555
H20 C33 1_555 1_555
C34 C33 1_555 1_555
H21 C34 1_555 1_555
C35 C30 1_555 1_555
H22 C35 1_555 1_555
C36 C21 1_555 1_555
C37 C36 1_555 1_555
H23 C37 1_555 1_555
H24 C37 1_555 1_555
H25 C37 1_555 1_555
C38 C36 1_555 1_555
H26 C38 1_555 1_555
H27 C38 1_555 1_555
H28 C38 1_555 1_555
C39 C36 1_555 1_555
H29 C39 1_555 1_555
H30 C39 1_555 1_555
H31 C39 1_555 1_555
C40 C27 1_555 1_555
C41 C40 1_555 1_555
H32 C41 1_555 1_555
H33 C41 1_555 1_555
H34 C41 1_555 1_555
C42 C40 1_555 1_555
H35 C42 1_555 1_555
H36 C42 1_555 1_555
H37 C42 1_555 1_555
C43 C40 1_555 1_555
H38 C43 1_555 1_555
H39 C43 1_555 1_555
H40 C43 1_555 1_555
C7 C16 1_555 1_555
C12 C13 1_555 1_555
C14 C15 1_555 1_555
C14 C16 1_555 1_555
C22 C23 1_555 1_555
C28 C29 1_555 1_555
C34 C35 1_555 1_555

#END
