
#######################################################################
#
#                 Cambridge Crystallographic Data Centre
#                                CCDC 
#
#######################################################################
#
# If this CIF has been generated from an entry in the Cambridge 
# Structural Database, then it will include bibliographic, chemical, 
# crystal, experimental, refinement or atomic coordinate data resulting 
# from the CCDC's data processing and validation procedures.
#
#######################################################################

data_FARBAE02
_chemical_formula_moiety         'C6 H10 O4'
_chemical_name_systematic        '3-methylpentanedioic acid'
_symmetry_cell_setting           monoclinic
_symmetry_space_group_name_H-M   'P 21/c'
_symmetry_Int_Tables_number      14
_space_group_name_Hall           '-P 2ybc'
loop_
_symmetry_equiv_pos_site_id
_symmetry_equiv_pos_as_xyz
1 x,y,z
2 -x,1/2+y,1/2-z
3 -x,-y,-z
4 x,1/2-y,1/2+z
_cell_length_a                   13.795(6)
_cell_length_b                   5.313(3)
_cell_length_c                   10.073(4)
_cell_angle_alpha                90
_cell_angle_beta                 109.745(12)
_cell_angle_gamma                90
_cell_volume                     694.872
_exptl_crystal_colour            colorless
_exptl_crystal_description       plate
_cell_formula_units_Z            4
loop_
_atom_site_label
_atom_site_type_symbol
_atom_site_fract_x
_atom_site_fract_y
_atom_site_fract_z
O1 O 0.61683(10) 0.4160(2) 0.00988(14)
O2 O 0.98416(10) -0.2551(2) 0.37514(14)
H1 H 1.017(2) -0.204(5) 0.455(3)
O3 O 0.52089(10) 0.2251(2) 0.12039(13)
H2 H 0.4814 0.3470 0.0871
O4 O 0.90315(10) 0.1124(2) 0.36711(13)
C1 C 0.60421(13) 0.2449(3) 0.08331(17)
C2 C 0.68192(12) 0.0402(3) 0.14443(17)
H3 H 0.6459 -0.1241 0.1285
H4 H 0.7125 0.0658 0.2476
C3 C 0.76866(13) 0.0302(3) 0.08189(16)
H5 H 0.8004 0.2011 0.0895
C4 C 0.85206(12) -0.1575(3) 0.16264(17)
H6 H 0.8187 -0.3214 0.1656
H7 H 0.8997 -0.1824 0.1090
C5 C 0.91438(12) -0.0839(3) 0.31080(17)
C6 C 0.72839(14) -0.0468(3) -0.07373(17)
H8 H 0.7084 -0.2247 -0.0814
H9 H 0.7826 -0.0216 -0.1150
H10 H 0.6684 0.0565 -0.1243
loop_
_geom_bond_atom_site_label_1
_geom_bond_atom_site_label_2
_geom_bond_site_symmetry_1
_geom_bond_site_symmetry_2
O1 C1 1_555 1_555
O2 H1 1_555 1_555
O3 H2 1_555 1_555
O4 C5 1_555 1_555
C1 O3 1_555 1_555
C2 C1 1_555 1_555
H3 C2 1_555 1_555
H4 C2 1_555 1_555
C3 C2 1_555 1_555
H5 C3 1_555 1_555
C4 C3 1_555 1_555
H6 C4 1_555 1_555
H7 C4 1_555 1_555
C5 O2 1_555 1_555
C6 C3 1_555 1_555
H8 C6 1_555 1_555
H9 C6 1_555 1_555
H10 C6 1_555 1_555
C4 C5 1_555 1_555

#END
