
#######################################################################
#
#                 Cambridge Crystallographic Data Centre
#                                CCDC 
#
#######################################################################
#
# If this CIF has been generated from an entry in the Cambridge 
# Structural Database, then it will include bibliographic, chemical, 
# crystal, experimental, refinement or atomic coordinate data resulting 
# from the CCDC's data processing and validation procedures.
#
#######################################################################

data_FARMAP
_chemical_formula_moiety         'C20 H22 O6 S1,H2 O1'
_chemical_name_systematic        
'p-tolyl-1-thio-6-O-benzoyl-\b-D-glucopyranoside monohydrate'
_symmetry_cell_setting           monoclinic
_symmetry_space_group_name_H-M   'P 21'
_symmetry_Int_Tables_number      4
_space_group_name_Hall           'P 2yb'
loop_
_symmetry_equiv_pos_site_id
_symmetry_equiv_pos_as_xyz
1 x,y,z
2 -x,1/2+y,-z
_cell_length_a                   10.6742(5)
_cell_length_b                   8.0820(5)
_cell_length_c                   22.8474(19)
_cell_angle_alpha                90
_cell_angle_beta                 94.160(5)
_cell_angle_gamma                90
_cell_volume                     1965.83
_cell_formula_units_Z            4
loop_
_atom_site_label
_atom_site_type_symbol
_atom_site_fract_x
_atom_site_fract_y
_atom_site_fract_z
S1 S 0.59820(14) 0.0927(3) 0.31986(9)
O1 O 0.5124(4) 0.3907(6) 0.3360(3)
C1 C 0.3305(5) 0.7789(9) 0.1887(4)
O2 O 0.2863(5) 0.8653(10) 0.2846(3)
O3 O 0.4399(5) 0.0373(7) 0.4269(3)
H1 H 0.4982 -0.0234 0.4384
C2 C 0.3481(6) 0.7847(10) 0.2528(4)
O4 O 0.4449(6) 0.6875(7) 0.2734(3)
C3 C 0.4009(6) 0.6787(9) 0.1544(4)
H2 H 0.4633 0.6121 0.1725
C4 C 0.2378(6) 0.8777(9) 0.1606(4)
H3 H 0.1892 0.9454 0.1829
C5 C 0.4597(6) 0.2084(9) 0.1538(3)
H4 H 0.3986 0.2762 0.1352
C6 C 0.4825(6) 0.2268(9) 0.3489(4)
H5 H 0.3988 0.1996 0.3311
C7 C 0.5671(5) 0.1057(10) 0.2428(4)
C8 C 0.4755(5) 0.2096(9) 0.2143(4)
H6 H 0.4264 0.2781 0.2360
C9 C 0.4873(6) 0.1976(10) 0.4152(4)
H7 H 0.5739 0.2081 0.4322
C10 C 0.2169(6) 0.8766(10) 0.1001(4)
H8 H 0.1555 0.9447 0.0819
C11 C 0.3811(6) 0.6754(10) 0.0947(4)
H9 H 0.4302 0.6073 0.0728
C12 C 0.5322(6) 0.1089(9) 0.1194(4)
C13 C 0.6397(6) 0.0087(9) 0.2092(4)
H10 H 0.7012 -0.0588 0.2276
O5 O 0.4258(6) 0.3178(9) 0.5057(3)
H11 H 0.3635 0.2795 0.5197
C14 C 0.2881(6) 0.7731(10) 0.0664(4)
H12 H 0.2735 0.7696 0.0258
C15 C 0.6231(6) 0.0097(10) 0.1488(4)
H13 H 0.6737 -0.0573 0.1273
C16 C 0.4227(10) 0.5075(12) 0.3557(5)
H14 H 0.3386 0.4829 0.3377
C17 C 0.5136(7) 0.1114(12) 0.0539(4)
H15 H 0.4306 0.0727 0.0420
H16 H 0.5745 0.0407 0.0377
H17 H 0.5237 0.2224 0.0401
C18 C 0.4043(8) 0.3254(12) 0.4420(4)
H18 H 0.3166 0.2951 0.4316
C19 C 0.4665(13) 0.6769(13) 0.3354(6)
H19 H 0.4205 0.7637 0.3539
H20 H 0.5552 0.6911 0.3466
O6 O 0.3282(17) 0.5973(16) 0.4437(5)
H21 H 0.2593 0.5657 0.4298
C20 C 0.4233(15) 0.4983(15) 0.4217(6)
H22 H 0.5049 0.5375 0.4387
S2 S 0.0806(3) 0.0973(3) 0.66537(14)
O7 O -0.1912(4) 0.8650(7) 0.7486(3)
O8 O -0.0335(4) 0.6859(7) 0.7375(3)
C21 C -0.1221(6) 0.8766(10) 0.8711(4)
H23 H -0.1860 0.9468 0.8566
O9 O 0.2305(8) 0.2331(8) 0.5610(4)
H24 H 0.2233 0.1323 0.5631
C22 C -0.0600(5) 0.7810(9) 0.8327(4)
O10 O 0.1042(6) 0.4863(9) 0.4920(4)
H25 H 0.1012 0.3908 0.4797
C23 C -0.1027(6) 0.7857(10) 0.7691(4)
O11 O 0.0112(4) 0.4099(7) 0.6614(3)
O12 O 0.0507(6) 0.7654(9) 0.5655(4)
H26 H -0.0132 0.8217 0.5657
C24 C 0.0708(6) 0.6722(11) 0.9148(5)
H27 H 0.1361 0.6044 0.9295
C25 C 0.0056(6) 0.7682(10) 0.9524(4)
H28 H 0.0270 0.7642 0.9926
C26 C -0.0915(6) 0.8705(10) 0.9308(4)
H29 H -0.1355 0.9342 0.9563
C27 C 0.2015(5) 0.0980(11) 0.8618(4)
C28 C 0.1264(7) 0.1025(10) 0.7411(4)
C29 C 0.2588(7) 0.0027(11) 0.8217(6)
H30 H 0.3231 -0.0677 0.8356
C30 C 0.0999(5) 0.1976(10) 0.8391(4)
H31 H 0.0576 0.2635 0.8646
C31 C 0.1115(8) 0.3063(10) 0.6444(5)
H32 H 0.1916 0.3437 0.6635
C32 C 0.0376(6) 0.6781(11) 0.8547(4)
H33 H 0.0806 0.6134 0.8291
C33 C 0.0282(6) 0.5798(12) 0.6471(4)
H34 H 0.1111 0.6157 0.6636
C34 C 0.0225(6) 0.5992(14) 0.5800(4)
H35 H -0.0619 0.5708 0.5632
C35 C -0.0704(6) 0.6799(13) 0.6743(4)
H36 H -0.0742 0.7907 0.6579
H37 H -0.1521 0.6284 0.6673
C36 C 0.0625(6) 0.1986(10) 0.7798(4)
H38 H -0.0051 0.2635 0.7658
C37 C 0.2400(7) 0.0954(12) 0.9253(5)
H39 H 0.2588 -0.0161 0.9374
H40 H 0.1730 0.1375 0.9468
H41 H 0.3133 0.1632 0.9328
C38 C 0.1188(8) 0.4850(12) 0.5545(5)
H42 H 0.2021 0.5304 0.5659
C39 C 0.2274(8) 0.0046(11) 0.7630(6)
H43 H 0.2725 -0.0582 0.7376
C40 C 0.1166(9) 0.3109(12) 0.5774(5)
H44 H 0.0438 0.2523 0.5589
O13 O 0.7513(7) 0.4227(10) 0.4679(7)
H45 H 0.7161 0.3974 0.4989
H46 H 0.7024 0.3992 0.4380
O14 O 0.2113(11) -0.155(2) 0.4141(6)
H47 H 0.1992 -0.2515 0.4229
H48 H 0.2231 -0.1389 0.3795
loop_
_geom_bond_atom_site_label_1
_geom_bond_atom_site_label_2
_geom_bond_site_symmetry_1
_geom_bond_site_symmetry_2
S1 C6 1_555 1_555
O1 C6 1_555 1_555
C1 C2 1_555 1_555
O2 C2 1_555 1_555
O3 H1 1_555 1_555
C2 O4 1_555 1_555
O4 C19 1_555 1_555
C3 C1 1_555 1_555
H2 C3 1_555 1_555
C4 C1 1_555 1_555
H3 C4 1_555 1_555
C5 H4 1_555 1_555
C6 H5 1_555 1_555
C7 S1 1_555 1_555
C8 C5 1_555 1_555
H6 C8 1_555 1_555
C9 O3 1_555 1_555
H7 C9 1_555 1_555
C10 C4 1_555 1_555
H8 C10 1_555 1_555
C11 C3 1_555 1_555
H9 C11 1_555 1_555
C12 C5 1_555 1_555
C13 C7 1_555 1_555
H10 C13 1_555 1_555
O5 H11 1_555 1_555
C14 C10 1_555 1_555
H12 C14 1_555 1_555
C15 C12 1_555 1_555
H13 C15 1_555 1_555
C16 O1 1_555 1_555
H14 C16 1_555 1_555
C17 C12 1_555 1_555
H15 C17 1_555 1_555
H16 C17 1_555 1_555
H17 C17 1_555 1_555
C18 C9 1_555 1_555
H18 C18 1_555 1_555
C19 C16 1_555 1_555
H19 C19 1_555 1_555
H20 C19 1_555 1_555
O6 H21 1_555 1_555
C20 C16 1_555 1_555
H22 C20 1_555 1_555
S2 C28 1_555 1_555
O7 C23 1_555 1_555
O8 C23 1_555 1_555
C21 H23 1_555 1_555
O9 H24 1_555 1_555
C22 C21 1_555 1_555
O10 H25 1_555 1_555
C23 C22 1_555 1_555
O11 C31 1_555 1_555
O12 H26 1_555 1_555
C24 H27 1_555 1_555
C25 C24 1_555 1_555
H28 C25 1_555 1_555
C26 C21 1_555 1_555
H29 C26 1_555 1_555
C27 C29 1_555 1_555
C28 C36 1_555 1_555
C29 H30 1_555 1_555
C30 C27 1_555 1_555
H31 C30 1_555 1_555
C31 S2 1_555 1_555
H32 C31 1_555 1_555
C32 C22 1_555 1_555
H33 C32 1_555 1_555
C33 O11 1_555 1_555
H34 C33 1_555 1_555
C34 O12 1_555 1_555
H35 C34 1_555 1_555
C35 O8 1_555 1_555
H36 C35 1_555 1_555
H37 C35 1_555 1_555
C36 C30 1_555 1_555
H38 C36 1_555 1_555
C37 C27 1_555 1_555
H39 C37 1_555 1_555
H40 C37 1_555 1_555
H41 C37 1_555 1_555
C38 O10 1_555 1_555
H42 C38 1_555 1_555
C39 C28 1_555 1_555
H43 C39 1_555 1_555
C40 O9 1_555 1_555
H44 C40 1_555 1_555
O13 H45 1_555 1_555
H46 O13 1_555 1_555
O14 H47 1_555 1_555
H48 O14 1_555 1_555
C6 C9 1_555 1_555
C7 C8 1_555 1_555
C11 C14 1_555 1_555
C13 C15 1_555 1_555
O5 C18 1_555 1_555
C18 C20 1_555 1_555
O6 C20 1_555 1_555
C24 C32 1_555 1_555
C25 C26 1_555 1_555
C29 C39 1_555 1_555
C31 C40 1_555 1_555
C33 C34 1_555 1_555
C33 C35 1_555 1_555
C34 C38 1_555 1_555
C38 C40 1_555 1_555

#END
