
#######################################################################
#
#                 Cambridge Crystallographic Data Centre
#                                CCDC 
#
#######################################################################
#
# If this CIF has been generated from an entry in the Cambridge 
# Structural Database, then it will include bibliographic, chemical, 
# crystal, experimental, refinement or atomic coordinate data resulting 
# from the CCDC's data processing and validation procedures.
#
#######################################################################

data_FARVUS
_chemical_formula_moiety         'C13 H17 N7 O4,2(H2 O1)'
_chemical_name_systematic        
'5-ethyl-4-(((5-ethyl-4-nitro-1H-pyrazol-3-yl)carbonyl)amino)-N-methyl-1H-pyrazole-3-carboxamide dihydrate'
_symmetry_cell_setting           triclinic
_symmetry_space_group_name_H-M   'P -1'
_symmetry_Int_Tables_number      2
_space_group_name_Hall           '-P 1'
loop_
_symmetry_equiv_pos_site_id
_symmetry_equiv_pos_as_xyz
1 x,y,z
2 -x,-y,-z
_cell_length_a                   9.2872(18)
_cell_length_b                   9.5262(16)
_cell_length_c                   10.7968(17)
_cell_angle_alpha                65.124(5)
_cell_angle_beta                 86.966(9)
_cell_angle_gamma                86.718(8)
_cell_volume                     864.727
_exptl_crystal_colour            colorless
_exptl_crystal_description       block
_chemical_melting_point          '427 K'
_cell_formula_units_Z            2
_exptl_crystal_recrystallization_method Methanol
loop_
_atom_site_label
_atom_site_type_symbol
_atom_site_fract_x
_atom_site_fract_y
_atom_site_fract_z
O1 O 0.29086(11) 0.36705(12) 0.64220(12)
O2 O 0.24026(12) 0.45037(14) 0.31902(14)
O3 O 0.51222(15) 0.70072(14) 0.05248(14)
O4 O 0.72755(17) 0.63613(17) 0.00059(17)
N1 N 0.19629(14) 0.87523(15) 0.41543(14)
H1 H 0.1667 0.9710 0.3976
N2 N 0.14154(14) 0.75015(15) 0.52011(14)
N3 N 0.06099(14) 0.43669(15) 0.67210(14)
H2 H -0.0073 0.5103 0.6477
N4 N 0.41139(13) 0.58922(14) 0.35494(13)
H3 H 0.5045 0.6035 0.3516
N5 N 0.49916(14) 0.24834(15) 0.33867(14)
N6 N 0.61779(15) 0.20530(15) 0.28225(14)
H4 H 0.6500 0.1085 0.3100
N7 N 0.61373(16) 0.60608(16) 0.06840(15)
C1 C 0.31598(15) 0.67852(17) 0.40180(16)
C2 C 0.30045(16) 0.83887(17) 0.34123(16)
C3 C 0.21557(16) 0.62889(17) 0.51227(16)
C4 C 0.36946(18) 0.95607(18) 0.21504(17)
H5 H 0.4723 0.9252 0.2094
H6 H 0.3651 1.0575 0.2203
C5 C 0.2958(2) 0.9724(2) 0.08719(18)
H7 H 0.3462 1.0473 0.0065
H8 H 0.1953 1.0085 0.0901
H9 H 0.2984 0.8717 0.0825
C6 C 0.19135(16) 0.46803(17) 0.61366(15)
C7 C 0.02804(19) 0.2839(2) 0.77536(19)
H10 H -0.0698 0.2865 0.8133
H11 H 0.0974 0.2522 0.8485
H12 H 0.0342 0.2097 0.7340
C8 C 0.36680(16) 0.48409(17) 0.31546(16)
C9 C 0.48508(16) 0.40106(17) 0.27039(16)
C10 C 0.68105(17) 0.32306(18) 0.18105(16)
C11 C 0.59635(16) 0.45269(17) 0.17029(15)
C12 C 0.81308(19) 0.3024(2) 0.10427(19)
H13 H 0.8918 0.3608 0.1165
H14 H 0.7928 0.3470 0.0057
C13 C 0.8640(2) 0.1335(2) 0.1498(2)
H15 H 0.9486 0.1273 0.0939
H16 H 0.7864 0.0746 0.1387
H17 H 0.8896 0.0901 0.2460
O5 O 0.33269(15) 0.10227(14) 0.58704(14)
H18 H 0.3116 0.1723 0.6135
H19 H 0.3865 0.1409 0.5168
O6 O 0.10316(13) 0.17918(14) 1.33768(14)
H20 H 0.0319 0.2036 1.3768
H21 H 0.1597 0.2522 1.3160
loop_
_geom_bond_atom_site_label_1
_geom_bond_atom_site_label_2
_geom_bond_site_symmetry_1
_geom_bond_site_symmetry_2
O1 C6 1_555 1_555
O2 C8 1_555 1_555
O3 N7 1_555 1_555
O4 N7 1_555 1_555
N1 H1 1_555 1_555
N2 N1 1_555 1_555
N3 H2 1_555 1_555
N4 H3 1_555 1_555
N5 N6 1_555 1_555
N6 H4 1_555 1_555
N7 C11 1_555 1_555
C1 N4 1_555 1_555
C2 N1 1_555 1_555
C3 N2 1_555 1_555
C4 C2 1_555 1_555
H5 C4 1_555 1_555
H6 C4 1_555 1_555
C5 C4 1_555 1_555
H7 C5 1_555 1_555
H8 C5 1_555 1_555
H9 C5 1_555 1_555
C6 N3 1_555 1_555
C7 N3 1_555 1_555
H10 C7 1_555 1_555
H11 C7 1_555 1_555
H12 C7 1_555 1_555
C8 N4 1_555 1_555
C9 N5 1_555 1_555
C10 N6 1_555 1_555
C11 C9 1_555 1_555
C12 C10 1_555 1_555
H13 C12 1_555 1_555
H14 C12 1_555 1_555
C13 C12 1_555 1_555
H15 C13 1_555 1_555
H16 C13 1_555 1_555
H17 C13 1_555 1_555
O5 H18 1_555 1_555
H19 O5 1_555 1_555
O6 H20 1_555 1_555
H21 O6 1_555 1_555
C1 C2 1_555 1_555
C1 C3 1_555 1_555
C3 C6 1_555 1_555
C8 C9 1_555 1_555
C10 C11 1_555 1_555

#END
