
#######################################################################
#
#                 Cambridge Crystallographic Data Centre
#                                CCDC 
#
#######################################################################
#
# If this CIF has been generated from an entry in the Cambridge 
# Structural Database, then it will include bibliographic, chemical, 
# crystal, experimental, refinement or atomic coordinate data resulting 
# from the CCDC's data processing and validation procedures.
#
#######################################################################

data_FASWOO
_chemical_formula_moiety         'C31 H29 N3 S1'
_chemical_name_systematic        
10-hexyl-3-(1-phenyl-1H-benzimidazol-2-yl)-10H-phenothiazine
_symmetry_cell_setting           monoclinic
_symmetry_space_group_name_H-M   'P 21/c'
_symmetry_Int_Tables_number      14
_space_group_name_Hall           '-P 2ybc'
loop_
_symmetry_equiv_pos_site_id
_symmetry_equiv_pos_as_xyz
1 x,y,z
2 -x,1/2+y,1/2-z
3 -x,-y,-z
4 x,1/2-y,1/2+z
_cell_length_a                   11.989(5)
_cell_length_b                   12.216(5)
_cell_length_c                   17.248(5)
_cell_angle_alpha                90
_cell_angle_beta                 89.830(17)
_cell_angle_gamma                90
_cell_volume                     2526.09
_cell_formula_units_Z            4
loop_
_atom_site_label
_atom_site_type_symbol
_atom_site_fract_x
_atom_site_fract_y
_atom_site_fract_z
S1 S 0.93153(7) -0.09391(10) 0.29276(9)
N1 N 0.63913(18) 0.11279(16) 0.48462(13)
C1 C 0.9368(2) 0.00613(19) 0.36659(16)
N2 N 0.70310(18) 0.28515(15) 0.48841(13)
C2 C 0.8339(2) 0.13556(19) 0.44471(16)
C3 C 0.8368(2) 0.04544(19) 0.39544(16)
H1 H 0.7705 0.0111 0.3817
C4 C 1.0380(2) 0.05168(19) 0.38895(16)
C5 C 0.7979(3) 0.3996(2) 0.39228(17)
H2 H 0.7787 0.3498 0.3538
C6 C 0.4487(2) 0.1561(2) 0.53855(17)
H3 H 0.4222 0.0845 0.5376
C7 C 0.5558(2) 0.18096(19) 0.51297(15)
C8 C 0.7247(2) 0.17636(18) 0.47100(15)
C9 C 0.9352(2) 0.1794(2) 0.46904(17)
H4 H 0.9355 0.2380 0.5034
C10 C 0.5286(3) 0.3741(2) 0.54323(18)
H5 H 0.5551 0.4455 0.5452
C11 C 1.2562(2) -0.1485(2) 0.33639(18)
H6 H 1.3178 -0.1109 0.3556
C12 C 0.7679(2) 0.38083(18) 0.46837(16)
C13 C 1.1532(2) -0.0962(2) 0.33428(16)
C14 C 0.5946(2) 0.28864(18) 0.51597(15)
N3 N 1.13986(19) 0.01487(17) 0.35665(16)
C15 C 1.0348(2) 0.1371(2) 0.44287(17)
H7 H 1.1013 0.1660 0.4614
C16 C 1.0624(2) -0.1565(2) 0.30684(17)
C17 C 0.8568(3) 0.4929(2) 0.3740(2)
H8 H 0.8784 0.5054 0.3229
C18 C 0.8839(3) 0.5675(2) 0.4300(2)
H9 H 0.9221 0.6311 0.4168
C19 C 0.7956(3) 0.4557(2) 0.52565(17)
H10 H 0.7746 0.4436 0.5769
C20 C 1.0756(3) -0.2649(2) 0.28373(18)
H11 H 1.0140 -0.3050 0.2675
C21 C 0.8546(3) 0.5483(2) 0.5055(2)
H12 H 0.8748 0.5982 0.5437
C22 C 1.2692(3) -0.2538(3) 0.31097(19)
H13 H 1.3396 -0.2858 0.3114
C23 C 1.1792(3) -0.3129(2) 0.28480(19)
H14 H 1.1883 -0.3846 0.2680
C24 C 0.3834(3) 0.2401(2) 0.56512(19)
H15 H 0.3114 0.2251 0.5823
C25 C 0.4223(2) 0.3480(2) 0.56707(19)
H16 H 0.3753 0.4032 0.5848
C26 C 1.2394(3) 0.0829(2) 0.3682(2)
H17 H 1.3047 0.0413 0.3527
H18 H 1.2464 0.0993 0.4230
C27 C 1.2375(3) 0.1869(3) 0.3243(2)
H19 H 1.1740 0.2306 0.3405
H20 H 1.2300 0.1718 0.2693
C28 C 1.3700(5) 0.3377(6) 0.2941(3)
H21 H 1.3121 0.3916 0.3031
H22 H 1.3629 0.3141 0.2406
C29 C 1.4785(5) 0.3950(4) 0.3009(4)
H23 H 1.5382 0.3458 0.2856
H24 H 1.4905 0.4160 0.3544
C30 C 1.3464(5) 0.2509(4) 0.3389(3)
H25 H 1.3450 0.2758 0.3923
H26 H 1.4078 0.1997 0.3342
C31 C 1.4813(5) 0.4943(5) 0.2509(4)
H27 H 1.5520 0.5301 0.2564
H28 H 1.4227 0.5434 0.2663
H29 H 1.4708 0.4734 0.1978
S2? S 0.9285(14) -0.1276(14) 0.3369(16)
loop_
_geom_bond_atom_site_label_1
_geom_bond_atom_site_label_2
_geom_bond_site_symmetry_1
_geom_bond_site_symmetry_2
S1 C1 1_555 1_555
N1 C7 1_555 1_555
C1 C3 1_555 1_555
N2 C8 1_555 1_555
C2 C3 1_555 1_555
C3 H1 1_555 1_555
C4 C1 1_555 1_555
C5 H2 1_555 1_555
C6 H3 1_555 1_555
C7 C6 1_555 1_555
C8 N1 1_555 1_555
C9 C2 1_555 1_555
H4 C9 1_555 1_555
C10 H5 1_555 1_555
C11 H6 1_555 1_555
C12 N2 1_555 1_555
C13 C11 1_555 1_555
C14 N2 1_555 1_555
N3 C4 1_555 1_555
C15 C4 1_555 1_555
H7 C15 1_555 1_555
C16 S1 1_555 1_555
C17 C5 1_555 1_555
H8 C17 1_555 1_555
C18 C17 1_555 1_555
H9 C18 1_555 1_555
C19 C12 1_555 1_555
H10 C19 1_555 1_555
C20 C16 1_555 1_555
H11 C20 1_555 1_555
C21 C18 1_555 1_555
H12 C21 1_555 1_555
C22 C11 1_555 1_555
H13 C22 1_555 1_555
C23 C20 1_555 1_555
H14 C23 1_555 1_555
C24 C6 1_555 1_555
H15 C24 1_555 1_555
C25 C10 1_555 1_555
H16 C25 1_555 1_555
C26 N3 1_555 1_555
H17 C26 1_555 1_555
H18 C26 1_555 1_555
C27 C26 1_555 1_555
H19 C27 1_555 1_555
H20 C27 1_555 1_555
C28 H21 1_555 1_555
H22 C28 1_555 1_555
C29 C28 1_555 1_555
H23 C29 1_555 1_555
H24 C29 1_555 1_555
C30 C27 1_555 1_555
H25 C30 1_555 1_555
H26 C30 1_555 1_555
C31 C29 1_555 1_555
H27 C31 1_555 1_555
H28 C31 1_555 1_555
H29 C31 1_555 1_555
C2 C8 1_555 1_555
C5 C12 1_555 1_555
C7 C14 1_555 1_555
C9 C15 1_555 1_555
C10 C14 1_555 1_555
C13 N3 1_555 1_555
C13 C16 1_555 1_555
C19 C21 1_555 1_555
C22 C23 1_555 1_555
C24 C25 1_555 1_555
C28 C30 1_555 1_555

#END
