
#######################################################################
#
#                 Cambridge Crystallographic Data Centre
#                                CCDC 
#
#######################################################################
#
# If this CIF has been generated from an entry in the Cambridge 
# Structural Database, then it will include bibliographic, chemical, 
# crystal, experimental, refinement or atomic coordinate data resulting 
# from the CCDC's data processing and validation procedures.
#
#######################################################################

data_FASWUT
_chemical_formula_moiety         'C6 H14 N2 2+,C16 H8 O8 2-,2(H2 O1)'
_chemical_name_systematic        
"1,4-diazoniabicyclo[2.2.2]octane 3,3'-dicarboxy-biphenyl-4,4'-dicarboxylate dihydrate"
_symmetry_cell_setting           triclinic
_symmetry_space_group_name_H-M   'P -1'
_symmetry_Int_Tables_number      2
_space_group_name_Hall           '-P 1'
loop_
_symmetry_equiv_pos_site_id
_symmetry_equiv_pos_as_xyz
1 x,y,z
2 -x,-y,-z
_cell_length_a                   6.5808(12)
_cell_length_b                   12.609(3)
_cell_length_c                   12.765(2)
_cell_angle_alpha                81.731(3)
_cell_angle_beta                 85.688(3)
_cell_angle_gamma                87.024(3)
_cell_volume                     1044.32
_exptl_crystal_colour            colorless
_exptl_crystal_description       block
_cell_formula_units_Z            2
loop_
_atom_site_label
_atom_site_type_symbol
_atom_site_fract_x
_atom_site_fract_y
_atom_site_fract_z
C1 C 0.1434(4) 0.36554(19) 0.65117(19)
C2 C 0.1040(4) 0.28958(19) 0.58407(19)
C3 C 0.2369(4) 0.1997(2) 0.58452(19)
H1 H 0.2112 0.1470 0.5416
C4 C 0.4042(4) 0.1843(2) 0.6448(2)
H2 H 0.4903 0.1217 0.6424
C5 C 0.4485(4) 0.25863(19) 0.70874(19)
C6 C 0.3146(4) 0.3475(2) 0.70983(19)
H3 H 0.3419 0.3993 0.7535
C7 C 0.6294(4) 0.24515(19) 0.77370(18)
C8 C 0.7612(4) 0.1546(2) 0.7749(2)
H4 H 0.7335 0.1023 0.7319
C9 C 0.9309(4) 0.13603(19) 0.83534(19)
C10 C 0.9712(4) 0.21303(19) 0.90068(19)
C11 C 0.8441(4) 0.3053(2) 0.89590(19)
H5 H 0.8736 0.3596 0.9363
C12 C 0.6783(4) 0.3214(2) 0.83537(19)
H6 H 0.5958 0.3854 0.8357
C13 C 0.0173(4) 0.46664(19) 0.6706(2)
C14 C -0.0666(4) 0.29307(19) 0.51007(19)
C15 C 1.0552(4) 0.0344(2) 0.8171(2)
C16 C 1.1307(4) 0.2055(2) 0.9815(2)
O1 O 0.0737(3) 0.52296(14) 0.73236(14)
O2 O -0.1484(3) 0.49253(14) 0.62293(14)
H7 H -0.1683 0.4465 0.5838
O3 O -0.2137(3) 0.36125(14) 0.51186(14)
O4 O -0.0553(3) 0.22419(14) 0.44756(14)
O5 O 1.0155(3) -0.01474(14) 0.74612(15)
O6 O 1.2026(3) 0.00034(15) 0.87645(17)
H8 H 1.2149 0.0433 0.9200
O7 O 1.2494(3) 0.12413(15) 0.99910(15)
O8 O 1.1366(3) 0.28304(15) 1.03237(14)
C17 C 0.6000(4) 0.2505(2) 0.1284(2)
H9 H 0.6107 0.3127 0.0716
H10 H 0.6253 0.1842 0.0954
C18 C 0.7572(4) 0.2563(2) 0.2081(2)
H11 H 0.8630 0.1980 0.2037
H12 H 0.8243 0.3258 0.1926
C19 C 0.3681(5) 0.1534(2) 0.2609(2)
H13 H 0.3702 0.0897 0.2237
H14 H 0.2353 0.1580 0.3023
C20 C 0.5412(4) 0.1425(2) 0.3353(2)
H15 H 0.4858 0.1288 0.4101
H16 H 0.6356 0.0817 0.3211
C21 C 0.3631(5) 0.3481(2) 0.2376(2)
H17 H 0.2197 0.3549 0.2662
H18 H 0.3931 0.4130 0.1863
C22 C 0.5044(4) 0.3381(2) 0.3268(2)
H19 H 0.5791 0.4049 0.3230
H20 H 0.4246 0.3264 0.3961
N1 N 0.3929(3) 0.25080(17) 0.18315(17)
H21 H 0.298(5) 0.251(2) 0.128(3)
N2 N 0.6521(3) 0.24502(16) 0.31631(16)
H22 H 0.761(5) 0.246(2) 0.367(3)
O9 O 0.7934(3) 0.01877(17) 0.55921(17)
H23 H 0.863(4) 0.069(2) 0.5120(19)
H24 H 0.882(4) 0.014(2) 0.6135(18)
O10 O 0.2549(4) 0.49318(17) 0.93213(18)
H25 H 0.192(5) 0.493(3) 0.8719(17)
H26 H 0.206(5) 0.433(2) 0.969(2)
loop_
_geom_bond_atom_site_label_1
_geom_bond_atom_site_label_2
_geom_bond_site_symmetry_1
_geom_bond_site_symmetry_2
C1 C2 1_555 1_555
C2 C3 1_555 1_555
C3 H1 1_555 1_555
C4 C3 1_555 1_555
H2 C4 1_555 1_555
C5 C4 1_555 1_555
C6 C1 1_555 1_555
H3 C6 1_555 1_555
C7 C5 1_555 1_555
C8 C7 1_555 1_555
H4 C8 1_555 1_555
C9 C8 1_555 1_555
C10 C9 1_555 1_555
C11 C10 1_555 1_555
H5 C11 1_555 1_555
C12 C7 1_555 1_555
H6 C12 1_555 1_555
C13 C1 1_555 1_555
C14 C2 1_555 1_555
C15 C9 1_555 1_555
C16 C10 1_555 1_555
O1 C13 1_555 1_555
O2 C13 1_555 1_555
H7 O2 1_555 1_555
O3 C14 1_555 1_555
O4 C14 1_555 1_555
O5 C15 1_555 1_555
O6 C15 1_555 1_555
H8 O6 1_555 1_555
O7 C16 1_555 1_555
O8 C16 1_555 1_555
C17 H9 1_555 1_555
H10 C17 1_555 1_555
C18 C17 1_555 1_555
H11 C18 1_555 1_555
H12 C18 1_555 1_555
C19 H13 1_555 1_555
H14 C19 1_555 1_555
C20 C19 1_555 1_555
H15 C20 1_555 1_555
H16 C20 1_555 1_555
C21 H17 1_555 1_555
H18 C21 1_555 1_555
C22 C21 1_555 1_555
H19 C22 1_555 1_555
H20 C22 1_555 1_555
N1 C17 1_555 1_555
H21 N1 1_555 1_555
N2 C18 1_555 1_555
H22 N2 1_555 1_555
O9 H23 1_555 1_555
H24 O9 1_555 1_555
O10 H25 1_555 1_555
H26 O10 1_555 1_555
C5 C6 1_555 1_555
C11 C12 1_555 1_555
C19 N1 1_555 1_555
C20 N2 1_555 1_555
C21 N1 1_555 1_555
C22 N2 1_555 1_555

#END
