
#######################################################################
#
#                 Cambridge Crystallographic Data Centre
#                                CCDC 
#
#######################################################################
#
# If this CIF has been generated from an entry in the Cambridge 
# Structural Database, then it will include bibliographic, chemical, 
# crystal, experimental, refinement or atomic coordinate data resulting 
# from the CCDC's data processing and validation procedures.
#
#######################################################################

data_FATBUZ
_chemical_formula_moiety         'C17 H21 N5 O1'
_chemical_name_systematic        
(Z)-2-Amino-3-((4-(diethylamino)-2-ethoxybenzylidene)amino)but-2-enedinitrile
_symmetry_cell_setting           monoclinic
_symmetry_space_group_name_H-M   'P 21/c'
_symmetry_Int_Tables_number      14
_space_group_name_Hall           '-P 2ybc'
loop_
_symmetry_equiv_pos_site_id
_symmetry_equiv_pos_as_xyz
1 x,y,z
2 -x,1/2+y,1/2-z
3 -x,-y,-z
4 x,1/2-y,1/2+z
_cell_length_a                   8.73445(16)
_cell_length_b                   14.1564(3)
_cell_length_c                   13.9178(3)
_cell_angle_alpha                90
_cell_angle_beta                 93.3807(7)
_cell_angle_gamma                90
_cell_volume                     1717.92
_exptl_crystal_colour            red
_exptl_crystal_description       block
_cell_formula_units_Z            4
loop_
_atom_site_label
_atom_site_type_symbol
_atom_site_fract_x
_atom_site_fract_y
_atom_site_fract_z
O1 O 0.7531(2) -0.07397(13) 0.99427(13)
N1 N 0.3968(3) 0.16269(16) 1.33932(19)
N2 N 0.2961(3) -0.0169(2) 1.4858(2)
N3 N 0.4965(3) -0.16478(19) 1.2788(2)
N4 N 0.5363(2) 0.06595(15) 1.19745(14)
N5 N 0.8714(3) 0.2141(2) 0.8287(2)
C1 C 0.3471(3) 0.0201(2) 1.4223(2)
C2 C 0.4096(3) 0.06702(19) 1.34192(19)
C3 C 0.4751(2) 0.01663(18) 1.27227(18)
C4 C 0.4836(3) -0.0846(2) 1.2784(2)
C5 C 0.6013(2) 0.02204(18) 1.13003(18)
C6 C 0.6714(2) 0.07104(18) 1.05365(18)
C7 C 0.6671(3) 0.16928(19) 1.0450(2)
C8 C 0.7326(3) 0.2170(2) 0.9727(2)
C9 C 0.8100(3) 0.1670(2) 0.9020(2)
C10 C 0.8189(3) 0.0686(2) 0.9108(2)
C11 C 0.7500(3) 0.02203(18) 0.98372(18)
C12 C 0.8238(3) -0.1310(2) 0.9245(2)
C13 C 0.7939(4) -0.2311(2) 0.9520(2)
C14 C 0.8421(4) 0.3135(2) 0.8079(2)
C15 C 0.9618(5) 0.3764(3) 0.8481(4)
C16 C 0.9293(5) 0.1518(4) 0.7336(5)
C17 C 1.0686(8) 0.1449(4) 0.7740(3)
H1 H 0.4310 0.1938 1.2920
H2 H 0.3545 0.1921 1.3849
H3 H 0.6030 -0.0436 1.1307
H4 H 0.6173 0.2039 1.0906
H5 H 0.7268 0.2825 0.9700
H6 H 0.8722 0.0342 0.8666
H7 H 0.9332 -0.1187 0.9256
H8 H 0.7793 -0.1180 0.8604
H9 H 0.8753 -0.2528 0.9959
H10 H 0.7889 -0.2702 0.8955
H11 H 0.6983 -0.2347 0.9825
H12 H 0.7451 0.3310 0.8335
H13 H 0.8322 0.3224 0.7387
H14 H 0.9382 0.3947 0.9120
H15 H 0.9667 0.4316 0.8083
H16 H 1.0590 0.3445 0.8504
H17 H 0.8770 0.0917 0.7245
H18 H 0.9241 0.1876 0.6740
H19 H 1.1290 0.1979 0.7558
H20 H 1.1129 0.0877 0.7512
H21 H 1.0667 0.1426 0.8429
loop_
_geom_bond_atom_site_label_1
_geom_bond_atom_site_label_2
_geom_bond_site_symmetry_1
_geom_bond_site_symmetry_2
O1 C11 1_555 1_555
N1 C2 1_555 1_555
N2 C1 1_555 1_555
N3 C4 1_555 1_555
N4 C3 1_555 1_555
N5 C9 1_555 1_555
C1 C2 1_555 1_555
C2 C3 1_555 1_555
C3 C4 1_555 1_555
C5 N4 1_555 1_555
C6 C5 1_555 1_555
C7 C6 1_555 1_555
C8 C7 1_555 1_555
C9 C8 1_555 1_555
C10 C9 1_555 1_555
C11 C6 1_555 1_555
C12 O1 1_555 1_555
C13 C12 1_555 1_555
C14 N5 1_555 1_555
C15 C14 1_555 1_555
C16 N5 1_555 1_555
C17 C16 1_555 1_555
H1 N1 1_555 1_555
H2 N1 1_555 1_555
H3 C5 1_555 1_555
H4 C7 1_555 1_555
H5 C8 1_555 1_555
H6 C10 1_555 1_555
H7 C12 1_555 1_555
H8 C12 1_555 1_555
H9 C13 1_555 1_555
H10 C13 1_555 1_555
H11 C13 1_555 1_555
H12 C14 1_555 1_555
H13 C14 1_555 1_555
H14 C15 1_555 1_555
H15 C15 1_555 1_555
H16 C15 1_555 1_555
H17 C16 1_555 1_555
H18 C16 1_555 1_555
H19 C17 1_555 1_555
H20 C17 1_555 1_555
H21 C17 1_555 1_555
C10 C11 1_555 1_555

#END
