
#######################################################################
#
#                 Cambridge Crystallographic Data Centre
#                                CCDC 
#
#######################################################################
#
# If this CIF has been generated from an entry in the Cambridge 
# Structural Database, then it will include bibliographic, chemical, 
# crystal, experimental, refinement or atomic coordinate data resulting 
# from the CCDC's data processing and validation procedures.
#
#######################################################################

data_FATTID02
_chemical_formula_moiety         '3(Na1 1+),C6 H5 O7 3-,5.5(H2 O1)'
_chemical_name_systematic        'Trisodium citrate hydrate'
_symmetry_cell_setting           orthorhombic
_symmetry_space_group_name_H-M   'P n m a'
_symmetry_Int_Tables_number      62
_space_group_name_Hall           '-P 2ac 2n'
loop_
_symmetry_equiv_pos_site_id
_symmetry_equiv_pos_as_xyz
1 x,y,z
2 1/2-x,-y,1/2+z
3 1/2+x,1/2-y,1/2-z
4 -x,1/2+y,-z
5 -x,-y,-z
6 1/2+x,y,1/2-z
7 1/2-x,1/2+y,1/2+z
8 x,1/2-y,z
_cell_length_a                   16.456(3)
_cell_length_b                   26.429(4)
_cell_length_c                   6.4345(10)
_cell_angle_alpha                90
_cell_angle_beta                 90
_cell_angle_gamma                90
_cell_volume                     2798.46
_cell_formula_units_Z            8
loop_
_atom_site_label
_atom_site_type_symbol
_atom_site_fract_x
_atom_site_fract_y
_atom_site_fract_z
Na1 Na 0.433870 0.250000 0.295100
Na2 Na 0.374130 0.250000 0.823800
Na3 Na 0.066080 0.075060 0.628700
Na4 Na 0.168240 0.167700 0.834900
O1 O 0.411520 0.186510 0.548100
O2 O 0.289550 0.182630 0.690500
O3 O 0.088460 0.053300 0.265200
O4 O 0.158880 -0.013020 0.158200
O5 O 0.118010 0.152840 0.489700
O6 O 0.187920 0.169130 0.201000
O7 O 0.213590 0.080020 0.610100
C1 C 0.341300 0.167130 0.564500
C2 C 0.322900 0.123370 0.419700
C3 C 0.236100 0.101890 0.414600
C4 C 0.233400 0.061200 0.243300
C5 C 0.154400 0.031820 0.223500
C6 C 0.175100 0.144750 0.366300
H1 H 0.338000 0.134700 0.282000
H2 H 0.361000 0.095400 0.460000
H3 H 0.244000 0.076400 0.109000
H4 H 0.276000 0.037900 0.263000
H5 H 0.247000 0.059000 0.641000
O8 O 0.299500 0.250000 0.153300
H6 H 0.271000 0.225600 0.164000
H6G H 0.271000 0.274400 0.164000
O9 O 0.074500 0.250000 0.216900
H7 H 0.102000 0.225600 0.221000
H7G H 0.102000 0.274400 0.221000
O10 O 0.103600 0.250000 0.774000
H8 H 0.153000 0.250000 0.727000
H9 H 0.105000 0.250000 0.913000
O11 O 0.424090 0.078180 0.944000
H10 H 0.401000 0.062000 0.857000
H11 H 0.416000 0.060600 1.050000
O12 O 0.440400 0.006710 0.281300
H12 H 0.421000 0.010200 0.397000
H13 H 0.489000 0.018500 0.280000
O13 O 0.455800 0.187600 0.024500
H14 H 0.436000 0.163300 -0.019000
H15 H 0.501000 0.181600 0.031000
O14 O 0.044900 0.132710 0.934200
H16 H 0.001000 0.141700 0.946000
H17 H 0.055000 0.111000 1.043000
loop_
_geom_bond_atom_site_label_1
_geom_bond_atom_site_label_2
_geom_bond_site_symmetry_1
_geom_bond_site_symmetry_2
O1 C1 1_555 1_555
O2 C1 1_555 1_555
O3 C5 1_555 1_555
O4 C5 1_555 1_555
O5 C6 1_555 1_555
O6 C6 1_555 1_555
O7 C3 1_555 1_555
C1 C2 1_555 1_555
C2 C3 1_555 1_555
C3 C4 1_555 1_555
C4 C5 1_555 1_555
C6 C3 1_555 1_555
H1 C2 1_555 1_555
H2 C2 1_555 1_555
H3 C4 1_555 1_555
H4 C4 1_555 1_555
H5 O7 1_555 1_555
O8 H6 1_555 1_555
O9 H7 1_555 1_555
O10 H8 1_555 1_555
H9 O10 1_555 1_555
O11 H10 1_555 1_555
H11 O11 1_555 1_555
O12 H12 1_555 1_555
H13 O12 1_555 1_555
O13 H14 1_555 1_555
H15 O13 1_555 1_555
O14 H16 1_555 1_555
H17 O14 1_555 1_555
H6G O8 1_555 1_555
H7G O9 1_555 1_555

#END
