
#######################################################################
#
#                 Cambridge Crystallographic Data Centre
#                                CCDC 
#
#######################################################################
#
# If this CIF has been generated from an entry in the Cambridge 
# Structural Database, then it will include bibliographic, chemical, 
# crystal, experimental, refinement or atomic coordinate data resulting 
# from the CCDC's data processing and validation procedures.
#
#######################################################################

data_FATZUW
_chemical_formula_moiety         'C52 H24 F24 P2,C4 H10 O1'
_chemical_name_systematic        
"2,2'-bis(bis(3,5-bis(trifluoromethyl)phenyl)phosphino)-1,1'-binaphthyl diethyl ether solvate"
_symmetry_cell_setting           triclinic
_symmetry_space_group_name_H-M   'P -1'
_symmetry_Int_Tables_number      2
_space_group_name_Hall           '-P 1'
loop_
_symmetry_equiv_pos_site_id
_symmetry_equiv_pos_as_xyz
1 x,y,z
2 -x,-y,-z
_cell_length_a                   13.3186(2)
_cell_length_b                   14.8047(2)
_cell_length_c                   15.3134(3)
_cell_angle_alpha                85.9320(10)
_cell_angle_beta                 72.9930(10)
_cell_angle_gamma                73.8540(10)
_cell_volume                     2773.35
_cell_formula_units_Z            2
loop_
_atom_site_label
_atom_site_type_symbol
_atom_site_fract_x
_atom_site_fract_y
_atom_site_fract_z
P1 P 0.26188(7) 0.75163(6) 0.27899(6)
C1 C 0.2553(3) 0.5824(2) 0.3660(2)
C2 C 0.2025(3) 0.6769(2) 0.3684(2)
C3 C 0.1052(3) 0.7140(3) 0.4399(3)
H1 H 0.0700 0.7794 0.4415
C4 C 0.0618(4) 0.6578(4) 0.5060(3)
H2 H -0.0045 0.6836 0.5515
C5 C 0.0712(4) 0.5018(4) 0.5753(3)
H3 H 0.0055 0.5272 0.6216
C6 C 0.1228(5) 0.4089(5) 0.5744(4)
H4 H 0.0939 0.3703 0.6219
C7 C 0.2182(5) 0.3680(4) 0.5050(4)
H5 H 0.2517 0.3024 0.5049
C8 C 0.2629(4) 0.4245(3) 0.4366(3)
H6 H 0.3277 0.3975 0.3900
C9 C 0.2119(3) 0.5216(3) 0.4367(3)
C10 C 0.1156(3) 0.5609(3) 0.5068(3)
C11 C 0.2865(3) 0.8376(2) 0.3459(2)
C12 C 0.3948(3) 0.8265(3) 0.3425(3)
H7 H 0.4505 0.7768 0.3071
C13 C 0.4217(3) 0.8879(3) 0.3906(3)
C14 C 0.3425(3) 0.9601(3) 0.4424(3)
H8 H 0.3615 1.0012 0.4759
C15 C 0.2341(3) 0.9725(3) 0.4452(3)
C16 C 0.2064(3) 0.9114(3) 0.3968(3)
H9 H 0.1324 0.9203 0.3986
C17 C 0.5380(4) 0.8754(4) 0.3850(4)
F1 F 0.6015(3) 0.7974(3) 0.3545(6)
F2 F 0.5752(3) 0.9383(5) 0.3436(7)
F3 F 0.5544(4) 0.8787(7) 0.4643(5)
C18 C 0.1459(4) 1.0513(4) 0.5004(4)
F4 F 0.1817(3) 1.1205(3) 0.5166(3)
F5 F 0.0672(3) 1.0876(3) 0.4606(3)
F6 F 0.0935(3) 1.0225(3) 0.5795(3)
C19 C 0.1433(3) 0.8212(2) 0.2451(2)
C20 C 0.0568(3) 0.7865(3) 0.2467(3)
H10 H 0.0530 0.7275 0.2744
C21 C -0.0250(3) 0.8359(3) 0.2087(3)
C22 C -0.0209(4) 0.9207(3) 0.1658(3)
H11 H -0.0769 0.9545 0.1398
C23 C 0.0675(4) 0.9554(3) 0.1617(3)
C24 C 0.1477(4) 0.9074(3) 0.2014(3)
H12 H 0.2064 0.9329 0.1991
C25 C -0.1211(4) 0.7973(5) 0.2182(4)
F7 F -0.0915(3) 0.7049(3) 0.2001(3)
F8 F -0.1820(3) 0.8000(4) 0.3049(3)
F9 F -0.1828(5) 0.8417(5) 0.1691(5)
C26 C 0.0727(5) 1.0456(4) 0.1169(5)
F10 F 0.0681(9) 1.1129(4) 0.1686(5)
F11 F 0.0055(6) 1.0817(4) 0.0740(6)
F12 F 0.1669(6) 1.0444(4) 0.0632(6)
P2 P 0.22900(8) 0.49996(7) 0.19851(7)
C27 C 0.3587(3) 0.5428(2) 0.2938(2)
C28 C 0.3588(3) 0.5066(2) 0.2121(2)
C29 C 0.4579(3) 0.4750(3) 0.1431(3)
H13 H 0.4574 0.4507 0.0875
C30 C 0.5540(3) 0.4787(3) 0.1546(3)
H14 H 0.6195 0.4572 0.1068
C31 C 0.6571(4) 0.5164(4) 0.2506(4)
H15 H 0.7235 0.4940 0.2040
C32 C 0.6589(4) 0.5505(4) 0.3306(4)
H16 H 0.7259 0.5548 0.3379
C33 C 0.5625(4) 0.5792(4) 0.4019(4)
H17 H 0.5651 0.5992 0.4586
C34 C 0.4647(4) 0.5784(3) 0.3903(3)
H18 H 0.3995 0.6005 0.4382
C35 C 0.4596(3) 0.5450(2) 0.3074(3)
C36 C 0.5579(3) 0.5140(3) 0.2366(3)
C37 C 0.2724(3) 0.3822(3) 0.1453(3)
C38 C 0.2739(5) 0.3068(3) 0.2059(3)
H19 H 0.2513 0.3195 0.2696
C39 C 0.3065(6) 0.2165(4) 0.1766(4)
C40 C 0.3397(5) 0.1968(3) 0.0816(4)
H20 H 0.3626 0.1338 0.0599
C41 C 0.3383(4) 0.2695(3) 0.0219(3)
C42 C 0.3058(3) 0.3614(3) 0.0539(3)
H21 H 0.3067 0.4112 0.0112
C43 C 0.3043(11) 0.1392(6) 0.2440(6)
F13 F 0.3255(8) 0.0598(4) 0.2159(5)
F14 F 0.3327(8) 0.1507(4) 0.3128(5)
F15 F 0.1957(9) 0.1434(7) 0.2900(7)
C44 C 0.3751(5) 0.2510(4) -0.0790(4)
F16 F 0.3021(3) 0.2965(4) -0.1204(2)
F17 F 0.4607(3) 0.2829(3) -0.1205(3)
F18 F 0.3970(7) 0.1625(3) -0.0991(4)
C45 C 0.2139(3) 0.5778(2) 0.1020(3)
C46 C 0.1293(3) 0.5788(3) 0.0654(3)
H22 H 0.0880 0.5345 0.0861
C47 C 0.1042(4) 0.6425(3) 0.0000(3)
C48 C 0.1626(4) 0.7096(3) -0.0308(3)
H23 H 0.1455 0.7544 -0.0755
C49 C 0.2472(3) 0.7082(3) 0.0068(3)
C50 C 0.2727(3) 0.6445(3) 0.0712(2)
H24 H 0.3306 0.6454 0.0951
C51 C 0.0142(5) 0.6420(4) -0.0392(4)
F19 F -0.0602(3) 0.6032(2) 0.0156(3)
F20 F 0.0516(4) 0.5862(4) -0.1135(3)
F21 F -0.0402(4) 0.7241(3) -0.0570(5)
C52 C 0.3120(4) 0.7784(3) -0.0272(3)
F22 F 0.4048(4) 0.7432(3) -0.0901(3)
F23 F 0.2585(4) 0.8554(3) -0.0613(4)
F24 F 0.3413(3) 0.8102(3) 0.0383(2)
C53 C 0.8609(17) 0.2915(17) 0.3034(16)
H25 H 0.9366 0.2547 0.2956
H26 H 0.8512 0.3552 0.3246
H27 H 0.8442 0.2949 0.2449
C54 C 0.7911(18) 0.2486(16) 0.3676(15)
H28 H 0.8235 0.1801 0.3570
H29 H 0.7977 0.2622 0.4277
O1 O 0.6833(13) 0.2633(11) 0.3788(10)
C57 C 0.6508(18) 0.2193(18) 0.3157(16)
C58 C 0.534(2) 0.253(2) 0.3269(19)
H37 H 0.5209 0.2957 0.2773
H38 H 0.4976 0.2858 0.3857
H39 H 0.5050 0.1990 0.3252
C55? C 0.6508(18) 0.2193(18) 0.3157(16)
H30? H 0.6649 0.2518 0.2564
H31? H 0.5713 0.2263 0.3387
C56? C 0.707(7) 0.121(3) 0.302(6)
H32? H 0.7641 0.1043 0.3330
H33? H 0.7405 0.1076 0.2360
H34? H 0.6552 0.0831 0.3260
H35? H 0.6708 0.1504 0.3246
H36? H 0.6907 0.2320 0.2527
loop_
_geom_bond_atom_site_label_1
_geom_bond_atom_site_label_2
_geom_bond_site_symmetry_1
_geom_bond_site_symmetry_2
P1 C2 1_555 1_555
C1 C2 1_555 1_555
C2 C3 1_555 1_555
C3 H1 1_555 1_555
C4 C3 1_555 1_555
H2 C4 1_555 1_555
C5 H3 1_555 1_555
C6 C5 1_555 1_555
H4 C6 1_555 1_555
C7 C6 1_555 1_555
H5 C7 1_555 1_555
C8 C7 1_555 1_555
H6 C8 1_555 1_555
C9 C1 1_555 1_555
C10 C4 1_555 1_555
C11 P1 1_555 1_555
C12 C11 1_555 1_555
H7 C12 1_555 1_555
C13 C12 1_555 1_555
C14 C13 1_555 1_555
H8 C14 1_555 1_555
C15 C14 1_555 1_555
C16 C11 1_555 1_555
H9 C16 1_555 1_555
C17 C13 1_555 1_555
F1 C17 1_555 1_555
F2 C17 1_555 1_555
F3 C17 1_555 1_555
C18 C15 1_555 1_555
F4 C18 1_555 1_555
F5 C18 1_555 1_555
F6 C18 1_555 1_555
C19 P1 1_555 1_555
C20 C19 1_555 1_555
H10 C20 1_555 1_555
C21 C20 1_555 1_555
C22 C21 1_555 1_555
H11 C22 1_555 1_555
C23 C22 1_555 1_555
C24 C19 1_555 1_555
H12 C24 1_555 1_555
C25 C21 1_555 1_555
F7 C25 1_555 1_555
F8 C25 1_555 1_555
F9 C25 1_555 1_555
C26 C23 1_555 1_555
F10 C26 1_555 1_555
F11 C26 1_555 1_555
F12 C26 1_555 1_555
P2 C28 1_555 1_555
C27 C1 1_555 1_555
C28 C27 1_555 1_555
C29 C28 1_555 1_555
H13 C29 1_555 1_555
C30 C29 1_555 1_555
H14 C30 1_555 1_555
C31 H15 1_555 1_555
C32 C31 1_555 1_555
H16 C32 1_555 1_555
C33 C32 1_555 1_555
H17 C33 1_555 1_555
C34 C33 1_555 1_555
H18 C34 1_555 1_555
C35 C27 1_555 1_555
C36 C30 1_555 1_555
C37 P2 1_555 1_555
C38 C37 1_555 1_555
H19 C38 1_555 1_555
C39 C38 1_555 1_555
C40 C39 1_555 1_555
H20 C40 1_555 1_555
C41 C40 1_555 1_555
C42 C37 1_555 1_555
H21 C42 1_555 1_555
C43 C39 1_555 1_555
F13 C43 1_555 1_555
F14 C43 1_555 1_555
F15 C43 1_555 1_555
C44 C41 1_555 1_555
F16 C44 1_555 1_555
F17 C44 1_555 1_555
F18 C44 1_555 1_555
C45 P2 1_555 1_555
C46 C45 1_555 1_555
H22 C46 1_555 1_555
C47 C46 1_555 1_555
C48 C47 1_555 1_555
H23 C48 1_555 1_555
C49 C48 1_555 1_555
C50 C45 1_555 1_555
H24 C50 1_555 1_555
C51 C47 1_555 1_555
F19 C51 1_555 1_555
F20 C51 1_555 1_555
F21 C51 1_555 1_555
C52 C49 1_555 1_555
F22 C52 1_555 1_555
F23 C52 1_555 1_555
F24 C52 1_555 1_555
C53 H25 1_555 1_555
H26 C53 1_555 1_555
H27 C53 1_555 1_555
C54 C53 1_555 1_555
H28 C54 1_555 1_555
H29 C54 1_555 1_555
O1 C54 1_555 1_555
C57 O1 1_555 1_555
C58 C57 1_555 1_555
H37 C58 1_555 1_555
H38 C58 1_555 1_555
H39 C58 1_555 1_555
C5 C10 1_555 1_555
C8 C9 1_555 1_555
C9 C10 1_555 1_555
C15 C16 1_555 1_555
C23 C24 1_555 1_555
C31 C36 1_555 1_555
C34 C35 1_555 1_555
C35 C36 1_555 1_555
C41 C42 1_555 1_555
C49 C50 1_555 1_555

#END
