
#######################################################################
#
#                 Cambridge Crystallographic Data Centre
#                                CCDC 
#
#######################################################################
#
# If this CIF has been generated from an entry in the Cambridge 
# Structural Database, then it will include bibliographic, chemical, 
# crystal, experimental, refinement or atomic coordinate data resulting 
# from the CCDC's data processing and validation procedures.
#
#######################################################################

data_FATZOQ
_chemical_formula_moiety         'C48 H28 F12 O2 P2'
_chemical_name_systematic        
2,2'-bis(bis(4-trifluoromethylphenyl)phosphinyl)-1,1'-binaphthyl
_symmetry_cell_setting           monoclinic
_symmetry_space_group_name_H-M   'C 2/c'
_symmetry_Int_Tables_number      15
_space_group_name_Hall           '-C 2yn'
loop_
_symmetry_equiv_pos_site_id
_symmetry_equiv_pos_as_xyz
1 x,y,z
2 1/2+x,1/2+y,z
3 -x,y,1/2-z
4 1/2-x,1/2+y,1/2-z
5 -x,-y,-z
6 1/2-x,1/2-y,-z
7 x,-y,1/2+z
8 1/2+x,1/2-y,1/2+z
_cell_length_a                   28.7227(13)
_cell_length_b                   8.4943(4)
_cell_length_c                   17.9976(10)
_cell_angle_alpha                90
_cell_angle_beta                 109.824(2)
_cell_angle_gamma                90
_cell_volume                     4130.82
_cell_formula_units_Z            4
loop_
_atom_site_label
_atom_site_type_symbol
_atom_site_fract_x
_atom_site_fract_y
_atom_site_fract_z
P1 P 0.42514(4) 0.33075(12) 0.22301(6)
O1 O 0.45926(9) 0.2569(3) 0.29547(15)
C1 C 0.48902(14) 0.5657(4) 0.2057(2)
C2 C 0.45135(14) 0.4610(4) 0.1671(2)
C3 C 0.43287(15) 0.4578(5) 0.0834(2)
H1 H 0.4068 0.3878 0.0566
C4 C 0.45244(16) 0.5550(5) 0.0410(2)
H2 H 0.4404 0.5483 -0.0150
C5 C 0.51008(19) 0.7678(5) 0.0350(3)
H3 H 0.4987 0.7633 -0.0210
C6 C 0.5459(2) 0.8743(6) 0.0734(3)
H4 H 0.5591 0.9427 0.0438
C7 C 0.56296(19) 0.8834(5) 0.1550(3)
H5 H 0.5873 0.9595 0.1809
C8 C 0.54517(18) 0.7839(5) 0.1985(3)
H6 H 0.5576 0.7907 0.2545
C9 C 0.50856(15) 0.6711(4) 0.1617(2)
C10 C 0.48970(17) 0.6640(5) 0.0776(3)
C11 C 0.39173(14) 0.1843(5) 0.1515(2)
C12 C 0.41947(15) 0.0694(5) 0.1312(2)
H7 H 0.4545 0.0692 0.1551
C13 C 0.39664(16) -0.0443(5) 0.0765(2)
H8 H 0.4159 -0.1230 0.0630
C14 C 0.34564(16) -0.0441(5) 0.0413(2)
C15 C 0.31737(16) 0.0681(5) 0.0618(3)
H9 H 0.2824 0.0676 0.0380
C16 C 0.34055(15) 0.1814(5) 0.1174(3)
H10 H 0.3212 0.2578 0.1323
C17 C 0.32158(19) -0.1642(5) -0.0204(3)
F1 F 0.34380(14) -0.1749(4) -0.07451(18)
F2 F 0.32343(15) -0.3089(3) 0.00886(17)
F3 F 0.27464(12) -0.1340(4) -0.06053(17)
C18 C 0.37982(14) 0.4528(4) 0.2449(2)
C19 C 0.35244(16) 0.5688(5) 0.1941(2)
H11 H 0.3554 0.5816 0.1434
C20 C 0.32112(17) 0.6654(6) 0.2169(3)
H12 H 0.3026 0.7446 0.1820
C21 C 0.31681(15) 0.6466(5) 0.2908(3)
C22 C 0.34321(17) 0.5308(5) 0.3412(3)
H13 H 0.3399 0.5176 0.3916
C23 C 0.37459(15) 0.4340(5) 0.3183(2)
H14 H 0.3927 0.3540 0.3530
C24 C 0.2832(2) 0.7551(8) 0.3140(4)
F4 F 0.28205(19) 0.7331(7) 0.3840(3)
F5 F 0.2942(3) 0.8996(6) 0.3119(5)
F6 F 0.23818(16) 0.7498(8) 0.2701(3)
P1B P 0.57486(4) 0.33075(12) 0.27699(6)
O1B O 0.54074(9) 0.2569(3) 0.20453(15)
C1B C 0.51098(14) 0.5657(4) 0.2943(2)
C2B C 0.54865(14) 0.4610(4) 0.3329(2)
C3B C 0.56713(15) 0.4578(5) 0.4166(2)
H1B H 0.5932 0.3878 0.4434
C4B C 0.54756(16) 0.5550(5) 0.4590(2)
H2B H 0.5596 0.5483 0.5150
C5B C 0.48992(19) 0.7678(5) 0.4650(3)
H3B H 0.5013 0.7633 0.5210
C6B C 0.4541(2) 0.8743(6) 0.4266(3)
H4B H 0.4409 0.9427 0.4562
C7B C 0.43704(19) 0.8834(5) 0.3450(3)
H5B H 0.4127 0.9595 0.3191
C8B C 0.45483(18) 0.7839(5) 0.3015(3)
H6B H 0.4424 0.7907 0.2455
C9B C 0.49144(15) 0.6711(4) 0.3383(2)
C10B C 0.51030(17) 0.6640(5) 0.4224(3)
C11B C 0.60827(14) 0.1843(5) 0.3485(2)
C12B C 0.58053(15) 0.0694(5) 0.3688(2)
H7B H 0.5455 0.0692 0.3449
C13B C 0.60336(16) -0.0443(5) 0.4235(2)
H8B H 0.5841 -0.1230 0.4370
C14B C 0.65436(16) -0.0441(5) 0.4587(2)
C15B C 0.68263(16) 0.0681(5) 0.4382(3)
H9B H 0.7176 0.0676 0.4620
C16B C 0.65945(15) 0.1814(5) 0.3826(3)
H10B H 0.6788 0.2578 0.3677
C17B C 0.67842(19) -0.1642(5) 0.5204(3)
F1B F 0.65620(14) -0.1749(4) 0.57451(18)
F2B F 0.67657(15) -0.3089(3) 0.49114(17)
F3B F 0.72536(12) -0.1340(4) 0.56053(17)
C18B C 0.62018(14) 0.4528(4) 0.2551(2)
C19B C 0.64756(16) 0.5688(5) 0.3059(2)
H11B H 0.6446 0.5816 0.3566
C20B C 0.67888(17) 0.6654(6) 0.2831(3)
H12B H 0.6974 0.7446 0.3180
C21B C 0.68319(15) 0.6466(5) 0.2092(3)
C22B C 0.65679(17) 0.5308(5) 0.1588(3)
H13B H 0.6601 0.5176 0.1084
C23B C 0.62541(15) 0.4340(5) 0.1817(2)
H14B H 0.6073 0.3540 0.1470
C24B C 0.7168(2) 0.7551(8) 0.1860(4)
F4B F 0.71795(19) 0.7331(7) 0.1160(3)
F5B F 0.7058(3) 0.8996(6) 0.1881(5)
F6B F 0.76182(16) 0.7498(8) 0.2299(3)
loop_
_geom_bond_atom_site_label_1
_geom_bond_atom_site_label_2
_geom_bond_site_symmetry_1
_geom_bond_site_symmetry_2
P1 O1 1_555 1_555
C1 C2 1_555 1_555
C2 P1 1_555 1_555
C3 C2 1_555 1_555
H1 C3 1_555 1_555
C4 C3 1_555 1_555
H2 C4 1_555 1_555
C5 H3 1_555 1_555
C6 C5 1_555 1_555
H4 C6 1_555 1_555
C7 C6 1_555 1_555
H5 C7 1_555 1_555
C8 C7 1_555 1_555
H6 C8 1_555 1_555
C9 C1 1_555 1_555
C10 C4 1_555 1_555
C11 P1 1_555 1_555
C12 C11 1_555 1_555
H7 C12 1_555 1_555
C13 C12 1_555 1_555
H8 C13 1_555 1_555
C14 C13 1_555 1_555
C15 C14 1_555 1_555
H9 C15 1_555 1_555
C16 C11 1_555 1_555
H10 C16 1_555 1_555
C17 C14 1_555 1_555
F1 C17 1_555 1_555
F2 C17 1_555 1_555
F3 C17 1_555 1_555
C18 P1 1_555 1_555
C19 C18 1_555 1_555
H11 C19 1_555 1_555
C20 C19 1_555 1_555
H12 C20 1_555 1_555
C21 C20 1_555 1_555
C22 C21 1_555 1_555
H13 C22 1_555 1_555
C23 C18 1_555 1_555
H14 C23 1_555 1_555
C24 C21 1_555 1_555
F4 C24 1_555 1_555
F5 C24 1_555 1_555
F6 C24 1_555 1_555
P1B O1B 1_555 1_555
C1B C1 1_555 1_555
C2B P1B 1_555 1_555
C3B C2B 1_555 1_555
H1B C3B 1_555 1_555
C4B C3B 1_555 1_555
H2B C4B 1_555 1_555
C5B H3B 1_555 1_555
C6B C5B 1_555 1_555
H4B C6B 1_555 1_555
C7B C6B 1_555 1_555
H5B C7B 1_555 1_555
C8B C7B 1_555 1_555
H6B C8B 1_555 1_555
C9B C1B 1_555 1_555
C10B C4B 1_555 1_555
C11B P1B 1_555 1_555
C12B C11B 1_555 1_555
H7B C12B 1_555 1_555
C13B C12B 1_555 1_555
H8B C13B 1_555 1_555
C14B C13B 1_555 1_555
C15B C14B 1_555 1_555
H9B C15B 1_555 1_555
C16B C11B 1_555 1_555
H10B C16B 1_555 1_555
C17B C14B 1_555 1_555
F1B C17B 1_555 1_555
F2B C17B 1_555 1_555
F3B C17B 1_555 1_555
C18B P1B 1_555 1_555
C19B C18B 1_555 1_555
H11B C19B 1_555 1_555
C20B C19B 1_555 1_555
H12B C20B 1_555 1_555
C21B C20B 1_555 1_555
C22B C21B 1_555 1_555
H13B C22B 1_555 1_555
C23B C18B 1_555 1_555
H14B C23B 1_555 1_555
C24B C21B 1_555 1_555
F4B C24B 1_555 1_555
F5B C24B 1_555 1_555
F6B C24B 1_555 1_555
C5 C10 1_555 1_555
C8 C9 1_555 1_555
C9 C10 1_555 1_555
C15 C16 1_555 1_555
C22 C23 1_555 1_555
C1B C2B 1_555 1_555
C5B C10B 1_555 1_555
C8B C9B 1_555 1_555
C9B C10B 1_555 1_555
C15B C16B 1_555 1_555
C22B C23B 1_555 1_555

#END
