
#######################################################################
#
#                 Cambridge Crystallographic Data Centre
#                                CCDC 
#
#######################################################################
#
# If this CIF has been generated from an entry in the Cambridge 
# Structural Database, then it will include bibliographic, chemical, 
# crystal, experimental, refinement or atomic coordinate data resulting 
# from the CCDC's data processing and validation procedures.
#
#######################################################################

data_FAVFOZ
_chemical_formula_moiety         'C7 H10 N4 2+,2(C4 H3 O4 1-)'
_chemical_name_systematic        
'bis(Imidazol-3-ium-1-yl)methane hydrogen fumarate'
_symmetry_cell_setting           orthorhombic
_symmetry_space_group_name_H-M   'A b a 2'
_symmetry_Int_Tables_number      41
_space_group_name_Hall           'A 2 -2ac'
loop_
_symmetry_equiv_pos_site_id
_symmetry_equiv_pos_as_xyz
1 x,y,z
2 -x,-y,z
3 1/2-x,y,1/2+z
4 1/2+x,-y,1/2+z
5 x,1/2+y,1/2+z
6 -x,1/2-y,1/2+z
7 1/2-x,1/2+y,z
8 1/2+x,1/2-y,z
_cell_length_a                   14.4319(15)
_cell_length_b                   7.5410(8)
_cell_length_c                   15.8091(16)
_cell_angle_alpha                90
_cell_angle_beta                 90
_cell_angle_gamma                90
_cell_volume                     1720.52
_exptl_crystal_colour            colorless
_exptl_crystal_description       block
_cell_formula_units_Z            4
loop_
_atom_site_label
_atom_site_type_symbol
_atom_site_fract_x
_atom_site_fract_y
_atom_site_fract_z
N1 N 1.06297(11) 0.6028(2) 0.13073(11)
N2 N 1.11415(13) 0.7996(2) 0.04399(12)
H1 H 1.1163 0.8887 0.0101
C5 C 1.04056(15) 0.7446(3) 0.08476(14)
H5 H 0.9821 0.7961 0.0820
C6 C 1.18723(15) 0.6917(3) 0.06437(14)
H6 H 1.2477 0.7023 0.0446
C7 C 1.15543(14) 0.5676(3) 0.11821(15)
H7 H 1.1894 0.4758 0.1423
C8 C 1.0000 0.5000 0.18328(18)
H8 H 0.9647 0.5792 0.2193
N1A N 0.93703(11) 0.3972(2) 0.13073(11)
N2A N 0.88585(13) 0.2004(2) 0.04399(12)
H1A H 0.8837 0.1113 0.0101
C5A C 0.95944(15) 0.2554(3) 0.08476(14)
H5A H 1.0179 0.2039 0.0820
C6A C 0.81277(15) 0.3083(3) 0.06437(14)
H6A H 0.7523 0.2977 0.0446
C7A C 0.84457(14) 0.4324(3) 0.11821(15)
H7A H 0.8106 0.5242 0.1423
H8A H 1.0353 0.4208 0.2193
O1 O 0.36495(12) 0.04597(18) 0.32809(9)
O2 O 0.38329(11) 0.1032(2) 0.46601(10)
O3 O 0.36346(12) 0.7098(2) 0.35316(10)
H2 H 0.3633 0.8149 0.3398
O4 O 0.36033(12) 0.6722(2) 0.21321(11)
C1 C 0.37533(15) 0.1487(3) 0.38952(14)
C2 C 0.37572(16) 0.3450(3) 0.37345(14)
H3 H 0.3878 0.4190 0.4192
C3 C 0.36052(15) 0.4194(3) 0.30091(14)
H4 H 0.3483 0.3454 0.2552
C4 C 0.36105(15) 0.6120(3) 0.28505(15)
loop_
_geom_bond_atom_site_label_1
_geom_bond_atom_site_label_2
_geom_bond_site_symmetry_1
_geom_bond_site_symmetry_2
N1 C5 1_555 1_555
N2 H1 1_555 1_555
O1 C1 1_555 1_555
O2 C1 1_555 1_555
O3 H2 1_555 1_555
O4 C4 1_555 1_555
C1 C2 1_555 1_555
C2 H3 1_555 1_555
C3 C2 1_555 1_555
H4 C3 1_555 1_555
C4 O3 1_555 1_555
C5 N2 1_555 1_555
H5 C5 1_555 1_555
C6 N2 1_555 1_555
H6 C6 1_555 1_555
C7 N1 1_555 1_555
H7 C7 1_555 1_555
C8 N1 1_555 1_555
H8 C8 1_555 1_555
N1A C8 1_555 1_555
N2A H1A 1_555 1_555
C5A N1A 1_555 1_555
H5A C5A 1_555 1_555
C6A N2A 1_555 1_555
H6A C6A 1_555 1_555
C7A N1A 1_555 1_555
H7A C7A 1_555 1_555
H8A C8 1_555 1_555
C3 C4 1_555 1_555
C6 C7 1_555 1_555
N2A C5A 1_555 1_555
C6A C7A 1_555 1_555

#END
