
#######################################################################
#
#                 Cambridge Crystallographic Data Centre
#                                CCDC 
#
#######################################################################
#
# If this CIF has been generated from an entry in the Cambridge 
# Structural Database, then it will include bibliographic, chemical, 
# crystal, experimental, refinement or atomic coordinate data resulting 
# from the CCDC's data processing and validation procedures.
#
#######################################################################

data_FAVLIY
_chemical_compound_source        'the soft coral Sarcophyton tortuosum'
_chemical_formula_moiety         'C41 H62 O8'
_chemical_name_systematic        
'(1R*,2R*,5R*,9S*,12R*,21R*,26R*,30S*,31R*,33R*)-Methyl tortuoate A'
_chemical_properties_biological  
'in vitro cytotoxicity against the human nasopharyngeal carcinoma CNE-2 and the murine P-388 tumour cell lines'
_symmetry_cell_setting           monoclinic
_symmetry_space_group_name_H-M   'P 21'
_symmetry_Int_Tables_number      4
_space_group_name_Hall           'P 2yb'
loop_
_symmetry_equiv_pos_site_id
_symmetry_equiv_pos_as_xyz
1 x,y,z
2 -x,1/2+y,-z
_cell_length_a                   11.6213(15)
_cell_length_b                   9.9065(12)
_cell_length_c                   16.638(2)
_cell_angle_alpha                90
_cell_angle_beta                 92.201(2)
_cell_angle_gamma                90
_cell_volume                     1914.06
_exptl_crystal_colour            colorless
_chemical_melting_point          242-244deg.C
_cell_formula_units_Z            2
_exptl_crystal_recrystallization_method ethanol
loop_
_atom_site_label
_atom_site_type_symbol
_atom_site_fract_x
_atom_site_fract_y
_atom_site_fract_z
C1 C 0.1349(1) 0.5840(1) 0.7533(1)
C2 C 0.0738(1) 0.6489(2) 0.8250(1)
C3 C 0.1551(1) 0.7274(2) 0.8824(1)
C4 C 0.1067(2) 0.7681(3) 0.9622(1)
C5 C 0.1937(2) 0.8065(2) 1.0296(1)
C6 C 0.2272(3) 0.6883(3) 1.0838(2)
C7 C 0.3205(2) 0.5976(2) 1.0543(1)
C8 C 0.3275(2) 0.4614(2) 1.0973(1)
C9 C 0.4274(2) 0.3698(2) 1.0747(1)
C10 C 0.4267(1) 0.3524(2) 0.9842(1)
C11 C 0.3442(1) 0.2507(2) 0.9459(1)
C12 C 0.3120(1) 0.2848(2) 0.8585(1)
C13 C 0.2346(1) 0.4088(1) 0.8550(1)
C14 C 0.2413(1) 0.4976(2) 0.7807(1)
C15 C 0.2518(2) 0.1671(2) 0.8123(1)
C16 C 0.3391(3) 0.0570(2) 0.7944(1)
C17 C 0.1500(2) 0.1103(2) 0.8549(2)
C18 C 0.4266(3) 0.2365(3) 1.1203(1)
C19 C 0.1440(2) 0.9212(3) 1.0792(1)
C20 C 0.0496(1) 0.4892(2) 0.7089(1)
C21 C 0.1721(1) 0.6967(1) 0.6947(1)
C22 C 0.2322(1) 0.6435(2) 0.6222(1)
C23 C 0.3368(2) 0.6754(2) 0.5994(1)
C24 C 0.3747(2) 0.6283(2) 0.5178(1)
C25 C 0.3319(2) 0.7165(2) 0.4463(1)
C26 C 0.3832(2) 0.8580(2) 0.4405(1)
C27 C 0.3793(2) 0.9132(2) 0.3556(1)
C28 C 0.3208(2) 1.0235(2) 0.3368(1)
C29 C 0.2539(2) 1.1015(2) 0.3956(1)
C30 C 0.2311(1) 1.0149(2) 0.4687(1)
C31 C 0.1822(1) 1.0920(2) 0.5395(1)
C32 C 0.1590(1) 0.9996(2) 0.6107(1)
C33 C 0.0889(1) 0.8724(1) 0.5934(1)
C34 C 0.0726(1) 0.7945(1) 0.6716(1)
C35 C -0.0146(1) 0.8156(1) 0.7201(1)
C36 C -0.0299(1) 0.7331(2) 0.7948(1)
C37 C -0.1113(2) 0.9158(2) 0.7069(1)
C38 C 0.4227(2) 0.7598(2) 0.6466(1)
C39 C 0.4491(3) 0.8388(4) 0.2954(2)
C40 C 0.2605(2) 1.2076(2) 0.5682(1)
C41 C -0.0564(2) 0.2882(2) 0.7155(1)
O1 O 0.2523(1) 0.7579(1) 0.8664(1)
O2 O 0.4905(1) 0.4171(2) 0.9439(1)
O3 O 0.1755(1) 0.4354(1) 0.9110(1)
O4 O 0.0109(1) 0.5037(2) 0.6417(1)
O5 O 0.3356(1) 0.9500(1) 0.4970(1)
O6 O 0.0756(1) 1.1530(1) 0.5114(1)
O7 O -0.0157(1) 0.9085(1) 0.5505(1)
O8 O 0.0240(1) 0.3822(1) 0.7529(1)
H1 H 0.0428 0.5743 0.8563
H2 H 0.0604 0.6939 0.9811
H3 H 0.0554 0.8442 0.9528
H4 H 0.2635 0.8398 1.0049
H5 H 0.2520 0.7236 1.1360
H6 H 0.1590 0.6339 1.0914
H7 H 0.3940 0.6432 1.0616
H8 H 0.3071 0.5821 0.9972
H9 H 0.2560 0.4134 1.0862
H10 H 0.3335 0.4778 1.1548
H11 H 0.4990 0.4166 1.0907
H12 H 0.2748 0.2476 0.9764
H13 H 0.3793 0.1619 0.9482
H14 H 0.3829 0.3067 0.8313
H15 H 0.2600 0.4397 0.7360
H16 H 0.3056 0.5588 0.7896
H17 H 0.2226 0.2030 0.7606
H18 H 0.3010 -0.0153 0.7656
H19 H 0.3728 0.0232 0.8439
H20 H 0.3983 0.0939 0.7622
H21 H 0.1163 0.0381 0.8236
H22 H 0.0938 0.1801 0.8615
H23 H 0.1752 0.0767 0.9068
H24 H 0.4899 0.1817 1.1044
H25 H 0.3555 0.1900 1.1082
H26 H 0.4337 0.2538 1.1770
H27 H 0.1985 0.9462 1.1214
H28 H 0.0738 0.8918 1.1022
H29 H 0.1285 0.9977 1.0450
H30 H 0.2296 0.7509 0.7249
H31 H 0.1913 0.5817 0.5902
H32 H 0.3472 0.5368 0.5090
H33 H 0.4581 0.6258 0.5187
H34 H 0.3474 0.6686 0.3970
H35 H 0.2490 0.7255 0.4487
H36 H 0.4650 0.8490 0.4562
H37 H 0.3214 1.0542 0.2840
H38 H 0.1813 1.1302 0.3704
H39 H 0.2967 1.1815 0.4122
H40 H 0.1758 0.9445 0.4522
H41 H 0.2326 0.9727 0.6351
H42 H 0.1194 1.0521 0.6504
H43 H 0.1334 0.8150 0.5581
H44 H -0.0943 0.6723 0.7847
H45 H -0.0507 0.7937 0.8376
H46 H -0.0990 0.9669 0.6590
H47 H -0.1133 0.9758 0.7522
H48 H -0.1832 0.8683 0.7013
H49 H 0.3910 0.7854 0.6968
H50 H 0.4401 0.8393 0.6165
H51 H 0.4919 0.7086 0.6567
H52 H 0.4403 0.8821 0.2439
H53 H 0.4226 0.7471 0.2911
H54 H 0.5288 0.8396 0.3128
H55 H 0.2267 1.2529 0.6125
H56 H 0.2696 1.2704 0.5249
H57 H 0.3344 1.1722 0.5851
H58 H -0.0695 0.2148 0.7517
H59 H -0.0254 0.2538 0.6669
H60 H -0.1279 0.3334 0.7030
H61 H 0.0575 1.2303 0.4927
H62 H -0.0338 0.8312 0.5318
loop_
_geom_bond_atom_site_label_1
_geom_bond_atom_site_label_2
_geom_bond_site_symmetry_1
_geom_bond_site_symmetry_2
C1 C2 1_555 1_555
C2 C3 1_555 1_555
C3 C4 1_555 1_555
C4 C5 1_555 1_555
C5 C6 1_555 1_555
C6 C7 1_555 1_555
C7 C8 1_555 1_555
C8 C9 1_555 1_555
C9 C10 1_555 1_555
C10 C11 1_555 1_555
C11 C12 1_555 1_555
C12 C13 1_555 1_555
C13 C14 1_555 1_555
C14 C1 1_555 1_555
C15 C12 1_555 1_555
C16 C15 1_555 1_555
C17 C15 1_555 1_555
C18 C9 1_555 1_555
C19 C5 1_555 1_555
C20 C1 1_555 1_555
C21 C1 1_555 1_555
C22 C21 1_555 1_555
C23 C22 1_555 1_555
C24 C23 1_555 1_555
C25 C24 1_555 1_555
C26 C25 1_555 1_555
C27 C26 1_555 1_555
C28 C27 1_555 1_555
C29 C28 1_555 1_555
C30 C29 1_555 1_555
C31 C30 1_555 1_555
C32 C31 1_555 1_555
C33 C32 1_555 1_555
C34 C21 1_555 1_555
C35 C34 1_555 1_555
C36 C2 1_555 1_555
C37 C35 1_555 1_555
C38 C23 1_555 1_555
C39 C27 1_555 1_555
C40 C31 1_555 1_555
C41 O8 1_555 1_555
O1 C3 1_555 1_555
O2 C10 1_555 1_555
O3 C13 1_555 1_555
O4 C20 1_555 1_555
O5 C26 1_555 1_555
O6 C31 1_555 1_555
O7 C33 1_555 1_555
O8 C20 1_555 1_555
H1 C2 1_555 1_555
H2 C4 1_555 1_555
H3 C4 1_555 1_555
H4 C5 1_555 1_555
H5 C6 1_555 1_555
H6 C6 1_555 1_555
H7 C7 1_555 1_555
H8 C7 1_555 1_555
H9 C8 1_555 1_555
H10 C8 1_555 1_555
H11 C9 1_555 1_555
H12 C11 1_555 1_555
H13 C11 1_555 1_555
H14 C12 1_555 1_555
H15 C14 1_555 1_555
H16 C14 1_555 1_555
H17 C15 1_555 1_555
H18 C16 1_555 1_555
H19 C16 1_555 1_555
H20 C16 1_555 1_555
H21 C17 1_555 1_555
H22 C17 1_555 1_555
H23 C17 1_555 1_555
H24 C18 1_555 1_555
H25 C18 1_555 1_555
H26 C18 1_555 1_555
H27 C19 1_555 1_555
H28 C19 1_555 1_555
H29 C19 1_555 1_555
H30 C21 1_555 1_555
H31 C22 1_555 1_555
H32 C24 1_555 1_555
H33 C24 1_555 1_555
H34 C25 1_555 1_555
H35 C25 1_555 1_555
H36 C26 1_555 1_555
H37 C28 1_555 1_555
H38 C29 1_555 1_555
H39 C29 1_555 1_555
H40 C30 1_555 1_555
H41 C32 1_555 1_555
H42 C32 1_555 1_555
H43 C33 1_555 1_555
H44 C36 1_555 1_555
H45 C36 1_555 1_555
H46 C37 1_555 1_555
H47 C37 1_555 1_555
H48 C37 1_555 1_555
H49 C38 1_555 1_555
H50 C38 1_555 1_555
H51 C38 1_555 1_555
H52 C39 1_555 1_555
H53 C39 1_555 1_555
H54 C39 1_555 1_555
H55 C40 1_555 1_555
H56 C40 1_555 1_555
H57 C40 1_555 1_555
H58 C41 1_555 1_555
H59 C41 1_555 1_555
H60 C41 1_555 1_555
H61 O6 1_555 1_555
H62 O7 1_555 1_555
C30 O5 1_555 1_555
C33 C34 1_555 1_555
C35 C36 1_555 1_555

#END
