
#######################################################################
#
#                 Cambridge Crystallographic Data Centre
#                                CCDC 
#
#######################################################################
#
# If this CIF has been generated from an entry in the Cambridge 
# Structural Database, then it will include bibliographic, chemical, 
# crystal, experimental, refinement or atomic coordinate data resulting 
# from the CCDC's data processing and validation procedures.
#
#######################################################################

data_FAVREB
_chemical_formula_moiety         'C23 H17 Br1 N2 O2'
_chemical_name_systematic        
(S)-(1-Benzoyl-3-phenyl-4,5-dihydro-1H-pyrazol-5-yl)(4-bromophenyl)methanone
_symmetry_cell_setting           orthorhombic
_symmetry_space_group_name_H-M   'P 21 21 21'
_symmetry_Int_Tables_number      19
_space_group_name_Hall           'P 2ac 2ab'
loop_
_symmetry_equiv_pos_site_id
_symmetry_equiv_pos_as_xyz
1 x,y,z
2 1/2-x,-y,1/2+z
3 1/2+x,1/2-y,-z
4 -x,1/2+y,1/2-z
_cell_length_a                   8.694(2)
_cell_length_b                   12.552(3)
_cell_length_c                   17.328(4)
_cell_angle_alpha                90
_cell_angle_beta                 90
_cell_angle_gamma                90
_cell_volume                     1890.95
_exptl_crystal_colour            colorless
_exptl_crystal_description       brick
_cell_formula_units_Z            4
loop_
_atom_site_label
_atom_site_type_symbol
_atom_site_fract_x
_atom_site_fract_y
_atom_site_fract_z
Br1 Br 0.56102(3) 0.386065(19) 0.778119(14)
O1 O 0.62000(17) 0.86657(12) 0.94666(8)
O2 O 0.53095(18) 0.75609(11) 1.10530(9)
N1 N 0.40664(19) 0.89582(14) 1.06228(9)
N2 N 0.3695(2) 1.00166(13) 1.05861(10)
C1 C 0.5424(3) 0.51613(17) 0.83045(12)
C2 C 0.4552(3) 0.52033(17) 0.89779(13)
H1 H 0.4073 0.4579 0.9173
C3 C 0.4394(3) 0.61501(17) 0.93528(11)
H2 H 0.3757 0.6201 0.9796
C4 C 0.5168(2) 0.70377(17) 0.90838(12)
C5 C 0.6064(2) 0.69662(18) 0.84148(12)
H3 H 0.6608 0.7575 0.8237
C6 C 0.6165(3) 0.60271(19) 0.80140(12)
H4 H 0.6736 0.5982 0.7548
C7 C 0.5118(2) 0.80548(17) 0.94964(11)
C8 C 0.3656(3) 0.83760(17) 0.99175(12)
H5 H 0.2993 0.7745 1.0033
C9 C 0.2785(3) 0.92157(16) 0.94548(13)
H6 H 0.3243 0.9317 0.8937
H7 H 0.1685 0.9026 0.9398
C10 C 0.2986(2) 1.01782(17) 0.99433(12)
C11 C 0.2458(2) 1.12226(18) 0.97232(12)
C12 C 0.1809(3) 1.13858(18) 0.89967(13)
H8 H 0.1678 1.0798 0.8658
C13 C 0.1358(3) 1.23790(19) 0.87638(14)
H9 H 0.0929 1.2483 0.8265
C14 C 0.1531(3) 1.32203(19) 0.92574(14)
H10 H 0.1223 1.3913 0.9101
C15 C 0.2156(3) 1.30668(19) 0.99878(14)
H11 H 0.2264 1.3656 1.0328
C16 C 0.2613(3) 1.20785(17) 1.02201(13)
H12 H 0.3036 1.1978 1.0720
C17 C 0.4964(3) 0.84846(17) 1.11643(12)
C18 C 0.5515(3) 0.90569(16) 1.18675(11)
C19 C 0.6736(3) 0.85824(18) 1.22590(14)
H13 H 0.7151 0.7932 1.2071
C20 C 0.7355(3) 0.9038(2) 1.29132(13)
H14 H 0.8192 0.8706 1.3170
C21 C 0.6762(3) 0.9967(2) 1.31895(14)
H15 H 0.7185 1.0285 1.3639
C22 C 0.5540(3) 1.04447(17) 1.28129(13)
H16 H 0.5126 1.1091 1.3009
C23 C 0.4909(3) 0.99945(16) 1.21543(13)
H17 H 0.4067 1.0328 1.1902
loop_
_geom_bond_atom_site_label_1
_geom_bond_atom_site_label_2
_geom_bond_site_symmetry_1
_geom_bond_site_symmetry_2
Br1 C1 1_555 1_555
O1 C7 1_555 1_555
O2 C17 1_555 1_555
N1 N2 1_555 1_555
N2 C10 1_555 1_555
C1 C2 1_555 1_555
C2 H1 1_555 1_555
C3 C2 1_555 1_555
H2 C3 1_555 1_555
C4 C3 1_555 1_555
C5 C4 1_555 1_555
H3 C5 1_555 1_555
C6 C1 1_555 1_555
H4 C6 1_555 1_555
C7 C4 1_555 1_555
C8 N1 1_555 1_555
H5 C8 1_555 1_555
C9 C8 1_555 1_555
H6 C9 1_555 1_555
H7 C9 1_555 1_555
C10 C9 1_555 1_555
C11 C10 1_555 1_555
C12 C11 1_555 1_555
H8 C12 1_555 1_555
C13 C12 1_555 1_555
H9 C13 1_555 1_555
C14 C13 1_555 1_555
H10 C14 1_555 1_555
C15 C14 1_555 1_555
H11 C15 1_555 1_555
C16 C11 1_555 1_555
H12 C16 1_555 1_555
C17 N1 1_555 1_555
C18 C17 1_555 1_555
C19 C18 1_555 1_555
H13 C19 1_555 1_555
C20 C19 1_555 1_555
H14 C20 1_555 1_555
C21 C20 1_555 1_555
H15 C21 1_555 1_555
C22 C21 1_555 1_555
H16 C22 1_555 1_555
C23 C18 1_555 1_555
H17 C23 1_555 1_555
C5 C6 1_555 1_555
C7 C8 1_555 1_555
C15 C16 1_555 1_555
C22 C23 1_555 1_555

#END
