
#######################################################################
#
#                 Cambridge Crystallographic Data Centre
#                                CCDC 
#
#######################################################################
#
# If this CIF has been generated from an entry in the Cambridge 
# Structural Database, then it will include bibliographic, chemical, 
# crystal, experimental, refinement or atomic coordinate data resulting 
# from the CCDC's data processing and validation procedures.
#
#######################################################################

data_FAVYEI
_chemical_formula_moiety         'C20 H16 O3'
_chemical_name_systematic        
2-(Hydroxy(phenyl)methyl)-2,3-dihydro-1H-benzo[f]chromen-1-one
_chemical_properties_biological  'Tested for cytotoxic activity'
_symmetry_cell_setting           triclinic
_symmetry_space_group_name_H-M   'P -1'
_symmetry_Int_Tables_number      2
_space_group_name_Hall           '-P 1'
loop_
_symmetry_equiv_pos_site_id
_symmetry_equiv_pos_as_xyz
1 x,y,z
2 -x,-y,-z
_cell_length_a                   9.8756(17)
_cell_length_b                   11.585(2)
_cell_length_c                   14.537(3)
_cell_angle_alpha                78.108(2)
_cell_angle_beta                 86.889(2)
_cell_angle_gamma                69.762(2)
_cell_volume                     1526.73
_exptl_crystal_colour            colorless
_exptl_crystal_description       block
_chemical_melting_point          '137 deg.C'
_cell_formula_units_Z            4
_exptl_crystal_recrystallization_method methanol
loop_
_atom_site_label
_atom_site_type_symbol
_atom_site_fract_x
_atom_site_fract_y
_atom_site_fract_z
C1 C 0.60632(17) 0.13050(13) 0.49320(11)
H1 H 0.6943 0.1509 0.4734
H2 H 0.6257 0.0754 0.5563
C2 C 0.48196(15) 0.25030(13) 0.49821(10)
H3 H 0.3958 0.2272 0.5216
C3 C 0.44588(15) 0.33166(13) 0.39986(10)
C4 C 0.47409(16) 0.26585(14) 0.32103(10)
C5 C 0.43420(17) 0.32975(18) 0.22429(11)
C6 C 0.3800(2) 0.4616(2) 0.19460(13)
H4 H 0.3671 0.5140 0.2391
C7 C 0.3459(3) 0.5144(3) 0.10099(14)
H5 H 0.3096 0.6032 0.0818
C8 C 0.3637(3) 0.4402(3) 0.03403(14)
H6 H 0.3406 0.4786 -0.0302
C9 C 0.4140(2) 0.3131(3) 0.06044(14)
H7 H 0.4252 0.2631 0.0145
C10 C 0.45002(19) 0.2543(2) 0.15569(12)
C11 C 0.5000(2) 0.1220(2) 0.18241(13)
H8 H 0.5073 0.0734 0.1360
C12 C 0.5378(2) 0.06298(18) 0.27231(12)
H9 H 0.5704 -0.0261 0.2890
C13 C 0.52814(17) 0.13522(15) 0.34124(11)
C14 C 0.51330(15) 0.32460(13) 0.56527(10)
H10 H 0.4298 0.4047 0.5618
C15 C 0.53627(16) 0.25568(13) 0.66705(10)
C16 C 0.67372(17) 0.18212(16) 0.70297(11)
H11 H 0.7543 0.1722 0.6628
C17 C 0.69427(18) 0.12302(18) 0.79718(12)
H12 H 0.7886 0.0731 0.8211
C18 C 0.5773(2) 0.13692(18) 0.85616(12)
H13 H 0.5913 0.0974 0.9207
C19 C 0.43966(19) 0.20868(17) 0.82076(11)
H14 H 0.3591 0.2174 0.8609
C20 C 0.41923(17) 0.26781(14) 0.72669(10)
H15 H 0.3246 0.3169 0.7029
O1 O 0.57426(13) 0.06536(10) 0.42785(8)
O2 O 0.38909(12) 0.44607(10) 0.38979(8)
O3 O 0.63685(11) 0.35454(10) 0.52930(7)
H16 H 0.6436 0.4126 0.5531
C21 C 0.09149(16) 0.13129(12) 0.50603(10)
H17 H 0.0803 0.1152 0.4431
H18 H 0.1898 0.1340 0.5114
C22 C -0.01937(15) 0.25579(13) 0.51704(9)
H19 H -0.1172 0.2519 0.5079
C23 C -0.01070(15) 0.27771(12) 0.61608(10)
C24 C 0.05089(15) 0.16482(12) 0.69029(9)
C25 C 0.07843(15) 0.04851(13) 0.66693(10)
C26 C 0.11046(17) -0.06338(13) 0.73585(10)
H20 H 0.1212 -0.1407 0.7184
C27 C 0.12576(17) -0.05917(14) 0.82710(10)
H21 H 0.1481 -0.1346 0.8732
C28 C 0.10921(16) 0.05517(14) 0.85548(10)
C29 C 0.13106(17) 0.05614(15) 0.95061(10)
H22 H 0.1592 -0.0207 0.9953
C30 C 0.11254(18) 0.16531(16) 0.97936(11)
H23 H 0.1286 0.1645 1.0434
C31 C 0.06936(18) 0.27916(16) 0.91332(11)
H24 H 0.0547 0.3555 0.9334
C32 C 0.04807(16) 0.28173(14) 0.82011(10)
H25 H 0.0196 0.3598 0.7768
C33 C 0.06794(15) 0.16973(13) 0.78770(9)
C34 C -0.00297(15) 0.36585(12) 0.44378(9)
H26 H -0.0721 0.4455 0.4592
C35 C -0.03478(15) 0.36194(12) 0.34361(9)
C36 C 0.07508(17) 0.33377(15) 0.27957(11)
H27 H 0.1725 0.3112 0.2995
C37 C 0.04438(18) 0.33819(16) 0.18660(11)
H28 H 0.1207 0.3189 0.1434
C38 C -0.09693(18) 0.37060(15) 0.15661(11)
H29 H -0.1180 0.3744 0.0928
C39 C -0.20760(17) 0.39745(14) 0.22032(10)
H30 H -0.3048 0.4189 0.2003
C40 C -0.17672(16) 0.39300(13) 0.31344(10)
H31 H -0.2530 0.4113 0.3568
O4 O 0.07285(12) 0.03159(9) 0.57775(7)
O5 O -0.06234(12) 0.38354(9) 0.63259(7)
O6 O 0.13939(11) 0.36437(9) 0.45582(7)
H32 H 0.1449 0.4347 0.4308
loop_
_geom_bond_atom_site_label_1
_geom_bond_atom_site_label_2
_geom_bond_site_symmetry_1
_geom_bond_site_symmetry_2
C1 H1 1_555 1_555
H2 C1 1_555 1_555
C2 C1 1_555 1_555
H3 C2 1_555 1_555
C3 C2 1_555 1_555
C4 C3 1_555 1_555
C5 C4 1_555 1_555
C6 C5 1_555 1_555
H4 C6 1_555 1_555
C7 C6 1_555 1_555
H5 C7 1_555 1_555
C8 C7 1_555 1_555
H6 C8 1_555 1_555
C9 C8 1_555 1_555
H7 C9 1_555 1_555
C10 C5 1_555 1_555
C11 C10 1_555 1_555
H8 C11 1_555 1_555
C12 C11 1_555 1_555
H9 C12 1_555 1_555
C13 C4 1_555 1_555
C14 C2 1_555 1_555
H10 C14 1_555 1_555
C15 C14 1_555 1_555
C16 C15 1_555 1_555
H11 C16 1_555 1_555
C17 C16 1_555 1_555
H12 C17 1_555 1_555
C18 C17 1_555 1_555
H13 C18 1_555 1_555
C19 C18 1_555 1_555
H14 C19 1_555 1_555
C20 C15 1_555 1_555
H15 C20 1_555 1_555
O1 C1 1_555 1_555
O2 C3 1_555 1_555
O3 C14 1_555 1_555
H16 O3 1_555 1_555
C21 H17 1_555 1_555
H18 C21 1_555 1_555
C22 C21 1_555 1_555
H19 C22 1_555 1_555
C23 C22 1_555 1_555
C24 C23 1_555 1_555
C25 C24 1_555 1_555
C26 C25 1_555 1_555
H20 C26 1_555 1_555
C27 C26 1_555 1_555
H21 C27 1_555 1_555
C28 C27 1_555 1_555
C29 C28 1_555 1_555
H22 C29 1_555 1_555
C30 C29 1_555 1_555
H23 C30 1_555 1_555
C31 C30 1_555 1_555
H24 C31 1_555 1_555
C32 C31 1_555 1_555
H25 C32 1_555 1_555
C33 C24 1_555 1_555
C34 C22 1_555 1_555
H26 C34 1_555 1_555
C35 C34 1_555 1_555
C36 C35 1_555 1_555
H27 C36 1_555 1_555
C37 C36 1_555 1_555
H28 C37 1_555 1_555
C38 C37 1_555 1_555
H29 C38 1_555 1_555
C39 C38 1_555 1_555
H30 C39 1_555 1_555
C40 C35 1_555 1_555
H31 C40 1_555 1_555
O4 C21 1_555 1_555
O5 C23 1_555 1_555
O6 C34 1_555 1_555
H32 O6 1_555 1_555
C9 C10 1_555 1_555
C12 C13 1_555 1_555
C13 O1 1_555 1_555
C19 C20 1_555 1_555
C25 O4 1_555 1_555
C28 C33 1_555 1_555
C32 C33 1_555 1_555
C39 C40 1_555 1_555

#END
