
#######################################################################
#
#                 Cambridge Crystallographic Data Centre
#                                CCDC 
#
#######################################################################
#
# If this CIF has been generated from an entry in the Cambridge 
# Structural Database, then it will include bibliographic, chemical, 
# crystal, experimental, refinement or atomic coordinate data resulting 
# from the CCDC's data processing and validation procedures.
#
#######################################################################

data_FAWHOC
_chemical_formula_moiety         'C21 H18 O2'
_chemical_name_systematic        
13-Methyl-11-phenyl-12,16-dioxatetracyclo-[7.6.1.0^2,7^.0^10,14^]hexadeca-2,4,6,10,13-pentaene
_symmetry_cell_setting           monoclinic
_symmetry_space_group_name_H-M   'P 21/c'
_symmetry_Int_Tables_number      14
_space_group_name_Hall           '-P 2ybc'
loop_
_symmetry_equiv_pos_site_id
_symmetry_equiv_pos_as_xyz
1 x,y,z
2 -x,1/2+y,1/2-z
3 -x,-y,-z
4 x,1/2-y,1/2+z
_cell_length_a                   9.119(3)
_cell_length_b                   12.365(4)
_cell_length_c                   13.840(5)
_cell_angle_alpha                90
_cell_angle_beta                 103.623(5)
_cell_angle_gamma                90
_cell_volume                     1516.65
_exptl_crystal_colour            colorless
_exptl_crystal_description       prism
_cell_formula_units_Z            4
loop_
_atom_site_label
_atom_site_type_symbol
_atom_site_fract_x
_atom_site_fract_y
_atom_site_fract_z
O1 O 0.43495(9) 1.08296(7) 0.08003(7)
O2 O 0.77256(10) 0.93549(7) 0.34296(6)
C1 C 0.80665(14) 1.21941(10) 0.12162(9)
H1 H 0.8645 1.1801 0.1765
C2 C 0.87267(15) 1.30399(10) 0.08166(10)
H2 H 0.9756 1.3215 0.1087
C3 C 0.78948(15) 1.36319(11) 0.00251(10)
H3 H 0.8347 1.4214 -0.0246
C4 C 0.63950(15) 1.33662(10) -0.03672(10)
H4 H 0.5818 1.3773 -0.0907
C5 C 0.57279(14) 1.25131(11) 0.00199(10)
H5 H 0.4702 1.2336 -0.0261
C6 C 0.65557(14) 1.19114(10) 0.08212(9)
C7 C 0.58659(13) 1.10062(10) 0.12260(10)
C8 C 0.63516(14) 1.02532(10) 0.19496(10)
C9 C 0.78859(14) 1.00291(10) 0.26104(9)
H6 H 0.8355 1.0731 0.2880
C10 C 0.89315(14) 0.94647(10) 0.20570(10)
H7 H 0.8920 0.9861 0.1434
H8 H 0.9976 0.9478 0.2472
C11 C 0.84589(14) 0.83086(10) 0.18133(10)
C12 C 0.89661(14) 0.77299(11) 0.10906(10)
H9 H 0.9600 0.8076 0.0730
C13 C 0.85622(14) 0.66589(11) 0.08888(10)
H10 H 0.8918 0.6277 0.0394
C14 C 0.76372(14) 0.61448(10) 0.14104(10)
H11 H 0.7365 0.5408 0.1281
C15 C 0.71144(15) 0.67158(10) 0.21214(10)
H12 H 0.6473 0.6366 0.2474
C16 C 0.75101(14) 0.77925(10) 0.23293(9)
C17 C 0.68809(14) 0.83876(10) 0.30986(10)
H13 H 0.6971 0.7900 0.3686
C18 C 0.52053(14) 0.86760(10) 0.27126(10)
H14 H 0.4638 0.8037 0.2392
H15 H 0.4771 0.8905 0.3272
C19 C 0.50884(14) 0.95765(10) 0.19759(10)
C20 C 0.39063(14) 0.99497(10) 0.12711(10)
C21 C 0.22934(14) 0.96444(11) 0.09643(11)
H16 H 0.2109 0.9014 0.1349
H17 H 0.2035 0.9466 0.0255
H18 H 0.1669 1.0251 0.1087
loop_
_geom_bond_atom_site_label_1
_geom_bond_atom_site_label_2
_geom_bond_site_symmetry_1
_geom_bond_site_symmetry_2
O1 C7 1_555 1_555
O2 C9 1_555 1_555
C1 H1 1_555 1_555
C2 C1 1_555 1_555
H2 C2 1_555 1_555
C3 C2 1_555 1_555
H3 C3 1_555 1_555
C4 C3 1_555 1_555
H4 C4 1_555 1_555
C5 C4 1_555 1_555
H5 C5 1_555 1_555
C6 C1 1_555 1_555
C7 C6 1_555 1_555
C8 C7 1_555 1_555
C9 C8 1_555 1_555
H6 C9 1_555 1_555
C10 C9 1_555 1_555
H7 C10 1_555 1_555
H8 C10 1_555 1_555
C11 C10 1_555 1_555
C12 C11 1_555 1_555
H9 C12 1_555 1_555
C13 C12 1_555 1_555
H10 C13 1_555 1_555
C14 C13 1_555 1_555
H11 C14 1_555 1_555
C15 C14 1_555 1_555
H12 C15 1_555 1_555
C16 C11 1_555 1_555
C17 O2 1_555 1_555
H13 C17 1_555 1_555
C18 C17 1_555 1_555
H14 C18 1_555 1_555
H15 C18 1_555 1_555
C19 C8 1_555 1_555
C20 O1 1_555 1_555
C21 C20 1_555 1_555
H16 C21 1_555 1_555
H17 C21 1_555 1_555
H18 C21 1_555 1_555
C5 C6 1_555 1_555
C15 C16 1_555 1_555
C16 C17 1_555 1_555
C18 C19 1_555 1_555
C19 C20 1_555 1_555

#END
