
#######################################################################
#
#                 Cambridge Crystallographic Data Centre
#                                CCDC 
#
#######################################################################
#
# If this CIF has been generated from an entry in the Cambridge 
# Structural Database, then it will include bibliographic, chemical, 
# crystal, experimental, refinement or atomic coordinate data resulting 
# from the CCDC's data processing and validation procedures.
#
#######################################################################

data_FAWMUO
_chemical_formula_moiety         'C19 H20 O3'
_chemical_name_systematic        
4,5-dimethoxy-1-(4-methoxyphenyl)-2-methyl-1H-indene
_symmetry_cell_setting           monoclinic
_symmetry_space_group_name_H-M   'P 21/n'
_symmetry_Int_Tables_number      14
_space_group_name_Hall           '-P 2yn'
loop_
_symmetry_equiv_pos_site_id
_symmetry_equiv_pos_as_xyz
1 x,y,z
2 1/2-x,1/2+y,1/2-z
3 -x,-y,-z
4 1/2+x,1/2-y,1/2+z
_cell_length_a                   7.6240(7)
_cell_length_b                   23.566(2)
_cell_length_c                   8.4581(7)
_cell_angle_alpha                90
_cell_angle_beta                 93.500(5)
_cell_angle_gamma                90
_cell_volume                     1516.81
_exptl_crystal_colour            colorless
_cell_formula_units_Z            4
loop_
_atom_site_label
_atom_site_type_symbol
_atom_site_fract_x
_atom_site_fract_y
_atom_site_fract_z
O1 O 0.92646(14) 0.06261(4) 0.90896(12)
O2 O 0.81488(14) 0.48049(4) 1.03184(11)
O3 O 0.58296(15) 0.07879(4) 0.96100(12)
C1 C 1.1074(2) 0.05321(7) 0.87763(19)
H1 H 1.1202 0.0540 0.7631
H2 H 1.1451 0.0161 0.9198
H3 H 1.1804 0.0830 0.9286
C2 C 0.8556(2) 0.11442(6) 0.86642(16)
C3 C 0.67984(19) 0.12317(6) 0.90363(16)
C4 C 0.60373(19) 0.17575(6) 0.87114(16)
C5 C 0.6969(2) 0.21826(6) 0.79483(16)
C6 C 0.57938(19) 0.26958(6) 0.76781(17)
H4 H 0.5515 0.2737 0.6513
C7 C 0.65272(19) 0.32590(6) 0.83116(16)
C8 C 0.7603(2) 0.32927(6) 0.97087(17)
H5 H 0.7970 0.2954 1.0240
C9 C 0.8142(2) 0.38113(6) 1.03287(17)
H6 H 0.8884 0.3826 1.1272
C10 C 0.7601(2) 0.43140(6) 0.95754(17)
C11 C 0.7717(2) 0.53264(6) 0.95197(19)
H7 H 0.8177 0.5320 0.8463
H8 H 0.8241 0.5644 1.0129
H9 H 0.6437 0.5372 0.9421
C12 C 0.5915(2) 0.07364(7) 1.12991(18)
H10 H 0.7146 0.0737 1.1705
H11 H 0.5357 0.0380 1.1595
H12 H 0.5298 0.1057 1.1754
C13 C 0.8668(2) 0.20870(6) 0.75395(16)
H13 H 0.9286 0.2372 0.7007
C14 C 0.9475(2) 0.15674(6) 0.79140(16)
H14 H 1.0654 0.1503 0.7656
C15 C 0.41230(19) 0.25144(6) 0.84465(16)
C16 C 0.42875(19) 0.19814(6) 0.90053(16)
H15 H 0.3403 0.1779 0.9515
C17 C 0.2583(2) 0.29046(7) 0.84997(19)
H16 H 0.1644 0.2716 0.9043
H17 H 0.2156 0.3002 0.7417
H18 H 0.2939 0.3251 0.9074
C18 C 0.6557(2) 0.42907(6) 0.81712(17)
H19 H 0.6203 0.4630 0.7634
C19 C 0.6036(2) 0.37628(6) 0.75618(17)
H20 H 0.5321 0.3748 0.6602
loop_
_geom_bond_atom_site_label_1
_geom_bond_atom_site_label_2
_geom_bond_site_symmetry_1
_geom_bond_site_symmetry_2
O1 C1 1_555 1_555
O2 C10 1_555 1_555
O3 C3 1_555 1_555
C1 H1 1_555 1_555
H2 C1 1_555 1_555
H3 C1 1_555 1_555
C2 O1 1_555 1_555
C3 C2 1_555 1_555
C4 C3 1_555 1_555
C5 C4 1_555 1_555
C6 C5 1_555 1_555
H4 C6 1_555 1_555
C7 C6 1_555 1_555
C8 C7 1_555 1_555
H5 C8 1_555 1_555
C9 C8 1_555 1_555
H6 C9 1_555 1_555
C10 C9 1_555 1_555
C11 O2 1_555 1_555
H7 C11 1_555 1_555
H8 C11 1_555 1_555
H9 C11 1_555 1_555
C12 O3 1_555 1_555
H10 C12 1_555 1_555
H11 C12 1_555 1_555
H12 C12 1_555 1_555
C13 C5 1_555 1_555
H13 C13 1_555 1_555
C14 C2 1_555 1_555
H14 C14 1_555 1_555
C15 C6 1_555 1_555
C16 C4 1_555 1_555
H15 C16 1_555 1_555
C17 C15 1_555 1_555
H16 C17 1_555 1_555
H17 C17 1_555 1_555
H18 C17 1_555 1_555
C18 C10 1_555 1_555
H19 C18 1_555 1_555
C19 C7 1_555 1_555
H20 C19 1_555 1_555
C13 C14 1_555 1_555
C15 C16 1_555 1_555
C18 C19 1_555 1_555

#END
