
#######################################################################
#
#                 Cambridge Crystallographic Data Centre
#                                CCDC 
#
#######################################################################
#
# If this CIF has been generated from an entry in the Cambridge 
# Structural Database, then it will include bibliographic, chemical, 
# crystal, experimental, refinement or atomic coordinate data resulting 
# from the CCDC's data processing and validation procedures.
#
#######################################################################

data_FAXWEH
_chemical_formula_moiety         'C10 H8 Cl1 N5 O1'
_chemical_name_systematic        
3-((2-Chlorophenyl)methylenehydrazinocarbonyl)-1H-1,2,4-triazole
_symmetry_cell_setting           monoclinic
_symmetry_space_group_name_H-M   'P 21/c'
_symmetry_Int_Tables_number      14
_space_group_name_Hall           '-P 2ybc'
loop_
_symmetry_equiv_pos_site_id
_symmetry_equiv_pos_as_xyz
1 x,y,z
2 -x,1/2+y,1/2-z
3 -x,-y,-z
4 x,1/2-y,1/2+z
_cell_length_a                   19.395(3)
_cell_length_b                   7.5786(11)
_cell_length_c                   7.3930(11)
_cell_angle_alpha                90
_cell_angle_beta                 98.607(3)
_cell_angle_gamma                90
_cell_volume                     1074.44
_exptl_crystal_colour            colorless
_exptl_crystal_description       block
_cell_formula_units_Z            4
_exptl_crystal_recrystallization_method DMF
loop_
_atom_site_label
_atom_site_type_symbol
_atom_site_fract_x
_atom_site_fract_y
_atom_site_fract_z
Cl1 Cl 0.06964(4) 0.80783(11) 1.09174(13)
O1 O 0.40624(11) 0.7657(2) 0.8501(3)
N1 N 0.31071(12) 0.8909(3) 0.9416(4)
N2 N 0.27928(12) 0.7366(3) 0.9749(3)
N3 N 0.36185(12) 1.2233(3) 0.8900(4)
N4 N 0.45806(12) 1.1043(3) 0.8001(3)
N5 N 0.46123(14) 1.2806(3) 0.7988(4)
C1 C 0.37342(14) 0.8946(3) 0.8812(4)
C2 C 0.39777(14) 1.0761(3) 0.8570(4)
C3 C 0.40527(17) 1.3496(4) 0.8505(4)
C4 C 0.21902(16) 0.7507(4) 1.0188(4)
C5 C 0.18128(15) 0.5955(4) 1.0691(4)
C6 C 0.21322(18) 0.4301(4) 1.0888(4)
C7 C 0.1801(2) 0.2863(4) 1.1471(5)
C8 C 0.1126(2) 0.3030(5) 1.1854(5)
C9 C 0.07951(18) 0.4613(5) 1.1657(4)
C10 C 0.11327(16) 0.6066(4) 1.1083(4)
H1 H 0.2897(14) 0.982(4) 0.952(4)
H2 H 0.3950(13) 1.464(3) 0.856(3)
H3 H 0.1969(14) 0.868(3) 1.023(4)
H4 H 0.498(2) 1.348(4) 0.764(5)
H5 H 0.2583(16) 0.424(4) 1.069(4)
H6 H 0.2060(18) 0.174(4) 1.164(5)
H7 H 0.0897(16) 0.210(4) 1.222(4)
H8 H 0.0337(15) 0.478(4) 1.191(4)
loop_
_geom_bond_atom_site_label_1
_geom_bond_atom_site_label_2
_geom_bond_site_symmetry_1
_geom_bond_site_symmetry_2
Cl1 C10 1_555 1_555
O1 C1 1_555 1_555
N1 N2 1_555 1_555
N2 C4 1_555 1_555
N3 C2 1_555 1_555
N4 N5 1_555 1_555
N5 C3 1_555 1_555
C1 N1 1_555 1_555
C2 N4 1_555 1_555
C3 N3 1_555 1_555
C4 C5 1_555 1_555
C5 C6 1_555 1_555
C6 C7 1_555 1_555
C7 C8 1_555 1_555
C8 C9 1_555 1_555
C9 C10 1_555 1_555
C10 C5 1_555 1_555
H1 N1 1_555 1_555
H2 C3 1_555 1_555
H3 C4 1_555 1_555
H4 N5 1_555 1_555
H5 C6 1_555 1_555
H6 C7 1_555 1_555
H7 C8 1_555 1_555
H8 C9 1_555 1_555
C1 C2 1_555 1_555

#END
