
#######################################################################
#
#                 Cambridge Crystallographic Data Centre
#                                CCDC 
#
#######################################################################
#
# If this CIF has been generated from an entry in the Cambridge 
# Structural Database, then it will include bibliographic, chemical, 
# crystal, experimental, refinement or atomic coordinate data resulting 
# from the CCDC's data processing and validation procedures.
#
#######################################################################

data_FAYFUG
_chemical_formula_moiety         'C9 H12 N4 O2'
_chemical_name_systematic        
6S,8S-1,3-Dimethyl-1,6-cyanoethylene-6-azathymine
_symmetry_cell_setting           monoclinic
_symmetry_space_group_name_H-M   'P 21/a'
_symmetry_Int_Tables_number      14
_space_group_name_Hall           '-P 2yab'
loop_
_symmetry_equiv_pos_site_id
_symmetry_equiv_pos_as_xyz
1 x,y,z
2 1/2-x,1/2+y,-z
3 -x,-y,-z
4 1/2+x,1/2-y,z
_cell_length_a                   8.088(2)
_cell_length_b                   12.208(3)
_cell_length_c                   10.925(2)
_cell_angle_alpha                90
_cell_angle_beta                 104.35(1)
_cell_angle_gamma                90
_cell_volume                     1045.06
_cell_formula_units_Z            4
loop_
_atom_site_label
_atom_site_type_symbol
_atom_site_fract_x
_atom_site_fract_y
_atom_site_fract_z
N1 N 0.8393(4) 0.1155(3) 0.7257(3)
N2 N 0.9657(4) 0.1230(3) 0.6579(3)
C1 C 1.0878(5) 0.0466(4) 0.6662(4)
N3 N 1.0823(4) -0.0429(3) 0.7472(3)
C2 C 0.9408(5) -0.0734(3) 0.7863(4)
C3 C 0.7898(5) 0.0039(3) 0.7565(4)
C4 C 0.7632(6) 0.0528(4) 0.8800(4)
C5 C 0.8871(5) 0.1434(3) 0.8627(4)
C6 C 0.9487(6) 0.2128(4) 0.5696(4)
C7 C 1.2339(6) -0.1135(4) 0.7785(5)
C8 C 0.6422(5) -0.0459(4) 0.6610(4)
C9 C 0.8521(5) 0.2582(4) 0.8902(4)
N4 N 0.8259(5) 0.3465(3) 0.9106(4)
O1 O 1.1975(4) 0.0519(3) 0.6079(3)
O2 O 0.9382(4) -0.1573(3) 0.8458(3)
loop_
_geom_bond_atom_site_label_1
_geom_bond_atom_site_label_2
_geom_bond_site_symmetry_1
_geom_bond_site_symmetry_2
N1 N2 1_555 1_555
N2 C1 1_555 1_555
C1 N3 1_555 1_555
N3 C2 1_555 1_555
C2 C3 1_555 1_555
C3 N1 1_555 1_555
C4 C3 1_555 1_555
C5 N1 1_555 1_555
C6 N2 1_555 1_555
C7 N3 1_555 1_555
C8 C3 1_555 1_555
C9 C5 1_555 1_555
N4 C9 1_555 1_555
O1 C1 1_555 1_555
O2 C2 1_555 1_555
C4 C5 1_555 1_555

#END
