
#######################################################################
#
#                 Cambridge Crystallographic Data Centre
#                                CCDC 
#
#######################################################################
#
# If this CIF has been generated from an entry in the Cambridge 
# Structural Database, then it will include bibliographic, chemical, 
# crystal, experimental, refinement or atomic coordinate data resulting 
# from the CCDC's data processing and validation procedures.
#
#######################################################################

data_FAYGOB
_chemical_formula_moiety         'C10 H13 Cl1 O3'
_chemical_name_systematic        
3a\b-Hydroxy-4\a-chloro-7a\b-methylperhydroindan-1,5-dione
_symmetry_cell_setting           orthorhombic
_symmetry_space_group_name_H-M   'P b c a'
_symmetry_Int_Tables_number      61
_space_group_name_Hall           '-P 2ac 2ab'
loop_
_symmetry_equiv_pos_site_id
_symmetry_equiv_pos_as_xyz
1 x,y,z
2 1/2-x,-y,1/2+z
3 1/2+x,1/2-y,-z
4 -x,1/2+y,1/2-z
5 -x,-y,-z
6 1/2+x,y,1/2-z
7 1/2-x,1/2+y,z
8 x,1/2-y,1/2+z
_cell_length_a                   10.439(1)
_cell_length_b                   19.950(2)
_cell_length_c                   9.455(1)
_cell_angle_alpha                90
_cell_angle_beta                 90
_cell_angle_gamma                90
_cell_volume                     1969.08
_cell_formula_units_Z            8
loop_
_atom_site_label
_atom_site_type_symbol
_atom_site_fract_x
_atom_site_fract_y
_atom_site_fract_z
Cl1 Cl 0.2006(1) 0.0660 0.3572(1)
C1 C 0.0735(2) 0.1651(1) -0.1160(3)
C2 C 0.0000(2) 0.1017(1) -0.0819(3)
C3 C 0.0689(2) 0.0713(1) 0.0456(2)
C4 C 0.2552(2) 0.1100(1) 0.2056(2)
C5 C 0.3522(2) 0.0684(1) 0.1225(3)
C6 C 0.4042(2) 0.1056(2) -0.0035(3)
C7 C 0.2956(2) 0.1284(1) -0.1008(3)
C8 C 0.2351(3) 0.2413(1) 0.0057(3)
C9 C 0.1435(2) 0.1305(1) 0.1091(2)
C10 C 0.1915(2) 0.1695(1) -0.0219(3)
O1 O 0.0447(2) 0.2052(1) -0.2059(2)
O2 O 0.0496(2) 0.1679(1) 0.1837(2)
O3 O 0.3808(2) 0.0122(1) 0.1541(2)
loop_
_geom_bond_atom_site_label_1
_geom_bond_atom_site_label_2
_geom_bond_site_symmetry_1
_geom_bond_site_symmetry_2
Cl1 C4 1_555 1_555
C1 C2 1_555 1_555
C2 C3 1_555 1_555
C3 C9 1_555 1_555
C4 C5 1_555 1_555
C5 C6 1_555 1_555
C6 C7 1_555 1_555
C7 C10 1_555 1_555
C8 C10 1_555 1_555
C9 C4 1_555 1_555
C10 C1 1_555 1_555
O1 C1 1_555 1_555
O2 C9 1_555 1_555
O3 C5 1_555 1_555
C9 C10 1_555 1_555

#END
