
#######################################################################
#
#                 Cambridge Crystallographic Data Centre
#                                CCDC 
#
#######################################################################
#
# If this CIF has been generated from an entry in the Cambridge 
# Structural Database, then it will include bibliographic, chemical, 
# crystal, experimental, refinement or atomic coordinate data resulting 
# from the CCDC's data processing and validation procedures.
#
#######################################################################

data_FAYQIG
_chemical_compound_source        'marine sponge Dysidea avara'
_chemical_formula_moiety         'C15 H20 O3'
_chemical_name_systematic        
8\b-Hydroxy-2,6,6-trimethyl-5\bH,10\bH-eudesma-1,7(11)-dien-12,8-olide
_chemical_properties_biological  'pharmacological activity'
_symmetry_cell_setting           orthorhombic
_symmetry_space_group_name_H-M   'P 21 21 21'
_symmetry_Int_Tables_number      19
_space_group_name_Hall           'P 2ac 2ab'
loop_
_symmetry_equiv_pos_site_id
_symmetry_equiv_pos_as_xyz
1 x,y,z
2 1/2-x,-y,1/2+z
3 -x,1/2+y,1/2-z
4 1/2+x,1/2-y,-z
_cell_length_a                   7.1843(9)
_cell_length_b                   8.7554(11)
_cell_length_c                   21.310(3)
_cell_angle_alpha                90
_cell_angle_beta                 90
_cell_angle_gamma                90
_cell_volume                     1340.43
_exptl_crystal_colour            colorless
_exptl_crystal_description       block
_cell_formula_units_Z            4
_exptl_crystal_recrystallization_method 'hexane-ethyl acetate'
loop_
_atom_site_label
_atom_site_type_symbol
_atom_site_fract_x
_atom_site_fract_y
_atom_site_fract_z
C1 C 0.1961(3) 0.4688(2) 0.27027(7)
H1 H 0.1255 0.4345 0.3040
C2 C 0.3703(3) 0.5091(2) 0.28137(8)
C3 C 0.4959(3) 0.5660(3) 0.23025(9)
H2 H 0.6139 0.5127 0.2330
H3 H 0.5199 0.6737 0.2370
C4 C 0.4172(2) 0.5446(2) 0.16436(8)
H4 H 0.4352 0.4396 0.1512
H5 H 0.4837 0.6101 0.1353
C5 C 0.2098(2) 0.58326(18) 0.16247(7)
H6 H 0.1969 0.6861 0.1801
C6 C 0.1225(2) 0.58868(19) 0.09500(7)
C7 C 0.0966(2) 0.42661(19) 0.07405(7)
C8 C -0.0047(2) 0.31550(19) 0.11588(7)
C9 C 0.0844(2) 0.31180(19) 0.18027(7)
H7 H 0.2064 0.2649 0.1774
H8 H 0.0088 0.2506 0.2084
C10 C 0.1035(2) 0.47458(18) 0.20673(7)
H9 H -0.0221 0.5159 0.2125
C11 C 0.1622(2) 0.3524(2) 0.02432(8)
H10 H 0.2275 0.3962 -0.0088
C12 C 0.1147(2) 0.1902(2) 0.03010(8)
C13 C -0.0675(3) 0.6716(2) 0.09816(9)
H11 H -0.1356 0.6531 0.0602
H12 H -0.0475 0.7794 0.1030
H13 H -0.1374 0.6339 0.1333
C14 C 0.2451(3) 0.6748(2) 0.04824(8)
H14 H 0.3602 0.6207 0.0427
H15 H 0.2703 0.7754 0.0640
H16 H 0.1818 0.6823 0.0087
C15 C 0.4530(4) 0.5048(3) 0.34661(10)
H17 H 0.3640 0.4621 0.3753
H18 H 0.4841 0.6066 0.3596
H19 H 0.5633 0.4429 0.3464
O1 O 0.1497(2) 0.08543(17) -0.00501(7)
O2 O 0.02062(18) 0.16744(14) 0.08410(5)
O3 O -0.19368(16) 0.34192(17) 0.12224(5)
H20 H -0.2362 0.3717 0.0887
loop_
_geom_bond_atom_site_label_1
_geom_bond_atom_site_label_2
_geom_bond_site_symmetry_1
_geom_bond_site_symmetry_2
C1 H1 1_555 1_555
C2 C1 1_555 1_555
C3 C2 1_555 1_555
H2 C3 1_555 1_555
H3 C3 1_555 1_555
C4 C3 1_555 1_555
H4 C4 1_555 1_555
H5 C4 1_555 1_555
C5 C4 1_555 1_555
H6 C5 1_555 1_555
C6 C5 1_555 1_555
C7 C6 1_555 1_555
C8 C7 1_555 1_555
C9 C8 1_555 1_555
H7 C9 1_555 1_555
H8 C9 1_555 1_555
C10 C1 1_555 1_555
H9 C10 1_555 1_555
C11 C7 1_555 1_555
H10 C11 1_555 1_555
C12 C11 1_555 1_555
C13 C6 1_555 1_555
H11 C13 1_555 1_555
H12 C13 1_555 1_555
H13 C13 1_555 1_555
C14 C6 1_555 1_555
H14 C14 1_555 1_555
H15 C14 1_555 1_555
H16 C14 1_555 1_555
C15 C2 1_555 1_555
H17 C15 1_555 1_555
H18 C15 1_555 1_555
H19 C15 1_555 1_555
O1 C12 1_555 1_555
O2 C8 1_555 1_555
O3 C8 1_555 1_555
H20 O3 1_555 1_555
C5 C10 1_555 1_555
C9 C10 1_555 1_555
C12 O2 1_555 1_555

#END
