
#######################################################################
#
#                 Cambridge Crystallographic Data Centre
#                                CCDC 
#
#######################################################################
#
# If this CIF has been generated from an entry in the Cambridge 
# Structural Database, then it will include bibliographic, chemical, 
# crystal, experimental, refinement or atomic coordinate data resulting 
# from the CCDC's data processing and validation procedures.
#
#######################################################################

data_FAYZOV
_chemical_name_common            
'5,17-Dichloro-8,14-dimethyl-8,14-diaza-2,20-dioxacalix(2)arene(2)triazine dichloromethane solvate'
_chemical_formula_moiety         'C20 H20 Cl2 N8 O2,0.5(C1 H2 Cl2)'
_chemical_name_systematic        
'5,17-Dichloro-8,14-dimethyl-2,20-dioxa-4,6,8,14,16,18,26,28-octa-azapentacyclo(19.3.1.1^3,7^.1^9,13^.1^15,19^)octacosa-1(25),3(28),4,6,9(27),10,12,15(26),16,18,21,23-dodecaene dichloromethane solvate'
_symmetry_cell_setting           triclinic
_symmetry_space_group_name_H-M   'P -1'
_symmetry_Int_Tables_number      2
_space_group_name_Hall           '-P 1'
loop_
_symmetry_equiv_pos_site_id
_symmetry_equiv_pos_as_xyz
1 x,y,z
2 -x,-y,-z
_cell_length_a                   8.80510(10)
_cell_length_b                   11.2289(5)
_cell_length_c                   11.8862(6)
_cell_angle_alpha                87.871(6)
_cell_angle_beta                 72.449(3)
_cell_angle_gamma                78.862(4)
_cell_volume                     1099.12
_exptl_crystal_colour            colorless
_exptl_crystal_description       prisms
_chemical_melting_point          'above 300deg.C'
_cell_formula_units_Z            2
_exptl_crystal_recrystallization_method dichloromethane/acetone
loop_
_atom_site_label
_atom_site_type_symbol
_atom_site_fract_x
_atom_site_fract_y
_atom_site_fract_z
Cl2 Cl 0.32084(14) 0.90207(10) 0.23725(9)
Cl3 Cl 0.93061(14) 1.36274(12) -0.66243(9)
N1 N 0.3975(4) 1.2646(3) -0.4865(2)
N2 N 0.2114(4) 1.0435(3) -0.1298(2)
N3 N 0.2689(4) 0.9792(3) 0.0417(2)
H1 H 0.2595 0.9062 0.0299
N4 N 0.2652(4) 1.1822(3) -0.0162(2)
H2 H 0.2511 1.2397 -0.0640
N5 N 0.3245(4) 1.1178(3) 0.1594(3)
H3 H 0.3491 1.1337 0.2213
N6 N 0.7455(4) 1.4216(3) -0.4483(3)
H4 H 0.8213 1.4556 -0.4403
N7 N 0.6445(4) 1.3188(3) -0.5679(3)
H5 H 0.6552 1.2889 -0.6361
N8 N 0.4938(4) 1.3670(3) -0.3682(2)
H6 H 0.4094 1.3650 -0.3089
O1 O 0.3284(4) 1.3068(3) 0.1022(2)
O2 O 0.5996(3) 1.4729(2) -0.2605(2)
C2 C 0.3983(6) 1.2210(5) -0.6026(3)
H7 H 0.4907 1.2398 -0.6627
H8 H 0.3007 1.2601 -0.6193
H9 H 0.4041 1.1347 -0.6012
C3 C 0.2680(5) 1.2461(3) -0.3849(3)
C4 C 0.1119(5) 1.3115(4) -0.3686(3)
H10 H 0.0908 1.3701 -0.4221
C5 C -0.0119(5) 1.2883(4) -0.2716(3)
H11 H -0.1170 1.3314 -0.2600
C6 C 0.0194(5) 1.2018(4) -0.1922(3)
H12 H -0.0643 1.1860 -0.1275
C7 C 0.1772(5) 1.1382(3) -0.2095(3)
C8 C 0.3020(5) 1.1583(3) -0.3059(3)
H13 H 0.4067 1.1142 -0.3180
C9 C 0.1937(6) 0.9219(4) -0.1517(3)
H14 H 0.2191 0.8694 -0.0916
H15 H 0.2663 0.8929 -0.2275
H16 H 0.0840 0.9228 -0.1504
C10 C 0.2495(4) 1.0690(3) -0.0328(3)
C11 C 0.3033(5) 1.0125(4) 0.1342(3)
C12 C 0.3041(5) 1.1977(4) 0.0794(3)
C13 C 0.3260(6) 1.3960(4) 0.0159(3)
C14 C 0.1934(6) 1.4879(4) 0.0345(3)
H17 H 0.1041 1.4901 0.1011
C15 C 0.1963(6) 1.5774(4) -0.0488(4)
H18 H 0.1091 1.6420 -0.0376
C16 C 0.3300(5) 1.5711(4) -0.1496(3)
H19 H 0.3315 1.6299 -0.2069
C17 C 0.4602(5) 1.4756(4) -0.1628(3)
C18 C 0.4622(5) 1.3866(4) -0.0823(3)
H20 H 0.5503 1.3228 -0.0924
C19 C 0.5134(5) 1.3173(3) -0.4740(3)
C20 C 0.6098(5) 1.4177(3) -0.3619(3)
C21 C 0.7533(5) 1.3694(4) -0.5462(3)
C1 C 1.0177(15) 1.0755(10) -0.5135(10)
Cl1 Cl 0.8662(3) 1.03679(19) -0.54914(15)
C1A C 0.9823(15) 0.9245(10) -0.4865(10)
Cl1A Cl 1.1338(3) 0.96321(19) -0.45086(15)
loop_
_geom_bond_atom_site_label_1
_geom_bond_atom_site_label_2
_geom_bond_site_symmetry_1
_geom_bond_site_symmetry_2
C1 Cl1 1_555 1_555
Cl1 C1A 1_555 1_555
Cl2 C11 1_555 1_555
Cl3 C21 1_555 1_555
N1 C2 1_555 1_555
N2 C7 1_555 1_555
N3 H1 1_555 1_555
N4 H2 1_555 1_555
N5 H3 1_555 1_555
N6 H4 1_555 1_555
N7 H5 1_555 1_555
N8 H6 1_555 1_555
O1 C12 1_555 1_555
O2 C17 1_555 1_555
C2 H7 1_555 1_555
H8 C2 1_555 1_555
H9 C2 1_555 1_555
C3 N1 1_555 1_555
C4 C3 1_555 1_555
H10 C4 1_555 1_555
C5 C4 1_555 1_555
H11 C5 1_555 1_555
C6 C5 1_555 1_555
H12 C6 1_555 1_555
C7 C6 1_555 1_555
C8 C3 1_555 1_555
H13 C8 1_555 1_555
C9 N2 1_555 1_555
H14 C9 1_555 1_555
H15 C9 1_555 1_555
H16 C9 1_555 1_555
C10 N2 1_555 1_555
C11 N3 1_555 1_555
C12 N4 1_555 1_555
C13 O1 1_555 1_555
C14 C13 1_555 1_555
H17 C14 1_555 1_555
C15 C14 1_555 1_555
H18 C15 1_555 1_555
C16 C15 1_555 1_555
H19 C16 1_555 1_555
C17 C16 1_555 1_555
C18 C13 1_555 1_555
H20 C18 1_555 1_555
C19 N1 1_555 1_555
C20 N6 1_555 1_555
C21 N6 1_555 1_555
C1A Cl1A 1_555 1_555
Cl1A C1 1_555 1_555
N3 C10 1_555 1_555
N4 C10 1_555 1_555
N5 C11 1_555 1_555
N5 C12 1_555 1_555
N7 C19 1_555 1_555
N7 C21 1_555 1_555
N8 C19 1_555 1_555
N8 C20 1_555 1_555
O2 C20 1_555 1_555
C7 C8 1_555 1_555
C17 C18 1_555 1_555

#END
