
#######################################################################
#
#                 Cambridge Crystallographic Data Centre
#                                CCDC 
#
#######################################################################
#
# If this CIF has been generated from an entry in the Cambridge 
# Structural Database, then it will include bibliographic, chemical, 
# crystal, experimental, refinement or atomic coordinate data resulting 
# from the CCDC's data processing and validation procedures.
#
#######################################################################

data_FAZGIZ
_chemical_formula_moiety         'C28 H21 N2 O2 P1'
_chemical_name_systematic        
'N-(4-(diphenylphosphoryl)quinolin-8-yl)benzamide unknown solvate'
_symmetry_cell_setting           monoclinic
_symmetry_space_group_name_H-M   'P 21/n'
_symmetry_Int_Tables_number      14
_space_group_name_Hall           '-P 2yn'
loop_
_symmetry_equiv_pos_site_id
_symmetry_equiv_pos_as_xyz
1 x,y,z
2 1/2-x,1/2+y,1/2-z
3 -x,-y,-z
4 1/2+x,1/2-y,1/2+z
_cell_length_a                   14.3374(5)
_cell_length_b                   9.7100(4)
_cell_length_c                   18.7718(7)
_cell_angle_alpha                90
_cell_angle_beta                 105.341(4)
_cell_angle_gamma                90
_cell_volume                     2520.22
_exptl_crystal_colour            colorless
_exptl_crystal_description       prism
_cell_formula_units_Z            4
loop_
_atom_site_label
_atom_site_type_symbol
_atom_site_fract_x
_atom_site_fract_y
_atom_site_fract_z
C1 C 0.30849(14) 0.5745(2) 0.48122(12)
C2 C 0.26370(19) 0.5770(3) 0.53787(14)
H1 H 0.2038 0.5350 0.5317
C3 C 0.3075(2) 0.6416(3) 0.60371(16)
H2 H 0.2770 0.6429 0.6417
C4 C 0.3959(2) 0.7040(3) 0.61353(17)
H3 H 0.4250 0.7482 0.6578
C5 C 0.4408(2) 0.7007(3) 0.55802(18)
H4 H 0.5009 0.7422 0.5647
C6 C 0.39757(16) 0.6360(3) 0.49180(14)
H5 H 0.4289 0.6341 0.4543
C7 C 0.28361(13) 0.3077(2) 0.40833(10)
C8 C 0.32177(18) 0.2493(3) 0.47723(12)
H6 H 0.3306 0.3028 0.5196
C9 C 0.3467(2) 0.1120(3) 0.48306(15)
H7 H 0.3728 0.0733 0.5294
C10 C 0.3332(2) 0.0315(3) 0.42067(16)
H8 H 0.3501 -0.0612 0.4249
C11 C 0.29484(17) 0.0883(3) 0.35258(14)
H9 H 0.2851 0.0338 0.3105
C12 C 0.27078(14) 0.2245(3) 0.34616(11)
H10 H 0.2454 0.2623 0.2995
C13 C 0.12228(14) 0.7468(3) 0.33399(14)
H11 H 0.1875 0.7436 0.3352
C14 C 0.07014(16) 0.8625(3) 0.31043(16)
H12 H 0.1008 0.9381 0.2963
C15 C -0.02899(15) 0.8714(2) 0.30675(14)
H13 H -0.0629 0.9521 0.2906
C16 C -0.07518(13) 0.7606(2) 0.32704(11)
C17 C -0.02216(13) 0.6387(2) 0.35355(10)
C18 C 0.07762(13) 0.6315(2) 0.35670(10)
C19 C 0.12614(14) 0.5046(2) 0.38257(11)
C20 C 0.07460(16) 0.4014(3) 0.40193(15)
H14 H 0.1043 0.3177 0.4181
C21 C -0.02426(16) 0.4207(3) 0.39766(17)
H15 H -0.0576 0.3481 0.4119
C22 C -0.24120(14) 0.8561(2) 0.30147(11)
C23 C -0.34168(13) 0.8228(2) 0.30621(10)
C24 C -0.40388(17) 0.9332(2) 0.30301(13)
H16 H -0.3822 1.0220 0.2979
C25 C -0.49713(17) 0.9136(3) 0.30731(15)
H17 H -0.5381 0.9886 0.3052
C26 C -0.52974(15) 0.7820(3) 0.31475(12)
H18 H -0.5929 0.7681 0.3174
C27 C -0.46901(16) 0.6719(3) 0.31823(13)
H19 H -0.4908 0.5832 0.3235
C28 C -0.37502(15) 0.6927(2) 0.31391(13)
H20 H -0.3341 0.6176 0.3163
N1 N -0.07162(12) 0.53358(19) 0.37501(11)
N2 N -0.17432(11) 0.75629(18) 0.32361(10)
H21 H -0.1950 0.6803 0.3374
O1 O 0.29017(11) 0.5445(2) 0.33211(9)
O2 O -0.22271(13) 0.96807(18) 0.27991(12)
P1 P 0.25624(3) 0.48864(6) 0.39426(3)
loop_
_geom_bond_atom_site_label_1
_geom_bond_atom_site_label_2
_geom_bond_site_symmetry_1
_geom_bond_site_symmetry_2
C1 C2 1_555 1_555
C2 H1 1_555 1_555
C3 C2 1_555 1_555
H2 C3 1_555 1_555
C4 C3 1_555 1_555
H3 C4 1_555 1_555
C5 C4 1_555 1_555
H4 C5 1_555 1_555
C6 C1 1_555 1_555
H5 C6 1_555 1_555
C7 C8 1_555 1_555
C8 H6 1_555 1_555
C9 C8 1_555 1_555
H7 C9 1_555 1_555
C10 C9 1_555 1_555
H8 C10 1_555 1_555
C11 C10 1_555 1_555
H9 C11 1_555 1_555
C12 C7 1_555 1_555
H10 C12 1_555 1_555
C13 H11 1_555 1_555
C14 C13 1_555 1_555
H12 C14 1_555 1_555
C15 C14 1_555 1_555
H13 C15 1_555 1_555
C16 C15 1_555 1_555
C17 C16 1_555 1_555
C18 C13 1_555 1_555
C19 C18 1_555 1_555
C20 C19 1_555 1_555
H14 C20 1_555 1_555
C21 C20 1_555 1_555
H15 C21 1_555 1_555
C22 C23 1_555 1_555
C23 C24 1_555 1_555
C24 H16 1_555 1_555
C25 C24 1_555 1_555
H17 C25 1_555 1_555
C26 C25 1_555 1_555
H18 C26 1_555 1_555
C27 C26 1_555 1_555
H19 C27 1_555 1_555
C28 C23 1_555 1_555
H20 C28 1_555 1_555
N1 C17 1_555 1_555
N2 C16 1_555 1_555
H21 N2 1_555 1_555
O1 P1 1_555 1_555
O2 C22 1_555 1_555
P1 C1 1_555 1_555
C5 C6 1_555 1_555
C7 P1 1_555 1_555
C11 C12 1_555 1_555
C17 C18 1_555 1_555
C19 P1 1_555 1_555
C21 N1 1_555 1_555
C22 N2 1_555 1_555
C27 C28 1_555 1_555

#END
