
#######################################################################
#
#                 Cambridge Crystallographic Data Centre
#                                CCDC 
#
#######################################################################
#
# If this CIF has been generated from an entry in the Cambridge 
# Structural Database, then it will include bibliographic, chemical, 
# crystal, experimental, refinement or atomic coordinate data resulting 
# from the CCDC's data processing and validation procedures.
#
#######################################################################

data_FAZLOH
_chemical_formula_moiety         'C19 H26 O6'
_chemical_name_systematic        
'cis-Diethyl 12-oxo-13-oxatricyclo(7.4.1.0^2,7^)tetradec-1-ene-8,9-dicarboxylate'
_symmetry_cell_setting           monoclinic
_symmetry_space_group_name_H-M   'P 21/n'
_symmetry_Int_Tables_number      14
_space_group_name_Hall           '-P 2yn'
loop_
_symmetry_equiv_pos_site_id
_symmetry_equiv_pos_as_xyz
1 x,y,z
2 1/2-x,1/2+y,1/2-z
3 -x,-y,-z
4 1/2+x,1/2-y,1/2+z
_cell_length_a                   9.180(2)
_cell_length_b                   9.816(2)
_cell_length_c                   20.197(4)
_cell_angle_alpha                90
_cell_angle_beta                 91.78(2)
_cell_angle_gamma                90
_cell_volume                     1819.09
_chemical_melting_point          104-106deg.C
_cell_formula_units_Z            4
loop_
_atom_site_label
_atom_site_type_symbol
_atom_site_fract_x
_atom_site_fract_y
_atom_site_fract_z
C1 C 0.6030(3) -0.2622(2) -0.1096(1)
C2 C 0.4436(3) -0.1009(3) -0.0708(1)
C3 C 0.4793(3) -0.0251(2) -0.1336(1)
C4 C 0.4356(2) -0.0907(2) -0.2010(1)
C5 C 0.5157(2) -0.2236(2) -0.2216(1)
C6 C 0.6789(2) -0.1963(2) -0.2391(1)
C7 C 0.7891(2) -0.2624(2) -0.1883(1)
C8 C 0.9464(3) -0.2165(3) -0.1977(1)
C9 C 1.0415(3) -0.2616(4) -0.1390(2)
C10 C 0.9947(4) -0.2093(5) -0.0740(2)
C11 C 0.8421(3) -0.1519(3) -0.0735(1)
C12 C 0.7400(3) -0.2295(2) -0.1193(1)
C13 C 0.5120(3) -0.3251(2) -0.1634(1)
C14 C 0.4230(3) -0.2787(3) -0.2796(1)
C15 C 0.3421(4) -0.2312(4) -0.3908(2)
C16 C 0.7138(3) -0.2520(2) -0.3066(1)
C17 C 0.7814(4) -0.2050(3) -0.4160(1)
C18 C 0.7804(5) -0.0883(3) -0.4606(2)
C19 C 0.2040(5) -0.1559(4) -0.3923(2)
O1 O 0.5252(2) -0.2131(2) -0.0553(1)
O2 O 0.3511(2) -0.0672(3) -0.0337(1)
O3 O 0.3477(2) -0.3778(2) -0.2775(1)
O4 O 0.4309(2) -0.1962(2) -0.3327(1)
O5 O 0.7073(2) -0.3716(2) -0.3200(1)
O6 O 0.7554(2) -0.1566(2) -0.3487(1)
loop_
_geom_bond_atom_site_label_1
_geom_bond_atom_site_label_2
_geom_bond_site_symmetry_1
_geom_bond_site_symmetry_2
C1 C12 1_555 1_555
C2 C3 1_555 1_555
C3 C4 1_555 1_555
C4 C5 1_555 1_555
C5 C6 1_555 1_555
C6 C7 1_555 1_555
C7 C8 1_555 1_555
C8 C9 1_555 1_555
C9 C10 1_555 1_555
C10 C11 1_555 1_555
C11 C12 1_555 1_555
C12 C7 1_555 1_555
C13 C1 1_555 1_555
C14 C5 1_555 1_555
C15 C19 1_555 1_555
C16 C6 1_555 1_555
C17 C18 1_555 1_555
O1 C1 1_555 1_555
O2 C2 1_555 1_555
O3 C14 1_555 1_555
O4 C14 1_555 1_555
O5 C16 1_555 1_555
O6 C16 1_555 1_555
C2 O1 1_555 1_555
C5 C13 1_555 1_555
C15 O4 1_555 1_555
C17 O6 1_555 1_555

#END
