
#######################################################################
#
#                 Cambridge Crystallographic Data Centre
#                                CCDC 
#
#######################################################################
#
# If this CIF has been generated from an entry in the Cambridge 
# Structural Database, then it will include bibliographic, chemical, 
# crystal, experimental, refinement or atomic coordinate data resulting 
# from the CCDC's data processing and validation procedures.
#
#######################################################################

data_FAZSIJ
_chemical_formula_moiety         'C38 H37 N12 3+,3(F6 P1 1-)'
_chemical_name_systematic        
"6,6'-bis((3-((6-(Imidazolylmethyl)-2-pyridyl)methyl)imidazolio)methyl)-2,2'-bipyridin-1-ium hexafluorophosphate"
_symmetry_cell_setting           monoclinic
_symmetry_space_group_name_H-M   'P 2/n'
_symmetry_Int_Tables_number      13
_space_group_name_Hall           '-P 2yac'
loop_
_symmetry_equiv_pos_site_id
_symmetry_equiv_pos_as_xyz
1 x,y,z
2 1/2-x,y,1/2-z
3 -x,-y,-z
4 1/2+x,-y,1/2+z
_cell_length_a                   14.0672(13)
_cell_length_b                   8.1197(7)
_cell_length_c                   19.9000(18)
_cell_angle_alpha                90
_cell_angle_beta                 107.073(2)
_cell_angle_gamma                90
_cell_volume                     2172.84
_exptl_crystal_colour            colorless
_exptl_crystal_description       plate
_cell_formula_units_Z            2
_exptl_crystal_recrystallization_method acetonitrile
loop_
_atom_site_label
_atom_site_type_symbol
_atom_site_fract_x
_atom_site_fract_y
_atom_site_fract_z
P1 P 0.2500 0.2062(3) 0.7500
F1 F 0.2951(4) 0.3366(7) 0.7096(2)
F2 F 0.2892(3) 0.0682(6) 0.7091(2)
F3 F 0.1486(2) 0.2054(6) 0.68883(15)
F1A F 0.2049(4) 0.3366(7) 0.7904(2)
F2A F 0.2108(3) 0.0682(6) 0.7909(2)
F3A F 0.3514(2) 0.2054(6) 0.81117(15)
P2 P 0.42706(9) 0.02669(16) 0.32808(6)
F4 F 0.3847(3) 0.2050(4) 0.31742(15)
F5 F 0.4089(2) 0.0124(4) 0.24493(13)
F6 F 0.4738(2) -0.1530(4) 0.33892(14)
F7 F 0.3218(2) -0.0528(4) 0.31945(14)
F8 F 0.5364(3) 0.0987(5) 0.33777(15)
F9 F 0.4446(2) 0.0414(3) 0.41080(12)
N1 N 0.0808(3) 0.0408(5) 0.48569(18)
N2 N 0.2355(2) 0.1044(5) 0.50660(17)
N3 N 0.3220(3) 0.3702(5) 0.45387(18)
N4 N 0.2037(3) 0.5316(5) 0.32606(18)
N5 N 0.0532(3) 0.4437(5) 0.29696(17)
N6 N -0.0061(3) 0.4375(5) 0.41231(17)
C1 C 0.1577(3) 0.1057(6) 0.5313(2)
H1 H 0.1580 0.1479 0.5759
C2 C 0.1095(3) -0.0037(6) 0.4281(2)
H2 H 0.0686 -0.0538 0.3864
C3 C 0.2062(3) 0.0362(6) 0.4410(2)
H3 H 0.2462 0.0200 0.4105
C4 C 0.3341(3) 0.1665(7) 0.5435(2)
H4 H 0.3847 0.0933 0.5337
H5 H 0.3431 0.1636 0.5947
C5 C 0.3504(3) 0.3389(7) 0.5224(2)
C6 C 0.3982(4) 0.4552(7) 0.5718(3)
H6 H 0.4167 0.4299 0.6205
C7 C 0.4179(4) 0.6046(8) 0.5497(3)
H7 H 0.4508 0.6858 0.5827
C8 C 0.3902(4) 0.6383(7) 0.4789(3)
H8 H 0.4039 0.7425 0.4620
C9 C 0.3419(3) 0.5166(6) 0.4329(3)
C10 C 0.3113(4) 0.5400(7) 0.3551(3)
H9 H 0.3351 0.6484 0.3439
H10 H 0.3423 0.4536 0.3334
C11 C 0.1470(3) 0.4002(7) 0.3219(2)
H11 H 0.1703 0.2915 0.3349
C12 C 0.1434(4) 0.6657(7) 0.3038(2)
H12 H 0.1641 0.7764 0.3016
C13 C 0.0505(4) 0.6105(7) 0.2860(2)
H13 H -0.0077 0.6755 0.2687
C14 C -0.0306(4) 0.3409(7) 0.2931(2)
H14 H -0.0129 0.2250 0.2870
H15 H -0.0860 0.3724 0.2515
C15 C -0.0653(3) 0.3545(6) 0.3592(2)
C16 C -0.1520(4) 0.2813(6) 0.3613(2)
H16 H -0.1913 0.2201 0.3223
C17 C -0.1808(4) 0.2984(6) 0.4213(2)
H17 H -0.2409 0.2498 0.4242
C18 C -0.1216(4) 0.3869(6) 0.4771(2)
H18 H -0.1404 0.4016 0.5188
C19 C -0.0348(3) 0.4532(5) 0.4711(2)
N1B N -0.0808(3) 0.9592(5) 0.51431(18)
N2B N -0.2355(2) 0.8956(5) 0.49340(17)
N3B N -0.3220(3) 0.6298(5) 0.54613(18)
N4B N -0.2037(3) 0.4684(5) 0.67394(18)
N5B N -0.0532(3) 0.5563(5) 0.70304(17)
N6B N 0.0061(3) 0.5625(5) 0.58769(17)
C1B C -0.1577(3) 0.8943(6) 0.4687(2)
H1B H -0.1580 0.8521 0.4241
C2B C -0.1095(3) 1.0037(6) 0.5719(2)
H2B H -0.0686 1.0538 0.6136
C3B C -0.2062(3) 0.9638(6) 0.5590(2)
H3B H -0.2462 0.9800 0.5895
C4B C -0.3341(3) 0.8335(7) 0.4565(2)
H4B H -0.3847 0.9067 0.4663
H5B H -0.3431 0.8364 0.4053
C5B C -0.3504(3) 0.6611(7) 0.4776(2)
C6B C -0.3982(4) 0.5448(7) 0.4282(3)
H6B H -0.4167 0.5701 0.3795
C7B C -0.4179(4) 0.3954(8) 0.4503(3)
H7B H -0.4508 0.3142 0.4173
C8B C -0.3902(4) 0.3617(7) 0.5211(3)
H8B H -0.4039 0.2575 0.5380
C9B C -0.3419(3) 0.4834(6) 0.5671(3)
C10B C -0.3113(4) 0.4600(7) 0.6449(3)
H9B H -0.3351 0.3516 0.6561
H10B H -0.3423 0.5464 0.6666
C11B C -0.1470(3) 0.5998(7) 0.6781(2)
H11B H -0.1703 0.7085 0.6651
C12B C -0.1434(4) 0.3343(7) 0.6962(2)
H12B H -0.1641 0.2236 0.6984
C13B C -0.0505(4) 0.3895(7) 0.7140(2)
H13B H 0.0077 0.3245 0.7313
C14B C 0.0306(4) 0.6591(7) 0.7069(2)
H14B H 0.0129 0.7750 0.7130
H15B H 0.0860 0.6276 0.7485
C15B C 0.0653(3) 0.6455(6) 0.6408(2)
C16B C 0.1520(4) 0.7187(6) 0.6387(2)
H16B H 0.1913 0.7799 0.6777
C17B C 0.1808(4) 0.7016(6) 0.5787(2)
H17B H 0.2409 0.7502 0.5758
C18B C 0.1216(4) 0.6131(6) 0.5229(2)
H18B H 0.1404 0.5984 0.4812
C19B C 0.0348(3) 0.5468(5) 0.5289(2)
loop_
_geom_bond_atom_site_label_1
_geom_bond_atom_site_label_2
_geom_bond_site_symmetry_1
_geom_bond_site_symmetry_2
P1 F1 1_555 1_555
F2 P1 1_555 1_555
F3 P1 1_555 1_555
P2 F4 1_555 1_555
F5 P2 1_555 1_555
F6 P2 1_555 1_555
F7 P2 1_555 1_555
F8 P2 1_555 1_555
F9 P2 1_555 1_555
N1 C1 1_555 1_555
N2 C1 1_555 1_555
N3 C5 1_555 1_555
N4 C10 1_555 1_555
N5 C11 1_555 1_555
N6 C15 1_555 1_555
C1 H1 1_555 1_555
C2 N1 1_555 1_555
H2 C2 1_555 1_555
C3 N2 1_555 1_555
H3 C3 1_555 1_555
C4 N2 1_555 1_555
H4 C4 1_555 1_555
H5 C4 1_555 1_555
C5 C4 1_555 1_555
C6 C5 1_555 1_555
H6 C6 1_555 1_555
C7 C6 1_555 1_555
H7 C7 1_555 1_555
C8 C7 1_555 1_555
H8 C8 1_555 1_555
C9 N3 1_555 1_555
C10 C9 1_555 1_555
H9 C10 1_555 1_555
H10 C10 1_555 1_555
C11 N4 1_555 1_555
H11 C11 1_555 1_555
C12 N4 1_555 1_555
H12 C12 1_555 1_555
C13 N5 1_555 1_555
H13 C13 1_555 1_555
C14 N5 1_555 1_555
H14 C14 1_555 1_555
H15 C14 1_555 1_555
C15 C14 1_555 1_555
C16 C15 1_555 1_555
H16 C16 1_555 1_555
C17 C16 1_555 1_555
H17 C17 1_555 1_555
C18 C17 1_555 1_555
H18 C18 1_555 1_555
C19 N6 1_555 1_555
F1A P1 1_555 1_555
F2A P1 1_555 1_555
F3A P1 1_555 1_555
N1B C1B 1_555 1_555
N2B C1B 1_555 1_555
N3B C5B 1_555 1_555
N4B C10B 1_555 1_555
N5B C11B 1_555 1_555
N6B C15B 1_555 1_555
C1B H1B 1_555 1_555
C2B N1B 1_555 1_555
H2B C2B 1_555 1_555
C3B N2B 1_555 1_555
H3B C3B 1_555 1_555
C4B N2B 1_555 1_555
H4B C4B 1_555 1_555
H5B C4B 1_555 1_555
C5B C4B 1_555 1_555
C6B C5B 1_555 1_555
H6B C6B 1_555 1_555
C7B C6B 1_555 1_555
H7B C7B 1_555 1_555
C8B C7B 1_555 1_555
H8B C8B 1_555 1_555
C9B N3B 1_555 1_555
C10B C9B 1_555 1_555
H9B C10B 1_555 1_555
H10B C10B 1_555 1_555
C11B N4B 1_555 1_555
H11B C11B 1_555 1_555
C12B N4B 1_555 1_555
H12B C12B 1_555 1_555
C13B N5B 1_555 1_555
H13B C13B 1_555 1_555
C14B N5B 1_555 1_555
H14B C14B 1_555 1_555
H15B C14B 1_555 1_555
C15B C14B 1_555 1_555
C16B C15B 1_555 1_555
H16B C16B 1_555 1_555
C17B C16B 1_555 1_555
H17B C17B 1_555 1_555
C18B C17B 1_555 1_555
H18B C18B 1_555 1_555
C19B C19 1_555 1_555
C2 C3 1_555 1_555
C8 C9 1_555 1_555
C12 C13 1_555 1_555
C18 C19 1_555 1_555
N6B C19B 1_555 1_555
C2B C3B 1_555 1_555
C8B C9B 1_555 1_555
C12B C13B 1_555 1_555
C18B C19B 1_555 1_555

#END
