
#######################################################################
#
#                 Cambridge Crystallographic Data Centre
#                                CCDC 
#
#######################################################################
#
# If this CIF has been generated from an entry in the Cambridge 
# Structural Database, then it will include bibliographic, chemical, 
# crystal, experimental, refinement or atomic coordinate data resulting 
# from the CCDC's data processing and validation procedures.
#
#######################################################################

data_FAZZUE
_chemical_formula_moiety         'C25 H29 N1 O6 S1'
_chemical_name_systematic        
8a-(2H-1,3-benzodioxol-5-yl)-2,2-dimethyl-6-[(4-methylphenyl)sulfonyl]octahydro-2H,3aH-[1,3]dioxolo[4,5-e]indole
_symmetry_cell_setting           monoclinic
_symmetry_space_group_name_H-M   'P 21/c'
_symmetry_Int_Tables_number      14
_space_group_name_Hall           '-P 2ybc'
loop_
_symmetry_equiv_pos_site_id
_symmetry_equiv_pos_as_xyz
1 x,y,z
2 -x,1/2+y,1/2-z
3 -x,-y,-z
4 x,1/2-y,1/2+z
_cell_length_a                   11.222(5)
_cell_length_b                   17.755(8)
_cell_length_c                   11.216(5)
_cell_angle_alpha                90
_cell_angle_beta                 96.775(8)
_cell_angle_gamma                90
_cell_volume                     2219.14
_exptl_crystal_description       block
_cell_formula_units_Z            4
loop_
_atom_site_label
_atom_site_type_symbol
_atom_site_fract_x
_atom_site_fract_y
_atom_site_fract_z
S1 S 0.24408(13) 0.20941(8) 0.38536(14)
N1 N 0.2811(4) 0.1395(2) 0.4745(4)
O1 O 0.3214(3) 0.2712(2) 0.4234(4)
O2 O 0.2423(3) 0.1812(2) 0.2665(3)
O3 O 0.5324(3) -0.0204(2) 0.7115(3)
O4 O 0.3576(3) -0.02961(19) 0.7924(3)
O5 O -0.0533(4) -0.0370(3) 0.8691(5)
O6 O -0.1898(3) 0.0552(2) 0.8075(3)
C1 C -0.2605(6) 0.2864(4) 0.4761(6)
H1 H -0.3125 0.2899 0.4020
H2 H -0.2592 0.3338 0.5175
H3 H -0.2894 0.2478 0.5254
C2 C -0.1357(5) 0.2669(3) 0.4504(5)
C3 C -0.1124(5) 0.2107(3) 0.3711(5)
H4 H -0.1762 0.1835 0.3318
C4 C 0.0026(5) 0.1937(3) 0.3486(5)
H5 H 0.0164 0.1550 0.2961
C5 C 0.0972(5) 0.2350(3) 0.4050(5)
C6 C 0.0761(5) 0.2919(3) 0.4824(5)
H6 H 0.1397 0.3196 0.5208
C7 C -0.0399(6) 0.3079(3) 0.5030(5)
H7 H -0.0536 0.3475 0.5540
C8 C 0.2271(5) 0.0649(3) 0.4435(5)
H8 H 0.2542 0.0449 0.3709
H9 H 0.1401 0.0675 0.4333
C9 C 0.2727(5) 0.0185(3) 0.5514(5)
H10 H 0.3530 0.0001 0.5445
H11 H 0.2205 -0.0242 0.5596
C10 C 0.2733(4) 0.0710(3) 0.6586(4)
C11 C 0.3070(4) 0.1490(3) 0.6062(5)
H12 H 0.2535 0.1877 0.6324
C12 C 0.4368(5) 0.1735(3) 0.6407(5)
H13 H 0.4575 0.2118 0.5850
H14 H 0.4449 0.1955 0.7204
C13 C 0.5224(4) 0.1077(3) 0.6388(5)
H15 H 0.6048 0.1254 0.6498
H16 H 0.5087 0.0817 0.5624
C14 C 0.5000(4) 0.0549(3) 0.7402(5)
H17 H 0.5485 0.0709 0.8142
C15 C 0.3685(4) 0.0487(3) 0.7626(5)
H18 H 0.3564 0.0791 0.8332
C16 C 0.4665(4) -0.0691(3) 0.7799(5)
C17 C 0.5313(5) -0.0851(3) 0.9016(5)
H19 H 0.5578 -0.0386 0.9397
H20 H 0.5994 -0.1166 0.8937
H21 H 0.4781 -0.1104 0.9496
C18 C 0.4389(5) -0.1399(3) 0.7085(6)
H22 H 0.3954 -0.1741 0.7536
H23 H 0.5125 -0.1631 0.6919
H24 H 0.3912 -0.1278 0.6342
C19 C 0.1472(4) 0.0722(3) 0.6986(5)
C20 C 0.0626(5) 0.1257(3) 0.6621(5)
H25 H 0.0848 0.1651 0.6146
C21 C -0.0540(5) 0.1249(3) 0.6917(5)
H26 H -0.1097 0.1613 0.6629
C22 C -0.0829(4) 0.0690(3) 0.7637(5)
C23 C -0.0009(5) 0.0150(3) 0.7997(5)
C24 C 0.1128(5) 0.0141(3) 0.7707(5)
H27 H 0.1661 -0.0239 0.7980
C25 C -0.1699(5) -0.0097(3) 0.8803(6)
H28 H -0.1767 0.0028 0.9634
H29 H -0.2292 -0.0479 0.8548
loop_
_geom_bond_atom_site_label_1
_geom_bond_atom_site_label_2
_geom_bond_site_symmetry_1
_geom_bond_site_symmetry_2
S1 N1 1_555 1_555
N1 C8 1_555 1_555
O1 S1 1_555 1_555
O2 S1 1_555 1_555
O3 C14 1_555 1_555
O4 C15 1_555 1_555
O5 C23 1_555 1_555
O6 C22 1_555 1_555
C1 H1 1_555 1_555
H2 C1 1_555 1_555
H3 C1 1_555 1_555
C2 C1 1_555 1_555
C3 C2 1_555 1_555
H4 C3 1_555 1_555
C4 C3 1_555 1_555
H5 C4 1_555 1_555
C5 S1 1_555 1_555
C6 C5 1_555 1_555
H6 C6 1_555 1_555
C7 C2 1_555 1_555
H7 C7 1_555 1_555
C8 H8 1_555 1_555
H9 C8 1_555 1_555
C9 C8 1_555 1_555
H10 C9 1_555 1_555
H11 C9 1_555 1_555
C10 C9 1_555 1_555
C11 N1 1_555 1_555
H12 C11 1_555 1_555
C12 C11 1_555 1_555
H13 C12 1_555 1_555
H14 C12 1_555 1_555
C13 C12 1_555 1_555
H15 C13 1_555 1_555
H16 C13 1_555 1_555
C14 C13 1_555 1_555
H17 C14 1_555 1_555
C15 C10 1_555 1_555
H18 C15 1_555 1_555
C16 O3 1_555 1_555
C17 C16 1_555 1_555
H19 C17 1_555 1_555
H20 C17 1_555 1_555
H21 C17 1_555 1_555
C18 C16 1_555 1_555
H22 C18 1_555 1_555
H23 C18 1_555 1_555
H24 C18 1_555 1_555
C19 C10 1_555 1_555
C20 C19 1_555 1_555
H25 C20 1_555 1_555
C21 C20 1_555 1_555
H26 C21 1_555 1_555
C22 C21 1_555 1_555
C23 C22 1_555 1_555
C24 C19 1_555 1_555
H27 C24 1_555 1_555
C25 O5 1_555 1_555
H28 C25 1_555 1_555
H29 C25 1_555 1_555
O4 C16 1_555 1_555
O6 C25 1_555 1_555
C4 C5 1_555 1_555
C6 C7 1_555 1_555
C10 C11 1_555 1_555
C14 C15 1_555 1_555
C23 C24 1_555 1_555

#END
