
#######################################################################
#
#                 Cambridge Crystallographic Data Centre
#                                CCDC 
#
#######################################################################
#
# If this CIF has been generated from an entry in the Cambridge 
# Structural Database, then it will include bibliographic, chemical, 
# crystal, experimental, refinement or atomic coordinate data resulting 
# from the CCDC's data processing and validation procedures.
#
#######################################################################

data_FEBNIM
_chemical_formula_moiety         'C21 H10 B1 F10 1-,C9 H19 N1,Li1 1+'
_chemical_name_systematic        
'lithium bis(pentafluorophenyl)(3-phenylpropyl)borate 2,2,6,6-tetramethylpiperidine'
_symmetry_cell_setting           triclinic
_symmetry_space_group_name_H-M   'P -1'
_symmetry_Int_Tables_number      2
_space_group_name_Hall           '-P 1'
loop_
_symmetry_equiv_pos_site_id
_symmetry_equiv_pos_as_xyz
1 x,y,z
2 -x,-y,-z
_cell_length_a                   12.3926(9)
_cell_length_b                   14.9007(13)
_cell_length_c                   16.7950(14)
_cell_angle_alpha                72.685(5)
_cell_angle_beta                 82.243(5)
_cell_angle_gamma                84.547(5)
_cell_volume                     2928.76
_exptl_crystal_colour            colorless
_exptl_crystal_description       prism
_cell_formula_units_Z            4
loop_
_atom_site_label
_atom_site_type_symbol
_atom_site_fract_x
_atom_site_fract_y
_atom_site_fract_z
B1 B 0.8205(3) 0.7666(3) 0.5563(3)
C1 C 0.9063(3) 0.8000(2) 0.4909(2)
H1 H 0.9294 0.8608 0.4852
C2 C 0.9648(3) 0.7499(2) 0.4294(2)
H2 H 0.9637 0.6811 0.4557
H3 H 1.042 0.7666 0.4169
C3 C 0.9123(3) 0.7759(3) 0.3463(2)
H4 H 0.9117 0.845 0.3208
H5 H 0.9578 0.7463 0.3067
C4 C 0.7974(3) 0.7450(2) 0.3577(2)
C5 C 0.7081(3) 0.8093(3) 0.3533(2)
H6 H 0.7196 0.8743 0.3419
C6 C 0.6021(3) 0.7805(3) 0.3652(3)
H7 H 0.5421 0.8257 0.3617
C7 C 0.5836(3) 0.6859(3) 0.3821(2)
H8 H 0.5113 0.6663 0.3893
C8 C 0.6707(3) 0.6211(3) 0.3884(2)
H9 H 0.6586 0.556 0.4014
C9 C 0.7775(3) 0.6504(3) 0.3757(2)
H10 H 0.8372 0.6049 0.3794
C10 C 0.7601(3) 0.8298(2) 0.6136(2)
C11 C 0.7983(3) 0.8252(2) 0.6883(2)
F1 F 0.89114(16) 0.76798(13) 0.70902(12)
C12 C 0.7521(3) 0.8718(3) 0.7441(2)
F2 F 0.7963(2) 0.86590(16) 0.81473(13)
C13 C 0.6576(3) 0.9277(3) 0.7258(2)
F3 F 0.60856(19) 0.97294(16) 0.78049(15)
C14 C 0.6165(3) 0.9364(2) 0.6513(3)
F4 F 0.52569(18) 0.99350(15) 0.63398(16)
C15 C 0.6674(3) 0.8891(2) 0.5971(2)
F5 F 0.62371(17) 0.90247(14) 0.52474(14)
C16 C 0.7871(3) 0.6592(2) 0.5862(2)
C17 C 0.8615(3) 0.5849(2) 0.6106(2)
F6 F 0.96733(17) 0.60250(14) 0.61572(14)
C18 C 0.8386(3) 0.4910(2) 0.6316(2)
F7 F 0.9171(2) 0.42196(15) 0.65408(16)
C19 C 0.7340(3) 0.4691(2) 0.6292(2)
F8 F 0.7097(2) 0.37899(15) 0.64700(16)
C20 C 0.6547(3) 0.5406(3) 0.6083(2)
F9 F 0.55198(19) 0.51868(16) 0.60741(16)
C21 C 0.6813(3) 0.6331(2) 0.5889(2)
F10 F 0.60148(16) 0.69982(15) 0.56911(14)
Li1 Li 1.0047(5) 0.7417(4) 0.6064(4)
N1 N 1.1485(2) 0.7623(2) 0.6424(2)
H11 H 1.135(3) 0.752(3) 0.694(3)
C22 C 1.1750(3) 0.8655(2) 0.6104(2)
C23 C 1.2854(3) 0.8794(3) 0.6364(3)
H12 H 1.3062 0.9447 0.6073
H13 H 1.2771 0.8715 0.6975
C24 C 1.3762(3) 0.8115(3) 0.6161(3)
H14 H 1.4441 0.8219 0.6362
H15 H 1.3899 0.8228 0.5545
C25 C 1.3447(3) 0.7104(3) 0.6579(3)
H16 H 1.3381 0.6982 0.7196
H17 H 1.4039 0.667 0.6425
C26 C 1.2376(3) 0.6889(2) 0.6334(2)
C27 C 1.0831(3) 0.9192(2) 0.6500(2)
H18 H 1.015 0.9159 0.6277
H19 H 1.1007 0.9851 0.6369
H20 H 1.0746 0.891 0.711
C28 C 1.1757(3) 0.9010(2) 0.5148(2)
H21 H 1.2433 0.8778 0.488
H22 H 1.1711 0.97 0.4967
H23 H 1.113 0.8779 0.4985
C29 C 1.2514(3) 0.6794(3) 0.5447(2)
H24 H 1.1802 0.6718 0.5291
H25 H 1.3003 0.6243 0.5424
H26 H 1.2827 0.7362 0.5054
C30 C 1.1998(3) 0.5953(2) 0.6950(2)
H27 H 1.186 0.6017 0.7519
H28 H 1.2567 0.5453 0.6934
H29 H 1.1326 0.5794 0.6788
B2 B 0.6691(3) 0.2557(3) 0.9119(3)
C31 C 0.6016(3) 0.2127(2) 0.9881(2)
H30 H 0.5885 0.1485 0.9969
C32 C 0.5489(3) 0.2552(2) 1.0557(2)
H31 H 0.4743 0.2328 1.0743
H32 H 0.5424 0.3246 1.0323
C33 C 0.6148(3) 0.2292(3) 1.1322(2)
H33 H 0.5722 0.2519 1.1774
H34 H 0.6241 0.1597 1.1535
C34 C 0.7256(3) 0.2692(3) 1.1136(2)
C35 C 0.7354(4) 0.3663(3) 1.0889(3)
H35 H 0.6712 0.4069 1.0826
C36 C 0.8366(4) 0.4056(4) 1.0730(3)
H36 H 0.8412 0.472 1.0554
C37 C 0.9297(4) 0.3473(5) 1.0830(3)
H37 H 0.9988 0.3735 1.0737
C38 C 0.9232(4) 0.2511(5) 1.1062(3)
H38 H 0.9878 0.2111 1.1129
C39 C 0.8204(4) 0.2120(4) 1.1202(3)
H39 H 0.8164 0.1456 1.1343
C40 C 0.7269(3) 0.1979(2) 0.8512(2)
C41 C 0.6817(3) 0.1978(2) 0.7801(2)
F11 F 0.58216(15) 0.24597(13) 0.76714(12)
C42 C 0.7269(3) 0.1529(2) 0.7226(2)
F12 F 0.67759(18) 0.15551(15) 0.65494(13)
C43 C 0.8249(3) 0.1011(2) 0.7361(2)
F13 F 0.87252(18) 0.05568(15) 0.68122(14)
C44 C 0.8736(3) 0.0964(2) 0.8066(2)
F14 F 0.96769(17) 0.04378(15) 0.82054(14)
C45 C 0.8240(3) 0.1435(2) 0.8623(2)
F15 F 0.87464(16) 0.13747(16) 0.93006(13)
C46 C 0.6803(3) 0.3679(2) 0.8770(2)
C47 C 0.5930(3) 0.4305(3) 0.8567(2)
F16 F 0.49181(17) 0.39704(14) 0.86126(15)
C48 C 0.5987(3) 0.5272(3) 0.8296(3)
F17 F 0.5088(2) 0.58387(15) 0.80916(17)
C49 C 0.6968(4) 0.5648(3) 0.8232(3)
F18 F 0.7040(2) 0.65905(16) 0.79946(18)
C50 C 0.7877(3) 0.5061(3) 0.8419(3)
F19 F 0.8855(2) 0.54299(19) 0.83381(19)
C51 C 0.7790(3) 0.4103(3) 0.8667(2)
F20 F 0.87058(17) 0.35477(16) 0.88331(15)
Li2 Li 0.4745(5) 0.2559(4) 0.8870(4)
N2 N 0.3247(2) 0.2110(2) 0.8812(2)
H40 H 0.324(3) 0.217(3) 0.830(3)
C52 C 0.2261(3) 0.2674(3) 0.9070(2)
C53 C 0.1205(3) 0.2198(3) 0.9099(3)
H41 H 0.0594 0.252 0.9371
H42 H 0.1053 0.228 0.8517
C54 C 0.1239(3) 0.1149(3) 0.9569(3)
H43 H 0.133 0.1055 1.0165
H44 H 0.0548 0.088 0.9544
C55 C 0.2192(3) 0.0659(3) 0.9161(2)
H45 H 0.2076 0.0736 0.8572
H46 H 0.2217 -0.0023 0.946
C56 C 0.3282(3) 0.1051(2) 0.9176(2)
C57 C 0.2378(3) 0.2838(3) 0.9909(2)
H47 H 0.2294 0.2245 1.0359
H48 H 0.1815 0.3308 1.0018
H49 H 0.3101 0.3065 0.9888
C58 C 0.2252(3) 0.3627(3) 0.8410(2)
H50 H 0.2893 0.3957 0.8426
H51 H 0.1588 0.4002 0.8525
H52 H 0.2269 0.3537 0.7854
C59 C 0.4170(3) 0.0665(2) 0.8632(2)
H53 H 0.4003 0.0873 0.8049
H54 H 0.4209 -0.0025 0.8831
H55 H 0.4873 0.0896 0.8665
C60 C 0.3580(3) 0.0757(2) 1.0081(2)
H56 H 0.4215 0.1088 1.0105
H57 H 0.3753 0.0076 1.0261
H58 H 0.2962 0.0918 1.0453
loop_
_geom_bond_atom_site_label_1
_geom_bond_atom_site_label_2
_geom_bond_site_symmetry_1
_geom_bond_site_symmetry_2
B1 C1 1_555 1_555
C1 H1 1_555 1_555
C2 C1 1_555 1_555
H2 C2 1_555 1_555
H3 C2 1_555 1_555
C3 C2 1_555 1_555
H4 C3 1_555 1_555
H5 C3 1_555 1_555
C4 C3 1_555 1_555
C5 C4 1_555 1_555
H6 C5 1_555 1_555
C6 C5 1_555 1_555
H7 C6 1_555 1_555
C7 C6 1_555 1_555
H8 C7 1_555 1_555
C8 C7 1_555 1_555
H9 C8 1_555 1_555
C9 C4 1_555 1_555
H10 C9 1_555 1_555
C10 B1 1_555 1_555
C11 C10 1_555 1_555
F1 C11 1_555 1_555
C12 C11 1_555 1_555
F2 C12 1_555 1_555
C13 C12 1_555 1_555
F3 C13 1_555 1_555
C14 C13 1_555 1_555
F4 C14 1_555 1_555
C15 C10 1_555 1_555
F5 C15 1_555 1_555
C16 B1 1_555 1_555
C17 C16 1_555 1_555
F6 C17 1_555 1_555
C18 C17 1_555 1_555
F7 C18 1_555 1_555
C19 C18 1_555 1_555
F8 C19 1_555 1_555
C20 C19 1_555 1_555
F9 C20 1_555 1_555
C21 C16 1_555 1_555
F10 C21 1_555 1_555
N1 H11 1_555 1_555
C22 N1 1_555 1_555
C23 C22 1_555 1_555
H12 C23 1_555 1_555
H13 C23 1_555 1_555
C24 C23 1_555 1_555
H14 C24 1_555 1_555
H15 C24 1_555 1_555
C25 C24 1_555 1_555
H16 C25 1_555 1_555
H17 C25 1_555 1_555
C26 N1 1_555 1_555
C27 C22 1_555 1_555
H18 C27 1_555 1_555
H19 C27 1_555 1_555
H20 C27 1_555 1_555
C28 C22 1_555 1_555
H21 C28 1_555 1_555
H22 C28 1_555 1_555
H23 C28 1_555 1_555
C29 C26 1_555 1_555
H24 C29 1_555 1_555
H25 C29 1_555 1_555
H26 C29 1_555 1_555
C30 C26 1_555 1_555
H27 C30 1_555 1_555
H28 C30 1_555 1_555
H29 C30 1_555 1_555
B2 C31 1_555 1_555
C31 H30 1_555 1_555
C32 C31 1_555 1_555
H31 C32 1_555 1_555
H32 C32 1_555 1_555
C33 C32 1_555 1_555
H33 C33 1_555 1_555
H34 C33 1_555 1_555
C34 C33 1_555 1_555
C35 C34 1_555 1_555
H35 C35 1_555 1_555
C36 C35 1_555 1_555
H36 C36 1_555 1_555
C37 C36 1_555 1_555
H37 C37 1_555 1_555
C38 C37 1_555 1_555
H38 C38 1_555 1_555
C39 C34 1_555 1_555
H39 C39 1_555 1_555
C40 B2 1_555 1_555
C41 C40 1_555 1_555
F11 C41 1_555 1_555
C42 C41 1_555 1_555
F12 C42 1_555 1_555
C43 C42 1_555 1_555
F13 C43 1_555 1_555
C44 C43 1_555 1_555
F14 C44 1_555 1_555
C45 C40 1_555 1_555
F15 C45 1_555 1_555
C46 B2 1_555 1_555
C47 C46 1_555 1_555
F16 C47 1_555 1_555
C48 C47 1_555 1_555
F17 C48 1_555 1_555
C49 C48 1_555 1_555
F18 C49 1_555 1_555
C50 C49 1_555 1_555
F19 C50 1_555 1_555
C51 C46 1_555 1_555
F20 C51 1_555 1_555
N2 H40 1_555 1_555
C52 N2 1_555 1_555
C53 C52 1_555 1_555
H41 C53 1_555 1_555
H42 C53 1_555 1_555
C54 C53 1_555 1_555
H43 C54 1_555 1_555
H44 C54 1_555 1_555
C55 C54 1_555 1_555
H45 C55 1_555 1_555
H46 C55 1_555 1_555
C56 N2 1_555 1_555
C57 C52 1_555 1_555
H47 C57 1_555 1_555
H48 C57 1_555 1_555
H49 C57 1_555 1_555
C58 C52 1_555 1_555
H50 C58 1_555 1_555
H51 C58 1_555 1_555
H52 C58 1_555 1_555
C59 C56 1_555 1_555
H53 C59 1_555 1_555
H54 C59 1_555 1_555
H55 C59 1_555 1_555
C60 C56 1_555 1_555
H56 C60 1_555 1_555
H57 C60 1_555 1_555
H58 C60 1_555 1_555
C8 C9 1_555 1_555
C14 C15 1_555 1_555
C20 C21 1_555 1_555
C25 C26 1_555 1_555
C38 C39 1_555 1_555
C44 C45 1_555 1_555
C50 C51 1_555 1_555
C55 C56 1_555 1_555

#END
