
#######################################################################
#
#                 Cambridge Crystallographic Data Centre
#                                CCDC 
#
#######################################################################
#
# If this CIF has been generated from an entry in the Cambridge 
# Structural Database, then it will include bibliographic, chemical, 
# crystal, experimental, refinement or atomic coordinate data resulting 
# from the CCDC's data processing and validation procedures.
#
#######################################################################

data_FEBXUI
_chemical_formula_moiety         'C26 H20 P1 1+,F6 P1 1-'
_chemical_name_systematic        
'1,1,2-triphenyl-1H-phosphindol-1-ium hexafluorophosphate'
_symmetry_cell_setting           monoclinic
_symmetry_space_group_name_H-M   'P 21/c'
_symmetry_Int_Tables_number      14
_space_group_name_Hall           '-P 2ybc'
loop_
_symmetry_equiv_pos_site_id
_symmetry_equiv_pos_as_xyz
1 x,y,z
2 -x,1/2+y,1/2-z
3 -x,-y,-z
4 x,1/2-y,1/2+z
_cell_length_a                   9.1887(2)
_cell_length_b                   19.4913(3)
_cell_length_c                   13.1164(2)
_cell_angle_alpha                90
_cell_angle_beta                 101.3225(14)
_cell_angle_gamma                90
_cell_volume                     2303.42
_exptl_crystal_colour            colorless
_exptl_crystal_description       prism
_cell_formula_units_Z            4
_exptl_crystal_recrystallization_method chloroform/toluene
loop_
_atom_site_label
_atom_site_type_symbol
_atom_site_fract_x
_atom_site_fract_y
_atom_site_fract_z
P1 P 0.21806(4) 0.22666(2) 0.60659(3)
C1 C 0.36476(17) 0.25299(8) 0.71248(12)
C2 C 0.38907(19) 0.32053(9) 0.69943(13)
H1 H 0.4660 0.3446 0.7442
C3 C 0.29090(19) 0.35472(9) 0.61273(13)
C4 C 0.18871(18) 0.31094(8) 0.55172(13)
C5 C 0.0835(2) 0.33445(9) 0.46937(13)
H2 H 0.0149 0.3038 0.4290
C6 C 0.0808(2) 0.40443(10) 0.44700(14)
H3 H 0.0099 0.4219 0.3903
C7 C 0.1809(2) 0.44884(9) 0.50694(15)
H4 H 0.1769 0.4964 0.4910
C8 C 0.2870(2) 0.42471(9) 0.59011(14)
H5 H 0.3554 0.4554 0.6306
C9 C 0.44070(17) 0.20818(9) 0.79674(12)
C10 C 0.55247(19) 0.23463(9) 0.87581(13)
H6 H 0.5795 0.2816 0.8747
C11 C 0.6233(2) 0.19253(10) 0.95526(14)
H7 H 0.6986 0.2109 1.0083
C12 C 0.5851(2) 0.12374(10) 0.95801(14)
H8 H 0.6343 0.0950 1.0126
C13 C 0.4753(2) 0.09730(9) 0.88095(14)
H9 H 0.4489 0.0502 0.8827
C14 C 0.40314(18) 0.13892(9) 0.80108(13)
H10 H 0.3274 0.1201 0.7487
C15 C 0.05249(17) 0.19746(8) 0.64602(12)
C16 C -0.02879(18) 0.24599(9) 0.69044(13)
H11 H 0.0024 0.2925 0.6966
C17 C -0.15491(19) 0.22560(9) 0.72527(13)
H12 H -0.2106 0.2582 0.7555
C18 C -0.20001(18) 0.15737(10) 0.71589(13)
H13 H -0.2857 0.1433 0.7408
C19 C -0.12049(19) 0.10974(9) 0.67037(14)
H14 H -0.1531 0.0634 0.6632
C20 C 0.00665(18) 0.12923(8) 0.63512(13)
H15 H 0.0613 0.0966 0.6041
C21 C 0.28191(18) 0.16524(8) 0.52396(13)
C22 C 0.18292(19) 0.13910(9) 0.43834(14)
H16 H 0.0825 0.1540 0.4236
C23 C 0.2330(2) 0.09110(9) 0.37497(14)
H17 H 0.1670 0.0732 0.3161
C24 C 0.37952(19) 0.06922(9) 0.39758(13)
H18 H 0.4124 0.0356 0.3548
C25 C 0.47830(19) 0.09580(9) 0.48167(13)
H19 H 0.5787 0.0809 0.4959
C26 C 0.43021(18) 0.14426(9) 0.54499(13)
H20 H 0.4977 0.1631 0.6024
P2 P 0.21336(5) -0.05461(2) 0.70475(3)
F1 F 0.35058(13) -0.07179(7) 0.79694(10)
F2 F 0.07853(13) -0.03680(6) 0.61264(9)
F3 F 0.31867(12) -0.00599(6) 0.65257(9)
F4 F 0.10775(13) -0.10321(6) 0.75679(10)
F5 F 0.17166(12) 0.00904(5) 0.76996(8)
F6 F 0.25622(15) -0.11911(6) 0.64075(10)
loop_
_geom_bond_atom_site_label_1
_geom_bond_atom_site_label_2
_geom_bond_site_symmetry_1
_geom_bond_site_symmetry_2
P1 C1 1_555 1_555
C1 C2 1_555 1_555
C2 H1 1_555 1_555
C3 C2 1_555 1_555
C4 P1 1_555 1_555
C5 C4 1_555 1_555
H2 C5 1_555 1_555
C6 C5 1_555 1_555
H3 C6 1_555 1_555
C7 C6 1_555 1_555
H4 C7 1_555 1_555
C8 C3 1_555 1_555
H5 C8 1_555 1_555
C9 C1 1_555 1_555
C10 C9 1_555 1_555
H6 C10 1_555 1_555
C11 C10 1_555 1_555
H7 C11 1_555 1_555
C12 C11 1_555 1_555
H8 C12 1_555 1_555
C13 C12 1_555 1_555
H9 C13 1_555 1_555
C14 C9 1_555 1_555
H10 C14 1_555 1_555
C15 P1 1_555 1_555
C16 C15 1_555 1_555
H11 C16 1_555 1_555
C17 C16 1_555 1_555
H12 C17 1_555 1_555
C18 C17 1_555 1_555
H13 C18 1_555 1_555
C19 C18 1_555 1_555
H14 C19 1_555 1_555
C20 C15 1_555 1_555
H15 C20 1_555 1_555
C21 P1 1_555 1_555
C22 C21 1_555 1_555
H16 C22 1_555 1_555
C23 C22 1_555 1_555
H17 C23 1_555 1_555
C24 C23 1_555 1_555
H18 C24 1_555 1_555
C25 C24 1_555 1_555
H19 C25 1_555 1_555
C26 C21 1_555 1_555
H20 C26 1_555 1_555
P2 F1 1_555 1_555
F2 P2 1_555 1_555
F3 P2 1_555 1_555
F4 P2 1_555 1_555
F5 P2 1_555 1_555
F6 P2 1_555 1_555
C3 C4 1_555 1_555
C7 C8 1_555 1_555
C13 C14 1_555 1_555
C19 C20 1_555 1_555
C25 C26 1_555 1_555

#END
