
#######################################################################
#
#                 Cambridge Crystallographic Data Centre
#                                CCDC 
#
#######################################################################
#
# If this CIF has been generated from an entry in the Cambridge 
# Structural Database, then it will include bibliographic, chemical, 
# crystal, experimental, refinement or atomic coordinate data resulting 
# from the CCDC's data processing and validation procedures.
#
#######################################################################

data_FECGUS
_chemical_formula_moiety         'C10 H8 N2,C7 H5 F1 O2'
_chemical_name_systematic        "4,4'-bipyridine 2-fluorobenzoic acid"
_symmetry_cell_setting           monoclinic
_symmetry_space_group_name_H-M   'P 21/n'
_symmetry_Int_Tables_number      14
_space_group_name_Hall           '-P 2yn'
loop_
_symmetry_equiv_pos_site_id
_symmetry_equiv_pos_as_xyz
1 x,y,z
2 1/2-x,1/2+y,1/2-z
3 -x,-y,-z
4 1/2+x,1/2-y,1/2+z
_cell_length_a                   11.012(2)
_cell_length_b                   4.0528(8)
_cell_length_c                   32.335(6)
_cell_angle_alpha                90
_cell_angle_beta                 94.648(4)
_cell_angle_gamma                90
_cell_volume                     1438.35
_exptl_crystal_colour            colorless
_exptl_crystal_description       Block
_cell_formula_units_Z            4
loop_
_atom_site_label
_atom_site_type_symbol
_atom_site_fract_x
_atom_site_fract_y
_atom_site_fract_z
C1 C 0.8707(3) -0.0425(7) 0.55909(8)
H1 H 0.9526 -0.0014 0.5668
C2 C 0.8347(3) -0.1710(8) 0.52002(8)
H2 H 0.8941 -0.2141 0.5019
N1 N 0.7189(2) -0.2346(6) 0.50752(7)
C3 C 0.6355(3) -0.1735(8) 0.53338(8)
H3 H 0.5546 -0.2199 0.5248
C4 C 0.6614(2) -0.0450(7) 0.57232(8)
H4 H 0.599 -0.0031 0.5894
C5 C 0.7830(2) 0.0228(5) 0.58629(7)
C6 C 0.81473(19) 0.1441(5) 0.62906(6)
C7 C 0.7416(2) 0.0708(6) 0.66082(7)
H5 H 0.6702 -0.0498 0.6553
C8 C 0.7751(2) 0.1775(7) 0.70072(7)
H6 H 0.7249 0.1222 0.7215
N2 N 0.8740(2) 0.3532(6) 0.71126(6)
C9 C 0.9437(2) 0.4258(7) 0.68055(8)
H7 H 1.0138 0.5495 0.6871
C10 C 0.9188(2) 0.3296(6) 0.63982(7)
H8 H 0.9709 0.388 0.6198
C11 C 0.7821(3) 0.1388(6) 0.34872(8)
H9 H 0.8582 0.0934 0.3622
C12 C 0.7559(3) 0.0303(7) 0.30887(9)
H10 H 0.8138 -0.0876 0.2956
C13 C 0.6430(3) 0.0964(7) 0.28837(8)
H11 H 0.6252 0.0224 0.2613
C14 C 0.5579(3) 0.2695(7) 0.30777(8)
H12 H 0.4821 0.3153 0.2942
C15 C 0.5863(2) 0.3757(6) 0.34802(8)
C16 C 0.6977(2) 0.3149(6) 0.36943(7)
C17 C 0.7370(2) 0.4332(7) 0.41272(8)
O1 O 0.8424(2) 0.4390(7) 0.42563(6)
O2 O 0.6481(2) 0.5281(7) 0.43354(7)
H13 H 0.680(4) 0.589(12) 0.4582(16)
F1 F 0.50193(15) 0.5458(5) 0.36602(6)
loop_
_geom_bond_atom_site_label_1
_geom_bond_atom_site_label_2
_geom_bond_site_symmetry_1
_geom_bond_site_symmetry_2
C1 H1 1_555 1_555
C2 C1 1_555 1_555
H2 C2 1_555 1_555
N1 C2 1_555 1_555
C3 N1 1_555 1_555
H3 C3 1_555 1_555
C4 C3 1_555 1_555
H4 C4 1_555 1_555
C5 C1 1_555 1_555
C6 C5 1_555 1_555
C7 C6 1_555 1_555
H5 C7 1_555 1_555
C8 C7 1_555 1_555
H6 C8 1_555 1_555
N2 C8 1_555 1_555
C9 N2 1_555 1_555
H7 C9 1_555 1_555
C10 C6 1_555 1_555
H8 C10 1_555 1_555
C11 H9 1_555 1_555
C12 C11 1_555 1_555
H10 C12 1_555 1_555
C13 C12 1_555 1_555
H11 C13 1_555 1_555
C14 C13 1_555 1_555
H12 C14 1_555 1_555
C15 C14 1_555 1_555
C16 C11 1_555 1_555
C17 C16 1_555 1_555
O1 C17 1_555 1_555
O2 C17 1_555 1_555
H13 O2 1_555 1_555
F1 C15 1_555 1_555
C4 C5 1_555 1_555
C9 C10 1_555 1_555
C15 C16 1_555 1_555

#END
