
#######################################################################
#
#                 Cambridge Crystallographic Data Centre
#                                CCDC 
#
#######################################################################
#
# If this CIF has been generated from an entry in the Cambridge 
# Structural Database, then it will include bibliographic, chemical, 
# crystal, experimental, refinement or atomic coordinate data resulting 
# from the CCDC's data processing and validation procedures.
#
#######################################################################

data_FECHAZ
_chemical_formula_moiety         'C7 H7 N1 O1,2(C7 H5 N1 O4)'
_chemical_name_systematic        'benzamide bis(2-nitrobenzoic acid)'
_symmetry_cell_setting           triclinic
_symmetry_space_group_name_H-M   'P -1'
_symmetry_Int_Tables_number      2
_space_group_name_Hall           '-P 1'
loop_
_symmetry_equiv_pos_site_id
_symmetry_equiv_pos_as_xyz
1 x,y,z
2 -x,-y,-z
_cell_length_a                   7.988(3)
_cell_length_b                   11.004(5)
_cell_length_c                   12.725(6)
_cell_angle_alpha                73.939(10)
_cell_angle_beta                 75.605(10)
_cell_angle_gamma                89.042(11)
_cell_volume                     1039.49
_exptl_crystal_colour            colorless
_exptl_crystal_description       Plate
_cell_formula_units_Z            2
loop_
_atom_site_label
_atom_site_type_symbol
_atom_site_fract_x
_atom_site_fract_y
_atom_site_fract_z
N1 N 0.7798(5) 0.8392(4) 0.5730(3)
C1 C 0.5910(6) 0.8277(4) 0.5961(4)
C2 C 0.5217(7) 0.8179(4) 0.5088(4)
H1 H 0.5933 0.8116 0.4409
C3 C 0.3454(7) 0.8176(4) 0.5250(5)
H2 H 0.2968 0.8119 0.4672
C4 C 0.2404(7) 0.8257(4) 0.6256(5)
H3 H 0.1211 0.8265 0.6355
C5 C 0.3115(6) 0.8328(3) 0.7124(4)
H4 H 0.2387 0.8364 0.7808
C6 C 0.4883(5) 0.8346(3) 0.6998(4)
C7 C 0.5568(5) 0.8367(4) 0.7986(3)
O1 O 0.6802(4) 0.7606(3) 0.8144(3)
H5 H 0.729(7) 0.774(5) 0.869(4)
O2 O 0.4958(4) 0.9021(3) 0.8601(3)
O3 O 0.8422(5) 0.9227(4) 0.6005(4)
O4 O 0.8643(5) 0.7694(4) 0.5243(3)
C8 C 1.0864(6) 0.7856(4) 0.0805(4)
H6 H 1.1156 0.7439 0.0247
C9 C 1.2009(6) 0.7917(4) 0.1450(4)
H7 H 1.306 0.7536 0.1324
C10 C 1.1605(7) 0.8536(4) 0.2272(4)
H8 H 1.2376 0.8575 0.2704
C11 C 1.0055(7) 0.9097(4) 0.2453(4)
H9 H 0.9782 0.9529 0.3001
C12 C 0.8897(6) 0.9025(4) 0.1828(4)
H10 H 0.7838 0.9392 0.1972
C13 C 0.9289(5) 0.8411(3) 0.0986(3)
C14 C 0.8105(5) 0.8351(3) 0.0267(3)
N2 N 0.6681(5) 0.8978(4) 0.0372(4)
H11 H 0.632(10) 0.935(6) 0.092(5)
H12 H 0.615(7) 0.905(5) -0.021(4)
O5 O 0.8449(4) 0.7701(3) -0.0418(2)
N3 N 0.5079(6) 0.5785(4) 0.3156(3)
C15 C 0.6870(5) 0.5420(4) 0.2825(4)
C16 C 0.7916(6) 0.5495(4) 0.3523(4)
H13 H 0.7505 0.5808 0.4142
C17 C 0.9578(6) 0.5098(4) 0.3288(4)
H14 H 1.0302 0.5145 0.3748
C18 C 1.0164(6) 0.4633(4) 0.2374(4)
H15 H 1.1278 0.4349 0.2229
C19 C 0.9130(5) 0.4581(4) 0.1669(4)
H16 H 0.9559 0.4274 0.1048
C20 C 0.7438(5) 0.4983(3) 0.1875(3)
C21 C 0.6359(5) 0.4995(3) 0.1078(3)
O6 O 0.6882(4) 0.4302(3) 0.0396(3)
H17 H 0.624(6) 0.426(4) -0.005(4)
O7 O 0.5078(4) 0.5633(3) 0.1051(3)
O8 O 0.3923(5) 0.4969(5) 0.3463(4)
O9 O 0.4887(5) 0.6897(4) 0.3114(4)
loop_
_geom_bond_atom_site_label_1
_geom_bond_atom_site_label_2
_geom_bond_site_symmetry_1
_geom_bond_site_symmetry_2
N1 C1 1_555 1_555
C1 C2 1_555 1_555
C2 H1 1_555 1_555
C3 C2 1_555 1_555
H2 C3 1_555 1_555
C4 C3 1_555 1_555
H3 C4 1_555 1_555
C5 C4 1_555 1_555
H4 C5 1_555 1_555
C6 C1 1_555 1_555
C7 C6 1_555 1_555
O1 C7 1_555 1_555
H5 O1 1_555 1_555
O2 C7 1_555 1_555
O3 N1 1_555 1_555
O4 N1 1_555 1_555
C8 H6 1_555 1_555
C9 C8 1_555 1_555
H7 C9 1_555 1_555
C10 C9 1_555 1_555
H8 C10 1_555 1_555
C11 C10 1_555 1_555
H9 C11 1_555 1_555
C12 C11 1_555 1_555
H10 C12 1_555 1_555
C13 C8 1_555 1_555
C14 C13 1_555 1_555
N2 C14 1_555 1_555
H11 N2 1_555 1_555
H12 N2 1_555 1_555
O5 C14 1_555 1_555
N3 C15 1_555 1_555
C15 C16 1_555 1_555
C16 H13 1_555 1_555
C17 C16 1_555 1_555
H14 C17 1_555 1_555
C18 C17 1_555 1_555
H15 C18 1_555 1_555
C19 C18 1_555 1_555
H16 C19 1_555 1_555
C20 C15 1_555 1_555
C21 C20 1_555 1_555
O6 C21 1_555 1_555
H17 O6 1_555 1_555
O7 C21 1_555 1_555
O8 N3 1_555 1_555
O9 N3 1_555 1_555
C5 C6 1_555 1_555
C12 C13 1_555 1_555
C19 C20 1_555 1_555

#END
