
#######################################################################
#
#                 Cambridge Crystallographic Data Centre
#                                CCDC 
#
#######################################################################
#
# If this CIF has been generated from an entry in the Cambridge 
# Structural Database, then it will include bibliographic, chemical, 
# crystal, experimental, refinement or atomic coordinate data resulting 
# from the CCDC's data processing and validation procedures.
#
#######################################################################

data_FECSAI
_chemical_formula_moiety         'C21 H22 N2 O3 S1'
_chemical_name_systematic        
(+-)-cis-8-Benzyloxycarbonylaminomethyl-1-phenyl-2-thia-6-azabicyclo(4.2.0)octan-7-one
_symmetry_cell_setting           triclinic
_symmetry_space_group_name_H-M   'P -1'
_symmetry_Int_Tables_number      2
_space_group_name_Hall           '-P 1'
loop_
_symmetry_equiv_pos_site_id
_symmetry_equiv_pos_as_xyz
1 x,y,z
2 -x,-y,-z
_cell_length_a                   9.5000(19)
_cell_length_b                   10.950(2)
_cell_length_c                   11.140(2)
_cell_angle_alpha                62.38(3)
_cell_angle_beta                 79.77(3)
_cell_angle_gamma                80.06(3)
_cell_volume                     1005.03
_exptl_crystal_colour            colorless
_exptl_crystal_description       block
_chemical_melting_point          '423-424 K'
_cell_formula_units_Z            2
loop_
_atom_site_label
_atom_site_type_symbol
_atom_site_fract_x
_atom_site_fract_y
_atom_site_fract_z
S1 S -0.11687(9) -0.14795(9) 0.12532(8)
O1 O 0.0488(3) -0.1236(3) 0.4442(2)
O2 O 0.0445(3) 0.3288(2) 0.0474(2)
O3 O 0.1287(2) 0.3619(2) 0.2078(2)
N1 N -0.1522(3) -0.1684(3) 0.3800(2)
N2 N -0.0603(3) 0.2417(3) 0.2659(3)
H1 H -0.047(4) 0.225(3) 0.345(3)
C1 C -0.1777(4) -0.3215(4) 0.2304(3)
H2 H -0.2819 -0.3128 0.2446
H3 H -0.1470 -0.3771 0.1816
C2 C -0.1190(4) -0.3961(4) 0.3692(4)
H4 H -0.1495 -0.4886 0.4178
H5 H -0.0148 -0.4049 0.3554
C3 C -0.1712(4) -0.3186(4) 0.4556(3)
H6 H -0.2723 -0.3292 0.4875
H7 H -0.1188 -0.3601 0.5349
C4 C -0.1925(3) -0.0726(3) 0.2433(3)
C5 C -0.0892(3) 0.0301(3) 0.2388(3)
H8 H -0.0110 0.0476 0.1642
C6 C -0.0458(4) -0.0936(4) 0.3714(3)
C7 C -0.3523(3) -0.0238(3) 0.2362(3)
C8 C -0.4051(4) 0.0561(4) 0.1125(4)
H9 H -0.3420 0.0839 0.0327
C9 C -0.5518(6) 0.0959(5) 0.1052(6)
H10 H -0.5859 0.1505 0.0210
C10 C -0.6454(5) 0.0551(5) 0.2208(7)
H11 H -0.7437 0.0795 0.2155
C11 C -0.5956(5) -0.0205(5) 0.3428(6)
H12 H -0.6599 -0.0464 0.4218
C12 C -0.4484(4) -0.0606(4) 0.3529(4)
H13 H -0.4154 -0.1120 0.4380
C13 C -0.1595(3) 0.1664(3) 0.2451(3)
H14 H -0.2010 0.2267 0.1607
H15 H -0.2374 0.1443 0.3187
C14 C 0.0375(4) 0.3115(3) 0.1636(3)
C15 C 0.2406(4) 0.4398(4) 0.1041(4)
H16 H 0.1979 0.5154 0.0266
H17 H 0.3064 0.3798 0.0725
C16 C 0.3188(4) 0.4951(4) 0.1730(4)
C17 C 0.2635(5) 0.6134(4) 0.1894(4)
H18 H 0.1804 0.6634 0.1503
C18 C 0.3260(7) 0.6594(6) 0.2606(6)
H19 H 0.2860 0.7380 0.2712
C19 C 0.4507(9) 0.5846(10) 0.3161(6)
H20 H 0.4950 0.6126 0.3660
C20 C 0.5097(6) 0.4701(8) 0.2986(6)
H21 H 0.5951 0.4229 0.3348
C21 C 0.4441(5) 0.4226(5) 0.2273(5)
H22 H 0.4842 0.3439 0.2169
loop_
_geom_bond_atom_site_label_1
_geom_bond_atom_site_label_2
_geom_bond_site_symmetry_1
_geom_bond_site_symmetry_2
S1 C1 1_555 1_555
O1 C6 1_555 1_555
O2 C14 1_555 1_555
O3 C14 1_555 1_555
N1 C3 1_555 1_555
N2 H1 1_555 1_555
C1 H2 1_555 1_555
H3 C1 1_555 1_555
C2 C1 1_555 1_555
H4 C2 1_555 1_555
H5 C2 1_555 1_555
C3 C2 1_555 1_555
H6 C3 1_555 1_555
H7 C3 1_555 1_555
C4 S1 1_555 1_555
C5 C4 1_555 1_555
H8 C5 1_555 1_555
C6 N1 1_555 1_555
C7 C4 1_555 1_555
C8 C7 1_555 1_555
H9 C8 1_555 1_555
C9 C8 1_555 1_555
H10 C9 1_555 1_555
C10 C9 1_555 1_555
H11 C10 1_555 1_555
C11 C10 1_555 1_555
H12 C11 1_555 1_555
C12 C7 1_555 1_555
H13 C12 1_555 1_555
C13 N2 1_555 1_555
H14 C13 1_555 1_555
H15 C13 1_555 1_555
C14 N2 1_555 1_555
C15 O3 1_555 1_555
H16 C15 1_555 1_555
H17 C15 1_555 1_555
C16 C15 1_555 1_555
C17 C16 1_555 1_555
H18 C17 1_555 1_555
C18 C17 1_555 1_555
H19 C18 1_555 1_555
C19 C18 1_555 1_555
H20 C19 1_555 1_555
C20 C19 1_555 1_555
H21 C20 1_555 1_555
C21 C16 1_555 1_555
H22 C21 1_555 1_555
N1 C4 1_555 1_555
C5 C6 1_555 1_555
C5 C13 1_555 1_555
C11 C12 1_555 1_555
C20 C21 1_555 1_555

#END
