
#######################################################################
#
#                 Cambridge Crystallographic Data Centre
#                                CCDC 
#
#######################################################################
#
# If this CIF has been generated from an entry in the Cambridge 
# Structural Database, then it will include bibliographic, chemical, 
# crystal, experimental, refinement or atomic coordinate data resulting 
# from the CCDC's data processing and validation procedures.
#
#######################################################################

data_FECZUL
_chemical_formula_moiety         'C16 H20 N2 O2'
_chemical_name_systematic        
'ethyl 4-methyl-1-(propan-2-yl)-5H-2,3-benzodiazepine-5-carboxylate'
_symmetry_cell_setting           monoclinic
_symmetry_space_group_name_H-M   'P 21'
_symmetry_Int_Tables_number      4
_space_group_name_Hall           'P 2yb'
loop_
_symmetry_equiv_pos_site_id
_symmetry_equiv_pos_as_xyz
1 x,y,z
2 -x,1/2+y,-z
_cell_length_a                   8.6959(17)
_cell_length_b                   9.773(2)
_cell_length_c                   8.8762(18)
_cell_angle_alpha                90
_cell_angle_beta                 93.14(3)
_cell_angle_gamma                90
_cell_volume                     753.212
_exptl_crystal_colour            colorless
_exptl_crystal_description       plate
_cell_formula_units_Z            2
loop_
_atom_site_label
_atom_site_type_symbol
_atom_site_fract_x
_atom_site_fract_y
_atom_site_fract_z
O1 O 0.28659(11) 0.85040(11) 0.25313(12)
O2 O 0.04022(10) 0.83300(10) 0.31477(10)
N1 N -0.00423(12) 0.53598(11) 0.15241(12)
N2 N 0.13188(12) 0.51262(11) 0.24015(12)
C1 C 0.40350(14) 0.51581(15) -0.05806(15)
H1 H 0.4594 0.4378 -0.0221
C2 C 0.43008(15) 0.56829(15) -0.19897(15)
H2 H 0.5029 0.5257 -0.2597
C3 C 0.35046(16) 0.68310(16) -0.25145(15)
H3 H 0.3683 0.7186 -0.3486
C4 C 0.24459(15) 0.74661(14) -0.16278(14)
H4 H 0.1908 0.8256 -0.1990
C5 C 0.21755(14) 0.69426(13) -0.02092(14)
C6 C 0.09600(14) 0.75797(12) 0.07253(14)
H5 H 0.0492 0.8354 0.0124
C7 C -0.02736(14) 0.64915(13) 0.08318(14)
C8 C 0.26494(14) 0.52183(13) 0.18349(14)
C9 C 0.29499(14) 0.57643(13) 0.03240(14)
C10 C 0.15572(14) 0.81644(12) 0.22343(14)
C11 C 0.07638(17) 0.90387(15) 0.45707(15)
H6 H 0.1794 0.8751 0.4984
H7 H 0.0000 0.8785 0.5309
C12 C 0.0746(2) 1.05575(16) 0.43475(17)
H8 H 0.0992 1.1012 0.5315
H9 H -0.0279 1.0844 0.3954
H10 H 0.1512 1.0810 0.3628
C13 C -0.17836(16) 0.67183(18) -0.00211(17)
H11 H -0.2469 0.5943 0.0145
H12 H -0.1616 0.6799 -0.1100
H13 H -0.2255 0.7562 0.0333
C14 C 0.40256(17) 0.47268(16) 0.28222(16)
H14 H 0.4564 0.4017 0.2234
C15 C 0.51737(19) 0.5881(2) 0.3155(2)
H15 H 0.5458 0.6297 0.2205
H16 H 0.6097 0.5514 0.3693
H17 H 0.4704 0.6576 0.3781
C16 C 0.3567(2) 0.40530(19) 0.42738(17)
H18 H 0.2833 0.3314 0.4034
H19 H 0.3088 0.4734 0.4909
H20 H 0.4485 0.3677 0.4815
loop_
_geom_bond_atom_site_label_1
_geom_bond_atom_site_label_2
_geom_bond_site_symmetry_1
_geom_bond_site_symmetry_2
O1 C10 1_555 1_555
O2 C10 1_555 1_555
N1 N2 1_555 1_555
N2 C8 1_555 1_555
C1 H1 1_555 1_555
C2 C1 1_555 1_555
H2 C2 1_555 1_555
C3 C2 1_555 1_555
H3 C3 1_555 1_555
C4 C3 1_555 1_555
H4 C4 1_555 1_555
C5 C4 1_555 1_555
C6 C5 1_555 1_555
H5 C6 1_555 1_555
C7 N1 1_555 1_555
C8 C9 1_555 1_555
C9 C1 1_555 1_555
C10 C6 1_555 1_555
C11 O2 1_555 1_555
H6 C11 1_555 1_555
H7 C11 1_555 1_555
C12 C11 1_555 1_555
H8 C12 1_555 1_555
H9 C12 1_555 1_555
H10 C12 1_555 1_555
C13 C7 1_555 1_555
H11 C13 1_555 1_555
H12 C13 1_555 1_555
H13 C13 1_555 1_555
C14 C8 1_555 1_555
H14 C14 1_555 1_555
C15 C14 1_555 1_555
H15 C15 1_555 1_555
H16 C15 1_555 1_555
H17 C15 1_555 1_555
C16 C14 1_555 1_555
H18 C16 1_555 1_555
H19 C16 1_555 1_555
H20 C16 1_555 1_555
C5 C9 1_555 1_555
C6 C7 1_555 1_555

#END
