
#######################################################################
#
#                 Cambridge Crystallographic Data Centre
#                                CCDC 
#
#######################################################################
#
# If this CIF has been generated from an entry in the Cambridge 
# Structural Database, then it will include bibliographic, chemical, 
# crystal, experimental, refinement or atomic coordinate data resulting 
# from the CCDC's data processing and validation procedures.
#
#######################################################################

data_FEDLEG
_chemical_formula_moiety         'C21 H26 O4'
_chemical_name_systematic        16\a,17-Epoxypregn-4-ene-3,11,20-trione
_symmetry_cell_setting           orthorhombic
_symmetry_space_group_name_H-M   'P 21 21 21'
_symmetry_Int_Tables_number      19
_space_group_name_Hall           'P 2ac 2ab'
loop_
_symmetry_equiv_pos_site_id
_symmetry_equiv_pos_as_xyz
1 x,y,z
2 1/2-x,-y,1/2+z
3 -x,1/2+y,1/2-z
4 1/2+x,1/2-y,-z
_cell_length_a                   7.5364(12)
_cell_length_b                   9.9000(16)
_cell_length_c                   23.288(4)
_cell_angle_alpha                90
_cell_angle_beta                 90
_cell_angle_gamma                90
_cell_volume                     1737.53
_exptl_crystal_colour            colorless
_exptl_crystal_description       prism
_chemical_melting_point          '465.5 K'
_cell_formula_units_Z            4
_exptl_crystal_recrystallization_method chloroform-methanol
loop_
_atom_site_label
_atom_site_type_symbol
_atom_site_fract_x
_atom_site_fract_y
_atom_site_fract_z
O1 O 0.8985(3) 0.1964(2) 1.24390(8)
O2 O 1.1689(2) -0.11303(18) 1.00984(6)
O3 O 0.8436(2) 0.19701(15) 0.83762(6)
O4 O 1.1264(3) -0.0667(2) 0.79259(8)
C1 C 1.0674(3) 0.0304(2) 1.11767(9)
H1 H 1.1620 -0.0327 1.1089
H2 H 1.1011 0.1177 1.1022
C2 C 1.0505(3) 0.0423(3) 1.18261(9)
H3 H 1.0333 -0.0469 1.1989
H4 H 1.1597 0.0790 1.1982
C3 C 0.8996(3) 0.1306(3) 1.19948(9)
C4 C 0.7451(3) 0.1285(2) 1.16125(9)
H5 H 0.6469 0.1800 1.1715
C5 C 0.7367(3) 0.0568(2) 1.11240(9)
C6 C 0.5647(3) 0.0424(3) 1.08109(9)
H6 H 0.4768 0.1004 1.0989
H7 H 0.5236 -0.0502 1.0845
C7 C 0.5804(3) 0.0786(2) 1.01806(9)
H8 H 0.6007 0.1750 1.0145
H9 H 0.4695 0.0576 0.9989
C8 C 0.7305(2) 0.0031(2) 0.98850(8)
H10 H 0.7020 -0.0933 0.9864
C9 C 0.9059(2) 0.02354(19) 1.02278(8)
H11 H 0.9245 0.1215 1.0231
C10 C 0.8966(3) -0.0170(2) 1.08735(8)
C11 C 1.0654(3) -0.0330(2) 0.98977(9)
C12 C 1.0861(3) 0.0166(2) 0.92849(8)
H12 H 1.1834 -0.0306 0.9100
H13 H 1.1127 0.1124 0.9284
C13 C 0.9140(3) -0.0093(2) 0.89569(8)
C14 C 0.7605(3) 0.0587(2) 0.92816(8)
H14 H 0.7974 0.1527 0.9336
C15 C 0.6092(3) 0.0637(2) 0.88410(9)
H15 H 0.5482 -0.0223 0.8815
H16 H 0.5242 0.1340 0.8933
C16 C 0.7091(3) 0.0954(2) 0.82950(9)
H17 H 0.6506 0.0856 0.7922
C17 C 0.8970(3) 0.0552(2) 0.83655(9)
C18 C 1.0193(4) 0.0232(3) 0.78775(10)
C19 C 1.0096(4) 0.1083(3) 0.73467(9)
H18 H 1.0913 0.1823 0.7379
H19 H 0.8913 0.1427 0.7302
H20 H 1.0401 0.0544 0.7018
C20 C 0.8700(3) -0.1701(2) 1.09535(10)
H21 H 0.9711 -0.2174 1.0804
H22 H 0.7653 -0.1982 1.0752
H23 H 0.8572 -0.1900 1.1355
C21 C 0.8842(3) -0.1623(2) 0.88832(9)
H24 H 0.7789 -0.1773 0.8660
H25 H 0.8708 -0.2035 0.9254
H26 H 0.9843 -0.2013 0.8690
loop_
_geom_bond_atom_site_label_1
_geom_bond_atom_site_label_2
_geom_bond_site_symmetry_1
_geom_bond_site_symmetry_2
O1 C3 1_555 1_555
O2 C11 1_555 1_555
O3 C16 1_555 1_555
O4 C18 1_555 1_555
C1 H1 1_555 1_555
H2 C1 1_555 1_555
C2 C1 1_555 1_555
H3 C2 1_555 1_555
H4 C2 1_555 1_555
C3 C2 1_555 1_555
C4 C3 1_555 1_555
H5 C4 1_555 1_555
C5 C4 1_555 1_555
C6 C5 1_555 1_555
H6 C6 1_555 1_555
H7 C6 1_555 1_555
C7 C6 1_555 1_555
H8 C7 1_555 1_555
H9 C7 1_555 1_555
C8 C7 1_555 1_555
H10 C8 1_555 1_555
C9 C8 1_555 1_555
H11 C9 1_555 1_555
C10 C1 1_555 1_555
C11 C9 1_555 1_555
C12 C11 1_555 1_555
H12 C12 1_555 1_555
H13 C12 1_555 1_555
C13 C12 1_555 1_555
C14 C8 1_555 1_555
H14 C14 1_555 1_555
C15 C14 1_555 1_555
H15 C15 1_555 1_555
H16 C15 1_555 1_555
C16 C15 1_555 1_555
H17 C16 1_555 1_555
C17 O3 1_555 1_555
C18 C17 1_555 1_555
C19 C18 1_555 1_555
H18 C19 1_555 1_555
H19 C19 1_555 1_555
H20 C19 1_555 1_555
C20 C10 1_555 1_555
H21 C20 1_555 1_555
H22 C20 1_555 1_555
H23 C20 1_555 1_555
C21 C13 1_555 1_555
H24 C21 1_555 1_555
H25 C21 1_555 1_555
H26 C21 1_555 1_555
C5 C10 1_555 1_555
C9 C10 1_555 1_555
C13 C14 1_555 1_555
C13 C17 1_555 1_555
C16 C17 1_555 1_555

#END
