
#######################################################################
#
#                 Cambridge Crystallographic Data Centre
#                                CCDC 
#
#######################################################################
#
# If this CIF has been generated from an entry in the Cambridge 
# Structural Database, then it will include bibliographic, chemical, 
# crystal, experimental, refinement or atomic coordinate data resulting 
# from the CCDC's data processing and validation procedures.
#
#######################################################################

data_FEFBIB
_chemical_formula_moiety         'C12 F8'
_chemical_name_systematic        Octafluorobiphenylene
_symmetry_cell_setting           monoclinic
_symmetry_space_group_name_H-M   'A 2/a'
_symmetry_Int_Tables_number      15
_space_group_name_Hall           '-A 2yn'
loop_
_symmetry_equiv_pos_site_id
_symmetry_equiv_pos_as_xyz
1 x,y,z
2 x,1/2+y,1/2+z
3 1/2-x,y,-z
4 1/2-x,1/2+y,1/2-z
5 -x,-y,-z
6 -x,1/2-y,1/2-z
7 1/2+x,-y,z
8 1/2+x,1/2-y,1/2+z
_cell_length_a                   21.140(2)
_cell_length_b                   6.430(6)
_cell_length_c                   36.340(3)
_cell_angle_alpha                90
_cell_angle_beta                 123.76(3)
_cell_angle_gamma                90
_cell_volume                     4106.73
_exptl_crystal_colour            colorless
_chemical_melting_point          99-100deg.C
_cell_formula_units_Z            16
_chemical_properties_physical    air-sensitive
loop_
_atom_site_label
_atom_site_type_symbol
_atom_site_fract_x
_atom_site_fract_y
_atom_site_fract_z
C1 C 0.0120(2) 0.6490(6) 0.0666(1)
C2 C 0.0392(2) 0.4522(6) 0.0628(1)
C3 C 0.1147(2) 0.4078(6) 0.0861(1)
C4 C 0.1639(2) 0.5653(7) 0.1148(1)
C5 C 0.1382(2) 0.7503(7) 0.1192(1)
C6 C 0.0598(2) 0.7992(6) 0.0942(1)
C7 C -0.0677(2) 0.5839(6) 0.0322(1)
C8 C -0.0407(2) 0.3884(6) 0.0284(1)
C9 C -0.0893(2) 0.2421(6) -0.0004(1)
C10 C -0.1669(2) 0.2972(6) -0.0268(1)
C11 C -0.1918(2) 0.4875(6) -0.0230(1)
C12 C -0.1420(2) 0.6388(7) 0.0074(1)
F1 F 0.1435(1) 0.2303(4) 0.0824(1)
F2 F 0.2385(1) 0.5279(4) 0.1379(1)
F3 F 0.1871(1) 0.8951(4) 0.1467(1)
F4 F 0.0366(2) 0.9854(4) 0.0992(1)
F5 F -0.0676(1) 0.0555(4) -0.0057(1)
F6 F -0.2161(1) 0.1590(4) -0.0565(1)
F7 F -0.2667(1) 0.5305(4) -0.0494(1)
F8 F -0.1700(1) 0.8188(4) 0.0097(1)
C13 C 0.1057(2) 0.2229(6) 0.2642(1)
C14 C 0.1345(2) 0.4176(6) 0.2850(1)
C15 C 0.1620(2) 0.5580(6) 0.2700(1)
C16 C 0.1607(2) 0.5017(7) 0.2323(1)
C17 C 0.1325(2) 0.3155(7) 0.2117(1)
C18 C 0.1042(2) 0.1693(6) 0.2279(1)
C19 C 0.0865(2) 0.1961(7) 0.2981(1)
C20 C 0.0643(2) 0.0198(8) 0.3135(1)
C21 C 0.0680(3) 0.0745(11) 0.3525(2)
C22 C 0.0954(3) 0.2590(11) 0.3727(1)
C23 C 0.1237(3) 0.4102(9) 0.3565(1)
C24 C 0.1192(2) 0.3574(7) 0.3194(1)
F9 F 0.1910(2) 0.7436(5) 0.2887(1)
F10 F 0.1882(2) 0.6376(5) 0.2164(1)
F11 F 0.1318(2) 0.2718(5) 0.1756(1)
F12 F 0.0763(2) -0.0099(4) 0.2059(1)
F13 F 0.0365(2) -0.1656(5) 0.2955(1)
F14 F 0.0420(2) -0.0634(6) 0.3691(1)
F15 F 0.0999(2) 0.3068(7) 0.4102(1)
F16 F 0.1517(2) 0.5904(5) 0.3782(1)
loop_
_geom_bond_atom_site_label_1
_geom_bond_atom_site_label_2
_geom_bond_site_symmetry_1
_geom_bond_site_symmetry_2
C1 C2 1_555 1_555
C2 C3 1_555 1_555
C3 C4 1_555 1_555
C4 C5 1_555 1_555
C5 C6 1_555 1_555
C6 C1 1_555 1_555
C7 C1 1_555 1_555
C8 C2 1_555 1_555
C9 C8 1_555 1_555
C10 C9 1_555 1_555
C11 C10 1_555 1_555
C12 C7 1_555 1_555
F1 C3 1_555 1_555
F2 C4 1_555 1_555
F3 C5 1_555 1_555
F4 C6 1_555 1_555
F5 C9 1_555 1_555
F6 C10 1_555 1_555
F7 C11 1_555 1_555
F8 C12 1_555 1_555
C13 C14 1_555 1_555
C14 C15 1_555 1_555
C15 C16 1_555 1_555
C16 C17 1_555 1_555
C17 C18 1_555 1_555
C18 C13 1_555 1_555
C19 C13 1_555 1_555
C20 C19 1_555 1_555
C21 C20 1_555 1_555
C22 C21 1_555 1_555
C23 C22 1_555 1_555
C24 C14 1_555 1_555
F9 C15 1_555 1_555
F10 C16 1_555 1_555
F11 C17 1_555 1_555
F12 C18 1_555 1_555
F13 C20 1_555 1_555
F14 C21 1_555 1_555
F15 C22 1_555 1_555
F16 C23 1_555 1_555
C7 C8 1_555 1_555
C11 C12 1_555 1_555
C19 C24 1_555 1_555
C23 C24 1_555 1_555

#END
