
#######################################################################
#
#                 Cambridge Crystallographic Data Centre
#                                CCDC 
#
#######################################################################
#
# If this CIF has been generated from an entry in the Cambridge 
# Structural Database, then it will include bibliographic, chemical, 
# crystal, experimental, refinement or atomic coordinate data resulting 
# from the CCDC's data processing and validation procedures.
#
#######################################################################

data_FEFDOM
_chemical_formula_moiety         'C9 H14 N6 O1'
_chemical_name_systematic        
7',8'-dihydrospiro[cyclohexane-1,9'-tetrazolo[5,1-d][1,2,5]triazepin]-6'(5'H)-one
_symmetry_cell_setting           monoclinic
_symmetry_space_group_name_H-M   'P 21/c'
_symmetry_Int_Tables_number      14
_space_group_name_Hall           '-P 2ybc'
loop_
_symmetry_equiv_pos_site_id
_symmetry_equiv_pos_as_xyz
1 x,y,z
2 -x,1/2+y,1/2-z
3 -x,-y,-z
4 x,1/2-y,1/2+z
_cell_length_a                   10.7348(5)
_cell_length_b                   9.1446(3)
_cell_length_c                   11.7753(6)
_cell_angle_alpha                90
_cell_angle_beta                 116.418(6)
_cell_angle_gamma                90
_cell_volume                     1035.22
_exptl_crystal_colour            white
_exptl_crystal_description       prism
_cell_formula_units_Z            4
loop_
_atom_site_label
_atom_site_type_symbol
_atom_site_fract_x
_atom_site_fract_y
_atom_site_fract_z
O1 O 0.61396(10) 0.64649(11) 0.05427(9)
N1 N 0.83822(13) 0.56637(14) 0.52806(11)
N2 N 0.77897(12) 0.31170(13) 0.18324(11)
N3 N 0.85615(13) 0.63846(13) 0.44199(11)
N4 N 0.79869(12) 0.42535(13) 0.49023(11)
C1 C 0.82517(14) 0.00652(15) 0.30646(14)
H1 H 0.8378 0.0101 0.2282
H2 H 0.8897 -0.0681 0.3633
N5 N 0.67746(13) 0.40874(13) 0.09793(11)
C2 C 0.75740(13) 0.27623(14) 0.29611(12)
C3 C 0.67573(15) -0.03828(16) 0.27261(14)
H3 H 0.6663 -0.0561 0.3514
H4 H 0.6535 -0.1304 0.2234
N6 N 0.82934(11) 0.54352(12) 0.34541(11)
C4 C 0.57319(14) 0.08066(16) 0.19474(14)
H5 H 0.4778 0.0512 0.1778
H6 H 0.5759 0.0914 0.1122
C5 C 0.86156(14) 0.15591(14) 0.37196(13)
H7 H 0.9557 0.1847 0.3843
H8 H 0.8639 0.1476 0.4567
C6 C 0.69901(14) 0.55319(15) 0.11746(13)
C7 C 0.83595(14) 0.59360(15) 0.22989(13)
H9 H 0.9145 0.5459 0.222
H10 H 0.85 0.7008 0.233
C8 C 0.60819(14) 0.22761(15) 0.26439(13)
H11 H 0.5983 0.2189 0.3438
H12 H 0.5417 0.3027 0.2107
C9 C 0.79373(13) 0.41313(15) 0.37614(13)
H13 H 0.7799(17) 0.2320(19) 0.1392(16)
H14 H 0.590(2) 0.377(2) 0.0480(17)
loop_
_geom_bond_atom_site_label_1
_geom_bond_atom_site_label_2
_geom_bond_site_symmetry_1
_geom_bond_site_symmetry_2
O1 C6 1_555 1_555
N1 N3 1_555 1_555
N2 N5 1_555 1_555
N3 N6 1_555 1_555
N4 N1 1_555 1_555
C1 H1 1_555 1_555
H2 C1 1_555 1_555
N5 C6 1_555 1_555
C2 N2 1_555 1_555
C3 C1 1_555 1_555
H3 C3 1_555 1_555
H4 C3 1_555 1_555
N6 C7 1_555 1_555
C4 C3 1_555 1_555
H5 C4 1_555 1_555
H6 C4 1_555 1_555
C5 C1 1_555 1_555
H7 C5 1_555 1_555
H8 C5 1_555 1_555
C6 C7 1_555 1_555
C7 H9 1_555 1_555
H10 C7 1_555 1_555
C8 C2 1_555 1_555
H11 C8 1_555 1_555
H12 C8 1_555 1_555
C9 N4 1_555 1_555
H13 N2 1_555 1_555
H14 N5 1_555 1_555
C2 C5 1_555 1_555
C2 C9 1_555 1_555
N6 C9 1_555 1_555
C4 C8 1_555 1_555

#END
