
#######################################################################
#
#                 Cambridge Crystallographic Data Centre
#                                CCDC 
#
#######################################################################
#
# If this CIF has been generated from an entry in the Cambridge 
# Structural Database, then it will include bibliographic, chemical, 
# crystal, experimental, refinement or atomic coordinate data resulting 
# from the CCDC's data processing and validation procedures.
#
#######################################################################

data_FEFTOC
_chemical_formula_moiety         'C15 H23 N3 O3'
_chemical_name_systematic        
'ethyl (4-oxo-4-{[2-(pyridin-2-yl)propan-2-yl]amino}butan-2-yl)carbamate'
_symmetry_cell_setting           orthorhombic
_symmetry_space_group_name_H-M   'P b c a'
_symmetry_Int_Tables_number      61
_space_group_name_Hall           '-P 2ac 2ab'
loop_
_symmetry_equiv_pos_site_id
_symmetry_equiv_pos_as_xyz
1 x,y,z
2 1/2-x,-y,1/2+z
3 1/2+x,1/2-y,-z
4 -x,1/2+y,1/2-z
5 -x,-y,-z
6 1/2+x,y,1/2-z
7 1/2-x,1/2+y,z
8 x,1/2-y,1/2+z
_cell_length_a                   16.5344(8)
_cell_length_b                   9.4279(5)
_cell_length_c                   20.9981(12)
_cell_angle_alpha                90
_cell_angle_beta                 90
_cell_angle_gamma                90
_cell_volume                     3273.28
_exptl_crystal_colour            colorless
_exptl_crystal_description       block
_cell_formula_units_Z            8
loop_
_atom_site_label
_atom_site_type_symbol
_atom_site_fract_x
_atom_site_fract_y
_atom_site_fract_z
C1 C 0.36846(10) 0.55645(18) 0.19181(8)
C2 C 0.31418(14) 0.5195(3) 0.14493(10)
H1 H 0.2821 0.4391 0.1493
C3 C 0.30807(16) 0.6034(3) 0.09146(11)
H2 H 0.2722 0.5795 0.0591
C4 C 0.35510(16) 0.7220(3) 0.08629(11)
H3 H 0.3512 0.7819 0.0512
C5 C 0.40767(15) 0.7490(3) 0.13434(11)
H4 H 0.4405 0.8286 0.1308
C6 C 0.37882(10) 0.46161(18) 0.25070(9)
C7 C 0.41966(11) 0.3234(2) 0.23033(11)
H5 H 0.4277 0.2641 0.2670
H6 H 0.4710 0.3443 0.2111
H7 H 0.3859 0.2750 0.2001
C8 C 0.42895(11) 0.5321(2) 0.30264(9)
H8 H 0.4040 0.6201 0.3147
H9 H 0.4825 0.5502 0.2869
H10 H 0.4319 0.4706 0.3390
C9 C 0.24326(11) 0.51831(17) 0.29326(9)
C10 C 0.16498(10) 0.46090(19) 0.31956(9)
H11 H 0.1584 0.3630 0.3063
H12 H 0.1201 0.5151 0.3025
C11 C 0.16361(10) 0.4689(2) 0.39284(10)
H13 H 0.1747 0.5671 0.4055
C12 C 0.08088(12) 0.4271(3) 0.41890(12)
H14 H 0.0703 0.3295 0.4089
H15 H 0.0400 0.4857 0.3999
H16 H 0.0803 0.4398 0.4643
C13 C 0.29643(11) 0.4279(2) 0.44183(8)
C14 C 0.42097(12) 0.3530(3) 0.48803(11)
H17 H 0.4383 0.4464 0.4743
H18 H 0.4616 0.2851 0.4745
C15 C 0.41501(17) 0.3507(3) 0.55815(13)
H19 H 0.3801 0.4259 0.5721
H20 H 0.4678 0.3635 0.5763
H21 H 0.3933 0.2612 0.5717
N1 N 0.41560(11) 0.66843(18) 0.18680(8)
N2 N 0.29846(9) 0.42337(14) 0.27531(7)
H22 H 0.2864 0.3349 0.2783
N3 N 0.22585(9) 0.37846(16) 0.41999(8)
H23 H 0.2169 0.2887 0.4221
O1 O 0.25550(8) 0.64727(12) 0.28994(8)
O2 O 0.31514(8) 0.55215(15) 0.44735(7)
O3 O 0.34509(8) 0.31912(15) 0.45828(7)
loop_
_geom_bond_atom_site_label_1
_geom_bond_atom_site_label_2
_geom_bond_site_symmetry_1
_geom_bond_site_symmetry_2
C1 C2 1_555 1_555
C2 H1 1_555 1_555
C3 C2 1_555 1_555
H2 C3 1_555 1_555
C4 C3 1_555 1_555
H3 C4 1_555 1_555
C5 C4 1_555 1_555
H4 C5 1_555 1_555
C6 C1 1_555 1_555
C7 C6 1_555 1_555
H5 C7 1_555 1_555
H6 C7 1_555 1_555
H7 C7 1_555 1_555
C8 C6 1_555 1_555
H8 C8 1_555 1_555
H9 C8 1_555 1_555
H10 C8 1_555 1_555
C9 C10 1_555 1_555
C10 H11 1_555 1_555
H12 C10 1_555 1_555
C11 C10 1_555 1_555
H13 C11 1_555 1_555
C12 C11 1_555 1_555
H14 C12 1_555 1_555
H15 C12 1_555 1_555
H16 C12 1_555 1_555
C13 N3 1_555 1_555
C14 H17 1_555 1_555
H18 C14 1_555 1_555
C15 C14 1_555 1_555
H19 C15 1_555 1_555
H20 C15 1_555 1_555
H21 C15 1_555 1_555
N1 C1 1_555 1_555
N2 C6 1_555 1_555
H22 N2 1_555 1_555
N3 C11 1_555 1_555
H23 N3 1_555 1_555
O1 C9 1_555 1_555
O2 C13 1_555 1_555
O3 C13 1_555 1_555
C5 N1 1_555 1_555
C9 N2 1_555 1_555
C14 O3 1_555 1_555

#END
