
#######################################################################
#
#                 Cambridge Crystallographic Data Centre
#                                CCDC 
#
#######################################################################
#
# If this CIF has been generated from an entry in the Cambridge 
# Structural Database, then it will include bibliographic, chemical, 
# crystal, experimental, refinement or atomic coordinate data resulting 
# from the CCDC's data processing and validation procedures.
#
#######################################################################

data_FEFYIA
_chemical_name_common            'Furosemide pentoxifylline acetone solvate'
_chemical_formula_moiety         'C13 H18 N4 O3,C12 H11 Cl1 N2 O5 S1,C3 H6 O1'
_chemical_name_systematic        
'4-Chloro-2-((2-furylmethyl)amino)-5-sulfamoylbenzoic acid 3,7-dimethyl-1-(5-oxohexyl)-3,7-dihydro-1H-purine-2,6-dione acetone solvate'
_symmetry_cell_setting           triclinic
_symmetry_space_group_name_H-M   'P -1'
_symmetry_Int_Tables_number      2
_space_group_name_Hall           '-P 1'
loop_
_symmetry_equiv_pos_site_id
_symmetry_equiv_pos_as_xyz
1 x,y,z
2 -x,-y,-z
_cell_length_a                   9.3099(2)
_cell_length_b                   9.5317(3)
_cell_length_c                   19.2653(7)
_cell_angle_alpha                99.733(2)
_cell_angle_beta                 96.057(2)
_cell_angle_gamma                109.197(3)
_cell_volume                     1567.27
_exptl_crystal_colour            colorless
_exptl_crystal_description       plate
_chemical_melting_point          '432 K'
_cell_formula_units_Z            2
loop_
_atom_site_label
_atom_site_type_symbol
_atom_site_fract_x
_atom_site_fract_y
_atom_site_fract_z
S1 S 0.05003(8) 0.37698(9) 0.29152(4)
N1 N 0.2274(3) 0.3888(3) 0.29851(14)
H1 H 0.2925 0.4801 0.3312
H2 H 0.2523 0.3761 0.2527
O1 O 0.0155(2) 0.3922(2) 0.36296(11)
O2 O -0.0395(2) 0.2424(2) 0.23874(12)
C1 C 0.0350(3) 0.5386(3) 0.26237(15)
C2 C 0.0538(3) 0.5664(3) 0.19390(15)
C3 C 0.0477(3) 0.6964(3) 0.17531(16)
H3 H 0.0597 0.7099 0.1293
C4 C 0.0235(3) 0.8111(3) 0.22457(15)
C5 C -0.0061(3) 0.7791(3) 0.29285(15)
C6 C 0.0031(3) 0.6457(3) 0.30968(15)
H4 H -0.0130 0.6279 0.3547
Cl1 Cl 0.08804(9) 0.43489(9) 0.12970(4)
C7 C -0.0491(3) 0.8839(3) 0.34507(15)
O3 O -0.0433(2) 1.0103(2) 0.33849(11)
O4 O -0.0977(2) 0.8265(2) 0.40027(11)
H5 H -0.1198 0.8893 0.4274
N2 N 0.0271(3) 0.9440(3) 0.20814(13)
H6 H 0.0173 1.0198 0.2483
C8 C 0.0656(3) 0.9890(4) 0.14170(16)
H7 H 0.1400 0.9452 0.1257
H8 H 0.1148 1.0989 0.1514
C9 C -0.0691(3) 0.9419(4) 0.08293(16)
O5 O -0.1110(3) 0.8101(3) 0.03355(14)
C10 C -0.2360(4) 0.8058(5) -0.01363(19)
H9 H -0.2870 0.7290 -0.0539
C11 C -0.2713(4) 0.9263(4) 0.0072(2)
H10 H -0.3502 0.9508 -0.0155
C12 C -0.1664(4) 1.0124(4) 0.07078(19)
H11 H -0.1664 1.1020 0.0988
C13 C 0.3265(5) 0.6281(5) 0.0011(2)
H12 H 0.2567 0.6662 -0.0232
H13 H 0.2709 0.5273 0.0066
H14 H 0.4061 0.6252 -0.0264
C14 C 0.3985(4) 0.7313(4) 0.07388(18)
O6 O 0.3692(3) 0.8451(3) 0.09201(14)
C15 C 0.5062(4) 0.6865(4) 0.12106(17)
H15 H 0.5886 0.6776 0.0958
H16 H 0.4503 0.5865 0.1289
C16 C 0.5782(3) 0.7928(4) 0.19310(16)
H17 H 0.6280 0.8947 0.1858
H18 H 0.6577 0.7617 0.2154
C17 C 0.4648(3) 0.7983(4) 0.24421(16)
H19 H 0.3965 0.8477 0.2270
H20 H 0.4022 0.6956 0.2461
C18 C 0.5515(3) 0.8851(4) 0.31846(16)
H21 H 0.6146 0.8313 0.3362
H22 H 0.6203 0.9845 0.3152
N3 N 0.4499(3) 0.9058(3) 0.37071(13)
C19 C 0.4189(3) 1.0413(4) 0.37893(16)
N4 N 0.3307(3) 1.0653(3) 0.43025(13)
C20 C 0.2790(3) 0.9577(3) 0.46971(15)
C21 C 0.3084(3) 0.8251(4) 0.45923(15)
C22 C 0.3971(3) 0.7890(4) 0.40776(16)
O7 O 0.4290(2) 0.6727(3) 0.39570(11)
O8 O 0.4706(3) 1.1351(3) 0.34384(13)
C23 C 0.2959(4) 1.2062(4) 0.44214(18)
H23 H 0.1885 1.1823 0.4453
H24 H 0.3185 1.2556 0.4030
H25 H 0.3578 1.2728 0.4859
N5 N 0.1950(3) 0.9665(3) 0.52287(13)
C24 C 0.1730(3) 0.8358(4) 0.54425(16)
H26 H 0.1183 0.8096 0.5807
N6 N 0.2373(3) 0.7465(3) 0.50821(13)
C25 C 0.2379(4) 0.5991(4) 0.52044(18)
H27 H 0.1926 0.5229 0.4771
H28 H 0.1792 0.5719 0.5573
H29 H 0.3422 0.6059 0.5349
O9 O 0.3995(3) 0.3296(3) 0.18606(14)
C26 C 0.5221(4) 0.3295(4) 0.21450(18)
C27 C 0.6080(4) 0.4392(5) 0.2821(2)
H30 H 0.5464 0.4961 0.2996
H31 H 0.7029 0.5075 0.2735
H32 H 0.6303 0.3848 0.3170
C28 C 0.5897(5) 0.2184(6) 0.1823(2)
H33 H 0.5166 0.1462 0.1428
H34 H 0.6142 0.1658 0.2175
H35 H 0.6820 0.2711 0.1657
loop_
_geom_bond_atom_site_label_1
_geom_bond_atom_site_label_2
_geom_bond_site_symmetry_1
_geom_bond_site_symmetry_2
S1 N1 1_555 1_555
N1 H1 1_555 1_555
H2 N1 1_555 1_555
O1 S1 1_555 1_555
O2 S1 1_555 1_555
C1 S1 1_555 1_555
C2 C1 1_555 1_555
C3 C2 1_555 1_555
H3 C3 1_555 1_555
C4 C3 1_555 1_555
C5 C4 1_555 1_555
C6 C1 1_555 1_555
H4 C6 1_555 1_555
Cl1 C2 1_555 1_555
C7 C5 1_555 1_555
O3 C7 1_555 1_555
O4 C7 1_555 1_555
H5 O4 1_555 1_555
N2 C4 1_555 1_555
H6 N2 1_555 1_555
C8 N2 1_555 1_555
H7 C8 1_555 1_555
H8 C8 1_555 1_555
C9 C8 1_555 1_555
O5 C9 1_555 1_555
C10 O5 1_555 1_555
H9 C10 1_555 1_555
C11 C10 1_555 1_555
H10 C11 1_555 1_555
C12 C9 1_555 1_555
H11 C12 1_555 1_555
C13 H12 1_555 1_555
H13 C13 1_555 1_555
H14 C13 1_555 1_555
C14 C13 1_555 1_555
O6 C14 1_555 1_555
C15 C14 1_555 1_555
H15 C15 1_555 1_555
H16 C15 1_555 1_555
C16 C15 1_555 1_555
H17 C16 1_555 1_555
H18 C16 1_555 1_555
C17 C16 1_555 1_555
H19 C17 1_555 1_555
H20 C17 1_555 1_555
C18 C17 1_555 1_555
H21 C18 1_555 1_555
H22 C18 1_555 1_555
N3 C18 1_555 1_555
C19 N3 1_555 1_555
N4 C19 1_555 1_555
C20 N4 1_555 1_555
C21 C20 1_555 1_555
C22 N3 1_555 1_555
O7 C22 1_555 1_555
O8 C19 1_555 1_555
C23 N4 1_555 1_555
H23 C23 1_555 1_555
H24 C23 1_555 1_555
H25 C23 1_555 1_555
N5 C20 1_555 1_555
C24 N5 1_555 1_555
H26 C24 1_555 1_555
N6 C21 1_555 1_555
C25 N6 1_555 1_555
H27 C25 1_555 1_555
H28 C25 1_555 1_555
H29 C25 1_555 1_555
O9 C26 1_555 1_555
C26 C27 1_555 1_555
C27 H30 1_555 1_555
H31 C27 1_555 1_555
H32 C27 1_555 1_555
C28 C26 1_555 1_555
H33 C28 1_555 1_555
H34 C28 1_555 1_555
H35 C28 1_555 1_555
C5 C6 1_555 1_555
C11 C12 1_555 1_555
C21 C22 1_555 1_555
C24 N6 1_555 1_555

#END
