
#######################################################################
#
#                 Cambridge Crystallographic Data Centre
#                                CCDC 
#
#######################################################################
#
# If this CIF has been generated from an entry in the Cambridge 
# Structural Database, then it will include bibliographic, chemical, 
# crystal, experimental, refinement or atomic coordinate data resulting 
# from the CCDC's data processing and validation procedures.
#
#######################################################################

data_FEFZUO
_chemical_formula_moiety         'C28 H16 O8'
_chemical_name_systematic        
"2'-acetyl-3,3'-dioxo-3H,3'H-spiro[2-benzofuran-1,7'-pyrano[2,3-c]xanthen]-10'-yl prop-2-enoate"
_symmetry_cell_setting           triclinic
_symmetry_space_group_name_H-M   'P -1'
_symmetry_Int_Tables_number      2
_space_group_name_Hall           '-P 1'
loop_
_symmetry_equiv_pos_site_id
_symmetry_equiv_pos_as_xyz
1 x,y,z
2 -x,-y,-z
_cell_length_a                   8.0618(12)
_cell_length_b                   10.996(3)
_cell_length_c                   13.408(3)
_cell_angle_alpha                73.06(2)
_cell_angle_beta                 77.869(16)
_cell_angle_gamma                77.053(18)
_cell_volume                     1094.65
_exptl_crystal_colour            colorless
_exptl_crystal_description       block
_cell_formula_units_Z            2
loop_
_atom_site_label
_atom_site_type_symbol
_atom_site_fract_x
_atom_site_fract_y
_atom_site_fract_z
O1 O 0.4628(4) 0.4479(4) 1.2154(3)
O2 O 0.1894(7) 0.8171(4) 1.2094(3)
O3 O 0.1002(4) 0.8292(3) 1.0632(3)
O4 O 0.2078(4) 0.4785(3) 0.9078(2)
O5 O -0.1071(3) 0.6591(3) 0.7016(2)
O6 O -0.2699(4) 0.7624(4) 0.5751(3)
C1 C 0.2476(5) 0.5764(4) 1.0695(3)
H1 H 0.2972 0.4911 1.0708
C2 C 0.2623(6) 0.6262(4) 1.1485(4)
C3 C 0.1851(7) 0.7585(5) 1.1472(4)
C4 C 0.0890(6) 0.7798(4) 0.9815(4)
C5 C 0.0095(6) 0.8626(5) 0.9005(4)
H2 H -0.0402 0.9470 0.9022
C6 C 0.3277(7) 0.5692(6) 1.3399(4)
H3 H 0.3901 0.6353 1.3369
H4 H 0.3658 0.4921 1.3915
H5 H 0.2067 0.5980 1.3592
C7 C 0.0062(6) 0.8162(5) 0.8167(4)
H6 H -0.0427 0.8722 0.7596
C8 C 0.0734(5) 0.6879(4) 0.8133(3)
C9 C 0.1445(5) 0.6068(4) 0.8988(3)
C10 C 0.1582(5) 0.6521(4) 0.9851(3)
C11 C 0.1517(5) 0.5032(4) 0.7311(4)
C12 C 0.2101(5) 0.4286(4) 0.8236(4)
C13 C 0.2791(6) 0.2988(5) 0.8388(4)
H7 H 0.3185 0.2516 0.9017
C14 C 0.2882(7) 0.2416(5) 0.7605(5)
C15 C 0.2325(7) 0.3109(6) 0.6644(4)
H8 H 0.2404 0.2708 0.6109
C16 C 0.1650(6) 0.4417(5) 0.6513(4)
H9 H 0.1277 0.4893 0.5879
C17 C 0.4607(8) -0.1045(6) 0.8006(6)
H10 H 0.4464 -0.1241 0.7403
C18 C 0.5384(10) -0.1730(9) 0.8702(8)
H11 H 0.5440 -0.1427 0.9271
H12 H 0.5927 -0.2561 0.8669
C19 C 0.0746(5) 0.6433(4) 0.7176(3)
C20 C 0.1508(5) 0.7303(4) 0.6158(3)
C21 C 0.3147(5) 0.7595(5) 0.5865(4)
H13 H 0.3976 0.7243 0.6307
C22 C 0.3510(6) 0.8433(5) 0.4881(4)
H14 H 0.4598 0.8660 0.4669
C23 C 0.2303(6) 0.8940(5) 0.4211(4)
H15 H 0.2597 0.9485 0.3551
C24 C 0.0674(6) 0.8648(5) 0.4507(4)
H16 H -0.0147 0.8987 0.4059
C25 C 0.0291(5) 0.7830(4) 0.5500(4)
C26 C -0.1317(6) 0.7398(5) 0.6037(4)
C27 C 0.3598(6) 0.5412(5) 1.2334(4)
O7 O 0.3403(16) 0.1196(13) 0.7529(9)
O8 O 0.3632(15) 0.0382(8) 0.9192(8)
C28 C 0.3884(15) 0.0264(12) 0.8348(10)
H17? H 0.4779 -0.1543 0.7528
O9? O 0.387(2) 0.107(2) 0.7886(15)
O10? O 0.2643(19) 0.0344(13) 0.6959(11)
C29? C 0.3585(16) 0.0102(14) 0.7539(11)
loop_
_geom_bond_atom_site_label_1
_geom_bond_atom_site_label_2
_geom_bond_site_symmetry_1
_geom_bond_site_symmetry_2
O1 C27 1_555 1_555
O2 C3 1_555 1_555
O3 C3 1_555 1_555
O4 C9 1_555 1_555
O5 C19 1_555 1_555
O6 C26 1_555 1_555
C1 H1 1_555 1_555
C2 C1 1_555 1_555
C3 C2 1_555 1_555
C4 O3 1_555 1_555
C5 C4 1_555 1_555
H2 C5 1_555 1_555
C6 H3 1_555 1_555
H4 C6 1_555 1_555
H5 C6 1_555 1_555
C7 C5 1_555 1_555
H6 C7 1_555 1_555
C8 C7 1_555 1_555
C9 C8 1_555 1_555
C10 C1 1_555 1_555
C11 C12 1_555 1_555
C12 O4 1_555 1_555
C13 C12 1_555 1_555
H7 C13 1_555 1_555
C14 C13 1_555 1_555
C15 C14 1_555 1_555
H8 C15 1_555 1_555
C16 C11 1_555 1_555
H9 C16 1_555 1_555
C17 H10 1_555 1_555
C18 C17 1_555 1_555
H11 C18 1_555 1_555
H12 C18 1_555 1_555
C19 C8 1_555 1_555
C20 C19 1_555 1_555
C21 C20 1_555 1_555
H13 C21 1_555 1_555
C22 C21 1_555 1_555
H14 C22 1_555 1_555
C23 C22 1_555 1_555
H15 C23 1_555 1_555
C24 C23 1_555 1_555
H16 C24 1_555 1_555
C25 C20 1_555 1_555
C26 O5 1_555 1_555
C27 C2 1_555 1_555
O7 C14 1_555 1_555
O8 C28 1_555 1_555
C28 C17 1_555 1_555
C4 C10 1_555 1_555
C6 C27 1_555 1_555
C9 C10 1_555 1_555
C11 C19 1_555 1_555
C15 C16 1_555 1_555
C24 C25 1_555 1_555
C25 C26 1_555 1_555
O7 C28 1_555 1_555

#END
