
#######################################################################
#
#                 Cambridge Crystallographic Data Centre
#                                CCDC 
#
#######################################################################
#
# If this CIF has been generated from an entry in the Cambridge 
# Structural Database, then it will include bibliographic, chemical, 
# crystal, experimental, refinement or atomic coordinate data resulting 
# from the CCDC's data processing and validation procedures.
#
#######################################################################

data_FEFZUN
_chemical_formula_moiety         'C26 H33 N2 P1'
_chemical_name_systematic        
2-(2-(Dicyclohexylphosphino)phenyl)-1-methyl-1H-benzimidazole
_symmetry_cell_setting           monoclinic
_symmetry_space_group_name_H-M   'P 21/n'
_symmetry_Int_Tables_number      14
_space_group_name_Hall           '-P 2yn'
loop_
_symmetry_equiv_pos_site_id
_symmetry_equiv_pos_as_xyz
1 x,y,z
2 1/2-x,1/2+y,1/2-z
3 -x,-y,-z
4 1/2+x,1/2-y,1/2+z
_cell_length_a                   11.9517(3)
_cell_length_b                   13.6898(3)
_cell_length_c                   13.8621(3)
_cell_angle_alpha                90
_cell_angle_beta                 90.7170(10)
_cell_angle_gamma                90
_cell_volume                     2267.89
_exptl_crystal_colour            colorless
_exptl_crystal_description       block
_cell_formula_units_Z            4
_exptl_crystal_recrystallization_method 'ethyl acetate'
loop_
_atom_site_label
_atom_site_type_symbol
_atom_site_fract_x
_atom_site_fract_y
_atom_site_fract_z
P1 P 0.66355(3) 0.49180(3) 0.12341(2)
N1 N 0.47811(10) 0.39830(9) 0.28140(9)
N2 N 0.42393(11) 0.54987(10) 0.32115(9)
C1 C 0.36260(13) 0.39800(12) 0.27843(10)
C2 C 0.33030(14) 0.49246(12) 0.30312(11)
C3 C 0.21669(16) 0.51507(15) 0.30802(14)
H1 H 0.1932 0.5775 0.3249
C4 C 0.14049(16) 0.44290(19) 0.28730(15)
H2 H 0.0645 0.4572 0.2894
C5 C 0.17410(17) 0.34944(18) 0.26337(14)
H3 H 0.1201 0.3021 0.2505
C6 C 0.28566(16) 0.32472(14) 0.25812(12)
H4 H 0.3083 0.2619 0.2417
C7 C 0.50932(13) 0.49157(11) 0.30648(10)
C8 C 0.62733(13) 0.52138(11) 0.32236(10)
C9 C 0.65822(15) 0.54761(13) 0.41641(11)
H5 H 0.6056 0.5446 0.4652
C10 C 0.76552(16) 0.57779(13) 0.43779(12)
H6 H 0.7853 0.5944 0.5008
C11 C 0.84320(14) 0.58325(12) 0.36599(12)
H7 H 0.9157 0.6039 0.3802
C12 C 0.81387(13) 0.55809(11) 0.27270(11)
H8 H 0.8675 0.5622 0.2248
C13 C 0.70592(12) 0.52663(10) 0.24782(10)
C14 C 0.79771(12) 0.44473(11) 0.07554(10)
H9 H 0.8561 0.4938 0.0871
C15 C 0.83065(14) 0.35066(12) 0.12845(11)
H10 H 0.8403 0.3645 0.1967
H11 H 0.7709 0.3032 0.1213
C16 C 0.93876(15) 0.30742(14) 0.08946(12)
H12 H 1.0002 0.3520 0.1023
H13 H 0.9550 0.2464 0.1223
C17 C 0.92912(15) 0.28918(13) -0.01804(12)
H14 H 1.0001 0.2654 -0.0418
H15 H 0.8731 0.2393 -0.0303
C18 C 0.89694(14) 0.38166(13) -0.07141(12)
H16 H 0.8876 0.3671 -0.1395
H17 H 0.9568 0.4291 -0.0646
C19 C 0.78871(14) 0.42545(13) -0.03319(10)
H18 H 0.7272 0.3809 -0.0460
H19 H 0.7729 0.4863 -0.0666
C20 C 0.64512(12) 0.61197(11) 0.06270(10)
H20 H 0.6342 0.5978 -0.0061
C21 C 0.74059(16) 0.68421(14) 0.06927(17)
H21 H 0.8078 0.6544 0.0440
H22 H 0.7547 0.7005 0.1364
C22 C 0.7147(2) 0.77770(16) 0.01288(18)
H23 H 0.7754 0.8240 0.0222
H24 H 0.7093 0.7627 -0.0554
C23 C 0.6067(2) 0.82310(15) 0.04546(16)
H25 H 0.5896 0.8793 0.0053
H26 H 0.6155 0.8456 0.1115
C24 C 0.51070(18) 0.75132(16) 0.03957(16)
H27 H 0.4962 0.7345 -0.0274
H28 H 0.4438 0.7816 0.0648
C25 C 0.53668(15) 0.65867(14) 0.09658(13)
H29 H 0.4756 0.6126 0.0885
H30 H 0.5434 0.6744 0.1646
C26 C 0.54934(15) 0.31497(12) 0.26270(13)
H31 H 0.6263 0.3338 0.2703
H32 H 0.5363 0.2923 0.1980
H33 H 0.5326 0.2636 0.3074
loop_
_geom_bond_atom_site_label_1
_geom_bond_atom_site_label_2
_geom_bond_site_symmetry_1
_geom_bond_site_symmetry_2
P1 C13 1_555 1_555
N1 C1 1_555 1_555
N2 C2 1_555 1_555
C1 C2 1_555 1_555
C2 C3 1_555 1_555
C3 H1 1_555 1_555
C4 C3 1_555 1_555
H2 C4 1_555 1_555
C5 C4 1_555 1_555
H3 C5 1_555 1_555
C6 C1 1_555 1_555
H4 C6 1_555 1_555
C7 N1 1_555 1_555
C8 C7 1_555 1_555
C9 C8 1_555 1_555
H5 C9 1_555 1_555
C10 C9 1_555 1_555
H6 C10 1_555 1_555
C11 C10 1_555 1_555
H7 C11 1_555 1_555
C12 C11 1_555 1_555
H8 C12 1_555 1_555
C13 C8 1_555 1_555
C14 P1 1_555 1_555
H9 C14 1_555 1_555
C15 C14 1_555 1_555
H10 C15 1_555 1_555
H11 C15 1_555 1_555
C16 C15 1_555 1_555
H12 C16 1_555 1_555
H13 C16 1_555 1_555
C17 C16 1_555 1_555
H14 C17 1_555 1_555
H15 C17 1_555 1_555
C18 C17 1_555 1_555
H16 C18 1_555 1_555
H17 C18 1_555 1_555
C19 C14 1_555 1_555
H18 C19 1_555 1_555
H19 C19 1_555 1_555
C20 P1 1_555 1_555
H20 C20 1_555 1_555
C21 C20 1_555 1_555
H21 C21 1_555 1_555
H22 C21 1_555 1_555
C22 C21 1_555 1_555
H23 C22 1_555 1_555
H24 C22 1_555 1_555
C23 C22 1_555 1_555
H25 C23 1_555 1_555
H26 C23 1_555 1_555
C24 C23 1_555 1_555
H27 C24 1_555 1_555
H28 C24 1_555 1_555
C25 C20 1_555 1_555
H29 C25 1_555 1_555
H30 C25 1_555 1_555
C26 N1 1_555 1_555
H31 C26 1_555 1_555
H32 C26 1_555 1_555
H33 C26 1_555 1_555
N2 C7 1_555 1_555
C5 C6 1_555 1_555
C12 C13 1_555 1_555
C18 C19 1_555 1_555
C24 C25 1_555 1_555

#END
