
#######################################################################
#
#                 Cambridge Crystallographic Data Centre
#                                CCDC 
#
#######################################################################
#
# If this CIF has been generated from an entry in the Cambridge 
# Structural Database, then it will include bibliographic, chemical, 
# crystal, experimental, refinement or atomic coordinate data resulting 
# from the CCDC's data processing and validation procedures.
#
#######################################################################

data_FEGREP
_chemical_formula_moiety         'C28 H56 Ca1 O8 P2'
_chemical_name_systematic        
bis(1,2-Dimethoxyethane-O,O')-bis(bis(2,2-dimethylpropionyl)phosphanido-O,O')-calcium
_symmetry_cell_setting           orthorhombic
_symmetry_space_group_name_H-M   'P c c a'
_symmetry_Int_Tables_number      54
_space_group_name_Hall           '-P 2a 2ac'
loop_
_symmetry_equiv_pos_site_id
_symmetry_equiv_pos_as_xyz
1 x,y,z
2 1/2-x,-y,z
3 -x,y,1/2-z
4 1/2+x,-y,1/2-z
5 -x,-y,-z
6 1/2+x,y,-z
7 x,-y,1/2+z
8 1/2-x,y,1/2+z
_cell_length_a                   19.957(2)
_cell_length_b                   18.6294(18)
_cell_length_c                   19.3106(19)
_cell_angle_alpha                90
_cell_angle_beta                 90
_cell_angle_gamma                90
_cell_volume                     7179.43
_exptl_crystal_colour            yellow
_exptl_crystal_description       plate
_cell_formula_units_Z            8
loop_
_atom_site_label
_atom_site_type_symbol
_atom_site_fract_x
_atom_site_fract_y
_atom_site_fract_z
Ca1 Ca 0.5000 -0.00957(7) 0.2500
P1 P 0.47804(7) -0.17702(8) 0.10821(9)
O1 O 0.55834(16) -0.07780(18) 0.17095(18)
O2 O 0.42057(16) -0.06201(19) 0.17275(18)
O3 O 0.5202(2) 0.0854(2) 0.3399(2)
O4 O 0.6077(2) 0.0663(2) 0.2331(2)
C1 C 0.5526(2) -0.1364(3) 0.1398(3)
C2 C 0.6191(2) -0.1759(3) 0.1242(3)
C3 C 0.6545(3) -0.1344(4) 0.0675(3)
H1 H 0.6287 -0.1378 0.0245
H2 H 0.6993 -0.1545 0.0603
H3 H 0.6585 -0.0839 0.0811
C4 C 0.6599(3) -0.1753(3) 0.1908(3)
H4 H 0.7026 -0.2000 0.1831
H5 H 0.6348 -0.2000 0.2274
H6 H 0.6684 -0.1256 0.2049
C5 C 0.6086(3) -0.2539(3) 0.1020(3)
H7 H 0.5843 -0.2551 0.0579
H8 H 0.5827 -0.2792 0.1375
H9 H 0.6523 -0.2773 0.0963
C6 C 0.4146(2) -0.1123(3) 0.1327(3)
C7 C 0.3464(2) -0.1216(3) 0.0953(3)
C8 C 0.3516(4) -0.0896(5) 0.0247(4)
H10 H 0.3113 -0.1015 -0.0019
H11 H 0.3911 -0.1090 0.0012
H12 H 0.3557 -0.0374 0.0286
C9 C 0.2921(3) -0.0876(4) 0.1364(4)
H13 H 0.3043 -0.0379 0.1470
H14 H 0.2859 -0.1143 0.1797
H15 H 0.2504 -0.0883 0.1097
C10 C 0.3275(3) -0.2015(3) 0.0883(4)
H16 H 0.3273 -0.2239 0.1342
H17 H 0.3603 -0.2258 0.0587
H18 H 0.2829 -0.2056 0.0675
C11 C 0.5041(4) 0.0717(4) 0.4075(4)
H19 H 0.5388 0.0413 0.4283
H20 H 0.4609 0.0468 0.4095
H21 H 0.5011 0.1170 0.4330
C12 C 0.5796(7) 0.1224(6) 0.3355(6)
H22 H 0.5697 0.1730 0.3474
H23 H 0.6091 0.1037 0.3725
C13 C 0.6148(4) 0.1233(4) 0.2788(5)
H24 H 0.6626 0.1263 0.2920
H25 H 0.6037 0.1679 0.2535
C14 C 0.6575(4) 0.0561(4) 0.1900(5)
H26 H 0.6666 0.1006 0.1647
H27 H 0.6456 0.0181 0.1571
H28 H 0.6976 0.0418 0.2159
P1B P 0.52196(7) -0.17702(8) 0.39179(9)
O1B O 0.44166(16) -0.07780(18) 0.32905(18)
O2B O 0.57943(16) -0.06201(19) 0.32725(18)
O3B O 0.4798(2) 0.0854(2) 0.1601(2)
O4B O 0.3923(2) 0.0663(2) 0.2669(2)
C1B C 0.4474(2) -0.1364(3) 0.3602(3)
C2B C 0.3809(2) -0.1759(3) 0.3758(3)
C3B C 0.3455(3) -0.1344(4) 0.4325(3)
H1B H 0.3713 -0.1378 0.4755
H2B H 0.3007 -0.1545 0.4397
H3B H 0.3415 -0.0839 0.4189
C4B C 0.3401(3) -0.1753(3) 0.3092(3)
H4B H 0.2974 -0.2000 0.3169
H5B H 0.3652 -0.2000 0.2726
H6B H 0.3316 -0.1256 0.2951
C5B C 0.3914(3) -0.2539(3) 0.3980(3)
H7B H 0.4157 -0.2551 0.4421
H8B H 0.4173 -0.2792 0.3625
H9B H 0.3477 -0.2773 0.4037
C6B C 0.5854(2) -0.1123(3) 0.3673(3)
C7B C 0.6536(2) -0.1216(3) 0.4047(3)
C8B C 0.6484(4) -0.0896(5) 0.4753(4)
H10B H 0.6887 -0.1015 0.5019
H11B H 0.6089 -0.1090 0.4988
H12B H 0.6443 -0.0374 0.4714
C9B C 0.7079(3) -0.0876(4) 0.3636(4)
H13B H 0.6957 -0.0379 0.3530
H14B H 0.7141 -0.1143 0.3203
H15B H 0.7496 -0.0883 0.3903
C10B C 0.6725(3) -0.2015(3) 0.4117(4)
H16B H 0.6727 -0.2239 0.3658
H17B H 0.6397 -0.2258 0.4413
H18B H 0.7171 -0.2056 0.4325
C11B C 0.4959(4) 0.0717(4) 0.0925(4)
H19B H 0.4612 0.0413 0.0717
H20B H 0.5391 0.0468 0.0905
H21B H 0.4989 0.1170 0.0670
C12B C 0.4204(7) 0.1224(6) 0.1645(6)
H22B H 0.4303 0.1730 0.1526
H23B H 0.3909 0.1037 0.1275
C13B C 0.3852(4) 0.1233(4) 0.2212(5)
H24B H 0.3374 0.1263 0.2080
H25B H 0.3963 0.1679 0.2465
C14B C 0.3425(4) 0.0561(4) 0.3100(5)
H26B H 0.3334 0.1006 0.3353
H27B H 0.3544 0.0181 0.3429
H28B H 0.3024 0.0418 0.2841
Ca2 Ca 0.5000 0.48966(7) 0.2500
P2 P 0.65164(8) 0.33303(8) 0.25297(8)
O5 O 0.58075(16) 0.43559(18) 0.32357(16)
O6 O 0.56636(16) 0.41991(18) 0.18048(16)
O7 O 0.39363(19) 0.5697(2) 0.2671(2)
O8 O 0.48292(17) 0.58221(17) 0.15921(18)
C15 C 0.6236(2) 0.3876(3) 0.3238(2)
C16 C 0.6593(2) 0.3737(3) 0.3941(3)
C17 C 0.6318(3) 0.4198(4) 0.4501(3)
H29 H 0.5834 0.4122 0.4538
H30 H 0.6407 0.4703 0.4392
H31 H 0.6533 0.4074 0.4941
C18 C 0.7349(3) 0.3860(3) 0.3854(3)
H32 H 0.7429 0.4357 0.3707
H33 H 0.7525 0.3530 0.3503
H34 H 0.7576 0.3773 0.4296
C19 C 0.6501(3) 0.2946(3) 0.4137(3)
H35 H 0.6726 0.2850 0.4578
H36 H 0.6695 0.2641 0.3775
H37 H 0.6021 0.2840 0.4182
C20 C 0.6067(2) 0.3683(3) 0.1811(3)
C21 C 0.6186(3) 0.3317(3) 0.1107(3)
C22 C 0.6318(4) 0.3892(4) 0.0573(3)
H38 H 0.6329 0.3675 0.0110
H39 H 0.6750 0.4121 0.0669
H40 H 0.5962 0.4253 0.0592
C23 C 0.5552(4) 0.2947(5) 0.0917(4)
H41 H 0.5594 0.2743 0.0451
H42 H 0.5182 0.3293 0.0924
H43 H 0.5461 0.2562 0.1249
C24 C 0.6769(4) 0.2810(4) 0.1094(3)
H44 H 0.6656 0.2376 0.1356
H45 H 0.7160 0.3042 0.1304
H46 H 0.6872 0.2681 0.0614
C25 C 0.3313(3) 0.5493(4) 0.2843(4)
H47 H 0.3080 0.5892 0.3070
H48 H 0.3335 0.5083 0.3161
H49 H 0.3068 0.5354 0.2424
C26 C 0.3972(3) 0.6336(3) 0.2270(3)
H50 H 0.4291 0.6675 0.2487
H51 H 0.3526 0.6568 0.2257
C27 C 0.4192(3) 0.6175(3) 0.1561(3)
H52 H 0.3860 0.5861 0.1330
H53 H 0.4230 0.6625 0.1291
C28 C 0.5097(3) 0.5695(3) 0.0924(3)
H54 H 0.4794 0.5380 0.0665
H55 H 0.5536 0.5464 0.0968
H56 H 0.5146 0.6152 0.0678
P2B P 0.34836(8) 0.33303(8) 0.24703(8)
O5B O 0.41925(16) 0.43559(18) 0.17643(16)
O6B O 0.43364(16) 0.41991(18) 0.31952(16)
O7B O 0.60637(19) 0.5697(2) 0.2329(2)
O8B O 0.51708(17) 0.58221(17) 0.34079(18)
C15B C 0.3764(2) 0.3876(3) 0.1762(2)
C16B C 0.3407(2) 0.3737(3) 0.1059(3)
C17B C 0.3682(3) 0.4198(4) 0.0499(3)
H29B H 0.4166 0.4122 0.0462
H30B H 0.3593 0.4703 0.0608
H31B H 0.3467 0.4074 0.0059
C18B C 0.2651(3) 0.3860(3) 0.1146(3)
H32B H 0.2571 0.4357 0.1293
H33B H 0.2475 0.3530 0.1497
H34B H 0.2424 0.3773 0.0704
C19B C 0.3499(3) 0.2946(3) 0.0863(3)
H35B H 0.3274 0.2850 0.0422
H36B H 0.3305 0.2641 0.1225
H37B H 0.3979 0.2840 0.0818
C20B C 0.3933(2) 0.3683(3) 0.3189(3)
C21B C 0.3814(3) 0.3317(3) 0.3893(3)
C22B C 0.3682(4) 0.3892(4) 0.4427(3)
H38B H 0.3671 0.3675 0.4890
H39B H 0.3250 0.4121 0.4331
H40B H 0.4038 0.4253 0.4408
C23B C 0.4448(4) 0.2947(5) 0.4083(4)
H41B H 0.4406 0.2743 0.4549
H42B H 0.4818 0.3293 0.4076
H43B H 0.4539 0.2562 0.3751
C24B C 0.3231(4) 0.2810(4) 0.3906(3)
H44B H 0.3344 0.2376 0.3644
H45B H 0.2840 0.3042 0.3696
H46B H 0.3128 0.2681 0.4386
C25B C 0.6687(3) 0.5493(4) 0.2157(4)
H47B H 0.6920 0.5892 0.1930
H48B H 0.6665 0.5083 0.1839
H49B H 0.6932 0.5354 0.2576
C26B C 0.6028(3) 0.6336(3) 0.2730(3)
H50B H 0.5709 0.6675 0.2513
H51B H 0.6474 0.6568 0.2743
C27B C 0.5808(3) 0.6175(3) 0.3439(3)
H52B H 0.6140 0.5861 0.3670
H53B H 0.5770 0.6625 0.3709
C28B C 0.4903(3) 0.5695(3) 0.4076(3)
H54B H 0.5206 0.5380 0.4335
H55B H 0.4464 0.5464 0.4032
H56B H 0.4854 0.6152 0.4322
loop_
_geom_bond_atom_site_label_1
_geom_bond_atom_site_label_2
_geom_bond_site_symmetry_1
_geom_bond_site_symmetry_2
Ca1 O1 1_555 1_555
Ca2 O5 1_555 1_555
P1 C1 1_555 1_555
P2 C15 1_555 1_555
O1 C1 1_555 1_555
O2 Ca1 1_555 1_555
O3 Ca1 1_555 1_555
O4 Ca1 1_555 1_555
O5 C15 1_555 1_555
O6 Ca2 1_555 1_555
O7 Ca2 1_555 1_555
O8 Ca2 1_555 1_555
C1 C2 1_555 1_555
C2 C3 1_555 1_555
C3 H1 1_555 1_555
H2 C3 1_555 1_555
H3 C3 1_555 1_555
C4 C2 1_555 1_555
H4 C4 1_555 1_555
H5 C4 1_555 1_555
H6 C4 1_555 1_555
C5 C2 1_555 1_555
H7 C5 1_555 1_555
H8 C5 1_555 1_555
H9 C5 1_555 1_555
C6 P1 1_555 1_555
C7 C6 1_555 1_555
C8 C7 1_555 1_555
H10 C8 1_555 1_555
H11 C8 1_555 1_555
H12 C8 1_555 1_555
C9 C7 1_555 1_555
H13 C9 1_555 1_555
H14 C9 1_555 1_555
H15 C9 1_555 1_555
C10 C7 1_555 1_555
H16 C10 1_555 1_555
H17 C10 1_555 1_555
H18 C10 1_555 1_555
C11 O3 1_555 1_555
H19 C11 1_555 1_555
H20 C11 1_555 1_555
H21 C11 1_555 1_555
C12 O3 1_555 1_555
H22 C12 1_555 1_555
H23 C12 1_555 1_555
C13 O4 1_555 1_555
H24 C13 1_555 1_555
H25 C13 1_555 1_555
C14 O4 1_555 1_555
H26 C14 1_555 1_555
H27 C14 1_555 1_555
H28 C14 1_555 1_555
C15 C16 1_555 1_555
C16 C17 1_555 1_555
C17 H29 1_555 1_555
H30 C17 1_555 1_555
H31 C17 1_555 1_555
C18 C16 1_555 1_555
H32 C18 1_555 1_555
H33 C18 1_555 1_555
H34 C18 1_555 1_555
C19 C16 1_555 1_555
H35 C19 1_555 1_555
H36 C19 1_555 1_555
H37 C19 1_555 1_555
C20 P2 1_555 1_555
C21 C20 1_555 1_555
C22 C21 1_555 1_555
H38 C22 1_555 1_555
H39 C22 1_555 1_555
H40 C22 1_555 1_555
C23 C21 1_555 1_555
H41 C23 1_555 1_555
H42 C23 1_555 1_555
H43 C23 1_555 1_555
C24 C21 1_555 1_555
H44 C24 1_555 1_555
H45 C24 1_555 1_555
H46 C24 1_555 1_555
C25 O7 1_555 1_555
H47 C25 1_555 1_555
H48 C25 1_555 1_555
H49 C25 1_555 1_555
C26 O7 1_555 1_555
H50 C26 1_555 1_555
H51 C26 1_555 1_555
C27 O8 1_555 1_555
H52 C27 1_555 1_555
H53 C27 1_555 1_555
C28 O8 1_555 1_555
H54 C28 1_555 1_555
H55 C28 1_555 1_555
H56 C28 1_555 1_555
P1B C1B 1_555 1_555
P2B C15B 1_555 1_555
O1B Ca1 1_555 1_555
O2B Ca1 1_555 1_555
O3B Ca1 1_555 1_555
O4B Ca1 1_555 1_555
O5B Ca2 1_555 1_555
O6B Ca2 1_555 1_555
O7B Ca2 1_555 1_555
O8B Ca2 1_555 1_555
C1B O1B 1_555 1_555
C2B C1B 1_555 1_555
C3B C2B 1_555 1_555
H1B C3B 1_555 1_555
H2B C3B 1_555 1_555
H3B C3B 1_555 1_555
C4B C2B 1_555 1_555
H4B C4B 1_555 1_555
H5B C4B 1_555 1_555
H6B C4B 1_555 1_555
C5B C2B 1_555 1_555
H7B C5B 1_555 1_555
H8B C5B 1_555 1_555
H9B C5B 1_555 1_555
C6B P1B 1_555 1_555
C7B C6B 1_555 1_555
C8B C7B 1_555 1_555
H10B C8B 1_555 1_555
H11B C8B 1_555 1_555
H12B C8B 1_555 1_555
C9B C7B 1_555 1_555
H13B C9B 1_555 1_555
H14B C9B 1_555 1_555
H15B C9B 1_555 1_555
C10B C7B 1_555 1_555
H16B C10B 1_555 1_555
H17B C10B 1_555 1_555
H18B C10B 1_555 1_555
C11B O3B 1_555 1_555
H19B C11B 1_555 1_555
H20B C11B 1_555 1_555
H21B C11B 1_555 1_555
C12B O3B 1_555 1_555
H22B C12B 1_555 1_555
H23B C12B 1_555 1_555
C13B O4B 1_555 1_555
H24B C13B 1_555 1_555
H25B C13B 1_555 1_555
C14B O4B 1_555 1_555
H26B C14B 1_555 1_555
H27B C14B 1_555 1_555
H28B C14B 1_555 1_555
C15B O5B 1_555 1_555
C16B C15B 1_555 1_555
C17B C16B 1_555 1_555
H29B C17B 1_555 1_555
H30B C17B 1_555 1_555
H31B C17B 1_555 1_555
C18B C16B 1_555 1_555
H32B C18B 1_555 1_555
H33B C18B 1_555 1_555
H34B C18B 1_555 1_555
C19B C16B 1_555 1_555
H35B C19B 1_555 1_555
H36B C19B 1_555 1_555
H37B C19B 1_555 1_555
C20B P2B 1_555 1_555
C21B C20B 1_555 1_555
C22B C21B 1_555 1_555
H38B C22B 1_555 1_555
H39B C22B 1_555 1_555
H40B C22B 1_555 1_555
C23B C21B 1_555 1_555
H41B C23B 1_555 1_555
H42B C23B 1_555 1_555
H43B C23B 1_555 1_555
C24B C21B 1_555 1_555
H44B C24B 1_555 1_555
H45B C24B 1_555 1_555
H46B C24B 1_555 1_555
C25B O7B 1_555 1_555
H47B C25B 1_555 1_555
H48B C25B 1_555 1_555
H49B C25B 1_555 1_555
C26B O7B 1_555 1_555
H50B C26B 1_555 1_555
H51B C26B 1_555 1_555
C27B O8B 1_555 1_555
H52B C27B 1_555 1_555
H53B C27B 1_555 1_555
C28B O8B 1_555 1_555
H54B C28B 1_555 1_555
H55B C28B 1_555 1_555
H56B C28B 1_555 1_555
O2 C6 1_555 1_555
O6 C20 1_555 1_555
C12 C13 1_555 1_555
C26 C27 1_555 1_555
O2B C6B 1_555 1_555
O6B C20B 1_555 1_555
C12B C13B 1_555 1_555
C26B C27B 1_555 1_555

#END
