
#######################################################################
#
#                 Cambridge Crystallographic Data Centre
#                                CCDC 
#
#######################################################################
#
# If this CIF has been generated from an entry in the Cambridge 
# Structural Database, then it will include bibliographic, chemical, 
# crystal, experimental, refinement or atomic coordinate data resulting 
# from the CCDC's data processing and validation procedures.
#
#######################################################################

data_FEGROZ
_chemical_formula_moiety         'C50 H70 Ca3 O20,2(C4 H8 O1)'
_chemical_name_systematic        
"hexakis(\m~2~-2-(Methoxycarbonyl)cyclopent-1-en-1-olato-O,O,O')-bis(tetrahydrofuran)-tri-calcium tetrahydrofuran solvate"
_symmetry_cell_setting           triclinic
_symmetry_space_group_name_H-M   'P -1'
_symmetry_Int_Tables_number      2
_space_group_name_Hall           '-P 1'
loop_
_symmetry_equiv_pos_site_id
_symmetry_equiv_pos_as_xyz
1 x,y,z
2 -x,-y,-z
_cell_length_a                   9.7115(3)
_cell_length_b                   11.9575(3)
_cell_length_c                   14.3713(5)
_cell_angle_alpha                70.4128(13)
_cell_angle_beta                 89.0674(13)
_cell_angle_gamma                86.8073(16)
_cell_volume                     1569.85
_exptl_crystal_colour            colorless
_exptl_crystal_description       prism
_chemical_melting_point          '175 deg.C(dec.)'
_cell_formula_units_Z            1
loop_
_atom_site_label
_atom_site_type_symbol
_atom_site_fract_x
_atom_site_fract_y
_atom_site_fract_z
Ca1 Ca 0.0000 0.0000 0.5000
Ca2 Ca 0.08322(6) -0.03975(5) 0.28248(4)
O1 O 0.1111(2) 0.11081(19) 0.35625(15)
O2 O 0.2090(2) 0.1066(2) 0.16567(15)
O3 O 0.3141(3) 0.2723(3) 0.07957(17)
O4 O -0.12402(19) -0.0277(2) 0.37197(14)
O5 O -0.0815(2) 0.0231(2) 0.15697(14)
O6 O -0.2808(2) 0.0394(2) 0.07628(16)
O7 O -0.1388(2) 0.13875(18) 0.54588(14)
O8 O 0.2699(2) -0.1705(2) 0.27791(15)
O9 O 0.4220(2) -0.3276(2) 0.31831(16)
O10 O -0.0205(3) -0.2299(2) 0.28812(18)
C1 C 0.1647(3) 0.2125(3) 0.3212(2)
C2 C 0.1657(4) 0.2954(3) 0.3804(3)
H1 H 0.0713 0.3103 0.4022
H2 H 0.2254 0.2611 0.4394
C3 C 0.2211(5) 0.4083(4) 0.3125(4)
H3 H 0.2961 0.4337 0.3455
H4 H 0.1471 0.4722 0.2941
C4 C 0.2757(4) 0.3840(4) 0.2210(3)
H5 H 0.2374 0.4442 0.1601
H6 H 0.3777 0.3841 0.2184
C5 C 0.2273(3) 0.2626(3) 0.2325(2)
C6 C 0.2462(3) 0.2055(3) 0.1615(2)
C7 C 0.3361(5) 0.2198(5) 0.0032(3)
H7 H 0.3849 0.2745 -0.0522
H8 H 0.2470 0.2042 -0.0197
H9 H 0.3915 0.1449 0.0297
C8 C -0.2487(3) -0.0145(3) 0.3383(2)
C9 C -0.3708(3) -0.0288(4) 0.4080(2)
H10 H -0.3586 0.0139 0.4553
H11 H -0.3834 -0.1138 0.4453
C10 C -0.4930(3) 0.0260(4) 0.3392(3)
H12 H -0.5120 0.1101 0.3341
H13 H -0.5767 -0.0183 0.3638
C11 C -0.4504(3) 0.0171(4) 0.2390(3)
H14 H -0.4855 -0.0548 0.2301
H15 H -0.4851 0.0881 0.1843
C12 C -0.2945(3) 0.0099(3) 0.2432(2)
C13 C -0.2081(3) 0.0240(3) 0.1598(2)
C14 C -0.2019(4) 0.0613(4) -0.0134(2)
H16 H -0.2642 0.0705 -0.0687
H17 H -0.1355 -0.0059 -0.0063
H18 H -0.1524 0.1341 -0.0260
C15 C -0.2346(3) 0.2186(3) 0.5078(2)
C16 C -0.2526(4) 0.2721(3) 0.3965(2)
H19 H -0.2501 0.2093 0.3657
H20 H -0.1796 0.3278 0.3667
C17 C -0.3942(4) 0.3375(4) 0.3838(3)
H21 H -0.4660 0.2867 0.3742
H22 H -0.3949 0.4115 0.3260
C18 C -0.4202(4) 0.3660(3) 0.4791(2)
H23 H -0.3936 0.4473 0.4715
H24 H -0.5184 0.3584 0.4987
C19 C -0.3292(3) 0.2736(3) 0.5532(2)
C20 C 0.3344(3) -0.2506(3) 0.3432(2)
C21 C 0.4282(4) -0.3137(4) 0.2151(3)
H25 H 0.4952 -0.3729 0.2050
H26 H 0.3370 -0.3250 0.1925
H27 H 0.4566 -0.2337 0.1776
C22 C -0.0572(7) -0.2725(5) 0.2136(4)
H28 H 0.0244 -0.3081 0.1897
H29 H -0.0998 -0.2077 0.1573
C23 C -0.1560(11) -0.3619(8) 0.2595(6)
H30 H -0.2513 -0.3281 0.2424
H31 H -0.1410 -0.4305 0.2360
C24 C -0.1354(9) -0.3994(7) 0.3651(5)
H32 H -0.2230 -0.3928 0.3994
H33 H -0.0971 -0.4825 0.3910
C25 C -0.0420(10) -0.3213(5) 0.3766(4)
H34 H 0.0469 -0.3653 0.4008
H35 H -0.0772 -0.2869 0.4267
Ca2A Ca -0.08322(6) 0.03975(5) 0.71752(4)
O1A O -0.1111(2) -0.11081(19) 0.64375(15)
O2A O -0.2090(2) -0.1066(2) 0.83433(15)
O3A O -0.3141(3) -0.2723(3) 0.92043(17)
O4A O 0.12402(19) 0.0277(2) 0.62803(14)
O5A O 0.0815(2) -0.0231(2) 0.84303(14)
O6A O 0.2808(2) -0.0394(2) 0.92372(16)
O7A O 0.1388(2) -0.13875(18) 0.45412(14)
O8A O -0.2699(2) 0.1705(2) 0.72209(15)
O9A O -0.4220(2) 0.3276(2) 0.68169(16)
O10A O 0.0205(3) 0.2299(2) 0.71188(18)
C1A C -0.1647(3) -0.2125(3) 0.6788(2)
C2A C -0.1657(4) -0.2954(3) 0.6196(3)
H1A H -0.0713 -0.3103 0.5978
H2A H -0.2254 -0.2611 0.5606
C3A C -0.2211(5) -0.4083(4) 0.6875(4)
H3A H -0.2961 -0.4337 0.6545
H4A H -0.1471 -0.4722 0.7059
C4A C -0.2757(4) -0.3840(4) 0.7790(3)
H5A H -0.2374 -0.4442 0.8399
H6A H -0.3777 -0.3841 0.7816
C5A C -0.2273(3) -0.2626(3) 0.7675(2)
C6A C -0.2462(3) -0.2055(3) 0.8385(2)
C7A C -0.3361(5) -0.2198(5) 0.9968(3)
H7A H -0.3849 -0.2745 1.0522
H8A H -0.2470 -0.2042 1.0197
H9A H -0.3915 -0.1449 0.9703
C8A C 0.2487(3) 0.0145(3) 0.6617(2)
C9A C 0.3708(3) 0.0288(4) 0.5920(2)
H10A H 0.3586 -0.0139 0.5447
H11A H 0.3834 0.1138 0.5547
C10A C 0.4930(3) -0.0260(4) 0.6608(3)
H12A H 0.5120 -0.1101 0.6659
H13A H 0.5767 0.0183 0.6362
C11A C 0.4504(3) -0.0171(4) 0.7610(3)
H14A H 0.4855 0.0548 0.7699
H15A H 0.4851 -0.0881 0.8157
C12A C 0.2945(3) -0.0099(3) 0.7568(2)
C13A C 0.2081(3) -0.0240(3) 0.8402(2)
C14A C 0.2019(4) -0.0613(4) 1.0134(2)
H16A H 0.2642 -0.0705 1.0687
H17A H 0.1355 0.0059 1.0063
H18A H 0.1524 -0.1341 1.0260
C15A C 0.2346(3) -0.2186(3) 0.4922(2)
C16A C 0.2526(4) -0.2721(3) 0.6035(2)
H19A H 0.2501 -0.2093 0.6343
H20A H 0.1796 -0.3278 0.6333
C17A C 0.3942(4) -0.3375(4) 0.6162(3)
H21A H 0.4660 -0.2867 0.6258
H22A H 0.3949 -0.4115 0.6740
C18A C 0.4202(4) -0.3660(3) 0.5209(2)
H23A H 0.3936 -0.4473 0.5285
H24A H 0.5184 -0.3584 0.5013
C19A C 0.3292(3) -0.2736(3) 0.4468(2)
C20A C -0.3344(3) 0.2506(3) 0.6568(2)
C21A C -0.4282(4) 0.3137(4) 0.7849(3)
H25A H -0.4952 0.3729 0.7950
H26A H -0.3370 0.3250 0.8075
H27A H -0.4566 0.2337 0.8224
C22A C 0.0572(7) 0.2725(5) 0.7864(4)
H28A H -0.0244 0.3081 0.8103
H29A H 0.0998 0.2077 0.8427
C23A C 0.1560(11) 0.3619(8) 0.7405(6)
H30A H 0.2513 0.3281 0.7576
H31A H 0.1410 0.4305 0.7640
C24A C 0.1354(9) 0.3994(7) 0.6349(5)
H32A H 0.2230 0.3928 0.6006
H33A H 0.0971 0.4825 0.6090
C25A C 0.0420(10) 0.3213(5) 0.6234(4)
H34A H -0.0469 0.3653 0.5992
H35A H 0.0772 0.2869 0.5733
O11 O -0.1859(6) 0.3487(4) -0.0232(3)
C26 C -0.0802(8) 0.3376(6) 0.0432(5)
H36 H -0.0094 0.3943 0.0108
H37 H -0.0365 0.2563 0.0614
C27 C -0.1249(7) 0.3588(9) 0.1299(5)
H38 H -0.0717 0.4215 0.1411
H39 H -0.1132 0.2855 0.1880
C28 C -0.2759(10) 0.3986(9) 0.1129(6)
H40 H -0.3324 0.3586 0.1713
H41 H -0.2901 0.4859 0.0958
C29 C -0.3069(6) 0.3602(5) 0.0291(4)
H42 H -0.3507 0.2829 0.0534
H43 H -0.3729 0.4190 -0.0159
loop_
_geom_bond_atom_site_label_1
_geom_bond_atom_site_label_2
_geom_bond_site_symmetry_1
_geom_bond_site_symmetry_2
Ca1 O1 1_555 1_555
Ca2 O1 1_555 1_555
O1 C1 1_555 1_555
O2 Ca2 1_555 1_555
O3 C6 1_555 1_555
O4 Ca1 1_555 1_555
O5 Ca2 1_555 1_555
O6 C13 1_555 1_555
O7 Ca1 1_555 1_555
O8 Ca2 1_555 1_555
O9 C20 1_555 1_555
O10 Ca2 1_555 1_555
O11 C26 1_555 1_555
C1 C2 1_555 1_555
C2 H1 1_555 1_555
H2 C2 1_555 1_555
C3 C2 1_555 1_555
H3 C3 1_555 1_555
H4 C3 1_555 1_555
C4 C3 1_555 1_555
H5 C4 1_555 1_555
H6 C4 1_555 1_555
C5 C1 1_555 1_555
C6 O2 1_555 1_555
C7 O3 1_555 1_555
H7 C7 1_555 1_555
H8 C7 1_555 1_555
H9 C7 1_555 1_555
C8 O4 1_555 1_555
C9 C8 1_555 1_555
H10 C9 1_555 1_555
H11 C9 1_555 1_555
C10 C9 1_555 1_555
H12 C10 1_555 1_555
H13 C10 1_555 1_555
C11 C10 1_555 1_555
H14 C11 1_555 1_555
H15 C11 1_555 1_555
C12 C8 1_555 1_555
C13 O5 1_555 1_555
C14 O6 1_555 1_555
H16 C14 1_555 1_555
H17 C14 1_555 1_555
H18 C14 1_555 1_555
C15 O7 1_555 1_555
C16 C15 1_555 1_555
H19 C16 1_555 1_555
H20 C16 1_555 1_555
C17 C16 1_555 1_555
H21 C17 1_555 1_555
H22 C17 1_555 1_555
C18 C17 1_555 1_555
H23 C18 1_555 1_555
H24 C18 1_555 1_555
C19 C15 1_555 1_555
C20 O8 1_555 1_555
C21 O9 1_555 1_555
H25 C21 1_555 1_555
H26 C21 1_555 1_555
H27 C21 1_555 1_555
C22 O10 1_555 1_555
H28 C22 1_555 1_555
H29 C22 1_555 1_555
C23 C22 1_555 1_555
H30 C23 1_555 1_555
H31 C23 1_555 1_555
C24 C23 1_555 1_555
H32 C24 1_555 1_555
H33 C24 1_555 1_555
C25 O10 1_555 1_555
H34 C25 1_555 1_555
H35 C25 1_555 1_555
C26 H36 1_555 1_555
H37 C26 1_555 1_555
C27 C26 1_555 1_555
H38 C27 1_555 1_555
H39 C27 1_555 1_555
C28 C27 1_555 1_555
H40 C28 1_555 1_555
H41 C28 1_555 1_555
C29 O11 1_555 1_555
H42 C29 1_555 1_555
H43 C29 1_555 1_555
Ca2A O7 1_555 1_555
O1A Ca1 1_555 1_555
O2A Ca2A 1_555 1_555
O3A C6A 1_555 1_555
O4A Ca1 1_555 1_555
O5A Ca2A 1_555 1_555
O6A C13A 1_555 1_555
O7A Ca1 1_555 1_555
O8A Ca2A 1_555 1_555
O9A C20A 1_555 1_555
O10A Ca2A 1_555 1_555
C1A O1A 1_555 1_555
C2A C1A 1_555 1_555
H1A C2A 1_555 1_555
H2A C2A 1_555 1_555
C3A C2A 1_555 1_555
H3A C3A 1_555 1_555
H4A C3A 1_555 1_555
C4A C3A 1_555 1_555
H5A C4A 1_555 1_555
H6A C4A 1_555 1_555
C5A C1A 1_555 1_555
C6A O2A 1_555 1_555
C7A O3A 1_555 1_555
H7A C7A 1_555 1_555
H8A C7A 1_555 1_555
H9A C7A 1_555 1_555
C8A O4A 1_555 1_555
C9A C8A 1_555 1_555
H10A C9A 1_555 1_555
H11A C9A 1_555 1_555
C10A C9A 1_555 1_555
H12A C10A 1_555 1_555
H13A C10A 1_555 1_555
C11A C10A 1_555 1_555
H14A C11A 1_555 1_555
H15A C11A 1_555 1_555
C12A C8A 1_555 1_555
C13A O5A 1_555 1_555
C14A O6A 1_555 1_555
H16A C14A 1_555 1_555
H17A C14A 1_555 1_555
H18A C14A 1_555 1_555
C15A O7A 1_555 1_555
C16A C15A 1_555 1_555
H19A C16A 1_555 1_555
H20A C16A 1_555 1_555
C17A C16A 1_555 1_555
H21A C17A 1_555 1_555
H22A C17A 1_555 1_555
C18A C17A 1_555 1_555
H23A C18A 1_555 1_555
H24A C18A 1_555 1_555
C19A C20 1_555 1_555
C20A C19 1_555 1_555
C21A O9A 1_555 1_555
H25A C21A 1_555 1_555
H26A C21A 1_555 1_555
H27A C21A 1_555 1_555
C22A O10A 1_555 1_555
H28A C22A 1_555 1_555
H29A C22A 1_555 1_555
C23A C22A 1_555 1_555
H30A C23A 1_555 1_555
H31A C23A 1_555 1_555
C24A C23A 1_555 1_555
H32A C24A 1_555 1_555
H33A C24A 1_555 1_555
C25A O10A 1_555 1_555
H34A C25A 1_555 1_555
H35A C25A 1_555 1_555
Ca2 O4 1_555 1_555
Ca2 O7A 1_555 1_555
C4 C5 1_555 1_555
C5 C6 1_555 1_555
C11 C12 1_555 1_555
C12 C13 1_555 1_555
C18 C19 1_555 1_555
C24 C25 1_555 1_555
C28 C29 1_555 1_555
Ca2A O1A 1_555 1_555
Ca2A O4A 1_555 1_555
O8A C20A 1_555 1_555
C4A C5A 1_555 1_555
C5A C6A 1_555 1_555
C11A C12A 1_555 1_555
C12A C13A 1_555 1_555
C15A C19A 1_555 1_555
C18A C19A 1_555 1_555
C24A C25A 1_555 1_555

#END
