
#######################################################################
#
#                 Cambridge Crystallographic Data Centre
#                                CCDC 
#
#######################################################################
#
# If this CIF has been generated from an entry in the Cambridge 
# Structural Database, then it will include bibliographic, chemical, 
# crystal, experimental, refinement or atomic coordinate data resulting 
# from the CCDC's data processing and validation procedures.
#
#######################################################################

data_FEHMAG
_chemical_formula_moiety         'C24 H40 O4,0.2(C8 H7 F1 O1),0.2(C8 H8 O1)'
_chemical_name_systematic        
'Deoxycholic acid p-fluoroacetophenone acetophenone clathrate'
_symmetry_cell_setting           orthorhombic
_symmetry_space_group_name_H-M   'P 21 21 21'
_symmetry_Int_Tables_number      19
_space_group_name_Hall           'P 2ac 2ab'
loop_
_symmetry_equiv_pos_site_id
_symmetry_equiv_pos_as_xyz
1 x,y,z
2 1/2+x,1/2-y,-z
3 -x,1/2+y,1/2-z
4 1/2-x,-y,1/2+z
_cell_length_a                   25.262(6)
_cell_length_b                   13.611(5)
_cell_length_c                   7.208(2)
_cell_angle_alpha                90
_cell_angle_beta                 90
_cell_angle_gamma                90
_cell_volume                     2478.41
_chemical_melting_point          162deg.C
_cell_formula_units_Z            4
loop_
_atom_site_label
_atom_site_type_symbol
_atom_site_fract_x
_atom_site_fract_y
_atom_site_fract_z
C1 C 0.1257(1) 0.2145(2) 0.3517(3)
C2 C 0.0698(1) 0.1849(2) 0.2971(3)
C3 C 0.0717(1) 0.1136(2) 0.1349(3)
C4 C 0.1014(1) 0.1578(2) -0.0281(3)
C5 C 0.1578(1) 0.1910(1) 0.0254(3)
C6 C 0.1867(1) 0.2348(2) -0.1423(3)
C7 C 0.1654(1) 0.3359(1) -0.1965(3)
C8 C 0.1645(1) 0.4076(1) -0.0328(3)
C9 C 0.1337(1) 0.3622(1) 0.1316(3)
C10 C 0.1577(1) 0.2627(1) 0.1933(3)
C11 C 0.1260(1) 0.4372(1) 0.2890(3)
C12 C 0.1003(1) 0.5336(1) 0.2245(3)
C13 C 0.1326(1) 0.5810(1) 0.0673(3)
C14 C 0.1379(1) 0.5037(1) -0.0888(3)
C15 C 0.1612(1) 0.5612(2) -0.2504(3)
C16 C 0.2146(1) 0.2756(2) 0.2666(4)
O1 O 0.0182(1) 0.0902(1) 0.0861(3)
O2 O 0.0471(1) 0.5135(1) 0.1643(2)
C17 C 0.1355(1) 0.6635(2) -0.2331(3)
C18 C 0.1064(1) 0.6664(1) -0.0428(3)
C19 C 0.1866(1) 0.6135(2) 0.1443(3)
C20 C 0.1067(1) 0.7705(1) 0.0394(3)
C21 C 0.0792(1) 0.7774(2) 0.2286(3)
C22 C 0.0838(1) 0.8465(2) -0.0969(3)
C23 C 0.0254(1) 0.8317(2) -0.1501(4)
C24 C 0.0078(1) 0.9111(2) -0.2805(3)
O3 O 0.0079(1) 0.9981(1) -0.2433(3)
O4 O -0.0080(1) 0.8782(1) -0.4431(2)
H1 H 0.1431(11) 0.1503(22) 0.3880(46)
H2 H 0.1259(10) 0.2577(19) 0.4600(38)
H3 H 0.0507(10) 0.1514(20) 0.4080(43)
H4 H 0.0480(10) 0.2423(19) 0.2641(39)
H5 H 0.0906(10) 0.0531(20) 0.1818(41)
H6 H 0.0812(8) 0.2126(16) -0.0724(32)
H7 H 0.1031(12) 0.1072(21) -0.1193(48)
H8 H 0.1759(11) 0.1361(21) 0.0628(42)
H9 H 0.1840(9) 0.1888(17) -0.2420(37)
H10 H 0.2282(10) 0.2414(18) -0.1271(36)
H11 H 0.1277(10) 0.3276(19) -0.2432(40)
H12 H 0.1889(12) 0.3619(22) -0.2936(44)
H13 H 0.2001(10) 0.4205(19) 0.0098(37)
H14 H 0.0980(10) 0.3499(19) 0.0833(39)
H15 H 0.1007(9) 0.4112(18) 0.3840(38)
H16 H 0.1654(12) 0.4562(22) 0.3444(45)
H17 H 0.0973(10) 0.5761(20) 0.3285(42)
H18 H 0.1024(9) 0.4907(17) -0.1311(35)
H19 H 0.1543(12) 0.5236(23) -0.3557(46)
H20 H 0.2003(10) 0.5653(20) -0.2264(40)
H21 H 0.2166(13) 0.3115(25) 0.3740(53)
H22 H 0.2272(13) 0.2021(25) 0.3021(51)
H23 H 0.2409(11) 0.3127(22) 0.1813(42)
H24 H 0.0177(13) 0.0635(24) -0.0077(48)
H25 H 0.0250(10) 0.5342(19) 0.2342(40)
H26 H 0.1653(12) 0.7169(24) -0.2262(47)
H27 H 0.1111(11) 0.6772(21) -0.3392(41)
H28 H 0.0676(8) 0.6468(16) -0.0597(33)
H29 H 0.2076(11) 0.6578(22) 0.0590(46)
H30 H 0.1814(9) 0.6534(18) 0.2434(36)
H31 H 0.2077(9) 0.5598(19) 0.1805(36)
H32 H 0.1429(8) 0.7879(15) 0.0583(31)
H33 H 0.0999(9) 0.7458(17) 0.3341(36)
H34 H 0.0431(11) 0.7434(20) 0.2337(42)
H35 H 0.0754(12) 0.8416(24) 0.2631(44)
H36 H 0.0878(10) 0.9092(19) -0.0366(39)
H37 H 0.1078(12) 0.8440(23) -0.2184(47)
H38 H 0.0054(12) 0.8315(22) -0.0342(47)
H39 H 0.0169(11) 0.7667(21) -0.2014(42)
H40 H -0.0216(14) 0.9285(26) -0.5047(50)
loop_
_geom_bond_atom_site_label_1
_geom_bond_atom_site_label_2
_geom_bond_site_symmetry_1
_geom_bond_site_symmetry_2
C1 C2 1_555 1_555
C2 C3 1_555 1_555
C3 C4 1_555 1_555
C4 C5 1_555 1_555
C5 C6 1_555 1_555
C6 C7 1_555 1_555
C7 C8 1_555 1_555
C8 C9 1_555 1_555
C9 C10 1_555 1_555
C10 C1 1_555 1_555
C11 C9 1_555 1_555
C12 C11 1_555 1_555
C13 C12 1_555 1_555
C14 C8 1_555 1_555
C15 C14 1_555 1_555
C16 C10 1_555 1_555
O1 C3 1_555 1_555
O2 C12 1_555 1_555
C17 C15 1_555 1_555
C18 C13 1_555 1_555
C19 C13 1_555 1_555
C20 C18 1_555 1_555
C21 C20 1_555 1_555
C22 C20 1_555 1_555
C23 C22 1_555 1_555
C24 C23 1_555 1_555
O3 C24 1_555 1_555
O4 C24 1_555 1_555
H1 C1 1_555 1_555
H2 C1 1_555 1_555
H3 C2 1_555 1_555
H4 C2 1_555 1_555
H5 C3 1_555 1_555
H6 C4 1_555 1_555
H7 C4 1_555 1_555
H8 C5 1_555 1_555
H9 C6 1_555 1_555
H10 C6 1_555 1_555
H11 C7 1_555 1_555
H12 C7 1_555 1_555
H13 C8 1_555 1_555
H14 C9 1_555 1_555
H15 C11 1_555 1_555
H16 C11 1_555 1_555
H17 C12 1_555 1_555
H18 C14 1_555 1_555
H19 C15 1_555 1_555
H20 C15 1_555 1_555
H21 C16 1_555 1_555
H22 C16 1_555 1_555
H23 C16 1_555 1_555
H24 O1 1_555 1_555
H25 O2 1_555 1_555
H26 C17 1_555 1_555
H27 C17 1_555 1_555
H28 C18 1_555 1_555
H29 C19 1_555 1_555
H30 C19 1_555 1_555
H31 C19 1_555 1_555
H32 C20 1_555 1_555
H33 C21 1_555 1_555
H34 C21 1_555 1_555
H35 C21 1_555 1_555
H36 C22 1_555 1_555
H37 C22 1_555 1_555
H38 C23 1_555 1_555
H39 C23 1_555 1_555
H40 O4 1_555 1_555
C5 C10 1_555 1_555
C13 C14 1_555 1_555
C17 C18 1_555 1_555

#END
