
#######################################################################
#
#                 Cambridge Crystallographic Data Centre
#                                CCDC 
#
#######################################################################
#
# If this CIF has been generated from an entry in the Cambridge 
# Structural Database, then it will include bibliographic, chemical, 
# crystal, experimental, refinement or atomic coordinate data resulting 
# from the CCDC's data processing and validation procedures.
#
#######################################################################

data_FEHMEK
_chemical_formula_moiety         'C24 H40 O4,0.33(C9 H10 O1)'
_chemical_name_systematic        'Deoxycholic acid propiophenone clathrate'
_symmetry_cell_setting           orthorhombic
_symmetry_space_group_name_H-M   'P 21 21 21'
_symmetry_Int_Tables_number      19
_space_group_name_Hall           'P 2ac 2ab'
loop_
_symmetry_equiv_pos_site_id
_symmetry_equiv_pos_as_xyz
1 x,y,z
2 1/2+x,1/2-y,-z
3 -x,1/2+y,1/2-z
4 1/2-x,-y,1/2+z
_cell_length_a                   25.343(7)
_cell_length_b                   13.634(7)
_cell_length_c                   7.229(3)
_cell_angle_alpha                90
_cell_angle_beta                 90
_cell_angle_gamma                90
_cell_volume                     2497.81
_chemical_melting_point          162-164deg.C
_cell_formula_units_Z            4
loop_
_atom_site_label
_atom_site_type_symbol
_atom_site_fract_x
_atom_site_fract_y
_atom_site_fract_z
C1 C 0.1249(1) 0.2160(1) 0.3495(2)
C2 C 0.0690(1) 0.1869(1) 0.2951(2)
C3 C 0.0706(1) 0.1158(1) 0.1338(2)
C4 C 0.1004(1) 0.1598(1) -0.0295(2)
C5 C 0.1566(1) 0.1926(1) 0.0239(2)
C6 C 0.1856(1) 0.2361(1) -0.1434(2)
C7 C 0.1647(1) 0.3373(1) -0.1975(2)
C8 C 0.1638 0.4090(1) -0.0343(2)
C9 C 0.1331 0.3640(1) 0.1297(2)
C10 C 0.1569 0.2639(1) 0.1919(2)
C11 C 0.1261(1) 0.4386(1) 0.2865(2)
C12 C 0.1004(1) 0.5353(1) 0.2227(2)
C13 C 0.1325 0.5819(1) 0.0652(2)
C14 C 0.1375(1) 0.5047(1) -0.0905(2)
C15 C 0.1610(1) 0.5622(1) -0.2528(2)
C16 C 0.2135(1) 0.2762(1) 0.2645(2)
O1 O 0.0173 0.0924(1) 0.0849(2)
O2 O 0.0471 0.5155(1) 0.1633(1)
C17 C 0.1354(1) 0.6645(1) -0.2350(2)
C18 C 0.1062(1) 0.6673(1) -0.0450(2)
C19 C 0.1865(1) 0.6150(1) 0.1413(2)
C20 C 0.1064(1) 0.7712(1) 0.0378(2)
C21 C 0.0788(1) 0.7780(1) 0.2255(2)
C22 C 0.0836(1) 0.8474(1) -0.0978(2)
C23 C 0.0256(1) 0.8322(1) -0.1515(3)
C24 C 0.0076(1) 0.9121(1) -0.2819(2)
O3 O 0.0072(1) 0.9990(1) -0.2420(2)
O4 O -0.0076 0.8802(1) -0.4447(2)
H1 H 0.1446(9) 0.1549(17) 0.3776(36)
H2 H 0.1235(9) 0.2568(17) 0.4595(35)
H3 H 0.0517(9) 0.1529(17) 0.4072(35)
H4 H 0.0508(9) 0.2413(17) 0.2536(33)
H5 H 0.0876(7) 0.0509(15) 0.1735(31)
H6 H 0.0798(8) 0.2138(16) -0.0688(32)
H7 H 0.1012(8) 0.1092(16) -0.1144(34)
H8 H 0.1727(9) 0.1341(17) 0.0736(36)
H9 H 0.1823(8) 0.1903(15) -0.2535(32)
H10 H 0.2252(8) 0.2435(15) -0.1133(30)
H11 H 0.1288(8) 0.3298(16) -0.2395(32)
H12 H 0.1866(8) 0.3628(16) -0.2900(33)
H13 H 0.1986(9) 0.4252(16) 0.0083(31)
H14 H 0.0970(7) 0.3519(15) 0.0845(30)
H15 H 0.1019(8) 0.4113(15) 0.3858(32)
H16 H 0.1574(8) 0.4531(16) 0.3423(32)
H17 H 0.0980(6) 0.5785(13) 0.3268(26)
H18 H 0.1009(8) 0.4913(16) -0.1224(33)
H19 H 0.1521(9) 0.5311(17) -0.3714(35)
H20 H 0.2012(9) 0.5617(18) -0.2460(34)
H21 H 0.2056(8) 0.6577(16) 0.0639(34)
H22 H 0.1844(8) 0.6518(16) 0.2487(32)
H23 H 0.2117(8) 0.5546(17) 0.1918(33)
H24 H 0.2096(9) 0.3127(17) 0.3802(35)
H25 H 0.2206(8) 0.2068(17) 0.3065(34)
H26 H 0.2388(9) 0.3105(17) 0.1768(34)
H27 H 0.0168(9) 0.0675(18) -0.0339(37)
H28 H 0.0262(9) 0.5350(18) 0.2357(37)
H29 H 0.1627(8) 0.7150(17) -0.2392(32)
H30 H 0.1109(9) 0.6794(17) -0.3371(34)
H31 H 0.0698(6) 0.6494(13) -0.0656(27)
H32 H 0.1448(7) 0.7874(14) 0.0412(29)
H33 H 0.0997(9) 0.7484(18) 0.3238(37)
H34 H 0.0471(9) 0.7378(19) 0.2134(38)
H35 H 0.0668(9) 0.8475(18) 0.2606(35)
H36 H 0.0869(8) 0.9051(15) -0.0443(31)
H37 H 0.1047(8) 0.8498(15) -0.2087(31)
H38 H 0.0045(9) 0.8331(18) -0.0264(36)
H39 H 0.0179(9) 0.7684(18) -0.1968(35)
H40 H -0.0177(11) 0.9247(21) -0.5126(41)
loop_
_geom_bond_atom_site_label_1
_geom_bond_atom_site_label_2
_geom_bond_site_symmetry_1
_geom_bond_site_symmetry_2
C1 C2 1_555 1_555
C2 C3 1_555 1_555
C3 C4 1_555 1_555
C4 C5 1_555 1_555
C5 C6 1_555 1_555
C6 C7 1_555 1_555
C7 C8 1_555 1_555
C8 C9 1_555 1_555
C9 C10 1_555 1_555
C10 C1 1_555 1_555
C11 C9 1_555 1_555
C12 C11 1_555 1_555
C13 C12 1_555 1_555
C14 C8 1_555 1_555
C15 C14 1_555 1_555
C16 C10 1_555 1_555
O1 C3 1_555 1_555
O2 C12 1_555 1_555
C17 C15 1_555 1_555
C18 C13 1_555 1_555
C19 C13 1_555 1_555
C20 C18 1_555 1_555
C21 C20 1_555 1_555
C22 C20 1_555 1_555
C23 C22 1_555 1_555
C24 C23 1_555 1_555
O3 C24 1_555 1_555
O4 C24 1_555 1_555
H1 C1 1_555 1_555
H2 C1 1_555 1_555
H3 C2 1_555 1_555
H4 C2 1_555 1_555
H5 C3 1_555 1_555
H6 C4 1_555 1_555
H7 C4 1_555 1_555
H8 C5 1_555 1_555
H9 C6 1_555 1_555
H10 C6 1_555 1_555
H11 C7 1_555 1_555
H12 C7 1_555 1_555
H13 C8 1_555 1_555
H14 C9 1_555 1_555
H15 C11 1_555 1_555
H16 C11 1_555 1_555
H17 C12 1_555 1_555
H18 C14 1_555 1_555
H19 C15 1_555 1_555
H20 C15 1_555 1_555
H21 C19 1_555 1_555
H22 C19 1_555 1_555
H23 C19 1_555 1_555
H24 C16 1_555 1_555
H25 C16 1_555 1_555
H26 C16 1_555 1_555
H27 O1 1_555 1_555
H28 O2 1_555 1_555
H29 C17 1_555 1_555
H30 C17 1_555 1_555
H31 C18 1_555 1_555
H32 C20 1_555 1_555
H33 C21 1_555 1_555
H34 C21 1_555 1_555
H35 C21 1_555 1_555
H36 C22 1_555 1_555
H37 C22 1_555 1_555
H38 C23 1_555 1_555
H39 C23 1_555 1_555
H40 O4 1_555 1_555
C5 C10 1_555 1_555
C13 C14 1_555 1_555
C17 C18 1_555 1_555

#END
