
#######################################################################
#
#                 Cambridge Crystallographic Data Centre
#                                CCDC 
#
#######################################################################
#
# If this CIF has been generated from an entry in the Cambridge 
# Structural Database, then it will include bibliographic, chemical, 
# crystal, experimental, refinement or atomic coordinate data resulting 
# from the CCDC's data processing and validation procedures.
#
#######################################################################

data_FEHQER
_chemical_formula_moiety         '2(C6 H16 N1 O1 1+),C1 O3 2-'
_chemical_name_systematic        
'bis(N-(2-hydroxyethyl)-2-methylpropan-2-aminium) carbonate'
_symmetry_cell_setting           monoclinic
_symmetry_space_group_name_H-M   'C 2/c'
_symmetry_Int_Tables_number      15
_space_group_name_Hall           '-C 2yn'
loop_
_symmetry_equiv_pos_site_id
_symmetry_equiv_pos_as_xyz
1 x,y,z
2 -x,y,1/2-z
3 1/2+x,1/2+y,z
4 1/2-x,1/2+y,1/2-z
5 -x,-y,-z
6 x,-y,1/2+z
7 1/2-x,1/2-y,-z
8 1/2+x,1/2-y,1/2+z
_cell_length_a                   14.850(19)
_cell_length_b                   6.060(8)
_cell_length_c                   18.66(2)
_cell_angle_alpha                90
_cell_angle_beta                 90.40(2)
_cell_angle_gamma                90
_cell_volume                     1679.19
_exptl_crystal_colour            colorless
_exptl_crystal_description       rod
_cell_formula_units_Z            4
_chemical_properties_physical    Heat-sensitive
loop_
_atom_site_label
_atom_site_type_symbol
_atom_site_fract_x
_atom_site_fract_y
_atom_site_fract_z
C1 C -0.10184(12) 0.8590(3) 0.40847(10)
H1 H -0.1235 0.8285 0.3591
H2 H -0.1491 0.8100 0.4421
C2 C -0.01683(12) 0.7264(3) 0.42246(9)
H3 H 0.0172 0.7947 0.4625
H4 H -0.0336 0.5749 0.4371
C3 C 0.14441(13) 0.7203(3) 0.37057(10)
C4 C 0.18830(13) 0.6478(4) 0.30022(11)
H5 H 0.1699 0.7481 0.2616
H6 H 0.1691 0.4973 0.2885
H7 H 0.2540 0.6517 0.3056
C5 C 0.17184(15) 0.9549(3) 0.39033(12)
H8 H 0.1578 1.0541 0.3503
H9 H 0.2366 0.9594 0.4005
H10 H 0.1387 1.0021 0.4329
C6 C 0.16880(14) 0.5617(3) 0.43219(11)
H11 H 0.2344 0.5511 0.4367
H12 H 0.1437 0.4153 0.4220
H13 H 0.1437 0.6177 0.4771
N1 N 0.04299(10) 0.7149(2) 0.35703(8)
H14 H 0.0284 0.8312 0.3274
H15 H 0.0295 0.5871 0.3326
O1 O -0.08888(10) 1.0888(2) 0.41645(8)
H16 H -0.0656 1.1400 0.3791
C7 C 0.0000 0.2142(4) 0.2500
O2 O 0.0000 0.0006(3) 0.2500
O3 O -0.01540(10) 0.3176(2) 0.30931(7)
O3A O 0.01540(10) 0.3176(2) 0.19069(7)
loop_
_geom_bond_atom_site_label_1
_geom_bond_atom_site_label_2
_geom_bond_site_symmetry_1
_geom_bond_site_symmetry_2
C1 H1 1_555 1_555
H2 C1 1_555 1_555
C2 C1 1_555 1_555
H3 C2 1_555 1_555
H4 C2 1_555 1_555
C3 C4 1_555 1_555
C4 H5 1_555 1_555
H6 C4 1_555 1_555
H7 C4 1_555 1_555
C5 C3 1_555 1_555
H8 C5 1_555 1_555
H9 C5 1_555 1_555
H10 C5 1_555 1_555
C6 C3 1_555 1_555
H11 C6 1_555 1_555
H12 C6 1_555 1_555
H13 C6 1_555 1_555
N1 C2 1_555 1_555
H14 N1 1_555 1_555
H15 N1 1_555 1_555
O1 C1 1_555 1_555
H16 O1 1_555 1_555
C7 O2 1_555 1_555
O3 C7 1_555 1_555
O3A C7 1_555 1_555
C3 N1 1_555 1_555

#END
