
#######################################################################
#
#                 Cambridge Crystallographic Data Centre
#                                CCDC 
#
#######################################################################
#
# If this CIF has been generated from an entry in the Cambridge 
# Structural Database, then it will include bibliographic, chemical, 
# crystal, experimental, refinement or atomic coordinate data resulting 
# from the CCDC's data processing and validation procedures.
#
#######################################################################

data_FEHXOF10
_chemical_formula_moiety         'C56 H72 O8,C3 H6 O1'
_chemical_name_systematic        
'5,11,17,23-Tetra-t-butyl-25,26,27,28-tetrakis(acetylmethoxy) calix(4)arene acetone solvate'
_symmetry_cell_setting           orthorhombic
_symmetry_space_group_name_H-M   'P b c n'
_symmetry_Int_Tables_number      60
_space_group_name_Hall           '-P 2n 2ab'
loop_
_symmetry_equiv_pos_site_id
_symmetry_equiv_pos_as_xyz
1 x,y,z
2 1/2-x,1/2+y,z
3 x,-y,1/2+z
4 1/2-x,1/2-y,1/2+z
5 -x,-y,-z
6 1/2+x,1/2-y,-z
7 -x,y,1/2-z
8 1/2+x,1/2+y,1/2-z
_cell_length_a                   19.644(7)
_cell_length_b                   12.712(3)
_cell_length_c                   22.115(7)
_cell_angle_alpha                90
_cell_angle_beta                 90
_cell_angle_gamma                90
_cell_volume                     5522.44
_exptl_crystal_colour            white
_chemical_melting_point          204-207deg.C
_cell_formula_units_Z            4
loop_
_atom_site_label
_atom_site_type_symbol
_atom_site_fract_x
_atom_site_fract_y
_atom_site_fract_z
O5 O 0.555 0.399 0.486
O1 O 0.4303(4) -0.2203(5) 0.1990(3)
O2 O 0.3346(4) -0.3775(6) 0.2295(4)
C1 C 0.3959(5) -0.1437(8) 0.1645(5)
C2 C 0.3396(5) -0.0975(8) 0.1901(5)
C3 C 0.3091(5) -0.0172(9) 0.1590(5)
C4 C 0.3316(5) 0.0158(9) 0.1007(5)
C5 C 0.3879(6) -0.0318(8) 0.0781(5)
C6 C 0.4246(6) -0.1123(8) 0.1088(5)
C7 C 0.3191(5) -0.1265(8) 0.2531(5)
C8 C 0.2974(6) 0.1056(11) 0.0677(6)
C9 C 0.3214(8) 0.1272(14) 0.0081(7)
C10 C 0.2982(10) 0.2033(13) 0.1088(9)
C11 C 0.2222(9) 0.0820(15) 0.0618(8)
C12 C 0.4365(6) -0.3240(9) 0.1781(6)
C13 C 0.3854(6) -0.4012(8) 0.2053(5)
C14 C 0.4046(7) -0.5151(11) 0.1930(7)
O3 O 0.4090(3) -0.2452(5) 0.3340(3)
O4 O 0.4163(4) -0.4521(6) 0.3533(4)
C15 C 0.4076(5) -0.1354(7) 0.3369(4)
C16 C 0.4529(5) -0.0854(8) 0.3766(5)
C17 C 0.4487(5) 0.0227(8) 0.3810(5)
C18 C 0.4036(5) 0.0813(8) 0.3468(5)
C19 C 0.3638(5) 0.0312(8) 0.3065(5)
C20 C 0.3635(5) -0.0772(7) 0.3002(5)
C21 C 0.4942(5) -0.1461(8) 0.0873(5)
C22 C 0.4054(6) 0.2049(9) 0.3541(5)
C23 C 0.3602(7) 0.2591(9) 0.3085(7)
C24 C 0.3742(10) 0.2324(10) 0.4166(7)
C25 C 0.4764(7) 0.2483(10) 0.3505(9)
C26 C 0.3564(6) -0.2936(8) 0.3654(5)
C27 C 0.3633(6) -0.4100(9) 0.3684(5)
C28 C 0.3043(7) -0.4662(10) 0.3903(7)
H1 H 0.2717 0.0179 0.1771
H2 H 0.4034 -0.0100 0.0392
H3 H 0.3216 -0.2007 0.2571
H4 H 0.2735 -0.1039 0.2594
H5 H 0.2969 0.1841 -0.0086
H6 H 0.3686 0.1438 0.0096
H7 H 0.3152 0.0662 -0.0164
H8 H 0.2767 0.2599 0.0882
H9 H 0.2739 0.1876 0.1447
H10 H 0.3436 0.2210 0.1180
H11 H 0.2005 0.1381 0.0407
H12 H 0.2165 0.0186 0.0395
H13 H 0.2029 0.0746 0.1006
H14 H 0.4808 -0.3484 0.1874
H15 H 0.4302 -0.3238 0.1354
H16 H 0.4472 -0.5174 0.1726
H17 H 0.4075 -0.5522 0.2299
H18 H 0.3707 -0.5465 0.1679
H19 H 0.4782 0.0580 0.4084
H20 H 0.3348 0.0718 0.2815
H21 H 0.4990 -0.1315 0.0455
H22 H 0.4998 -0.2198 0.0939
H23 H 0.3627 0.3329 0.3142
H24 H 0.3753 0.2420 0.2689
H25 H 0.3147 0.2360 0.3137
H26 H 0.3748 0.3068 0.4218
H27 H 0.3288 0.2078 0.4183
H28 H 0.4004 0.2004 0.4475
H29 H 0.4750 0.3228 0.3552
H30 H 0.5033 0.2189 0.3821
H31 H 0.4958 0.2314 0.3126
H32 H 0.3147 -0.2770 0.3457
H33 H 0.3556 -0.2665 0.4054
H34 H 0.2690 -0.4175 0.3994
H35 H 0.2892 -0.5139 0.3602
H36 H 0.3162 -0.5039 0.4259
C21F C 0.5058(5) -0.1461(8) 0.4127(5)
C16F C 0.5471(5) -0.0854(8) 0.1234(5)
C6F C 0.5754(6) -0.1123(8) 0.3912(5)
H21F H 0.5010 -0.1315 0.4545
H22F H 0.5002 -0.2198 0.4061
C15F C 0.5924(5) -0.1354(7) 0.1631(4)
C17F C 0.5513(5) 0.0227(8) 0.1190(5)
C1F C 0.6041(5) -0.1437(8) 0.3355(5)
C5F C 0.6121(6) -0.0318(8) 0.4219(5)
O3F O 0.5910(3) -0.2452(5) 0.1660(3)
C20F C 0.6365(5) -0.0772(7) 0.1998(5)
C18F C 0.5964(5) 0.0813(8) 0.1532(5)
H19F H 0.5218 0.0580 0.0916
O1F O 0.5697(4) -0.2203(5) 0.3010(3)
C2F C 0.6604(5) -0.0975(8) 0.3099(5)
C4F C 0.6684(5) 0.0158(9) 0.3993(5)
H2F H 0.5966 -0.0100 0.4608
C26F C 0.6436(6) -0.2936(8) 0.1346(5)
C7F C 0.6809(5) -0.1265(8) 0.2469(5)
C19F C 0.6362(5) 0.0312(8) 0.1935(5)
C22F C 0.5946(6) 0.2049(9) 0.1459(5)
C12F C 0.5635(6) -0.3240(9) 0.3219(6)
C3F C 0.6909(5) -0.0172(9) 0.3410(5)
C8F C 0.7026(6) 0.1056(11) 0.4323(6)
C27F C 0.6367(6) -0.4100(9) 0.1316(5)
H32F H 0.6853 -0.2770 0.1543
H33F H 0.6444 -0.2665 0.0946
H3F H 0.6784 -0.2007 0.2429
H4F H 0.7265 -0.1039 0.2406
H20F H 0.6652 0.0718 0.2185
C23F C 0.6398(7) 0.2591(9) 0.1915(7)
C24F C 0.6258(10) 0.2324(10) 0.0834(7)
C25F C 0.5236(7) 0.2483(10) 0.1495(9)
C13F C 0.6146(6) -0.4012(8) 0.2947(5)
H14F H 0.5192 -0.3484 0.3126
H15F H 0.5698 -0.3238 0.3646
H1F H 0.7283 0.0179 0.3229
C9F C 0.6786(8) 0.1272(14) 0.4919(7)
C10F C 0.7018(10) 0.2033(13) 0.3912(9)
C11F C 0.7778(9) 0.0820(15) 0.4382(8)
O4F O 0.5837(4) -0.4521(6) 0.1467(4)
C28F C 0.6957(7) -0.4662(10) 0.1097(7)
H23F H 0.6373 0.3329 0.1858
H24F H 0.6247 0.2420 0.2311
H25F H 0.6853 0.2360 0.1863
H26F H 0.6252 0.3068 0.0782
H27F H 0.6712 0.2078 0.0817
H28F H 0.5996 0.2004 0.0525
H29F H 0.5250 0.3228 0.1448
H30F H 0.4967 0.2189 0.1179
H31F H 0.5042 0.2314 0.1874
O2F O 0.6654(4) -0.3775(6) 0.2705(4)
C14F C 0.5954(7) -0.5151(11) 0.3070(7)
H5F H 0.7031 0.1841 0.5086
H6F H 0.6314 0.1438 0.4904
H7F H 0.6848 0.0662 0.5164
H8F H 0.7233 0.2599 0.4118
H9F H 0.7261 0.1876 0.3553
H10F H 0.6564 0.2210 0.3820
H11F H 0.7995 0.1381 0.4593
H12F H 0.7835 0.0186 0.4605
H13F H 0.7971 0.0746 0.3994
H34F H 0.7310 -0.4175 0.1006
H35F H 0.7108 -0.5139 0.1398
H36F H 0.6838 -0.5039 0.0741
H16F H 0.5528 -0.5174 0.3274
H17F H 0.5925 -0.5522 0.2701
H18F H 0.6293 -0.5465 0.3321
C29? C 0.507 0.454 0.5000
C30? C 0.507 0.557 0.486
C31? C 0.450 0.406 0.514
loop_
_geom_bond_atom_site_label_1
_geom_bond_atom_site_label_2
_geom_bond_site_symmetry_1
_geom_bond_site_symmetry_2
O1 C1 1_555 1_555
O2 C13 1_555 1_555
C1 C2 1_555 1_555
C2 C3 1_555 1_555
C3 C4 1_555 1_555
C4 C5 1_555 1_555
C5 C6 1_555 1_555
C6 C1 1_555 1_555
C7 C2 1_555 1_555
C8 C4 1_555 1_555
C9 C8 1_555 1_555
C10 C8 1_555 1_555
C11 C8 1_555 1_555
C12 O1 1_555 1_555
C13 C12 1_555 1_555
C14 C13 1_555 1_555
O3 C15 1_555 1_555
O4 C27 1_555 1_555
C15 C16 1_555 1_555
C16 C17 1_555 1_555
C17 C18 1_555 1_555
C18 C19 1_555 1_555
C19 C20 1_555 1_555
C20 C7 1_555 1_555
C21 C6 1_555 1_555
C22 C18 1_555 1_555
C23 C22 1_555 1_555
C24 C22 1_555 1_555
C25 C22 1_555 1_555
C26 O3 1_555 1_555
C27 C26 1_555 1_555
C28 C27 1_555 1_555
H1 C3 1_555 1_555
H2 C5 1_555 1_555
H3 C7 1_555 1_555
H4 C7 1_555 1_555
H5 C9 1_555 1_555
H6 C9 1_555 1_555
H7 C9 1_555 1_555
H8 C10 1_555 1_555
H9 C10 1_555 1_555
H10 C10 1_555 1_555
H11 C11 1_555 1_555
H12 C11 1_555 1_555
H13 C11 1_555 1_555
H14 C12 1_555 1_555
H15 C12 1_555 1_555
H16 C14 1_555 1_555
H17 C14 1_555 1_555
H18 C14 1_555 1_555
H19 C17 1_555 1_555
H20 C19 1_555 1_555
H21 C21 1_555 1_555
H22 C21 1_555 1_555
H23 C23 1_555 1_555
H24 C23 1_555 1_555
H25 C23 1_555 1_555
H26 C24 1_555 1_555
H27 C24 1_555 1_555
H28 C24 1_555 1_555
H29 C25 1_555 1_555
H30 C25 1_555 1_555
H31 C25 1_555 1_555
H32 C26 1_555 1_555
H33 C26 1_555 1_555
H34 C28 1_555 1_555
H35 C28 1_555 1_555
H36 C28 1_555 1_555
C21F C16 1_555 1_555
C16F C21 1_555 1_555
C6F C21F 1_555 1_555
H21F C21F 1_555 1_555
H22F C21F 1_555 1_555
C15F C16F 1_555 1_555
C17F C16F 1_555 1_555
C1F C6F 1_555 1_555
C5F C6F 1_555 1_555
O3F C15F 1_555 1_555
C20F C15F 1_555 1_555
C18F C17F 1_555 1_555
H19F C17F 1_555 1_555
O1F C1F 1_555 1_555
C2F C1F 1_555 1_555
C4F C5F 1_555 1_555
H2F C5F 1_555 1_555
C26F O3F 1_555 1_555
C7F C20F 1_555 1_555
C19F C20F 1_555 1_555
C22F C18F 1_555 1_555
C12F O1F 1_555 1_555
C3F C2F 1_555 1_555
C8F C4F 1_555 1_555
C27F C26F 1_555 1_555
H32F C26F 1_555 1_555
H33F C26F 1_555 1_555
H3F C7F 1_555 1_555
H4F C7F 1_555 1_555
H20F C19F 1_555 1_555
C23F C22F 1_555 1_555
C24F C22F 1_555 1_555
C25F C22F 1_555 1_555
C13F C12F 1_555 1_555
H14F C12F 1_555 1_555
H15F C12F 1_555 1_555
H1F C3F 1_555 1_555
C9F C8F 1_555 1_555
C10F C8F 1_555 1_555
C11F C8F 1_555 1_555
O4F C27F 1_555 1_555
C28F C27F 1_555 1_555
H23F C23F 1_555 1_555
H24F C23F 1_555 1_555
H25F C23F 1_555 1_555
H26F C24F 1_555 1_555
H27F C24F 1_555 1_555
H28F C24F 1_555 1_555
H29F C25F 1_555 1_555
H30F C25F 1_555 1_555
H31F C25F 1_555 1_555
O2F C13F 1_555 1_555
C14F C13F 1_555 1_555
H5F C9F 1_555 1_555
H6F C9F 1_555 1_555
H7F C9F 1_555 1_555
H8F C10F 1_555 1_555
H9F C10F 1_555 1_555
H10F C10F 1_555 1_555
H11F C11F 1_555 1_555
H12F C11F 1_555 1_555
H13F C11F 1_555 1_555
H34F C28F 1_555 1_555
H35F C28F 1_555 1_555
H36F C28F 1_555 1_555
H16F C14F 1_555 1_555
H17F C14F 1_555 1_555
H18F C14F 1_555 1_555
C15 C20 1_555 1_555
C18F C19F 1_555 1_555
C2F C7F 1_555 1_555
C4F C3F 1_555 1_555

#END
