
#######################################################################
#
#                 Cambridge Crystallographic Data Centre
#                                CCDC 
#
#######################################################################
#
# If this CIF has been generated from an entry in the Cambridge 
# Structural Database, then it will include bibliographic, chemical, 
# crystal, experimental, refinement or atomic coordinate data resulting 
# from the CCDC's data processing and validation procedures.
#
#######################################################################

data_FEKBAA
_chemical_formula_moiety         'C27 H24 N2 O5'
_chemical_name_systematic        
'Ethyl 3-(2-furoyl)-6-methyl-2-(2-oxo-2-phenylethylidene)-4-phenyl-1,2,3,4-tetrahydropyrimidine-5-carboxylate'
_symmetry_cell_setting           triclinic
_symmetry_space_group_name_H-M   'P -1'
_symmetry_Int_Tables_number      2
_space_group_name_Hall           '-P 1'
loop_
_symmetry_equiv_pos_site_id
_symmetry_equiv_pos_as_xyz
1 x,y,z
2 -x,-y,-z
_cell_length_a                   8.008(19)
_cell_length_b                   12.62(3)
_cell_length_c                   13.30(3)
_cell_angle_alpha                109.82(3)
_cell_angle_beta                 106.45(3)
_cell_angle_gamma                102.58(3)
_cell_volume                     1137.01
_exptl_crystal_colour            yellow
_exptl_crystal_description       block
_cell_formula_units_Z            2
loop_
_atom_site_label
_atom_site_type_symbol
_atom_site_fract_x
_atom_site_fract_y
_atom_site_fract_z
N1 N 0.2357(7) 0.5314(4) 0.1166(4)
H1 H 0.2137 0.5930 0.1102
O1 O 0.2379(7) 0.7498(4) 0.2327(4)
N2 N 0.3047(7) 0.4253(4) 0.2234(4)
O2 O 0.4392(6) 0.3335(4) 0.3229(4)
O3 O 0.6600(7) 0.5964(4) 0.3146(4)
O4 O 0.1496(6) 0.1288(4) -0.0617(4)
O5 O 0.2077(7) 0.2254(4) -0.1671(4)
C1 C 0.2960(8) 0.6225(6) 0.3182(5)
H2 H 0.3212 0.6132 0.3868
C2 C 0.1995(8) 0.3309(6) 0.0163(5)
C3 C 0.1882(9) 0.2264(6) -0.0810(6)
C4 C 0.4492(9) 0.4211(6) 0.3052(5)
C5 C 0.2240(8) 0.4387(6) 0.0181(5)
C6 C 0.2801(8) 0.5298(6) 0.2226(5)
C7 C -0.0183(8) 0.2846(5) 0.1151(6)
C8 C 0.2991(8) 0.8276(5) 0.4317(6)
C9 C 0.6219(9) 0.5245(6) 0.3666(6)
C10 C 0.1779(8) 0.3145(5) 0.1197(5)
H3 H 0.2203 0.2485 0.1246
C11 C 0.2769(9) 0.7327(5) 0.3213(6)
C12 C 0.2368(10) 0.4757(6) -0.0754(6)
H4 H 0.3524 0.4758 -0.0833
H5 H 0.2307 0.5549 -0.0559
H6 H 0.1356 0.4202 -0.1474
C13 C 0.3855(9) 0.8317(6) 0.5390(6)
H7 H 0.4320 0.7716 0.5444
C14 C -0.1694(9) 0.2241(6) 0.0108(6)
H8 H -0.1510 0.2068 -0.0581
C15 C -0.0535(10) 0.3108(6) 0.2143(6)
H9 H 0.0459 0.3521 0.2859
C16 C -0.3462(10) 0.1892(6) 0.0072(7)
H10 H -0.4462 0.1468 -0.0641
C17 C -0.3769(10) 0.2162(7) 0.1072(7)
H11 H -0.4971 0.1927 0.1045
C18 C 0.3367(11) 1.0123(7) 0.6325(7)
H12 H 0.3505 1.0746 0.7000
C19 C 0.4039(11) 0.9235(7) 0.6379(7)
H13 H 0.4632 0.9251 0.7097
C20 C 0.2304(10) 0.9171(6) 0.4281(6)
H14 H 0.1694 0.9155 0.3565
C21 C -0.2291(10) 0.2781(7) 0.2113(6)
H15 H -0.2484 0.2979 0.2801
C22 C 0.8990(12) 0.6565(9) 0.4746(8)
H16 H 1.0138 0.7010 0.5358
C23 C 0.1051(11) 0.0131(6) -0.1543(7)
H17 H 0.1732 -0.0322 -0.1251
H18 H 0.1408 0.0236 -0.2151
C24 C 0.7654(11) 0.5551(8) 0.4622(6)
H19 H 0.7760 0.5172 0.5115
C25 C 0.2490(11) 1.0091(7) 0.5271(8)
H20 H 0.2018 1.0691 0.5222
C26 C 0.8322(11) 0.6769(7) 0.3841(8)
H21 H 0.8942 0.7379 0.3697
C27 C -0.0938(12) -0.0523(7) -0.2009(7)
H22 H -0.1275 -0.0656 -0.1413
H23 H -0.1244 -0.1282 -0.2643
H24 H -0.1607 -0.0062 -0.2278
loop_
_geom_bond_atom_site_label_1
_geom_bond_atom_site_label_2
_geom_bond_site_symmetry_1
_geom_bond_site_symmetry_2
N1 H1 1_555 1_555
O1 C11 1_555 1_555
N2 C4 1_555 1_555
O2 C4 1_555 1_555
O3 C9 1_555 1_555
O4 C3 1_555 1_555
O5 C3 1_555 1_555
C1 H2 1_555 1_555
C2 C3 1_555 1_555
C4 C9 1_555 1_555
C5 N1 1_555 1_555
C6 N1 1_555 1_555
C7 C10 1_555 1_555
C8 C11 1_555 1_555
C9 C24 1_555 1_555
C10 N2 1_555 1_555
H3 C10 1_555 1_555
C11 C1 1_555 1_555
C12 C5 1_555 1_555
H4 C12 1_555 1_555
H5 C12 1_555 1_555
H6 C12 1_555 1_555
C13 C8 1_555 1_555
H7 C13 1_555 1_555
C14 C7 1_555 1_555
H8 C14 1_555 1_555
C15 C7 1_555 1_555
H9 C15 1_555 1_555
C16 C14 1_555 1_555
H10 C16 1_555 1_555
C17 C16 1_555 1_555
H11 C17 1_555 1_555
C18 H12 1_555 1_555
C19 C13 1_555 1_555
H13 C19 1_555 1_555
C20 C8 1_555 1_555
H14 C20 1_555 1_555
C21 C15 1_555 1_555
H15 C21 1_555 1_555
C22 H16 1_555 1_555
C23 O4 1_555 1_555
H17 C23 1_555 1_555
H18 C23 1_555 1_555
C24 C22 1_555 1_555
H19 C24 1_555 1_555
C25 C18 1_555 1_555
H20 C25 1_555 1_555
C26 O3 1_555 1_555
H21 C26 1_555 1_555
C27 C23 1_555 1_555
H22 C27 1_555 1_555
H23 C27 1_555 1_555
H24 C27 1_555 1_555
N2 C6 1_555 1_555
C1 C6 1_555 1_555
C2 C5 1_555 1_555
C2 C10 1_555 1_555
C17 C21 1_555 1_555
C18 C19 1_555 1_555
C20 C25 1_555 1_555
C22 C26 1_555 1_555

#END
