
#######################################################################
#
#                 Cambridge Crystallographic Data Centre
#                                CCDC 
#
#######################################################################
#
# If this CIF has been generated from an entry in the Cambridge 
# Structural Database, then it will include bibliographic, chemical, 
# crystal, experimental, refinement or atomic coordinate data resulting 
# from the CCDC's data processing and validation procedures.
#
#######################################################################

data_FEKCEF
_chemical_formula_moiety         'C33 H24 O4'
_chemical_name_systematic        
'Dimethyl 6,11-diphenyl-5H-benzo[a]fluorene-5,5-dicarboxylate'
_symmetry_cell_setting           monoclinic
_symmetry_space_group_name_H-M   'P 21/c'
_symmetry_Int_Tables_number      14
_space_group_name_Hall           '-P 2ybc'
loop_
_symmetry_equiv_pos_site_id
_symmetry_equiv_pos_as_xyz
1 x,y,z
2 -x,1/2+y,1/2-z
3 -x,-y,-z
4 x,1/2-y,1/2+z
_cell_length_a                   9.851(19)
_cell_length_b                   28.28(5)
_cell_length_c                   8.677(17)
_cell_angle_alpha                90
_cell_angle_beta                 92.43(3)
_cell_angle_gamma                90
_cell_volume                     2415.12
_exptl_crystal_colour            orange
_exptl_crystal_description       block
_cell_formula_units_Z            4
loop_
_atom_site_label
_atom_site_type_symbol
_atom_site_fract_x
_atom_site_fract_y
_atom_site_fract_z
O1 O 0.3529(2) 0.41328(7) 0.0219(2)
O2 O 0.3673(3) 0.48273(7) 0.1384(3)
O3 O 0.1653(2) 0.48638(7) 0.3470(3)
O4 O 0.1753(2) 0.42509(7) 0.5054(3)
C1 C 0.3379(3) 0.44225(10) 0.1397(4)
C2 C 0.4053(4) 0.43379(12) -0.1153(4)
H1 H 0.4120 0.4098 -0.1929
H2 H 0.4936 0.4469 -0.0918
H3 H 0.3452 0.4583 -0.1527
C3 C 0.2858(3) 0.41509(9) 0.2783(3)
C4 C 0.2024(3) 0.44799(10) 0.3778(4)
C5 C 0.0876(4) 0.44926(16) 0.6075(5)
H4 H 0.0740 0.4299 0.6965
H5 H 0.0017 0.4553 0.5549
H6 H 0.1286 0.4787 0.6394
C6 C 0.4112(2) 0.40001(9) 0.3724(3)
C7 C 0.4893(3) 0.43467(10) 0.4430(4)
H7 H 0.4679 0.4663 0.4246
C8 C 0.5970(3) 0.42376(10) 0.5389(4)
H8 H 0.6497 0.4476 0.5849
C9 C 0.6271(3) 0.37698(10) 0.5673(4)
H9 H 0.6985 0.3691 0.6361
C10 C 0.5525(3) 0.34207(10) 0.4949(3)
H10 H 0.5751 0.3106 0.5137
C11 C 0.4447(3) 0.35259(9) 0.3946(3)
C12 C 0.3608(2) 0.31687(8) 0.3158(3)
C13 C 0.3771(2) 0.26939(8) 0.3036(3)
C14 C 0.1909(2) 0.37533(9) 0.2258(3)
C15 C 0.4939(3) 0.23963(9) 0.3490(3)
C16 C 0.6220(3) 0.24964(10) 0.2968(3)
H11 H 0.6348 0.2763 0.2363
C17 C 0.4781(3) 0.19962(9) 0.4360(3)
H12 H 0.3926 0.1917 0.4694
C18 C 0.7295(3) 0.22057(11) 0.3336(4)
H13 H 0.8148 0.2276 0.2978
C19 C 0.7125(3) 0.18157(10) 0.4218(4)
H14 H 0.7861 0.1620 0.4466
C20 C 0.5873(3) 0.17121(10) 0.4740(4)
H15 H 0.5758 0.1447 0.5357
C21 C 0.2563(3) 0.24992(9) 0.2268(3)
C22 C 0.2256(3) 0.20407(9) 0.1829(4)
H16 H 0.2863 0.1797 0.2059
C23 C 0.1052(3) 0.19505(10) 0.1057(4)
H17 H 0.0827 0.1641 0.0787
C24 C 0.0168(3) 0.23095(10) 0.0670(4)
H18 H -0.0643 0.2241 0.0128
C25 C 0.0464(3) 0.27721(10) 0.1075(4)
H19 H -0.0136 0.3015 0.0806
C26 C 0.1661(3) 0.28659(9) 0.1882(3)
C27 C 0.2308(2) 0.33044(9) 0.2436(3)
C28 C 0.0543(3) 0.39123(9) 0.1703(3)
C29 C -0.0560(3) 0.38238(11) 0.2549(4)
H20 H -0.0461 0.3627 0.3407
C30 C -0.1809(3) 0.40139(14) 0.2181(4)
H21 H -0.2544 0.3946 0.2783
C31 C -0.1971(3) 0.42996(11) 0.0945(4)
H22 H -0.2813 0.4437 0.0708
C32 C -0.0910(4) 0.43865(12) 0.0051(5)
H23 H -0.1028 0.4575 -0.0823
C33 C 0.0344(3) 0.41970(11) 0.0432(4)
H24 H 0.1071 0.4263 -0.0182
loop_
_geom_bond_atom_site_label_1
_geom_bond_atom_site_label_2
_geom_bond_site_symmetry_1
_geom_bond_site_symmetry_2
O1 C1 1_555 1_555
O2 C1 1_555 1_555
O3 C4 1_555 1_555
O4 C4 1_555 1_555
C1 C3 1_555 1_555
C2 O1 1_555 1_555
H1 C2 1_555 1_555
H2 C2 1_555 1_555
H3 C2 1_555 1_555
C3 C4 1_555 1_555
C5 O4 1_555 1_555
H4 C5 1_555 1_555
H5 C5 1_555 1_555
H6 C5 1_555 1_555
C6 C3 1_555 1_555
C7 C6 1_555 1_555
H7 C7 1_555 1_555
C8 C7 1_555 1_555
H8 C8 1_555 1_555
C9 C8 1_555 1_555
H9 C9 1_555 1_555
C10 C9 1_555 1_555
H10 C10 1_555 1_555
C11 C6 1_555 1_555
C12 C11 1_555 1_555
C13 C12 1_555 1_555
C14 C3 1_555 1_555
C15 C13 1_555 1_555
C16 C15 1_555 1_555
H11 C16 1_555 1_555
C17 C15 1_555 1_555
H12 C17 1_555 1_555
C18 C16 1_555 1_555
H13 C18 1_555 1_555
C19 C18 1_555 1_555
H14 C19 1_555 1_555
C20 C17 1_555 1_555
H15 C20 1_555 1_555
C21 C13 1_555 1_555
C22 C21 1_555 1_555
H16 C22 1_555 1_555
C23 C22 1_555 1_555
H17 C23 1_555 1_555
C24 C23 1_555 1_555
H18 C24 1_555 1_555
C25 C24 1_555 1_555
H19 C25 1_555 1_555
C26 C21 1_555 1_555
C27 C12 1_555 1_555
C28 C14 1_555 1_555
C29 C28 1_555 1_555
H20 C29 1_555 1_555
C30 C29 1_555 1_555
H21 C30 1_555 1_555
C31 C30 1_555 1_555
H22 C31 1_555 1_555
C32 C31 1_555 1_555
H23 C32 1_555 1_555
C33 C28 1_555 1_555
H24 C33 1_555 1_555
C10 C11 1_555 1_555
C14 C27 1_555 1_555
C19 C20 1_555 1_555
C25 C26 1_555 1_555
C26 C27 1_555 1_555
C32 C33 1_555 1_555

#END
