
#######################################################################
#
#                 Cambridge Crystallographic Data Centre
#                                CCDC 
#
#######################################################################
#
# If this CIF has been generated from an entry in the Cambridge 
# Structural Database, then it will include bibliographic, chemical, 
# crystal, experimental, refinement or atomic coordinate data resulting 
# from the CCDC's data processing and validation procedures.
#
#######################################################################

data_FEKJUD
_chemical_formula_moiety         'C21 H13 F3 N2'
_chemical_name_systematic        
2,4-diphenyl-3-(trifluoromethyl)-1,8-naphthyridine
_symmetry_cell_setting           monoclinic
_symmetry_space_group_name_H-M   'P c'
_symmetry_Int_Tables_number      7
_space_group_name_Hall           'P -2yc'
loop_
_symmetry_equiv_pos_site_id
_symmetry_equiv_pos_as_xyz
1 x,y,z
2 x,-y,1/2+z
_cell_length_a                   13.294
_cell_length_b                   10.277
_cell_length_c                   26.975
_cell_angle_alpha                90
_cell_angle_beta                 115.41
_cell_angle_gamma                90
_cell_volume                     3328.87
_exptl_crystal_colour            colorless
_exptl_crystal_description       block
_cell_formula_units_Z            8
loop_
_atom_site_label
_atom_site_type_symbol
_atom_site_fract_x
_atom_site_fract_y
_atom_site_fract_z
N1 N 0.6096(5) -0.3555(6) -0.2226(2)
C1 C 0.4372(7) -0.4166(8) -0.2191(3)
H1 H 0.4033 -0.4618 -0.2005
F1 F 0.3468(4) -0.1338(5) -0.46289(18)
N2 N 0.6074(4) -0.2390(5) -0.2957(2)
C2 C 0.3807(6) -0.0700(7) -0.4152(3)
C3 C 0.0732(7) -0.1427(8) -0.3715(4)
H2 H 0.0327 -0.0924 -0.3578
C4 C 0.7859(6) -0.0265(7) -0.3685(4)
H3 H 0.8492 0.0234 -0.3495
C5 C 0.5480(5) -0.2909(6) -0.2704(3)
C6 C 0.4293(6) -0.2858(6) -0.2938(3)
C7 C 0.5541(7) -0.4131(8) -0.1987(3)
H4 H 0.5952 -0.4551 -0.1655
F2 F 0.4492(3) 0.0253(4) -0.41726(18)
C8 C 0.3726(5) -0.2148(6) -0.3429(3)
C9 C 0.4362(5) -0.1567(6) -0.3663(3)
C10 C 0.5974(7) -0.1776(9) -0.4248(3)
H5 H 0.5342 -0.2275 -0.4439
C11 C 0.6245(6) -0.1365(7) -0.3711(3)
C12 C 0.7606(7) -0.0622(9) -0.4211(4)
H6 H 0.8041 -0.0348 -0.4385
C13 C 0.7200(6) -0.0622(7) -0.3427(3)
H7 H 0.7392 -0.0370 -0.3066
C14 C 0.3755(6) -0.3528(7) -0.2663(3)
H8 H 0.2982 -0.3531 -0.2805
F3 F 0.2923(4) -0.0066(4) -0.4162(2)
C15 C 0.2486(5) -0.2124(6) -0.3688(3)
C16 C 0.1884(6) -0.1409(7) -0.3464(3)
H9 H 0.2259 -0.0923 -0.3146
C17 C 0.1916(6) -0.2864(7) -0.4151(3)
H10 H 0.2306 -0.3362 -0.4299
C18 C 0.5546(5) -0.1777(6) -0.3425(3)
C19 C 0.0192(6) -0.2196(8) -0.4170(4)
H11 H -0.0580 -0.2258 -0.4325
C20 C 0.0774(7) -0.2865(8) -0.4395(4)
H12 H 0.0393 -0.3329 -0.4718
C21 C 0.6663(8) -0.1426(9) -0.4486(4)
H13 H 0.6506 -0.1723 -0.4837
N3 N 0.1881(4) -0.4742(5) -0.7038(2)
C22 C -0.0949(5) -0.5855(7) -0.7303(3)
H14 H -0.1446 -0.5890 -0.7144
C23 C 0.0828(5) -0.5245(6) -0.7282(3)
F4 F 0.2351(4) -0.3919(5) -0.53144(17)
F5 F 0.2562(4) -0.2255(4) -0.57565(19)
F6 F 0.1016(3) -0.2592(4) -0.57261(18)
C24 C 0.1479(5) -0.4016(6) -0.6287(2)
C25 C 0.0429(5) -0.4563(6) -0.6522(3)
C26 C 0.3422(5) -0.3841(6) -0.6288(3)
C27 C 0.1852(5) -0.3202(6) -0.5776(3)
C28 C 0.2206(5) -0.4188(6) -0.6552(3)
C29 C 0.5226(6) -0.4124(8) -0.5542(3)
H15 H 0.5678 -0.4505 -0.5207
C30 C 0.5684(5) -0.3271(7) -0.5788(3)
H16 H 0.6441 -0.3081 -0.5624
C31 C 0.4059(6) -0.4421(7) -0.5802(3)
H17 H 0.3747 -0.4998 -0.5641
C32 C -0.1303(6) -0.3819(7) -0.6454(3)
H18 H -0.1466 -0.3280 -0.6755
C33 C -0.2033(6) -0.3892(7) -0.6200(3)
H19 H -0.2676 -0.3386 -0.6331
C34 C -0.1802(6) -0.4702(8) -0.5761(3)
H20 H -0.2283 -0.4741 -0.5593
C35 C -0.0842(7) -0.5468(8) -0.5567(3)
H21 H -0.0695 -0.6042 -0.5277
N4 N 0.0570(5) -0.5813(6) -0.7779(2)
C36 C -0.0414(6) -0.6389(7) -0.8013(3)
H22 H -0.0600 -0.6798 -0.8349
C37 C -0.1200(6) -0.6430(7) -0.7794(3)
H23 H -0.1881 -0.6844 -0.7982
C38 C 0.0087(5) -0.5197(5) -0.7035(2)
C39 C 0.4986(6) -0.2711(7) -0.6283(3)
H24 H 0.5281 -0.2130 -0.6450
C40 C 0.3864(5) -0.2991(6) -0.6536(3)
H25 H 0.3411 -0.2609 -0.6871
C41 C -0.0352(5) -0.4552(6) -0.6252(3)
C42 C -0.0114(6) -0.5372(7) -0.5805(3)
H26 H 0.0539 -0.5858 -0.5667
N5 N -0.6028(4) 0.0158(5) -0.7069(2)
F7 F -0.4484(4) 0.2737(4) -0.5810(2)
N6 N -0.6016(5) -0.0995(6) -0.7790(2)
F8 F -0.2898(3) 0.2418(4) -0.5798(2)
F9 F -0.3497(4) 0.1100(5) -0.53707(18)
C43 C -0.4242(5) -0.0290(6) -0.7075(3)
C44 C -0.3667(6) -0.0958(6) -0.7335(3)
H27 H -0.2893 -0.0957 -0.7183
C45 C -0.4269(6) -0.1598(7) -0.7810(3)
H28 H -0.3917 -0.2039 -0.7993
C46 C -0.5441(6) -0.1582(7) -0.8021(3)
H29 H -0.5840 -0.2020 -0.8349
C47 C -0.1876(6) -0.0360(7) -0.5850(3)
H30 H -0.2273 -0.0826 -0.5697
C48 C -0.2436(5) 0.0429(7) -0.6307(3)
C49 C -0.3828(6) 0.1807(6) -0.5837(3)
C50 C -0.5513(5) 0.0772(6) -0.6597(3)
C51 C -0.4341(5) 0.0967(6) -0.6342(3)
C52 C -0.3689(5) 0.0412(6) -0.6569(3)
C53 C -0.5405(5) -0.0363(6) -0.7311(3)
C54 C -0.0709(6) 0.1069(8) -0.6292(3)
H31 H -0.0314 0.1544 -0.6444
C55 C -0.0126(6) 0.0294(8) -0.5838(4)
H32 H 0.0648 0.0271 -0.5679
C56 C -0.0719(6) -0.0448(7) -0.5623(3)
H33 H -0.0344 -0.1002 -0.5328
C57 C -0.6110(6) 0.0615(7) -0.5836(3)
H34 H -0.5527 0.0034 -0.5661
C58 C -0.6809(6) 0.0938(8) -0.5594(3)
H35 H -0.6690 0.0577 -0.5257
C59 C -0.7682(6) 0.1792(7) -0.5850(3)
H36 H -0.8152 0.2014 -0.5689
C60 C -0.7843(6) 0.2310(7) -0.6352(3)
H37 H -0.8426 0.2890 -0.6527
C61 C -0.7157(5) 0.1987(6) -0.6600(3)
H38 H -0.7290 0.2331 -0.6941
C62 C -0.6267(5) 0.1145(6) -0.6335(3)
C63 C -0.1854(6) 0.1158(7) -0.6525(3)
H39 H -0.2228 0.1699 -0.6825
F10 F -0.2448(3) 0.5251(4) -0.42522(17)
N7 N -0.0555(5) 0.1607(6) -0.2261(2)
N8 N -0.1853(4) 0.2703(5) -0.3005(2)
F11 F -0.0889(3) 0.4912(4) -0.42716(18)
C64 C -0.0787(5) 0.2226(6) -0.2752(3)
C65 C -0.0045(5) 0.2236(6) -0.3000(3)
C66 C 0.0999(5) 0.1596(6) -0.2721(3)
H40 H 0.1525 0.1600 -0.2863
C67 C 0.1204(6) 0.0976(7) -0.2239(3)
H41 H 0.1858 0.0505 -0.2058
C68 C 0.0429(6) 0.1051(7) -0.2020(3)
H42 H 0.0622 0.0680 -0.1676
C69 C -0.5591(6) 0.4283(8) -0.4296(4)
H43 H -0.6337 0.4520 -0.4477
C70 C -0.4936(6) 0.4804(7) -0.3790(3)
H44 H -0.5241 0.5386 -0.3628
C71 C -0.3820(5) 0.4468(6) -0.3521(3)
H45 H -0.3381 0.4799 -0.3173
C72 C 0.1407(6) 0.3657(7) -0.3555(3)
H46 H 0.1585 0.4159 -0.3242
F12 F -0.2265(4) 0.3651(4) -0.47125(16)
C73 C -0.1411(5) 0.3450(6) -0.3740(3)
C74 C -0.0366(5) 0.2900(6) -0.3508(3)
C75 C -0.3364(5) 0.3629(6) -0.3775(3)
C76 C -0.1747(5) 0.4313(7) -0.4239(3)
C77 C -0.2148(5) 0.3261(6) -0.3488(3)
C78 C 0.0421(5) 0.2909(6) -0.3770(3)
C79 C -0.4049(6) 0.3090(8) -0.4281(3)
H47 H -0.3753 0.2505 -0.4447
C80 C -0.5145(6) 0.3407(8) -0.4537(3)
H48 H -0.5596 0.3034 -0.4874
C81 C 0.0214(6) 0.2138(7) -0.4222(3)
H49 H -0.0427 0.1630 -0.4368
C82 C 0.0948(7) 0.2113(8) -0.4460(4)
H50 H 0.0791 0.1598 -0.4768
C83 C 0.1888(7) 0.2823(8) -0.4252(4)
H51 H 0.2396 0.2767 -0.4404
C84 C 0.2095(6) 0.3638(8) -0.3811(4)
H52 H 0.2714 0.4182 -0.3686
loop_
_geom_bond_atom_site_label_1
_geom_bond_atom_site_label_2
_geom_bond_site_symmetry_1
_geom_bond_site_symmetry_2
N1 C5 1_555 1_555
C1 H1 1_555 1_555
F1 C2 1_555 1_555
N2 C5 1_555 1_555
C2 F2 1_555 1_555
C3 H2 1_555 1_555
C4 H3 1_555 1_555
C5 C6 1_555 1_555
C6 C8 1_555 1_555
C7 N1 1_555 1_555
H4 C7 1_555 1_555
C8 C9 1_555 1_555
C9 C2 1_555 1_555
C10 H5 1_555 1_555
C11 C10 1_555 1_555
C12 C4 1_555 1_555
H6 C12 1_555 1_555
C13 C4 1_555 1_555
H7 C13 1_555 1_555
C14 C1 1_555 1_555
H8 C14 1_555 1_555
F3 C2 1_555 1_555
C15 C8 1_555 1_555
C16 C3 1_555 1_555
H9 C16 1_555 1_555
C17 C15 1_555 1_555
H10 C17 1_555 1_555
C18 N2 1_555 1_555
C19 C3 1_555 1_555
H11 C19 1_555 1_555
C20 C17 1_555 1_555
H12 C20 1_555 1_555
C21 C10 1_555 1_555
H13 C21 1_555 1_555
N3 C23 1_555 1_555
C22 H14 1_555 1_555
C23 N4 1_555 1_555
F4 C27 1_555 1_555
F5 C27 1_555 1_555
F6 C27 1_555 1_555
C24 C25 1_555 1_555
C25 C38 1_555 1_555
C26 C28 1_555 1_555
C27 C24 1_555 1_555
C28 N3 1_555 1_555
C29 H15 1_555 1_555
C30 C29 1_555 1_555
H16 C30 1_555 1_555
C31 C26 1_555 1_555
H17 C31 1_555 1_555
C32 H18 1_555 1_555
C33 C32 1_555 1_555
H19 C33 1_555 1_555
C34 C33 1_555 1_555
H20 C34 1_555 1_555
C35 C34 1_555 1_555
H21 C35 1_555 1_555
N4 C36 1_555 1_555
C36 H22 1_555 1_555
C37 C22 1_555 1_555
H23 C37 1_555 1_555
C38 C22 1_555 1_555
C39 C30 1_555 1_555
H24 C39 1_555 1_555
C40 C26 1_555 1_555
H25 C40 1_555 1_555
C41 C25 1_555 1_555
C42 C35 1_555 1_555
H26 C42 1_555 1_555
N5 C50 1_555 1_555
F7 C49 1_555 1_555
N6 C46 1_555 1_555
F8 C49 1_555 1_555
F9 C49 1_555 1_555
C43 C44 1_555 1_555
C44 H27 1_555 1_555
C45 C44 1_555 1_555
H28 C45 1_555 1_555
C46 C45 1_555 1_555
H29 C46 1_555 1_555
C47 H30 1_555 1_555
C48 C47 1_555 1_555
C49 C51 1_555 1_555
C50 C51 1_555 1_555
C51 C52 1_555 1_555
C52 C43 1_555 1_555
C53 N5 1_555 1_555
C54 H31 1_555 1_555
C55 C54 1_555 1_555
H32 C55 1_555 1_555
C56 C47 1_555 1_555
H33 C56 1_555 1_555
C57 H34 1_555 1_555
C58 C57 1_555 1_555
H35 C58 1_555 1_555
C59 C58 1_555 1_555
H36 C59 1_555 1_555
C60 C59 1_555 1_555
H37 C60 1_555 1_555
C61 C60 1_555 1_555
H38 C61 1_555 1_555
C62 C50 1_555 1_555
C63 C48 1_555 1_555
H39 C63 1_555 1_555
F10 C76 1_555 1_555
N7 C64 1_555 1_555
N8 C64 1_555 1_555
F11 C76 1_555 1_555
C64 C65 1_555 1_555
C65 C66 1_555 1_555
C66 H40 1_555 1_555
C67 C66 1_555 1_555
H41 C67 1_555 1_555
C68 N7 1_555 1_555
H42 C68 1_555 1_555
C69 H43 1_555 1_555
C70 C69 1_555 1_555
H44 C70 1_555 1_555
C71 C70 1_555 1_555
H45 C71 1_555 1_555
C72 H46 1_555 1_555
F12 C76 1_555 1_555
C73 C74 1_555 1_555
C74 C65 1_555 1_555
C75 C71 1_555 1_555
C76 C73 1_555 1_555
C77 N8 1_555 1_555
C78 C72 1_555 1_555
C79 C75 1_555 1_555
H47 C79 1_555 1_555
C80 C69 1_555 1_555
H48 C80 1_555 1_555
C81 C78 1_555 1_555
H49 C81 1_555 1_555
C82 C81 1_555 1_555
H50 C82 1_555 1_555
C83 C82 1_555 1_555
H51 C83 1_555 1_555
C84 C72 1_555 1_555
H52 C84 1_555 1_555
C1 C7 1_555 1_555
C6 C14 1_555 1_555
C9 C18 1_555 1_555
C11 C13 1_555 1_555
C11 C18 1_555 1_555
C12 C21 1_555 1_555
C15 C16 1_555 1_555
C19 C20 1_555 1_555
C23 C38 1_555 1_555
C24 C28 1_555 1_555
C29 C31 1_555 1_555
C32 C41 1_555 1_555
C36 C37 1_555 1_555
C39 C40 1_555 1_555
C41 C42 1_555 1_555
N6 C53 1_555 1_555
C43 C53 1_555 1_555
C48 C52 1_555 1_555
C54 C63 1_555 1_555
C55 C56 1_555 1_555
C57 C62 1_555 1_555
C61 C62 1_555 1_555
C67 C68 1_555 1_555
C73 C77 1_555 1_555
C74 C78 1_555 1_555
C75 C77 1_555 1_555
C79 C80 1_555 1_555
C83 C84 1_555 1_555

#END
