
#######################################################################
#
#                 Cambridge Crystallographic Data Centre
#                                CCDC 
#
#######################################################################
#
# If this CIF has been generated from an entry in the Cambridge 
# Structural Database, then it will include bibliographic, chemical, 
# crystal, experimental, refinement or atomic coordinate data resulting 
# from the CCDC's data processing and validation procedures.
#
#######################################################################

data_FEKNEQ
_chemical_formula_moiety         'C31 H44 N1 O2 P1'
_chemical_name_systematic        
(8S)-14-(dicyclohexylphosphanyl)-N,N,6,8-tetramethyl-6,7,8,9-tetrahydrodibenzo[b,d][1,6]dioxecin-1-amine
_symmetry_cell_setting           orthorhombic
_symmetry_space_group_name_H-M   'P 21 21 21'
_symmetry_Int_Tables_number      19
_space_group_name_Hall           'P 2ac 2ab'
loop_
_symmetry_equiv_pos_site_id
_symmetry_equiv_pos_as_xyz
1 x,y,z
2 1/2-x,-y,1/2+z
3 -x,1/2+y,1/2-z
4 1/2+x,1/2-y,-z
_cell_length_a                   12.7976(3)
_cell_length_b                   12.9715(4)
_cell_length_c                   17.5386(5)
_cell_angle_alpha                90
_cell_angle_beta                 90
_cell_angle_gamma                90
_cell_volume                     2911.48
_exptl_crystal_colour            colorless
_exptl_crystal_description       BLOCK
_cell_formula_units_Z            4
loop_
_atom_site_label
_atom_site_type_symbol
_atom_site_fract_x
_atom_site_fract_y
_atom_site_fract_z
P1 P 0.26578(4) 0.31859(4) 0.63540(3)
O1 O 0.27645(10) 0.63171(10) 0.45131(8)
O2 O 0.16174(12) 0.64079(10) 0.59394(9)
N1 N 0.48032(13) 0.44845(14) 0.58937(11)
C1 C 0.24460(15) 0.37896(14) 0.54086(11)
C2 C 0.20274(15) 0.32462(17) 0.47943(11)
H1 H 0.1861 0.2553 0.4856
C3 C 0.18547(18) 0.37065(18) 0.41018(13)
H2 H 0.1593 0.3321 0.3697
C4 C 0.20698(16) 0.47468(17) 0.40037(12)
H3 H 0.1935 0.5067 0.3539
C5 C 0.24826(15) 0.52965(14) 0.45985(11)
C6 C 0.27029(14) 0.48308(14) 0.53041(11)
C7 C 0.31909(15) 0.54797(14) 0.59103(11)
C8 C 0.26303(17) 0.63138(14) 0.62000(12)
C9 C 0.3041(2) 0.69464(17) 0.67606(14)
H4 H 0.2661 0.7504 0.6946
C10 C 0.4033(2) 0.6732(2) 0.70416(13)
H5 H 0.4309 0.7143 0.7427
C11 C 0.46082(19) 0.59374(17) 0.67673(13)
H6 H 0.5270 0.5812 0.6965
C12 C 0.42120(15) 0.53026(15) 0.61875(11)
C13 C 0.50649(18) 0.4513(2) 0.50969(14)
H7 H 0.4485 0.4783 0.4813
H8 H 0.5220 0.3828 0.4923
H9 H 0.5665 0.4946 0.5022
C14 C 0.5630(2) 0.4079(2) 0.63695(18)
H10 H 0.5408 0.4079 0.6892
H11 H 0.6242 0.4502 0.6317
H12 H 0.5791 0.3387 0.6215
C15 C 0.1923(2) 0.7028(2) 0.43377(17)
H13 H 0.1259 0.6672 0.4245
C16 C 0.1863(3) 0.7799(2) 0.5070(2)
H14 H 0.2567 0.7931 0.5250
H15 H 0.1567 0.8451 0.4907
C17 C 0.1257(2) 0.7406(2) 0.5685(2)
H16 H 0.1424 0.7866 0.6111
C18 C 0.2231(3) 0.7652(3) 0.3710(2)
H17 H 0.2279 0.7234 0.3260
H18 H 0.2900 0.7957 0.3815
H19 H 0.1723 0.8187 0.3632
C19 C 0.0130(2) 0.7373(3) 0.5680(2)
H20 H -0.0116 0.7096 0.6155
H21 H -0.0103 0.6942 0.5269
H22 H -0.0140 0.8057 0.5613
C20 C 0.28139(14) 0.17983(14) 0.60895(11)
H23 H 0.2223 0.1589 0.5770
C21 C 0.28280(18) 0.11325(15) 0.68139(13)
H24 H 0.3374 0.1375 0.7153
H25 H 0.2165 0.1200 0.7077
C22 C 0.3020(2) -0.00047(17) 0.66193(14)
H26 H 0.3067 -0.0399 0.7088
H27 H 0.2430 -0.0266 0.6331
C23 C 0.4008(2) -0.01592(18) 0.61626(15)
H28 H 0.4608 0.0007 0.6477
H29 H 0.4063 -0.0877 0.6013
C24 C 0.4014(2) 0.05067(18) 0.54641(15)
H30 H 0.3474 0.0271 0.5117
H31 H 0.4682 0.0434 0.5208
C25 C 0.38311(18) 0.16336(17) 0.56457(14)
H32 H 0.3803 0.2023 0.5174
H33 H 0.4413 0.1893 0.5944
C26 C 0.13139(16) 0.32231(17) 0.67686(12)
H34 H 0.1366 0.2864 0.7259
C27 C 0.1031(2) 0.4334(2) 0.69663(17)
H35 H 0.1005 0.4739 0.6502
H36 H 0.1570 0.4622 0.7291
C28 C -0.0032(3) 0.4408(3) 0.7377(2)
H37 H 0.0020 0.4093 0.7878
H38 H -0.0220 0.5127 0.7445
C29 C -0.0865(3) 0.3870(3) 0.6919(2)
H39 H -0.1522 0.3905 0.7193
H40 H -0.0954 0.4226 0.6438
C30 C -0.0609(2) 0.2783(3) 0.6770(2)
H41 H -0.1157 0.2474 0.6464
H42 H -0.0570 0.2411 0.7249
C31 C 0.04449(18) 0.2693(2) 0.63455(15)
H43 H 0.0619 0.1970 0.6282
H44 H 0.0377 0.2996 0.5842
loop_
_geom_bond_atom_site_label_1
_geom_bond_atom_site_label_2
_geom_bond_site_symmetry_1
_geom_bond_site_symmetry_2
P1 C1 1_555 1_555
O1 C5 1_555 1_555
O2 C8 1_555 1_555
N1 C12 1_555 1_555
C1 C2 1_555 1_555
C2 H1 1_555 1_555
C3 C2 1_555 1_555
H2 C3 1_555 1_555
C4 C3 1_555 1_555
H3 C4 1_555 1_555
C5 C4 1_555 1_555
C6 C1 1_555 1_555
C7 C6 1_555 1_555
C8 C7 1_555 1_555
C9 C8 1_555 1_555
H4 C9 1_555 1_555
C10 C9 1_555 1_555
H5 C10 1_555 1_555
C11 C10 1_555 1_555
H6 C11 1_555 1_555
C12 C7 1_555 1_555
C13 N1 1_555 1_555
H7 C13 1_555 1_555
H8 C13 1_555 1_555
H9 C13 1_555 1_555
C14 N1 1_555 1_555
H10 C14 1_555 1_555
H11 C14 1_555 1_555
H12 C14 1_555 1_555
C15 O1 1_555 1_555
H13 C15 1_555 1_555
C16 C15 1_555 1_555
H14 C16 1_555 1_555
H15 C16 1_555 1_555
C17 O2 1_555 1_555
H16 C17 1_555 1_555
C18 C15 1_555 1_555
H17 C18 1_555 1_555
H18 C18 1_555 1_555
H19 C18 1_555 1_555
C19 C17 1_555 1_555
H20 C19 1_555 1_555
H21 C19 1_555 1_555
H22 C19 1_555 1_555
C20 P1 1_555 1_555
H23 C20 1_555 1_555
C21 C20 1_555 1_555
H24 C21 1_555 1_555
H25 C21 1_555 1_555
C22 C21 1_555 1_555
H26 C22 1_555 1_555
H27 C22 1_555 1_555
C23 C22 1_555 1_555
H28 C23 1_555 1_555
H29 C23 1_555 1_555
C24 C23 1_555 1_555
H30 C24 1_555 1_555
H31 C24 1_555 1_555
C25 C20 1_555 1_555
H32 C25 1_555 1_555
H33 C25 1_555 1_555
C26 P1 1_555 1_555
H34 C26 1_555 1_555
C27 C26 1_555 1_555
H35 C27 1_555 1_555
H36 C27 1_555 1_555
C28 C27 1_555 1_555
H37 C28 1_555 1_555
H38 C28 1_555 1_555
C29 C28 1_555 1_555
H39 C29 1_555 1_555
H40 C29 1_555 1_555
C30 C29 1_555 1_555
H41 C30 1_555 1_555
H42 C30 1_555 1_555
C31 C26 1_555 1_555
H43 C31 1_555 1_555
H44 C31 1_555 1_555
C5 C6 1_555 1_555
C11 C12 1_555 1_555
C16 C17 1_555 1_555
C24 C25 1_555 1_555
C30 C31 1_555 1_555

#END
