
#######################################################################
#
#                 Cambridge Crystallographic Data Centre
#                                CCDC 
#
#######################################################################
#
# If this CIF has been generated from an entry in the Cambridge 
# Structural Database, then it will include bibliographic, chemical, 
# crystal, experimental, refinement or atomic coordinate data resulting 
# from the CCDC's data processing and validation procedures.
#
#######################################################################

data_FELBUV
_chemical_formula_moiety         'C18 H18 N2 O2'
_chemical_name_systematic        
2,6-Diphenyl-2,3,5,6,8,8a-hexahydro[1,2]oxazino[5,6-d][1,2]oxazine
_symmetry_cell_setting           orthorhombic
_symmetry_space_group_name_H-M   'P c a 21'
_symmetry_Int_Tables_number      29
_space_group_name_Hall           'P 2c -2ac'
loop_
_symmetry_equiv_pos_site_id
_symmetry_equiv_pos_as_xyz
1 x,y,z
2 1/2-x,y,1/2+z
3 1/2+x,-y,z
4 -x,-y,1/2+z
_cell_length_a                   15.3122(4)
_cell_length_b                   15.6051(4)
_cell_length_c                   6.1644(1)
_cell_angle_alpha                90
_cell_angle_beta                 90
_cell_angle_gamma                90
_cell_volume                     1472.97
_exptl_crystal_colour            colorless
_exptl_crystal_description       needle
_cell_formula_units_Z            4
loop_
_atom_site_label
_atom_site_type_symbol
_atom_site_fract_x
_atom_site_fract_y
_atom_site_fract_z
N1 N 0.39048(8) 0.81719(8) 0.5756(2)
O1 O 0.38073(6) 0.74833(6) 0.4174(2)
C1 C 0.41614(10) 0.67214(9) 0.5095(3)
C2 C 0.39870(11) 0.60134(10) 0.3469(3)
O2 O 0.42051(7) 0.52072(7) 0.4422(2)
N2 N 0.35640(8) 0.50257(8) 0.6103(2)
C3 C 0.37634(10) 0.55978(10) 0.7947(3)
C4 C 0.37177(9) 0.65167(10) 0.7198(3)
C5 C 0.32909(10) 0.71253(10) 0.8254(3)
C6 C 0.32573(10) 0.80331(10) 0.7477(3)
C7 C 0.38371(9) 0.89548(10) 0.4580(3)
C8 C 0.33839(11) 0.96580(11) 0.5394(3)
C9 C 0.33836(12) 1.04274(11) 0.4263(4)
C10 C 0.38209(12) 1.05023(12) 0.2307(3)
C11 C 0.42583(11) 0.97984(12) 0.1477(3)
C12 C 0.42691(10) 0.90282(11) 0.2584(3)
C13 C 0.36400(9) 0.41302(10) 0.6589(3)
C14 C 0.39788(10) 0.35556(10) 0.5073(3)
C15 C 0.40139(11) 0.26868(11) 0.5560(3)
C16 C 0.37028(12) 0.23790(11) 0.7525(3)
C17 C 0.33497(11) 0.29470(11) 0.8999(3)
C18 C 0.33212(11) 0.38193(10) 0.8551(3)
H1 H 0.4815(10) 0.6793(9) 0.521(3)
H2 H 0.4399(10) 0.6072(10) 0.221(3)
H3 H 0.3348(10) 0.6015(10) 0.303(3)
H4 H 0.4399(10) 0.5439(9) 0.857(3)
H5 H 0.3296(10) 0.5490(10) 0.903(3)
H6 H 0.2980(9) 0.6986(10) 0.959(3)
H7 H 0.3436(9) 0.8447(10) 0.864(3)
H8 H 0.2661(10) 0.8187(8) 0.702(3)
H9 H 0.3074(11) 0.9602(10) 0.675(3)
H10 H 0.3076(10) 1.0935(11) 0.488(3)
H11 H 0.3831(11) 1.1049(12) 0.158(3)
H12 H 0.4587(10) 0.9810(11) 0.013(3)
H13 H 0.4590(10) 0.8509(10) 0.204(3)
H14 H 0.4201(10) 0.3782(11) 0.373(3)
H15 H 0.4310(11) 0.2291(11) 0.451(3)
H16 H 0.3749(11) 0.1787(12) 0.774(3)
H17 H 0.3133(11) 0.2732(11) 1.038(4)
H18 H 0.3091(10) 0.4193(11) 0.961(3)
loop_
_geom_bond_atom_site_label_1
_geom_bond_atom_site_label_2
_geom_bond_site_symmetry_1
_geom_bond_site_symmetry_2
N1 O1 1_555 1_555
O1 C1 1_555 1_555
C1 C2 1_555 1_555
C2 O2 1_555 1_555
O2 N2 1_555 1_555
N2 C3 1_555 1_555
C3 C4 1_555 1_555
C4 C1 1_555 1_555
C5 C4 1_555 1_555
C6 N1 1_555 1_555
C7 N1 1_555 1_555
C8 C7 1_555 1_555
C9 C8 1_555 1_555
C10 C9 1_555 1_555
C11 C10 1_555 1_555
C12 C7 1_555 1_555
C13 N2 1_555 1_555
C14 C13 1_555 1_555
C15 C14 1_555 1_555
C16 C15 1_555 1_555
C17 C16 1_555 1_555
C18 C13 1_555 1_555
H1 C1 1_555 1_555
H2 C2 1_555 1_555
H3 C2 1_555 1_555
H4 C3 1_555 1_555
H5 C3 1_555 1_555
H6 C5 1_555 1_555
H7 C6 1_555 1_555
H8 C6 1_555 1_555
H9 C8 1_555 1_555
H10 C9 1_555 1_555
H11 C10 1_555 1_555
H12 C11 1_555 1_555
H13 C12 1_555 1_555
H14 C14 1_555 1_555
H15 C15 1_555 1_555
H16 C16 1_555 1_555
H17 C17 1_555 1_555
H18 C18 1_555 1_555
C5 C6 1_555 1_555
C11 C12 1_555 1_555
C17 C18 1_555 1_555

#END
