
#######################################################################
#
#                 Cambridge Crystallographic Data Centre
#                                CCDC 
#
#######################################################################
#
# If this CIF has been generated from an entry in the Cambridge 
# Structural Database, then it will include bibliographic, chemical, 
# crystal, experimental, refinement or atomic coordinate data resulting 
# from the CCDC's data processing and validation procedures.
#
#######################################################################

data_FELDEH
_chemical_formula_moiety         'C21 H20 Br1 N3 O2'
_chemical_name_systematic        
'5a-Phenyl-4,5,5a,6,7,8,8a,8b-octahydro[1,2,3]triazolo-[4,5,1-hi]indol-8-yl 4-bromobenzoate'
_symmetry_cell_setting           triclinic
_symmetry_space_group_name_H-M   'P -1'
_symmetry_Int_Tables_number      2
_space_group_name_Hall           '-P 1'
loop_
_symmetry_equiv_pos_site_id
_symmetry_equiv_pos_as_xyz
1 x,y,z
2 -x,-y,-z
_cell_length_a                   9.8108(4)
_cell_length_b                   9.9188(3)
_cell_length_c                   10.4039(4)
_cell_angle_alpha                73.1174(9)
_cell_angle_beta                 72.0307(9)
_cell_angle_gamma                89.1592(9)
_cell_volume                     918.402
_exptl_crystal_colour            colorless
_exptl_crystal_description       block
_cell_formula_units_Z            2
loop_
_atom_site_label
_atom_site_type_symbol
_atom_site_fract_x
_atom_site_fract_y
_atom_site_fract_z
Br1 Br 0.21200(2) -0.11751(2) 0.56292(2)
O1 O 0.42852(14) 0.58456(14) 0.31192(14)
O2 O 0.19732(15) 0.60203(15) 0.42833(17)
N1 N 0.82199(17) 0.88147(16) 0.08083(17)
N2 N 0.73686(18) 0.98473(17) 0.12577(18)
N3 N 0.61915(18) 0.93438(17) 0.21689(18)
C1 C 0.72708(18) 0.74889(18) 0.12722(19)
C2 C 0.6020(2) 0.77831(19) 0.24475(19)
C3 C 0.4516(2) 0.73801(19) 0.2498(2)
C4 C 0.43721(19) 0.7778(2) 0.1028(2)
C5 C 0.54021(19) 0.70192(19) 0.00887(19)
C6 C 0.70079(18) 0.73307(18) -0.01022(18)
C7 C 0.7611(2) 0.87890(19) -0.1196(2)
C8 C 0.8827(2) 0.9252(2) -0.0749(2)
C9 C 0.2946(2) 0.5312(2) 0.39366(19)
C10 C 0.2801(2) 0.3734(2) 0.43600(19)
C11 C 0.1467(2) 0.3041(2) 0.5234(2)
C12 C 0.1265(2) 0.1577(2) 0.5627(2)
C13 C 0.2410(2) 0.0823(2) 0.5128(2)
C14 C 0.3745(2) 0.1485(2) 0.4251(2)
C15 C 0.3936(2) 0.2954(2) 0.38726(19)
C16 C 0.78375(18) 0.61062(18) -0.05015(19)
C17 C 0.7555(2) 0.4770(2) 0.0509(2)
C18 C 0.8230(2) 0.3610(2) 0.0204(3)
C19 C 0.9212(2) 0.3760(3) -0.1121(3)
C20 C 0.9522(2) 0.5076(3) -0.2127(3)
C21 C 0.8838(2) 0.6237(2) -0.1816(2)
H1 H 0.7762 0.6664 0.1686
H2 H 0.6147 0.7299 0.3386
H3 H 0.3796 0.7847 0.3107
H4 H 0.4577 0.8813 0.0586
H5 H 0.3371 0.7529 0.1103
H6 H 0.5267 0.7304 -0.0855
H7 H 0.5149 0.5988 0.0507
H8 H 0.7980 0.8709 -0.2168
H9 H 0.6862 0.9469 -0.1161
H10 H 0.9703 0.8768 -0.1062
H11 H 0.9064 1.0287 -0.1140
H12 H 0.0694 0.3572 0.5564
H13 H 0.0359 0.1100 0.6226
H14 H 0.4512 0.0950 0.3916
H15 H 0.4845 0.3428 0.3278
H16 H 0.6886 0.4656 0.1423
H17 H 0.8018 0.2712 0.0905
H18 H 0.9669 0.2966 -0.1338
H19 H 1.0206 0.5190 -0.3034
H20 H 0.9060 0.7134 -0.2517
loop_
_geom_bond_atom_site_label_1
_geom_bond_atom_site_label_2
_geom_bond_site_symmetry_1
_geom_bond_site_symmetry_2
Br1 C13 1_555 1_555
O1 C3 1_555 1_555
O2 C9 1_555 1_555
N1 N2 1_555 1_555
N2 N3 1_555 1_555
N3 C2 1_555 1_555
C1 N1 1_555 1_555
C2 C1 1_555 1_555
C3 C2 1_555 1_555
C4 C3 1_555 1_555
C5 C4 1_555 1_555
C6 C1 1_555 1_555
C7 C6 1_555 1_555
C8 N1 1_555 1_555
C9 O1 1_555 1_555
C10 C9 1_555 1_555
C11 C10 1_555 1_555
C12 C11 1_555 1_555
C13 C12 1_555 1_555
C14 C13 1_555 1_555
C15 C10 1_555 1_555
C16 C6 1_555 1_555
C17 C16 1_555 1_555
C18 C17 1_555 1_555
C19 C18 1_555 1_555
C20 C19 1_555 1_555
C21 C16 1_555 1_555
H1 C1 1_555 1_555
H2 C2 1_555 1_555
H3 C3 1_555 1_555
H4 C4 1_555 1_555
H5 C4 1_555 1_555
H6 C5 1_555 1_555
H7 C5 1_555 1_555
H8 C7 1_555 1_555
H9 C7 1_555 1_555
H10 C8 1_555 1_555
H11 C8 1_555 1_555
H12 C11 1_555 1_555
H13 C12 1_555 1_555
H14 C14 1_555 1_555
H15 C15 1_555 1_555
H16 C17 1_555 1_555
H17 C18 1_555 1_555
H18 C19 1_555 1_555
H19 C20 1_555 1_555
H20 C21 1_555 1_555
C5 C6 1_555 1_555
C7 C8 1_555 1_555
C14 C15 1_555 1_555
C20 C21 1_555 1_555

#END
