
#######################################################################
#
#                 Cambridge Crystallographic Data Centre
#                                CCDC 
#
#######################################################################
#
# If this CIF has been generated from an entry in the Cambridge 
# Structural Database, then it will include bibliographic, chemical, 
# crystal, experimental, refinement or atomic coordinate data resulting 
# from the CCDC's data processing and validation procedures.
#
#######################################################################

data_FELDUX
_chemical_name_common            12122a
_chemical_formula_moiety         'C21 H19 N1 O2 S1'
_chemical_name_systematic        
N-(3H-Cyclopenta[a]naphthalen-1-yl)-N,4-dimethylbenzenesulfonamide
_symmetry_cell_setting           monoclinic
_symmetry_space_group_name_H-M   'P 21/n'
_symmetry_Int_Tables_number      14
_space_group_name_Hall           '-P 2yn'
loop_
_symmetry_equiv_pos_site_id
_symmetry_equiv_pos_as_xyz
1 x,y,z
2 1/2-x,1/2+y,1/2-z
3 -x,-y,-z
4 1/2+x,1/2-y,1/2+z
_cell_length_a                   12.9308(13)
_cell_length_b                   9.8350(10)
_cell_length_c                   13.9957(14)
_cell_angle_alpha                90
_cell_angle_beta                 97.501(1)
_cell_angle_gamma                90
_cell_volume                     1764.66
_exptl_crystal_colour            yellow
_exptl_crystal_description       plate
_cell_formula_units_Z            4
loop_
_atom_site_label
_atom_site_type_symbol
_atom_site_fract_x
_atom_site_fract_y
_atom_site_fract_z
S1 S 0.67357(3) 0.62361(3) 0.39811(2)
O1 O 0.66600(9) 0.57832(11) 0.49419(7)
O2 O 0.75424(8) 0.71584(11) 0.38046(9)
N1 N 0.68991(9) 0.48719(11) 0.33436(8)
C1 C 0.63515(10) 0.36683(13) 0.35672(9)
C2 C 0.53652(11) 0.33592(16) 0.32358(11)
H1 H 0.4899 0.3930 0.2836
C3 C 0.51017(12) 0.19830(16) 0.35860(12)
H2 H 0.4893 0.1357 0.3041
H3 H 0.4532 0.2035 0.3993
C4 C 0.61033(11) 0.15349(14) 0.41616(10)
C5 C 0.63379(13) 0.02958(15) 0.46381(11)
H4 H 0.5822 -0.0393 0.4630
C6 C 0.73155(14) 0.00911(15) 0.51122(11)
H5 H 0.7477 -0.0750 0.5431
C7 C 0.80955(12) 0.11068(14) 0.51401(10)
C8 C 0.78703(11) 0.23763(14) 0.46590(9)
C9 C 0.68445(10) 0.25480(13) 0.41600(9)
C10 C 0.91094(13) 0.08935(17) 0.56370(12)
H6 H 0.9266 0.0055 0.5961
C11 C 0.98602(13) 0.18580(19) 0.56596(13)
H7 H 1.0536 0.1688 0.5992
C12 C 0.96406(12) 0.31071(18) 0.51930(12)
H8 H 1.0169 0.3782 0.5217
C13 C 0.86717(11) 0.33652(15) 0.47033(11)
H9 H 0.8536 0.4216 0.4390
C14 C 0.69837(13) 0.50968(16) 0.23151(11)
H10 H 0.7197 0.4250 0.2028
H11 H 0.7505 0.5804 0.2252
H12 H 0.6306 0.5386 0.1981
C15 C 0.55339(11) 0.69461(14) 0.34983(10)
C16 C 0.54832(13) 0.78206(16) 0.27133(11)
H13 H 0.6099 0.8063 0.2451
C17 C 0.45286(15) 0.8333(2) 0.23198(12)
H14 H 0.4493 0.8938 0.1787
C18 C 0.36164(14) 0.7979(2) 0.26890(12)
C19 C 0.36867(13) 0.7092(2) 0.34600(11)
H15 H 0.3069 0.6834 0.3713
C20 C 0.46326(12) 0.65722(17) 0.38728(11)
H16 H 0.4666 0.5967 0.4405
C21 C 0.25752(17) 0.8559(3) 0.22669(16)
H17 H 0.2499 0.8487 0.1563
H18 H 0.2537 0.9517 0.2452
H19 H 0.2014 0.8049 0.2512
loop_
_geom_bond_atom_site_label_1
_geom_bond_atom_site_label_2
_geom_bond_site_symmetry_1
_geom_bond_site_symmetry_2
S1 O1 1_555 1_555
O2 S1 1_555 1_555
N1 S1 1_555 1_555
C1 N1 1_555 1_555
C2 C1 1_555 1_555
H1 C2 1_555 1_555
C3 C2 1_555 1_555
H2 C3 1_555 1_555
H3 C3 1_555 1_555
C4 C3 1_555 1_555
C5 C4 1_555 1_555
H4 C5 1_555 1_555
C6 C5 1_555 1_555
H5 C6 1_555 1_555
C7 C6 1_555 1_555
C8 C7 1_555 1_555
C9 C1 1_555 1_555
C10 C7 1_555 1_555
H6 C10 1_555 1_555
C11 C10 1_555 1_555
H7 C11 1_555 1_555
C12 C11 1_555 1_555
H8 C12 1_555 1_555
C13 C8 1_555 1_555
H9 C13 1_555 1_555
C14 N1 1_555 1_555
H10 C14 1_555 1_555
H11 C14 1_555 1_555
H12 C14 1_555 1_555
C15 S1 1_555 1_555
C16 C15 1_555 1_555
H13 C16 1_555 1_555
C17 C16 1_555 1_555
H14 C17 1_555 1_555
C18 C17 1_555 1_555
C19 C18 1_555 1_555
H15 C19 1_555 1_555
C20 C15 1_555 1_555
H16 C20 1_555 1_555
C21 C18 1_555 1_555
H17 C21 1_555 1_555
H18 C21 1_555 1_555
H19 C21 1_555 1_555
C4 C9 1_555 1_555
C8 C9 1_555 1_555
C12 C13 1_555 1_555
C19 C20 1_555 1_555

#END
