
#######################################################################
#
#                 Cambridge Crystallographic Data Centre
#                                CCDC 
#
#######################################################################
#
# If this CIF has been generated from an entry in the Cambridge 
# Structural Database, then it will include bibliographic, chemical, 
# crystal, experimental, refinement or atomic coordinate data resulting 
# from the CCDC's data processing and validation procedures.
#
#######################################################################

data_FELFOT
_chemical_formula_moiety         'C16 H15 N1 O1'
_chemical_name_systematic        
7a,8,9,10-Tetrahydrobenzo[h]pyrrolo[1,2-b]isoquinolin-12(7H)-one
_symmetry_cell_setting           monoclinic
_symmetry_space_group_name_H-M   'P 21/c'
_symmetry_Int_Tables_number      14
_space_group_name_Hall           '-P 2ybc'
loop_
_symmetry_equiv_pos_site_id
_symmetry_equiv_pos_as_xyz
1 x,y,z
2 -x,1/2+y,1/2-z
3 -x,-y,-z
4 x,1/2-y,1/2+z
_cell_length_a                   6.965(10)
_cell_length_b                   9.910(15)
_cell_length_c                   17.31(3)
_cell_angle_alpha                90
_cell_angle_beta                 90.631(17)
_cell_angle_gamma                90
_cell_volume                     1194.72
_exptl_crystal_colour            colorless
_exptl_crystal_description       block
_cell_formula_units_Z            4
loop_
_atom_site_label
_atom_site_type_symbol
_atom_site_fract_x
_atom_site_fract_y
_atom_site_fract_z
C1 C 0.6603(6) 0.5724(5) 0.0856(2)
C2 C 0.7174(7) 0.4670(5) 0.1344(3)
H1 H 0.8353 0.4254 0.1267
C3 C 0.6042(7) 0.4247(5) 0.1923(3)
H2 H 0.6445 0.3534 0.2235
C4 C 0.4270(7) 0.4864(5) 0.2063(2)
C5 C 0.3101(8) 0.4437(5) 0.2676(3)
H3 H 0.3502 0.3719 0.2984
C6 C 0.1423(8) 0.5043(6) 0.2824(3)
H4 H 0.0661 0.4739 0.3226
C7 C 0.0833(7) 0.6127(6) 0.2373(3)
H5 H -0.0308 0.6566 0.2488
C8 C 0.1891(6) 0.6560(5) 0.1765(2)
H6 H 0.1453 0.7278 0.1466
C9 C 0.3653(6) 0.5928(5) 0.1583(2)
C10 C 0.4834(6) 0.6329(4) 0.0952(2)
C11 C 0.4145(6) 0.7293(4) 0.0353(2)
C12 C 0.7559(5) 0.7599(5) 0.0005(2)
H7 H 0.8096 0.8173 0.0414
C13 C 0.7867(6) 0.6154(5) 0.0211(2)
H8 H 0.9199 0.6021 0.0362
H9 H 0.7607 0.5596 -0.0238
C14 C 0.5035(6) 0.8726(5) -0.0737(2)
H10 H 0.4314 0.9514 -0.0579
H11 H 0.4299 0.8237 -0.1126
C15 C 0.6982(7) 0.9117(6) -0.1037(3)
H12 H 0.6959 0.9166 -0.1596
H13 H 0.7368 0.9989 -0.0833
C16 C 0.8325(6) 0.8050(5) -0.0769(2)
H14 H 0.9617 0.8405 -0.0714
H15 H 0.8342 0.7304 -0.1132
N1 N 0.5494(4) 0.7866(4) -0.00791(18)
O1 O 0.2427(4) 0.7520(3) 0.02302(15)
loop_
_geom_bond_atom_site_label_1
_geom_bond_atom_site_label_2
_geom_bond_site_symmetry_1
_geom_bond_site_symmetry_2
C1 C2 1_555 1_555
C2 H1 1_555 1_555
C3 C2 1_555 1_555
H2 C3 1_555 1_555
C4 C3 1_555 1_555
C5 C4 1_555 1_555
H3 C5 1_555 1_555
C6 C5 1_555 1_555
H4 C6 1_555 1_555
C7 C6 1_555 1_555
H5 C7 1_555 1_555
C8 C7 1_555 1_555
H6 C8 1_555 1_555
C9 C4 1_555 1_555
C10 C1 1_555 1_555
C11 C10 1_555 1_555
C12 H7 1_555 1_555
C13 C1 1_555 1_555
H8 C13 1_555 1_555
H9 C13 1_555 1_555
C14 H10 1_555 1_555
H11 C14 1_555 1_555
C15 C14 1_555 1_555
H12 C15 1_555 1_555
H13 C15 1_555 1_555
C16 C12 1_555 1_555
H14 C16 1_555 1_555
H15 C16 1_555 1_555
N1 C11 1_555 1_555
O1 C11 1_555 1_555
C8 C9 1_555 1_555
C9 C10 1_555 1_555
C12 C13 1_555 1_555
C12 N1 1_555 1_555
C14 N1 1_555 1_555
C15 C16 1_555 1_555

#END
