
#######################################################################
#
#                 Cambridge Crystallographic Data Centre
#                                CCDC 
#
#######################################################################
#
# If this CIF has been generated from an entry in the Cambridge 
# Structural Database, then it will include bibliographic, chemical, 
# crystal, experimental, refinement or atomic coordinate data resulting 
# from the CCDC's data processing and validation procedures.
#
#######################################################################

data_FELFAG
_chemical_formula_moiety         '2(C7 H10 N1 1+),C8 H3 N1 O6 2-,2(H2 O1)'
_chemical_name_systematic        
'bis(phenylmethanaminium) 3-nitrophthalate dihydrate'
_symmetry_cell_setting           triclinic
_symmetry_space_group_name_H-M   'P -1'
_symmetry_Int_Tables_number      2
_space_group_name_Hall           '-P 1'
loop_
_symmetry_equiv_pos_site_id
_symmetry_equiv_pos_as_xyz
1 x,y,z
2 -x,-y,-z
_cell_length_a                   7.0843(8)
_cell_length_b                   11.0595(13)
_cell_length_c                   15.1013(14)
_cell_angle_alpha                95.0100(10)
_cell_angle_beta                 92.4370(10)
_cell_angle_gamma                103.922(2)
_cell_volume                     1141.55
_exptl_crystal_colour            colorless
_exptl_crystal_description       BLOCK
_cell_formula_units_Z            2
loop_
_atom_site_label
_atom_site_type_symbol
_atom_site_fract_x
_atom_site_fract_y
_atom_site_fract_z
N1 N 0.7199(6) 0.3217(4) 0.5842(3)
H1 H 0.8115 0.2790 0.5867
H2 H 0.7151 0.3499 0.5309
H3 H 0.6049 0.2717 0.5929
C1 C 0.7673(8) 0.4294(6) 0.6546(4)
H4 H 0.6719 0.4786 0.6485
H5 H 0.8939 0.4824 0.6451
C2 C 0.7705(7) 0.3921(6) 0.7470(4)
C3 C 0.8174(8) 0.4881(7) 0.8172(5)
H6 H 0.8479 0.5711 0.8044
C4 C 0.8192(10) 0.4625(8) 0.9040(5)
H7 H 0.8448 0.5272 0.9499
C5 C 0.7826(9) 0.3393(8) 0.9230(5)
H8 H 0.7886 0.3210 0.9818
C6 C 0.7373(9) 0.2434(7) 0.8550(5)
H9 H 0.7115 0.1604 0.8677
C7 C 0.7308(8) 0.2712(6) 0.7684(4)
H10 H 0.6984 0.2061 0.7229
N2 N 0.3059(6) 0.2178(5) 0.3981(3)
H11 H 0.4145 0.2737 0.3886
H12 H 0.3029 0.2078 0.4560
H13 H 0.2029 0.2446 0.3807
C8 C 0.3015(9) 0.0970(6) 0.3471(4)
H14 H 0.1739 0.0408 0.3495
H15 H 0.3967 0.0596 0.3747
C9 C 0.3439(9) 0.1101(6) 0.2517(4)
C10 C 0.5176(9) 0.0975(6) 0.2211(5)
H16 H 0.6125 0.0827 0.2602
C11 C 0.5531(11) 0.1068(7) 0.1321(6)
H17 H 0.6708 0.0964 0.1117
C12 C 0.4164(12) 0.1311(7) 0.0742(5)
H18 H 0.4409 0.1386 0.0146
C13 C 0.2415(11) 0.1441(7) 0.1056(5)
H19 H 0.1473 0.1604 0.0667
C14 C 0.2051(10) 0.1334(6) 0.1931(5)
H20 H 0.0863 0.1419 0.2133
N3 N 0.8012(7) 0.8333(5) 0.1960(4)
O1 O 0.6780(5) 0.3895(4) 0.4155(3)
O2 O 0.7724(8) 0.5848(4) 0.4751(3)
O3 O 0.6763(5) 0.8110(3) 0.4170(2)
O4 O 0.9922(5) 0.8168(4) 0.4048(3)
O5 O 0.8251(7) 0.9157(4) 0.2563(3)
O6 O 0.8166(8) 0.8535(5) 0.1185(3)
C15 C 0.7246(8) 0.5078(6) 0.4101(4)
C16 C 0.8156(9) 0.7753(5) 0.3806(3)
C17 C 0.7151(7) 0.5474(5) 0.3176(4)
C18 C 0.7606(7) 0.6744(5) 0.3032(4)
C19 C 0.7560(8) 0.7012(5) 0.2156(4)
C20 C 0.7059(8) 0.6108(6) 0.1445(4)
H21 H 0.7037 0.6332 0.0866
C21 C 0.6597(8) 0.4882(6) 0.1599(5)
H22 H 0.6222 0.4261 0.1125
C22 C 0.6684(8) 0.4563(6) 0.2459(4)
H23 H 0.6427 0.3723 0.2559
O7 O 0.2312(6) 0.9263(4) 0.5517(3)
H24 H 0.2536 1.0057 0.5574
H25 H 0.1566 0.8983 0.5051
O8 O 0.9434(6) 0.2518(4) 0.3441(3)
H26 H 0.8760 0.3036 0.3585
H27 H 0.9058 0.1882 0.3725
loop_
_geom_bond_atom_site_label_1
_geom_bond_atom_site_label_2
_geom_bond_site_symmetry_1
_geom_bond_site_symmetry_2
N1 H1 1_555 1_555
H2 N1 1_555 1_555
H3 N1 1_555 1_555
C1 N1 1_555 1_555
H4 C1 1_555 1_555
H5 C1 1_555 1_555
C2 C1 1_555 1_555
C3 C2 1_555 1_555
H6 C3 1_555 1_555
C4 C3 1_555 1_555
H7 C4 1_555 1_555
C5 C4 1_555 1_555
H8 C5 1_555 1_555
C6 C5 1_555 1_555
H9 C6 1_555 1_555
C7 C2 1_555 1_555
H10 C7 1_555 1_555
N2 H11 1_555 1_555
H12 N2 1_555 1_555
H13 N2 1_555 1_555
C8 N2 1_555 1_555
H14 C8 1_555 1_555
H15 C8 1_555 1_555
C9 C8 1_555 1_555
C10 C9 1_555 1_555
H16 C10 1_555 1_555
C11 C10 1_555 1_555
H17 C11 1_555 1_555
C12 C11 1_555 1_555
H18 C12 1_555 1_555
C13 C12 1_555 1_555
H19 C13 1_555 1_555
C14 C9 1_555 1_555
H20 C14 1_555 1_555
N3 O5 1_555 1_555
O1 C15 1_555 1_555
O2 C15 1_555 1_555
O3 C16 1_555 1_555
O4 C16 1_555 1_555
O6 N3 1_555 1_555
C15 C17 1_555 1_555
C16 C18 1_555 1_555
C17 C18 1_555 1_555
C18 C19 1_555 1_555
C19 N3 1_555 1_555
C20 C19 1_555 1_555
H21 C20 1_555 1_555
C21 C20 1_555 1_555
H22 C21 1_555 1_555
C22 C17 1_555 1_555
H23 C22 1_555 1_555
O7 H24 1_555 1_555
H25 O7 1_555 1_555
O8 H26 1_555 1_555
H27 O8 1_555 1_555
C6 C7 1_555 1_555
C13 C14 1_555 1_555
C21 C22 1_555 1_555

#END
