
#######################################################################
#
#                 Cambridge Crystallographic Data Centre
#                                CCDC 
#
#######################################################################
#
# If this CIF has been generated from an entry in the Cambridge 
# Structural Database, then it will include bibliographic, chemical, 
# crystal, experimental, refinement or atomic coordinate data resulting 
# from the CCDC's data processing and validation procedures.
#
#######################################################################

data_FEMGOV
_chemical_formula_moiety         'C15 H13 F3 O3'
_chemical_name_systematic        
1-(2-Ethoxy-5-(4-methylphenyl)-3-furyl)-2,2,2-trifluoroethanone
_symmetry_cell_setting           monoclinic
_symmetry_space_group_name_H-M   'P 21/n'
_symmetry_Int_Tables_number      14
_space_group_name_Hall           '-P 2yn'
loop_
_symmetry_equiv_pos_site_id
_symmetry_equiv_pos_as_xyz
1 x,y,z
2 1/2-x,1/2+y,1/2-z
3 -x,-y,-z
4 1/2+x,1/2-y,1/2+z
_cell_length_a                   7.2318(9)
_cell_length_b                   13.0877(15)
_cell_length_c                   15.2582(18)
_cell_angle_alpha                90
_cell_angle_beta                 103.244(2)
_cell_angle_gamma                90
_cell_volume                     1405.74
_exptl_crystal_colour            colorless
_exptl_crystal_description       prismatic
_cell_formula_units_Z            4
loop_
_atom_site_label
_atom_site_type_symbol
_atom_site_fract_x
_atom_site_fract_y
_atom_site_fract_z
F1 F 0.4060(16) 0.4882(10) 0.7022(9)
F2 F 0.1115(12) 0.5075(5) 0.6693(5)
F3 F 0.215(2) 0.3947(5) 0.6030(4)
O1 O 0.23781(19) 0.40910(10) 0.99061(10)
O2 O 0.2134(2) 0.25062(11) 0.93021(11)
O3 O 0.2112(3) 0.27114(14) 0.73638(13)
C1 C 0.2301(3) 0.34923(16) 0.91975(15)
C2 C 0.2418(3) 0.40369(16) 0.84430(15)
C3 C 0.2585(3) 0.50816(16) 0.87433(15)
H1 H 0.2696 0.5648 0.8391
C4 C 0.2552(3) 0.50975(15) 0.96184(14)
C5 C 0.2335(3) 0.36014(19) 0.75756(16)
C6 C 0.2505(5) 0.4350(2) 0.68245(18)
C7 C 0.2648(3) 0.58799(15) 1.03004(14)
C8 C 0.2388(3) 0.56503(17) 1.11527(16)
H2 H 0.2158 0.4979 1.1297
C9 C 0.2469(3) 0.6408(2) 1.17835(15)
H3 H 0.2281 0.6238 1.2349
C10 C 0.2821(3) 0.74125(18) 1.16037(16)
C11 C 0.3098(3) 0.76305(17) 1.07609(16)
H4 H 0.3349 0.8301 1.0623
C12 C 0.3016(3) 0.68858(16) 1.01151(15)
H5 H 0.3208 0.7059 0.9552
C13 C 0.2908(4) 0.8225(2) 1.23092(19)
H6 H 0.1800 0.8181 1.2553
H7 H 0.2957 0.8886 1.2043
H8 H 0.4024 0.8127 1.2782
C14 C 0.2090(4) 0.21547(19) 1.02078(18)
H9 H 0.1028 0.2459 1.0402
H10 H 0.3256 0.2341 1.0633
C15 C 0.1884(5) 0.1031(2) 1.0154(2)
H11 H 0.0735 0.0858 0.9724
H12 H 0.1833 0.0765 1.0734
H13 H 0.2951 0.0740 0.9967
F4? F 0.373(2) 0.5093(9) 0.7047(7)
F5? F 0.0859(13) 0.4704(14) 0.6463(11)
F6? F 0.328(2) 0.3859(6) 0.6221(9)
loop_
_geom_bond_atom_site_label_1
_geom_bond_atom_site_label_2
_geom_bond_site_symmetry_1
_geom_bond_site_symmetry_2
F1 C6 1_555 1_555
F2 C6 1_555 1_555
F3 C6 1_555 1_555
O1 C1 1_555 1_555
O2 C1 1_555 1_555
O3 C5 1_555 1_555
C1 C2 1_555 1_555
C2 C3 1_555 1_555
C3 H1 1_555 1_555
C4 O1 1_555 1_555
C5 C2 1_555 1_555
C6 C5 1_555 1_555
C7 C4 1_555 1_555
C8 C7 1_555 1_555
H2 C8 1_555 1_555
C9 C8 1_555 1_555
H3 C9 1_555 1_555
C10 C9 1_555 1_555
C11 C10 1_555 1_555
H4 C11 1_555 1_555
C12 C7 1_555 1_555
H5 C12 1_555 1_555
C13 C10 1_555 1_555
H6 C13 1_555 1_555
H7 C13 1_555 1_555
H8 C13 1_555 1_555
C14 O2 1_555 1_555
H9 C14 1_555 1_555
H10 C14 1_555 1_555
C15 C14 1_555 1_555
H11 C15 1_555 1_555
H12 C15 1_555 1_555
H13 C15 1_555 1_555
C3 C4 1_555 1_555
C11 C12 1_555 1_555

#END
