
#######################################################################
#
#                 Cambridge Crystallographic Data Centre
#                                CCDC 
#
#######################################################################
#
# If this CIF has been generated from an entry in the Cambridge 
# Structural Database, then it will include bibliographic, chemical, 
# crystal, experimental, refinement or atomic coordinate data resulting 
# from the CCDC's data processing and validation procedures.
#
#######################################################################

data_FEMHUB
_chemical_formula_moiety         'C12 H15 N1 O4 S1'
_chemical_name_systematic        
'2-((S)-4-Isopropyl-4,5-dihydro-oxazol-2-yl)benzenesulfonic acid'
_symmetry_cell_setting           orthorhombic
_symmetry_space_group_name_H-M   'P 21 21 21'
_symmetry_Int_Tables_number      19
_space_group_name_Hall           'P 2ac 2ab'
loop_
_symmetry_equiv_pos_site_id
_symmetry_equiv_pos_as_xyz
1 x,y,z
2 1/2-x,-y,1/2+z
3 -x,1/2+y,1/2-z
4 1/2+x,1/2-y,-z
_cell_length_a                   8.1800(9)
_cell_length_b                   10.5753(12)
_cell_length_c                   14.6833(16)
_cell_angle_alpha                90
_cell_angle_beta                 90
_cell_angle_gamma                90
_cell_volume                     1270.19
_exptl_crystal_colour            colorless
_exptl_crystal_description       block
_chemical_melting_point          '226-227 deg.C'
_cell_formula_units_Z            4
_exptl_crystal_recrystallization_method ethanol
loop_
_atom_site_label
_atom_site_type_symbol
_atom_site_fract_x
_atom_site_fract_y
_atom_site_fract_z
S1 S -0.09376(11) 0.37968(8) 0.35671(6)
O1 O 0.3180(3) 0.0888(2) 0.36077(18)
N1 N 0.0882(4) 0.1346(3) 0.4276(2)
H1 H 0.0052 0.1822 0.4444
C1 C 0.1210(4) 0.4004(3) 0.3379(2)
O2 O -0.1463(3) 0.2883(3) 0.28957(19)
C2 C 0.2407(4) 0.3056(3) 0.3486(2)
O3 O -0.1080(3) 0.3314(2) 0.45031(17)
C3 C 0.4041(5) 0.3333(4) 0.3303(2)
H2 H 0.4849 0.2696 0.3376
O4 O -0.1654(3) 0.5041(2) 0.3462(2)
C4 C 0.4496(5) 0.4537(4) 0.3015(3)
H3 H 0.5612 0.4726 0.2899
C5 C 0.3324(5) 0.5448(4) 0.2900(2)
H4 H 0.3633 0.6264 0.2692
C6 C 0.1708(5) 0.5199(3) 0.3080(2)
H5 H 0.0917 0.5847 0.3000
C7 C 0.2078(4) 0.1746(3) 0.3806(2)
C8 C 0.1037(5) -0.0001(3) 0.4511(2)
H6 H 0.1119 -0.0096 0.5187
C9 C 0.2705(5) -0.0295(3) 0.4074(3)
H7 H 0.3519 -0.0526 0.4544
H8 H 0.2610 -0.0999 0.3633
C10 C -0.0389(5) -0.0796(3) 0.4155(3)
H9 H -0.0314 -0.0823 0.3475
C11 C -0.0188(7) -0.2142(4) 0.4512(3)
H10 H -0.1092 -0.2667 0.4291
H11 H -0.0194 -0.2132 0.5180
H12 H 0.0851 -0.2492 0.4295
C12 C -0.2031(5) -0.0243(4) 0.4407(3)
H13 H -0.2903 -0.0782 0.4164
H14 H -0.2129 0.0608 0.4148
H15 H -0.2125 -0.0197 0.5071
loop_
_geom_bond_atom_site_label_1
_geom_bond_atom_site_label_2
_geom_bond_site_symmetry_1
_geom_bond_site_symmetry_2
S1 C1 1_555 1_555
O1 C7 1_555 1_555
N1 H1 1_555 1_555
C1 C2 1_555 1_555
O2 S1 1_555 1_555
C2 C3 1_555 1_555
O3 S1 1_555 1_555
C3 H2 1_555 1_555
O4 S1 1_555 1_555
C4 C3 1_555 1_555
H3 C4 1_555 1_555
C5 C4 1_555 1_555
H4 C5 1_555 1_555
C6 C1 1_555 1_555
H5 C6 1_555 1_555
C7 N1 1_555 1_555
C8 N1 1_555 1_555
H6 C8 1_555 1_555
C9 O1 1_555 1_555
H7 C9 1_555 1_555
H8 C9 1_555 1_555
C10 C8 1_555 1_555
H9 C10 1_555 1_555
C11 C10 1_555 1_555
H10 C11 1_555 1_555
H11 C11 1_555 1_555
H12 C11 1_555 1_555
C12 C10 1_555 1_555
H13 C12 1_555 1_555
H14 C12 1_555 1_555
H15 C12 1_555 1_555
C2 C7 1_555 1_555
C5 C6 1_555 1_555
C8 C9 1_555 1_555

#END
