
#######################################################################
#
#                 Cambridge Crystallographic Data Centre
#                                CCDC 
#
#######################################################################
#
# If this CIF has been generated from an entry in the Cambridge 
# Structural Database, then it will include bibliographic, chemical, 
# crystal, experimental, refinement or atomic coordinate data resulting 
# from the CCDC's data processing and validation procedures.
#
#######################################################################

data_FEMHIR
_chemical_formula_moiety         'C50 H30 O2'
_chemical_name_systematic        
(9,14-diphenyldibenzo[de,qr]tetracene-11,12-diyl)bis(phenylmethanone)
_symmetry_cell_setting           triclinic
_symmetry_space_group_name_H-M   'P -1'
_symmetry_Int_Tables_number      2
_space_group_name_Hall           '-P 1'
loop_
_symmetry_equiv_pos_site_id
_symmetry_equiv_pos_as_xyz
1 x,y,z
2 -x,-y,-z
_cell_length_a                   11.501(2)
_cell_length_b                   11.822(2)
_cell_length_c                   13.888(3)
_cell_angle_alpha                81.22(3)
_cell_angle_beta                 71.24(3)
_cell_angle_gamma                73.71(3)
_cell_volume                     1712.13
_cell_formula_units_Z            2
loop_
_atom_site_label
_atom_site_type_symbol
_atom_site_fract_x
_atom_site_fract_y
_atom_site_fract_z
C1 C 0.58505(17) 0.80728(16) 0.35546(15)
C2 C 0.52743(17) 0.67397(16) 0.54419(15)
C3 C 0.68092(17) 0.71562(17) 0.38316(15)
C4 C 0.36601(18) 0.63891(18) 0.70994(15)
C5 C 0.44142(17) 0.78461(17) 0.52557(15)
C6 C 0.29338(18) 0.75797(19) 0.70005(16)
C7 C 0.64996(17) 0.64564(16) 0.47617(15)
C8 C 0.48033(18) 0.59488(17) 0.63328(15)
C9 C 0.46517(17) 0.84286(16) 0.42838(16)
C10 C 0.80563(18) 0.69348(18) 0.31310(16)
C11 C 0.75216(17) 0.54173(17) 0.49384(15)
C12 C 0.61339(19) 0.85903(17) 0.25354(16)
C13 C 0.1813(2) 0.8018(2) 0.78013(18)
C14 C 0.83248(19) 0.74969(18) 0.21810(16)
C15 C 0.3221(2) 0.5644(2) 0.79728(17)
C16 C 0.5375(2) 0.47446(19) 0.64259(18)
C17 C 0.32922(17) 0.83225(18) 0.61137(16)
C18 C 0.7998(2) 0.44905(18) 0.42999(18)
C19 C 0.36598(18) 0.93579(18) 0.39289(16)
C20 C 0.2627(2) 0.9511(2) 0.61094(19)
C21 C 0.7318(2) 0.83126(17) 0.18591(16)
C22 C 0.3878(2) 0.4465(2) 0.80500(19)
O1 O 1.00127(17) 0.82869(15) 0.11486(16)
C23 C 1.05983(19) 0.62291(19) 0.14872(16)
C24 C 0.9679(2) 0.73971(19) 0.15595(17)
O2 O 0.8181(2) 0.80225(17) 0.01157(14)
C25 C 0.1141(2) 0.9193(2) 0.7730(2)
C26 C 0.2086(3) 0.6121(3) 0.8755(2)
C27 C 0.8005(2) 0.5342(2) 0.57463(17)
C28 C 0.1429(3) 0.7242(3) 0.8675(2)
C29 C 0.6879(2) 0.9934(2) 0.04507(17)
C30 C 0.6464(2) 1.0857(2) 0.1077(2)
C31 C 0.7525(2) 0.8722(2) 0.07521(17)
C32 C 0.1561(2) 0.9928(2) 0.6913(2)
C33 C 0.4927(2) 0.4023(2) 0.72779(19)
C34 C 1.1873(2) 0.6174(3) 0.1337(2)
C35 C 0.2603(2) 0.9065(3) 0.3880(2)
C36 C 0.3810(3) 1.0500(2) 0.3608(2)
C37 C 1.0243(2) 0.5198(2) 0.15305(19)
C38 C 0.8892(2) 0.3505(2) 0.4485(2)
C39 C 0.9340(2) 0.3431(2) 0.5310(2)
C40 C 0.8906(2) 0.4351(3) 0.5929(2)
C41 C 1.1135(3) 0.4116(2) 0.1413(2)
C42 C 0.5887(3) 1.1988(2) 0.0757(3)
C43 C 1.2741(3) 0.5080(3) 0.1254(2)
C44 C 0.1694(3) 0.9900(4) 0.3520(3)
C45 C 1.2383(3) 0.4072(3) 0.1274(2)
C46 C 0.6098(4) 1.1289(3) -0.0811(3)
C47 C 0.6696(3) 1.0159(3) -0.0515(2)
C48 C 0.1831(4) 1.1012(4) 0.3215(3)
C49 C 0.2883(5) 1.1320(3) 0.3251(3)
C50 C 0.5693(3) 1.2187(3) -0.0181(3)
H1 H 0.661(2) 1.0742(18) 0.1750(18)
H2 H 0.766(2) 0.4571(19) 0.3725(19)
H3 H 0.767(2) 0.597(2) 0.6190(19)
H4 H 1.361(3) 0.504(2) 0.115(2)
H5 H 0.8732(19) 0.6380(17) 0.3354(15)
H6 H 0.545(2) 0.9156(18) 0.2293(17)
H7 H 0.296(2) 1.0099(19) 0.5542(19)
H8 H 0.610(2) 0.438(2) 0.587(2)
H9 H 0.355(3) 0.399(2) 0.866(2)
H10 H 0.533(2) 0.317(2) 0.731(2)
H11 H 0.038(3) 0.949(2) 0.829(2)
H12 H 0.928(3) 0.436(3) 0.649(2)
H13 H 0.113(2) 1.076(2) 0.6856(19)
H14 H 0.934(2) 0.5227(19) 0.1630(18)
H15 H 0.558(3) 1.267(2) 0.123(2)
H16 H 0.462(3) 1.071(2) 0.363(2)
H17 H 1.080(3) 0.336(2) 0.145(2)
H18 H 0.698(3) 0.946(3) -0.090(2)
H19 H 0.913(2) 0.285(2) 0.406(2)
H20 H 1.211(3) 0.694(3) 0.132(3)
H21 H 0.181(3) 0.556(2) 0.938(2)
H22 H 0.598(3) 1.141(3) -0.146(3)
H23 H 0.064(3) 0.759(2) 0.923(2)
H24 H 0.995(3) 0.272(2) 0.546(2)
H25 H 0.250(3) 0.824(2) 0.410(2)
H26 H 0.124(4) 1.163(3) 0.292(3)
H27 H 0.306(3) 1.210(3) 0.301(3)
H28 H 0.090(4) 0.966(4) 0.357(3)
H29 H 0.528(3) 1.303(3) -0.046(2)
H30 H 1.306(3) 0.332(3) 0.117(3)
loop_
_geom_bond_atom_site_label_1
_geom_bond_atom_site_label_2
_geom_bond_site_symmetry_1
_geom_bond_site_symmetry_2
C1 C3 1_555 1_555
C2 C5 1_555 1_555
C3 C7 1_555 1_555
C4 C6 1_555 1_555
C5 C9 1_555 1_555
C6 C13 1_555 1_555
C7 C2 1_555 1_555
C8 C2 1_555 1_555
C9 C1 1_555 1_555
C10 C3 1_555 1_555
C11 C7 1_555 1_555
C12 C1 1_555 1_555
C13 C25 1_555 1_555
C14 C10 1_555 1_555
C15 C4 1_555 1_555
C16 C8 1_555 1_555
C17 C5 1_555 1_555
C18 C11 1_555 1_555
C19 C9 1_555 1_555
C20 C17 1_555 1_555
C21 C12 1_555 1_555
C22 C15 1_555 1_555
O1 C24 1_555 1_555
C23 C24 1_555 1_555
C24 C14 1_555 1_555
O2 C31 1_555 1_555
C25 C32 1_555 1_555
C26 C15 1_555 1_555
C27 C11 1_555 1_555
C28 C13 1_555 1_555
C29 C30 1_555 1_555
C30 C42 1_555 1_555
C31 C21 1_555 1_555
C32 C20 1_555 1_555
C33 C16 1_555 1_555
C34 C23 1_555 1_555
C35 C19 1_555 1_555
C36 C19 1_555 1_555
C37 C23 1_555 1_555
C38 C18 1_555 1_555
C39 C38 1_555 1_555
C40 C27 1_555 1_555
C41 C37 1_555 1_555
C42 C50 1_555 1_555
C43 C34 1_555 1_555
C44 C35 1_555 1_555
C45 C41 1_555 1_555
C46 C47 1_555 1_555
C47 C29 1_555 1_555
C48 C44 1_555 1_555
C49 C36 1_555 1_555
C50 C46 1_555 1_555
H1 C30 1_555 1_555
H2 C18 1_555 1_555
H3 C27 1_555 1_555
H4 C43 1_555 1_555
H5 C10 1_555 1_555
H6 C12 1_555 1_555
H7 C20 1_555 1_555
H8 C16 1_555 1_555
H9 C22 1_555 1_555
H10 C33 1_555 1_555
H11 C25 1_555 1_555
H12 C40 1_555 1_555
H13 C32 1_555 1_555
H14 C37 1_555 1_555
H15 C42 1_555 1_555
H16 C36 1_555 1_555
H17 C41 1_555 1_555
H18 C47 1_555 1_555
H19 C38 1_555 1_555
H20 C34 1_555 1_555
H21 C26 1_555 1_555
H22 C46 1_555 1_555
H23 C28 1_555 1_555
H24 C39 1_555 1_555
H25 C35 1_555 1_555
H26 C48 1_555 1_555
H27 C49 1_555 1_555
H28 C44 1_555 1_555
H29 C50 1_555 1_555
H30 C45 1_555 1_555
C4 C8 1_555 1_555
C6 C17 1_555 1_555
C14 C21 1_555 1_555
C22 C33 1_555 1_555
C26 C28 1_555 1_555
C29 C31 1_555 1_555
C39 C40 1_555 1_555
C43 C45 1_555 1_555
C48 C49 1_555 1_555

#END
