
#######################################################################
#
#                 Cambridge Crystallographic Data Centre
#                                CCDC 
#
#######################################################################
#
# If this CIF has been generated from an entry in the Cambridge 
# Structural Database, then it will include bibliographic, chemical, 
# crystal, experimental, refinement or atomic coordinate data resulting 
# from the CCDC's data processing and validation procedures.
#
#######################################################################

data_FEMJAJ
_chemical_formula_moiety         'C12 H17 N1 O5 S1'
_chemical_name_systematic        '(S)-2-Amino-3-methylbutyl 2-sulfobenzoate'
_symmetry_cell_setting           monoclinic
_symmetry_space_group_name_H-M   'P 21'
_symmetry_Int_Tables_number      4
_space_group_name_Hall           'P 2yb'
loop_
_symmetry_equiv_pos_site_id
_symmetry_equiv_pos_as_xyz
1 x,y,z
2 -x,1/2+y,-z
_cell_length_a                   8.7089(12)
_cell_length_b                   12.667(2)
_cell_length_c                   12.559(2)
_cell_angle_alpha                90
_cell_angle_beta                 107.374(2)
_cell_angle_gamma                90
_cell_volume                     1322.24
_exptl_crystal_colour            colorless
_exptl_crystal_description       'rectangular prism'
_chemical_melting_point          '208-209 deg.C'
_cell_formula_units_Z            4
_exptl_crystal_recrystallization_method ethanol
loop_
_atom_site_label
_atom_site_type_symbol
_atom_site_fract_x
_atom_site_fract_y
_atom_site_fract_z
S1 S 0.63770(7) 0.01681(5) 0.18132(5)
O1 O 0.7709(2) -0.04592(15) 0.24969(14)
O2 O 0.4956(2) -0.04701(16) 0.13080(15)
O3 O 0.6828(2) 0.08326(15) 0.10147(15)
N1 N 0.3218(2) 0.01596(15) -0.08768(15)
H1 H 0.3761 0.0075 -0.0141
H2 H 0.3395 -0.0409 -0.1267
H3 H 0.2146 0.0217 -0.0962
C1 C 0.5822(3) 0.1040(2) 0.2743(2)
C2 C 0.5120(3) 0.2020(2) 0.2384(2)
C3 C 0.4727(3) 0.2684(2) 0.3140(2)
H4 H 0.4256 0.3352 0.2899
C4 C 0.5012(3) 0.2386(3) 0.4244(2)
H5 H 0.4730 0.2847 0.4752
C5 C 0.5705(3) 0.1420(2) 0.4604(2)
H6 H 0.5900 0.1214 0.5360
O4 O 0.5438(2) 0.31849(16) 0.09712(16)
C6 C 0.6120(3) 0.0747(2) 0.3856(2)
H7 H 0.6609 0.0085 0.4106
O5 O 0.3710(2) 0.18272(15) 0.04832(14)
C7 C 0.4820(3) 0.2411(2) 0.1215(2)
C8 C 0.3342(4) 0.2065(2) -0.0698(2)
H8 H 0.3946 0.2700 -0.0800
H9 H 0.2178 0.2215 -0.1014
C9 C 0.3795(3) 0.1139(2) -0.1305(2)
H10 H 0.4992 0.1109 -0.1130
C10 C 0.3031(3) 0.1235(2) -0.2573(2)
H11 H 0.1857 0.1382 -0.2728
C11 C 0.3790(4) 0.2155(2) -0.3014(2)
H12 H 0.4948 0.2031 -0.2853
H13 H 0.3614 0.2810 -0.2652
H14 H 0.3296 0.2216 -0.3823
C12 C 0.3223(4) 0.0226(2) -0.3187(2)
H15 H 0.2729 0.0324 -0.3991
H16 H 0.2694 -0.0361 -0.2928
H17 H 0.4369 0.0067 -0.3037
S2 S -0.14715(7) -0.00383(5) -0.19120(5)
O6 O -0.2707(2) 0.05820(16) -0.26735(15)
O7 O -0.0083(2) 0.05801(15) -0.12936(15)
O8 O -0.2084(2) -0.07177(14) -0.11903(15)
N2 N -0.0253(2) -0.03959(15) 0.10313(16)
H18 H -0.0801 -0.0595 0.0324
H19 H -0.0187 0.0321 0.1068
H20 H -0.0780 -0.0633 0.1510
C13 C -0.0757(3) -0.0921(2) -0.2767(2)
C14 C -0.0023(3) -0.1892(2) -0.2378(2)
C15 C 0.0437(3) -0.2557(2) -0.3112(2)
H21 H 0.0922 -0.3219 -0.2857
C16 C 0.0189(4) -0.2258(3) -0.4214(2)
H22 H 0.0507 -0.2716 -0.4710
C17 C -0.0519(4) -0.1296(3) -0.4594(2)
H23 H -0.0679 -0.1091 -0.5347
O9 O -0.0156(3) -0.31355(16) -0.09942(16)
C18 C -0.0992(3) -0.0638(2) -0.3876(2)
H24 H -0.1486 0.0018 -0.4142
O10 O 0.1111(2) -0.15885(14) -0.04527(15)
C19 C 0.0272(3) -0.2282(2) -0.1214(2)
C20 C 0.1438(4) -0.1875(2) 0.0709(2)
H25 H 0.2503 -0.2221 0.0987
H26 H 0.0608 -0.2370 0.0803
C21 C 0.1415(3) -0.0859(2) 0.1349(2)
H27 H 0.2125 -0.0341 0.1121
C22 C 0.2087(3) -0.1004(2) 0.2614(2)
H28 H 0.3252 -0.1187 0.2780
C23 C 0.1286(4) -0.1917(2) 0.3058(2)
H29 H 0.1754 -0.1968 0.3870
H30 H 0.1465 -0.2580 0.2712
H31 H 0.0128 -0.1784 0.2877
C24 C 0.2000(3) 0.0018(3) 0.3238(2)
H32 H 0.2393 0.0606 0.2883
H33 H 0.2669 -0.0047 0.4015
H34 H 0.0883 0.0153 0.3215
loop_
_geom_bond_atom_site_label_1
_geom_bond_atom_site_label_2
_geom_bond_site_symmetry_1
_geom_bond_site_symmetry_2
S1 O1 1_555 1_555
O2 S1 1_555 1_555
O3 S1 1_555 1_555
N1 H1 1_555 1_555
H2 N1 1_555 1_555
H3 N1 1_555 1_555
C1 S1 1_555 1_555
C2 C1 1_555 1_555
C3 C2 1_555 1_555
H4 C3 1_555 1_555
C4 C3 1_555 1_555
H5 C4 1_555 1_555
C5 C4 1_555 1_555
H6 C5 1_555 1_555
O4 C7 1_555 1_555
C6 C1 1_555 1_555
H7 C6 1_555 1_555
O5 C7 1_555 1_555
C7 C2 1_555 1_555
C8 O5 1_555 1_555
H8 C8 1_555 1_555
H9 C8 1_555 1_555
C9 N1 1_555 1_555
H10 C9 1_555 1_555
C10 C9 1_555 1_555
H11 C10 1_555 1_555
C11 C10 1_555 1_555
H12 C11 1_555 1_555
H13 C11 1_555 1_555
H14 C11 1_555 1_555
C12 C10 1_555 1_555
H15 C12 1_555 1_555
H16 C12 1_555 1_555
H17 C12 1_555 1_555
S2 O6 1_555 1_555
O7 S2 1_555 1_555
O8 S2 1_555 1_555
N2 H18 1_555 1_555
H19 N2 1_555 1_555
H20 N2 1_555 1_555
C13 S2 1_555 1_555
C14 C13 1_555 1_555
C15 C14 1_555 1_555
H21 C15 1_555 1_555
C16 C15 1_555 1_555
H22 C16 1_555 1_555
C17 C16 1_555 1_555
H23 C17 1_555 1_555
O9 C19 1_555 1_555
C18 C13 1_555 1_555
H24 C18 1_555 1_555
O10 C19 1_555 1_555
C19 C14 1_555 1_555
C20 O10 1_555 1_555
H25 C20 1_555 1_555
H26 C20 1_555 1_555
C21 N2 1_555 1_555
H27 C21 1_555 1_555
C22 C21 1_555 1_555
H28 C22 1_555 1_555
C23 C22 1_555 1_555
H29 C23 1_555 1_555
H30 C23 1_555 1_555
H31 C23 1_555 1_555
C24 C22 1_555 1_555
H32 C24 1_555 1_555
H33 C24 1_555 1_555
H34 C24 1_555 1_555
C5 C6 1_555 1_555
C8 C9 1_555 1_555
C17 C18 1_555 1_555
C20 C21 1_555 1_555

#END
