
#######################################################################
#
#                 Cambridge Crystallographic Data Centre
#                                CCDC 
#
#######################################################################
#
# If this CIF has been generated from an entry in the Cambridge 
# Structural Database, then it will include bibliographic, chemical, 
# crystal, experimental, refinement or atomic coordinate data resulting 
# from the CCDC's data processing and validation procedures.
#
#######################################################################

data_FEPDUA
_chemical_formula_moiety         'C68 H92 Si8,2(C6 H14)'
_chemical_name_systematic        
"3,4,11,12,19,20,25,26-octakis(Trimethylsilyl)-7,16-(2',3'):8,15(2'',3'')dinaphthalenodinaphtho(a,e)cyclo-octene hexane solvate"
_symmetry_cell_setting           monoclinic
_symmetry_space_group_name_H-M   'P 21/n'
_symmetry_Int_Tables_number      14
_space_group_name_Hall           '-P 2yn'
loop_
_symmetry_equiv_pos_site_id
_symmetry_equiv_pos_as_xyz
1 x,y,z
2 1/2-x,1/2+y,1/2-z
3 -x,-y,-z
4 1/2+x,1/2-y,1/2+z
_cell_length_a                   16.574(4)
_cell_length_b                   13.868(3)
_cell_length_c                   18.762(4)
_cell_angle_alpha                90
_cell_angle_beta                 95.71(2)
_cell_angle_gamma                90
_cell_volume                     4291.02
_exptl_crystal_colour            colorless
_exptl_crystal_description       block
_chemical_melting_point          300deg.C(dec.)
_cell_formula_units_Z            2
loop_
_atom_site_label
_atom_site_type_symbol
_atom_site_fract_x
_atom_site_fract_y
_atom_site_fract_z
Si1 Si 0.67335(4) 0.43630(4) 0.04831(3)
Si2 Si 0.81587(4) 0.57635(4) 0.18091(3)
Si3 Si 0.62692(5) 1.20637(6) -0.39284(4)
Si4 Si 0.76719(6) 1.34636(7) -0.25848(4)
C1 C 0.67596(12) 0.57044(13) 0.06553(10)
C2 C 0.61915(12) 0.62206(14) 0.02206(10)
H1 H 0.5840 0.5875 -0.0119
C3 C 0.61032(11) 0.72355(13) 0.02522(10)
C4 C 0.55218(11) 0.77437(13) -0.02126(9)
H2 H 0.5170 0.7398 -0.0552
C5 C 0.54629(10) 0.87282(13) -0.01761(9)
C6 C 0.48797(10) 0.93073(12) -0.06802(9)
H3 H 0.4689 0.8882 -0.1094
C7 C 0.53559(10) 1.01296(12) -0.09665(9)
C8 C 0.53257(11) 1.03542(13) -0.16779(10)
H4 H 0.4962 1.0016 -0.2013
C9 C 0.58294(11) 1.10866(13) -0.19244(10)
C10 C 0.58330(13) 1.13227(15) -0.26588(11)
H5 H 0.5461 1.0999 -0.2995
C11 C 0.63478(15) 1.19978(16) -0.29137(12)
C12 C 0.69117(15) 1.24969(16) -0.23998(12)
C13 C 0.68958(13) 1.22790(15) -0.16841(12)
H6 H 0.7258 1.2614 -0.1346
C14 C 0.63697(12) 1.15822(13) -0.14232(10)
C15 C 0.63826(11) 1.13538(13) -0.06861(10)
H7 H 0.6738 1.1693 -0.0345
C16 C 0.58881(11) 1.06494(12) -0.04593(10)
C17 C 0.40954(10) 0.96605(12) -0.03163(9)
H8 H 0.3604 0.9374 -0.0589
C18 C 0.59919(11) 0.92518(12) 0.03301(9)
C19 C 0.65596(11) 0.87752(14) 0.07778(10)
H9 H 0.6913 0.9130 0.1110
C20 C 0.66262(11) 0.77555(13) 0.07510(10)
C21 C 0.72059(12) 0.72288(14) 0.12044(10)
H10 H 0.7555 0.7576 0.1545
C22 C 0.72888(13) 0.62357(15) 0.11762(10)
C23 C 0.62216(19) 0.3740(2) 0.11973(16)
H11 H 0.6210 0.3044 0.1106
H12 H 0.5666 0.3981 0.1195
H13 H 0.6520 0.3868 0.1665
C24 C 0.77549(17) 0.38254(19) 0.03894(17)
H14 H 0.7698 0.3131 0.0303
H15 H 0.8111 0.3935 0.0831
H16 H 0.7990 0.4129 -0.0014
C25 C 0.61161(16) 0.41239(16) -0.03902(13)
H17 H 0.6099 0.3429 -0.0483
H18 H 0.6362 0.4453 -0.0777
H19 H 0.5563 0.4365 -0.0367
C26 C 0.8355(2) 0.6631(2) 0.25697(17)
H20 H 0.8803 0.6392 0.2903
H21 H 0.7867 0.6693 0.2820
H22 H 0.8499 0.7262 0.2384
C27 C 0.90846(16) 0.5712(2) 0.13204(16)
H23 H 0.9541 0.5465 0.1641
H24 H 0.9213 0.6360 0.1157
H25 H 0.8986 0.5283 0.0906
C28 C 0.79891(18) 0.4588(2) 0.22531(15)
H26 H 0.8475 0.4413 0.2568
H27 H 0.7877 0.4087 0.1888
H28 H 0.7526 0.4645 0.2537
C29 C 0.7075(3) 1.1291(4) -0.4242(2)
H29 H 0.7046 1.1315 -0.4766
H30 H 0.6999 1.0625 -0.4087
H31 H 0.7607 1.1525 -0.4038
C30 C 0.6326(4) 1.3290(3) -0.4316(2)
H32 H 0.6279 1.3245 -0.4840
H33 H 0.6847 1.3585 -0.4146
H34 H 0.5883 1.3686 -0.4168
C31 C 0.5276(2) 1.1551(3) -0.43044(15)
H35 H 0.5234 1.1585 -0.4828
H36 H 0.4834 1.1921 -0.4127
H37 H 0.5240 1.0877 -0.4155
C32 C 0.7141(4) 1.4635(3) -0.2770(3)
H38 H 0.7537 1.5132 -0.2863
H39 H 0.6862 1.4822 -0.2354
H40 H 0.6743 1.4567 -0.3190
C33 C 0.8381(3) 1.3667(3) -0.1762(2)
H41 H 0.8685 1.3073 -0.1640
H42 H 0.8071 1.3848 -0.1364
H43 H 0.8760 1.4186 -0.1850
C34 C 0.8324(3) 1.3132(4) -0.3286(3)
H44 H 0.8594 1.2517 -0.3162
H45 H 0.8734 1.3634 -0.3324
H46 H 0.7992 1.3067 -0.3746
Si1B Si 0.32665(4) 1.56370(4) -0.04831(3)
Si2B Si 0.18413(4) 1.42365(4) -0.18091(3)
Si3B Si 0.37308(5) 0.79363(6) 0.39284(4)
Si4B Si 0.23281(6) 0.65364(7) 0.25848(4)
C1B C 0.32404(12) 1.42956(13) -0.06553(10)
C2B C 0.38085(12) 1.37794(14) -0.02206(10)
H1B H 0.4160 1.4125 0.0119
C3B C 0.38968(11) 1.27645(13) -0.02522(10)
C4B C 0.44782(11) 1.22563(13) 0.02126(9)
H2B H 0.4830 1.2602 0.0552
C5B C 0.45371(10) 1.12718(13) 0.01761(9)
C6B C 0.51203(10) 1.06927(12) 0.06802(9)
H3B H 0.5311 1.1118 0.1094
C7B C 0.46441(10) 0.98704(12) 0.09665(9)
C8B C 0.46743(11) 0.96458(13) 0.16779(10)
H4B H 0.5038 0.9984 0.2013
C9B C 0.41706(11) 0.89134(13) 0.19244(10)
C10B C 0.41670(13) 0.86773(15) 0.26588(11)
H5B H 0.4539 0.9001 0.2995
C11B C 0.36522(15) 0.80022(16) 0.29137(12)
C12B C 0.30883(15) 0.75031(16) 0.23998(12)
C13B C 0.31042(13) 0.77210(15) 0.16841(12)
H6B H 0.2742 0.7386 0.1346
C14B C 0.36303(12) 0.84178(13) 0.14232(10)
C15B C 0.36174(11) 0.86462(13) 0.06861(10)
H7B H 0.3262 0.8307 0.0345
C16B C 0.41119(11) 0.93506(12) 0.04593(10)
C17B C 0.59046(10) 1.03395(12) 0.03163(9)
H8B H 0.6396 1.0626 0.0589
C18B C 0.40081(11) 1.07482(12) -0.03301(9)
C19B C 0.34404(11) 1.12248(14) -0.07778(10)
H9B H 0.3087 1.0870 -0.1110
C20B C 0.33738(11) 1.22445(13) -0.07510(10)
C21B C 0.27941(12) 1.27712(14) -0.12044(10)
H10B H 0.2445 1.2424 -0.1545
C22B C 0.27112(13) 1.37643(15) -0.11762(10)
C23B C 0.37784(19) 1.6260(2) -0.11973(16)
H11B H 0.3790 1.6956 -0.1106
H12B H 0.4334 1.6019 -0.1195
H13B H 0.3480 1.6132 -0.1665
C24B C 0.22451(17) 1.61746(19) -0.03894(17)
H14B H 0.2302 1.6869 -0.0303
H15B H 0.1889 1.6065 -0.0831
H16B H 0.2010 1.5871 0.0014
C25B C 0.38839(16) 1.58761(16) 0.03902(13)
H17B H 0.3901 1.6571 0.0483
H18B H 0.3638 1.5547 0.0777
H19B H 0.4437 1.5635 0.0367
C26B C 0.1645(2) 1.3369(2) -0.25697(17)
H20B H 0.1197 1.3608 -0.2903
H21B H 0.2133 1.3307 -0.2820
H22B H 0.1501 1.2738 -0.2384
C27B C 0.09154(16) 1.4288(2) -0.13204(16)
H23B H 0.0459 1.4535 -0.1641
H24B H 0.0787 1.3640 -0.1157
H25B H 0.1014 1.4717 -0.0906
C28B C 0.20109(18) 1.5412(2) -0.22531(15)
H26B H 0.1525 1.5587 -0.2568
H27B H 0.2123 1.5913 -0.1888
H28B H 0.2474 1.5355 -0.2537
C29B C 0.2925(3) 0.8709(4) 0.4242(2)
H29B H 0.2954 0.8685 0.4766
H30B H 0.3001 0.9375 0.4087
H31B H 0.2393 0.8475 0.4038
C30B C 0.3674(4) 0.6710(3) 0.4316(2)
H32B H 0.3721 0.6755 0.4840
H33B H 0.3153 0.6415 0.4146
H34B H 0.4117 0.6314 0.4168
C31B C 0.4724(2) 0.8449(3) 0.43044(15)
H35B H 0.4766 0.8415 0.4828
H36B H 0.5166 0.8079 0.4127
H37B H 0.4760 0.9123 0.4155
C32B C 0.2859(4) 0.5365(3) 0.2770(3)
H38B H 0.2463 0.4868 0.2863
H39B H 0.3138 0.5178 0.2354
H40B H 0.3257 0.5433 0.3190
C33B C 0.1619(3) 0.6333(3) 0.1762(2)
H41B H 0.1315 0.6927 0.1640
H42B H 0.1929 0.6152 0.1364
H43B H 0.1240 0.5814 0.1850
C34B C 0.1676(3) 0.6868(4) 0.3286(3)
H44B H 0.1406 0.7483 0.3162
H45B H 0.1266 0.6366 0.3324
H46B H 0.2008 0.6933 0.3746
C35 C 0.9745(19) 1.130(2) 0.2852(9)
H47 H 0.9755 1.1727 0.3267
H48 H 1.0285 1.1273 0.2683
H49 H 0.9586 1.0648 0.2989
C36 C 0.9147(9) 1.1668(11) 0.2265(5)
H50 H 0.9295 1.2330 0.2130
H51 H 0.8597 1.1684 0.2427
C37 C 0.9165(10) 1.0997(9) 0.1634(6)
H52 H 0.9660 1.1114 0.1391
H53 H 0.9170 1.0319 0.1797
C38 C 0.8430(9) 1.1182(13) 0.1129(7)
H54 H 0.8433 1.1856 0.0956
H55 H 0.7936 1.1084 0.1376
C39 C 0.8430(8) 1.0501(13) 0.0509(5)
H56 H 0.7871 1.0417 0.0276
H57 H 0.8639 0.9863 0.0676
C40 C 0.8963(13) 1.092(2) -0.0011(11)
H58 H 0.8972 1.0493 -0.0425
H59 H 0.9515 1.0999 0.0223
H60 H 0.8752 1.1555 -0.0172
C41? C 0.968(2) 1.159(2) 0.2952(10)
H61? H 0.9978 1.1367 0.3397
H62? H 0.9164 1.1885 0.3061
H63? H 0.9999 1.2067 0.2721
C42? C 0.9453(10) 1.0535(15) 0.2332(5)
H64? H 0.9962 1.0243 0.2198
H65? H 0.9137 1.0036 0.2560
C43? C 0.9010(15) 1.0920(16) 0.1744(9)
H66? H 0.9326 1.1452 0.1557
H67? H 0.8508 1.1203 0.1900
C44? C 0.8777(12) 1.0235(9) 0.1145(6)
H68? H 0.8420 0.9729 0.1313
H69? H 0.9271 0.9918 0.1002
C45? C 0.8346(6) 1.0732(14) 0.0505(5)
H70? H 0.8096 1.1309 0.0703
H71? H 0.7890 1.0298 0.0343
C46? C 0.8678(14) 1.109(2) -0.0196(15)
H72? H 0.8238 1.1387 -0.0507
H73? H 0.8897 1.0539 -0.0444
H74? H 0.9109 1.1562 -0.0078
loop_
_geom_bond_atom_site_label_1
_geom_bond_atom_site_label_2
_geom_bond_site_symmetry_1
_geom_bond_site_symmetry_2
Si1 C1 1_555 1_555
Si2 C22 1_555 1_555
Si3 C11 1_555 1_555
Si4 C12 1_555 1_555
C1 C2 1_555 1_555
C2 H1 1_555 1_555
C3 C2 1_555 1_555
C4 C3 1_555 1_555
H2 C4 1_555 1_555
C5 C4 1_555 1_555
C6 C5 1_555 1_555
H3 C6 1_555 1_555
C7 C6 1_555 1_555
C8 C7 1_555 1_555
H4 C8 1_555 1_555
C9 C8 1_555 1_555
C10 C9 1_555 1_555
H5 C10 1_555 1_555
C11 C10 1_555 1_555
C12 C11 1_555 1_555
C13 C12 1_555 1_555
H6 C13 1_555 1_555
C14 C9 1_555 1_555
C15 C14 1_555 1_555
H7 C15 1_555 1_555
C16 C7 1_555 1_555
C17 C6 1_555 1_555
H8 C17 1_555 1_555
C18 C5 1_555 1_555
C19 C18 1_555 1_555
H9 C19 1_555 1_555
C20 C3 1_555 1_555
C21 C20 1_555 1_555
H10 C21 1_555 1_555
C22 C1 1_555 1_555
C23 Si1 1_555 1_555
H11 C23 1_555 1_555
H12 C23 1_555 1_555
H13 C23 1_555 1_555
C24 Si1 1_555 1_555
H14 C24 1_555 1_555
H15 C24 1_555 1_555
H16 C24 1_555 1_555
C25 Si1 1_555 1_555
H17 C25 1_555 1_555
H18 C25 1_555 1_555
H19 C25 1_555 1_555
C26 Si2 1_555 1_555
H20 C26 1_555 1_555
H21 C26 1_555 1_555
H22 C26 1_555 1_555
C27 Si2 1_555 1_555
H23 C27 1_555 1_555
H24 C27 1_555 1_555
H25 C27 1_555 1_555
C28 Si2 1_555 1_555
H26 C28 1_555 1_555
H27 C28 1_555 1_555
H28 C28 1_555 1_555
C29 Si3 1_555 1_555
H29 C29 1_555 1_555
H30 C29 1_555 1_555
H31 C29 1_555 1_555
C30 Si3 1_555 1_555
H32 C30 1_555 1_555
H33 C30 1_555 1_555
H34 C30 1_555 1_555
C31 Si3 1_555 1_555
H35 C31 1_555 1_555
H36 C31 1_555 1_555
H37 C31 1_555 1_555
C32 Si4 1_555 1_555
H38 C32 1_555 1_555
H39 C32 1_555 1_555
H40 C32 1_555 1_555
C33 Si4 1_555 1_555
H41 C33 1_555 1_555
H42 C33 1_555 1_555
H43 C33 1_555 1_555
C34 Si4 1_555 1_555
H44 C34 1_555 1_555
H45 C34 1_555 1_555
H46 C34 1_555 1_555
C35 H47 1_555 1_555
H48 C35 1_555 1_555
H49 C35 1_555 1_555
C36 C35 1_555 1_555
H50 C36 1_555 1_555
H51 C36 1_555 1_555
C37 C36 1_555 1_555
H52 C37 1_555 1_555
H53 C37 1_555 1_555
C38 C37 1_555 1_555
H54 C38 1_555 1_555
H55 C38 1_555 1_555
C39 C38 1_555 1_555
H56 C39 1_555 1_555
H57 C39 1_555 1_555
C40 C39 1_555 1_555
H58 C40 1_555 1_555
H59 C40 1_555 1_555
H60 C40 1_555 1_555
Si1B C1B 1_555 1_555
Si2B C22B 1_555 1_555
Si3B C11B 1_555 1_555
Si4B C12B 1_555 1_555
C1B C2B 1_555 1_555
C2B H1B 1_555 1_555
C3B C2B 1_555 1_555
C4B C3B 1_555 1_555
H2B C4B 1_555 1_555
C5B C4B 1_555 1_555
C6B C5B 1_555 1_555
H3B C6B 1_555 1_555
C7B C6B 1_555 1_555
C8B C7B 1_555 1_555
H4B C8B 1_555 1_555
C9B C8B 1_555 1_555
C10B C9B 1_555 1_555
H5B C10B 1_555 1_555
C11B C10B 1_555 1_555
C12B C11B 1_555 1_555
C13B C12B 1_555 1_555
H6B C13B 1_555 1_555
C14B C9B 1_555 1_555
C15B C14B 1_555 1_555
H7B C15B 1_555 1_555
C16B C17 1_555 1_555
C17B C16 1_555 1_555
H8B C17B 1_555 1_555
C18B C17 1_555 1_555
C19B C18B 1_555 1_555
H9B C19B 1_555 1_555
C20B C3B 1_555 1_555
C21B C20B 1_555 1_555
H10B C21B 1_555 1_555
C22B C1B 1_555 1_555
C23B Si1B 1_555 1_555
H11B C23B 1_555 1_555
H12B C23B 1_555 1_555
H13B C23B 1_555 1_555
C24B Si1B 1_555 1_555
H14B C24B 1_555 1_555
H15B C24B 1_555 1_555
H16B C24B 1_555 1_555
C25B Si1B 1_555 1_555
H17B C25B 1_555 1_555
H18B C25B 1_555 1_555
H19B C25B 1_555 1_555
C26B Si2B 1_555 1_555
H20B C26B 1_555 1_555
H21B C26B 1_555 1_555
H22B C26B 1_555 1_555
C27B Si2B 1_555 1_555
H23B C27B 1_555 1_555
H24B C27B 1_555 1_555
H25B C27B 1_555 1_555
C28B Si2B 1_555 1_555
H26B C28B 1_555 1_555
H27B C28B 1_555 1_555
H28B C28B 1_555 1_555
C29B Si3B 1_555 1_555
H29B C29B 1_555 1_555
H30B C29B 1_555 1_555
H31B C29B 1_555 1_555
C30B Si3B 1_555 1_555
H32B C30B 1_555 1_555
H33B C30B 1_555 1_555
H34B C30B 1_555 1_555
C31B Si3B 1_555 1_555
H35B C31B 1_555 1_555
H36B C31B 1_555 1_555
H37B C31B 1_555 1_555
C32B Si4B 1_555 1_555
H38B C32B 1_555 1_555
H39B C32B 1_555 1_555
H40B C32B 1_555 1_555
C33B Si4B 1_555 1_555
H41B C33B 1_555 1_555
H42B C33B 1_555 1_555
H43B C33B 1_555 1_555
C34B Si4B 1_555 1_555
H44B C34B 1_555 1_555
H45B C34B 1_555 1_555
H46B C34B 1_555 1_555
C13 C14 1_555 1_555
C15 C16 1_555 1_555
C18 C17B 1_555 1_555
C19 C20 1_555 1_555
C21 C22 1_555 1_555
C5B C18B 1_555 1_555
C6B C17B 1_555 1_555
C7B C16B 1_555 1_555
C13B C14B 1_555 1_555
C15B C16B 1_555 1_555
C19B C20B 1_555 1_555
C21B C22B 1_555 1_555

#END
