
#######################################################################
#
#                 Cambridge Crystallographic Data Centre
#                                CCDC 
#
#######################################################################
#
# If this CIF has been generated from an entry in the Cambridge 
# Structural Database, then it will include bibliographic, chemical, 
# crystal, experimental, refinement or atomic coordinate data resulting 
# from the CCDC's data processing and validation procedures.
#
#######################################################################

data_FEPRUQ
_chemical_formula_moiety         'C22 H22 Cl1 N1 O2 S1'
_chemical_name_systematic        
3-[2-(3-chlorophenyl)ethenyl]-1-[(4-methylphenyl)sulfonyl]-4-(prop-1-en-2-yl)-2,5-dihydro-1H-pyrrole
_symmetry_cell_setting           orthorhombic
_symmetry_space_group_name_H-M   'P c a 21'
_symmetry_Int_Tables_number      29
_space_group_name_Hall           'P 2c -2ac'
loop_
_symmetry_equiv_pos_site_id
_symmetry_equiv_pos_as_xyz
1 x,y,z
2 -x,-y,1/2+z
3 1/2+x,-y,z
4 1/2-x,y,1/2+z
_cell_length_a                   16.255(3)
_cell_length_b                   6.2794(13)
_cell_length_c                   19.637(4)
_cell_angle_alpha                90
_cell_angle_beta                 90
_cell_angle_gamma                90
_cell_volume                     2004.38
_exptl_crystal_colour            colorless
_exptl_crystal_description       block
_cell_formula_units_Z            4
loop_
_atom_site_label
_atom_site_type_symbol
_atom_site_fract_x
_atom_site_fract_y
_atom_site_fract_z
C1 C 0.2522(2) 1.0502(5) 0.26565(17)
H1 H 0.2514 1.0289 0.3125
C2 C 0.2926(2) 1.2219(6) 0.23934(19)
C3 C 0.2959(3) 1.2599(7) 0.1706(2)
H2 H 0.3234 1.3779 0.1533
C4 C 0.2566(3) 1.1159(7) 0.1276(2)
H3 H 0.2576 1.1381 0.0808
C5 C 0.2167(3) 0.9439(6) 0.1531(2)
H4 H 0.1919 0.8486 0.1232
C6 C 0.2121(2) 0.9061(5) 0.22287(17)
C7 C 0.16682(19) 0.7284(5) 0.25274(16)
H5 H 0.1685 0.7177 0.3000
C8 C 0.12367(19) 0.5805(5) 0.22052(17)
H6 H 0.1206 0.5893 0.1733
C9 C 0.08110(19) 0.4070(5) 0.25330(16)
C10 C 0.03141(18) 0.2586(5) 0.22623(15)
C11 C 0.0042(2) 0.1004(5) 0.27855(16)
H7 H -0.0541 0.1145 0.2883
H8 H 0.0155 -0.0443 0.2640
C12 C 0.0906(2) 0.3728(5) 0.32869(15)
H9 H 0.1480 0.3754 0.3421
H10 H 0.0606 0.4794 0.3545
C13 C 0.0023(2) 0.2367(8) 0.15572(18)
C14 C -0.0083(5) 0.4055(10) 0.1155(3)
H11 H -0.0263 0.3873 0.0710
H12 H 0.0024 0.5415 0.1321
C15 C -0.0145(6) 0.0319(12) 0.1290(3)
H13 H -0.0289 0.0439 0.0818
H14 H -0.0594 -0.0309 0.1536
H15 H 0.0334 -0.0563 0.1336
C16 C -0.06141(18) 0.1595(5) 0.43768(14)
C17 C -0.12946(19) 0.0322(5) 0.43206(16)
H16 H -0.1242 -0.1052 0.4149
C18 C -0.2050(2) 0.1053(6) 0.45144(17)
H17 H -0.2505 0.0164 0.4477
C19 C -0.2150(2) 0.3096(6) 0.47657(15)
C20 C -0.1458(3) 0.4346(5) 0.48239(19)
H18 H -0.1508 0.5714 0.5001
C21 C -0.0691(2) 0.3622(5) 0.46264(17)
H19 H -0.0233 0.4501 0.4663
C22 C -0.2983(2) 0.3891(7) 0.4984(2)
H20 H -0.3043 0.5358 0.4855
H21 H -0.3035 0.3761 0.5469
H22 H -0.3404 0.3060 0.4766
Cl1 Cl 0.34202(7) 1.39971(16) 0.29450(6)
N1 N 0.05459(15) 0.1599(4) 0.33784(13)
O1 O 0.09648(14) 0.1495(4) 0.45647(12)
O2 O 0.02789(14) -0.1616(3) 0.40486(14)
S1 S 0.03597(5) 0.06384(11) 0.41220(4)
loop_
_geom_bond_atom_site_label_1
_geom_bond_atom_site_label_2
_geom_bond_site_symmetry_1
_geom_bond_site_symmetry_2
C1 H1 1_555 1_555
C2 C1 1_555 1_555
C3 C2 1_555 1_555
H2 C3 1_555 1_555
C4 C3 1_555 1_555
H3 C4 1_555 1_555
C5 C4 1_555 1_555
H4 C5 1_555 1_555
C6 C1 1_555 1_555
C7 C6 1_555 1_555
H5 C7 1_555 1_555
C8 C7 1_555 1_555
H6 C8 1_555 1_555
C9 C8 1_555 1_555
C10 C9 1_555 1_555
C11 C10 1_555 1_555
H7 C11 1_555 1_555
H8 C11 1_555 1_555
C12 C9 1_555 1_555
H9 C12 1_555 1_555
H10 C12 1_555 1_555
C13 C10 1_555 1_555
C14 C13 1_555 1_555
H11 C14 1_555 1_555
H12 C14 1_555 1_555
C15 C13 1_555 1_555
H13 C15 1_555 1_555
H14 C15 1_555 1_555
H15 C15 1_555 1_555
C16 C17 1_555 1_555
C17 H16 1_555 1_555
C18 C17 1_555 1_555
H17 C18 1_555 1_555
C19 C18 1_555 1_555
C20 C19 1_555 1_555
H18 C20 1_555 1_555
C21 C16 1_555 1_555
H19 C21 1_555 1_555
C22 C19 1_555 1_555
H20 C22 1_555 1_555
H21 C22 1_555 1_555
H22 C22 1_555 1_555
Cl1 C2 1_555 1_555
N1 C11 1_555 1_555
O1 S1 1_555 1_555
O2 S1 1_555 1_555
S1 C16 1_555 1_555
C5 C6 1_555 1_555
C12 N1 1_555 1_555
C20 C21 1_555 1_555
N1 S1 1_555 1_555

#END
