
#######################################################################
#
#                 Cambridge Crystallographic Data Centre
#                                CCDC 
#
#######################################################################
#
# If this CIF has been generated from an entry in the Cambridge 
# Structural Database, then it will include bibliographic, chemical, 
# crystal, experimental, refinement or atomic coordinate data resulting 
# from the CCDC's data processing and validation procedures.
#
#######################################################################

data_FEPYEH
_chemical_formula_moiety         'C39 H51 N1 O5,2(H2 O1)'
_chemical_name_systematic        
'methyl 3-(benzyloxy)-2-cyano-1-hydroxy-12-oxooleana-2,9(11)-dien-28-oate dihydrate'
_symmetry_cell_setting           orthorhombic
_symmetry_space_group_name_H-M   'P 21 21 21'
_symmetry_Int_Tables_number      19
_space_group_name_Hall           'P 2ac 2ab'
loop_
_symmetry_equiv_pos_site_id
_symmetry_equiv_pos_as_xyz
1 x,y,z
2 1/2-x,-y,1/2+z
3 -x,1/2+y,1/2-z
4 1/2+x,1/2-y,-z
_cell_length_a                   10.0735(3)
_cell_length_b                   12.4583(4)
_cell_length_c                   28.6514(9)
_cell_angle_alpha                90
_cell_angle_beta                 90
_cell_angle_gamma                90
_cell_volume                     3595.71
_exptl_crystal_colour            colorless
_exptl_crystal_description       block
_cell_formula_units_Z            4
loop_
_atom_site_label
_atom_site_type_symbol
_atom_site_fract_x
_atom_site_fract_y
_atom_site_fract_z
O1 O 0.82714(14) 0.13805(11) 0.80419(4)
O2 O 0.50413(14) 0.32051(11) 0.71550(4)
H1 H 0.4700 0.3808 0.7102
O3 O 1.28372(15) 0.45356(12) 0.84133(5)
O4 O 0.38889(14) 0.39220(12) 0.56643(5)
O5 O 1.23251(15) 0.28044(12) 0.82968(5)
N1 N 0.2636(2) 0.16871(17) 0.63058(7)
C1 C 0.84309(19) 0.21813(15) 0.77969(6)
C2 C 0.4794(2) 0.37713(16) 0.60178(6)
C3 C 1.1991(2) 0.37040(17) 0.84063(6)
C4 C 0.55762(19) 0.27812(15) 0.67336(6)
H2 H 0.5638 0.1986 0.6774
C5 C 0.4628(2) 0.29839(16) 0.63323(6)
C6 C 1.0623(2) 0.40139(16) 0.85890(7)
C7 C 0.7730(2) 0.22878(15) 0.73498(6)
H3 H 0.7146 0.1725 0.7260
C8 C 0.5976(2) 0.45145(16) 0.60007(7)
C9 C 0.93422(19) 0.30820(15) 0.79453(6)
H4 H 1.0220 0.2897 0.7803
C10 C 0.69849(19) 0.31869(15) 0.66172(6)
C11 C 0.8937(2) 0.41503(15) 0.77070(7)
C12 C 0.7858(2) 0.31270(15) 0.70591(6)
C13 C 1.0149(2) 0.50799(16) 0.83778(7)
H5 H 0.9301 0.5289 0.8527
H6 H 1.0810 0.5645 0.8448
C14 C 0.8774(2) 0.50320(17) 0.68986(7)
H7 H 0.8178 0.5502 0.7082
H8 H 0.9648 0.5392 0.6877
C15 C 0.8945(2) 0.39524(15) 0.71601(7)
C16 C 0.9612(2) 0.31126(16) 0.84793(6)
H9 H 1.0051 0.2418 0.8562
C17 C 0.6852(2) 0.43626(16) 0.64433(7)
H10 H 0.6374 0.4751 0.6698
C18 C 0.3502(2) 0.22851(17) 0.63137(6)
C19 C 1.0265(2) 0.34655(17) 0.69761(7)
H11 H 1.0256 0.3461 0.6634
H12 H 1.0359 0.2729 0.7092
H13 H 1.1013 0.3899 0.7087
C20 C 0.9947(2) 0.50178(16) 0.78487(7)
H14 H 1.0809 0.4862 0.7697
H15 H 0.9636 0.5724 0.7734
C21 C 1.0858(2) 0.41351(18) 0.91241(7)
H16 H 1.1408 0.3526 0.9233
H17 H 1.1364 0.4803 0.9181
C22 C 0.7562(2) 0.24068(16) 0.62522(7)
H18 H 0.6978 0.2385 0.5979
H19 H 0.7629 0.1687 0.6388
H20 H 0.8446 0.2652 0.6158
C23 C 0.1619(2) 0.40319(19) 0.54246(7)
C24 C 0.8208(2) 0.49018(17) 0.64094(7)
H21 H 0.8813 0.4457 0.6217
H22 H 0.8119 0.5613 0.6259
C25 C 0.7527(2) 0.45113(16) 0.78550(7)
H23 H 0.7139 0.4959 0.7609
H24 H 0.7582 0.4925 0.8145
H25 H 0.6967 0.3878 0.7905
C26 C 0.2584(2) 0.43040(18) 0.58040(7)
H26 H 0.2606 0.5090 0.5854
H27 H 0.2312 0.3957 0.6100
C27 C 1.4201(2) 0.43009(18) 0.82955(8)
H28 H 1.4255 0.4083 0.7967
H29 H 1.4527 0.3718 0.8494
H30 H 1.4745 0.4943 0.8345
C28 C 0.8367(2) 0.32014(18) 0.87878(7)
H31 H 0.7770 0.2591 0.8718
H32 H 0.7889 0.3870 0.8707
C29 C 0.8673(2) 0.3206(2) 0.93145(8)
C30 C 0.6726(2) 0.43435(19) 0.55341(7)
H33 H 0.6107 0.4428 0.5273
H34 H 0.7106 0.3620 0.5528
H35 H 0.7439 0.4875 0.5507
C31 C 0.9587(2) 0.4169(2) 0.94098(8)
H36 H 0.9101 0.4839 0.9337
H37 H 0.9817 0.4182 0.9746
C32 C 0.5440(2) 0.56799(17) 0.59974(8)
H38 H 0.6186 0.6185 0.5999
H39 H 0.4889 0.5798 0.6275
H40 H 0.4904 0.5794 0.5716
C33 C 0.1572(3) 0.4648(2) 0.50211(8)
H41 H 0.2171 0.5227 0.4975
C34 C 0.0767(3) 0.3161(2) 0.54817(10)
H42 H 0.0829 0.2730 0.5754
C35 C 0.9327(3) 0.2154(2) 0.94685(8)
H43 H 0.8739 0.1551 0.9394
H44 H 0.9488 0.2174 0.9806
H45 H 1.0173 0.2064 0.9304
C36 C -0.0250(3) 0.3536(3) 0.47589(11)
H46 H -0.0916 0.3383 0.4534
C37 C -0.0162(3) 0.2921(3) 0.51466(11)
H47 H -0.0739 0.2325 0.5187
C38 C 0.7369(3) 0.3352(3) 0.95810(9)
H48 H 0.6951 0.4028 0.9486
H49 H 0.7550 0.3369 0.9917
H50 H 0.6772 0.2753 0.9510
C39 C 0.0615(3) 0.4390(3) 0.46830(10)
H51 H 0.0557 0.4798 0.4403
O6 O 0.39237(16) 0.51026(12) 0.71261(6)
H52 H 0.4519 0.5577 0.7167
H53 H 0.3185 0.5407 0.7071
O7 O 0.57498(18) 0.66672(12) 0.72263(6)
H54 H 0.6331 0.6933 0.7045
H55 H 0.5539 0.7128 0.7432
loop_
_geom_bond_atom_site_label_1
_geom_bond_atom_site_label_2
_geom_bond_site_symmetry_1
_geom_bond_site_symmetry_2
O1 C1 1_555 1_555
O2 H1 1_555 1_555
O3 C3 1_555 1_555
O4 C2 1_555 1_555
O5 C3 1_555 1_555
N1 C18 1_555 1_555
C1 C7 1_555 1_555
C2 C5 1_555 1_555
C3 C6 1_555 1_555
C4 O2 1_555 1_555
H2 C4 1_555 1_555
C5 C4 1_555 1_555
C6 C13 1_555 1_555
C7 H3 1_555 1_555
C8 C2 1_555 1_555
C9 C1 1_555 1_555
H4 C9 1_555 1_555
C10 C4 1_555 1_555
C11 C9 1_555 1_555
C12 C7 1_555 1_555
C13 H5 1_555 1_555
H6 C13 1_555 1_555
C14 H7 1_555 1_555
H8 C14 1_555 1_555
C15 C11 1_555 1_555
C16 C6 1_555 1_555
H9 C16 1_555 1_555
C17 C8 1_555 1_555
H10 C17 1_555 1_555
C18 C5 1_555 1_555
C19 C15 1_555 1_555
H11 C19 1_555 1_555
H12 C19 1_555 1_555
H13 C19 1_555 1_555
C20 C11 1_555 1_555
H14 C20 1_555 1_555
H15 C20 1_555 1_555
C21 C6 1_555 1_555
H16 C21 1_555 1_555
H17 C21 1_555 1_555
C22 C10 1_555 1_555
H18 C22 1_555 1_555
H19 C22 1_555 1_555
H20 C22 1_555 1_555
C23 C26 1_555 1_555
C24 C14 1_555 1_555
H21 C24 1_555 1_555
H22 C24 1_555 1_555
C25 C11 1_555 1_555
H23 C25 1_555 1_555
H24 C25 1_555 1_555
H25 C25 1_555 1_555
C26 O4 1_555 1_555
H26 C26 1_555 1_555
H27 C26 1_555 1_555
C27 O3 1_555 1_555
H28 C27 1_555 1_555
H29 C27 1_555 1_555
H30 C27 1_555 1_555
C28 C16 1_555 1_555
H31 C28 1_555 1_555
H32 C28 1_555 1_555
C29 C28 1_555 1_555
C30 C8 1_555 1_555
H33 C30 1_555 1_555
H34 C30 1_555 1_555
H35 C30 1_555 1_555
C31 C21 1_555 1_555
H36 C31 1_555 1_555
H37 C31 1_555 1_555
C32 C8 1_555 1_555
H38 C32 1_555 1_555
H39 C32 1_555 1_555
H40 C32 1_555 1_555
C33 C23 1_555 1_555
H41 C33 1_555 1_555
C34 C23 1_555 1_555
H42 C34 1_555 1_555
C35 C29 1_555 1_555
H43 C35 1_555 1_555
H44 C35 1_555 1_555
H45 C35 1_555 1_555
C36 H46 1_555 1_555
C37 C34 1_555 1_555
H47 C37 1_555 1_555
C38 C29 1_555 1_555
H48 C38 1_555 1_555
H49 C38 1_555 1_555
H50 C38 1_555 1_555
C39 C33 1_555 1_555
H51 C39 1_555 1_555
O6 H52 1_555 1_555
H53 O6 1_555 1_555
O7 H54 1_555 1_555
H55 O7 1_555 1_555
C9 C16 1_555 1_555
C10 C12 1_555 1_555
C10 C17 1_555 1_555
C12 C15 1_555 1_555
C13 C20 1_555 1_555
C14 C15 1_555 1_555
C17 C24 1_555 1_555
C29 C31 1_555 1_555
C36 C37 1_555 1_555
C36 C39 1_555 1_555

#END
