
#######################################################################
#
#                 Cambridge Crystallographic Data Centre
#                                CCDC 
#
#######################################################################
#
# If this CIF has been generated from an entry in the Cambridge 
# Structural Database, then it will include bibliographic, chemical, 
# crystal, experimental, refinement or atomic coordinate data resulting 
# from the CCDC's data processing and validation procedures.
#
#######################################################################

data_FEPZUV
_chemical_formula_moiety         'C24 H20 As2'
_chemical_name_systematic        Tetraphenyldiarsine
_symmetry_cell_setting           monoclinic
_symmetry_space_group_name_H-M   'P 21/n'
_symmetry_Int_Tables_number      14
_space_group_name_Hall           '-P 2yn'
loop_
_symmetry_equiv_pos_site_id
_symmetry_equiv_pos_as_xyz
1 x,y,z
2 1/2-x,1/2+y,1/2-z
3 -x,-y,-z
4 1/2+x,1/2-y,1/2+z
_cell_length_a                   6.268(2)
_cell_length_b                   7.494(2)
_cell_length_c                   21.340(7)
_cell_angle_alpha                90
_cell_angle_beta                 91.027(3)
_cell_angle_gamma                90
_cell_volume                     1002.23
_cell_formula_units_Z            2
loop_
_atom_site_label
_atom_site_type_symbol
_atom_site_fract_x
_atom_site_fract_y
_atom_site_fract_z
As1 As -0.0397(1) -0.1604(1) 0.9973
C1 C 0.1156(12) -0.2062(11) 0.9200(4)
C2 C 0.0106(13) -0.3048(12) 0.8748(4)
C3 C 0.0994(15) -0.3318(14) 0.8163(4)
C4 C 0.2920(16) -0.2554(16) 0.8025(4)
C5 C 0.3990(14) -0.1541(14) 0.8474(5)
C6 C 0.3140(13) -0.1275(12) 0.9059(4)
C7 C 0.1653(12) -0.2297(11) 1.0626(4)
C8 C 0.3618(13) -0.3168(12) 1.0511(4)
C9 C 0.4905(14) -0.3738(13) 1.1001(4)
C10 C 0.4360(15) -0.3442(14) 1.1612(4)
C11 C 0.2456(15) -0.2565(13) 1.1735(4)
C12 C 0.1116(14) -0.2053(12) 1.1241(4)
As1B As 0.0397(1) 0.1604(1) 1.0027
C1B C -0.1156(12) 0.2062(11) 1.0800(4)
C7B C -0.1653(12) 0.2297(11) 0.9374(4)
C2B C -0.0106(13) 0.3048(12) 1.1252(4)
C6B C -0.3140(13) 0.1275(12) 1.0941(4)
C8B C -0.3618(13) 0.3168(12) 0.9489(4)
C12B C -0.1116(14) 0.2053(12) 0.8759(4)
C3B C -0.0994(15) 0.3318(14) 1.1837(4)
C5B C -0.3990(14) 0.1541(14) 1.1526(5)
C9B C -0.4905(14) 0.3738(13) 0.8999(4)
C11B C -0.2456(15) 0.2565(13) 0.8265(4)
C4B C -0.2920(16) 0.2554(16) 1.1975(4)
C10B C -0.4360(15) 0.3442(14) 0.8388(4)
loop_
_geom_bond_atom_site_label_1
_geom_bond_atom_site_label_2
_geom_bond_site_symmetry_1
_geom_bond_site_symmetry_2
As1 C1 1_555 1_555
C1 C2 1_555 1_555
C2 C3 1_555 1_555
C3 C4 1_555 1_555
C4 C5 1_555 1_555
C5 C6 1_555 1_555
C6 C1 1_555 1_555
C7 As1 1_555 1_555
C8 C7 1_555 1_555
C9 C8 1_555 1_555
C10 C9 1_555 1_555
C11 C10 1_555 1_555
C12 C7 1_555 1_555
As1B As1 1_555 1_555
C1B As1B 1_555 1_555
C7B As1B 1_555 1_555
C2B C1B 1_555 1_555
C6B C1B 1_555 1_555
C8B C7B 1_555 1_555
C12B C7B 1_555 1_555
C3B C2B 1_555 1_555
C5B C6B 1_555 1_555
C9B C8B 1_555 1_555
C11B C12B 1_555 1_555
C4B C3B 1_555 1_555
C10B C9B 1_555 1_555
C11 C12 1_555 1_555
C5B C4B 1_555 1_555
C11B C10B 1_555 1_555

#END
