
#######################################################################
#
#                 Cambridge Crystallographic Data Centre
#                                CCDC 
#
#######################################################################
#
# If this CIF has been generated from an entry in the Cambridge 
# Structural Database, then it will include bibliographic, chemical, 
# crystal, experimental, refinement or atomic coordinate data resulting 
# from the CCDC's data processing and validation procedures.
#
#######################################################################

data_FEQMAR
_chemical_formula_moiety         'C23 H19 N1 O5'
_chemical_name_systematic        
'Methyl 7a-methyl-2-(4-nitrophenyl)-7-phenyl-7,7a-dihydro-1-benzofuran-4-carboxylate'
_symmetry_cell_setting           triclinic
_symmetry_space_group_name_H-M   'P -1'
_symmetry_Int_Tables_number      2
_space_group_name_Hall           '-P 1'
loop_
_symmetry_equiv_pos_site_id
_symmetry_equiv_pos_as_xyz
1 x,y,z
2 -x,-y,-z
_cell_length_a                   8.7287(3)
_cell_length_b                   10.0945(4)
_cell_length_c                   11.9230(5)
_cell_angle_alpha                106.8600(10)
_cell_angle_beta                 94.5690(10)
_cell_angle_gamma                105.1710(10)
_cell_volume                     956.501
_exptl_crystal_colour            red
_exptl_crystal_description       block
_cell_formula_units_Z            2
loop_
_atom_site_label
_atom_site_type_symbol
_atom_site_fract_x
_atom_site_fract_y
_atom_site_fract_z
O1 O 0.38547(14) 0.27986(11) 0.61269(9)
O2 O 0.57212(13) 0.30905(11) 0.76482(10)
O3 O -0.11153(18) 0.88877(17) 0.24920(14)
O4 O -0.19622(16) 0.65977(17) 0.15526(12)
O5 O 0.40617(11) 0.79641(10) 0.65937(8)
N1 N -0.11170(17) 0.76450(18) 0.23662(13)
C1 C 0.26681(19) 0.88182(17) 0.87702(13)
H1 H 0.3051 0.9471 0.8371
C2 C 0.1192(2) 0.8715(2) 0.91267(15)
H2 H 0.0582 0.9284 0.8957
C3 C 0.0620(2) 0.7768(2) 0.97345(16)
H3 H -0.0371 0.7705 0.9986
C4 C 0.1520(2) 0.6922(2) 0.99655(17)
H4 H 0.1136 0.6282 1.0376
C5 C 0.29932(19) 0.70106(18) 0.95930(14)
H5 H 0.3585 0.6420 0.9747
C6 C 0.35981(16) 0.79668(14) 0.89944(11)
C7 C 0.52485(16) 0.81303(14) 0.86140(11)
H6 H 0.5843 0.9166 0.8889
C8 C 0.62165(16) 0.73653(16) 0.91700(12)
H7 H 0.6822 0.7852 0.9926
C9 C 0.62288(17) 0.60217(16) 0.86123(12)
H8 H 0.6867 0.5607 0.8978
C10 C 0.52619(16) 0.51775(14) 0.74356(12)
C11 C 0.46396(15) 0.59103(14) 0.68168(11)
C12 C 0.52176(16) 0.75453(14) 0.72688(11)
C13 C 0.31568(16) 0.67366(15) 0.57177(11)
C14 C 0.34495(16) 0.55148(15) 0.57947(11)
H9 H 0.2960 0.4581 0.5273
C15 C 0.20262(17) 0.69546(15) 0.48650(12)
C16 C 0.1912(2) 0.83345(18) 0.49936(14)
H10 H 0.2532 0.9114 0.5640
C17 C 0.0892(2) 0.85668(19) 0.41752(15)
H11 H 0.0833 0.9496 0.4255
C18 C -0.00368(17) 0.73933(18) 0.32383(13)
C19 C 0.00305(19) 0.60085(18) 0.30887(14)
H12 H -0.0614 0.5231 0.2451
C20 C 0.10719(19) 0.57958(17) 0.39029(13)
H13 H 0.1138 0.4866 0.3809
C21 C 0.48480(17) 0.35918(15) 0.69850(12)
C22 C 0.5378(2) 0.15436(17) 0.72932(17)
H14 H 0.6058 0.1295 0.7821
H15 H 0.5575 0.1190 0.6496
H16 H 0.4270 0.1110 0.7325
C23 C 0.68577(18) 0.81282(16) 0.69377(13)
H17 H 0.6798 0.7744 0.6093
H18 H 0.7651 0.7839 0.7334
H19 H 0.7155 0.9168 0.7178
loop_
_geom_bond_atom_site_label_1
_geom_bond_atom_site_label_2
_geom_bond_site_symmetry_1
_geom_bond_site_symmetry_2
O1 C21 1_555 1_555
O2 C21 1_555 1_555
O3 N1 1_555 1_555
O4 N1 1_555 1_555
O5 C12 1_555 1_555
N1 C18 1_555 1_555
C1 H1 1_555 1_555
C2 C1 1_555 1_555
H2 C2 1_555 1_555
C3 C2 1_555 1_555
H3 C3 1_555 1_555
C4 C3 1_555 1_555
H4 C4 1_555 1_555
C5 C4 1_555 1_555
H5 C5 1_555 1_555
C6 C1 1_555 1_555
C7 C6 1_555 1_555
H6 C7 1_555 1_555
C8 C7 1_555 1_555
H7 C8 1_555 1_555
C9 C8 1_555 1_555
H8 C9 1_555 1_555
C10 C9 1_555 1_555
C11 C10 1_555 1_555
C12 C7 1_555 1_555
C13 O5 1_555 1_555
C14 C11 1_555 1_555
H9 C14 1_555 1_555
C15 C13 1_555 1_555
C16 C15 1_555 1_555
H10 C16 1_555 1_555
C17 C16 1_555 1_555
H11 C17 1_555 1_555
C18 C17 1_555 1_555
C19 C18 1_555 1_555
H12 C19 1_555 1_555
C20 C15 1_555 1_555
H13 C20 1_555 1_555
C21 C10 1_555 1_555
C22 O2 1_555 1_555
H14 C22 1_555 1_555
H15 C22 1_555 1_555
H16 C22 1_555 1_555
C23 C12 1_555 1_555
H17 C23 1_555 1_555
H18 C23 1_555 1_555
H19 C23 1_555 1_555
C5 C6 1_555 1_555
C11 C12 1_555 1_555
C13 C14 1_555 1_555
C19 C20 1_555 1_555

#END
