
#######################################################################
#
#                 Cambridge Crystallographic Data Centre
#                                CCDC 
#
#######################################################################
#
# If this CIF has been generated from an entry in the Cambridge 
# Structural Database, then it will include bibliographic, chemical, 
# crystal, experimental, refinement or atomic coordinate data resulting 
# from the CCDC's data processing and validation procedures.
#
#######################################################################

data_FEQMEV
_chemical_formula_moiety         'C36 H33 N1 O5 S1'
_chemical_name_systematic        
'Ethyl (6-((4-methylphenyl)sulfonyl)-2,7,7a-triphenyl-5,6,7,7a-tetrahydrofuro[2,3-c]pyridin-4-yl)acetate'
_symmetry_cell_setting           triclinic
_symmetry_space_group_name_H-M   'P -1'
_symmetry_Int_Tables_number      2
_space_group_name_Hall           '-P 1'
loop_
_symmetry_equiv_pos_site_id
_symmetry_equiv_pos_as_xyz
1 x,y,z
2 -x,-y,-z
_cell_length_a                   9.7584(3)
_cell_length_b                   12.1796(4)
_cell_length_c                   13.9771(4)
_cell_angle_alpha                101.1180(10)
_cell_angle_beta                 99.3190(10)
_cell_angle_gamma                106.2350(10)
_cell_volume                     1523.42
_exptl_crystal_colour            colorless
_exptl_crystal_description       block
_cell_formula_units_Z            2
loop_
_atom_site_label
_atom_site_type_symbol
_atom_site_fract_x
_atom_site_fract_y
_atom_site_fract_z
S1 S 0.65448(7) 0.91728(6) 0.26659(5)
O1 O 0.7651(2) 0.8926(2) 0.21879(17)
O2 O 0.6891(2) 1.02221(16) 0.34465(15)
O3 O 0.3683(7) 0.2982(3) 0.1303(3)
O4 O 0.3692(3) 0.4645(2) 0.10102(19)
O5 O 0.3603(2) 0.72415(14) 0.49115(13)
N1 N 0.5895(2) 0.80610(17) 0.31339(15)
C1 C 0.5127(3) 0.9186(2) 0.1716(2)
C2 C 0.4898(3) 0.8542(3) 0.0748(2)
H1 H 0.5503 0.8100 0.0585
C3 C 0.3766(4) 0.8554(3) 0.0018(2)
H2 H 0.3609 0.8109 -0.0634
C4 C 0.2868(4) 0.9211(3) 0.0241(3)
C5 C 0.3141(4) 0.9871(3) 0.1206(3)
H3 H 0.2560 1.0338 0.1363
C6 C 0.4248(3) 0.9862(3) 0.1950(2)
H4 H 0.4402 1.0306 0.2601
C7 C 0.6824(3) 0.8190(2) 0.4959(2)
C8 C 0.8211(3) 0.8415(3) 0.4790(2)
H5 H 0.8352 0.8505 0.4163
C9 C 0.9402(3) 0.8512(3) 0.5522(2)
H6 H 1.0328 0.8678 0.5382
C10 C 0.9246(4) 0.8369(3) 0.6444(2)
H7 H 1.0054 0.8438 0.6934
C11 C 0.7869(4) 0.8119(3) 0.6637(2)
H8 H 0.7739 0.8002 0.7258
C12 C 0.6659(3) 0.8042(3) 0.5900(2)
H9 H 0.5736 0.7890 0.6043
C13 C 0.2256(3) 0.5797(2) 0.56453(19)
C14 C 0.1555(3) 0.4627(3) 0.5631(2)
H10 H 0.1630 0.4019 0.5147
C15 C 0.0754(3) 0.4366(3) 0.6324(3)
H11 H 0.0289 0.3581 0.6308
C16 C 0.0633(4) 0.5251(3) 0.7039(3)
H12 H 0.0081 0.5070 0.7505
C17 C 0.1332(4) 0.6408(3) 0.7067(3)
H13 H 0.1260 0.7009 0.7560
C18 C 0.2137(3) 0.6691(3) 0.6374(2)
H14 H 0.2598 0.7477 0.6396
C19 C 0.2901(3) 0.7592(2) 0.3298(2)
C20 C 0.2371(3) 0.7020(2) 0.2303(2)
H15 H 0.2778 0.6475 0.2007
C21 C 0.1242(3) 0.7248(3) 0.1746(2)
H16 H 0.0878 0.6847 0.1074
C22 C 0.0640(3) 0.8063(3) 0.2166(3)
H17 H -0.0138 0.8202 0.1785
C23 C 0.1197(3) 0.8670(3) 0.3153(3)
H18 H 0.0807 0.9232 0.3439
C24 C 0.2324(3) 0.8450(2) 0.3716(2)
H19 H 0.2709 0.8874 0.4381
C25 C 0.5922(3) 0.6893(2) 0.26166(19)
H20 H 0.6930 0.6896 0.2719
H21 H 0.5547 0.6761 0.1903
C26 C 0.5043(3) 0.5898(2) 0.29661(18)
C27 C 0.4209(3) 0.6086(2) 0.3617(2)
C28 C 0.4063(3) 0.7295(2) 0.3984(2)
C29 C 0.5557(3) 0.8235(2) 0.4139(2)
H22 H 0.5435 0.9015 0.4316
C30 C 0.3391(3) 0.5359(2) 0.4159(2)
H23 H 0.3129 0.4540 0.4027
C31 C 0.3072(3) 0.6060(2) 0.48873(19)
C32 C 0.1615(5) 0.9215(5) -0.0552(3)
H24 H 0.1582 0.8707 -0.1178
H25 H 0.1760 1.0005 -0.0625
H26 H 0.0708 0.8937 -0.0355
C33 C 0.5106(3) 0.4683(2) 0.2549(2)
H27 H 0.6093 0.4756 0.2466
H28 H 0.4921 0.4225 0.3038
C34 C 0.4061(4) 0.4017(3) 0.1578(2)
C35 C 0.2710(6) 0.4080(4) 0.0035(3)
H29 H 0.3144 0.3601 -0.0378
H30 H 0.1790 0.3571 0.0106
C36 C 0.2455(6) 0.4976(5) -0.0423(3)
H31 H 0.1795 0.4615 -0.1069
H32 H 0.3367 0.5467 -0.0502
H33 H 0.2030 0.5449 -0.0009
loop_
_geom_bond_atom_site_label_1
_geom_bond_atom_site_label_2
_geom_bond_site_symmetry_1
_geom_bond_site_symmetry_2
S1 O1 1_555 1_555
O2 S1 1_555 1_555
O3 C34 1_555 1_555
O4 C34 1_555 1_555
O5 C28 1_555 1_555
N1 S1 1_555 1_555
C1 S1 1_555 1_555
C2 C1 1_555 1_555
H1 C2 1_555 1_555
C3 C2 1_555 1_555
H2 C3 1_555 1_555
C4 C3 1_555 1_555
C5 C4 1_555 1_555
H3 C5 1_555 1_555
C6 C1 1_555 1_555
H4 C6 1_555 1_555
C7 C8 1_555 1_555
C8 H5 1_555 1_555
C9 C8 1_555 1_555
H6 C9 1_555 1_555
C10 C9 1_555 1_555
H7 C10 1_555 1_555
C11 C10 1_555 1_555
H8 C11 1_555 1_555
C12 C7 1_555 1_555
H9 C12 1_555 1_555
C13 C14 1_555 1_555
C14 H10 1_555 1_555
C15 C14 1_555 1_555
H11 C15 1_555 1_555
C16 C15 1_555 1_555
H12 C16 1_555 1_555
C17 C16 1_555 1_555
H13 C17 1_555 1_555
C18 C13 1_555 1_555
H14 C18 1_555 1_555
C19 C20 1_555 1_555
C20 H15 1_555 1_555
C21 C20 1_555 1_555
H16 C21 1_555 1_555
C22 C21 1_555 1_555
H17 C22 1_555 1_555
C23 C22 1_555 1_555
H18 C23 1_555 1_555
C24 C19 1_555 1_555
H19 C24 1_555 1_555
C25 N1 1_555 1_555
H20 C25 1_555 1_555
H21 C25 1_555 1_555
C26 C25 1_555 1_555
C27 C26 1_555 1_555
C28 C19 1_555 1_555
C29 N1 1_555 1_555
H22 C29 1_555 1_555
C30 C27 1_555 1_555
H23 C30 1_555 1_555
C31 O5 1_555 1_555
C32 C4 1_555 1_555
H24 C32 1_555 1_555
H25 C32 1_555 1_555
H26 C32 1_555 1_555
C33 C26 1_555 1_555
H27 C33 1_555 1_555
H28 C33 1_555 1_555
C34 C33 1_555 1_555
C35 O4 1_555 1_555
H29 C35 1_555 1_555
H30 C35 1_555 1_555
C36 C35 1_555 1_555
H31 C36 1_555 1_555
H32 C36 1_555 1_555
H33 C36 1_555 1_555
C5 C6 1_555 1_555
C7 C29 1_555 1_555
C11 C12 1_555 1_555
C13 C31 1_555 1_555
C17 C18 1_555 1_555
C23 C24 1_555 1_555
C27 C28 1_555 1_555
C28 C29 1_555 1_555
C30 C31 1_555 1_555

#END
