
#######################################################################
#
#                 Cambridge Crystallographic Data Centre
#                                CCDC 
#
#######################################################################
#
# If this CIF has been generated from an entry in the Cambridge 
# Structural Database, then it will include bibliographic, chemical, 
# crystal, experimental, refinement or atomic coordinate data resulting 
# from the CCDC's data processing and validation procedures.
#
#######################################################################

data_FEQQUO
_chemical_formula_moiety         'C36 H40 O8,C8 H18 N2 2+,2(Br1 1-),C2 H6 O1'
_chemical_name_systematic        
"4,6,10,12,16,18,22,24-Octahydroxy-2,8,14,20-tetraethylcalix(4)arene N,N'-dimethyl-1,4-diazabicyclo(2.2.2)octane dibromide ethanol solvate"
_symmetry_cell_setting           triclinic
_symmetry_space_group_name_H-M   'P -1'
_symmetry_Int_Tables_number      2
_space_group_name_Hall           '-P 1'
loop_
_symmetry_equiv_pos_site_id
_symmetry_equiv_pos_as_xyz
1 x,y,z
2 -x,-y,-z
_cell_length_a                   12.05440(10)
_cell_length_b                   12.8536(2)
_cell_length_c                   15.3163(2)
_cell_angle_alpha                85.953(1)
_cell_angle_beta                 84.491(1)
_cell_angle_gamma                69.520(1)
_cell_volume                     2211.14
_exptl_crystal_colour            colorless
_exptl_crystal_description       prisms
_cell_formula_units_Z            2
loop_
_atom_site_label
_atom_site_type_symbol
_atom_site_fract_x
_atom_site_fract_y
_atom_site_fract_z
C1 C 0.60152(17) 0.90210(16) 0.15227(13)
C2 C 0.57228(17) 0.82770(17) 0.10474(13)
H1 H 0.6279 0.7896 0.0593
C3 C 0.46658(17) 0.80602(17) 0.11993(13)
C4 C 0.38504(17) 0.86500(17) 0.18596(13)
O1 O 0.27911(12) 0.84641(13) 0.20133(10)
H2 H 0.241(2) 0.879(2) 0.2458(14)
C5 C 0.41122(18) 0.93845(17) 0.23575(13)
H3 H 0.3552 0.9770 0.2808
C6 C 0.51896(18) 0.95576(17) 0.21987(13)
O2 O 0.53766(14) 1.02690(13) 0.27497(10)
H4 H 0.6061(17) 1.026(2) 0.2665(18)
C7 C 0.44139(17) 0.71758(17) 0.07172(13)
H5 H 0.3545 0.7460 0.0630
C8 C 0.46650(17) 0.61044(17) 0.12855(13)
C9 C 0.58203(17) 0.53560(17) 0.13277(12)
H6 H 0.6443 0.5547 0.1010
C10 C 0.61215(17) 0.43461(17) 0.18055(12)
C11 C 0.52014(18) 0.41128(17) 0.23092(13)
O3 O 0.54003(13) 0.31646(13) 0.28482(10)
H7 H 0.6077(17) 0.297(2) 0.3018(17)
C12 C 0.40349(18) 0.48284(18) 0.22777(13)
H8 H 0.3416 0.4644 0.2607
C13 C 0.37639(17) 0.58110(18) 0.17702(13)
O4 O 0.25857(12) 0.64593(13) 0.17654(10)
H9 H 0.252(2) 0.7129(15) 0.1801(18)
C14 C 0.73932(17) 0.35271(17) 0.17352(12)
H10 H 0.7364 0.2792 0.1974
C15 C 0.81857(16) 0.38480(16) 0.23036(13)
C16 C 0.88533(16) 0.44958(16) 0.19780(13)
H11 H 0.8801 0.4750 0.1380
C17 C 0.95997(16) 0.47984(17) 0.24755(13)
C18 C 0.96553(17) 0.44117(17) 0.33506(13)
O5 O 1.03557(13) 0.46385(13) 0.39202(10)
H12 H 1.050(2) 0.5213(17) 0.3791(17)
C19 C 0.89943(17) 0.37670(17) 0.37076(13)
H13 H 0.9047 0.3511 0.4305
C20 C 0.82560(17) 0.34977(17) 0.31878(13)
O6 O 0.75864(14) 0.28659(13) 0.35217(10)
H14 H 0.755(2) 0.286(2) 0.4061(11)
C21 C 1.03161(17) 0.55153(17) 0.20806(13)
H15 H 1.1052 0.5289 0.2403
C22 C 0.81491(17) 0.85440(17) 0.18741(13)
C23 C 0.96584(17) 0.67430(17) 0.22475(13)
C24 C 0.87682(17) 0.74234(17) 0.17284(13)
H16 H 0.8575 0.7104 0.1250
C25 C 0.84417(18) 0.89956(17) 0.25875(14)
O7 O 0.78121(14) 1.00978(13) 0.27494(11)
H17 H 0.782(3) 1.015(2) 0.3286(12)
C26 C 0.93251(18) 0.83525(18) 0.31190(14)
H18 H 0.9523 0.8673 0.3595
C27 C 0.99138(17) 0.72412(18) 0.29492(14)
O8 O 1.07153(13) 0.65581(13) 0.35163(10)
H19 H 1.121(2) 0.681(2) 0.3664(18)
C28 C 0.71680(17) 0.92592(17) 0.13029(13)
H20 H 0.6993 1.0045 0.1462
C29 C 0.50784(18) 0.69407(17) -0.01943(13)
H21 H 0.5941 0.6720 -0.0132
H22 H 0.4937 0.6305 -0.0431
C30 C 0.4713(2) 0.79243(19) -0.08506(14)
H23 H 0.3872 0.8117 -0.0949
H24 H 0.5195 0.7726 -0.1407
H25 H 0.4838 0.8563 -0.0618
C31 C 0.78741(18) 0.33741(18) 0.07658(13)
H26 H 0.7287 0.3217 0.0436
H27 H 0.7952 0.4081 0.0520
C32 C 0.9066(2) 0.2448(2) 0.06219(15)
H28 H 0.9679 0.2643 0.0878
H29 H 0.9271 0.2349 -0.0009
H30 H 0.9018 0.1755 0.0904
C33 C 1.07286(18) 0.53151(18) 0.11050(13)
H31 H 1.0024 0.5480 0.0766
H32 H 1.1145 0.5834 0.0886
C34 C 1.1552(2) 0.4130(2) 0.09467(16)
H33 H 1.2264 0.3969 0.1267
H34 H 1.1783 0.4045 0.0317
H35 H 1.1141 0.3612 0.1154
C35 C 0.75685(19) 0.92091(18) 0.03163(14)
H36 H 0.7944 0.8423 0.0156
H37 H 0.6866 0.9552 -0.0027
C36 C 0.8448(2) 0.9814(2) 0.00835(16)
H38 H 0.8056 1.0607 0.0192
H39 H 0.8729 0.9722 -0.0538
H40 H 0.9124 0.9503 0.0446
Br1 Br 0.292358(18) 0.673365(18) 0.438462(14)
Br2 Br 0.73056(2) 1.02107(2) 0.482138(16)
N1 N 0.62104(14) 0.68891(14) 0.39874(11)
N2 N 0.67700(15) 0.72743(14) 0.54629(11)
C37 C 0.6199(2) 0.59666(18) 0.46475(14)
H41 H 0.6720 0.5243 0.4416
H42 H 0.5383 0.5948 0.4754
C38 C 0.6633(2) 0.61542(18) 0.55030(14)
H43 H 0.6057 0.6111 0.5998
H44 H 0.7406 0.5567 0.5604
C39 C 0.74246(18) 0.6969(2) 0.38947(14)
H45 H 0.7456 0.7540 0.3433
H46 H 0.8016 0.6248 0.3714
C40 C 0.77292(18) 0.72766(19) 0.47595(14)
H47 H 0.8500 0.6735 0.4925
H48 H 0.7801 0.8023 0.4695
C41 C 0.53344(19) 0.79691(18) 0.43145(14)
H49 H 0.4518 0.7952 0.4331
H50 H 0.5384 0.8591 0.3911
C42 C 0.56075(18) 0.81479(19) 0.52300(14)
H51 H 0.5661 0.8897 0.5250
H52 H 0.4959 0.8101 0.5662
C43 C 0.5894(2) 0.66386(19) 0.31213(14)
H53 H 0.5883 0.7245 0.2693
H54 H 0.5108 0.6565 0.3192
H55 H 0.6485 0.5942 0.2913
C44 C 0.7075(2) 0.7530(2) 0.63309(14)
H56 H 0.6420 0.7571 0.6775
H57 H 0.7205 0.8244 0.6278
H58 H 0.7800 0.6943 0.6507
O9 O 0.14643(15) 0.94138(15) 0.34274(12)
H59 H 0.180(3) 0.929(3) 0.388(2)
C45 C 0.0664(2) 1.0530(2) 0.34215(19)
H60 H 0.0977 1.0996 0.3744
H61 H -0.0116 1.0562 0.3713
C46 C 0.0530(4) 1.0942(4) 0.2518(2)
H62 H -0.0023 1.1710 0.2503
H63 H 0.0219 1.0478 0.2203
H64 H 0.1304 1.0915 0.2236
loop_
_geom_bond_atom_site_label_1
_geom_bond_atom_site_label_2
_geom_bond_site_symmetry_1
_geom_bond_site_symmetry_2
C1 C2 1_555 1_555
C2 H1 1_555 1_555
C3 C2 1_555 1_555
C4 C3 1_555 1_555
O1 C4 1_555 1_555
H2 O1 1_555 1_555
C5 C4 1_555 1_555
H3 C5 1_555 1_555
C6 C1 1_555 1_555
O2 C6 1_555 1_555
H4 O2 1_555 1_555
C7 C3 1_555 1_555
H5 C7 1_555 1_555
C8 C7 1_555 1_555
C9 C8 1_555 1_555
H6 C9 1_555 1_555
C10 C9 1_555 1_555
C11 C10 1_555 1_555
O3 C11 1_555 1_555
H7 O3 1_555 1_555
C12 C11 1_555 1_555
H8 C12 1_555 1_555
C13 C8 1_555 1_555
O4 C13 1_555 1_555
H9 O4 1_555 1_555
C14 C10 1_555 1_555
H10 C14 1_555 1_555
C15 C14 1_555 1_555
C16 C15 1_555 1_555
H11 C16 1_555 1_555
C17 C16 1_555 1_555
C18 C17 1_555 1_555
O5 C18 1_555 1_555
H12 O5 1_555 1_555
C19 C18 1_555 1_555
H13 C19 1_555 1_555
C20 C15 1_555 1_555
O6 C20 1_555 1_555
H14 O6 1_555 1_555
C21 C17 1_555 1_555
H15 C21 1_555 1_555
C22 C24 1_555 1_555
C23 C21 1_555 1_555
C24 C23 1_555 1_555
H16 C24 1_555 1_555
C25 C22 1_555 1_555
O7 C25 1_555 1_555
H17 O7 1_555 1_555
C26 C25 1_555 1_555
H18 C26 1_555 1_555
C27 C23 1_555 1_555
O8 C27 1_555 1_555
H19 O8 1_555 1_555
C28 C1 1_555 1_555
H20 C28 1_555 1_555
C29 C7 1_555 1_555
H21 C29 1_555 1_555
H22 C29 1_555 1_555
C30 C29 1_555 1_555
H23 C30 1_555 1_555
H24 C30 1_555 1_555
H25 C30 1_555 1_555
C31 C14 1_555 1_555
H26 C31 1_555 1_555
H27 C31 1_555 1_555
C32 C31 1_555 1_555
H28 C32 1_555 1_555
H29 C32 1_555 1_555
H30 C32 1_555 1_555
C33 C21 1_555 1_555
H31 C33 1_555 1_555
H32 C33 1_555 1_555
C34 C33 1_555 1_555
H33 C34 1_555 1_555
H34 C34 1_555 1_555
H35 C34 1_555 1_555
C35 C28 1_555 1_555
H36 C35 1_555 1_555
H37 C35 1_555 1_555
C36 C35 1_555 1_555
H38 C36 1_555 1_555
H39 C36 1_555 1_555
H40 C36 1_555 1_555
N1 C37 1_555 1_555
N2 C38 1_555 1_555
C37 H41 1_555 1_555
H42 C37 1_555 1_555
C38 C37 1_555 1_555
H43 C38 1_555 1_555
H44 C38 1_555 1_555
C39 N1 1_555 1_555
H45 C39 1_555 1_555
H46 C39 1_555 1_555
C40 N2 1_555 1_555
H47 C40 1_555 1_555
H48 C40 1_555 1_555
C41 N1 1_555 1_555
H49 C41 1_555 1_555
H50 C41 1_555 1_555
C42 N2 1_555 1_555
H51 C42 1_555 1_555
H52 C42 1_555 1_555
C43 N1 1_555 1_555
H53 C43 1_555 1_555
H54 C43 1_555 1_555
H55 C43 1_555 1_555
C44 N2 1_555 1_555
H56 C44 1_555 1_555
H57 C44 1_555 1_555
H58 C44 1_555 1_555
O9 H59 1_555 1_555
C45 O9 1_555 1_555
H60 C45 1_555 1_555
H61 C45 1_555 1_555
C46 C45 1_555 1_555
H62 C46 1_555 1_555
H63 C46 1_555 1_555
H64 C46 1_555 1_555
C5 C6 1_555 1_555
C12 C13 1_555 1_555
C19 C20 1_555 1_555
C22 C28 1_555 1_555
C26 C27 1_555 1_555
C39 C40 1_555 1_555
C41 C42 1_555 1_555

#END
