
#######################################################################
#
#                 Cambridge Crystallographic Data Centre
#                                CCDC 
#
#######################################################################
#
# If this CIF has been generated from an entry in the Cambridge 
# Structural Database, then it will include bibliographic, chemical, 
# crystal, experimental, refinement or atomic coordinate data resulting 
# from the CCDC's data processing and validation procedures.
#
#######################################################################

data_FEQRAV
_chemical_formula_moiety         'C40 H48 O8,C8 H18 N2 2+,2(Cl1 1-),2(C1 H4 O1)'
_chemical_name_systematic        
"4,6,10,12,16,18,22,24-Octahydroxy-2,8,14,20-tetrapropylcalix(4)arene N,N'-dimethyl-1,4-diazabicyclo(2.2.2)octane dichloride methanol solvate"
_symmetry_cell_setting           triclinic
_symmetry_space_group_name_H-M   'P -1'
_symmetry_Int_Tables_number      2
_space_group_name_Hall           '-P 1'
loop_
_symmetry_equiv_pos_site_id
_symmetry_equiv_pos_as_xyz
1 x,y,z
2 -x,-y,-z
_cell_length_a                   11.3877(2)
_cell_length_b                   12.5699(3)
_cell_length_c                   17.5983(4)
_cell_angle_alpha                99.3590(10)
_cell_angle_beta                 91.1830(10)
_cell_angle_gamma                98.7800(10)
_cell_volume                     2453.73
_exptl_crystal_colour            colorless
_exptl_crystal_description       block
_cell_formula_units_Z            2
loop_
_atom_site_label
_atom_site_type_symbol
_atom_site_fract_x
_atom_site_fract_y
_atom_site_fract_z
C1 C 0.6437(3) 0.9009(2) 0.24430(18)
C2 C 0.5860(2) 0.7936(2) 0.22315(18)
H1 H 0.5945 0.7570 0.1724
C3 C 0.5165(2) 0.7373(2) 0.27255(18)
C4 C 0.5062(3) 0.7926(2) 0.34678(18)
O1 O 0.44062(19) 0.73627(18) 0.39644(13)
H2 H 0.450(3) 0.771(3) 0.4410(13)
C5 C 0.5611(3) 0.9001(3) 0.37015(19)
H3 H 0.5524 0.9368 0.4208
C6 C 0.6288(3) 0.9532(2) 0.31867(19)
O2 O 0.6842(2) 1.05992(18) 0.34012(14)
H4 H 0.638(3) 1.093(3) 0.369(2)
C7 C 0.4554(3) 0.6189(2) 0.24932(18)
H5 H 0.3808 0.6113 0.2783
C8 C 0.5323(3) 0.5408(2) 0.27587(18)
C9 C 0.6269(3) 0.5123(2) 0.23195(18)
H6 H 0.6443 0.5465 0.1883
C10 C 0.6971(2) 0.4367(2) 0.24841(18)
C11 C 0.6729(3) 0.3909(2) 0.31434(19)
O3 O 0.7429(2) 0.31729(18) 0.33265(14)
H7 H 0.748(3) 0.320(3) 0.3798(11)
C12 C 0.5816(3) 0.4188(2) 0.36097(19)
H8 H 0.5670 0.3873 0.4061
C13 C 0.5114(3) 0.4930(2) 0.34163(18)
O4 O 0.4219(2) 0.51389(18) 0.39030(14)
H9 H 0.412(3) 0.5791(17) 0.394(2)
C14 C 0.7931(3) 0.4035(2) 0.19378(18)
H10 H 0.8153 0.3349 0.2075
C15 C 0.9053(3) 0.4891(2) 0.20641(18)
C16 C 1.0309(3) 0.6490(2) 0.17074(18)
C17 C 0.9306(3) 0.5684(2) 0.16024(18)
H11 H 0.8759 0.5677 0.1186
C18 C 1.1106(3) 0.6479(3) 0.23221(19)
O5 O 1.21304(19) 0.72133(19) 0.25013(14)
H12 H 1.212(3) 0.776(2) 0.228(2)
C19 C 1.0890(3) 0.5693(3) 0.27988(19)
H13 H 1.1442 0.5690 0.3210
C20 C 0.9873(3) 0.4916(3) 0.26742(19)
O6 O 0.9724(2) 0.42021(19) 0.31885(14)
H14 H 0.903(2) 0.385(3) 0.314(2)
C21 C 1.0519(3) 0.7389(2) 0.12194(18)
H15 H 1.1397 0.7555 0.1165
C22 C 1.0133(3) 0.8433(2) 0.16429(18)
C23 C 0.8941(3) 0.8562(2) 0.16568(18)
H16 H 0.8371 0.7967 0.1410
C24 C 0.8524(3) 0.9499(2) 0.20070(18)
C25 C 0.9368(3) 1.0326(2) 0.24121(18)
O7 O 0.9091(2) 1.12862(19) 0.28124(16)
H17 H 0.8374(19) 1.117(3) 0.291(3)
C26 C 1.0566(3) 1.0236(3) 0.24177(19)
H18 H 1.1131 1.0814 0.2689
C27 C 1.0946(3) 0.9308(3) 0.20311(18)
O8 O 1.21334(18) 0.91921(18) 0.20243(14)
H19 H 1.254(3) 0.974(2) 0.2288(19)
C28 C 0.7214(3) 0.9606(3) 0.18975(18)
H20 H 0.7161 1.0399 0.2046
C29 C 0.4181(3) 0.5881(2) 0.16386(19)
H21 H 0.4903 0.5930 0.1334
H22 H 0.3699 0.6418 0.1498
C30 C 0.7444(3) 0.3763(3) 0.10978(19)
H23 H 0.7177 0.4418 0.0951
H24 H 0.8094 0.3577 0.0760
C31 C 0.3464(3) 0.4737(3) 0.1418(2)
H25 H 0.3928 0.4200 0.1578
H26 H 0.2719 0.4697 0.1699
C32 C 0.3159(4) 0.4438(4) 0.0558(2)
H27 H 0.2775 0.3673 0.0437
H28 H 0.3888 0.4536 0.0274
H29 H 0.2615 0.4909 0.0408
C33 C 0.6412(3) 0.2818(3) 0.0960(2)
H30 H 0.6661 0.2176 0.1138
H31 H 0.5740 0.3023 0.1270
C34 C 0.5993(2) 0.2510(2) 0.01182(14)
H32 H 0.5359 0.1876 0.0055
H33 H 0.6660 0.2329 -0.0194
H34 H 0.5689 0.3126 -0.0051
C35 C 0.9944(2) 0.7066(2) 0.03999(14)
H35 H 1.0173 0.6364 0.0159
H36 H 0.9068 0.6953 0.0433
C36 C 1.0302(3) 0.7918(3) -0.01128(19)
H37 H 1.0094 0.8625 0.0137
H38 H 1.1176 0.8016 -0.0156
C37 C 0.9713(4) 0.7623(3) -0.0920(2)
H39 H 1.0047 0.8161 -0.1234
H40 H 0.8854 0.7623 -0.0888
H41 H 0.9857 0.6896 -0.1156
C38 C 0.6767(3) 0.9277(3) 0.10512(18)
H42 H 0.6783 0.8487 0.0888
H43 H 0.5930 0.9394 0.1008
C39 C 0.7493(3) 0.9908(3) 0.0506(2)
H44 H 0.7504 1.0699 0.0679
H45 H 0.8323 0.9766 0.0531
C40 C 0.7003(4) 0.9599(4) -0.0321(2)
H46 H 0.7500 1.0024 -0.0649
H47 H 0.6187 0.9755 -0.0351
H48 H 0.7003 0.8818 -0.0499
Cl1 Cl 0.51369(7) 0.84267(7) 0.56332(5)
Cl2 Cl 0.79052(8) 0.36742(9) 0.50439(6)
N1 N 0.8527(2) 0.7350(2) 0.42099(16)
N2 N 0.8197(2) 0.7012(2) 0.55845(16)
C41 C 0.8718(3) 0.7551(3) 0.3402(2)
H49 H 0.9513 0.7968 0.3377
H50 H 0.8117 0.7965 0.3247
H51 H 0.8650 0.6850 0.3052
C42 C 0.7999(3) 0.6823(3) 0.6393(2)
H52 H 0.7379 0.7228 0.6609
H53 H 0.8740 0.7075 0.6708
H54 H 0.7748 0.6041 0.6393
C43 C 0.8382(3) 0.8216(3) 0.5558(2)
H55 H 0.8997 0.8603 0.5955
H56 H 0.7632 0.8507 0.5670
C44 C 0.9281(3) 0.6566(3) 0.5284(2)
H57 H 0.9244 0.5804 0.5373
H58 H 1.0006 0.7008 0.5559
C45 C 0.9330(4) 0.6603(4) 0.4427(2)
H59 H 1.0155 0.6864 0.4301
H60 H 0.9080 0.5860 0.4130
C46 C 0.8772(4) 0.8413(3) 0.4761(2)
H61 H 0.8330 0.8953 0.4582
H62 H 0.9632 0.8708 0.4785
C47 C 0.7143(3) 0.6481(3) 0.5063(2)
H63 H 0.6405 0.6679 0.5295
H64 H 0.7088 0.5677 0.4992
C48 C 0.7277(3) 0.6862(3) 0.4288(2)
H65 H 0.7040 0.6234 0.3867
H66 H 0.6749 0.7409 0.4246
O9 O 0.8321(3) 0.1189(5) 0.5197(3)
H67 H 0.7881 0.1448 0.4909
C49 C 0.7714(4) 0.0963(4) 0.5844(3)
H68 H 0.7721 0.1642 0.6209
H69 H 0.8104 0.0455 0.6090
H70 H 0.6891 0.0632 0.5689
O10 O 1.3552(2) 1.0957(2) 0.27706(15)
H71 H 1.390(4) 1.100(4) 0.3199(15)
C50 C 1.4386(4) 1.1471(4) 0.2303(2)
H72 H 1.4838 1.0931 0.2035
H73 H 1.4933 1.2053 0.2628
H74 H 1.3964 1.1784 0.1924
loop_
_geom_bond_atom_site_label_1
_geom_bond_atom_site_label_2
_geom_bond_site_symmetry_1
_geom_bond_site_symmetry_2
C1 C2 1_555 1_555
C2 H1 1_555 1_555
C3 C2 1_555 1_555
C4 C3 1_555 1_555
O1 C4 1_555 1_555
H2 O1 1_555 1_555
C5 C4 1_555 1_555
H3 C5 1_555 1_555
C6 C1 1_555 1_555
O2 C6 1_555 1_555
H4 O2 1_555 1_555
C7 C3 1_555 1_555
H5 C7 1_555 1_555
C8 C7 1_555 1_555
C9 C8 1_555 1_555
H6 C9 1_555 1_555
C10 C9 1_555 1_555
C11 C10 1_555 1_555
O3 C11 1_555 1_555
H7 O3 1_555 1_555
C12 C11 1_555 1_555
H8 C12 1_555 1_555
C13 C8 1_555 1_555
O4 C13 1_555 1_555
H9 O4 1_555 1_555
C14 C10 1_555 1_555
H10 C14 1_555 1_555
C15 C14 1_555 1_555
C16 C17 1_555 1_555
C17 C15 1_555 1_555
H11 C17 1_555 1_555
C18 C16 1_555 1_555
O5 C18 1_555 1_555
H12 O5 1_555 1_555
C19 C18 1_555 1_555
H13 C19 1_555 1_555
C20 C15 1_555 1_555
O6 C20 1_555 1_555
H14 O6 1_555 1_555
C21 C16 1_555 1_555
H15 C21 1_555 1_555
C22 C21 1_555 1_555
C23 C22 1_555 1_555
H16 C23 1_555 1_555
C24 C23 1_555 1_555
C25 C24 1_555 1_555
O7 C25 1_555 1_555
H17 O7 1_555 1_555
C26 C25 1_555 1_555
H18 C26 1_555 1_555
C27 C22 1_555 1_555
O8 C27 1_555 1_555
H19 O8 1_555 1_555
C28 C1 1_555 1_555
H20 C28 1_555 1_555
C29 C7 1_555 1_555
H21 C29 1_555 1_555
H22 C29 1_555 1_555
C30 C14 1_555 1_555
H23 C30 1_555 1_555
H24 C30 1_555 1_555
C31 C29 1_555 1_555
H25 C31 1_555 1_555
H26 C31 1_555 1_555
C32 C31 1_555 1_555
H27 C32 1_555 1_555
H28 C32 1_555 1_555
H29 C32 1_555 1_555
C33 C30 1_555 1_555
H30 C33 1_555 1_555
H31 C33 1_555 1_555
C34 C33 1_555 1_555
H32 C34 1_555 1_555
H33 C34 1_555 1_555
H34 C34 1_555 1_555
C35 C21 1_555 1_555
H35 C35 1_555 1_555
H36 C35 1_555 1_555
C36 C35 1_555 1_555
H37 C36 1_555 1_555
H38 C36 1_555 1_555
C37 C36 1_555 1_555
H39 C37 1_555 1_555
H40 C37 1_555 1_555
H41 C37 1_555 1_555
C38 C28 1_555 1_555
H42 C38 1_555 1_555
H43 C38 1_555 1_555
C39 C38 1_555 1_555
H44 C39 1_555 1_555
H45 C39 1_555 1_555
C40 C39 1_555 1_555
H46 C40 1_555 1_555
H47 C40 1_555 1_555
H48 C40 1_555 1_555
N1 C41 1_555 1_555
N2 C42 1_555 1_555
C41 H49 1_555 1_555
H50 C41 1_555 1_555
H51 C41 1_555 1_555
C42 H52 1_555 1_555
H53 C42 1_555 1_555
H54 C42 1_555 1_555
C43 N2 1_555 1_555
H55 C43 1_555 1_555
H56 C43 1_555 1_555
C44 N2 1_555 1_555
H57 C44 1_555 1_555
H58 C44 1_555 1_555
C45 N1 1_555 1_555
H59 C45 1_555 1_555
H60 C45 1_555 1_555
C46 N1 1_555 1_555
H61 C46 1_555 1_555
H62 C46 1_555 1_555
C47 N2 1_555 1_555
H63 C47 1_555 1_555
H64 C47 1_555 1_555
C48 N1 1_555 1_555
H65 C48 1_555 1_555
H66 C48 1_555 1_555
O9 H67 1_555 1_555
C49 O9 1_555 1_555
H68 C49 1_555 1_555
H69 C49 1_555 1_555
H70 C49 1_555 1_555
O10 H71 1_555 1_555
C50 O10 1_555 1_555
H72 C50 1_555 1_555
H73 C50 1_555 1_555
H74 C50 1_555 1_555
C5 C6 1_555 1_555
C12 C13 1_555 1_555
C19 C20 1_555 1_555
C24 C28 1_555 1_555
C26 C27 1_555 1_555
C43 C46 1_555 1_555
C44 C45 1_555 1_555
C47 C48 1_555 1_555

#END
