
#######################################################################
#
#                 Cambridge Crystallographic Data Centre
#                                CCDC 
#
#######################################################################
#
# If this CIF has been generated from an entry in the Cambridge 
# Structural Database, then it will include bibliographic, chemical, 
# crystal, experimental, refinement or atomic coordinate data resulting 
# from the CCDC's data processing and validation procedures.
#
#######################################################################

data_FEQWII
_chemical_name_common            
1,2-bis((4,4',5'-tris(Methylsulfanyl)-1,1',3,3'-tetrathiafulvalen-5-yl)sulfanyl)ethane
_chemical_formula_moiety         'C20 H22 S16'
_chemical_name_systematic        
1,2-bis((2-(4,5-bis(Methylsulfanyl)-1,3-dithiol-2-ylidene)-4-(methylsulfanyl)-1,3-dithiol-5-yl)sulfanyl)ethane
_symmetry_cell_setting           triclinic
_symmetry_space_group_name_H-M   'P -1'
_symmetry_Int_Tables_number      2
_space_group_name_Hall           '-P 1'
loop_
_symmetry_equiv_pos_site_id
_symmetry_equiv_pos_as_xyz
1 x,y,z
2 -x,-y,-z
_cell_length_a                   7.7380(13)
_cell_length_b                   9.5383(14)
_cell_length_c                   12.2465(16)
_cell_angle_alpha                67.101(12)
_cell_angle_beta                 73.202(14)
_cell_angle_gamma                77.870(15)
_cell_volume                     792.215
_exptl_crystal_colour            orange-yellow
_exptl_crystal_description       block
_cell_formula_units_Z            1
_exptl_crystal_recrystallization_method dichloromethane
loop_
_atom_site_label
_atom_site_type_symbol
_atom_site_fract_x
_atom_site_fract_y
_atom_site_fract_z
S1 S 0.50965(11) -0.23978(9) 0.12894(8)
S2 S 0.94626(12) -0.35296(12) 0.05019(9)
S3 S 1.00004(11) -0.22452(9) 0.22736(8)
S4 S 0.60969(11) -0.13565(10) 0.30231(7)
S5 S 0.69018(11) 0.11038(9) 0.39781(8)
S6 S 1.08256(11) 0.02426(9) 0.33121(8)
S7 S 0.71935(13) 0.42079(10) 0.38704(9)
S8 S 1.17541(13) 0.31819(12) 0.32908(10)
C1 C 0.6795(4) -0.2088(3) 0.1823(3)
C2 C 0.8581(4) -0.2508(3) 0.1489(3)
C3 C 0.8314(4) -0.1079(3) 0.2941(3)
C4 C 0.8648(4) -0.0063(3) 0.3354(3)
C5 C 0.8315(4) 0.2485(4) 0.3699(3)
C6 C 1.0124(4) 0.2091(4) 0.3396(3)
C7 C 0.4268(4) -0.0416(4) 0.0516(3)
H1 H 0.3227 -0.0399 0.0193
H2 H 0.3835 0.0121 0.1110
C8 C 1.1548(6) -0.2748(5) -0.0371(4)
H3 H 1.1316 -0.1630 -0.0718
H4 H 1.2074 -0.3159 -0.1030
H5 H 1.2399 -0.3025 0.0157
C9 C 0.7704(5) 0.4125(5) 0.5231(4)
H6 H 0.7188 0.3253 0.5918
H7 H 0.7180 0.5074 0.5391
H8 H 0.9024 0.4003 0.5130
C10 C 1.3408(5) 0.3141(5) 0.1922(4)
H9 H 1.4068 0.2113 0.2063
H10 H 1.4266 0.3885 0.1697
H11 H 1.2791 0.3402 0.1262
S1A S 0.49035(11) 0.23978(9) -0.12894(8)
S2A S 0.05374(12) 0.35296(12) -0.05019(9)
S3A S -0.00004(11) 0.22452(9) -0.22736(8)
S4A S 0.39031(11) 0.13565(10) -0.30231(7)
S5A S 0.30982(11) -0.11038(9) -0.39781(8)
S6A S -0.08256(11) -0.02426(9) -0.33121(8)
S7A S 0.28065(13) -0.42079(10) -0.38704(9)
S8A S -0.17541(13) -0.31819(12) -0.32908(10)
C1A C 0.3205(4) 0.2088(3) -0.1823(3)
C2A C 0.1419(4) 0.2508(3) -0.1489(3)
C3A C 0.1686(4) 0.1079(3) -0.2941(3)
C4A C 0.1352(4) 0.0063(3) -0.3354(3)
C5A C 0.1685(4) -0.2485(4) -0.3699(3)
C6A C -0.0124(4) -0.2091(4) -0.3396(3)
C7A C 0.5732(4) 0.0416(4) -0.0516(3)
H1A H 0.6773 0.0399 -0.0193
H2A H 0.6165 -0.0121 -0.1110
C8A C -0.1548(6) 0.2748(5) 0.0371(4)
H3A H -0.1316 0.1630 0.0718
H4A H -0.2074 0.3159 0.1030
H5A H -0.2399 0.3025 -0.0157
C9A C 0.2296(5) -0.4125(5) -0.5231(4)
H6A H 0.2812 -0.3253 -0.5918
H7A H 0.2820 -0.5074 -0.5391
H8A H 0.0976 -0.4003 -0.5130
C10A C -0.3408(5) -0.3141(5) -0.1922(4)
H9A H -0.4068 -0.2113 -0.2063
H10A H -0.4266 -0.3885 -0.1697
H11A H -0.2791 -0.3402 -0.1262
loop_
_geom_bond_atom_site_label_1
_geom_bond_atom_site_label_2
_geom_bond_site_symmetry_1
_geom_bond_site_symmetry_2
S1 C1 1_555 1_555
S2 C2 1_555 1_555
S3 C2 1_555 1_555
S4 C1 1_555 1_555
S5 C4 1_555 1_555
S6 C4 1_555 1_555
S7 C5 1_555 1_555
S8 C6 1_555 1_555
C1 C2 1_555 1_555
C3 S3 1_555 1_555
C4 C3 1_555 1_555
C5 S5 1_555 1_555
C6 S6 1_555 1_555
C7 S1 1_555 1_555
H1 C7 1_555 1_555
H2 C7 1_555 1_555
C8 S2 1_555 1_555
H3 C8 1_555 1_555
H4 C8 1_555 1_555
H5 C8 1_555 1_555
C9 S7 1_555 1_555
H6 C9 1_555 1_555
H7 C9 1_555 1_555
H8 C9 1_555 1_555
C10 S8 1_555 1_555
H9 C10 1_555 1_555
H10 C10 1_555 1_555
H11 C10 1_555 1_555
S1A C1A 1_555 1_555
S2A C2A 1_555 1_555
S3A C2A 1_555 1_555
S4A C1A 1_555 1_555
S5A C4A 1_555 1_555
S6A C4A 1_555 1_555
S7A C5A 1_555 1_555
S8A C6A 1_555 1_555
C1A C2A 1_555 1_555
C3A S3A 1_555 1_555
C4A C3A 1_555 1_555
C5A S5A 1_555 1_555
C6A S6A 1_555 1_555
C7A C7 1_555 1_555
H1A C7A 1_555 1_555
H2A C7A 1_555 1_555
C8A S2A 1_555 1_555
H3A C8A 1_555 1_555
H4A C8A 1_555 1_555
H5A C8A 1_555 1_555
C9A S7A 1_555 1_555
H6A C9A 1_555 1_555
H7A C9A 1_555 1_555
H8A C9A 1_555 1_555
C10A S8A 1_555 1_555
H9A C10A 1_555 1_555
H10A C10A 1_555 1_555
H11A C10A 1_555 1_555
S4 C3 1_555 1_555
C5 C6 1_555 1_555
S1A C7A 1_555 1_555
S4A C3A 1_555 1_555
C5A C6A 1_555 1_555

#END
