
#######################################################################
#
#                 Cambridge Crystallographic Data Centre
#                                CCDC 
#
#######################################################################
#
# If this CIF has been generated from an entry in the Cambridge 
# Structural Database, then it will include bibliographic, chemical, 
# crystal, experimental, refinement or atomic coordinate data resulting 
# from the CCDC's data processing and validation procedures.
#
#######################################################################

data_FEQXIJ01
_chemical_name_common            'hexamethylenetetramine 4-hydroxybenzoic acid'
_chemical_formula_moiety         'C6 H12 N4,C7 H6 O3'
_chemical_name_systematic        
'4-hydroxybenzoic acid 1,3,5,7-tetraazatricyclo[3.3.1.1^3,7^]decane'
_symmetry_cell_setting           monoclinic
_symmetry_space_group_name_H-M   'P 21/n'
_symmetry_Int_Tables_number      14
_space_group_name_Hall           '-P 2yn'
loop_
_symmetry_equiv_pos_site_id
_symmetry_equiv_pos_as_xyz
1 x,y,z
2 1/2-x,1/2+y,1/2-z
3 -x,-y,-z
4 1/2+x,1/2-y,1/2+z
_cell_length_a                   5.9999(4)
_cell_length_b                   11.8338(7)
_cell_length_c                   18.8775(11)
_cell_angle_alpha                90
_cell_angle_beta                 93.610(2)
_cell_angle_gamma                90
_cell_volume                     1337.67
_exptl_crystal_colour            colorless
_exptl_crystal_description       plate
_cell_formula_units_Z            4
loop_
_atom_site_label
_atom_site_type_symbol
_atom_site_fract_x
_atom_site_fract_y
_atom_site_fract_z
C1 C -0.0270(3) -0.17893(13) 0.31040(8)
H1 H -0.415(3) -0.2427(14) 0.1917(9)
H2 H -0.430(3) -0.2363(13) 0.2766(9)
H3 H 0.139(3) -0.1944(13) 0.3174(8)
H4 H -0.100(3) -0.2087(13) 0.3507(9)
C2 C -0.2799(3) -0.03876(15) 0.17199(9)
C3 C -0.3015(2) -0.03283(14) 0.29693(9)
C4 C 0.0514(2) -0.01100(13) 0.24680(8)
C5 C -0.0051(3) -0.18581(13) 0.18539(9)
C6 C -0.3552(3) -0.20579(13) 0.23560(9)
N1 N -0.03695(19) -0.06227(10) 0.17973(6)
N2 N -0.39602(19) -0.08420(10) 0.23145(7)
N3 N -0.05906(19) -0.05504(10) 0.30848(6)
N4 N -0.1164(2) -0.23342(10) 0.24522(7)
H5 H -0.341(3) -0.0759(14) 0.1261(10)
H6 H -0.303(3) 0.0425(15) 0.1684(8)
H7 H -0.376(3) -0.0657(13) 0.3365(9)
H8 H -0.327(2) 0.0502(14) 0.2952(8)
H9 H 0.214(3) -0.0257(13) 0.2523(8)
H10 H 0.030(2) 0.0710(14) 0.2430(8)
H11 H 0.159(3) -0.2024(14) 0.1908(9)
H12 H -0.070(3) -0.2205(14) 0.1401(9)
H13 H 0.103(4) 0.0023(19) 0.1171(12)
C7 C 0.5353(2) 0.34458(12) -0.05754(7)
C8 C 0.6092(3) 0.23868(13) -0.03533(8)
C9 C 0.3342(3) 0.38570(13) -0.03557(8)
C10 C 0.4808(3) 0.17339(13) 0.00706(7)
C11 C 0.2080(3) 0.32061(13) 0.00734(8)
C12 C 0.2784(2) 0.21343(12) 0.02872(7)
C13 C 0.1410(2) 0.14685(13) 0.07608(7)
O1 O 0.6656(2) 0.40435(10) -0.10025(6)
O2 O 0.1994(2) 0.03968(10) 0.08236(7)
O3 O -0.0108(2) 0.18760(10) 0.10717(6)
H14 H 0.581(4) 0.4646(19) -0.1208(12)
H15 H 0.748(3) 0.2098(14) -0.0499(9)
H16 H 0.281(3) 0.4584(15) -0.0517(9)
H17 H 0.535(3) 0.0984(14) 0.0213(8)
H18 H 0.068(3) 0.3486(14) 0.0228(9)
loop_
_geom_bond_atom_site_label_1
_geom_bond_atom_site_label_2
_geom_bond_site_symmetry_1
_geom_bond_site_symmetry_2
C1 H3 1_555 1_555
H1 C6 1_555 1_555
H2 C6 1_555 1_555
H4 C1 1_555 1_555
C2 N1 1_555 1_555
C3 N2 1_555 1_555
C4 N1 1_555 1_555
C5 N1 1_555 1_555
C6 N2 1_555 1_555
N2 C2 1_555 1_555
N3 C1 1_555 1_555
N4 C1 1_555 1_555
H5 C2 1_555 1_555
H6 C2 1_555 1_555
H7 C3 1_555 1_555
H8 C3 1_555 1_555
H9 C4 1_555 1_555
H10 C4 1_555 1_555
H11 C5 1_555 1_555
H12 C5 1_555 1_555
H13 O2 1_555 1_555
C7 C8 1_555 1_555
C8 C10 1_555 1_555
C9 C7 1_555 1_555
C10 C12 1_555 1_555
C11 C9 1_555 1_555
C12 C11 1_555 1_555
C13 C12 1_555 1_555
O1 C7 1_555 1_555
O2 C13 1_555 1_555
O3 C13 1_555 1_555
H14 O1 1_555 1_555
H15 C8 1_555 1_555
H16 C9 1_555 1_555
H17 C10 1_555 1_555
H18 C11 1_555 1_555
C3 N3 1_555 1_555
C4 N3 1_555 1_555
C5 N4 1_555 1_555
C6 N4 1_555 1_555

#END
