
#######################################################################
#
#                 Cambridge Crystallographic Data Centre
#                                CCDC 
#
#######################################################################
#
# If this CIF has been generated from an entry in the Cambridge 
# Structural Database, then it will include bibliographic, chemical, 
# crystal, experimental, refinement or atomic coordinate data resulting 
# from the CCDC's data processing and validation procedures.
#
#######################################################################

data_FERGOZ
_chemical_formula_moiety         'C16 H13 Br1 F1 N1 O4 S1'
_chemical_name_systematic        
'(+)-(9R)-(3-Bromo-4-fluorophenyl)-2,3,5,9-tetrahydro-4H-pyrano(3,4-b)thieno(2,3-e)pyridin-8(7H)-one 1,1-dioxide'
_chemical_properties_biological  
'ATP-sensitive potassium channel opening activity'
_symmetry_cell_setting           monoclinic
_symmetry_space_group_name_H-M   'P 21'
_symmetry_Int_Tables_number      4
_space_group_name_Hall           'P 2yb'
loop_
_symmetry_equiv_pos_site_id
_symmetry_equiv_pos_as_xyz
1 x,y,z
2 -x,1/2+y,-z
_cell_length_a                   8.112(1)
_cell_length_b                   11.803(2)
_cell_length_c                   9.036(1)
_cell_angle_alpha                90
_cell_angle_beta                 113.473(2)
_cell_angle_gamma                90
_cell_volume                     793.566
_exptl_crystal_description       triangle
_cell_formula_units_Z            2
loop_
_atom_site_label
_atom_site_type_symbol
_atom_site_fract_x
_atom_site_fract_y
_atom_site_fract_z
Br1 Br -0.3320(1) 0.429(1) 0.43895(9)
S1 S 0.4957(2) 0.213(1) 0.7733(2)
F1 F -0.4316(6) 0.196(1) 0.2837(5)
O1 O 0.0594(7) 0.030(1) 1.0443(6)
O2 O 0.4035(7) 0.207(1) 0.6023(6)
O3 O 0.6016(7) 0.117(1) 0.8552(7)
O4 O -0.0070(7) 0.289(1) 1.2029(6)
N1 N 0.3120(7) 0.386(1) 1.0393(6)
C1 C 0.1578(8) 0.207(2) 1.0079(7)
C2 C 0.2134(9) 0.311(2) 1.0780(7)
C3 C 0.3971(8) 0.347(1) 0.9410(7)
C4 C 0.073(1) 0.124(1) 1.0780(7)
C5 C 0.3523(8) 0.244(1) 0.8620(6)
C6 C -0.0350(9) 0.086(1) 0.6123(7)
C7 C 0.152(1) 0.350(1) 1.2136(7)
C8 C 0.629(1) 0.339(2) 0.8317(7)
C9 C 0.5583(8) 0.406(1) 0.9432(7)
C10 C -0.284(1) 0.190(2) 0.4232(7)
C11 C 0.1915(8) 0.176(1) 0.8615(7)
C12 C -0.0664(9) 0.285(1) 0.6458(7)
C13 C -0.200(1) 0.094(1) 0.4670(8)
C14 C 0.016(1) 0.171(2) 1.2032(9)
C15 C -0.2018(9) 0.292(2) 0.5170(8)
C16 C 0.0276(9) 0.181(1) 0.7026(7)
H1 H 0.3245 0.4626 1.0765
H2 H 0.0246 0.0170 0.6439
H3 H 0.1253 0.4303 1.2023
H4 H 0.2458 0.3377 1.3159
H5 H 0.7524 0.3215 0.8887
H6 H 0.6155 0.3840 0.7394
H7 H 0.5280 0.4815 0.9038
H8 H 0.6476 0.4084 1.0495
H9 H 0.2284 0.1000 0.8748
H10 H -0.0239 0.3535 0.7073
H11 H -0.2488 0.0288 0.4044
H12 H 0.1043 0.1520 1.3070
H13 H -0.0955 0.1383 1.1899
loop_
_geom_bond_atom_site_label_1
_geom_bond_atom_site_label_2
_geom_bond_site_symmetry_1
_geom_bond_site_symmetry_2
Br1 C15 1_555 1_555
S1 O2 1_555 1_555
F1 C10 1_555 1_555
O1 C4 1_555 1_555
O3 S1 1_555 1_555
O4 C7 1_555 1_555
N1 C2 1_555 1_555
C1 C2 1_555 1_555
C2 C7 1_555 1_555
C3 N1 1_555 1_555
C4 C1 1_555 1_555
C5 S1 1_555 1_555
C6 C13 1_555 1_555
C7 H3 1_555 1_555
C8 S1 1_555 1_555
C9 C3 1_555 1_555
C10 C13 1_555 1_555
C11 C1 1_555 1_555
C12 C15 1_555 1_555
C13 H11 1_555 1_555
C14 O4 1_555 1_555
C15 C10 1_555 1_555
C16 C6 1_555 1_555
H1 N1 1_555 1_555
H2 C6 1_555 1_555
H4 C7 1_555 1_555
H5 C8 1_555 1_555
H6 C8 1_555 1_555
H7 C9 1_555 1_555
H8 C9 1_555 1_555
H9 C11 1_555 1_555
H10 C12 1_555 1_555
H12 C14 1_555 1_555
H13 C14 1_555 1_555
C3 C5 1_555 1_555
C4 C14 1_555 1_555
C5 C11 1_555 1_555
C8 C9 1_555 1_555
C11 C16 1_555 1_555
C12 C16 1_555 1_555

#END
