
#######################################################################
#
#                 Cambridge Crystallographic Data Centre
#                                CCDC 
#
#######################################################################
#
# If this CIF has been generated from an entry in the Cambridge 
# Structural Database, then it will include bibliographic, chemical, 
# crystal, experimental, refinement or atomic coordinate data resulting 
# from the CCDC's data processing and validation procedures.
#
#######################################################################

data_FERHIU
_chemical_formula_moiety         'C17 H14 Br1 F1 N2 O2'
_chemical_name_systematic        
(-)-(8S)-(3-Bromo-4-fluorophenyl)-2-methyl-2,3,4,5,6,8-hexahydrocyclopenta(b)pyrrolo(3,4-e)pyridine-1,7-dione
_chemical_properties_biological  
'ATP-sensitive potassium channel opening activity'
_symmetry_cell_setting           orthorhombic
_symmetry_space_group_name_H-M   'P 21 21 21'
_symmetry_Int_Tables_number      19
_space_group_name_Hall           'P 2ac 2ab'
loop_
_symmetry_equiv_pos_site_id
_symmetry_equiv_pos_as_xyz
1 x,y,z
2 1/2-x,-y,1/2+z
3 1/2+x,1/2-y,-z
4 -x,1/2+y,1/2-z
_cell_length_a                   14.175(7)
_cell_length_b                   14.378(7)
_cell_length_c                   7.613(6)
_cell_angle_alpha                90
_cell_angle_beta                 90
_cell_angle_gamma                90
_cell_volume                     1551.59
_exptl_crystal_colour            yellow
_exptl_crystal_description       rod
_cell_formula_units_Z            4
loop_
_atom_site_label
_atom_site_type_symbol
_atom_site_fract_x
_atom_site_fract_y
_atom_site_fract_z
Br1 Br 0.18982(8) 0.4073(1) -0.0038(2)
F1 F 0.3349(5) 0.3580(6) -0.2771(9)
O1 O 0.5213(6) 0.5783(6) 0.408(1)
O2 O 0.3856(5) 0.1855(6) 0.490(2)
N1 N 0.6962(6) 0.2983(7) 0.446(1)
N2 N 0.6798(7) 0.5492(7) 0.422(2)
C1 C 0.5316(7) 0.2643(8) 0.449(2)
C2 C 0.4723(7) 0.1860(8) 0.487(2)
C3 C 0.4560(8) 0.3611(9) 0.215(2)
C4 C 0.3732(10) 0.360(1) -0.117(2)
C5 C 0.6352(7) 0.1389(8) 0.507(2)
C6 C 0.5849(7) 0.4229(9) 0.411(2)
C7 C 0.6734(8) 0.3912(9) 0.427(2)
C8 C 0.5337(8) 0.1030(9) 0.530(2)
C9 C 0.5055(10) 0.337(1) 0.068(2)
C10 C 0.5866(8) 0.5228(9) 0.411(2)
C11 C 0.4973(8) 0.3608(10) 0.400(2)
C12 C 0.469(1) 0.336(1) -0.098(2)
C13 C 0.3614(9) 0.3848(9) 0.197(2)
C14 C 0.7419(8) 0.4700(9) 0.433(2)
C15 C 0.3227(7) 0.3848(8) 0.030(2)
C16 C 0.7123(9) 0.6452(10) 0.429(2)
C17 C 0.6229(8) 0.2377(9) 0.462(2)
H1 H 0.7602 0.2785 0.4495
H2 H 0.5691 0.3223 0.0830
H3 H 0.5081 0.3205 -0.1963
H4 H 0.3226 0.3964 0.2981
H5 H 0.6688 0.1321 0.6165
H6 H 0.6671 0.1053 0.4192
H7 H 0.5233 0.0826 0.6465
H8 H 0.5226 0.0531 0.4505
H9 H 0.4501 0.3807 0.4823
H10 H 0.7830 0.4666 0.3342
H11 H 0.7765 0.4682 0.5376
H12 H 0.7432 0.6555 0.5396
H13 H 0.7555 0.6560 0.3371
H14 H 0.6603 0.6861 0.4199
loop_
_geom_bond_atom_site_label_1
_geom_bond_atom_site_label_2
_geom_bond_site_symmetry_1
_geom_bond_site_symmetry_2
Br1 C15 1_555 1_555
F1 C4 1_555 1_555
O1 C10 1_555 1_555
O2 C2 1_555 1_555
N1 C7 1_555 1_555
N2 C10 1_555 1_555
C1 C2 1_555 1_555
C2 C8 1_555 1_555
C3 C9 1_555 1_555
C4 C12 1_555 1_555
C5 C8 1_555 1_555
C6 C7 1_555 1_555
C7 C14 1_555 1_555
C8 H7 1_555 1_555
C9 C12 1_555 1_555
C10 C6 1_555 1_555
C11 C1 1_555 1_555
C12 H3 1_555 1_555
C13 C3 1_555 1_555
C14 N2 1_555 1_555
C15 C4 1_555 1_555
C16 N2 1_555 1_555
C17 N1 1_555 1_555
H1 N1 1_555 1_555
H2 C9 1_555 1_555
H4 C13 1_555 1_555
H5 C5 1_555 1_555
H6 C5 1_555 1_555
H8 C8 1_555 1_555
H9 C11 1_555 1_555
H10 C14 1_555 1_555
H11 C14 1_555 1_555
H12 C16 1_555 1_555
H13 C16 1_555 1_555
H14 C16 1_555 1_555
C1 C17 1_555 1_555
C3 C11 1_555 1_555
C5 C17 1_555 1_555
C6 C11 1_555 1_555
C13 C15 1_555 1_555

#END
