
#######################################################################
#
#                 Cambridge Crystallographic Data Centre
#                                CCDC 
#
#######################################################################
#
# If this CIF has been generated from an entry in the Cambridge 
# Structural Database, then it will include bibliographic, chemical, 
# crystal, experimental, refinement or atomic coordinate data resulting 
# from the CCDC's data processing and validation procedures.
#
#######################################################################

data_FERLOF
_chemical_compound_source        'whole plant of Zephyranthes candida'
_chemical_name_common            'N-Methylhemeanthidine chloride'
_chemical_formula_moiety         'C18 H22 N1 O5 1+,Cl1 1-'
_chemical_name_systematic        
'6,11-Dihydroxy-3-methoxy-5-methyl-1,2-didehydrocrinan-5-ium chloride'
_chemical_properties_biological  'cytotoxic activity'
_symmetry_cell_setting           tetragonal
_symmetry_space_group_name_H-M   'P 41'
_symmetry_Int_Tables_number      76
_space_group_name_Hall           'P 4w'
loop_
_symmetry_equiv_pos_site_id
_symmetry_equiv_pos_as_xyz
1 x,y,z
2 -x,-y,1/2+z
3 -y,x,1/4+z
4 y,-x,3/4+z
_cell_length_a                   10.0493(12)
_cell_length_b                   10.0493(12)
_cell_length_c                   17.167(4)
_cell_angle_alpha                90
_cell_angle_beta                 90
_cell_angle_gamma                90
_cell_volume                     1733.67
_exptl_crystal_colour            colorless
_exptl_crystal_description       block
_chemical_melting_point          '237 deg.C'
_cell_formula_units_Z            4
_exptl_crystal_recrystallization_method methanol
loop_
_atom_site_label
_atom_site_type_symbol
_atom_site_fract_x
_atom_site_fract_y
_atom_site_fract_z
C1 C 0.1320(5) 0.7148(5) 0.3025(3)
H1 H 0.0481 0.7223 0.3249
C2 C 0.1674(6) 0.5991(5) 0.2734(3)
H2 H 0.1058 0.5301 0.2747
C3 C 0.3014(6) 0.5716(5) 0.2379(4)
H3 H 0.3341 0.4869 0.2587
C4 C 0.4040(5) 0.6791(5) 0.2561(3)
H4 H 0.4372 0.6678 0.3087
H5 H 0.4785 0.6721 0.2204
C5 C 0.3695(5) 1.0525(5) 0.2286(3)
H6 H 0.4144 1.1322 0.2472
C6 C 0.1609(6) 1.1867(5) 0.2249(3)
H7 H 0.2100 1.2557 0.2030
C7 C 0.0306(5) 1.1998(5) 0.2373(3)
C8 C -0.0430(5) 1.1004(6) 0.2706(3)
C9 C 0.0111(5) 0.9807(5) 0.2906(3)
H8 H -0.0410 0.9139 0.3123
C10 C 0.2866(5) 0.8647(5) 0.3819(3)
H9 H 0.2264 0.9172 0.4147
C11 C 0.4063(5) 0.9479(5) 0.3583(3)
H10 H 0.3906 1.0409 0.3702
H11 H 0.4848 0.9189 0.3865
C12 C 0.5689(5) 0.9155(6) 0.2508(4)
H12 H 0.6149 0.9973 0.2614
H13 H 0.5763 0.8949 0.1964
H14 H 0.6078 0.8450 0.2809
C13 C 0.3766(7) 0.4737(7) 0.1196(5)
H15 H 0.4606 0.5191 0.1172
H16 H 0.3473 0.4527 0.0678
H17 H 0.3865 0.3931 0.1491
C14 C -0.1778(5) 1.2739(6) 0.2493(4)
H18 H -0.2435 1.2835 0.2083
H19 H -0.2016 1.3329 0.2918
C15 C 0.3387(5) 0.8135(5) 0.2479(3)
H20 H 0.3104 0.8258 0.1937
C16 C 0.2232(5) 1.0645(5) 0.2460(3)
C17 C 0.1485(5) 0.9611(5) 0.2775(3)
C18 C 0.2194(5) 0.8339(5) 0.3016(3)
N1 N 0.4269(4) 0.9301(4) 0.2719(2)
O1 O 0.2815(4) 0.5567(4) 0.1561(3)
O2 O 0.3208(5) 0.7465(4) 0.4195(2)
H21 H 0.3489 0.7632 0.4633
O3 O -0.1736(3) 1.1385(4) 0.2760(3)
O4 O -0.0480(4) 1.3060(4) 0.2205(3)
O5 O 0.3936(5) 1.0408(5) 0.1522(3)
H22 H 0.4552 1.0900 0.1400
Cl1 Cl 0.61238(15) 0.20864(15) 0.09240(8)
H23? H 0.3742 1.0294 0.1732
O6? O 0.4382(11) 1.1680(10) 0.2336(9)
H24? H 0.4936 1.1711 0.1986
loop_
_geom_bond_atom_site_label_1
_geom_bond_atom_site_label_2
_geom_bond_site_symmetry_1
_geom_bond_site_symmetry_2
C1 H1 1_555 1_555
C2 C1 1_555 1_555
H2 C2 1_555 1_555
C3 C2 1_555 1_555
H3 C3 1_555 1_555
C4 C3 1_555 1_555
H4 C4 1_555 1_555
H5 C4 1_555 1_555
C5 H6 1_555 1_555
C6 H7 1_555 1_555
C7 C6 1_555 1_555
C8 C7 1_555 1_555
C9 C8 1_555 1_555
H8 C9 1_555 1_555
C10 H9 1_555 1_555
C11 C10 1_555 1_555
H10 C11 1_555 1_555
H11 C11 1_555 1_555
C12 H12 1_555 1_555
H13 C12 1_555 1_555
H14 C12 1_555 1_555
C13 H15 1_555 1_555
H16 C13 1_555 1_555
H17 C13 1_555 1_555
C14 H18 1_555 1_555
H19 C14 1_555 1_555
C15 C4 1_555 1_555
H20 C15 1_555 1_555
C16 C5 1_555 1_555
C17 C9 1_555 1_555
C18 C1 1_555 1_555
N1 C5 1_555 1_555
O1 C3 1_555 1_555
O2 C10 1_555 1_555
H21 O2 1_555 1_555
O3 C8 1_555 1_555
O4 C7 1_555 1_555
O5 C5 1_555 1_555
H22 O5 1_555 1_555
C6 C16 1_555 1_555
C10 C18 1_555 1_555
C11 N1 1_555 1_555
C12 N1 1_555 1_555
C13 O1 1_555 1_555
C14 O3 1_555 1_555
C14 O4 1_555 1_555
C15 C18 1_555 1_555
C15 N1 1_555 1_555
C16 C17 1_555 1_555
C17 C18 1_555 1_555

#END
