
#######################################################################
#
#                 Cambridge Crystallographic Data Centre
#                                CCDC 
#
#######################################################################
#
# If this CIF has been generated from an entry in the Cambridge 
# Structural Database, then it will include bibliographic, chemical, 
# crystal, experimental, refinement or atomic coordinate data resulting 
# from the CCDC's data processing and validation procedures.
#
#######################################################################

data_FERMEX
_chemical_formula_moiety         'C12 H9 Cl2 N1 O3'
_chemical_name_systematic        
'ethyl 5-(2,4-dichlorophenyl)-1,3-oxazole-4-carboxylate'
_symmetry_cell_setting           orthorhombic
_symmetry_space_group_name_H-M   'P 21 21 21'
_symmetry_Int_Tables_number      19
_space_group_name_Hall           'P 2ac 2ab'
loop_
_symmetry_equiv_pos_site_id
_symmetry_equiv_pos_as_xyz
1 x,y,z
2 1/2-x,-y,1/2+z
3 -x,1/2+y,1/2-z
4 1/2+x,1/2-y,-z
_cell_length_a                   7.9745(5)
_cell_length_b                   11.4027(7)
_cell_length_c                   13.5239(9)
_cell_angle_alpha                90
_cell_angle_beta                 90
_cell_angle_gamma                90
_cell_volume                     1229.74
_cell_formula_units_Z            4
loop_
_atom_site_label
_atom_site_type_symbol
_atom_site_fract_x
_atom_site_fract_y
_atom_site_fract_z
N1 N 0.9696(2) 0.78139(17) 0.42101(12)
Cl1 Cl 1.22900(8) 0.62023(5) 0.14842(4)
Cl2 Cl 1.23846(9) 0.92024(5) -0.15393(4)
O1 O 1.19468(17) 0.78576(13) 0.32440(9)
O2 O 0.6340(2) 0.8156(2) 0.36071(13)
O3 O 0.72265(15) 0.88144(13) 0.21436(9)
C1 C 1.0606(2) 0.81583(16) 0.26657(13)
C2 C 0.9228(2) 0.81351(17) 0.32526(13)
C3 C 1.1282(3) 0.7677(2) 0.41599(15)
H1 H 1.1931 0.7470 0.4704
C4 C 1.0975(2) 0.84012(17) 0.16177(14)
C5 C 1.0566(2) 0.94748(18) 0.11949(14)
H2 H 1.0020 1.0037 0.1576
C6 C 1.0953(2) 0.97266(19) 0.02188(14)
H3 H 1.0644 1.0440 -0.0061
C7 C 1.1802(2) 0.89007(18) -0.03288(14)
C8 C 1.2227(3) 0.78199(17) 0.00604(13)
H4 H 1.2792 0.7267 -0.0320
C9 C 1.1794(2) 0.75810(17) 0.10246(13)
C10 C 0.7444(2) 0.83522(17) 0.30348(13)
C11 C 0.5509(3) 0.9056(2) 0.18371(17)
H5 H 0.4828 0.9251 0.2408
H6 H 0.5030 0.8371 0.1520
C12 C 0.5541(3) 1.0050(3) 0.11394(19)
H7 H 0.4424 1.0205 0.0909
H8 H 0.6247 0.9860 0.0588
H9 H 0.5971 1.0733 0.1468
loop_
_geom_bond_atom_site_label_1
_geom_bond_atom_site_label_2
_geom_bond_site_symmetry_1
_geom_bond_site_symmetry_2
N1 C2 1_555 1_555
Cl1 C9 1_555 1_555
Cl2 C7 1_555 1_555
O1 C1 1_555 1_555
O2 C10 1_555 1_555
O3 C10 1_555 1_555
C1 C2 1_555 1_555
C2 C10 1_555 1_555
C3 N1 1_555 1_555
H1 C3 1_555 1_555
C4 C1 1_555 1_555
C5 C4 1_555 1_555
H2 C5 1_555 1_555
C6 C5 1_555 1_555
H3 C6 1_555 1_555
C7 C6 1_555 1_555
C8 C7 1_555 1_555
H4 C8 1_555 1_555
C9 C4 1_555 1_555
C11 O3 1_555 1_555
H5 C11 1_555 1_555
H6 C11 1_555 1_555
C12 C11 1_555 1_555
H7 C12 1_555 1_555
H8 C12 1_555 1_555
H9 C12 1_555 1_555
O1 C3 1_555 1_555
C8 C9 1_555 1_555

#END
