
#######################################################################
#
#                 Cambridge Crystallographic Data Centre
#                                CCDC 
#
#######################################################################
#
# If this CIF has been generated from an entry in the Cambridge 
# Structural Database, then it will include bibliographic, chemical, 
# crystal, experimental, refinement or atomic coordinate data resulting 
# from the CCDC's data processing and validation procedures.
#
#######################################################################

data_FERRUQ
_chemical_formula_moiety         'C8 H10 Br2 O1'
_chemical_name_systematic        
((1R,3S,4R)-5,5-Dibromodispiro(2.0.2.1)hept-1-yl)methanol
_symmetry_cell_setting           monoclinic
_symmetry_space_group_name_H-M   'P 21'
_symmetry_Int_Tables_number      4
_space_group_name_Hall           'P 2yb'
loop_
_symmetry_equiv_pos_site_id
_symmetry_equiv_pos_as_xyz
1 x,y,z
2 -x,1/2+y,-z
_cell_length_a                   11.811(2)
_cell_length_b                   6.502(1)
_cell_length_c                   12.682(3)
_cell_angle_alpha                90
_cell_angle_beta                 95.67(3)
_cell_angle_gamma                90
_cell_volume                     969.151
_exptl_crystal_colour            colorless
_exptl_crystal_description       prism
_chemical_melting_point          69-70deg.C
_cell_formula_units_Z            4
loop_
_atom_site_label
_atom_site_type_symbol
_atom_site_fract_x
_atom_site_fract_y
_atom_site_fract_z
Br1 Br 0.19755(9) 1.01170(18) -0.42756(8)
Br3 Br 0.11531(9) 0.54906(17) -0.39226(8)
O1 O 0.3972(7) 1.2496(12) -0.0229(6)
H1 H 0.3879 1.3371 -0.0718
C1 C 0.2377(9) 1.1305(17) -0.1360(9)
H3 H 0.2669 1.1930 -0.2000
C3 C 0.1215(11) 1.2096(19) -0.1111(10)
H5 H 0.1065 1.2175 -0.0358
H6 H 0.0849 1.3184 -0.1572
C5 C 0.1341(8) 1.0020(18) -0.1580(8)
C7 C 0.0806(9) 0.8838(16) -0.2435(8)
C9 C 0.1018(9) 0.8302(18) -0.3543(9)
C11 C -0.0147(9) 0.9117(19) -0.3318(9)
H9 H -0.0351 1.0537 -0.3546
H10 H -0.0790 0.8135 -0.3356
C13 C 0.1019(11) 0.7842(18) -0.1385(10)
H13 H 0.1635 0.6807 -0.1285
H14 H 0.0359 0.7589 -0.0977
C15 C 0.3271(9) 1.0750(16) -0.0496(8)
H17 H 0.2910 1.0285 0.0135
H18 H 0.3741 0.9609 -0.0731
Br2 Br -0.17599(10) 1.46009(18) -0.22641(10)
Br4 Br -0.23810(11) 1.0275(2) -0.12738(8)
O2 O -0.5671(7) 1.6090(12) -0.1186(6)
H2 H -0.5064 1.6723 -0.1003
C2 C -0.4920(10) 1.5874(17) -0.2900(9)
H4 H -0.4245 1.6788 -0.2734
C4 C -0.5149(11) 1.513(2) -0.4054(9)
H7 H -0.5950 1.4935 -0.4346
H8 H -0.4632 1.5615 -0.4571
C6 C -0.4686(10) 1.374(2) -0.3214(9)
C8 C -0.3765(10) 1.2221(17) -0.3018(9)
C10 C -0.2649(9) 1.2103(18) -0.2454(9)
C12 C -0.2821(9) 1.1232(18) -0.3550(8)
H11 H -0.2830 0.9717 -0.3629
H12 H -0.2502 1.1998 -0.4127
C14 C -0.4938(9) 1.1628(17) -0.2772(9)
H15 H -0.5083 1.1537 -0.2018
H16 H -0.5368 1.0637 -0.3250
C16 C -0.5931(9) 1.6255(18) -0.2288(9)
H19 H -0.6232 1.7650 -0.2458
H20 H -0.6536 1.5254 -0.2520
loop_
_geom_bond_atom_site_label_1
_geom_bond_atom_site_label_2
_geom_bond_site_symmetry_1
_geom_bond_site_symmetry_2
Br1 C9 1_555 1_555
Br2 C10 1_555 1_555
Br3 C9 1_555 1_555
Br4 C10 1_555 1_555
O1 H1 1_555 1_555
O2 H2 1_555 1_555
C1 H3 1_555 1_555
C2 H4 1_555 1_555
C3 C1 1_555 1_555
H5 C3 1_555 1_555
H6 C3 1_555 1_555
C4 C2 1_555 1_555
H7 C4 1_555 1_555
H8 C4 1_555 1_555
C5 C1 1_555 1_555
C6 C2 1_555 1_555
C7 C5 1_555 1_555
C8 C6 1_555 1_555
C9 C7 1_555 1_555
C10 C8 1_555 1_555
C11 C7 1_555 1_555
H9 C11 1_555 1_555
H10 C11 1_555 1_555
C12 C8 1_555 1_555
H11 C12 1_555 1_555
H12 C12 1_555 1_555
C13 C5 1_555 1_555
H13 C13 1_555 1_555
H14 C13 1_555 1_555
C14 C6 1_555 1_555
H15 C14 1_555 1_555
H16 C14 1_555 1_555
C15 O1 1_555 1_555
H17 C15 1_555 1_555
H18 C15 1_555 1_555
C16 O2 1_555 1_555
H19 C16 1_555 1_555
H20 C16 1_555 1_555
C1 C15 1_555 1_555
C2 C16 1_555 1_555
C3 C5 1_555 1_555
C4 C6 1_555 1_555
C7 C13 1_555 1_555
C8 C14 1_555 1_555
C9 C11 1_555 1_555
C10 C12 1_555 1_555

#END
