
#######################################################################
#
#                 Cambridge Crystallographic Data Centre
#                                CCDC 
#
#######################################################################
#
# If this CIF has been generated from an entry in the Cambridge 
# Structural Database, then it will include bibliographic, chemical, 
# crystal, experimental, refinement or atomic coordinate data resulting 
# from the CCDC's data processing and validation procedures.
#
#######################################################################

data_FESBUD
_chemical_name_common            '1,1 ,8-epi-psiguadial B'
_chemical_formula_moiety         'C30 H34 O5'
_chemical_name_systematic        
7,9-dihydroxy-2,2,13-trimethyl-10-phenyl-2,2a,3,4,10,10a,11,12,13,13a-decahydro-1H-4a,13-methanobenzo[b]cyclobuta[5,6]cyclonona[1,2-e]pyran-6,8-dicarbaldehyde
_symmetry_cell_setting           monoclinic
_symmetry_space_group_name_H-M   'I 2'
_symmetry_Int_Tables_number      5
_space_group_name_Hall           'I 2y'
loop_
_symmetry_equiv_pos_site_id
_symmetry_equiv_pos_as_xyz
1 x,y,z
2 -x,y,-z
3 1/2+x,1/2+y,1/2+z
4 1/2-x,1/2+y,1/2-z
_cell_length_a                   22.7494(4)
_cell_length_b                   6.58259(13)
_cell_length_c                   16.4137(3)
_cell_angle_alpha                90
_cell_angle_beta                 98.7311(16)
_cell_angle_gamma                90
_cell_volume                     2429.47
_exptl_crystal_colour            colorless
_exptl_crystal_description       needle
_cell_formula_units_Z            4
loop_
_atom_site_label
_atom_site_type_symbol
_atom_site_fract_x
_atom_site_fract_y
_atom_site_fract_z
O1 O 0.29455(6) 0.3518(2) -0.20086(8)
H1 H 0.2856(13) 0.369(5) -0.256(2)
O2 O 0.28731(6) 0.4809(2) -0.34927(8)
O3 O 0.37328(6) 0.9890(2) -0.26274(8)
H2 H 0.3990(15) 1.083(6) -0.231(2)
O4 O 0.43711(6) 1.1794(2) -0.14331(8)
O5 O 0.39108(6) 0.76739(19) 0.01386(7)
C1 C 0.34113(7) 0.5504(3) -0.09164(10)
C2 C 0.32266(7) 0.5244(3) -0.17626(10)
C3 C 0.33236(7) 0.6728(3) -0.23522(10)
C4 C 0.36273(7) 0.8507(3) -0.20736(10)
C5 C 0.38451(7) 0.8785(3) -0.12282(10)
C6 C 0.37215(7) 0.7262(3) -0.06603(10)
C7 C 0.31223(7) 0.6386(3) -0.32217(10)
H3 H 0.3200(9) 0.743(4) -0.3593(14)
C8 C 0.42386(8) 1.0444(3) -0.09699(10)
H4 H 0.4418(11) 1.050(4) -0.0385(15)
C9 C 0.32887(7) 0.3948(3) -0.02936(10)
H5 H 0.3303(10) 0.267(4) -0.0567(14)
C10 C 0.26670(8) 0.4179(3) -0.00586(10)
C11 C 0.23628(8) 0.6027(3) -0.01313(11)
H6 H 0.2535(11) 0.715(4) -0.0324(15)
C12 C 0.17882(9) 0.6169(4) 0.00635(13)
H7 H 0.1598(16) 0.745(6) 0.002(2)
C13 C 0.15090(9) 0.4476(5) 0.03215(13)
H8 H 0.1123(15) 0.456(6) 0.049(2)
C14 C 0.18032(9) 0.2625(4) 0.03808(12)
H9 H 0.1618(12) 0.138(5) 0.0561(17)
C15 C 0.23769(9) 0.2475(3) 0.01868(11)
H10 H 0.2570(11) 0.124(5) 0.0194(14)
C16 C 0.40146(7) 0.6039(3) 0.07757(9)
C17 C 0.47048(7) 0.6120(3) 0.10570(10)
H11 H 0.4889(11) 0.490(4) 0.0897(15)
H12 H 0.4848(12) 0.710(5) 0.0699(18)
C18 C 0.49655(8) 0.6502(3) 0.19627(10)
H13 H 0.5401(11) 0.638(4) 0.2006(14)
H14 H 0.4891(11) 0.794(5) 0.2127(16)
C19 C 0.47301(7) 0.4989(3) 0.25274(10)
H15 H 0.4723(10) 0.357(4) 0.2265(15)
C20 C 0.49691(8) 0.4697(3) 0.34639(10)
C21 C 0.43083(8) 0.4234(3) 0.35659(10)
H16 H 0.4215(10) 0.278(4) 0.3477(15)
H17 H 0.4173(10) 0.470(4) 0.4069(15)
C22 C 0.41167(7) 0.5444(3) 0.27571(9)
H18 H 0.4117(11) 0.688(4) 0.2928(16)
C23 C 0.35639(7) 0.5128(3) 0.21132(10)
C24 C 0.34799(8) 0.2956(3) 0.17754(10)
H19 H 0.3071(11) 0.284(4) 0.1591(14)
H20 H 0.3579(11) 0.199(4) 0.2252(16)
C25 C 0.38317(8) 0.2368(3) 0.10805(10)
H21 H 0.4240(10) 0.206(4) 0.1310(14)
H22 H 0.3671(10) 0.109(4) 0.0831(15)
C26 C 0.38400(7) 0.3959(3) 0.03949(10)
H23 H 0.4154(10) 0.354(3) 0.0078(13)
C27 C 0.36112(7) 0.6652(3) 0.14046(10)
H24 H 0.3228(11) 0.684(4) 0.1097(15)
H25 H 0.3737(10) 0.793(4) 0.1640(14)
C28 C 0.54109(9) 0.2976(4) 0.36785(12)
H26 H 0.5807(12) 0.326(4) 0.3517(16)
H27 H 0.5264(12) 0.165(5) 0.3398(16)
H28 H 0.5476(13) 0.269(5) 0.4273(19)
C29 C 0.52083(9) 0.6658(4) 0.38885(11)
H29 H 0.5590(13) 0.705(5) 0.3671(18)
H30 H 0.5327(12) 0.651(5) 0.4505(18)
H31 H 0.4930(12) 0.773(5) 0.3814(16)
C30 C 0.30145(8) 0.5707(3) 0.25052(11)
H32 H 0.2967(10) 0.482(4) 0.2986(14)
H33 H 0.2660(12) 0.560(4) 0.2106(16)
H34 H 0.3048(10) 0.710(4) 0.2738(14)
loop_
_geom_bond_atom_site_label_1
_geom_bond_atom_site_label_2
_geom_bond_site_symmetry_1
_geom_bond_site_symmetry_2
O1 H1 1_555 1_555
O2 C7 1_555 1_555
O3 H2 1_555 1_555
O4 C8 1_555 1_555
O5 C6 1_555 1_555
C1 C2 1_555 1_555
C2 O1 1_555 1_555
C3 C2 1_555 1_555
C4 O3 1_555 1_555
C5 C4 1_555 1_555
C6 C1 1_555 1_555
C7 C3 1_555 1_555
H3 C7 1_555 1_555
C8 C5 1_555 1_555
H4 C8 1_555 1_555
C9 C1 1_555 1_555
H5 C9 1_555 1_555
C10 C9 1_555 1_555
C11 C10 1_555 1_555
H6 C11 1_555 1_555
C12 C11 1_555 1_555
H7 C12 1_555 1_555
C13 C12 1_555 1_555
H8 C13 1_555 1_555
C14 C13 1_555 1_555
H9 C14 1_555 1_555
C15 C10 1_555 1_555
H10 C15 1_555 1_555
C16 O5 1_555 1_555
C17 C16 1_555 1_555
H11 C17 1_555 1_555
H12 C17 1_555 1_555
C18 C17 1_555 1_555
H13 C18 1_555 1_555
H14 C18 1_555 1_555
C19 C18 1_555 1_555
H15 C19 1_555 1_555
C20 C19 1_555 1_555
C21 C20 1_555 1_555
H16 C21 1_555 1_555
H17 C21 1_555 1_555
C22 C19 1_555 1_555
H18 C22 1_555 1_555
C23 C22 1_555 1_555
C24 C23 1_555 1_555
H19 C24 1_555 1_555
H20 C24 1_555 1_555
C25 C24 1_555 1_555
H21 C25 1_555 1_555
H22 C25 1_555 1_555
C26 C9 1_555 1_555
H23 C26 1_555 1_555
C27 C16 1_555 1_555
H24 C27 1_555 1_555
H25 C27 1_555 1_555
C28 C20 1_555 1_555
H26 C28 1_555 1_555
H27 C28 1_555 1_555
H28 C28 1_555 1_555
C29 C20 1_555 1_555
H29 C29 1_555 1_555
H30 C29 1_555 1_555
H31 C29 1_555 1_555
C30 C23 1_555 1_555
H32 C30 1_555 1_555
H33 C30 1_555 1_555
H34 C30 1_555 1_555
C3 C4 1_555 1_555
C5 C6 1_555 1_555
C14 C15 1_555 1_555
C16 C26 1_555 1_555
C21 C22 1_555 1_555
C23 C27 1_555 1_555
C25 C26 1_555 1_555

#END
