
#######################################################################
#
#                 Cambridge Crystallographic Data Centre
#                                CCDC 
#
#######################################################################
#
# If this CIF has been generated from an entry in the Cambridge 
# Structural Database, then it will include bibliographic, chemical, 
# crystal, experimental, refinement or atomic coordinate data resulting 
# from the CCDC's data processing and validation procedures.
#
#######################################################################

data_FESQEC
_chemical_formula_moiety         'C23 H25 N1 O4 S1'
_chemical_name_systematic        
7-methoxy-3-((4-methylphenyl)sulfonyl)-2,3-dihydrospiro[3-benzazepine-1,1'-cyclohex[2]en]-4(5H)-one
_symmetry_cell_setting           monoclinic
_symmetry_space_group_name_H-M   'P 21/c'
_symmetry_Int_Tables_number      14
_space_group_name_Hall           '-P 2ybc'
loop_
_symmetry_equiv_pos_site_id
_symmetry_equiv_pos_as_xyz
1 x,y,z
2 -x,1/2+y,1/2-z
3 -x,-y,-z
4 x,1/2-y,1/2+z
_cell_length_a                   8.1794(7)
_cell_length_b                   33.379(3)
_cell_length_c                   7.7820(7)
_cell_angle_alpha                90
_cell_angle_beta                 104.036(4)
_cell_angle_gamma                90
_cell_volume                     2061.21
_exptl_crystal_colour            colorless
_exptl_crystal_description       prism
_cell_formula_units_Z            4
loop_
_atom_site_label
_atom_site_type_symbol
_atom_site_fract_x
_atom_site_fract_y
_atom_site_fract_z
C1 C -0.1188(3) 0.31535(7) 0.8774(3)
C2 C -0.2760(3) 0.33029(7) 0.7958(3)
H1 H -0.2877 0.3571 0.7531
C3 C -0.4156(3) 0.30604(7) 0.7770(3)
H2 H -0.5234 0.3162 0.7191
C4 C -0.4015(3) 0.26678(7) 0.8417(3)
C5 C -0.5555(4) 0.24096(8) 0.8219(4)
H3 H -0.5849 0.2300 0.7099
H4 H -0.6545 0.2559 0.8304
H5 H -0.5356 0.2201 0.9159
C6 C -0.2416(3) 0.25278(8) 0.9233(3)
H6 H -0.2295 0.2262 0.9681
C7 C -0.1002(3) 0.27630(7) 0.9411(3)
H7 H 0.0081 0.2660 0.9961
C8 C 0.1111(3) 0.34173(7) 0.6097(3)
C9 C 0.1475(3) 0.36189(7) 0.4492(3)
H8 H 0.0490 0.3785 0.3917
H9 H 0.1613 0.3410 0.3635
C10 C 0.3046(3) 0.38843(6) 0.4896(3)
C11 C 0.4246(3) 0.37922(7) 0.3938(3)
H10 H 0.4057 0.3571 0.3149
C12 C 0.5696(3) 0.40168(7) 0.4117(3)
C13 C 0.6712(4) 0.36082(9) 0.2075(4)
H11 H 0.7679 0.3588 0.1543
H12 H 0.5679 0.3644 0.1140
H13 H 0.6624 0.3363 0.2737
C14 C 0.5954(3) 0.43455(7) 0.5238(3)
H14 H 0.6925 0.4509 0.5344
C15 C 0.4792(3) 0.44331(7) 0.6196(3)
H15 H 0.4991 0.4658 0.6966
C16 C 0.3323(3) 0.42059(6) 0.6090(3)
C17 C 0.2166(3) 0.43497(6) 0.7264(3)
C18 C 0.1641(3) 0.47802(7) 0.6725(4)
H16 H 0.1331 0.4844 0.5499
C19 C 0.1595(5) 0.50707(8) 0.7883(4)
H17 H 0.1059 0.5315 0.7441
C20 C 0.2324(4) 0.50392(9) 0.9815(4)
H18 H 0.1604 0.5188 1.0450
H19 H 0.3455 0.5164 1.0111
C21 C 0.2471(5) 0.46087(9) 1.0433(4)
H20 H 0.3228 0.4596 1.1635
H21 H 0.1346 0.4513 1.0513
C22 C 0.3131(3) 0.43368(7) 0.9240(3)
H22 H 0.3103 0.4059 0.9674
H23 H 0.4325 0.4406 0.9325
C23 C 0.0516(3) 0.41106(7) 0.6997(3)
H24 H -0.0154 0.4224 0.7784
H25 H -0.0142 0.4148 0.5761
N1 N 0.0735(2) 0.36766(5) 0.7352(2)
O1 O 0.0069(2) 0.38168(5) 1.0230(2)
O2 O 0.2040(2) 0.32659(6) 1.0086(2)
O3 O 0.1140(2) 0.30579(5) 0.6307(2)
O4 O 0.6935(2) 0.39415(6) 0.3244(2)
S1 S 0.05429(8) 0.348191(19) 0.92952(7)
loop_
_geom_bond_atom_site_label_1
_geom_bond_atom_site_label_2
_geom_bond_site_symmetry_1
_geom_bond_site_symmetry_2
C1 C2 1_555 1_555
C2 H1 1_555 1_555
C3 C2 1_555 1_555
H2 C3 1_555 1_555
C4 C3 1_555 1_555
C5 C4 1_555 1_555
H3 C5 1_555 1_555
H4 C5 1_555 1_555
H5 C5 1_555 1_555
C6 C4 1_555 1_555
H6 C6 1_555 1_555
C7 C1 1_555 1_555
H7 C7 1_555 1_555
C8 C9 1_555 1_555
C9 H8 1_555 1_555
H9 C9 1_555 1_555
C10 C9 1_555 1_555
C11 C10 1_555 1_555
H10 C11 1_555 1_555
C12 C11 1_555 1_555
C13 H11 1_555 1_555
H12 C13 1_555 1_555
H13 C13 1_555 1_555
C14 C12 1_555 1_555
H14 C14 1_555 1_555
C15 C14 1_555 1_555
H15 C15 1_555 1_555
C16 C10 1_555 1_555
C17 C16 1_555 1_555
C18 C17 1_555 1_555
H16 C18 1_555 1_555
C19 C18 1_555 1_555
H17 C19 1_555 1_555
C20 C19 1_555 1_555
H18 C20 1_555 1_555
H19 C20 1_555 1_555
C21 C20 1_555 1_555
H20 C21 1_555 1_555
H21 C21 1_555 1_555
C22 C17 1_555 1_555
H22 C22 1_555 1_555
H23 C22 1_555 1_555
C23 C17 1_555 1_555
H24 C23 1_555 1_555
H25 C23 1_555 1_555
N1 C8 1_555 1_555
O1 S1 1_555 1_555
O2 S1 1_555 1_555
O3 C8 1_555 1_555
O4 C12 1_555 1_555
S1 C1 1_555 1_555
C6 C7 1_555 1_555
C13 O4 1_555 1_555
C15 C16 1_555 1_555
C21 C22 1_555 1_555
C23 N1 1_555 1_555
N1 S1 1_555 1_555

#END
