
#######################################################################
#
#                 Cambridge Crystallographic Data Centre
#                                CCDC 
#
#######################################################################
#
# If this CIF has been generated from an entry in the Cambridge 
# Structural Database, then it will include bibliographic, chemical, 
# crystal, experimental, refinement or atomic coordinate data resulting 
# from the CCDC's data processing and validation procedures.
#
#######################################################################

data_FESVUU
_chemical_formula_moiety         'C42 H37 N7 P4,C1 S2'
_chemical_name_systematic        
'N,N-bis(2-Anilino-1,3-diphenyl-1,3,2,4-diazadiphosphetidin-4-yl)aniline carbon disulfide solvate'
_symmetry_cell_setting           monoclinic
_symmetry_space_group_name_H-M   'P 21/c'
_symmetry_Int_Tables_number      14
_space_group_name_Hall           '-P 2ybc'
loop_
_symmetry_equiv_pos_site_id
_symmetry_equiv_pos_as_xyz
1 x,y,z
2 -x,1/2+y,1/2-z
3 -x,-y,-z
4 x,1/2-y,1/2+z
_cell_length_a                   15.297(2)
_cell_length_b                   18.598(3)
_cell_length_c                   15.480(2)
_cell_angle_alpha                90
_cell_angle_beta                 102.61(1)
_cell_angle_gamma                90
_cell_volume                     4297.73
_cell_formula_units_Z            4
loop_
_atom_site_label
_atom_site_type_symbol
_atom_site_fract_x
_atom_site_fract_y
_atom_site_fract_z
P1 P 0.09093(18) 0.20909(12) -0.00096(14)
P2 P 0.06240(16) 0.07211(11) -0.04381(13)
P3 P 0.13576(16) -0.06099(11) -0.09267(14)
P4 P 0.27328(17) -0.12751(12) -0.13262(15)
N1 N 0.1929(5) 0.2382(3) -0.0077(4)
N2 N 0.0580(4) 0.1556(3) -0.0931(3)
N3 N 0.1111(4) 0.1241(3) 0.0448(4)
N4 N 0.1491(4) 0.0297(3) -0.0776(4)
N5 N 0.1797(4) -0.0790(3) -0.1832(4)
N6 N 0.2373(4) -0.0971(3) -0.0420(4)
N7 N 0.3583(5) -0.0741(4) -0.1396(5)
C2 C 0.2298(5) 0.3040(3) 0.0262(4)
C3 C 0.3197(5) 0.3171(4) 0.0279(4)
C4 C 0.3586(4) 0.3820(5) 0.0608(5)
C5 C 0.3075(6) 0.4338(3) 0.0919(5)
C6 C 0.2176(5) 0.4208(3) 0.0902(4)
C7 C 0.1787(4) 0.3558(4) 0.0573(4)
C8 C 0.0097(3) 0.17410(27) -0.17830(26)
C9 C -0.0301(4) 0.12040(20) -0.2364(3)
C10 C -0.0746(4) 0.13806(26) -0.3221(3)
C11 C -0.0793(4) 0.2094(3) -0.34975(26)
C12 C -0.0396(4) 0.26312(21) -0.2917(4)
C13 C 0.0049(4) 0.24546(23) -0.2060(3)
C14 C 0.1438(4) 0.10589(29) 0.13418(26)
C15 C 0.1603(4) 0.03452(24) 0.1596(3)
C16 C 0.1942(4) 0.01753(23) 0.2481(4)
C17 C 0.2116(4) 0.0719(3) 0.31130(26)
C18 C 0.1951(4) 0.14328(28) 0.2859(3)
C19 C 0.1612(4) 0.16027(21) 0.1974(4)
C20 C 0.2276(3) 0.06699(28) -0.0887(4)
C21 C 0.3017(4) 0.0723(3) -0.01849(28)
C22 C 0.3772(4) 0.1102(4) -0.0289(4)
C23 C 0.3785(4) 0.1428(3) -0.1096(5)
C24 C 0.3044(5) 0.1374(3) -0.1798(3)
C25 C 0.2290(4) 0.0995(3) -0.1693(3)
C26 C 0.1373(4) -0.08166(29) -0.27325(26)
C27 C 0.0485(4) -0.0598(3) -0.3003(3)
C28 C 0.00583(29) -0.0634(3) -0.3894(4)
C29 C 0.0520(4) -0.0887(3) -0.45135(26)
C30 C 0.1407(4) -0.1106(3) -0.4243(3)
C31 C 0.18340(28) -0.1070(3) -0.3352(4)
C32 C 0.2623(4) -0.1255(3) 0.0449(3)
C33 C 0.3506(4) -0.1180(3) 0.0914(5)
C34 C 0.3766(4) -0.1450(4) 0.1770(4)
C35 C 0.3144(5) -0.1795(4) 0.2161(3)
C36 C 0.2261(5) -0.1870(3) 0.1696(4)
C37 C 0.2001(3) -0.1600(3) 0.0840(4)
C38 C 0.4323(4) -0.0945(5) -0.1720(4)
C39 C 0.4826(6) -0.0410(3) -0.2011(5)
C40 C 0.5587(6) -0.0592(6) -0.2319(6)
C41 C 0.5845(5) -0.1308(7) -0.2336(6)
C42 C 0.5342(7) -0.1843(4) -0.2044(6)
C43 C 0.4581(6) -0.1662(4) -0.1737(5)
C1 C -0.3799(13) 0.3638(9) 0.0067(12)
S1 S -0.3802(11) 0.4343(7) 0.0573(10)
S2 S -0.3773(10) 0.2982(6) -0.0325(12)
loop_
_geom_bond_atom_site_label_1
_geom_bond_atom_site_label_2
_geom_bond_site_symmetry_1
_geom_bond_site_symmetry_2
P1 N1 1_555 1_555
P2 N2 1_555 1_555
P3 N4 1_555 1_555
P4 N5 1_555 1_555
N1 C2 1_555 1_555
N2 P1 1_555 1_555
N3 P1 1_555 1_555
N4 P2 1_555 1_555
N5 P3 1_555 1_555
N6 P3 1_555 1_555
N7 P4 1_555 1_555
C1 S1 1_555 1_555
S2 C1 1_555 1_555
C2 C3 1_555 1_555
C3 C4 1_555 1_555
C4 C5 1_555 1_555
C5 C6 1_555 1_555
C6 C7 1_555 1_555
C7 C2 1_555 1_555
C8 N2 1_555 1_555
C9 C8 1_555 1_555
C10 C9 1_555 1_555
C11 C10 1_555 1_555
C12 C11 1_555 1_555
C13 C8 1_555 1_555
C14 N3 1_555 1_555
C15 C14 1_555 1_555
C16 C15 1_555 1_555
C17 C16 1_555 1_555
C18 C17 1_555 1_555
C19 C14 1_555 1_555
C20 N4 1_555 1_555
C21 C20 1_555 1_555
C22 C21 1_555 1_555
C23 C22 1_555 1_555
C24 C23 1_555 1_555
C25 C20 1_555 1_555
C26 N5 1_555 1_555
C27 C26 1_555 1_555
C28 C27 1_555 1_555
C29 C28 1_555 1_555
C30 C29 1_555 1_555
C31 C26 1_555 1_555
C32 N6 1_555 1_555
C33 C32 1_555 1_555
C34 C33 1_555 1_555
C35 C34 1_555 1_555
C36 C35 1_555 1_555
C37 C32 1_555 1_555
C38 N7 1_555 1_555
C39 C38 1_555 1_555
C40 C39 1_555 1_555
C41 C40 1_555 1_555
C42 C41 1_555 1_555
C43 C38 1_555 1_555
P2 N3 1_555 1_555
P4 N6 1_555 1_555
C12 C13 1_555 1_555
C18 C19 1_555 1_555
C24 C25 1_555 1_555
C30 C31 1_555 1_555
C36 C37 1_555 1_555
C42 C43 1_555 1_555

#END
