
#######################################################################
#
#                 Cambridge Crystallographic Data Centre
#                                CCDC 
#
#######################################################################
#
# If this CIF has been generated from an entry in the Cambridge 
# Structural Database, then it will include bibliographic, chemical, 
# crystal, experimental, refinement or atomic coordinate data resulting 
# from the CCDC's data processing and validation procedures.
#
#######################################################################

data_FESYIM
_chemical_formula_moiety         'C8 H5 N1 O6,2(H2 O1)'
_chemical_name_systematic        '2,4,6-Tripicolinic acid dihydrate'
_symmetry_cell_setting           monoclinic
_symmetry_space_group_name_H-M   'P 21/c'
_symmetry_Int_Tables_number      14
_space_group_name_Hall           '-P 2ybc'
loop_
_symmetry_equiv_pos_site_id
_symmetry_equiv_pos_as_xyz
1 x,y,z
2 -x,1/2+y,1/2-z
3 -x,-y,-z
4 x,1/2-y,1/2+z
_cell_length_a                   19.251(10)
_cell_length_b                   9.407(5)
_cell_length_c                   11.879(6)
_cell_angle_alpha                90
_cell_angle_beta                 107.920(8)
_cell_angle_gamma                90
_cell_volume                     2046.86
_exptl_crystal_colour            white
_exptl_crystal_description       prism
_chemical_melting_point          '228 deg.C'
_cell_formula_units_Z            8
loop_
_atom_site_label
_atom_site_type_symbol
_atom_site_fract_x
_atom_site_fract_y
_atom_site_fract_z
C1 C 0.3950(3) 0.6429(5) 0.9401(5)
C2 C 0.3547(3) 0.6535(6) 0.8219(5)
H1 H 0.3390 0.5722 0.7768
C3 C 0.3378(3) 0.7885(6) 0.7710(5)
C4 C 0.3635(3) 0.9038(6) 0.8417(5)
H2 H 0.3558 0.9946 0.8093
C5 C 0.4007(3) 0.8874(6) 0.9609(5)
C6 C 0.4157(3) 0.5028(6) 1.0020(6)
C7 C 0.2955(3) 0.8136(6) 0.6432(6)
C8 C 0.4227(3) 1.0157(5) 1.0351(6)
N1 N 0.4178(2) 0.7599(4) 1.0099(3)
O1 O 0.4509(2) 0.4866(4) 1.1006(4)
O2 O 0.3884(3) 0.3950(4) 0.9261(4)
H5 H 0.3610 0.3467 0.9513
O3 O 0.2697(2) 0.6977(5) 0.5883(4)
H6 H 0.2454 0.7163 0.5201
O4 O 0.2870(2) 0.9315(5) 0.5992(4)
O5 O 0.4152(3) 1.1319(5) 0.9923(4)
O6 O 0.4522(3) 0.9915(5) 1.1492(4)
H7 H 0.4723 1.0641 1.1818
C9 C 0.0985(3) 0.1257(6) 1.0567(5)
C10 C 0.1368(3) 0.1006(7) 0.9797(5)
H3 H 0.1457 0.0083 0.9597
C11 C 0.1616(3) 0.2151(7) 0.9326(5)
C12 C 0.1462(3) 0.3521(7) 0.9680(4)
H4 H 0.1626 0.4325 0.9383
C13 C 0.1058(3) 0.3667(6) 1.0485(5)
C14 C 0.0743(3) -0.0071(5) 1.1108(5)
C15 C 0.2053(3) 0.1902(6) 0.8471(5)
C16 C 0.0862(3) 0.5059(6) 1.0851(5)
N2 N 0.0824(2) 0.2506(5) 1.0920(3)
O7 O 0.0482(3) 0.0126(4) 1.1964(5)
H8 H 0.0430 -0.0643 1.2253
O8 O 0.0814(3) -0.1252(5) 1.0751(5)
O9 O 0.2118(2) 0.0729(5) 0.8136(4)
O10 O 0.2306(2) 0.3077(5) 0.8163(4)
H9 H 0.2563 0.2889 0.7746
O11 O 0.1141(2) 0.6097(4) 1.0405(4)
H10 H 0.0996 0.6858 1.0586
O12 O 0.0486(2) 0.5194(4) 1.1481(4)
O13 O 0.4717(2) 0.2400(5) 0.2516(3)
O14 O 0.0280(2) 0.7668(5) 0.2795(4)
O15 O 0.1893(2) 0.7240(5) 0.3658(3)
O16 O 0.3100(2) 0.2378(6) 0.6753(4)
loop_
_geom_bond_atom_site_label_1
_geom_bond_atom_site_label_2
_geom_bond_site_symmetry_1
_geom_bond_site_symmetry_2
C1 C2 1_555 1_555
C2 H1 1_555 1_555
C3 C2 1_555 1_555
C4 C3 1_555 1_555
H2 C4 1_555 1_555
C5 C4 1_555 1_555
C6 C1 1_555 1_555
C7 C3 1_555 1_555
C8 C5 1_555 1_555
C9 C10 1_555 1_555
C10 H3 1_555 1_555
C11 C10 1_555 1_555
C12 C11 1_555 1_555
H4 C12 1_555 1_555
C13 C12 1_555 1_555
C14 C9 1_555 1_555
C15 C11 1_555 1_555
C16 C13 1_555 1_555
N1 C1 1_555 1_555
N2 C9 1_555 1_555
O1 C6 1_555 1_555
O2 C6 1_555 1_555
H5 O2 1_555 1_555
O3 C7 1_555 1_555
H6 O3 1_555 1_555
O4 C7 1_555 1_555
O5 C8 1_555 1_555
O6 C8 1_555 1_555
H7 O6 1_555 1_555
O7 C14 1_555 1_555
H8 O7 1_555 1_555
O8 C14 1_555 1_555
O9 C15 1_555 1_555
O10 C15 1_555 1_555
H9 O10 1_555 1_555
O11 C16 1_555 1_555
H10 O11 1_555 1_555
O12 C16 1_555 1_555
C5 N1 1_555 1_555
C13 N2 1_555 1_555

#END
