
#######################################################################
#
#                 Cambridge Crystallographic Data Centre
#                                CCDC 
#
#######################################################################
#
# If this CIF has been generated from an entry in the Cambridge 
# Structural Database, then it will include bibliographic, chemical, 
# crystal, experimental, refinement or atomic coordinate data resulting 
# from the CCDC's data processing and validation procedures.
#
#######################################################################

data_FEVGUK
_chemical_formula_moiety         'C20 H9 I1 N4'
_chemical_name_systematic        
2-(4-Iodophenyl)-3-phenylbuta-1,3-diene-1,1,4,4-tetracarbonitrile
_symmetry_cell_setting           triclinic
_symmetry_space_group_name_H-M   'P -1'
_symmetry_Int_Tables_number      2
_space_group_name_Hall           '-P 1'
loop_
_symmetry_equiv_pos_site_id
_symmetry_equiv_pos_as_xyz
1 x,y,z
2 -x,-y,-z
_cell_length_a                   7.7053(3)
_cell_length_b                   10.0560(4)
_cell_length_c                   12.6690(6)
_cell_angle_alpha                112.356(2)
_cell_angle_beta                 97.574(2)
_cell_angle_gamma                101.387(2)
_cell_volume                     866.513
_exptl_crystal_description       prism
_cell_formula_units_Z            2
loop_
_atom_site_label
_atom_site_type_symbol
_atom_site_fract_x
_atom_site_fract_y
_atom_site_fract_z
I1 I 0.248370(13) 1.067974(10) 0.454263(9)
N1 N -0.1045(2) 0.28243(17) 0.31891(15)
N2 N 0.2080(2) 0.00993(19) 0.12006(17)
N3 N 0.8688(2) 0.41996(18) 0.09729(15)
N4 N 0.7163(2) 0.58568(17) 0.43168(15)
C1 C 0.1731(2) 0.27592(18) 0.22461(15)
C2 C 0.2895(2) 0.39696(18) 0.22321(14)
C3 C 0.4297(2) 0.36797(17) 0.15281(14)
C4 C 0.6097(2) 0.43260(18) 0.20823(15)
C5 C 0.0217(2) 0.28432(18) 0.28001(16)
C6 C 0.1925(2) 0.12762(19) 0.16645(16)
C7 C 0.2784(2) 0.55183(17) 0.28076(14)
C8 C 0.2271(2) 0.60666(18) 0.38828(15)
H1 H 0.1978 0.5359 0.4325
C9 C 0.2142(2) 0.75277(19) 0.43740(15)
H2 H 0.1753 0.7947 0.5194
C10 C 0.2524(2) 0.84427(17) 0.37903(15)
C11 C 0.3013(2) 0.79071(18) 0.27213(15)
H3 H 0.3261 0.8607 0.2268
C12 C 0.3177(2) 0.64621(19) 0.22448(15)
H4 H 0.3609 0.6063 0.1439
C13 C 0.3674(2) 0.27329(17) 0.02606(14)
C14 C 0.2171(2) 0.29172(19) -0.03624(16)
H5 H 0.1487 0.3721 0.0079
C15 C 0.1572(2) 0.2041(2) -0.15663(17)
H6 H 0.0476 0.2219 -0.2062
C16 C 0.2388(2) 0.0942(2) -0.21216(17)
H7 H 0.1905 0.0260 -0.3042
C17 C 0.3839(2) 0.07193(19) -0.14878(16)
H8 H 0.4432 -0.0159 -0.1916
C18 C 0.4512(2) 0.16310(18) -0.03068(15)
H9 H 0.5667 0.1495 0.0170
C19 C 0.7526(2) 0.42233(18) 0.14486(16)
C20 C 0.6676(2) 0.51781(18) 0.33282(16)
loop_
_geom_bond_atom_site_label_1
_geom_bond_atom_site_label_2
_geom_bond_site_symmetry_1
_geom_bond_site_symmetry_2
I1 C10 1_555 1_555
N1 C5 1_555 1_555
N2 C6 1_555 1_555
N3 C19 1_555 1_555
N4 C20 1_555 1_555
C1 C2 1_555 1_555
C2 C3 1_555 1_555
C3 C4 1_555 1_555
C4 C19 1_555 1_555
C5 C1 1_555 1_555
C6 C1 1_555 1_555
C7 C2 1_555 1_555
C8 C7 1_555 1_555
H1 C8 1_555 1_555
C9 C8 1_555 1_555
H2 C9 1_555 1_555
C10 C9 1_555 1_555
C11 C10 1_555 1_555
H3 C11 1_555 1_555
C12 C7 1_555 1_555
H4 C12 1_555 1_555
C13 C3 1_555 1_555
C14 C13 1_555 1_555
H5 C14 1_555 1_555
C15 C14 1_555 1_555
H6 C15 1_555 1_555
C16 C15 1_555 1_555
H7 C16 1_555 1_555
C17 C16 1_555 1_555
H8 C17 1_555 1_555
C18 C13 1_555 1_555
H9 C18 1_555 1_555
C20 C4 1_555 1_555
C11 C12 1_555 1_555
C17 C18 1_555 1_555

#END
