
#######################################################################
#
#                 Cambridge Crystallographic Data Centre
#                                CCDC 
#
#######################################################################
#
# If this CIF has been generated from an entry in the Cambridge 
# Structural Database, then it will include bibliographic, chemical, 
# crystal, experimental, refinement or atomic coordinate data resulting 
# from the CCDC's data processing and validation procedures.
#
#######################################################################

data_FEVHEV
_chemical_formula_moiety         'C20 H11 N5'
_chemical_name_systematic        
2-(4-Aminophenyl)-3-phenylbuta-1,3-diene-1,1,4,4-tetracarbonitrile
_symmetry_cell_setting           monoclinic
_symmetry_space_group_name_H-M   'P 21/c'
_symmetry_Int_Tables_number      14
_space_group_name_Hall           '-P 2ybc'
loop_
_symmetry_equiv_pos_site_id
_symmetry_equiv_pos_as_xyz
1 x,y,z
2 -x,1/2+y,1/2-z
3 -x,-y,-z
4 x,1/2-y,1/2+z
_cell_length_a                   18.2078(14)
_cell_length_b                   11.0263(7)
_cell_length_c                   7.9975(6)
_cell_angle_alpha                90
_cell_angle_beta                 93.422(3)
_cell_angle_gamma                90
_cell_volume                     1602.75
_exptl_crystal_colour            red
_exptl_crystal_description       plate
_cell_formula_units_Z            4
loop_
_atom_site_label
_atom_site_type_symbol
_atom_site_fract_x
_atom_site_fract_y
_atom_site_fract_z
N1 N 0.69375(8) 0.42230(13) 0.36519(18)
N2 N 0.88942(8) 0.54771(13) 0.62211(18)
N3 N 1.01500(11) 0.2187(2) 1.0871(2)
H1 H 1.063(2) 0.255(3) 1.142(5)
H2 H 1.0192(14) 0.148(3) 1.028(3)
N4 N 0.64198(8) 0.75888(13) 0.93555(19)
N5 N 0.81618(8) 0.70020(13) 1.30688(18)
C1 C 0.71733(9) 0.45388(14) 0.4932(2)
C2 C 0.75301(9) 0.49026(14) 0.65104(19)
C3 C 0.72084(9) 0.48622(13) 0.79952(19)
C4 C 0.76774(8) 0.51614(14) 0.95444(18)
C5 C 0.74753(9) 0.61665(14) 1.04057(19)
C6 C 0.78580(9) 0.66037(14) 1.1895(2)
C7 C 0.82906(10) 0.52394(15) 0.63897(19)
C8 C 0.64365(9) 0.45259(14) 0.81710(19)
C9 C 0.62611(10) 0.37960(15) 0.9515(2)
H3 H 0.6635(10) 0.3542(16) 1.032(2)
C10 C 0.55468(11) 0.34084(18) 0.9657(2)
H4 H 0.5442(9) 0.2890(16) 1.057(2)
C11 C 0.49996(11) 0.3782(2) 0.8507(2)
H5 H 0.4494(9) 0.3399(14) 0.871(2)
C12 C 0.51609(11) 0.4554(2) 0.7217(2)
H6 H 0.4759(11) 0.4872(18) 0.642(3)
C13 C 0.58764(9) 0.49225(18) 0.7031(2)
H7 H 0.5978(8) 0.5491(15) 0.613(2)
C14 C 0.83084(9) 0.43985(14) 0.99596(19)
C15 C 0.89401(9) 0.48135(17) 1.0887(2)
H8 H 0.8966(9) 0.5656(16) 1.129(2)
C16 C 0.95394(10) 0.40804(18) 1.1195(2)
H9 H 0.9975(11) 0.4385(17) 1.183(2)
C17 C 0.95471(10) 0.28918(17) 1.0581(2)
C18 C 0.89194(10) 0.24623(17) 0.9674(2)
H10 H 0.8910(9) 0.1694(17) 0.925(2)
C19 C 0.83212(10) 0.32005(14) 0.9357(2)
H11 H 0.7884(10) 0.2877(15) 0.873(2)
C20 C 0.68795(9) 0.69385(15) 0.98067(19)
loop_
_geom_bond_atom_site_label_1
_geom_bond_atom_site_label_2
_geom_bond_site_symmetry_1
_geom_bond_site_symmetry_2
N1 C1 1_555 1_555
N2 C7 1_555 1_555
N3 H1 1_555 1_555
H2 N3 1_555 1_555
N4 C20 1_555 1_555
N5 C6 1_555 1_555
C1 C2 1_555 1_555
C2 C3 1_555 1_555
C3 C4 1_555 1_555
C4 C5 1_555 1_555
C5 C6 1_555 1_555
C7 C2 1_555 1_555
C8 C3 1_555 1_555
C9 C8 1_555 1_555
H3 C9 1_555 1_555
C10 C9 1_555 1_555
H4 C10 1_555 1_555
C11 C10 1_555 1_555
H5 C11 1_555 1_555
C12 C11 1_555 1_555
H6 C12 1_555 1_555
C13 C8 1_555 1_555
H7 C13 1_555 1_555
C14 C4 1_555 1_555
C15 C14 1_555 1_555
H8 C15 1_555 1_555
C16 C15 1_555 1_555
H9 C16 1_555 1_555
C17 N3 1_555 1_555
C18 C17 1_555 1_555
H10 C18 1_555 1_555
C19 C14 1_555 1_555
H11 C19 1_555 1_555
C20 C5 1_555 1_555
C12 C13 1_555 1_555
C16 C17 1_555 1_555
C18 C19 1_555 1_555

#END
