
#######################################################################
#
#                 Cambridge Crystallographic Data Centre
#                                CCDC 
#
#######################################################################
#
# If this CIF has been generated from an entry in the Cambridge 
# Structural Database, then it will include bibliographic, chemical, 
# crystal, experimental, refinement or atomic coordinate data resulting 
# from the CCDC's data processing and validation procedures.
#
#######################################################################

data_FEVVIO
_chemical_formula_moiety         'C21 H13 F1 N4 O1,0.5(C3 H7 N1 O1),C2 H6 O1'
_chemical_name_systematic        
"7'-fluoro-5H-spiro[benzimidazo[1,2-c]quinazoline-6,3'-indol]-2'(1'H)-one N,N-dimethylformamide ethanol solvate"
_symmetry_cell_setting           triclinic
_symmetry_space_group_name_H-M   'P -1'
_symmetry_Int_Tables_number      2
_space_group_name_Hall           '-P 1'
loop_
_symmetry_equiv_pos_site_id
_symmetry_equiv_pos_as_xyz
1 x,y,z
2 -x,-y,-z
_cell_length_a                   9.0162(4)
_cell_length_b                   10.1140(5)
_cell_length_c                   27.6353(14)
_cell_angle_alpha                82.496(3)
_cell_angle_beta                 81.755(2)
_cell_angle_gamma                65.268(2)
_cell_volume                     2258.25
_exptl_crystal_colour            yellow
_exptl_crystal_description       block
_cell_formula_units_Z            4
loop_
_atom_site_label
_atom_site_type_symbol
_atom_site_fract_x
_atom_site_fract_y
_atom_site_fract_z
O1 O 0.66654(17) 0.24580(17) 0.36394(6)
N1 N 0.3978(2) 0.69983(19) 0.38363(7)
N2 N 0.65962(19) 0.54078(17) 0.37105(6)
N3 N 0.78747(19) 0.45308(19) 0.29490(6)
H1 H 0.8748(19) 0.402(2) 0.2770(7)
N4 N 0.9322(2) 0.1796(2) 0.38077(7)
F1 F 1.26619(17) 0.05537(17) 0.40859(6)
C1 C 0.6381(2) 0.5748(2) 0.41940(7)
C2 C 0.7409(3) 0.5287(3) 0.45680(8)
H2 H 0.8492 0.4611 0.4522
C3 C 0.6743(4) 0.5881(3) 0.50106(9)
H3 H 0.7388 0.5590 0.5271
C4 C 0.5132(4) 0.6902(3) 0.50778(10)
H4 H 0.4730 0.7281 0.5382
C5 C 0.4121(3) 0.7365(3) 0.47097(10)
H5 H 0.3049 0.8061 0.4757
C6 C 0.4752(3) 0.6760(2) 0.42596(8)
C7 C 0.5105(2) 0.6160(2) 0.35197(8)
C8 C 0.4961(2) 0.5996(2) 0.30191(8)
C9 C 0.3498(3) 0.6667(3) 0.28019(9)
H6 H 0.2541 0.7229 0.2985
C10 C 0.3454(3) 0.6508(3) 0.23184(11)
H7 H 0.2466 0.6946 0.2178
C11 C 0.4885(4) 0.5694(3) 0.20407(10)
H8 H 0.4856 0.5602 0.1712
C12 C 0.6355(3) 0.5017(3) 0.22488(9)
H9 H 0.7312 0.4481 0.2060
C13 C 0.6403(2) 0.5140(2) 0.27409(7)
C14 C 0.7960(2) 0.4222(2) 0.34703(7)
C15 C 0.7848(2) 0.2725(2) 0.36524(7)
C16 C 1.0373(2) 0.2506(2) 0.37841(7)
C17 C 1.1949(3) 0.1963(3) 0.39110(9)
C18 C 1.2799(3) 0.2832(3) 0.38544(9)
H10 H 1.3868 0.2457 0.3940
C19 C 1.2062(3) 0.4263(3) 0.36707(9)
H11 H 1.2638 0.4853 0.3635
C20 C 1.0469(3) 0.4840(3) 0.35375(8)
H12 H 0.9977 0.5804 0.3409
C21 C 0.9644(2) 0.3946(2) 0.36005(7)
H13 H 0.961(3) 0.085(3) 0.3872(9)
O2 O -0.18564(16) 0.24104(16) 0.13507(6)
N5 N 0.0063(2) -0.19959(19) 0.10503(7)
N6 N 0.1032(2) -0.04367(17) 0.12368(6)
N7 N 0.0727(2) 0.0324(2) 0.20234(7)
H14 H 0.079(3) 0.089(2) 0.2221(8)
N8 N 0.0219(2) 0.3207(2) 0.12184(8)
F2 F 0.2480(2) 0.46426(18) 0.10388(9)
C22 C 0.1581(2) -0.0680(2) 0.07464(8)
C23 C 0.2522(3) -0.0162(3) 0.03977(9)
H15 H 0.2913 0.0500 0.0469
C24 C 0.2847(4) -0.0681(3) -0.00614(10)
H16 H 0.3479 -0.0364 -0.0304
C25 C 0.2253(4) -0.1666(3) -0.01698(11)
H17 H 0.2494 -0.1992 -0.0483
C26 C 0.1324(3) -0.2163(3) 0.01749(11)
H18 H 0.0930 -0.2820 0.0100
C27 C 0.0979(3) -0.1664(2) 0.06415(9)
C28 C 0.0102(2) -0.1232(2) 0.13945(8)
C29 C -0.0605(2) -0.1210(2) 0.18970(8)
C30 C -0.1496(3) -0.2026(3) 0.20940(10)
H19 H -0.1732 -0.2566 0.1892
C31 C -0.2030(4) -0.2038(3) 0.25877(12)
H20 H -0.2627 -0.2584 0.2718
C32 C -0.1678(3) -0.1240(3) 0.28866(11)
H21 H -0.2030 -0.1262 0.3220
C33 C -0.0819(3) -0.0413(3) 0.27014(9)
H22 H -0.0601 0.0127 0.2907
C34 C -0.0274(2) -0.0385(2) 0.22061(8)
C35 C 0.0976(2) 0.0728(2) 0.15079(7)
C36 C -0.0437(2) 0.2207(2) 0.13458(8)
C37 C 0.1916(2) 0.2563(2) 0.12568(8)
C38 C 0.3022(3) 0.3202(3) 0.11753(10)
C39 C 0.4638(3) 0.2393(3) 0.12430(10)
H23 H 0.5376 0.2833 0.1191
C40 C 0.5167(3) 0.0939(3) 0.13863(9)
H24 H 0.6273 0.0393 0.1425
C41 C 0.4079(2) 0.0253(3) 0.14761(8)
H25 H 0.4439 -0.0735 0.1579
C42 C 0.2457(2) 0.1094(2) 0.14069(7)
H26 H -0.035(4) 0.414(3) 0.1141(11)
O3 O 0.8520(3) 0.6142(2) 0.09680(10)
H27 H 0.897(4) 0.674(3) 0.1004(13)
C43 C 0.6665(10) 0.5988(7) 0.0477(3)
H28 H 0.5756 0.6613 0.0296
H29 H 0.6314 0.5406 0.0730
H30 H 0.7526 0.5360 0.0259
C44 C 0.7229(6) 0.6815(4) 0.0682(2)
H31 H 0.6313 0.7480 0.0882
H32 H 0.7547 0.7406 0.0419
O4 O 1.0494(2) 0.87455(19) 0.39710(8)
H33 H 1.1547(14) 0.824(3) 0.3915(11)
C45 C 0.8273(9) 0.8919(6) 0.4548(3)
H34 H 0.7839 0.8344 0.4778
H35 H 0.7525 0.9416 0.4303
H36 H 0.8416 0.9624 0.4716
C46 C 0.9760(4) 0.8025(3) 0.43260(15)
H37 H 0.9609 0.7285 0.4173
H38 H 1.0503 0.7529 0.4577
O5 O 0.08738(18) 0.25476(19) 0.25178(7)
N9 N 0.3522(2) 0.1775(2) 0.26529(8)
C47 C 0.2133(3) 0.2755(3) 0.25219(10)
H39 H 0.2077 0.3688 0.2423
C48 C 0.4945(3) 0.2137(4) 0.26283(14)
H40 H 0.4640 0.3146 0.2515
H41 H 0.5811 0.1536 0.2405
H42 H 0.5317 0.1967 0.2949
C49 C 0.3707(4) 0.0298(3) 0.28197(12)
H43 H 0.2679 0.0225 0.2820
H44 H 0.4040 0.0066 0.3146
H45 H 0.4524 -0.0373 0.2604
loop_
_geom_bond_atom_site_label_1
_geom_bond_atom_site_label_2
_geom_bond_site_symmetry_1
_geom_bond_site_symmetry_2
O1 C15 1_555 1_555
N1 C6 1_555 1_555
N2 C1 1_555 1_555
N3 H1 1_555 1_555
N4 C15 1_555 1_555
F1 C17 1_555 1_555
C1 C2 1_555 1_555
C2 H2 1_555 1_555
C3 C2 1_555 1_555
H3 C3 1_555 1_555
C4 C3 1_555 1_555
H4 C4 1_555 1_555
C5 C4 1_555 1_555
H5 C5 1_555 1_555
C6 C1 1_555 1_555
C7 N1 1_555 1_555
C8 C7 1_555 1_555
C9 C8 1_555 1_555
H6 C9 1_555 1_555
C10 C9 1_555 1_555
H7 C10 1_555 1_555
C11 C10 1_555 1_555
H8 C11 1_555 1_555
C12 C11 1_555 1_555
H9 C12 1_555 1_555
C13 N3 1_555 1_555
C14 N2 1_555 1_555
C15 C14 1_555 1_555
C16 N4 1_555 1_555
C17 C16 1_555 1_555
C18 C17 1_555 1_555
H10 C18 1_555 1_555
C19 C18 1_555 1_555
H11 C19 1_555 1_555
C20 C19 1_555 1_555
H12 C20 1_555 1_555
C21 C14 1_555 1_555
H13 N4 1_555 1_555
O2 C36 1_555 1_555
N5 C27 1_555 1_555
N6 C22 1_555 1_555
N7 H14 1_555 1_555
N8 C36 1_555 1_555
F2 C38 1_555 1_555
C22 C23 1_555 1_555
C23 H15 1_555 1_555
C24 C23 1_555 1_555
H16 C24 1_555 1_555
C25 C24 1_555 1_555
H17 C25 1_555 1_555
C26 C25 1_555 1_555
H18 C26 1_555 1_555
C27 C22 1_555 1_555
C28 N5 1_555 1_555
C29 C28 1_555 1_555
C30 C29 1_555 1_555
H19 C30 1_555 1_555
C31 C30 1_555 1_555
H20 C31 1_555 1_555
C32 C31 1_555 1_555
H21 C32 1_555 1_555
C33 C32 1_555 1_555
H22 C33 1_555 1_555
C34 N7 1_555 1_555
C35 N6 1_555 1_555
C36 C35 1_555 1_555
C37 N8 1_555 1_555
C38 C37 1_555 1_555
C39 C38 1_555 1_555
H23 C39 1_555 1_555
C40 C39 1_555 1_555
H24 C40 1_555 1_555
C41 C40 1_555 1_555
H25 C41 1_555 1_555
C42 C35 1_555 1_555
H26 N8 1_555 1_555
O3 H27 1_555 1_555
C43 H28 1_555 1_555
H29 C43 1_555 1_555
H30 C43 1_555 1_555
C44 O3 1_555 1_555
H31 C44 1_555 1_555
H32 C44 1_555 1_555
O4 H33 1_555 1_555
C45 H34 1_555 1_555
H35 C45 1_555 1_555
H36 C45 1_555 1_555
C46 O4 1_555 1_555
H37 C46 1_555 1_555
H38 C46 1_555 1_555
O5 C47 1_555 1_555
N9 C47 1_555 1_555
C47 H39 1_555 1_555
C48 N9 1_555 1_555
H40 C48 1_555 1_555
H41 C48 1_555 1_555
H42 C48 1_555 1_555
C49 N9 1_555 1_555
H43 C49 1_555 1_555
H44 C49 1_555 1_555
H45 C49 1_555 1_555
N2 C7 1_555 1_555
N3 C14 1_555 1_555
C5 C6 1_555 1_555
C8 C13 1_555 1_555
C12 C13 1_555 1_555
C16 C21 1_555 1_555
C20 C21 1_555 1_555
N6 C28 1_555 1_555
N7 C35 1_555 1_555
C26 C27 1_555 1_555
C29 C34 1_555 1_555
C33 C34 1_555 1_555
C37 C42 1_555 1_555
C41 C42 1_555 1_555
C43 C44 1_555 1_555
C45 C46 1_555 1_555

#END
