
#######################################################################
#
#                 Cambridge Crystallographic Data Centre
#                                CCDC 
#
#######################################################################
#
# If this CIF has been generated from an entry in the Cambridge 
# Structural Database, then it will include bibliographic, chemical, 
# crystal, experimental, refinement or atomic coordinate data resulting 
# from the CCDC's data processing and validation procedures.
#
#######################################################################

data_FEVXAI
_chemical_formula_moiety         'C16 H14 O2 S8 2+,2(B1 F4 1-)'
_chemical_name_systematic        
'2-(6,7-dimethoxy-2H-[1,3]dithiolo[4,5-b][1,4]benzodithiin-2-ylidene)-4,5-bis(methylsulfanyl)-2H-1,3-dithiole-1,3-diium bis(tetrafluoroborate)'
_symmetry_cell_setting           monoclinic
_symmetry_space_group_name_H-M   'P 21/n'
_symmetry_Int_Tables_number      14
_space_group_name_Hall           '-P 2yn'
loop_
_symmetry_equiv_pos_site_id
_symmetry_equiv_pos_as_xyz
1 x,y,z
2 1/2-x,1/2+y,1/2-z
3 -x,-y,-z
4 1/2+x,1/2-y,1/2+z
_cell_length_a                   10.7366(4)
_cell_length_b                   11.0614(5)
_cell_length_c                   21.0424(11)
_cell_angle_alpha                90
_cell_angle_beta                 101.460(4)
_cell_angle_gamma                90
_cell_volume                     2449.21
_exptl_crystal_colour            green
_exptl_crystal_description       plate
_cell_formula_units_Z            4
loop_
_atom_site_label
_atom_site_type_symbol
_atom_site_fract_x
_atom_site_fract_y
_atom_site_fract_z
S1 S 0.55010(5) 0.74826(6) 0.64135(3)
S2 S 0.41096(5) 0.65189(6) 0.74073(3)
S3 S 0.18793(5) 0.58641(6) 0.64745(3)
S4 S 0.27671(5) 0.69687(6) 0.53591(3)
S5 S 0.26876(5) 0.56393(6) 0.85644(3)
S6 S 0.03196(5) 0.58634(6) 0.76613(3)
S7 S 0.14233(6) 0.53081(6) 0.97070(3)
S8 S -0.12433(5) 0.56852(6) 0.86928(3)
O1 O 0.55683(15) 0.60662(16) 0.37138(8)
O2 O 0.76783(14) 0.62717(16) 0.45440(8)
C1 C 0.4150(2) 0.6829(2) 0.66126(11)
C2 C 0.3057(2) 0.6576(2) 0.61736(11)
C3 C 0.4291(2) 0.6729(2) 0.51768(11)
C4 C 0.4308(2) 0.6400(2) 0.45394(11)
H1 H 0.353302 0.624687 0.424345
C5 C 0.5453(2) 0.6298(2) 0.43378(11)
C6 C 0.6610(2) 0.6427(2) 0.47900(11)
C7 C 0.6588(2) 0.6712(2) 0.54312(11)
H2 H 0.735984 0.677623 0.574117
C8 C 0.5425(2) 0.6903(2) 0.56172(11)
C9 C 0.2592(2) 0.6004(2) 0.72638(11)
C10 C 0.1928(2) 0.5820(2) 0.77854(11)
C11 C 0.1359(2) 0.5558(2) 0.88934(11)
C12 C 0.0201(2) 0.5676(2) 0.84519(11)
C13 C 0.3109(2) 0.5176(3) 1.00054(12)
H3 H 0.344546 0.451592 0.977832
H4 H 0.327284 0.500429 1.047149
H5 H 0.352555 0.593510 0.992876
C14 C -0.2330(2) 0.5674(3) 0.79194(12)
H6 H -0.221539 0.641184 0.767974
H7 H -0.320559 0.563788 0.798886
H8 H -0.216075 0.496631 0.766959
C15 C 0.4401(2) 0.5987(2) 0.32473(11)
H9 H 0.392376 0.527533 0.334030
H10 H 0.458678 0.591504 0.281137
H11 H 0.389435 0.671638 0.327133
C16 C 0.8877(2) 0.6283(3) 0.49913(13)
H12 H 0.899051 0.706321 0.521570
H13 H 0.956493 0.615952 0.475410
H14 H 0.889242 0.563297 0.530937
F1 F -0.11285(13) 0.32957(14) 0.71933(7)
F2 F -0.15154(15) 0.45838(14) 0.63392(8)
F3 F -0.13374(16) 0.25677(15) 0.61695(8)
F4 F 0.04125(14) 0.36669(15) 0.66190(8)
B1 B -0.0892(3) 0.3521(3) 0.65715(14)
F5 F 0.53287(14) 0.47113(14) 0.84922(7)
F6 F 0.58643(14) 0.27248(16) 0.84345(8)
F7 F 0.44462(13) 0.33059(14) 0.90526(7)
F8 F 0.38903(13) 0.33847(14) 0.79473(7)
B2 B 0.4885(3) 0.3515(3) 0.84782(14)
loop_
_geom_bond_atom_site_label_1
_geom_bond_atom_site_label_2
_geom_bond_site_symmetry_1
_geom_bond_site_symmetry_2
S1 C1 1_555 1_555
S2 C1 1_555 1_555
S3 C2 1_555 1_555
S4 C2 1_555 1_555
S5 C10 1_555 1_555
S6 C10 1_555 1_555
S7 C11 1_555 1_555
S8 C12 1_555 1_555
O1 C5 1_555 1_555
O2 C6 1_555 1_555
C1 C2 1_555 1_555
C3 S4 1_555 1_555
C4 C3 1_555 1_555
H1 C4 1_555 1_555
C5 C4 1_555 1_555
C6 C5 1_555 1_555
C7 C6 1_555 1_555
H2 C7 1_555 1_555
C8 S1 1_555 1_555
C9 S2 1_555 1_555
C10 C9 1_555 1_555
C11 S5 1_555 1_555
C12 S6 1_555 1_555
C13 S7 1_555 1_555
H3 C13 1_555 1_555
H4 C13 1_555 1_555
H5 C13 1_555 1_555
C14 S8 1_555 1_555
H6 C14 1_555 1_555
H7 C14 1_555 1_555
H8 C14 1_555 1_555
C15 O1 1_555 1_555
H9 C15 1_555 1_555
H10 C15 1_555 1_555
H11 C15 1_555 1_555
C16 O2 1_555 1_555
H12 C16 1_555 1_555
H13 C16 1_555 1_555
H14 C16 1_555 1_555
F1 B1 1_555 1_555
F2 B1 1_555 1_555
F3 B1 1_555 1_555
F4 B1 1_555 1_555
F5 B2 1_555 1_555
F6 B2 1_555 1_555
F7 B2 1_555 1_555
F8 B2 1_555 1_555
S3 C9 1_555 1_555
C3 C8 1_555 1_555
C7 C8 1_555 1_555
C11 C12 1_555 1_555

#END
