
#######################################################################
#
#                 Cambridge Crystallographic Data Centre
#                                CCDC 
#
#######################################################################
#
# If this CIF has been generated from an entry in the Cambridge 
# Structural Database, then it will include bibliographic, chemical, 
# crystal, experimental, refinement or atomic coordinate data resulting 
# from the CCDC's data processing and validation procedures.
#
#######################################################################

data_FEWMOL
_chemical_formula_moiety         'C11 H11 I1 O2'
_chemical_name_systematic        5-(Iodo(phenyl)methyl)dihydrofuran-2(3H)-one
_symmetry_cell_setting           monoclinic
_symmetry_space_group_name_H-M   'P 21'
_symmetry_Int_Tables_number      4
_space_group_name_Hall           'P 2yb'
loop_
_symmetry_equiv_pos_site_id
_symmetry_equiv_pos_as_xyz
1 x,y,z
2 -x,1/2+y,-z
_cell_length_a                   8.3841(12)
_cell_length_b                   12.058(2)
_cell_length_c                   10.8793(15)
_cell_angle_alpha                90
_cell_angle_beta                 102.835(3)
_cell_angle_gamma                90
_cell_volume                     1072.37
_exptl_crystal_colour            colorless
_exptl_crystal_description       plates
_cell_formula_units_Z            4
loop_
_atom_site_label
_atom_site_type_symbol
_atom_site_fract_x
_atom_site_fract_y
_atom_site_fract_z
C1 C 0.3758(2) 0.78333(16) 0.38660(18)
H1 H 0.3732 0.7065 0.4207
C2 C 0.2495(2) 0.85713(17) 0.43142(19)
H2 H 0.2036 0.9137 0.3674
H3 H 0.1590 0.8122 0.4504
C3 C 0.3511(2) 0.91079(17) 0.55088(19)
H4 H 0.3191 0.9893 0.5572
H5 H 0.3366 0.8707 0.6270
C4 C 0.5246(3) 0.90239(16) 0.53669(19)
C5 C 0.3502(2) 0.77993(14) 0.24470(17)
H6 H 0.3506 0.8580 0.2139
C6 C 0.1933(2) 0.72648(15) 0.17670(18)
C7 C 0.1319(2) 0.63017(19) 0.22329(17)
H7 H 0.1884 0.5983 0.3006
C8 C -0.0112(2) 0.58205(19) 0.15584(18)
H8 H -0.0530 0.5179 0.1885
C9 C -0.0941(3) 0.62561(19) 0.04194(18)
H9 H -0.1913 0.5914 -0.0038
C10 C -0.0329(2) 0.72077(17) -0.0052(2)
H10 H -0.0886 0.7512 -0.0836
C11 C 0.1092(2) 0.77108(16) 0.06241(18)
H11 H 0.1492 0.8362 0.0304
O1 O 0.53372(17) 0.83468(12) 0.43831(12)
O2 O 0.64513(19) 0.94618(13) 0.59782(13)
I1 I 0.556398(13) 0.692259(7) 0.193669(11)
C12 C 0.3689(2) 0.50329(16) 0.85257(19)
H12 H 0.3455 0.4460 0.7844
C13 C 0.2482(2) 0.48976(17) 0.94081(19)
H13 H 0.2202 0.5625 0.9725
H14 H 0.1463 0.4524 0.8968
C14 C 0.3429(3) 0.41842(17) 1.04735(19)
H15 H 0.3246 0.4439 1.1296
H16 H 0.3094 0.3398 1.0350
C15 C 0.5194(3) 0.43241(15) 1.04163(18)
C16 C 0.3621(2) 0.61800(14) 0.79465(17)
H17 H 0.3711 0.6739 0.8637
C17 C 0.2048(2) 0.63862(17) 0.69961(17)
C18 C 0.1093(3) 0.73071(17) 0.71476(19)
H18 H 0.1458 0.7800 0.7834
C19 C -0.0383(2) 0.75061(19) 0.63026(19)
H19 H -0.1025 0.8131 0.6416
C20 C -0.0924(2) 0.6794(2) 0.5293(2)
H20 H -0.1933 0.6931 0.4715
C21 C 0.0024(3) 0.5879(2) 0.51343(19)
H21 H -0.0339 0.5392 0.4442
C22 C 0.1493(2) 0.56753(17) 0.59796(18)
H22 H 0.2127 0.5046 0.5866
O3 O 0.52950(16) 0.48417(11) 0.93265(13)
O4 O 0.64058(19) 0.40394(12) 1.11637(14)
I2 I 0.572193(13) 0.639592(9) 0.706673(10)
loop_
_geom_bond_atom_site_label_1
_geom_bond_atom_site_label_2
_geom_bond_site_symmetry_1
_geom_bond_site_symmetry_2
C1 H1 1_555 1_555
C2 C1 1_555 1_555
H2 C2 1_555 1_555
H3 C2 1_555 1_555
C3 C2 1_555 1_555
H4 C3 1_555 1_555
H5 C3 1_555 1_555
C4 C3 1_555 1_555
C5 C1 1_555 1_555
H6 C5 1_555 1_555
C6 C5 1_555 1_555
C7 C6 1_555 1_555
H7 C7 1_555 1_555
C8 C7 1_555 1_555
H8 C8 1_555 1_555
C9 C8 1_555 1_555
H9 C9 1_555 1_555
C10 C9 1_555 1_555
H10 C10 1_555 1_555
C11 C6 1_555 1_555
H11 C11 1_555 1_555
O1 C1 1_555 1_555
O2 C4 1_555 1_555
I1 C5 1_555 1_555
C12 H12 1_555 1_555
C13 C12 1_555 1_555
H13 C13 1_555 1_555
H14 C13 1_555 1_555
C14 C13 1_555 1_555
H15 C14 1_555 1_555
H16 C14 1_555 1_555
C15 C14 1_555 1_555
C16 C12 1_555 1_555
H17 C16 1_555 1_555
C17 C16 1_555 1_555
C18 C17 1_555 1_555
H18 C18 1_555 1_555
C19 C18 1_555 1_555
H19 C19 1_555 1_555
C20 C19 1_555 1_555
H20 C20 1_555 1_555
C21 C20 1_555 1_555
H21 C21 1_555 1_555
C22 C17 1_555 1_555
H22 C22 1_555 1_555
O3 C12 1_555 1_555
O4 C15 1_555 1_555
I2 C16 1_555 1_555
C4 O1 1_555 1_555
C10 C11 1_555 1_555
C15 O3 1_555 1_555
C21 C22 1_555 1_555

#END
