
#######################################################################
#
#                 Cambridge Crystallographic Data Centre
#                                CCDC 
#
#######################################################################
#
# If this CIF has been generated from an entry in the Cambridge 
# Structural Database, then it will include bibliographic, chemical, 
# crystal, experimental, refinement or atomic coordinate data resulting 
# from the CCDC's data processing and validation procedures.
#
#######################################################################

data_FEXDES
_chemical_formula_moiety         'C17 H22 O2,0.5(C4 H8 O1)'
_chemical_name_systematic        
'(P)-(+)-(1S,3R,4R,5R,6R,7R,8R,9S)-hexaspiro(2.0.0.0.0.0.2^8^.1^7^.1^6^.1^5^.1^4^.1^3^)pentadecane-1,9-diyldimethanol tetrahydrofuran solvate'
_symmetry_cell_setting           orthorhombic
_symmetry_space_group_name_H-M   'I 2 2 2'
_symmetry_Int_Tables_number      23
_space_group_name_Hall           'I 2 2'
loop_
_symmetry_equiv_pos_site_id
_symmetry_equiv_pos_as_xyz
1 x,y,z
2 -x,-y,z
3 -x,y,-z
4 x,-y,-z
5 1/2+x,1/2+y,1/2+z
6 1/2-x,1/2-y,1/2+z
7 1/2-x,1/2+y,1/2-z
8 1/2+x,1/2-y,1/2-z
_cell_length_a                   7.5264(5)
_cell_length_b                   12.6120(8)
_cell_length_c                   17.784(1)
_cell_angle_alpha                90
_cell_angle_beta                 90
_cell_angle_gamma                90
_cell_volume                     1688.11
_exptl_crystal_colour            colorless
_exptl_crystal_description       needle
_cell_formula_units_Z            4
loop_
_atom_site_label
_atom_site_type_symbol
_atom_site_fract_x
_atom_site_fract_y
_atom_site_fract_z
O2 O 0.5000 0.0950(6) 0.0000
H14 H 0.5786 0.1004 -0.0342
C11 C 0.5000 0.0000 0.0544(8)
C12 C 0.5484(13) 0.0566(7) 0.0744(5)
O2A O 0.5000 -0.0950(6) 0.0000
H14B H 0.4214 0.1004 0.0342
H14A H 0.4214 -0.1004 -0.0342
H14C H 0.5786 -0.1004 0.0342
C11B C 0.5000 0.0000 -0.0544(8)
C12A C 0.4516(13) -0.0566(7) 0.0744(5)
C12C C 0.5484(13) -0.0566(7) -0.0744(5)
C12B C 0.4516(13) 0.0566(7) -0.0744(5)
O1 O 0.0251(3) 0.10802(14) 0.07537(10)
C1 C -0.0614(3) 0.18262(15) 0.12418(12)
C2 C 0.0722(3) 0.24143(15) 0.17056(11)
C3 C 0.0213(3) 0.34997(15) 0.20299(12)
C4 C 0.1549(3) 0.34013(15) 0.14201(10)
C5 C 0.1831(3) 0.39090(16) 0.06695(11)
C6 C 0.3295(3) 0.37998(14) 0.12331(11)
C7 C 0.5182(3) 0.34045(14) 0.12161(11)
C8 C 0.4691(3) 0.44530(13) 0.15645(10)
C9 C 0.5000 0.5000 0.22996(16)
H1 H -0.125(3) 0.2344(18) 0.0935(13)
H2 H -0.139(3) 0.1449(17) 0.1577(12)
H3 H 0.153(3) 0.1991(19) 0.2039(13)
H4 H 0.077(4) 0.363(2) 0.2544(19)
H5 H -0.085(3) 0.381(2) 0.1884(14)
H6 H 0.131(3) 0.4646(19) 0.0600(14)
H7 H 0.192(4) 0.346(2) 0.0243(14)
H8 H 0.400(3) 0.517(2) 0.2573(14)
H9 H 0.586(4) 0.342(2) 0.0706(15)
H10 H 0.540(4) 0.275(2) 0.1519(13)
H11 H -0.0212 0.0426 0.0808
O1A O 0.9749(3) 0.89198(14) 0.07537(10)
C1A C 1.0614(3) 0.81738(15) 0.12418(12)
C2A C 0.9278(3) 0.75857(15) 0.17056(11)
C3A C 0.9787(3) 0.65003(15) 0.20299(12)
C4A C 0.8451(3) 0.65987(15) 0.14201(10)
C5A C 0.8169(3) 0.60910(16) 0.06695(11)
C6A C 0.6705(3) 0.62002(14) 0.12331(11)
C7A C 0.4818(3) 0.65955(14) 0.12161(11)
C8A C 0.5309(3) 0.55470(13) 0.15645(10)
H1A H 1.125(3) 0.7656(18) 0.0935(13)
H2A H 1.139(3) 0.8551(17) 0.1577(12)
H3A H 0.847(3) 0.8009(19) 0.2039(13)
H4A H 0.923(4) 0.637(2) 0.2544(19)
H5A H 1.085(3) 0.619(2) 0.1884(14)
H6A H 0.869(3) 0.5354(19) 0.0600(14)
H7A H 0.808(4) 0.654(2) 0.0243(14)
H8A H 0.600(3) 0.483(2) 0.2573(14)
H9A H 0.414(4) 0.658(2) 0.0706(15)
H10A H 0.460(4) 0.725(2) 0.1519(13)
H11A H 1.0212 0.9574 0.0808
H12? H -0.0169 0.1002 0.0283
C10? C 0.5000 0.0950(6) 0.0000
H13? H 0.4061 0.1326 -0.0053
H15? H 0.3956 0.0000 0.0894
H16? H 0.5110 0.1016 0.1162
H17? H 0.6787 0.0440 0.0767
loop_
_geom_bond_atom_site_label_1
_geom_bond_atom_site_label_2
_geom_bond_site_symmetry_1
_geom_bond_site_symmetry_2
O1 C1 1_555 1_555
C1 C2 1_555 1_555
C2 C3 1_555 1_555
C3 C4 1_555 1_555
C4 C2 1_555 1_555
C5 C4 1_555 1_555
C6 C4 1_555 1_555
C7 C6 1_555 1_555
C8 C6 1_555 1_555
C9 C8 1_555 1_555
H1 C1 1_555 1_555
H2 C1 1_555 1_555
H3 C2 1_555 1_555
H4 C3 1_555 1_555
H5 C3 1_555 1_555
H6 C5 1_555 1_555
H7 C5 1_555 1_555
H8 C9 1_555 1_555
H9 C7 1_555 1_555
H10 C7 1_555 1_555
H11 O1 1_555 1_555
O2 H14 1_555 1_555
C11 O2 1_555 1_555
C12 O2 1_555 1_555
O1A C1A 1_555 1_555
C1A C2A 1_555 1_555
C2A C3A 1_555 1_555
C3A C4A 1_555 1_555
C4A C2A 1_555 1_555
C5A C4A 1_555 1_555
C6A C4A 1_555 1_555
C7A C6A 1_555 1_555
C8A C8 1_555 1_555
H1A C1A 1_555 1_555
H2A C1A 1_555 1_555
H3A C2A 1_555 1_555
H4A C3A 1_555 1_555
H5A C3A 1_555 1_555
H6A C5A 1_555 1_555
H7A C5A 1_555 1_555
H8A C9 1_555 1_555
H9A C7A 1_555 1_555
H10A C7A 1_555 1_555
H11A O1A 1_555 1_555
O2A C11 1_555 1_555
H14B O2 1_555 1_555
H14A O2A 1_555 1_555
H14C O2A 1_555 1_555
C11B O2 1_555 1_555
C12A C11 1_555 1_555
C12C O2A 1_555 1_555
C12B O2 1_555 1_555
C5 C6 1_555 1_555
C7 C8 1_555 1_555
C9 C8A 1_555 1_555
C11 C12 1_555 1_555
C5A C6A 1_555 1_555
C6A C8A 1_555 1_555
C7A C8A 1_555 1_555
O2A C11B 1_555 1_555
O2A C12A 1_555 1_555
C11B C12C 1_555 1_555
C11B C12B 1_555 1_555

#END
