
#######################################################################
#
#                 Cambridge Crystallographic Data Centre
#                                CCDC 
#
#######################################################################
#
# If this CIF has been generated from an entry in the Cambridge 
# Structural Database, then it will include bibliographic, chemical, 
# crystal, experimental, refinement or atomic coordinate data resulting 
# from the CCDC's data processing and validation procedures.
#
#######################################################################

data_FEXGIZ
_chemical_name_common            (3R,8S,9R)-10,11-Dihydrocinchonidine
_chemical_formula_moiety         'C19 H24 N2 O1'
_chemical_name_systematic        10,11-Dihydrocinchonan-9-ol
_chemical_properties_biological  'antimalarial activity'
_symmetry_cell_setting           orthorhombic
_symmetry_space_group_name_H-M   'P 21 21 21'
_symmetry_Int_Tables_number      19
_space_group_name_Hall           'P 2ac 2ab'
loop_
_symmetry_equiv_pos_site_id
_symmetry_equiv_pos_as_xyz
1 x,y,z
2 1/2-x,-y,1/2+z
3 -x,1/2+y,1/2-z
4 1/2+x,1/2-y,-z
_cell_length_a                   10.5180(10)
_cell_length_b                   20.610(2)
_cell_length_c                   7.4612(8)
_cell_angle_alpha                90
_cell_angle_beta                 90
_cell_angle_gamma                90
_cell_volume                     1617.41
_exptl_crystal_colour            colorless
_exptl_crystal_description       rod
_chemical_melting_point          '542-545 K'
_cell_formula_units_Z            4
_exptl_crystal_recrystallization_method chloroform
loop_
_atom_site_label
_atom_site_type_symbol
_atom_site_fract_x
_atom_site_fract_y
_atom_site_fract_z
O1 O 0.8353(3) 0.52670(10) 1.0757(4)
N1 N 0.8003(3) 0.5798(2) 0.6889(5)
N2 N 1.2627(4) 0.4156(2) 1.0388(7)
C1 C 0.8341(4) 0.6299(2) 0.5573(6)
C2 C 0.8673(4) 0.6955(2) 0.6483(7)
C3 C 0.8838(4) 0.6812(2) 0.8494(6)
C4 C 0.7531(4) 0.6624(2) 0.9243(7)
C5 C 0.7023(4) 0.6070(2) 0.8085(6)
C6 C 0.9740(4) 0.6242(2) 0.8785(6)
C7 C 0.9176(4) 0.5631(2) 0.7890(6)
C8 C 0.8972(4) 0.5056(2) 0.9180(6)
C9 C 0.9785(5) 0.7300(3) 0.5605(7)
C10 C 0.9500(7) 0.7514(3) 0.3696(8)
C11 C 1.2025(5) 0.4536(2) 1.1512(8)
C12 C 1.0839(5) 0.4830(2) 1.1198(7)
C13 C 1.0229(4) 0.4728(2) 0.9615(6)
C14 C 1.0827(4) 0.4308(2) 0.8346(6)
C15 C 1.0306(4) 0.4137(2) 0.6674(6)
C16 C 1.0919(5) 0.3747(2) 0.5509(7)
C17 C 1.2117(5) 0.3495(2) 0.5933(8)
C18 C 1.2652(4) 0.3638(2) 0.7545(8)
C19 C 1.2035(4) 0.4040(2) 0.8806(7)
H1 H 0.7917 0.4956 1.1191
H2 H 0.7633 0.6363 0.4758
H3 H 0.9064 0.6152 0.4876
H4 H 0.7929 0.7237 0.6359
H5 H 0.9160 0.7197 0.9113
H6 H 0.7608 0.6485 1.0480
H7 H 0.6958 0.6992 0.9195
H8 H 0.6702 0.5728 0.8858
H9 H 0.6319 0.6228 0.7367
H10 H 0.9854 0.6166 1.0058
H11 H 1.0564 0.6339 0.8267
H12 H 0.9799 0.5487 0.6997
H13 H 0.8423 0.4738 0.8584
H14 H 1.0514 0.7011 0.5594
H15 H 1.0007 0.7677 0.6315
H16 H 1.0235 0.7724 0.3200
H17 H 0.8797 0.7811 0.3701
H18 H 0.9288 0.7142 0.2983
H19 H 1.2414 0.4618 1.2608
H20 H 1.0474 0.5094 1.2069
H21 H 0.9511 0.4300 0.6362
H22 H 1.0542 0.3645 0.4417
H23 H 1.2545 0.3232 0.5118
H24 H 1.3445 0.3466 0.7824
loop_
_geom_bond_atom_site_label_1
_geom_bond_atom_site_label_2
_geom_bond_site_symmetry_1
_geom_bond_site_symmetry_2
O1 C8 1_555 1_555
N1 C1 1_555 1_555
N2 C11 1_555 1_555
C1 C2 1_555 1_555
C2 C3 1_555 1_555
C3 C4 1_555 1_555
C4 C5 1_555 1_555
C5 N1 1_555 1_555
C6 C3 1_555 1_555
C7 N1 1_555 1_555
C8 C7 1_555 1_555
C9 C2 1_555 1_555
C10 C9 1_555 1_555
C11 C12 1_555 1_555
C12 C13 1_555 1_555
C13 C8 1_555 1_555
C14 C13 1_555 1_555
C15 C14 1_555 1_555
C16 C15 1_555 1_555
C17 C16 1_555 1_555
C18 C17 1_555 1_555
C19 N2 1_555 1_555
H1 O1 1_555 1_555
H2 C1 1_555 1_555
H3 C1 1_555 1_555
H4 C2 1_555 1_555
H5 C3 1_555 1_555
H6 C4 1_555 1_555
H7 C4 1_555 1_555
H8 C5 1_555 1_555
H9 C5 1_555 1_555
H10 C6 1_555 1_555
H11 C6 1_555 1_555
H12 C7 1_555 1_555
H13 C8 1_555 1_555
H14 C9 1_555 1_555
H15 C9 1_555 1_555
H16 C10 1_555 1_555
H17 C10 1_555 1_555
H18 C10 1_555 1_555
H19 C11 1_555 1_555
H20 C12 1_555 1_555
H21 C15 1_555 1_555
H22 C16 1_555 1_555
H23 C17 1_555 1_555
H24 C18 1_555 1_555
C6 C7 1_555 1_555
C14 C19 1_555 1_555
C18 C19 1_555 1_555

#END
