
#######################################################################
#
#                 Cambridge Crystallographic Data Centre
#                                CCDC 
#
#######################################################################
#
# If this CIF has been generated from an entry in the Cambridge 
# Structural Database, then it will include bibliographic, chemical, 
# crystal, experimental, refinement or atomic coordinate data resulting 
# from the CCDC's data processing and validation procedures.
#
#######################################################################

data_FEXKEY
_chemical_formula_moiety         'C16 H19 Cl1 O2 S1'
_chemical_name_systematic        
(endo-5,exo-6)-5-Chloro-6-(p-tosyl)spiro(bicyclo(2.2.1)heptane-2,1'-cyclopropane)
_symmetry_cell_setting           monoclinic
_symmetry_space_group_name_H-M   'C 2/c'
_symmetry_Int_Tables_number      15
_space_group_name_Hall           '-C 2yn'
loop_
_symmetry_equiv_pos_site_id
_symmetry_equiv_pos_as_xyz
1 x,y,z
2 1/2+x,1/2+y,z
3 -x,y,1/2-z
4 1/2-x,1/2+y,1/2-z
5 -x,-y,-z
6 1/2-x,1/2-y,-z
7 x,-y,1/2+z
8 1/2+x,1/2-y,1/2+z
_cell_length_a                   22.775(6)
_cell_length_b                   6.320(2)
_cell_length_c                   22.944(6)
_cell_angle_alpha                90
_cell_angle_beta                 111.83(2)
_cell_angle_gamma                90
_cell_volume                     3065.69
_exptl_crystal_colour            colorless
_chemical_melting_point          137-138deg.C
_cell_formula_units_Z            8
loop_
_atom_site_label
_atom_site_type_symbol
_atom_site_fract_x
_atom_site_fract_y
_atom_site_fract_z
S1 S 0.1415(1) -0.0527(1) 0.0994(1)
O1 O 0.1285(1) 0.1720(4) 0.0923(1)
C1 C 0.0739(1) -0.0939(4) -0.0284(2)
O2 O 0.1028(1) -0.1808(4) 0.1224(1)
C2 C 0.0845(1) -0.1172(5) -0.0896(2)
C3 C 0.0907(2) -0.3587(5) -0.0970(2)
C4 C 0.0816(2) -0.4453(5) -0.0384(2)
C5 C 0.1384(1) -0.3954(4) 0.0205(2)
C6 C 0.1373(1) -0.1484(4) 0.0246(1)
C7 C 0.0335(2) -0.2905(5) -0.0300(2)
C8 C 0.2211(2) -0.0852(5) 0.1495(1)
C9 C 0.2637(2) 0.0784(6) 0.1556(2)
C10 C 0.3249(2) 0.0582(7) 0.1970(2)
C11 C 0.3460(2) -0.1225(7) 0.2331(2)
C12 C 0.3032(2) -0.2844(7) 0.2253(2)
C13 C 0.2410(2) -0.2696(6) 0.1843(2)
C14 C 0.4129(2) -0.1375(9) 0.2794(2)
C15 C 0.1214(2) 0.0394(5) -0.1100(2)
C16 C 0.0513(2) 0.0216(6) -0.1442(2)
Cl1 Cl 0.2122(1) -0.4966(1) 0.0207(1)
H1 H 0.0571 0.0417 -0.0220
H2 H 0.0593 -0.4096 -0.1371
H3 H 0.1322 -0.3956 -0.0981
H4 H 0.0698 -0.5973 -0.0451
H5 H 0.1364 -0.4641 0.0585
H6 H 0.1725 -0.0801 0.0176
H7 H -0.0072 -0.2889 -0.0644
H8 H 0.0261 -0.3132 0.0085
H9 H 0.2498 0.2048 0.1301
H10 H 0.3548 0.1758 0.2028
H11 H 0.3186 -0.4101 0.2499
H12 H 0.2110 -0.3900 0.1796
H13 H 0.4225 -0.2696 0.3021
H14 H 0.4220 -0.0242 0.3117
H15 H 0.4437 -0.1173 0.2596
H16 H 0.1400 0.1626 -0.0844
H17 H 0.1514 -0.0088 -0.1284
H18 H 0.0335 -0.0415 -0.1869
H19 H 0.0221 0.1299 -0.1428
loop_
_geom_bond_atom_site_label_1
_geom_bond_atom_site_label_2
_geom_bond_site_symmetry_1
_geom_bond_site_symmetry_2
S1 O1 1_555 1_555
C1 C2 1_555 1_555
O2 S1 1_555 1_555
C2 C3 1_555 1_555
C3 C4 1_555 1_555
C4 C5 1_555 1_555
C5 C6 1_555 1_555
C6 S1 1_555 1_555
C7 C1 1_555 1_555
C8 S1 1_555 1_555
C9 C8 1_555 1_555
C10 C9 1_555 1_555
C11 C10 1_555 1_555
C12 C11 1_555 1_555
C13 C8 1_555 1_555
C14 C11 1_555 1_555
C15 C2 1_555 1_555
C16 C2 1_555 1_555
Cl1 C5 1_555 1_555
H1 C1 1_555 1_555
H2 C3 1_555 1_555
H3 C3 1_555 1_555
H4 C4 1_555 1_555
H5 C5 1_555 1_555
H6 C6 1_555 1_555
H7 C7 1_555 1_555
H8 C7 1_555 1_555
H9 C9 1_555 1_555
H10 C10 1_555 1_555
H11 C12 1_555 1_555
H12 C13 1_555 1_555
H13 C14 1_555 1_555
H14 C14 1_555 1_555
H15 C14 1_555 1_555
H16 C15 1_555 1_555
H17 C15 1_555 1_555
H18 C16 1_555 1_555
H19 C16 1_555 1_555
C1 C6 1_555 1_555
C4 C7 1_555 1_555
C12 C13 1_555 1_555
C15 C16 1_555 1_555

#END
