
#######################################################################
#
#                 Cambridge Crystallographic Data Centre
#                                CCDC 
#
#######################################################################
#
# If this CIF has been generated from an entry in the Cambridge 
# Structural Database, then it will include bibliographic, chemical, 
# crystal, experimental, refinement or atomic coordinate data resulting 
# from the CCDC's data processing and validation procedures.
#
#######################################################################

data_FEYJAX
_chemical_formula_moiety         'C25 H17 N1 O2'
_chemical_name_systematic        
2-hydroxy-2,8-diphenyl-2,3-dihydronaphtho[1,8-bc]pyran-9-carbonitrile
_symmetry_cell_setting           triclinic
_symmetry_space_group_name_H-M   'P -1'
_symmetry_Int_Tables_number      2
_space_group_name_Hall           '-P 1'
loop_
_symmetry_equiv_pos_site_id
_symmetry_equiv_pos_as_xyz
1 x,y,z
2 -x,-y,-z
_cell_length_a                   9.0804(4)
_cell_length_b                   9.7376(6)
_cell_length_c                   10.8841(5)
_cell_angle_alpha                88.659(4)
_cell_angle_beta                 81.841(4)
_cell_angle_gamma                83.270(5)
_cell_volume                     946.058
_exptl_crystal_description       block
_cell_formula_units_Z            2
loop_
_atom_site_label
_atom_site_type_symbol
_atom_site_fract_x
_atom_site_fract_y
_atom_site_fract_z
O1 O 0.24792(12) 0.20376(11) 0.52566(9)
O2 O 0.32349(12) 0.24810(12) 0.71368(11)
H1 H 0.3806(10) 0.1761(7) 0.7058(16)
N1 N 0.48363(17) 0.00791(16) 0.31449(14)
C1 C 0.17615(18) 0.48446(17) 0.59825(14)
C2 C 0.27393(17) 0.44631(16) 0.48861(14)
C3 C 0.30667(16) 0.30579(16) 0.45417(14)
C4 C 0.40086(17) 0.26778(16) 0.34630(14)
C5 C 0.46221(18) 0.37045(17) 0.26385(14)
C6 C 0.43462(18) 0.50511(18) 0.30056(15)
H2 H 0.47701(18) 0.57232(18) 0.24966(15)
C7 C 0.34402(18) 0.54622(17) 0.41303(15)
C8 C 0.31807(19) 0.68476(18) 0.45325(17)
H3 H 0.36325(19) 0.75286(18) 0.40553(17)
C9 C 0.2277(2) 0.71956(18) 0.56108(17)
H4 H 0.2138(2) 0.81094(18) 0.58737(17)
C10 C 0.1551(2) 0.61999(18) 0.63313(16)
H5 H 0.0919(2) 0.64635(18) 0.70563(16)
C11 C 0.10067(19) 0.37228(17) 0.66877(15)
H6 H 0.07698(19) 0.39733(17) 0.75566(15)
H7 H 0.00742(19) 0.36320(17) 0.63754(15)
C12 C 0.19892(17) 0.23456(16) 0.65710(14)
C13 C 0.11495(17) 0.11527(16) 0.70585(14)
C14 C 0.1440(2) 0.04409(19) 0.81232(15)
H8 H 0.2201(2) 0.06681(19) 0.85423(15)
C15 C 0.0605(2) -0.0609(2) 0.85715(18)
H9 H 0.0822(2) -0.1096(2) 0.92811(18)
C16 C -0.0536(2) -0.0935(2) 0.7980(2)
H10 H -0.1112(2) -0.1624(2) 0.8298(2)
C17 C -0.0827(2) -0.0242(2) 0.6915(2)
H11 H -0.1593(2) -0.0471(2) 0.6502(2)
C18 C 0.00106(18) 0.07911(19) 0.64558(16)
H12 H -0.01910(18) 0.12532(19) 0.57302(16)
C19 C 0.55293(19) 0.33297(18) 0.14221(14)
C20 C 0.6722(2) 0.4052(2) 0.09670(16)
H13 H 0.6965(2) 0.4756(2) 0.14371(16)
C21 C 0.7551(3) 0.3739(3) -0.01721(19)
H14 H 0.8346(3) 0.4235(3) -0.04631(19)
C22 C 0.7220(3) 0.2709(3) -0.08784(19)
H15 H 0.7796(3) 0.2493(3) -0.16407(19)
C23 C 0.6030(3) 0.1994(2) -0.04549(18)
H16 H 0.5792(3) 0.1297(2) -0.09360(18)
C24 C 0.5183(2) 0.2306(2) 0.06861(16)
H17 H 0.4372(2) 0.1824(2) 0.09607(16)
C25 C 0.44592(17) 0.12321(18) 0.32717(14)
loop_
_geom_bond_atom_site_label_1
_geom_bond_atom_site_label_2
_geom_bond_site_symmetry_1
_geom_bond_site_symmetry_2
O1 C3 1_555 1_555
O2 H1 1_555 1_555
N1 C25 1_555 1_555
C1 C2 1_555 1_555
C2 C3 1_555 1_555
C3 C4 1_555 1_555
C4 C5 1_555 1_555
C5 C6 1_555 1_555
C6 H2 1_555 1_555
C7 C2 1_555 1_555
C8 C7 1_555 1_555
H3 C8 1_555 1_555
C9 C8 1_555 1_555
H4 C9 1_555 1_555
C10 C1 1_555 1_555
H5 C10 1_555 1_555
C11 C1 1_555 1_555
H6 C11 1_555 1_555
H7 C11 1_555 1_555
C12 O1 1_555 1_555
C13 C12 1_555 1_555
C14 C13 1_555 1_555
H8 C14 1_555 1_555
C15 C14 1_555 1_555
H9 C15 1_555 1_555
C16 C15 1_555 1_555
H10 C16 1_555 1_555
C17 C16 1_555 1_555
H11 C17 1_555 1_555
C18 C13 1_555 1_555
H12 C18 1_555 1_555
C19 C5 1_555 1_555
C20 C19 1_555 1_555
H13 C20 1_555 1_555
C21 C20 1_555 1_555
H14 C21 1_555 1_555
C22 C21 1_555 1_555
H15 C22 1_555 1_555
C23 C22 1_555 1_555
H16 C23 1_555 1_555
C24 C19 1_555 1_555
H17 C24 1_555 1_555
C25 C4 1_555 1_555
O2 C12 1_555 1_555
C6 C7 1_555 1_555
C9 C10 1_555 1_555
C11 C12 1_555 1_555
C17 C18 1_555 1_555
C23 C24 1_555 1_555

#END
