
#######################################################################
#
#                 Cambridge Crystallographic Data Centre
#                                CCDC 
#
#######################################################################
#
# If this CIF has been generated from an entry in the Cambridge 
# Structural Database, then it will include bibliographic, chemical, 
# crystal, experimental, refinement or atomic coordinate data resulting 
# from the CCDC's data processing and validation procedures.
#
#######################################################################

data_FEYTAG
_chemical_formula_moiety         'C27 H33 N5 O2 S1,C1 H4 O1,0.5(C1 H2 Cl2)'
_chemical_name_systematic        
'4-Amino-5-(3-(2-cyclohexyl-4-isopropoxy-1H-benzimidazol-1-yl)prop-1-yn-1-yl)-1-(tetrahydrothiophen-2-yl)pyrimidin-2(1H)-one dichloromethane methanol solvate'
_symmetry_cell_setting           monoclinic
_symmetry_space_group_name_H-M   'C 2/c'
_symmetry_Int_Tables_number      15
_space_group_name_Hall           '-C 2yn'
loop_
_symmetry_equiv_pos_site_id
_symmetry_equiv_pos_as_xyz
1 x,y,z
2 -x,y,1/2-z
3 1/2+x,1/2+y,z
4 1/2-x,1/2+y,1/2-z
5 -x,-y,-z
6 x,-y,1/2+z
7 1/2-x,1/2-y,-z
8 1/2+x,1/2-y,1/2+z
_cell_length_a                   38.7263(14)
_cell_length_b                   5.0369(2)
_cell_length_c                   31.7977(12)
_cell_angle_alpha                90
_cell_angle_beta                 110.4100(10)
_cell_angle_gamma                90
_cell_volume                     5813.09
_exptl_crystal_colour            colorless
_exptl_crystal_description       rod
_cell_formula_units_Z            8
loop_
_atom_site_label
_atom_site_type_symbol
_atom_site_fract_x
_atom_site_fract_y
_atom_site_fract_z
Cl1 Cl 0.93737(18) 1.2737(16) 0.7931(2)
Cl2 Cl 0.9744(3) 1.7555(19) 0.7860(4)
C1 C 0.9620(10) 1.433(5) 0.7668(11)
H1 H 0.9867 1.3206 0.7710
H2 H 0.9461 1.4405 0.7314
S1 S 0.93222(3) 1.0844(2) 1.06836(4)
O1 O 0.82563(7) 1.1274(5) 1.08305(9)
O2 O 0.85304(17) 0.5886(11) 0.76089(17)
N1 N 0.84334(8) 0.1069(5) 0.87371(10)
N2 N 0.87889(8) 0.2236(6) 0.83448(9)
N3 N 0.79917(8) 0.8143(6) 1.03030(10)
N4 N 0.86411(8) 0.8755(6) 1.05905(10)
N5 N 0.77381(8) 0.4892(7) 0.97903(11)
H3 H 0.7519 0.5375 0.9789
H4 H 0.7759 0.3571 0.9619
C2 C 0.87597(9) 0.0697(6) 0.86647(11)
C3 C 0.84640(10) 0.3703(7) 0.82022(12)
C4 C 0.82408(10) 0.3018(7) 0.84416(12)
C5 C 0.78932(10) 0.4120(8) 0.83742(14)
H5 H 0.7730 0.3584 0.8568
C6 C 0.77813(13) 0.5995(9) 0.80274(15)
H6 H 0.7520 0.6910 0.7954
C7 C 0.79958(14) 0.6713(11) 0.77751(15)
H7 H 0.7894 0.8142 0.7517
C8 C 0.83442(13) 0.5594(9) 0.78543(13)
C9 C 0.8400(3) 0.7185(14) 0.7184(2)
H8 H 0.8128 0.6444 0.6998
C10 C 0.8380(3) 1.0214(15) 0.7208(2)
H9 H 0.8241 1.0757 0.7437
H10 H 0.8230 1.0996 0.6879
H11 H 0.8656 1.1025 0.7326
C11 C 0.8657(3) 0.6391(16) 0.6935(3)
H12 H 0.8922 0.7334 0.7091
H13 H 0.8540 0.7014 0.6589
H14 H 0.8692 0.4261 0.6949
C12 C 0.90445(9) -0.1299(6) 0.89259(11)
H15 H 0.8904 -0.3144 0.8932
C13 C 0.92392(10) -0.0385(7) 0.94200(11)
H16 H 0.9377 0.1484 0.9426
H17 H 0.9037 -0.0098 0.9579
C14 C 0.95191(10) -0.2477(7) 0.96770(12)
H18 H 0.9660 -0.1797 1.0016
H19 H 0.9377 -0.4297 0.9694
C15 C 0.97996(11) -0.3011(9) 0.94487(13)
H20 H 0.9961 -0.1240 0.9463
H21 H 0.9985 -0.4564 0.9628
C16 C 0.96143(10) -0.3837(7) 0.89608(12)
H22 H 0.9484 -0.5747 0.8948
H23 H 0.9821 -0.4039 0.8806
C17 C 0.93263(9) -0.1821(7) 0.86989(11)
H24 H 0.9186 -0.2555 0.8363
H25 H 0.9461 0.0018 0.8674
C18 C 0.83179(10) -0.0146(7) 0.90833(13)
H26 H 0.8475 -0.1936 0.9203
H27 H 0.8030 -0.0686 0.8941
C19 C 0.83724(9) 0.1693(7) 0.94641(12)
C20 C 0.84162(9) 0.3370(7) 0.97425(12)
C21 C 0.83933(9) 0.5405(6) 1.00456(11)
C22 C 0.80347(9) 0.6146(7) 1.00484(12)
C23 C 0.82850(9) 0.9466(7) 1.05816(12)
C24 C 0.86833(9) 0.6779(7) 1.03223(11)
H28 H 0.8952 0.6299 1.0330
C25 C 0.89532(10) 1.0282(10) 1.09009(13)
H29 H 0.8845 1.2216 1.0935
C26 C 0.96546(12) 0.8903(10) 1.11187(18)
H30 H 0.9795 0.7517 1.0975
H31 H 0.9856 1.0176 1.1352
C27 C 0.9429(2) 0.7443(14) 1.1352(2)
H32 H 0.9319 0.5627 1.1174
H33 H 0.9599 0.6944 1.1691
C28 C 0.91189(16) 0.9227(14) 1.13560(18)
H34 H 0.8918 0.8121 1.1449
H35 H 0.9222 1.0823 1.1594
O4 O 0.73627(8) 0.1656(7) 0.90224(13)
H50 H 0.7189 0.2227 0.9099
C34 C 0.72790(14) -0.0869(9) 0.88469(17)
H51 H 0.7294 -0.0921 0.8514
H52 H 0.7004 -0.1392 0.8830
H53 H 0.7474 -0.2267 0.9059
S2? S 0.9139(2) 0.750(2) 1.1381(3)
H36? H 0.8857 1.2015 1.1027
C29? C 0.9337(6) 1.071(8) 1.0894(16)
H37? H 0.9312 1.0799 1.0545
H38? H 0.9421 1.2668 1.1030
H39? H 0.9918 0.9712 1.1137
H40? H 0.9618 0.6926 1.0979
C30? C 0.9583(8) 0.909(9) 1.1562(8)
H41? H 0.9570 1.1122 1.1664
H42? H 0.9785 0.8009 1.1829
C31? C 0.8596(5) 0.886(4) 0.7373(6)
H43? H 0.8463 1.0480 0.7480
C32? C 0.8955(7) 0.958(5) 0.7399(8)
H44? H 0.9099 0.7848 0.7346
H45? H 0.9102 1.0410 0.7726
H46? H 0.8939 1.1044 0.7144
C33? C 0.8381(7) 0.792(5) 0.6979(8)
H47? H 0.8250 0.9545 0.6760
H48? H 0.8172 0.6652 0.7027
H49? H 0.8545 0.6784 0.6830
O3? O 0.8648(2) 0.6594(16) 0.7673(2)
loop_
_geom_bond_atom_site_label_1
_geom_bond_atom_site_label_2
_geom_bond_site_symmetry_1
_geom_bond_site_symmetry_2
Cl1 C1 1_555 1_555
Cl2 C1 1_555 1_555
C1 H1 1_555 1_555
H2 C1 1_555 1_555
S1 C25 1_555 1_555
O1 C23 1_555 1_555
O2 C8 1_555 1_555
N1 C2 1_555 1_555
N2 C2 1_555 1_555
N3 C22 1_555 1_555
N4 C23 1_555 1_555
N5 H3 1_555 1_555
H4 N5 1_555 1_555
C2 C12 1_555 1_555
C3 N2 1_555 1_555
C4 N1 1_555 1_555
C5 C4 1_555 1_555
H5 C5 1_555 1_555
C6 C5 1_555 1_555
H6 C6 1_555 1_555
C7 C6 1_555 1_555
H7 C7 1_555 1_555
C8 C3 1_555 1_555
C9 O2 1_555 1_555
H8 C9 1_555 1_555
C10 C9 1_555 1_555
H9 C10 1_555 1_555
H10 C10 1_555 1_555
H11 C10 1_555 1_555
C11 C9 1_555 1_555
H12 C11 1_555 1_555
H13 C11 1_555 1_555
H14 C11 1_555 1_555
C12 H15 1_555 1_555
C13 C12 1_555 1_555
H16 C13 1_555 1_555
H17 C13 1_555 1_555
C14 C13 1_555 1_555
H18 C14 1_555 1_555
H19 C14 1_555 1_555
C15 C14 1_555 1_555
H20 C15 1_555 1_555
H21 C15 1_555 1_555
C16 C15 1_555 1_555
H22 C16 1_555 1_555
H23 C16 1_555 1_555
C17 C12 1_555 1_555
H24 C17 1_555 1_555
H25 C17 1_555 1_555
C18 N1 1_555 1_555
H26 C18 1_555 1_555
H27 C18 1_555 1_555
C19 C18 1_555 1_555
C20 C19 1_555 1_555
C21 C20 1_555 1_555
C22 N5 1_555 1_555
C23 N3 1_555 1_555
C24 N4 1_555 1_555
H28 C24 1_555 1_555
C25 N4 1_555 1_555
H29 C25 1_555 1_555
C26 S1 1_555 1_555
H30 C26 1_555 1_555
H31 C26 1_555 1_555
C27 C26 1_555 1_555
H32 C27 1_555 1_555
H33 C27 1_555 1_555
C28 C25 1_555 1_555
H34 C28 1_555 1_555
H35 C28 1_555 1_555
O4 H50 1_555 1_555
C34 O4 1_555 1_555
H51 C34 1_555 1_555
H52 C34 1_555 1_555
H53 C34 1_555 1_555
C3 C4 1_555 1_555
C7 C8 1_555 1_555
C16 C17 1_555 1_555
C21 C22 1_555 1_555
C21 C24 1_555 1_555
C27 C28 1_555 1_555

#END
