
#######################################################################
#
#                 Cambridge Crystallographic Data Centre
#                                CCDC 
#
#######################################################################
#
# If this CIF has been generated from an entry in the Cambridge 
# Structural Database, then it will include bibliographic, chemical, 
# crystal, experimental, refinement or atomic coordinate data resulting 
# from the CCDC's data processing and validation procedures.
#
#######################################################################

data_FEYXUE
_chemical_formula_moiety         'C26 H23 N1 O4'
_chemical_name_systematic        
1'-Ethyl-4',6'-dimethoxy-2-(1-naphthyl)-3H-spiro[cyclopent-4-ene-1,3'-indole]-2',3(1'H)-dione
_symmetry_cell_setting           triclinic
_symmetry_space_group_name_H-M   'P -1'
_symmetry_Int_Tables_number      2
_space_group_name_Hall           '-P 1'
loop_
_symmetry_equiv_pos_site_id
_symmetry_equiv_pos_as_xyz
1 x,y,z
2 -x,-y,-z
_cell_length_a                   10.111(2)
_cell_length_b                   10.277(2)
_cell_length_c                   12.394(3)
_cell_angle_alpha                72.86(3)
_cell_angle_beta                 79.89(3)
_cell_angle_gamma                60.75(3)
_cell_volume                     1072.99
_exptl_crystal_colour            colorless
_exptl_crystal_description       Plane
_cell_formula_units_Z            2
loop_
_atom_site_label
_atom_site_type_symbol
_atom_site_fract_x
_atom_site_fract_y
_atom_site_fract_z
O1 O 0.89606(19) -0.1509(2) -0.01700(14)
O2 O 0.93262(14) -0.34417(18) 0.32937(13)
O3 O 0.42578(16) 0.18828(17) 0.18400(12)
O4 O 0.17493(16) 0.0165(2) 0.52328(14)
N1 N 0.70264(17) -0.27683(19) 0.42695(13)
C1 C 0.7121(2) -0.2929(2) 0.14390(16)
C2 C 0.8480(2) -0.4203(3) 0.13699(19)
H1 H 0.9372 -0.4121 0.1281
C3 C 0.8566(3) -0.5624(3) 0.1430(2)
H2 H 0.9504 -0.6468 0.1374
C4 C 0.7284(3) -0.5764(3) 0.1569(2)
H3 H 0.7349 -0.6711 0.1606
C5 C 0.5854(3) -0.4511(3) 0.1657(2)
C6 C 0.5754(2) -0.3049(2) 0.15712(17)
C7 C 0.4280(2) -0.1810(3) 0.16249(18)
H4 H 0.4175 -0.0837 0.1552
C8 C 0.3017(3) -0.2001(3) 0.1780(2)
H5 H 0.2067 -0.1165 0.1818
C9 C 0.3134(3) -0.3449(4) 0.1884(3)
H6 H 0.2268 -0.3581 0.2005
C10 C 0.4511(3) -0.4647(4) 0.1805(3)
H7 H 0.4577 -0.5596 0.1850
C11 C 0.7078(2) -0.1419(2) 0.13759(15)
H8 H 0.6127 -0.0616 0.1019
C12 C 0.8325(2) -0.1089(2) 0.06800(18)
C13 C 0.8562(2) -0.0122(3) 0.12136(19)
H9 H 0.9144 0.0382 0.0898
C14 C 0.7834(2) -0.0072(3) 0.21999(18)
H10 H 0.7807 0.0519 0.2653
C15 C 0.70505(19) -0.1054(2) 0.25280(15)
C16 C 0.7980(2) -0.2559(2) 0.33846(17)
C17 C 0.55542(19) -0.1529(2) 0.41286(16)
C18 C 0.5535(2) -0.0452(2) 0.31340(16)
C19 C 0.4197(2) 0.0879(2) 0.28314(16)
C20 C 0.2896(2) 0.1122(2) 0.35208(18)
H11 H 0.1991 0.2015 0.3323
C21 C 0.2963(2) 0.0024(3) 0.45001(18)
C22 C 0.4296(2) -0.1330(3) 0.48251(17)
H12 H 0.4328 -0.2066 0.5486
C23 C 0.7430(3) -0.4173(3) 0.5140(2)
H13 H 0.6911 -0.3936 0.5846
H14 H 0.8513 -0.4686 0.5247
C24 C 0.7004(3) -0.5224(3) 0.4830(3)
H15 H 0.7279 -0.6150 0.5421
H16 H 0.7532 -0.5474 0.4137
H17 H 0.5930 -0.4721 0.4732
C25 C 0.2859(3) 0.3147(3) 0.1399(2)
H18 H 0.3060 0.3758 0.0704
H19 H 0.2355 0.3767 0.1936
H20 H 0.2224 0.2764 0.1261
C26 C 0.0339(2) 0.1510(3) 0.4965(2)
H21 H -0.0408 0.1462 0.5550
H22 H 0.0017 0.1576 0.4259
H23 H 0.0457 0.2401 0.4907
loop_
_geom_bond_atom_site_label_1
_geom_bond_atom_site_label_2
_geom_bond_site_symmetry_1
_geom_bond_site_symmetry_2
O1 C12 1_555 1_555
O2 C16 1_555 1_555
O3 C19 1_555 1_555
O4 C21 1_555 1_555
N1 C16 1_555 1_555
C1 C2 1_555 1_555
C2 H1 1_555 1_555
C3 C2 1_555 1_555
H2 C3 1_555 1_555
C4 C3 1_555 1_555
H3 C4 1_555 1_555
C5 C4 1_555 1_555
C6 C1 1_555 1_555
C7 C6 1_555 1_555
H4 C7 1_555 1_555
C8 C7 1_555 1_555
H5 C8 1_555 1_555
C9 C8 1_555 1_555
H6 C9 1_555 1_555
C10 C5 1_555 1_555
H7 C10 1_555 1_555
C11 C1 1_555 1_555
H8 C11 1_555 1_555
C12 C11 1_555 1_555
C13 C12 1_555 1_555
H9 C13 1_555 1_555
C14 C13 1_555 1_555
H10 C14 1_555 1_555
C15 C11 1_555 1_555
C16 C15 1_555 1_555
C17 N1 1_555 1_555
C18 C15 1_555 1_555
C19 C18 1_555 1_555
C20 C19 1_555 1_555
H11 C20 1_555 1_555
C21 C20 1_555 1_555
C22 C17 1_555 1_555
H12 C22 1_555 1_555
C23 N1 1_555 1_555
H13 C23 1_555 1_555
H14 C23 1_555 1_555
C24 C23 1_555 1_555
H15 C24 1_555 1_555
H16 C24 1_555 1_555
H17 C24 1_555 1_555
C25 O3 1_555 1_555
H18 C25 1_555 1_555
H19 C25 1_555 1_555
H20 C25 1_555 1_555
C26 O4 1_555 1_555
H21 C26 1_555 1_555
H22 C26 1_555 1_555
H23 C26 1_555 1_555
C5 C6 1_555 1_555
C9 C10 1_555 1_555
C14 C15 1_555 1_555
C17 C18 1_555 1_555
C21 C22 1_555 1_555

#END
