
#######################################################################
#
#                 Cambridge Crystallographic Data Centre
#                                CCDC 
#
#######################################################################
#
# If this CIF has been generated from an entry in the Cambridge 
# Structural Database, then it will include bibliographic, chemical, 
# crystal, experimental, refinement or atomic coordinate data resulting 
# from the CCDC's data processing and validation procedures.
#
#######################################################################

data_FEYYOY
_chemical_formula_moiety         'C25 H17 Br1 Cl1 N3'
_chemical_name_systematic        
1-Phenyl-3-methyl-4-(4-bromophenyl)-6-(2-chlorophenyl)pyrazolo(3,4-b)pyridine
_symmetry_cell_setting           triclinic
_symmetry_space_group_name_H-M   'P -1'
_symmetry_Int_Tables_number      2
_space_group_name_Hall           '-P 1'
loop_
_symmetry_equiv_pos_site_id
_symmetry_equiv_pos_as_xyz
1 x,y,z
2 -x,-y,-z
_cell_length_a                   9.3798(11)
_cell_length_b                   10.6200(13)
_cell_length_c                   11.7433(15)
_cell_angle_alpha                72.932(9)
_cell_angle_beta                 78.877(10)
_cell_angle_gamma                72.045(9)
_cell_volume                     1057.04
_exptl_crystal_colour            colorless
_exptl_crystal_description       polyhedron
_chemical_melting_point          182-184deg.C
_cell_formula_units_Z            2
_exptl_crystal_recrystallization_method '95% ethanol'
loop_
_atom_site_label
_atom_site_type_symbol
_atom_site_fract_x
_atom_site_fract_y
_atom_site_fract_z
Br1 Br -0.08926(3) -0.20668(3) 0.79850(2)
Cl1 Cl 0.53792(11) 0.19549(10) 0.96317(9)
N1 N 0.2755(2) 0.49983(19) 0.76170(17)
N2 N 0.2647(2) 0.56012(19) 0.54900(17)
N3 N 0.2354(2) 0.5047(2) 0.46642(17)
C1 C 0.2415(3) 0.4817(2) 0.6628(2)
C2 C 0.1897(2) 0.3742(2) 0.6532(2)
C3 C 0.1651(3) 0.2755(2) 0.7602(2)
C4 C 0.2015(3) 0.2920(2) 0.8631(2)
H1 H 0.1887 0.2274 0.9373
C5 C 0.2567(3) 0.4020(2) 0.8602(2)
C6 C 0.1905(3) 0.3946(2) 0.5270(2)
C7 C 0.1054(3) 0.1591(2) 0.7676(2)
C8 C -0.0180(3) 0.1774(2) 0.7088(2)
H2 H -0.0641 0.2657 0.6626
C9 C -0.0744(3) 0.0682(3) 0.7169(2)
H3 H -0.1565 0.0808 0.6747
C10 C -0.0093(3) -0.0593(2) 0.7874(2)
C11 C 0.1122(3) -0.0802(3) 0.8475(2)
H4 H 0.1564 -0.1683 0.8950
C12 C 0.1687(3) 0.0296(2) 0.8373(2)
H5 H 0.2519 0.0161 0.8786
C13 C 0.2979(3) 0.4150(2) 0.9722(2)
C14 C 0.4224(3) 0.3264(3) 1.0266(2)
C15 C 0.4618(3) 0.3418(3) 1.1290(2)
H6 H 0.5486 0.2804 1.1642
C16 C 0.3746(4) 0.4463(3) 1.1787(2)
H7 H 0.4008 0.4577 1.2486
C17 C 0.2488(4) 0.5348(3) 1.1273(3)
H8 H 0.1877 0.6065 1.1624
C18 C 0.2113(3) 0.5196(3) 1.0246(2)
H9 H 0.1249 0.5818 0.9895
C19 C 0.3186(3) 0.6782(2) 0.5094(2)
C20 C 0.2831(3) 0.7704(3) 0.5794(2)
H10 H 0.2261 0.7529 0.6557
C21 C 0.3314(3) 0.8889(3) 0.5372(3)
H11 H 0.3074 0.9523 0.5852
C22 C 0.4140(3) 0.9153(3) 0.4262(2)
H12 H 0.4460 0.9968 0.3976
C23 C 0.4497(3) 0.8223(3) 0.3571(2)
H13 H 0.5071 0.8400 0.2809
C24 C 0.4028(3) 0.7033(3) 0.3976(2)
H14 H 0.4278 0.6396 0.3497
C25 C 0.1566(3) 0.3104(3) 0.4585(2)
H15 H 0.0476 0.3211 0.4687
H16 H 0.2091 0.2140 0.4886
H17 H 0.1908 0.3411 0.3732
loop_
_geom_bond_atom_site_label_1
_geom_bond_atom_site_label_2
_geom_bond_site_symmetry_1
_geom_bond_site_symmetry_2
Br1 C10 1_555 1_555
Cl1 C14 1_555 1_555
N1 C1 1_555 1_555
N2 N3 1_555 1_555
N3 C6 1_555 1_555
C1 N2 1_555 1_555
C2 C1 1_555 1_555
C3 C2 1_555 1_555
C4 C3 1_555 1_555
H1 C4 1_555 1_555
C5 N1 1_555 1_555
C6 C2 1_555 1_555
C7 C3 1_555 1_555
C8 C7 1_555 1_555
H2 C8 1_555 1_555
C9 C8 1_555 1_555
H3 C9 1_555 1_555
C10 C9 1_555 1_555
C11 C10 1_555 1_555
H4 C11 1_555 1_555
C12 C7 1_555 1_555
H5 C12 1_555 1_555
C13 C5 1_555 1_555
C14 C13 1_555 1_555
C15 C14 1_555 1_555
H6 C15 1_555 1_555
C16 C15 1_555 1_555
H7 C16 1_555 1_555
C17 C16 1_555 1_555
H8 C17 1_555 1_555
C18 C13 1_555 1_555
H9 C18 1_555 1_555
C19 N2 1_555 1_555
C20 C19 1_555 1_555
H10 C20 1_555 1_555
C21 C20 1_555 1_555
H11 C21 1_555 1_555
C22 C21 1_555 1_555
H12 C22 1_555 1_555
C23 C22 1_555 1_555
H13 C23 1_555 1_555
C24 C19 1_555 1_555
H14 C24 1_555 1_555
C25 C6 1_555 1_555
H15 C25 1_555 1_555
H16 C25 1_555 1_555
H17 C25 1_555 1_555
C4 C5 1_555 1_555
C11 C12 1_555 1_555
C17 C18 1_555 1_555
C23 C24 1_555 1_555

#END
