
#######################################################################
#
#                 Cambridge Crystallographic Data Centre
#                                CCDC 
#
#######################################################################
#
# If this CIF has been generated from an entry in the Cambridge 
# Structural Database, then it will include bibliographic, chemical, 
# crystal, experimental, refinement or atomic coordinate data resulting 
# from the CCDC's data processing and validation procedures.
#
#######################################################################

data_FEYYUD
_chemical_compound_source        'wood of Calocedrus formosana'
_chemical_name_common            (+)-Calocedrin
_chemical_formula_moiety         'C20 H16 O7'
_chemical_name_systematic        
5-Hydroxy-4-piperonyl-3-piperonylidene-tetrahydrofuran-2-one
_symmetry_cell_setting           monoclinic
_symmetry_space_group_name_H-M   'P 21/c'
_symmetry_Int_Tables_number      14
_space_group_name_Hall           '-P 2ybc'
loop_
_symmetry_equiv_pos_site_id
_symmetry_equiv_pos_as_xyz
1 x,y,z
2 -x,1/2+y,1/2-z
3 -x,-y,-z
4 x,1/2-y,1/2+z
_cell_length_a                   10.974(2)
_cell_length_b                   21.045(4)
_cell_length_c                   7.325(2)
_cell_angle_alpha                90
_cell_angle_beta                 92.03(2)
_cell_angle_gamma                90
_cell_volume                     1690.63
_cell_formula_units_Z            4
loop_
_atom_site_label
_atom_site_type_symbol
_atom_site_fract_x
_atom_site_fract_y
_atom_site_fract_z
C1 C 0.4007(3) 0.1603(2) 0.7750(5)
C2 C 0.4061(3) 0.0948(2) 0.8138(5)
C3 C 0.2982(3) 0.0652(2) 0.8421(5)
C4 C 0.1883(3) 0.0970(2) 0.8394(5)
C5 C 0.1805(3) 0.1606(2) 0.8074(6)
C6 C 0.2890(3) 0.1918(2) 0.7728(6)
C7 C 0.5071(3) 0.1984(2) 0.7331(5)
C8 C 0.6245(3) 0.1823(2) 0.7229(5)
C9 C 0.7135(3) 0.2311(2) 0.6816(5)
O1 O 0.8277(2) 0.2064(1) 0.6872(4)
C10 C 0.8250(3) 0.1430(2) 0.7717(5)
C11 C 0.6917(3) 0.1208(2) 0.7455(5)
C12 C 0.6753(3) 0.0776(2) 0.5741(5)
C13 C 0.7142(3) 0.0096(2) 0.6069(5)
C14 C 0.8346(3) -0.0092(2) 0.5796(5)
C15 C 0.8644(3) -0.0714(2) 0.6147(5)
C16 C 0.7817(3) -0.1142(2) 0.6759(5)
C17 C 0.6633(4) -0.0975(2) 0.7027(6)
C18 C 0.6311(3) -0.0345(2) 0.6678(5)
C19 C 0.1525(3) -0.0050(2) 0.9096(6)
C20 C 0.9602(4) -0.1643(2) 0.6611(6)
O2 O 0.2793(2) 0.0020(1) 0.8775(4)
O3 O 0.0958(2) 0.0550(1) 0.8711(4)
O4 O 0.6980(2) 0.2868(1) 0.6429(4)
O5 O 0.8656(2) 0.1483(1) 0.9513(4)
O6 O 0.9756(2) -0.1009(1) 0.5940(4)
O7 O 0.8361(2) -0.1728(1) 0.6969(4)
H1 H 0.7993 0.1715 1.0050
H2 H 0.4948 0.0682 0.8200
H3 H 0.0927 0.1864 0.8108
H4 H 0.2877 0.2439 0.7439
H5 H 0.4874 0.2493 0.7064
H6 H 0.8867 0.1094 0.6984
H7 H 0.6642 0.0926 0.8672
H8 H 0.7301 0.0977 0.4631
H9 H 0.5802 0.0788 0.5222
H10 H 0.9029 0.0257 0.5332
H11 H 0.5950 -0.1312 0.7533
H12 H 0.5355 -0.0172 0.6903
H13 H 0.1385 -0.0188 1.0570
H14 H 0.1105 -0.0440 0.8300
H15 H 1.0179 -0.1735 0.7902
H16 H 0.9897 -0.2018 0.5663
loop_
_geom_bond_atom_site_label_1
_geom_bond_atom_site_label_2
_geom_bond_site_symmetry_1
_geom_bond_site_symmetry_2
C1 C2 1_555 1_555
C2 C3 1_555 1_555
C3 C4 1_555 1_555
C4 C5 1_555 1_555
C5 C6 1_555 1_555
C6 C1 1_555 1_555
C7 C1 1_555 1_555
C8 C7 1_555 1_555
C9 C8 1_555 1_555
O1 C9 1_555 1_555
C10 O1 1_555 1_555
C11 C8 1_555 1_555
C12 C11 1_555 1_555
C13 C12 1_555 1_555
C14 C13 1_555 1_555
C15 C14 1_555 1_555
C16 C15 1_555 1_555
C17 C16 1_555 1_555
C18 C13 1_555 1_555
C19 O2 1_555 1_555
C20 O6 1_555 1_555
O2 C3 1_555 1_555
O3 C4 1_555 1_555
O4 C9 1_555 1_555
O5 C10 1_555 1_555
O6 C15 1_555 1_555
O7 C16 1_555 1_555
H1 O5 1_555 1_555
H2 C2 1_555 1_555
H3 C5 1_555 1_555
H4 C6 1_555 1_555
H5 C7 1_555 1_555
H6 C10 1_555 1_555
H7 C11 1_555 1_555
H8 C12 1_555 1_555
H9 C12 1_555 1_555
H10 C14 1_555 1_555
H11 C17 1_555 1_555
H12 C18 1_555 1_555
H13 C19 1_555 1_555
H14 C19 1_555 1_555
H15 C20 1_555 1_555
H16 C20 1_555 1_555
C10 C11 1_555 1_555
C17 C18 1_555 1_555
C19 O3 1_555 1_555
C20 O7 1_555 1_555

#END
