
#######################################################################
#
#                 Cambridge Crystallographic Data Centre
#                                CCDC 
#
#######################################################################
#
# If this CIF has been generated from an entry in the Cambridge 
# Structural Database, then it will include bibliographic, chemical, 
# crystal, experimental, refinement or atomic coordinate data resulting 
# from the CCDC's data processing and validation procedures.
#
#######################################################################

data_FEZLUU
_chemical_formula_moiety         'C33 H35 B1 N2'
_chemical_name_systematic        
7-[bis(2,4,6-trimethylphenyl)boranyl]-N,N-dimethylbenzo[f]quinolin-10-amine
_symmetry_cell_setting           monoclinic
_symmetry_space_group_name_H-M   'P 21/c'
_symmetry_Int_Tables_number      14
_space_group_name_Hall           '-P 2ybc'
loop_
_symmetry_equiv_pos_site_id
_symmetry_equiv_pos_as_xyz
1 x,y,z
2 -x,1/2+y,1/2-z
3 -x,-y,-z
4 x,1/2-y,1/2+z
_cell_length_a                   22.112(6)
_cell_length_b                   8.318(2)
_cell_length_c                   15.429(4)
_cell_angle_alpha                90
_cell_angle_beta                 110.321(8)
_cell_angle_gamma                90
_cell_volume                     2661.2
_exptl_crystal_colour            green
_exptl_crystal_description       cubic
_cell_formula_units_Z            4
loop_
_atom_site_label
_atom_site_type_symbol
_atom_site_fract_x
_atom_site_fract_y
_atom_site_fract_z
N1 N 0.0400(2) -0.0377(5) 0.1158(3)
C1 C 0.24287(19) 0.2103(4) 0.4173(3)
B1 B 0.3019(2) 0.2968(5) 0.4043(3)
N2 N 0.09358(16) -0.0329(4) 0.4798(2)
C2 C 0.2404(2) 0.1990(5) 0.5068(3)
H1 H 0.2747 0.2449 0.5564
C3 C 0.19142(19) 0.1257(5) 0.5264(3)
H2 H 0.1921 0.1240 0.5883
C4 C 0.14045(19) 0.0532(5) 0.4570(3)
C5 C 0.13669(17) 0.0654(4) 0.3629(2)
C6 C 0.1907(2) 0.1427(4) 0.2526(3)
H3 H 0.2262 0.1898 0.2409
C7 C 0.18957(19) 0.1431(4) 0.3464(3)
C8 C 0.0875(2) 0.0147(5) 0.1947(3)
C9 C 0.1429(2) 0.0777(5) 0.1830(3)
H4 H 0.1465 0.0739 0.1234
C10 C 0.08296(19) 0.0118(4) 0.2823(3)
C11 C 0.0211(2) -0.0341(5) 0.2841(3)
H5 H 0.0131 -0.0303 0.3407
C12 C -0.0259(2) -0.0824(6) 0.2068(4)
H6 H -0.0666 -0.1144 0.2088
C13 C -0.0143(3) -0.0852(7) 0.1225(4)
H7 H -0.0474 -0.1232 0.0686
C14 C 0.0894(2) -0.0009(7) 0.5717(3)
H8 H 0.0855 0.1151 0.5795
H9 H 0.1284 -0.0409 0.6198
H10 H 0.0515 -0.0556 0.5768
C15 C 0.0934(2) -0.2075(5) 0.4649(4)
H11 H 0.0901 -0.2290 0.4009
H12 H 0.0566 -0.2559 0.4766
H13 H 0.1335 -0.2540 0.5072
C16 C 0.36885(18) 0.2538(4) 0.4773(3)
C17 C 0.3872(2) 0.0892(4) 0.4980(3)
C18 C 0.3452(3) -0.0463(5) 0.4415(3)
H14 H 0.3238 -0.0102 0.3776
H15 H 0.3127 -0.0759 0.4684
H16 H 0.3723 -0.1399 0.4421
C19 C 0.4443(2) 0.0504(5) 0.5661(3)
H17 H 0.4560 -0.0597 0.5766
C20 C 0.4854(2) 0.1649(5) 0.6199(3)
C21 C 0.5453(2) 0.1200(7) 0.6986(4)
H18 H 0.5772 0.0753 0.6741
H19 H 0.5347 0.0395 0.7375
H20 H 0.5633 0.2158 0.7356
C22 C 0.4694(2) 0.3252(5) 0.5991(3)
H21 H 0.4977 0.4065 0.6338
C23 C 0.41332(19) 0.3695(4) 0.5291(3)
C24 C 0.4013(2) 0.5480(4) 0.5098(3)
H22 H 0.4168 0.5800 0.4601
H23 H 0.4243 0.6092 0.5659
H24 H 0.3550 0.5699 0.4911
C25 C 0.29461(18) 0.4291(4) 0.3278(2)
C26 C 0.33329(18) 0.4258(4) 0.2713(3)
C27 C 0.3792(2) 0.2877(5) 0.2758(3)
H25 H 0.3558 0.1856 0.2685
H26 H 0.4144 0.2891 0.3357
H27 H 0.3970 0.2992 0.2262
C28 C 0.3286(2) 0.5473(5) 0.2083(3)
H28 H 0.3544 0.5416 0.1703
C29 C 0.2875(2) 0.6776(5) 0.1985(3)
C30 C 0.2846(3) 0.8112(6) 0.1319(3)
H29 H 0.2838 0.7657 0.0729
H30 H 0.3227 0.8800 0.1572
H31 H 0.2456 0.8750 0.1220
C31 C 0.24961(19) 0.6814(5) 0.2529(3)
H32 H 0.2214 0.7699 0.2476
C32 C 0.25155(18) 0.5593(4) 0.3153(3)
C33 C 0.2080(2) 0.5793(5) 0.3717(3)
H33 H 0.1929 0.6908 0.3674
H34 H 0.2320 0.5528 0.4365
H35 H 0.1709 0.5071 0.3478
loop_
_geom_bond_atom_site_label_1
_geom_bond_atom_site_label_2
_geom_bond_site_symmetry_1
_geom_bond_site_symmetry_2
N1 C8 1_555 1_555
C1 B1 1_555 1_555
B1 C16 1_555 1_555
N2 C4 1_555 1_555
C2 C1 1_555 1_555
H1 C2 1_555 1_555
C3 C2 1_555 1_555
H2 C3 1_555 1_555
C4 C3 1_555 1_555
C5 C4 1_555 1_555
C6 H3 1_555 1_555
C7 C1 1_555 1_555
C8 C9 1_555 1_555
C9 C6 1_555 1_555
H4 C9 1_555 1_555
C10 C5 1_555 1_555
C11 C10 1_555 1_555
H5 C11 1_555 1_555
C12 C11 1_555 1_555
H6 C12 1_555 1_555
C13 N1 1_555 1_555
H7 C13 1_555 1_555
C14 N2 1_555 1_555
H8 C14 1_555 1_555
H9 C14 1_555 1_555
H10 C14 1_555 1_555
C15 N2 1_555 1_555
H11 C15 1_555 1_555
H12 C15 1_555 1_555
H13 C15 1_555 1_555
C16 C17 1_555 1_555
C17 C18 1_555 1_555
C18 H14 1_555 1_555
H15 C18 1_555 1_555
H16 C18 1_555 1_555
C19 C17 1_555 1_555
H17 C19 1_555 1_555
C20 C19 1_555 1_555
C21 C20 1_555 1_555
H18 C21 1_555 1_555
H19 C21 1_555 1_555
H20 C21 1_555 1_555
C22 C20 1_555 1_555
H21 C22 1_555 1_555
C23 C16 1_555 1_555
C24 C23 1_555 1_555
H22 C24 1_555 1_555
H23 C24 1_555 1_555
H24 C24 1_555 1_555
C25 B1 1_555 1_555
C26 C25 1_555 1_555
C27 C26 1_555 1_555
H25 C27 1_555 1_555
H26 C27 1_555 1_555
H27 C27 1_555 1_555
C28 C26 1_555 1_555
H28 C28 1_555 1_555
C29 C28 1_555 1_555
C30 C29 1_555 1_555
H29 C30 1_555 1_555
H30 C30 1_555 1_555
H31 C30 1_555 1_555
C31 C29 1_555 1_555
H32 C31 1_555 1_555
C32 C25 1_555 1_555
C33 C32 1_555 1_555
H33 C33 1_555 1_555
H34 C33 1_555 1_555
H35 C33 1_555 1_555
C5 C7 1_555 1_555
C6 C7 1_555 1_555
C8 C10 1_555 1_555
C12 C13 1_555 1_555
C22 C23 1_555 1_555
C31 C32 1_555 1_555

#END
