
#######################################################################
#
#                 Cambridge Crystallographic Data Centre
#                                CCDC 
#
#######################################################################
#
# If this CIF has been generated from an entry in the Cambridge 
# Structural Database, then it will include bibliographic, chemical, 
# crystal, experimental, refinement or atomic coordinate data resulting 
# from the CCDC's data processing and validation procedures.
#
#######################################################################

data_FEZLEE
_chemical_formula_moiety         'C34 H37 B1 N2'
_chemical_name_systematic        
7-[bis(2,4,6-trimethylphenyl)boranyl]-N,N,3-trimethylbenzo[f]quinolin-10-amine
_symmetry_cell_setting           monoclinic
_symmetry_space_group_name_H-M   'P 21/c'
_symmetry_Int_Tables_number      14
_space_group_name_Hall           '-P 2ybc'
loop_
_symmetry_equiv_pos_site_id
_symmetry_equiv_pos_as_xyz
1 x,y,z
2 -x,1/2+y,1/2-z
3 -x,-y,-z
4 x,1/2-y,1/2+z
_cell_length_a                   22.653(2)
_cell_length_b                   8.3251(7)
_cell_length_c                   15.2916(13)
_cell_angle_alpha                90
_cell_angle_beta                 107.682(3)
_cell_angle_gamma                90
_cell_volume                     2747.58
_exptl_crystal_colour            'light yellow'
_exptl_crystal_description       Block
_cell_formula_units_Z            4
loop_
_atom_site_label
_atom_site_type_symbol
_atom_site_fract_x
_atom_site_fract_y
_atom_site_fract_z
N1 N 0.44989(9) -0.0321(2) 0.85727(13)
N2 N 0.39222(9) -0.0516(2) 0.49146(13)
C1 C 0.25069(10) 0.2008(3) 0.56718(15)
C2 C 0.25107(11) 0.1852(3) 0.47732(16)
H1 H 0.2178 0.2301 0.4299
C3 C 0.29790(11) 0.1070(3) 0.45328(16)
H2 H 0.2961 0.1018 0.3905
C4 C 0.34710(10) 0.0363(3) 0.51871(15)
C5 C 0.35198(10) 0.0534(3) 0.61432(15)
C6 C 0.30219(10) 0.1328(2) 0.63622(15)
C7 C 0.30275(11) 0.1387(3) 0.73030(15)
H3 H 0.2686 0.1863 0.7443
C8 C 0.34944(11) 0.0799(3) 0.79898(16)
H4 H 0.3470 0.0820 0.8599
C9 C 0.40281(10) 0.0141(3) 0.78170(15)
C10 C 0.40538(10) 0.0030(3) 0.69046(15)
C11 C 0.46301(11) -0.0482(3) 0.68280(16)
H5 H 0.4689 -0.0538 0.6240
C12 C 0.51038(12) -0.0896(3) 0.75882(17)
H6 H 0.5491 -0.1220 0.7525
C13 C 0.50235(11) -0.0848(3) 0.84610(16)
C14 C 0.55181(11) -0.1381(3) 0.93045(16)
H7 H 0.5474 -0.2534 0.9397
H8 H 0.5478 -0.0789 0.9837
H9 H 0.5926 -0.1169 0.9231
C15 C 0.39770(12) -0.0175(3) 0.40042(16)
H10 H 0.3614 -0.0600 0.3534
H11 H 0.4352 -0.0686 0.3943
H12 H 0.4002 0.0989 0.3925
C16 C 0.39159(13) -0.2251(3) 0.5067(2)
H13 H 0.3550 -0.2724 0.4623
H14 H 0.3902 -0.2459 0.5691
H15 H 0.4291 -0.2733 0.4988
C17 C 0.12881(10) 0.2472(3) 0.51602(15)
C18 C 0.08649(10) 0.3653(3) 0.46776(16)
C19 C 0.09837(12) 0.5434(3) 0.48522(17)
H16 H 0.1421 0.5666 0.4933
H17 H 0.0883 0.5743 0.5409
H18 H 0.0724 0.6045 0.4328
C20 C 0.03213(11) 0.3207(3) 0.40175(16)
H19 H 0.0050 0.4024 0.3692
C21 C 0.01582(11) 0.1616(3) 0.38145(17)
C22 C -0.04259(13) 0.1166(4) 0.3073(2)
H20 H -0.0759 0.1908 0.3087
H21 H -0.0545 0.0067 0.3176
H22 H -0.0354 0.1230 0.2474
C23 C 0.05557(12) 0.0454(3) 0.43212(17)
H23 H 0.0443 -0.0644 0.4217
C24 C 0.11122(11) 0.0836(3) 0.49751(16)
C25 C 0.15059(13) -0.0523(3) 0.54947(19)
H24 H 0.1241 -0.1444 0.5515
H25 H 0.1724 -0.0172 0.6122
H26 H 0.1809 -0.0835 0.5185
C26 C 0.20121(10) 0.4232(3) 0.66037(15)
C27 C 0.24294(10) 0.5528(3) 0.66899(15)
C28 C 0.28742(13) 0.5652(3) 0.61281(19)
H27 H 0.2672 0.5254 0.5506
H28 H 0.3244 0.5006 0.6416
H29 H 0.2994 0.6777 0.6099
C29 C 0.24371(11) 0.6787(3) 0.72940(16)
H30 H 0.2713 0.7659 0.7326
C30 C 0.20569(11) 0.6806(3) 0.78453(16)
C31 C 0.20733(14) 0.8175(3) 0.84992(19)
H31 H 0.2395 0.8944 0.8471
H32 H 0.2166 0.7756 0.9125
H33 H 0.1670 0.8715 0.8326
C32 C 0.16602(11) 0.5510(3) 0.77902(16)
H34 H 0.1404 0.5484 0.8180
C33 C 0.16271(11) 0.4248(3) 0.71799(15)
C34 C 0.11867(13) 0.2880(3) 0.71782(19)
H35 H 0.0829 0.2943 0.6625
H36 H 0.1046 0.2957 0.7723
H37 H 0.1400 0.1854 0.7186
B1 B 0.19425(13) 0.2898(3) 0.58460(18)
loop_
_geom_bond_atom_site_label_1
_geom_bond_atom_site_label_2
_geom_bond_site_symmetry_1
_geom_bond_site_symmetry_2
N1 C9 1_555 1_555
N2 C4 1_555 1_555
C1 C2 1_555 1_555
C2 H1 1_555 1_555
C3 C2 1_555 1_555
H2 C3 1_555 1_555
C4 C3 1_555 1_555
C5 C4 1_555 1_555
C6 C1 1_555 1_555
C7 C6 1_555 1_555
H3 C7 1_555 1_555
C8 C7 1_555 1_555
H4 C8 1_555 1_555
C9 C8 1_555 1_555
C10 C5 1_555 1_555
C11 C10 1_555 1_555
H5 C11 1_555 1_555
C12 C11 1_555 1_555
H6 C12 1_555 1_555
C13 N1 1_555 1_555
C14 C13 1_555 1_555
H7 C14 1_555 1_555
H8 C14 1_555 1_555
H9 C14 1_555 1_555
C15 N2 1_555 1_555
H10 C15 1_555 1_555
H11 C15 1_555 1_555
H12 C15 1_555 1_555
C16 N2 1_555 1_555
H13 C16 1_555 1_555
H14 C16 1_555 1_555
H15 C16 1_555 1_555
C17 C18 1_555 1_555
C18 C19 1_555 1_555
C19 H16 1_555 1_555
H17 C19 1_555 1_555
H18 C19 1_555 1_555
C20 C18 1_555 1_555
H19 C20 1_555 1_555
C21 C20 1_555 1_555
C22 C21 1_555 1_555
H20 C22 1_555 1_555
H21 C22 1_555 1_555
H22 C22 1_555 1_555
C23 C21 1_555 1_555
H23 C23 1_555 1_555
C24 C17 1_555 1_555
C25 C24 1_555 1_555
H24 C25 1_555 1_555
H25 C25 1_555 1_555
H26 C25 1_555 1_555
C26 C27 1_555 1_555
C27 C28 1_555 1_555
C28 H27 1_555 1_555
H28 C28 1_555 1_555
H29 C28 1_555 1_555
C29 C27 1_555 1_555
H30 C29 1_555 1_555
C30 C29 1_555 1_555
C31 C30 1_555 1_555
H31 C31 1_555 1_555
H32 C31 1_555 1_555
H33 C31 1_555 1_555
C32 C30 1_555 1_555
H34 C32 1_555 1_555
C33 C26 1_555 1_555
C34 C33 1_555 1_555
H35 C34 1_555 1_555
H36 C34 1_555 1_555
H37 C34 1_555 1_555
B1 C1 1_555 1_555
C5 C6 1_555 1_555
C9 C10 1_555 1_555
C12 C13 1_555 1_555
C17 B1 1_555 1_555
C23 C24 1_555 1_555
C26 B1 1_555 1_555
C32 C33 1_555 1_555

#END
