
#######################################################################
#
#                 Cambridge Crystallographic Data Centre
#                                CCDC 
#
#######################################################################
#
# If this CIF has been generated from an entry in the Cambridge 
# Structural Database, then it will include bibliographic, chemical, 
# crystal, experimental, refinement or atomic coordinate data resulting 
# from the CCDC's data processing and validation procedures.
#
#######################################################################

data_FEZVOY
_chemical_formula_moiety         'C14 H15 N1 O1'
_chemical_name_systematic        1-phenyl-1-(pyridin-2-yl)propan-1-ol
_symmetry_cell_setting           monoclinic
_symmetry_space_group_name_H-M   'P 21/n'
_symmetry_Int_Tables_number      14
_space_group_name_Hall           '-P 2yn'
loop_
_symmetry_equiv_pos_site_id
_symmetry_equiv_pos_as_xyz
1 x,y,z
2 1/2-x,1/2+y,1/2-z
3 -x,-y,-z
4 1/2+x,1/2-y,1/2+z
_cell_length_a                   9.1390(16)
_cell_length_b                   8.2606(15)
_cell_length_c                   16.224(3)
_cell_angle_alpha                90
_cell_angle_beta                 103.140(2)
_cell_angle_gamma                90
_cell_volume                     1192.74
_exptl_crystal_colour            pink
_exptl_crystal_description       BLOCK
_cell_formula_units_Z            4
loop_
_atom_site_label
_atom_site_type_symbol
_atom_site_fract_x
_atom_site_fract_y
_atom_site_fract_z
O1 O -0.04777(13) 0.47484(14) 0.15027(8)
H1 H -0.1186 0.4579 0.1100
N1 N -0.17310(17) 0.2321(2) 0.06221(10)
C1 C 0.03056(18) 0.3273(2) 0.17497(11)
C2 C 0.18822(18) 0.3405(2) 0.15773(10)
C3 C 0.2138(2) 0.4427(2) 0.09464(11)
H2 H 0.1353 0.5050 0.0640
C4 C 0.3552(2) 0.4534(2) 0.07662(13)
H3 H 0.3705 0.5228 0.0342
C5 C 0.4720(2) 0.3623(3) 0.12089(13)
H4 H 0.5664 0.3696 0.1086
C6 C 0.4494(2) 0.2600(2) 0.18347(13)
H5 H 0.5283 0.1975 0.2135
C7 C 0.30917(19) 0.2498(2) 0.20188(11)
H6 H 0.2954 0.1807 0.2448
C8 C -0.05374(18) 0.1882(2) 0.12158(10)
C9 C -0.0109(2) 0.0281(2) 0.13372(13)
H7 H 0.0736 0.0001 0.1751
C10 C -0.0940(2) -0.0896(3) 0.08416(15)
H8 H -0.0674 -0.1981 0.0923
C11 C -0.2160(3) -0.0452(3) 0.02295(14)
H9 H -0.2737 -0.1221 -0.0119
C12 C -0.2507(3) 0.1153(3) 0.01434(14)
H10 H -0.3337 0.1455 -0.0275
C13 C 0.0360(2) 0.2998(3) 0.26940(11)
H11 H 0.0898 0.2000 0.2872
H12 H 0.0921 0.3875 0.3017
C14 C -0.1186(2) 0.2902(3) 0.29014(14)
H13 H -0.1733 0.2003 0.2606
H14 H -0.1728 0.3886 0.2728
H15 H -0.1069 0.2757 0.3500
loop_
_geom_bond_atom_site_label_1
_geom_bond_atom_site_label_2
_geom_bond_site_symmetry_1
_geom_bond_site_symmetry_2
O1 H1 1_555 1_555
N1 C8 1_555 1_555
C1 O1 1_555 1_555
C2 C1 1_555 1_555
C3 C2 1_555 1_555
H2 C3 1_555 1_555
C4 C3 1_555 1_555
H3 C4 1_555 1_555
C5 C4 1_555 1_555
H4 C5 1_555 1_555
C6 C5 1_555 1_555
H5 C6 1_555 1_555
C7 C2 1_555 1_555
H6 C7 1_555 1_555
C8 C1 1_555 1_555
C9 C8 1_555 1_555
H7 C9 1_555 1_555
C10 C9 1_555 1_555
H8 C10 1_555 1_555
C11 C10 1_555 1_555
H9 C11 1_555 1_555
C12 N1 1_555 1_555
H10 C12 1_555 1_555
C13 C1 1_555 1_555
H11 C13 1_555 1_555
H12 C13 1_555 1_555
C14 C13 1_555 1_555
H13 C14 1_555 1_555
H14 C14 1_555 1_555
H15 C14 1_555 1_555
C6 C7 1_555 1_555
C11 C12 1_555 1_555

#END
