
#######################################################################
#
#                 Cambridge Crystallographic Data Centre
#                                CCDC 
#
#######################################################################
#
# If this CIF has been generated from an entry in the Cambridge 
# Structural Database, then it will include bibliographic, chemical, 
# crystal, experimental, refinement or atomic coordinate data resulting 
# from the CCDC's data processing and validation procedures.
#
#######################################################################

data_FIBBUO
_chemical_formula_moiety         'C36 H22 Cl4'
_chemical_name_systematic        1,1,2,2-tetrakis(4-Chlorophenyl)acenaphthene
_symmetry_cell_setting           monoclinic
_symmetry_space_group_name_H-M   'P 21/n'
_symmetry_Int_Tables_number      14
_space_group_name_Hall           '-P 2yn'
loop_
_symmetry_equiv_pos_site_id
_symmetry_equiv_pos_as_xyz
1 x,y,z
2 1/2-x,1/2+y,1/2-z
3 -x,-y,-z
4 1/2+x,1/2-y,1/2+z
_cell_length_a                   12.311(2)
_cell_length_b                   18.239(3)
_cell_length_c                   13.189(2)
_cell_angle_alpha                90
_cell_angle_beta                 110.616(2)
_cell_angle_gamma                90
_cell_volume                     2771.81
_chemical_melting_point          '184-186 deg.C'
_cell_formula_units_Z            4
_exptl_crystal_recrystallization_method dichloromethane
loop_
_atom_site_label
_atom_site_type_symbol
_atom_site_fract_x
_atom_site_fract_y
_atom_site_fract_z
Cl1 Cl 0.24102(6) -0.25668(4) 1.05018(5)
Cl2 Cl 0.47238(6) 0.18145(4) 0.80401(7)
Cl3 Cl 0.29028(7) -0.49309(4) 0.49673(7)
Cl4 Cl 0.89424(6) -0.08780(4) 0.76755(6)
C1 C 0.1863(2) -0.11798(13) 0.5498(2)
C2 C 0.0735(2) -0.10115(15) 0.5385(2)
H1 H 0.0500 -0.0996 0.5998
C3 C -0.0073(2) -0.08606(15) 0.4322(3)
H2 H -0.0851 -0.0746 0.4246
C4 C 0.0212(2) -0.08729(15) 0.3419(2)
H3 H -0.0355 -0.0759 0.2734
C5 C 0.1808(3) -0.10871(14) 0.2651(2)
H4 H 0.1320 -0.0976 0.1931
C6 C 0.2938(2) -0.12759(14) 0.2861(2)
H5 H 0.3225 -0.1284 0.2280
C7 C 0.3696(2) -0.14591(14) 0.3913(2)
H6 H 0.4472 -0.1606 0.4033
C8 C 0.3293(2) -0.14207(13) 0.4754(2)
C9 C 0.2139(2) -0.12146(13) 0.4552(2)
C10 C 0.1359(2) -0.10554(14) 0.3499(2)
C11 C 0.2862(2) -0.16298(14) 0.7488(2)
C12 C 0.2072(2) -0.13280(15) 0.7912(2)
H7 H 0.1625 -0.0915 0.7564
C13 C 0.1920(2) -0.16134(16) 0.8826(2)
H8 H 0.1355 -0.1411 0.9085
C14 C 0.2598(2) -0.21930(15) 0.9356(2)
C15 C 0.3425(2) -0.24816(15) 0.9000(2)
H9 H 0.3914 -0.2867 0.9389
C16 C 0.3543(2) -0.22049(15) 0.8064(2)
H10 H 0.4105 -0.2415 0.7809
C17 C 0.3476(2) -0.04773(13) 0.6857(2)
C18 C 0.4298(2) -0.03662(15) 0.7887(2)
H11 H 0.4587 -0.0776 0.8347
C19 C 0.4706(2) 0.03324(15) 0.8256(2)
H12 H 0.5267 0.0401 0.8960
C20 C 0.4276(2) 0.09271(14) 0.7575(2)
C21 C 0.3501(2) 0.08338(14) 0.6548(2)
H13 H 0.3236 0.1243 0.6081
C22 C 0.3100(2) 0.01286(14) 0.6193(2)
H14 H 0.2558 0.0064 0.5480
C23 C 0.3621(2) -0.25221(13) 0.58012(19)
C24 C 0.2573(2) -0.28474(14) 0.5756(2)
H15 H 0.2002 -0.2557 0.5899
C25 C 0.2351(2) -0.35850(15) 0.5505(2)
H16 H 0.1639 -0.3798 0.5484
C26 C 0.3174(2) -0.40056(14) 0.5288(2)
C27 C 0.4205(2) -0.37004(14) 0.5302(2)
H17 H 0.4762 -0.3993 0.5141
C28 C 0.4421(2) -0.29612(13) 0.55535(19)
H18 H 0.5128 -0.2751 0.5557
C29 C 0.5124(2) -0.14760(13) 0.64514(19)
C30 C 0.5523(2) -0.08422(13) 0.6100(2)
H19 H 0.4983 -0.0539 0.5577
C31 C 0.6683(2) -0.06440(14) 0.6494(2)
H20 H 0.6937 -0.0213 0.6241
C32 C 0.7467(2) -0.10865(14) 0.7266(2)
C33 C 0.7095(2) -0.17056(14) 0.7657(2)
H21 H 0.7633 -0.1999 0.8198
C34 C 0.5934(2) -0.18915(14) 0.7249(2)
H22 H 0.5681 -0.2315 0.7522
C35 C 0.3001(2) -0.12635(13) 0.6490(2)
C36 C 0.3831(2) -0.16809(13) 0.5942(2)
loop_
_geom_bond_atom_site_label_1
_geom_bond_atom_site_label_2
_geom_bond_site_symmetry_1
_geom_bond_site_symmetry_2
Cl1 C14 1_555 1_555
Cl2 C20 1_555 1_555
Cl3 C26 1_555 1_555
Cl4 C32 1_555 1_555
C1 C2 1_555 1_555
C2 H1 1_555 1_555
C3 C2 1_555 1_555
H2 C3 1_555 1_555
C4 C3 1_555 1_555
H3 C4 1_555 1_555
C5 H4 1_555 1_555
C6 C5 1_555 1_555
H5 C6 1_555 1_555
C7 C6 1_555 1_555
H6 C7 1_555 1_555
C8 C7 1_555 1_555
C9 C1 1_555 1_555
C10 C4 1_555 1_555
C11 C12 1_555 1_555
C12 H7 1_555 1_555
C13 C12 1_555 1_555
H8 C13 1_555 1_555
C14 C13 1_555 1_555
C15 C14 1_555 1_555
H9 C15 1_555 1_555
C16 C11 1_555 1_555
H10 C16 1_555 1_555
C17 C18 1_555 1_555
C18 H11 1_555 1_555
C19 C18 1_555 1_555
H12 C19 1_555 1_555
C20 C19 1_555 1_555
C21 C20 1_555 1_555
H13 C21 1_555 1_555
C22 C17 1_555 1_555
H14 C22 1_555 1_555
C23 C24 1_555 1_555
C24 H15 1_555 1_555
C25 C24 1_555 1_555
H16 C25 1_555 1_555
C26 C25 1_555 1_555
C27 C26 1_555 1_555
H17 C27 1_555 1_555
C28 C23 1_555 1_555
H18 C28 1_555 1_555
C29 C30 1_555 1_555
C30 H19 1_555 1_555
C31 C30 1_555 1_555
H20 C31 1_555 1_555
C32 C31 1_555 1_555
C33 C32 1_555 1_555
H21 C33 1_555 1_555
C34 C29 1_555 1_555
H22 C34 1_555 1_555
C35 C1 1_555 1_555
C36 C8 1_555 1_555
C5 C10 1_555 1_555
C8 C9 1_555 1_555
C9 C10 1_555 1_555
C11 C35 1_555 1_555
C15 C16 1_555 1_555
C17 C35 1_555 1_555
C21 C22 1_555 1_555
C23 C36 1_555 1_555
C27 C28 1_555 1_555
C29 C36 1_555 1_555
C33 C34 1_555 1_555
C35 C36 1_555 1_555

#END
