
#######################################################################
#
#                 Cambridge Crystallographic Data Centre
#                                CCDC 
#
#######################################################################
#
# If this CIF has been generated from an entry in the Cambridge 
# Structural Database, then it will include bibliographic, chemical, 
# crystal, experimental, refinement or atomic coordinate data resulting 
# from the CCDC's data processing and validation procedures.
#
#######################################################################

data_FIBSOY11
_chemical_compound_source        'flowers of Inula britannica L'
_chemical_name_common            Britanin
_chemical_formula_moiety         'C19 H26 O7'
_chemical_name_systematic        
'5-Hydroxy-4a,8-dimethyl-3-methylene-2-oxododecahydroazuleno[6,5-b]furan-4,7-diyl diacetate'
_symmetry_cell_setting           tetragonal
_symmetry_space_group_name_H-M   'P 43 21 2'
_symmetry_Int_Tables_number      96
_space_group_name_Hall           'P 4nw 2abw'
loop_
_symmetry_equiv_pos_site_id
_symmetry_equiv_pos_as_xyz
1 x,y,z
2 -x,-y,1/2+z
3 1/2-y,1/2+x,3/4+z
4 1/2+y,1/2-x,1/4+z
5 1/2-x,1/2+y,3/4-z
6 1/2+x,1/2-y,1/4-z
7 y,x,-z
8 -y,-x,1/2-z
_cell_length_a                   9.600(7)
_cell_length_b                   9.600(7)
_cell_length_c                   43.62(5)
_cell_angle_alpha                90
_cell_angle_beta                 90
_cell_angle_gamma                90
_cell_volume                     4020.02
_exptl_crystal_colour            colorless
_exptl_crystal_description       block
_cell_formula_units_Z            8
loop_
_atom_site_label
_atom_site_type_symbol
_atom_site_fract_x
_atom_site_fract_y
_atom_site_fract_z
C1 C 0.5086(5) 0.7409(4) 0.09494(8)
H1 H 0.4085 0.7471 0.0991
C2 C 0.5747(5) 0.8860(5) 0.10334(9)
H2 H 0.6609 0.8716 0.1150
C3 C 0.6080(6) 0.9658(5) 0.07276(10)
H3 H 0.5806 1.0628 0.0742
H4 H 0.7065 0.9609 0.0679
C4 C 0.5191(6) 0.8871(5) 0.04813(9)
H5 H 0.4222 0.9186 0.0494
C5 C 0.5278(5) 0.7278(5) 0.05815(9)
C6 C 0.4116(5) 0.6351(5) 0.04184(8)
H6 H 0.4479 0.6000 0.0223
C7 C 0.3552(5) 0.5094(5) 0.06148(9)
H7 H 0.2945 0.5489 0.0773
C8 C 0.4690(6) 0.4190(5) 0.07858(10)
H8 H 0.5555 0.4187 0.0667
C9 C 0.4991(6) 0.4717(6) 0.11185(9)
H9 H 0.4114 0.4737 0.1229
H10 H 0.5579 0.4033 0.1219
C10 C 0.5695(6) 0.6169(5) 0.11560(9)
H11 H 0.6682 0.6061 0.1104
C11 C 0.2692(6) 0.3975(6) 0.04441(10)
C12 C 0.3021(7) 0.2583(6) 0.05971(11)
C13 C 0.1798(8) 0.4078(8) 0.02032(14)
H12 H 0.1365 0.3285 0.0127
H13 H 0.1620 0.4942 0.0115
C14 C 0.5605(7) 0.6544(6) 0.15089(10)
H14 H 0.4648 0.6677 0.1566
H15 H 0.6118 0.7384 0.1547
H16 H 0.5995 0.5797 0.1628
C15 C 0.6759(5) 0.6713(6) 0.04919(10)
H17 H 0.6928 0.6888 0.0278
H18 H 0.6799 0.5728 0.0530
H19 H 0.7456 0.7176 0.0613
C16 C 0.5172(6) 1.0792(5) 0.13766(9)
C17 C 0.4025(7) 1.1484(7) 0.15666(12)
H20 H 0.4424 1.2202 0.1692
H21 H 0.3588 1.0800 0.1695
H22 H 0.3343 1.1885 0.1432
C18 C 0.2597(6) 0.7727(6) 0.00716(10)
C19 C 0.1204(8) 0.8533(8) 0.00582(14)
H23 H 0.1120 0.8986 -0.0137
H24 H 0.1183 0.9218 0.0218
H25 H 0.0444 0.7894 0.0085
O1 O 0.2434(5) 0.1451(5) 0.05533(9)
O2 O 0.4117(4) 0.2766(4) 0.08012(7)
O3 O 0.2811(4) 0.7176(4) 0.03601(6)
O4 O 0.3445(5) 0.7626(6) -0.01432(8)
O5 O 0.4705(4) 0.9603(4) 0.12297(7)
O6 O 0.6372(4) 1.1217(4) 0.13564(8)
O7 O 0.5738(5) 0.9157(5) 0.01732(7)
H26 H 0.5268 0.8741 0.0046
loop_
_geom_bond_atom_site_label_1
_geom_bond_atom_site_label_2
_geom_bond_site_symmetry_1
_geom_bond_site_symmetry_2
C1 H1 1_555 1_555
C2 C1 1_555 1_555
H2 C2 1_555 1_555
C3 C2 1_555 1_555
H3 C3 1_555 1_555
H4 C3 1_555 1_555
C4 C3 1_555 1_555
H5 C4 1_555 1_555
C5 C1 1_555 1_555
C6 C5 1_555 1_555
H6 C6 1_555 1_555
C7 C6 1_555 1_555
H7 C7 1_555 1_555
C8 C7 1_555 1_555
H8 C8 1_555 1_555
C9 C8 1_555 1_555
H9 C9 1_555 1_555
H10 C9 1_555 1_555
C10 C1 1_555 1_555
H11 C10 1_555 1_555
C11 C7 1_555 1_555
C12 C11 1_555 1_555
C13 C11 1_555 1_555
H12 C13 1_555 1_555
H13 C13 1_555 1_555
C14 C10 1_555 1_555
H14 C14 1_555 1_555
H15 C14 1_555 1_555
H16 C14 1_555 1_555
C15 C5 1_555 1_555
H17 C15 1_555 1_555
H18 C15 1_555 1_555
H19 C15 1_555 1_555
C16 C17 1_555 1_555
C17 H20 1_555 1_555
H21 C17 1_555 1_555
H22 C17 1_555 1_555
C18 C19 1_555 1_555
C19 H23 1_555 1_555
H24 C19 1_555 1_555
H25 C19 1_555 1_555
O1 C12 1_555 1_555
O2 C8 1_555 1_555
O3 C6 1_555 1_555
O4 C18 1_555 1_555
O5 C2 1_555 1_555
O6 C16 1_555 1_555
O7 C4 1_555 1_555
H26 O7 1_555 1_555
C4 C5 1_555 1_555
C9 C10 1_555 1_555
C12 O2 1_555 1_555
C16 O5 1_555 1_555
C18 O3 1_555 1_555

#END
