
#######################################################################
#
#                 Cambridge Crystallographic Data Centre
#                                CCDC 
#
#######################################################################
#
# If this CIF has been generated from an entry in the Cambridge 
# Structural Database, then it will include bibliographic, chemical, 
# crystal, experimental, refinement or atomic coordinate data resulting 
# from the CCDC's data processing and validation procedures.
#
#######################################################################

data_FIBZOI
_chemical_formula_moiety         
'C31 H28 N1 P1 2+,2(B1 F4 1-),0.5(C1 H2 Cl2),0.25(H2 O1)'
_chemical_name_systematic        
'6-cyclopropyl-9-(triphenylphosphaniumyl)-10H-pyrido[1,2-a]azepin-5-ium bis(tetrafluoroborate) dichloromethane solvate hydrate'
_symmetry_cell_setting           triclinic
_symmetry_space_group_name_H-M   'P -1'
_symmetry_Int_Tables_number      2
_space_group_name_Hall           '-P 1'
loop_
_symmetry_equiv_pos_site_id
_symmetry_equiv_pos_as_xyz
1 x,y,z
2 -x,-y,-z
_cell_length_a                   9.2290(7)
_cell_length_b                   12.4861(7)
_cell_length_c                   15.3456(7)
_cell_angle_alpha                107.395(2)
_cell_angle_beta                 100.184(2)
_cell_angle_gamma                106.684(2)
_cell_volume                     1548.27
_exptl_crystal_colour            colorless
_exptl_crystal_description       block
_cell_formula_units_Z            2
loop_
_atom_site_label
_atom_site_type_symbol
_atom_site_fract_x
_atom_site_fract_y
_atom_site_fract_z
F1 F 1.3094(7) 0.3640(6) 0.0077(5)
F2 F 1.2023(6) 0.2544(4) 0.0897(3)
F3 F 1.0618(8) 0.3482(7) 0.0214(7)
F4 F 1.1031(6) 0.1907(4) -0.0665(3)
B1 B 1.1681(7) 0.2963(6) 0.0179(4)
F5 F 0.2793(3) 0.0793(3) 0.2929(2)
B2 B 0.4405(6) 0.1451(5) 0.3211(4)
F6 F 0.4941(19) 0.1452(14) 0.2455(11)
F7 F 0.4959(15) 0.2593(13) 0.3887(10)
F8 F 0.520(2) 0.0816(15) 0.3671(14)
P1 P 0.82940(12) 0.47164(9) 0.25564(8)
N1 N 0.6782(4) 0.1703(3) -0.0360(2)
C1 C 0.9023(4) 0.3695(4) 0.2925(3)
C2 C 0.7363(5) 0.3954(4) 0.1303(3)
C3 C 0.9857(5) 0.6111(4) 0.2828(3)
C4 C 1.0102(5) 0.3319(4) 0.2512(3)
H1 H 1.0469 0.3635 0.2082
C5 C 0.6003(5) 0.2736(3) 0.1001(3)
H2 H 0.5730 0.2618 0.1556
H3 H 0.5076 0.2714 0.0574
C6 C 0.6562(5) 0.1777(4) 0.0511(3)
C7 C 0.6944(5) 0.1007(4) 0.0910(3)
H4 H 0.6816 0.1055 0.1507
C8 C 0.6905(5) 0.5065(4) 0.3147(3)
C9 C 0.8446(5) 0.3210(4) 0.3568(3)
H5 H 0.7730 0.3458 0.3855
C10 C 0.5344(5) 0.4792(4) 0.2666(3)
H6 H 0.4969 0.4371 0.2010
C11 C 0.4347(5) 0.5152(4) 0.3173(4)
H7 H 0.3303 0.4976 0.2851
C12 C 0.7428(5) 0.5688(4) 0.4135(4)
H8 H 0.8465 0.5862 0.4466
C13 C 0.6424(5) 0.2498(4) -0.0829(3)
C14 C 1.1283(5) 0.6404(4) 0.3512(4)
H9 H 1.1454 0.5842 0.3760
C15 C 0.7514(5) 0.0163(4) 0.0439(4)
H10 H 0.7755 -0.0361 0.0710
C16 C 0.7825(5) 0.4333(4) 0.0641(3)
H11 H 0.8689 0.5044 0.0833
C17 C 0.8983(6) 0.2343(5) 0.3761(4)
H12 H 0.8599 0.1993 0.4170
C18 C 0.9590(6) 0.6958(4) 0.2481(4)
H13 H 0.8629 0.6770 0.2046
C19 C 0.7353(5) 0.0889(4) -0.0826(3)
H14 H 0.7499 0.0858 -0.1416
C20 C 0.6435(6) 0.6046(5) 0.4619(4)
H15 H 0.6808 0.6482 0.5273
C21 C 0.7719(6) 0.0107(4) -0.0438(4)
H16 H 0.8103 -0.0454 -0.0765
C22 C 0.7036(5) 0.3685(4) -0.0365(4)
H17 H 0.6946 0.4151 -0.0730
C23 C 1.0632(5) 0.2487(4) 0.2733(4)
H18 H 1.1370 0.2250 0.2463
C24 C 1.2435(6) 0.7544(5) 0.3815(5)
H19 H 1.3389 0.7745 0.4261
C25 C 1.0064(6) 0.2003(5) 0.3357(4)
H20 H 1.0422 0.1437 0.3505
C26 C 0.4883(6) 0.5761(5) 0.4140(4)
H21 H 0.4200 0.5983 0.4473
C27 C 1.0749(6) 0.8090(4) 0.2777(4)
H22 H 1.0581 0.8650 0.2526
C28 C 0.3632(7) 0.1511(8) -0.2008(5)
H23 H 0.2961 0.0744 -0.2508
H24 H 0.3239 0.1747 -0.1463
C29 C 1.2161(6) 0.8379(5) 0.3450(5)
H25 H 1.2931 0.9143 0.3658
C30 C 0.5396(6) 0.1865(5) -0.1832(4)
H26 H 0.5744 0.1294 -0.2254
C31 C 0.4538(8) 0.2479(8) -0.2296(6)
H27 H 0.4408 0.2300 -0.2971
H28 H 0.4685 0.3303 -0.1927
F9? F 1.051(3) 0.284(3) -0.049(2)
F10? F 1.122(4) 0.209(3) 0.046(2)
F11? F 1.291(8) 0.371(7) 0.043(5)
F12? F 1.257(8) 0.273(7) -0.046(7)
F13? F 1.217(5) 0.406(3) 0.108(2)
F14? F 1.137(4) 0.404(3) 0.083(2)
F15? F 0.507(3) 0.113(3) 0.252(2)
F16? F 0.512(4) 0.122(2) 0.394(2)
F17? F 0.4451(15) 0.2276(19) 0.2746(17)
F18? F 0.454(2) 0.2636(13) 0.3457(19)
F19? F 0.494(2) 0.191(3) 0.4154(8)
F20? F 0.5203(19) 0.0713(15) 0.2777(14)
O1? O 0.8776(19) -0.1400(16) 0.4430(12)
Cl1? Cl 0.6769(5) -0.0254(3) 0.4370(2)
C32? C 0.7946(17) -0.0901(11) 0.4873(8)
H29? H 0.7674 -0.1732 0.4464
H30? H 0.7810 -0.0877 0.5491
Cl2? Cl 1.0000 0.0000 0.5000
loop_
_geom_bond_atom_site_label_1
_geom_bond_atom_site_label_2
_geom_bond_site_symmetry_1
_geom_bond_site_symmetry_2
P1 C1 1_555 1_555
N1 C6 1_555 1_555
C1 C4 1_555 1_555
C2 P1 1_555 1_555
C3 P1 1_555 1_555
C4 H1 1_555 1_555
C5 C2 1_555 1_555
H2 C5 1_555 1_555
H3 C5 1_555 1_555
C6 C5 1_555 1_555
C7 C6 1_555 1_555
H4 C7 1_555 1_555
C8 P1 1_555 1_555
C9 C1 1_555 1_555
H5 C9 1_555 1_555
C10 C8 1_555 1_555
H6 C10 1_555 1_555
C11 C10 1_555 1_555
H7 C11 1_555 1_555
C12 C8 1_555 1_555
H8 C12 1_555 1_555
C13 N1 1_555 1_555
C14 C3 1_555 1_555
H9 C14 1_555 1_555
C15 C7 1_555 1_555
H10 C15 1_555 1_555
C16 C2 1_555 1_555
H11 C16 1_555 1_555
C17 C9 1_555 1_555
H12 C17 1_555 1_555
C18 C3 1_555 1_555
H13 C18 1_555 1_555
C19 N1 1_555 1_555
H14 C19 1_555 1_555
C20 C12 1_555 1_555
H15 C20 1_555 1_555
C21 C15 1_555 1_555
H16 C21 1_555 1_555
C22 C13 1_555 1_555
H17 C22 1_555 1_555
C23 C4 1_555 1_555
H18 C23 1_555 1_555
C24 C14 1_555 1_555
H19 C24 1_555 1_555
C25 C17 1_555 1_555
H20 C25 1_555 1_555
C26 C11 1_555 1_555
H21 C26 1_555 1_555
C27 C18 1_555 1_555
H22 C27 1_555 1_555
C28 H23 1_555 1_555
H24 C28 1_555 1_555
C29 C24 1_555 1_555
H25 C29 1_555 1_555
C30 C13 1_555 1_555
H26 C30 1_555 1_555
C31 C28 1_555 1_555
H27 C31 1_555 1_555
H28 C31 1_555 1_555
F1 B1 1_555 1_555
F2 B1 1_555 1_555
F3 B1 1_555 1_555
F4 B1 1_555 1_555
F5 B2 1_555 1_555
B2 F6 1_555 1_555
F7 B2 1_555 1_555
F8 B2 1_555 1_555
C16 C22 1_555 1_555
C19 C21 1_555 1_555
C20 C26 1_555 1_555
C23 C25 1_555 1_555
C27 C29 1_555 1_555
C28 C30 1_555 1_555
C30 C31 1_555 1_555

#END
