
#######################################################################
#
#                 Cambridge Crystallographic Data Centre
#                                CCDC 
#
#######################################################################
#
# If this CIF has been generated from an entry in the Cambridge 
# Structural Database, then it will include bibliographic, chemical, 
# crystal, experimental, refinement or atomic coordinate data resulting 
# from the CCDC's data processing and validation procedures.
#
#######################################################################

data_FICKUZ
_chemical_formula_moiety         'C18 H16 N4'
_chemical_name_systematic        
6-Amino-2-methyl-8-phenyl-1,2,3,4-tetrahydroisoquinoline-5,7-dicarbonitrile
_symmetry_cell_setting           monoclinic
_symmetry_space_group_name_H-M   'P 21/c'
_symmetry_Int_Tables_number      14
_space_group_name_Hall           '-P 2ybc'
loop_
_symmetry_equiv_pos_site_id
_symmetry_equiv_pos_as_xyz
1 x,y,z
2 -x,1/2+y,1/2-z
3 -x,-y,-z
4 x,1/2-y,1/2+z
_cell_length_a                   17.5630(5)
_cell_length_b                   6.25208(19)
_cell_length_c                   13.7963(4)
_cell_angle_alpha                90
_cell_angle_beta                 93.209(3)
_cell_angle_gamma                90
_cell_volume                     1512.53
_exptl_crystal_colour            colorless
_exptl_crystal_description       block
_cell_formula_units_Z            4
loop_
_atom_site_label
_atom_site_type_symbol
_atom_site_fract_x
_atom_site_fract_y
_atom_site_fract_z
N1 N 0.29081(7) -0.2394(2) 0.20203(9)
N2 N 0.50947(9) 0.2855(3) 0.43619(13)
N3 N 0.14961(8) 0.4536(2) 0.57681(10)
N4 N 0.34160(8) 0.4642(2) 0.53715(11)
H1 H 0.3908(8) 0.501(3) 0.5410(12)
H2 H 0.3136(9) 0.524(3) 0.5798(11)
C1 C 0.36603(8) 0.1934(2) 0.41825(11)
C2 C 0.31623(9) 0.3112(2) 0.47415(11)
C3 C 0.23791(8) 0.2589(2) 0.46164(10)
C4 C 0.21118(8) 0.0990(2) 0.39679(10)
C5 C 0.26291(8) -0.0177(2) 0.34345(10)
C6 C 0.34051(8) 0.0294(2) 0.35473(10)
C7 C 0.39820(9) -0.0919(3) 0.29916(12)
H3 H 0.4417 -0.1330 0.3440
H4 H 0.4179 0.0024 0.2486
C8 C 0.36428(9) -0.2911(3) 0.25165(12)
H5 H 0.3994 -0.3483 0.2043
H6 H 0.3572 -0.4021 0.3015
C9 C 0.23529(9) -0.1913(2) 0.27405(11)
H7 H 0.2251 -0.3227 0.3113
H8 H 0.1868 -0.1457 0.2403
C10 C 0.12744(8) 0.0567(2) 0.38652(10)
C11 C 0.07739(9) 0.2175(3) 0.35361(11)
H9 H 0.0967 0.3541 0.3374
C12 C -0.00049(9) 0.1790(3) 0.34448(11)
H10 H -0.0343 0.2889 0.3217
C13 C -0.02895(9) -0.0187(3) 0.36837(11)
H11 H -0.0823 -0.0446 0.3623
C14 C 0.02015(9) -0.1791(3) 0.40108(11)
H12 H 0.0005 -0.3152 0.4174
C15 C 0.09809(9) -0.1418(2) 0.41021(11)
H13 H 0.1316 -0.2526 0.4328
C16 C 0.44596(9) 0.2426(3) 0.42808(12)
C17 C 0.18663(8) 0.3655(2) 0.52358(11)
C18 C 0.26348(10) -0.4182(3) 0.14143(12)
H14 H 0.2595 -0.5464 0.1817
H15 H 0.2993 -0.4447 0.0909
H16 H 0.2132 -0.3833 0.1111
loop_
_geom_bond_atom_site_label_1
_geom_bond_atom_site_label_2
_geom_bond_site_symmetry_1
_geom_bond_site_symmetry_2
N1 C8 1_555 1_555
N2 C16 1_555 1_555
N3 C17 1_555 1_555
N4 H1 1_555 1_555
H2 N4 1_555 1_555
C1 C2 1_555 1_555
C2 N4 1_555 1_555
C3 C2 1_555 1_555
C4 C3 1_555 1_555
C5 C4 1_555 1_555
C6 C1 1_555 1_555
C7 C6 1_555 1_555
H3 C7 1_555 1_555
H4 C7 1_555 1_555
C8 C7 1_555 1_555
H5 C8 1_555 1_555
H6 C8 1_555 1_555
C9 N1 1_555 1_555
H7 C9 1_555 1_555
H8 C9 1_555 1_555
C10 C4 1_555 1_555
C11 C10 1_555 1_555
H9 C11 1_555 1_555
C12 C11 1_555 1_555
H10 C12 1_555 1_555
C13 C12 1_555 1_555
H11 C13 1_555 1_555
C14 C13 1_555 1_555
H12 C14 1_555 1_555
C15 C10 1_555 1_555
H13 C15 1_555 1_555
C16 C1 1_555 1_555
C17 C3 1_555 1_555
C18 N1 1_555 1_555
H14 C18 1_555 1_555
H15 C18 1_555 1_555
H16 C18 1_555 1_555
C5 C6 1_555 1_555
C5 C9 1_555 1_555
C14 C15 1_555 1_555

#END
