
#######################################################################
#
#                 Cambridge Crystallographic Data Centre
#                                CCDC 
#
#######################################################################
#
# If this CIF has been generated from an entry in the Cambridge 
# Structural Database, then it will include bibliographic, chemical, 
# crystal, experimental, refinement or atomic coordinate data resulting 
# from the CCDC's data processing and validation procedures.
#
#######################################################################

data_FICPIT
_chemical_formula_moiety         'C28 H24 Cl1 N3 O2'
_chemical_name_systematic        
2-benzyl-1-(4-chlorobenzene-1-carbonyl)-11-methyl-1,2,5,6,11,11b-hexahydro-3H-imidazo[1',2':1,2]pyrido[3,4-b]indol-3-one
_symmetry_cell_setting           monoclinic
_symmetry_space_group_name_H-M   'P 21'
_symmetry_Int_Tables_number      4
_space_group_name_Hall           'P 2yb'
loop_
_symmetry_equiv_pos_site_id
_symmetry_equiv_pos_as_xyz
1 x,y,z
2 -x,1/2+y,-z
_cell_length_a                   11.5989(9)
_cell_length_b                   7.9249(6)
_cell_length_c                   13.6960(11)
_cell_angle_alpha                90
_cell_angle_beta                 110.904(9)
_cell_angle_gamma                90
_cell_volume                     1176.07
_exptl_crystal_colour            colorless
_exptl_crystal_description       block
_cell_formula_units_Z            2
loop_
_atom_site_label
_atom_site_type_symbol
_atom_site_fract_x
_atom_site_fract_y
_atom_site_fract_z
Cl1 Cl -0.42771(11) 0.00582(18) -0.40329(9)
O1 O -0.5127(3) -0.7761(5) -0.8468(2)
O2 O -0.2755(3) -0.1788(4) -0.8104(2)
N1 N -0.0549(3) -0.5636(4) -0.8283(2)
N2 N -0.3957(3) -0.6125(4) -0.9143(2)
N3 N -0.2888(3) -0.4546(4) -0.7713(2)
C1 C 0.0151(3) -0.6908(6) -0.8466(3)
C2 C 0.1434(4) -0.7001(7) -0.8210(3)
H1 H 0.1953 -0.6132 -0.7854
C3 C 0.1890(4) -0.8434(8) -0.8508(3)
H2 H 0.2736 -0.8532 -0.8350
C4 C 0.1116(5) -0.9748(8) -0.9043(3)
H3 H 0.1457 -1.0701 -0.9230
C5 C -0.0131(4) -0.9653(7) -0.9294(3)
H4 H -0.0637 -1.0537 -0.9645
C6 C -0.0641(3) -0.8205(5) -0.9017(3)
C7 C -0.1868(3) -0.7665(6) -0.9176(3)
C8 C -0.3080(4) -0.8483(6) -0.9783(3)
H5 H -0.3256 -0.9368 -0.9367
H6 H -0.3040 -0.8988 -1.0415
C9 C -0.4105(4) -0.7150(6) -1.0065(3)
H7 H -0.4056 -0.6441 -1.0626
H8 H -0.4906 -0.7697 -1.0302
C10 C -0.1782(3) -0.6121(5) -0.8719(3)
C11 C -0.0091(4) -0.4012(6) -0.7828(4)
H9 H 0.0481 -0.4167 -0.7128
H10 H -0.0768 -0.3327 -0.7816
H11 H 0.0319 -0.3463 -0.8239
C12 C -0.4334(3) -0.6698(6) -0.8371(3)
C13 C -0.2852(3) -0.5063(6) -0.8735(2)
H12 H -0.2929 -0.4076 -0.9184
C14 C -0.3530(3) -0.5864(5) -0.7352(3)
H13 H -0.4039 -0.5367 -0.6989
C15 C -0.2676(4) -0.7234(5) -0.6679(3)
H14 H -0.3178 -0.8170 -0.6606
H15 H -0.2152 -0.7650 -0.7042
C16 C -0.1872(4) -0.6649(5) -0.5606(3)
C17 C -0.0673(4) -0.6114(6) -0.5395(4)
H16 H -0.0331 -0.6185 -0.5913
C18 C 0.0026(5) -0.5474(6) -0.4422(5)
H17 H 0.0828 -0.5104 -0.4292
C19 C -0.0467(7) -0.5390(7) -0.3653(4)
H18 H -0.0007 -0.4944 -0.3002
C20 C -0.2347(4) -0.6582(6) -0.4805(3)
H19 H -0.3145 -0.6959 -0.4926
C21 C -0.1651(6) -0.5971(7) -0.3845(3)
H20 H -0.1976 -0.5944 -0.3315
C22 C -0.2990(3) -0.2841(6) -0.7554(3)
C23 C -0.3358(3) -0.2282(5) -0.6657(3)
C24 C -0.2628(3) -0.2605(6) -0.5623(3)
H21 H -0.1938 -0.3295 -0.5471
C25 C -0.2929(3) -0.1903(6) -0.4824(3)
H22 H -0.2444 -0.2125 -0.4132
C26 C -0.3942(3) -0.0876(5) -0.5048(3)
C27 C -0.4677(4) -0.0550(6) -0.6063(3)
H23 H -0.5371 0.0132 -0.6209
C28 C -0.4377(3) -0.1246(5) -0.6871(3)
H24 H -0.4865 -0.1014 -0.7561
loop_
_geom_bond_atom_site_label_1
_geom_bond_atom_site_label_2
_geom_bond_site_symmetry_1
_geom_bond_site_symmetry_2
Cl1 C26 1_555 1_555
O1 C12 1_555 1_555
O2 C22 1_555 1_555
N1 C1 1_555 1_555
N2 C9 1_555 1_555
N3 C13 1_555 1_555
C1 C2 1_555 1_555
C2 H1 1_555 1_555
C3 C2 1_555 1_555
H2 C3 1_555 1_555
C4 C3 1_555 1_555
H3 C4 1_555 1_555
C5 C4 1_555 1_555
H4 C5 1_555 1_555
C6 C1 1_555 1_555
C7 C6 1_555 1_555
C8 C7 1_555 1_555
H5 C8 1_555 1_555
H6 C8 1_555 1_555
C9 C8 1_555 1_555
H7 C9 1_555 1_555
H8 C9 1_555 1_555
C10 N1 1_555 1_555
C11 N1 1_555 1_555
H9 C11 1_555 1_555
H10 C11 1_555 1_555
H11 C11 1_555 1_555
C12 N2 1_555 1_555
C13 N2 1_555 1_555
H12 C13 1_555 1_555
C14 N3 1_555 1_555
H13 C14 1_555 1_555
C15 C14 1_555 1_555
H14 C15 1_555 1_555
H15 C15 1_555 1_555
C16 C15 1_555 1_555
C17 C16 1_555 1_555
H16 C17 1_555 1_555
C18 C17 1_555 1_555
H17 C18 1_555 1_555
C19 C18 1_555 1_555
H18 C19 1_555 1_555
C20 C16 1_555 1_555
H19 C20 1_555 1_555
C21 C19 1_555 1_555
H20 C21 1_555 1_555
C22 N3 1_555 1_555
C23 C22 1_555 1_555
C24 C23 1_555 1_555
H21 C24 1_555 1_555
C25 C24 1_555 1_555
H22 C25 1_555 1_555
C26 C25 1_555 1_555
C27 C26 1_555 1_555
H23 C27 1_555 1_555
C28 C23 1_555 1_555
H24 C28 1_555 1_555
C5 C6 1_555 1_555
C7 C10 1_555 1_555
C10 C13 1_555 1_555
C12 C14 1_555 1_555
C20 C21 1_555 1_555
C27 C28 1_555 1_555

#END
