
#######################################################################
#
#                 Cambridge Crystallographic Data Centre
#                                CCDC 
#
#######################################################################
#
# If this CIF has been generated from an entry in the Cambridge 
# Structural Database, then it will include bibliographic, chemical, 
# crystal, experimental, refinement or atomic coordinate data resulting 
# from the CCDC's data processing and validation procedures.
#
#######################################################################

data_FICWOG
_chemical_formula_moiety         'C20 H14 N2 O2'
_chemical_name_systematic        3,4-dihydro-1,6-dioxa-2a,4a-diazacoronene
_symmetry_cell_setting           orthorhombic
_symmetry_space_group_name_H-M   'P c a 21'
_symmetry_Int_Tables_number      29
_space_group_name_Hall           'P 2c -2ac'
loop_
_symmetry_equiv_pos_site_id
_symmetry_equiv_pos_as_xyz
1 x,y,z
2 -x,-y,1/2+z
3 1/2-x,y,1/2+z
4 1/2+x,-y,z
_cell_length_a                   16.9028(8)
_cell_length_b                   16.5253(7)
_cell_length_c                   9.9901(4)
_cell_angle_alpha                90
_cell_angle_beta                 90
_cell_angle_gamma                90
_cell_volume                     2790.47
_exptl_crystal_colour            yellow
_exptl_crystal_description       Block
_cell_formula_units_Z            8
loop_
_atom_site_label
_atom_site_type_symbol
_atom_site_fract_x
_atom_site_fract_y
_atom_site_fract_z
O1 O 0.7211(4) 0.6061(3) -0.0628(6)
O2 O 0.3764(3) 0.5855(3) 0.3129(6)
N1 N 0.6583(4) 0.5703(4) 0.1396(6)
N2 N 0.5145(4) 0.5568(4) 0.2936(7)
C1 C 0.6461(6) 0.6631(5) -0.2521(9)
H1 H 0.6930 0.6683 -0.3037
C2 C 0.5762(6) 0.6876(4) -0.3043(8)
H2 H 0.5754 0.7084 -0.3929
C3 C 0.3629(5) 0.7076(4) -0.2046(9)
H3 H 0.3139 0.7279 -0.2371
C4 C 0.4286(6) 0.7116(5) -0.2843(8)
H4 H 0.4245 0.7327 -0.3725
C5 C 0.4542(5) 0.5941(5) 0.3732(8)
H5 H 0.4664 0.6523 0.3840
H6 H 0.4538 0.5691 0.4632
C6 C 0.5917(4) 0.5493(5) 0.3542(7)
H7 H 0.5884 0.5131 0.4329
H8 H 0.6098 0.6031 0.3853
C7 C 0.6504(5) 0.6291(5) -0.1184(8)
C8 C 0.5056(5) 0.6834(4) -0.2336(8)
C9 C 0.5093(5) 0.6518(4) -0.1028(11)
C10 C 0.5802(7) 0.6233(8) -0.0454(11)
C11 C 0.5831(9) 0.5933(10) 0.0893(14)
C12 C 0.5160(6) 0.5898(8) 0.1618(15)
C13 C 0.4418(2) 0.6180(4) 0.1066(5)
C14 C 0.4384(3) 0.6486(4) -0.0228(5)
C15 C 0.3665(3) 0.6741(3) -0.0756(4)
C16 C 0.2980(2) 0.6689(3) 0.0010(5)
H9 H 0.2489 0.6863 -0.0352
C17 C 0.3014(2) 0.6383(3) 0.1304(5)
H10 H 0.2547 0.6347 0.1828
C18 C 0.3733(3) 0.6128(3) 0.1833(4)
C19 C 0.6508(4) 0.5152(4) 0.2541(7)
H11 H 0.7029 0.5083 0.2978
H12 H 0.6327 0.4614 0.2228
C20 C 0.7117(4) 0.5448(5) 0.0363(8)
H13 H 0.7639 0.5320 0.0762
H14 H 0.6911 0.4949 -0.0063
O5 O 1.15075(14) 0.81772(14) 0.7730(3)
O6 O 0.76820(13) 0.87631(13) 1.0089(2)
N5 N 1.01187(16) 0.80890(16) 0.7372(3)
N6 N 0.85395(15) 0.83886(16) 0.8324(3)
C41 C 1.13971(18) 0.84998(18) 0.8994(3)
C42 C 1.20466(19) 0.86747(19) 0.9788(4)
H29 H 1.2566 0.8577 0.9462
C43 C 1.19385(19) 0.89931(19) 1.1062(4)
H30 H 1.2388 0.9118 1.1593
C44 C 1.11761(18) 0.91345(18) 1.1583(3)
C45 C 1.05149(18) 0.89449(17) 1.0763(3)
C46 C 1.06275(18) 0.86298(18) 0.9463(3)
C47 C 0.99633(18) 0.84186(17) 0.8646(3)
C48 C 0.92121(18) 0.85328(17) 0.9109(3)
C49 C 0.90874(18) 0.88385(17) 1.0428(3)
C50 C 0.97331(18) 0.90439(17) 1.1260(3)
C51 C 0.9600(2) 0.93455(17) 1.2571(3)
C52 C 1.0282(2) 0.95296(18) 1.3383(3)
H31 H 1.0207 0.9722 1.4270
C53 C 1.1029(2) 0.94346(18) 1.2907(3)
H32 H 1.1464 0.9570 1.3465
C54 C 0.88163(19) 0.94641(18) 1.2991(3)
H33 H 0.8718 0.9670 1.3863
C55 C 0.81815(18) 0.92869(18) 1.2157(3)
H34 H 0.7656 0.9389 1.2448
C56 C 0.83167(18) 0.89621(18) 1.0904(3)
C57 C 0.78713(18) 0.81446(18) 0.9141(3)
H35 H 0.7408 0.8040 0.8561
H36 H 0.8001 0.7637 0.9620
C58 C 0.8694(2) 0.7886(2) 0.7149(3)
H37 H 0.8242 0.7921 0.6521
H38 H 0.8755 0.7314 0.7425
C59 C 0.9445(2) 0.8175(2) 0.6459(3)
H39 H 0.9538 0.7850 0.5641
H40 H 0.9386 0.8748 0.6193
C60 C 1.0878(2) 0.8364(2) 0.6826(3)
H41 H 1.0975 0.8096 0.5955
H42 H 1.0858 0.8955 0.6674
O3? O 0.7296(3) 0.5942(3) -0.0022(6)
O4? O 0.3494(4) 0.6035(4) 0.2644(6)
N3? N 0.6423(4) 0.5703(4) 0.1814(6)
N4? N 0.4853(4) 0.5684(4) 0.2891(8)
C21? C 0.6690(5) 0.6199(4) -0.0798(8)
C22? C 0.5416(5) 0.6774(4) -0.2394(7)
C23? C 0.5285(5) 0.6501(4) -0.1049(11)
C24? C 0.5912(7) 0.6203(8) -0.0277(11)
C25? C 0.5755(9) 0.5938(10) 0.1044(14)
C26? C 0.5019(6) 0.5954(8) 0.1603(15)
C27? C 0.4379(3) 0.6276(4) 0.0807(5)
C28? C 0.4498(2) 0.6545(4) -0.0495(5)
C29? C 0.3863(3) 0.6829(3) -0.1243(4)
C30? C 0.3109(2) 0.6844(3) -0.0688(5)
H15? H 0.2674 0.7038 -0.1199
C31? C 0.2990(2) 0.6575(3) 0.0615(5)
H16? H 0.2475 0.6585 0.0994
C32? C 0.3625(3) 0.6291(3) 0.1362(4)
C33? C 0.7048(4) 0.5368(5) 0.0976(8)
H17? H 0.7506 0.5219 0.1543
H18? H 0.6854 0.4871 0.0532
C34? C 0.6807(4) 0.6492(4) -0.2123(8)
H19? H 0.7325 0.6500 -0.2494
C35? C 0.6167(5) 0.6767(4) -0.2884(8)
H20? H 0.6260 0.6955 -0.3769
C36? C 0.3977(5) 0.7112(4) -0.2559(8)
H21? H 0.3545 0.7324 -0.3056
C37? C 0.4730(4) 0.7077(4) -0.3124(7)
H22? H 0.4799 0.7257 -0.4019
C38? C 0.4199(5) 0.6113(5) 0.3485(8)
H23? H 0.4089 0.5891 0.4386
H24? H 0.4338 0.6692 0.3585
C39? C 0.5557(5) 0.5607(5) 0.3740(8)
H25? H 0.5428 0.5282 0.4544
H26? H 0.5732 0.6149 0.4038
C40? C 0.6209(5) 0.5201(5) 0.2962(8)
H27? H 0.6677 0.5124 0.3546
H28? H 0.6031 0.4663 0.2651
loop_
_geom_bond_atom_site_label_1
_geom_bond_atom_site_label_2
_geom_bond_site_symmetry_1
_geom_bond_site_symmetry_2
O1 C7 1_555 1_555
O2 C5 1_555 1_555
N1 C11 1_555 1_555
N2 C5 1_555 1_555
C1 H1 1_555 1_555
C2 C1 1_555 1_555
H2 C2 1_555 1_555
C3 H3 1_555 1_555
C4 C3 1_555 1_555
H4 C4 1_555 1_555
C5 H5 1_555 1_555
H6 C5 1_555 1_555
C6 N2 1_555 1_555
H7 C6 1_555 1_555
H8 C6 1_555 1_555
C7 C1 1_555 1_555
C8 C2 1_555 1_555
C9 C8 1_555 1_555
C10 C7 1_555 1_555
C11 C10 1_555 1_555
C12 N2 1_555 1_555
C13 C12 1_555 1_555
C14 C9 1_555 1_555
C15 C3 1_555 1_555
C16 C15 1_555 1_555
H9 C16 1_555 1_555
C17 C16 1_555 1_555
H10 C17 1_555 1_555
C18 O2 1_555 1_555
C19 N1 1_555 1_555
H11 C19 1_555 1_555
H12 C19 1_555 1_555
C20 O1 1_555 1_555
H13 C20 1_555 1_555
H14 C20 1_555 1_555
O5 C41 1_555 1_555
O6 C56 1_555 1_555
N5 C47 1_555 1_555
N6 C48 1_555 1_555
C41 C42 1_555 1_555
C42 H29 1_555 1_555
C43 C42 1_555 1_555
H30 C43 1_555 1_555
C44 C43 1_555 1_555
C45 C44 1_555 1_555
C46 C41 1_555 1_555
C47 C46 1_555 1_555
C48 C47 1_555 1_555
C49 C48 1_555 1_555
C50 C45 1_555 1_555
C51 C50 1_555 1_555
C52 C51 1_555 1_555
H31 C52 1_555 1_555
C53 C44 1_555 1_555
H32 C53 1_555 1_555
C54 C51 1_555 1_555
H33 C54 1_555 1_555
C55 C54 1_555 1_555
H34 C55 1_555 1_555
C56 C49 1_555 1_555
C57 O6 1_555 1_555
H35 C57 1_555 1_555
H36 C57 1_555 1_555
C58 N6 1_555 1_555
H37 C58 1_555 1_555
H38 C58 1_555 1_555
C59 N5 1_555 1_555
H39 C59 1_555 1_555
H40 C59 1_555 1_555
C60 O5 1_555 1_555
H41 C60 1_555 1_555
H42 C60 1_555 1_555
N1 C20 1_555 1_555
C4 C8 1_555 1_555
C6 C19 1_555 1_555
C9 C10 1_555 1_555
C11 C12 1_555 1_555
C13 C14 1_555 1_555
C13 C18 1_555 1_555
C14 C15 1_555 1_555
C17 C18 1_555 1_555
N5 C60 1_555 1_555
N6 C57 1_555 1_555
C45 C46 1_555 1_555
C49 C50 1_555 1_555
C52 C53 1_555 1_555
C55 C56 1_555 1_555
C58 C59 1_555 1_555

#END
