
#######################################################################
#
#                 Cambridge Crystallographic Data Centre
#                                CCDC 
#
#######################################################################
#
# If this CIF has been generated from an entry in the Cambridge 
# Structural Database, then it will include bibliographic, chemical, 
# crystal, experimental, refinement or atomic coordinate data resulting 
# from the CCDC's data processing and validation procedures.
#
#######################################################################

data_FIFVOI01
_chemical_formula_moiety         'C24 H18 N2 O4 2+,2(Cl1 1-)'
_chemical_name_systematic        
"1,1'-bis(4-carboxyphenyl)-4,4'-bipyridin-1-ium bis(chloride)"
_symmetry_cell_setting           monoclinic
_symmetry_space_group_name_H-M   'P 21/n'
_symmetry_Int_Tables_number      14
_space_group_name_Hall           '-P 2yn'
loop_
_symmetry_equiv_pos_site_id
_symmetry_equiv_pos_as_xyz
1 x,y,z
2 1/2-x,1/2+y,1/2-z
3 -x,-y,-z
4 1/2+x,1/2-y,1/2+z
_cell_length_a                   14.1818(3)
_cell_length_b                   9.4204(2)
_cell_length_c                   15.9624(4)
_cell_angle_alpha                90
_cell_angle_beta                 98.2680(10)
_cell_angle_gamma                90
_cell_volume                     2110.38
_exptl_crystal_colour            yellow
_exptl_crystal_description       prism
_cell_formula_units_Z            4
loop_
_atom_site_label
_atom_site_type_symbol
_atom_site_fract_x
_atom_site_fract_y
_atom_site_fract_z
C1 C 1.1268(2) 0.6544(3) 0.37007(16)
C2 C 1.0252(2) 0.6195(3) 0.37614(16)
C3 C 0.9745(2) 0.5437(3) 0.30987(16)
H1 H 1.0037 0.5219 0.2615
C4 C 0.8823(2) 0.4994(3) 0.31332(17)
H2 H 0.8481 0.4465 0.2682
C5 C 0.84083(19) 0.5339(2) 0.38403(16)
C6 C 0.8882(2) 0.6128(2) 0.44996(17)
H3 H 0.8577 0.6377 0.4971
C7 C 0.9811(2) 0.6549(3) 0.44599(16)
H4 H 1.0149 0.7082 0.4911
C8 C 0.72720(19) 0.3421(2) 0.36798(16)
H5 H 0.7768 0.2825 0.3542
C9 C 0.63756(19) 0.2876(2) 0.36731(16)
H6 H 0.6251 0.1908 0.3532
C10 C 0.56466(19) 0.3749(2) 0.38745(15)
C11 C 0.58617(19) 0.5167(2) 0.40845(15)
H7 H 0.5378 0.5782 0.4228
C12 C 0.67683(19) 0.5669(2) 0.40840(15)
H8 H 0.6912 0.6631 0.4227
C13 C 0.46695(19) 0.3195(2) 0.38255(15)
C14 C 0.44932(19) 0.1771(2) 0.39868(15)
H9 H 0.5009 0.1145 0.4163
C15 C 0.3577(2) 0.1276(2) 0.38921(15)
H10 H 0.3461 0.0305 0.4001
C16 C 0.2986(2) 0.3556(2) 0.35045(16)
H11 H 0.2460 0.4170 0.3343
C17 C 0.3888(2) 0.4087(2) 0.35942(16)
H12 H 0.3986 0.5068 0.3499
C18 C 0.18587(19) 0.1642(2) 0.35305(15)
C19 C 0.1216(2) 0.2199(3) 0.28779(15)
H13 H 0.1422 0.2846 0.2485
C20 C 0.0267(2) 0.1796(3) 0.28067(16)
H14 H -0.0185 0.2180 0.2368
C21 C -0.00242(19) 0.0835(2) 0.33759(15)
C22 C 0.0645(2) 0.0256(3) 0.40087(17)
H15 H 0.0448 -0.0423 0.4388
C23 C 0.1590(2) 0.0656(3) 0.40902(16)
H16 H 0.2046 0.0261 0.4522
C24 C -0.1062(2) 0.0489(2) 0.33076(16)
N1 N 0.74607(15) 0.4795(2) 0.38804(13)
N2 N 0.28305(15) 0.2162(2) 0.36428(12)
O1 O 1.16220(15) 0.6303(2) 0.30671(12)
O2 O 1.17400(15) 0.7089(2) 0.44006(12)
O3 O -0.16546(14) 0.1014(2) 0.27772(12)
O4 O -0.12619(16) -0.0407(3) 0.38892(15)
H17 H -0.191(3) -0.052(4) 0.384(2)
H18 H 1.236(3) 0.730(5) 0.425(3)
Cl1 Cl 1.37483(4) 0.76729(6) 0.42324(4)
Cl2 Cl -0.33106(5) -0.08087(6) 0.40201(4)
loop_
_geom_bond_atom_site_label_1
_geom_bond_atom_site_label_2
_geom_bond_site_symmetry_1
_geom_bond_site_symmetry_2
C1 C2 1_555 1_555
C2 C3 1_555 1_555
C3 H1 1_555 1_555
C4 C3 1_555 1_555
H2 C4 1_555 1_555
C5 C4 1_555 1_555
C6 C5 1_555 1_555
H3 C6 1_555 1_555
C7 C2 1_555 1_555
H4 C7 1_555 1_555
C8 H5 1_555 1_555
C9 C8 1_555 1_555
H6 C9 1_555 1_555
C10 C9 1_555 1_555
C11 C10 1_555 1_555
H7 C11 1_555 1_555
C12 C11 1_555 1_555
H8 C12 1_555 1_555
C13 C10 1_555 1_555
C14 C13 1_555 1_555
H9 C14 1_555 1_555
C15 C14 1_555 1_555
H10 C15 1_555 1_555
C16 H11 1_555 1_555
C17 C13 1_555 1_555
H12 C17 1_555 1_555
C18 C19 1_555 1_555
C19 H13 1_555 1_555
C20 C19 1_555 1_555
H14 C20 1_555 1_555
C21 C20 1_555 1_555
C22 C21 1_555 1_555
H15 C22 1_555 1_555
C23 C18 1_555 1_555
H16 C23 1_555 1_555
C24 C21 1_555 1_555
N1 C5 1_555 1_555
N2 C15 1_555 1_555
O1 C1 1_555 1_555
O2 C1 1_555 1_555
O3 C24 1_555 1_555
O4 C24 1_555 1_555
H17 O4 1_555 1_555
H18 O2 1_555 1_555
C6 C7 1_555 1_555
C8 N1 1_555 1_555
C12 N1 1_555 1_555
C16 C17 1_555 1_555
C16 N2 1_555 1_555
C18 N2 1_555 1_555
C22 C23 1_555 1_555

#END
