
#######################################################################
#
#                 Cambridge Crystallographic Data Centre
#                                CCDC 
#
#######################################################################
#
# If this CIF has been generated from an entry in the Cambridge 
# Structural Database, then it will include bibliographic, chemical, 
# crystal, experimental, refinement or atomic coordinate data resulting 
# from the CCDC's data processing and validation procedures.
#
#######################################################################

data_FIFWAV
_chemical_formula_moiety         'C24 H18 N2 O4 2+,2(Cl1 1-),2(H2 O1)'
_chemical_name_systematic        
"1,1'-bis(4-carboxyphenyl)-4,4'-bipyridin-1-ium bis(chloride) dihydrate"
_symmetry_cell_setting           triclinic
_symmetry_space_group_name_H-M   'P -1'
_symmetry_Int_Tables_number      2
_space_group_name_Hall           '-P 1'
loop_
_symmetry_equiv_pos_site_id
_symmetry_equiv_pos_as_xyz
1 x,y,z
2 -x,-y,-z
_cell_length_a                   7.1913(3)
_cell_length_b                   7.3327(3)
_cell_length_c                   11.7139(4)
_cell_angle_alpha                87.6080(10)
_cell_angle_beta                 85.3330(10)
_cell_angle_gamma                68.9930(10)
_cell_volume                     574.675
_exptl_crystal_colour            yellow
_exptl_crystal_description       prism
_cell_formula_units_Z            1
loop_
_atom_site_label
_atom_site_type_symbol
_atom_site_fract_x
_atom_site_fract_y
_atom_site_fract_z
C1 C -0.0904(2) 0.6873(2) 0.37576(15)
C2 C -0.2316(2) 0.7302(2) 0.47996(14)
C3 C -0.1838(2) 0.7879(3) 0.58150(15)
H1 H -0.0614 0.8030 0.5850
C4 C -0.3158(2) 0.8231(3) 0.67717(15)
H2 H -0.2819 0.8577 0.7459
C5 C -0.4997(2) 0.8060(2) 0.66905(13)
C6 C -0.5520(2) 0.7517(3) 0.56837(15)
H3 H -0.6768 0.7423 0.5642
C7 C -0.4165(3) 0.7118(3) 0.47425(15)
H4 H -0.4488 0.6723 0.4065
C8 C -0.6652(3) 1.0167(3) 0.82690(16)
H5 H -0.5843 1.0889 0.8060
C9 C -0.8033(3) 1.0744(3) 0.91771(16)
H6 H -0.8164 1.1859 0.9575
C10 C -0.9244(2) 0.9680(2) 0.95111(13)
C11 C -0.8983(2) 0.8021(2) 0.88825(15)
H7 H -0.9771 0.7274 0.9080
C12 C -0.7582(2) 0.7483(2) 0.79790(15)
H8 H -0.7411 0.6364 0.7573
N1 N -0.64404(18) 0.85698(19) 0.76718(11)
O1 O 0.0536(2) 0.7588(3) 0.38129(13)
H9 H 0.135(4) 0.744(4) 0.3187(18)
O2 O -0.1069(2) 0.5983(2) 0.29530(11)
C1A C -1.9096(2) 1.3127(2) 1.62424(15)
C2A C -1.7684(2) 1.2698(2) 1.52004(14)
C3A C -1.8162(2) 1.2121(3) 1.41850(15)
H1A H -1.9386 1.1970 1.4150
C4A C -1.6842(2) 1.1769(3) 1.32283(15)
H2A H -1.7181 1.1423 1.2541
C5A C -1.5003(2) 1.1940(2) 1.33095(13)
C6A C -1.4480(2) 1.2483(3) 1.43163(15)
H3A H -1.3232 1.2577 1.4358
C7A C -1.5835(3) 1.2882(3) 1.52575(15)
H4A H -1.5512 1.3277 1.5935
C8A C -1.3348(3) 0.9833(3) 1.17310(16)
H5A H -1.4157 0.9111 1.1940
C9A C -1.1967(3) 0.9256(3) 1.08229(16)
H6A H -1.1836 0.8141 1.0425
C10A C -1.0756(2) 1.0320(2) 1.04889(13)
C11A C -1.1017(2) 1.1979(2) 1.11175(15)
H7A H -1.0229 1.2726 1.0920
C12A C -1.2418(2) 1.2517(2) 1.20210(15)
H8A H -1.2589 1.3636 1.2427
N1A N -1.35596(18) 1.14302(19) 1.23282(11)
O1A O -2.0536(2) 1.2412(3) 1.61871(13)
H9A H -2.135(4) 1.256(4) 1.6813(18)
O2A O -1.8931(2) 1.4017(2) 1.70470(11)
O3 O -0.6804(4) 1.3644(3) 1.04573(17)
H10 H -0.723(6) 1.466(4) 1.091(3)
H11 H -0.606(6) 1.366(6) 0.985(2)
Cl1 Cl 0.36059(6) 0.70486(7) 0.18581(4)
loop_
_geom_bond_atom_site_label_1
_geom_bond_atom_site_label_2
_geom_bond_site_symmetry_1
_geom_bond_site_symmetry_2
C1 C2 1_555 1_555
C2 C3 1_555 1_555
C3 H1 1_555 1_555
C4 C3 1_555 1_555
H2 C4 1_555 1_555
C5 C4 1_555 1_555
C6 C5 1_555 1_555
H3 C6 1_555 1_555
C7 C2 1_555 1_555
H4 C7 1_555 1_555
C8 H5 1_555 1_555
C9 C8 1_555 1_555
H6 C9 1_555 1_555
C10 C9 1_555 1_555
C11 C10 1_555 1_555
H7 C11 1_555 1_555
C12 C11 1_555 1_555
H8 C12 1_555 1_555
N1 C5 1_555 1_555
O1 C1 1_555 1_555
H9 O1 1_555 1_555
O2 C1 1_555 1_555
O3 H10 1_555 1_555
H11 O3 1_555 1_555
C1A C2A 1_555 1_555
C2A C3A 1_555 1_555
C3A H1A 1_555 1_555
C4A C3A 1_555 1_555
H2A C4A 1_555 1_555
C5A C4A 1_555 1_555
C6A C5A 1_555 1_555
H3A C6A 1_555 1_555
C7A C2A 1_555 1_555
H4A C7A 1_555 1_555
C8A H5A 1_555 1_555
C9A C8A 1_555 1_555
H6A C9A 1_555 1_555
C10A C10 1_555 1_555
C11A C10A 1_555 1_555
H7A C11A 1_555 1_555
C12A C11A 1_555 1_555
H8A C12A 1_555 1_555
N1A C5A 1_555 1_555
O1A C1A 1_555 1_555
H9A O1A 1_555 1_555
O2A C1A 1_555 1_555
C6 C7 1_555 1_555
C8 N1 1_555 1_555
C12 N1 1_555 1_555
C6A C7A 1_555 1_555
C8A N1A 1_555 1_555
C9A C10A 1_555 1_555
C12A N1A 1_555 1_555

#END
