
#######################################################################
#
#                 Cambridge Crystallographic Data Centre
#                                CCDC 
#
#######################################################################
#
# If this CIF has been generated from an entry in the Cambridge 
# Structural Database, then it will include bibliographic, chemical, 
# crystal, experimental, refinement or atomic coordinate data resulting 
# from the CCDC's data processing and validation procedures.
#
#######################################################################

data_FIGJUC
_chemical_formula_moiety         'C13 H10 B1 F2 N1 O1'
_chemical_name_systematic        
1,1-Difluoro-3-phenyl-1H-9\l^5^,1\l^5^-pyrido[1,2-c][1,3,2]oxazaborinine
_symmetry_cell_setting           monoclinic
_symmetry_space_group_name_H-M   'P 21/n'
_symmetry_Int_Tables_number      14
_space_group_name_Hall           '-P 2yn'
loop_
_symmetry_equiv_pos_site_id
_symmetry_equiv_pos_as_xyz
1 x,y,z
2 1/2-x,1/2+y,1/2-z
3 -x,-y,-z
4 1/2+x,1/2-y,1/2+z
_cell_length_a                   7.2594(2)
_cell_length_b                   12.6262(3)
_cell_length_c                   12.6109(4)
_cell_angle_alpha                90
_cell_angle_beta                 101.226(1)
_cell_angle_gamma                90
_cell_volume                     1133.78
_exptl_crystal_colour            colorless
_exptl_crystal_description       prism
_cell_formula_units_Z            4
loop_
_atom_site_label
_atom_site_type_symbol
_atom_site_fract_x
_atom_site_fract_y
_atom_site_fract_z
N1 N 0.22460(15) 0.12290(9) 0.39919(9)
O1 O 0.13780(16) -0.06738(8) 0.37719(8)
B1 B 0.1676(3) 0.02693(14) 0.31936(13)
F1 F 0.00625(15) 0.05297(8) 0.24833(8)
F2 F 0.31496(16) 0.01146(9) 0.26547(8)
C1 C 0.21364(17) -0.08265(11) 0.48156(10)
C2 C 0.28750(19) -0.00136(11) 0.54442(10)
H1 H 0.3403 -0.0151 0.6173
C3 C 0.28957(17) 0.10466(11) 0.50592(10)
C4 C 0.3559(2) 0.19051(12) 0.57239(11)
H2 H 0.4039 0.1790 0.6463
C5 C 0.3520(2) 0.29070(12) 0.53169(14)
H3 H 0.3971 0.3479 0.5771
C6 C 0.2810(2) 0.30762(12) 0.42296(14)
H4 H 0.2751 0.3762 0.3935
C7 C 0.2200(2) 0.22238(12) 0.35978(12)
H5 H 0.1728 0.2333 0.2857
C8 C 0.20910(17) -0.19342(11) 0.51748(11)
C9 C 0.1480(2) -0.27302(12) 0.44264(12)
H6 H 0.1028 -0.2552 0.3698
C10 C 0.1531(2) -0.37842(12) 0.47422(15)
H7 H 0.1108 -0.4314 0.4229
C11 C 0.2196(2) -0.40560(12) 0.58011(15)
H8 H 0.2240 -0.4771 0.6012
C12 C 0.2801(2) -0.32774(13) 0.65561(13)
H9 H 0.3261 -0.3463 0.7281
C13 C 0.2735(2) -0.22280(12) 0.62507(12)
H10 H 0.3128 -0.1703 0.6774
loop_
_geom_bond_atom_site_label_1
_geom_bond_atom_site_label_2
_geom_bond_site_symmetry_1
_geom_bond_site_symmetry_2
N1 B1 1_555 1_555
O1 B1 1_555 1_555
B1 F1 1_555 1_555
F2 B1 1_555 1_555
C1 O1 1_555 1_555
C2 C1 1_555 1_555
H1 C2 1_555 1_555
C3 N1 1_555 1_555
C4 C3 1_555 1_555
H2 C4 1_555 1_555
C5 C4 1_555 1_555
H3 C5 1_555 1_555
C6 C5 1_555 1_555
H4 C6 1_555 1_555
C7 N1 1_555 1_555
H5 C7 1_555 1_555
C8 C1 1_555 1_555
C9 C8 1_555 1_555
H6 C9 1_555 1_555
C10 C9 1_555 1_555
H7 C10 1_555 1_555
C11 C10 1_555 1_555
H8 C11 1_555 1_555
C12 C11 1_555 1_555
H9 C12 1_555 1_555
C13 C8 1_555 1_555
H10 C13 1_555 1_555
C2 C3 1_555 1_555
C6 C7 1_555 1_555
C12 C13 1_555 1_555

#END
