
#######################################################################
#
#                 Cambridge Crystallographic Data Centre
#                                CCDC 
#
#######################################################################
#
# If this CIF has been generated from an entry in the Cambridge 
# Structural Database, then it will include bibliographic, chemical, 
# crystal, experimental, refinement or atomic coordinate data resulting 
# from the CCDC's data processing and validation procedures.
#
#######################################################################

data_FIGJEM
_chemical_formula_moiety         'C25 H21 B1 F2 N2'
_chemical_name_systematic        
2-(2,6-Dimethylphenyl)-1,1-difluoro-3-phenyl-1,2-dihydro-11\l^5^,1\l^5^-[1,3,2]diazaborinino[1,6-a]quinoline
_symmetry_cell_setting           monoclinic
_symmetry_space_group_name_H-M   'P 21/c'
_symmetry_Int_Tables_number      14
_space_group_name_Hall           '-P 2ybc'
loop_
_symmetry_equiv_pos_site_id
_symmetry_equiv_pos_as_xyz
1 x,y,z
2 -x,1/2+y,1/2-z
3 -x,-y,-z
4 x,1/2-y,1/2+z
_cell_length_a                   14.2239(3)
_cell_length_b                   18.0454(4)
_cell_length_c                   7.8166(2)
_cell_angle_alpha                90
_cell_angle_beta                 101.076(1)
_cell_angle_gamma                90
_cell_volume                     1968.96
_exptl_crystal_colour            yellow
_exptl_crystal_description       prism
_cell_formula_units_Z            4
loop_
_atom_site_label
_atom_site_type_symbol
_atom_site_fract_x
_atom_site_fract_y
_atom_site_fract_z
F1 F 0.62718(5) 0.43892(4) 0.47981(11)
F2 F 0.55747(5) 0.44550(4) 0.19387(12)
B1 B 0.61958(10) 0.40514(7) 0.31761(19)
N1 N 0.72022(7) 0.40141(5) 0.27042(12)
N2 N 0.57798(7) 0.32465(5) 0.32866(12)
C1 C 0.76404(8) 0.33737(6) 0.24208(14)
C2 C 0.71809(9) 0.27094(7) 0.24841(16)
H1 H 0.7488 0.2277 0.2207
C3 C 0.62725(9) 0.26387(6) 0.29422(15)
C4 C 0.58878(9) 0.19160(7) 0.30749(17)
H2 H 0.6224 0.1500 0.2789
C5 C 0.50495(10) 0.18226(7) 0.36048(17)
H3 H 0.4814 0.1343 0.3726
C6 C 0.45205(9) 0.24496(7) 0.39809(16)
C7 C 0.36354(10) 0.23760(9) 0.4516(2)
H4 H 0.3395 0.1900 0.4666
C8 C 0.31196(10) 0.29816(10) 0.4822(2)
H5 H 0.2527 0.2923 0.5171
C9 C 0.34777(9) 0.36895(9) 0.46116(19)
H6 H 0.3121 0.4107 0.4820
C10 C 0.43442(9) 0.37849(8) 0.41040(17)
H7 H 0.4575 0.4266 0.3971
C11 C 0.48856(8) 0.31664(7) 0.37832(15)
C12 C 0.86412(8) 0.33724(6) 0.20940(15)
C13 C 0.89396(9) 0.38214(7) 0.08486(15)
H8 H 0.8499 0.4141 0.0162
C14 C 0.98799(10) 0.38009(8) 0.06137(17)
H9 H 1.0074 0.4106 -0.0229
C15 C 1.05347(9) 0.33322(8) 0.16156(17)
H10 H 1.1176 0.3327 0.1471
C16 C 1.02450(9) 0.28745(7) 0.28244(17)
H11 H 1.0686 0.2549 0.3488
C17 C 0.93051(9) 0.28919(7) 0.30670(16)
H12 H 0.9113 0.2577 0.3895
C18 C 0.77405(8) 0.46996(6) 0.29223(15)
C19 C 0.76053(8) 0.52231(6) 0.15764(16)
C20 C 0.81514(9) 0.58702(7) 0.18468(19)
H13 H 0.8077 0.6231 0.0964
C21 C 0.87948(10) 0.59931(7) 0.3372(2)
H14 H 0.9157 0.6432 0.3519
C22 C 0.89096(9) 0.54745(8) 0.46820(18)
H15 H 0.9352 0.5562 0.5720
C23 C 0.83810(8) 0.48224(7) 0.44936(15)
C24 C 0.69299(11) 0.51042(8) -0.01329(18)
H16 H 0.6311 0.5318 -0.0076
H17 H 0.6857 0.4577 -0.0365
H18 H 0.7186 0.5341 -0.1060
C25 C 0.85078(10) 0.42766(8) 0.59703(17)
H19 H 0.7891 0.4174 0.6275
H20 H 0.8937 0.4483 0.6973
H21 H 0.8777 0.3821 0.5617
loop_
_geom_bond_atom_site_label_1
_geom_bond_atom_site_label_2
_geom_bond_site_symmetry_1
_geom_bond_site_symmetry_2
F1 B1 1_555 1_555
F2 B1 1_555 1_555
B1 N1 1_555 1_555
N1 C1 1_555 1_555
N2 B1 1_555 1_555
C1 C2 1_555 1_555
C2 H1 1_555 1_555
C3 N2 1_555 1_555
C4 C3 1_555 1_555
H2 C4 1_555 1_555
C5 C4 1_555 1_555
H3 C5 1_555 1_555
C6 C5 1_555 1_555
C7 C6 1_555 1_555
H4 C7 1_555 1_555
C8 C7 1_555 1_555
H5 C8 1_555 1_555
C9 C8 1_555 1_555
H6 C9 1_555 1_555
C10 C9 1_555 1_555
H7 C10 1_555 1_555
C11 N2 1_555 1_555
C12 C1 1_555 1_555
C13 C12 1_555 1_555
H8 C13 1_555 1_555
C14 C13 1_555 1_555
H9 C14 1_555 1_555
C15 C14 1_555 1_555
H10 C15 1_555 1_555
C16 C15 1_555 1_555
H11 C16 1_555 1_555
C17 C12 1_555 1_555
H12 C17 1_555 1_555
C18 N1 1_555 1_555
C19 C18 1_555 1_555
C20 C19 1_555 1_555
H13 C20 1_555 1_555
C21 C20 1_555 1_555
H14 C21 1_555 1_555
C22 C21 1_555 1_555
H15 C22 1_555 1_555
C23 C18 1_555 1_555
C24 C19 1_555 1_555
H16 C24 1_555 1_555
H17 C24 1_555 1_555
H18 C24 1_555 1_555
C25 C23 1_555 1_555
H19 C25 1_555 1_555
H20 C25 1_555 1_555
H21 C25 1_555 1_555
C2 C3 1_555 1_555
C6 C11 1_555 1_555
C10 C11 1_555 1_555
C16 C17 1_555 1_555
C22 C23 1_555 1_555

#END
