
#######################################################################
#
#                 Cambridge Crystallographic Data Centre
#                                CCDC 
#
#######################################################################
#
# If this CIF has been generated from an entry in the Cambridge 
# Structural Database, then it will include bibliographic, chemical, 
# crystal, experimental, refinement or atomic coordinate data resulting 
# from the CCDC's data processing and validation procedures.
#
#######################################################################

data_FIGPIX
_chemical_formula_moiety         'C24 H22 B1 N1 S1'
_chemical_name_systematic        
6-(thiophen-3-yl)-6-(2,4,6-trimethylphenyl)-6H-pyrido[1,2-b][2,1]benzazaborole
_symmetry_cell_setting           monoclinic
_symmetry_space_group_name_H-M   'P 21/n'
_symmetry_Int_Tables_number      14
_space_group_name_Hall           '-P 2yn'
loop_
_symmetry_equiv_pos_site_id
_symmetry_equiv_pos_as_xyz
1 x,y,z
2 1/2-x,1/2+y,1/2-z
3 -x,-y,-z
4 1/2+x,1/2-y,1/2+z
_cell_length_a                   8.285(4)
_cell_length_b                   20.812(9)
_cell_length_c                   11.597(5)
_cell_angle_alpha                90
_cell_angle_beta                 94.450(11)
_cell_angle_gamma                90
_cell_volume                     1993.61
_exptl_crystal_colour            colorless
_exptl_crystal_description       Block
_cell_formula_units_Z            4
loop_
_atom_site_label
_atom_site_type_symbol
_atom_site_fract_x
_atom_site_fract_y
_atom_site_fract_z
N1 N 0.5381(5) 0.6798(2) 0.6249(4)
B1 B 0.3536(6) 0.6643(3) 0.5716(5)
S1 S 0.2089(2) 0.54217(10) 0.82544(18)
C1 C 0.2836(5) 0.6278(2) 0.6794(4)
C2 C 0.2375(6) 0.6598(3) 0.7813(5)
H1 H 0.2377 0.7052 0.7891
C3 C 0.1887(5) 0.6151(2) 0.8750(4)
H2 H 0.1533 0.6269 0.9480
C4 C 0.2745(7) 0.5628(3) 0.6968(5)
H3 H 0.3027 0.5321 0.6412
C5 C 0.2977(6) 0.7389(2) 0.5571(4)
C6 C 0.1542(6) 0.7669(2) 0.5097(5)
H4 H 0.0684 0.7406 0.4777
C7 C 0.1374(8) 0.8329(3) 0.5096(5)
H5 H 0.0392 0.8516 0.4777
C8 C 0.2593(8) 0.8719(3) 0.5545(5)
H6 H 0.2445 0.9172 0.5538
C9 C 0.4022(7) 0.8465(3) 0.6003(5)
H7 H 0.4871 0.8737 0.6309
C10 C 0.4217(6) 0.7796(2) 0.6016(5)
C11 C 0.5643(6) 0.7438(3) 0.6443(5)
C12 C 0.7104(7) 0.7641(3) 0.6956(5)
H8 H 0.7303 0.8086 0.7083
C13 C 0.8269(7) 0.7199(4) 0.7283(6)
H9 H 0.9279 0.7337 0.7643
C14 C 0.7985(7) 0.6547(3) 0.7090(5)
H10 H 0.8794 0.6238 0.7309
C15 C 0.6518(6) 0.6364(3) 0.6581(5)
H11 H 0.6298 0.5920 0.6460
C16 C 0.3450(6) 0.6242(2) 0.4501(4)
C17 C 0.2035(6) 0.5891(2) 0.4133(5)
C18 C 0.1981(6) 0.5507(2) 0.3153(5)
H12 H 0.1031 0.5263 0.2952
C19 C 0.3271(7) 0.5467(3) 0.2452(5)
C20 C 0.4608(6) 0.5846(3) 0.2754(5)
H13 H 0.5483 0.5843 0.2271
C21 C 0.4725(6) 0.6232(2) 0.3740(5)
C22 C 0.6188(6) 0.6667(3) 0.3868(5)
H14 H 0.6609 0.6732 0.3110
H15 H 0.7026 0.6468 0.4395
H16 H 0.5878 0.7082 0.4182
C23 C 0.0466(6) 0.5941(3) 0.4718(5)
H17 H -0.0448 0.5953 0.4129
H18 H 0.0474 0.6334 0.5182
H19 H 0.0357 0.5567 0.5220
C24 C 0.3186(8) 0.5046(3) 0.1396(5)
H20 H 0.3697 0.5266 0.0772
H21 H 0.2051 0.4955 0.1149
H22 H 0.3755 0.4641 0.1579
loop_
_geom_bond_atom_site_label_1
_geom_bond_atom_site_label_2
_geom_bond_site_symmetry_1
_geom_bond_site_symmetry_2
N1 B1 1_555 1_555
B1 C1 1_555 1_555
S1 C3 1_555 1_555
C1 C2 1_555 1_555
C2 H1 1_555 1_555
C3 C2 1_555 1_555
H2 C3 1_555 1_555
C4 S1 1_555 1_555
H3 C4 1_555 1_555
C5 B1 1_555 1_555
C6 C5 1_555 1_555
H4 C6 1_555 1_555
C7 C6 1_555 1_555
H5 C7 1_555 1_555
C8 C7 1_555 1_555
H6 C8 1_555 1_555
C9 C8 1_555 1_555
H7 C9 1_555 1_555
C10 C5 1_555 1_555
C11 N1 1_555 1_555
C12 C11 1_555 1_555
H8 C12 1_555 1_555
C13 C12 1_555 1_555
H9 C13 1_555 1_555
C14 C13 1_555 1_555
H10 C14 1_555 1_555
C15 N1 1_555 1_555
H11 C15 1_555 1_555
C16 B1 1_555 1_555
C17 C16 1_555 1_555
C18 C17 1_555 1_555
H12 C18 1_555 1_555
C19 C18 1_555 1_555
C20 C19 1_555 1_555
H13 C20 1_555 1_555
C21 C16 1_555 1_555
C22 C21 1_555 1_555
H14 C22 1_555 1_555
H15 C22 1_555 1_555
H16 C22 1_555 1_555
C23 C17 1_555 1_555
H17 C23 1_555 1_555
H18 C23 1_555 1_555
H19 C23 1_555 1_555
C24 C19 1_555 1_555
H20 C24 1_555 1_555
H21 C24 1_555 1_555
H22 C24 1_555 1_555
C1 C4 1_555 1_555
C9 C10 1_555 1_555
C10 C11 1_555 1_555
C14 C15 1_555 1_555
C20 C21 1_555 1_555

#END
