
#######################################################################
#
#                 Cambridge Crystallographic Data Centre
#                                CCDC 
#
#######################################################################
#
# If this CIF has been generated from an entry in the Cambridge 
# Structural Database, then it will include bibliographic, chemical, 
# crystal, experimental, refinement or atomic coordinate data resulting 
# from the CCDC's data processing and validation procedures.
#
#######################################################################

data_FIGPAP
_chemical_name_common            
'4,9,19,24,33,35,39,41-octahydroxypillar[6]arene acetone solvate'
_chemical_formula_moiety         'C42 H36 O8,4(C3 H6 O1)'
_chemical_name_systematic        
'heptacyclo[26.2.2.2^3,6^.2^8,11^.2^13,16^.2^18,21^.2^23,26^]dotetraconta-1(30),3,5,8,10,13,15,18,20,23,25,28,31,33,35,37,39,41-octadecaene-4,9,19,24,33,35,39,41-octol acetone solvate'
_symmetry_cell_setting           monoclinic
_symmetry_space_group_name_H-M   'C 2/c'
_symmetry_Int_Tables_number      15
_space_group_name_Hall           '-C 2yn'
loop_
_symmetry_equiv_pos_site_id
_symmetry_equiv_pos_as_xyz
1 x,y,z
2 -x,y,1/2-z
3 1/2+x,1/2+y,z
4 1/2-x,1/2+y,1/2-z
5 -x,-y,-z
6 x,-y,1/2+z
7 1/2-x,1/2-y,-z
8 1/2+x,1/2-y,1/2+z
_cell_length_a                   34.905(5)
_cell_length_b                   7.1467(8)
_cell_length_c                   26.084(4)
_cell_angle_alpha                90
_cell_angle_beta                 130.543(10)
_cell_angle_gamma                90
_cell_volume                     4944.64
_exptl_crystal_colour            colorless
_exptl_crystal_description       block
_cell_formula_units_Z            4
loop_
_atom_site_label
_atom_site_type_symbol
_atom_site_fract_x
_atom_site_fract_y
_atom_site_fract_z
C1 C 0.61555(9) 0.4052(3) 0.21272(12)
H1 H 0.6185 0.5217 0.1964
H2 H 0.5893 0.3317 0.1736
C2 C 0.59941(8) 0.4495(3) 0.25285(10)
C3 C 0.58286(8) 0.3072(3) 0.27062(11)
C4 C 0.56703(8) 0.3460(3) 0.30600(10)
H3 H 0.5569 0.2481 0.3183
C5 C 0.56582(7) 0.5281(3) 0.32387(10)
C6 C 0.58206(8) 0.6690(3) 0.30577(11)
C7 C 0.59872(8) 0.6302(3) 0.27110(10)
H4 H 0.6097 0.7278 0.2598
C8 C 0.54597(8) 0.5678(3) 0.35998(11)
H5 H 0.5330 0.6946 0.3496
H6 H 0.5181 0.4837 0.3427
C9 C 0.58474(7) 0.5461(3) 0.43562(10)
C10 C 0.58578(8) 0.3840(3) 0.46611(12)
H7 H 0.5624 0.2900 0.4393
C11 C 0.62072(9) 0.3592(3) 0.53535(12)
C12 C 0.65606(8) 0.4975(3) 0.57704(11)
C13 C 0.65508(8) 0.6590(3) 0.54653(11)
H8 H 0.6784 0.7533 0.5733
C14 C 0.62043(8) 0.6828(3) 0.47757(11)
C15 C 0.69260(9) 0.4779(3) 0.65296(12)
H9 H 0.6762 0.4074 0.6657
H10 H 0.6997 0.6018 0.6725
C16 C 0.74235(8) 0.3834(3) 0.68389(11)
C17 C 0.78685(9) 0.4619(3) 0.73858(12)
H11 H 0.7864 0.5777 0.7545
C18 C 0.83237(9) 0.3716(3) 0.77041(12)
H12 H 0.8619 0.4282 0.8074
C19 C 0.83509(8) 0.2002(3) 0.74882(11)
C20 C 0.79057(9) 0.1241(3) 0.69282(12)
H13 H 0.7912 0.0100 0.6762
C21 C 0.74498(9) 0.2137(3) 0.66078(12)
H14 H 0.7155 0.1589 0.6230
O1 O 0.58180(8) 0.1303(2) 0.24934(9)
H15 H 0.5753 0.0546 0.2664
O2 O 0.58019(8) 0.85603(19) 0.31914(9)
H16 H 0.5893 0.8652 0.3570
O3 O 0.62112(7) 0.2008(3) 0.56568(9)
H17 H 0.5978 0.1320 0.5369
O4 O 0.61965(6) 0.8466(2) 0.44776(8)
H18 H 0.6481 0.8918 0.4715
C1F C 0.88445(9) 0.0948(3) 0.78728(12)
H1F H 0.8815 -0.0217 0.8036
H2F H 0.9107 0.1683 0.8264
C2F C 0.90059(8) 0.0505(3) 0.74715(10)
C3F C 0.91714(8) 0.1928(3) 0.72938(11)
C4F C 0.93297(8) 0.1540(3) 0.69400(10)
H3F H 0.9431 0.2519 0.6817
C5F C 0.93418(7) -0.0281(3) 0.67613(10)
C6F C 0.91794(8) -0.1690(3) 0.69423(11)
C7F C 0.90128(8) -0.1302(3) 0.72890(10)
H4F H 0.8903 -0.2278 0.7402
C8F C 0.95403(8) -0.0678(3) 0.64002(11)
H5F H 0.9670 -0.1946 0.6504
H6F H 0.9819 0.0163 0.6573
C9F C 0.91526(7) -0.0461(3) 0.56438(10)
C10F C 0.91422(8) 0.1160(3) 0.53389(12)
H7F H 0.9376 0.2100 0.5607
C11F C 0.87928(9) 0.1408(3) 0.46465(12)
C12F C 0.84394(8) 0.0025(3) 0.42296(11)
C13F C 0.84492(8) -0.1590(3) 0.45347(11)
H8F H 0.8216 -0.2533 0.4267
C14F C 0.87957(8) -0.1828(3) 0.52243(11)
C15F C 0.80740(9) 0.0221(3) 0.34704(12)
H9F H 0.8238 0.0926 0.3343
H10F H 0.8003 -0.1018 0.3275
C16F C 0.75765(8) 0.1166(3) 0.31611(11)
C17F C 0.71315(9) 0.0381(3) 0.26142(12)
H11F H 0.7136 -0.0777 0.2455
C18F C 0.66763(9) 0.1284(3) 0.22959(12)
H12F H 0.6381 0.0718 0.1926
C19F C 0.66491(8) 0.2998(3) 0.25118(11)
C20F C 0.70943(9) 0.3759(3) 0.30718(12)
H13F H 0.7088 0.4900 0.3238
C21F C 0.75502(9) 0.2863(3) 0.33922(12)
H14F H 0.7845 0.3411 0.3770
O1F O 0.91820(8) 0.3697(2) 0.75066(9)
H15F H 0.9247 0.4454 0.7336
O2F O 0.91981(8) -0.35603(19) 0.68086(9)
H16F H 0.9107 -0.3652 0.6430
O3F O 0.87888(7) 0.2992(3) 0.43432(9)
H17F H 0.9022 0.3680 0.4631
O4F O 0.88035(6) -0.3466(2) 0.55224(8)
H18F H 0.8519 -0.3918 0.5285
C22 C 0.71326(14) 0.9708(5) 0.41638(18)
H19 H 0.7276 0.8681 0.4101
H20 H 0.7176 1.0842 0.4009
H21 H 0.6780 0.9485 0.3911
C23 C 0.73899(11) 0.9887(3) 0.48894(15)
C24 C 0.79383(11) 1.0340(4) 0.53633(18)
H22 H 0.8039 1.0751 0.5786
H23 H 0.8002 1.1315 0.5174
H24 H 0.8127 0.9244 0.5435
O5 O 0.71689(7) 0.9654(3) 0.51020(11)
C25 C 0.47098(12) 0.7796(5) 0.40381(17)
H25 H 0.4592 0.8650 0.3678
H26 H 0.4461 0.7683 0.4086
H27 H 0.4768 0.6592 0.3937
C26 C 0.51845(9) 0.8510(3) 0.46732(13)
C27 C 0.54324(13) 0.7365(4) 0.52832(17)
H28 H 0.5740 0.7959 0.5655
H29 H 0.5506 0.6149 0.5210
H30 H 0.5213 0.7240 0.5383
O6 O 0.53582(8) 0.9967(3) 0.46906(11)
loop_
_geom_bond_atom_site_label_1
_geom_bond_atom_site_label_2
_geom_bond_site_symmetry_1
_geom_bond_site_symmetry_2
C1 H1 1_555 1_555
H2 C1 1_555 1_555
C2 C1 1_555 1_555
C3 C2 1_555 1_555
C4 C3 1_555 1_555
H3 C4 1_555 1_555
C5 C4 1_555 1_555
C6 C5 1_555 1_555
C7 C2 1_555 1_555
H4 C7 1_555 1_555
C8 C5 1_555 1_555
H5 C8 1_555 1_555
H6 C8 1_555 1_555
C9 C8 1_555 1_555
C10 C9 1_555 1_555
H7 C10 1_555 1_555
C11 C10 1_555 1_555
C12 C11 1_555 1_555
C13 C12 1_555 1_555
H8 C13 1_555 1_555
C14 C9 1_555 1_555
C15 C12 1_555 1_555
H9 C15 1_555 1_555
H10 C15 1_555 1_555
C16 C15 1_555 1_555
C17 C16 1_555 1_555
H11 C17 1_555 1_555
C18 C17 1_555 1_555
H12 C18 1_555 1_555
C19 C18 1_555 1_555
C20 C19 1_555 1_555
H13 C20 1_555 1_555
C21 C16 1_555 1_555
H14 C21 1_555 1_555
O1 C3 1_555 1_555
H15 O1 1_555 1_555
O2 C6 1_555 1_555
H16 O2 1_555 1_555
O3 C11 1_555 1_555
H17 O3 1_555 1_555
O4 C14 1_555 1_555
H18 O4 1_555 1_555
C22 H19 1_555 1_555
H20 C22 1_555 1_555
H21 C22 1_555 1_555
C23 C22 1_555 1_555
C24 C23 1_555 1_555
H22 C24 1_555 1_555
H23 C24 1_555 1_555
H24 C24 1_555 1_555
O5 C23 1_555 1_555
C25 H25 1_555 1_555
H26 C25 1_555 1_555
H27 C25 1_555 1_555
C26 C25 1_555 1_555
C27 C26 1_555 1_555
H28 C27 1_555 1_555
H29 C27 1_555 1_555
H30 C27 1_555 1_555
O6 C26 1_555 1_555
C1F C19 1_555 1_555
H1F C1F 1_555 1_555
H2F C1F 1_555 1_555
C2F C1F 1_555 1_555
C3F C2F 1_555 1_555
C4F C3F 1_555 1_555
H3F C4F 1_555 1_555
C5F C4F 1_555 1_555
C6F C5F 1_555 1_555
C7F C2F 1_555 1_555
H4F C7F 1_555 1_555
C8F C5F 1_555 1_555
H5F C8F 1_555 1_555
H6F C8F 1_555 1_555
C9F C8F 1_555 1_555
C10F C9F 1_555 1_555
H7F C10F 1_555 1_555
C11F C10F 1_555 1_555
C12F C11F 1_555 1_555
C13F C12F 1_555 1_555
H8F C13F 1_555 1_555
C14F C9F 1_555 1_555
C15F C12F 1_555 1_555
H9F C15F 1_555 1_555
H10F C15F 1_555 1_555
C16F C15F 1_555 1_555
C17F C16F 1_555 1_555
H11F C17F 1_555 1_555
C18F C17F 1_555 1_555
H12F C18F 1_555 1_555
C19F C1 1_555 1_555
C20F C19F 1_555 1_555
H13F C20F 1_555 1_555
C21F C16F 1_555 1_555
H14F C21F 1_555 1_555
O1F C3F 1_555 1_555
H15F O1F 1_555 1_555
O2F C6F 1_555 1_555
H16F O2F 1_555 1_555
O3F C11F 1_555 1_555
H17F O3F 1_555 1_555
O4F C14F 1_555 1_555
H18F O4F 1_555 1_555
C6 C7 1_555 1_555
C13 C14 1_555 1_555
C20 C21 1_555 1_555
C6F C7F 1_555 1_555
C13F C14F 1_555 1_555
C18F C19F 1_555 1_555
C20F C21F 1_555 1_555

#END
