
#######################################################################
#
#                 Cambridge Crystallographic Data Centre
#                                CCDC 
#
#######################################################################
#
# If this CIF has been generated from an entry in the Cambridge 
# Structural Database, then it will include bibliographic, chemical, 
# crystal, experimental, refinement or atomic coordinate data resulting 
# from the CCDC's data processing and validation procedures.
#
#######################################################################

data_FIGQEU
_chemical_formula_moiety         'C31 H27 B1 N2 S1,C1 H2 Cl2'
_chemical_name_systematic        
'5-methyl-16-(2,4,6-trimethylphenyl)-5H,16H-[3,1]benzimidazo[2,1-a][1,2]benzothiaborinino[2,3-c][2,3]benzazaborinine dichloromethane solvate'
_symmetry_cell_setting           monoclinic
_symmetry_space_group_name_H-M   'P 21/n'
_symmetry_Int_Tables_number      14
_space_group_name_Hall           '-P 2yn'
loop_
_symmetry_equiv_pos_site_id
_symmetry_equiv_pos_as_xyz
1 x,y,z
2 1/2-x,1/2+y,1/2-z
3 -x,-y,-z
4 1/2+x,1/2-y,1/2+z
_cell_length_a                   14.5104(8)
_cell_length_b                   12.9947(7)
_cell_length_c                   15.3093(10)
_cell_angle_alpha                90
_cell_angle_beta                 105.581(3)
_cell_angle_gamma                90
_cell_volume                     2780.61
_exptl_crystal_colour            yellow
_exptl_crystal_description       Block
_cell_formula_units_Z            4
loop_
_atom_site_label
_atom_site_type_symbol
_atom_site_fract_x
_atom_site_fract_y
_atom_site_fract_z
B1 B 0.7115(2) 0.7751(2) 0.5427(2)
N1 N 0.59913(15) 0.80627(16) 0.51284(15)
S1 S 0.77520(5) 0.84878(6) 0.65139(5)
C1 C 0.74386(18) 0.8182(2) 0.45721(18)
C2 C 0.80232(18) 0.8965(2) 0.45468(19)
H1 H 0.8145 0.9107 0.3979
N2 N 0.46085(15) 0.83951(17) 0.41242(15)
C3 C 0.84949(18) 0.9625(2) 0.53056(19)
C4 C 0.9039(2) 1.0460(2) 0.5150(2)
H2 H 0.9102 1.0565 0.4554
C5 C 0.9486(2) 1.1135(2) 0.5821(2)
H3 H 0.9858 1.1688 0.5692
C6 C 0.9388(2) 1.1000(2) 0.6686(2)
H4 H 0.9700 1.1456 0.7158
C7 C 0.8836(2) 1.0199(2) 0.6867(2)
H5 H 0.8757 1.0123 0.7460
C8 C 0.83926(18) 0.9501(2) 0.61865(19)
C9 C 0.69083(19) 0.7686(2) 0.37111(18)
C10 C 0.7322(2) 0.7333(2) 0.3049(2)
H6 H 0.7990 0.7419 0.3129
C11 C 0.6774(2) 0.6857(2) 0.2271(2)
H7 H 0.7065 0.6634 0.1818
C12 C 0.5804(2) 0.6706(2) 0.2154(2)
H8 H 0.5437 0.6353 0.1633
C13 C 0.5368(2) 0.7065(2) 0.27912(19)
H9 H 0.4700 0.6970 0.2706
C14 C 0.59144(19) 0.7568(2) 0.35624(18)
C15 C 0.54983(18) 0.8002(2) 0.42509(18)
C16 C 0.45151(19) 0.8708(2) 0.49637(19)
C17 C 0.3739(2) 0.9143(2) 0.5204(2)
H10 H 0.3155 0.9293 0.4765
C18 C 0.3866(2) 0.9344(2) 0.6112(2)
H11 H 0.3358 0.9643 0.6307
C19 C 0.4724(2) 0.9118(2) 0.6750(2)
H12 H 0.4782 0.9260 0.7372
C20 C 0.5492(2) 0.8693(2) 0.6510(2)
H13 H 0.6074 0.8541 0.6952
C21 C 0.53814(18) 0.84974(19) 0.55956(18)
C22 C 0.73045(19) 0.6517(2) 0.56215(18)
C23 C 0.6628(2) 0.5792(2) 0.57600(19)
C24 C 0.6872(2) 0.4753(2) 0.5921(2)
H14 H 0.6400 0.4287 0.6009
C25 C 0.7774(2) 0.4381(2) 0.5955(2)
C26 C 0.8438(2) 0.5085(2) 0.5835(2)
H15 H 0.9066 0.4850 0.5865
C27 C 0.8232(2) 0.6126(2) 0.56707(19)
C28 C 0.9043(2) 0.6780(2) 0.5531(2)
H16 H 0.9653 0.6427 0.5787
H17 H 0.9047 0.7444 0.5836
H18 H 0.8955 0.6893 0.4881
C29 C 0.5611(2) 0.6055(2) 0.5764(2)
H19 H 0.5294 0.5438 0.5910
H20 H 0.5261 0.6310 0.5164
H21 H 0.5622 0.6588 0.6220
C30 C 0.8014(3) 0.3252(2) 0.6099(2)
H22 H 0.7704 0.2869 0.5546
H23 H 0.7783 0.2994 0.6604
H24 H 0.8708 0.3160 0.6239
C31 C 0.3897(2) 0.8601(2) 0.3262(2)
H25 H 0.4224 0.8732 0.2790
H26 H 0.3517 0.9204 0.3327
H27 H 0.3476 0.8002 0.3091
C32 C 0.7062(3) 0.4611(3) 0.3582(3)
H28 H 0.6604 0.4978 0.3082
H29 H 0.7102 0.4994 0.4150
Cl1 Cl 0.66255(6) 0.33634(7) 0.36782(6)
Cl2 Cl 0.81915(8) 0.46025(8) 0.33720(8)
loop_
_geom_bond_atom_site_label_1
_geom_bond_atom_site_label_2
_geom_bond_site_symmetry_1
_geom_bond_site_symmetry_2
B1 N1 1_555 1_555
N1 C15 1_555 1_555
S1 B1 1_555 1_555
C1 B1 1_555 1_555
C2 C1 1_555 1_555
H1 C2 1_555 1_555
N2 C15 1_555 1_555
C3 C2 1_555 1_555
C4 C3 1_555 1_555
H2 C4 1_555 1_555
C5 C4 1_555 1_555
H3 C5 1_555 1_555
C6 C5 1_555 1_555
H4 C6 1_555 1_555
C7 C6 1_555 1_555
H5 C7 1_555 1_555
C8 S1 1_555 1_555
C9 C1 1_555 1_555
C10 C9 1_555 1_555
H6 C10 1_555 1_555
C11 C10 1_555 1_555
H7 C11 1_555 1_555
C12 C11 1_555 1_555
H8 C12 1_555 1_555
C13 C12 1_555 1_555
H9 C13 1_555 1_555
C14 C9 1_555 1_555
C15 C14 1_555 1_555
C16 N2 1_555 1_555
C17 C16 1_555 1_555
H10 C17 1_555 1_555
C18 C17 1_555 1_555
H11 C18 1_555 1_555
C19 C18 1_555 1_555
H12 C19 1_555 1_555
C20 C19 1_555 1_555
H13 C20 1_555 1_555
C21 N1 1_555 1_555
C22 B1 1_555 1_555
C23 C22 1_555 1_555
C24 C23 1_555 1_555
H14 C24 1_555 1_555
C25 C24 1_555 1_555
C26 C25 1_555 1_555
H15 C26 1_555 1_555
C27 C22 1_555 1_555
C28 C27 1_555 1_555
H16 C28 1_555 1_555
H17 C28 1_555 1_555
H18 C28 1_555 1_555
C29 C23 1_555 1_555
H19 C29 1_555 1_555
H20 C29 1_555 1_555
H21 C29 1_555 1_555
C30 C25 1_555 1_555
H22 C30 1_555 1_555
H23 C30 1_555 1_555
H24 C30 1_555 1_555
C31 N2 1_555 1_555
H25 C31 1_555 1_555
H26 C31 1_555 1_555
H27 C31 1_555 1_555
C32 H28 1_555 1_555
H29 C32 1_555 1_555
Cl1 C32 1_555 1_555
Cl2 C32 1_555 1_555
C3 C8 1_555 1_555
C7 C8 1_555 1_555
C13 C14 1_555 1_555
C16 C21 1_555 1_555
C20 C21 1_555 1_555
C26 C27 1_555 1_555

#END
