
#######################################################################
#
#                 Cambridge Crystallographic Data Centre
#                                CCDC 
#
#######################################################################
#
# If this CIF has been generated from an entry in the Cambridge 
# Structural Database, then it will include bibliographic, chemical, 
# crystal, experimental, refinement or atomic coordinate data resulting 
# from the CCDC's data processing and validation procedures.
#
#######################################################################

data_FIGSOE
_chemical_formula_moiety         'C25 H16 B1 N1 O1 S2'
_chemical_name_systematic        bis(benzothien-2-yl)(8-hydroxyquinoline)boron
_symmetry_cell_setting           monoclinic
_symmetry_space_group_name_H-M   'P 21/n'
_symmetry_Int_Tables_number      14
_space_group_name_Hall           '-P 2yn'
loop_
_symmetry_equiv_pos_site_id
_symmetry_equiv_pos_as_xyz
1 x,y,z
2 1/2-x,1/2+y,1/2-z
3 -x,-y,-z
4 1/2+x,1/2-y,1/2+z
_cell_length_a                   12.242(4)
_cell_length_b                   17.188(6)
_cell_length_c                   19.354(7)
_cell_angle_alpha                90
_cell_angle_beta                 91.748(6)
_cell_angle_gamma                90
_cell_volume                     4070.49
_exptl_crystal_colour            yellow
_exptl_crystal_description       block
_chemical_melting_point          204-205deg.C
_cell_formula_units_Z            8
_exptl_crystal_recrystallization_method hexane/dichloromethane
_exptl_crystal_preparation       luminescent
loop_
_atom_site_label
_atom_site_type_symbol
_atom_site_fract_x
_atom_site_fract_y
_atom_site_fract_z
B1 B 0.7547(3) 0.75906(19) 0.21564(18)
S1 S 0.93208(7) 0.67864(4) 0.15206(5)
S2 S 0.87328(8) 0.70317(6) 0.33572(5)
O1 O 0.65958(16) 0.73868(11) 0.16817(10)
N1 N 0.72035(19) 0.84672(12) 0.23642(11)
C1 C 0.8660(2) 0.76402(15) 0.17437(14)
C2 C 0.9179(2) 0.82688(17) 0.14813(15)
H1 H 0.8952 0.8778 0.1555
C3 C 1.0114(2) 0.80765(16) 0.10789(14)
C4 C 1.0807(3) 0.85616(18) 0.07170(16)
H2 H 1.0699 0.9097 0.0718
C5 C 1.1647(3) 0.8247(2) 0.03615(17)
H3 H 1.2098 0.8571 0.0112
C6 C 1.1835(3) 0.7449(2) 0.03684(18)
H4 H 1.2424 0.7245 0.0136
C7 C 1.1162(3) 0.69644(19) 0.07138(17)
H5 H 1.1284 0.6430 0.0713
C8 C 1.0291(2) 0.72723(16) 0.10666(15)
C9 C 0.7605(2) 0.70205(16) 0.28057(15)
C10 C 0.6787(3) 0.64329(13) 0.29674(13)
H6 H 0.6113 0.6354 0.2744
C11 C 0.7263(2) 0.59856(16) 0.35680(16)
C12 C 0.6822(3) 0.53358(18) 0.38743(18)
H7 H 0.6140 0.5154 0.3724
C13 C 0.7381(4) 0.49583(19) 0.43960(19)
H8 H 0.7080 0.4519 0.4595
C14 C 0.8391(3) 0.5225(2) 0.46296(17)
H9 H 0.8762 0.4960 0.4984
C15 C 0.8847(3) 0.5862(2) 0.43522(17)
H10 H 0.9523 0.6042 0.4517
C16 C 0.8289(2) 0.62456(17) 0.38155(15)
C17 C 0.7644(3) 0.89987(17) 0.27813(16)
H11 H 0.8284 0.8890 0.3034
C18 C 0.7140(3) 0.97249(18) 0.28397(17)
H12 H 0.7447 1.0096 0.3137
C19 C 0.6219(3) 0.98972(17) 0.24735(17)
H13 H 0.5901 1.0385 0.2518
C20 C 0.5736(2) 0.93471(16) 0.20257(15)
C21 C 0.4774(3) 0.94090(19) 0.16069(18)
H14 H 0.4368 0.9866 0.1603
C22 C 0.4444(3) 0.8791(2) 0.12076(18)
H15 H 0.3811 0.8844 0.0933
C23 C 0.5011(3) 0.80825(18) 0.11899(16)
H16 H 0.4762 0.7677 0.0909
C24 C 0.5933(2) 0.80030(16) 0.15930(15)
C25 C 0.6279(2) 0.86389(15) 0.20001(14)
B2 B 0.2252(3) 1.00618(18) 0.30025(18)
S3 S 0.12112(8) 1.06006(5) 0.17261(5)
S4 S 0.03904(7) 1.08968(5) 0.34776(5)
O2 O 0.31913(17) 1.02550(11) 0.34933(10)
N2 N 0.25931(19) 0.91784(12) 0.28066(12)
C26 C 0.2285(2) 1.06046(16) 0.23326(15)
C27 C 0.3169(3) 1.11198(14) 0.21622(14)
H17 H 0.3816 1.1197 0.2417
C28 C 0.2838(2) 1.15076(17) 0.14895(16)
C29 C 0.3409(3) 1.2077(2) 0.1144(2)
H18 H 0.4084 1.2247 0.1319
C30 C 0.2983(4) 1.2387(2) 0.0550(2)
H19 H 0.3375 1.2763 0.0318
C31 C 0.1979(4) 1.2153(2) 0.02871(19)
H20 H 0.1699 1.2378 -0.0118
C32 C 0.1398(3) 1.1604(2) 0.06081(18)
H21 H 0.0721 1.1448 0.0427
C33 C 0.1825(3) 1.12715(17) 0.12164(16)
C34 C 0.1109(2) 1.00390(16) 0.33864(15)
C35 C 0.0632(2) 0.9406(2) 0.37307(15)
H22 H 0.0895 0.8898 0.3730
C36 C -0.0325(3) 0.96642(17) 0.40852(16)
C37 C -0.1016(3) 0.92379(19) 0.45047(18)
H23 H -0.0886 0.8711 0.4577
C38 C -0.1883(3) 0.9589(2) 0.48104(18)
H24 H -0.2324 0.9300 0.5098
C39 C -0.2110(3) 1.0369(2) 0.46967(17)
H25 H -0.2711 1.0597 0.4899
C40 C -0.1452(3) 1.08059(19) 0.42873(16)
H26 H -0.1600 1.1330 0.4213
C41 C -0.0568(3) 1.04566(17) 0.39872(15)
C42 C 0.2159(3) 0.86537(17) 0.23837(16)
H27 H 0.1512 0.8763 0.2139
C43 C 0.2664(3) 0.79388(17) 0.23028(17)
H28 H 0.2363 0.7579 0.1993
C44 C 0.3593(3) 0.77572(18) 0.26691(18)
H29 H 0.3919 0.7273 0.2614
C45 C 0.4065(3) 0.83025(17) 0.31336(16)
C46 C 0.5016(3) 0.8239(2) 0.3556(2)
H30 H 0.5421 0.7781 0.3560
C47 C 0.5340(3) 0.8846(2) 0.39555(19)
H31 H 0.5969 0.8789 0.4233
C48 C 0.4782(3) 0.9555(2) 0.39760(16)
H32 H 0.5039 0.9959 0.4256
C49 C 0.3857(2) 0.96417(17) 0.35792(15)
C50 C 0.3512(2) 0.90051(16) 0.31670(14)
loop_
_geom_bond_atom_site_label_1
_geom_bond_atom_site_label_2
_geom_bond_site_symmetry_1
_geom_bond_site_symmetry_2
B1 O1 1_555 1_555
B2 O2 1_555 1_555
S1 C1 1_555 1_555
S2 C9 1_555 1_555
S3 C26 1_555 1_555
S4 C34 1_555 1_555
O1 C24 1_555 1_555
O2 C49 1_555 1_555
N1 B1 1_555 1_555
N2 B2 1_555 1_555
C1 B1 1_555 1_555
C2 C1 1_555 1_555
H1 C2 1_555 1_555
C3 C2 1_555 1_555
C4 C3 1_555 1_555
H2 C4 1_555 1_555
C5 C4 1_555 1_555
H3 C5 1_555 1_555
C6 C5 1_555 1_555
H4 C6 1_555 1_555
C7 C6 1_555 1_555
H5 C7 1_555 1_555
C8 S1 1_555 1_555
C9 B1 1_555 1_555
C10 C9 1_555 1_555
H6 C10 1_555 1_555
C11 C10 1_555 1_555
C12 C11 1_555 1_555
H7 C12 1_555 1_555
C13 C12 1_555 1_555
H8 C13 1_555 1_555
C14 C13 1_555 1_555
H9 C14 1_555 1_555
C15 C14 1_555 1_555
H10 C15 1_555 1_555
C16 S2 1_555 1_555
C17 N1 1_555 1_555
H11 C17 1_555 1_555
C18 C17 1_555 1_555
H12 C18 1_555 1_555
C19 C18 1_555 1_555
H13 C19 1_555 1_555
C20 C19 1_555 1_555
C21 C20 1_555 1_555
H14 C21 1_555 1_555
C22 C21 1_555 1_555
H15 C22 1_555 1_555
C23 C22 1_555 1_555
H16 C23 1_555 1_555
C24 C23 1_555 1_555
C25 N1 1_555 1_555
C26 B2 1_555 1_555
C27 C26 1_555 1_555
H17 C27 1_555 1_555
C28 C27 1_555 1_555
C29 C28 1_555 1_555
H18 C29 1_555 1_555
C30 C29 1_555 1_555
H19 C30 1_555 1_555
C31 C30 1_555 1_555
H20 C31 1_555 1_555
C32 C31 1_555 1_555
H21 C32 1_555 1_555
C33 S3 1_555 1_555
C34 B2 1_555 1_555
C35 C34 1_555 1_555
H22 C35 1_555 1_555
C36 C35 1_555 1_555
C37 C36 1_555 1_555
H23 C37 1_555 1_555
C38 C37 1_555 1_555
H24 C38 1_555 1_555
C39 C38 1_555 1_555
H25 C39 1_555 1_555
C40 C39 1_555 1_555
H26 C40 1_555 1_555
C41 S4 1_555 1_555
C42 N2 1_555 1_555
H27 C42 1_555 1_555
C43 C42 1_555 1_555
H28 C43 1_555 1_555
C44 C43 1_555 1_555
H29 C44 1_555 1_555
C45 C44 1_555 1_555
C46 C45 1_555 1_555
H30 C46 1_555 1_555
C47 C46 1_555 1_555
H31 C47 1_555 1_555
C48 C47 1_555 1_555
H32 C48 1_555 1_555
C49 C48 1_555 1_555
C50 N2 1_555 1_555
C3 C8 1_555 1_555
C7 C8 1_555 1_555
C11 C16 1_555 1_555
C15 C16 1_555 1_555
C20 C25 1_555 1_555
C24 C25 1_555 1_555
C28 C33 1_555 1_555
C32 C33 1_555 1_555
C36 C41 1_555 1_555
C40 C41 1_555 1_555
C45 C50 1_555 1_555
C49 C50 1_555 1_555

#END
