
#######################################################################
#
#                 Cambridge Crystallographic Data Centre
#                                CCDC 
#
#######################################################################
#
# If this CIF has been generated from an entry in the Cambridge 
# Structural Database, then it will include bibliographic, chemical, 
# crystal, experimental, refinement or atomic coordinate data resulting 
# from the CCDC's data processing and validation procedures.
#
#######################################################################

data_FIHMAM
_chemical_formula_moiety         'C22 H15 Cl1 O2'
_chemical_name_systematic        
3-(4-Chlorobenzylidene)-2-phenyl-2,3-dihydro-4H-chromen-4-one
_symmetry_cell_setting           triclinic
_symmetry_space_group_name_H-M   'P -1'
_symmetry_Int_Tables_number      2
_space_group_name_Hall           '-P 1'
loop_
_symmetry_equiv_pos_site_id
_symmetry_equiv_pos_as_xyz
1 x,y,z
2 -x,-y,-z
_cell_length_a                   6.83470(10)
_cell_length_b                   8.35160(10)
_cell_length_c                   14.9356(2)
_cell_angle_alpha                100.4050(10)
_cell_angle_beta                 91.6770(10)
_cell_angle_gamma                97.8970(10)
_cell_volume                     829.282
_exptl_crystal_colour            colorless
_exptl_crystal_description       plate
_cell_formula_units_Z            2
loop_
_atom_site_label
_atom_site_type_symbol
_atom_site_fract_x
_atom_site_fract_y
_atom_site_fract_z
O1 O -0.14417(13) 0.55966(12) 0.31363(6)
H1 H 0.104(2) 0.6378(19) 0.4433(10)
Cl1 Cl 0.97382(5) 0.84385(5) 0.64708(2)
O2 O 0.36951(12) 0.47147(11) 0.19254(6)
C1 C 0.40017(18) 0.71938(16) 0.47362(9)
C2 C 0.01323(18) 0.45756(16) 0.18058(9)
C3 C 0.41132(19) 0.67819(16) 0.56026(9)
H2 H 0.3004 0.6217 0.5813
C4 C 0.20855(18) 0.61127(16) 0.32315(9)
C5 C 0.38308(18) 0.61865(16) 0.26365(9)
H3 H 0.5019 0.6218 0.3026
C6 C 0.19237(18) 0.42592(16) 0.14329(9)
C7 C 0.22078(19) 0.65669(16) 0.41447(9)
C8 C 0.41353(18) 0.76891(16) 0.21914(8)
C9 C -0.16305(19) 0.40034(17) 0.12715(9)
H4 H -0.2833 0.4198 0.1513
C10 C 0.01075(18) 0.54431(16) 0.27609(9)
C11 C 0.7388(2) 0.85517(17) 0.50016(9)
H5 H 0.8483 0.9163 0.4808
C12 C -0.15961(19) 0.31532(17) 0.03902(9)
H6 H -0.2769 0.2786 0.0037
C13 C 0.0201(2) 0.28494(17) 0.00340(9)
H7 H 0.0221 0.2267 -0.0558
C14 C 0.19597(19) 0.34012(16) 0.05476(9)
H8 H 0.3156 0.3199 0.0302
C15 C 0.74859(19) 0.80398(17) 0.58292(9)
C16 C 0.26742(19) 0.86761(16) 0.21295(9)
H9 H 0.1465 0.8434 0.2381
C17 C 0.5841(2) 0.71984(17) 0.61535(9)
H10 H 0.5898 0.6921 0.6728
C18 C 0.5649(2) 0.81470(17) 0.44638(9)
H11 H 0.5570 0.8512 0.3913
C19 C 0.5959(2) 0.80989(18) 0.18256(10)
H12 H 0.6957 0.7458 0.1866
C20 C 0.4801(2) 1.04041(17) 0.13320(10)
H13 H 0.5017 1.1300 0.1039
C21 C 0.6287(2) 0.94476(19) 0.14055(11)
H14 H 0.7509 0.9717 0.1171
C22 C 0.3001(2) 1.00173(17) 0.16969(9)
H15 H 0.2005 1.0658 0.1652
loop_
_geom_bond_atom_site_label_1
_geom_bond_atom_site_label_2
_geom_bond_site_symmetry_1
_geom_bond_site_symmetry_2
O1 C10 1_555 1_555
H1 C7 1_555 1_555
Cl1 C15 1_555 1_555
O2 C5 1_555 1_555
C1 C3 1_555 1_555
C2 C6 1_555 1_555
C3 H2 1_555 1_555
C4 C5 1_555 1_555
C5 H3 1_555 1_555
C6 O2 1_555 1_555
C7 C1 1_555 1_555
C8 C5 1_555 1_555
C9 C2 1_555 1_555
H4 C9 1_555 1_555
C10 C2 1_555 1_555
C11 H5 1_555 1_555
C12 C9 1_555 1_555
H6 C12 1_555 1_555
C13 C12 1_555 1_555
H7 C13 1_555 1_555
C14 C6 1_555 1_555
H8 C14 1_555 1_555
C15 C11 1_555 1_555
C16 C8 1_555 1_555
H9 C16 1_555 1_555
C17 C3 1_555 1_555
H10 C17 1_555 1_555
C18 C1 1_555 1_555
H11 C18 1_555 1_555
C19 C8 1_555 1_555
H12 C19 1_555 1_555
C20 H13 1_555 1_555
C21 C19 1_555 1_555
H14 C21 1_555 1_555
C22 C16 1_555 1_555
H15 C22 1_555 1_555
C4 C7 1_555 1_555
C4 C10 1_555 1_555
C11 C18 1_555 1_555
C13 C14 1_555 1_555
C15 C17 1_555 1_555
C20 C21 1_555 1_555
C20 C22 1_555 1_555

#END
