
#######################################################################
#
#                 Cambridge Crystallographic Data Centre
#                                CCDC 
#
#######################################################################
#
# If this CIF has been generated from an entry in the Cambridge 
# Structural Database, then it will include bibliographic, chemical, 
# crystal, experimental, refinement or atomic coordinate data resulting 
# from the CCDC's data processing and validation procedures.
#
#######################################################################

data_FIHNUH
_chemical_formula_moiety         'C10 H13 N3 O1'
_chemical_name_systematic        5-Benzyl-1,3,5-triazinan-2-one
_symmetry_cell_setting           monoclinic
_symmetry_space_group_name_H-M   'P 21'
_symmetry_Int_Tables_number      4
_space_group_name_Hall           'P 2yb'
loop_
_symmetry_equiv_pos_site_id
_symmetry_equiv_pos_as_xyz
1 x,y,z
2 -x,1/2+y,-z
_cell_length_a                   10.1120(10)
_cell_length_b                   7.0710(10)
_cell_length_c                   14.5960(10)
_cell_angle_alpha                90
_cell_angle_beta                 106.720(2)
_cell_angle_gamma                90
_cell_volume                     999.52
_exptl_crystal_colour            colorless
_exptl_crystal_description       block
_cell_formula_units_Z            4
loop_
_atom_site_label
_atom_site_type_symbol
_atom_site_fract_x
_atom_site_fract_y
_atom_site_fract_z
O1 O 1.00739(12) 0.44796(18) 0.52781(8)
N1 N 0.83074(15) 0.2934(2) 0.42262(11)
H1 H 0.883(2) 0.186(4) 0.4394(17)
N2 N 0.82533(14) 0.6174(2) 0.43863(10)
H2 H 0.873(2) 0.726(4) 0.4555(16)
N3 N 0.68615(13) 0.4774(2) 0.29167(9)
C1 C 0.89191(16) 0.4522(2) 0.46556(11)
C2 C 0.69380(15) 0.6233(2) 0.36287(11)
H3 H 0.6170 0.6064 0.3915
H4 H 0.6830 0.7488 0.3315
C3 C 0.70422(16) 0.2964(3) 0.34146(12)
H5 H 0.7088 0.1943 0.2961
H6 H 0.6234 0.2719 0.3651
C4 C 0.78882(17) 0.5015(3) 0.23792(12)
H7 H 0.7795 0.3959 0.1920
H8 H 0.8828 0.4957 0.2831
C5 C 0.77160(16) 0.6862(2) 0.18429(11)
C6 C 0.85757(19) 0.8392(3) 0.21939(13)
H9 H 0.9262 0.8288 0.2793
C7 C 0.8448(2) 1.0061(3) 0.16844(16)
H10 H 0.9044 1.1093 0.1934
C8 C 0.7456(2) 1.0233(3) 0.08137(16)
H11 H 0.7366 1.1384 0.0465
C9 C 0.6599(2) 0.8738(4) 0.04524(14)
H12 H 0.5920 0.8855 -0.0149
C10 C 0.67201(19) 0.7042(3) 0.09640(12)
H13 H 0.6122 0.6013 0.0711
O2 O 0.51834(12) 0.33867(18) 0.51275(8)
N4 N 0.34896(15) 0.1839(2) 0.40206(10)
H14 H 0.389(2) 0.074(4) 0.4274(16)
N5 N 0.33031(14) 0.5027(2) 0.42874(10)
H15 H 0.366(2) 0.608(4) 0.4513(17)
N6 N 0.18553(14) 0.3678(2) 0.28215(9)
C11 C 0.40263(16) 0.3408(2) 0.45058(11)
C12 C 0.19586(16) 0.5085(3) 0.35628(11)
H16 H 0.1222 0.4861 0.3873
H17 H 0.1814 0.6358 0.3268
C13 C 0.21423(17) 0.1845(3) 0.32854(12)
H18 H 0.2138 0.0865 0.2800
H19 H 0.1408 0.1530 0.3585
C14 C 0.27828(17) 0.4063(3) 0.22270(11)
H20 H 0.2692 0.3034 0.1753
H21 H 0.3750 0.4074 0.2639
C15 C 0.24665(16) 0.5931(3) 0.17074(10)
C16 C 0.35254(17) 0.7174(3) 0.17066(12)
H22 H 0.4448 0.6863 0.2054
C17 C 0.3256(2) 0.8872(3) 0.12039(14)
H23 H 0.3992 0.9709 0.1204
C18 C 0.19116(19) 0.9337(3) 0.07038(12)
H24 H 0.1721 1.0498 0.0364
C19 C 0.08451(18) 0.8106(3) 0.07001(12)
H25 H -0.0077 0.8424 0.0356
C20 C 0.11180(16) 0.6404(3) 0.11979(11)
H26 H 0.0383 0.5562 0.1190
loop_
_geom_bond_atom_site_label_1
_geom_bond_atom_site_label_2
_geom_bond_site_symmetry_1
_geom_bond_site_symmetry_2
O1 C1 1_555 1_555
N1 H1 1_555 1_555
N2 H2 1_555 1_555
N3 C2 1_555 1_555
C1 N1 1_555 1_555
C2 N2 1_555 1_555
H3 C2 1_555 1_555
H4 C2 1_555 1_555
C3 N1 1_555 1_555
H5 C3 1_555 1_555
H6 C3 1_555 1_555
C4 N3 1_555 1_555
H7 C4 1_555 1_555
H8 C4 1_555 1_555
C5 C4 1_555 1_555
C6 C5 1_555 1_555
H9 C6 1_555 1_555
C7 C6 1_555 1_555
H10 C7 1_555 1_555
C8 C7 1_555 1_555
H11 C8 1_555 1_555
C9 C8 1_555 1_555
H12 C9 1_555 1_555
C10 C5 1_555 1_555
H13 C10 1_555 1_555
O2 C11 1_555 1_555
N4 H14 1_555 1_555
N5 H15 1_555 1_555
N6 C12 1_555 1_555
C11 N4 1_555 1_555
C12 N5 1_555 1_555
H16 C12 1_555 1_555
H17 C12 1_555 1_555
C13 N4 1_555 1_555
H18 C13 1_555 1_555
H19 C13 1_555 1_555
C14 N6 1_555 1_555
H20 C14 1_555 1_555
H21 C14 1_555 1_555
C15 C14 1_555 1_555
C16 C15 1_555 1_555
H22 C16 1_555 1_555
C17 C16 1_555 1_555
H23 C17 1_555 1_555
C18 C17 1_555 1_555
H24 C18 1_555 1_555
C19 C18 1_555 1_555
H25 C19 1_555 1_555
C20 C15 1_555 1_555
H26 C20 1_555 1_555
N2 C1 1_555 1_555
N3 C3 1_555 1_555
C9 C10 1_555 1_555
N5 C11 1_555 1_555
N6 C13 1_555 1_555
C19 C20 1_555 1_555

#END
