
#######################################################################
#
#                 Cambridge Crystallographic Data Centre
#                                CCDC 
#
#######################################################################
#
# If this CIF has been generated from an entry in the Cambridge 
# Structural Database, then it will include bibliographic, chemical, 
# crystal, experimental, refinement or atomic coordinate data resulting 
# from the CCDC's data processing and validation procedures.
#
#######################################################################

data_FIHPOD
_chemical_formula_moiety         'C5 H11 N3 O1'
_chemical_name_systematic        5-Ethyl-1,3,5-triazinan-2-one
_symmetry_cell_setting           orthorhombic
_symmetry_space_group_name_H-M   'P b c a'
_symmetry_Int_Tables_number      61
_space_group_name_Hall           '-P 2ac 2ab'
loop_
_symmetry_equiv_pos_site_id
_symmetry_equiv_pos_as_xyz
1 x,y,z
2 1/2-x,-y,1/2+z
3 1/2+x,1/2-y,-z
4 -x,1/2+y,1/2-z
5 -x,-y,-z
6 1/2+x,y,1/2-z
7 1/2-x,1/2+y,z
8 x,1/2-y,1/2+z
_cell_length_a                   9.5890(19)
_cell_length_b                   7.1850(14)
_cell_length_c                   19.634(4)
_cell_angle_alpha                90
_cell_angle_beta                 90
_cell_angle_gamma                90
_cell_volume                     1352.72
_exptl_crystal_colour            colorless
_exptl_crystal_description       block
_cell_formula_units_Z            8
loop_
_atom_site_label
_atom_site_type_symbol
_atom_site_fract_x
_atom_site_fract_y
_atom_site_fract_z
O1 O 0.22714(7) 0.78495(9) 0.18301(4)
N1 N 0.42874(9) 0.94525(13) 0.16850(5)
H1 H 0.3821(16) 1.055(2) 0.1720(7)
N2 N 0.42929(9) 0.62583(12) 0.16767(5)
N3 N 0.62581(8) 0.78728(11) 0.11879(5)
H2 H 0.3813(14) 0.521(2) 0.1714(7)
C1 C 0.35685(10) 0.78530(12) 0.17380(5)
C2 C 0.58073(10) 0.62318(15) 0.15562(6)
H3 H 0.6301 0.6170 0.1998
H4 H 0.6055 0.5106 0.1292
C3 C 0.57582(11) 0.79260(17) 0.04825(6)
H5 H 0.5848 0.9211 0.0305
H6 H 0.4757 0.7589 0.0474
C4 C 0.58072(10) 0.94703(15) 0.15791(6)
H7 H 0.6074 1.0624 0.1337
H8 H 0.6284 0.9468 0.2026
C5 C 0.65549(16) 0.6616(2) 0.00232(7)
H9 H 0.7552 0.6905 0.0047
H10 H 0.6228 0.6762 -0.0447
H11 H 0.6401 0.5330 0.0172
loop_
_geom_bond_atom_site_label_1
_geom_bond_atom_site_label_2
_geom_bond_site_symmetry_1
_geom_bond_site_symmetry_2
O1 C1 1_555 1_555
N1 H1 1_555 1_555
N2 H2 1_555 1_555
N3 C2 1_555 1_555
C1 N1 1_555 1_555
C2 N2 1_555 1_555
H3 C2 1_555 1_555
H4 C2 1_555 1_555
C3 N3 1_555 1_555
H5 C3 1_555 1_555
H6 C3 1_555 1_555
C4 N1 1_555 1_555
H7 C4 1_555 1_555
H8 C4 1_555 1_555
C5 C3 1_555 1_555
H9 C5 1_555 1_555
H10 C5 1_555 1_555
H11 C5 1_555 1_555
N2 C1 1_555 1_555
N3 C4 1_555 1_555

#END
