
#######################################################################
#
#                 Cambridge Crystallographic Data Centre
#                                CCDC 
#
#######################################################################
#
# If this CIF has been generated from an entry in the Cambridge 
# Structural Database, then it will include bibliographic, chemical, 
# crystal, experimental, refinement or atomic coordinate data resulting 
# from the CCDC's data processing and validation procedures.
#
#######################################################################

data_FIHSUN
_chemical_formula_moiety         'C27 H32 N6 O8,C4 H8 O1'
_chemical_name_systematic        
'ethyl 2,7-bis{[(4-nitrophenyl)carbamoyl]amino}octahydronaphthalene-4a(2H)-carboxylate tetrahydrofuran solvate'
_symmetry_cell_setting           triclinic
_symmetry_space_group_name_H-M   'P -1'
_symmetry_Int_Tables_number      2
_space_group_name_Hall           '-P 1'
loop_
_symmetry_equiv_pos_site_id
_symmetry_equiv_pos_as_xyz
1 x,y,z
2 -x,-y,-z
_cell_length_a                   8.9631(3)
_cell_length_b                   11.6680(5)
_cell_length_c                   19.3211(7)
_cell_angle_alpha                77.807(3)
_cell_angle_beta                 84.628(3)
_cell_angle_gamma                80.193(3)
_cell_volume                     1942.7
_exptl_crystal_colour            yellow
_exptl_crystal_description       block
_cell_formula_units_Z            2
loop_
_atom_site_label
_atom_site_type_symbol
_atom_site_fract_x
_atom_site_fract_y
_atom_site_fract_z
O1 O 0.1368(4) 0.4692(3) 0.36533(16)
O2 O 0.0662(3) 0.3256(3) 0.44541(19)
O3 O 0.431(5) 0.4015(11) 0.7231(12)
O4 O 1.2527(3) 0.7971(3) 0.70842(14)
O5 O 1.3392(4) 1.1863(3) 0.34834(17)
O6 O 1.4290(3) 1.2415(3) 0.43332(17)
O7 O 0.8343(4) 0.4941(3) 0.94966(15)
O8 O 0.7423(4) 0.6733(3) 0.97198(15)
N1 N 0.1290(4) 0.4162(3) 0.4269(2)
N2 N 0.4062(3) 0.5647(3) 0.63266(15)
H1 H 0.4385 0.6316 0.6184
N3 N 0.5009(4) 0.5688(3) 0.73758(16)
H2 H 0.5193 0.6386 0.7177
N4 N 1.0661(4) 0.6874(3) 0.70930(16)
H3 H 0.9988 0.6727 0.6848
N5 N 1.1341(3) 0.8091(3) 0.60600(16)
H4 H 1.0732 0.7751 0.5882
N6 N 1.3603(4) 1.1748(3) 0.41127(18)
C1 C 0.1952(4) 0.4565(4) 0.48104(19)
C2 C 0.1877(4) 0.3936(4) 0.5501(2)
H5 H 0.1376 0.3279 0.5616
C3 C 0.2546(4) 0.4287(4) 0.6017(2)
H6 H 0.2485 0.3874 0.6484
C4 C 0.3321(4) 0.5266(3) 0.58402(18)
C5 C 0.3353(4) 0.5907(3) 0.51357(19)
H7 H 0.3837 0.6572 0.5017
C6 C 0.2674(4) 0.5556(3) 0.46218(18)
H8 H 0.2698 0.5977 0.4156
C7 C 0.4342(5) 0.5076(4) 0.7016(2)
C8 C 0.5439(5) 0.5180(4) 0.8114(2)
H9 H 0.4896 0.4506 0.8296
C9 C 0.4955(5) 0.6074(5) 0.8579(2)
H10 H 0.5027 0.5676 0.9071
H11 H 0.3903 0.6416 0.8508
C10 C 0.5921(5) 0.7066(4) 0.8424(2)
H12 H 0.5583 0.7607 0.8746
H13 H 0.5782 0.7508 0.7944
C11 C 0.7614(4) 0.6582(4) 0.85084(19)
C12 C 0.8096(4) 0.5720(4) 0.79942(18)
H14 H 0.7888 0.6182 0.7518
C13 C 0.7157(5) 0.4707(4) 0.8125(2)
H15 H 0.7375 0.4196 0.8581
H16 H 0.7444 0.4236 0.7762
C14 C 0.8573(5) 0.7579(4) 0.8312(2)
H17 H 0.8297 0.8119 0.8637
H18 H 0.8360 0.8021 0.7837
C15 C 1.0267(5) 0.7101(4) 0.8337(2)
H19 H 1.0835 0.7759 0.8213
H20 H 1.0487 0.6691 0.8817
C16 C 1.0774(4) 0.6258(4) 0.7836(2)
H21 H 1.1836 0.5911 0.7911
C17 C 0.9813(4) 0.5245(4) 0.7980(2)
H22 H 1.0057 0.4730 0.8432
H23 H 1.0069 0.4777 0.7614
C18 C 1.1584(4) 0.7668(4) 0.67795(19)
C19 C 1.1960(4) 0.8989(3) 0.56007(18)
C20 C 1.2771(4) 0.9765(3) 0.5822(2)
H24 H 1.2956 0.9666 0.6298
C21 C 1.3290(4) 1.0674(3) 0.5330(2)
H25 H 1.3810 1.1198 0.5476
C22 C 1.3034(4) 1.0802(3) 0.4616(2)
C23 C 1.2241(4) 1.0048(4) 0.4386(2)
H26 H 1.2069 1.0147 0.3908
C24 C 1.1709(4) 0.9142(3) 0.48805(19)
H27 H 1.1177 0.8628 0.4732
C25 C 0.7843(4) 0.5967(4) 0.9293(2)
C26 C 0.7674(6) 0.6247(5) 1.0465(2)
H28 H 0.8730 0.5898 1.0519
H29 H 0.7054 0.5631 1.0644
C27 C 0.7273(9) 0.7208(7) 1.0868(3)
H30 H 0.7403 0.6890 1.1363
H31 H 0.6234 0.7562 1.0803
H32 H 0.7919 0.7799 1.0701
O9 O 0.9688(16) 1.0422(10) 0.7198(7)
C28 C 1.029(3) 1.0334(16) 0.7813(13)
H33 H 1.1337 0.9955 0.7794
H34 H 0.9733 0.9862 0.8191
C29 C 1.019(3) 1.160(2) 0.7948(12)
H35 H 0.9215 1.1869 0.8175
H36 H 1.0996 1.1665 0.8232
C30 C 1.037(2) 1.2269(14) 0.7210(11)
H37 H 0.9736 1.3041 0.7149
H38 H 1.1417 1.2379 0.7089
C31 C 0.991(2) 1.1559(14) 0.6783(10)
H39 H 1.0678 1.1454 0.6404
H40 H 0.8972 1.1955 0.6571
O10? O 0.361(3) 0.426(3) 0.7321(8)
O11? O 0.702(3) 0.220(2) 0.9933(19)
O12? O 0.743(2) 0.185(3) 1.0382(14)
C32? C 0.891(3) 0.124(3) 1.0254(17)
H41? H 0.9142 0.0543 1.0622
H42? H 0.9666 0.1755 1.0235
C33? C 0.885(3) 0.092(3) 0.9560(19)
H43? H 0.9544 0.0191 0.9523
H44? H 0.9098 0.1545 0.9172
C34? C 0.784(5) 0.032(3) 0.958(2)
H45? H 0.8429 -0.0399 0.9831
H46? H 0.7348 0.0158 0.9191
C35? C 0.678(5) 0.100(3) 1.006(3)
H47? H 0.5732 0.0977 0.9979
H48? H 0.6946 0.0638 1.0554
C36? C 0.647(4) 0.105(3) 1.0248(16)
H49? H 0.5434 0.1440 1.0189
H50? H 0.6492 0.0354 1.0626
C37? C 0.722(3) 0.074(3) 0.9566(17)
H51? H 0.6734 0.1256 0.9161
H52? H 0.7162 -0.0076 0.9551
C38? C 0.869(5) 0.135(3) 0.9375(17)
H53? H 0.9740 0.1067 0.9255
H54? H 0.8267 0.1878 0.8956
C39? C 0.862(2) 0.2039(19) 0.9948(11)
H55? H 0.9002 0.1571 1.0390
H56? H 0.9049 0.2766 0.9807
O13? O 0.571(2) 1.218(2) 0.6381(13)
O14? O 0.552(2) 1.1764(16) 0.6805(12)
C40? C 0.689(4) 1.214(4) 0.706(2)
H57? H 0.7797 1.1561 0.7031
H58? H 0.7204 1.2915 0.7017
C41? C 0.601(5) 1.182(3) 0.7762(16)
H59? H 0.6668 1.1610 0.8157
H60? H 0.5206 1.2455 0.7843
C42? C 0.541(6) 1.077(4) 0.7633(16)
H61? H 0.4488 1.0634 0.7921
H62? H 0.6156 1.0055 0.7709
C43? C 0.512(3) 1.121(3) 0.6862(14)
H63? H 0.5418 1.0526 0.6642
H64? H 0.4023 1.1401 0.6845
C44? C 0.452(4) 1.093(2) 0.6934(14)
H65? H 0.5075 1.0235 0.6777
H66? H 0.3720 1.1253 0.6612
C45? C 0.375(5) 1.049(5) 0.7639(17)
H67? H 0.3579 0.9672 0.7707
H68? H 0.2833 1.1004 0.7754
C46? C 0.520(4) 1.064(2) 0.8004(12)
H69? H 0.4915 1.0826 0.8471
H70? H 0.5935 0.9922 0.8055
C47? C 0.585(4) 1.165(3) 0.7526(14)
H71? H 0.5433 1.2380 0.7683
H72? H 0.6936 1.1519 0.7561
loop_
_geom_bond_atom_site_label_1
_geom_bond_atom_site_label_2
_geom_bond_site_symmetry_1
_geom_bond_site_symmetry_2
O1 N1 1_555 1_555
O2 N1 1_555 1_555
O3 C7 1_555 1_555
O4 C18 1_555 1_555
O5 N6 1_555 1_555
O6 N6 1_555 1_555
O7 C25 1_555 1_555
O8 C25 1_555 1_555
N1 C1 1_555 1_555
N2 H1 1_555 1_555
N3 H2 1_555 1_555
N4 H3 1_555 1_555
N5 H4 1_555 1_555
N6 C22 1_555 1_555
C1 C2 1_555 1_555
C2 H5 1_555 1_555
C3 C2 1_555 1_555
H6 C3 1_555 1_555
C4 N2 1_555 1_555
C5 C4 1_555 1_555
H7 C5 1_555 1_555
C6 C1 1_555 1_555
H8 C6 1_555 1_555
C7 N2 1_555 1_555
C8 N3 1_555 1_555
H9 C8 1_555 1_555
C9 C8 1_555 1_555
H10 C9 1_555 1_555
H11 C9 1_555 1_555
C10 C9 1_555 1_555
H12 C10 1_555 1_555
H13 C10 1_555 1_555
C11 C10 1_555 1_555
C12 C11 1_555 1_555
H14 C12 1_555 1_555
C13 C8 1_555 1_555
H15 C13 1_555 1_555
H16 C13 1_555 1_555
C14 C11 1_555 1_555
H17 C14 1_555 1_555
H18 C14 1_555 1_555
C15 C14 1_555 1_555
H19 C15 1_555 1_555
H20 C15 1_555 1_555
C16 N4 1_555 1_555
H21 C16 1_555 1_555
C17 C12 1_555 1_555
H22 C17 1_555 1_555
H23 C17 1_555 1_555
C18 N4 1_555 1_555
C19 N5 1_555 1_555
C20 C19 1_555 1_555
H24 C20 1_555 1_555
C21 C20 1_555 1_555
H25 C21 1_555 1_555
C22 C21 1_555 1_555
C23 C22 1_555 1_555
H26 C23 1_555 1_555
C24 C19 1_555 1_555
H27 C24 1_555 1_555
C25 C11 1_555 1_555
C26 O8 1_555 1_555
H28 C26 1_555 1_555
H29 C26 1_555 1_555
C27 C26 1_555 1_555
H30 C27 1_555 1_555
H31 C27 1_555 1_555
H32 C27 1_555 1_555
O9 C28 1_555 1_555
C28 H33 1_555 1_555
H34 C28 1_555 1_555
C29 C28 1_555 1_555
H35 C29 1_555 1_555
H36 C29 1_555 1_555
C30 C29 1_555 1_555
H37 C30 1_555 1_555
H38 C30 1_555 1_555
C31 O9 1_555 1_555
H39 C31 1_555 1_555
H40 C31 1_555 1_555
N3 C7 1_555 1_555
N5 C18 1_555 1_555
C3 C4 1_555 1_555
C5 C6 1_555 1_555
C12 C13 1_555 1_555
C15 C16 1_555 1_555
C16 C17 1_555 1_555
C23 C24 1_555 1_555
C30 C31 1_555 1_555

#END
