
#######################################################################
#
#                 Cambridge Crystallographic Data Centre
#                                CCDC 
#
#######################################################################
#
# If this CIF has been generated from an entry in the Cambridge 
# Structural Database, then it will include bibliographic, chemical, 
# crystal, experimental, refinement or atomic coordinate data resulting 
# from the CCDC's data processing and validation procedures.
#
#######################################################################

data_FIJHIR
_chemical_formula_moiety         'C20 H22 N2 O1'
_chemical_name_systematic        
3-(4-t-Butylphenyl)-5-(4-methoxyphenyl)-1H-pyrazole
_symmetry_cell_setting           triclinic
_symmetry_space_group_name_H-M   'P -1'
_symmetry_Int_Tables_number      2
_space_group_name_Hall           '-P 1'
loop_
_symmetry_equiv_pos_site_id
_symmetry_equiv_pos_as_xyz
1 x,y,z
2 -x,-y,-z
_cell_length_a                   9.876(6)
_cell_length_b                   13.559(8)
_cell_length_c                   14.095(8)
_cell_angle_alpha                85.706(12)
_cell_angle_beta                 74.174(11)
_cell_angle_gamma                73.273(10)
_cell_volume                     1739.05
_exptl_crystal_colour            colorless
_exptl_crystal_description       block
_cell_formula_units_Z            4
loop_
_atom_site_label
_atom_site_type_symbol
_atom_site_fract_x
_atom_site_fract_y
_atom_site_fract_z
C1 C 0.5172(11) -0.5154(7) 0.6842(7)
H1 H 0.4198 -0.4710 0.7079
H2 H 0.5334 -0.5720 0.7288
H3 H 0.5286 -0.5413 0.6200
C2 C 0.6232(6) -0.3814(5) 0.6116(4)
C3 C 0.5315(7) -0.3541(5) 0.5489(5)
H4 H 0.4644 -0.3904 0.5497
C4 C 0.5417(6) -0.2717(4) 0.4850(4)
H5 H 0.4814 -0.2540 0.4424
C5 C 0.6407(6) -0.2142(5) 0.4830(4)
C6 C 0.7287(6) -0.2441(5) 0.5477(5)
H6 H 0.7955 -0.2080 0.5485
C7 C 0.7193(6) -0.3263(5) 0.6113(5)
H7 H 0.7791 -0.3442 0.6542
C8 C 0.6462(6) -0.1269(4) 0.4183(4)
C9 C 0.6093(6) -0.0989(4) 0.3287(5)
H8 H 0.5732 -0.1361 0.2935
C10 C 0.6374(6) -0.0046(4) 0.3031(4)
C11 C 0.6198(6) 0.0624(5) 0.2175(4)
C12 C 0.6301(6) 0.0241(5) 0.1275(5)
H9 H 0.6508 -0.0467 0.1200
C13 C 0.6108(7) 0.0871(5) 0.0476(5)
H10 H 0.6181 0.0578 -0.0118
C14 C 0.5806(6) 0.1932(5) 0.0543(5)
C15 C 0.5729(7) 0.2309(5) 0.1447(5)
H11 H 0.5542 0.3015 0.1520
C16 C 0.5914(7) 0.1690(5) 0.2237(5)
H12 H 0.5849 0.1984 0.2828
C17 C 0.5533(7) 0.2641(5) -0.0321(5)
C18 C 0.4203(15) 0.3557(9) -0.0008(9)
H13 H 0.4240 0.3862 0.0574
H14 H 0.3330 0.3336 0.0129
H15 H 0.4196 0.4056 -0.0529
C19 C 0.5218(16) 0.2158(7) -0.1124(8)
H16 H 0.5301 0.2587 -0.1699
H17 H 0.4243 0.2084 -0.0909
H18 H 0.5908 0.1492 -0.1281
C20 C 0.6835(13) 0.3032(13) -0.0757(10)
H19 H 0.7335 0.3038 -0.0262
H20 H 0.6521 0.3718 -0.0997
H21 H 0.7487 0.2591 -0.1292
N1 N 0.6917(5) -0.0497(4) 0.4419(4)
H22 H 0.7203 -0.0479 0.4940
N2 N 0.6864(5) 0.0245(4) 0.3727(4)
O1 O 0.6207(5) -0.4593(4) 0.6780(3)
C21 C 0.9906(10) -0.1817(7) 0.9963(7)
H23 H 1.0860 -0.2095 0.9528
H24 H 0.9756 -0.2265 1.0519
H25 H 0.9833 -0.1148 1.0187
C22 C 0.8809(6) -0.1057(5) 0.8670(4)
C23 C 0.7804(6) -0.1046(5) 0.8156(5)
H26 H 0.7186 -0.1469 0.8351
C24 C 0.7711(6) -0.0410(5) 0.7355(5)
H27 H 0.7031 -0.0416 0.7012
C25 C 0.8602(5) 0.0237(4) 0.7045(4)
C26 C 0.9582(6) 0.0228(5) 0.7592(5)
H28 H 1.0176 0.0670 0.7416
C27 C 0.9700(7) -0.0416(5) 0.8387(5)
H29 H 1.0382 -0.0418 0.8730
C28 C 0.8526(6) 0.0887(4) 0.6175(4)
C29 C 0.8884(6) 0.1809(5) 0.5906(4)
H30 H 0.9235 0.2176 0.6269
C30 C 0.8612(6) 0.2071(4) 0.4991(4)
C31 C 0.8770(6) 0.2927(4) 0.4324(4)
C32 C 0.9023(7) 0.2828(5) 0.3326(5)
H31 H 0.9048 0.2209 0.3071
C33 C 0.9241(8) 0.3627(5) 0.2692(4)
H32 H 0.9421 0.3528 0.2018
C34 C 0.9198(6) 0.4577(5) 0.3029(4)
C35 C 0.8943(7) 0.4676(5) 0.4015(5)
H33 H 0.8906 0.5301 0.4266
C36 C 0.8735(7) 0.3878(5) 0.4667(5)
H34 H 0.8570 0.3978 0.5340
C37 C 0.9447(6) 0.5449(5) 0.2310(4)
C38 C 0.8073(12) 0.6007(9) 0.2035(11)
H35 H 0.7654 0.5519 0.1848
H36 H 0.8289 0.6457 0.1491
H37 H 0.7389 0.6405 0.2588
C39 C 0.9898(12) 0.6263(7) 0.2758(6)
H38 H 0.9812 0.6868 0.2352
H39 H 1.0894 0.5992 0.2793
H40 H 0.9268 0.6440 0.3409
C40 C 1.0705(15) 0.5043(7) 0.1419(7)
H41 H 1.0632 0.4410 0.1203
H42 H 1.1616 0.4921 0.1591
H43 H 1.0668 0.5540 0.0898
N3 N 0.8078(5) 0.0610(4) 0.5451(4)
N4 N 0.8135(5) 0.1312(4) 0.4742(4)
O2 O 0.8827(5) -0.1734(4) 0.9454(4)
H44? H 0.7902 0.1287 0.4201
loop_
_geom_bond_atom_site_label_1
_geom_bond_atom_site_label_2
_geom_bond_site_symmetry_1
_geom_bond_site_symmetry_2
C1 H1 1_555 1_555
H2 C1 1_555 1_555
H3 C1 1_555 1_555
C2 C3 1_555 1_555
C3 H4 1_555 1_555
C4 C3 1_555 1_555
H5 C4 1_555 1_555
C5 C4 1_555 1_555
C6 C5 1_555 1_555
H6 C6 1_555 1_555
C7 C2 1_555 1_555
H7 C7 1_555 1_555
C8 C5 1_555 1_555
C9 C8 1_555 1_555
H8 C9 1_555 1_555
C10 C9 1_555 1_555
C11 C10 1_555 1_555
C12 C11 1_555 1_555
H9 C12 1_555 1_555
C13 C12 1_555 1_555
H10 C13 1_555 1_555
C14 C13 1_555 1_555
C15 C14 1_555 1_555
H11 C15 1_555 1_555
C16 C11 1_555 1_555
H12 C16 1_555 1_555
C17 C14 1_555 1_555
C18 C17 1_555 1_555
H13 C18 1_555 1_555
H14 C18 1_555 1_555
H15 C18 1_555 1_555
C19 C17 1_555 1_555
H16 C19 1_555 1_555
H17 C19 1_555 1_555
H18 C19 1_555 1_555
C20 C17 1_555 1_555
H19 C20 1_555 1_555
H20 C20 1_555 1_555
H21 C20 1_555 1_555
N1 C8 1_555 1_555
H22 N1 1_555 1_555
N2 C10 1_555 1_555
O1 C1 1_555 1_555
C21 H23 1_555 1_555
H24 C21 1_555 1_555
H25 C21 1_555 1_555
C22 C23 1_555 1_555
C23 H26 1_555 1_555
C24 C23 1_555 1_555
H27 C24 1_555 1_555
C25 C24 1_555 1_555
C26 C25 1_555 1_555
H28 C26 1_555 1_555
C27 C22 1_555 1_555
H29 C27 1_555 1_555
C28 C25 1_555 1_555
C29 C28 1_555 1_555
H30 C29 1_555 1_555
C30 C29 1_555 1_555
C31 C30 1_555 1_555
C32 C31 1_555 1_555
H31 C32 1_555 1_555
C33 C32 1_555 1_555
H32 C33 1_555 1_555
C34 C33 1_555 1_555
C35 C34 1_555 1_555
H33 C35 1_555 1_555
C36 C31 1_555 1_555
H34 C36 1_555 1_555
C37 C34 1_555 1_555
C38 C37 1_555 1_555
H35 C38 1_555 1_555
H36 C38 1_555 1_555
H37 C38 1_555 1_555
C39 C37 1_555 1_555
H38 C39 1_555 1_555
H39 C39 1_555 1_555
H40 C39 1_555 1_555
C40 C37 1_555 1_555
H41 C40 1_555 1_555
H42 C40 1_555 1_555
H43 C40 1_555 1_555
N3 C28 1_555 1_555
N4 C30 1_555 1_555
O2 C21 1_555 1_555
C2 O1 1_555 1_555
C6 C7 1_555 1_555
C15 C16 1_555 1_555
N1 N2 1_555 1_555
C22 O2 1_555 1_555
C26 C27 1_555 1_555
C35 C36 1_555 1_555
N3 N4 1_555 1_555

#END
