
#######################################################################
#
#                 Cambridge Crystallographic Data Centre
#                                CCDC 
#
#######################################################################
#
# If this CIF has been generated from an entry in the Cambridge 
# Structural Database, then it will include bibliographic, chemical, 
# crystal, experimental, refinement or atomic coordinate data resulting 
# from the CCDC's data processing and validation procedures.
#
#######################################################################

data_FIJMOC
_chemical_formula_moiety         'C52 H78 Ca1 O5'
_chemical_name_systematic        
bis(\h^5^-1-(((1-Adamantyl)carbonyl)oxy)-2,3,4,5-tetraethylcyclopentadienyl-O)-tetrahydrofuran-calcium(ii)
_symmetry_cell_setting           monoclinic
_symmetry_space_group_name_H-M   'P 21/c'
_symmetry_Int_Tables_number      14
_space_group_name_Hall           '-P 2ybc'
loop_
_symmetry_equiv_pos_site_id
_symmetry_equiv_pos_as_xyz
1 x,y,z
2 -x,1/2+y,1/2-z
3 -x,-y,-z
4 x,1/2-y,1/2+z
_cell_length_a                   28.323(6)
_cell_length_b                   17.885(4)
_cell_length_c                   19.507(4)
_cell_angle_alpha                90
_cell_angle_beta                 108.03(3)
_cell_angle_gamma                90
_cell_volume                     9396.17
_cell_formula_units_Z            8
loop_
_atom_site_label
_atom_site_type_symbol
_atom_site_fract_x
_atom_site_fract_y
_atom_site_fract_z
Ca1 Ca 0.34210(4) 0.43074(7) 0.75450(6)
O1 O 0.41620(14) 0.3566(2) 0.8102(2)
O2 O 0.45572(14) 0.4378(2) 0.8954(2)
O3 O 0.25318(14) 0.4598(2) 0.7213(2)
O4 O 0.23386(14) 0.4387(2) 0.6023(2)
O5 O 0.31272(15) 0.3283(2) 0.8132(2)
C1 C 0.4142(2) 0.4869(4) 0.8700(3)
C2 C 0.4079(2) 0.5426(3) 0.8158(3)
C3 C 0.3609(2) 0.5737(4) 0.8071(3)
C4 C 0.3395(2) 0.5370(3) 0.8562(3)
C5 C 0.3731(2) 0.4826(4) 0.8946(3)
C6 C 0.4458(2) 0.5659(4) 0.7799(3)
H1 H 0.4285 0.5806 0.7295
H2 H 0.4676 0.5229 0.7789
C7 C 0.4779(2) 0.6314(4) 0.8193(3)
H3 H 0.4567 0.6751 0.8178
H4 H 0.5028 0.6435 0.7956
H5 H 0.4946 0.6175 0.8695
C8 C 0.3382(2) 0.6380(3) 0.7584(3)
H6 H 0.3022 0.6286 0.7367
H7 H 0.3531 0.6405 0.7188
C9 C 0.3455(2) 0.7145(4) 0.7979(3)
H8 H 0.3282 0.7142 0.8343
H9 H 0.3319 0.7544 0.7629
H10 H 0.3810 0.7233 0.8213
C10 C 0.2893(2) 0.5560(3) 0.8659(3)
H11 H 0.2707 0.5091 0.8658
H12 H 0.2699 0.5865 0.8244
C11 C 0.2939(2) 0.5997(3) 0.9371(3)
H13 H 0.3108 0.5683 0.9786
H14 H 0.2607 0.6127 0.9389
H15 H 0.3131 0.6455 0.9383
C12 C 0.3688(2) 0.4327(3) 0.9570(3)
H16 H 0.3797 0.3813 0.9503
H17 H 0.3336 0.4303 0.9557
C13 C 0.4007(2) 0.4625(4) 1.0316(3)
H18 H 0.4358 0.4631 1.0338
H19 H 0.3965 0.4298 1.0696
H20 H 0.3901 0.5133 1.0385
C14 C 0.4517(2) 0.3700(4) 0.8619(3)
C15 C 0.4929(2) 0.3178(3) 0.8959(3)
C16 C 0.5425(2) 0.3547(4) 0.8975(4)
H21 H 0.5472 0.4020 0.9251
H22 H 0.5425 0.3661 0.8478
C17 C 0.4943(2) 0.3001(4) 0.9744(3)
H23 H 0.4997 0.3468 1.0029
H24 H 0.4621 0.2785 0.9743
C18 C 0.4866(2) 0.2449(4) 0.8533(4)
H25 H 0.4874 0.2555 0.8038
H26 H 0.4540 0.2225 0.8497
C19 C 0.5850(2) 0.2991(4) 0.9338(4)
H27 H 0.6178 0.3215 0.9357
C20 C 0.5366(2) 0.2440(4) 1.0095(4)
H28 H 0.5372 0.2323 1.0599
C21 C 0.5284(2) 0.1889(4) 0.8900(4)
H29 H 0.5237 0.1413 0.8618
C22 C 0.5840(2) 0.2826(4) 1.0101(3)
H30 H 0.6126 0.2505 1.0350
H31 H 0.5872 0.3300 1.0373
C23 C 0.5293(3) 0.1735(4) 0.9653(4)
H32 H 0.5566 0.1381 0.9878
H33 H 0.4977 0.1496 0.9647
C24 C 0.5763(3) 0.2275(4) 0.8888(4)
H34 H 0.5741 0.2398 0.8384
H35 H 0.6047 0.1931 0.9081
C25 C 0.2855(2) 0.4173(4) 0.6140(3)
C26 C 0.3230(2) 0.4688(4) 0.6103(3)
C27 C 0.3669(2) 0.4246(4) 0.6261(3)
C28 C 0.3553(2) 0.3508(3) 0.6396(3)
C29 C 0.3043(2) 0.3467(4) 0.6321(3)
C30 C 0.3153(2) 0.5480(3) 0.5845(3)
H36 H 0.3467 0.5759 0.6050
H37 H 0.2899 0.5712 0.6030
C31 C 0.2988(3) 0.5560(4) 0.5026(3)
H38 H 0.3232 0.5321 0.4834
H39 H 0.2962 0.6092 0.4897
H40 H 0.2664 0.5320 0.4819
C32 C 0.4171(2) 0.4528(4) 0.6211(3)
H41 H 0.4442 0.4324 0.6620
H42 H 0.4182 0.5080 0.6250
C33 C 0.4256(2) 0.4294(4) 0.5496(3)
H43 H 0.4307 0.3752 0.5495
H44 H 0.4550 0.4550 0.5448
H45 H 0.3965 0.4431 0.5091
C34 C 0.3911(2) 0.2861(4) 0.6540(3)
H46 H 0.3862 0.2551 0.6933
H47 H 0.4255 0.3057 0.6706
C35 C 0.3848(2) 0.2370(4) 0.5877(4)
H48 H 0.3536 0.2092 0.5770
H49 H 0.4126 0.2017 0.5973
H50 H 0.3843 0.2685 0.5464
C36 C 0.2722(2) 0.2796(3) 0.6386(3)
H51 H 0.2540 0.2920 0.6730
H52 H 0.2941 0.2364 0.6582
C37 C 0.2347(2) 0.2576(4) 0.5656(3)
H53 H 0.2121 0.2995 0.5469
H54 H 0.2156 0.2140 0.5722
H55 H 0.2526 0.2453 0.5313
C38 C 0.2217(2) 0.4573(3) 0.6621(3)
C39 C 0.1662(2) 0.4744(3) 0.6476(3)
C40 C 0.1512(2) 0.4517(4) 0.7147(3)
H56 H 0.1726 0.4777 0.7579
H57 H 0.1556 0.3972 0.7228
C41 C 0.1332(2) 0.4322(4) 0.5819(4)
H58 H 0.1390 0.3778 0.5887
H59 H 0.1415 0.4475 0.5382
C42 C 0.1583(2) 0.5587(4) 0.6356(3)
H60 H 0.1682 0.5744 0.5934
H61 H 0.1789 0.5863 0.6784
C43 C 0.0959(2) 0.4731(4) 0.7025(3)
H62 H 0.0863 0.4589 0.7460
C44 C 0.0776(2) 0.4502(4) 0.5723(3)
H63 H 0.0557 0.4222 0.5299
C45 C 0.1023(2) 0.5766(4) 0.6224(3)
H64 H 0.0962 0.6312 0.6122
C46 C 0.0652(2) 0.4291(4) 0.6386(4)
H65 H 0.0715 0.3750 0.6481
H66 H 0.0296 0.4386 0.6312
C47 C 0.0710(2) 0.5320(4) 0.5593(3)
H67 H 0.0357 0.5451 0.5500
H68 H 0.0803 0.5452 0.5158
C48 C 0.0899(2) 0.5561(4) 0.6907(3)
H69 H 0.1124 0.5829 0.7325
H70 H 0.0553 0.5709 0.6859
C49 C 0.2662(2) 0.3325(3) 0.8317(3)
H71 H 0.2371 0.3241 0.7886
H72 H 0.2627 0.3818 0.8527
C50 C 0.2708(2) 0.2699(4) 0.8871(3)
H73 H 0.2890 0.2871 0.9365
H74 H 0.2378 0.2509 0.8863
C51 C 0.3003(3) 0.2105(4) 0.8611(4)
H75 H 0.3175 0.1761 0.9006
H76 H 0.2784 0.1812 0.8206
C52 C 0.3368(2) 0.2564(3) 0.8369(4)
H77 H 0.3679 0.2636 0.8772
H78 H 0.3449 0.2312 0.7967
Ca2 Ca 0.15690(4) 0.92897(7) 0.66458(6)
O6 O 0.24369(14) 0.9609(2) 0.7195(2)
O7 O 0.27093(14) 0.9383(2) 0.6247(2)
O8 O 0.08165(14) 0.8559(2) 0.6473(2)
O9 O 0.03734(13) 0.9430(2) 0.6849(2)
O10 O 0.18303(15) 0.8290(2) 0.7524(2)
C53 C 0.2204(2) 0.9152(4) 0.5848(3)
C54 C 0.1834(2) 0.9654(4) 0.5432(3)
C55 C 0.1404(2) 0.9191(4) 0.5170(3)
C56 C 0.1515(2) 0.8443(4) 0.5426(3)
C57 C 0.2026(2) 0.8427(4) 0.5860(3)
C58 C 0.1910(2) 1.0465(3) 0.5277(3)
H79 H 0.2167 1.0681 0.5696
H80 H 0.1596 1.0741 0.5220
C59 C 0.2067(2) 1.0584(4) 0.4597(3)
H81 H 0.2399 1.0376 0.4676
H82 H 0.2071 1.1120 0.4496
H83 H 0.1830 1.0331 0.4187
C60 C 0.0918(2) 0.9460(4) 0.4621(3)
H84 H 0.0900 1.0012 0.4654
H85 H 0.0636 0.9249 0.4756
C61 C 0.0857(2) 0.9244(4) 0.3824(3)
H86 H 0.1118 0.9485 0.3671
H87 H 0.0531 0.9411 0.3514
H88 H 0.0882 0.8700 0.3786
C62 C 0.1162(2) 0.7788(4) 0.5234(4)
H89 H 0.0820 0.7984 0.5046
H90 H 0.1187 0.7508 0.5682
C63 C 0.1245(2) 0.7235(4) 0.4679(3)
H91 H 0.1222 0.7501 0.4231
H92 H 0.0991 0.6843 0.4582
H93 H 0.1575 0.7007 0.4871
C64 C 0.2341(2) 0.7769(3) 0.6229(3)
H94 H 0.2121 0.7339 0.6229
H95 H 0.2515 0.7902 0.6737
C65 C 0.2731(2) 0.7534(4) 0.5858(3)
H96 H 0.2561 0.7405 0.5353
H97 H 0.2916 0.7099 0.6107
H98 H 0.2960 0.7949 0.5879
C66 C 0.2795(2) 0.9568(3) 0.6956(3)
C67 C 0.3327(2) 0.9719(4) 0.7383(4)
C68 C 0.3695(2) 0.9214(4) 0.7157(4)
H99 H 0.3668 0.9312 0.6647
H100 H 0.3611 0.8683 0.7202
C69 C 0.3451(2) 1.0547(4) 0.7277(4)
H101 H 0.3228 1.0877 0.7443
H102 H 0.3394 1.0644 0.6758
C70 C 0.3402(2) 0.9604(4) 0.8183(3)
H103 H 0.3332 0.9077 0.8270
H104 H 0.3166 0.9924 0.8332
C71 C 0.4237(2) 0.9373(4) 0.7646(3)
H105 H 0.4474 0.9033 0.7511
C72 C 0.4000(2) 1.0727(4) 0.7707(3)
H106 H 0.4087 1.1252 0.7619
C73 C 0.3937(2) 0.9801(4) 0.8638(4)
H107 H 0.3973 0.9730 0.9160
C74 C 0.4333(2) 1.0166(4) 0.7486(4)
H108 H 0.4281 1.0217 0.6962
H109 H 0.4684 1.0289 0.7742
C75 C 0.4053(2) 1.0599(4) 0.8511(3)
H110 H 0.4397 1.0719 0.8809
H111 H 0.3824 1.0936 0.8657
C76 C 0.4278(3) 0.9266(4) 0.8425(4)
H112 H 0.4625 0.9355 0.8728
H113 H 0.4188 0.8746 0.8506
C77 C 0.0804(2) 0.9892(3) 0.7035(3)
C78 C 0.1173(2) 0.9834(3) 0.7705(3)
C79 C 0.1538(2) 1.0361(3) 0.7672(3)
C80 C 0.1385(2) 1.0716(3) 0.6995(3)
C81 C 0.0915(2) 1.0439(3) 0.6594(3)
C82 C 0.1135(2) 0.9344(3) 0.8319(3)
H114 H 0.1461 0.9325 0.8699
H115 H 0.1045 0.8829 0.8140
C83 C 0.0736(2) 0.9651(4) 0.8644(3)
H116 H 0.0858 1.0112 0.8913
H117 H 0.0669 0.9278 0.8970
H118 H 0.0429 0.9758 0.8255
C84 C 0.2006(2) 1.0530(3) 0.8290(3)
H119 H 0.2234 1.0823 0.8100
H120 H 0.2173 1.0051 0.8475
C85 C 0.1922(2) 1.0961(3) 0.8922(3)
H121 H 0.1762 1.1441 0.8749
H122 H 0.2242 1.1050 0.9291
H123 H 0.1708 1.0667 0.9130
C86 C 0.1650(2) 1.1365(3) 0.6760(3)
H124 H 0.1515 1.1414 0.6229
H125 H 0.2006 1.1238 0.6879
C87 C 0.1605(2) 1.2122(3) 0.7097(3)
H126 H 0.1254 1.2244 0.7005
H127 H 0.1762 1.2508 0.6884
H128 H 0.1771 1.2099 0.7618
C88 C 0.0573(2) 1.0728(4) 0.5876(3)
H129 H 0.0312 1.0351 0.5669
H130 H 0.0768 1.0793 0.5537
C89 C 0.0324(2) 1.1475(3) 0.5949(3)
H131 H 0.0154 1.1426 0.6313
H132 H 0.0084 1.1607 0.5484
H133 H 0.0578 1.1867 0.6095
C90 C 0.0430(2) 0.8737(4) 0.6605(3)
C91 C 0.0012(2) 0.8205(3) 0.6548(3)
C92 C -0.0075(2) 0.8130(3) 0.7286(3)
H134 H 0.0231 0.7946 0.7649
H135 H -0.0160 0.8624 0.7445
C93 C -0.0454(2) 0.8527(3) 0.6016(3)
H136 H -0.0401 0.8597 0.5542
H137 H -0.0528 0.9020 0.6188
C94 C 0.0118(2) 0.7441(3) 0.6271(3)
H138 H 0.0427 0.7232 0.6606
H139 H 0.0167 0.7503 0.5793
C95 C -0.0894(2) 0.7990(4) 0.5938(3)
H140 H -0.1202 0.8201 0.5591
C96 C -0.0313(2) 0.6893(4) 0.6205(4)
H141 H -0.0234 0.6394 0.6036
C97 C -0.0498(2) 0.7583(4) 0.7218(3)
H142 H -0.0550 0.7519 0.7699
C98 C -0.0962(2) 0.7900(4) 0.6690(3)
H143 H -0.1037 0.8392 0.6863
H144 H -0.1245 0.7562 0.6655
C99 C -0.0773(2) 0.7220(4) 0.5665(3)
H145 H -0.1057 0.6876 0.5602
H146 H -0.0716 0.7282 0.5192
C100 C -0.0391(2) 0.6822(4) 0.6939(3)
H147 H -0.0091 0.6602 0.7286
H148 H -0.0673 0.6480 0.6901
C101 C 0.2270(2) 0.8341(4) 0.8154(3)
H149 H 0.2282 0.8829 0.8398
H150 H 0.2576 0.8282 0.8015
C102 C 0.2218(3) 0.7712(4) 0.8635(4)
H151 H 0.2025 0.7866 0.8956
H152 H 0.2545 0.7519 0.8929
C103 C 0.1936(3) 0.7139(4) 0.8079(4)
H153 H 0.2166 0.6861 0.7879
H154 H 0.1759 0.6779 0.8297
C104 C 0.1583(3) 0.7580(4) 0.7517(4)
H155 H 0.1513 0.7334 0.7041
H156 H 0.1268 0.7648 0.7627
loop_
_geom_bond_atom_site_label_1
_geom_bond_atom_site_label_2
_geom_bond_site_symmetry_1
_geom_bond_site_symmetry_2
Ca1 O1 1_555 1_555
O1 C14 1_555 1_555
O2 C1 1_555 1_555
O3 Ca1 1_555 1_555
O4 C25 1_555 1_555
O5 Ca1 1_555 1_555
C1 Ca1 1_555 1_555
C2 Ca1 1_555 1_555
C3 Ca1 1_555 1_555
C4 Ca1 1_555 1_555
C5 Ca1 1_555 1_555
C6 C2 1_555 1_555
H1 C6 1_555 1_555
H2 C6 1_555 1_555
C7 C6 1_555 1_555
H3 C7 1_555 1_555
H4 C7 1_555 1_555
H5 C7 1_555 1_555
C8 C3 1_555 1_555
H6 C8 1_555 1_555
H7 C8 1_555 1_555
C9 C8 1_555 1_555
H8 C9 1_555 1_555
H9 C9 1_555 1_555
H10 C9 1_555 1_555
C10 C4 1_555 1_555
H11 C10 1_555 1_555
H12 C10 1_555 1_555
C11 C10 1_555 1_555
H13 C11 1_555 1_555
H14 C11 1_555 1_555
H15 C11 1_555 1_555
C12 C5 1_555 1_555
H16 C12 1_555 1_555
H17 C12 1_555 1_555
C13 C12 1_555 1_555
H18 C13 1_555 1_555
H19 C13 1_555 1_555
H20 C13 1_555 1_555
C14 O2 1_555 1_555
C15 C14 1_555 1_555
C16 C15 1_555 1_555
H21 C16 1_555 1_555
H22 C16 1_555 1_555
C17 C15 1_555 1_555
H23 C17 1_555 1_555
H24 C17 1_555 1_555
C18 C15 1_555 1_555
H25 C18 1_555 1_555
H26 C18 1_555 1_555
C19 C16 1_555 1_555
H27 C19 1_555 1_555
C20 C17 1_555 1_555
H28 C20 1_555 1_555
C21 C18 1_555 1_555
H29 C21 1_555 1_555
C22 C19 1_555 1_555
H30 C22 1_555 1_555
H31 C22 1_555 1_555
C23 C20 1_555 1_555
H32 C23 1_555 1_555
H33 C23 1_555 1_555
C24 C19 1_555 1_555
H34 C24 1_555 1_555
H35 C24 1_555 1_555
C25 Ca1 1_555 1_555
C26 Ca1 1_555 1_555
C27 Ca1 1_555 1_555
C28 Ca1 1_555 1_555
C29 Ca1 1_555 1_555
C30 C26 1_555 1_555
H36 C30 1_555 1_555
H37 C30 1_555 1_555
C31 C30 1_555 1_555
H38 C31 1_555 1_555
H39 C31 1_555 1_555
H40 C31 1_555 1_555
C32 C27 1_555 1_555
H41 C32 1_555 1_555
H42 C32 1_555 1_555
C33 C32 1_555 1_555
H43 C33 1_555 1_555
H44 C33 1_555 1_555
H45 C33 1_555 1_555
C34 C28 1_555 1_555
H46 C34 1_555 1_555
H47 C34 1_555 1_555
C35 C34 1_555 1_555
H48 C35 1_555 1_555
H49 C35 1_555 1_555
H50 C35 1_555 1_555
C36 C29 1_555 1_555
H51 C36 1_555 1_555
H52 C36 1_555 1_555
C37 C36 1_555 1_555
H53 C37 1_555 1_555
H54 C37 1_555 1_555
H55 C37 1_555 1_555
C38 O3 1_555 1_555
C39 C38 1_555 1_555
C40 C39 1_555 1_555
H56 C40 1_555 1_555
H57 C40 1_555 1_555
C41 C39 1_555 1_555
H58 C41 1_555 1_555
H59 C41 1_555 1_555
C42 C39 1_555 1_555
H60 C42 1_555 1_555
H61 C42 1_555 1_555
C43 C40 1_555 1_555
H62 C43 1_555 1_555
C44 C41 1_555 1_555
H63 C44 1_555 1_555
C45 C42 1_555 1_555
H64 C45 1_555 1_555
C46 C43 1_555 1_555
H65 C46 1_555 1_555
H66 C46 1_555 1_555
C47 C44 1_555 1_555
H67 C47 1_555 1_555
H68 C47 1_555 1_555
C48 C43 1_555 1_555
H69 C48 1_555 1_555
H70 C48 1_555 1_555
C49 O5 1_555 1_555
H71 C49 1_555 1_555
H72 C49 1_555 1_555
C50 C49 1_555 1_555
H73 C50 1_555 1_555
H74 C50 1_555 1_555
C51 C50 1_555 1_555
H75 C51 1_555 1_555
H76 C51 1_555 1_555
C52 O5 1_555 1_555
H77 C52 1_555 1_555
H78 C52 1_555 1_555
Ca2 O6 1_555 1_555
O6 C66 1_555 1_555
O7 C53 1_555 1_555
O8 Ca2 1_555 1_555
O9 C77 1_555 1_555
O10 Ca2 1_555 1_555
C53 Ca2 1_555 1_555
C54 Ca2 1_555 1_555
C55 Ca2 1_555 1_555
C56 Ca2 1_555 1_555
C57 Ca2 1_555 1_555
C58 C54 1_555 1_555
H79 C58 1_555 1_555
H80 C58 1_555 1_555
C59 C58 1_555 1_555
H81 C59 1_555 1_555
H82 C59 1_555 1_555
H83 C59 1_555 1_555
C60 C55 1_555 1_555
H84 C60 1_555 1_555
H85 C60 1_555 1_555
C61 C60 1_555 1_555
H86 C61 1_555 1_555
H87 C61 1_555 1_555
H88 C61 1_555 1_555
C62 C56 1_555 1_555
H89 C62 1_555 1_555
H90 C62 1_555 1_555
C63 C62 1_555 1_555
H91 C63 1_555 1_555
H92 C63 1_555 1_555
H93 C63 1_555 1_555
C64 C57 1_555 1_555
H94 C64 1_555 1_555
H95 C64 1_555 1_555
C65 C64 1_555 1_555
H96 C65 1_555 1_555
H97 C65 1_555 1_555
H98 C65 1_555 1_555
C66 O7 1_555 1_555
C67 C66 1_555 1_555
C68 C67 1_555 1_555
H99 C68 1_555 1_555
H100 C68 1_555 1_555
C69 C67 1_555 1_555
H101 C69 1_555 1_555
H102 C69 1_555 1_555
C70 C67 1_555 1_555
H103 C70 1_555 1_555
H104 C70 1_555 1_555
C71 C68 1_555 1_555
H105 C71 1_555 1_555
C72 C69 1_555 1_555
H106 C72 1_555 1_555
C73 C70 1_555 1_555
H107 C73 1_555 1_555
C74 C71 1_555 1_555
H108 C74 1_555 1_555
H109 C74 1_555 1_555
C75 C72 1_555 1_555
H110 C75 1_555 1_555
H111 C75 1_555 1_555
C76 C71 1_555 1_555
H112 C76 1_555 1_555
H113 C76 1_555 1_555
C77 Ca2 1_555 1_555
C78 Ca2 1_555 1_555
C79 Ca2 1_555 1_555
C80 Ca2 1_555 1_555
C81 Ca2 1_555 1_555
C82 C78 1_555 1_555
H114 C82 1_555 1_555
H115 C82 1_555 1_555
C83 C82 1_555 1_555
H116 C83 1_555 1_555
H117 C83 1_555 1_555
H118 C83 1_555 1_555
C84 C79 1_555 1_555
H119 C84 1_555 1_555
H120 C84 1_555 1_555
C85 C84 1_555 1_555
H121 C85 1_555 1_555
H122 C85 1_555 1_555
H123 C85 1_555 1_555
C86 C80 1_555 1_555
H124 C86 1_555 1_555
H125 C86 1_555 1_555
C87 C86 1_555 1_555
H126 C87 1_555 1_555
H127 C87 1_555 1_555
H128 C87 1_555 1_555
C88 C81 1_555 1_555
H129 C88 1_555 1_555
H130 C88 1_555 1_555
C89 C88 1_555 1_555
H131 C89 1_555 1_555
H132 C89 1_555 1_555
H133 C89 1_555 1_555
C90 O8 1_555 1_555
C91 C90 1_555 1_555
C92 C91 1_555 1_555
H134 C92 1_555 1_555
H135 C92 1_555 1_555
C93 C91 1_555 1_555
H136 C93 1_555 1_555
H137 C93 1_555 1_555
C94 C91 1_555 1_555
H138 C94 1_555 1_555
H139 C94 1_555 1_555
C95 C93 1_555 1_555
H140 C95 1_555 1_555
C96 C94 1_555 1_555
H141 C96 1_555 1_555
C97 C92 1_555 1_555
H142 C97 1_555 1_555
C98 C95 1_555 1_555
H143 C98 1_555 1_555
H144 C98 1_555 1_555
C99 C95 1_555 1_555
H145 C99 1_555 1_555
H146 C99 1_555 1_555
C100 C96 1_555 1_555
H147 C100 1_555 1_555
H148 C100 1_555 1_555
C101 O10 1_555 1_555
H149 C101 1_555 1_555
H150 C101 1_555 1_555
C102 C101 1_555 1_555
H151 C102 1_555 1_555
H152 C102 1_555 1_555
C103 C102 1_555 1_555
H153 C103 1_555 1_555
H154 C103 1_555 1_555
C104 O10 1_555 1_555
H155 C104 1_555 1_555
H156 C104 1_555 1_555
O4 C38 1_555 1_555
C1 C2 1_555 1_555
C1 C5 1_555 1_555
C2 C3 1_555 1_555
C3 C4 1_555 1_555
C4 C5 1_555 1_555
C20 C22 1_555 1_555
C21 C23 1_555 1_555
C21 C24 1_555 1_555
C25 C26 1_555 1_555
C25 C29 1_555 1_555
C26 C27 1_555 1_555
C27 C28 1_555 1_555
C28 C29 1_555 1_555
C44 C46 1_555 1_555
C45 C47 1_555 1_555
C45 C48 1_555 1_555
C51 C52 1_555 1_555
O9 C90 1_555 1_555
C53 C54 1_555 1_555
C53 C57 1_555 1_555
C54 C55 1_555 1_555
C55 C56 1_555 1_555
C56 C57 1_555 1_555
C72 C74 1_555 1_555
C73 C75 1_555 1_555
C73 C76 1_555 1_555
C77 C78 1_555 1_555
C77 C81 1_555 1_555
C78 C79 1_555 1_555
C79 C80 1_555 1_555
C80 C81 1_555 1_555
C96 C99 1_555 1_555
C97 C98 1_555 1_555
C97 C100 1_555 1_555
C103 C104 1_555 1_555

#END
