
#######################################################################
#
#                 Cambridge Crystallographic Data Centre
#                                CCDC 
#
#######################################################################
#
# If this CIF has been generated from an entry in the Cambridge 
# Structural Database, then it will include bibliographic, chemical, 
# crystal, experimental, refinement or atomic coordinate data resulting 
# from the CCDC's data processing and validation procedures.
#
#######################################################################

data_FIKWON
_chemical_formula_moiety         'C23 H30 N6 O4'
_chemical_name_systematic        
't-Butyl 3-((4-(5-azidopentyl)-3,6-dioxopiperazin-2-yl)methyl)-1H-indole-1-carboxylate'
_symmetry_cell_setting           monoclinic
_symmetry_space_group_name_H-M   'P 21'
_symmetry_Int_Tables_number      4
_space_group_name_Hall           'P 2yb'
loop_
_symmetry_equiv_pos_site_id
_symmetry_equiv_pos_as_xyz
1 x,y,z
2 -x,1/2+y,-z
_cell_length_a                   9.14779(14)
_cell_length_b                   6.20547(10)
_cell_length_c                   20.7176(3)
_cell_angle_alpha                90
_cell_angle_beta                 91.3871(14)
_cell_angle_gamma                90
_cell_volume                     1175.72
_exptl_crystal_colour            colorless
_exptl_crystal_description       plate
_cell_formula_units_Z            2
loop_
_atom_site_label
_atom_site_type_symbol
_atom_site_fract_x
_atom_site_fract_y
_atom_site_fract_z
O1 O -0.06430(11) 0.69318(17) 0.67206(4)
O2 O -0.23187(11) 0.93459(17) 0.70644(5)
O3 O 0.12298(10) 0.68989(16) 0.97045(4)
O4 O 0.21443(12) 0.04837(16) 0.80277(5)
N1 N -0.17235(11) 0.63607(18) 0.76585(5)
N2 N 0.08915(11) 0.34143(18) 0.94171(4)
H1 H 0.0376(18) 0.318(3) 0.9772(8)
N3 N 0.27167(11) 0.38266(16) 0.83905(5)
N4 N 0.38190(13) 0.2168(2) 0.57917(6)
N5 N 0.46296(15) 0.2297(2) 0.53315(6)
N6 N 0.5277(2) 0.2437(2) 0.48724(7)
C1 C -0.09785(13) 0.4413(2) 0.77584(6)
H2 H -0.037(2) 0.388(4) 0.7420(9)
C2 C -0.12903(13) 0.3588(2) 0.83442(6)
C3 C -0.22834(13) 0.5083(2) 0.86421(6)
C4 C -0.29498(15) 0.5108(3) 0.92453(7)
H3 H -0.270(2) 0.404(4) 0.9560(9)
C5 C -0.38619(15) 0.6824(3) 0.93885(6)
H4 H -0.428(2) 0.693(4) 0.9800(10)
C6 C -0.41371(14) 0.8474(3) 0.89420(7)
H5 H -0.475(2) 0.962(3) 0.9045(9)
C7 C -0.34973(13) 0.8486(2) 0.83400(6)
H6 H -0.3666(19) 0.956(3) 0.8049(8)
C8 C -0.25584(12) 0.6779(2) 0.82041(6)
C9 C -0.16133(13) 0.7720(2) 0.71253(6)
C10 C -0.03324(15) 0.8113(2) 0.61163(6)
C11 C 0.0896(2) 0.6810(4) 0.58396(9)
H7 H 0.1753 0.6881 0.6132
H8 H 0.1147 0.7397 0.5417
H9 H 0.0585 0.5307 0.5790
C12 C 0.0186(2) 1.0383(4) 0.62703(10)
H10 H -0.0652 1.1277 0.6384
H11 H 0.0656 1.0997 0.5892
H12 H 0.0891 1.0341 0.6634
C13 C -0.1681(2) 0.8056(4) 0.56839(8)
H13 H -0.2000 0.6559 0.5625
H14 H -0.1457 0.8681 0.5263
H15 H -0.2462 0.8888 0.5882
C14 C -0.07120(14) 0.1518(2) 0.86272(6)
H16 H -0.134(2) 0.108(3) 0.8948(9)
H17 H -0.0713(19) 0.038(3) 0.8288(8)
C15 C 0.08357(13) 0.17225(19) 0.89290(5)
H18 H 0.1047(16) 0.043(3) 0.9151(7)
C16 C 0.14096(12) 0.5377(2) 0.93274(5)
C17 C 0.23104(15) 0.5763(2) 0.87391(6)
H19 H 0.180(2) 0.677(4) 0.8451(9)
H20 H 0.321(2) 0.641(4) 0.8892(9)
C18 C 0.19608(13) 0.1982(2) 0.84047(6)
C19 C 0.38762(13) 0.4068(2) 0.79204(6)
H21 H 0.468(2) 0.487(3) 0.8121(8)
H22 H 0.421(2) 0.269(3) 0.7842(9)
C20 C 0.33534(13) 0.5115(2) 0.72904(6)
H23 H 0.2554(18) 0.416(3) 0.7087(7)
H24 H 0.293(2) 0.651(4) 0.7393(9)
C21 C 0.46131(14) 0.5485(2) 0.68280(6)
H25 H 0.4223(19) 0.605(3) 0.6434(9)
H26 H 0.5252(19) 0.656(3) 0.7024(8)
C22 C 0.55019(13) 0.3462(2) 0.66782(6)
H27 H 0.6041(17) 0.296(3) 0.7091(8)
H28 H 0.622(2) 0.374(3) 0.6356(9)
C23 C 0.45946(15) 0.1606(2) 0.64105(6)
H29 H 0.385(2) 0.120(3) 0.6706(9)
H30 H 0.518(2) 0.048(4) 0.6335(9)
loop_
_geom_bond_atom_site_label_1
_geom_bond_atom_site_label_2
_geom_bond_site_symmetry_1
_geom_bond_site_symmetry_2
O1 C9 1_555 1_555
O2 C9 1_555 1_555
O3 C16 1_555 1_555
O4 C18 1_555 1_555
N1 C1 1_555 1_555
N2 H1 1_555 1_555
N3 C17 1_555 1_555
N4 N5 1_555 1_555
N5 N6 1_555 1_555
C1 H2 1_555 1_555
C2 C1 1_555 1_555
C3 C2 1_555 1_555
C4 C3 1_555 1_555
H3 C4 1_555 1_555
C5 C4 1_555 1_555
H4 C5 1_555 1_555
C6 C5 1_555 1_555
H5 C6 1_555 1_555
C7 C6 1_555 1_555
H6 C7 1_555 1_555
C8 N1 1_555 1_555
C9 N1 1_555 1_555
C10 O1 1_555 1_555
C11 C10 1_555 1_555
H7 C11 1_555 1_555
H8 C11 1_555 1_555
H9 C11 1_555 1_555
C12 C10 1_555 1_555
H10 C12 1_555 1_555
H11 C12 1_555 1_555
H12 C12 1_555 1_555
C13 C10 1_555 1_555
H13 C13 1_555 1_555
H14 C13 1_555 1_555
H15 C13 1_555 1_555
C14 C2 1_555 1_555
H16 C14 1_555 1_555
H17 C14 1_555 1_555
C15 N2 1_555 1_555
H18 C15 1_555 1_555
C16 N2 1_555 1_555
C17 C16 1_555 1_555
H19 C17 1_555 1_555
H20 C17 1_555 1_555
C18 N3 1_555 1_555
C19 N3 1_555 1_555
H21 C19 1_555 1_555
H22 C19 1_555 1_555
C20 C19 1_555 1_555
H23 C20 1_555 1_555
H24 C20 1_555 1_555
C21 C20 1_555 1_555
H25 C21 1_555 1_555
H26 C21 1_555 1_555
C22 C21 1_555 1_555
H27 C22 1_555 1_555
H28 C22 1_555 1_555
C23 N4 1_555 1_555
H29 C23 1_555 1_555
H30 C23 1_555 1_555
C3 C8 1_555 1_555
C7 C8 1_555 1_555
C14 C15 1_555 1_555
C15 C18 1_555 1_555
C22 C23 1_555 1_555

#END
