
#######################################################################
#
#                 Cambridge Crystallographic Data Centre
#                                CCDC 
#
#######################################################################
#
# If this CIF has been generated from an entry in the Cambridge 
# Structural Database, then it will include bibliographic, chemical, 
# crystal, experimental, refinement or atomic coordinate data resulting 
# from the CCDC's data processing and validation procedures.
#
#######################################################################

data_FIKWUT
_chemical_formula_moiety         'C19 H23 N3 O4,0.09(H2 O1)'
_chemical_name_systematic        
't-Butyl 3-((4-methyl-3,6-dioxopiperazin-2-yl)methyl)-1H-indole-1-carboxylate hydrate'
_symmetry_cell_setting           monoclinic
_symmetry_space_group_name_H-M   'P 21'
_symmetry_Int_Tables_number      4
_space_group_name_Hall           'P 2yb'
loop_
_symmetry_equiv_pos_site_id
_symmetry_equiv_pos_as_xyz
1 x,y,z
2 -x,1/2+y,-z
_cell_length_a                   6.35672(6)
_cell_length_b                   29.7545(3)
_cell_length_c                   9.98717(9)
_cell_angle_alpha                90
_cell_angle_beta                 96.7159(8)
_cell_angle_gamma                90
_cell_volume                     1876.02
_exptl_crystal_colour            colorless
_exptl_crystal_description       needle
_cell_formula_units_Z            4
loop_
_atom_site_label
_atom_site_type_symbol
_atom_site_fract_x
_atom_site_fract_y
_atom_site_fract_z
O1 O 0.68973(17) 0.47965(4) 0.35205(11)
O2 O 0.43288(18) 0.46512(4) 0.48690(12)
O3 O 0.52919(17) 0.67374(4) 0.67516(11)
O4 O 1.11463(17) 0.63339(4) 0.35285(11)
N1 N 0.70658(19) 0.51299(4) 0.55306(12)
N2 N 0.87425(19) 0.66583(4) 0.64618(12)
H1 H 0.906(3) 0.6770(7) 0.719(2)
N3 N 0.76831(19) 0.63654(4) 0.38454(12)
C1 C 0.8904(2) 0.53692(5) 0.53219(15)
H2 H 0.955(3) 0.5324(8) 0.457(2)
C2 C 0.9425(2) 0.56584(5) 0.63536(14)
C3 C 0.7866(2) 0.56027(5) 0.72860(14)
C4 C 0.7571(3) 0.58122(5) 0.85115(15)
H3 H 0.850(3) 0.6035(8) 0.887(2)
C5 C 0.5849(3) 0.56835(6) 0.91556(15)
H4 H 0.561(4) 0.5826(9) 0.998(3)
C6 C 0.4436(2) 0.53501(6) 0.86141(15)
H5 H 0.327(3) 0.5261(8) 0.906(2)
C7 C 0.4704(2) 0.51381(5) 0.74082(15)
H6 H 0.378(3) 0.4909(8) 0.706(2)
C8 C 0.6413(2) 0.52727(5) 0.67575(13)
C9 C 0.5932(2) 0.48333(5) 0.46287(15)
C10 C 0.5897(2) 0.45245(5) 0.23651(15)
C11 C 0.7430(3) 0.45885(7) 0.13195(18)
H7 H 0.7501 0.4908 0.1090
H8 H 0.6935 0.4416 0.0507
H9 H 0.8840 0.4483 0.1688
C12 C 0.3736(3) 0.47222(7) 0.18750(18)
H10 H 0.2765 0.4669 0.2552
H11 H 0.3176 0.4579 0.1024
H12 H 0.3875 0.5046 0.1734
C13 C 0.5805(3) 0.40358(6) 0.27730(17)
H13 H 0.7231 0.3932 0.3113
H14 H 0.5254 0.3855 0.1989
H15 H 0.4871 0.4004 0.3481
C14 C 1.1163(2) 0.60024(5) 0.64321(14)
H16 H 1.239(3) 0.5893(7) 0.598(2)
H17 H 1.170(3) 0.6055(7) 0.736(2)
C15 C 1.0409(2) 0.64553(5) 0.57776(14)
H18 H 1.162(3) 0.6651(7) 0.591(2)
C16 C 0.6687(2) 0.66060(5) 0.60889(14)
C17 C 0.6050(2) 0.63710(5) 0.47581(15)
H19 H 0.472(3) 0.6484(7) 0.429(2)
H20 H 0.567(3) 0.6068(8) 0.498(2)
C18 C 0.9758(2) 0.63831(5) 0.42818(15)
C19 C 0.7011(3) 0.62204(6) 0.24702(15)
H21 H 0.6951 0.5891 0.2438
H22 H 0.8025 0.6328 0.1876
H23 H 0.5606 0.6344 0.2171
O5 O 0.88989(17) 0.36611(4) 0.85009(11)
O6 O 1.15151(18) 0.37713(4) 1.02217(12)
O7 O 0.92944(17) 0.17514(4) 1.07648(11)
O8 O 0.25237(18) 0.25087(4) 0.79288(12)
N4 N 0.8593(2) 0.33499(4) 1.04996(13)
N5 N 0.57986(19) 0.19154(4) 1.05532(12)
H24 H 0.5581 0.1726 1.1200
N6 N 0.59313(19) 0.22765(4) 0.80204(12)
C20 C 0.6598(2) 0.31683(5) 1.00481(15)
H25 H 0.598(4) 0.3244(8) 0.925(3)
C21 C 0.5941(2) 0.28969(5) 1.10002(15)
C22 C 0.7600(2) 0.28973(5) 1.21307(15)
C23 C 0.7823(3) 0.26776(5) 1.33843(16)
H26 H 0.666(3) 0.2475(8) 1.363(2)
C24 C 0.9643(3) 0.27543(6) 1.42621(16)
H27 H 0.977(4) 0.2596(8) 1.510(2)
C25 C 1.1206(3) 0.30500(6) 1.39216(16)
H28 H 1.247(4) 0.3097(9) 1.450(3)
C26 C 1.1028(2) 0.32722(5) 1.26880(15)
H29 H 1.213(3) 0.3456(7) 1.246(2)
C27 C 0.9210(2) 0.31861(5) 1.18054(14)
C28 C 0.9843(2) 0.36161(5) 0.97560(15)
C29 C 0.9898(2) 0.39440(5) 0.75216(15)
C30 C 0.8371(3) 0.38866(7) 0.62439(17)
H30 H 0.8310 0.3569 0.5983
H31 H 0.8862 0.4066 0.5517
H32 H 0.6958 0.3988 0.6408
C31 C 1.2081(3) 0.37642(7) 0.73283(19)
H33 H 1.3078 0.3836 0.8123
H34 H 1.2564 0.3903 0.6528
H35 H 1.2007 0.3437 0.7209
C32 C 0.9938(3) 0.44293(6) 0.79987(18)
H36 H 0.8532 0.4513 0.8227
H37 H 1.0326 0.4626 0.7279
H38 H 1.0980 0.4462 0.8797
C33 C 0.3922(2) 0.26274(5) 1.08788(15)
H39 H 0.268(3) 0.2815(8) 1.054(2)
H40 H 0.360(3) 0.2534(7) 1.178(2)
C34 C 0.4038(2) 0.22012(5) 1.00110(15)
H41 H 0.273(3) 0.2021(7) 1.0067(19)
C35 C 0.7714(2) 0.19218(5) 1.01354(14)
C36 C 0.7914(2) 0.21335(5) 0.87823(15)
H42 H 0.854(4) 0.1897(8) 0.829(2)
H43 H 0.884(3) 0.2370(8) 0.886(2)
C37 C 0.4108(2) 0.23397(5) 0.85523(15)
C38 C 0.6120(3) 0.24457(6) 0.66670(16)
H44 H 0.6815 0.2740 0.6731
H45 H 0.4706 0.2475 0.6166
H46 H 0.6966 0.2236 0.6196
O9 O 0.2028(12) 0.5870(3) 0.1180(7)
H47 H 0.145(17) 0.594(5) 0.187(6)
H48 H 0.117(15) 0.595(5) 0.052(6)
loop_
_geom_bond_atom_site_label_1
_geom_bond_atom_site_label_2
_geom_bond_site_symmetry_1
_geom_bond_site_symmetry_2
O1 C9 1_555 1_555
O2 C9 1_555 1_555
O3 C16 1_555 1_555
O4 C18 1_555 1_555
N1 C1 1_555 1_555
N2 H1 1_555 1_555
N3 C17 1_555 1_555
C1 H2 1_555 1_555
C2 C1 1_555 1_555
C3 C2 1_555 1_555
C4 C3 1_555 1_555
H3 C4 1_555 1_555
C5 C4 1_555 1_555
H4 C5 1_555 1_555
C6 C5 1_555 1_555
H5 C6 1_555 1_555
C7 C6 1_555 1_555
H6 C7 1_555 1_555
C8 N1 1_555 1_555
C9 N1 1_555 1_555
C10 O1 1_555 1_555
C11 C10 1_555 1_555
H7 C11 1_555 1_555
H8 C11 1_555 1_555
H9 C11 1_555 1_555
C12 C10 1_555 1_555
H10 C12 1_555 1_555
H11 C12 1_555 1_555
H12 C12 1_555 1_555
C13 C10 1_555 1_555
H13 C13 1_555 1_555
H14 C13 1_555 1_555
H15 C13 1_555 1_555
C14 C2 1_555 1_555
H16 C14 1_555 1_555
H17 C14 1_555 1_555
C15 N2 1_555 1_555
H18 C15 1_555 1_555
C16 N2 1_555 1_555
C17 C16 1_555 1_555
H19 C17 1_555 1_555
H20 C17 1_555 1_555
C18 N3 1_555 1_555
C19 N3 1_555 1_555
H21 C19 1_555 1_555
H22 C19 1_555 1_555
H23 C19 1_555 1_555
O5 C28 1_555 1_555
O6 C28 1_555 1_555
O7 C35 1_555 1_555
O8 C37 1_555 1_555
N4 C20 1_555 1_555
N5 H24 1_555 1_555
N6 C36 1_555 1_555
C20 H25 1_555 1_555
C21 C20 1_555 1_555
C22 C21 1_555 1_555
C23 C22 1_555 1_555
H26 C23 1_555 1_555
C24 C23 1_555 1_555
H27 C24 1_555 1_555
C25 C24 1_555 1_555
H28 C25 1_555 1_555
C26 C25 1_555 1_555
H29 C26 1_555 1_555
C27 N4 1_555 1_555
C28 N4 1_555 1_555
C29 O5 1_555 1_555
C30 C29 1_555 1_555
H30 C30 1_555 1_555
H31 C30 1_555 1_555
H32 C30 1_555 1_555
C31 C29 1_555 1_555
H33 C31 1_555 1_555
H34 C31 1_555 1_555
H35 C31 1_555 1_555
C32 C29 1_555 1_555
H36 C32 1_555 1_555
H37 C32 1_555 1_555
H38 C32 1_555 1_555
C33 C21 1_555 1_555
H39 C33 1_555 1_555
H40 C33 1_555 1_555
C34 N5 1_555 1_555
H41 C34 1_555 1_555
C35 N5 1_555 1_555
C36 C35 1_555 1_555
H42 C36 1_555 1_555
H43 C36 1_555 1_555
C37 N6 1_555 1_555
C38 N6 1_555 1_555
H44 C38 1_555 1_555
H45 C38 1_555 1_555
H46 C38 1_555 1_555
O9 H47 1_555 1_555
H48 O9 1_555 1_555
C3 C8 1_555 1_555
C7 C8 1_555 1_555
C14 C15 1_555 1_555
C15 C18 1_555 1_555
C22 C27 1_555 1_555
C26 C27 1_555 1_555
C33 C34 1_555 1_555
C34 C37 1_555 1_555

#END
