
#######################################################################
#
#                 Cambridge Crystallographic Data Centre
#                                CCDC 
#
#######################################################################
#
# If this CIF has been generated from an entry in the Cambridge 
# Structural Database, then it will include bibliographic, chemical, 
# crystal, experimental, refinement or atomic coordinate data resulting 
# from the CCDC's data processing and validation procedures.
#
#######################################################################

data_FIKYIK
_chemical_formula_moiety         'C20 H17 Br1 F1 N1 O3'
_chemical_name_systematic        
'methyl 2-[(4-bromophenyl)(3-fluoro-1-methyl-2-oxo-2,3-dihydro-1H-indol-3-yl)methyl]prop-2-enoate'
_symmetry_cell_setting           orthorhombic
_symmetry_space_group_name_H-M   'P 21 21 21'
_symmetry_Int_Tables_number      19
_space_group_name_Hall           'P 2ac 2ab'
loop_
_symmetry_equiv_pos_site_id
_symmetry_equiv_pos_as_xyz
1 x,y,z
2 1/2-x,-y,1/2+z
3 -x,1/2+y,1/2-z
4 1/2+x,1/2-y,-z
_cell_length_a                   8.9759(10)
_cell_length_b                   10.8293(13)
_cell_length_c                   18.926(2)
_cell_angle_alpha                90
_cell_angle_beta                 90
_cell_angle_gamma                90
_cell_volume                     1839.66
_cell_formula_units_Z            4
loop_
_atom_site_label
_atom_site_type_symbol
_atom_site_fract_x
_atom_site_fract_y
_atom_site_fract_z
Br1 Br 0.46189(9) 0.28502(6) 1.00678(3)
C1 C 0.5403(5) 0.3135(4) 0.9153(2)
C2 C 0.5016(5) 0.4187(4) 0.8789(2)
H1 H 0.434449 0.476862 0.898821
C3 C 0.5622(5) 0.4379(4) 0.8131(2)
H2 H 0.536344 0.510530 0.787761
C4 C 0.6604(4) 0.3538(3) 0.7827(2)
C5 C 0.6955(4) 0.2488(4) 0.8213(2)
H3 H 0.761727 0.189734 0.801498
C6 C 0.6377(5) 0.2280(4) 0.8869(3)
H4 H 0.663856 0.155857 0.912635
C7 C 0.7329(4) 0.3754(3) 0.7113(2)
H5 H 0.829574 0.329708 0.713303
C8 C 0.7753(5) 0.5099(4) 0.7014(2)
C9 C 0.9097(5) 0.5536(4) 0.7410(2)
C10 C 1.1065(5) 0.4892(6) 0.8161(3)
H6 H 1.188445 0.503633 0.782845
H7 H 1.131043 0.418896 0.846548
H8 H 1.091558 0.562984 0.845178
C11 C 0.6476(4) 0.3182(3) 0.6492(2)
C12 C 0.7306(5) 0.3426(4) 0.5790(2)
C13 C 0.4856(4) 0.3875(3) 0.5605(2)
C14 C 0.4899(4) 0.3514(3) 0.6311(2)
C15 C 0.3597(4) 0.3406(4) 0.6692(2)
H9 H 0.361438 0.314315 0.717117
C16 C 0.2259(5) 0.3692(4) 0.6361(3)
H10 H 0.134953 0.362139 0.661482
C17 C 0.2242(5) 0.4074(4) 0.5671(3)
H11 H 0.131715 0.427632 0.545568
C18 C 0.3537(5) 0.4173(4) 0.5279(2)
H12 H 0.351515 0.443890 0.480101
C19 C 0.6669(6) 0.4172(5) 0.4594(3)
H13 H 0.770487 0.394674 0.449374
H14 H 0.654106 0.506420 0.453262
H15 H 0.600599 0.373230 0.426843
C20 C 0.7071(6) 0.5913(4) 0.6619(3)
H16 H 0.743376 0.673643 0.659392
H17 H 0.621272 0.568176 0.635654
F1 F 0.6536(3) 0.18945(19) 0.66076(14)
N1 N 0.6306(4) 0.3836(3) 0.53134(19)
O1 O 0.9566(4) 0.6565(3) 0.7403(2)
O2 O 0.9720(3) 0.4627(3) 0.77727(16)
O3 O 0.8631(3) 0.3261(3) 0.56969(19)
loop_
_geom_bond_atom_site_label_1
_geom_bond_atom_site_label_2
_geom_bond_site_symmetry_1
_geom_bond_site_symmetry_2
Br1 C1 1_555 1_555
C1 C2 1_555 1_555
C2 H1 1_555 1_555
C3 C2 1_555 1_555
H2 C3 1_555 1_555
C4 C3 1_555 1_555
C5 C4 1_555 1_555
H3 C5 1_555 1_555
C6 C1 1_555 1_555
H4 C6 1_555 1_555
C7 C4 1_555 1_555
H5 C7 1_555 1_555
C8 C7 1_555 1_555
C9 C8 1_555 1_555
C10 H6 1_555 1_555
H7 C10 1_555 1_555
H8 C10 1_555 1_555
C11 C7 1_555 1_555
C12 C11 1_555 1_555
C13 C14 1_555 1_555
C14 C11 1_555 1_555
C15 C14 1_555 1_555
H9 C15 1_555 1_555
C16 C15 1_555 1_555
H10 C16 1_555 1_555
C17 C16 1_555 1_555
H11 C17 1_555 1_555
C18 C13 1_555 1_555
H12 C18 1_555 1_555
C19 H13 1_555 1_555
H14 C19 1_555 1_555
H15 C19 1_555 1_555
C20 C8 1_555 1_555
H16 C20 1_555 1_555
H17 C20 1_555 1_555
F1 C11 1_555 1_555
N1 C12 1_555 1_555
O1 C9 1_555 1_555
O2 C9 1_555 1_555
O3 C12 1_555 1_555
C5 C6 1_555 1_555
C10 O2 1_555 1_555
C13 N1 1_555 1_555
C17 C18 1_555 1_555
C19 N1 1_555 1_555

#END
