
#######################################################################
#
#                 Cambridge Crystallographic Data Centre
#                                CCDC 
#
#######################################################################
#
# If this CIF has been generated from an entry in the Cambridge 
# Structural Database, then it will include bibliographic, chemical, 
# crystal, experimental, refinement or atomic coordinate data resulting 
# from the CCDC's data processing and validation procedures.
#
#######################################################################

data_FILWUV
_chemical_formula_moiety         'C28 H12 Br4 N2'
_chemical_name_systematic        
2,7,11,16-tetrabromotetrabenzo[a,c,h,j]phenazine
_symmetry_cell_setting           monoclinic
_symmetry_space_group_name_H-M   'P 21/n'
_symmetry_Int_Tables_number      14
_space_group_name_Hall           '-P 2yn'
loop_
_symmetry_equiv_pos_site_id
_symmetry_equiv_pos_as_xyz
1 x,y,z
2 1/2-x,1/2+y,1/2-z
3 -x,-y,-z
4 1/2+x,1/2-y,1/2+z
_cell_length_a                   3.9742(2)
_cell_length_b                   19.4868(11)
_cell_length_c                   14.9127(7)
_cell_angle_alpha                90
_cell_angle_beta                 92.426(3)
_cell_angle_gamma                90
_cell_volume                     1153.87
_exptl_crystal_colour            yellow
_exptl_crystal_description       'prism frag'
_cell_formula_units_Z            2
loop_
_atom_site_label
_atom_site_type_symbol
_atom_site_fract_x
_atom_site_fract_y
_atom_site_fract_z
Br1 Br 1.24644(14) 0.21113(3) 0.42259(3)
Br2 Br 0.60828(14) 0.59231(3) 0.91843(3)
N1 N 0.5816(10) 0.4508(2) 0.4360(3)
C1 C 0.6881(13) 0.4442(3) 0.5220(3)
C2 C 0.6020(13) 0.4945(3) 0.5872(3)
C3 C 0.7218(12) 0.4858(2) 0.6803(3)
C4 C 0.6370(13) 0.5359(3) 0.7434(3)
H1 H 0.5127 0.5754 0.7250
C5 C 0.7369(13) 0.5268(3) 0.8324(3)
C6 C 0.9264(12) 0.4699(3) 0.8604(3)
H2 H 0.9949 0.4644 0.9218
C7 C 1.0135(12) 0.4215(3) 0.7975(3)
H3 H 1.1455 0.3830 0.8163
C8 C 0.9114(12) 0.4279(3) 0.7070(3)
C9 C 0.9969(13) 0.3755(3) 0.6397(3)
C10 C 1.1816(13) 0.3161(3) 0.6627(3)
H4 H 1.2590 0.3095 0.7232
C11 C 1.2533(14) 0.2671(3) 0.5990(3)
H5 H 1.3744 0.2267 0.6154
C12 C 1.1439(13) 0.2784(3) 0.5100(3)
C13 C 0.9616(13) 0.3351(3) 0.4839(3)
H6 H 0.8875 0.3410 0.4230
C14 C 0.8858(12) 0.3847(3) 0.5487(3)
Br1B Br -0.24644(14) 0.78887(3) 0.57741(3)
Br2B Br 0.39172(14) 0.40769(3) 0.08157(3)
N1B N 0.4184(10) 0.5492(2) 0.5640(3)
C1B C 0.3119(13) 0.5558(3) 0.4780(3)
C2B C 0.3980(13) 0.5055(3) 0.4128(3)
C3B C 0.2782(12) 0.5142(2) 0.3197(3)
C4B C 0.3630(13) 0.4641(3) 0.2566(3)
H1B H 0.4873 0.4246 0.2750
C5B C 0.2631(13) 0.4732(3) 0.1676(3)
C6B C 0.0736(12) 0.5301(3) 0.1396(3)
H2B H 0.0051 0.5356 0.0782
C7B C -0.0135(12) 0.5785(3) 0.2025(3)
H3B H -0.1455 0.6170 0.1837
C8B C 0.0886(12) 0.5721(3) 0.2930(3)
C9B C 0.0031(13) 0.6245(3) 0.3603(3)
C10B C -0.1816(13) 0.6839(3) 0.3373(3)
H4B H -0.2590 0.6905 0.2768
C11B C -0.2533(14) 0.7329(3) 0.4010(3)
H5B H -0.3744 0.7733 0.3846
C12B C -0.1439(13) 0.7216(3) 0.4900(3)
C13B C 0.0384(13) 0.6649(3) 0.5161(3)
H6B H 0.1125 0.6590 0.5770
C14B C 0.1142(12) 0.6153(3) 0.4513(3)
loop_
_geom_bond_atom_site_label_1
_geom_bond_atom_site_label_2
_geom_bond_site_symmetry_1
_geom_bond_site_symmetry_2
Br1 C12 1_555 1_555
Br2 C5 1_555 1_555
N1 C1 1_555 1_555
C1 C2 1_555 1_555
C2 C3 1_555 1_555
C3 C4 1_555 1_555
C4 H1 1_555 1_555
C5 C4 1_555 1_555
C6 C5 1_555 1_555
H2 C6 1_555 1_555
C7 C6 1_555 1_555
H3 C7 1_555 1_555
C8 C3 1_555 1_555
C9 C8 1_555 1_555
C10 C9 1_555 1_555
H4 C10 1_555 1_555
C11 C10 1_555 1_555
H5 C11 1_555 1_555
C12 C11 1_555 1_555
C13 C12 1_555 1_555
H6 C13 1_555 1_555
C14 C1 1_555 1_555
Br1B C12B 1_555 1_555
Br2B C5B 1_555 1_555
N1B C2 1_555 1_555
C1B N1B 1_555 1_555
C2B N1 1_555 1_555
C3B C2B 1_555 1_555
C4B C3B 1_555 1_555
H1B C4B 1_555 1_555
C5B C4B 1_555 1_555
C6B C5B 1_555 1_555
H2B C6B 1_555 1_555
C7B C6B 1_555 1_555
H3B C7B 1_555 1_555
C8B C3B 1_555 1_555
C9B C8B 1_555 1_555
C10B C9B 1_555 1_555
H4B C10B 1_555 1_555
C11B C10B 1_555 1_555
H5B C11B 1_555 1_555
C12B C11B 1_555 1_555
C13B C12B 1_555 1_555
H6B C13B 1_555 1_555
C14B C1B 1_555 1_555
C7 C8 1_555 1_555
C9 C14 1_555 1_555
C13 C14 1_555 1_555
C1B C2B 1_555 1_555
C7B C8B 1_555 1_555
C9B C14B 1_555 1_555
C13B C14B 1_555 1_555

#END
