
#######################################################################
#
#                 Cambridge Crystallographic Data Centre
#                                CCDC 
#
#######################################################################
#
# If this CIF has been generated from an entry in the Cambridge 
# Structural Database, then it will include bibliographic, chemical, 
# crystal, experimental, refinement or atomic coordinate data resulting 
# from the CCDC's data processing and validation procedures.
#
#######################################################################

data_FILXAC
_chemical_formula_moiety         'C34 H14 Br4 N4'
_chemical_name_systematic        
3,6,14,17-tetrabromodibenzo[a,c]dibenzo[5,6:7,8]quinoxalino[2,3-i]phenazine
_symmetry_cell_setting           triclinic
_symmetry_space_group_name_H-M   'P -1'
_symmetry_Int_Tables_number      2
_space_group_name_Hall           '-P 1'
loop_
_symmetry_equiv_pos_site_id
_symmetry_equiv_pos_as_xyz
1 x,y,z
2 -x,-y,-z
_cell_length_a                   3.8581(2)
_cell_length_b                   10.5438(6)
_cell_length_c                   16.1258(9)
_cell_angle_alpha                96.687(3)
_cell_angle_beta                 96.766(2)
_cell_angle_gamma                95.701(2)
_cell_volume                     642.717
_exptl_crystal_colour            red
_exptl_crystal_description       'thin plate'
_cell_formula_units_Z            1
loop_
_atom_site_label
_atom_site_type_symbol
_atom_site_fract_x
_atom_site_fract_y
_atom_site_fract_z
Br1 Br 0.96765(8) 0.24264(3) 0.74926(2)
Br2 Br 0.26156(9) 0.74932(3) 1.04409(2)
N1 N 0.5910(7) 1.0426(2) 0.33726(15)
N2 N 0.6466(7) 0.7664(2) 0.55087(15)
C1 C 0.5168(8) 1.1538(3) 0.31446(19)
C2 C 0.5455(8) 1.0221(3) 0.41756(19)
C3 C 0.6166(8) 0.9049(3) 0.44402(19)
H1 H 0.6941 0.8408 0.4063
C4 C 0.5738(8) 0.8819(3) 0.52560(19)
C5 C 0.6025(8) 0.7490(3) 0.62903(18)
C6 C 0.6785(8) 0.6271(3) 0.65842(19)
C7 C 0.7915(8) 0.5318(3) 0.60312(19)
H2 H 0.8131 0.5469 0.5469
C8 C 0.8719(8) 0.4164(3) 0.62848(19)
H3 H 0.9464 0.3520 0.5905
C9 C 0.8407(8) 0.3973(3) 0.7113(2)
C10 C 0.7264(8) 0.4885(3) 0.76703(19)
H4 H 0.7060 0.4722 0.8231
C11 C 0.6402(8) 0.6053(3) 0.74128(19)
C12 C 0.5135(8) 0.7040(3) 0.79904(19)
C13 C 0.4402(8) 0.8223(3) 0.77170(19)
C14 C 0.3268(8) 0.9171(3) 0.82690(19)
H5 H 0.2825 0.9969 0.8083
C15 C 0.2784(8) 0.8967(3) 0.9077(2)
H6 H 0.2013 0.9615 0.9450
C16 C 0.3448(8) 0.7791(3) 0.93367(19)
C17 C 0.4612(8) 0.6848(3) 0.88157(19)
H7 H 0.5067 0.6059 0.9014
Br1A Br 0.03235(8) 1.75736(3) 0.25074(2)
Br2A Br 0.73844(9) 1.25068(3) -0.04409(2)
N1A N 0.4090(7) 0.9574(2) 0.66274(15)
N2A N 0.3534(7) 1.2336(2) 0.44913(15)
C1A C 0.4832(8) 0.8462(3) 0.68554(19)
C2A C 0.4545(8) 0.9779(3) 0.58244(19)
C3A C 0.3834(8) 1.0951(3) 0.55598(19)
H1A H 0.3059 1.1592 0.5937
C4A C 0.4262(8) 1.1181(3) 0.47440(19)
C5A C 0.3975(8) 1.2510(3) 0.37097(18)
C6A C 0.3215(8) 1.3729(3) 0.34158(19)
C7A C 0.2085(8) 1.4682(3) 0.39688(19)
H2A H 0.1869 1.4531 0.4531
C8A C 0.1281(8) 1.5836(3) 0.37152(19)
H3A H 0.0536 1.6480 0.4095
C9A C 0.1593(8) 1.6027(3) 0.2887(2)
C10A C 0.2736(8) 1.5115(3) 0.23297(19)
H4A H 0.2940 1.5278 0.1769
C11A C 0.3598(8) 1.3947(3) 0.25872(19)
C12A C 0.4865(8) 1.2960(3) 0.20096(19)
C13A C 0.5598(8) 1.1777(3) 0.22830(19)
C14A C 0.6732(8) 1.0829(3) 0.17310(19)
H5A H 0.7175 1.0031 0.1917
C15A C 0.7216(8) 1.1033(3) 0.0923(2)
H6A H 0.7987 1.0385 0.0550
C16A C 0.6552(8) 1.2209(3) 0.06633(19)
C17A C 0.5388(8) 1.3152(3) 0.11843(19)
H7A H 0.4933 1.3941 0.0986
loop_
_geom_bond_atom_site_label_1
_geom_bond_atom_site_label_2
_geom_bond_site_symmetry_1
_geom_bond_site_symmetry_2
Br1 C9 1_555 1_555
Br2 C16 1_555 1_555
N1 C1 1_555 1_555
N2 C4 1_555 1_555
C1 C5A 1_555 1_555
C2 N1 1_555 1_555
C3 C2 1_555 1_555
H1 C3 1_555 1_555
C4 C3 1_555 1_555
C5 N2 1_555 1_555
C6 C5 1_555 1_555
C7 C6 1_555 1_555
H2 C7 1_555 1_555
C8 C7 1_555 1_555
H3 C8 1_555 1_555
C9 C8 1_555 1_555
C10 C9 1_555 1_555
H4 C10 1_555 1_555
C11 C6 1_555 1_555
C12 C11 1_555 1_555
C13 C12 1_555 1_555
C14 C13 1_555 1_555
H5 C14 1_555 1_555
C15 C14 1_555 1_555
H6 C15 1_555 1_555
C16 C15 1_555 1_555
C17 C12 1_555 1_555
H7 C17 1_555 1_555
Br1A C9A 1_555 1_555
Br2A C16A 1_555 1_555
N1A C1A 1_555 1_555
N2A C4A 1_555 1_555
C1A C5 1_555 1_555
C2A C4 1_555 1_555
C3A C2A 1_555 1_555
H1A C3A 1_555 1_555
C4A C2 1_555 1_555
C5A N2A 1_555 1_555
C6A C5A 1_555 1_555
C7A C6A 1_555 1_555
H2A C7A 1_555 1_555
C8A C7A 1_555 1_555
H3A C8A 1_555 1_555
C9A C8A 1_555 1_555
C10A C9A 1_555 1_555
H4A C10A 1_555 1_555
C11A C6A 1_555 1_555
C12A C11A 1_555 1_555
C13A C1 1_555 1_555
C14A C13A 1_555 1_555
H5A C14A 1_555 1_555
C15A C14A 1_555 1_555
H6A C15A 1_555 1_555
C16A C15A 1_555 1_555
C17A C12A 1_555 1_555
H7A C17A 1_555 1_555
C10 C11 1_555 1_555
C13 C1A 1_555 1_555
C16 C17 1_555 1_555
N1A C2A 1_555 1_555
C3A C4A 1_555 1_555
C10A C11A 1_555 1_555
C12A C13A 1_555 1_555
C16A C17A 1_555 1_555

#END
