
#######################################################################
#
#                 Cambridge Crystallographic Data Centre
#                                CCDC 
#
#######################################################################
#
# If this CIF has been generated from an entry in the Cambridge 
# Structural Database, then it will include bibliographic, chemical, 
# crystal, experimental, refinement or atomic coordinate data resulting 
# from the CCDC's data processing and validation procedures.
#
#######################################################################

data_FIMQIC
_chemical_formula_moiety         'C27 H32 N2 O3 S1'
_chemical_name_systematic        
N,N-Di-isopropyl-N'-(p-toluenesulfonyl)-2-(4-(phenoxy)phenyl)acetamidine
_symmetry_cell_setting           monoclinic
_symmetry_space_group_name_H-M   'P 21/a'
_symmetry_Int_Tables_number      14
_space_group_name_Hall           '-P 2yab'
loop_
_symmetry_equiv_pos_site_id
_symmetry_equiv_pos_as_xyz
1 x,y,z
2 1/2-x,1/2+y,-z
3 -x,-y,-z
4 1/2+x,1/2-y,z
_cell_length_a                   14.971(5)
_cell_length_b                   8.349(3)
_cell_length_c                   21.008(7)
_cell_angle_alpha                90.00
_cell_angle_beta                 98.835(7)
_cell_angle_gamma                90.00
_cell_volume                     2594.69
_cell_formula_units_Z            4
loop_
_atom_site_label
_atom_site_type_symbol
_atom_site_fract_x
_atom_site_fract_y
_atom_site_fract_z
S1 S 0.94854(7) 0.35816(10) 0.32527(5)
O1 O 0.89928(19) 0.4155(3) 0.26499(13)
O2 O 1.02660(16) 0.4523(3) 0.35189(15)
N1 N 1.04334(16) -0.0438(3) 0.28548(13)
O3 O 0.92310(17) 0.2729(3) -0.02392(12)
N2 N 0.97206(18) 0.1718(3) 0.31985(13)
C1 C 0.6918(6) 0.3442(9) 0.5221(4)
C2 C 0.7554(3) 0.3440(5) 0.4734(2)
C3 C 0.8407(4) 0.4099(7) 0.4859(3)
C4 C 0.8991(3) 0.4140(5) 0.4435(2)
C5 C 0.8748(2) 0.3481(4) 0.38195(17)
C6 C 0.7887(3) 0.2794(5) 0.3682(2)
C7 C 0.7329(4) 0.2802(6) 0.4117(3)
C8 C 1.0294(2) 0.1160(4) 0.28404(16)
C9 C 1.0042(2) -0.1481(4) 0.33117(19)
C10 C 0.9024(2) -0.1633(4) 0.3166(2)
H1 H 0.8849 -0.1908 0.2721
H2 H 0.8752 -0.0632 0.3253
H3 H 0.8827 -0.2455 0.3432
C11 C 1.0360(3) -0.1053(5) 0.40202(18)
H4 H 1.1007 -0.0977 0.4097
H5 H 1.0169 -0.1871 0.4291
H6 H 1.0103 -0.0045 0.4116
C12 C 1.0983(2) -0.1247(4) 0.24308(18)
H7 H 1.1140 -0.0436 0.2130
C13 C 1.0454(3) -0.2538(4) 0.2026(2)
H8 H 0.9911 -0.2084 0.1794
H9 H 1.0301 -0.3378 0.2302
H10 H 1.0816 -0.2968 0.1727
C14 C 1.1865(2) -0.1884(5) 0.2788(2)
H11 H 1.2189 -0.1032 0.3029
H12 H 1.2222 -0.2308 0.2485
H13 H 1.1743 -0.2717 0.3078
C15 C 1.0764(2) 0.2195(4) 0.24141(16)
H14 H 1.1377 0.1802 0.2430
H15 H 1.0803 0.3271 0.2590
C16 C 1.0321(2) 0.2288(4) 0.17007(17)
C17 C 0.9503(2) 0.1559(4) 0.14723(19)
C18 C 0.9119(3) 0.1666(4) 0.08204(18)
C19 C 0.9533(2) 0.2547(4) 0.04196(18)
C20 C 1.0349(3) 0.3314(4) 0.0633(2)
C21 C 1.0714(3) 0.3186(4) 0.1279(2)
C22 C 0.8373(3) 0.2078(5) -0.04928(18)
C23 C 0.7608(4) 0.2876(6) -0.0453(3)
C24 C 0.6781(3) 0.2279(6) -0.0752(2)
C25 C 0.6766(4) 0.0851(6) -0.1089(2)
C26 C 0.7540(4) 0.0066(6) -0.1119(2)
C27 C 0.8363(3) 0.0636(5) -0.0813(2)
H16 H 1.0299(16) -0.254(3) 0.3166(12)
H17 H 0.9203(15) 0.100(3) 0.1761(12)
H18 H 0.850(2) 0.122(4) 0.0699(15)
H19 H 0.712(3) 0.288(6) 0.569(3)
H20 H 0.784(2) 0.235(5) 0.326(2)
H21 H 1.0641(18) 0.386(4) 0.0316(15)
H22 H 0.888(2) 0.010(4) -0.0834(17)
H23 H 0.961(3) 0.458(5) 0.4429(19)
H24 H 1.119(2) 0.359(5) 0.134(2)
H25 H 0.618(2) 0.289(4) -0.0716(16)
H26 H 0.685(2) 0.236(4) 0.4027(16)
H27 H 0.751(2) -0.087(5) -0.137(2)
H28 H 0.626(2) 0.056(5) -0.1283(19)
H29 H 0.677(3) 0.453(6) 0.540(2)
H30 H 0.766(3) 0.370(5) -0.028(2)
H31 H 0.851(3) 0.441(5) 0.5174(18)
H32 H 0.636(3) 0.290(6) 0.510(3)
loop_
_geom_bond_atom_site_label_1
_geom_bond_atom_site_label_2
_geom_bond_site_symmetry_1
_geom_bond_site_symmetry_2
S1 O1 1_555 1_555
O2 S1 1_555 1_555
N1 C8 1_555 1_555
O3 C19 1_555 1_555
N2 S1 1_555 1_555
C1 C2 1_555 1_555
C2 C3 1_555 1_555
C3 C4 1_555 1_555
C4 C5 1_555 1_555
C5 S1 1_555 1_555
C6 C5 1_555 1_555
C7 C2 1_555 1_555
C8 N2 1_555 1_555
C9 N1 1_555 1_555
C10 C9 1_555 1_555
H1 C10 1_555 1_555
H2 C10 1_555 1_555
H3 C10 1_555 1_555
C11 C9 1_555 1_555
H4 C11 1_555 1_555
H5 C11 1_555 1_555
H6 C11 1_555 1_555
C12 N1 1_555 1_555
H7 C12 1_555 1_555
C13 C12 1_555 1_555
H8 C13 1_555 1_555
H9 C13 1_555 1_555
H10 C13 1_555 1_555
C14 C12 1_555 1_555
H11 C14 1_555 1_555
H12 C14 1_555 1_555
H13 C14 1_555 1_555
C15 C8 1_555 1_555
H14 C15 1_555 1_555
H15 C15 1_555 1_555
C16 C15 1_555 1_555
C17 C16 1_555 1_555
C18 C17 1_555 1_555
C19 C18 1_555 1_555
C20 C19 1_555 1_555
C21 C16 1_555 1_555
C22 O3 1_555 1_555
C23 C22 1_555 1_555
C24 C23 1_555 1_555
C25 C24 1_555 1_555
C26 C25 1_555 1_555
C27 C22 1_555 1_555
H16 C9 1_555 1_555
H17 C17 1_555 1_555
H18 C18 1_555 1_555
H19 C1 1_555 1_555
H20 C6 1_555 1_555
H21 C20 1_555 1_555
H22 C27 1_555 1_555
H23 C4 1_555 1_555
H24 C21 1_555 1_555
H25 C24 1_555 1_555
H26 C7 1_555 1_555
H27 C26 1_555 1_555
H28 C25 1_555 1_555
H29 C1 1_555 1_555
H30 C23 1_555 1_555
H31 C3 1_555 1_555
H32 C1 1_555 1_555
C6 C7 1_555 1_555
C20 C21 1_555 1_555
C26 C27 1_555 1_555

#END
