
#######################################################################
#
#                 Cambridge Crystallographic Data Centre
#                                CCDC 
#
#######################################################################
#
# If this CIF has been generated from an entry in the Cambridge 
# Structural Database, then it will include bibliographic, chemical, 
# crystal, experimental, refinement or atomic coordinate data resulting 
# from the CCDC's data processing and validation procedures.
#
#######################################################################

data_FIMROI
_chemical_compound_source        'Heartwood of Yew, Taxus mairei'
_chemical_name_common            Taiwanxan
_chemical_formula_moiety         'C31 H46 O9'
_chemical_name_systematic        
Taxa-4(20),11-diene-2\a,5\a,9\a,10\b,14\b-pentol-2\a,9\a,10\b-triacetate-14\b-\a-methylbutyrate
_symmetry_cell_setting           orthorhombic
_symmetry_space_group_name_H-M   'P 21 21 21'
_symmetry_Int_Tables_number      19
_space_group_name_Hall           'P 2ac 2ab'
loop_
_symmetry_equiv_pos_site_id
_symmetry_equiv_pos_as_xyz
1 x,y,z
2 1/2+x,1/2-y,-z
3 -x,1/2+y,1/2-z
4 1/2-x,-y,1/2+z
_cell_length_a                   12.036(2)
_cell_length_b                   12.970(2)
_cell_length_c                   19.550(4)
_cell_angle_alpha                90
_cell_angle_beta                 90
_cell_angle_gamma                90
_cell_volume                     3051.89
_exptl_crystal_colour            colorless
_chemical_melting_point          500-503K
_cell_formula_units_Z            4
loop_
_atom_site_label
_atom_site_type_symbol
_atom_site_fract_x
_atom_site_fract_y
_atom_site_fract_z
C1 C 0.3029(6) -0.2386(6) 0.2777(4)
C2 C 0.3511(6) -0.1293(6) 0.2715(4)
C3 C 0.2722(7) -0.0386(6) 0.2878(4)
C4 C 0.3135(7) 0.0462(6) 0.3353(4)
C5 C 0.2214(8) 0.1063(7) 0.3672(4)
C6 C 0.1592(8) 0.1599(7) 0.3110(4)
C7 C 0.1236(8) 0.0871(6) 0.2520(4)
C8 C 0.2231(7) 0.0225(6) 0.2239(4)
C9 C 0.1799(7) -0.0452(7) 0.1643(4)
C10 C 0.0857(7) -0.1232(6) 0.1777(4)
C11 C 0.1197(7) -0.2019(6) 0.2289(4)
C12 C 0.0704(7) -0.2021(6) 0.2910(4)
C13 C 0.1248(8) -0.2555(7) 0.3517(4)
C14 C 0.2522(6) -0.2561(7) 0.3476(4)
C15 C 0.4186(9) 0.0808(8) 0.3438(5)
C16 C 0.2240(6) -0.2693(6) 0.2188(4)
C17 C 0.1879(8) -0.3843(7) 0.2264(4)
C18 C 0.2834(8) -0.2660(7) 0.1496(4)
C19 C 0.3110(8) 0.0918(7) 0.1920(4)
C20 C -0.0352(7) -0.1463(7) 0.3099(4)
C21 C 0.1660(8) 0.0241(8) 0.0499(4)
C22 C 0.0977(11) 0.1002(8) 0.0064(5)
C23 C -0.0348(9) -0.1526(8) 0.0827(5)
C24 C -0.0472(10) -0.2121(9) 0.0190(5)
C25 C 0.5434(7) -0.1437(8) 0.2959(5)
C26 C 0.6277(9) -0.1362(9) 0.3523(6)
C27 C 0.2826(8) -0.3777(8) 0.4374(5)
C28 C 0.3124(11) -0.5191(10) 0.5232(6)
C29 C 0.3358(8) -0.4814(8) 0.4522(5)
C30 C 0.4548(10) -0.4834(9) 0.4351(6)
C31 C 0.5120(11) -0.3935(14) 0.4731(8)
O1 O 0.1468(5) 0.0444(5) 0.4035(3)
O2 O 0.2395(6) -0.0288(6) 0.0299(3)
O3 O 0.1278(5) 0.0259(4) 0.1150(2)
O4 O -0.1023(7) -0.0957(6) 0.1064(4)
O5 O 0.0621(5) -0.1729(4) 0.1125(3)
O6 O 0.2390(6) -0.3221(6) 0.4770(3)
O7 O 0.2919(5) -0.3565(5) 0.3700(3)
O8 O 0.5652(6) -0.1586(8) 0.2380(4)
O9 O 0.4431(4) -0.1283(5) 0.3207(3)
H1 H 0.1415 -0.0054 0.4057
H2 H 0.4417 0.1157 0.3926
H3 H 0.4797 0.0804 0.3031
H4 H 0.2570 0.1656 0.4016
H5 H 0.0861 0.1983 0.3330
H6 H 0.2114 0.2221 0.2892
H7 H 0.0562 0.0390 0.2689
H8 H 0.0988 0.1379 0.2101
H9 H 0.2754 0.1210 0.1445
H10 H 0.3864 0.0492 0.1821
H11 H 0.3247 0.1526 0.2282
H12 H 0.2514 -0.0844 0.1408
H13 H 0.0143 -0.0802 0.1952
H14 H -0.0932 -0.1524 0.2685
H15 H -0.0172 -0.0652 0.3193
H16 H -0.0702 -0.1794 0.3556
H17 H 0.0940 -0.2200 0.3988
H18 H 0.0953 -0.3350 0.3509
H19 H 0.2844 -0.1979 0.3825
H20 H 0.3727 -0.2914 0.2739
H21 H 0.1502 -0.3916 0.2770
H22 H 0.2528 -0.4380 0.2184
H23 H 0.1251 -0.3927 0.1879
H24 H 0.3391 -0.1985 0.1553
H25 H 0.2281 -0.2540 0.1075
H26 H 0.3341 -0.3339 0.1401
H27 H 0.3826 -0.1166 0.2189
H28 H 0.1977 -0.0709 0.3128
H29 H 0.1087 0.0953 -0.0487
H30 H 0.0140 0.0789 0.0183
H31 H 0.1076 0.1817 0.0209
H32 H 0.0140 -0.2762 0.0212
H33 H -0.0231 -0.1591 -0.0215
H34 H -0.1285 -0.2418 0.0094
H35 H 0.5981 -0.1907 0.3907
H36 H 0.6317 -0.0598 0.3719
H37 H 0.7085 -0.1598 0.3334
H38 H 0.2330 -0.4913 0.5403
H39 H 0.3781 -0.4943 0.5556
H40 H 0.3111 -0.6037 0.5217
H41 H 0.2999 -0.5418 0.4168
H42 H 0.4788 -0.4675 0.3813
H43 H 0.5045 -0.5531 0.4495
H44 H 0.4581 -0.3683 0.5108
H45 H 0.5217 -0.3249 0.4336
H46 H 0.5951 -0.4085 0.4884
loop_
_geom_bond_atom_site_label_1
_geom_bond_atom_site_label_2
_geom_bond_site_symmetry_1
_geom_bond_site_symmetry_2
C1 C2 1_555 1_555
C2 C3 1_555 1_555
C3 C4 1_555 1_555
C4 C5 1_555 1_555
C5 C6 1_555 1_555
C6 C7 1_555 1_555
C7 C8 1_555 1_555
C8 C3 1_555 1_555
C9 C8 1_555 1_555
C10 C9 1_555 1_555
C11 C10 1_555 1_555
C12 C11 1_555 1_555
C13 C12 1_555 1_555
C14 C1 1_555 1_555
C15 C4 1_555 1_555
C16 C1 1_555 1_555
C17 C16 1_555 1_555
C18 C16 1_555 1_555
C19 C8 1_555 1_555
C20 C12 1_555 1_555
C21 C22 1_555 1_555
C22 H29 1_555 1_555
C23 C24 1_555 1_555
C24 H32 1_555 1_555
C25 C26 1_555 1_555
C26 H35 1_555 1_555
C27 C29 1_555 1_555
C28 C29 1_555 1_555
C29 C30 1_555 1_555
C30 C31 1_555 1_555
C31 H44 1_555 1_555
O1 C5 1_555 1_555
O2 C21 1_555 1_555
O3 C9 1_555 1_555
O4 C23 1_555 1_555
O5 C10 1_555 1_555
O6 C27 1_555 1_555
O7 C14 1_555 1_555
O8 C25 1_555 1_555
O9 C2 1_555 1_555
H1 O1 1_555 1_555
H2 C15 1_555 1_555
H3 C15 1_555 1_555
H4 C5 1_555 1_555
H5 C6 1_555 1_555
H6 C6 1_555 1_555
H7 C7 1_555 1_555
H8 C7 1_555 1_555
H9 C19 1_555 1_555
H10 C19 1_555 1_555
H11 C19 1_555 1_555
H12 C9 1_555 1_555
H13 C10 1_555 1_555
H14 C20 1_555 1_555
H15 C20 1_555 1_555
H16 C20 1_555 1_555
H17 C13 1_555 1_555
H18 C13 1_555 1_555
H19 C14 1_555 1_555
H20 C1 1_555 1_555
H21 C17 1_555 1_555
H22 C17 1_555 1_555
H23 C17 1_555 1_555
H24 C18 1_555 1_555
H25 C18 1_555 1_555
H26 C18 1_555 1_555
H27 C2 1_555 1_555
H28 C3 1_555 1_555
H30 C22 1_555 1_555
H31 C22 1_555 1_555
H33 C24 1_555 1_555
H34 C24 1_555 1_555
H36 C26 1_555 1_555
H37 C26 1_555 1_555
H38 C28 1_555 1_555
H39 C28 1_555 1_555
H40 C28 1_555 1_555
H41 C29 1_555 1_555
H42 C30 1_555 1_555
H43 C30 1_555 1_555
H45 C31 1_555 1_555
H46 C31 1_555 1_555
C11 C16 1_555 1_555
C13 C14 1_555 1_555
C21 O3 1_555 1_555
C23 O5 1_555 1_555
C25 O9 1_555 1_555
C27 O7 1_555 1_555

#END
