
#######################################################################
#
#                 Cambridge Crystallographic Data Centre
#                                CCDC 
#
#######################################################################
#
# If this CIF has been generated from an entry in the Cambridge 
# Structural Database, then it will include bibliographic, chemical, 
# crystal, experimental, refinement or atomic coordinate data resulting 
# from the CCDC's data processing and validation procedures.
#
#######################################################################

data_FIMZEJ
_chemical_formula_moiety         'C14 H11 Br1 F3 N1 O2'
_chemical_name_systematic        
'ethyl 2-(4-bromophenyl)-1-cyano-2-(trifluoromethyl)cyclopropane-1-carboxylate'
_symmetry_cell_setting           triclinic
_symmetry_space_group_name_H-M   'P 1'
_symmetry_Int_Tables_number      1
_space_group_name_Hall           'P 1'
loop_
_symmetry_equiv_pos_site_id
_symmetry_equiv_pos_as_xyz
1 x,y,z
_cell_length_a                   6.050(4)
_cell_length_b                   7.181(5)
_cell_length_c                   9.232(6)
_cell_angle_alpha                97.737(10)
_cell_angle_beta                 90.909(11)
_cell_angle_gamma                108.243(11)
_cell_volume                     376.74
_exptl_crystal_colour            colorless
_exptl_crystal_description       prism
_cell_formula_units_Z            1
loop_
_atom_site_label
_atom_site_type_symbol
_atom_site_fract_x
_atom_site_fract_y
_atom_site_fract_z
C1 C 0.7612(11) 0.5695(9) 0.3159(7)
H1 H 0.8719 0.5039 0.3092
C2 C 0.7379(11) 0.6796(9) 0.2083(7)
H2 H 0.8347 0.6915 0.1304
C3 C 0.5671(12) 0.7723(8) 0.2185(6)
C4 C 0.4251(13) 0.7561(8) 0.3318(7)
H3 H 0.3107 0.8178 0.3364
C5 C 0.4508(10) 0.6490(8) 0.4391(7)
H4 H 0.3538 0.6379 0.5168
C6 C 0.6229(10) 0.5561(8) 0.4321(6)
C7 C 0.6534(9) 0.4430(9) 0.5511(6)
C8 C 0.6893(11) 0.2449(9) 0.5147(7)
H5 H 0.7906 0.2108 0.5817
H6 H 0.698 0.1969 0.4123
C9 C 0.4555(9) 0.2480(8) 0.5653(6)
C10 C 0.2651(13) 0.1946(10) 0.4566(9)
C11 C 0.3857(12) 0.1861(10) 0.7095(7)
C12 C 0.0885(13) 0.1562(10) 0.8809(7)
H7 H 0.1234 0.0384 0.8999
H8 H -0.0796 0.1252 0.8729
C13 C 0.1891(16) 0.3191(13) 1.0033(8)
H9 H 0.3546 0.3453 1.0139
H10 H 0.1204 0.2814 1.0923
H11 H 0.1576 0.4363 0.9831
C14 C 0.7726(15) 0.5762(12) 0.6882(9)
Br1 Br 0.53318(11) 0.92402(10) 0.07252(9)
F1 F 0.8248(10) 0.4846(7) 0.7901(5)
F2 F 0.6525(9) 0.6826(8) 0.7490(5)
F3 F 0.9730(8) 0.7021(8) 0.6563(6)
N1 N 0.1184(10) 0.1490(8) 0.3673(7)
O1 O 0.4932(10) 0.1132(9) 0.7810(6)
O2 O 0.1864(8) 0.2154(7) 0.7437(5)
loop_
_geom_bond_atom_site_label_1
_geom_bond_atom_site_label_2
_geom_bond_site_symmetry_1
_geom_bond_site_symmetry_2
C1 H1 1_555 1_555
C2 C1 1_555 1_555
H2 C2 1_555 1_555
C3 C2 1_555 1_555
C4 C3 1_555 1_555
H3 C4 1_555 1_555
C5 C4 1_555 1_555
H4 C5 1_555 1_555
C6 C1 1_555 1_555
C7 C6 1_555 1_555
C8 C7 1_555 1_555
H5 C8 1_555 1_555
H6 C8 1_555 1_555
C9 C7 1_555 1_555
C10 C9 1_555 1_555
C11 C9 1_555 1_555
C12 H7 1_555 1_555
H8 C12 1_555 1_555
C13 C12 1_555 1_555
H9 C13 1_555 1_555
H10 C13 1_555 1_555
H11 C13 1_555 1_555
C14 C7 1_555 1_555
Br1 C3 1_555 1_555
F1 C14 1_555 1_555
F2 C14 1_555 1_555
F3 C14 1_555 1_555
N1 C10 1_555 1_555
O1 C11 1_555 1_555
O2 C11 1_555 1_555
C5 C6 1_555 1_555
C8 C9 1_555 1_555
C12 O2 1_555 1_555

#END
