
#######################################################################
#
#                 Cambridge Crystallographic Data Centre
#                                CCDC 
#
#######################################################################
#
# If this CIF has been generated from an entry in the Cambridge 
# Structural Database, then it will include bibliographic, chemical, 
# crystal, experimental, refinement or atomic coordinate data resulting 
# from the CCDC's data processing and validation procedures.
#
#######################################################################

data_FINDUD
_chemical_formula_moiety         'C120,4(C6 H4 Cl2),2(H2 O1)'
_chemical_name_systematic        
'Bi-(1,9-C60fullerene) 1,2-dichlorobenzene solvate dihydrate'
_symmetry_cell_setting           triclinic
_symmetry_space_group_name_H-M   'P -1'
_symmetry_Int_Tables_number      2
_space_group_name_Hall           '-P 1'
loop_
_symmetry_equiv_pos_site_id
_symmetry_equiv_pos_as_xyz
1 x,y,z
2 -x,-y,-z
_cell_length_a                   10.055(2)
_cell_length_b                   11.130(3)
_cell_length_c                   17.911(4)
_cell_angle_alpha                94.755(4)
_cell_angle_beta                 97.028(3)
_cell_angle_gamma                103.364(2)
_cell_volume                     1922.66
_exptl_crystal_colour            red
_exptl_crystal_description       block
_cell_formula_units_Z            1
loop_
_atom_site_label
_atom_site_type_symbol
_atom_site_fract_x
_atom_site_fract_y
_atom_site_fract_z
C1 C 0.0437(3) -0.0053(3) 0.55965(19)
C2 C -0.0989(3) 0.0124(3) 0.51923(18)
C3 C -0.2263(3) -0.0859(3) 0.52939(18)
C4 C -0.2197(4) -0.1927(3) 0.56061(19)
C5 C -0.0863(4) -0.2083(3) 0.5989(2)
C6 C 0.0331(3) -0.1175(3) 0.60341(19)
C7 C -0.1383(3) 0.1313(3) 0.54603(18)
C8 C -0.0482(4) 0.2259(3) 0.5939(2)
C9 C 0.0845(3) 0.2103(3) 0.63243(19)
C10 C 0.1226(3) 0.1004(3) 0.62094(18)
C11 C 0.1811(3) 0.0489(3) 0.6842(2)
C12 C 0.1263(4) -0.0847(4) 0.6737(2)
C13 C 0.1090(4) 0.2759(3) 0.7070(2)
C14 C -0.0047(4) 0.3341(3) 0.7162(2)
C15 C -0.1007(4) 0.3025(3) 0.6466(2)
C16 C -0.2421(4) 0.2809(3) 0.6494(2)
C17 C -0.3361(3) 0.1799(3) 0.60006(19)
C18 C -0.2831(3) 0.1054(3) 0.55077(18)
C19 C -0.3372(3) -0.0279(3) 0.54041(18)
C20 C -0.4426(3) -0.0829(3) 0.57977(19)
C21 C -0.4364(4) -0.1964(3) 0.6117(2)
C22 C -0.3262(4) -0.2493(3) 0.6033(2)
C23 C -0.2621(4) -0.2996(3) 0.6658(2)
C24 C -0.1157(4) -0.2748(3) 0.6636(2)
C25 C -0.0232(4) -0.2467(4) 0.7305(2)
C26 C 0.1008(4) -0.1489(4) 0.7357(2)
C27 C 0.1708(4) 0.2296(4) 0.7682(2)
C28 C 0.2083(3) 0.1135(4) 0.7563(2)
C29 C 0.1799(4) 0.0459(4) 0.8213(2)
C30 C 0.1291(4) -0.0804(4) 0.8115(2)
C31 C -0.0513(4) 0.3415(3) 0.7860(2)
C32 C -0.2921(4) 0.2872(3) 0.7222(2)
C33 C -0.4171(4) 0.1893(3) 0.7171(2)
C34 C -0.4448(3) 0.1225(3) 0.64192(19)
C35 C -0.4965(3) -0.0054(3) 0.63211(19)
C36 C -0.5245(3) -0.0727(3) 0.6968(2)
C37 C -0.4872(4) -0.1910(3) 0.6845(2)
C38 C -0.4261(4) -0.2387(3) 0.7442(2)
C39 C -0.3112(4) -0.2949(3) 0.7355(2)
C40 C -0.1993(4) 0.3167(3) 0.7888(2)
C41 C 0.0110(4) 0.2910(4) 0.8488(2)
C42 C 0.1202(4) 0.2369(4) 0.8406(2)
C43 C 0.1267(4) 0.1236(5) 0.8733(2)
C44 C 0.0197(4) -0.1388(4) 0.8526(2)
C45 C -0.0745(4) -0.2400(4) 0.8033(2)
C46 C -0.2148(4) -0.2640(4) 0.8051(2)
C47 C -0.4440(4) 0.1256(3) 0.7792(2)
C48 C -0.4988(3) -0.0088(3) 0.7688(2)
C49 C -0.3991(4) -0.1732(4) 0.8201(2)
C50 C -0.4347(4) -0.0591(4) 0.8322(2)
C51 C -0.3465(4) 0.1563(4) 0.8488(2)
C52 C -0.2692(4) -0.1881(4) 0.8572(2)
C53 C -0.2278(4) 0.2509(4) 0.8537(2)
C54 C -0.1797(4) -0.0913(4) 0.9048(2)
C55 C -0.0957(4) 0.2342(4) 0.8910(2)
C56 C -0.0325(4) -0.0651(5) 0.9026(2)
C57 C 0.0218(4) 0.0687(5) 0.9131(2)
C58 C -0.0916(4) 0.1254(4) 0.9221(2)
C59 C -0.2160(4) 0.0275(4) 0.9175(2)
C60 C -0.3412(4) 0.0427(4) 0.8814(2)
C1A C -0.0437(3) 0.0053(3) 0.44035(19)
C2A C 0.0989(3) -0.0124(3) 0.48077(18)
C3A C 0.2263(3) 0.0859(3) 0.47061(18)
C4A C 0.2197(4) 0.1927(3) 0.43939(19)
C5A C 0.0863(4) 0.2083(3) 0.4011(2)
C6A C -0.0331(3) 0.1175(3) 0.39659(19)
C7A C 0.1383(3) -0.1313(3) 0.45397(18)
C8A C 0.0482(4) -0.2259(3) 0.4061(2)
C9A C -0.0845(3) -0.2103(3) 0.36757(19)
C10A C -0.1226(3) -0.1004(3) 0.37906(18)
C11A C -0.1811(3) -0.0489(3) 0.3158(2)
C12A C -0.1263(4) 0.0847(4) 0.3263(2)
C13A C -0.1090(4) -0.2759(3) 0.2930(2)
C14A C 0.0047(4) -0.3341(3) 0.2838(2)
C15A C 0.1007(4) -0.3025(3) 0.3534(2)
C16A C 0.2421(4) -0.2809(3) 0.3506(2)
C17A C 0.3361(3) -0.1799(3) 0.39994(19)
C18A C 0.2831(3) -0.1054(3) 0.44923(18)
C19A C 0.3372(3) 0.0279(3) 0.45959(18)
C20A C 0.4426(3) 0.0829(3) 0.42023(19)
C21A C 0.4364(4) 0.1964(3) 0.3883(2)
C22A C 0.3262(4) 0.2493(3) 0.3967(2)
C23A C 0.2621(4) 0.2996(3) 0.3342(2)
C24A C 0.1157(4) 0.2748(3) 0.3364(2)
C25A C 0.0232(4) 0.2467(4) 0.2695(2)
C26A C -0.1008(4) 0.1489(4) 0.2643(2)
C27A C -0.1708(4) -0.2296(4) 0.2318(2)
C28A C -0.2083(3) -0.1135(4) 0.2437(2)
C29A C -0.1799(4) -0.0459(4) 0.1787(2)
C30A C -0.1291(4) 0.0804(4) 0.1885(2)
C31A C 0.0513(4) -0.3415(3) 0.2140(2)
C32A C 0.2921(4) -0.2872(3) 0.2778(2)
C33A C 0.4171(4) -0.1893(3) 0.2829(2)
C34A C 0.4448(3) -0.1225(3) 0.35808(19)
C35A C 0.4965(3) 0.0054(3) 0.36789(19)
C36A C 0.5245(3) 0.0727(3) 0.3032(2)
C37A C 0.4872(4) 0.1910(3) 0.3155(2)
C38A C 0.4261(4) 0.2387(3) 0.2558(2)
C39A C 0.3112(4) 0.2949(3) 0.2645(2)
C40A C 0.1993(4) -0.3167(3) 0.2112(2)
C41A C -0.0110(4) -0.2910(4) 0.1512(2)
C42A C -0.1202(4) -0.2369(4) 0.1594(2)
C43A C -0.1267(4) -0.1236(5) 0.1267(2)
C44A C -0.0197(4) 0.1388(4) 0.1474(2)
C45A C 0.0745(4) 0.2400(4) 0.1967(2)
C46A C 0.2148(4) 0.2640(4) 0.1949(2)
C47A C 0.4440(4) -0.1256(3) 0.2208(2)
C48A C 0.4988(3) 0.0088(3) 0.2312(2)
C49A C 0.3991(4) 0.1732(4) 0.1799(2)
C50A C 0.4347(4) 0.0591(4) 0.1678(2)
C51A C 0.3465(4) -0.1563(4) 0.1512(2)
C52A C 0.2692(4) 0.1881(4) 0.1428(2)
C53A C 0.2278(4) -0.2509(4) 0.1463(2)
C54A C 0.1797(4) 0.0913(4) 0.0952(2)
C55A C 0.0957(4) -0.2342(4) 0.1090(2)
C56A C 0.0325(4) 0.0651(5) 0.0974(2)
C57A C -0.0218(4) -0.0687(5) 0.0869(2)
C58A C 0.0916(4) -0.1254(4) 0.0779(2)
C59A C 0.2160(4) -0.0275(4) 0.0825(2)
C60A C 0.3412(4) -0.0427(4) 0.1186(2)
O1 O -0.1558(3) 0.0191(3) 0.72419(16)
H1 H -0.136(8) 0.056(8) 0.776(2)
H2 H -0.080(6) 0.060(7) 0.701(4)
C61 C -0.2817(8) 0.4685(8) 0.9649(5)
C62 C -0.406(2) 0.4606(12) 0.9173(10)
H5 H -0.4114 0.5174 0.8810
C63 C -0.520(3) 0.3670(19) 0.9249(15)
H6 H -0.6036 0.3593 0.8916
C64 C -0.5188(12) 0.2877(9) 0.9764(6)
H7 H -0.6005 0.2274 0.9810
C65 C -0.3962(13) 0.2942(9) 1.0234(5)
H8 H -0.3924 0.2378 1.0601
C66 C -0.279(2) 0.3849(18) 1.0158(14)
Cl1 Cl -0.1259(2) 0.38445(18) 1.07413(10)
Cl2 Cl -0.13526(19) 0.57855(17) 0.95629(11)
C73 C 0.3571(9) 0.4852(8) 0.6371(5)
C74 C 0.3608(6) 0.4640(5) 0.5611(3)
H13 H 0.4210 0.4170 0.5437
C75 C 0.2802(9) 0.5091(8) 0.5111(5)
H14 H 0.2871 0.4976 0.4587
C76 C 0.1836(8) 0.5744(6) 0.5364(4)
H15 H 0.1229 0.6026 0.5008
C77 C 0.1802(6) 0.5958(5) 0.6133(4)
H16 H 0.1176 0.6399 0.6310
C78 C 0.2685(6) 0.5528(5) 0.6648(4)
Cl5 Cl 0.26315(19) 0.58501(14) 0.75959(10)
Cl6 Cl 0.46259(15) 0.42598(13) 0.70083(9)
H3? H -0.196(8) -0.017(8) 0.674(2)
H4? H -0.216(8) -0.025(8) 0.756(4)
C67? C -0.3203(18) 0.3535(19) 1.0141(13)
C68? C -0.2313(9) 0.4670(9) 1.0067(6)
H9? H -0.1433 0.4909 1.0373
C69? C -0.2672(8) 0.5462(9) 0.9559(5)
H10? H -0.2049 0.6226 0.9510
C70? C -0.3980(18) 0.5095(11) 0.9123(9)
H11? H -0.4225 0.5625 0.8769
C71? C -0.4933(18) 0.4009(15) 0.9178(11)
H12? H -0.5824 0.3801 0.8884
C72? C -0.4519(10) 0.3213(8) 0.9696(5)
Cl3? Cl -0.56724(18) 0.18288(17) 0.97641(10)
Cl4? Cl -0.2717(2) 0.25599(19) 1.07412(11)
C79? C 0.2716(12) 0.5300(10) 0.6113(8)
C80? C 0.1979(14) 0.5881(12) 0.6579(8)
H17? H 0.1311 0.6275 0.6357
C81? C 0.219(2) 0.5895(19) 0.7323(13)
H18? H 0.1661 0.6268 0.7633
C82? C 0.3254(12) 0.5326(10) 0.7660(6)
H19? H 0.3450 0.5362 0.8195
C83? C 0.3959(12) 0.4752(10) 0.7215(6)
H20? H 0.4619 0.4348 0.7435
C84? C 0.373(2) 0.4747(18) 0.6441(11)
Cl7? Cl 0.4640(3) 0.4031(3) 0.58431(16)
Cl8? Cl 0.2353(5) 0.5302(4) 0.51360(19)
loop_
_geom_bond_atom_site_label_1
_geom_bond_atom_site_label_2
_geom_bond_site_symmetry_1
_geom_bond_site_symmetry_2
C1 C2 1_555 1_555
C2 C3 1_555 1_555
C3 C4 1_555 1_555
C4 C5 1_555 1_555
C5 C6 1_555 1_555
C6 C1 1_555 1_555
C7 C2 1_555 1_555
C8 C7 1_555 1_555
C9 C8 1_555 1_555
C10 C1 1_555 1_555
C11 C10 1_555 1_555
C12 C6 1_555 1_555
C13 C9 1_555 1_555
C14 C13 1_555 1_555
C15 C8 1_555 1_555
C16 C15 1_555 1_555
C17 C16 1_555 1_555
C18 C7 1_555 1_555
C19 C3 1_555 1_555
C20 C19 1_555 1_555
C21 C20 1_555 1_555
C22 C4 1_555 1_555
C23 C22 1_555 1_555
C24 C5 1_555 1_555
C25 C24 1_555 1_555
C26 C12 1_555 1_555
C27 C13 1_555 1_555
C28 C11 1_555 1_555
C29 C28 1_555 1_555
C30 C26 1_555 1_555
C31 C14 1_555 1_555
C32 C16 1_555 1_555
C33 C32 1_555 1_555
C34 C17 1_555 1_555
C35 C20 1_555 1_555
C36 C35 1_555 1_555
C37 C21 1_555 1_555
C38 C37 1_555 1_555
C39 C23 1_555 1_555
C40 C31 1_555 1_555
C41 C31 1_555 1_555
C42 C27 1_555 1_555
C43 C29 1_555 1_555
C44 C30 1_555 1_555
C45 C25 1_555 1_555
C46 C39 1_555 1_555
C47 C33 1_555 1_555
C48 C36 1_555 1_555
C49 C38 1_555 1_555
C50 C48 1_555 1_555
C51 C47 1_555 1_555
C52 C46 1_555 1_555
C53 C40 1_555 1_555
C54 C52 1_555 1_555
C55 C41 1_555 1_555
C56 C44 1_555 1_555
C57 C43 1_555 1_555
C58 C55 1_555 1_555
C59 C54 1_555 1_555
C60 C50 1_555 1_555
O1 H1 1_555 1_555
H2 O1 1_555 1_555
C61 C62 1_555 1_555
C62 H5 1_555 1_555
C63 C62 1_555 1_555
H6 C63 1_555 1_555
C64 C63 1_555 1_555
H7 C64 1_555 1_555
C65 C64 1_555 1_555
H8 C65 1_555 1_555
C66 C61 1_555 1_555
Cl1 C66 1_555 1_555
Cl2 C61 1_555 1_555
C73 C74 1_555 1_555
C74 H13 1_555 1_555
C75 C74 1_555 1_555
H14 C75 1_555 1_555
C76 C75 1_555 1_555
H15 C76 1_555 1_555
C77 C76 1_555 1_555
H16 C77 1_555 1_555
C78 C73 1_555 1_555
Cl5 C78 1_555 1_555
Cl6 C73 1_555 1_555
C1A C2 1_555 1_555
C2A C1 1_555 1_555
C3A C2A 1_555 1_555
C4A C3A 1_555 1_555
C5A C4A 1_555 1_555
C6A C1A 1_555 1_555
C7A C2A 1_555 1_555
C8A C7A 1_555 1_555
C9A C8A 1_555 1_555
C10A C1A 1_555 1_555
C11A C10A 1_555 1_555
C12A C6A 1_555 1_555
C13A C9A 1_555 1_555
C14A C13A 1_555 1_555
C15A C8A 1_555 1_555
C16A C15A 1_555 1_555
C17A C16A 1_555 1_555
C18A C7A 1_555 1_555
C19A C3A 1_555 1_555
C20A C19A 1_555 1_555
C21A C20A 1_555 1_555
C22A C4A 1_555 1_555
C23A C22A 1_555 1_555
C24A C5A 1_555 1_555
C25A C24A 1_555 1_555
C26A C12A 1_555 1_555
C27A C13A 1_555 1_555
C28A C11A 1_555 1_555
C29A C28A 1_555 1_555
C30A C26A 1_555 1_555
C31A C14A 1_555 1_555
C32A C16A 1_555 1_555
C33A C32A 1_555 1_555
C34A C17A 1_555 1_555
C35A C20A 1_555 1_555
C36A C35A 1_555 1_555
C37A C21A 1_555 1_555
C38A C37A 1_555 1_555
C39A C23A 1_555 1_555
C40A C31A 1_555 1_555
C41A C31A 1_555 1_555
C42A C27A 1_555 1_555
C43A C29A 1_555 1_555
C44A C30A 1_555 1_555
C45A C25A 1_555 1_555
C46A C39A 1_555 1_555
C47A C33A 1_555 1_555
C48A C36A 1_555 1_555
C49A C38A 1_555 1_555
C50A C48A 1_555 1_555
C51A C47A 1_555 1_555
C52A C46A 1_555 1_555
C53A C40A 1_555 1_555
C54A C52A 1_555 1_555
C55A C41A 1_555 1_555
C56A C44A 1_555 1_555
C57A C43A 1_555 1_555
C58A C55A 1_555 1_555
C59A C54A 1_555 1_555
C60A C50A 1_555 1_555
C9 C10 1_555 1_555
C11 C12 1_555 1_555
C14 C15 1_555 1_555
C17 C18 1_555 1_555
C18 C19 1_555 1_555
C21 C22 1_555 1_555
C23 C24 1_555 1_555
C25 C26 1_555 1_555
C27 C28 1_555 1_555
C29 C30 1_555 1_555
C32 C40 1_555 1_555
C33 C34 1_555 1_555
C34 C35 1_555 1_555
C36 C37 1_555 1_555
C38 C39 1_555 1_555
C41 C42 1_555 1_555
C42 C43 1_555 1_555
C44 C45 1_555 1_555
C45 C46 1_555 1_555
C47 C48 1_555 1_555
C49 C50 1_555 1_555
C49 C52 1_555 1_555
C51 C53 1_555 1_555
C51 C60 1_555 1_555
C53 C55 1_555 1_555
C54 C56 1_555 1_555
C56 C57 1_555 1_555
C57 C58 1_555 1_555
C58 C59 1_555 1_555
C59 C60 1_555 1_555
C65 C66 1_555 1_555
C77 C78 1_555 1_555
C1A C2A 1_555 1_555
C5A C6A 1_555 1_555
C9A C10A 1_555 1_555
C11A C12A 1_555 1_555
C14A C15A 1_555 1_555
C17A C18A 1_555 1_555
C18A C19A 1_555 1_555
C21A C22A 1_555 1_555
C23A C24A 1_555 1_555
C25A C26A 1_555 1_555
C27A C28A 1_555 1_555
C29A C30A 1_555 1_555
C32A C40A 1_555 1_555
C33A C34A 1_555 1_555
C34A C35A 1_555 1_555
C36A C37A 1_555 1_555
C38A C39A 1_555 1_555
C41A C42A 1_555 1_555
C42A C43A 1_555 1_555
C44A C45A 1_555 1_555
C45A C46A 1_555 1_555
C47A C48A 1_555 1_555
C49A C50A 1_555 1_555
C49A C52A 1_555 1_555
C51A C53A 1_555 1_555
C51A C60A 1_555 1_555
C53A C55A 1_555 1_555
C54A C56A 1_555 1_555
C56A C57A 1_555 1_555
C57A C58A 1_555 1_555
C58A C59A 1_555 1_555
C59A C60A 1_555 1_555

#END
