
#######################################################################
#
#                 Cambridge Crystallographic Data Centre
#                                CCDC 
#
#######################################################################
#
# If this CIF has been generated from an entry in the Cambridge 
# Structural Database, then it will include bibliographic, chemical, 
# crystal, experimental, refinement or atomic coordinate data resulting 
# from the CCDC's data processing and validation procedures.
#
#######################################################################

data_FINFIU
_chemical_formula_moiety         'C19 H21 N3 O3'
_chemical_name_systematic        
N-[2-(1,4-dioxa-8-azaspiro[4.5]decan-8-yl)phenyl]pyridine-2-carboxamide
_symmetry_cell_setting           monoclinic
_symmetry_space_group_name_H-M   'P 21/n'
_symmetry_Int_Tables_number      14
_space_group_name_Hall           '-P 2yn'
loop_
_symmetry_equiv_pos_site_id
_symmetry_equiv_pos_as_xyz
1 x,y,z
2 1/2-x,1/2+y,1/2-z
3 -x,-y,-z
4 1/2+x,1/2-y,1/2+z
_cell_length_a                   12.4909(8)
_cell_length_b                   26.885(2)
_cell_length_c                   15.9657(13)
_cell_angle_alpha                90
_cell_angle_beta                 92.280(2)
_cell_angle_gamma                90
_cell_volume                     5357.32
_exptl_crystal_colour            colorless
_exptl_crystal_description       prismatic
_cell_formula_units_Z            12
loop_
_atom_site_label
_atom_site_type_symbol
_atom_site_fract_x
_atom_site_fract_y
_atom_site_fract_z
N1 N 0.8026(3) 0.62200(14) 0.2049(2)
N2 N 0.6420(2) 0.63541(13) 0.3086(2)
N3 N 0.6896(3) 0.61073(15) 0.0631(2)
O1 O 0.9591(2) 0.60931(14) 0.1392(2)
O2 O 0.3314(2) 0.62876(15) 0.2077(2)
O3 O 0.3662(3) 0.6088(3) 0.3402(3)
C1 C 0.8620(3) 0.61373(15) 0.1378(3)
C2 C 0.7958(4) 0.61144(15) 0.0573(3)
C3 C 0.8444(5) 0.6107(2) -0.0193(4)
H1 H 0.9186 0.6105 -0.0220
C4 C 0.7794(6) 0.6103(2) -0.0916(4)
H2 H 0.8098 0.6109 -0.1438
C5 C 0.6718(6) 0.6089(2) -0.0862(4)
H3 H 0.6271 0.6080 -0.1342
C6 C 0.6306(4) 0.6090(2) -0.0086(3)
H4 H 0.5565 0.6077 -0.0052
C7 C 0.8333(3) 0.63016(14) 0.2889(3)
C8 C 0.9389(3) 0.63277(16) 0.3190(3)
H5 H 0.9943 0.6281 0.2825
C9 C 0.9619(4) 0.6422(2) 0.4017(3)
H6 H 1.0328 0.6436 0.4217
C10 C 0.8809(4) 0.6495(2) 0.4551(3)
H7 H 0.8971 0.6561 0.5113
C11 C 0.7752(4) 0.6473(2) 0.4269(3)
H8 H 0.7210 0.6528 0.4642
C12 C 0.7490(3) 0.63715(15) 0.3432(2)
C13 C 0.5932(4) 0.58892(18) 0.3048(5)
H9 H 0.5729 0.5793 0.3606
H10 H 0.6440 0.5645 0.2856
C14 C 0.4952(4) 0.5890(2) 0.2466(5)
H11 H 0.5169 0.5952 0.1899
H12 H 0.4620 0.5564 0.2476
C15 C 0.4163(3) 0.62644(16) 0.2690(3)
C16 C 0.4664(5) 0.6746(2) 0.2850(5)
H13 H 0.4146 0.6967 0.3091
H14 H 0.4869 0.6889 0.2322
C17 C 0.5655(5) 0.6712(2) 0.3443(5)
H15 H 0.5988 0.7036 0.3505
H16 H 0.5451 0.6600 0.3992
C18 C 0.2339(4) 0.6248(3) 0.2462(4)
H17 H 0.1958 0.5953 0.2267
H18 H 0.1896 0.6537 0.2334
C19 C 0.2578(4) 0.6217(3) 0.3351(4)
H19 H 0.2457 0.6533 0.3622
H20 H 0.2143 0.5964 0.3607
H21 H 0.732(4) 0.6243(16) 0.192(3)
N4 N 0.8022(3) 0.29440(14) 0.2918(2)
N5 N 0.6227(2) 0.28253(12) 0.37581(19)
N6 N 0.7188(3) 0.32467(15) 0.1472(2)
O4 O 0.9703(2) 0.29365(13) 0.2417(2)
O5 O 0.3455(3) 0.25326(18) 0.3582(3)
O6 O 0.3272(2) 0.31041(14) 0.2557(2)
C20 C 0.8736(3) 0.30046(15) 0.2317(3)
C21 C 0.8244(3) 0.31659(15) 0.1496(3)
C22 C 0.8866(4) 0.32195(19) 0.0800(4)
H22 H 0.9600 0.3162 0.0839
C23 C 0.8372(7) 0.3359(2) 0.0053(4)
H23 H 0.8770 0.3396 -0.0423
C24 C 0.7307(6) 0.3441(2) 0.0014(3)
H24 H 0.6960 0.3534 -0.0488
C25 C 0.6747(5) 0.3384(2) 0.0726(3)
H25 H 0.6014 0.3444 0.0691
C26 C 0.8157(3) 0.27680(14) 0.3747(3)
C27 C 0.9148(4) 0.26615(18) 0.4128(3)
H26 H 0.9770 0.2704 0.3835
C28 C 0.9207(5) 0.2494(2) 0.4941(4)
H27 H 0.9872 0.2422 0.5196
C29 C 0.8298(5) 0.2431(2) 0.5382(4)
H28 H 0.8347 0.2319 0.5933
C30 C 0.7304(4) 0.25354(19) 0.5004(3)
H29 H 0.6688 0.2492 0.5304
C31 C 0.7220(3) 0.27037(15) 0.4184(2)
C32 C 0.5755(3) 0.24271(17) 0.3260(3)
H30 H 0.5465 0.2178 0.3627
H31 H 0.6304 0.2270 0.2937
C33 C 0.4874(3) 0.2620(2) 0.2673(3)
H32 H 0.5179 0.2844 0.2269
H33 H 0.4549 0.2344 0.2367
C34 C 0.4031(3) 0.28892(15) 0.3132(3)
C35 C 0.4542(4) 0.3274(2) 0.3699(4)
H34 H 0.3999 0.3418 0.4042
H35 H 0.4830 0.3538 0.3360
C36 C 0.5433(4) 0.3064(2) 0.4265(3)
H36 H 0.5766 0.3329 0.4594
H37 H 0.5141 0.2823 0.4647
C37 C 0.2370(4) 0.2630(3) 0.3491(4)
H38 H 0.2121 0.2814 0.3969
H39 H 0.1962 0.2324 0.3432
C38 C 0.2268(4) 0.2932(3) 0.2717(5)
H40 H 0.1991 0.2731 0.2253
H41 H 0.1782 0.3209 0.2794
H42 H 0.732(4) 0.300(2) 0.281(3)
N7 N 0.6966(3) 0.46357(13) 0.2207(2)
N8 N 0.8559(2) 0.45811(15) 0.3362(2)
N9 N 0.8112(3) 0.46567(14) 0.0859(2)
O7 O 0.5408(2) 0.46862(17) 0.1432(2)
C39 C 0.6381(3) 0.46711(16) 0.1485(3)
C40 C 0.7055(3) 0.46933(15) 0.0724(3)
C41 C 0.6588(4) 0.47502(19) -0.0079(3)
H43 H 0.5849 0.4780 -0.0158
C42 C 0.7234(5) 0.4761(2) -0.0743(3)
H44 H 0.6937 0.4798 -0.1283
C43 C 0.8310(5) 0.4719(2) -0.0621(3)
H45 H 0.8761 0.4726 -0.1070
C44 C 0.8713(4) 0.4664(2) 0.0187(3)
H46 H 0.9450 0.4630 0.0270
C45 C 0.6660(3) 0.45860(13) 0.3036(2)
C46 C 0.5604(3) 0.45699(15) 0.3269(3)
H47 H 0.5049 0.4593 0.2866
C47 C 0.5383(3) 0.45193(17) 0.4103(3)
H48 H 0.4674 0.4512 0.4259
C48 C 0.6181(4) 0.4479(2) 0.4703(3)
H49 H 0.6020 0.4439 0.5262
C49 C 0.7239(4) 0.4500(2) 0.4474(3)
H50 H 0.7786 0.4477 0.4884
C50 C 0.7491(3) 0.45543(15) 0.3641(2)
O8 O 1.1655(15) 0.4582(5) 0.2534(11)
O9 O 1.1264(5) 0.4320(3) 0.3777(5)
C51 C 0.9280(7) 0.4958(4) 0.3879(6)
H51 H 0.8878 0.5259 0.3983
H52 H 0.9496 0.4813 0.4416
C52 C 1.0268(6) 0.5083(3) 0.3392(6)
H53 H 1.0064 0.5288 0.2911
H54 H 1.0772 0.5270 0.3746
C53 C 1.0796(16) 0.4611(6) 0.3097(17)
C54 C 1.0028(6) 0.4283(4) 0.2624(6)
H55 H 1.0369 0.3967 0.2507
H56 H 0.9817 0.4437 0.2094
C55 C 0.9035(6) 0.4194(4) 0.3138(7)
H57 H 0.8533 0.3991 0.2810
H58 H 0.9249 0.4006 0.3636
C56 C 1.2655(15) 0.4656(6) 0.3090(11)
H59 H 1.3286 0.4519 0.2841
H60 H 1.2776 0.5004 0.3224
C57 C 1.2340(10) 0.4364(4) 0.3840(9)
H61 H 1.2675 0.4038 0.3844
H62 H 1.2557 0.4536 0.4353
H63 H 0.765(4) 0.4621(17) 0.218(3)
O10? O 1.1718(15) 0.4741(5) 0.2630(11)
O11? O 1.1300(4) 0.4754(3) 0.3923(4)
C58? C 0.9021(7) 0.4998(4) 0.3325(8)
H64? H 0.9227 0.5102 0.3890
H65? H 0.8514 0.5240 0.3095
C59? C 1.0017(6) 0.5001(4) 0.2796(8)
H66? H 0.9814 0.4921 0.2219
H67? H 1.0333 0.5331 0.2807
C60? C 1.0836(12) 0.4624(5) 0.3133(12)
C61? C 1.0305(6) 0.4120(4) 0.3240(6)
H68? H 1.0102 0.3986 0.2692
H69? H 1.0814 0.3892 0.3509
C62? C 0.9314(6) 0.4159(4) 0.3765(6)
H70? H 0.9520 0.4244 0.4339
H71? H 0.8938 0.3843 0.3765
C63? C 1.2637(16) 0.4526(7) 0.3009(8)
H72? H 1.3284 0.4702 0.2872
H73? H 1.2707 0.4177 0.2866
C64? C 1.2363(11) 0.4597(6) 0.3904(7)
H74? H 1.2455 0.4288 0.4210
H75? H 1.2832 0.4845 0.4166
loop_
_geom_bond_atom_site_label_1
_geom_bond_atom_site_label_2
_geom_bond_site_symmetry_1
_geom_bond_site_symmetry_2
N1 C1 1_555 1_555
N2 C12 1_555 1_555
N3 C2 1_555 1_555
O1 C1 1_555 1_555
O2 C15 1_555 1_555
O3 C15 1_555 1_555
C1 C2 1_555 1_555
C2 C3 1_555 1_555
C3 H1 1_555 1_555
C4 C3 1_555 1_555
H2 C4 1_555 1_555
C5 C4 1_555 1_555
H3 C5 1_555 1_555
C6 N3 1_555 1_555
H4 C6 1_555 1_555
C7 N1 1_555 1_555
C8 C7 1_555 1_555
H5 C8 1_555 1_555
C9 C8 1_555 1_555
H6 C9 1_555 1_555
C10 C9 1_555 1_555
H7 C10 1_555 1_555
C11 C10 1_555 1_555
H8 C11 1_555 1_555
C12 C7 1_555 1_555
C13 N2 1_555 1_555
H9 C13 1_555 1_555
H10 C13 1_555 1_555
C14 C13 1_555 1_555
H11 C14 1_555 1_555
H12 C14 1_555 1_555
C15 C14 1_555 1_555
C16 C15 1_555 1_555
H13 C16 1_555 1_555
H14 C16 1_555 1_555
C17 N2 1_555 1_555
H15 C17 1_555 1_555
H16 C17 1_555 1_555
C18 O2 1_555 1_555
H17 C18 1_555 1_555
H18 C18 1_555 1_555
C19 O3 1_555 1_555
H19 C19 1_555 1_555
H20 C19 1_555 1_555
H21 N1 1_555 1_555
N4 C20 1_555 1_555
N5 C31 1_555 1_555
N6 C21 1_555 1_555
O4 C20 1_555 1_555
O5 C34 1_555 1_555
O6 C34 1_555 1_555
C20 C21 1_555 1_555
C21 C22 1_555 1_555
C22 H22 1_555 1_555
C23 C22 1_555 1_555
H23 C23 1_555 1_555
C24 C23 1_555 1_555
H24 C24 1_555 1_555
C25 N6 1_555 1_555
H25 C25 1_555 1_555
C26 N4 1_555 1_555
C27 C26 1_555 1_555
H26 C27 1_555 1_555
C28 C27 1_555 1_555
H27 C28 1_555 1_555
C29 C28 1_555 1_555
H28 C29 1_555 1_555
C30 C29 1_555 1_555
H29 C30 1_555 1_555
C31 C26 1_555 1_555
C32 N5 1_555 1_555
H30 C32 1_555 1_555
H31 C32 1_555 1_555
C33 C32 1_555 1_555
H32 C33 1_555 1_555
H33 C33 1_555 1_555
C34 C33 1_555 1_555
C35 C34 1_555 1_555
H34 C35 1_555 1_555
H35 C35 1_555 1_555
C36 N5 1_555 1_555
H36 C36 1_555 1_555
H37 C36 1_555 1_555
C37 O5 1_555 1_555
H38 C37 1_555 1_555
H39 C37 1_555 1_555
C38 O6 1_555 1_555
H40 C38 1_555 1_555
H41 C38 1_555 1_555
H42 N4 1_555 1_555
N7 C39 1_555 1_555
N8 C50 1_555 1_555
N9 C40 1_555 1_555
O7 C39 1_555 1_555
C39 C40 1_555 1_555
C40 C41 1_555 1_555
C41 H43 1_555 1_555
C42 C41 1_555 1_555
H44 C42 1_555 1_555
C43 C42 1_555 1_555
H45 C43 1_555 1_555
C44 N9 1_555 1_555
H46 C44 1_555 1_555
C45 N7 1_555 1_555
C46 C45 1_555 1_555
H47 C46 1_555 1_555
C47 C46 1_555 1_555
H48 C47 1_555 1_555
C48 C47 1_555 1_555
H49 C48 1_555 1_555
C49 C48 1_555 1_555
H50 C49 1_555 1_555
C50 C45 1_555 1_555
O8 C53 1_555 1_555
O9 C53 1_555 1_555
C51 N8 1_555 1_555
H51 C51 1_555 1_555
H52 C51 1_555 1_555
C52 C51 1_555 1_555
H53 C52 1_555 1_555
H54 C52 1_555 1_555
C53 C52 1_555 1_555
C54 C53 1_555 1_555
H55 C54 1_555 1_555
H56 C54 1_555 1_555
C55 N8 1_555 1_555
H57 C55 1_555 1_555
H58 C55 1_555 1_555
C56 O8 1_555 1_555
H59 C56 1_555 1_555
H60 C56 1_555 1_555
C57 O9 1_555 1_555
H61 C57 1_555 1_555
H62 C57 1_555 1_555
H63 N7 1_555 1_555
C5 C6 1_555 1_555
C11 C12 1_555 1_555
C16 C17 1_555 1_555
C18 C19 1_555 1_555
C24 C25 1_555 1_555
C30 C31 1_555 1_555
C35 C36 1_555 1_555
C37 C38 1_555 1_555
C43 C44 1_555 1_555
C49 C50 1_555 1_555
C54 C55 1_555 1_555
C56 C57 1_555 1_555

#END
