
#######################################################################
#
#                 Cambridge Crystallographic Data Centre
#                                CCDC 
#
#######################################################################
#
# If this CIF has been generated from an entry in the Cambridge 
# Structural Database, then it will include bibliographic, chemical, 
# crystal, experimental, refinement or atomic coordinate data resulting 
# from the CCDC's data processing and validation procedures.
#
#######################################################################

data_FINKOD
_chemical_formula_moiety         'C15 H22 N1 O4 P1 S1'
_chemical_name_systematic        
'dimethyl (E)-1-(morpholino)-2-(methylthio)-2-phenylvinylphosphonate'
_symmetry_cell_setting           monoclinic
_symmetry_space_group_name_H-M   'P 21/c'
_symmetry_Int_Tables_number      14
_space_group_name_Hall           '-P 2ybc'
loop_
_symmetry_equiv_pos_site_id
_symmetry_equiv_pos_as_xyz
1 x,y,z
2 -x,1/2+y,1/2-z
3 -x,-y,-z
4 x,1/2-y,1/2+z
_cell_length_a                   14.906(2)
_cell_length_b                   8.4711(12)
_cell_length_c                   13.343(2)
_cell_angle_alpha                90
_cell_angle_beta                 96.761(4)
_cell_angle_gamma                90
_cell_volume                     1673.11
_exptl_crystal_colour            colorless
_exptl_crystal_description       block
_chemical_melting_point          '102-104 deg.C'
_cell_formula_units_Z            4
loop_
_atom_site_label
_atom_site_type_symbol
_atom_site_fract_x
_atom_site_fract_y
_atom_site_fract_z
S1 S 0.39974(4) 0.63602(9) 0.31227(5)
P1 P 0.15979(4) 0.33418(9) 0.27565(5)
O1 O 0.42450(13) 0.1831(3) 0.5505(2)
O2 O 0.08001(13) 0.4120(3) 0.3054(2)
O3 O 0.15760(13) 0.3091(3) 0.1579(2)
O4 O 0.17537(13) 0.1633(3) 0.3204(2)
N1 N 0.3273(1) 0.3665(3) 0.3968(2)
C1 C 0.3867(2) 0.2385(4) 0.3724(2)
C2 C 0.4612(2) 0.2172(4) 0.4586(2)
C3 C 0.3668(2) 0.3082(4) 0.5738(2)
C4 C 0.2902(2) 0.3324(4) 0.4913(2)
C5 C 0.2675(2) 0.4255(3) 0.3137(2)
C6 C 0.2938(2) 0.5550(3) 0.2656(2)
C7 C 0.2427(2) 0.6311(3) 0.1759(2)
C8 C 0.1623(2) 0.7113(4) 0.1840(2)
C9 C 0.1181(2) 0.7921(4) 0.1018(2)
C10 C 0.1540(2) 0.7917(4) 0.0108(2)
C11 C 0.2339(2) 0.7106(4) 0.0018(2)
C12 C 0.2775(2) 0.6310(4) 0.0830(2)
C13 C 0.3978(2) 0.8287(4) 0.2547(3)
C14 C 0.0767(3) 0.3119(7) 0.0912(3)
C15 C 0.0997(2) 0.0597(4) 0.3230(3)
H1 H 0.3531 0.1434 0.3628
H2 H 0.4120 0.2638 0.3123
H3 H 0.4955 0.3118 0.4667
H4 H 0.4994 0.1326 0.4438
H5 H 0.3431 0.2839 0.6351
H6 H 0.4009 0.4030 0.5819
H7 H 0.2535 0.4182 0.5076
H8 H 0.2547 0.2390 0.4838
H9 H 0.1379 0.7108 0.2466
H10 H 0.0629 0.8455 0.1077
H11 H 0.1248 0.8479 -0.0454
H12 H 0.2582 0.7102 -0.0609
H13 H 0.3318 0.5755 0.0764
H14 H 0.4217 0.8223 0.1919
H15 H 0.4334 0.8993 0.2981
H16 H 0.3374 0.8662 0.2439
H17 H 0.0533 0.2076 0.0848
H18 H 0.0883 0.3493 0.0269
H19 H 0.0340 0.3789 0.1174
H20 H 0.0755 0.0736 0.3852
H21 H 0.1185 -0.0468 0.3174
H22 H 0.0548 0.0840 0.2686
loop_
_geom_bond_atom_site_label_1
_geom_bond_atom_site_label_2
_geom_bond_site_symmetry_1
_geom_bond_site_symmetry_2
S1 C6 1_555 1_555
P1 O2 1_555 1_555
O1 C2 1_555 1_555
O3 P1 1_555 1_555
O4 P1 1_555 1_555
N1 C1 1_555 1_555
C1 C2 1_555 1_555
C2 H3 1_555 1_555
C3 O1 1_555 1_555
C4 N1 1_555 1_555
C5 P1 1_555 1_555
C6 C5 1_555 1_555
C7 C6 1_555 1_555
C8 C7 1_555 1_555
C9 C8 1_555 1_555
C10 C9 1_555 1_555
C11 C10 1_555 1_555
C12 C7 1_555 1_555
C13 S1 1_555 1_555
C14 O3 1_555 1_555
C15 O4 1_555 1_555
H1 C1 1_555 1_555
H2 C1 1_555 1_555
H4 C2 1_555 1_555
H5 C3 1_555 1_555
H6 C3 1_555 1_555
H7 C4 1_555 1_555
H8 C4 1_555 1_555
H9 C8 1_555 1_555
H10 C9 1_555 1_555
H11 C10 1_555 1_555
H12 C11 1_555 1_555
H13 C12 1_555 1_555
H14 C13 1_555 1_555
H15 C13 1_555 1_555
H16 C13 1_555 1_555
H17 C14 1_555 1_555
H18 C14 1_555 1_555
H19 C14 1_555 1_555
H20 C15 1_555 1_555
H21 C15 1_555 1_555
H22 C15 1_555 1_555
N1 C5 1_555 1_555
C3 C4 1_555 1_555
C11 C12 1_555 1_555

#END
