
#######################################################################
#
#                 Cambridge Crystallographic Data Centre
#                                CCDC 
#
#######################################################################
#
# If this CIF has been generated from an entry in the Cambridge 
# Structural Database, then it will include bibliographic, chemical, 
# crystal, experimental, refinement or atomic coordinate data resulting 
# from the CCDC's data processing and validation procedures.
#
#######################################################################

data_FINLAQ
_chemical_formula_moiety         'C14 H20 N2 S2'
_chemical_name_systematic        
5,7-di(t-butyl)-1,3\l^4^\f^2^,2,4-benzodithiadiazine
_symmetry_cell_setting           triclinic
_symmetry_space_group_name_H-M   'P -1'
_symmetry_Int_Tables_number      2
_space_group_name_Hall           '-P 1'
loop_
_symmetry_equiv_pos_site_id
_symmetry_equiv_pos_as_xyz
1 x,y,z
2 -x,-y,-z
_cell_length_a                   10.2335(12)
_cell_length_b                   11.5968(12)
_cell_length_c                   14.9218(14)
_cell_angle_alpha                107.066(9)
_cell_angle_beta                 105.473(9)
_cell_angle_gamma                102.981(9)
_cell_volume                     1540.82
_exptl_crystal_colour            black
_exptl_crystal_description       plate
_chemical_melting_point          '337-338 K'
_cell_formula_units_Z            4
loop_
_atom_site_label
_atom_site_type_symbol
_atom_site_fract_x
_atom_site_fract_y
_atom_site_fract_z
S1 S 0.93071(9) 0.05716(8) 0.36005(7)
N1 N 0.7553(3) 0.0357(3) 0.3068(2)
S2 S 0.64240(10) -0.06645(9) 0.31909(8)
N2 N 0.6917(3) -0.1589(2) 0.3632(2)
C1 C 0.8399(3) -0.2952(3) 0.37774(19)
C2 C 0.9679(3) -0.3171(3) 0.3737(2)
C3 C 1.0769(3) -0.2352(3) 0.3616(2)
C4 C 1.0584(3) -0.1227(3) 0.3549(2)
C5 C 0.9358(3) -0.0950(3) 0.3608(2)
C6 C 0.8253(3) -0.1808(3) 0.3700(2)
C7 C 1.2130(3) -0.2652(3) 0.3546(2)
C8 C 0.7227(3) -0.3926(3) 0.3899(2)
C9 C 1.3444(5) -0.1574(8) 0.4348(5)
C10 C 1.2218(6) -0.2719(7) 0.2525(4)
C11 C 1.2135(6) -0.3963(6) 0.3613(6)
C12 C 0.6907(5) -0.3283(4) 0.4836(3)
C13 C 0.5864(4) -0.4489(4) 0.2963(3)
C14 C 0.7710(5) -0.5040(4) 0.4039(4)
H1 H 0.979(3) -0.385(3) 0.382(2)
H2 H 1.126(3) -0.063(3) 0.342(2)
H3 H 1.354(6) -0.071(6) 0.446(4)
H4 H 1.431(5) -0.172(4) 0.436(3)
H5 H 1.344(8) -0.169(7) 0.506(6)
H6 H 1.260(7) -0.160(7) 0.262(5)
H7 H 1.118(6) -0.359(5) 0.200(4)
H8 H 1.322(5) -0.277(5) 0.255(4)
H9 H 1.302(6) -0.418(5) 0.351(4)
H10 H 1.123(7) -0.460(6) 0.291(5)
H11 H 1.256(3) -0.315(3) 0.447(2)
H12 H 0.612(5) -0.388(4) 0.485(3)
H13 H 0.659(5) -0.260(5) 0.485(4)
H14 H 0.790(4) -0.296(3) 0.552(3)
H15 H 0.524(4) -0.510(4) 0.308(3)
H16 H 0.608(3) -0.493(3) 0.237(3)
H17 H 0.556(3) -0.380(3) 0.286(2)
H18 H 0.694(4) -0.560(3) 0.406(3)
H19 H 0.861(4) -0.474(4) 0.466(3)
H20 H 0.798(4) -0.549(4) 0.346(3)
S3 S 0.44225(9) 0.16080(10) 0.29618(7)
N3 N 0.2664(3) 0.1044(3) 0.2772(2)
S4 S 0.15935(9) 0.14643(10) 0.21081(7)
N4 N 0.2112(3) 0.2193(2) 0.14996(18)
C15 C 0.3591(3) 0.2603(2) 0.05095(19)
C16 C 0.4852(3) 0.2579(3) 0.0321(2)
C17 C 0.5904(3) 0.2215(2) 0.0856(2)
C18 C 0.5695(3) 0.1884(3) 0.1646(2)
C19 C 0.4491(3) 0.1933(3) 0.1874(2)
C20 C 0.3410(3) 0.2264(2) 0.13101(19)
C21 C 0.7270(3) 0.2199(3) 0.0618(2)
C22 C 0.2443(3) 0.2974(3) -0.0149(2)
C23 C 0.7071(7) 0.2156(9) -0.0450(5)
C24 C 0.8506(6) 0.3358(6) 0.1405(7)
C25 C 0.7595(5) 0.0979(4) 0.0634(4)
C26 C 0.1055(4) 0.1829(4) -0.0714(3)
C27 C 0.2171(5) 0.4119(4) 0.0512(3)
C28 C 0.2920(4) 0.3355(4) -0.0940(3)
H21 H 0.495(3) 0.279(2) -0.022(2)
H22 H 0.641(3) 0.162(3) 0.204(2)
H23 H 0.792(6) 0.212(5) -0.056(4)
H24 H 0.779(6) 0.344(6) 0.033(5)
H25 H 0.610(7) 0.157(6) -0.093(5)
H26 H 0.929(5) 0.332(4) 0.138(3)
H27 H 0.862(6) 0.240(6) 0.166(4)
H28 H 0.830(6) 0.410(6) 0.143(5)
H29 H 0.850(4) 0.094(4) 0.041(3)
H30 H 0.661(6) 0.020(5) -0.003(4)
H31 H 0.810(7) 0.114(7) 0.141(5)
H32 H 0.033(4) 0.209(3) -0.107(3)
H33 H 0.073(4) 0.156(3) -0.029(3)
H34 H 0.127(4) 0.115(4) -0.114(3)
H35 H 0.147(4) 0.434(3) 0.013(3)
H36 H 0.309(5) 0.490(4) 0.084(3)
H37 H 0.186(5) 0.400(4) 0.105(3)
H38 H 0.218(5) 0.358(4) -0.135(3)
H39 H 0.305(3) 0.262(3) -0.142(2)
H40 H 0.377(4) 0.410(3) -0.060(2)
loop_
_geom_bond_atom_site_label_1
_geom_bond_atom_site_label_2
_geom_bond_site_symmetry_1
_geom_bond_site_symmetry_2
S1 N1 1_555 1_555
N1 S2 1_555 1_555
S2 N2 1_555 1_555
N2 C6 1_555 1_555
C1 C2 1_555 1_555
C2 C3 1_555 1_555
C3 C4 1_555 1_555
C4 C5 1_555 1_555
C5 S1 1_555 1_555
C6 C1 1_555 1_555
C7 C3 1_555 1_555
C8 C1 1_555 1_555
C9 C7 1_555 1_555
C10 C7 1_555 1_555
C11 C7 1_555 1_555
C12 C8 1_555 1_555
C13 C8 1_555 1_555
C14 C8 1_555 1_555
S3 N3 1_555 1_555
N3 S4 1_555 1_555
S4 N4 1_555 1_555
N4 C20 1_555 1_555
C15 C16 1_555 1_555
C16 C17 1_555 1_555
C17 C18 1_555 1_555
C18 C19 1_555 1_555
C19 S3 1_555 1_555
C20 C15 1_555 1_555
C21 C17 1_555 1_555
C22 C15 1_555 1_555
C23 C21 1_555 1_555
C24 C21 1_555 1_555
C25 C21 1_555 1_555
C26 C22 1_555 1_555
C27 C22 1_555 1_555
C28 C22 1_555 1_555
H1 C2 1_555 1_555
H2 C4 1_555 1_555
H3 C9 1_555 1_555
H4 C9 1_555 1_555
H5 C9 1_555 1_555
H6 C10 1_555 1_555
H7 C10 1_555 1_555
H8 C10 1_555 1_555
H9 C11 1_555 1_555
H10 C11 1_555 1_555
H11 C11 1_555 1_555
H12 C12 1_555 1_555
H13 C12 1_555 1_555
H14 C12 1_555 1_555
H15 C13 1_555 1_555
H16 C13 1_555 1_555
H17 C13 1_555 1_555
H18 C14 1_555 1_555
H19 C14 1_555 1_555
H20 C14 1_555 1_555
H21 C16 1_555 1_555
H22 C18 1_555 1_555
H23 C23 1_555 1_555
H24 C23 1_555 1_555
H25 C23 1_555 1_555
H26 C24 1_555 1_555
H27 C24 1_555 1_555
H28 C24 1_555 1_555
H29 C25 1_555 1_555
H30 C25 1_555 1_555
H31 C25 1_555 1_555
H32 C26 1_555 1_555
H33 C26 1_555 1_555
H34 C26 1_555 1_555
H35 C27 1_555 1_555
H36 C27 1_555 1_555
H37 C27 1_555 1_555
H38 C28 1_555 1_555
H39 C28 1_555 1_555
H40 C28 1_555 1_555
C5 C6 1_555 1_555
C19 C20 1_555 1_555

#END
