
#######################################################################
#
#                 Cambridge Crystallographic Data Centre
#                                CCDC 
#
#######################################################################
#
# If this CIF has been generated from an entry in the Cambridge 
# Structural Database, then it will include bibliographic, chemical, 
# crystal, experimental, refinement or atomic coordinate data resulting 
# from the CCDC's data processing and validation procedures.
#
#######################################################################

data_FINPEA
_chemical_formula_moiety         'C9 H17 B1 N2 S1'
_chemical_name_systematic        
t-butyl(1,3-dimethyl-imidazol-2-ylidene)sulfanylideneborate
_symmetry_cell_setting           monoclinic
_symmetry_space_group_name_H-M   'P 21/n'
_symmetry_Int_Tables_number      14
_space_group_name_Hall           '-P 2yn'
loop_
_symmetry_equiv_pos_site_id
_symmetry_equiv_pos_as_xyz
1 x,y,z
2 1/2-x,1/2+y,1/2-z
3 -x,-y,-z
4 1/2+x,1/2-y,1/2+z
_cell_length_a                   12.364(3)
_cell_length_b                   7.522(3)
_cell_length_c                   12.850(3)
_cell_angle_alpha                90
_cell_angle_beta                 109.438(10)
_cell_angle_gamma                90
_cell_volume                     1126.96
_exptl_crystal_colour            colorless
_exptl_crystal_description       needle
_cell_formula_units_Z            4
loop_
_atom_site_label
_atom_site_type_symbol
_atom_site_fract_x
_atom_site_fract_y
_atom_site_fract_z
S1 S 0.60004(3) 0.09193(5) 0.68819(3)
B1 B 0.48697(15) 0.2023(2) 0.71208(15)
C1 C 0.42226(15) 0.1506(2) 0.79683(14)
C2 C 0.44573(16) 0.2946(2) 0.88730(14)
H1 H 0.419442 0.410184 0.853070
H2 H 0.528201 0.300029 0.928076
H3 H 0.404429 0.264845 0.938186
C3 C 0.46217(16) -0.0298(2) 0.85116(15)
H4 H 0.443278 -0.122809 0.794554
H5 H 0.423475 -0.054890 0.904857
H6 H 0.545314 -0.027098 0.888870
C4 C 0.29196(15) 0.1418(2) 0.73807(15)
H7 H 0.264624 0.256372 0.702810
H8 H 0.253855 0.115241 0.792041
H9 H 0.274283 0.048153 0.681862
C5 C 0.44476(14) 0.3803(2) 0.64066(14)
N1 N 0.36295(12) 0.39412(18) 0.54116(12)
C6 C 0.35857(16) 0.5662(2) 0.50219(15)
H10 H 0.308464 0.609859 0.433763
N2 N 0.49111(12) 0.54383(17) 0.66439(12)
C7 C 0.43819(15) 0.6596(2) 0.57901(15)
H11 H 0.455148 0.782147 0.575540
C8 C 0.29600(16) 0.2459(2) 0.47805(15)
H12 H 0.258190 0.282993 0.401381
H13 H 0.237922 0.210145 0.510445
H14 H 0.347033 0.145351 0.480032
C9 C 0.59114(15) 0.5874(2) 0.76034(15)
H15 H 0.653839 0.505184 0.764107
H16 H 0.570992 0.576565 0.827655
H17 H 0.615561 0.709483 0.753490
loop_
_geom_bond_atom_site_label_1
_geom_bond_atom_site_label_2
_geom_bond_site_symmetry_1
_geom_bond_site_symmetry_2
S1 B1 1_555 1_555
B1 C1 1_555 1_555
C1 C2 1_555 1_555
C2 H1 1_555 1_555
H2 C2 1_555 1_555
H3 C2 1_555 1_555
C3 C1 1_555 1_555
H4 C3 1_555 1_555
H5 C3 1_555 1_555
H6 C3 1_555 1_555
C4 C1 1_555 1_555
H7 C4 1_555 1_555
H8 C4 1_555 1_555
H9 C4 1_555 1_555
C5 B1 1_555 1_555
N1 C5 1_555 1_555
C6 N1 1_555 1_555
H10 C6 1_555 1_555
N2 C5 1_555 1_555
C7 C6 1_555 1_555
H11 C7 1_555 1_555
C8 N1 1_555 1_555
H12 C8 1_555 1_555
H13 C8 1_555 1_555
H14 C8 1_555 1_555
C9 N2 1_555 1_555
H15 C9 1_555 1_555
H16 C9 1_555 1_555
H17 C9 1_555 1_555
N2 C7 1_555 1_555

#END
