
#######################################################################
#
#                 Cambridge Crystallographic Data Centre
#                                CCDC 
#
#######################################################################
#
# If this CIF has been generated from an entry in the Cambridge 
# Structural Database, then it will include bibliographic, chemical, 
# crystal, experimental, refinement or atomic coordinate data resulting 
# from the CCDC's data processing and validation procedures.
#
#######################################################################

data_FINPOH
_chemical_compound_source        'Cissampelos pareira L. (Menspermaceae)'
_chemical_formula_moiety         'C38 H42 N2 O6'
_chemical_name_systematic        Cycleanine
_chemical_properties_biological  'hypotensive drug'
_symmetry_cell_setting           orthorhombic
_symmetry_space_group_name_H-M   'P 21 21 21'
_symmetry_Int_Tables_number      19
_space_group_name_Hall           'P 2ac 2ab'
loop_
_symmetry_equiv_pos_site_id
_symmetry_equiv_pos_as_xyz
1 x,y,z
2 1/2+x,1/2-y,-z
3 -x,1/2+y,1/2-z
4 1/2-x,-y,1/2+z
_cell_length_a                   27.811(3)
_cell_length_b                   11.317(1)
_cell_length_c                   10.135(1)
_cell_angle_alpha                90
_cell_angle_beta                 90
_cell_angle_gamma                90
_cell_volume                     3189.86
_exptl_crystal_colour            colorless
_cell_formula_units_Z            4
loop_
_atom_site_label
_atom_site_type_symbol
_atom_site_fract_x
_atom_site_fract_y
_atom_site_fract_z
O1 O 0.1781(2) 0.1364(6) 0.8074(7)
O2 O -0.0944(2) 0.3124(6) 0.8623(6)
O3 O -0.1629(3) 0.1918(7) 1.0071(7)
O4 O 0.1176(2) 0.2936(5) 0.9347(6)
O5 O 0.2267(2) -0.0276(7) 0.9469(7)
O6 O -0.2163(3) 0.0164(7) 0.8912(9)
N1 N -0.1040(3) 0.2874(7) 0.4608(8)
N2 N 0.1291(3) 0.3156(8) 1.3366(9)
C1 C 0.1704(3) 0.1264(8) 0.9391(10)
C2 C 0.1404(3) 0.2035(9) 1.0060(9)
C3 C 0.1320(3) 0.1995(8) 1.1421(9)
C4 C 0.1580(3) 0.1126(9) 1.2136(10)
C5 C 0.1900(3) 0.0352(8) 1.1510(10)
C6 C 0.1958(3) 0.0410(8) 1.0141(10)
C7 C -0.1202(3) 0.2204(9) 0.8037(10)
C8 C -0.1119(3) 0.1937(8) 0.6705(9)
C9 C -0.1406(3) 0.1084(9) 0.6133(10)
C10 C -0.1760(4) 0.0437(9) 0.6817(11)
C11 C -0.1825(4) 0.0724(10) 0.8113(12)
C12 C -0.1555(4) 0.1644(9) 0.8754(10)
C13 C 0.0822(3) 0.2642(8) 0.8431(9)
C14 C 0.0681(3) 0.3557(8) 0.7564(10)
C15 C 0.0319(3) 0.3289(8) 0.6668(9)
C16 C 0.0098(3) 0.2187(8) 0.6592(9)
C17 C 0.0244(3) 0.1319(8) 0.7458(10)
C18 C 0.0614(3) 0.1531(8) 0.8398(10)
C19 C -0.0603(3) 0.2867(9) 0.9599(9)
C20 C -0.0498(4) 0.1743(9) 1.0055(10)
C21 C -0.0134(3) 0.1606(9) 1.0982(11)
C22 C 0.0129(3) 0.2517(9) 1.1443(10)
C23 C 0.0025(3) 0.3686(9) 1.0976(10)
C24 C -0.0349(3) 0.3862(9) 1.0030(10)
C25 C -0.0298(3) 0.1943(8) 0.5607(9)
C26 C 0.0509(3) 0.2362(10) 1.2514(10)
C27 C 0.1014(3) 0.2841(9) 1.2131(10)
C28 C 0.1349(4) 0.2147(11) 1.4287(11)
C29 C 0.1513(4) 0.1046(10) 1.3597(10)
C30 C 0.1164(7) 0.4269(16) 1.3852(17)
C31 C -0.0771(3) 0.2622(8) 0.5847(9)
C32 C -0.1151(4) 0.1842(10) 0.3852(12)
C33 C -0.1309(4) 0.0773(10) 0.4672(11)
C34 C -0.0805(4) 0.3813(9) 0.3801(11)
C35 C 0.1656(4) 0.0334(10) 0.7289(12)
C36 C 0.2291(4) -0.1504(10) 0.9885(13)
C37 C -0.2401(5) -0.0815(11) 0.8406(16)
C38 C -0.2022(5) 0.2746(12) 1.0321(14)
loop_
_geom_bond_atom_site_label_1
_geom_bond_atom_site_label_2
_geom_bond_site_symmetry_1
_geom_bond_site_symmetry_2
O1 C1 1_555 1_555
O2 C7 1_555 1_555
O3 C12 1_555 1_555
O4 C2 1_555 1_555
O5 C6 1_555 1_555
O6 C11 1_555 1_555
N1 C31 1_555 1_555
N2 C27 1_555 1_555
C1 C2 1_555 1_555
C2 C3 1_555 1_555
C3 C4 1_555 1_555
C4 C5 1_555 1_555
C5 C6 1_555 1_555
C6 C1 1_555 1_555
C7 C8 1_555 1_555
C8 C9 1_555 1_555
C9 C10 1_555 1_555
C10 C11 1_555 1_555
C11 C12 1_555 1_555
C12 C7 1_555 1_555
C13 O4 1_555 1_555
C14 C13 1_555 1_555
C15 C14 1_555 1_555
C16 C15 1_555 1_555
C17 C16 1_555 1_555
C18 C13 1_555 1_555
C19 O2 1_555 1_555
C20 C19 1_555 1_555
C21 C20 1_555 1_555
C22 C21 1_555 1_555
C23 C22 1_555 1_555
C24 C19 1_555 1_555
C25 C16 1_555 1_555
C26 C22 1_555 1_555
C27 C3 1_555 1_555
C28 N2 1_555 1_555
C29 C4 1_555 1_555
C30 N2 1_555 1_555
C31 C8 1_555 1_555
C32 N1 1_555 1_555
C33 C9 1_555 1_555
C34 N1 1_555 1_555
C35 O1 1_555 1_555
C36 O5 1_555 1_555
C37 O6 1_555 1_555
C38 O3 1_555 1_555
C17 C18 1_555 1_555
C23 C24 1_555 1_555
C25 C31 1_555 1_555
C26 C27 1_555 1_555
C28 C29 1_555 1_555
C32 C33 1_555 1_555

#END
