
#######################################################################
#
#                 Cambridge Crystallographic Data Centre
#                                CCDC 
#
#######################################################################
#
# If this CIF has been generated from an entry in the Cambridge 
# Structural Database, then it will include bibliographic, chemical, 
# crystal, experimental, refinement or atomic coordinate data resulting 
# from the CCDC's data processing and validation procedures.
#
#######################################################################

data_FINREB
_chemical_formula_moiety         'C5 H16 B10'
_chemical_name_systematic        
1,2-(Propane-1,3-diyl)-1,2-dicarba-closo-dodecaborane
_symmetry_cell_setting           orthorhombic
_symmetry_space_group_name_H-M   'C 2 c b'
_symmetry_Int_Tables_number      41
_space_group_name_Hall           'C -2bc 2'
loop_
_symmetry_equiv_pos_site_id
_symmetry_equiv_pos_as_xyz
1 x,y,z
2 x,1/2+y,1/2-z
3 x,-y,-z
4 x,1/2-y,1/2+z
5 1/2+x,1/2+y,z
6 1/2+x,y,1/2-z
7 1/2+x,1/2-y,-z
8 1/2+x,-y,1/2+z
_cell_length_a                   12.0681(13)
_cell_length_b                   9.9786(13)
_cell_length_c                   9.8394(10)
_cell_angle_alpha                90
_cell_angle_beta                 90
_cell_angle_gamma                90
_cell_volume                     1184.89
_cell_formula_units_Z            4
loop_
_atom_site_label
_atom_site_type_symbol
_atom_site_fract_x
_atom_site_fract_y
_atom_site_fract_z
C1 C 0.6571(4) 0.4370(4) 0.5526(4)
C2 C 0.7770(4) 0.4053(6) 0.5805(5)
H1 H 0.7927 0.4154 0.6767
H2 H 0.7933 0.3137 0.5544
B1 B 0.6209(4) 0.5914(4) 0.6122(4)
H3 H 0.6704 0.6503 0.6847
B2 B 0.4767(4) 0.5919(5) 0.6118(5)
H4 H 0.4290 0.6522 0.6849
B3 B 0.5476(5) 0.6667(3) 0.4769(4)
H5 H 0.5480 0.7759 0.4613
B4 B 0.5476(5) 0.5536(4) 0.3383(3)
H6 H 0.5481 0.5893 0.2325
C3 C 0.8459(7) 0.5000 0.5000
H7 H 0.8932 0.4495 0.4389
B5 B 0.4326(4) 0.5684(6) 0.4416(5)
H8 H 0.3555 0.6132 0.4029
C1B C 0.6571(4) 0.5630(4) 0.4474(4)
C2B C 0.7770(4) 0.5947(6) 0.4195(5)
H1B H 0.7927 0.5846 0.3233
H2B H 0.7933 0.6863 0.4456
B1B B 0.6209(4) 0.4086(4) 0.3878(4)
H3B H 0.6704 0.3497 0.3153
B2B B 0.4767(4) 0.4081(5) 0.3882(5)
H4B H 0.4290 0.3478 0.3151
B3B B 0.5476(5) 0.3333(3) 0.5231(4)
H5B H 0.5480 0.2241 0.5387
B4B B 0.5476(5) 0.4464(4) 0.6617(3)
H6B H 0.5481 0.4107 0.7675
H7B H 0.8932 0.5505 0.5611
B5B B 0.4326(4) 0.4316(6) 0.5584(5)
H8B H 0.3555 0.3868 0.5971
H9? H 0.8932 0.4495 0.4389
loop_
_geom_bond_atom_site_label_1
_geom_bond_atom_site_label_2
_geom_bond_site_symmetry_1
_geom_bond_site_symmetry_2
C1 C2 1_555 1_555
C2 H1 1_555 1_555
H2 C2 1_555 1_555
B1 C1 1_555 1_555
H3 B1 1_555 1_555
B2 B1 1_555 1_555
H4 B2 1_555 1_555
B3 B1 1_555 1_555
H5 B3 1_555 1_555
B4 B3 1_555 1_555
H6 B4 1_555 1_555
C3 C2 1_555 1_555
H7 C3 1_555 1_555
B5 B2 1_555 1_555
H8 B5 1_555 1_555
C1B C1 1_555 1_555
C2B C3 1_555 1_555
H1B C2B 1_555 1_555
H2B C2B 1_555 1_555
B1B C1 1_555 1_555
H3B B1B 1_555 1_555
B2B B4 1_555 1_555
H4B B2B 1_555 1_555
B3B C1 1_555 1_555
H5B B3B 1_555 1_555
B4B C1 1_555 1_555
H6B B4B 1_555 1_555
H7B C3 1_555 1_555
B5B B2 1_555 1_555
H8B B5B 1_555 1_555
B1 C1B 1_555 1_555
B1 B4B 1_555 1_555
B2 B3 1_555 1_555
B2 B4B 1_555 1_555
B3 B5 1_555 1_555
B3 C1B 1_555 1_555
B4 B5 1_555 1_555
B4 C1B 1_555 1_555
B4 B1B 1_555 1_555
B5 B2B 1_555 1_555
B5 B5B 1_555 1_555
C1B C2B 1_555 1_555
C1B B1B 1_555 1_555
B1B B2B 1_555 1_555
B1B B3B 1_555 1_555
B2B B3B 1_555 1_555
B2B B5B 1_555 1_555
B3B B4B 1_555 1_555
B3B B5B 1_555 1_555
B4B B5B 1_555 1_555

#END
