
#######################################################################
#
#                 Cambridge Crystallographic Data Centre
#                                CCDC 
#
#######################################################################
#
# If this CIF has been generated from an entry in the Cambridge 
# Structural Database, then it will include bibliographic, chemical, 
# crystal, experimental, refinement or atomic coordinate data resulting 
# from the CCDC's data processing and validation procedures.
#
#######################################################################

data_FINREZ
_chemical_formula_moiety         'C14 H22 N2 O3 P2 S1'
_chemical_name_systematic        
1,3-Di-isopropyl-2-phenyl-4-methoxy-4,5-dioxo-2-thio-1,3,2,4-diazadiphospholane
_symmetry_cell_setting           monoclinic
_symmetry_space_group_name_H-M   'P 21/c'
_symmetry_Int_Tables_number      14
_space_group_name_Hall           '-P 2ybc'
loop_
_symmetry_equiv_pos_site_id
_symmetry_equiv_pos_as_xyz
1 x,y,z
2 -x,1/2+y,1/2-z
3 -x,-y,-z
4 x,1/2-y,1/2+z
_cell_length_a                   8.432(1)
_cell_length_b                   11.735(3)
_cell_length_c                   18.254(4)
_cell_angle_alpha                90
_cell_angle_beta                 93.25(2)
_cell_angle_gamma                90
_cell_volume                     1803.32
_cell_formula_units_Z            4
loop_
_atom_site_label
_atom_site_type_symbol
_atom_site_fract_x
_atom_site_fract_y
_atom_site_fract_z
P1 P 0.2710(1) 0.25093(8) 0.90386(5)
P2 P 0.5604(1) 0.16291(9) 0.85591(5)
S1 S 0.1384(1) 0.34918(9) 0.84217(5)
O1 O 0.4080(3) -0.0363(2) 0.8354(2)
O2 O 0.5587(3) 0.1989(3) 0.7726(1)
O3 O 0.7138(3) 0.1248(2) 0.8875(2)
N1 N 0.2627(3) 0.1098(2) 0.8822(1)
N2 N 0.4684(3) 0.2653(2) 0.8991(2)
C1 C 0.3967(4) 0.0616(3) 0.8563(2)
C2 C 0.2301(4) 0.2602(3) 0.9996(2)
C3 C 0.3167(4) 0.1955(3) 1.0515(2)
C4 C 0.2856(5) 0.2037(3) 1.1246(2)
C5 C 0.1691(5) 0.2757(3) 1.1461(2)
C6 C 0.0826(4) 0.3401(3) 1.0952(2)
C7 C 0.1130(4) 0.3329(3) 1.0219(2)
C8 C 0.1095(4) 0.0462(3) 0.8851(2)
C9 C 0.0451(5) 0.0133(4) 0.8089(2)
C10 C 0.1294(5) -0.0551(4) 0.9364(2)
C11 C 0.5439(4) 0.3767(3) 0.9214(2)
C12 C 0.6148(7) 0.4355(5) 0.8568(3)
C13 C 0.6634(6) 0.3598(4) 0.9851(3)
C14 C 0.6874(6) 0.1852(5) 0.7259(3)
loop_
_geom_bond_atom_site_label_1
_geom_bond_atom_site_label_2
_geom_bond_site_symmetry_1
_geom_bond_site_symmetry_2
P1 S1 1_555 1_555
P2 O2 1_555 1_555
O1 C1 1_555 1_555
O2 C14 1_555 1_555
O3 P2 1_555 1_555
N1 P1 1_555 1_555
N2 P1 1_555 1_555
C1 P2 1_555 1_555
C2 P1 1_555 1_555
C3 C2 1_555 1_555
C4 C3 1_555 1_555
C5 C4 1_555 1_555
C6 C5 1_555 1_555
C7 C2 1_555 1_555
C8 N1 1_555 1_555
C9 C8 1_555 1_555
C10 C8 1_555 1_555
C11 N2 1_555 1_555
C12 C11 1_555 1_555
C13 C11 1_555 1_555
P2 N2 1_555 1_555
N1 C1 1_555 1_555
C6 C7 1_555 1_555

#END
