
#######################################################################
#
#                 Cambridge Crystallographic Data Centre
#                                CCDC 
#
#######################################################################
#
# If this CIF has been generated from an entry in the Cambridge 
# Structural Database, then it will include bibliographic, chemical, 
# crystal, experimental, refinement or atomic coordinate data resulting 
# from the CCDC's data processing and validation procedures.
#
#######################################################################

data_FIPDOX04
_chemical_formula_moiety         'C18 H15 B3 O3'
_chemical_name_systematic        2,4,6-triphenyl-1,3,5,2,4,6-trioxatriborinane
_symmetry_cell_setting           monoclinic
_symmetry_space_group_name_H-M   'P 21/c'
_symmetry_Int_Tables_number      14
_space_group_name_Hall           '-P 2ybc'
loop_
_symmetry_equiv_pos_site_id
_symmetry_equiv_pos_as_xyz
1 x,y,z
2 -x,1/2+y,1/2-z
3 -x,-y,-z
4 x,1/2-y,1/2+z
_cell_length_a                   10.6824(5)
_cell_length_b                   13.2062(7)
_cell_length_c                   11.5423(7)
_cell_angle_alpha                90
_cell_angle_beta                 99.843(6)
_cell_angle_gamma                90
_cell_volume                     1604.35
_exptl_crystal_colour            colorless
_exptl_crystal_description       block
_cell_formula_units_Z            4
loop_
_atom_site_label
_atom_site_type_symbol
_atom_site_fract_x
_atom_site_fract_y
_atom_site_fract_z
O1 O 0.85271(10) 0.46576(8) 0.72387(9)
O2 O 0.74456(10) 0.50360(8) 0.53064(9)
O3 O 0.67770(10) 0.57956(9) 0.69709(9)
C1 C 0.75858(14) 0.51565(12) 0.90427(13)
C2 C 0.66141(14) 0.56372(13) 0.95070(14)
H1 H 0.6000 0.6006 0.9013
C3 C 0.65559(15) 0.55697(13) 1.06967(14)
H2 H 0.5899 0.5884 1.0994
C4 C 0.74775(15) 0.50338(13) 1.14406(14)
H3 H 0.7445 0.4998 1.2240
C5 C 0.84467(15) 0.45508(13) 1.10009(14)
H4 H 0.9066 0.4193 1.1503
C6 C 0.84902(14) 0.46034(12) 0.98074(14)
H5 H 0.9131 0.4265 0.9512
C7 C 0.93464(14) 0.38465(12) 0.55176(13)
C8 C 1.04360(15) 0.34586(12) 0.62156(14)
H6 H 1.0616 0.3631 0.7008
C9 C 1.12568(15) 0.28217(13) 0.57523(15)
H7 H 1.1978 0.2570 0.6232
C10 C 1.09999(16) 0.25615(13) 0.45716(15)
H8 H 1.1546 0.2133 0.4258
C11 C 0.99295(17) 0.29412(14) 0.38637(15)
H9 H 0.9756 0.2766 0.3072
C12 C 0.91151(16) 0.35796(13) 0.43257(14)
H10 H 0.8403 0.3836 0.3837
C13 C 0.55867(14) 0.62712(12) 0.49560(13)
C14 C 0.53380(15) 0.61140(13) 0.37370(14)
H11 H 0.5836 0.5660 0.3399
C15 C 0.43609(15) 0.66252(13) 0.30293(14)
H12 H 0.4200 0.6505 0.2224
C16 C 0.36252(15) 0.73131(13) 0.35167(15)
H13 H 0.2977 0.7661 0.3038
C17 C 0.38553(16) 0.74836(13) 0.47216(15)
H14 H 0.3364 0.7948 0.5052
C18 C 0.48193(15) 0.69590(13) 0.54292(14)
H15 H 0.4958 0.7067 0.6237
B1 B 0.76377(16) 0.52121(14) 0.77054(16)
B2 B 0.84155(17) 0.45418(14) 0.60337(16)
B3 B 0.66444(17) 0.56812(14) 0.57651(16)
loop_
_geom_bond_atom_site_label_1
_geom_bond_atom_site_label_2
_geom_bond_site_symmetry_1
_geom_bond_site_symmetry_2
O1 B1 1_555 1_555
O2 B2 1_555 1_555
O3 B1 1_555 1_555
C1 C2 1_555 1_555
C2 H1 1_555 1_555
C3 C2 1_555 1_555
H2 C3 1_555 1_555
C4 C3 1_555 1_555
H3 C4 1_555 1_555
C5 C4 1_555 1_555
H4 C5 1_555 1_555
C6 C1 1_555 1_555
H5 C6 1_555 1_555
C7 C8 1_555 1_555
C8 H6 1_555 1_555
C9 C8 1_555 1_555
H7 C9 1_555 1_555
C10 C9 1_555 1_555
H8 C10 1_555 1_555
C11 C10 1_555 1_555
H9 C11 1_555 1_555
C12 C7 1_555 1_555
H10 C12 1_555 1_555
C13 C14 1_555 1_555
C14 H11 1_555 1_555
C15 C14 1_555 1_555
H12 C15 1_555 1_555
C16 C15 1_555 1_555
H13 C16 1_555 1_555
C17 C16 1_555 1_555
H14 C17 1_555 1_555
C18 C13 1_555 1_555
H15 C18 1_555 1_555
B1 C1 1_555 1_555
B2 O1 1_555 1_555
B3 O2 1_555 1_555
O3 B3 1_555 1_555
C5 C6 1_555 1_555
C7 B2 1_555 1_555
C11 C12 1_555 1_555
C13 B3 1_555 1_555
C17 C18 1_555 1_555

#END
