
#######################################################################
#
#                 Cambridge Crystallographic Data Centre
#                                CCDC 
#
#######################################################################
#
# If this CIF has been generated from an entry in the Cambridge 
# Structural Database, then it will include bibliographic, chemical, 
# crystal, experimental, refinement or atomic coordinate data resulting 
# from the CCDC's data processing and validation procedures.
#
#######################################################################

data_FIPPEB
_chemical_formula_moiety         'C16 H17 N1 O3 S1'
_chemical_name_systematic        
'Ethyl 4-benzoyl-5-(ethylsulfanyl)-1H-pyrrole-2-carboxylate'
_symmetry_cell_setting           monoclinic
_symmetry_space_group_name_H-M   'P 21/c'
_symmetry_Int_Tables_number      14
_space_group_name_Hall           '-P 2ybc'
loop_
_symmetry_equiv_pos_site_id
_symmetry_equiv_pos_as_xyz
1 x,y,z
2 -x,1/2+y,1/2-z
3 -x,-y,-z
4 x,1/2-y,1/2+z
_cell_length_a                   15.908(4)
_cell_length_b                   5.9035(14)
_cell_length_c                   16.411(4)
_cell_angle_alpha                90
_cell_angle_beta                 102.783(4)
_cell_angle_gamma                90
_cell_volume                     1503.01
_exptl_crystal_colour            colorless
_exptl_crystal_description       needle
_cell_formula_units_Z            4
loop_
_atom_site_label
_atom_site_type_symbol
_atom_site_fract_x
_atom_site_fract_y
_atom_site_fract_z
C1 C 0.16068(13) -0.0913(3) 0.71505(12)
C2 C 0.10184(15) -0.2640(4) 0.71455(14)
H1 H 0.1198 -0.3973 0.7433
C3 C 0.01756(16) -0.2425(4) 0.67250(16)
H2 H -0.0215 -0.3585 0.6745
C4 C -0.00906(15) -0.0498(4) 0.62751(15)
H3 H -0.0658 -0.0368 0.5976
C5 C 0.04841(15) 0.1250(4) 0.62656(15)
H4 H 0.0305 0.2552 0.5957
C6 C 0.13257(14) 0.1063(4) 0.67149(13)
H5 H 0.1706 0.2266 0.6726
C7 C 0.25372(14) -0.1286(3) 0.75511(12)
C8 C 0.30047(12) 0.0365(3) 0.81369(11)
C9 C 0.26855(13) 0.2238(3) 0.85119(12)
H6 H 0.2111 0.2673 0.8428
C10 C 0.33683(13) 0.3297(3) 0.90180(11)
C11 C 0.38990(12) 0.0337(3) 0.84358(11)
C12 C 0.56303(12) -0.0622(4) 0.87591(13)
H7 H 0.5725 0.0936 0.8614
H8 H 0.5643 -0.0693 0.9352
C13 C 0.63245(14) -0.2134(4) 0.85529(14)
H9 H 0.6879 -0.1639 0.8861
H10 H 0.6306 -0.2052 0.7965
H11 H 0.6228 -0.3669 0.8702
C14 C 0.34060(13) 0.5249(3) 0.95626(12)
C15 C 0.25742(14) 0.7986(3) 1.00801(13)
H12 H 0.2917 0.9213 0.9930
H13 H 0.2800 0.7604 1.0662
C16 C 0.16500(15) 0.8689(4) 0.99483(17)
H14 H 0.1606 0.9984 1.0290
H15 H 0.1318 0.7464 1.0099
H16 H 0.1434 0.9069 0.9371
N1 N 0.41080(12) 0.2121(3) 0.89626(10)
O1 O 0.28868(10) -0.2995(3) 0.73619(10)
O2 O 0.40619(9) 0.6063(2) 0.99797(9)
O3 O 0.26099(8) 0.6032(2) 0.95555(8)
S1 S 0.46059(3) -0.16049(9) 0.81662(3)
H17 H 0.4587(14) 0.257(4) 0.9189(13)
loop_
_geom_bond_atom_site_label_1
_geom_bond_atom_site_label_2
_geom_bond_site_symmetry_1
_geom_bond_site_symmetry_2
C1 C2 1_555 1_555
C2 H1 1_555 1_555
C3 C2 1_555 1_555
H2 C3 1_555 1_555
C4 C3 1_555 1_555
H3 C4 1_555 1_555
C5 C4 1_555 1_555
H4 C5 1_555 1_555
C6 C1 1_555 1_555
H5 C6 1_555 1_555
C7 C1 1_555 1_555
C8 C7 1_555 1_555
C9 C8 1_555 1_555
H6 C9 1_555 1_555
C10 C9 1_555 1_555
C11 C8 1_555 1_555
C12 H7 1_555 1_555
H8 C12 1_555 1_555
C13 C12 1_555 1_555
H9 C13 1_555 1_555
H10 C13 1_555 1_555
H11 C13 1_555 1_555
C14 C10 1_555 1_555
C15 H12 1_555 1_555
H13 C15 1_555 1_555
C16 C15 1_555 1_555
H14 C16 1_555 1_555
H15 C16 1_555 1_555
H16 C16 1_555 1_555
N1 C10 1_555 1_555
O1 C7 1_555 1_555
O2 C14 1_555 1_555
O3 C14 1_555 1_555
S1 C11 1_555 1_555
H17 N1 1_555 1_555
C5 C6 1_555 1_555
C11 N1 1_555 1_555
C12 S1 1_555 1_555
C15 O3 1_555 1_555

#END
