
#######################################################################
#
#                 Cambridge Crystallographic Data Centre
#                                CCDC 
#
#######################################################################
#
# If this CIF has been generated from an entry in the Cambridge 
# Structural Database, then it will include bibliographic, chemical, 
# crystal, experimental, refinement or atomic coordinate data resulting 
# from the CCDC's data processing and validation procedures.
#
#######################################################################

data_FIQTIJ
_chemical_formula_moiety         'C8 H7 N1 O2 S1'
_chemical_name_systematic        
'(+-)-1-Methyl-1H,3H-1,2-benzisothiazol-3-one 1-oxide'
_symmetry_cell_setting           monoclinic
_symmetry_space_group_name_H-M   'P 21/c'
_symmetry_Int_Tables_number      14
_space_group_name_Hall           '-P 2ybc'
loop_
_symmetry_equiv_pos_site_id
_symmetry_equiv_pos_as_xyz
1 x,y,z
2 -x,1/2+y,1/2-z
3 -x,-y,-z
4 x,1/2-y,1/2+z
_cell_length_a                   8.2041(7)
_cell_length_b                   8.0433(7)
_cell_length_c                   12.2666(10)
_cell_angle_alpha                90
_cell_angle_beta                 102.1290(10)
_cell_angle_gamma                90
_cell_volume                     791.38
_exptl_crystal_colour            colorless
_exptl_crystal_description       prism
_chemical_melting_point          210-211deg.C
_cell_formula_units_Z            4
loop_
_atom_site_label
_atom_site_type_symbol
_atom_site_fract_x
_atom_site_fract_y
_atom_site_fract_z
S1 S 0.29704(5) 0.19570(5) 0.55984(4)
O1 O 0.17476(17) 0.06476(17) 0.54458(13)
N1 N 0.34607(19) 0.2664(2) 0.45117(12)
C1 C 0.3090(2) 0.4339(2) 0.43882(13)
O2 O 0.32947(17) 0.51664(18) 0.35967(10)
C2 C 0.24050(19) 0.5028(2) 0.53430(13)
C3 C 0.1907(2) 0.6632(2) 0.55056(14)
H1 H 0.1977 0.7484 0.4982
C4 C 0.1297(2) 0.6962(2) 0.64607(16)
H2 H 0.0952 0.8059 0.6591
C5 C 0.1184(2) 0.5718(2) 0.72270(15)
H3 H 0.0751 0.5975 0.7867
C6 C 0.1693(2) 0.4106(2) 0.70717(14)
H4 H 0.1628 0.3248 0.7593
C7 C 0.22973(19) 0.3813(2) 0.61234(13)
C8 C 0.4785(2) 0.1288(2) 0.65153(16)
H5 H 0.4523 0.1003 0.7236
H6 H 0.5617 0.2180 0.6619
H7 H 0.5231 0.0307 0.6204
loop_
_geom_bond_atom_site_label_1
_geom_bond_atom_site_label_2
_geom_bond_site_symmetry_1
_geom_bond_site_symmetry_2
S1 O1 1_555 1_555
N1 S1 1_555 1_555
C1 N1 1_555 1_555
O2 C1 1_555 1_555
C2 C1 1_555 1_555
C3 C2 1_555 1_555
H1 C3 1_555 1_555
C4 C3 1_555 1_555
H2 C4 1_555 1_555
C5 C4 1_555 1_555
H3 C5 1_555 1_555
C6 C5 1_555 1_555
H4 C6 1_555 1_555
C7 S1 1_555 1_555
C8 S1 1_555 1_555
H5 C8 1_555 1_555
H6 C8 1_555 1_555
H7 C8 1_555 1_555
C2 C7 1_555 1_555
C6 C7 1_555 1_555

#END
