
#######################################################################
#
#                 Cambridge Crystallographic Data Centre
#                                CCDC 
#
#######################################################################
#
# If this CIF has been generated from an entry in the Cambridge 
# Structural Database, then it will include bibliographic, chemical, 
# crystal, experimental, refinement or atomic coordinate data resulting 
# from the CCDC's data processing and validation procedures.
#
#######################################################################

data_FIQWEI
_chemical_formula_moiety         'C13 H18 N2 O5 S1'
_chemical_name_systematic        
'anti-2-((p-Toluenesulfonyl)amino)cyclohexyl nitrate'
_symmetry_cell_setting           monoclinic
_symmetry_space_group_name_H-M   'P n'
_symmetry_Int_Tables_number      7
_space_group_name_Hall           'P -2yac'
loop_
_symmetry_equiv_pos_site_id
_symmetry_equiv_pos_as_xyz
1 x,y,z
2 1/2+x,-y,1/2+z
_cell_length_a                   12.145(2)
_cell_length_b                   7.518(2)
_cell_length_c                   16.645(3)
_cell_angle_alpha                90
_cell_angle_beta                 96.70(3)
_cell_angle_gamma                90
_cell_volume                     1509.41
_exptl_crystal_colour            colorless
_exptl_crystal_description       block
_chemical_melting_point          '116-117 deg.C'
_cell_formula_units_Z            4
_exptl_crystal_recrystallization_method 'ethyl acetate/petroleum ether'
loop_
_atom_site_label
_atom_site_type_symbol
_atom_site_fract_x
_atom_site_fract_y
_atom_site_fract_z
S1 S 0.48126(16) 0.0480(3) 0.33810(13)
N1 N 0.4565(8) 0.4902(15) 0.1077(6)
N2 N 0.4966(7) 0.2553(14) 0.3149(5)
H1 H 0.4397 0.3314 0.3164
O1 O 0.4209(11) 0.4071(18) 0.0450(6)
O2 O 0.4430(8) 0.6260(13) 0.1257(5)
O3 O 0.5224(7) 0.3691(11) 0.1597(5)
O4 O 0.3660(7) 0.0335(12) 0.3461(6)
O5 O 0.5319(9) -0.0605(10) 0.2807(5)
C1 C 0.5814(10) 0.4590(13) 0.2277(6)
H2 H 0.5386 0.5557 0.2454
C2 C 0.6905(10) 0.5290(16) 0.2013(7)
H3 H 0.6740 0.6170 0.1599
H4 H 0.7296 0.4334 0.1789
C3 C 0.7659(11) 0.6111(17) 0.2741(7)
H5 H 0.7303 0.7150 0.2925
H6 H 0.8345 0.6479 0.2559
C4 C 0.7857(13) 0.469(2) 0.3435(10)
H7 H 0.8216 0.5294 0.3903
H8 H 0.8327 0.3743 0.3294
C5 C 0.6746(9) 0.4050(17) 0.3645(7)
H9 H 0.6345 0.5022 0.3846
H10 H 0.6870 0.3184 0.4070
C6 C 0.6057(7) 0.3281(13) 0.2936(7)
H11 H 0.6428 0.2280 0.2731
C7 C 0.5577(8) 0.0113(15) 0.4362(5)
C8 C 0.6570(10) -0.0633(16) 0.4409(8)
H12 H 0.6878 -0.1023 0.3934
C9 C 0.7128(12) -0.090(2) 0.5186(9)
H13 H 0.7833 -0.1491 0.5258
C10 C 0.6757(9) -0.0311(15) 0.5831(6)
C11 C 0.5722(12) 0.0489(15) 0.5754(8)
H14 H 0.5421 0.0870 0.6234
C12 C 0.5116(8) 0.0681(14) 0.5024(6)
H15 H 0.4405 0.1255 0.4973
C13 C 0.7459(16) -0.045(2) 0.6646(10)
H16 H 0.8139 -0.1033 0.6564
H17 H 0.7621 0.0699 0.6887
H18 H 0.7063 -0.1151 0.6997
S2 S 0.26813(17) 0.5488(3) 0.40191(12)
N3 N 0.2916(8) 0.9738(13) 0.6348(6)
N4 N 0.2518(7) 0.7527(10) 0.4275(5)
H19 H 0.3105 0.8266 0.4322
O6 O 0.3319(10) 0.9090(16) 0.6928(6)
O7 O 0.3041(8) 1.1404(10) 0.6134(5)
O8 O 0.2297(7) 0.8727(10) 0.5823(4)
O9 O 0.2232(9) 0.4409(11) 0.4561(6)
O10 O 0.3823(7) 0.5297(12) 0.3922(6)
C14 C 0.1628(9) 0.9603(14) 0.5137(7)
H20 H 0.2045 1.0571 0.4949
C15 C 0.0582(12) 1.0313(16) 0.5380(8)
H21 H 0.0724 1.1191 0.5797
H22 H 0.0187 0.9344 0.5590
C16 C -0.0123(10) 1.1064(19) 0.4670(8)
H23 H 0.0242 1.2102 0.4493
H24 H -0.0831 1.1420 0.4819
C17 C -0.0312(9) 0.9817(18) 0.3979(8)
H25 H -0.0747 1.0348 0.3523
H26 H -0.0717 0.8815 0.4150
C18 C 0.0773(11) 0.905(2) 0.3743(6)
H27 H 0.1197 1.0029 0.3576
H28 H 0.0644 0.8223 0.3301
C19 C 0.1495(9) 0.8129(14) 0.4470(5)
H29 H 0.1053 0.7185 0.4652
C20 C 0.1965(8) 0.5144(12) 0.3088(7)
C21 C 0.2363(12) 0.5758(17) 0.2393(8)
H30 H 0.3082 0.6306 0.2443
C22 C 0.1794(10) 0.5531(17) 0.1631(7)
H31 H 0.2097 0.5982 0.1165
C23 C 0.0761(13) 0.4728(15) 0.1524(9)
C24 C 0.0316(10) 0.4155(18) 0.2264(8)
H32 H -0.0404 0.3616 0.2239
C25 C 0.0911(12) 0.428(2) 0.2980(9)
H33 H 0.0611 0.3824 0.3447
C26 C 0.0115(10) 0.4476(18) 0.0720(8)
H34 H 0.0544 0.4986 0.0329
H35 H 0.0009 0.3230 0.0611
H36 H -0.0592 0.5057 0.0688
loop_
_geom_bond_atom_site_label_1
_geom_bond_atom_site_label_2
_geom_bond_site_symmetry_1
_geom_bond_site_symmetry_2
S1 N2 1_555 1_555
N1 O1 1_555 1_555
N2 H1 1_555 1_555
O2 N1 1_555 1_555
O3 N1 1_555 1_555
O4 S1 1_555 1_555
O5 S1 1_555 1_555
C1 O3 1_555 1_555
H2 C1 1_555 1_555
C2 C1 1_555 1_555
H3 C2 1_555 1_555
H4 C2 1_555 1_555
C3 C2 1_555 1_555
H5 C3 1_555 1_555
H6 C3 1_555 1_555
C4 C3 1_555 1_555
H7 C4 1_555 1_555
H8 C4 1_555 1_555
C5 C4 1_555 1_555
H9 C5 1_555 1_555
H10 C5 1_555 1_555
C6 N2 1_555 1_555
H11 C6 1_555 1_555
C7 S1 1_555 1_555
C8 C7 1_555 1_555
H12 C8 1_555 1_555
C9 C8 1_555 1_555
H13 C9 1_555 1_555
C10 C9 1_555 1_555
C11 C10 1_555 1_555
H14 C11 1_555 1_555
C12 C7 1_555 1_555
H15 C12 1_555 1_555
C13 C10 1_555 1_555
H16 C13 1_555 1_555
H17 C13 1_555 1_555
H18 C13 1_555 1_555
S2 N4 1_555 1_555
N3 O6 1_555 1_555
N4 H19 1_555 1_555
O7 N3 1_555 1_555
O8 N3 1_555 1_555
O9 S2 1_555 1_555
O10 S2 1_555 1_555
C14 O8 1_555 1_555
H20 C14 1_555 1_555
C15 C14 1_555 1_555
H21 C15 1_555 1_555
H22 C15 1_555 1_555
C16 C15 1_555 1_555
H23 C16 1_555 1_555
H24 C16 1_555 1_555
C17 C16 1_555 1_555
H25 C17 1_555 1_555
H26 C17 1_555 1_555
C18 C17 1_555 1_555
H27 C18 1_555 1_555
H28 C18 1_555 1_555
C19 N4 1_555 1_555
H29 C19 1_555 1_555
C20 S2 1_555 1_555
C21 C20 1_555 1_555
H30 C21 1_555 1_555
C22 C21 1_555 1_555
H31 C22 1_555 1_555
C23 C22 1_555 1_555
C24 C23 1_555 1_555
H32 C24 1_555 1_555
C25 C20 1_555 1_555
H33 C25 1_555 1_555
C26 C23 1_555 1_555
H34 C26 1_555 1_555
H35 C26 1_555 1_555
H36 C26 1_555 1_555
C1 C6 1_555 1_555
C5 C6 1_555 1_555
C11 C12 1_555 1_555
C14 C19 1_555 1_555
C18 C19 1_555 1_555
C24 C25 1_555 1_555

#END
