
#######################################################################
#
#                 Cambridge Crystallographic Data Centre
#                                CCDC 
#
#######################################################################
#
# If this CIF has been generated from an entry in the Cambridge 
# Structural Database, then it will include bibliographic, chemical, 
# crystal, experimental, refinement or atomic coordinate data resulting 
# from the CCDC's data processing and validation procedures.
#
#######################################################################

data_FIQWIM
_chemical_formula_moiety         'C17 H20 N2 O6 S1'
_chemical_name_systematic        
'anti-3-Hydroxy-2-((p-toluenesulfonyl)amino)-1-phenylbutyl nitrate'
_symmetry_cell_setting           monoclinic
_symmetry_space_group_name_H-M   'P c'
_symmetry_Int_Tables_number      7
_space_group_name_Hall           'P -2yc'
loop_
_symmetry_equiv_pos_site_id
_symmetry_equiv_pos_as_xyz
1 x,y,z
2 x,-y,1/2+z
_cell_length_a                   7.656(1)
_cell_length_b                   12.094(2)
_cell_length_c                   10.384(2)
_cell_angle_alpha                90
_cell_angle_beta                 107.97(1)
_cell_angle_gamma                90
_cell_volume                     914.569
_exptl_crystal_colour            colorless
_chemical_melting_point          '121-123 deg.C'
_cell_formula_units_Z            2
_exptl_crystal_recrystallization_method 'ethyl acetate/petroleum ether'
loop_
_atom_site_label
_atom_site_type_symbol
_atom_site_fract_x
_atom_site_fract_y
_atom_site_fract_z
S1 S 0.45990(7) 0.52991(5) 0.19130(6)
O1 O 1.0793(3) 0.66364(16) 0.44705(19)
O2 O 1.3307(3) 0.7529(2) 0.5440(3)
O3 O 1.1049(4) 0.7733(2) 0.6256(2)
O4 O 0.9323(2) 0.44937(19) 0.55496(18)
H1 H 1.0356 0.4663 0.6030
O5 O 0.5362(2) 0.47579(16) 0.09876(17)
O6 O 0.3086(2) 0.48018(16) 0.22358(18)
N1 N 0.6186(3) 0.54401(18) 0.33365(19)
H2 H 0.5862 0.5447 0.4059
N2 N 1.1781(4) 0.7369(2) 0.5480(3)
C1 C 0.7020(4) 0.8366(3) 0.4245(4)
H3 H 0.6841 0.8157 0.5057
C2 C 0.6320(5) 0.9371(3) 0.3640(5)
H4 H 0.5666 0.9830 0.4044
C3 C 0.6600(5) 0.9680(3) 0.2448(5)
H5 H 0.6154 1.0355 0.2052
C4 C 0.7525(5) 0.9003(3) 0.1845(4)
H6 H 0.7704 0.9214 0.1033
C5 C 0.8197(4) 0.8014(3) 0.2422(3)
H7 H 0.8814 0.7554 0.1991
C6 C 0.7976(4) 0.7685(2) 0.3636(3)
C7 C 0.8808(4) 0.6621(2) 0.4293(2)
H8 H 0.8621 0.6559 0.5183
C8 C 0.8145(3) 0.5557(2) 0.3492(3)
H9 H 0.8281 0.5646 0.2590
C9 C 0.9252(4) 0.4545(2) 0.4158(3)
H10 H 1.0508 0.4625 0.4117
C10 C 0.8476(5) 0.3469(3) 0.3483(4)
H11 H 0.7298 0.3338 0.3601
H12 H 0.9293 0.2874 0.3884
H13 H 0.8343 0.3510 0.2534
C11 C 0.3857(3) 0.6619(2) 0.1238(3)
C12 C 0.2981(4) 0.7304(2) 0.1901(3)
H14 H 0.2848 0.7097 0.2728
C13 C 0.2308(4) 0.8298(3) 0.1317(4)
H15 H 0.1728 0.8765 0.1770
C14 C 0.2457(4) 0.8630(3) 0.0092(4)
C15 C 0.3343(4) 0.7930(3) -0.0546(3)
H16 H 0.3477 0.8139 -0.1373
C16 C 0.4037(4) 0.6929(2) 0.0011(3)
H17 H 0.4624 0.6465 -0.0440
C17 C 0.1670(5) 0.9717(3) -0.0545(5)
H18 H 0.1410 0.9672 -0.1509
H19 H 0.2542 1.0298 -0.0194
H20 H 0.0556 0.9872 -0.0337
loop_
_geom_bond_atom_site_label_1
_geom_bond_atom_site_label_2
_geom_bond_site_symmetry_1
_geom_bond_site_symmetry_2
S1 O5 1_555 1_555
O1 N2 1_555 1_555
O2 N2 1_555 1_555
O3 N2 1_555 1_555
O4 H1 1_555 1_555
O6 S1 1_555 1_555
N1 S1 1_555 1_555
H2 N1 1_555 1_555
C1 H3 1_555 1_555
C2 C1 1_555 1_555
H4 C2 1_555 1_555
C3 C2 1_555 1_555
H5 C3 1_555 1_555
C4 C3 1_555 1_555
H6 C4 1_555 1_555
C5 C4 1_555 1_555
H7 C5 1_555 1_555
C6 C1 1_555 1_555
C7 O1 1_555 1_555
H8 C7 1_555 1_555
C8 N1 1_555 1_555
H9 C8 1_555 1_555
C9 O4 1_555 1_555
H10 C9 1_555 1_555
C10 C9 1_555 1_555
H11 C10 1_555 1_555
H12 C10 1_555 1_555
H13 C10 1_555 1_555
C11 S1 1_555 1_555
C12 C11 1_555 1_555
H14 C12 1_555 1_555
C13 C12 1_555 1_555
H15 C13 1_555 1_555
C14 C13 1_555 1_555
C15 C14 1_555 1_555
H16 C15 1_555 1_555
C16 C11 1_555 1_555
H17 C16 1_555 1_555
C17 C14 1_555 1_555
H18 C17 1_555 1_555
H19 C17 1_555 1_555
H20 C17 1_555 1_555
C5 C6 1_555 1_555
C6 C7 1_555 1_555
C7 C8 1_555 1_555
C8 C9 1_555 1_555
C15 C16 1_555 1_555

#END
