
#######################################################################
#
#                 Cambridge Crystallographic Data Centre
#                                CCDC 
#
#######################################################################
#
# If this CIF has been generated from an entry in the Cambridge 
# Structural Database, then it will include bibliographic, chemical, 
# crystal, experimental, refinement or atomic coordinate data resulting 
# from the CCDC's data processing and validation procedures.
#
#######################################################################

data_FIRQED
_chemical_formula_moiety         'C14 H17 N2 O2 1+,C4 H5 O6 1-,2(H2 O1)'
_chemical_name_systematic        
'(1S,6S)-8-Benzyl-7,9-dioxo-2,8-diazabicyclo(4.3.0)nonane (2S,3S)-(-)-tartaric acid clathrate dihydrate'
_symmetry_cell_setting           orthorhombic
_symmetry_space_group_name_H-M   'P 21 21 21'
_symmetry_Int_Tables_number      19
_space_group_name_Hall           'P 2ac 2ab'
loop_
_symmetry_equiv_pos_site_id
_symmetry_equiv_pos_as_xyz
1 x,y,z
2 1/2-x,-y,1/2+z
3 -x,1/2+y,1/2-z
4 1/2+x,1/2-y,-z
_cell_length_a                   7.0751(6)
_cell_length_b                   11.3427(8)
_cell_length_c                   26.268(2)
_cell_angle_alpha                90
_cell_angle_beta                 90
_cell_angle_gamma                90
_cell_volume                     2108.03
_exptl_crystal_colour            colorless
_exptl_crystal_description       block
_cell_formula_units_Z            4
_exptl_crystal_recrystallization_method ethanol/acetonitrile/water
loop_
_atom_site_label
_atom_site_type_symbol
_atom_site_fract_x
_atom_site_fract_y
_atom_site_fract_z
O1 O 0.4331(6) 1.0023(3) 0.38488(14)
O2 O 1.0147(6) 0.8932(5) 0.43999(17)
N1 N 0.7403(7) 0.9785(4) 0.41227(14)
N2 N 0.4424(7) 0.7542(4) 0.36092(16)
H1 H 0.4626 0.6979 0.3374
H2 H 0.3493 0.8009 0.3491
C1 C 0.8639(13) 1.1489(6) 0.5220(3)
H3 H 0.9813 1.1725 0.5098
C2 C 0.8233(16) 1.1583(9) 0.5738(3)
H4 H 0.9142 1.1879 0.5960
C3 C 0.6528(19) 1.1249(8) 0.5921(3)
H5 H 0.6254 1.1332 0.6265
C4 C 0.5230(15) 1.0796(7) 0.5602(3)
H6 H 0.4071 1.0545 0.5729
C5 C 0.5604(12) 1.0699(6) 0.5083(3)
H7 H 0.4690 1.0394 0.4865
C6 C 0.7313(10) 1.1051(4) 0.4893(2)
C7 C 0.7721(10) 1.0967(5) 0.4335(2)
H8 H 0.6927 1.1526 0.4155
H9 H 0.9027 1.1190 0.4276
C8 C 0.8645(8) 0.8865(5) 0.41873(18)
C9 C 0.7683(8) 0.7760(5) 0.39937(18)
H10 H 0.8564 0.7270 0.3799
C10 C 0.6905(10) 0.7088(5) 0.4455(2)
H11 H 0.7919 0.6637 0.4609
H12 H 0.6456 0.7651 0.4706
C11 C 0.5328(10) 0.6273(5) 0.4317(2)
H13 H 0.4875 0.5872 0.4620
H14 H 0.5777 0.5683 0.4079
C12 C 0.3751(10) 0.6965(5) 0.4081(2)
H15 H 0.2703 0.6444 0.4003
H16 H 0.3308 0.7558 0.4319
C13 C 0.6135(8) 0.8247(4) 0.36540(16)
H17 H 0.6661 0.8356 0.3312
C14 C 0.5755(8) 0.9466(4) 0.38818(17)
O3 O 0.0375(5) 0.0893(3) 0.30283(15)
O4 O 0.0356(5) 0.2764(3) 0.27923(14)
O5 O 0.3998(5) 0.2936(3) 0.27255(16)
H18 H 0.3108 0.3388 0.2683
O6 O 0.3246(5) 0.1050(3) 0.20336(13)
H19 H 0.3059 0.0409 0.1898
O7 O 0.7036(5) 0.0965(4) 0.21226(15)
O8 O 0.6893(5) 0.0697(4) 0.29516(15)
H20 H 0.7977 0.0953 0.2952
C15 C 0.1145(6) 0.1830(4) 0.28987(17)
C16 C 0.3304(7) 0.1816(4) 0.28827(18)
H21 H 0.3780 0.1650 0.3226
C17 C 0.4027(6) 0.0875(4) 0.25255(17)
H22 H 0.3588 0.0110 0.2652
C18 C 0.6157(7) 0.0846(4) 0.25070(19)
O9 O 0.2820(7) 0.8785(4) 0.17203(17)
H23 H 0.198(9) 0.842(5) 0.184(2)
H24 H 0.393(9) 0.861(5) 0.189(2)
O10 O 0.1221(7) 0.8520(4) 0.31805(16)
H25 H 0.092(8) 0.824(5) 0.290(2)
H26 H 0.083(9) 0.920(6) 0.316(2)
loop_
_geom_bond_atom_site_label_1
_geom_bond_atom_site_label_2
_geom_bond_site_symmetry_1
_geom_bond_site_symmetry_2
O1 C14 1_555 1_555
O2 C8 1_555 1_555
N1 C7 1_555 1_555
N2 H1 1_555 1_555
H2 N2 1_555 1_555
C1 H3 1_555 1_555
C2 C1 1_555 1_555
H4 C2 1_555 1_555
C3 C2 1_555 1_555
H5 C3 1_555 1_555
C4 C3 1_555 1_555
H6 C4 1_555 1_555
C5 C4 1_555 1_555
H7 C5 1_555 1_555
C6 C1 1_555 1_555
C7 C6 1_555 1_555
H8 C7 1_555 1_555
H9 C7 1_555 1_555
C8 N1 1_555 1_555
C9 C8 1_555 1_555
H10 C9 1_555 1_555
C10 C9 1_555 1_555
H11 C10 1_555 1_555
H12 C10 1_555 1_555
C11 C10 1_555 1_555
H13 C11 1_555 1_555
H14 C11 1_555 1_555
C12 N2 1_555 1_555
H15 C12 1_555 1_555
H16 C12 1_555 1_555
C13 N2 1_555 1_555
H17 C13 1_555 1_555
C14 N1 1_555 1_555
O3 C15 1_555 1_555
O4 C15 1_555 1_555
O5 H18 1_555 1_555
O6 H19 1_555 1_555
O7 C18 1_555 1_555
O8 H20 1_555 1_555
C15 C16 1_555 1_555
C16 O5 1_555 1_555
H21 C16 1_555 1_555
C17 O6 1_555 1_555
H22 C17 1_555 1_555
C18 O8 1_555 1_555
O9 H23 1_555 1_555
H24 O9 1_555 1_555
O10 H25 1_555 1_555
H26 O10 1_555 1_555
C5 C6 1_555 1_555
C9 C13 1_555 1_555
C11 C12 1_555 1_555
C13 C14 1_555 1_555
C16 C17 1_555 1_555
C17 C18 1_555 1_555

#END
