
#######################################################################
#
#                 Cambridge Crystallographic Data Centre
#                                CCDC 
#
#######################################################################
#
# If this CIF has been generated from an entry in the Cambridge 
# Structural Database, then it will include bibliographic, chemical, 
# crystal, experimental, refinement or atomic coordinate data resulting 
# from the CCDC's data processing and validation procedures.
#
#######################################################################

data_FIRZAH
_chemical_formula_moiety         'C21 H18 Cl1 N3 O5 S1'
_chemical_name_systematic        
2-(N,N-Dibenzylsulfamyl)-3-(2-chloro-5-nitrophenyl)oxaziridine
_symmetry_cell_setting           triclinic
_symmetry_space_group_name_H-M   'P -1'
_symmetry_Int_Tables_number      2
_space_group_name_Hall           '-P 1'
loop_
_symmetry_equiv_pos_site_id
_symmetry_equiv_pos_as_xyz
1 x,y,z
2 -x,-y,-z
_cell_length_a                   11.092(4)
_cell_length_b                   15.246(6)
_cell_length_c                   6.866(3)
_cell_angle_alpha                95.88(3)
_cell_angle_beta                 90.75(3)
_cell_angle_gamma                111.49(3)
_cell_volume                     1073.09
_chemical_melting_point          130-132deg.C
_cell_formula_units_Z            2
loop_
_atom_site_label
_atom_site_type_symbol
_atom_site_fract_x
_atom_site_fract_y
_atom_site_fract_z
C1 C 0.6913(4) 1.0005(2) 0.4003(6)
O1 O 0.6456(3) 1.0062(2) 0.2127(4)
N1 N 0.6647(3) 0.9185(2) 0.2588(4)
S1 S 0.5165(1) 0.8285(1) 0.2783(1)
N2 N 0.4707(3) 0.7807(2) 0.0607(4)
C2 C 0.5371(4) 0.7222(3) -0.0408(6)
C3 C 0.4473(4) 0.6210(2) -0.0972(6)
C4 C 0.3861(4) 0.5628(3) 0.0408(6)
C5 C 0.3067(4) 0.4701(3) -0.0139(7)
C6 C 0.2890(5) 0.4342(3) -0.2096(9)
C7 C 0.3484(6) 0.4902(3) -0.3457(9)
C8 C 0.4300(5) 0.5837(3) -0.2924(6)
C9 C 0.3925(4) 0.8162(3) -0.0636(6)
C10 C 0.2602(4) 0.7418(3) -0.1245(6)
C11 C 0.1740(5) 0.7018(4) 0.0095(8)
C12 C 0.0526(6) 0.6328(5) -0.0466(12)
C13 C 0.0202(7) 0.6046(4) -0.2402(15)
C14 C 0.1032(7) 0.6436(5) -0.3775(10)
C15 C 0.2240(5) 0.7122(4) -0.3224(7)
O2 O 0.4256(3) 0.8671(2) 0.3542(4)
O3 O 0.5563(3) 0.7676(2) 0.3847(4)
C16 C 0.8290(4) 1.0567(2) 0.4614(5)
C17 C 0.8807(4) 1.0503(2) 0.6427(6)
C18 C 1.0093(5) 1.0995(3) 0.7020(6)
C19 C 1.0895(4) 1.1586(3) 0.5786(6)
C20 C 1.0393(4) 1.1648(2) 0.4003(5)
C21 C 0.9110(4) 1.1143(2) 0.3368(5)
Cl1 Cl 0.7811(1) 0.9779(1) 0.8020(2)
N3 N 1.1268(3) 1.2265(2) 0.2681(5)
O4 O 1.0921(3) 1.2161(2) 0.0968(4)
O5 O 1.2280(3) 1.2870(2) 0.3398(5)
H1 H 0.620 0.994 0.509
H2 H 0.600 0.720 0.078
H3 H 0.572 0.750 -0.163
H4 H 0.396 0.590 0.194
H5 H 0.257 0.426 0.096
H6 H 0.229 0.361 -0.254
H7 H 0.338 0.465 -0.500
H8 H 0.473 0.627 -0.407
H9 H 0.389 0.881 0.014
H10 H 0.449 0.851 -0.180
H11 H 0.202 0.728 0.162
H12 H -0.008 0.614 0.077
H13 H -0.074 0.548 -0.263
H14 H 0.075 0.613 -0.528
H15 H 0.298 0.744 -0.422
H16 H 1.052 1.090 0.837
H17 H 1.192 1.197 0.609
H18 H 0.877 1.119 0.192
loop_
_geom_bond_atom_site_label_1
_geom_bond_atom_site_label_2
_geom_bond_site_symmetry_1
_geom_bond_site_symmetry_2
C1 O1 1_555 1_555
O1 N1 1_555 1_555
N1 C1 1_555 1_555
S1 N1 1_555 1_555
N2 S1 1_555 1_555
C2 N2 1_555 1_555
C3 C2 1_555 1_555
C4 C3 1_555 1_555
C5 C4 1_555 1_555
C6 C5 1_555 1_555
C7 C6 1_555 1_555
C8 C3 1_555 1_555
C9 N2 1_555 1_555
C10 C9 1_555 1_555
C11 C10 1_555 1_555
C12 C11 1_555 1_555
C13 C12 1_555 1_555
C14 C13 1_555 1_555
C15 C10 1_555 1_555
O2 S1 1_555 1_555
O3 S1 1_555 1_555
C16 C1 1_555 1_555
C17 C16 1_555 1_555
C18 C17 1_555 1_555
C19 C18 1_555 1_555
C20 C19 1_555 1_555
C21 C16 1_555 1_555
Cl1 C17 1_555 1_555
N3 C20 1_555 1_555
O4 N3 1_555 1_555
O5 N3 1_555 1_555
H1 C1 1_555 1_555
H2 C2 1_555 1_555
H3 C2 1_555 1_555
H4 C4 1_555 1_555
H5 C5 1_555 1_555
H6 C6 1_555 1_555
H7 C7 1_555 1_555
H8 C8 1_555 1_555
H9 C9 1_555 1_555
H10 C9 1_555 1_555
H11 C11 1_555 1_555
H12 C12 1_555 1_555
H13 C13 1_555 1_555
H14 C14 1_555 1_555
H15 C15 1_555 1_555
H16 C18 1_555 1_555
H17 C19 1_555 1_555
H18 C21 1_555 1_555
C7 C8 1_555 1_555
C14 C15 1_555 1_555
C20 C21 1_555 1_555

#END
