
#######################################################################
#
#                 Cambridge Crystallographic Data Centre
#                                CCDC 
#
#######################################################################
#
# If this CIF has been generated from an entry in the Cambridge 
# Structural Database, then it will include bibliographic, chemical, 
# crystal, experimental, refinement or atomic coordinate data resulting 
# from the CCDC's data processing and validation procedures.
#
#######################################################################

data_FITJOH
_chemical_formula_moiety         'C9 H10 F2 O2 Si1'
_chemical_name_systematic        (Benzoyloxymethyl-C,O)-difluoro-methylsilane
_symmetry_cell_setting           orthorhombic
_symmetry_space_group_name_H-M   'P b c a'
_symmetry_Int_Tables_number      61
_space_group_name_Hall           '-P 2ac 2ab'
loop_
_symmetry_equiv_pos_site_id
_symmetry_equiv_pos_as_xyz
1 x,y,z
2 1/2-x,1/2+y,z
3 x,1/2-y,1/2+z
4 1/2-x,-y,1/2+z
5 -x,-y,-z
6 1/2+x,1/2-y,-z
7 -x,1/2+y,1/2-z
8 1/2+x,y,1/2-z
_cell_length_a                   12.886(2)
_cell_length_b                   23.097(4)
_cell_length_c                   6.994(1)
_cell_angle_alpha                90
_cell_angle_beta                 90
_cell_angle_gamma                90
_cell_volume                     2081.61
_cell_formula_units_Z            8
loop_
_atom_site_label
_atom_site_type_symbol
_atom_site_fract_x
_atom_site_fract_y
_atom_site_fract_z
Si1 Si 0.1615(1) 0.0581(1) 0.4401(2)
F1 F 0.1718(2) -0.0114(1) 0.4666(4)
F2 F 0.1072(2) 0.0726(1) 0.6384(4)
O1 O 0.1735(2) 0.1536(1) 0.4175(4)
O2 O 0.3401(2) 0.1304(1) 0.4172(4)
C1 C 0.3617(4) 0.3434(2) 0.4017(7)
C2 C 0.2592(4) 0.3304(2) 0.4038(6)
C3 C 0.2259(3) 0.2724(2) 0.4059(6)
C4 C 0.2992(3) 0.2293(1) 0.4065(6)
C5 C 0.4032(3) 0.2433(2) 0.4025(6)
C6 C 0.4341(4) 0.3010(2) 0.4008(6)
C7 C 0.2641(3) 0.1684(1) 0.4154(6)
C8 C 0.3034(3) 0.0704(1) 0.4334(7)
C9 C 0.0749(3) 0.0628(2) 0.2360(8)
loop_
_geom_bond_atom_site_label_1
_geom_bond_atom_site_label_2
_geom_bond_site_symmetry_1
_geom_bond_site_symmetry_2
Si1 F1 1_555 1_555
F2 Si1 1_555 1_555
O1 Si1 1_555 1_555
O2 C7 1_555 1_555
C1 C2 1_555 1_555
C2 C3 1_555 1_555
C3 C4 1_555 1_555
C4 C5 1_555 1_555
C5 C6 1_555 1_555
C6 C1 1_555 1_555
C7 O1 1_555 1_555
C8 Si1 1_555 1_555
C9 Si1 1_555 1_555
O2 C8 1_555 1_555
C4 C7 1_555 1_555

#END
