
#######################################################################
#
#                 Cambridge Crystallographic Data Centre
#                                CCDC 
#
#######################################################################
#
# If this CIF has been generated from an entry in the Cambridge 
# Structural Database, then it will include bibliographic, chemical, 
# crystal, experimental, refinement or atomic coordinate data resulting 
# from the CCDC's data processing and validation procedures.
#
#######################################################################

data_FITZUF
_chemical_formula_moiety         'Cl1 O4 1-,H3 O1 1+,H2 O1'
_chemical_name_systematic        'Oxonium perchlorate monohydrate'
_symmetry_cell_setting           orthorhombic
_symmetry_space_group_name_H-M   'P n a 21'
_symmetry_Int_Tables_number      33
_space_group_name_Hall           'P 2c -2n'
loop_
_symmetry_equiv_pos_site_id
_symmetry_equiv_pos_as_xyz
1 x,y,z
2 -x,-y,1/2+z
3 1/2+x,1/2-y,z
4 1/2-x,1/2+y,1/2+z
_cell_length_a                   7.9054(3)
_cell_length_b                   10.5443(4)
_cell_length_c                   5.9511(2)
_cell_angle_alpha                90
_cell_angle_beta                 90
_cell_angle_gamma                90
_cell_volume                     496.065
_exptl_crystal_colour            colorless
_exptl_crystal_description       Block
_cell_formula_units_Z            4
loop_
_atom_site_label
_atom_site_type_symbol
_atom_site_fract_x
_atom_site_fract_y
_atom_site_fract_z
Cl1 Cl 0.25730(11) 0.42310(8) 0.2448(3)
O1 O 0.2119(4) 0.5588(3) 0.2175(7)
O2 O 0.4391(4) 0.4052(3) 0.2067(6)
O3 O 0.1599(4) 0.3459(3) 0.0828(6)
O4 O 0.2125(4) 0.3835(3) 0.4753(5)
O5 O 0.0180(4) 0.8006(3) 0.2565(9)
H1 H -0.091(3) 0.844(3) 0.275(10)
H2 H 0.092(5) 0.834(4) 0.138(7)
H3 H 0.016(5) 0.7078(10) 0.272(11)
O6 O 0.1821(4) 0.6045(3) 0.7438(9)
H4 H 0.0806 0.6293 0.7161
H5 H 0.2068 0.5521 0.6430
loop_
_geom_bond_atom_site_label_1
_geom_bond_atom_site_label_2
_geom_bond_site_symmetry_1
_geom_bond_site_symmetry_2
Cl1 O1 1_555 1_555
O2 Cl1 1_555 1_555
O3 Cl1 1_555 1_555
O4 Cl1 1_555 1_555
O5 H1 1_555 1_555
H2 O5 1_555 1_555
H3 O5 1_555 1_555
O6 H4 1_555 1_555
H5 O6 1_555 1_555

#END
