
#######################################################################
#
#                 Cambridge Crystallographic Data Centre
#                                CCDC 
#
#######################################################################
#
# If this CIF has been generated from an entry in the Cambridge 
# Structural Database, then it will include bibliographic, chemical, 
# crystal, experimental, refinement or atomic coordinate data resulting 
# from the CCDC's data processing and validation procedures.
#
#######################################################################

data_FIVQAE
_chemical_formula_moiety         'C27 H21 Cl1 N4'
_chemical_name_systematic        
'N-(3-Chlorophenyl)-1,9,17-triazahexacyclo[14.8.0.0^2,7^.0^8,17^.0^10,15^.0^18,23^]tetracosa-2,4,6,10,12,14,18,20,22-nonaen-24-amine unknown solvate'
_symmetry_cell_setting           triclinic
_symmetry_space_group_name_H-M   'P -1'
_symmetry_Int_Tables_number      2
_space_group_name_Hall           '-P 1'
loop_
_symmetry_equiv_pos_site_id
_symmetry_equiv_pos_as_xyz
1 x,y,z
2 -x,-y,-z
_cell_length_a                   9.4491(16)
_cell_length_b                   12.552(2)
_cell_length_c                   20.936(4)
_cell_angle_alpha                105.802(3)
_cell_angle_beta                 90.987(3)
_cell_angle_gamma                101.867(3)
_cell_volume                     2331.13
_exptl_crystal_colour            colorless
_exptl_crystal_description       prism
_cell_formula_units_Z            4
loop_
_atom_site_label
_atom_site_type_symbol
_atom_site_fract_x
_atom_site_fract_y
_atom_site_fract_z
Cl1 Cl 0.70979(15) 0.03281(9) 1.05775(5)
N1 N 0.6467(3) 0.33594(18) 0.94853(10)
H1 H 0.6264 0.3725 0.9871
N2 N 0.4831(2) 0.55983(16) 0.90997(9)
N3 N 0.5292(2) 0.37405(15) 0.85559(9)
N4 N 0.3026(3) 0.5760(2) 0.83573(14)
H2 H 0.2656 0.6302 0.8300
C1 C 0.6902(4) 0.0778(3) 0.98693(16)
C2 C 0.6932(4) 0.0041(3) 0.92595(18)
H3 H 0.7068 -0.0687 0.9217
C3 C 0.6752(4) 0.0418(3) 0.87013(17)
H4 H 0.6743 -0.0076 0.8279
C4 C 0.6588(3) 0.1509(2) 0.87628(14)
H5 H 0.6477 0.1745 0.8384
C5 C 0.6589(3) 0.2256(2) 0.93927(12)
C6 C 0.6747(3) 0.1874(2) 0.99557(14)
H6 H 0.6747 0.2355 1.0381
C7 C 0.6658(3) 0.3939(2) 0.89805(11)
H7 H 0.7383 0.3650 0.8693
C8 C 0.7237(3) 0.5199(2) 0.92999(11)
C9 C 0.8688(3) 0.5607(3) 0.95367(14)
H8 H 0.9298 0.5105 0.9514
C10 C 0.9224(4) 0.6767(3) 0.98077(16)
H9 H 1.0198 0.7039 0.9959
C11 C 0.8335(4) 0.7504(3) 0.98522(16)
H10 H 0.8703 0.8277 1.0040
C12 C 0.6895(3) 0.7120(2) 0.96228(13)
H11 H 0.6296 0.7632 0.9655
C13 C 0.6338(3) 0.59637(19) 0.93423(11)
C14 C 0.4305(3) 0.43649(19) 0.89619(11)
H12 H 0.4273 0.4182 0.9388
C15 C 0.2786(3) 0.3997(2) 0.86263(12)
C16 C 0.1954(3) 0.2931(3) 0.85997(14)
H13 H 0.2350 0.2450 0.8783
C17 C 0.0560(4) 0.2574(4) 0.83090(18)
H14 H 0.0020 0.1857 0.8293
C18 C -0.0027(4) 0.3287(4) 0.80413(18)
H15 H -0.0975 0.3050 0.7849
C19 C 0.0748(4) 0.4326(4) 0.80529(15)
H16 H 0.0333 0.4794 0.7866
C20 C 0.2187(3) 0.4706(3) 0.83478(13)
C21 C 0.4569(3) 0.5872(2) 0.84701(13)
H17 H 0.5058 0.6661 0.8519
C22 C 0.5198(3) 0.5096(2) 0.79008(12)
C23 C 0.5454(3) 0.5395(2) 0.73150(13)
H18 H 0.5184 0.6040 0.7262
C24 C 0.6100(3) 0.4752(3) 0.68090(12)
H19 H 0.6294 0.4978 0.6426
C25 C 0.6455(3) 0.3779(3) 0.68745(12)
H20 H 0.6886 0.3341 0.6534
C26 C 0.6175(3) 0.3447(2) 0.74448(11)
H21 H 0.6402 0.2779 0.7482
C27 C 0.5554(2) 0.41048(19) 0.79670(10)
Cl2 Cl 0.66313(11) 0.23885(7) 0.26829(4)
N5 N 0.7528(2) 0.03346(15) 0.44008(9)
H22 H 0.7532 -0.0298 0.4486
N6 N 1.06382(18) 0.16727(14) 0.56936(8)
N7 N 0.92158(18) 0.21451(13) 0.48770(8)
N8 N 1.2789(2) 0.30826(19) 0.58911(10)
H23 H 1.3510 0.3306 0.6188
C28 C 0.6751(3) 0.1154(2) 0.28984(13)
C29 C 0.6465(3) 0.0135(2) 0.24159(12)
H24 H 0.6225 0.0089 0.1975
C30 C 0.6547(3) -0.0833(2) 0.26075(13)
H25 H 0.6361 -0.1537 0.2290
C31 C 0.6899(2) -0.07590(19) 0.32614(12)
H26 H 0.6932 -0.1414 0.3382
C32 C 0.7211(2) 0.03018(18) 0.37502(11)
C33 C 0.7142(2) 0.12643(19) 0.35581(12)
H27 H 0.7355 0.1975 0.3868
C34 C 0.7853(2) 0.13515(17) 0.49471(10)
H28 H 0.7052 0.1741 0.4954
C35 C 0.7949(2) 0.10570(16) 0.55992(11)
C36 C 0.6698(2) 0.06351(19) 0.58720(12)
H29 H 0.5803 0.0489 0.5637
C37 C 0.6764(3) 0.0429(2) 0.64859(12)
H30 H 0.5921 0.0143 0.6663
C38 C 0.8103(3) 0.0654(2) 0.68354(12)
H31 H 0.8155 0.0532 0.7253
C39 C 0.9352(2) 0.10554(19) 0.65696(11)
H32 H 1.0243 0.1192 0.6806
C40 C 0.9299(2) 0.12605(16) 0.59498(10)
C41 C 1.1304(2) 0.28742(18) 0.60578(11)
H33 H 1.1293 0.2962 0.6537
C42 C 1.0417(2) 0.36530(18) 0.58802(10)
C43 C 1.0596(3) 0.4764(2) 0.62707(12)
H34 H 1.1297 0.5038 0.6628
C44 C 0.9754(3) 0.5475(2) 0.61407(14)
H35 H 0.9899 0.6221 0.6405
C45 C 0.8694(3) 0.50665(19) 0.56147(14)
H36 H 0.8103 0.5532 0.5534
C46 C 0.8516(2) 0.39728(18) 0.52120(12)
H37 H 0.7814 0.3706 0.4856
C47 C 0.9382(2) 0.32585(16) 0.53338(10)
C48 C 1.0446(2) 0.16493(17) 0.49871(10)
H38 H 1.0217 0.0852 0.4722
C49 C 1.1823(2) 0.22206(17) 0.47590(11)
C50 C 1.1970(3) 0.20571(19) 0.40787(12)
H39 H 1.1199 0.1623 0.3775
C51 C 1.3240(3) 0.2528(2) 0.38503(14)
H40 H 1.3323 0.2420 0.3396
C52 C 1.4391(3) 0.3164(3) 0.43048(15)
H41 H 1.5259 0.3465 0.4152
C53 C 1.4269(3) 0.3358(2) 0.49798(15)
H42 H 1.5047 0.3795 0.5279
C54 C 1.2971(2) 0.2895(2) 0.52151(12)
loop_
_geom_bond_atom_site_label_1
_geom_bond_atom_site_label_2
_geom_bond_site_symmetry_1
_geom_bond_site_symmetry_2
Cl1 C1 1_555 1_555
N1 H1 1_555 1_555
N2 C13 1_555 1_555
N3 C7 1_555 1_555
N4 H2 1_555 1_555
C1 C2 1_555 1_555
C2 H3 1_555 1_555
C3 C2 1_555 1_555
H4 C3 1_555 1_555
C4 C3 1_555 1_555
H5 C4 1_555 1_555
C5 N1 1_555 1_555
C6 C1 1_555 1_555
H6 C6 1_555 1_555
C7 N1 1_555 1_555
H7 C7 1_555 1_555
C8 C7 1_555 1_555
C9 C8 1_555 1_555
H8 C9 1_555 1_555
C10 C9 1_555 1_555
H9 C10 1_555 1_555
C11 C10 1_555 1_555
H10 C11 1_555 1_555
C12 C11 1_555 1_555
H11 C12 1_555 1_555
C13 C8 1_555 1_555
C14 N2 1_555 1_555
H12 C14 1_555 1_555
C15 C14 1_555 1_555
C16 C15 1_555 1_555
H13 C16 1_555 1_555
C17 C16 1_555 1_555
H14 C17 1_555 1_555
C18 C17 1_555 1_555
H15 C18 1_555 1_555
C19 C18 1_555 1_555
H16 C19 1_555 1_555
C20 N4 1_555 1_555
C21 N2 1_555 1_555
H17 C21 1_555 1_555
C22 C21 1_555 1_555
C23 C22 1_555 1_555
H18 C23 1_555 1_555
C24 C23 1_555 1_555
H19 C24 1_555 1_555
C25 C24 1_555 1_555
H20 C25 1_555 1_555
C26 C25 1_555 1_555
H21 C26 1_555 1_555
C27 N3 1_555 1_555
Cl2 C28 1_555 1_555
N5 H22 1_555 1_555
N6 C40 1_555 1_555
N7 C34 1_555 1_555
N8 H23 1_555 1_555
C28 C29 1_555 1_555
C29 H24 1_555 1_555
C30 C29 1_555 1_555
H25 C30 1_555 1_555
C31 C30 1_555 1_555
H26 C31 1_555 1_555
C32 N5 1_555 1_555
C33 C28 1_555 1_555
H27 C33 1_555 1_555
C34 N5 1_555 1_555
H28 C34 1_555 1_555
C35 C34 1_555 1_555
C36 C35 1_555 1_555
H29 C36 1_555 1_555
C37 C36 1_555 1_555
H30 C37 1_555 1_555
C38 C37 1_555 1_555
H31 C38 1_555 1_555
C39 C38 1_555 1_555
H32 C39 1_555 1_555
C40 C35 1_555 1_555
C41 N6 1_555 1_555
H33 C41 1_555 1_555
C42 C41 1_555 1_555
C43 C42 1_555 1_555
H34 C43 1_555 1_555
C44 C43 1_555 1_555
H35 C44 1_555 1_555
C45 C44 1_555 1_555
H36 C45 1_555 1_555
C46 C45 1_555 1_555
H37 C46 1_555 1_555
C47 N7 1_555 1_555
C48 N6 1_555 1_555
H38 C48 1_555 1_555
C49 C48 1_555 1_555
C50 C49 1_555 1_555
H39 C50 1_555 1_555
C51 C50 1_555 1_555
H40 C51 1_555 1_555
C52 C51 1_555 1_555
H41 C52 1_555 1_555
C53 C52 1_555 1_555
H42 C53 1_555 1_555
C54 N8 1_555 1_555
N3 C14 1_555 1_555
N4 C21 1_555 1_555
C4 C5 1_555 1_555
C5 C6 1_555 1_555
C12 C13 1_555 1_555
C15 C20 1_555 1_555
C19 C20 1_555 1_555
C22 C27 1_555 1_555
C26 C27 1_555 1_555
N7 C48 1_555 1_555
N8 C41 1_555 1_555
C31 C32 1_555 1_555
C32 C33 1_555 1_555
C39 C40 1_555 1_555
C42 C47 1_555 1_555
C46 C47 1_555 1_555
C49 C54 1_555 1_555
C53 C54 1_555 1_555

#END
