
#######################################################################
#
#                 Cambridge Crystallographic Data Centre
#                                CCDC 
#
#######################################################################
#
# If this CIF has been generated from an entry in the Cambridge 
# Structural Database, then it will include bibliographic, chemical, 
# crystal, experimental, refinement or atomic coordinate data resulting 
# from the CCDC's data processing and validation procedures.
#
#######################################################################

data_FIVRAF
_chemical_formula_moiety         'C36 H30,0.33(C1 H2 Cl2)'
_chemical_name_systematic        
'15,24-Diphenylheptacyclo[12.10.0.0^2,7^.0^8,13^.0^15,19^.0^16,23^.0^20,24^]tetracosa-1,3,5,7,9,11,13-heptaene dichloromethane solvate'
_symmetry_cell_setting           monoclinic
_symmetry_space_group_name_H-M   'P 2/c'
_symmetry_Int_Tables_number      13
_space_group_name_Hall           '-P 2yc'
loop_
_symmetry_equiv_pos_site_id
_symmetry_equiv_pos_as_xyz
1 x,y,z
2 -x,y,1/2-z
3 -x,-y,-z
4 x,-y,1/2+z
_cell_length_a                   16.037(3)
_cell_length_b                   11.554(2)
_cell_length_c                   21.481(4)
_cell_angle_alpha                90
_cell_angle_beta                 109.402(4)
_cell_angle_gamma                90
_cell_volume                     3754.21
_exptl_crystal_colour            colorless
_exptl_crystal_description       prism
_cell_formula_units_Z            6
loop_
_atom_site_label
_atom_site_type_symbol
_atom_site_fract_x
_atom_site_fract_y
_atom_site_fract_z
C1 C 0.30901(18) 0.9431(3) 0.24220(13)
C2 C 0.31244(19) 1.0271(3) 0.29850(13)
C3 C 0.3806(2) 1.1066(3) 0.32494(14)
H1 H 0.4273 1.1115 0.3071
C4 C 0.3815(2) 1.1786(3) 0.37686(15)
H2 H 0.4285 1.2321 0.3941
C5 C 0.3140(2) 1.1728(3) 0.40371(15)
H3 H 0.3146 1.2219 0.4393
C6 C 0.2458(2) 1.0946(3) 0.37810(15)
H4 H 0.1992 1.0897 0.3961
C7 C 0.2455(2) 1.0239(3) 0.32633(14)
H5 H 0.1980 0.9711 0.3091
C8 C 0.32420(17) 0.8167(3) 0.26363(13)
C9 C 0.36626(18) 0.7749(3) 0.33140(13)
C10 C 0.41659(18) 0.8455(3) 0.38418(14)
H6 H 0.4213 0.9258 0.3764
C11 C 0.4591(2) 0.8026(3) 0.44650(14)
H7 H 0.4915 0.8532 0.4809
C12 C 0.4546(2) 0.6853(3) 0.45915(15)
H8 H 0.4829 0.6554 0.5022
C13 C 0.40891(19) 0.6134(3) 0.40892(14)
H9 H 0.4071 0.5330 0.4176
C14 C 0.36394(18) 0.6547(3) 0.34412(13)
C15 C 0.31687(18) 0.5756(3) 0.29154(14)
C16 C 0.3006(2) 0.4603(3) 0.30531(15)
H10 H 0.3223 0.4338 0.3497
C17 C 0.2545(2) 0.3852(3) 0.25676(15)
H11 H 0.2459 0.3071 0.2672
C18 C 0.2204(2) 0.4244(3) 0.19214(15)
H12 H 0.1867 0.3736 0.1584
C19 C 0.23534(19) 0.5366(3) 0.17668(14)
H13 H 0.2117 0.5613 0.1320
C20 C 0.28469(18) 0.6168(3) 0.22508(13)
C21 C 0.29733(17) 0.7387(3) 0.21221(13)
C22 C 0.28332(18) 0.7935(3) 0.14436(13)
C23 C 0.2785(2) 0.7044(3) 0.09011(13)
C24 C 0.3525(2) 0.6400(3) 0.09324(14)
H14 H 0.4061 0.6525 0.1286
C25 C 0.3497(2) 0.5573(3) 0.04553(16)
H15 H 0.4013 0.5140 0.0486
C26 C 0.2726(2) 0.5376(3) -0.00624(15)
H16 H 0.2708 0.4806 -0.0386
C27 C 0.1984(2) 0.6015(3) -0.01060(15)
H17 H 0.1452 0.5890 -0.0463
C28 C 0.2011(2) 0.6842(3) 0.03710(14)
H18 H 0.1495 0.7276 0.0336
C29 C 0.20764(18) 0.8838(3) 0.12388(13)
H19 H 0.1490 0.8438 0.1095
C30 C 0.2239(2) 0.9431(3) 0.06348(14)
H20 H 0.1893 0.9041 0.0218
H21 H 0.2067 1.0257 0.0607
C31 C 0.3243(2) 0.9305(3) 0.07616(14)
H22 H 0.3360 0.8749 0.0450
H23 H 0.3513 1.0060 0.0722
C32 C 0.35959(19) 0.8849(3) 0.14729(13)
H24 H 0.4177 0.8451 0.1560
C33 C 0.36627(19) 0.9819(3) 0.19988(13)
H25 H 0.4292 0.9926 0.2286
C34 C 0.32406(19) 1.1008(3) 0.17305(14)
H26 H 0.3547 1.1643 0.2028
H27 H 0.3273 1.1155 0.1285
C35 C 0.22625(19) 1.0913(3) 0.17043(14)
H28 H 0.2150 1.1412 0.2042
H29 H 0.1851 1.1131 0.1264
C36 C 0.21670(18) 0.9630(3) 0.18485(13)
H30 H 0.1661 0.9507 0.2016
C37 C 0.03713(18) 0.7377(3) 0.31487(13)
C38 C 0.0914(2) 0.7392(3) 0.38913(14)
C39 C 0.17823(19) 0.7792(3) 0.40983(14)
H31 H 0.2018 0.8095 0.3780
C40 C 0.2312(2) 0.7760(3) 0.47560(15)
H32 H 0.2899 0.8050 0.4884
C41 C 0.1986(2) 0.7306(3) 0.52258(15)
H33 H 0.2354 0.7250 0.5674
C42 C 0.1119(2) 0.6935(3) 0.50335(14)
H34 H 0.0885 0.6645 0.5355
C43 C 0.0585(2) 0.6983(3) 0.43774(14)
H35 H -0.0012 0.6733 0.4256
C44 C 0.01401(17) 0.8579(3) 0.28395(13)
C45 C 0.01504(17) 0.9660(3) 0.31986(13)
C46 C 0.01969(18) 0.9727(3) 0.38698(14)
H36 H 0.0260 0.9031 0.4117
C47 C 0.01540(19) 1.0762(3) 0.41755(15)
H37 H 0.0178 1.0772 0.4623
C48 C 0.0075(2) 1.1794(3) 0.38266(16)
H38 H 0.0067 1.2511 0.4040
C49 C 0.0009(2) 1.1773(3) 0.31783(15)
H39 H -0.0061 1.2481 0.2942
C50 C 0.00410(19) 1.0725(3) 0.28488(13)
C51 C 0.09253(19) 0.6633(3) 0.27979(14)
H40 H 0.1530 0.6965 0.2891
C52 C 0.04309(19) 0.6535(3) 0.20338(14)
H41 H 0.0838 0.6742 0.1785
C53 C -0.0023(2) 0.5353(3) 0.17907(15)
H42 H 0.0302 0.4714 0.2076
H43 H -0.0052 0.5198 0.1331
C54 C 0.0967(2) 0.5480(3) 0.31646(15)
H44 H 0.1419 0.5510 0.3610
H45 H 0.1105 0.4830 0.2915
C37A C -0.03713(18) 0.7377(3) 0.18513(13)
C38A C -0.0914(2) 0.7392(3) 0.11087(14)
C39A C -0.17823(19) 0.7792(3) 0.09017(14)
H31A H -0.2018 0.8095 0.1220
C40A C -0.2312(2) 0.7760(3) 0.02440(15)
H32A H -0.2899 0.8050 0.0116
C41A C -0.1986(2) 0.7306(3) -0.02258(15)
H33A H -0.2354 0.7250 -0.0674
C42A C -0.1119(2) 0.6935(3) -0.00335(14)
H34A H -0.0885 0.6645 -0.0355
C43A C -0.0585(2) 0.6983(3) 0.06226(14)
H35A H 0.0012 0.6733 0.0744
C44A C -0.01401(17) 0.8579(3) 0.21605(13)
C45A C -0.01504(17) 0.9660(3) 0.18014(13)
C46A C -0.01969(18) 0.9727(3) 0.11302(14)
H36A H -0.0260 0.9031 0.0883
C47A C -0.01540(19) 1.0762(3) 0.08245(15)
H37A H -0.0178 1.0772 0.0377
C48A C -0.0075(2) 1.1794(3) 0.11734(16)
H38A H -0.0067 1.2511 0.0960
C49A C -0.0009(2) 1.1773(3) 0.18217(15)
H39A H 0.0061 1.2481 0.2058
C50A C -0.00410(19) 1.0725(3) 0.21512(13)
C51A C -0.09253(19) 0.6633(3) 0.22021(14)
H40A H -0.1530 0.6965 0.2109
C52A C -0.04309(19) 0.6535(3) 0.29662(14)
H41A H -0.0838 0.6742 0.3215
C53A C 0.0023(2) 0.5353(3) 0.32093(15)
H42A H -0.0302 0.4714 0.2924
H43A H 0.0052 0.5198 0.3669
C54A C -0.0967(2) 0.5480(3) 0.18354(15)
H44A H -0.1419 0.5510 0.1390
H45A H -0.1105 0.4830 0.2085
C55 C 0.5000 0.4478(6) 0.2500
H46 H 0.4502 0.4981 0.2504
Cl1 Cl 0.46721(9) 0.36159(15) 0.17848(10)
H46A H 0.5498 0.4981 0.2496
Cl1A Cl 0.53279(9) 0.36159(15) 0.32152(10)
H47? H 0.4502 0.4981 0.2504
loop_
_geom_bond_atom_site_label_1
_geom_bond_atom_site_label_2
_geom_bond_site_symmetry_1
_geom_bond_site_symmetry_2
C1 C2 1_555 1_555
C2 C3 1_555 1_555
C3 H1 1_555 1_555
C4 C3 1_555 1_555
H2 C4 1_555 1_555
C5 C4 1_555 1_555
H3 C5 1_555 1_555
C6 C5 1_555 1_555
H4 C6 1_555 1_555
C7 C2 1_555 1_555
H5 C7 1_555 1_555
C8 C1 1_555 1_555
C9 C8 1_555 1_555
C10 C9 1_555 1_555
H6 C10 1_555 1_555
C11 C10 1_555 1_555
H7 C11 1_555 1_555
C12 C11 1_555 1_555
H8 C12 1_555 1_555
C13 C12 1_555 1_555
H9 C13 1_555 1_555
C14 C9 1_555 1_555
C15 C14 1_555 1_555
C16 C15 1_555 1_555
H10 C16 1_555 1_555
C17 C16 1_555 1_555
H11 C17 1_555 1_555
C18 C17 1_555 1_555
H12 C18 1_555 1_555
C19 C18 1_555 1_555
H13 C19 1_555 1_555
C20 C15 1_555 1_555
C21 C8 1_555 1_555
C22 C21 1_555 1_555
C23 C22 1_555 1_555
C24 C23 1_555 1_555
H14 C24 1_555 1_555
C25 C24 1_555 1_555
H15 C25 1_555 1_555
C26 C25 1_555 1_555
H16 C26 1_555 1_555
C27 C26 1_555 1_555
H17 C27 1_555 1_555
C28 C23 1_555 1_555
H18 C28 1_555 1_555
C29 C22 1_555 1_555
H19 C29 1_555 1_555
C30 C29 1_555 1_555
H20 C30 1_555 1_555
H21 C30 1_555 1_555
C31 C30 1_555 1_555
H22 C31 1_555 1_555
H23 C31 1_555 1_555
C32 C22 1_555 1_555
H24 C32 1_555 1_555
C33 C1 1_555 1_555
H25 C33 1_555 1_555
C34 C33 1_555 1_555
H26 C34 1_555 1_555
H27 C34 1_555 1_555
C35 C34 1_555 1_555
H28 C35 1_555 1_555
H29 C35 1_555 1_555
C36 C1 1_555 1_555
H30 C36 1_555 1_555
C37 C38 1_555 1_555
C38 C39 1_555 1_555
C39 H31 1_555 1_555
C40 C39 1_555 1_555
H32 C40 1_555 1_555
C41 C40 1_555 1_555
H33 C41 1_555 1_555
C42 C41 1_555 1_555
H34 C42 1_555 1_555
C43 C38 1_555 1_555
H35 C43 1_555 1_555
C44 C37 1_555 1_555
C45 C44 1_555 1_555
C46 C45 1_555 1_555
H36 C46 1_555 1_555
C47 C46 1_555 1_555
H37 C47 1_555 1_555
C48 C47 1_555 1_555
H38 C48 1_555 1_555
C49 C48 1_555 1_555
H39 C49 1_555 1_555
C50 C45 1_555 1_555
C51 C37 1_555 1_555
H40 C51 1_555 1_555
C52 C51 1_555 1_555
H41 C52 1_555 1_555
C53 C52 1_555 1_555
H42 C53 1_555 1_555
H43 C53 1_555 1_555
C54 C51 1_555 1_555
H44 C54 1_555 1_555
H45 C54 1_555 1_555
C55 H46 1_555 1_555
Cl1 C55 1_555 1_555
C37A C52 1_555 1_555
C38A C37A 1_555 1_555
C39A C38A 1_555 1_555
H31A C39A 1_555 1_555
C40A C39A 1_555 1_555
H32A C40A 1_555 1_555
C41A C40A 1_555 1_555
H33A C41A 1_555 1_555
C42A C41A 1_555 1_555
H34A C42A 1_555 1_555
C43A C38A 1_555 1_555
H35A C43A 1_555 1_555
C44A C44 1_555 1_555
C45A C44A 1_555 1_555
C46A C45A 1_555 1_555
H36A C46A 1_555 1_555
C47A C46A 1_555 1_555
H37A C47A 1_555 1_555
C48A C47A 1_555 1_555
H38A C48A 1_555 1_555
C49A C48A 1_555 1_555
H39A C49A 1_555 1_555
C50A C50 1_555 1_555
C51A C37A 1_555 1_555
H40A C51A 1_555 1_555
C52A C37 1_555 1_555
H41A C52A 1_555 1_555
C53A C54 1_555 1_555
H42A C53A 1_555 1_555
H43A C53A 1_555 1_555
C54A C53 1_555 1_555
H44A C54A 1_555 1_555
H45A C54A 1_555 1_555
H46A C55 1_555 1_555
Cl1A C55 1_555 1_555
C6 C7 1_555 1_555
C13 C14 1_555 1_555
C19 C20 1_555 1_555
C20 C21 1_555 1_555
C27 C28 1_555 1_555
C29 C36 1_555 1_555
C31 C32 1_555 1_555
C32 C33 1_555 1_555
C35 C36 1_555 1_555
C42 C43 1_555 1_555
C49 C50 1_555 1_555
C37A C44A 1_555 1_555
C42A C43A 1_555 1_555
C45A C50A 1_555 1_555
C49A C50A 1_555 1_555
C51A C52A 1_555 1_555
C51A C54A 1_555 1_555
C52A C53A 1_555 1_555

#END
