
#######################################################################
#
#                 Cambridge Crystallographic Data Centre
#                                CCDC 
#
#######################################################################
#
# If this CIF has been generated from an entry in the Cambridge 
# Structural Database, then it will include bibliographic, chemical, 
# crystal, experimental, refinement or atomic coordinate data resulting 
# from the CCDC's data processing and validation procedures.
#
#######################################################################

data_FIVZOB
_chemical_formula_moiety         'C19 H11 Cl1 N4,C2 H6 O1'
_chemical_name_systematic        
'2-(4-chlorophenyl)-1H-imidazo[4,5-f][1,10]phenanthroline ethanol solvate'
_symmetry_cell_setting           monoclinic
_symmetry_space_group_name_H-M   'P 21/n'
_symmetry_Int_Tables_number      14
_space_group_name_Hall           '-P 2yn'
loop_
_symmetry_equiv_pos_site_id
_symmetry_equiv_pos_as_xyz
1 x,y,z
2 1/2-x,1/2+y,1/2-z
3 -x,-y,-z
4 1/2+x,1/2-y,1/2+z
_cell_length_a                   9.921(2)
_cell_length_b                   11.098(2)
_cell_length_c                   17.289(4)
_cell_angle_alpha                90
_cell_angle_beta                 97.50(3)
_cell_angle_gamma                90
_cell_volume                     1887.29
_exptl_crystal_colour            colorless
_exptl_crystal_description       block
_cell_formula_units_Z            4
loop_
_atom_site_label
_atom_site_type_symbol
_atom_site_fract_x
_atom_site_fract_y
_atom_site_fract_z
Cl1 Cl 0.27942(9) 0.17341(9) 0.12161(6)
N1 N 0.8368(2) 0.5178(2) 0.08821(13)
C1 C 1.1702(3) 0.4818(2) 0.20332(15)
N2 N 1.3822(2) 0.5898(2) 0.20070(14)
C2 C 0.9733(3) 0.5450(2) 0.10850(15)
N3 N 0.9270(2) 0.4014(2) 0.18835(13)
H1 H 0.9324 0.3480 0.2247
C3 C 1.1914(3) 0.6462(2) 0.10567(15)
N4 N 1.2755(2) 0.7270(2) 0.07707(14)
C4 C 1.0302(3) 0.4738(2) 0.16978(16)
C5 C 1.2500(3) 0.5705(2) 0.17176(15)
C6 C 1.0025(3) 0.7078(3) 0.01163(18)
H2 H 0.9122 0.7020 -0.0106
C7 C 0.6815(3) 0.3688(3) 0.13718(16)
C8 C 1.0529(3) 0.6331(2) 0.07407(15)
C9 C 0.8131(3) 0.4305(2) 0.13762(16)
C10 C 1.4365(3) 0.5194(3) 0.25875(18)
H3 H 1.5272 0.5320 0.2784
C11 C 0.4435(3) 0.3535(3) 0.08431(17)
H4 H 0.3683 0.3829 0.0521
C12 C 0.6679(3) 0.2652(3) 0.18095(19)
H5 H 0.7425 0.2355 0.2135
C13 C 1.3674(3) 0.4281(3) 0.29218(18)
H6 H 1.4112 0.3809 0.3322
C14 C 0.4335(3) 0.2509(3) 0.12780(17)
C15 C 1.2329(3) 0.4094(3) 0.26464(17)
H7 H 1.1837 0.3496 0.2862
C16 C 0.5679(3) 0.4124(3) 0.08935(17)
H8 H 0.5755 0.4821 0.0603
C17 C 1.0878(3) 0.7896(3) -0.01633(19)
H9 H 1.0561 0.8403 -0.0575
C18 C 1.2228(3) 0.7954(3) 0.01808(19)
H10 H 1.2795 0.8510 -0.0017
C19 C 0.5442(3) 0.2061(3) 0.1764(2)
H11 H 0.5355 0.1369 0.2057
O1 O 0.9309(2) 0.2679(2) 0.32503(14)
H12 H 1.0012 0.2287 0.3346
C20 C 0.8952(5) 0.3160(6) 0.3942(3)
H13 H 0.9707 0.3640 0.4188
H14 H 0.8821 0.2500 0.4293
C21 C 0.7776(6) 0.3880(6) 0.3858(3)
H15 H 0.7601 0.4156 0.4362
H16 H 0.7016 0.3416 0.3622
H17 H 0.7908 0.4562 0.3534
loop_
_geom_bond_atom_site_label_1
_geom_bond_atom_site_label_2
_geom_bond_site_symmetry_1
_geom_bond_site_symmetry_2
Cl1 C14 1_555 1_555
N1 C2 1_555 1_555
C1 C4 1_555 1_555
N2 C5 1_555 1_555
C2 C4 1_555 1_555
N3 H1 1_555 1_555
C3 N4 1_555 1_555
N4 C18 1_555 1_555
C4 N3 1_555 1_555
C5 C1 1_555 1_555
C6 H2 1_555 1_555
C7 C9 1_555 1_555
C8 C2 1_555 1_555
C9 N1 1_555 1_555
C10 N2 1_555 1_555
H3 C10 1_555 1_555
C11 H4 1_555 1_555
C12 C7 1_555 1_555
H5 C12 1_555 1_555
C13 C10 1_555 1_555
H6 C13 1_555 1_555
C14 C11 1_555 1_555
C15 C1 1_555 1_555
H7 C15 1_555 1_555
C16 C7 1_555 1_555
H8 C16 1_555 1_555
C17 C6 1_555 1_555
H9 C17 1_555 1_555
C18 C17 1_555 1_555
H10 C18 1_555 1_555
C19 C12 1_555 1_555
H11 C19 1_555 1_555
O1 H12 1_555 1_555
C20 O1 1_555 1_555
H13 C20 1_555 1_555
H14 C20 1_555 1_555
C21 C20 1_555 1_555
H15 C21 1_555 1_555
H16 C21 1_555 1_555
H17 C21 1_555 1_555
N3 C9 1_555 1_555
C3 C5 1_555 1_555
C3 C8 1_555 1_555
C6 C8 1_555 1_555
C11 C16 1_555 1_555
C13 C15 1_555 1_555
C14 C19 1_555 1_555

#END
