
#######################################################################
#
#                 Cambridge Crystallographic Data Centre
#                                CCDC 
#
#######################################################################
#
# If this CIF has been generated from an entry in the Cambridge 
# Structural Database, then it will include bibliographic, chemical, 
# crystal, experimental, refinement or atomic coordinate data resulting 
# from the CCDC's data processing and validation procedures.
#
#######################################################################

data_FIXFEZ
_chemical_formula_moiety         'C10 H7 N2 O2 P1'
_chemical_name_systematic        3,5-bis(2-furyl)-1H-1,2,4-diazaphosphole
_symmetry_cell_setting           monoclinic
_symmetry_space_group_name_H-M   'C 2/c'
_symmetry_Int_Tables_number      15
_space_group_name_Hall           '-C 2yn'
loop_
_symmetry_equiv_pos_site_id
_symmetry_equiv_pos_as_xyz
1 x,y,z
2 -x,y,1/2-z
3 1/2+x,1/2+y,z
4 1/2-x,1/2+y,1/2-z
5 -x,-y,-z
6 x,-y,1/2+z
7 1/2-x,1/2-y,-z
8 1/2+x,1/2-y,1/2+z
_cell_length_a                   12.7274(2)
_cell_length_b                   19.2423(3)
_cell_length_c                   16.9663(3)
_cell_angle_alpha                90
_cell_angle_beta                 93.2190(10)
_cell_angle_gamma                90
_cell_volume                     4148.57
_exptl_crystal_colour            colorless
_exptl_crystal_description       rod
_cell_formula_units_Z            16
loop_
_atom_site_label
_atom_site_type_symbol
_atom_site_fract_x
_atom_site_fract_y
_atom_site_fract_z
P1 P 0.64515(9) 0.45023(6) 0.04076(7)
O1 O 0.3817(4) 0.3354(2) -0.0126(3)
O2 O 0.7845(3) 0.5452(2) 0.1588(3)
N1 N 0.4845(2) 0.41233(17) 0.11501(18)
H1 H 0.4258 0.3930 0.1251
N2 N 0.5389(2) 0.45196(16) 0.16718(19)
C1 C 0.3609(6) 0.3013(3) -0.0861(5)
H2 H 0.2989 0.2787 -0.1028
C2 C 0.4433(7) 0.3075(4) -0.1250(4)
H3 H 0.4527 0.2881 -0.1744
C3 C 0.5162(4) 0.3474(3) -0.0824(3)
H4 H 0.5820 0.3604 -0.0986
C4 C 0.4772(4) 0.3638(2) -0.0159(3)
C5 C 0.5282(3) 0.40503(18) 0.0460(2)
C6 C 0.6259(3) 0.47678(18) 0.1376(2)
C7 C 0.6935(3) 0.5209(2) 0.1870(3)
C8 C 0.6815(5) 0.5436(3) 0.2580(3)
H5 H 0.6246 0.5355 0.2889
C9 C 0.7736(9) 0.5838(4) 0.2790(6)
H6 H 0.7900 0.6042 0.3279
C10 C 0.8279(7) 0.5864(5) 0.2198(7)
H7 H 0.8892 0.6124 0.2170
P2 P 0.80330(9) 0.30777(6) 0.19857(7)
O3 O 0.5268(3) 0.2173(2) 0.1201(2)
O4 O 0.8000(3) 0.4295(2) 0.3985(3)
N3 N 0.6125(3) 0.30048(18) 0.2438(2)
N4 N 0.6659(2) 0.33991(18) 0.2974(2)
H8 H 0.6375 0.3573 0.3378
C11 C 0.5133(5) 0.1776(3) 0.0500(4)
H9 H 0.4506 0.1581 0.0295
C12 C 0.6040(7) 0.1732(3) 0.0196(3)
H10 H 0.6181 0.1492 -0.0262
C13 C 0.6761(4) 0.2102(2) 0.0664(3)
H11 H 0.7471 0.2153 0.0577
C14 C 0.6273(4) 0.2369(2) 0.1255(3)
C15 C 0.6728(3) 0.27903(18) 0.1877(2)
C16 C 0.7660(3) 0.3500(2) 0.2832(2)
C17 C 0.8303(3) 0.3942(2) 0.3354(2)
C18 C 0.9266(3) 0.4057(3) 0.3230(3)
H12 H 0.9637 0.3860 0.2829
C19 C 0.9647(5) 0.4499(4) 0.3759(6)
H13 H 1.0333 0.4667 0.3784
C20 C 0.8933(6) 0.4671(3) 0.4248(5)
H14 H 0.9011 0.4973 0.4675
loop_
_geom_bond_atom_site_label_1
_geom_bond_atom_site_label_2
_geom_bond_site_symmetry_1
_geom_bond_site_symmetry_2
P1 C5 1_555 1_555
O1 C1 1_555 1_555
O2 C7 1_555 1_555
N1 H1 1_555 1_555
N2 N1 1_555 1_555
C1 H2 1_555 1_555
C2 C1 1_555 1_555
H3 C2 1_555 1_555
C3 C2 1_555 1_555
H4 C3 1_555 1_555
C4 O1 1_555 1_555
C5 N1 1_555 1_555
C6 P1 1_555 1_555
C7 C6 1_555 1_555
C8 C7 1_555 1_555
H5 C8 1_555 1_555
C9 C8 1_555 1_555
H6 C9 1_555 1_555
C10 O2 1_555 1_555
H7 C10 1_555 1_555
P2 C15 1_555 1_555
O3 C11 1_555 1_555
O4 C17 1_555 1_555
N3 N4 1_555 1_555
N4 H8 1_555 1_555
C11 H9 1_555 1_555
C12 C11 1_555 1_555
H10 C12 1_555 1_555
C13 C12 1_555 1_555
H11 C13 1_555 1_555
C14 O3 1_555 1_555
C15 N3 1_555 1_555
C16 P2 1_555 1_555
C17 C16 1_555 1_555
C18 C17 1_555 1_555
H12 C18 1_555 1_555
C19 C18 1_555 1_555
H13 C19 1_555 1_555
C20 O4 1_555 1_555
H14 C20 1_555 1_555
N2 C6 1_555 1_555
C3 C4 1_555 1_555
C4 C5 1_555 1_555
C9 C10 1_555 1_555
N4 C16 1_555 1_555
C13 C14 1_555 1_555
C14 C15 1_555 1_555
C19 C20 1_555 1_555

#END
