
#######################################################################
#
#                 Cambridge Crystallographic Data Centre
#                                CCDC 
#
#######################################################################
#
# If this CIF has been generated from an entry in the Cambridge 
# Structural Database, then it will include bibliographic, chemical, 
# crystal, experimental, refinement or atomic coordinate data resulting 
# from the CCDC's data processing and validation procedures.
#
#######################################################################

data_FIYQUB
_chemical_formula_moiety         'C26 H28 N2 O4'
_chemical_name_systematic        
1,1'-Dibenzyl-3,3',4,4'-tetramethoxy-1H,1'H-2,2'-bipyrrole
_symmetry_cell_setting           monoclinic
_symmetry_space_group_name_H-M   'P 21/n'
_symmetry_Int_Tables_number      14
_space_group_name_Hall           '-P 2yn'
loop_
_symmetry_equiv_pos_site_id
_symmetry_equiv_pos_as_xyz
1 x,y,z
2 1/2-x,1/2+y,1/2-z
3 -x,-y,-z
4 1/2+x,1/2-y,1/2+z
_cell_length_a                   12.3046(7)
_cell_length_b                   10.5352(6)
_cell_length_c                   18.0332(14)
_cell_angle_alpha                90
_cell_angle_beta                 90.359(5)
_cell_angle_gamma                90
_cell_volume                     2337.62
_exptl_crystal_colour            colorless
_exptl_crystal_description       block
_cell_formula_units_Z            4
loop_
_atom_site_label
_atom_site_type_symbol
_atom_site_fract_x
_atom_site_fract_y
_atom_site_fract_z
O1 O 1.14045(17) 0.84256(19) 0.06855(13)
O2 O 0.72875(13) 0.51459(19) 0.05488(12)
O3 O 0.53158(15) 0.52382(18) 0.14791(11)
N1 N 0.75989(18) 0.6906(2) 0.22037(13)
C1 C 0.8014(2) 0.6427(2) 0.15600(16)
N2 N 0.98137(17) 0.5715(2) 0.11086(13)
O4 O 0.92370(17) 0.8970(2) 0.13496(13)
C2 C 0.7199(2) 0.5752(2) 0.12191(17)
C3 C 1.0604(2) 0.3671(3) 0.15107(18)
C4 C 0.6544(2) 0.6517(3) 0.22803(18)
H1 H 0.6090 0.6705 0.2676
C5 C 0.9648(2) 0.7786(3) 0.11856(16)
C6 C 1.0671(2) 0.7510(3) 0.08893(17)
C7 C 0.6276(2) 0.5802(3) 0.16717(18)
C8 C 0.8866(2) 0.6467(3) 0.32378(16)
C9 C 1.0759(2) 0.6229(3) 0.08495(17)
H2 H 1.1356 0.5780 0.0677
C10 C 0.9119(2) 0.6670(3) 0.13088(15)
C11 C 0.8241(2) 0.7445(3) 0.28046(16)
H3 H 0.7761 0.7896 0.3139
H4 H 0.8747 0.8057 0.2601
C12 C 0.8557(2) 0.5217(3) 0.32470(17)
H5 H 0.7954 0.4961 0.2971
C13 C 0.9741(2) 0.6838(3) 0.36547(19)
H6 H 0.9953 0.7685 0.3661
C14 C 0.9636(2) 0.4358(2) 0.12004(18)
H7 H 0.9448 0.3992 0.0723
H8 H 0.9024 0.4230 0.1528
C15 C 1.1126(2) 0.4101(3) 0.21321(19)
H9 H 1.0878 0.4832 0.2366
C16 C 1.2013(3) 0.3472(4) 0.2418(2)
H10 H 1.2362 0.3778 0.2840
C17 C 1.0976(3) 0.2593(3) 0.1177(2)
H11 H 1.0634 0.2288 0.0751
C18 C 0.9122(3) 0.4342(3) 0.36560(19)
H12 H 0.8906 0.3495 0.3653
C19 C 1.1853(4) 0.1960(4) 0.1469(3)
H13 H 1.2090 0.1217 0.1243
C20 C 0.8873(3) 0.9650(3) 0.0755(2)
H14 H 0.9460 0.9782 0.0415
H15 H 0.8603 1.0456 0.0920
H16 H 0.8300 0.9191 0.0511
C21 C 0.4469(2) 0.5445(3) 0.19994(19)
H17 H 0.4695 0.5143 0.2478
H18 H 0.3829 0.4995 0.1843
H19 H 0.4312 0.6336 0.2028
C22 C 0.6660(3) 0.5690(4) -0.00256(19)
H20 H 0.5913 0.5733 0.0124
H21 H 0.6717 0.5177 -0.0464
H22 H 0.6922 0.6530 -0.0128
C23 C 0.9997(3) 0.4707(4) 0.4066(2)
H23 H 1.0380 0.4112 0.4345
C24 C 1.2380(3) 0.2391(5) 0.2079(3)
H24 H 1.2983 0.1961 0.2266
C25 C 1.2373(2) 0.7949(3) 0.0364(2)
H25 H 1.2774 0.7475 0.0729
H26 H 1.2808 0.8644 0.0192
H27 H 1.2192 0.7405 -0.0045
C26 C 1.0312(3) 0.5947(5) 0.4068(2)
H28 H 1.0913 0.6198 0.4347
loop_
_geom_bond_atom_site_label_1
_geom_bond_atom_site_label_2
_geom_bond_site_symmetry_1
_geom_bond_site_symmetry_2
O1 C6 1_555 1_555
O2 C2 1_555 1_555
O3 C7 1_555 1_555
N1 C1 1_555 1_555
C1 C2 1_555 1_555
N2 C9 1_555 1_555
O4 C5 1_555 1_555
C2 C7 1_555 1_555
C3 C14 1_555 1_555
C4 N1 1_555 1_555
H1 C4 1_555 1_555
C5 C6 1_555 1_555
C6 C9 1_555 1_555
C7 C4 1_555 1_555
C8 C11 1_555 1_555
C9 H2 1_555 1_555
C10 C1 1_555 1_555
C11 N1 1_555 1_555
H3 C11 1_555 1_555
H4 C11 1_555 1_555
C12 C8 1_555 1_555
H5 C12 1_555 1_555
C13 C8 1_555 1_555
H6 C13 1_555 1_555
C14 N2 1_555 1_555
H7 C14 1_555 1_555
H8 C14 1_555 1_555
C15 C3 1_555 1_555
H9 C15 1_555 1_555
C16 C15 1_555 1_555
H10 C16 1_555 1_555
C17 C3 1_555 1_555
H11 C17 1_555 1_555
C18 C12 1_555 1_555
H12 C18 1_555 1_555
C19 C17 1_555 1_555
H13 C19 1_555 1_555
C20 O4 1_555 1_555
H14 C20 1_555 1_555
H15 C20 1_555 1_555
H16 C20 1_555 1_555
C21 O3 1_555 1_555
H17 C21 1_555 1_555
H18 C21 1_555 1_555
H19 C21 1_555 1_555
C22 O2 1_555 1_555
H20 C22 1_555 1_555
H21 C22 1_555 1_555
H22 C22 1_555 1_555
C23 C18 1_555 1_555
H23 C23 1_555 1_555
C24 C16 1_555 1_555
H24 C24 1_555 1_555
C25 O1 1_555 1_555
H25 C25 1_555 1_555
H26 C25 1_555 1_555
H27 C25 1_555 1_555
C26 C13 1_555 1_555
H28 C26 1_555 1_555
N2 C10 1_555 1_555
C5 C10 1_555 1_555
C19 C24 1_555 1_555
C23 C26 1_555 1_555

#END
