
#######################################################################
#
#                 Cambridge Crystallographic Data Centre
#                                CCDC 
#
#######################################################################
#
# If this CIF has been generated from an entry in the Cambridge 
# Structural Database, then it will include bibliographic, chemical, 
# crystal, experimental, refinement or atomic coordinate data resulting 
# from the CCDC's data processing and validation procedures.
#
#######################################################################

data_FIYTOZ
_chemical_formula_moiety         'C15 H14 F2 N5 O2'
_chemical_name_systematic        
'2-(2-Amino-4,5-dicyano-3,6-difluorophenyl)-4,4,5,5-tetramethyl- 4,5-dihydro-1H-imidazol-3-oxide-1-oxyl radical'
_symmetry_cell_setting           triclinic
_symmetry_space_group_name_H-M   'P -1'
_symmetry_Int_Tables_number      2
_space_group_name_Hall           '-P 1'
loop_
_symmetry_equiv_pos_site_id
_symmetry_equiv_pos_as_xyz
1 x,y,z
2 -x,-y,-z
_cell_length_a                   7.3912(4)
_cell_length_b                   9.7955(5)
_cell_length_c                   11.9414(7)
_cell_angle_alpha                84.502(2)
_cell_angle_beta                 78.895(2)
_cell_angle_gamma                68.989(2)
_cell_volume                     791.63
_exptl_crystal_colour            black
_exptl_crystal_description       plate-prism
_cell_formula_units_Z            2
loop_
_atom_site_label
_atom_site_type_symbol
_atom_site_fract_x
_atom_site_fract_y
_atom_site_fract_z
F1 F 0.78559(14) 0.31881(14) 0.31779(9)
F2 F 1.57489(15) 0.12783(15) 0.18999(10)
O1 O 1.17365(18) 0.01535(13) 0.55925(11)
N1 N 1.4292(2) 0.1494(2) 0.41306(15)
H1 H 1.386(5) 0.145(4) 0.485(3)
H2 H 1.547(5) 0.125(3) 0.393(3)
O2 O 0.79335(19) 0.49315(13) 0.48572(11)
N2 N 1.05017(18) 0.14637(14) 0.57330(11)
C1 C 1.0051(2) 0.24977(17) 0.49096(12)
N3 N 0.85958(18) 0.37017(14) 0.53654(11)
C2 C 0.7712(2) 0.33473(16) 0.65541(12)
C3 C 1.0987(3) 0.2608(2) 0.73064(15)
H3 H 1.2193 0.1800 0.7333
H4 H 1.0448 0.2994 0.8055
H5 H 1.1242 0.3357 0.6790
C4 C 0.9520(2) 0.20845(16) 0.68927(12)
C5 C 1.0973(2) 0.23621(18) 0.37126(12)
C6 C 1.3040(2) 0.18521(18) 0.33847(13)
C7 C 1.3783(2) 0.17759(19) 0.22069(14)
C8 C 1.2622(3) 0.2208(2) 0.13857(14)
C9 C 1.3505(3) 0.2072(3) 0.02005(17)
N4 N 1.4192(4) 0.1942(4) -0.07352(17)
C10 C 0.9044(3) 0.0933(2) 0.77095(15)
H6 H 0.8291 0.0508 0.7379
H7 H 0.8296 0.1376 0.8415
H8 H 1.0244 0.0185 0.7853
C11 C 0.9808(2) 0.27780(19) 0.28652(13)
C12 C 1.0552(3) 0.2747(2) 0.17107(14)
C13 C 0.9271(3) 0.3200(3) 0.08830(17)
N5 N 0.8268(4) 0.3559(4) 0.0219(2)
C14 C 0.6967(3) 0.4670(2) 0.72946(16)
H9 H 0.8012 0.5037 0.7288
H10 H 0.6519 0.4397 0.8063
H11 H 0.5898 0.5415 0.7004
C15 C 0.6033(2) 0.2849(2) 0.64092(16)
H12 H 0.5354 0.2670 0.7147
H13 H 0.6560 0.1966 0.5986
H14 H 0.5133 0.3598 0.6004
loop_
_geom_bond_atom_site_label_1
_geom_bond_atom_site_label_2
_geom_bond_site_symmetry_1
_geom_bond_site_symmetry_2
F1 C11 1_555 1_555
F2 C7 1_555 1_555
O1 N2 1_555 1_555
N1 H1 1_555 1_555
H2 N1 1_555 1_555
O2 N3 1_555 1_555
N2 C1 1_555 1_555
C1 N3 1_555 1_555
N3 C2 1_555 1_555
C2 C4 1_555 1_555
C3 H3 1_555 1_555
H4 C3 1_555 1_555
H5 C3 1_555 1_555
C4 N2 1_555 1_555
C5 C1 1_555 1_555
C6 N1 1_555 1_555
C7 C6 1_555 1_555
C8 C7 1_555 1_555
C9 C8 1_555 1_555
N4 C9 1_555 1_555
C10 C4 1_555 1_555
H6 C10 1_555 1_555
H7 C10 1_555 1_555
H8 C10 1_555 1_555
C11 C5 1_555 1_555
C12 C8 1_555 1_555
C13 C12 1_555 1_555
N5 C13 1_555 1_555
C14 C2 1_555 1_555
H9 C14 1_555 1_555
H10 C14 1_555 1_555
H11 C14 1_555 1_555
C15 C2 1_555 1_555
H12 C15 1_555 1_555
H13 C15 1_555 1_555
H14 C15 1_555 1_555
C3 C4 1_555 1_555
C5 C6 1_555 1_555
C11 C12 1_555 1_555

#END
