
#######################################################################
#
#                 Cambridge Crystallographic Data Centre
#                                CCDC 
#
#######################################################################
#
# If this CIF has been generated from an entry in the Cambridge 
# Structural Database, then it will include bibliographic, chemical, 
# crystal, experimental, refinement or atomic coordinate data resulting 
# from the CCDC's data processing and validation procedures.
#
#######################################################################

data_FIYVAN
_chemical_formula_moiety         'C15 H14 F2 N5 O1'
_chemical_name_systematic        
'4-(4,4,5,5-Tetramethyl-1-oxyl-4,5-dihydro-1H-imidazol-2-yl)- 5-amino-3,6-difluorophthalonitrile radical'
_symmetry_cell_setting           orthorhombic
_symmetry_space_group_name_H-M   'F d d 2'
_symmetry_Int_Tables_number      43
_space_group_name_Hall           'F 2 -2d'
loop_
_symmetry_equiv_pos_site_id
_symmetry_equiv_pos_as_xyz
1 x,y,z
2 -x,-y,z
3 1/4-x,1/4+y,1/4+z
4 1/4+x,1/4-y,1/4+z
5 x,1/2+y,1/2+z
6 -x,1/2-y,1/2+z
7 1/4-x,3/4+y,3/4+z
8 1/4+x,3/4-y,3/4+z
9 1/2+x,y,1/2+z
10 1/2-x,-y,1/2+z
11 3/4-x,1/4+y,3/4+z
12 3/4+x,1/4-y,3/4+z
13 1/2+x,1/2+y,z
14 1/2-x,1/2-y,z
15 3/4-x,3/4+y,1/4+z
16 3/4+x,3/4-y,1/4+z
_cell_length_a                   20.357(2)
_cell_length_b                   48.338(5)
_cell_length_c                   6.4421(5)
_cell_angle_alpha                90
_cell_angle_beta                 90
_cell_angle_gamma                90
_cell_volume                     6339.13
_exptl_crystal_colour            orange
_exptl_crystal_description       needle
_cell_formula_units_Z            16
loop_
_atom_site_label
_atom_site_type_symbol
_atom_site_fract_x
_atom_site_fract_y
_atom_site_fract_z
N1 N 0.30393(19) 0.13365(9) -0.0950(7)
H1 H 0.284(2) 0.1482(5) -0.140(7)
H2 H 0.289(2) 0.1196(5) -0.160(7)
F1 F 0.31871(13) 0.18112(5) 0.1145(4)
F2 F 0.43121(12) 0.08921(5) 0.4265(4)
C1 C 0.38063(19) 0.16024(8) 0.3763(7)
C2 C 0.34655(19) 0.15838(8) 0.1948(7)
C3 C 0.33844(19) 0.13350(9) 0.0837(6)
N2 N 0.3047(2) 0.07099(8) 0.0200(6)
N3 N 0.4792(2) 0.13781(10) 0.7928(7)
N4 N 0.3875(3) 0.20649(10) 0.5712(9)
C4 C 0.3850(2) 0.18627(10) 0.4834(8)
C5 C 0.36910(19) 0.10978(8) 0.1658(7)
C6 C 0.3620(2) 0.08267(9) 0.0597(7)
C7 C 0.3200(2) 0.04439(9) -0.0950(7)
C8 C 0.2749(4) 0.02188(12) -0.0068(11)
H3 H 0.2300 0.0266 -0.0351
H4 H 0.2813 0.0205 0.1405
H5 H 0.2852 0.0045 -0.0705
C9 C 0.4104(2) 0.13646(8) 0.4568(6)
C10 C 0.4484(2) 0.13734(9) 0.6437(8)
C11 C 0.40331(19) 0.11233(8) 0.3470(7)
N5 N 0.4143(2) 0.06736(8) -0.0020(7)
O1 O 0.4712(2) 0.07408(9) -0.0003(8)
C12 C 0.3930(3) 0.03909(9) -0.0613(8)
C13 C 0.4329(3) 0.02930(12) -0.2476(9)
H6 H 0.4226 0.0405 -0.3661
H7 H 0.4224 0.0103 -0.2772
H8 H 0.4789 0.0309 -0.2168
C14 C 0.4095(4) 0.02094(12) 0.1289(10)
H9 H 0.4562 0.0207 0.1499
H10 H 0.3943 0.0024 0.1052
H11 H 0.3884 0.0284 0.2498
C15 C 0.3020(3) 0.04961(13) -0.3232(9)
H12 H 0.3299 0.0638 -0.3788
H13 H 0.2570 0.0554 -0.3321
H14 H 0.3078 0.0329 -0.4012
loop_
_geom_bond_atom_site_label_1
_geom_bond_atom_site_label_2
_geom_bond_site_symmetry_1
_geom_bond_site_symmetry_2
N1 H1 1_555 1_555
H2 N1 1_555 1_555
F1 C2 1_555 1_555
F2 C11 1_555 1_555
C1 C2 1_555 1_555
C2 C3 1_555 1_555
C3 N1 1_555 1_555
N2 C6 1_555 1_555
N3 C10 1_555 1_555
N4 C4 1_555 1_555
C4 C1 1_555 1_555
C5 C3 1_555 1_555
C6 C5 1_555 1_555
C7 N2 1_555 1_555
C8 C7 1_555 1_555
H3 C8 1_555 1_555
H4 C8 1_555 1_555
H5 C8 1_555 1_555
C9 C1 1_555 1_555
C10 C9 1_555 1_555
C11 C5 1_555 1_555
N5 C6 1_555 1_555
O1 N5 1_555 1_555
C12 C7 1_555 1_555
C13 C12 1_555 1_555
H6 C13 1_555 1_555
H7 C13 1_555 1_555
H8 C13 1_555 1_555
C14 C12 1_555 1_555
H9 C14 1_555 1_555
H10 C14 1_555 1_555
H11 C14 1_555 1_555
C15 C7 1_555 1_555
H12 C15 1_555 1_555
H13 C15 1_555 1_555
H14 C15 1_555 1_555
C9 C11 1_555 1_555
N5 C12 1_555 1_555

#END
