
#######################################################################
#
#                 Cambridge Crystallographic Data Centre
#                                CCDC 
#
#######################################################################
#
# If this CIF has been generated from an entry in the Cambridge 
# Structural Database, then it will include bibliographic, chemical, 
# crystal, experimental, refinement or atomic coordinate data resulting 
# from the CCDC's data processing and validation procedures.
#
#######################################################################

data_FIYZUI
_chemical_compound_source        'Toxocarpus (Himalensis Falc. ex Hook. F.)'
_chemical_name_common            Toxocarol
_chemical_formula_moiety         'C6 H12 O4'
_chemical_name_systematic        Cyclohexane-1,2,3,4-tetraol
_symmetry_cell_setting           orthorhombic
_symmetry_space_group_name_H-M   'P n c a'
_symmetry_Int_Tables_number      60
_space_group_name_Hall           '-P 2a 2n'
loop_
_symmetry_equiv_pos_site_id
_symmetry_equiv_pos_as_xyz
1 x,y,z
2 1/2-x,1/2+y,1/2+z
3 x,1/2-y,1/2+z
4 1/2-x,-y,z
5 -x,-y,-z
6 1/2+x,1/2-y,1/2-z
7 -x,1/2+y,1/2-z
8 1/2+x,y,-z
_cell_length_a                   10.129(2)
_cell_length_b                   11.297(3)
_cell_length_c                   11.814(3)
_cell_angle_alpha                90
_cell_angle_beta                 90
_cell_angle_gamma                90
_cell_volume                     1351.84
_exptl_crystal_colour            colorless
_chemical_melting_point          150.5-151.5deg.C
_cell_formula_units_Z            8
loop_
_atom_site_label
_atom_site_type_symbol
_atom_site_fract_x
_atom_site_fract_y
_atom_site_fract_z
O1 O -0.1311(2) 0.8760(2) 0.4101(2)
O2 O 0.0696(2) 0.9704(1) 0.2660(2)
O3 O 0.2867(2) 0.8639(2) 0.3730(2)
O4 O 0.1502(2) 0.6053(2) 0.2390(2)
C1 C 0.0021(3) 0.8351(2) 0.4150(2)
C2 C 0.0633(3) 0.8502(2) 0.3004(2)
C3 C 0.2029(2) 0.8029(2) 0.2967(2)
C4 C 0.2056(3) 0.6731(2) 0.3286(2)
C5 C 0.1311(3) 0.6496(3) 0.4345(3)
C6 C 0.0074(4) 0.7059(3) 0.4474(3)
loop_
_geom_bond_atom_site_label_1
_geom_bond_atom_site_label_2
_geom_bond_site_symmetry_1
_geom_bond_site_symmetry_2
O1 C1 1_555 1_555
O2 C2 1_555 1_555
O3 C3 1_555 1_555
O4 C4 1_555 1_555
C1 C2 1_555 1_555
C2 C3 1_555 1_555
C3 C4 1_555 1_555
C4 C5 1_555 1_555
C5 C6 1_555 1_555
C6 C1 1_555 1_555

#END
