
#######################################################################
#
#                 Cambridge Crystallographic Data Centre
#                                CCDC 
#
#######################################################################
#
# If this CIF has been generated from an entry in the Cambridge 
# Structural Database, then it will include bibliographic, chemical, 
# crystal, experimental, refinement or atomic coordinate data resulting 
# from the CCDC's data processing and validation procedures.
#
#######################################################################

data_FIZLUY
_chemical_name_common            'acotiamide hydrochloride monohydrate'
_chemical_formula_moiety         'C21 H31 N4 O5 S1 1+,H2 O1,Cl1 1-'
_chemical_name_systematic        
'N-[2-({2-[(2-hydroxy-4,5-dimethoxybenzene-1-carbonyl)amino]-1,3-thiazole-4-carbonyl}amino)ethyl]-N-(propan-2-yl)propan-2-aminium chloride monohydrate'
_chemical_properties_biological  
'treatment of postprandial fullness, abdominal distention, and early satiety caused by functional dyspepsia'
_symmetry_cell_setting           monoclinic
_symmetry_space_group_name_H-M   'P 21/c'
_symmetry_Int_Tables_number      14
_space_group_name_Hall           '-P 2ybc'
loop_
_symmetry_equiv_pos_site_id
_symmetry_equiv_pos_as_xyz
1 x,y,z
2 -x,1/2+y,1/2-z
3 -x,-y,-z
4 x,1/2-y,1/2+z
_cell_length_a                   14.3617(8)
_cell_length_b                   11.9955(6)
_cell_length_c                   14.4291(7)
_cell_angle_alpha                90
_cell_angle_beta                 95.9890(10)
_cell_angle_gamma                90
_cell_volume                     2472.22
_exptl_crystal_colour            colorless
_exptl_crystal_description       Prism
_cell_formula_units_Z            4
loop_
_atom_site_label
_atom_site_type_symbol
_atom_site_fract_x
_atom_site_fract_y
_atom_site_fract_z
S1 S 0.50980(4) 0.88102(4) 0.40041(4)
O1 O 0.28716(10) 0.53055(16) 0.41599(13)
O2 O 0.39702(10) 0.16231(13) 0.36060(11)
O3 O 0.55922(10) 0.23364(12) 0.33559(13)
O4 O 0.40321(10) 0.69079(12) 0.40363(11)
O5 O 0.79050(11) 1.05255(12) 0.36157(13)
N1 N 0.55291(11) 0.65900(14) 0.37893(12)
N2 N 0.66475(10) 0.79437(12) 0.36130(11)
N3 N 0.82781(12) 0.88177(14) 0.31345(13)
N4 N 1.02578(10) 0.79534(12) 0.39815(11)
C1 C 0.35805(13) 0.46170(18) 0.39571(14)
C2 C 0.33891(13) 0.34821(19) 0.38931(14)
H1 H 0.2796 0.3222 0.3986
C3 C 0.40709(13) 0.27402(16) 0.36939(14)
C4 C 0.49694(13) 0.31363(16) 0.35570(15)
C5 C 0.51549(12) 0.42499(16) 0.36146(14)
H2 H 0.5748 0.4504 0.3515
C6 C 0.44684(12) 0.50251(16) 0.38213(13)
C7 C 0.46514(13) 0.62247(16) 0.38912(14)
C8 C 0.58040(13) 0.76910(15) 0.37860(13)
C9 C 0.60136(14) 0.96789(17) 0.38518(15)
H3 H 0.5995 1.0452 0.3900
C10 C 0.67679(13) 0.90858(15) 0.36517(14)
C11 C 0.76898(13) 0.95478(15) 0.34679(14)
C12 C 0.91827(13) 0.91496(17) 0.28888(14)
H4 H 0.9137 0.9902 0.2641
H5 H 0.9354 0.8664 0.2397
C13 C 0.99557(13) 0.91183(15) 0.36868(14)
H6 H 1.0494 0.9520 0.3504
H7 H 0.9743 0.9503 0.4217
C14 C 1.01693(16) 0.77089(19) 0.50083(14)
H8 H 1.0562 0.8238 0.5391
C15 C 1.0509(2) 0.6534(2) 0.52483(18)
H9 H 1.1147 0.6458 0.5116
H10 H 1.0470 0.6395 0.5898
H11 H 1.0125 0.6007 0.4883
C16 C 0.91600(18) 0.7858(3) 0.52103(17)
H12 H 0.8960 0.8604 0.5054
H13 H 0.8769 0.7337 0.4844
H14 H 0.9113 0.7726 0.5860
C17 C 1.12195(13) 0.76655(17) 0.36835(16)
H15 H 1.1345 0.6882 0.3842
C18 C 1.12011(17) 0.7775(2) 0.26366(17)
H16 H 1.0705 0.7324 0.2339
H17 H 1.1098 0.8540 0.2460
H18 H 1.1789 0.7529 0.2447
C19 C 1.19880(15) 0.8355(2) 0.4210(2)
H19 H 1.1969 0.8257 0.4868
H20 H 1.2586 0.8117 0.4041
H21 H 1.1895 0.9128 0.4054
C20 C 0.30812(17) 0.1154(2) 0.3701(2)
H22 H 0.3110 0.0360 0.3623
H23 H 0.2904 0.1322 0.4309
H24 H 0.2627 0.1462 0.3235
C21 C 0.65173(15) 0.26954(19) 0.3247(2)
H25 H 0.6890 0.2065 0.3108
H26 H 0.6500 0.3224 0.2745
H27 H 0.6786 0.3040 0.3813
H28 H 0.9870(13) 0.7466(16) 0.3666(13)
H29 H 0.8129(14) 0.822(2) 0.3100(14)
H30 H 0.5928(15) 0.6149(17) 0.3740(15)
H31 H 0.313(2) 0.599(2) 0.414(2)
Cl1 Cl 0.90568(3) 0.61420(4) 0.28938(4)
O6 O 0.72734(12) 0.52904(16) 0.38548(18)
H32 H 0.779(3) 0.552(3) 0.364(2)
H33 H 0.745(3) 0.519(4) 0.441(3)
loop_
_geom_bond_atom_site_label_1
_geom_bond_atom_site_label_2
_geom_bond_site_symmetry_1
_geom_bond_site_symmetry_2
S1 C8 1_555 1_555
O1 C1 1_555 1_555
O2 C3 1_555 1_555
O3 C4 1_555 1_555
O4 C7 1_555 1_555
O5 C11 1_555 1_555
N1 C7 1_555 1_555
N2 C8 1_555 1_555
N3 C11 1_555 1_555
N4 C13 1_555 1_555
C1 C2 1_555 1_555
C2 H1 1_555 1_555
C3 C2 1_555 1_555
C4 C3 1_555 1_555
C5 C4 1_555 1_555
H2 C5 1_555 1_555
C6 C1 1_555 1_555
C7 C6 1_555 1_555
C8 N1 1_555 1_555
C9 S1 1_555 1_555
H3 C9 1_555 1_555
C10 N2 1_555 1_555
C11 C10 1_555 1_555
C12 N3 1_555 1_555
H4 C12 1_555 1_555
H5 C12 1_555 1_555
C13 C12 1_555 1_555
H6 C13 1_555 1_555
H7 C13 1_555 1_555
C14 N4 1_555 1_555
H8 C14 1_555 1_555
C15 C14 1_555 1_555
H9 C15 1_555 1_555
H10 C15 1_555 1_555
H11 C15 1_555 1_555
C16 C14 1_555 1_555
H12 C16 1_555 1_555
H13 C16 1_555 1_555
H14 C16 1_555 1_555
C17 N4 1_555 1_555
H15 C17 1_555 1_555
C18 C17 1_555 1_555
H16 C18 1_555 1_555
H17 C18 1_555 1_555
H18 C18 1_555 1_555
C19 C17 1_555 1_555
H19 C19 1_555 1_555
H20 C19 1_555 1_555
H21 C19 1_555 1_555
C20 O2 1_555 1_555
H22 C20 1_555 1_555
H23 C20 1_555 1_555
H24 C20 1_555 1_555
C21 O3 1_555 1_555
H25 C21 1_555 1_555
H26 C21 1_555 1_555
H27 C21 1_555 1_555
H28 N4 1_555 1_555
H29 N3 1_555 1_555
H30 N1 1_555 1_555
H31 O1 1_555 1_555
O6 H32 1_555 1_555
H33 O6 1_555 1_555
C5 C6 1_555 1_555
C9 C10 1_555 1_555

#END
