
#######################################################################
#
#                 Cambridge Crystallographic Data Centre
#                                CCDC 
#
#######################################################################
#
# If this CIF has been generated from an entry in the Cambridge 
# Structural Database, then it will include bibliographic, chemical, 
# crystal, experimental, refinement or atomic coordinate data resulting 
# from the CCDC's data processing and validation procedures.
#
#######################################################################

data_FIZTAK
_chemical_formula_moiety         'C22 H40 N2 O6 Si2'
_chemical_name_systematic        
3',5'-bis(O-t-butyldimethylsilyl)-5-formyl-2'-deoxyuridine
_symmetry_cell_setting           monoclinic
_symmetry_space_group_name_H-M   'P 21'
_symmetry_Int_Tables_number      4
_space_group_name_Hall           'P 2yb'
loop_
_symmetry_equiv_pos_site_id
_symmetry_equiv_pos_as_xyz
1 x,y,z
2 -x,1/2+y,-z
_cell_length_a                   14.7872(6)
_cell_length_b                   12.032(1)
_cell_length_c                   16.5277(7)
_cell_angle_alpha                90
_cell_angle_beta                 98.135(4)
_cell_angle_gamma                90
_cell_volume                     2911.01
_exptl_crystal_colour            colorless
_exptl_crystal_description       prism
_chemical_melting_point          139.1-140.1deg.C
_cell_formula_units_Z            4
_exptl_crystal_recrystallization_method 'hexane/ethyl acetate'
loop_
_atom_site_label
_atom_site_type_symbol
_atom_site_fract_x
_atom_site_fract_y
_atom_site_fract_z
Si3 Si 0.1174(6) -0.046 -0.3842(5)
Si4 Si 0.2622(9) 0.386(1) -0.1507(6)
O7 O -0.198(1) 0.114(2) -0.173(1)
O8 O -0.183(1) 0.360(2) 0.035(1)
O9 O 0.085(1) 0.433(2) 0.028(1)
O10 O 0.072(1) 0.096(1) -0.1411(9)
O11 O 0.062(1) 0.034(2) -0.329(1)
O12 O 0.187(1) 0.285(2) -0.171(1)
N3 N -0.063(1) 0.196(2) -0.132(1)
N4 N -0.190(1) 0.233(2) -0.071(1)
C23 C 0.224(2) 0.029(4) -0.402(3)
C24 C -0.152(2) 0.174(2) -0.126(2)
C25 C 0.150(3) -0.188(3) -0.328(2)
C26 C -0.145(2) 0.311(3) -0.018(2)
C27 C -0.049(2) 0.328(2) -0.027(2)
C28 C -0.014(2) 0.270(2) -0.079(1)
C29 C 0.007(2) 0.413(3) 0.027(2)
C30 C -0.016(2) 0.129(2) -0.189(1)
C31 C 0.010(2) 0.190(2) -0.259(2)
C32 C 0.094(2) 0.128(2) -0.279(1)
C33 C 0.139(1) 0.096(3) -0.196(2)
C34 C 0.212(2) 0.183(4) -0.163(2)
C35 C 0.028(3) -0.068(3) -0.478(2)
C36 C -0.052(3) -0.129(4) -0.465(2)
C37 C 0.018(3) 0.051(4) -0.522(2)
C38 C 0.090(3) -0.153(3) -0.533(2)
C39 C 0.302(2) 0.403(3) -0.042(2)
C40 C 0.200 0.516 -0.188
C41 C 0.361 0.366 -0.208
H10 H -0.251 0.220 -0.063
H11 H 0.050 0.279 -0.086
H12 H -0.019 0.454 0.068
H13 H -0.051 0.064 -0.205
H14 H -0.040 0.188 -0.304
H15 H 0.023 0.266 -0.246
H16 H 0.131 0.172 -0.309
H17 H 0.165 0.023 -0.199
H18 H 0.231 0.159 -0.106
H19 H 0.268 0.162 -0.189
Si1 Si -0.385(1) 0.120 -0.4114(8)
Si2 Si -0.1896(6) -0.328(1) -0.1872(8)
O1 O -0.671(2) -0.059(2) -0.184(1)
O2 O -0.624(1) -0.298(2) 0.038(1)
O3 O -0.472(4) -0.453(5) 0.033(3)
O4 O -0.444(1) -0.185(2) -0.2662(9)
O5 O -0.428(1) 0.030(2) -0.355(1)
O6 O -0.278(1) -0.250(2) -0.184(1)
N1 N -0.536(1) -0.169(2) -0.162(1)
N2 N -0.641(1) -0.177(2) -0.068(2)
C1 C -0.252 0.125 -0.404
C2 C -0.415 0.255 -0.361
C3 C -0.628(2) -0.118(4) -0.150(2)
C4 C -0.431 0.148 -0.530
C5 C -0.597(2) -0.262(3) -0.019(2)
C6 C -0.508(2) -0.295(2) -0.053(2)
C7 C -0.489(2) -0.246(2) -0.120(1)
C8 C -0.446(3) -0.389(3) -0.008(2)
C9 C -0.514(2) -0.115(3) -0.237(1)
C10 C -0.472(2) 0.000(3) -0.226(2)
C11 C -0.396(2) 0.000(2) -0.277(3)
C12 C -0.362(2) -0.116(3) -0.271(1)
C13 C -0.291(2) -0.139(3) -0.193(2)
C14 C -0.417 0.045 -0.582
C15 C -0.381 0.226 -0.544
C16 C -0.533 0.183 -0.545
C17 C -0.099(2) -0.251(4) -0.234(3)
C18 C -0.147(2) -0.371(4) -0.071(2)
C19 C -0.228(3) -0.463(5) -0.244(2)
C20 C -0.143(3) -0.539(3) -0.238(2)
C21 C -0.307(3) -0.518(4) -0.199(3)
C22 C -0.264(3) -0.433(4) -0.332(2)
H1 H -0.694 -0.151 -0.049
H2 H -0.431 -0.268 -0.136
H3 H -0.564 -0.113 -0.277
H4 H -0.450 0.014 -0.170
H5 H -0.518 0.055 -0.244
H6 H -0.349 0.051 -0.255
H7 H -0.336 -0.134 -0.318
H8 H -0.315 -0.110 -0.149
H9 H -0.237 -0.107 -0.203
O13? O -0.378(2) -0.410(4) -0.022(2)
loop_
_geom_bond_atom_site_label_1
_geom_bond_atom_site_label_2
_geom_bond_site_symmetry_1
_geom_bond_site_symmetry_2
Si1 O5 1_555 1_555
Si2 O6 1_555 1_555
O1 C3 1_555 1_555
O2 C5 1_555 1_555
O3 C8 1_555 1_555
O4 C9 1_555 1_555
O5 C11 1_555 1_555
O6 C13 1_555 1_555
N1 C3 1_555 1_555
N2 C3 1_555 1_555
C1 Si1 1_555 1_555
C2 Si1 1_555 1_555
C4 Si1 1_555 1_555
C5 N2 1_555 1_555
C6 C5 1_555 1_555
C7 N1 1_555 1_555
C8 C6 1_555 1_555
C9 N1 1_555 1_555
C10 C9 1_555 1_555
C11 C10 1_555 1_555
C12 O4 1_555 1_555
C13 C12 1_555 1_555
C14 C4 1_555 1_555
C15 C4 1_555 1_555
C16 C4 1_555 1_555
C17 Si2 1_555 1_555
C18 Si2 1_555 1_555
C19 Si2 1_555 1_555
C20 C19 1_555 1_555
C21 C19 1_555 1_555
C22 C19 1_555 1_555
H1 N2 1_555 1_555
H2 C7 1_555 1_555
H3 C9 1_555 1_555
H4 C10 1_555 1_555
H5 C10 1_555 1_555
H6 C11 1_555 1_555
H7 C12 1_555 1_555
H8 C13 1_555 1_555
H9 C13 1_555 1_555
Si3 O11 1_555 1_555
Si4 O12 1_555 1_555
O7 C24 1_555 1_555
O8 C26 1_555 1_555
O9 C29 1_555 1_555
O10 C30 1_555 1_555
O11 C32 1_555 1_555
O12 C34 1_555 1_555
N3 C24 1_555 1_555
N4 C24 1_555 1_555
C23 Si3 1_555 1_555
C25 Si3 1_555 1_555
C26 N4 1_555 1_555
C27 C26 1_555 1_555
C28 N3 1_555 1_555
C29 C27 1_555 1_555
C30 N3 1_555 1_555
C31 C30 1_555 1_555
C32 C31 1_555 1_555
C33 O10 1_555 1_555
C34 C33 1_555 1_555
C35 Si3 1_555 1_555
C36 C35 1_555 1_555
C37 C35 1_555 1_555
C38 C35 1_555 1_555
C39 Si4 1_555 1_555
C40 Si4 1_555 1_555
C41 Si4 1_555 1_555
H10 N4 1_555 1_555
H11 C28 1_555 1_555
H12 C29 1_555 1_555
H13 C30 1_555 1_555
H14 C31 1_555 1_555
H15 C31 1_555 1_555
H16 C32 1_555 1_555
H17 C33 1_555 1_555
H18 C34 1_555 1_555
H19 C34 1_555 1_555
C6 C7 1_555 1_555
C11 C12 1_555 1_555
C27 C28 1_555 1_555
C32 C33 1_555 1_555

#END
