
#######################################################################
#
#                 Cambridge Crystallographic Data Centre
#                                CCDC 
#
#######################################################################
#
# If this CIF has been generated from an entry in the Cambridge 
# Structural Database, then it will include bibliographic, chemical, 
# crystal, experimental, refinement or atomic coordinate data resulting 
# from the CCDC's data processing and validation procedures.
#
#######################################################################

data_FOBLEO01
_chemical_formula_moiety         'C4 H12 B1 O4 1-,C1 H4 O1,Na1 1+'
_chemical_name_systematic        'sodium tetramethoxyborate methanol solvate'
_symmetry_cell_setting           tetragonal
_symmetry_space_group_name_H-M   'I -4'
_symmetry_Int_Tables_number      82
_space_group_name_Hall           'I -4'
loop_
_symmetry_equiv_pos_site_id
_symmetry_equiv_pos_as_xyz
1 x,y,z
2 -x,-y,z
3 y,-x,-z
4 -y,x,-z
5 1/2+x,1/2+y,1/2+z
6 1/2-x,1/2-y,1/2+z
7 1/2+y,1/2-x,1/2-z
8 1/2-y,1/2+x,1/2-z
_cell_length_a                   22.108(5)
_cell_length_b                   22.108(5)
_cell_length_c                   8.842(5)
_cell_angle_alpha                90
_cell_angle_beta                 90
_cell_angle_gamma                90
_cell_volume                     4321.65
_exptl_crystal_colour            colorless
_exptl_crystal_description       block
_cell_formula_units_Z            16
loop_
_atom_site_label
_atom_site_type_symbol
_atom_site_fract_x
_atom_site_fract_y
_atom_site_fract_z
Na1 Na 0.43257(7) 0.77134(7) 0.86803(18)
O1 O 0.39119(14) 0.86560(13) 0.9111(3)
O2 O 0.35935(13) 0.81171(13) 0.7076(3)
O3 O 0.36960(13) 0.92141(13) 0.6780(3)
O4 O 0.28938(13) 0.88635(13) 0.8148(3)
C1 C 0.2594(2) 0.8470(2) 0.9165(6)
H1 H 0.2609 0.8064 0.8781
H2 H 0.2180 0.8593 0.9271
H3 H 0.2790 0.8485 1.0133
C2 C 0.3289(2) 0.8031(2) 0.5691(5)
H4 H 0.2888 0.8195 0.5761
H5 H 0.3266 0.7607 0.5471
H6 H 0.3507 0.8233 0.4898
C3 C 0.3948(2) 0.9160(2) 1.0096(6)
H7 H 0.4232 0.9448 0.9698
H8 H 0.4080 0.9028 1.1076
H9 H 0.3557 0.9345 1.0181
C4 C 0.4298(2) 0.9201(2) 0.6223(6)
H10 H 0.4574 0.9156 0.7054
H11 H 0.4383 0.9573 0.5701
H12 H 0.4345 0.8868 0.5539
B1 B 0.3527(2) 0.8711(2) 0.7777(6)
O5 O 0.33662(14) 0.63070(14) 0.9450(3)
O6 O 0.39419(14) 0.60911(14) 1.1488(3)
O7 O 0.39382(15) 0.71430(14) 1.0605(3)
O8 O 0.44584(15) 0.64631(16) 0.9197(4)
C5 C 0.3181(2) 0.6632(2) 0.8147(5)
H13 H 0.3459 0.6555 0.7336
H14 H 0.2783 0.6503 0.7855
H15 H 0.3175 0.7057 0.8369
C6 C 0.4411(2) 0.6167(3) 1.2543(6)
H16 H 0.4466 0.6590 1.2747
H17 H 0.4310 0.5961 1.3464
H18 H 0.4779 0.6003 1.2140
C7 C 0.3500(3) 0.7346(3) 1.1666(6)
H19 H 0.3104 0.7228 1.1334
H20 H 0.3518 0.7779 1.1744
H21 H 0.3581 0.7170 1.2637
C8 C 0.4517(3) 0.5902(3) 0.8431(7)
H22 H 0.4540 0.5580 0.9157
H23 H 0.4878 0.5905 0.7827
H24 H 0.4172 0.5840 0.7790
B2 B 0.3926(2) 0.6506(3) 1.0185(6)
Na2 Na 0.31376(7) 0.54664(7) 1.08634(19)
O9 O 0.50823(14) 0.73887(14) 0.6940(3)
C9 C 0.4884(3) 0.7177(3) 0.5523(6)
H25 H 0.4532 0.6928 0.5657
H26 H 0.5199 0.6944 0.5057
H27 H 0.4784 0.7515 0.4888
O10 O 0.52732(13) 0.78647(13) 0.9943(3)
C10 C 0.5291(3) 0.8034(2) 1.1502(5)
H28 H 0.5120 0.7717 1.2106
H29 H 0.5063 0.8399 1.1646
H30 H 0.5703 0.8101 1.1803
loop_
_geom_bond_atom_site_label_1
_geom_bond_atom_site_label_2
_geom_bond_site_symmetry_1
_geom_bond_site_symmetry_2
O1 C3 1_555 1_555
O2 C2 1_555 1_555
O3 C4 1_555 1_555
O4 C1 1_555 1_555
C1 H1 1_555 1_555
H2 C1 1_555 1_555
H3 C1 1_555 1_555
C2 H4 1_555 1_555
H5 C2 1_555 1_555
H6 C2 1_555 1_555
C3 H7 1_555 1_555
H8 C3 1_555 1_555
H9 C3 1_555 1_555
C4 H10 1_555 1_555
H11 C4 1_555 1_555
H12 C4 1_555 1_555
B1 O1 1_555 1_555
O5 C5 1_555 1_555
O6 C6 1_555 1_555
O7 C7 1_555 1_555
O8 C8 1_555 1_555
C5 H13 1_555 1_555
H14 C5 1_555 1_555
H15 C5 1_555 1_555
C6 H16 1_555 1_555
H17 C6 1_555 1_555
H18 C6 1_555 1_555
C7 H19 1_555 1_555
H20 C7 1_555 1_555
H21 C7 1_555 1_555
C8 H22 1_555 1_555
H23 C8 1_555 1_555
H24 C8 1_555 1_555
B2 O5 1_555 1_555
O9 C9 1_555 1_555
C9 H25 1_555 1_555
H26 C9 1_555 1_555
H27 C9 1_555 1_555
O10 C10 1_555 1_555
C10 H28 1_555 1_555
H29 C10 1_555 1_555
H30 C10 1_555 1_555
O2 B1 1_555 1_555
O3 B1 1_555 1_555
O4 B1 1_555 1_555
O6 B2 1_555 1_555
O7 B2 1_555 1_555
O8 B2 1_555 1_555

#END
