
#######################################################################
#
#                 Cambridge Crystallographic Data Centre
#                                CCDC 
#
#######################################################################
#
# If this CIF has been generated from an entry in the Cambridge 
# Structural Database, then it will include bibliographic, chemical, 
# crystal, experimental, refinement or atomic coordinate data resulting 
# from the CCDC's data processing and validation procedures.
#
#######################################################################

data_FOBPUK
_chemical_formula_moiety         'C35 H31 N1 O8'
_chemical_name_systematic        
"methyl 3a-hydroxy-8,10-dimethoxy-5a-(4-methoxyphenyl)-2,5-diphenyl-3a,4,5,5a-tetrahydro[1]benzofuro[3',2':2,3]cyclopenta[1,2-d][1,3]oxazole-4-carboxylate"
_symmetry_cell_setting           monoclinic
_symmetry_space_group_name_H-M   'C 2/c'
_symmetry_Int_Tables_number      15
_space_group_name_Hall           '-C 2yn'
loop_
_symmetry_equiv_pos_site_id
_symmetry_equiv_pos_as_xyz
1 x,y,z
2 -x,y,1/2-z
3 1/2+x,1/2+y,z
4 1/2-x,1/2+y,1/2-z
5 -x,-y,-z
6 x,-y,1/2+z
7 1/2-x,1/2-y,-z
8 1/2+x,1/2-y,1/2+z
_cell_length_a                   26.6128(17)
_cell_length_b                   10.4020(7)
_cell_length_c                   21.3640(14)
_cell_angle_alpha                90
_cell_angle_beta                 94.776(4)
_cell_angle_gamma                90
_cell_volume                     5893.58
_exptl_crystal_description       prism
_cell_formula_units_Z            8
loop_
_atom_site_label
_atom_site_type_symbol
_atom_site_fract_x
_atom_site_fract_y
_atom_site_fract_z
O1 O 0.59210(6) 0.37894(18) 0.23913(8)
O2 O 0.53474(6) 0.30325(17) 0.34125(8)
H1 H 0.540313 0.320767 0.305046
O3 O 0.68580(7) 0.2831(2) 0.42509(8)
O4 O 0.62109(7) 0.54304(18) 0.36020(9)
O5 O 0.46653(7) 0.3352(2) 0.46497(10)
O6 O 0.72816(8) 0.0834(2) 0.23268(9)
N1 N 0.53738(8) 0.5214(2) 0.36978(10)
O7 O 0.50853(9) 0.1533(2) 0.45203(13)
O8 O 0.71920(13) 0.7846(4) 0.59182(15)
C1 C 0.55849(9) 0.3939(2) 0.38232(11)
C2 C 0.63156(9) 0.3091(3) 0.26652(12)
C3 C 0.64096(9) 0.3242(3) 0.33144(12)
C4 C 0.61630(9) 0.4083(3) 0.37607(11)
C5 C 0.55413(9) 0.3495(3) 0.45100(12)
H2 H 0.554517 0.426481 0.477481
C6 C 0.66196(9) 0.2274(3) 0.23493(12)
H3 H 0.656136 0.215996 0.191759
C7 C 0.66444(10) 0.4777(3) 0.48300(17)
C8 C 0.71449(10) 0.4747(3) 0.50745(14)
H4 H 0.734875 0.405323 0.498962
C9 C 0.73407(8) 0.5756(4) 0.54459(12)
H5 H 0.767559 0.573592 0.560953
C10 C 0.70360(11) 0.6793(3) 0.55728(11)
C11 C 0.65355(11) 0.6822(3) 0.53283(13)
H6 H 0.633169 0.751632 0.541324
C12 C 0.63397(9) 0.5814(3) 0.49569(17)
H7 H 0.600484 0.583363 0.479334
C13 C 0.68022(9) 0.2584(3) 0.36230(12)
C14 C 0.60339(9) 0.2767(3) 0.46743(12)
H8 H 0.601640 0.199165 0.441266
C15 C 0.57344(11) 0.5944(3) 0.35823(12)
C16 C 0.70159(10) 0.1623(3) 0.26878(13)
C17 C 0.64409(9) 0.3652(3) 0.44068(12)
C18 C 0.50518(10) 0.2804(3) 0.45751(13)
C19 C 0.58518(10) 0.3789(3) 0.17193(12)
H9 H 0.615250 0.409935 0.155123
H10 H 0.557359 0.433721 0.158394
H11 H 0.578295 0.292946 0.157240
C20 C 0.71196(10) 0.1769(3) 0.33293(14)
H12 H 0.738649 0.134557 0.354969
C21 C 0.61447(17) 0.2312(4) 0.53416(19)
C22 C 0.64510(15) 0.1243(4) 0.54698(18)
H13 H 0.656605 0.077722 0.513873
C23 C 0.56193(14) 0.7318(3) 0.3417(3)
C24 C 0.60273(12) 0.8145(4) 0.3391(3)
H14 H 0.635438 0.782961 0.345845
C25 C 0.59464(17) 0.9442(4) 0.3265(3)
H15 H 0.621942 0.999574 0.324738
C26 C 0.5458(2) 0.9913(3) 0.3164(3)
H16 H 0.540347 1.078151 0.307935
C27 C 0.50496(15) 0.9086(4) 0.3190(3)
H17 H 0.472248 0.940115 0.312239
C28 C 0.51304(13) 0.7788(4) 0.3316(3)
H18 H 0.485743 0.723500 0.333347
C29 C 0.5972(2) 0.2969(5) 0.5845(2)
H19 H 0.576438 0.368286 0.577228
C30 C 0.77016(14) 0.0171(4) 0.26302(17)
H20 H 0.784778 -0.037823 0.233317
H21 H 0.759186 -0.033870 0.296780
H22 H 0.794862 0.078266 0.279452
C31 C 0.65876(16) 0.0861(5) 0.60828(19)
H23 H 0.679941 0.015641 0.615786
C32 C 0.77125(15) 0.7919(6) 0.61427(19)
H24 H 0.791778 0.780255 0.579820
H25 H 0.778822 0.725790 0.644978
H26 H 0.778113 0.874520 0.633085
C33 C 0.46080(16) 0.0856(4) 0.4532(3)
H27 H 0.437121 0.119081 0.420958
H28 H 0.447841 0.097320 0.493450
H29 H 0.465939 -0.004412 0.446070
C34 C 0.6106(2) 0.2570(6) 0.6461(2)
H30 H 0.598736 0.301831 0.679600
C35 C 0.6414(2) 0.1507(5) 0.6575(2)
H31 H 0.650240 0.123797 0.698421
H32? H 0.602512 0.192707 0.446569
C36? C 0.5820(2) 0.7307(4) 0.3475(4)
C37? C 0.6239(2) 0.7875(5) 0.3243(4)
H33? H 0.651301 0.737125 0.315379
C38? C 0.6249(3) 0.9195(6) 0.3145(4)
H34? H 0.653007 0.957500 0.298972
C39? C 0.5840(3) 0.9948(4) 0.3278(4)
H35? H 0.584706 1.083123 0.321257
C40? C 0.5421(3) 0.9380(6) 0.3510(4)
H36? H 0.514697 0.988373 0.359948
C41? C 0.5411(2) 0.8060(6) 0.3608(4)
H37? H 0.512990 0.767998 0.376355
O9? O 0.7494(5) 0.7159(12) 0.6008(5)
C42? C 0.7357(8) 0.841(2) 0.5951(8)
H38? H 0.728208 0.861059 0.551532
H39? H 0.762718 0.894071 0.612477
H40? H 0.706265 0.855171 0.617332
C43? C 0.6707(5) 0.4479(12) 0.4871(7)
C44? C 0.7188(4) 0.4223(11) 0.5149(6)
H41? H 0.734276 0.344266 0.507575
C45? C 0.7437(3) 0.5135(14) 0.5537(5)
H42? H 0.775817 0.496393 0.572273
C46? C 0.7205(4) 0.6302(12) 0.5646(5)
C47? C 0.6725(5) 0.6557(11) 0.5368(6)
H43? H 0.656955 0.733768 0.544188
C48? C 0.6476(4) 0.5646(14) 0.4981(7)
H44? H 0.615412 0.581643 0.479489
C49? C 0.6213(7) 0.2623(17) 0.5375(6)
C50? C 0.6019(7) 0.3298(18) 0.5862(8)
H45? H 0.576073 0.389130 0.577512
C51? C 0.6210(7) 0.3087(17) 0.6479(7)
H46? H 0.607987 0.353903 0.680466
C52? C 0.6595(6) 0.2201(17) 0.6609(4)
H47? H 0.672338 0.206003 0.702158
C53? C 0.6790(5) 0.1526(15) 0.6122(5)
H48? H 0.704776 0.093329 0.620897
C54? C 0.6599(5) 0.1737(14) 0.5505(5)
H49? H 0.672862 0.128554 0.517943
loop_
_geom_bond_atom_site_label_1
_geom_bond_atom_site_label_2
_geom_bond_site_symmetry_1
_geom_bond_site_symmetry_2
O1 C2 1_555 1_555
O2 H1 1_555 1_555
O3 C13 1_555 1_555
O4 C4 1_555 1_555
O5 C18 1_555 1_555
O6 C16 1_555 1_555
N1 C1 1_555 1_555
O7 C18 1_555 1_555
O8 C10 1_555 1_555
C1 O2 1_555 1_555
C2 C3 1_555 1_555
C3 C4 1_555 1_555
C4 C1 1_555 1_555
C5 C1 1_555 1_555
H2 C5 1_555 1_555
C6 C2 1_555 1_555
H3 C6 1_555 1_555
C7 C8 1_555 1_555
C8 H4 1_555 1_555
C9 C8 1_555 1_555
H5 C9 1_555 1_555
C10 C9 1_555 1_555
C11 C10 1_555 1_555
H6 C11 1_555 1_555
C12 C7 1_555 1_555
H7 C12 1_555 1_555
C13 C3 1_555 1_555
C14 C5 1_555 1_555
H8 C14 1_555 1_555
C15 O4 1_555 1_555
C16 C6 1_555 1_555
C17 O3 1_555 1_555
C18 C5 1_555 1_555
C19 O1 1_555 1_555
H9 C19 1_555 1_555
H10 C19 1_555 1_555
H11 C19 1_555 1_555
C20 C13 1_555 1_555
H12 C20 1_555 1_555
C21 C14 1_555 1_555
C22 C21 1_555 1_555
H13 C22 1_555 1_555
C23 C15 1_555 1_555
C24 C23 1_555 1_555
H14 C24 1_555 1_555
C25 C24 1_555 1_555
H15 C25 1_555 1_555
C26 C25 1_555 1_555
H16 C26 1_555 1_555
C27 C26 1_555 1_555
H17 C27 1_555 1_555
C28 C23 1_555 1_555
H18 C28 1_555 1_555
C29 C21 1_555 1_555
H19 C29 1_555 1_555
C30 O6 1_555 1_555
H20 C30 1_555 1_555
H21 C30 1_555 1_555
H22 C30 1_555 1_555
C31 C22 1_555 1_555
H23 C31 1_555 1_555
C32 O8 1_555 1_555
H24 C32 1_555 1_555
H25 C32 1_555 1_555
H26 C32 1_555 1_555
C33 O7 1_555 1_555
H27 C33 1_555 1_555
H28 C33 1_555 1_555
H29 C33 1_555 1_555
C34 C29 1_555 1_555
H30 C34 1_555 1_555
C35 C31 1_555 1_555
H31 C35 1_555 1_555
N1 C15 1_555 1_555
C4 C17 1_555 1_555
C7 C17 1_555 1_555
C11 C12 1_555 1_555
C14 C17 1_555 1_555
C16 C20 1_555 1_555
C27 C28 1_555 1_555
C34 C35 1_555 1_555

#END
