
#######################################################################
#
#                 Cambridge Crystallographic Data Centre
#                                CCDC 
#
#######################################################################
#
# If this CIF has been generated from an entry in the Cambridge 
# Structural Database, then it will include bibliographic, chemical, 
# crystal, experimental, refinement or atomic coordinate data resulting 
# from the CCDC's data processing and validation procedures.
#
#######################################################################

data_FOBRAQ
_chemical_formula_moiety         'C6 H7 I1 N1 1+,C8 H4 N1 O6 1-'
_chemical_name_systematic        '3-Iodoanilinium 2-carboxy-6-nitrobenzoate'
_symmetry_cell_setting           monoclinic
_symmetry_space_group_name_H-M   'P 21/c'
_symmetry_Int_Tables_number      14
_space_group_name_Hall           '-P 2ybc'
loop_
_symmetry_equiv_pos_site_id
_symmetry_equiv_pos_as_xyz
1 x,y,z
2 -x,1/2+y,1/2-z
3 -x,-y,-z
4 x,1/2-y,1/2+z
_cell_length_a                   16.0068(10)
_cell_length_b                   7.8616(5)
_cell_length_c                   13.5718(9)
_cell_angle_alpha                90
_cell_angle_beta                 113.3770(10)
_cell_angle_gamma                90
_cell_volume                     1567.67
_exptl_crystal_colour            colorless
_exptl_crystal_description       plate
_chemical_melting_point          460-461K
_cell_formula_units_Z            4
_exptl_crystal_recrystallization_method acetone
loop_
_atom_site_label
_atom_site_type_symbol
_atom_site_fract_x
_atom_site_fract_y
_atom_site_fract_z
O1 O 0.4599(2) 1.1267(4) 0.5676(2)
O2 O 0.47858(18) 0.9237(3) 0.68785(18)
O3 O 0.37966(16) 0.5996(3) 0.70209(17)
O4 O 0.43485(16) 0.5855(3) 0.57526(18)
O5 O 0.2429(2) 0.4413(4) 0.5109(3)
O6 O 0.1067(2) 0.5267(5) 0.4370(4)
N1 N 0.1878(2) 0.5516(4) 0.4787(3)
C1 C 0.3376(2) 0.9371(4) 0.5372(3)
C2 C 0.3109(2) 0.7683(4) 0.5447(2)
C3 C 0.2203(2) 0.7291(4) 0.4839(3)
C4 C 0.1571(3) 0.8466(5) 0.4206(3)
C5 C 0.1859(3) 1.0100(5) 0.4148(3)
C6 C 0.2757(3) 1.0524(5) 0.4719(3)
C7 C 0.4318(3) 1.0030(5) 0.5986(3)
C8 C 0.3805(2) 0.6391(4) 0.6130(2)
H1 H 0.0966 0.8157 0.3829
H2 H 0.1449 1.0910 0.3727
H3 H 0.2950 1.1622 0.4662
H4 H 0.5223 0.9822 0.7245
I1 I 0.04980(2) 0.70440(6) 0.12973(2)
N2 N 0.41182(18) 0.6134(4) 0.3645(2)
C9 C 0.3258(2) 0.5310(4) 0.2994(2)
C10 C 0.2487(2) 0.6300(5) 0.2550(3)
C11 C 0.1665(3) 0.5514(6) 0.1956(3)
C12 C 0.1623(3) 0.3772(7) 0.1795(3)
C13 C 0.2406(4) 0.2826(6) 0.2226(4)
C14 C 0.3238(3) 0.3574(5) 0.2847(3)
H5 H 0.4160 0.6247 0.4315
H6 H 0.4140 0.7156 0.3374
H7 H 0.4579 0.5502 0.3642
H8 H 0.2517 0.7472 0.2649
H9 H 0.1070 0.3248 0.1399
H10 H 0.2381 0.1660 0.2102
H11 H 0.3764 0.2922 0.3152
loop_
_geom_bond_atom_site_label_1
_geom_bond_atom_site_label_2
_geom_bond_site_symmetry_1
_geom_bond_site_symmetry_2
O1 C7 1_555 1_555
O2 C7 1_555 1_555
O3 C8 1_555 1_555
O4 C8 1_555 1_555
O5 N1 1_555 1_555
O6 N1 1_555 1_555
N1 C3 1_555 1_555
C1 C2 1_555 1_555
C2 C3 1_555 1_555
C3 C4 1_555 1_555
C4 C5 1_555 1_555
C5 C6 1_555 1_555
C6 C1 1_555 1_555
C7 C1 1_555 1_555
C8 C2 1_555 1_555
I1 C11 1_555 1_555
N2 C9 1_555 1_555
C9 C10 1_555 1_555
C10 C11 1_555 1_555
C11 C12 1_555 1_555
C12 C13 1_555 1_555
C13 C14 1_555 1_555
C14 C9 1_555 1_555
H1 C4 1_555 1_555
H2 C5 1_555 1_555
H3 C6 1_555 1_555
H4 O2 1_555 1_555
H5 N2 1_555 1_555
H6 N2 1_555 1_555
H7 N2 1_555 1_555
H8 C10 1_555 1_555
H9 C12 1_555 1_555
H10 C13 1_555 1_555
H11 C14 1_555 1_555

#END
