
#######################################################################
#
#                 Cambridge Crystallographic Data Centre
#                                CCDC 
#
#######################################################################
#
# If this CIF has been generated from an entry in the Cambridge 
# Structural Database, then it will include bibliographic, chemical, 
# crystal, experimental, refinement or atomic coordinate data resulting 
# from the CCDC's data processing and validation procedures.
#
#######################################################################

data_FOBSIY01
_chemical_formula_moiety         'C16 H13 N3 O2'
_chemical_name_systematic        
4-Phenyl-2,4,6-triazatetracyclo(6.3.2.0^2,6^.0^7,9^)trideca-10,12-diene-3,5-dione
_symmetry_cell_setting           monoclinic
_symmetry_space_group_name_H-M   'P 21/c'
_symmetry_Int_Tables_number      14
_space_group_name_Hall           '-P 2ybc'
loop_
_symmetry_equiv_pos_site_id
_symmetry_equiv_pos_as_xyz
1 x,y,z
2 -x,1/2+y,1/2-z
3 -x,-y,-z
4 x,1/2-y,1/2+z
_cell_length_a                   9.030(4)
_cell_length_b                   16.519(6)
_cell_length_c                   8.681(5)
_cell_angle_alpha                90
_cell_angle_beta                 96.20(4)
_cell_angle_gamma                90
_cell_volume                     1287.34
_cell_formula_units_Z            4
loop_
_atom_site_label
_atom_site_type_symbol
_atom_site_fract_x
_atom_site_fract_y
_atom_site_fract_z
O1 O 0.3607(2) 0.57136(9) 0.3448(2)
O2 O 0.1145(2) 0.4265(1) -0.0581(2)
N1 N 0.2497(2) 0.51656(9) 0.1115(2)
N2 N 0.2169(2) 0.4563(1) 0.3284(2)
N3 N 0.1503(2) 0.4099(1) 0.2060(2)
C1 C 0.2373(3) 0.4263(2) 0.4873(2)
C2 C 0.3072(3) 0.3452(2) 0.5055(3)
C3 C 0.2580(3) 0.2778(2) 0.4325(3)
C4 C 0.1306(4) 0.2703(1) 0.3226(3)
C5 C 0.0674(3) 0.3376(1) 0.2233(3)
C6 C -0.0221(3) 0.3245(2) 0.3532(3)
C7 C -0.0186(3) 0.3713(2) 0.4912(3)
C8 C 0.0918(4) 0.4145(2) 0.5553(3)
C9 C 0.2847(2) 0.5211(1) 0.2716(2)
C10 C 0.16447(3) 0.4477(1) 0.0705(2)
C11 C 0.3010(2) 0.5731(1) 0.0049(2)
C12 C 0.3620(3) 0.5452(1) -0.1255(3)
C13 C 0.4172(3) 0.6011(2) -0.2247(3)
C14 C 0.4135(3) 0.6824(2) -0.1923(3)
C15 C 0.3498(3) 0.7094(1) -0.0645(3)
C16 C 0.2928(3) 0.6546(1) 0.0346(3)
H1 H 0.295(2) 0.467(1) 0.538(3)
H2 H 0.394(4) 0.340(2) 0.585(4)
H3 H 0.311(3) 0.228(2) 0.459(3)
H4 H 0.114(3) 0.219(2) 0.277(3)
H5 H 0.020(3) 0.321(1) 0.11(3)
H6 H -0.115(4) 0.297(2) 0.322(4)
H7 H -0.104(3) 0.370(2) 0.543(3)
H8 H 0.087(4) 0.437(2) 0.659(4)
H9 H 0.362(2) 0.486(1) -0.148(3)
H10 H 0.455(2) 0.583(1) -0.319(3)
H11 H 0.456(3) 0.722(1) -0.261(3)
H12 H 0.347(3) 0.766(1) -0.040(3)
H13 H 0.248(2) 0.672(1) 0.122(2)
loop_
_geom_bond_atom_site_label_1
_geom_bond_atom_site_label_2
_geom_bond_site_symmetry_1
_geom_bond_site_symmetry_2
O1 C9 1_555 1_555
O2 C10 1_555 1_555
N1 C9 1_555 1_555
N2 N3 1_555 1_555
N3 C5 1_555 1_555
C1 N2 1_555 1_555
C2 C1 1_555 1_555
C3 C2 1_555 1_555
C4 C3 1_555 1_555
C5 C4 1_555 1_555
C6 C4 1_555 1_555
C7 C6 1_555 1_555
C8 C1 1_555 1_555
C9 N2 1_555 1_555
C10 N1 1_555 1_555
C11 N1 1_555 1_555
C12 C11 1_555 1_555
C13 C12 1_555 1_555
C14 C13 1_555 1_555
C15 C14 1_555 1_555
C16 C11 1_555 1_555
H1 C1 1_555 1_555
H2 C2 1_555 1_555
H3 C3 1_555 1_555
H4 C4 1_555 1_555
H5 C5 1_555 1_555
H6 C6 1_555 1_555
H7 C7 1_555 1_555
H8 C8 1_555 1_555
H9 C12 1_555 1_555
H10 C13 1_555 1_555
H11 C14 1_555 1_555
H12 C15 1_555 1_555
H13 C16 1_555 1_555
N3 C10 1_555 1_555
C5 C6 1_555 1_555
C7 C8 1_555 1_555
C15 C16 1_555 1_555

#END
