
#######################################################################
#
#                 Cambridge Crystallographic Data Centre
#                                CCDC 
#
#######################################################################
#
# If this CIF has been generated from an entry in the Cambridge 
# Structural Database, then it will include bibliographic, chemical, 
# crystal, experimental, refinement or atomic coordinate data resulting 
# from the CCDC's data processing and validation procedures.
#
#######################################################################

data_FOBYIH
_chemical_formula_moiety         'C68 H34 B2 F30 P2 Si2,2(C7 H8)'
_chemical_name_systematic        
'(\m-(6-methanidylidene-2,2,5,5-tetramethyl-1,1,4,4-tetraphenyl-1,4,2,5-diphosphadisilinane-1,4-diium-3-ylidene)methanide)-hexakis(pentafluorophenyl)-di-borate toluene solvate'
_symmetry_cell_setting           triclinic
_symmetry_space_group_name_H-M   'P -1'
_symmetry_Int_Tables_number      2
_space_group_name_Hall           '-P 1'
loop_
_symmetry_equiv_pos_site_id
_symmetry_equiv_pos_as_xyz
1 x,y,z
2 -x,-y,-z
_cell_length_a                   11.2183(9)
_cell_length_b                   12.6268(11)
_cell_length_c                   15.4800(15)
_cell_angle_alpha                66.773(9)
_cell_angle_beta                 70.324(8)
_cell_angle_gamma                71.966(7)
_cell_volume                     1857.36
_exptl_crystal_colour            colorless
_exptl_crystal_description       rectangular
_cell_formula_units_Z            1
loop_
_atom_site_label
_atom_site_type_symbol
_atom_site_fract_x
_atom_site_fract_y
_atom_site_fract_z
P1 P 0.06551(6) 0.49833(5) 0.37342(4)
Si1 Si -0.03553(6) 0.67042(6) 0.49405(5)
B1 B 0.1849(3) 0.8290(2) 0.2827(2)
F1 F 0.24542(14) 1.04540(13) 0.26299(11)
F2 F 0.39060(18) 1.07344(16) 0.35478(16)
F3 F 0.51161(19) 0.88431(18) 0.47849(17)
F4 F 0.48265(17) 0.66423(16) 0.51000(13)
F5 F 0.33571(14) 0.63425(13) 0.42322(11)
F6 F 0.03734(14) 1.00384(13) 0.40179(11)
F7 F -0.19523(17) 1.13416(16) 0.39707(15)
F8 F -0.33207(17) 1.12541(18) 0.28614(16)
F9 F -0.22433(17) 0.98083(17) 0.17537(15)
F10 F 0.01171(15) 0.84953(13) 0.17622(11)
F11 F 0.14896(15) 1.05668(13) 0.10814(11)
F12 F 0.30434(17) 1.09926(14) -0.06628(11)
F13 F 0.51617(17) 0.93481(17) -0.11161(11)
F14 F 0.57534(15) 0.72883(15) 0.02984(12)
F15 F 0.42453(13) 0.68502(12) 0.20822(11)
C1 C 0.0821(2) 0.6296(2) 0.38680(17)
C2 C 0.1597(2) 0.6956(2) 0.31170(17)
H1 H 0.2109 0.6573 0.2653
C3 C -0.2000(3) 0.7392(2) 0.4729(2)
H2 H -0.2573 0.7622 0.5290
H3 H -0.2338 0.6825 0.4637
H4 H -0.1954 0.8090 0.4147
C4 C 0.0174(3) 0.7526(2) 0.54602(19)
H5 H -0.0582 0.8041 0.5739
H6 H 0.0774 0.8003 0.4948
H7 H 0.0608 0.6969 0.5968
C5 C 0.2119(2) 0.4390(2) 0.29696(18)
C6 C 0.3324(2) 0.4360(2) 0.3058(2)
H8 H 0.3388 0.4753 0.3447
C7 C 0.4428(3) 0.3756(3) 0.2576(2)
H9 H 0.5254 0.3743 0.2627
C8 C 0.4329(3) 0.3173(3) 0.2023(2)
H10 H 0.5088 0.2756 0.1696
C9 C 0.3139(3) 0.3189(3) 0.1942(2)
H11 H 0.3079 0.2779 0.1563
C10 C 0.2031(3) 0.3802(2) 0.24102(19)
H12 H 0.1210 0.3820 0.2349
C11 C -0.0657(2) 0.5448(2) 0.31444(18)
C12 C -0.1877(3) 0.5256(3) 0.3683(2)
H13 H -0.2015 0.4816 0.4355
C13 C -0.2903(3) 0.5706(3) 0.3241(2)
H14 H -0.3745 0.5578 0.3608
C14 C -0.2688(3) 0.6333(3) 0.2275(2)
H15 H -0.3389 0.6642 0.1973
C15 C -0.1476(3) 0.6526(3) 0.1730(2)
H16 H -0.1342 0.6963 0.1058
C16 C -0.0455(3) 0.6084(2) 0.2164(2)
H17 H 0.0385 0.6216 0.1791
C17 C 0.2750(2) 0.8395(2) 0.34241(18)
C18 C 0.2996(2) 0.9481(2) 0.32612(19)
C19 C 0.3766(3) 0.9653(3) 0.3704(2)
C20 C 0.4389(3) 0.8689(3) 0.4334(2)
C21 C 0.4225(3) 0.7597(3) 0.4495(2)
C22 C 0.3433(2) 0.7463(2) 0.40394(19)
C23 C 0.0395(2) 0.9162(2) 0.29003(18)
C24 C -0.0215(2) 0.9924(2) 0.34423(19)
C25 C -0.1443(3) 1.0621(2) 0.3434(2)
C26 C -0.2138(3) 1.0583(3) 0.2876(2)
C27 C -0.1586(3) 0.9847(3) 0.2317(2)
C28 C -0.0372(2) 0.9178(2) 0.23452(19)
C29 C 0.2735(2) 0.8647(2) 0.16838(18)
C30 C 0.2517(2) 0.9694(2) 0.09369(19)
C31 C 0.3307(3) 0.9943(2) 0.00121(19)
C32 C 0.4385(3) 0.9133(3) -0.02216(19)
C33 C 0.4680(2) 0.8088(2) 0.0499(2)
C34 C 0.3871(2) 0.7884(2) 0.14135(18)
P1A P -0.06551(6) 0.50167(5) 0.62658(4)
Si1A Si 0.03553(6) 0.32958(6) 0.50595(5)
B1A B -0.1849(3) 0.1710(2) 0.7173(2)
F1A F -0.24542(14) -0.04540(13) 0.73701(11)
F2A F -0.39060(18) -0.07344(16) 0.64522(16)
F3A F -0.51161(19) 0.11569(18) 0.52151(17)
F4A F -0.48265(17) 0.33577(16) 0.49000(13)
F5A F -0.33571(14) 0.36575(13) 0.57678(11)
F6A F -0.03734(14) -0.00384(13) 0.59821(11)
F7A F 0.19523(17) -0.13416(16) 0.60293(15)
F8A F 0.33207(17) -0.12541(18) 0.71386(16)
F9A F 0.22433(17) 0.01917(17) 0.82463(15)
F10A F -0.01171(15) 0.15047(13) 0.82378(11)
F11A F -0.14896(15) -0.05668(13) 0.89186(11)
F12A F -0.30434(17) -0.09926(14) 1.06628(11)
F13A F -0.51617(17) 0.06519(17) 1.11161(11)
F14A F -0.57534(15) 0.27117(15) 0.97016(12)
F15A F -0.42453(13) 0.31498(12) 0.79178(11)
C1A C -0.0821(2) 0.3704(2) 0.61320(17)
C2A C -0.1597(2) 0.3044(2) 0.68830(17)
H1A H -0.2109 0.3427 0.7347
C3A C 0.2000(3) 0.2608(2) 0.5271(2)
H2A H 0.2573 0.2378 0.4710
H3A H 0.2338 0.3175 0.5363
H4A H 0.1954 0.1910 0.5853
C4A C -0.0174(3) 0.2474(2) 0.45398(19)
H5A H 0.0582 0.1959 0.4261
H6A H -0.0774 0.1997 0.5052
H7A H -0.0608 0.3031 0.4032
C5A C -0.2119(2) 0.5610(2) 0.70304(18)
C6A C -0.3324(2) 0.5640(2) 0.6942(2)
H8A H -0.3388 0.5247 0.6553
C7A C -0.4428(3) 0.6244(3) 0.7424(2)
H9A H -0.5254 0.6257 0.7373
C8A C -0.4329(3) 0.6827(3) 0.7977(2)
H10A H -0.5088 0.7244 0.8304
C9A C -0.3139(3) 0.6811(3) 0.8058(2)
H11A H -0.3079 0.7221 0.8437
C10A C -0.2031(3) 0.6198(2) 0.75898(19)
H12A H -0.1210 0.6180 0.7651
C11A C 0.0657(2) 0.4552(2) 0.68556(18)
C12A C 0.1877(3) 0.4744(3) 0.6317(2)
H13A H 0.2015 0.5184 0.5645
C13A C 0.2903(3) 0.4294(3) 0.6759(2)
H14A H 0.3745 0.4422 0.6392
C14A C 0.2688(3) 0.3667(3) 0.7725(2)
H15A H 0.3389 0.3358 0.8027
C15A C 0.1476(3) 0.3474(3) 0.8270(2)
H16A H 0.1342 0.3037 0.8942
C16A C 0.0455(3) 0.3916(2) 0.7836(2)
H17A H -0.0385 0.3784 0.8209
C17A C -0.2750(2) 0.1605(2) 0.65759(18)
C18A C -0.2996(2) 0.0519(2) 0.67388(19)
C19A C -0.3766(3) 0.0347(3) 0.6296(2)
C20A C -0.4389(3) 0.1311(3) 0.5666(2)
C21A C -0.4225(3) 0.2403(3) 0.5505(2)
C22A C -0.3433(2) 0.2537(2) 0.59606(19)
C23A C -0.0395(2) 0.0838(2) 0.70997(18)
C24A C 0.0215(2) 0.0076(2) 0.65577(19)
C25A C 0.1443(3) -0.0621(2) 0.6566(2)
C26A C 0.2138(3) -0.0583(3) 0.7124(2)
C27A C 0.1586(3) 0.0153(3) 0.7683(2)
C28A C 0.0372(2) 0.0822(2) 0.76548(19)
C29A C -0.2735(2) 0.1353(2) 0.83162(18)
C30A C -0.2517(2) 0.0306(2) 0.90631(19)
C31A C -0.3307(3) 0.0057(2) 0.99879(19)
C32A C -0.4385(3) 0.0867(3) 1.02216(19)
C33A C -0.4680(2) 0.1912(2) 0.9501(2)
C34A C -0.3871(2) 0.2116(2) 0.85865(18)
C35 C 0.1293(4) 0.6578(3) -0.0847(3)
C36 C 0.2278(4) 0.5600(3) -0.0702(3)
H18 H 0.2370 0.5009 -0.0967
C37 C 0.3131(3) 0.5460(3) -0.0182(3)
H19 H 0.3797 0.4775 -0.0085
C38 C 0.3013(3) 0.6314(3) 0.0192(2)
H20 H 0.3592 0.6217 0.0558
C39 C 0.2063(3) 0.7309(3) 0.0040(2)
H21 H 0.2000 0.7910 0.0287
C40 C 0.1206(3) 0.7440(3) -0.0466(2)
H22 H 0.0542 0.8127 -0.0558
C41 C 0.0345(5) 0.6708(4) -0.1389(4)
H23 H 0.0814 0.6561 -0.2005
H24 H -0.0181 0.7509 -0.1519
H25 H -0.0218 0.6140 -0.0999
loop_
_geom_bond_atom_site_label_1
_geom_bond_atom_site_label_2
_geom_bond_site_symmetry_1
_geom_bond_site_symmetry_2
P1 C1 1_555 1_555
Si1 C1 1_555 1_555
B1 C2 1_555 1_555
F1 C18 1_555 1_555
F2 C19 1_555 1_555
F3 C20 1_555 1_555
F4 C21 1_555 1_555
F5 C22 1_555 1_555
F6 C24 1_555 1_555
F7 C25 1_555 1_555
F8 C26 1_555 1_555
F9 C27 1_555 1_555
F10 C28 1_555 1_555
F11 C30 1_555 1_555
F12 C31 1_555 1_555
F13 C32 1_555 1_555
F14 C33 1_555 1_555
F15 C34 1_555 1_555
C1 C2 1_555 1_555
C2 H1 1_555 1_555
C3 Si1 1_555 1_555
H2 C3 1_555 1_555
H3 C3 1_555 1_555
H4 C3 1_555 1_555
C4 Si1 1_555 1_555
H5 C4 1_555 1_555
H6 C4 1_555 1_555
H7 C4 1_555 1_555
C5 P1 1_555 1_555
C6 C5 1_555 1_555
H8 C6 1_555 1_555
C7 C6 1_555 1_555
H9 C7 1_555 1_555
C8 C7 1_555 1_555
H10 C8 1_555 1_555
C9 C8 1_555 1_555
H11 C9 1_555 1_555
C10 C5 1_555 1_555
H12 C10 1_555 1_555
C11 P1 1_555 1_555
C12 C11 1_555 1_555
H13 C12 1_555 1_555
C13 C12 1_555 1_555
H14 C13 1_555 1_555
C14 C13 1_555 1_555
H15 C14 1_555 1_555
C15 C14 1_555 1_555
H16 C15 1_555 1_555
C16 C11 1_555 1_555
H17 C16 1_555 1_555
C17 B1 1_555 1_555
C18 C17 1_555 1_555
C19 C18 1_555 1_555
C20 C19 1_555 1_555
C21 C20 1_555 1_555
C22 C17 1_555 1_555
C23 B1 1_555 1_555
C24 C23 1_555 1_555
C25 C24 1_555 1_555
C26 C25 1_555 1_555
C27 C26 1_555 1_555
C28 C23 1_555 1_555
C29 B1 1_555 1_555
C30 C29 1_555 1_555
C31 C30 1_555 1_555
C32 C31 1_555 1_555
C33 C32 1_555 1_555
C34 C29 1_555 1_555
C35 C36 1_555 1_555
C36 H18 1_555 1_555
C37 C36 1_555 1_555
H19 C37 1_555 1_555
C38 C37 1_555 1_555
H20 C38 1_555 1_555
C39 C38 1_555 1_555
H21 C39 1_555 1_555
C40 C35 1_555 1_555
H22 C40 1_555 1_555
C41 C35 1_555 1_555
H23 C41 1_555 1_555
H24 C41 1_555 1_555
H25 C41 1_555 1_555
P1A Si1 1_555 1_555
Si1A P1 1_555 1_555
B1A C2A 1_555 1_555
F1A C18A 1_555 1_555
F2A C19A 1_555 1_555
F3A C20A 1_555 1_555
F4A C21A 1_555 1_555
F5A C22A 1_555 1_555
F6A C24A 1_555 1_555
F7A C25A 1_555 1_555
F8A C26A 1_555 1_555
F9A C27A 1_555 1_555
F10A C28A 1_555 1_555
F11A C30A 1_555 1_555
F12A C31A 1_555 1_555
F13A C32A 1_555 1_555
F14A C33A 1_555 1_555
F15A C34A 1_555 1_555
C1A P1A 1_555 1_555
C2A C1A 1_555 1_555
H1A C2A 1_555 1_555
C3A Si1A 1_555 1_555
H2A C3A 1_555 1_555
H3A C3A 1_555 1_555
H4A C3A 1_555 1_555
C4A Si1A 1_555 1_555
H5A C4A 1_555 1_555
H6A C4A 1_555 1_555
H7A C4A 1_555 1_555
C5A P1A 1_555 1_555
C6A C5A 1_555 1_555
H8A C6A 1_555 1_555
C7A C6A 1_555 1_555
H9A C7A 1_555 1_555
C8A C7A 1_555 1_555
H10A C8A 1_555 1_555
C9A C8A 1_555 1_555
H11A C9A 1_555 1_555
C10A C5A 1_555 1_555
H12A C10A 1_555 1_555
C11A P1A 1_555 1_555
C12A C11A 1_555 1_555
H13A C12A 1_555 1_555
C13A C12A 1_555 1_555
H14A C13A 1_555 1_555
C14A C13A 1_555 1_555
H15A C14A 1_555 1_555
C15A C14A 1_555 1_555
H16A C15A 1_555 1_555
C16A C11A 1_555 1_555
H17A C16A 1_555 1_555
C17A B1A 1_555 1_555
C18A C17A 1_555 1_555
C19A C18A 1_555 1_555
C20A C19A 1_555 1_555
C21A C20A 1_555 1_555
C22A C17A 1_555 1_555
C23A B1A 1_555 1_555
C24A C23A 1_555 1_555
C25A C24A 1_555 1_555
C26A C25A 1_555 1_555
C27A C26A 1_555 1_555
C28A C23A 1_555 1_555
C29A B1A 1_555 1_555
C30A C29A 1_555 1_555
C31A C30A 1_555 1_555
C32A C31A 1_555 1_555
C33A C32A 1_555 1_555
C34A C29A 1_555 1_555
C9 C10 1_555 1_555
C15 C16 1_555 1_555
C21 C22 1_555 1_555
C27 C28 1_555 1_555
C33 C34 1_555 1_555
C39 C40 1_555 1_555
Si1A C1A 1_555 1_555
C9A C10A 1_555 1_555
C15A C16A 1_555 1_555
C21A C22A 1_555 1_555
C27A C28A 1_555 1_555
C33A C34A 1_555 1_555

#END
