
#######################################################################
#
#                 Cambridge Crystallographic Data Centre
#                                CCDC 
#
#######################################################################
#
# If this CIF has been generated from an entry in the Cambridge 
# Structural Database, then it will include bibliographic, chemical, 
# crystal, experimental, refinement or atomic coordinate data resulting 
# from the CCDC's data processing and validation procedures.
#
#######################################################################

data_FOBZII
_chemical_formula_moiety         'C68 H36 B2 F30 O1 P2 Si2,C7 H8'
_chemical_name_systematic        
'(\m-2-(diphenylphosphaniumyl)-2-{3-[1-(diphenylphosphaniumyl)ethen-2-id-1-yl]-1,1,3,3-tetramethyldisiloxanyl}ethen-1-yl)-hexakis(pentafluorophenyl)-di-borate toluene solvate'
_symmetry_cell_setting           triclinic
_symmetry_space_group_name_H-M   'P -1'
_symmetry_Int_Tables_number      2
_space_group_name_Hall           '-P 1'
loop_
_symmetry_equiv_pos_site_id
_symmetry_equiv_pos_as_xyz
1 x,y,z
2 -x,-y,-z
_cell_length_a                   11.0069(12)
_cell_length_b                   11.1895(10)
_cell_length_c                   29.9621(15)
_cell_angle_alpha                80.938(6)
_cell_angle_beta                 87.066(7)
_cell_angle_gamma                89.252(8)
_cell_volume                     3639.3
_exptl_crystal_colour            colorless
_exptl_crystal_description       block
_cell_formula_units_Z            2
loop_
_atom_site_label
_atom_site_type_symbol
_atom_site_fract_x
_atom_site_fract_y
_atom_site_fract_z
P1 P 0.9112(2) 0.67420(19) 0.18082(6)
H1 H 0.858(8) 0.704(9) 0.215(2)
P2 P 0.6531(2) 0.66583(15) 0.30590(6)
H2 H 0.683(8) 0.610(8) 0.272(2)
Si1 Si 0.6569(2) 0.79066(18) 0.16055(7)
Si2 Si 0.6920(2) 0.91625(16) 0.24645(6)
O1 O 0.6898(6) 0.8184(4) 0.21096(17)
B1 B 0.6763(10) 0.5267(8) 0.0954(3)
B2 B 0.8156(8) 0.9594(7) 0.3561(3)
C1 C 0.7704(8) 0.6683(6) 0.1523(2)
C2 C 0.7637(9) 0.5720(7) 0.1308(2)
H3 H 0.8275 0.5158 0.1385
C3 C 0.6822(12) 0.9310(8) 0.1181(3)
H4 H 0.6250 0.9942 0.1250
H5 H 0.6690 0.9131 0.0877
H6 H 0.7657 0.9591 0.1192
C4 C 0.5002(8) 0.7420(9) 0.1639(3)
H7 H 0.4846 0.6840 0.1916
H8 H 0.4847 0.7033 0.1375
H9 H 0.4462 0.8123 0.1642
C5 C 0.9924(8) 0.5291(6) 0.1830(3)
C6 C 0.9610(8) 0.4332(7) 0.2169(3)
H10 H 0.9082 0.4464 0.2418
C7 C 1.0069(9) 0.3180(6) 0.2145(3)
H11 H 0.9854 0.2525 0.2376
C8 C 1.0842(9) 0.2986(6) 0.1781(3)
H12 H 1.1156 0.2199 0.1764
C9 C 1.1156(9) 0.3945(8) 0.1442(3)
H13 H 1.1684 0.3813 0.1194
C10 C 1.0697(9) 0.5097(6) 0.1467(3)
H14 H 1.0912 0.5752 0.1235
C11 C 1.0129(8) 0.7955(7) 0.1545(3)
C12 C 1.0934(12) 0.8394(9) 0.1807(3)
H15 H 1.0922 0.8127 0.2124
C13 C 1.1751(12) 0.9220(9) 0.1604(3)
H16 H 1.2328 0.9537 0.1779
C14 C 1.1755(10) 0.9614(8) 0.1135(3)
H17 H 1.2338 1.0187 0.0993
C15 C 1.0907(9) 0.9162(8) 0.0882(3)
H18 H 1.0901 0.9440 0.0566
C16 C 1.0074(9) 0.8319(7) 0.1082(3)
H19 H 0.9488 0.7999 0.0911
C17 C 0.5645(9) 0.4359(6) 0.1235(2)
C18 C 0.5451(9) 0.4083(6) 0.1697(3)
C19 C 0.4631(10) 0.3213(7) 0.1909(3)
C20 C 0.4050(10) 0.2542(7) 0.1657(3)
C21 C 0.4149(11) 0.2799(7) 0.1189(3)
C22 C 0.4936(9) 0.3694(7) 0.0997(3)
C23 C 0.6225(9) 0.6421(7) 0.0621(3)
C24 C 0.5010(10) 0.6739(7) 0.0541(3)
C25 C 0.4706(12) 0.7742(9) 0.0219(3)
C26 C 0.5533(15) 0.8448(8) -0.0022(3)
C27 C 0.6727(14) 0.8190(8) 0.0057(3)
C28 C 0.7042(10) 0.7212(7) 0.0372(3)
C29 C 0.7571(9) 0.4320(7) 0.0692(3)
C30 C 0.7846(9) 0.4378(8) 0.0232(3)
C31 C 0.8584(11) 0.3556(10) 0.0044(3)
C32 C 0.9002(12) 0.2580(10) 0.0305(4)
C33 C 0.8751(10) 0.2471(8) 0.0764(3)
C34 C 0.8125(8) 0.3314(7) 0.0945(3)
C35 C 0.7156(8) 0.8154(6) 0.3024(2)
C36 C 0.7676(7) 0.8356(6) 0.3400(2)
H20 H 0.7789 0.7646 0.3614
C37 C 0.8195(9) 1.0244(7) 0.2269(3)
H21 H 0.8231 1.0840 0.2475
H22 H 0.8966 0.9797 0.2267
H23 H 0.8055 1.0660 0.1963
C38 C 0.5380(9) 0.9921(8) 0.2473(3)
H24 H 0.5167 1.0233 0.2163
H25 H 0.5404 1.0591 0.2647
H26 H 0.4769 0.9332 0.2614
C39 C 0.7161(9) 0.5571(6) 0.3494(2)
C40 C 0.8423(9) 0.5392(7) 0.3470(3)
H27 H 0.8916 0.5864 0.3240
C41 C 0.8946(11) 0.4525(9) 0.3783(4)
H28 H 0.9802 0.4403 0.3777
C42 C 0.8181(12) 0.3829(8) 0.4108(3)
H29 H 0.8527 0.3223 0.4324
C43 C 0.6961(11) 0.4000(8) 0.4123(3)
H30 H 0.6464 0.3500 0.4344
C44 C 0.6423(10) 0.4900(7) 0.3819(2)
H31 H 0.5571 0.5044 0.3837
C45 C 0.4907(8) 0.6632(7) 0.3129(3)
C46 C 0.4255(11) 0.5891(8) 0.2906(4)
H32 H 0.4657 0.5423 0.2704
C47 C 0.2968(10) 0.5834(9) 0.2982(5)
H33 H 0.2499 0.5325 0.2833
C48 C 0.2414(11) 0.6526(9) 0.3275(5)
H34 H 0.1555 0.6482 0.3327
C49 C 0.3053(11) 0.7272(10) 0.3493(4)
H35 H 0.2648 0.7748 0.3691
C50 C 0.4307(10) 0.7325(8) 0.3419(3)
H36 H 0.4763 0.7842 0.3570
C51 C 0.7134(8) 1.0645(6) 0.3462(2)
C52 C 0.7184(7) 1.1783(6) 0.3215(2)
C53 C 0.6262(8) 1.2610(7) 0.3160(3)
C54 C 0.5149(8) 1.2294(7) 0.3372(3)
C55 C 0.5008(8) 1.1133(7) 0.3619(3)
C56 C 0.5957(8) 1.0353(6) 0.3665(2)
C57 C 0.9566(7) 1.0021(6) 0.3336(2)
C58 C 1.0058(8) 1.1056(6) 0.3467(3)
C59 C 1.1254(7) 1.1476(7) 0.3316(3)
C60 C 1.1888(7) 1.0846(7) 0.3046(3)
C61 C 1.1518(7) 0.9803(7) 0.2912(2)
C62 C 1.0288(7) 0.9422(6) 0.3064(2)
C63 C 0.8463(8) 0.9248(7) 0.4108(2)
C64 C 0.9269(8) 0.8283(8) 0.4239(3)
C65 C 0.9580(10) 0.7963(8) 0.4681(3)
C66 C 0.9150(10) 0.8553(9) 0.5009(3)
C67 C 0.8380(8) 0.9518(8) 0.4900(3)
C68 C 0.8056(9) 0.9825(7) 0.4456(3)
F1 F 0.6064(5) 0.4668(5) 0.19809(15)
F2 F 0.4509(7) 0.3001(5) 0.23663(17)
F3 F 0.3292(6) 0.1660(4) 0.1853(2)
F4 F 0.3523(7) 0.2182(5) 0.09381(19)
F5 F 0.5049(5) 0.3884(5) 0.05364(15)
F6 F 0.4087(5) 0.6101(4) 0.07597(17)
F7 F 0.3494(7) 0.7988(5) 0.0158(2)
F8 F 0.5262(8) 0.9362(5) -0.03414(19)
F9 F 0.7623(7) 0.8877(5) -0.01797(19)
F10 F 0.8259(6) 0.6989(5) 0.04223(16)
F11 F 0.7350(6) 0.5278(5) -0.00682(16)
F12 F 0.8779(7) 0.3702(6) -0.0410(2)
F13 F 0.9676(7) 0.1757(6) 0.0127(3)
F14 F 0.9260(7) 0.1515(5) 0.1040(2)
F15 F 0.7878(6) 0.3099(4) 0.14018(17)
F16 F 0.8248(5) 1.2194(4) 0.29839(14)
F17 F 0.6420(4) 1.3699(3) 0.29108(15)
F18 F 0.4212(5) 1.3085(4) 0.33342(18)
F19 F 0.3909(5) 1.0804(4) 0.38189(17)
F20 F 0.5780(5) 0.9294(4) 0.39215(15)
F21 F 0.9461(4) 1.1680(4) 0.37424(14)
F22 F 1.1637(5) 1.2478(4) 0.34472(18)
F23 F 1.3069(5) 1.1247(5) 0.28937(18)
F24 F 1.2168(5) 0.9211(4) 0.26472(16)
F25 F 0.9969(5) 0.8405(4) 0.29265(15)
F26 F 0.9739(6) 0.7649(5) 0.39358(16)
F27 F 1.0362(7) 0.7008(6) 0.4786(2)
F28 F 0.9473(6) 0.8260(6) 0.54463(18)
F29 F 0.7943(6) 1.0160(6) 0.52200(17)
F30 F 0.7325(5) 1.0829(4) 0.43805(15)
C82 C 0.3548(18) 0.3716(14) 0.4713(6)
C83 C 0.425(2) 0.4015(11) 0.5052(6)
H50 H 0.4157 0.4788 0.5144
C84 C 0.508(2) 0.3185(16) 0.5257(6)
H51 H 0.5556 0.3390 0.5489
C85 C 0.5211(19) 0.2055(14) 0.5122(6)
H52 H 0.5779 0.1488 0.5262
C86 C 0.451(2) 0.1756(12) 0.4783(6)
H53 H 0.4602 0.0983 0.4691
C87 C 0.3680(18) 0.2586(15) 0.4578(6)
H54 H 0.3202 0.2381 0.4346
C88 C 0.252(4) 0.451(3) 0.4434(10)
H55 H 0.2189 0.4041 0.4217
H56 H 0.1859 0.4699 0.4645
H57 H 0.2875 0.5258 0.4272
C69? C 0.994(3) 0.560(2) 0.1925(11)
C70? C 0.965(3) 0.470(3) 0.2288(10)
H37? H 0.8989 0.4812 0.2494
C71? C 1.033(3) 0.364(2) 0.2350(9)
H38? H 1.0131 0.3020 0.2598
C72? C 1.130(2) 0.348(2) 0.2048(10)
H39? H 1.1762 0.2748 0.2090
C73? C 1.159(2) 0.438(3) 0.1685(9)
H40? H 1.2250 0.4268 0.1479
C74? C 1.091(3) 0.544(2) 0.1624(9)
H41? H 1.1108 0.6060 0.1376
C75? C 0.286(3) 0.377(3) 0.4675(9)
C76? C 0.297(3) 0.372(2) 0.5137(9)
H42? H 0.2451 0.4206 0.5300
C77? C 0.383(3) 0.297(3) 0.5362(7)
H43? H 0.3906 0.2940 0.5678
C78? C 0.459(3) 0.226(3) 0.5124(9)
H44? H 0.5183 0.1749 0.5277
C79? C 0.449(3) 0.231(3) 0.4661(9)
H45? H 0.5004 0.1824 0.4498
C80? C 0.362(3) 0.306(3) 0.4436(7)
H46? H 0.3549 0.3090 0.4120
C81? C 0.211(6) 0.443(4) 0.4627(17)
H47? H 0.1906 0.4567 0.4308
H48? H 0.1391 0.4103 0.4814
H49? H 0.2347 0.5190 0.4716
loop_
_geom_bond_atom_site_label_1
_geom_bond_atom_site_label_2
_geom_bond_site_symmetry_1
_geom_bond_site_symmetry_2
P1 H1 1_555 1_555
P2 H2 1_555 1_555
Si1 O1 1_555 1_555
Si2 O1 1_555 1_555
B1 C2 1_555 1_555
B2 C36 1_555 1_555
C1 P1 1_555 1_555
C2 C1 1_555 1_555
H3 C2 1_555 1_555
C3 Si1 1_555 1_555
H4 C3 1_555 1_555
H5 C3 1_555 1_555
H6 C3 1_555 1_555
C4 Si1 1_555 1_555
H7 C4 1_555 1_555
H8 C4 1_555 1_555
H9 C4 1_555 1_555
C5 P1 1_555 1_555
C6 C5 1_555 1_555
H10 C6 1_555 1_555
C7 C6 1_555 1_555
H11 C7 1_555 1_555
C8 C7 1_555 1_555
H12 C8 1_555 1_555
C9 C8 1_555 1_555
H13 C9 1_555 1_555
C10 C5 1_555 1_555
H14 C10 1_555 1_555
C11 P1 1_555 1_555
C12 C11 1_555 1_555
H15 C12 1_555 1_555
C13 C12 1_555 1_555
H16 C13 1_555 1_555
C14 C13 1_555 1_555
H17 C14 1_555 1_555
C15 C14 1_555 1_555
H18 C15 1_555 1_555
C16 C11 1_555 1_555
H19 C16 1_555 1_555
C17 B1 1_555 1_555
C18 C17 1_555 1_555
C19 C18 1_555 1_555
C20 C19 1_555 1_555
C21 C20 1_555 1_555
C22 C17 1_555 1_555
C23 B1 1_555 1_555
C24 C23 1_555 1_555
C25 C24 1_555 1_555
C26 C25 1_555 1_555
C27 C26 1_555 1_555
C28 C23 1_555 1_555
C29 B1 1_555 1_555
C30 C29 1_555 1_555
C31 C30 1_555 1_555
C32 C31 1_555 1_555
C33 C32 1_555 1_555
C34 C29 1_555 1_555
C35 P2 1_555 1_555
C36 C35 1_555 1_555
H20 C36 1_555 1_555
C37 Si2 1_555 1_555
H21 C37 1_555 1_555
H22 C37 1_555 1_555
H23 C37 1_555 1_555
C38 Si2 1_555 1_555
H24 C38 1_555 1_555
H25 C38 1_555 1_555
H26 C38 1_555 1_555
C39 P2 1_555 1_555
C40 C39 1_555 1_555
H27 C40 1_555 1_555
C41 C40 1_555 1_555
H28 C41 1_555 1_555
C42 C41 1_555 1_555
H29 C42 1_555 1_555
C43 C42 1_555 1_555
H30 C43 1_555 1_555
C44 C39 1_555 1_555
H31 C44 1_555 1_555
C45 P2 1_555 1_555
C46 C45 1_555 1_555
H32 C46 1_555 1_555
C47 C46 1_555 1_555
H33 C47 1_555 1_555
C48 C47 1_555 1_555
H34 C48 1_555 1_555
C49 C48 1_555 1_555
H35 C49 1_555 1_555
C50 C45 1_555 1_555
H36 C50 1_555 1_555
C51 B2 1_555 1_555
C52 C51 1_555 1_555
C53 C52 1_555 1_555
C54 C53 1_555 1_555
C55 C54 1_555 1_555
C56 C51 1_555 1_555
C57 B2 1_555 1_555
C58 C57 1_555 1_555
C59 C58 1_555 1_555
C60 C59 1_555 1_555
C61 C60 1_555 1_555
C62 C57 1_555 1_555
C63 B2 1_555 1_555
C64 C63 1_555 1_555
C65 C64 1_555 1_555
C66 C65 1_555 1_555
C67 C66 1_555 1_555
C68 C63 1_555 1_555
F1 C18 1_555 1_555
F2 C19 1_555 1_555
F3 C20 1_555 1_555
F4 C21 1_555 1_555
F5 C22 1_555 1_555
F6 C24 1_555 1_555
F7 C25 1_555 1_555
F8 C26 1_555 1_555
F9 C27 1_555 1_555
F10 C28 1_555 1_555
F11 C30 1_555 1_555
F12 C31 1_555 1_555
F13 C32 1_555 1_555
F14 C33 1_555 1_555
F15 C34 1_555 1_555
F16 C52 1_555 1_555
F17 C53 1_555 1_555
F18 C54 1_555 1_555
F19 C55 1_555 1_555
F20 C56 1_555 1_555
F21 C58 1_555 1_555
F22 C59 1_555 1_555
F23 C60 1_555 1_555
F24 C61 1_555 1_555
F25 C62 1_555 1_555
F26 C64 1_555 1_555
F27 C65 1_555 1_555
F28 C66 1_555 1_555
F29 C67 1_555 1_555
F30 C68 1_555 1_555
C82 C83 1_555 1_555
C83 H50 1_555 1_555
C84 C83 1_555 1_555
H51 C84 1_555 1_555
C85 C84 1_555 1_555
H52 C85 1_555 1_555
C86 C85 1_555 1_555
H53 C86 1_555 1_555
C87 C82 1_555 1_555
H54 C87 1_555 1_555
C88 C82 1_555 1_555
H55 C88 1_555 1_555
H56 C88 1_555 1_555
H57 C88 1_555 1_555
Si1 C1 1_555 1_555
Si2 C35 1_555 1_555
C9 C10 1_555 1_555
C15 C16 1_555 1_555
C21 C22 1_555 1_555
C27 C28 1_555 1_555
C33 C34 1_555 1_555
C43 C44 1_555 1_555
C49 C50 1_555 1_555
C55 C56 1_555 1_555
C61 C62 1_555 1_555
C67 C68 1_555 1_555
C86 C87 1_555 1_555

#END
