
#######################################################################
#
#                 Cambridge Crystallographic Data Centre
#                                CCDC 
#
#######################################################################
#
# If this CIF has been generated from an entry in the Cambridge 
# Structural Database, then it will include bibliographic, chemical, 
# crystal, experimental, refinement or atomic coordinate data resulting 
# from the CCDC's data processing and validation procedures.
#
#######################################################################

data_FOCDOT
_chemical_compound_source        'Ascidian-derived fungi'
_chemical_formula_moiety         'C35 H41 N1 O5,C1 H1 Cl3'
_chemical_name_systematic        
'3-acetyl-6-ethenyl-8,8b,10,12-tetramethyl-3a,4,6,8a,8b,9,10,11,12,12a,12b,12c-dodecahydro-18H-18a,4-(epiminomethano)-14,17-ethenofluoreno[9,1-bc]furo[3,2-g]oxacyclotridecine-5,20(5aH)-dione chloroform solvate'
_symmetry_cell_setting           orthorhombic
_symmetry_space_group_name_H-M   'P 21 21 2'
_symmetry_Int_Tables_number      18
_space_group_name_Hall           'P 2 2ab'
loop_
_symmetry_equiv_pos_site_id
_symmetry_equiv_pos_as_xyz
1 x,y,z
2 -x,-y,z
3 1/2+x,1/2-y,-z
4 1/2-x,1/2+y,-z
_cell_length_a                   15.04610(10)
_cell_length_b                   28.6830(2)
_cell_length_c                   7.87240(10)
_cell_angle_alpha                90
_cell_angle_beta                 90
_cell_angle_gamma                90
_cell_volume                     3397.47
_exptl_crystal_colour            colorless
_exptl_crystal_description       plate
_cell_formula_units_Z            4
_exptl_crystal_recrystallization_method 'Vapour deposition'
loop_
_atom_site_label
_atom_site_type_symbol
_atom_site_fract_x
_atom_site_fract_y
_atom_site_fract_z
Cl1 Cl -0.25254(5) -0.13601(3) -0.29154(9)
Cl2 Cl -0.19499(6) -0.21679(3) -0.47541(13)
Cl3 Cl -0.11104(7) -0.12825(3) -0.53581(13)
C1 C -0.16070(17) -0.16408(9) -0.3855(3)
H1 H -0.1170 -0.1709 -0.2965
O1 O -0.67598(9) -0.10775(5) -0.0882(2)
O2 O -0.95413(10) -0.32668(5) -0.0039(2)
O3 O -0.96571(12) -0.26319(6) 0.5316(2)
O4 O -1.05002(10) -0.18157(5) -0.0656(2)
O5 O -0.85244(11) -0.17650(6) 0.3414(2)
C2 C -0.95851(13) -0.21271(7) 0.1648(2)
H2 H -1.0072 -0.2131 0.2474
N1 N -0.97161(11) -0.24915(6) -0.1008(2)
H3 H -0.9887 -0.2543 -0.2034
C3 C -0.72613(13) -0.03354(7) 0.0383(3)
H4 H -0.7791 -0.0140 0.0246
C4 C -0.75331(13) -0.08180(7) -0.0240(3)
H5 H -0.7981 -0.0789 -0.1137
C5 C -0.63712(15) 0.04115(7) 0.2256(3)
H6 H -0.5800 0.0272 0.2568
C6 C -0.88505(13) -0.12941(7) 0.0990(2)
H7 H -0.8843 -0.1405 -0.0187
C7 C -0.99926(13) -0.21138(7) -0.0116(3)
C8 C -0.89499(13) -0.17217(7) 0.2133(3)
C9 C -0.62500(14) -0.06336(8) 0.2766(3)
H8 H -0.6273 -0.0948 0.2352
H9 H -0.6174 -0.0636 0.3977
H10 H -0.5759 -0.0474 0.2249
C10 C -0.71144(15) 0.01154(7) 0.3040(3)
H11 H -0.7033 0.0101 0.4261
H12 H -0.7683 0.0262 0.2818
C11 C -0.96420(13) -0.29805(7) 0.2644(3)
C12 C -0.78913(13) -0.07201(7) 0.2860(3)
H13 H -0.7664 -0.0901 0.3821
C13 C -0.77339(13) -0.24291(7) -0.1271(3)
C14 C -0.70905(13) -0.23186(7) -0.0071(3)
H14 H -0.6904 -0.2543 0.0702
C15 C -0.95395(14) -0.06403(7) 0.2688(3)
H15 H -1.0055 -0.0516 0.3158
C16 C -0.98376(14) -0.33256(7) 0.1551(3)
H16 H -1.0158 -0.3588 0.1877
C17 C -0.91241(13) -0.27980(7) -0.0142(3)
C18 C -0.71226(13) -0.03810(7) 0.2316(3)
C19 C -0.91122(13) -0.26083(7) 0.1727(2)
H17 H -0.8506 -0.2582 0.2173
C20 C -0.70054(13) -0.15406(7) -0.1165(3)
C21 C -0.87774(15) -0.05231(7) 0.3420(3)
C22 C -0.98967(14) -0.29584(7) 0.4424(3)
C23 C -0.75747(14) -0.16596(7) -0.2479(3)
H18 H -0.7710 -0.1444 -0.3321
C24 C -0.67245(13) -0.18737(8) -0.0019(3)
H19 H -0.6293 -0.1801 0.0784
C25 C -0.64424(16) 0.04133(8) 0.0316(3)
H20 H -0.5925 0.0570 -0.0145
H21 H -0.6962 0.0593 -0.0005
C26 C -0.6669(2) -0.00225(10) -0.2414(3)
H22 H -0.6703 -0.0327 -0.2919
H23 H -0.6187 0.0148 -0.2915
H24 H -0.7217 0.0141 -0.2607
C27 C -0.79447(13) -0.10612(7) 0.1334(3)
H25 H -0.7538 -0.1317 0.1612
C28 C -0.98215(16) -0.06675(8) -0.0395(3)
H26 H -0.9362 -0.0479 -0.0788
C29 C -0.6394(2) 0.09063(9) 0.2945(4)
H27 H -0.6964 0.1043 0.2713
H28 H -0.5938 0.1088 0.2407
H29 H -0.6295 0.0901 0.4149
C30 C -0.82497(14) -0.28771(7) -0.1098(3)
H30 H -0.7893 -0.3104 -0.0491
H31 H -0.8376 -0.3001 -0.2218
C31 C -0.65110(15) -0.00709(8) -0.0499(3)
H32 H -0.5952 -0.0238 -0.0314
C32 C -0.96514(13) -0.09557(7) 0.1167(3)
H33 H -1.0182 -0.1146 0.1366
C33 C -0.87910(16) -0.02533(8) 0.5064(3)
H34 H -0.8398 -0.0399 0.5866
H35 H -0.9384 -0.0251 0.5514
H36 H -0.8600 0.0061 0.4859
C34 C -0.79412(14) -0.21035(7) -0.2530(3)
H37 H -0.8326 -0.2185 -0.3406
C35 C -1.0572(2) -0.06629(10) -0.1241(4)
C36 C -1.04799(17) -0.33366(8) 0.5145(3)
H38 H -1.0422 -0.3342 0.6359
H39 H -1.0302 -0.3633 0.4689
H40 H -1.1088 -0.3276 0.4846
H41 H -1.108(2) -0.0862(11) -0.086(4)
H42 H -1.066(2) -0.0462(12) -0.229(5)
loop_
_geom_bond_atom_site_label_1
_geom_bond_atom_site_label_2
_geom_bond_site_symmetry_1
_geom_bond_site_symmetry_2
Cl1 C1 1_555 1_555
Cl2 C1 1_555 1_555
Cl3 C1 1_555 1_555
C1 H1 1_555 1_555
O1 C4 1_555 1_555
O2 C16 1_555 1_555
O3 C22 1_555 1_555
O4 C7 1_555 1_555
O5 C8 1_555 1_555
C2 H2 1_555 1_555
N1 H3 1_555 1_555
C3 H4 1_555 1_555
C4 C3 1_555 1_555
H5 C4 1_555 1_555
C5 H6 1_555 1_555
C6 H7 1_555 1_555
C7 C2 1_555 1_555
C8 C2 1_555 1_555
C9 H8 1_555 1_555
H9 C9 1_555 1_555
H10 C9 1_555 1_555
C10 C5 1_555 1_555
H11 C10 1_555 1_555
H12 C10 1_555 1_555
C11 C16 1_555 1_555
C12 H13 1_555 1_555
C13 C14 1_555 1_555
C14 H14 1_555 1_555
C15 H15 1_555 1_555
C16 H16 1_555 1_555
C17 O2 1_555 1_555
C18 C3 1_555 1_555
C19 C2 1_555 1_555
H17 C19 1_555 1_555
C20 O1 1_555 1_555
C21 C12 1_555 1_555
C22 C11 1_555 1_555
C23 C20 1_555 1_555
H18 C23 1_555 1_555
C24 C14 1_555 1_555
H19 C24 1_555 1_555
C25 C5 1_555 1_555
H20 C25 1_555 1_555
H21 C25 1_555 1_555
C26 H22 1_555 1_555
H23 C26 1_555 1_555
H24 C26 1_555 1_555
C27 C4 1_555 1_555
H25 C27 1_555 1_555
C28 H26 1_555 1_555
C29 C5 1_555 1_555
H27 C29 1_555 1_555
H28 C29 1_555 1_555
H29 C29 1_555 1_555
C30 C13 1_555 1_555
H30 C30 1_555 1_555
H31 C30 1_555 1_555
C31 C3 1_555 1_555
H32 C31 1_555 1_555
C32 C6 1_555 1_555
H33 C32 1_555 1_555
C33 C21 1_555 1_555
H34 C33 1_555 1_555
H35 C33 1_555 1_555
H36 C33 1_555 1_555
C34 C13 1_555 1_555
H37 C34 1_555 1_555
C35 C28 1_555 1_555
C36 C22 1_555 1_555
H38 C36 1_555 1_555
H39 C36 1_555 1_555
H40 C36 1_555 1_555
H41 C35 1_555 1_555
H42 C35 1_555 1_555
N1 C7 1_555 1_555
N1 C17 1_555 1_555
C6 C8 1_555 1_555
C6 C27 1_555 1_555
C9 C18 1_555 1_555
C10 C18 1_555 1_555
C11 C19 1_555 1_555
C12 C18 1_555 1_555
C12 C27 1_555 1_555
C15 C21 1_555 1_555
C15 C32 1_555 1_555
C17 C19 1_555 1_555
C17 C30 1_555 1_555
C20 C24 1_555 1_555
C23 C34 1_555 1_555
C25 C31 1_555 1_555
C26 C31 1_555 1_555
C28 C32 1_555 1_555

#END
