
#######################################################################
#
#                 Cambridge Crystallographic Data Centre
#                                CCDC 
#
#######################################################################
#
# If this CIF has been generated from an entry in the Cambridge 
# Structural Database, then it will include bibliographic, chemical, 
# crystal, experimental, refinement or atomic coordinate data resulting 
# from the CCDC's data processing and validation procedures.
#
#######################################################################

data_FODFOU
_chemical_formula_moiety         'C28 H22 Se2'
_chemical_name_systematic        
3,3-Diphenyl-1,2-bis(phenylselanyl)cyclobut-1-ene
_symmetry_cell_setting           triclinic
_symmetry_space_group_name_H-M   'P -1'
_symmetry_Int_Tables_number      2
_space_group_name_Hall           '-P 1'
loop_
_symmetry_equiv_pos_site_id
_symmetry_equiv_pos_as_xyz
1 x,y,z
2 -x,-y,-z
_cell_length_a                   10.5046(14)
_cell_length_b                   10.7164(14)
_cell_length_c                   11.8790(16)
_cell_angle_alpha                108.694(2)
_cell_angle_beta                 111.511(2)
_cell_angle_gamma                96.036(2)
_cell_volume                     1140.22
_exptl_crystal_colour            colorless
_chemical_melting_point          76-78deg.C
_cell_formula_units_Z            2
loop_
_atom_site_label
_atom_site_type_symbol
_atom_site_fract_x
_atom_site_fract_y
_atom_site_fract_z
Se1 Se 0.41654(4) 0.14787(4) 0.09890(4)
Se2 Se 0.40741(4) 0.27965(5) 0.43769(4)
C1 C 0.7175(3) 0.3158(3) 0.3236(3)
C2 C 0.5584(4) 0.2526(3) 0.2708(3)
C3 C 0.5577(4) 0.2933(4) 0.3888(3)
C4 C 0.7115(4) 0.3678(4) 0.4622(3)
H1 H 0.7679 0.3313 0.5230
H2 H 0.7290 0.4658 0.5034
C5 C 0.8048(4) 0.2106(3) 0.3119(3)
C6 C 0.7699(4) 0.0935(4) 0.3309(4)
H3 H 0.6874 0.0755 0.3415
C7 C 0.8534(5) 0.0021(4) 0.3346(4)
H4 H 0.8286 -0.0753 0.3491
C8 C 0.9745(5) 0.0280(5) 0.3163(4)
H5 H 1.0334 -0.0309 0.3211
C9 C 1.0077(4) 0.1383(4) 0.2913(4)
H6 H 1.0869 0.1525 0.2749
C10 C 0.9244(4) 0.2310(4) 0.2900(3)
H7 H 0.9494 0.3075 0.2742
C11 C 0.7568(4) 0.4278(4) 0.2820(3)
C12 C 0.6950(5) 0.4135(4) 0.1520(4)
H8 H 0.6262 0.3345 0.0895
C13 C 0.7338(5) 0.5146(5) 0.1141(4)
H9 H 0.6889 0.5042 0.0269
C14 C 0.8368(5) 0.6294(4) 0.2026(5)
H10 H 0.8644 0.6964 0.1762
C15 C 0.8995(4) 0.6450(4) 0.3317(5)
H11 H 0.9696 0.7235 0.3932
C16 C 0.8597(4) 0.5459(4) 0.3706(4)
H12 H 0.9030 0.5585 0.4586
C17 C 0.2708(4) 0.2421(4) 0.1006(3)
C18 C 0.3008(4) 0.3809(4) 0.1687(4)
H13 H 0.3940 0.4322 0.2193
C19 C 0.1903(7) 0.4426(6) 0.1606(5)
C20 C 0.0547(6) 0.3689(7) 0.0857(6)
H14 H -0.0186 0.4118 0.0802
C21 C 0.0249(5) 0.2316(7) 0.0180(5)
H15 H -0.0685 0.1812 -0.0334
C22 C 0.1334(4) 0.1678(5) 0.0262(4)
H16 H 0.1132 0.0743 -0.0190
C23 C 0.4943(4) 0.2376(4) 0.5884(3)
C24 C 0.4464(4) 0.2770(4) 0.6843(4)
H17 H 0.3792 0.3276 0.6768
C25 C 0.4972(5) 0.2422(5) 0.7912(4)
H18 H 0.4631 0.2681 0.8550
C26 C 0.5980(5) 0.1693(5) 0.8045(4)
C27 C 0.6460(5) 0.1293(4) 0.7088(4)
H19 H 0.7136 0.0793 0.7170
C28 C 0.5943(4) 0.1630(4) 0.6001(4)
H20 H 0.6268 0.1354 0.5353
H21 H 0.215(5) 0.541(5) 0.199(4)
H22 H 0.636(4) 0.149(4) 0.877(4)
loop_
_geom_bond_atom_site_label_1
_geom_bond_atom_site_label_2
_geom_bond_site_symmetry_1
_geom_bond_site_symmetry_2
Se1 C2 1_555 1_555
Se2 C3 1_555 1_555
C1 C2 1_555 1_555
C2 C3 1_555 1_555
C3 C4 1_555 1_555
C4 C1 1_555 1_555
H1 C4 1_555 1_555
H2 C4 1_555 1_555
C5 C1 1_555 1_555
C6 C5 1_555 1_555
H3 C6 1_555 1_555
C7 C6 1_555 1_555
H4 C7 1_555 1_555
C8 C7 1_555 1_555
H5 C8 1_555 1_555
C9 C8 1_555 1_555
H6 C9 1_555 1_555
C10 C5 1_555 1_555
H7 C10 1_555 1_555
C11 C1 1_555 1_555
C12 C11 1_555 1_555
H8 C12 1_555 1_555
C13 C12 1_555 1_555
H9 C13 1_555 1_555
C14 C13 1_555 1_555
H10 C14 1_555 1_555
C15 C14 1_555 1_555
H11 C15 1_555 1_555
C16 C11 1_555 1_555
H12 C16 1_555 1_555
C17 Se1 1_555 1_555
C18 C17 1_555 1_555
H13 C18 1_555 1_555
C19 C18 1_555 1_555
C20 C19 1_555 1_555
H14 C20 1_555 1_555
C21 C20 1_555 1_555
H15 C21 1_555 1_555
C22 C17 1_555 1_555
H16 C22 1_555 1_555
C23 Se2 1_555 1_555
C24 C23 1_555 1_555
H17 C24 1_555 1_555
C25 C24 1_555 1_555
H18 C25 1_555 1_555
C26 C25 1_555 1_555
C27 C26 1_555 1_555
H19 C27 1_555 1_555
C28 C23 1_555 1_555
H20 C28 1_555 1_555
H21 C19 1_555 1_555
H22 C26 1_555 1_555
C9 C10 1_555 1_555
C15 C16 1_555 1_555
C21 C22 1_555 1_555
C27 C28 1_555 1_555

#END
