
#######################################################################
#
#                 Cambridge Crystallographic Data Centre
#                                CCDC 
#
#######################################################################
#
# If this CIF has been generated from an entry in the Cambridge 
# Structural Database, then it will include bibliographic, chemical, 
# crystal, experimental, refinement or atomic coordinate data resulting 
# from the CCDC's data processing and validation procedures.
#
#######################################################################

data_FODLAN
_chemical_formula_moiety         'C24 H12 N6 O4 S4,C1 H2 Cl2'
_chemical_name_systematic        
"11a,11b-dimethyl-9,14-dinitro-11a,11b-dihydrobis[1]benzothieno[2',3':7,8;3'',2'':5,6][1,2,5]thiadiazolo[3',4':3,4]naphtho[1,2-c][1,2,5]thiadiazole dichloromethane solvate"
_symmetry_cell_setting           orthorhombic
_symmetry_space_group_name_H-M   'P 21 21 21'
_symmetry_Int_Tables_number      19
_space_group_name_Hall           'P 2ac 2ab'
loop_
_symmetry_equiv_pos_site_id
_symmetry_equiv_pos_as_xyz
1 x,y,z
2 1/2+x,1/2-y,-z
3 -x,1/2+y,1/2-z
4 1/2-x,-y,1/2+z
_cell_length_a                   10.3985(16)
_cell_length_b                   15.263(2)
_cell_length_c                   33.179(5)
_cell_angle_alpha                90
_cell_angle_beta                 90
_cell_angle_gamma                90
_cell_volume                     5265.92
_exptl_crystal_colour            red
_exptl_crystal_description       block
_cell_formula_units_Z            8
loop_
_atom_site_label
_atom_site_type_symbol
_atom_site_fract_x
_atom_site_fract_y
_atom_site_fract_z
S1 S 0.73476(13) 0.30179(12) 0.04058(6)
S2 S 0.41171(14) 0.24704(12) 0.05179(6)
S3 S 0.80188(18) 0.55099(15) 0.21653(6)
S4 S 0.23983(17) 0.61205(13) 0.17341(6)
N1 N 0.7853(5) 0.4888(4) 0.17723(19)
N2 N 0.6554(6) 0.5916(4) 0.2190(2)
N3 N 0.2749(5) 0.5279(4) 0.14503(19)
N4 N 0.3786(6) 0.6267(4) 0.19484(19)
N5 N 1.1784(5) 0.4639(5) 0.03056(19)
N6 N -0.0548(5) 0.1815(4) 0.1012(2)
O1 O 1.2458(4) 0.5245(4) 0.04241(18)
O2 O 1.2095(5) 0.4107(4) 0.00519(18)
O3 O -0.0669(5) 0.1312(4) 0.0717(2)
O4 O -0.1334(4) 0.1895(4) 0.12814(18)
C1 C 0.6071(5) 0.3678(4) 0.0658(2)
C2 C 0.5115(5) 0.3099(4) 0.0876(2)
C3 C 0.5485(6) 0.4286(4) 0.0339(2)
H1 H 0.5068 0.3934 0.0130
H2 H 0.6166 0.4643 0.0218
H3 H 0.4848 0.4669 0.0466
C4 C 0.5718(6) 0.2447(4) 0.1171(2)
H4 H 0.6333 0.2075 0.1027
H5 H 0.5041 0.2082 0.1290
H6 H 0.6165 0.2768 0.1385
C5 C 0.8508(5) 0.3808(4) 0.0541(2)
C6 C 0.9723(6) 0.3856(4) 0.0364(2)
H7 H 1.0005 0.3441 0.0170
C7 C 1.0488(6) 0.4540(4) 0.0488(2)
C8 C 1.0115(5) 0.5160(5) 0.0774(2)
H8 H 1.0678 0.5622 0.0850
C9 C 0.8923(6) 0.5088(4) 0.0944(2)
H9 H 0.8644 0.5513 0.1134
C10 C 0.8102(5) 0.4391(4) 0.0840(2)
C11 C 0.6784(5) 0.4226(4) 0.0968(2)
C12 C 0.6105(6) 0.4520(5) 0.1289(2)
C13 C 0.6653(6) 0.4989(5) 0.1644(2)
C14 C 0.5910(6) 0.5546(5) 0.1889(2)
C15 C 0.4553(6) 0.5651(5) 0.1797(2)
C16 C 0.3955(6) 0.5085(5) 0.1514(2)
C17 C 0.4688(6) 0.4393(4) 0.1302(2)
C18 C 0.4167(5) 0.3681(4) 0.1106(2)
C19 C 0.2868(6) 0.3314(4) 0.1099(2)
C20 C 0.1837(6) 0.3457(5) 0.1360(2)
H10 H 0.1908 0.3886 0.1567
C21 C 0.0722(6) 0.2984(5) 0.1321(2)
H11 H 0.0011 0.3095 0.1494
C22 C 0.0649(6) 0.2341(5) 0.1026(2)
C23 C 0.1624(6) 0.2156(4) 0.0774(2)
H12 H 0.1543 0.1703 0.0579
C24 C 0.2748(5) 0.2634(5) 0.0805(2)
S5 S 1.11066(14) 0.74582(12) 0.05153(6)
S6 S 0.78911(13) 0.80247(11) 0.04059(5)
S7 S 1.28707(17) 1.10997(13) 0.17357(6)
S8 S 0.72688(18) 1.05033(15) 0.21734(7)
N7 N 1.2522(5) 1.0282(4) 0.14469(19)
N8 N 1.1487(6) 1.1247(4) 0.1952(2)
N9 N 0.7390(5) 0.9887(4) 0.1767(2)
N10 N 0.8731(6) 1.0872(4) 0.22043(18)
N11 N 1.5780(5) 0.6796(4) 0.0985(2)
N12 N 0.3471(5) 0.9649(4) 0.03090(17)
O5 O 1.6584(4) 0.6870(4) 0.12581(17)
O6 O 1.5903(5) 0.6308(4) 0.0701(2)
O7 O 0.3145(5) 0.9117(4) 0.00474(16)
O8 O 0.2780(4) 1.0264(3) 0.04207(18)
C25 C 1.0133(5) 0.8094(4) 0.0876(2)
C26 C 0.9168(6) 0.8671(5) 0.0655(2)
C27 C 0.9516(6) 0.7432(5) 0.1179(2)
H13 H 1.0197 0.7128 0.1328
H14 H 0.8999 0.7004 0.1031
H15 H 0.8966 0.7750 0.1369
C28 C 0.9763(6) 0.9286(5) 0.0335(2)
H16 H 1.0431 0.9648 0.0461
H17 H 0.9092 0.9666 0.0223
H18 H 1.0144 0.8935 0.0118
C29 C 1.2484(5) 0.7630(4) 0.0805(2)
C30 C 1.3608(6) 0.7136(5) 0.0755(2)
H19 H 1.3687 0.6703 0.0551
C31 C 1.4608(6) 0.7319(4) 0.1026(2)
C32 C 1.4531(6) 0.7963(5) 0.1316(2)
H20 H 1.5229 0.8065 0.1494
C33 C 1.3420(6) 0.8459(5) 0.1343(2)
H21 H 1.3376 0.8922 0.1534
C34 C 1.2376(6) 0.8295(5) 0.1097(2)
C35 C 1.1081(6) 0.8676(5) 0.1109(2)
C36 C 1.0552(6) 0.9386(4) 0.1294(2)
C37 C 1.1290(6) 1.0075(5) 0.1514(2)
C38 C 1.0699(7) 1.0636(5) 0.1800(2)
C39 C 0.9364(6) 1.0534(5) 0.1899(2)
C40 C 0.8602(6) 0.9961(5) 0.1644(2)
C41 C 0.9137(5) 0.9526(4) 0.1287(2)
C42 C 0.8460(5) 0.9230(4) 0.0967(2)
C43 C 0.7145(5) 0.9386(4) 0.0844(2)
C44 C 0.6326(6) 1.0074(5) 0.0950(2)
H22 H 0.6601 1.0492 0.1144
C45 C 0.5123(5) 1.0156(4) 0.0777(2)
H23 H 0.4566 1.0620 0.0855
C46 C 0.4748(5) 0.9565(5) 0.0495(2)
C47 C 0.5525(5) 0.8878(4) 0.0369(2)
H24 H 0.5238 0.8475 0.0170
C48 C 0.6724(5) 0.8800(4) 0.0541(2)
C49 C 0.4543(12) 0.3144(6) 0.2621(3)
H25 H 0.5081 0.2650 0.2716
H26 H 0.3755 0.3160 0.2788
Cl1 Cl 0.5390(3) 0.41246(18) 0.26822(8)
Cl2 Cl 0.4141(6) 0.2978(3) 0.21449(9)
C50 C 0.9692(15) 0.2909(10) 0.2445(5)
H27 H 0.9266 0.2793 0.2183
H28 H 1.0217 0.2389 0.2513
Cl3 Cl 1.0703(4) 0.3820(3) 0.23948(12)
Cl4 Cl 0.8567(3) 0.3050(2) 0.27992(11)
loop_
_geom_bond_atom_site_label_1
_geom_bond_atom_site_label_2
_geom_bond_site_symmetry_1
_geom_bond_site_symmetry_2
S1 C1 1_555 1_555
S2 C2 1_555 1_555
S3 N1 1_555 1_555
S4 N3 1_555 1_555
N1 C13 1_555 1_555
N2 S3 1_555 1_555
N3 C16 1_555 1_555
N4 S4 1_555 1_555
N5 O1 1_555 1_555
N6 O3 1_555 1_555
O2 N5 1_555 1_555
O4 N6 1_555 1_555
C1 C2 1_555 1_555
C2 C4 1_555 1_555
C3 C1 1_555 1_555
H1 C3 1_555 1_555
H2 C3 1_555 1_555
H3 C3 1_555 1_555
C4 H4 1_555 1_555
H5 C4 1_555 1_555
H6 C4 1_555 1_555
C5 S1 1_555 1_555
C6 C5 1_555 1_555
H7 C6 1_555 1_555
C7 N5 1_555 1_555
C8 C7 1_555 1_555
H8 C8 1_555 1_555
C9 C8 1_555 1_555
H9 C9 1_555 1_555
C10 C5 1_555 1_555
C11 C1 1_555 1_555
C12 C11 1_555 1_555
C13 C12 1_555 1_555
C14 N2 1_555 1_555
C15 N4 1_555 1_555
C16 C15 1_555 1_555
C17 C12 1_555 1_555
C18 C2 1_555 1_555
C19 C18 1_555 1_555
C20 C19 1_555 1_555
H10 C20 1_555 1_555
C21 C20 1_555 1_555
H11 C21 1_555 1_555
C22 N6 1_555 1_555
C23 C22 1_555 1_555
H12 C23 1_555 1_555
C24 S2 1_555 1_555
S5 C25 1_555 1_555
S6 C26 1_555 1_555
S7 N7 1_555 1_555
S8 N9 1_555 1_555
N7 C37 1_555 1_555
N8 S7 1_555 1_555
N9 C40 1_555 1_555
N10 S8 1_555 1_555
N11 O5 1_555 1_555
N12 O7 1_555 1_555
O6 N11 1_555 1_555
O8 N12 1_555 1_555
C25 C26 1_555 1_555
C26 C28 1_555 1_555
C27 C25 1_555 1_555
H13 C27 1_555 1_555
H14 C27 1_555 1_555
H15 C27 1_555 1_555
C28 H16 1_555 1_555
H17 C28 1_555 1_555
H18 C28 1_555 1_555
C29 S5 1_555 1_555
C30 C29 1_555 1_555
H19 C30 1_555 1_555
C31 N11 1_555 1_555
C32 C31 1_555 1_555
H20 C32 1_555 1_555
C33 C32 1_555 1_555
H21 C33 1_555 1_555
C34 C29 1_555 1_555
C35 C25 1_555 1_555
C36 C35 1_555 1_555
C37 C36 1_555 1_555
C38 N8 1_555 1_555
C39 N10 1_555 1_555
C40 C39 1_555 1_555
C41 C36 1_555 1_555
C42 C26 1_555 1_555
C43 C42 1_555 1_555
C44 C43 1_555 1_555
H22 C44 1_555 1_555
C45 C44 1_555 1_555
H23 C45 1_555 1_555
C46 N12 1_555 1_555
C47 C46 1_555 1_555
H24 C47 1_555 1_555
C48 S6 1_555 1_555
C49 H25 1_555 1_555
H26 C49 1_555 1_555
Cl1 C49 1_555 1_555
Cl2 C49 1_555 1_555
C50 H27 1_555 1_555
H28 C50 1_555 1_555
Cl3 C50 1_555 1_555
Cl4 C50 1_555 1_555
C6 C7 1_555 1_555
C9 C10 1_555 1_555
C10 C11 1_555 1_555
C13 C14 1_555 1_555
C14 C15 1_555 1_555
C16 C17 1_555 1_555
C17 C18 1_555 1_555
C19 C24 1_555 1_555
C21 C22 1_555 1_555
C23 C24 1_555 1_555
C30 C31 1_555 1_555
C33 C34 1_555 1_555
C34 C35 1_555 1_555
C37 C38 1_555 1_555
C38 C39 1_555 1_555
C40 C41 1_555 1_555
C41 C42 1_555 1_555
C43 C48 1_555 1_555
C45 C46 1_555 1_555
C47 C48 1_555 1_555

#END
