
#######################################################################
#
#                 Cambridge Crystallographic Data Centre
#                                CCDC 
#
#######################################################################
#
# If this CIF has been generated from an entry in the Cambridge 
# Structural Database, then it will include bibliographic, chemical, 
# crystal, experimental, refinement or atomic coordinate data resulting 
# from the CCDC's data processing and validation procedures.
#
#######################################################################

data_FOFLET
_chemical_formula_moiety         'C5 H4 N2 O3 S1,C2 H6 O1 S1'
_chemical_name_systematic        
'6-oxo-2-thioxo-1,2,3,6-tetrahydropyrimidine-4-carboxylic acid dimethyl sulfoxide solvate'
_symmetry_cell_setting           triclinic
_symmetry_space_group_name_H-M   'P -1'
_symmetry_Int_Tables_number      2
_space_group_name_Hall           '-P 1'
loop_
_symmetry_equiv_pos_site_id
_symmetry_equiv_pos_as_xyz
1 x,y,z
2 -x,-y,-z
_cell_length_a                   5.3590(10)
_cell_length_b                   9.1100(10)
_cell_length_c                   11.8870(10)
_cell_angle_alpha                111.340(10)
_cell_angle_beta                 95.130(10)
_cell_angle_gamma                97.550(10)
_cell_volume                     529.903
_exptl_crystal_colour            colorless
_exptl_crystal_description       prismatic
_cell_formula_units_Z            2
loop_
_atom_site_label
_atom_site_type_symbol
_atom_site_fract_x
_atom_site_fract_y
_atom_site_fract_z
S1 S 0.18525(12) 0.40267(7) 0.76247(6)
O1 O 0.1023(4) 0.2245(2) 0.68380(16)
C1 C 0.1715(6) 0.5069(4) 0.6616(3)
H1 H 0.3075 0.4880 0.6136
H2 H 0.1885 0.6195 0.7083
H3 H 0.0113 0.4693 0.6085
C2 C -0.0812(6) 0.4612(4) 0.8333(3)
H4 H -0.1040 0.4145 0.8930
H5 H -0.2305 0.4253 0.7728
H6 H -0.0540 0.5758 0.8726
S2 S 0.44929(13) 0.25289(8) 0.97006(6)
O2 O 0.1926(4) -0.0918(2) 0.51818(17)
O3 O 0.4093(4) -0.2920(3) 0.46463(17)
O4 O 1.0188(3) -0.1420(2) 0.85566(15)
C3 C 0.3675(5) -0.1691(3) 0.5364(2)
C4 C 0.5176(4) -0.0929(3) 0.6637(2)
N1 N 0.4454(4) 0.0384(2) 0.74633(17)
H7 H 0.3300 0.0814 0.7214
C5 C 0.5496(4) 0.1033(3) 0.8663(2)
N2 N 0.7458(4) 0.0356(2) 0.89601(17)
H8 H 0.8182 0.0767 0.9708
C6 C 0.8396(5) -0.0916(3) 0.8187(2)
C7 C 0.7083(5) -0.1584(3) 0.6950(2)
H9 H 0.7558 -0.2466 0.6373
H10 H 0.091(6) -0.147(4) 0.439(2)
loop_
_geom_bond_atom_site_label_1
_geom_bond_atom_site_label_2
_geom_bond_site_symmetry_1
_geom_bond_site_symmetry_2
S1 O1 1_555 1_555
C1 S1 1_555 1_555
H1 C1 1_555 1_555
H2 C1 1_555 1_555
H3 C1 1_555 1_555
C2 S1 1_555 1_555
H4 C2 1_555 1_555
H5 C2 1_555 1_555
H6 C2 1_555 1_555
S2 C5 1_555 1_555
O2 C3 1_555 1_555
O3 C3 1_555 1_555
O4 C6 1_555 1_555
C3 C4 1_555 1_555
C4 N1 1_555 1_555
N1 H7 1_555 1_555
C5 N1 1_555 1_555
N2 C5 1_555 1_555
H8 N2 1_555 1_555
C6 N2 1_555 1_555
C7 C4 1_555 1_555
H9 C7 1_555 1_555
H10 O2 1_555 1_555
C6 C7 1_555 1_555

#END
