
#######################################################################
#
#                 Cambridge Crystallographic Data Centre
#                                CCDC 
#
#######################################################################
#
# If this CIF has been generated from an entry in the Cambridge 
# Structural Database, then it will include bibliographic, chemical, 
# crystal, experimental, refinement or atomic coordinate data resulting 
# from the CCDC's data processing and validation procedures.
#
#######################################################################

data_FOFWON
_chemical_formula_moiety         'C25 H34 N1 P1 Si2'
_chemical_name_systematic        
N-(Trimethylsilyl)-diphenyl(2-(trimethylsilylmethyl)phenyl)phosphinimine
_symmetry_cell_setting           monoclinic
_symmetry_space_group_name_H-M   'P 21/n'
_symmetry_Int_Tables_number      14
_space_group_name_Hall           '-P 2yn'
loop_
_symmetry_equiv_pos_site_id
_symmetry_equiv_pos_as_xyz
1 x,y,z
2 1/2-x,1/2+y,1/2-z
3 -x,-y,-z
4 1/2+x,1/2-y,1/2+z
_cell_length_a                   8.677(2)
_cell_length_b                   11.776(3)
_cell_length_c                   26.127(7)
_cell_angle_alpha                90
_cell_angle_beta                 94.496(6)
_cell_angle_gamma                90
_cell_volume                     2661.45
_exptl_crystal_colour            colorless
_chemical_melting_point          122-124deg.C
_cell_formula_units_Z            4
_exptl_crystal_recrystallization_method hexane
loop_
_atom_site_label
_atom_site_type_symbol
_atom_site_fract_x
_atom_site_fract_y
_atom_site_fract_z
P1 P 0.37445(10) 0.28941(8) 0.07801(4)
Si1 Si 0.29872(13) 0.05227(9) 0.11809(5)
Si2 Si 0.72970(15) 0.33749(11) 0.22131(5)
N1 N 0.2965(3) 0.1922(2) 0.10574(11)
C1 C 0.5824(4) 0.2779(3) 0.07226(13)
C2 C 0.6850(4) 0.2534(3) 0.11543(15)
C3 C 0.8395(4) 0.2372(3) 0.10727(17)
H1 H 0.9085 0.2195 0.1352
C4 C 0.8948(5) 0.2464(4) 0.0594(2)
H2 H 0.9994 0.2355 0.0555
C5 C 0.7950(5) 0.2716(3) 0.01754(17)
H3 H 0.8313 0.2781 -0.0149
C6 C 0.6402(4) 0.2871(3) 0.02410(15)
H4 H 0.5727 0.3041 -0.0043
C7 C 0.3493(4) 0.4254(3) 0.10910(13)
C8 C 0.4349(4) 0.5202(3) 0.09807(15)
H5 H 0.5110 0.5143 0.0750
C9 C 0.4088(5) 0.6232(4) 0.12082(18)
H6 H 0.4666 0.6863 0.1127
C10 C 0.3001(6) 0.6332(4) 0.15472(19)
H7 H 0.2836 0.7031 0.1700
C11 C 0.2137(5) 0.5407(4) 0.16677(18)
H8 H 0.1383 0.5482 0.1900
C12 C 0.2388(4) 0.4350(4) 0.14416(15)
H9 H 0.1816 0.3719 0.1527
C13 C 0.2873(4) 0.3095(3) 0.01293(13)
C14 C 0.2212(4) 0.4096(3) -0.00513(15)
H10 H 0.2285 0.4741 0.0155
C15 C 0.1438(5) 0.4155(4) -0.05361(17)
H11 H 0.0989 0.4836 -0.0651
C16 C 0.1333(5) 0.3223(4) -0.08446(16)
H12 H 0.0822 0.3270 -0.1170
C17 C 0.1978(5) 0.2215(4) -0.06766(16)
H13 H 0.1906 0.1577 -0.0887
C18 C 0.2740(4) 0.2150(3) -0.01906(15)
H14 H 0.3169 0.1463 -0.0077
C19 C 0.6353(4) 0.2440(3) 0.16981(14)
H15 H 0.6511 0.1658 0.1808
H16 H 0.5249 0.2582 0.1683
C20 C 0.7658(7) 0.4807(4) 0.1966(2)
H17 H 0.6691 0.5162 0.1857
H18 H 0.8283 0.4752 0.1680
H19 H 0.8187 0.5254 0.2232
C21 C 0.9176(6) 0.2773(5) 0.2480(2)
H20 H 0.9515 0.3166 0.2791
H21 H 0.9934 0.2860 0.2234
H22 H 0.9049 0.1981 0.2553
C22 C 0.5966(7) 0.3416(6) 0.2733(2)
H23 H 0.5561 0.2669 0.2783
H24 H 0.5130 0.3928 0.2640
H25 H 0.6516 0.3671 0.3045
C23 C 0.4754(6) -0.0202(4) 0.0981(2)
H26 H 0.4816 -0.0106 0.0619
H27 H 0.4702 -0.0997 0.1060
H28 H 0.5653 0.0123 0.1163
C24 C 0.2922(7) 0.0317(5) 0.1889(2)
H29 H 0.3855 0.0607 0.2063
H30 H 0.2828 -0.0478 0.1962
H31 H 0.2050 0.0716 0.2004
C25 C 0.1276(6) -0.0199(4) 0.0866(3)
H32 H 0.0356 0.0108 0.0994
H33 H 0.1336 -0.0998 0.0939
H34 H 0.1248 -0.0083 0.0502
loop_
_geom_bond_atom_site_label_1
_geom_bond_atom_site_label_2
_geom_bond_site_symmetry_1
_geom_bond_site_symmetry_2
P1 N1 1_555 1_555
Si1 N1 1_555 1_555
Si2 C19 1_555 1_555
C1 P1 1_555 1_555
C2 C1 1_555 1_555
C3 C2 1_555 1_555
H1 C3 1_555 1_555
C4 C3 1_555 1_555
H2 C4 1_555 1_555
C5 C4 1_555 1_555
H3 C5 1_555 1_555
C6 C1 1_555 1_555
H4 C6 1_555 1_555
C7 P1 1_555 1_555
C8 C7 1_555 1_555
H5 C8 1_555 1_555
C9 C8 1_555 1_555
H6 C9 1_555 1_555
C10 C9 1_555 1_555
H7 C10 1_555 1_555
C11 C10 1_555 1_555
H8 C11 1_555 1_555
C12 C7 1_555 1_555
H9 C12 1_555 1_555
C13 P1 1_555 1_555
C14 C13 1_555 1_555
H10 C14 1_555 1_555
C15 C14 1_555 1_555
H11 C15 1_555 1_555
C16 C15 1_555 1_555
H12 C16 1_555 1_555
C17 C16 1_555 1_555
H13 C17 1_555 1_555
C18 C13 1_555 1_555
H14 C18 1_555 1_555
C19 C2 1_555 1_555
H15 C19 1_555 1_555
H16 C19 1_555 1_555
C20 Si2 1_555 1_555
H17 C20 1_555 1_555
H18 C20 1_555 1_555
H19 C20 1_555 1_555
C21 Si2 1_555 1_555
H20 C21 1_555 1_555
H21 C21 1_555 1_555
H22 C21 1_555 1_555
C22 Si2 1_555 1_555
H23 C22 1_555 1_555
H24 C22 1_555 1_555
H25 C22 1_555 1_555
C23 Si1 1_555 1_555
H26 C23 1_555 1_555
H27 C23 1_555 1_555
H28 C23 1_555 1_555
C24 Si1 1_555 1_555
H29 C24 1_555 1_555
H30 C24 1_555 1_555
H31 C24 1_555 1_555
C25 Si1 1_555 1_555
H32 C25 1_555 1_555
H33 C25 1_555 1_555
H34 C25 1_555 1_555
C5 C6 1_555 1_555
C11 C12 1_555 1_555
C17 C18 1_555 1_555

#END
