
#######################################################################
#
#                 Cambridge Crystallographic Data Centre
#                                CCDC 
#
#######################################################################
#
# If this CIF has been generated from an entry in the Cambridge 
# Structural Database, then it will include bibliographic, chemical, 
# crystal, experimental, refinement or atomic coordinate data resulting 
# from the CCDC's data processing and validation procedures.
#
#######################################################################

data_FOFWUU
_chemical_formula_moiety         'C22 H30 N2 O3,H2 O1'
_chemical_name_systematic        
'3-hydroxy-N-(2-hydroxy-1,2-diphenylethyl)-N,4-dimethylisoleucinamide monohydrate'
_symmetry_cell_setting           monoclinic
_symmetry_space_group_name_H-M   'P 21'
_symmetry_Int_Tables_number      4
_space_group_name_Hall           'P 2yb'
loop_
_symmetry_equiv_pos_site_id
_symmetry_equiv_pos_as_xyz
1 x,y,z
2 -x,1/2+y,-z
_cell_length_a                   10.0576(2)
_cell_length_b                   7.5081(2)
_cell_length_c                   14.2721(3)
_cell_angle_alpha                90
_cell_angle_beta                 100.2676(8)
_cell_angle_gamma                90
_cell_volume                     1060.48
_exptl_crystal_colour            colorless
_exptl_crystal_description       plate
_cell_formula_units_Z            2
loop_
_atom_site_label
_atom_site_type_symbol
_atom_site_fract_x
_atom_site_fract_y
_atom_site_fract_z
C1 C -0.1289(2) 1.3503(3) 0.58296(14)
H1 H -0.0335 1.3431 0.5887
C2 C -0.1951(2) 1.5044(3) 0.54833(15)
H2 H -0.1452 1.6025 0.5307
C3 C -0.3350(2) 1.5158(3) 0.53926(15)
H3 H -0.3807 1.6221 0.5163
C4 C -0.4072(2) 1.3712(3) 0.56398(14)
H4 H -0.5028 1.3780 0.5569
C5 C -0.3406(2) 1.2169(3) 0.59895(13)
H5 H -0.3908 1.1185 0.6158
C6 C -0.2003(2) 1.2053(3) 0.60952(13)
C7 C -0.12572(19) 1.0386(3) 0.64853(13)
H6 H -0.1907 0.9508 0.6676
C8 C -0.01670(19) 1.0862(3) 0.73531(13)
H7 H 0.0407 1.1808 0.7134
C9 C -0.0695(2) 1.1638(3) 0.82004(13)
C10 C -0.1964(2) 1.1252(3) 0.84086(14)
H8 H -0.2550 1.0458 0.8013
C11 C -0.2375(2) 1.2030(3) 0.91967(14)
H9 H -0.3237 1.1748 0.9342
C12 C -0.1537(2) 1.3209(3) 0.97703(15)
H10 H -0.1832 1.3754 1.0298
C13 C -0.0269(2) 1.3591(3) 0.95726(15)
H11 H 0.0313 1.4389 0.9968
C14 C 0.0149(2) 1.2805(3) 0.87936(15)
H12 H 0.1022 1.3065 0.8662
C15 C 0.2019(2) 0.9450(3) 0.74825(13)
C16 C 0.27980(19) 0.7708(3) 0.74363(14)
H13 H 0.2428 0.6793 0.7829
C17 C 0.4334(2) 0.7888(3) 0.78058(14)
C18 C 0.5057(2) 0.6120(3) 0.76547(15)
H14 H 0.4830 0.5843 0.6959
C19 C 0.0067(2) 0.7658(3) 0.78164(14)
H15 H -0.0735 0.7924 0.8093
H16 H 0.0695 0.6930 0.8263
H17 H -0.0203 0.7003 0.7219
C20 C 0.4568(2) 0.8477(3) 0.88452(15)
H18 H 0.4142 0.9640 0.8893
H19 H 0.5540 0.8569 0.9087
H20 H 0.4170 0.7601 0.9223
C21 C 0.6594(2) 0.6300(3) 0.78984(17)
H21 H 0.6885 0.7302 0.7544
H22 H 0.7015 0.5201 0.7724
H23 H 0.6866 0.6513 0.8583
C22 C 0.4581(2) 0.4534(3) 0.81774(18)
H24 H 0.4798 0.4741 0.8866
H25 H 0.5038 0.3452 0.8019
H26 H 0.3602 0.4393 0.7983
N1 N 0.07287(16) 0.9323(2) 0.76285(11)
N2 N 0.2521(2) 0.7128(3) 0.64303(12)
O1 O -0.05327(14) 0.95865(19) 0.58158(10)
O2 O 0.25332(14) 1.08882(19) 0.73148(10)
O3 O 0.48847(14) 0.9193(2) 0.72427(10)
H27 H -0.115(4) 0.930(5) 0.527(3)
H28 H 0.167(3) 0.739(4) 0.6200(19)
H29 H 0.313(3) 0.788(5) 0.612(2)
H30 H 0.435(3) 1.011(5) 0.722(2)
O4 O 0.23758(16) 0.3625(2) 0.58072(11)
H31 H 0.251(3) 0.471(5) 0.609(2)
H32 H 0.238(4) 0.278(7) 0.624(3)
loop_
_geom_bond_atom_site_label_1
_geom_bond_atom_site_label_2
_geom_bond_site_symmetry_1
_geom_bond_site_symmetry_2
C1 H1 1_555 1_555
C2 C1 1_555 1_555
H2 C2 1_555 1_555
C3 C2 1_555 1_555
H3 C3 1_555 1_555
C4 C3 1_555 1_555
H4 C4 1_555 1_555
C5 C4 1_555 1_555
H5 C5 1_555 1_555
C6 C1 1_555 1_555
C7 C6 1_555 1_555
H6 C7 1_555 1_555
C8 C7 1_555 1_555
H7 C8 1_555 1_555
C9 C8 1_555 1_555
C10 C9 1_555 1_555
H8 C10 1_555 1_555
C11 C10 1_555 1_555
H9 C11 1_555 1_555
C12 C11 1_555 1_555
H10 C12 1_555 1_555
C13 C12 1_555 1_555
H11 C13 1_555 1_555
C14 C9 1_555 1_555
H12 C14 1_555 1_555
C15 C16 1_555 1_555
C16 H13 1_555 1_555
C17 C16 1_555 1_555
C18 C17 1_555 1_555
H14 C18 1_555 1_555
C19 H15 1_555 1_555
H16 C19 1_555 1_555
H17 C19 1_555 1_555
C20 C17 1_555 1_555
H18 C20 1_555 1_555
H19 C20 1_555 1_555
H20 C20 1_555 1_555
C21 C18 1_555 1_555
H21 C21 1_555 1_555
H22 C21 1_555 1_555
H23 C21 1_555 1_555
C22 C18 1_555 1_555
H24 C22 1_555 1_555
H25 C22 1_555 1_555
H26 C22 1_555 1_555
N1 C8 1_555 1_555
N2 C16 1_555 1_555
O1 C7 1_555 1_555
O2 C15 1_555 1_555
O3 C17 1_555 1_555
H27 O1 1_555 1_555
H28 N2 1_555 1_555
H29 N2 1_555 1_555
H30 O3 1_555 1_555
O4 H31 1_555 1_555
H32 O4 1_555 1_555
C5 C6 1_555 1_555
C13 C14 1_555 1_555
C15 N1 1_555 1_555
C19 N1 1_555 1_555

#END
