
#######################################################################
#
#                 Cambridge Crystallographic Data Centre
#                                CCDC 
#
#######################################################################
#
# If this CIF has been generated from an entry in the Cambridge 
# Structural Database, then it will include bibliographic, chemical, 
# crystal, experimental, refinement or atomic coordinate data resulting 
# from the CCDC's data processing and validation procedures.
#
#######################################################################

data_FOGZEG
_chemical_formula_moiety         'C16 H28 N4 O1'
_chemical_name_systematic        
5-(2-Hydroxyphenyl)-1,4,8,11-tetra-azatetradecane
_symmetry_cell_setting           monoclinic
_symmetry_space_group_name_H-M   'P 21/a'
_symmetry_Int_Tables_number      14
_space_group_name_Hall           '-P 2yab'
loop_
_symmetry_equiv_pos_site_id
_symmetry_equiv_pos_as_xyz
1 x,y,z
2 1/2-x,1/2+y,-z
3 -x,-y,-z
4 1/2+x,1/2-y,z
_cell_length_a                   15.335(8)
_cell_length_b                   8.535(5)
_cell_length_c                   13.331(7)
_cell_angle_alpha                90
_cell_angle_beta                 105.17(5)
_cell_angle_gamma                90
_cell_volume                     1684.02
_exptl_crystal_colour            colorless
_chemical_melting_point          142-143deg.C
_cell_formula_units_Z            4
loop_
_atom_site_label
_atom_site_type_symbol
_atom_site_fract_x
_atom_site_fract_y
_atom_site_fract_z
N1 N 0.4630(1) 0.1928(2) 0.4208(2)
C1 C 0.5016(2) 0.3224(3) 0.3752(2)
C2 C 0.5812(2) 0.2658(3) 0.3363(2)
N2 N 0.5500(1) 0.1514(3) 0.2517(2)
C3 C 0.6239(2) 0.0784(3) 0.2154(2)
C4 C 0.5885(2) -0.0634(4) 0.1449(2)
C5 C 0.5513(2) -0.1993(4) 0.1961(2)
N3 N 0.4646(2) -0.1586(3) 0.2162(2)
C6 C 0.4244(2) -0.2882(3) 0.2609(2)
C7 C 0.3435(2) -0.2295(4) 0.2958(3)
N4 N 0.3741(1) -0.1137(3) 0.3793(2)
C8 C 0.2999(2) -0.0278(4) 0.4040(3)
C9 C 0.3357(2) 0.0969(4) 0.4866(2)
C10 C 0.3795(2) 0.2371(4) 0.4484(2)
C11 C 0.6643(2) 0.1994(3) 0.1570(2)
C12 C 0.6106(2) 0.3129(4) 0.0935(2)
C13 C 0.6484(2) 0.4207(4) 0.0390(2)
C14 C 0.7399(2) 0.4158(4) 0.0469(3)
C15 C 0.7945(2) 0.3040(4) 0.1082(3)
C16 C 0.7558(2) 0.1978(4) 0.1626(2)
O1 O 0.5196(1) 0.3181(3) 0.0837(2)
H1 H 0.504(2) 0.163(3) 0.487(2)
H2 H 0.449(2) 0.369(3) 0.309(2)
H3 H 0.524(2) 0.414(3) 0.433(2)
H4 H 0.613(2) 0.363(3) 0.306(2)
H5 H 0.632(2) 0.214(4) 0.400(2)
H6 H 0.522(2) 0.082(3) 0.268(2)
H7 H 0.679(2) 0.034(3) 0.286(2)
H8 H 0.532(2) -0.020(4) 0.076(2)
H9 H 0.643(2) -0.107(4) 0.112(2)
H10 H 0.540(2) -0.304(4) 0.145(2)
H11 H 0.600(2) -0.229(4) 0.270(2)
H12 H 0.426(2) -0.147(4) 0.150(2)
H13 H 0.405(2) -0.384(4) 0.204(2)
H14 H 0.477(2) -0.327(4) 0.333(2)
H15 H 0.309(2) -0.325(4) 0.323(2)
H16 H 0.293(2) -0.175(4) 0.229(2)
H17 H 0.412(2) -0.040(3) 0.361(2)
H18 H 0.258(2) -0.110(4) 0.429(2)
H19 H 0.256(2) 0.028(4) 0.332(2)
H20 H 0.387(2) 0.042(3) 0.552(2)
H21 H 0.279(2) 0.135(4) 0.517(2)
H22 H 0.331(2) 0.289(4) 0.380(2)
H23 H 0.397(2) 0.329(4) 0.511(2)
H24 H 0.608(2) 0.497(4) -0.006(2)
H25 H 0.767(2) 0.496(4) 0.005(3)
H26 H 0.865(2) 0.303(4) 0.115(2)
H27 H 0.795(2) 0.116(3) 0.209(2)
H28 H 0.518(2) 0.347(4) 0.145(3)
loop_
_geom_bond_atom_site_label_1
_geom_bond_atom_site_label_2
_geom_bond_site_symmetry_1
_geom_bond_site_symmetry_2
N1 C1 1_555 1_555
C1 C2 1_555 1_555
C2 N2 1_555 1_555
N2 C3 1_555 1_555
C3 C4 1_555 1_555
C4 C5 1_555 1_555
C5 N3 1_555 1_555
N3 C6 1_555 1_555
C6 C7 1_555 1_555
C7 N4 1_555 1_555
N4 C8 1_555 1_555
C8 C9 1_555 1_555
C9 C10 1_555 1_555
C10 N1 1_555 1_555
C11 C3 1_555 1_555
C12 C11 1_555 1_555
C13 C12 1_555 1_555
C14 C13 1_555 1_555
C15 C14 1_555 1_555
C16 C11 1_555 1_555
O1 C12 1_555 1_555
H1 N1 1_555 1_555
H2 C1 1_555 1_555
H3 C1 1_555 1_555
H4 C2 1_555 1_555
H5 C2 1_555 1_555
H6 N2 1_555 1_555
H7 C3 1_555 1_555
H8 C4 1_555 1_555
H9 C4 1_555 1_555
H10 C5 1_555 1_555
H11 C5 1_555 1_555
H12 N3 1_555 1_555
H13 C6 1_555 1_555
H14 C6 1_555 1_555
H15 C7 1_555 1_555
H16 C7 1_555 1_555
H17 N4 1_555 1_555
H18 C8 1_555 1_555
H19 C8 1_555 1_555
H20 C9 1_555 1_555
H21 C9 1_555 1_555
H22 C10 1_555 1_555
H23 C10 1_555 1_555
H24 C13 1_555 1_555
H25 C14 1_555 1_555
H26 C15 1_555 1_555
H27 C16 1_555 1_555
H28 O1 1_555 1_555
C15 C16 1_555 1_555

#END
