
#######################################################################
#
#                 Cambridge Crystallographic Data Centre
#                                CCDC 
#
#######################################################################
#
# If this CIF has been generated from an entry in the Cambridge 
# Structural Database, then it will include bibliographic, chemical, 
# crystal, experimental, refinement or atomic coordinate data resulting 
# from the CCDC's data processing and validation procedures.
#
#######################################################################

data_FOHGAL
_chemical_formula_moiety         'C14 H11 Cl1 N2'
_chemical_name_systematic        
3-(2-(3-Chlorophenyl)ethyl)pyridine-2-carbonitrile
_symmetry_cell_setting           monoclinic
_symmetry_space_group_name_H-M   'P 21/n'
_symmetry_Int_Tables_number      14
_space_group_name_Hall           '-P 2yn'
loop_
_symmetry_equiv_pos_site_id
_symmetry_equiv_pos_as_xyz
1 x,y,z
2 1/2-x,1/2+y,1/2-z
3 -x,-y,-z
4 1/2+x,1/2-y,1/2+z
_cell_length_a                   7.5645(8)
_cell_length_b                   12.2332(12)
_cell_length_c                   13.5558(14)
_cell_angle_alpha                90
_cell_angle_beta                 102.867(2)
_cell_angle_gamma                90
_cell_volume                     1222.93
_exptl_crystal_colour            colorless
_exptl_crystal_description       prism
_cell_formula_units_Z            4
loop_
_atom_site_label
_atom_site_type_symbol
_atom_site_fract_x
_atom_site_fract_y
_atom_site_fract_z
Cl1 Cl 1.04722(7) 0.62645(5) 0.83201(4)
N1 N -0.1352(2) 0.90726(14) 0.53814(12)
N2 N 0.0153(3) 0.71100(17) 0.40003(14)
C1 C -0.1391(3) 0.97120(17) 0.61681(18)
C2 C -0.0138(3) 0.96808(17) 0.70605(19)
C3 C 0.1268(3) 0.89547(17) 0.71739(16)
C4 C 0.1399(2) 0.82676(14) 0.63801(13)
C5 C 0.0044(2) 0.83719(14) 0.55141(13)
C6 C 0.0074(3) 0.76763(17) 0.46554(14)
C7 C 0.2935(2) 0.74683(15) 0.64606(15)
C8 C 0.4575(3) 0.79654(18) 0.6144(2)
C9 C 0.6095(2) 0.71521(15) 0.62397(14)
C10 C 0.6149(3) 0.64171(18) 0.54665(18)
C11 C 0.7517(3) 0.56415(19) 0.55825(19)
C12 C 0.8838(3) 0.55908(18) 0.64501(18)
C13 C 0.8790(2) 0.63229(15) 0.72087(16)
C14 C 0.7429(2) 0.70954(15) 0.71113(15)
H1 H -0.235(3) 1.0181(17) 0.6090(15)
H2 H -0.021(3) 1.0144(19) 0.7614(16)
H3 H 0.205(3) 0.8886(15) 0.7772(16)
H4 H 0.325(3) 0.7213(17) 0.7154(16)
H5 H 0.246(3) 0.6795(17) 0.6015(14)
H6 H 0.495(3) 0.8646(19) 0.6547(17)
H7 H 0.422(3) 0.821(2) 0.5466(18)
H8 H 0.534(3) 0.6416(15) 0.4868(15)
H9 H 0.750(3) 0.515(2) 0.5047(18)
H10 H 0.977(3) 0.5089(18) 0.6524(15)
H11 H 0.745(3) 0.7602(16) 0.7646(13)
loop_
_geom_bond_atom_site_label_1
_geom_bond_atom_site_label_2
_geom_bond_site_symmetry_1
_geom_bond_site_symmetry_2
Cl1 C13 1_555 1_555
N1 C1 1_555 1_555
N2 C6 1_555 1_555
C1 C2 1_555 1_555
C2 C3 1_555 1_555
C3 C4 1_555 1_555
C4 C5 1_555 1_555
C5 N1 1_555 1_555
C6 C5 1_555 1_555
C7 C4 1_555 1_555
C8 C7 1_555 1_555
C9 C8 1_555 1_555
C10 C9 1_555 1_555
C11 C10 1_555 1_555
C12 C11 1_555 1_555
C13 C12 1_555 1_555
C14 C9 1_555 1_555
H1 C1 1_555 1_555
H2 C2 1_555 1_555
H3 C3 1_555 1_555
H4 C7 1_555 1_555
H5 C7 1_555 1_555
H6 C8 1_555 1_555
H7 C8 1_555 1_555
H8 C10 1_555 1_555
H9 C11 1_555 1_555
H10 C12 1_555 1_555
H11 C14 1_555 1_555
C13 C14 1_555 1_555

#END
