
#######################################################################
#
#                 Cambridge Crystallographic Data Centre
#                                CCDC 
#
#######################################################################
#
# If this CIF has been generated from an entry in the Cambridge 
# Structural Database, then it will include bibliographic, chemical, 
# crystal, experimental, refinement or atomic coordinate data resulting 
# from the CCDC's data processing and validation procedures.
#
#######################################################################

data_FOJZOT
_chemical_formula_moiety         'C13 H19 N1 S2'
_chemical_name_systematic        '\a-Methylbenzyl N,N-diethyldithiocarbamate'
_chemical_properties_biological  'herbicidal activity'
_symmetry_cell_setting           orthorhombic
_symmetry_space_group_name_H-M   'P b c a'
_symmetry_Int_Tables_number      61
_space_group_name_Hall           '-P 2ac 2ab'
loop_
_symmetry_equiv_pos_site_id
_symmetry_equiv_pos_as_xyz
1 x,y,z
2 1/2-x,1/2+y,z
3 x,1/2-y,1/2+z
4 1/2-x,-y,1/2+z
5 -x,-y,-z
6 1/2+x,1/2-y,-z
7 -x,1/2+y,1/2-z
8 1/2+x,y,1/2-z
_cell_length_a                   21.422
_cell_length_b                   14.645
_cell_length_c                   8.769
_cell_angle_alpha                90
_cell_angle_beta                 90
_cell_angle_gamma                90
_cell_volume                     2751.06
_cell_formula_units_Z            8
loop_
_atom_site_label
_atom_site_type_symbol
_atom_site_fract_x
_atom_site_fract_y
_atom_site_fract_z
S1 S 0.3546(1) 0.1567(1) 0.9769(2)
S2 S 0.3662(1) -0.0378(1) 0.8655(3)
N1 N 0.2620(3) 0.0579(4) 0.8827(7)
C1 C 0.4719(3) 0.2196(4) 1.0163(8)
C2 C 0.4481(4) 0.2966(5) 1.0976(9)
C3 C 0.4842(4) 0.3766(5) 1.0968(10)
C4 C 0.5397(4) 0.3812(5) 1.0240(11)
C5 C 0.5636(4) 0.3058(6) 0.9417(10)
C6 C 0.5278(3) 0.2251(5) 0.9414(10)
C7 C 0.4354(3) 0.1295(4) 1.0172(9)
C8 C 0.4430(4) 0.0797(5) 1.1745(10)
C9 C 0.3214(3) 0.0535(4) 0.9041(8)
C10 C 0.2218(3) 0.1378(5) 0.9246(10)
C11 C 0.2117(5) 0.2012(6) 0.7833(12)
C12 C 0.2261(3) -0.0205(5) 0.8146(9)
C13 C 0.2014(4) -0.0826(6) 0.9444(12)
loop_
_geom_bond_atom_site_label_1
_geom_bond_atom_site_label_2
_geom_bond_site_symmetry_1
_geom_bond_site_symmetry_2
S1 C7 1_555 1_555
S2 C9 1_555 1_555
N1 C9 1_555 1_555
C1 C2 1_555 1_555
C2 C3 1_555 1_555
C3 C4 1_555 1_555
C4 C5 1_555 1_555
C5 C6 1_555 1_555
C6 C1 1_555 1_555
C7 C1 1_555 1_555
C8 C7 1_555 1_555
C9 S1 1_555 1_555
C10 N1 1_555 1_555
C11 C10 1_555 1_555
C12 N1 1_555 1_555
C13 C12 1_555 1_555

#END
