
#######################################################################
#
#                 Cambridge Crystallographic Data Centre
#                                CCDC 
#
#######################################################################
#
# If this CIF has been generated from an entry in the Cambridge 
# Structural Database, then it will include bibliographic, chemical, 
# crystal, experimental, refinement or atomic coordinate data resulting 
# from the CCDC's data processing and validation procedures.
#
#######################################################################

data_FOKMIC
_chemical_formula_moiety         'C25 H27 N1 O3 S1'
_chemical_name_systematic        
2-Methyl-1-(N-(p-methoxyphenyl)-N-(p-tosyl)amino)-1-phenylbut-3-ene
_symmetry_cell_setting           triclinic
_symmetry_space_group_name_H-M   'P -1'
_symmetry_Int_Tables_number      2
_space_group_name_Hall           '-P 1'
loop_
_symmetry_equiv_pos_site_id
_symmetry_equiv_pos_as_xyz
1 x,y,z
2 -x,-y,-z
_cell_length_a                   8.5238(5)
_cell_length_b                   15.830(2)
_cell_length_c                   16.800(2)
_cell_angle_alpha                90.003(3)
_cell_angle_beta                 90.0048(9)
_cell_angle_gamma                90.098(1)
_cell_volume                     2266.85
_exptl_crystal_description       block
_cell_formula_units_Z            4
loop_
_atom_site_label
_atom_site_type_symbol
_atom_site_fract_x
_atom_site_fract_y
_atom_site_fract_z
S1 S 0.58391(9) 0.31267(6) -0.62289(5)
O1 O 0.6086(2) 0.4011(1) -0.6368(1)
O2 O 0.6214(2) 0.2774(2) -0.5461(1)
O3 O 0.1992(3) -0.0407(1) -0.6048(1)
N1 N 0.4015(2) 0.2923(1) -0.6458(1)
C1 C 0.2840(3) 0.3625(2) -0.6498(2)
C2 C 0.1871(4) 0.3559(2) -0.7260(2)
C3 C 0.2973(5) 0.3592(2) -0.7967(2)
C4 C 0.2956(6) 0.3125(3) -0.8552(2)
C5 C 0.0694(4) 0.4289(2) -0.7324(2)
C6 C 0.1909(3) 0.3705(2) -0.5735(2)
C7 C 0.2400(3) 0.4272(2) -0.5155(2)
C8 C 0.1575(4) 0.4367(2) -0.4453(2)
C9 C 0.0266(4) 0.3900(2) -0.4312(2)
C10 C -0.0238(3) 0.3340(2) -0.4876(2)
C11 C 0.0564(4) 0.3242(2) -0.5582(2)
C12 C 0.3491(3) 0.2062(2) -0.6332(2)
C13 C 0.3201(3) 0.1549(2) -0.6975(1)
C14 C 0.2703(4) 0.0731(2) -0.6867(2)
C15 C 0.2495(4) 0.0416(2) -0.6104(2)
C16 C 0.2807(4) 0.0919(2) -0.5457(2)
C17 C 0.3289(4) 0.1748(2) -0.5577(2)
C18 C 0.1987(6) -0.0790(2) -0.5285(2)
C19 C 0.6921(3) 0.2556(2) -0.6931(2)
C20 C 0.7246(3) 0.2887(2) -0.7668(2)
C21 C 0.8125(4) 0.2439(2) -0.8210(2)
C22 C 0.8704(3) 0.1653(2) -0.8036(2)
C23 C 0.8381(4) 0.1336(2) -0.7298(2)
C24 C 0.7499(4) 0.1773(2) -0.6740(2)
C25 C 0.9647(4) 0.1167(2) -0.8628(2)
H1 H 0.3443 0.4143 -0.6545
H2 H 0.1308 0.3026 -0.7263
H3 H 0.3776 0.4027 -0.7956
H4 H 0.2176 0.2680 -0.8593
H5 H 0.3721 0.3202 -0.8974
H6 H 0.1255 0.4822 -0.7328
H7 H 0.0096 0.4232 -0.7812
H8 H -0.0014 0.4273 -0.6872
H9 H 0.3339 0.4606 -0.5244
H10 H 0.1933 0.4770 -0.4058
H11 H -0.0305 0.3963 -0.3816
H12 H -0.1174 0.3007 -0.4779
H13 H 0.0181 0.2844 -0.5977
H14 H 0.3349 0.1766 -0.7509
H15 H 0.2496 0.0374 -0.7324
H16 H 0.2692 0.0697 -0.4922
H17 H 0.3485 0.2110 -0.5122
H18 H 0.1287 -0.0482 -0.4935
H19 H 0.1630 -0.1370 -0.5332
H20 H 0.3040 -0.0781 -0.5067
H21 H 0.6852 0.3442 -0.7808
H22 H 0.8340 0.2685 -0.8727
H23 H 0.8786 0.0783 -0.7158
H24 H 0.7292 0.1528 -0.6221
H25 H 0.9942 0.0626 -0.8402
H26 H 0.9026 0.1074 -0.9105
H27 H 1.0585 0.1484 -0.8764
S2 S -0.08379(9) 0.18730(6) -0.12290(5)
O4 O -0.1086(2) 0.0988(1) -0.1370(1)
O5 O -0.1213(2) 0.2223(2) -0.0459(1)
O6 O 0.3010(3) 0.5404(1) -0.1050(1)
N2 N 0.0986(2) 0.2078(1) -0.1460(1)
C26 C 0.2158(3) 0.1374(2) -0.1500(2)
C27 C 0.3124(3) 0.1438(2) -0.2263(2)
C28 C 0.2036(4) 0.1409(2) -0.2965(2)
C29 C 0.2039(6) 0.1874(3) -0.3555(2)
C30 C 0.4304(4) 0.0708(2) -0.2322(2)
C31 C 0.3092(3) 0.1295(2) -0.0736(2)
C32 C 0.4430(3) 0.1756(2) -0.0586(2)
C33 C 0.5240(3) 0.1662(2) 0.0124(2)
C34 C 0.4732(4) 0.1101(2) 0.0685(2)
C35 C 0.3423(4) 0.0632(2) 0.0546(2)
C36 C 0.2599(3) 0.0729(2) -0.0158(2)
C37 C 0.1515(3) 0.2938(2) -0.1330(2)
C38 C 0.1798(3) 0.3448(2) -0.1974(2)
C39 C 0.2304(4) 0.4268(2) -0.1869(2)
C40 C 0.2501(4) 0.4583(2) -0.1105(2)
C41 C 0.2192(4) 0.4080(2) -0.0460(2)
C42 C 0.1710(4) 0.3249(2) -0.0575(2)
C43 C 0.3010(6) 0.5791(2) -0.0284(2)
C44 C -0.1925(3) 0.2445(2) -0.1931(2)
C45 C -0.2501(4) 0.3231(2) -0.1742(2)
C46 C -0.3381(4) 0.3665(2) -0.2295(2)
C47 C -0.3698(3) 0.3346(2) -0.3033(2)
C48 C -0.3124(4) 0.2562(2) -0.3211(2)
C49 C -0.2242(3) 0.2109(2) -0.2670(2)
C50 C -0.4651(4) 0.3830(2) -0.3631(2)
H28 H 0.1552 0.0857 -0.1546
H29 H 0.3689 0.1970 -0.2265
H30 H 0.1235 0.0973 -0.2954
H31 H 0.2812 0.2322 -0.3601
H32 H 0.1269 0.1791 -0.3973
H33 H 0.3744 0.0174 -0.2316
H34 H 0.4892 0.0758 -0.2815
H35 H 0.5020 0.0731 -0.1874
H36 H 0.4812 0.2152 -0.0982
H37 H 0.6174 0.1997 0.0223
H38 H 0.5303 0.1038 0.1180
H39 H 0.3065 0.0229 0.0942
H40 H 0.1662 0.0394 -0.0249
H41 H 0.1640 0.3230 -0.2508
H42 H 0.2522 0.4622 -0.2327
H43 H 0.2308 0.4303 0.0074
H44 H 0.1511 0.2889 -0.0119
H45 H 0.3686 0.5473 0.0071
H46 H 0.3395 0.6366 -0.0329
H47 H 0.1951 0.5796 -0.0074
H48 H -0.2289 0.3477 -0.1224
H49 H -0.3790 0.4217 -0.2155
H50 H -0.3340 0.2318 -0.3730
H51 H -0.1846 0.1555 -0.2810
H52 H -0.4955 0.4370 -0.3405
H53 H -0.4029 0.3924 -0.4106
H54 H -0.5583 0.3509 -0.3767
loop_
_geom_bond_atom_site_label_1
_geom_bond_atom_site_label_2
_geom_bond_site_symmetry_1
_geom_bond_site_symmetry_2
S1 O1 1_555 1_555
O2 S1 1_555 1_555
O3 C15 1_555 1_555
N1 S1 1_555 1_555
C1 N1 1_555 1_555
C2 C1 1_555 1_555
C3 C2 1_555 1_555
C4 C3 1_555 1_555
C5 C2 1_555 1_555
C6 C1 1_555 1_555
C7 C6 1_555 1_555
C8 C7 1_555 1_555
C9 C8 1_555 1_555
C10 C9 1_555 1_555
C11 C6 1_555 1_555
C12 N1 1_555 1_555
C13 C12 1_555 1_555
C14 C13 1_555 1_555
C15 C14 1_555 1_555
C16 C15 1_555 1_555
C17 C12 1_555 1_555
C18 O3 1_555 1_555
C19 S1 1_555 1_555
C20 C19 1_555 1_555
C21 C20 1_555 1_555
C22 C21 1_555 1_555
C23 C22 1_555 1_555
C24 C19 1_555 1_555
C25 C22 1_555 1_555
H1 C1 1_555 1_555
H2 C2 1_555 1_555
H3 C3 1_555 1_555
H4 C4 1_555 1_555
H5 C4 1_555 1_555
H6 C5 1_555 1_555
H7 C5 1_555 1_555
H8 C5 1_555 1_555
H9 C7 1_555 1_555
H10 C8 1_555 1_555
H11 C9 1_555 1_555
H12 C10 1_555 1_555
H13 C11 1_555 1_555
H14 C13 1_555 1_555
H15 C14 1_555 1_555
H16 C16 1_555 1_555
H17 C17 1_555 1_555
H18 C18 1_555 1_555
H19 C18 1_555 1_555
H20 C18 1_555 1_555
H21 C20 1_555 1_555
H22 C21 1_555 1_555
H23 C23 1_555 1_555
H24 C24 1_555 1_555
H25 C25 1_555 1_555
H26 C25 1_555 1_555
H27 C25 1_555 1_555
S2 O4 1_555 1_555
O5 S2 1_555 1_555
O6 C40 1_555 1_555
N2 S2 1_555 1_555
C26 N2 1_555 1_555
C27 C26 1_555 1_555
C28 C27 1_555 1_555
C29 C28 1_555 1_555
C30 C27 1_555 1_555
C31 C26 1_555 1_555
C32 C31 1_555 1_555
C33 C32 1_555 1_555
C34 C33 1_555 1_555
C35 C34 1_555 1_555
C36 C31 1_555 1_555
C37 N2 1_555 1_555
C38 C37 1_555 1_555
C39 C38 1_555 1_555
C40 C39 1_555 1_555
C41 C40 1_555 1_555
C42 C37 1_555 1_555
C43 O6 1_555 1_555
C44 S2 1_555 1_555
C45 C44 1_555 1_555
C46 C45 1_555 1_555
C47 C46 1_555 1_555
C48 C47 1_555 1_555
C49 C44 1_555 1_555
C50 C47 1_555 1_555
H28 C26 1_555 1_555
H29 C27 1_555 1_555
H30 C28 1_555 1_555
H31 C29 1_555 1_555
H32 C29 1_555 1_555
H33 C30 1_555 1_555
H34 C30 1_555 1_555
H35 C30 1_555 1_555
H36 C32 1_555 1_555
H37 C33 1_555 1_555
H38 C34 1_555 1_555
H39 C35 1_555 1_555
H40 C36 1_555 1_555
H41 C38 1_555 1_555
H42 C39 1_555 1_555
H43 C41 1_555 1_555
H44 C42 1_555 1_555
H45 C43 1_555 1_555
H46 C43 1_555 1_555
H47 C43 1_555 1_555
H48 C45 1_555 1_555
H49 C46 1_555 1_555
H50 C48 1_555 1_555
H51 C49 1_555 1_555
H52 C50 1_555 1_555
H53 C50 1_555 1_555
H54 C50 1_555 1_555
C10 C11 1_555 1_555
C16 C17 1_555 1_555
C23 C24 1_555 1_555
C35 C36 1_555 1_555
C41 C42 1_555 1_555
C48 C49 1_555 1_555

#END
