
#######################################################################
#
#                 Cambridge Crystallographic Data Centre
#                                CCDC 
#
#######################################################################
#
# If this CIF has been generated from an entry in the Cambridge 
# Structural Database, then it will include bibliographic, chemical, 
# crystal, experimental, refinement or atomic coordinate data resulting 
# from the CCDC's data processing and validation procedures.
#
#######################################################################

data_FOLDUH
_chemical_formula_moiety         'C28 H46 O6'
_chemical_name_systematic        
'(4,8c-Dihydroxy-5-(isobutyryloxy)-3-isopropyl-5a,8-dimethyldodecahydrocyclopenta[3,4]cyclobuta[1,2-e]inden-3a(1H)-yl)methyl 2-methylpropanoate'
_symmetry_cell_setting           trigonal
_symmetry_space_group_name_H-M   'P 31'
_symmetry_Int_Tables_number      144
_space_group_name_Hall           'P 31'
loop_
_symmetry_equiv_pos_site_id
_symmetry_equiv_pos_as_xyz
1 x,y,z
2 -y,x-y,1/3+z
3 -x+y,-x,2/3+z
_cell_length_a                   12.898(4)
_cell_length_b                   12.898(4)
_cell_length_c                   15.364(8)
_cell_angle_alpha                90
_cell_angle_beta                 90
_cell_angle_gamma                120
_cell_volume                     2213.5
_exptl_crystal_colour            colorless
_exptl_crystal_description       prism
_cell_formula_units_Z            3
loop_
_atom_site_label
_atom_site_type_symbol
_atom_site_fract_x
_atom_site_fract_y
_atom_site_fract_z
O2 O 0.05266(17) 0.13277(19) 0.71036(14)
O3 O 0.0173(7) 0.0443(8) 0.5728(6)
O4 O 0.12671(15) -0.00578(14) 0.79073(12)
H1 H 0.0736 -0.0157 0.8248
O5 O 0.36758(14) 0.20732(14) 0.92572(10)
O6 O 0.5139(9) 0.2181(12) 1.0007(8)
O7 O 0.53223(15) 0.31424(16) 0.78641(12)
H2 H 0.5540 0.3851 0.7946
C1 C 0.1776(2) 0.1655(2) 0.70067(17)
H3 H 0.1864 0.1258 0.6491
C2 C 0.2090(2) 0.11879(19) 0.78143(15)
H4 H 0.2033 0.1610 0.8326
C3 C 0.3361(2) 0.13717(19) 0.77627(14)
C4 C 0.4275(2) 0.2615(2) 0.73348(14)
C5 C 0.3826(2) 0.3498(2) 0.72193(14)
H5 H 0.4377 0.4149 0.6836
C6 C 0.3539(3) 0.4041(2) 0.80226(16)
H6 H 0.3502 0.3641 0.8573
C7 C 0.4235(17) 0.5429(9) 0.8077(9)
H7 H 0.3939 0.5640 0.8596
C8 C 0.3807(16) 0.5839(18) 0.7302(12)
H8 H 0.4123 0.5735 0.6756
H9 H 0.3988 0.6661 0.7359
C9 C 0.2455(17) 0.4932(11) 0.7410(11)
H10 H 0.2123 0.5192 0.7871
H11 H 0.2033 0.4879 0.6874
C10 C 0.557(2) 0.606(3) 0.816(3)
H12 H 0.5872 0.6907 0.8209
H13 H 0.5902 0.5905 0.7651
H14 H 0.5783 0.5779 0.8666
C11 C 0.2305(3) 0.3698(3) 0.76362(18)
H15 H 0.1623 0.3199 0.8015
C12 C 0.2518(3) 0.3008(2) 0.68890(16)
C13 C -0.0138(8) 0.0713(9) 0.6370(6)
C14 C -0.1446(6) 0.0295(8) 0.6592(7)
H16 H -0.1842 0.0133 0.6024
C15 C 0.3750(2) 0.1234(2) 0.86680(15)
H17 H 0.3238 0.0423 0.8874
H18 H 0.4567 0.1386 0.8649
C16 C 0.4420(9) 0.2514(14) 0.9933(8)
C17 C 0.4368(11) 0.3450(10) 1.0470(7)
H19 H 0.3894 0.3755 1.0185
C18 C 0.3376(2) 0.0398(2) 0.71404(16)
H20 H 0.2737 0.0208 0.6717
C19 C 0.4539(3) 0.1100(3) 0.6625(2)
H21 H 0.5224 0.1220 0.6964
H22 H 0.4512 0.0694 0.6086
C20 C 0.4581(3) 0.2268(3) 0.64501(16)
H23 H 0.4000 0.2172 0.6011
H24 H 0.5372 0.2872 0.6256
C21 C 0.3111(3) -0.0819(2) 0.7503(2)
H25 H 0.2507 -0.1046 0.7962
C22 C 0.2570(4) -0.1764(3) 0.6782(3)
H26 H 0.2395 -0.2528 0.7009
H27 H 0.3132 -0.1544 0.6312
H28 H 0.1846 -0.1811 0.6573
C23 C 0.4178(3) -0.0853(3) 0.7891(3)
H29 H 0.3926 -0.1645 0.8103
H30 H 0.4501 -0.0293 0.8364
H31 H 0.4780 -0.0643 0.7452
C24 C 0.2385(4) 0.3332(3) 0.59528(19)
H32 H 0.1551 0.2996 0.5817
H33 H 0.2738 0.3016 0.5560
H34 H 0.2783 0.4187 0.5894
C25 C -0.1683(10) 0.1185(10) 0.6982(11)
H35 H -0.0946 0.1932 0.7036
H36 H -0.2030 0.0918 0.7548
H37 H -0.2228 0.1293 0.6620
C26 C -0.2001(10) -0.0927(9) 0.7022(7)
H38 H -0.2814 -0.1183 0.7180
H39 H -0.1554 -0.0879 0.7535
H40 H -0.1987 -0.1493 0.6624
C27 C 0.5657(13) 0.4419(10) 1.0581(10)
H41 H 0.5689 0.5134 1.0793
H42 H 0.6061 0.4580 1.0030
H43 H 0.6043 0.4159 1.0990
C28 C 0.390(2) 0.2987(16) 1.1382(9)
H44 H 0.3904 0.3612 1.1720
H45 H 0.4413 0.2737 1.1655
H46 H 0.3104 0.2319 1.1346
O1? O 0.05266(17) 0.13277(19) 0.71036(14)
O8? O -0.0180(10) 0.0075(11) 0.6035(6)
O9? O 0.36758(14) 0.20732(14) 0.92572(10)
O10? O 0.4898(16) 0.1855(17) 1.0229(9)
C29? C 0.3539(3) 0.4041(2) 0.80226(16)
H47? H 0.3472 0.3600 0.8559
C30? C 0.4232(19) 0.5388(10) 0.8160(16)
H48? H 0.4083 0.5577 0.8748
C31? C 0.359(3) 0.575(2) 0.7494(17)
H49? H 0.3668 0.6513 0.7668
H50? H 0.3974 0.5867 0.6931
C32? C 0.225(3) 0.4813(18) 0.741(2)
H51? H 0.1762 0.4956 0.7816
H52? H 0.1958 0.4778 0.6820
C33? C 0.557(2) 0.590(3) 0.803(3)
H53? H 0.5973 0.6756 0.8114
H54? H 0.5713 0.5736 0.7445
H55? H 0.5861 0.5550 0.8436
C34? C 0.2305(3) 0.3698(3) 0.76362(18)
H56? H 0.1647 0.3160 0.8020
C35? C -0.0406(9) 0.0456(8) 0.6674(8)
C36? C -0.1622(8) 0.0115(10) 0.7073(9)
H57? H -0.1592 -0.0176 0.7656
C37? C 0.4384(15) 0.2325(17) 0.9954(8)
C38? C 0.4293(14) 0.3294(16) 1.0468(8)
H58? H 0.4144 0.3765 1.0037
C39? C -0.169(2) 0.1203(19) 0.7232(18)
H59? H -0.2441 0.0989 0.7507
H60? H -0.1635 0.1595 0.6689
H61? H -0.1045 0.1733 0.7605
C40? C -0.2583(10) -0.0936(10) 0.6632(9)
H62? H -0.3344 -0.1039 0.6806
H63? H -0.2542 -0.1635 0.6788
H64? H -0.2493 -0.0821 0.6013
C41? C 0.541(2) 0.418(3) 1.0969(16)
H65? H 0.5196 0.4614 1.1377
H66? H 0.5993 0.4739 1.0569
H67? H 0.5728 0.3762 1.1278
C42? C 0.3208(17) 0.2692(15) 1.1003(11)
H68? H 0.2537 0.2176 1.0643
H69? H 0.3064 0.3280 1.1272
H70? H 0.3311 0.2225 1.1446
loop_
_geom_bond_atom_site_label_1
_geom_bond_atom_site_label_2
_geom_bond_site_symmetry_1
_geom_bond_site_symmetry_2
O2 C1 1_555 1_555
O3 C13 1_555 1_555
O4 H1 1_555 1_555
O5 C15 1_555 1_555
O6 C16 1_555 1_555
O7 H2 1_555 1_555
C1 H3 1_555 1_555
C2 O4 1_555 1_555
H4 C2 1_555 1_555
C3 C2 1_555 1_555
C4 O7 1_555 1_555
C5 C4 1_555 1_555
H5 C5 1_555 1_555
C6 C5 1_555 1_555
H6 C6 1_555 1_555
C7 C6 1_555 1_555
H7 C7 1_555 1_555
C8 C7 1_555 1_555
H8 C8 1_555 1_555
H9 C8 1_555 1_555
C9 C8 1_555 1_555
H10 C9 1_555 1_555
H11 C9 1_555 1_555
C10 C7 1_555 1_555
H12 C10 1_555 1_555
H13 C10 1_555 1_555
H14 C10 1_555 1_555
C11 C6 1_555 1_555
H15 C11 1_555 1_555
C12 C1 1_555 1_555
C13 O2 1_555 1_555
C14 C13 1_555 1_555
H16 C14 1_555 1_555
C15 C3 1_555 1_555
H17 C15 1_555 1_555
H18 C15 1_555 1_555
C16 O5 1_555 1_555
C17 C16 1_555 1_555
H19 C17 1_555 1_555
C18 C3 1_555 1_555
H20 C18 1_555 1_555
C19 C18 1_555 1_555
H21 C19 1_555 1_555
H22 C19 1_555 1_555
C20 C4 1_555 1_555
H23 C20 1_555 1_555
H24 C20 1_555 1_555
C21 C18 1_555 1_555
H25 C21 1_555 1_555
C22 C21 1_555 1_555
H26 C22 1_555 1_555
H27 C22 1_555 1_555
H28 C22 1_555 1_555
C23 C21 1_555 1_555
H29 C23 1_555 1_555
H30 C23 1_555 1_555
H31 C23 1_555 1_555
C24 C12 1_555 1_555
H32 C24 1_555 1_555
H33 C24 1_555 1_555
H34 C24 1_555 1_555
C25 C14 1_555 1_555
H35 C25 1_555 1_555
H36 C25 1_555 1_555
H37 C25 1_555 1_555
C26 C14 1_555 1_555
H38 C26 1_555 1_555
H39 C26 1_555 1_555
H40 C26 1_555 1_555
C27 C17 1_555 1_555
H41 C27 1_555 1_555
H42 C27 1_555 1_555
H43 C27 1_555 1_555
C28 C17 1_555 1_555
H44 C28 1_555 1_555
H45 C28 1_555 1_555
H46 C28 1_555 1_555
C1 C2 1_555 1_555
C3 C4 1_555 1_555
C5 C12 1_555 1_555
C9 C11 1_555 1_555
C11 C12 1_555 1_555
C19 C20 1_555 1_555

#END
