
#######################################################################
#
#                 Cambridge Crystallographic Data Centre
#                                CCDC 
#
#######################################################################
#
# If this CIF has been generated from an entry in the Cambridge 
# Structural Database, then it will include bibliographic, chemical, 
# crystal, experimental, refinement or atomic coordinate data resulting 
# from the CCDC's data processing and validation procedures.
#
#######################################################################

data_FOLLID
_chemical_formula_moiety         'C48 H56 Li1 N1 O3 Si1'
_chemical_name_systematic        
(N-(2,6-Di-isopropylphenyl)-1,1,1-tris(phenylethynyl)silanaminato)-tris(tetrahydrofuran)-lithium
_symmetry_cell_setting           orthorhombic
_symmetry_space_group_name_H-M   'P b c a'
_symmetry_Int_Tables_number      61
_space_group_name_Hall           '-P 2ac 2ab'
loop_
_symmetry_equiv_pos_site_id
_symmetry_equiv_pos_as_xyz
1 x,y,z
2 1/2-x,-y,1/2+z
3 -x,1/2+y,1/2-z
4 1/2+x,1/2-y,-z
5 -x,-y,-z
6 1/2+x,y,1/2-z
7 x,1/2-y,1/2+z
8 1/2-x,1/2+y,z
_cell_length_a                   20.9911(2)
_cell_length_b                   19.1749(2)
_cell_length_c                   21.7250(2)
_cell_angle_alpha                90
_cell_angle_beta                 90
_cell_angle_gamma                90
_cell_volume                     8744.36
_exptl_crystal_colour            colorless
_exptl_crystal_description       cubic
_cell_formula_units_Z            8
loop_
_atom_site_label
_atom_site_type_symbol
_atom_site_fract_x
_atom_site_fract_y
_atom_site_fract_z
Li1 Li 0.22023(12) 0.19335(13) 0.02185(11)
Si1 Si 0.216364(16) 0.273123(18) 0.148305(16)
N1 N 0.20307(5) 0.27754(6) 0.07400(5)
C1 C 0.18621(7) 0.34764(8) 0.19326(7)
C2 C 0.16721(7) 0.39651(8) 0.22284(7)
C3 C 0.1438(3) 0.4536(3) 0.2629(5)
C4 C 0.0781(3) 0.4602(5) 0.2688(5)
H1 H 0.0507 0.4263 0.2511
C5 C 0.0525(4) 0.5165(6) 0.3007(4)
H2 H 0.0076 0.5210 0.3047
C6 C 0.0925(6) 0.5661(4) 0.3267(3)
H3 H 0.0750 0.6046 0.3485
C7 C 0.1582(5) 0.5595(3) 0.3208(4)
H4 H 0.1856 0.5935 0.3386
C8 C 0.1838(3) 0.5033(4) 0.2889(5)
H5 H 0.2287 0.4988 0.2849
C9 C 0.30025(7) 0.26672(7) 0.17395(6)
C10 C 0.35532(7) 0.26425(7) 0.18904(7)
C11 C 0.42412(15) 0.2648(3) 0.20156(19)
C12 C 0.46650(19) 0.2741(3) 0.15309(17)
H6 H 0.4509 0.2790 0.1123
C13 C 0.53165(18) 0.2761(3) 0.1643(2)
H7 H 0.5606 0.2825 0.1312
C14 C 0.55443(16) 0.2689(3) 0.2241(2)
H8 H 0.5990 0.2703 0.2318
C15 C 0.5121(2) 0.2596(3) 0.27256(15)
H9 H 0.5276 0.2547 0.3134
C16 C 0.44690(18) 0.2576(3) 0.26130(16)
H10 H 0.4179 0.2512 0.2944
C17 C 0.18081(6) 0.19436(7) 0.18246(6)
C18 C 0.15948(7) 0.14334(8) 0.20806(6)
C19 C 0.13430(7) 0.08176(8) 0.23705(6)
C20 C 0.09671(9) 0.08616(9) 0.28953(7)
H11 H 0.0874 0.1304 0.3070
C21 C 0.07290(10) 0.02615(11) 0.31639(8)
H12 H 0.0468 0.0295 0.3520
C22 C 0.08648(9) -0.03814(9) 0.29213(8)
H13 H 0.0701 -0.0791 0.3110
C23 C 0.12358(10) -0.04307(9) 0.24095(9)
H14 H 0.1331 -0.0875 0.2240
C24 C 0.14736(9) 0.01652(9) 0.21358(8)
H15 H 0.1732 0.0125 0.1779
C25 C 0.19715(6) 0.33574(7) 0.03566(6)
C26 C 0.13614(7) 0.36032(8) 0.01777(7)
C27 C 0.13118(8) 0.41272(9) -0.02597(8)
H16 H 0.0900 0.4281 -0.0381
C28 C 0.18391(9) 0.44322(9) -0.05243(8)
H17 H 0.1794 0.4781 -0.0831
C29 C 0.24333(8) 0.42194(9) -0.03334(7)
H18 H 0.2800 0.4437 -0.0503
C30 C 0.25103(7) 0.36946(7) 0.01017(6)
O1 O 0.2891(7) 0.1339(9) 0.0475(10)
C31 C 0.2805(4) 0.0701(5) 0.0814(5)
H19 H 0.2784 0.0301 0.0527
H20 H 0.2402 0.0720 0.1050
C32 C 0.3355(4) 0.0615(5) 0.1243(4)
H21 H 0.3407 0.0127 0.1383
H22 H 0.3329 0.0932 0.1602
C33 C 0.3908(3) 0.0852(4) 0.0749(6)
H23 H 0.4310 0.0988 0.0954
H24 H 0.3992 0.0489 0.0435
C34 C 0.3569(4) 0.1444(4) 0.0500(4)
H25 H 0.3661 0.1859 0.0756
H26 H 0.3728 0.1540 0.0079
C35 C 0.07581(8) 0.32970(10) 0.04572(9)
H27 H 0.0890 0.2930 0.0759
C36 C 0.03739(10) 0.38412(13) 0.08069(12)
H28 H 0.0637 0.4042 0.1135
H29 H -0.0004 0.3621 0.0988
H30 H 0.0241 0.4211 0.0523
C37 C 0.03520(10) 0.29465(13) -0.00322(13)
H31 H 0.0600 0.2579 -0.0234
H32 H 0.0221 0.3293 -0.0339
H33 H -0.0027 0.2742 0.0160
O2 O 0.2503(4) 0.2141(5) -0.0652(4)
C38 C 0.2127(8) 0.2593(7) -0.1059(5)
H34 H 0.1673 0.2455 -0.1069
H35 H 0.2164 0.3090 -0.0943
C39 C 0.2449(7) 0.2443(5) -0.1643(4)
H36 H 0.2676 0.2867 -0.1782
H37 H 0.2125 0.2327 -0.1958
C40 C 0.2946(6) 0.1814(6) -0.1594(5)
H38 H 0.2808 0.1403 -0.1835
H39 H 0.3379 0.1956 -0.1726
C41 C 0.2916(3) 0.1699(4) -0.0989(3)
H40 H 0.3351 0.1746 -0.0817
H41 H 0.2779 0.1210 -0.0923
C42 C 0.31761(7) 0.35003(8) 0.03129(7)
H42 H 0.3145 0.3045 0.0536
C43 C 0.34095(9) 0.40438(9) 0.07733(8)
H43 H 0.3108 0.4075 0.1117
H44 H 0.3441 0.4498 0.0570
H45 H 0.3829 0.3907 0.0930
C44 C 0.36502(8) 0.34049(12) -0.02104(9)
H46 H 0.3486 0.3058 -0.0501
H47 H 0.4059 0.3245 -0.0044
H48 H 0.3711 0.3850 -0.0423
O3 O 0.1487(10) 0.1340(8) 0.0086(8)
C45 C 0.1394(8) 0.0909(7) -0.0437(7)
H49 H 0.1734 0.0552 -0.0461
H50 H 0.1407 0.1193 -0.0818
C46 C 0.0755(5) 0.0565(4) -0.0372(4)
H51 H 0.0802 0.0071 -0.0248
H52 H 0.0514 0.0587 -0.0763
C47 C 0.0424(4) 0.0990(5) 0.0132(6)
H53 H 0.0111 0.0707 0.0364
H54 H 0.0211 0.1410 -0.0036
C48 C 0.1008(7) 0.1181(6) 0.0530(7)
H55 H 0.0917 0.1590 0.0795
H56 H 0.1138 0.0784 0.0794
C49? C 0.1443(7) 0.4565(6) 0.2491(9)
C50? C 0.0811(6) 0.4758(10) 0.2575(8)
H57? H 0.0480 0.4486 0.2399
C51? C 0.0663(10) 0.5350(12) 0.2916(8)
H58? H 0.0231 0.5482 0.2973
C52? C 0.1147(15) 0.5749(8) 0.3173(8)
H59? H 0.1046 0.6153 0.3406
C53? C 0.1780(13) 0.5556(7) 0.3089(9)
H60? H 0.2111 0.5828 0.3265
C54? C 0.1928(7) 0.4964(8) 0.2748(10)
H61? H 0.2360 0.4832 0.2691
C55? C 0.4171(2) 0.2631(4) 0.2115(4)
C56? C 0.4667(3) 0.2885(4) 0.1756(5)
H62? H 0.4587 0.3037 0.1347
C57? C 0.5281(2) 0.2918(4) 0.1996(8)
H63? H 0.5620 0.3091 0.1750
C58? C 0.5397(4) 0.2696(3) 0.2594(8)
H64? H 0.5817 0.2718 0.2758
C59? C 0.4901(5) 0.2441(4) 0.2953(6)
H65? H 0.4981 0.2289 0.3362
C60? C 0.4288(4) 0.2409(4) 0.2714(4)
H66? H 0.3948 0.2235 0.2959
O4? O 0.2913(10) 0.1282(14) 0.0541(16)
C61? C 0.2749(9) 0.0688(9) 0.0901(9)
H67? H 0.2447 0.0379 0.0682
H68? H 0.2568 0.0822 0.1304
C62? C 0.3400(4) 0.0355(4) 0.0967(5)
H69? H 0.3424 0.0058 0.1339
H70? H 0.3512 0.0074 0.0600
C63? C 0.3809(6) 0.0972(6) 0.1022(5)
H71? H 0.4260 0.0846 0.0951
H72? H 0.3769 0.1180 0.1437
C64? C 0.3581(6) 0.1477(6) 0.0536(6)
H73? H 0.3647 0.1969 0.0660
H74? H 0.3783 0.1391 0.0132
O5? O 0.2365(6) 0.1976(6) -0.0656(6)
C65? C 0.2134(8) 0.2430(8) -0.1115(7)
H75? H 0.2069 0.2899 -0.0934
H76? H 0.1716 0.2259 -0.1262
C66? C 0.2575(5) 0.2487(4) -0.1645(5)
H77? H 0.2961 0.2767 -0.1558
H78? H 0.2367 0.2645 -0.2030
C67? C 0.2683(5) 0.1722(6) -0.1618(3)
H79? H 0.2328 0.1483 -0.1832
H80? H 0.3081 0.1610 -0.1840
C68? C 0.2726(7) 0.1463(5) -0.1012(5)
H81? H 0.3175 0.1441 -0.0874
H82? H 0.2533 0.0993 -0.0980
O6? O 0.1417(11) 0.1298(10) 0.0110(7)
C69? C 0.1218(8) 0.0910(9) -0.0420(6)
H83? H 0.1424 0.0446 -0.0428
H84? H 0.1328 0.1162 -0.0803
C70? C 0.0511(5) 0.0839(6) -0.0357(4)
H85? H 0.0348 0.0434 -0.0592
H86? H 0.0287 0.1267 -0.0492
C71? C 0.0452(4) 0.0727(5) 0.0329(4)
H87? H 0.0017 0.0834 0.0476
H88? H 0.0564 0.0243 0.0445
C72? C 0.0923(9) 0.1234(9) 0.0571(8)
H89? H 0.0718 0.1691 0.0646
H90? H 0.1106 0.1064 0.0964
loop_
_geom_bond_atom_site_label_1
_geom_bond_atom_site_label_2
_geom_bond_site_symmetry_1
_geom_bond_site_symmetry_2
Li1 N1 1_555 1_555
Si1 N1 1_555 1_555
N1 C25 1_555 1_555
C1 Si1 1_555 1_555
C2 C1 1_555 1_555
C3 C2 1_555 1_555
C4 C3 1_555 1_555
H1 C4 1_555 1_555
C5 C4 1_555 1_555
H2 C5 1_555 1_555
C6 C5 1_555 1_555
H3 C6 1_555 1_555
C7 C6 1_555 1_555
H4 C7 1_555 1_555
C8 C3 1_555 1_555
H5 C8 1_555 1_555
C9 Si1 1_555 1_555
C10 C9 1_555 1_555
C11 C10 1_555 1_555
C12 C11 1_555 1_555
H6 C12 1_555 1_555
C13 C12 1_555 1_555
H7 C13 1_555 1_555
C14 C13 1_555 1_555
H8 C14 1_555 1_555
C15 C14 1_555 1_555
H9 C15 1_555 1_555
C16 C11 1_555 1_555
H10 C16 1_555 1_555
C17 Si1 1_555 1_555
C18 C17 1_555 1_555
C19 C18 1_555 1_555
C20 C19 1_555 1_555
H11 C20 1_555 1_555
C21 C20 1_555 1_555
H12 C21 1_555 1_555
C22 C21 1_555 1_555
H13 C22 1_555 1_555
C23 C22 1_555 1_555
H14 C23 1_555 1_555
C24 C19 1_555 1_555
H15 C24 1_555 1_555
C25 C26 1_555 1_555
C26 C27 1_555 1_555
C27 H16 1_555 1_555
C28 C27 1_555 1_555
H17 C28 1_555 1_555
C29 C28 1_555 1_555
H18 C29 1_555 1_555
C30 C25 1_555 1_555
O1 Li1 1_555 1_555
C31 O1 1_555 1_555
H19 C31 1_555 1_555
H20 C31 1_555 1_555
C32 C31 1_555 1_555
H21 C32 1_555 1_555
H22 C32 1_555 1_555
C33 C32 1_555 1_555
H23 C33 1_555 1_555
H24 C33 1_555 1_555
C34 O1 1_555 1_555
H25 C34 1_555 1_555
H26 C34 1_555 1_555
C35 C26 1_555 1_555
H27 C35 1_555 1_555
C36 C35 1_555 1_555
H28 C36 1_555 1_555
H29 C36 1_555 1_555
H30 C36 1_555 1_555
C37 C35 1_555 1_555
H31 C37 1_555 1_555
H32 C37 1_555 1_555
H33 C37 1_555 1_555
O2 Li1 1_555 1_555
C38 O2 1_555 1_555
H34 C38 1_555 1_555
H35 C38 1_555 1_555
C39 C38 1_555 1_555
H36 C39 1_555 1_555
H37 C39 1_555 1_555
C40 C39 1_555 1_555
H38 C40 1_555 1_555
H39 C40 1_555 1_555
C41 O2 1_555 1_555
H40 C41 1_555 1_555
H41 C41 1_555 1_555
C42 C30 1_555 1_555
H42 C42 1_555 1_555
C43 C42 1_555 1_555
H43 C43 1_555 1_555
H44 C43 1_555 1_555
H45 C43 1_555 1_555
C44 C42 1_555 1_555
H46 C44 1_555 1_555
H47 C44 1_555 1_555
H48 C44 1_555 1_555
O3 Li1 1_555 1_555
C45 O3 1_555 1_555
H49 C45 1_555 1_555
H50 C45 1_555 1_555
C46 C45 1_555 1_555
H51 C46 1_555 1_555
H52 C46 1_555 1_555
C47 C46 1_555 1_555
H53 C47 1_555 1_555
H54 C47 1_555 1_555
C48 O3 1_555 1_555
H55 C48 1_555 1_555
H56 C48 1_555 1_555
C7 C8 1_555 1_555
C15 C16 1_555 1_555
C23 C24 1_555 1_555
C29 C30 1_555 1_555
C33 C34 1_555 1_555
C40 C41 1_555 1_555
C47 C48 1_555 1_555

#END
