
#######################################################################
#
#                 Cambridge Crystallographic Data Centre
#                                CCDC 
#
#######################################################################
#
# If this CIF has been generated from an entry in the Cambridge 
# Structural Database, then it will include bibliographic, chemical, 
# crystal, experimental, refinement or atomic coordinate data resulting 
# from the CCDC's data processing and validation procedures.
#
#######################################################################

data_FOLWEJ
_chemical_compound_source        'root bark of Cudrania tricuspidata'
_chemical_name_common            
2,3,6,8-Tetrahydroxy-4-(3-methylbut-2-enyl)-7-(2-methylbut-3-en-2-yl)-9H-xanthen-9-one
_chemical_formula_moiety         'C23 H24 O6'
_chemical_name_systematic        'Cudraxanthone L'
_chemical_properties_biological  
'cytotoxic activity against human cancer cell lines A549 and SK-OV3; potent alpha,alpha-glucosidase inhibition properties'
_symmetry_cell_setting           triclinic
_symmetry_space_group_name_H-M   'P -1'
_symmetry_Int_Tables_number      2
_space_group_name_Hall           '-P 1'
loop_
_symmetry_equiv_pos_site_id
_symmetry_equiv_pos_as_xyz
1 x,y,z
2 -x,-y,-z
_cell_length_a                   8.0223(14)
_cell_length_b                   8.6013(15)
_cell_length_c                   14.450(3)
_cell_angle_alpha                96.767(3)
_cell_angle_beta                 99.053(3)
_cell_angle_gamma                98.177(3)
_cell_volume                     964.572
_exptl_crystal_colour            'bright yellow'
_exptl_crystal_description       needle
_cell_formula_units_Z            2
loop_
_atom_site_label
_atom_site_type_symbol
_atom_site_fract_x
_atom_site_fract_y
_atom_site_fract_z
O1 O 0.13069(17) 0.33396(17) 0.53280(10)
O2 O 0.4970(2) 0.3090(2) 0.31799(13)
H1 H 0.5180 0.2591 0.2687
O3 O -0.0494(2) -0.0338(2) 0.24601(11)
H2 H -0.1317 -0.0566 0.2741
O4 O -0.24164(19) -0.01361(19) 0.37254(11)
O5 O -0.49064(19) 0.24892(19) 0.64932(11)
H3 H -0.5578 0.1659 0.6232
O6 O -0.23604(19) 0.46049(18) 0.74525(10)
H4 H -0.3410 0.4450 0.7476
C1 C 0.1582(2) 0.2571(2) 0.44954(13)
C2 C 0.3142(3) 0.3045(3) 0.42469(15)
H5 H 0.3990 0.3806 0.4661
C3 C 0.3450(3) 0.2382(3) 0.33734(15)
C4 C 0.2291(3) 0.1188(2) 0.27487(14)
C5 C 0.0731(3) 0.0723(2) 0.30371(14)
C6 C 0.0348(2) 0.1400(2) 0.39153(13)
C7 C -0.1291(2) 0.0970(2) 0.41951(14)
C8 C -0.1579(2) 0.1899(2) 0.50410(13)
C9 C -0.3185(3) 0.1687(2) 0.53287(15)
H6 H -0.4102 0.0933 0.4964
C10 C -0.3421(3) 0.2570(2) 0.61340(15)
C11 C -0.2079(3) 0.3722(2) 0.66610(14)
C12 C -0.0485(2) 0.3991(2) 0.63983(13)
C13 C -0.0275(2) 0.3044(2) 0.55768(14)
C14 C 0.2666(3) 0.0590(2) 0.17610(14)
C15 C 0.4562(3) 0.0533(3) 0.18093(18)
H7 H 0.5074 -0.0030 0.2274
C16 C 0.5575(4) 0.1188(4) 0.1269(2)
H8 H 0.5126 0.1765 0.0793
H9 H 0.6750 0.1081 0.1359
C17 C 0.1983(4) 0.1650(3) 0.10625(17)
H10 H 0.0760 0.1641 0.1063
H11 H 0.2151 0.1252 0.0426
H12 H 0.2601 0.2738 0.1251
C18 C 0.1855(4) -0.1158(3) 0.13770(19)
H13 H 0.2277 -0.1850 0.1821
H14 H 0.2168 -0.1459 0.0760
H15 H 0.0607 -0.1269 0.1307
C19 C 0.0965(3) 0.5208(2) 0.69781(14)
H16 H 0.1523 0.5850 0.6552
H17 H 0.0504 0.5931 0.7421
C20 C 0.2268(2) 0.4408(2) 0.75296(14)
H18 H 0.3001 0.3912 0.7177
C21 C 0.2510(3) 0.4315(3) 0.84516(15)
C22 C 0.3825(4) 0.3378(4) 0.88649(18)
H19 H 0.3852 0.3434 0.9549
H20 H 0.4954 0.3823 0.8748
H21 H 0.3524 0.2268 0.8567
C23 C 0.1522(3) 0.5030(3) 0.91439(17)
H22 H 0.1951 0.4802 0.9779
H23 H 0.0307 0.4573 0.8959
H24 H 0.1663 0.6181 0.9146
loop_
_geom_bond_atom_site_label_1
_geom_bond_atom_site_label_2
_geom_bond_site_symmetry_1
_geom_bond_site_symmetry_2
O1 C1 1_555 1_555
O2 H1 1_555 1_555
O3 H2 1_555 1_555
O4 C7 1_555 1_555
O5 H3 1_555 1_555
O6 H4 1_555 1_555
C1 C2 1_555 1_555
C2 H5 1_555 1_555
C3 O2 1_555 1_555
C4 C3 1_555 1_555
C5 O3 1_555 1_555
C6 C1 1_555 1_555
C7 C6 1_555 1_555
C8 C7 1_555 1_555
C9 C8 1_555 1_555
H6 C9 1_555 1_555
C10 O5 1_555 1_555
C11 O6 1_555 1_555
C12 C11 1_555 1_555
C13 O1 1_555 1_555
C14 C4 1_555 1_555
C15 C14 1_555 1_555
H7 C15 1_555 1_555
C16 C15 1_555 1_555
H8 C16 1_555 1_555
H9 C16 1_555 1_555
C17 C14 1_555 1_555
H10 C17 1_555 1_555
H11 C17 1_555 1_555
H12 C17 1_555 1_555
C18 C14 1_555 1_555
H13 C18 1_555 1_555
H14 C18 1_555 1_555
H15 C18 1_555 1_555
C19 C12 1_555 1_555
H16 C19 1_555 1_555
H17 C19 1_555 1_555
C20 C19 1_555 1_555
H18 C20 1_555 1_555
C21 C20 1_555 1_555
C22 C21 1_555 1_555
H19 C22 1_555 1_555
H20 C22 1_555 1_555
H21 C22 1_555 1_555
C23 C21 1_555 1_555
H22 C23 1_555 1_555
H23 C23 1_555 1_555
H24 C23 1_555 1_555
C2 C3 1_555 1_555
C4 C5 1_555 1_555
C5 C6 1_555 1_555
C8 C13 1_555 1_555
C9 C10 1_555 1_555
C10 C11 1_555 1_555
C12 C13 1_555 1_555

#END
