
#######################################################################
#
#                 Cambridge Crystallographic Data Centre
#                                CCDC 
#
#######################################################################
#
# If this CIF has been generated from an entry in the Cambridge 
# Structural Database, then it will include bibliographic, chemical, 
# crystal, experimental, refinement or atomic coordinate data resulting 
# from the CCDC's data processing and validation procedures.
#
#######################################################################

data_FOMYIQ
_chemical_formula_moiety         'C22 H18 O2'
_chemical_name_systematic        4,6-Dibenzoyl-1,3-dimethylbenzene
_symmetry_cell_setting           monoclinic
_symmetry_space_group_name_H-M   'P 21/n'
_symmetry_Int_Tables_number      14
_space_group_name_Hall           '-P 2yn'
loop_
_symmetry_equiv_pos_site_id
_symmetry_equiv_pos_as_xyz
1 x,y,z
2 1/2-x,1/2+y,1/2-z
3 -x,-y,-z
4 1/2+x,1/2-y,1/2+z
_cell_length_a                   9.7934(10)
_cell_length_b                   8.4835(9)
_cell_length_c                   20.509(2)
_cell_angle_alpha                90
_cell_angle_beta                 91.098(2)
_cell_angle_gamma                90
_cell_volume                     1703.62
_exptl_crystal_colour            colorless
_exptl_crystal_description       rod
_chemical_melting_point          '377 K'
_cell_formula_units_Z            4
_exptl_crystal_recrystallization_method ethanol
loop_
_atom_site_label
_atom_site_type_symbol
_atom_site_fract_x
_atom_site_fract_y
_atom_site_fract_z
C1 C 0.64048(19) 0.2616(2) 0.43434(8)
C2 C 0.73143(19) 0.3769(2) 0.41570(9)
H1 H 0.7015 0.4596 0.3893
C3 C 0.8666(2) 0.3699(3) 0.43605(10)
H2 H 0.9272 0.4488 0.4243
C4 C 0.9109(3) 0.2450(3) 0.47393(11)
H3 H 1.0020 0.2389 0.4872
C5 C 0.8227(3) 0.1316(3) 0.49174(11)
H4 H 0.8543 0.0479 0.5172
C6 C 0.6867(2) 0.1371(2) 0.47307(9)
H5 H 0.6267 0.0587 0.4862
C7 C 0.7251(2) 0.3564(2) 0.18070(9)
C8 C 0.8006(2) 0.4220(2) 0.23183(10)
H6 H 0.7561 0.4642 0.2675
C9 C 0.9413(2) 0.4250(3) 0.23009(13)
H7 H 0.9913 0.4677 0.2648
C10 C 1.0072(3) 0.3658(3) 0.17772(15)
H8 H 1.1022 0.3657 0.1772
C11 C 0.9346(3) 0.3063(3) 0.12588(14)
H9 H 0.9799 0.2702 0.0893
C12 C 0.7937(2) 0.2998(3) 0.12762(11)
H10 H 0.7448 0.2568 0.0926
C13 C 0.31484(19) 0.5292(2) 0.29034(10)
H11 H 0.2421 0.5995 0.2874
C14 C 0.34318(18) 0.4593(2) 0.35039(9)
C15 C 0.45344(17) 0.3554(2) 0.35417(8)
C16 C 0.52799(18) 0.3271(2) 0.29890(8)
H12 H 0.6027 0.2596 0.3020
C17 C 0.49655(18) 0.3947(2) 0.23909(8)
C18 C 0.3880(2) 0.5005(2) 0.23517(9)
C19 C 0.4934(2) 0.2716(2) 0.41578(9)
C20 C 0.5738(2) 0.3484(2) 0.18093(9)
C21 C 0.2571(2) 0.4999(3) 0.40768(11)
H13 H 0.2024 0.4104 0.4190
H14 H 0.1986 0.5871 0.3966
H15 H 0.3151 0.5281 0.4441
C22 C 0.3527(3) 0.5875(3) 0.17244(11)
H16 H 0.4325 0.6400 0.1569
H17 H 0.2826 0.6638 0.1805
H18 H 0.3205 0.5136 0.1402
O1 O 0.40668(16) 0.2097(2) 0.44949(8)
O2 O 0.51280(18) 0.3001(3) 0.13217(7)
loop_
_geom_bond_atom_site_label_1
_geom_bond_atom_site_label_2
_geom_bond_site_symmetry_1
_geom_bond_site_symmetry_2
C1 C2 1_555 1_555
C2 H1 1_555 1_555
C3 C2 1_555 1_555
H2 C3 1_555 1_555
C4 C3 1_555 1_555
H3 C4 1_555 1_555
C5 C4 1_555 1_555
H4 C5 1_555 1_555
C6 C1 1_555 1_555
H5 C6 1_555 1_555
C7 C8 1_555 1_555
C8 H6 1_555 1_555
C9 C8 1_555 1_555
H7 C9 1_555 1_555
C10 C9 1_555 1_555
H8 C10 1_555 1_555
C11 C10 1_555 1_555
H9 C11 1_555 1_555
C12 C7 1_555 1_555
H10 C12 1_555 1_555
C13 H11 1_555 1_555
C14 C13 1_555 1_555
C15 C14 1_555 1_555
C16 C15 1_555 1_555
H12 C16 1_555 1_555
C17 C16 1_555 1_555
C18 C13 1_555 1_555
C19 C1 1_555 1_555
C20 C7 1_555 1_555
C21 C14 1_555 1_555
H13 C21 1_555 1_555
H14 C21 1_555 1_555
H15 C21 1_555 1_555
C22 C18 1_555 1_555
H16 C22 1_555 1_555
H17 C22 1_555 1_555
H18 C22 1_555 1_555
O1 C19 1_555 1_555
O2 C20 1_555 1_555
C5 C6 1_555 1_555
C11 C12 1_555 1_555
C15 C19 1_555 1_555
C17 C18 1_555 1_555
C17 C20 1_555 1_555

#END
