
#######################################################################
#
#                 Cambridge Crystallographic Data Centre
#                                CCDC 
#
#######################################################################
#
# If this CIF has been generated from an entry in the Cambridge 
# Structural Database, then it will include bibliographic, chemical, 
# crystal, experimental, refinement or atomic coordinate data resulting 
# from the CCDC's data processing and validation procedures.
#
#######################################################################

data_FONYUE01
_chemical_formula_moiety         'C42 H46 S8'
_chemical_name_systematic        
2,2'-(indeno[1,2-b]fluorene-6,12-diylidene)bis[4,5-bis(butylsulfanyl)-2H-1,3-dithiole]
_symmetry_cell_setting           triclinic
_symmetry_space_group_name_H-M   'P -1'
_symmetry_Int_Tables_number      2
_space_group_name_Hall           '-P 1'
loop_
_symmetry_equiv_pos_site_id
_symmetry_equiv_pos_as_xyz
1 x,y,z
2 -x,-y,-z
_cell_length_a                   5.357(4)
_cell_length_b                   13.520(10)
_cell_length_c                   14.010(10)
_cell_angle_alpha                102.979(18)
_cell_angle_beta                 94.587(18)
_cell_angle_gamma                90.165(13)
_cell_volume                     985.38
_exptl_crystal_colour            red
_exptl_crystal_description       plate
_cell_formula_units_Z            1
_exptl_crystal_recrystallization_method dichloromethane/methanol
loop_
_atom_site_label
_atom_site_type_symbol
_atom_site_fract_x
_atom_site_fract_y
_atom_site_fract_z
S1 S 0.01896(16) 0.90683(7) 0.39936(6)
S2 S 0.48872(16) 0.77269(7) 0.46323(6)
S3 S 0.28512(15) 0.60126(7) 0.29292(6)
S4 S -0.11590(15) 0.72732(7) 0.23532(6)
C1 C 0.5831(11) 1.0080(4) 0.1357(4)
H1 H 0.4347 1.0049 0.0918
H2 H 0.6627 0.9433 0.1230
H3 H 0.6962 1.0592 0.1256
C2 C 0.5131(8) 1.0342(3) 0.2412(3)
H4 H 0.4450 1.1018 0.2551
H5 H 0.6630 1.0349 0.2850
C3 C 0.3222(7) 0.9595(3) 0.2616(3)
H6 H 0.1661 0.9638 0.2227
H7 H 0.3828 0.8911 0.2417
C4 C 0.2741(7) 0.9808(3) 0.3694(3)
H8 H 0.2381 1.0523 0.3909
H9 H 0.4263 0.9681 0.4067
C5 C 1.2350(8) 0.6642(4) 0.6735(3)
H10 H 1.3354 0.7159 0.6569
H11 H 1.3399 0.6097 0.6846
H12 H 1.1544 0.6924 0.7320
C6 C 1.0369(7) 0.6237(3) 0.5891(3)
H13 H 1.1194 0.5929 0.5308
H14 H 0.9366 0.5713 0.6061
C7 C 0.8677(6) 0.7054(3) 0.5663(3)
H15 H 0.9683 0.7584 0.5504
H16 H 0.7827 0.7353 0.6242
C8 C 0.6726(6) 0.6648(3) 0.4805(3)
H17 H 0.5667 0.6130 0.4956
H18 H 0.7538 0.6355 0.4215
C9 C 0.0819(6) 0.7822(3) 0.3394(2)
C10 C 0.2685(6) 0.7242(3) 0.3654(2)
C11 C 0.0140(6) 0.6066(2) 0.2140(2)
C12 C -0.0801(6) 0.5255(2) 0.1428(2)
C13 C 0.0154(6) 0.4211(2) 0.1215(2)
C14 C 0.2222(6) 0.3762(3) 0.1603(2)
H19 H 0.3337 0.4149 0.2087
C15 C 0.2602(6) 0.2726(3) 0.1260(3)
H20 H 0.3983 0.2429 0.1518
C16 C 0.0970(6) 0.2136(3) 0.0545(3)
H21 H 0.1232 0.1444 0.0339
C17 C -0.1065(6) 0.2574(3) 0.0131(3)
H22 H -0.2149 0.2179 -0.0360
C18 C -0.1468(6) 0.3605(3) 0.0458(2)
C19 C -0.3412(6) 0.4245(2) 0.0150(2)
C20 C -0.5348(6) 0.3991(2) -0.0579(2)
H23 H -0.5552 0.3332 -0.0956
C21 C -0.6998(6) 0.4752(2) -0.0736(2)
S1A S -1.01896(16) 0.09317(7) -0.39936(6)
S2A S -1.48872(16) 0.22731(7) -0.46323(6)
S3A S -1.28512(15) 0.39874(7) -0.29292(6)
S4A S -0.88410(15) 0.27268(7) -0.23532(6)
C1A C -1.5831(11) -0.0080(4) -0.1357(4)
H1A H -1.4347 -0.0049 -0.0918
H2A H -1.6627 0.0567 -0.1230
H3A H -1.6962 -0.0592 -0.1256
C2A C -1.5131(8) -0.0342(3) -0.2412(3)
H4A H -1.4450 -0.1018 -0.2551
H5A H -1.6630 -0.0349 -0.2850
C3A C -1.3222(7) 0.0405(3) -0.2616(3)
H6A H -1.1661 0.0362 -0.2227
H7A H -1.3828 0.1089 -0.2417
C4A C -1.2741(7) 0.0192(3) -0.3694(3)
H8A H -1.2381 -0.0523 -0.3909
H9A H -1.4263 0.0319 -0.4067
C5A C -2.2350(8) 0.3358(4) -0.6735(3)
H10A H -2.3354 0.2841 -0.6569
H11A H -2.3399 0.3903 -0.6846
H12A H -2.1544 0.3076 -0.7320
C6A C -2.0369(7) 0.3763(3) -0.5891(3)
H13A H -2.1194 0.4071 -0.5308
H14A H -1.9366 0.4287 -0.6061
C7A C -1.8677(6) 0.2946(3) -0.5663(3)
H15A H -1.9683 0.2416 -0.5504
H16A H -1.7827 0.2647 -0.6242
C8A C -1.6726(6) 0.3352(3) -0.4805(3)
H17A H -1.5667 0.3870 -0.4956
H18A H -1.7538 0.3645 -0.4215
C9A C -1.0819(6) 0.2178(3) -0.3394(2)
C10A C -1.2685(6) 0.2758(3) -0.3654(2)
C11A C -1.0140(6) 0.3934(2) -0.2140(2)
C12A C -0.9199(6) 0.4745(2) -0.1428(2)
C13A C -1.0154(6) 0.5789(2) -0.1215(2)
C14A C -1.2222(6) 0.6238(3) -0.1603(2)
H19A H -1.3337 0.5851 -0.2087
C15A C -1.2602(6) 0.7274(3) -0.1260(3)
H20A H -1.3983 0.7571 -0.1518
C16A C -1.0970(6) 0.7864(3) -0.0545(3)
H21A H -1.1232 0.8556 -0.0339
C17A C -0.8935(6) 0.7426(3) -0.0131(3)
H22A H -0.7851 0.7821 0.0360
C18A C -0.8532(6) 0.6395(3) -0.0458(2)
C19A C -0.6588(6) 0.5755(2) -0.0150(2)
C20A C -0.4652(6) 0.6009(2) 0.0579(2)
H23A H -0.4448 0.6668 0.0956
C21A C -0.3002(6) 0.5248(2) 0.0736(2)
loop_
_geom_bond_atom_site_label_1
_geom_bond_atom_site_label_2
_geom_bond_site_symmetry_1
_geom_bond_site_symmetry_2
S1 C4 1_555 1_555
S2 C8 1_555 1_555
S3 C10 1_555 1_555
S4 C9 1_555 1_555
C1 H1 1_555 1_555
H2 C1 1_555 1_555
H3 C1 1_555 1_555
C2 C1 1_555 1_555
H4 C2 1_555 1_555
H5 C2 1_555 1_555
C3 C2 1_555 1_555
H6 C3 1_555 1_555
H7 C3 1_555 1_555
C4 C3 1_555 1_555
H8 C4 1_555 1_555
H9 C4 1_555 1_555
C5 H10 1_555 1_555
H11 C5 1_555 1_555
H12 C5 1_555 1_555
C6 C5 1_555 1_555
H13 C6 1_555 1_555
H14 C6 1_555 1_555
C7 C6 1_555 1_555
H15 C7 1_555 1_555
H16 C7 1_555 1_555
C8 C7 1_555 1_555
H17 C8 1_555 1_555
H18 C8 1_555 1_555
C9 S1 1_555 1_555
C10 S2 1_555 1_555
C11 S3 1_555 1_555
C12 C11 1_555 1_555
C13 C12 1_555 1_555
C14 C13 1_555 1_555
H19 C14 1_555 1_555
C15 C14 1_555 1_555
H20 C15 1_555 1_555
C16 C15 1_555 1_555
H21 C16 1_555 1_555
C17 C16 1_555 1_555
H22 C17 1_555 1_555
C18 C13 1_555 1_555
C19 C18 1_555 1_555
C20 C19 1_555 1_555
H23 C20 1_555 1_555
C21 C20 1_555 1_555
S1A C4A 1_555 1_555
S2A C8A 1_555 1_555
S3A C10A 1_555 1_555
S4A C9A 1_555 1_555
C1A H1A 1_555 1_555
H2A C1A 1_555 1_555
H3A C1A 1_555 1_555
C2A C1A 1_555 1_555
H4A C2A 1_555 1_555
H5A C2A 1_555 1_555
C3A C2A 1_555 1_555
H6A C3A 1_555 1_555
H7A C3A 1_555 1_555
C4A C3A 1_555 1_555
H8A C4A 1_555 1_555
H9A C4A 1_555 1_555
C5A H10A 1_555 1_555
H11A C5A 1_555 1_555
H12A C5A 1_555 1_555
C6A C5A 1_555 1_555
H13A C6A 1_555 1_555
H14A C6A 1_555 1_555
C7A C6A 1_555 1_555
H15A C7A 1_555 1_555
H16A C7A 1_555 1_555
C8A C7A 1_555 1_555
H17A C8A 1_555 1_555
H18A C8A 1_555 1_555
C9A S1A 1_555 1_555
C10A S2A 1_555 1_555
C11A S3A 1_555 1_555
C12A C21 1_555 1_555
C13A C12A 1_555 1_555
C14A C13A 1_555 1_555
H19A C14A 1_555 1_555
C15A C14A 1_555 1_555
H20A C15A 1_555 1_555
C16A C15A 1_555 1_555
H21A C16A 1_555 1_555
C17A C16A 1_555 1_555
H22A C17A 1_555 1_555
C18A C13A 1_555 1_555
C19A C21 1_555 1_555
C20A C19A 1_555 1_555
H23A C20A 1_555 1_555
C21A C12 1_555 1_555
S4 C11 1_555 1_555
C9 C10 1_555 1_555
C17 C18 1_555 1_555
C19 C21A 1_555 1_555
S4A C11A 1_555 1_555
C9A C10A 1_555 1_555
C11A C12A 1_555 1_555
C17A C18A 1_555 1_555
C18A C19A 1_555 1_555
C20A C21A 1_555 1_555

#END
