
#######################################################################
#
#                 Cambridge Crystallographic Data Centre
#                                CCDC 
#
#######################################################################
#
# If this CIF has been generated from an entry in the Cambridge 
# Structural Database, then it will include bibliographic, chemical, 
# crystal, experimental, refinement or atomic coordinate data resulting 
# from the CCDC's data processing and validation procedures.
#
#######################################################################

data_FONZOZ
_chemical_formula_moiety         'C16 H13 F1 N2'
_chemical_name_systematic        
3-(Benzylamino)-2-(4-fluorophenyl)acrylonitrile
_symmetry_cell_setting           monoclinic
_symmetry_space_group_name_H-M   'P 21/n'
_symmetry_Int_Tables_number      14
_space_group_name_Hall           '-P 2yn'
loop_
_symmetry_equiv_pos_site_id
_symmetry_equiv_pos_as_xyz
1 x,y,z
2 1/2-x,1/2+y,1/2-z
3 -x,-y,-z
4 1/2+x,1/2-y,1/2+z
_cell_length_a                   5.8434(17)
_cell_length_b                   10.203(3)
_cell_length_c                   22.194(6)
_cell_angle_alpha                90
_cell_angle_beta                 94.840(5)
_cell_angle_gamma                90
_cell_volume                     1318.49
_cell_formula_units_Z            4
loop_
_atom_site_label
_atom_site_type_symbol
_atom_site_fract_x
_atom_site_fract_y
_atom_site_fract_z
F1 F 0.46116(16) 0.68410(11) 0.66091(4)
N1 N 0.5869(2) 1.11566(11) 0.95256(5)
H1 H 0.7126 1.1003 0.9745
C1 C 0.6242(2) 0.89017(12) 0.81904(5)
C2 C 0.4240(2) 1.34132(13) 0.94079(6)
C3 C 0.6813(2) 0.95929(12) 0.87689(5)
C4 C 0.8934(2) 0.92848(13) 0.91027(6)
C5 C 0.5451(2) 1.05085(12) 0.90071(6)
H2 H 0.4076 1.0702 0.8783
N2 N 1.0612(2) 0.90525(14) 0.93875(6)
C6 C 0.3629(3) 0.84171(16) 0.73126(7)
H3 H 0.2244 0.8563 0.7084
C7 C 0.4162(2) 0.90982(15) 0.78442(7)
H4 H 0.3114 0.9700 0.7974
C8 C 0.7226(3) 0.73065(16) 0.74470(7)
H5 H 0.8254 0.6700 0.7312
C9 C 0.7755(2) 0.80024(15) 0.79757(6)
H6 H 0.9166 0.7863 0.8193
C10 C 0.5958(3) 1.38014(15) 0.90558(7)
H7 H 0.7192 1.3245 0.9009
C11 C 0.2427(3) 1.42611(15) 0.94691(7)
H8 H 0.1249 1.4016 0.9703
C12 C 0.4275(3) 1.21118(14) 0.97324(6)
H9 H 0.4658 1.2266 1.0160
H10 H 0.2741 1.1741 0.9686
C13 C 0.5161(3) 0.75301(15) 0.71283(6)
C14 C 0.2351(3) 1.54672(17) 0.91866(9)
H11 H 0.1128 1.6031 0.9234
C15 C 0.5862(3) 1.50074(17) 0.87730(8)
H12 H 0.7027 1.5259 0.8537
C16 C 0.4048(4) 1.58374(17) 0.88402(9)
H13 H 0.3982 1.6649 0.8649
loop_
_geom_bond_atom_site_label_1
_geom_bond_atom_site_label_2
_geom_bond_site_symmetry_1
_geom_bond_site_symmetry_2
F1 C13 1_555 1_555
N1 H1 1_555 1_555
C1 C3 1_555 1_555
C2 C10 1_555 1_555
C3 C4 1_555 1_555
C4 N2 1_555 1_555
C5 N1 1_555 1_555
H2 C5 1_555 1_555
C6 H3 1_555 1_555
C7 C1 1_555 1_555
H4 C7 1_555 1_555
C8 H5 1_555 1_555
C9 C1 1_555 1_555
H6 C9 1_555 1_555
C10 H7 1_555 1_555
C11 C2 1_555 1_555
H8 C11 1_555 1_555
C12 N1 1_555 1_555
H9 C12 1_555 1_555
H10 C12 1_555 1_555
C13 C6 1_555 1_555
C14 C11 1_555 1_555
H11 C14 1_555 1_555
C15 C10 1_555 1_555
H12 C15 1_555 1_555
C16 C14 1_555 1_555
H13 C16 1_555 1_555
C2 C12 1_555 1_555
C3 C5 1_555 1_555
C6 C7 1_555 1_555
C8 C9 1_555 1_555
C8 C13 1_555 1_555
C15 C16 1_555 1_555

#END
