
#######################################################################
#
#                 Cambridge Crystallographic Data Centre
#                                CCDC 
#
#######################################################################
#
# If this CIF has been generated from an entry in the Cambridge 
# Structural Database, then it will include bibliographic, chemical, 
# crystal, experimental, refinement or atomic coordinate data resulting 
# from the CCDC's data processing and validation procedures.
#
#######################################################################

data_FOSGEB
_chemical_formula_moiety         'C25 H24 N2'
_chemical_name_systematic        
5-(4-(t-Butyl)phenyl)-10-methyl-5,10-dihydroindolo[3,2-b]indole
_symmetry_cell_setting           monoclinic
_symmetry_space_group_name_H-M   'P 21/c'
_symmetry_Int_Tables_number      14
_space_group_name_Hall           '-P 2ybc'
loop_
_symmetry_equiv_pos_site_id
_symmetry_equiv_pos_as_xyz
1 x,y,z
2 -x,1/2+y,1/2-z
3 -x,-y,-z
4 x,1/2-y,1/2+z
_cell_length_a                   9.8957(3)
_cell_length_b                   23.4982(7)
_cell_length_c                   8.5844(3)
_cell_angle_alpha                90
_cell_angle_beta                 103.811(2)
_cell_angle_gamma                90
_cell_volume                     1938.43
_exptl_crystal_colour            colorless
_exptl_crystal_description       block
_cell_formula_units_Z            4
loop_
_atom_site_label
_atom_site_type_symbol
_atom_site_fract_x
_atom_site_fract_y
_atom_site_fract_z
N1 N -0.19372(14) 0.19473(5) 1.20516(15)
C1 C -0.05532(16) 0.18287(6) 1.21211(17)
C2 C -0.04612(16) 0.15133(6) 1.08019(17)
N2 N 0.09126(13) 0.13735(5) 1.08984(13)
C3 C -0.18216(16) 0.14174(8) 0.9832(2)
C4 C -0.27195(17) 0.16959(8) 1.0666(2)
C5 C -0.41544(18) 0.16992(8) 1.0064(2)
H1 H -0.4749 0.1883 1.0628
C6 C -0.46892(19) 0.14280(8) 0.8625(2)
H2 H -0.5668 0.1425 0.8197
C7 C -0.3826(2) 0.11577(8) 0.7783(2)
H3 H -0.4228 0.0978 0.6789
C8 C -0.24060(17) 0.11470(8) 0.83673(19)
H4 H -0.1829 0.0960 0.7789
C9 C 0.08090(16) 0.19023(6) 1.31296(17)
C10 C 0.16986(17) 0.16069(6) 1.23223(16)
C11 C 0.31305(17) 0.15902(7) 1.29303(18)
H5 H 0.3717 0.1394 1.2381
C12 C 0.36749(19) 0.18689(8) 1.4363(2)
H6 H 0.4652 0.1863 1.4803
C13 C 0.2818(2) 0.21599(8) 1.5178(2)
H7 H 0.3221 0.2346 1.6163
C14 C 0.14029(19) 0.21810(7) 1.45775(18)
H8 H 0.0831 0.2382 1.5136
C15 C -0.2485(2) 0.22296(8) 1.3267(2)
H9 H -0.2982 0.1953 1.3779
H10 H -0.3127 0.2532 1.2770
H11 H -0.1717 0.2396 1.4077
C16 C 0.14038(15) 0.10229(6) 0.97965(16)
C17 C 0.12844(17) 0.12000(6) 0.82382(17)
H12 H 0.0912 0.1565 0.7908
C18 C 0.1708(2) 0.08451(7) 0.7149(2)
H13 H 0.1608 0.0971 0.6076
C19 C 0.22713(15) 0.03119(7) 0.75890(18)
C20 C 0.2400(2) 0.01474(7) 0.91773(18)
H14 H 0.2794 -0.0213 0.9522
C21 C 0.1969(2) 0.04956(7) 1.02655(18)
H15 H 0.2064 0.0371 1.1339
C22 C 0.2711(2) -0.00984(9) 0.6417(2)
C23 C 0.1667(3) -0.05924(12) 0.6066(4)
H16 H 0.1622 -0.0778 0.7075
H17 H 0.1968 -0.0869 0.5364
H18 H 0.0745 -0.0446 0.5536
C24 C 0.2744(3) 0.01923(12) 0.4832(2)
H19 H 0.1807 0.0325 0.4306
H20 H 0.3064 -0.0079 0.4132
H21 H 0.3381 0.0518 0.5043
C25 C 0.4160(2) -0.03362(9) 0.7166(2)
H22 H 0.4823 -0.0021 0.7447
H23 H 0.4451 -0.0588 0.6396
H24 H 0.4133 -0.0552 0.8136
N3? N -0.0675(15) 0.1997(7) 1.3432(16)
C26? C -0.1176(15) 0.1791(13) 1.189(2)
C27? C -0.0092(16) 0.1547(13) 1.139(2)
N4? N -0.0523(15) 0.1301(8) 0.9890(18)
C28? C 0.1172(15) 0.1706(10) 1.250(2)
C29? C 0.0768(15) 0.1982(10) 1.375(2)
C30? C 0.177(2) 0.2164(13) 1.508(2)
H25? H 0.1490 0.2353 1.5934
C31? C 0.3169(19) 0.2071(16) 1.517(3)
H26? H 0.3852 0.2196 1.6080
C32? C 0.3574(14) 0.1795(16) 1.392(3)
H27? H 0.4533 0.1731 1.3981
C33? C 0.2575(16) 0.1612(13) 1.259(3)
H28? H 0.2852 0.1423 1.1735
C34? C -0.2416(15) 0.1631(16) 1.072(3)
C35? C -0.1971(15) 0.1332(16) 0.953(3)
C36? C -0.294(2) 0.1133(14) 0.819(3)
H29? H -0.2631 0.0929 0.7384
C37? C -0.4347(18) 0.1232(13) 0.804(3)
H30? H -0.5007 0.1096 0.7119
C38? C -0.4793(14) 0.1530(13) 0.922(3)
H31? H -0.5757 0.1598 0.9112
C39? C -0.3827(16) 0.1730(13) 1.056(3)
H32? H -0.4132 0.1934 1.1369
C40? C -0.156(3) 0.2178(14) 1.446(3)
H33? H -0.0982 0.2344 1.5448
H34? H -0.2066 0.1850 1.4736
H35? H -0.2221 0.2463 1.3904
C41? C 0.032(2) 0.0974(6) 0.9093(19)
C42? C 0.069(3) 0.0423(7) 0.961(2)
H36? H 0.0402 0.0273 1.0510
C43? C 0.147(3) 0.0090(8) 0.881(3)
H37? H 0.1719 -0.0287 0.9168
C44? C 0.189(3) 0.0308(10) 0.750(3)
C45? C 0.152(4) 0.0860(10) 0.698(3)
H38? H 0.1805 0.1009 0.6080
C46? C 0.074(3) 0.1193(7) 0.778(2)
H39? H 0.0489 0.1570 0.7422
C47? C 0.270(3) -0.0067(14) 0.658(3)
C48? C 0.183(6) -0.060(2) 0.601(9)
H40? H 0.1604 -0.0792 0.6933
H41? H 0.2359 -0.0862 0.5490
H42? H 0.0964 -0.0493 0.5243
C49? C 0.299(6) 0.023(3) 0.511(5)
H43? H 0.3541 -0.0016 0.4594
H44? H 0.3498 0.0587 0.5450
H45? H 0.2101 0.0322 0.4356
C50? C 0.408(4) -0.025(2) 0.770(5)
H46? H 0.3897 -0.0452 0.8622
H47? H 0.4651 0.0087 0.8065
H48? H 0.4579 -0.0502 0.7114
loop_
_geom_bond_atom_site_label_1
_geom_bond_atom_site_label_2
_geom_bond_site_symmetry_1
_geom_bond_site_symmetry_2
N1 C1 1_555 1_555
C1 C2 1_555 1_555
C2 N2 1_555 1_555
N2 C10 1_555 1_555
C3 C2 1_555 1_555
C4 N1 1_555 1_555
C5 C4 1_555 1_555
H1 C5 1_555 1_555
C6 C5 1_555 1_555
H2 C6 1_555 1_555
C7 C6 1_555 1_555
H3 C7 1_555 1_555
C8 C3 1_555 1_555
H4 C8 1_555 1_555
C9 C1 1_555 1_555
C10 C9 1_555 1_555
C11 C10 1_555 1_555
H5 C11 1_555 1_555
C12 C11 1_555 1_555
H6 C12 1_555 1_555
C13 C12 1_555 1_555
H7 C13 1_555 1_555
C14 C9 1_555 1_555
H8 C14 1_555 1_555
C15 N1 1_555 1_555
H9 C15 1_555 1_555
H10 C15 1_555 1_555
H11 C15 1_555 1_555
C16 N2 1_555 1_555
C17 C16 1_555 1_555
H12 C17 1_555 1_555
C18 C17 1_555 1_555
H13 C18 1_555 1_555
C19 C18 1_555 1_555
C20 C19 1_555 1_555
H14 C20 1_555 1_555
C21 C16 1_555 1_555
H15 C21 1_555 1_555
C22 C19 1_555 1_555
C23 C22 1_555 1_555
H16 C23 1_555 1_555
H17 C23 1_555 1_555
H18 C23 1_555 1_555
C24 C22 1_555 1_555
H19 C24 1_555 1_555
H20 C24 1_555 1_555
H21 C24 1_555 1_555
C25 C22 1_555 1_555
H22 C25 1_555 1_555
H23 C25 1_555 1_555
H24 C25 1_555 1_555
C3 C4 1_555 1_555
C7 C8 1_555 1_555
C13 C14 1_555 1_555
C20 C21 1_555 1_555

#END
