
#######################################################################
#
#                 Cambridge Crystallographic Data Centre
#                                CCDC 
#
#######################################################################
#
# If this CIF has been generated from an entry in the Cambridge 
# Structural Database, then it will include bibliographic, chemical, 
# crystal, experimental, refinement or atomic coordinate data resulting 
# from the CCDC's data processing and validation procedures.
#
#######################################################################

data_FOSZAQ
_chemical_formula_moiety         'C24 H19 F3 O1'
_chemical_name_systematic        
4-(4-methoxyphenyl)-6-phenyl-3-(trifluoromethyl)-1,2-dihydronaphthalene
_symmetry_cell_setting           triclinic
_symmetry_space_group_name_H-M   'P -1'
_symmetry_Int_Tables_number      2
_space_group_name_Hall           '-P 1'
loop_
_symmetry_equiv_pos_site_id
_symmetry_equiv_pos_as_xyz
1 x,y,z
2 -x,-y,-z
_cell_length_a                   5.3668(8)
_cell_length_b                   9.6287(15)
_cell_length_c                   18.804(3)
_cell_angle_alpha                82.874(3)
_cell_angle_beta                 86.417(4)
_cell_angle_gamma                82.471(4)
_cell_volume                     954.828
_exptl_crystal_colour            colorless
_exptl_crystal_description       prismatic
_cell_formula_units_Z            2
loop_
_atom_site_label
_atom_site_type_symbol
_atom_site_fract_x
_atom_site_fract_y
_atom_site_fract_z
F1 F 0.3630(4) 0.62290(18) 0.31674(9)
F2 F 0.2402(4) 0.60981(19) 0.42683(10)
F3 F 0.6044(3) 0.5232(2) 0.39550(11)
O1 O 0.1594(4) 0.6289(2) 0.03387(9)
C1 C 0.1945(4) 0.3530(2) 0.31767(11)
C2 C 0.2731(4) 0.4002(2) 0.37575(12)
C3 C 0.2697(5) 0.3101(3) 0.44847(13)
H1 H 0.3900 0.3382 0.4786
H2 H 0.1039 0.3252 0.4720
C4 C 0.3351(5) 0.1561(3) 0.43934(13)
H3 H 0.3130 0.0995 0.4852
H4 H 0.5101 0.1383 0.4229
C5 C 0.1692(4) 0.1145(2) 0.38565(11)
C6 C 0.1059(4) 0.2120(2) 0.32548(11)
C7 C -0.0384(4) 0.1734(2) 0.27451(11)
H5 H -0.0780 0.2375 0.2344
C8 C -0.1268(4) 0.0426(2) 0.28063(12)
C9 C -0.0626(5) -0.0511(3) 0.34115(14)
H6 H -0.1189 -0.1394 0.3473
C10 C 0.0828(5) -0.0150(2) 0.39197(13)
H7 H 0.1239 -0.0799 0.4317
C11 C -0.2798(4) 0.0058(2) 0.22421(12)
C12 C -0.2510(5) 0.0630(3) 0.15351(13)
H8 H -0.1302 0.1237 0.1408
C13 C -0.3969(6) 0.0321(3) 0.10159(15)
H9 H -0.3760 0.0733 0.0545
C14 C -0.5731(5) -0.0590(3) 0.11873(18)
H10 H -0.6720 -0.0799 0.0836
C15 C -0.6020(5) -0.1189(3) 0.18812(17)
H11 H -0.7193 -0.1820 0.2001
C16 C -0.4589(5) -0.0862(3) 0.24004(15)
H12 H -0.4825 -0.1268 0.2871
C17 C 0.1841(4) 0.4342(2) 0.24408(11)
C18 C -0.0122(4) 0.5359(2) 0.22461(12)
H13 H -0.1380 0.5598 0.2588
C19 C -0.0271(4) 0.6034(2) 0.15537(12)
H14 H -0.1613 0.6722 0.1435
C20 C 0.1564(4) 0.5687(2) 0.10424(11)
C21 C 0.3533(4) 0.4674(3) 0.12264(13)
H15 H 0.4794 0.4439 0.0884
C22 C 0.3650(4) 0.4005(3) 0.19141(12)
H16 H 0.4981 0.3308 0.2028
C23 C -0.0620(6) 0.7131(3) 0.00983(16)
H17 H -0.2039 0.6622 0.0222
H18 H -0.0471 0.7359 -0.0413
H19 H -0.0853 0.7985 0.0322
C24 C 0.3624(5) 0.5380(3) 0.37762(13)
loop_
_geom_bond_atom_site_label_1
_geom_bond_atom_site_label_2
_geom_bond_site_symmetry_1
_geom_bond_site_symmetry_2
F1 C24 1_555 1_555
F2 C24 1_555 1_555
F3 C24 1_555 1_555
O1 C20 1_555 1_555
C1 C2 1_555 1_555
C2 C3 1_555 1_555
C3 H1 1_555 1_555
H2 C3 1_555 1_555
C4 C3 1_555 1_555
H3 C4 1_555 1_555
H4 C4 1_555 1_555
C5 C4 1_555 1_555
C6 C1 1_555 1_555
C7 C6 1_555 1_555
H5 C7 1_555 1_555
C8 C7 1_555 1_555
C9 C8 1_555 1_555
H6 C9 1_555 1_555
C10 C5 1_555 1_555
H7 C10 1_555 1_555
C11 C8 1_555 1_555
C12 C11 1_555 1_555
H8 C12 1_555 1_555
C13 C12 1_555 1_555
H9 C13 1_555 1_555
C14 C13 1_555 1_555
H10 C14 1_555 1_555
C15 C14 1_555 1_555
H11 C15 1_555 1_555
C16 C11 1_555 1_555
H12 C16 1_555 1_555
C17 C1 1_555 1_555
C18 C17 1_555 1_555
H13 C18 1_555 1_555
C19 C18 1_555 1_555
H14 C19 1_555 1_555
C20 C19 1_555 1_555
C21 C20 1_555 1_555
H15 C21 1_555 1_555
C22 C17 1_555 1_555
H16 C22 1_555 1_555
C23 O1 1_555 1_555
H17 C23 1_555 1_555
H18 C23 1_555 1_555
H19 C23 1_555 1_555
C24 C2 1_555 1_555
C5 C6 1_555 1_555
C9 C10 1_555 1_555
C15 C16 1_555 1_555
C21 C22 1_555 1_555

#END
