
#######################################################################
#
#                 Cambridge Crystallographic Data Centre
#                                CCDC 
#
#######################################################################
#
# If this CIF has been generated from an entry in the Cambridge 
# Structural Database, then it will include bibliographic, chemical, 
# crystal, experimental, refinement or atomic coordinate data resulting 
# from the CCDC's data processing and validation procedures.
#
#######################################################################

data_FOVBAV
_chemical_formula_moiety         'C19 H18 Cl1 N2 O2 S1 1+,C1 F3 O3 S1 1-'
_chemical_name_systematic        
'1-((4-Chlorophenyl)((4-methylphenyl)sulfonyl)amino)-2-methylpyridinium trifluoromethanesulfonate'
_symmetry_cell_setting           triclinic
_symmetry_space_group_name_H-M   'P -1'
_symmetry_Int_Tables_number      2
_space_group_name_Hall           '-P 1'
loop_
_symmetry_equiv_pos_site_id
_symmetry_equiv_pos_as_xyz
1 x,y,z
2 -x,-y,-z
_cell_length_a                   8.6089(17)
_cell_length_b                   8.8898(18)
_cell_length_c                   15.632(3)
_cell_angle_alpha                98.35(3)
_cell_angle_beta                 96.13(3)
_cell_angle_gamma                104.16(3)
_cell_volume                     1135
_exptl_crystal_colour            colorless
_exptl_crystal_description       block
_cell_formula_units_Z            2
loop_
_atom_site_label
_atom_site_type_symbol
_atom_site_fract_x
_atom_site_fract_y
_atom_site_fract_z
S1 S 0.49457(10) 0.51261(10) 0.13348(6)
O1 O 0.5989(3) 0.4473(3) 0.08250(17)
O2 O 0.5083(3) 0.6771(3) 0.15134(18)
N1 N 0.5379(4) 0.4668(3) 0.23326(19)
N2 N 0.5832(3) 0.3251(3) 0.23204(19)
Cl1 Cl 0.3174(3) 0.7448(2) 0.55108(8)
C1 C 0.2582(4) 0.2778(4) 0.0294(2)
H1 H 0.3432 0.2375 0.0098
C2 C 0.0978(5) 0.2023(4) -0.0048(2)
H2 H 0.0731 0.1098 -0.0482
C3 C 0.2926(4) 0.4129(4) 0.0925(2)
C4 C 0.1699(4) 0.4752(4) 0.1215(2)
H3 H 0.1947 0.5682 0.1645
C5 C -0.0276(4) 0.2611(4) 0.0240(2)
C6 C 0.0121(4) 0.3985(5) 0.0864(2)
H4 H -0.0724 0.4406 0.1052
C7 C -0.2005(5) 0.1791(5) -0.0133(3)
H5 H -0.2718 0.2364 0.0138
H6 H -0.2266 0.0712 -0.0014
H7 H -0.2161 0.1762 -0.0766
C8 C 0.4685(4) 0.1860(4) 0.2081(2)
H8 H 0.3577 0.1850 0.1964
C9 C 0.7442(4) 0.3353(4) 0.2513(2)
C10 C 0.7888(5) 0.1957(5) 0.2414(3)
H9 H 0.9002 0.1980 0.2525
C11 C 0.5116(5) 0.0468(4) 0.2006(3)
H10 H 0.4317 -0.0514 0.1855
C12 C 0.6743(5) 0.0526(5) 0.2157(3)
H11 H 0.7074 -0.0423 0.2083
C13 C 0.8601(5) 0.4931(5) 0.2848(3)
H12 H 0.8012 0.5746 0.2865
H13 H 0.9422 0.5131 0.2460
H14 H 0.9129 0.4950 0.3438
C14 C 0.4799(5) 0.5304(5) 0.3105(2)
C15 C 0.3798(7) 0.6618(7) 0.4574(3)
C16 C 0.3600(5) 0.4381(5) 0.3473(3)
H15 H 0.3121 0.3306 0.3218
C17 C 0.5517(6) 0.6878(5) 0.3469(3)
H16 H 0.6353 0.7490 0.3215
C18 C 0.4994(7) 0.7542(6) 0.4209(3)
H17 H 0.5454 0.8620 0.4461
C19 C 0.3110(7) 0.5055(7) 0.4223(3)
H18 H 0.2302 0.4437 0.4490
S2 S 0.07140(11) 0.91578(11) 0.25947(7)
O3 O 0.1144(4) 1.0636(4) 0.2297(2)
O4 O -0.0967(4) 0.8346(4) 0.2350(3)
O5 O 0.1789(4) 0.8180(4) 0.2469(3)
C20 C 0.0900(9) 0.9692(8) 0.3750(4)
F1 F 0.2393(7) 1.0444(6) 0.4098(3)
F2 F -0.0034(8) 1.0616(7) 0.3970(3)
F3 F 0.0497(7) 0.8415(6) 0.4129(3)
loop_
_geom_bond_atom_site_label_1
_geom_bond_atom_site_label_2
_geom_bond_site_symmetry_1
_geom_bond_site_symmetry_2
S1 O1 1_555 1_555
O2 S1 1_555 1_555
N1 S1 1_555 1_555
N2 N1 1_555 1_555
Cl1 C15 1_555 1_555
C1 H1 1_555 1_555
C2 C1 1_555 1_555
H2 C2 1_555 1_555
C3 S1 1_555 1_555
C4 C3 1_555 1_555
H3 C4 1_555 1_555
C5 C2 1_555 1_555
C6 C4 1_555 1_555
H4 C6 1_555 1_555
C7 C5 1_555 1_555
H5 C7 1_555 1_555
H6 C7 1_555 1_555
H7 C7 1_555 1_555
C8 N2 1_555 1_555
H8 C8 1_555 1_555
C9 N2 1_555 1_555
C10 C9 1_555 1_555
H9 C10 1_555 1_555
C11 C8 1_555 1_555
H10 C11 1_555 1_555
C12 C10 1_555 1_555
H11 C12 1_555 1_555
C13 C9 1_555 1_555
H12 C13 1_555 1_555
H13 C13 1_555 1_555
H14 C13 1_555 1_555
C14 N1 1_555 1_555
C15 C18 1_555 1_555
C16 C14 1_555 1_555
H15 C16 1_555 1_555
C17 C14 1_555 1_555
H16 C17 1_555 1_555
C18 C17 1_555 1_555
H17 C18 1_555 1_555
C19 C15 1_555 1_555
H18 C19 1_555 1_555
S2 O3 1_555 1_555
O4 S2 1_555 1_555
O5 S2 1_555 1_555
C20 S2 1_555 1_555
F1 C20 1_555 1_555
F2 C20 1_555 1_555
F3 C20 1_555 1_555
C1 C3 1_555 1_555
C5 C6 1_555 1_555
C11 C12 1_555 1_555
C16 C19 1_555 1_555

#END
