
#######################################################################
#
#                 Cambridge Crystallographic Data Centre
#                                CCDC 
#
#######################################################################
#
# If this CIF has been generated from an entry in the Cambridge 
# Structural Database, then it will include bibliographic, chemical, 
# crystal, experimental, refinement or atomic coordinate data resulting 
# from the CCDC's data processing and validation procedures.
#
#######################################################################

data_FOVMUZ
_chemical_formula_moiety         '2(C11 H17 Cl1 N1 O1 1+),C2 O4 2-'
_chemical_name_systematic        
'bis(N-(2-(2-Chlorophenyl)-2-hydroxyethyl)propan-2-aminium) oxalate'
_symmetry_cell_setting           monoclinic
_symmetry_space_group_name_H-M   'P 21/n'
_symmetry_Int_Tables_number      14
_space_group_name_Hall           '-P 2yn'
loop_
_symmetry_equiv_pos_site_id
_symmetry_equiv_pos_as_xyz
1 x,y,z
2 1/2-x,1/2+y,1/2-z
3 -x,-y,-z
4 1/2+x,1/2-y,1/2+z
_cell_length_a                   6.9951(3)
_cell_length_b                   17.8821(8)
_cell_length_c                   11.2236(6)
_cell_angle_alpha                90
_cell_angle_beta                 110.8377(13)
_cell_angle_gamma                90
_cell_volume                     1312.1
_exptl_crystal_colour            colorless
_exptl_crystal_description       chunk
_cell_formula_units_Z            2
loop_
_atom_site_label
_atom_site_type_symbol
_atom_site_fract_x
_atom_site_fract_y
_atom_site_fract_z
Cl1 Cl 0.23746(9) 0.45230(3) 0.93857(6)
O1 O -0.11289(19) 0.65111(8) 0.75048(13)
N1 N 0.1107(2) 0.60395(9) 0.59068(14)
C1 C 0.0439(2) 0.59654(11) 0.79473(18)
C2 C 0.1458(2) 0.60032(11) 0.93762(18)
C3 C 0.2344(2) 0.53840(12) 1.0113(2)
C4 C 0.3216(3) 0.54182(14) 1.1422(2)
C5 C 0.3270(3) 0.60876(17) 1.2028(2)
C6 C 0.2451(3) 0.67209(14) 1.1332(2)
C7 C 0.1541(3) 0.66749(12) 1.0015(2)
C8 C 0.2025(2) 0.60998(12) 0.73238(19)
C9 C 0.0455(3) 0.67572(12) 0.5169(2)
C10 C 0.2283(4) 0.72303(14) 0.5249(2)
C11 C -0.0786(4) 0.65560(18) 0.3802(2)
H1 H -0.0160 0.5468 0.7708
H2 H 0.3763 0.4991 1.1890
H3 H 0.3860 0.6115 1.2912
H4 H 0.2509 0.7177 1.1743
H5 H 0.0975 0.7102 0.9551
H6 H -0.0414 0.7039 0.5528
H7 H 0.3105 0.5731 0.7640
H8 H 0.2596 0.6597 0.7548
H9 H 0.3196 0.6945 0.4959
H10 H 0.2982 0.7382 0.6116
H11 H 0.1835 0.7665 0.4721
H12 H 0.0052 0.6279 0.3442
H13 H -0.1938 0.6257 0.3779
H14 H -0.1261 0.7005 0.3318
H15 H -0.2198 0.6315 0.7042
H16 H 0.0045 0.5758 0.5726
H17 H 0.1996 0.5829 0.5649
O2 O 0.7592(2) 0.51348(8) 0.52819(14)
O3 O 0.5489(2) 0.57840(8) 0.59837(14)
C12 C 0.5890(2) 0.52673(10) 0.53649(18)
O2B O 0.2408(2) 0.48652(8) 0.47181(14)
O3B O 0.4511(2) 0.42160(8) 0.40163(14)
C12B C 0.4110(2) 0.47327(10) 0.46351(18)
loop_
_geom_bond_atom_site_label_1
_geom_bond_atom_site_label_2
_geom_bond_site_symmetry_1
_geom_bond_site_symmetry_2
Cl1 C3 1_555 1_555
O1 C1 1_555 1_555
O2 C12 1_555 1_555
O3 C12 1_555 1_555
N1 C8 1_555 1_555
C1 C2 1_555 1_555
C2 C3 1_555 1_555
C3 C4 1_555 1_555
C4 C5 1_555 1_555
C5 C6 1_555 1_555
C6 C7 1_555 1_555
C7 C2 1_555 1_555
C8 C1 1_555 1_555
C9 N1 1_555 1_555
C10 C9 1_555 1_555
C11 C9 1_555 1_555
C12 C12B 1_555 1_555
H1 C1 1_555 1_555
H2 C4 1_555 1_555
H3 C5 1_555 1_555
H4 C6 1_555 1_555
H5 C7 1_555 1_555
H6 C9 1_555 1_555
H7 C8 1_555 1_555
H8 C8 1_555 1_555
H9 C10 1_555 1_555
H10 C10 1_555 1_555
H11 C10 1_555 1_555
H12 C11 1_555 1_555
H13 C11 1_555 1_555
H14 C11 1_555 1_555
H15 O1 1_555 1_555
H16 N1 1_555 1_555
H17 N1 1_555 1_555
O2B C12B 1_555 1_555
O3B C12B 1_555 1_555

#END
