
#######################################################################
#
#                 Cambridge Crystallographic Data Centre
#                                CCDC 
#
#######################################################################
#
# If this CIF has been generated from an entry in the Cambridge 
# Structural Database, then it will include bibliographic, chemical, 
# crystal, experimental, refinement or atomic coordinate data resulting 
# from the CCDC's data processing and validation procedures.
#
#######################################################################

data_FOVQOX
_chemical_formula_moiety         'C7 H8 O2'
_chemical_name_systematic        4-(Hydroxymethyl)phenol
_symmetry_cell_setting           orthorhombic
_symmetry_space_group_name_H-M   'P n a 21'
_symmetry_Int_Tables_number      33
_space_group_name_Hall           'P 2c -2n'
loop_
_symmetry_equiv_pos_site_id
_symmetry_equiv_pos_as_xyz
1 x,y,z
2 -x,-y,1/2+z
3 1/2+x,1/2-y,z
4 1/2-x,1/2+y,1/2+z
_cell_length_a                   9.524(3)
_cell_length_b                   11.006(4)
_cell_length_c                   5.942(2)
_cell_angle_alpha                90
_cell_angle_beta                 90
_cell_angle_gamma                90
_cell_volume                     622.847
_exptl_crystal_colour            colorless
_exptl_crystal_description       block
_cell_formula_units_Z            4
_exptl_crystal_recrystallization_method 'ethyl acetate'
loop_
_atom_site_label
_atom_site_type_symbol
_atom_site_fract_x
_atom_site_fract_y
_atom_site_fract_z
O1 O 0.65915(14) 0.47478(11) 0.5585(2)
H1 H 0.6206 0.5344 0.5036
O2 O 0.99603(14) 0.15137(10) -0.1224(3)
H2 H 1.0542 0.1183 -0.2037
C1 C 1.05125(18) 0.26412(15) -0.0417(3)
H3 H 1.0696 0.3180 -0.1675
H4 H 1.1391 0.2500 0.0366
C2 C 0.94754(17) 0.32168(14) 0.1149(3)
C3 C 0.87551(17) 0.42678(14) 0.0552(3)
H5 H 0.8929 0.4626 -0.0838
C4 C 0.77818(18) 0.47925(15) 0.1993(3)
H6 H 0.7304 0.5492 0.1563
C5 C 0.75251(16) 0.42727(13) 0.4065(3)
C6 C 0.82324(18) 0.32200(15) 0.4694(3)
H7 H 0.8058 0.2864 0.6086
C7 C 0.91947(18) 0.27084(15) 0.3239(3)
H8 H 0.9666 0.2006 0.3668
loop_
_geom_bond_atom_site_label_1
_geom_bond_atom_site_label_2
_geom_bond_site_symmetry_1
_geom_bond_site_symmetry_2
O1 H1 1_555 1_555
O2 H2 1_555 1_555
C1 O2 1_555 1_555
H3 C1 1_555 1_555
H4 C1 1_555 1_555
C2 C1 1_555 1_555
C3 C2 1_555 1_555
H5 C3 1_555 1_555
C4 C3 1_555 1_555
H6 C4 1_555 1_555
C5 O1 1_555 1_555
C6 C5 1_555 1_555
H7 C6 1_555 1_555
C7 C2 1_555 1_555
H8 C7 1_555 1_555
C4 C5 1_555 1_555
C6 C7 1_555 1_555

#END
