
#######################################################################
#
#                 Cambridge Crystallographic Data Centre
#                                CCDC 
#
#######################################################################
#
# If this CIF has been generated from an entry in the Cambridge 
# Structural Database, then it will include bibliographic, chemical, 
# crystal, experimental, refinement or atomic coordinate data resulting 
# from the CCDC's data processing and validation procedures.
#
#######################################################################

data_FOVTUG
_chemical_formula_moiety         'C17 H26 O1'
_chemical_name_systematic        4-(4-Pentylcyclohexyl)phenol
_symmetry_cell_setting           monoclinic
_symmetry_space_group_name_H-M   'P 21/c'
_symmetry_Int_Tables_number      14
_space_group_name_Hall           '-P 2ybc'
loop_
_symmetry_equiv_pos_site_id
_symmetry_equiv_pos_as_xyz
1 x,y,z
2 -x,1/2+y,1/2-z
3 -x,-y,-z
4 x,1/2-y,1/2+z
_cell_length_a                   21.002(4)
_cell_length_b                   5.3281(11)
_cell_length_c                   13.389(3)
_cell_angle_alpha                90
_cell_angle_beta                 105.87(3)
_cell_angle_gamma                90
_cell_volume                     1441.13
_exptl_crystal_colour            colorless
_exptl_crystal_description       block
_cell_formula_units_Z            4
loop_
_atom_site_label
_atom_site_type_symbol
_atom_site_fract_x
_atom_site_fract_y
_atom_site_fract_z
O1 O 0.48580(6) 0.2525(2) 0.02646(9)
H1 H 0.4889(19) 0.399(5) -0.001(3)
C1 C 0.41419(7) 0.0832(3) 0.23796(11)
H2 H 0.4178 -0.0466 0.2878
C2 C 0.45317(7) 0.0725(3) 0.16908(11)
H3 H 0.4833 -0.0621 0.1723
C3 C 0.44742(7) 0.2600(3) 0.09596(11)
C4 C 0.40401(7) 0.4582(3) 0.09173(11)
H4 H 0.4006 0.5876 0.0417
C5 C 0.36564(7) 0.4663(3) 0.16100(11)
H5 H 0.3357 0.6018 0.1576
C6 C 0.36995(7) 0.2801(3) 0.23555(11)
C7 C 0.32602(7) 0.2816(3) 0.30842(11)
H6 H 0.3429 0.1491 0.3621
C8 C 0.32710(7) 0.5321(3) 0.36579(11)
H7 H 0.3729 0.5679 0.4074
H8 H 0.3132 0.6685 0.3142
C9 C 0.28151(7) 0.5298(3) 0.43741(11)
H9 H 0.2820 0.6977 0.4694
H10 H 0.2985 0.4070 0.4939
C10 C 0.20997(7) 0.4612(3) 0.37901(11)
H11 H 0.1929 0.5933 0.3253
C11 C 0.20944(8) 0.2107(3) 0.32292(12)
H12 H 0.2240 0.0759 0.3751
H13 H 0.1636 0.1722 0.2820
C12 C 0.25437(7) 0.2132(3) 0.25071(12)
H14 H 0.2372 0.3362 0.1944
H15 H 0.2536 0.0455 0.2186
C13 C 0.16400(8) 0.4506(3) 0.44966(12)
H16 H 0.1214 0.3758 0.4101
H17 H 0.1838 0.3369 0.5084
C14 C 0.14968(8) 0.7019(3) 0.49357(12)
H18 H 0.1917 0.7737 0.5366
H19 H 0.1315 0.8191 0.4354
C15 C 0.10106(8) 0.6811(3) 0.55919(12)
H20 H 0.0596 0.6038 0.5167
H21 H 0.1200 0.5676 0.6184
C16 C 0.08453(8) 0.9309(3) 0.60091(13)
H22 H 0.1262 1.0150 0.6386
H23 H 0.0621 1.0395 0.5417
C17 C 0.04046(9) 0.9051(4) 0.67340(14)
H24 H -0.0006 0.8194 0.6371
H25 H 0.0301 1.0721 0.6953
H26 H 0.0635 0.8071 0.7345
H27? H 0.4982(19) 0.107(5) 0.018(3)
loop_
_geom_bond_atom_site_label_1
_geom_bond_atom_site_label_2
_geom_bond_site_symmetry_1
_geom_bond_site_symmetry_2
O1 H1 1_555 1_555
C1 H2 1_555 1_555
C2 C1 1_555 1_555
H3 C2 1_555 1_555
C3 O1 1_555 1_555
C4 C3 1_555 1_555
H4 C4 1_555 1_555
C5 C4 1_555 1_555
H5 C5 1_555 1_555
C6 C1 1_555 1_555
C7 C6 1_555 1_555
H6 C7 1_555 1_555
C8 C7 1_555 1_555
H7 C8 1_555 1_555
H8 C8 1_555 1_555
C9 C8 1_555 1_555
H9 C9 1_555 1_555
H10 C9 1_555 1_555
C10 C9 1_555 1_555
H11 C10 1_555 1_555
C11 C10 1_555 1_555
H12 C11 1_555 1_555
H13 C11 1_555 1_555
C12 C7 1_555 1_555
H14 C12 1_555 1_555
H15 C12 1_555 1_555
C13 C10 1_555 1_555
H16 C13 1_555 1_555
H17 C13 1_555 1_555
C14 C13 1_555 1_555
H18 C14 1_555 1_555
H19 C14 1_555 1_555
C15 C14 1_555 1_555
H20 C15 1_555 1_555
H21 C15 1_555 1_555
C16 C15 1_555 1_555
H22 C16 1_555 1_555
H23 C16 1_555 1_555
C17 C16 1_555 1_555
H24 C17 1_555 1_555
H25 C17 1_555 1_555
H26 C17 1_555 1_555
C2 C3 1_555 1_555
C5 C6 1_555 1_555
C11 C12 1_555 1_555

#END
