
#######################################################################
#
#                 Cambridge Crystallographic Data Centre
#                                CCDC 
#
#######################################################################
#
# If this CIF has been generated from an entry in the Cambridge 
# Structural Database, then it will include bibliographic, chemical, 
# crystal, experimental, refinement or atomic coordinate data resulting 
# from the CCDC's data processing and validation procedures.
#
#######################################################################

data_FOVVUI
_chemical_formula_moiety         'C8 H9 N5 O1'
_chemical_name_systematic        2-(1H-Benzotriazol-1-yl)acetohydrazide
_symmetry_cell_setting           monoclinic
_symmetry_space_group_name_H-M   'P 21/c'
_symmetry_Int_Tables_number      14
_space_group_name_Hall           '-P 2ybc'
loop_
_symmetry_equiv_pos_site_id
_symmetry_equiv_pos_as_xyz
1 x,y,z
2 -x,1/2+y,1/2-z
3 -x,-y,-z
4 x,1/2-y,1/2+z
_cell_length_a                   5.1434(9)
_cell_length_b                   6.5885(12)
_cell_length_c                   25.754(5)
_cell_angle_alpha                90
_cell_angle_beta                 94.227(3)
_cell_angle_gamma                90
_cell_volume                     870.359
_exptl_crystal_colour            colorless
_exptl_crystal_description       block
_cell_formula_units_Z            4
_exptl_crystal_recrystallization_method tetrahydrofuran
loop_
_atom_site_label
_atom_site_type_symbol
_atom_site_fract_x
_atom_site_fract_y
_atom_site_fract_z
O1 O 1.08675(16) 0.24854(14) 0.01128(4)
N1 N 1.3431(2) 0.14371(19) 0.16751(5)
N2 N 1.2038(2) 0.05513(19) 0.12958(5)
N3 N 0.9953(2) 0.17411(18) 0.11547(4)
N4 N 0.65313(19) 0.25384(17) -0.00905(4)
H1 H 0.5024 0.2240 0.0012
N5 N 0.6667(2) 0.3428(2) -0.05866(5)
C1 C 1.2246(2) 0.3253(2) 0.17817(5)
C2 C 1.2914(3) 0.4759(2) 0.21540(5)
H2 H 1.4385 0.4637 0.2384
C3 C 1.1312(3) 0.6408(2) 0.21632(6)
H3 H 1.1698 0.7424 0.2407
C4 C 0.9094(3) 0.6612(2) 0.18138(6)
H4 H 0.8067 0.7768 0.1832
C5 C 0.8397(3) 0.5166(2) 0.14492(5)
H5 H 0.6933 0.5306 0.1218
C6 C 1.0018(2) 0.3468(2) 0.14460(5)
C7 C 0.8079(3) 0.1139(2) 0.07360(5)
H6 H 0.6341 0.1507 0.0825
H7 H 0.8133 -0.0323 0.0695
C8 C 0.8630(2) 0.21429(19) 0.02251(5)
H8 H 0.723(3) 0.250(2) -0.0799(6)
H9 H 0.785(3) 0.441(2) -0.0551(8)
loop_
_geom_bond_atom_site_label_1
_geom_bond_atom_site_label_2
_geom_bond_site_symmetry_1
_geom_bond_site_symmetry_2
O1 C8 1_555 1_555
N1 N2 1_555 1_555
N2 N3 1_555 1_555
N3 C6 1_555 1_555
N4 H1 1_555 1_555
N5 N4 1_555 1_555
C1 N1 1_555 1_555
C2 C1 1_555 1_555
H2 C2 1_555 1_555
C3 C2 1_555 1_555
H3 C3 1_555 1_555
C4 C3 1_555 1_555
H4 C4 1_555 1_555
C5 C4 1_555 1_555
H5 C5 1_555 1_555
C6 C1 1_555 1_555
C7 N3 1_555 1_555
H6 C7 1_555 1_555
H7 C7 1_555 1_555
C8 N4 1_555 1_555
H8 N5 1_555 1_555
H9 N5 1_555 1_555
C5 C6 1_555 1_555
C7 C8 1_555 1_555

#END
