
#######################################################################
#
#                 Cambridge Crystallographic Data Centre
#                                CCDC 
#
#######################################################################
#
# If this CIF has been generated from an entry in the Cambridge 
# Structural Database, then it will include bibliographic, chemical, 
# crystal, experimental, refinement or atomic coordinate data resulting 
# from the CCDC's data processing and validation procedures.
#
#######################################################################

data_FOVYIZ
_chemical_formula_moiety         'C20 H18 Cl1 N3 O3,H2 O1'
_chemical_name_systematic        
"(E)-N'-(5-Chloro-2-hydroxybenzylidene)-4-(8-quinolyloxy)butanohydrazide monohydrate"
_symmetry_cell_setting           monoclinic
_symmetry_space_group_name_H-M   'C c'
_symmetry_Int_Tables_number      9
_space_group_name_Hall           'C -2yc'
loop_
_symmetry_equiv_pos_site_id
_symmetry_equiv_pos_as_xyz
1 x,y,z
2 x,-y,1/2+z
3 1/2+x,1/2+y,z
4 1/2+x,1/2-y,1/2+z
_cell_length_a                   11.167(3)
_cell_length_b                   11.150(3)
_cell_length_c                   30.909(10)
_cell_angle_alpha                90
_cell_angle_beta                 96.970(12)
_cell_angle_gamma                90
_cell_volume                     3820.1
_exptl_crystal_colour            yellow
_exptl_crystal_description       block
_cell_formula_units_Z            8
_exptl_crystal_recrystallization_method tetrahydrofuran
loop_
_atom_site_label
_atom_site_type_symbol
_atom_site_fract_x
_atom_site_fract_y
_atom_site_fract_z
Cl1 Cl 0.3021(2) 0.92993(19) -0.10155(8)
N1 N 1.1629(5) 0.0908(5) 0.18110(18)
N2 N 0.5924(6) 0.4429(6) 0.0353(2)
H1 H 0.5800 0.4886 0.0568
N3 N 0.5489(5) 0.4771(6) -0.0078(2)
O1 O 0.9426(4) 0.1745(5) 0.16115(17)
O2 O 0.6701(6) 0.2718(6) 0.0137(2)
O3 O 0.4881(6) 0.4409(5) -0.09162(19)
H3 H 0.5252 0.4267 -0.0676
C1 C 0.9739(7) 0.1482(7) 0.2040(2)
C2 C 0.9014(7) 0.1634(7) 0.2365(3)
H9 H 0.8245 0.1956 0.2299
C3 C 0.9426(7) 0.1306(7) 0.2795(3)
H10 H 0.8926 0.1405 0.3012
C4 C 1.0553(7) 0.0845(7) 0.2896(2)
H11 H 1.0814 0.0616 0.3182
C5 C 1.1329(6) 0.0711(7) 0.2572(2)
C6 C 1.2504(7) 0.0246(7) 0.2659(3)
H12 H 1.2801 0.0017 0.2941
C7 C 1.3212(7) 0.0129(7) 0.2331(2)
H13 H 1.3993 -0.0172 0.2384
C8 C 1.2709(7) 0.0487(7) 0.1908(3)
H14 H 1.3189 0.0413 0.1683
C9 C 1.0930(6) 0.1029(6) 0.2136(2)
C10 C 0.8271(7) 0.2281(7) 0.1500(2)
H15 H 0.8222 0.3022 0.1661
H16 H 0.7647 0.1744 0.1577
C11 C 0.8075(7) 0.2541(7) 0.1009(2)
H17 H 0.8709 0.3061 0.0930
H18 H 0.8095 0.1799 0.0847
C12 C 0.6870(7) 0.3139(8) 0.0903(2)
H19 H 0.6257 0.2627 0.1003
H20 H 0.6876 0.3885 0.1065
C13 C 0.6523(7) 0.3405(8) 0.0430(3)
C14 C 0.4998(7) 0.5818(7) -0.0120(2)
H21 H 0.4960 0.6297 0.0125
C15 C 0.4508(6) 0.6247(6) -0.0543(2)
C16 C 0.4452(7) 0.5569(7) -0.0923(3)
C17 C 0.3957(8) 0.6009(7) -0.1314(3)
H22 H 0.3913 0.5530 -0.1562
C18 C 0.3512(7) 0.7182(8) -0.1345(3)
H23 H 0.3180 0.7498 -0.1611
C19 C 0.3579(6) 0.7847(7) -0.0974(3)
C20 C 0.4057(7) 0.7447(7) -0.0576(2)
H24 H 0.4091 0.7938 -0.0331
Cl2 Cl 1.56704(19) 0.7328(2) 0.70372(8)
N4 N 0.6334(6) -0.0301(6) 0.4222(2)
N5 N 1.0354(6) 0.4892(6) 0.5686(2)
H2 H 1.0744 0.5082 0.5472
N6 N 1.0823(5) 0.5171(6) 0.6110(2)
O4 O 0.7248(5) 0.1826(4) 0.44221(16)
O5 O 0.8704(6) 0.4003(6) 0.59010(19)
O6 O 1.0749(5) 0.5481(6) 0.69511(19)
H4 H 1.0486 0.5333 0.6697
C21 C 0.6857(6) 0.1661(7) 0.3997(2)
C22 C 0.6908(7) 0.2486(7) 0.3667(2)
H25 H 0.7218 0.3249 0.3731
C23 C 0.6492(7) 0.2178(8) 0.3234(3)
H26 H 0.6553 0.2735 0.3014
C24 C 0.6010(7) 0.1103(8) 0.3132(3)
H27 H 0.5733 0.0922 0.2843
C25 C 0.5925(7) 0.0266(7) 0.3452(2)
C26 C 0.5430(7) -0.0906(7) 0.3365(3)
H28 H 0.5114 -0.1116 0.3083
C27 C 0.5422(8) -0.1723(7) 0.3701(3)
H29 H 0.5105 -0.2488 0.3647
C28 C 0.5896(7) -0.1386(8) 0.4122(3)
H30 H 0.5906 -0.1951 0.4344
C29 C 0.6356(6) 0.0495(8) 0.3891(2)
C30 C 0.7820(7) 0.2949(7) 0.4533(3)
H31 H 0.7255 0.3599 0.4458
H32 H 0.8501 0.3055 0.4370
C31 C 0.8249(7) 0.2981(7) 0.5017(2)
H33 H 0.7567 0.2889 0.5181
H34 H 0.8805 0.2325 0.5093
C32 C 0.8867(8) 0.4158(7) 0.5129(3)
H35 H 0.8319 0.4805 0.5031
H36 H 0.9564 0.4222 0.4971
C33 C 0.9273(7) 0.4315(8) 0.5609(3)
C34 C 1.1874(7) 0.5652(7) 0.6160(2)
H37 H 1.2261 0.5797 0.5916
C35 C 1.2463(6) 0.5970(6) 0.6576(2)
C36 C 1.1891(7) 0.5900(7) 0.6968(2)
C37 C 1.2494(7) 0.6258(8) 0.7354(3)
H38 H 1.2118 0.6202 0.7606
C38 C 1.3654(7) 0.6702(7) 0.7381(2)
H39 H 1.4055 0.6960 0.7646
C39 C 1.4200(7) 0.6753(7) 0.7010(3)
C40 C 1.3609(7) 0.6448(7) 0.6612(3)
H40 H 1.3985 0.6563 0.6363
O7 O 1.1208(5) 0.1480(5) 0.08981(17)
H5 H 1.1252 0.1199 0.1155
H6 H 1.1950 0.1587 0.0878
O8 O 0.7190(5) -0.0214(6) 0.51354(18)
H7 H 0.6910 -0.0115 0.4869
H8 H 0.7045 -0.0963 0.5137
loop_
_geom_bond_atom_site_label_1
_geom_bond_atom_site_label_2
_geom_bond_site_symmetry_1
_geom_bond_site_symmetry_2
Cl1 C19 1_555 1_555
Cl2 C39 1_555 1_555
N1 C8 1_555 1_555
N2 H1 1_555 1_555
N3 N2 1_555 1_555
N4 C28 1_555 1_555
N5 H2 1_555 1_555
N6 N5 1_555 1_555
O1 C1 1_555 1_555
O2 C13 1_555 1_555
O3 H3 1_555 1_555
O4 C21 1_555 1_555
O5 C33 1_555 1_555
O6 H4 1_555 1_555
O7 H5 1_555 1_555
H6 O7 1_555 1_555
O8 H7 1_555 1_555
H8 O8 1_555 1_555
C1 C2 1_555 1_555
C2 H9 1_555 1_555
C3 C2 1_555 1_555
H10 C3 1_555 1_555
C4 C3 1_555 1_555
H11 C4 1_555 1_555
C5 C4 1_555 1_555
C6 C5 1_555 1_555
H12 C6 1_555 1_555
C7 C6 1_555 1_555
H13 C7 1_555 1_555
C8 C7 1_555 1_555
H14 C8 1_555 1_555
C9 N1 1_555 1_555
C10 O1 1_555 1_555
H15 C10 1_555 1_555
H16 C10 1_555 1_555
C11 C10 1_555 1_555
H17 C11 1_555 1_555
H18 C11 1_555 1_555
C12 C11 1_555 1_555
H19 C12 1_555 1_555
H20 C12 1_555 1_555
C13 N2 1_555 1_555
C14 N3 1_555 1_555
H21 C14 1_555 1_555
C15 C14 1_555 1_555
C16 O3 1_555 1_555
C17 C16 1_555 1_555
H22 C17 1_555 1_555
C18 C17 1_555 1_555
H23 C18 1_555 1_555
C19 C18 1_555 1_555
C20 C15 1_555 1_555
H24 C20 1_555 1_555
C21 C22 1_555 1_555
C22 H25 1_555 1_555
C23 C22 1_555 1_555
H26 C23 1_555 1_555
C24 C23 1_555 1_555
H27 C24 1_555 1_555
C25 C24 1_555 1_555
C26 C25 1_555 1_555
H28 C26 1_555 1_555
C27 C26 1_555 1_555
H29 C27 1_555 1_555
C28 C27 1_555 1_555
H30 C28 1_555 1_555
C29 N4 1_555 1_555
C30 O4 1_555 1_555
H31 C30 1_555 1_555
H32 C30 1_555 1_555
C31 C30 1_555 1_555
H33 C31 1_555 1_555
H34 C31 1_555 1_555
C32 C31 1_555 1_555
H35 C32 1_555 1_555
H36 C32 1_555 1_555
C33 N5 1_555 1_555
C34 N6 1_555 1_555
H37 C34 1_555 1_555
C35 C34 1_555 1_555
C36 O6 1_555 1_555
C37 C36 1_555 1_555
H38 C37 1_555 1_555
C38 C37 1_555 1_555
H39 C38 1_555 1_555
C39 C38 1_555 1_555
C40 C35 1_555 1_555
H40 C40 1_555 1_555
C1 C9 1_555 1_555
C5 C9 1_555 1_555
C12 C13 1_555 1_555
C15 C16 1_555 1_555
C19 C20 1_555 1_555
C21 C29 1_555 1_555
C25 C29 1_555 1_555
C32 C33 1_555 1_555
C35 C36 1_555 1_555
C39 C40 1_555 1_555

#END
