
#######################################################################
#
#                 Cambridge Crystallographic Data Centre
#                                CCDC 
#
#######################################################################
#
# If this CIF has been generated from an entry in the Cambridge 
# Structural Database, then it will include bibliographic, chemical, 
# crystal, experimental, refinement or atomic coordinate data resulting 
# from the CCDC's data processing and validation procedures.
#
#######################################################################

data_FOWMAG
_chemical_formula_moiety         'C21 H22 N4 O3'
_chemical_name_systematic        
't-Butyl N-(4-methyl-3-(4-(3-pyridyl)pyrimidin-2-yloxy)phenyl)carbamate'
_symmetry_cell_setting           triclinic
_symmetry_space_group_name_H-M   'P -1'
_symmetry_Int_Tables_number      2
_space_group_name_Hall           '-P 1'
loop_
_symmetry_equiv_pos_site_id
_symmetry_equiv_pos_as_xyz
1 x,y,z
2 -x,-y,-z
_cell_length_a                   9.951(2)
_cell_length_b                   10.733(2)
_cell_length_c                   11.577(2)
_cell_angle_alpha                114.74(3)
_cell_angle_beta                 107.14(3)
_cell_angle_gamma                99.97(3)
_cell_volume                     1008.56
_exptl_crystal_colour            colorless
_exptl_crystal_description       block
_cell_formula_units_Z            2
_exptl_crystal_recrystallization_method ethanol
loop_
_atom_site_label
_atom_site_type_symbol
_atom_site_fract_x
_atom_site_fract_y
_atom_site_fract_z
O1 O 0.0153(2) 0.8866(2) 0.2102(2)
O2 O 0.0613(2) 0.7528(2) 0.3167(2)
O3 O 0.4840(2) 0.8449(2) 0.7311(2)
N1 N 0.2087(2) 0.9880(2) 0.4085(2)
H1 H 0.2141 1.0599 0.3929
N2 N 0.2426(2) 0.7463(2) 0.7031(2)
N3 N 0.4351(3) 0.6437(3) 0.7463(3)
N4 N -0.1874(3) 0.7568(2) 0.6228(3)
C1 C -0.1644(4) 0.8538(4) 0.0096(4)
H2 H -0.1731 0.9458 0.0640
H3 H -0.2570 0.7920 -0.0708
H4 H -0.0855 0.8694 -0.0200
C2 C -0.1138(4) 0.6358(4) 0.0150(4)
H5 H -0.0922 0.5919 0.0724
H6 H -0.0339 0.6503 -0.0136
H7 H -0.2057 0.5727 -0.0659
C3 C -0.2421(4) 0.7685(5) 0.1575(4)
H8 H -0.2485 0.8630 0.2080
H9 H -0.2119 0.7312 0.2196
H10 H -0.3381 0.7032 0.0834
C4 C -0.1288(3) 0.7813(3) 0.0971(3)
C5 C 0.0919(3) 0.8649(3) 0.3128(3)
C6 C 0.3229(3) 1.0147(3) 0.5304(3)
C7 C 0.4275(3) 1.1551(3) 0.6155(3)
H11 H 0.4202 1.2258 0.5898
C8 C 0.5415(3) 1.1899(3) 0.7372(3)
H12 H 0.6102 1.2844 0.7926
C9 C 0.5577(3) 1.0880(3) 0.7807(3)
C10 C 0.4535(3) 0.9502(3) 0.6937(3)
C11 C 0.3367(3) 0.9096(3) 0.5703(3)
H13 H 0.2689 0.8147 0.5150
C12 C 0.6828(4) 1.1258(4) 0.9146(3)
H14 H 0.6742 1.0413 0.9256
H15 H 0.6764 1.2028 0.9920
H16 H 0.7773 1.1573 0.9114
C13 C 0.3789(3) 0.7420(3) 0.7256(3)
C14 C 0.3369(3) 0.5396(3) 0.7410(3)
H17 H 0.3692 0.4692 0.7562
C15 C 0.1907(3) 0.5281(3) 0.7147(3)
H18 H 0.1244 0.4510 0.7090
C16 C 0.1453(3) 0.6373(3) 0.6967(2)
C17 C -0.0094(3) 0.6389(3) 0.6684(3)
C18 C -0.1188(3) 0.5330(3) 0.6602(3)
H19 H -0.0970 0.4574 0.6725
C19 C -0.2597(3) 0.5405(3) 0.6339(3)
H20 H -0.3347 0.4697 0.6277
C20 C -0.2896(3) 0.6538(3) 0.6167(3)
H21 H -0.3854 0.6584 0.6000
C21 C -0.0505(3) 0.7479(3) 0.6477(3)
H22 H 0.0217 0.8189 0.6514
loop_
_geom_bond_atom_site_label_1
_geom_bond_atom_site_label_2
_geom_bond_site_symmetry_1
_geom_bond_site_symmetry_2
O1 C4 1_555 1_555
O2 C5 1_555 1_555
O3 C10 1_555 1_555
N1 H1 1_555 1_555
N2 C13 1_555 1_555
N3 C13 1_555 1_555
N4 C20 1_555 1_555
C1 H2 1_555 1_555
H3 C1 1_555 1_555
H4 C1 1_555 1_555
C2 H5 1_555 1_555
H6 C2 1_555 1_555
H7 C2 1_555 1_555
C3 H8 1_555 1_555
H9 C3 1_555 1_555
H10 C3 1_555 1_555
C4 C1 1_555 1_555
C5 O1 1_555 1_555
C6 N1 1_555 1_555
C7 C6 1_555 1_555
H11 C7 1_555 1_555
C8 C7 1_555 1_555
H12 C8 1_555 1_555
C9 C8 1_555 1_555
C10 C9 1_555 1_555
C11 C6 1_555 1_555
H13 C11 1_555 1_555
C12 C9 1_555 1_555
H14 C12 1_555 1_555
H15 C12 1_555 1_555
H16 C12 1_555 1_555
C13 O3 1_555 1_555
C14 N3 1_555 1_555
H17 C14 1_555 1_555
C15 C14 1_555 1_555
H18 C15 1_555 1_555
C16 N2 1_555 1_555
C17 C16 1_555 1_555
C18 C17 1_555 1_555
H19 C18 1_555 1_555
C19 C18 1_555 1_555
H20 C19 1_555 1_555
C20 C19 1_555 1_555
H21 C20 1_555 1_555
C21 N4 1_555 1_555
H22 C21 1_555 1_555
N1 C5 1_555 1_555
C2 C4 1_555 1_555
C3 C4 1_555 1_555
C10 C11 1_555 1_555
C15 C16 1_555 1_555
C17 C21 1_555 1_555

#END
