
#######################################################################
#
#                 Cambridge Crystallographic Data Centre
#                                CCDC 
#
#######################################################################
#
# If this CIF has been generated from an entry in the Cambridge 
# Structural Database, then it will include bibliographic, chemical, 
# crystal, experimental, refinement or atomic coordinate data resulting 
# from the CCDC's data processing and validation procedures.
#
#######################################################################

data_FOWTUH
_chemical_formula_moiety         'C15 H15 N1 O3'
_chemical_name_systematic        N-(4-Hydroxy-3-methoxybenzyl)benzamide
_symmetry_cell_setting           monoclinic
_symmetry_space_group_name_H-M   'P 21/n'
_symmetry_Int_Tables_number      14
_space_group_name_Hall           '-P 2yn'
loop_
_symmetry_equiv_pos_site_id
_symmetry_equiv_pos_as_xyz
1 x,y,z
2 1/2-x,1/2+y,1/2-z
3 -x,-y,-z
4 1/2+x,1/2-y,1/2+z
_cell_length_a                   7.2292(18)
_cell_length_b                   21.057(5)
_cell_length_c                   9.031(2)
_cell_angle_alpha                90
_cell_angle_beta                 106.849(12)
_cell_angle_gamma                90
_cell_volume                     1315.73
_exptl_crystal_colour            colorless
_exptl_crystal_description       prism
_cell_formula_units_Z            4
_exptl_crystal_recrystallization_method 'absolute ethyl acetate'
loop_
_atom_site_label
_atom_site_type_symbol
_atom_site_fract_x
_atom_site_fract_y
_atom_site_fract_z
N1 N 0.4418(4) 0.57597(12) 0.3750(3)
O1 O 0.2826(3) 0.61857(10) 0.5293(2)
O2 O 0.2344(3) 0.40542(9) -0.1741(2)
O3 O 0.2085(3) 0.50638(11) -0.3439(2)
C1 C 0.5991(4) 0.65751(12) 0.5602(3)
C2 C 0.7756(4) 0.65520(14) 0.5270(3)
H1 H 0.7941 0.6257 0.4560
C3 C 0.9237(5) 0.69650(15) 0.5988(4)
H2 H 1.0410 0.6947 0.5760
C4 C 0.8970(5) 0.74018(16) 0.7039(4)
H3 H 0.9962 0.7680 0.7517
C5 C 0.7239(5) 0.74283(16) 0.7384(4)
H4 H 0.7063 0.7722 0.8101
C6 C 0.5766(5) 0.70172(13) 0.6662(4)
H5 H 0.4597 0.7039 0.6895
C7 C 0.4317(4) 0.61524(13) 0.4864(3)
C8 C 0.2814(5) 0.53450(15) 0.2939(3)
H6 H 0.1614 0.5516 0.3050
H7 H 0.3004 0.4927 0.3413
C9 C 0.2655(4) 0.52835(13) 0.1243(3)
C10 C 0.2606(4) 0.46920(13) 0.0575(3)
H8 H 0.2709 0.4331 0.1186
C11 C 0.2408(4) 0.46267(13) -0.0981(3)
C12 C 0.2250(4) 0.51616(14) -0.1907(3)
C13 C 0.2304(4) 0.57554(13) -0.1242(3)
H9 H 0.2204 0.6117 -0.1851
C14 C 0.2505(4) 0.58145(14) 0.0317(3)
H10 H 0.2540 0.6217 0.0750
C15 C 0.2403(6) 0.34901(15) -0.0863(4)
H11 H 0.3633 0.3459 -0.0092
H12 H 0.2221 0.3128 -0.1537
H13 H 0.1393 0.3502 -0.0369
H14 H 0.546(4) 0.5707(13) 0.350(3)
H15 H 0.204(7) 0.548(2) -0.393(5)
loop_
_geom_bond_atom_site_label_1
_geom_bond_atom_site_label_2
_geom_bond_site_symmetry_1
_geom_bond_site_symmetry_2
N1 C7 1_555 1_555
O1 C7 1_555 1_555
O2 C11 1_555 1_555
O3 C12 1_555 1_555
C1 C2 1_555 1_555
C2 H1 1_555 1_555
C3 C2 1_555 1_555
H2 C3 1_555 1_555
C4 C3 1_555 1_555
H3 C4 1_555 1_555
C5 C4 1_555 1_555
H4 C5 1_555 1_555
C6 C1 1_555 1_555
H5 C6 1_555 1_555
C7 C1 1_555 1_555
C8 N1 1_555 1_555
H6 C8 1_555 1_555
H7 C8 1_555 1_555
C9 C8 1_555 1_555
C10 C9 1_555 1_555
H8 C10 1_555 1_555
C11 C10 1_555 1_555
C12 C11 1_555 1_555
C13 C12 1_555 1_555
H9 C13 1_555 1_555
C14 C9 1_555 1_555
H10 C14 1_555 1_555
C15 O2 1_555 1_555
H11 C15 1_555 1_555
H12 C15 1_555 1_555
H13 C15 1_555 1_555
H14 N1 1_555 1_555
H15 O3 1_555 1_555
C5 C6 1_555 1_555
C13 C14 1_555 1_555

#END
