
#######################################################################
#
#                 Cambridge Crystallographic Data Centre
#                                CCDC 
#
#######################################################################
#
# If this CIF has been generated from an entry in the Cambridge 
# Structural Database, then it will include bibliographic, chemical, 
# crystal, experimental, refinement or atomic coordinate data resulting 
# from the CCDC's data processing and validation procedures.
#
#######################################################################

data_FOWVAP
_chemical_formula_moiety         'C15 H12 N4 O1,H2 O1'
_chemical_name_systematic        
"N'-[(E)-1H-Indol-3-ylmethylene]isonicotinohydrazide monohydrate"
_symmetry_cell_setting           monoclinic
_symmetry_space_group_name_H-M   'P 21/c'
_symmetry_Int_Tables_number      14
_space_group_name_Hall           '-P 2ybc'
loop_
_symmetry_equiv_pos_site_id
_symmetry_equiv_pos_as_xyz
1 x,y,z
2 -x,1/2+y,1/2-z
3 -x,-y,-z
4 x,1/2-y,1/2+z
_cell_length_a                   7.1984(11)
_cell_length_b                   25.327(4)
_cell_length_c                   7.9811(16)
_cell_angle_alpha                90
_cell_angle_beta                 104.062(12)
_cell_angle_gamma                90
_cell_volume                     1411.46
_exptl_crystal_colour            colorless
_exptl_crystal_description       prism
_cell_formula_units_Z            4
_exptl_crystal_recrystallization_method 2-propanol/water
loop_
_atom_site_label
_atom_site_type_symbol
_atom_site_fract_x
_atom_site_fract_y
_atom_site_fract_z
N1 N 0.0721(3) 0.27145(8) 0.4661(3)
H1 H 0.0189 0.2388 0.4518
N2 N 0.2051(3) 0.44265(8) 0.6709(3)
N3 N 0.1479(3) 0.48641(8) 0.7552(3)
H2 H 0.0249 0.4904 0.7553
N4 N 0.0958(3) 0.66448(8) 1.0414(3)
O1 O 0.4458(3) 0.52331(7) 0.8055(3)
C1 C 0.0052(4) 0.31058(10) 0.5519(3)
H5 H -0.1042 0.3081 0.5940
C2 C 0.1222(4) 0.35481(10) 0.5685(3)
C3 C 0.4346(4) 0.36807(10) 0.4582(3)
H6 H 0.4625 0.4023 0.4989
C4 C 0.5486(4) 0.34271(11) 0.3671(4)
H7 H 0.6518 0.3606 0.3429
C5 C 0.5118(4) 0.29032(12) 0.3099(4)
H8 H 0.5931 0.2741 0.2511
C6 C 0.3582(4) 0.26257(10) 0.3389(3)
H9 H 0.3348 0.2278 0.3019
C7 C 0.2390(4) 0.28874(9) 0.4262(3)
C8 C 0.2756(3) 0.34103(9) 0.4881(3)
C9 C 0.0874(4) 0.40330(10) 0.6509(3)
H10 H -0.0232 0.4063 0.6909
C10 C 0.2762(4) 0.52496(10) 0.8150(4)
C11 C 0.2053(4) 0.57134(9) 0.8990(3)
C12 C 0.0156(4) 0.58804(10) 0.8584(3)
H11 H -0.0785 0.5685 0.7835
C13 C -0.0314(4) 0.63452(10) 0.9316(4)
H12 H -0.1585 0.6454 0.9026
C14 C 0.2765(4) 0.64680(11) 1.0837(4)
H13 H 0.3666 0.6662 1.1632
C15 C 0.3374(4) 0.60145(10) 1.0164(4)
H14 H 0.4652 0.5913 1.0493
O2 O 0.2725(3) 0.51295(8) 0.3543(3)
H3 H 0.3680 0.5059 0.3000
H4 H 0.2989 0.4927 0.4490
loop_
_geom_bond_atom_site_label_1
_geom_bond_atom_site_label_2
_geom_bond_site_symmetry_1
_geom_bond_site_symmetry_2
N1 H1 1_555 1_555
N2 N3 1_555 1_555
N3 H2 1_555 1_555
N4 C13 1_555 1_555
O1 C10 1_555 1_555
O2 H3 1_555 1_555
H4 O2 1_555 1_555
C1 N1 1_555 1_555
H5 C1 1_555 1_555
C2 C1 1_555 1_555
C3 H6 1_555 1_555
C4 C3 1_555 1_555
H7 C4 1_555 1_555
C5 C4 1_555 1_555
H8 C5 1_555 1_555
C6 C5 1_555 1_555
H9 C6 1_555 1_555
C7 N1 1_555 1_555
C8 C2 1_555 1_555
C9 N2 1_555 1_555
H10 C9 1_555 1_555
C10 N3 1_555 1_555
C11 C10 1_555 1_555
C12 C11 1_555 1_555
H11 C12 1_555 1_555
C13 C12 1_555 1_555
H12 C13 1_555 1_555
C14 N4 1_555 1_555
H13 C14 1_555 1_555
C15 C11 1_555 1_555
H14 C15 1_555 1_555
C2 C9 1_555 1_555
C3 C8 1_555 1_555
C6 C7 1_555 1_555
C7 C8 1_555 1_555
C14 C15 1_555 1_555

#END
