
#######################################################################
#
#                 Cambridge Crystallographic Data Centre
#                                CCDC 
#
#######################################################################
#
# If this CIF has been generated from an entry in the Cambridge 
# Structural Database, then it will include bibliographic, chemical, 
# crystal, experimental, refinement or atomic coordinate data resulting 
# from the CCDC's data processing and validation procedures.
#
#######################################################################

data_FOXJEJ
_chemical_formula_moiety         'C23 H21 Br1 N2 O4 S1,H2 O1'
_chemical_name_systematic        
'ethyl 6-(2-(3-bromophenyl)-4-oxo-1,3-thiazolidin-3-yl)-1-ethyl-4-oxo-1,4-dihydroquinoline-3-carboxylate monohydrate'
_symmetry_cell_setting           triclinic
_symmetry_space_group_name_H-M   'P -1'
_symmetry_Int_Tables_number      2
_space_group_name_Hall           '-P 1'
loop_
_symmetry_equiv_pos_site_id
_symmetry_equiv_pos_as_xyz
1 x,y,z
2 -x,-y,-z
_cell_length_a                   10.7995(11)
_cell_length_b                   11.2612(11)
_cell_length_c                   11.3792(11)
_cell_angle_alpha                108.504(8)
_cell_angle_beta                 116.317(8)
_cell_angle_gamma                92.846(7)
_cell_volume                     1146.45
_exptl_crystal_colour            colorless
_cell_formula_units_Z            2
loop_
_atom_site_label
_atom_site_type_symbol
_atom_site_fract_x
_atom_site_fract_y
_atom_site_fract_z
Br1 Br 0.28238(4) -0.24930(4) -0.00624(4)
S1 S 0.85804(9) -0.03741(9) 0.50952(9)
O1 O 0.2459(3) 0.2692(3) 0.3150(3)
O2 O 0.6090(3) 0.1476(2) 0.6152(3)
O3 O 0.1108(3) 0.5836(3) 0.2023(3)
O4 O 0.0329(3) 0.3936(3) 0.1954(4)
N1 N 0.5114(3) 0.5452(3) 0.3193(3)
N2 N 0.7122(3) 0.1400(3) 0.4763(3)
C1 C 0.4675(4) -0.1563(4) 0.0628(4)
C2 C 0.5496(4) -0.0807(3) 0.2047(4)
H1 H 0.5139 -0.0733 0.2688
C3 C 0.5207(4) 0.2480(3) 0.3890(4)
H2 H 0.4576 0.1819 0.3832
C4 C 0.3737(4) 0.5479(4) 0.2761(4)
H3 H 0.3415 0.6174 0.2502
C5 C 0.2770(4) 0.4572(4) 0.2671(4)
C6 C 0.4704(4) 0.3489(3) 0.3515(4)
C7 C 0.3213(4) 0.3526(3) 0.3098(4)
C8 C 0.5637(4) 0.4448(3) 0.3579(4)
C9 C 0.6251(5) 0.6087(4) 0.1935(4)
H4 H 0.5337 0.5886 0.1078
H5 H 0.6657 0.5325 0.1876
H6 H 0.6899 0.6788 0.2017
C10 C 0.6793(4) 0.0997(3) 0.5619(4)
C11 C 0.6866(4) -0.0152(3) 0.2521(4)
C12 C 0.7063(4) 0.4384(3) 0.4031(4)
H7 H 0.7696 0.5027 0.4066
C13 C 0.7840(4) 0.0633(3) 0.4075(4)
H8 H 0.8637 0.1221 0.4176
C14 C -0.0367(5) 0.7261(4) 0.1349(5)
H9 H 0.0041 0.7301 0.0742
H10 H 0.0187 0.7958 0.2281
H11 H -0.1349 0.7355 0.0915
C15 C 0.7541(4) 0.3391(3) 0.4423(4)
H12 H 0.8510 0.3360 0.4750
C16 C 0.7375(4) -0.0253(4) 0.1575(4)
H13 H 0.8303 0.0200 0.1902
C17 C 0.6516(4) -0.1023(4) 0.0136(4)
H14 H 0.6862 -0.1088 -0.0512
C18 C 0.5178(4) -0.1685(4) -0.0338(4)
H15 H 0.4599 -0.2218 -0.1310
C19 C 0.7399(4) -0.0149(4) 0.5833(4)
H16 H 0.6626 -0.0927 0.5351
H17 H 0.7921 0.0009 0.6856
C20 C 0.6607(4) 0.2425(3) 0.4345(3)
C21 C 0.6037(4) 0.6493(4) 0.3219(4)
H18 H 0.6970 0.6751 0.4085
H19 H 0.5605 0.7250 0.3260
C22 C 0.1296(4) 0.4724(4) 0.2196(4)
C23 C -0.0335(4) 0.6025(4) 0.1512(5)
H20 H -0.0664 0.6010 0.2193
H21 H -0.0976 0.5323 0.0589
O5 O 0.0147(4) 0.2694(4) 0.3742(5)
H22 H 0.067(8) 0.280(7) 0.343(7)
H23 H -0.047(8) 0.292(7) 0.314(7)
loop_
_geom_bond_atom_site_label_1
_geom_bond_atom_site_label_2
_geom_bond_site_symmetry_1
_geom_bond_site_symmetry_2
Br1 C1 1_555 1_555
S1 C13 1_555 1_555
O1 C7 1_555 1_555
O2 C10 1_555 1_555
O3 C22 1_555 1_555
O4 C22 1_555 1_555
N1 C4 1_555 1_555
N2 C10 1_555 1_555
C1 C2 1_555 1_555
C2 H1 1_555 1_555
C3 H2 1_555 1_555
C4 H3 1_555 1_555
C5 C4 1_555 1_555
C6 C3 1_555 1_555
C7 C5 1_555 1_555
C8 N1 1_555 1_555
C9 H4 1_555 1_555
H5 C9 1_555 1_555
H6 C9 1_555 1_555
C10 C19 1_555 1_555
C11 C2 1_555 1_555
C12 C8 1_555 1_555
H7 C12 1_555 1_555
C13 N2 1_555 1_555
H8 C13 1_555 1_555
C14 H9 1_555 1_555
H10 C14 1_555 1_555
H11 C14 1_555 1_555
C15 C12 1_555 1_555
H12 C15 1_555 1_555
C16 C11 1_555 1_555
H13 C16 1_555 1_555
C17 C16 1_555 1_555
H14 C17 1_555 1_555
C18 C1 1_555 1_555
H15 C18 1_555 1_555
C19 S1 1_555 1_555
H16 C19 1_555 1_555
H17 C19 1_555 1_555
C20 N2 1_555 1_555
C21 N1 1_555 1_555
H18 C21 1_555 1_555
H19 C21 1_555 1_555
C22 C5 1_555 1_555
C23 O3 1_555 1_555
H20 C23 1_555 1_555
H21 C23 1_555 1_555
O5 H22 1_555 1_555
H23 O5 1_555 1_555
C3 C20 1_555 1_555
C6 C7 1_555 1_555
C6 C8 1_555 1_555
C9 C21 1_555 1_555
C11 C13 1_555 1_555
C14 C23 1_555 1_555
C15 C20 1_555 1_555
C17 C18 1_555 1_555

#END
