
#######################################################################
#
#                 Cambridge Crystallographic Data Centre
#                                CCDC 
#
#######################################################################
#
# If this CIF has been generated from an entry in the Cambridge 
# Structural Database, then it will include bibliographic, chemical, 
# crystal, experimental, refinement or atomic coordinate data resulting 
# from the CCDC's data processing and validation procedures.
#
#######################################################################

data_FOXLEK
_chemical_formula_moiety         'C18 H16 N2 O2'
_chemical_name_systematic        1,4-bis(Pyridin-3-ylmethoxy)benzene
_symmetry_cell_setting           monoclinic
_symmetry_space_group_name_H-M   'P 21/c'
_symmetry_Int_Tables_number      14
_space_group_name_Hall           '-P 2ybc'
loop_
_symmetry_equiv_pos_site_id
_symmetry_equiv_pos_as_xyz
1 x,y,z
2 -x,1/2+y,1/2-z
3 -x,-y,-z
4 x,1/2-y,1/2+z
_cell_length_a                   6.852(5)
_cell_length_b                   5.688(3)
_cell_length_c                   18.861(12)
_cell_angle_alpha                90
_cell_angle_beta                 90.60(3)
_cell_angle_gamma                90
_cell_volume                     735.052
_exptl_crystal_colour            colorless
_exptl_crystal_description       block
_cell_formula_units_Z            2
_exptl_crystal_recrystallization_method methanol
loop_
_atom_site_label
_atom_site_type_symbol
_atom_site_fract_x
_atom_site_fract_y
_atom_site_fract_z
C1 C 0.8460(2) -0.0288(3) 0.20865(8)
H1 H 0.9650 -0.0611 0.2307
C2 C 0.7721(2) -0.1906(3) 0.16191(8)
H2 H 0.8404 -0.3281 0.1524
C3 C 0.5951(2) -0.1469(3) 0.12921(8)
H3 H 0.5422 -0.2545 0.0972
C4 C 0.49744(18) 0.0588(2) 0.14460(7)
C5 C 0.5857(2) 0.2119(3) 0.19208(7)
H4 H 0.5213 0.3517 0.2022
C6 C 0.30072(19) 0.1158(3) 0.11378(7)
H5 H 0.2437 -0.0233 0.0922
H6 H 0.2144 0.1704 0.1507
C7 C 0.15874(17) 0.3913(2) 0.03246(7)
C8 C -0.02824(18) 0.3034(3) 0.04198(7)
H7 H -0.0477 0.1710 0.0700
C9 C -0.18583(18) 0.4142(3) 0.00955(7)
H8 H -0.3112 0.3563 0.0163
N1 N 0.75686(17) 0.1729(2) 0.22431(7)
O1 O 0.32526(13) 0.29466(19) 0.06180(5)
C1B C -0.8460(2) 1.0288(3) -0.20865(8)
H1B H -0.9650 1.0611 -0.2307
C2B C -0.7721(2) 1.1906(3) -0.16191(8)
H2B H -0.8404 1.3281 -0.1524
C3B C -0.5951(2) 1.1469(3) -0.12921(8)
H3B H -0.5422 1.2545 -0.0972
C4B C -0.49744(18) 0.9412(2) -0.14460(7)
C5B C -0.5857(2) 0.7881(3) -0.19208(7)
H4B H -0.5213 0.6483 -0.2022
C6B C -0.30072(19) 0.8842(3) -0.11378(7)
H5B H -0.2437 1.0233 -0.0922
H6B H -0.2144 0.8296 -0.1507
C7B C -0.15874(17) 0.6087(2) -0.03246(7)
C8B C 0.02824(18) 0.6966(3) -0.04198(7)
H7B H 0.0477 0.8290 -0.0700
C9B C 0.18583(18) 0.5858(3) -0.00955(7)
H8B H 0.3112 0.6437 -0.0163
N1B N -0.75686(17) 0.8271(2) -0.22431(7)
O1B O -0.32526(13) 0.70534(19) -0.06180(5)
loop_
_geom_bond_atom_site_label_1
_geom_bond_atom_site_label_2
_geom_bond_site_symmetry_1
_geom_bond_site_symmetry_2
C1 H1 1_555 1_555
C2 C1 1_555 1_555
H2 C2 1_555 1_555
C3 C2 1_555 1_555
H3 C3 1_555 1_555
C4 C3 1_555 1_555
C5 C4 1_555 1_555
H4 C5 1_555 1_555
C6 C4 1_555 1_555
H5 C6 1_555 1_555
H6 C6 1_555 1_555
C7 C8 1_555 1_555
C8 H7 1_555 1_555
C9 C8 1_555 1_555
H8 C9 1_555 1_555
N1 C1 1_555 1_555
O1 C6 1_555 1_555
C1B H1B 1_555 1_555
C2B C1B 1_555 1_555
H2B C2B 1_555 1_555
C3B C2B 1_555 1_555
H3B C3B 1_555 1_555
C4B C3B 1_555 1_555
C5B C4B 1_555 1_555
H4B C5B 1_555 1_555
C6B C4B 1_555 1_555
H5B C6B 1_555 1_555
H6B C6B 1_555 1_555
C7B C9 1_555 1_555
C8B C7B 1_555 1_555
H7B C8B 1_555 1_555
C9B C7 1_555 1_555
H8B C9B 1_555 1_555
N1B C1B 1_555 1_555
O1B C6B 1_555 1_555
C5 N1 1_555 1_555
C7 O1 1_555 1_555
C5B N1B 1_555 1_555
C7B O1B 1_555 1_555
C8B C9B 1_555 1_555

#END
