
#######################################################################
#
#                 Cambridge Crystallographic Data Centre
#                                CCDC 
#
#######################################################################
#
# If this CIF has been generated from an entry in the Cambridge 
# Structural Database, then it will include bibliographic, chemical, 
# crystal, experimental, refinement or atomic coordinate data resulting 
# from the CCDC's data processing and validation procedures.
#
#######################################################################

data_FOXRIU
_chemical_formula_moiety         'C20 H23 N1 O3'
_chemical_name_systematic        
(4aS,5R,13bS)-11,12-Dimethoxy-5-vinyl-1,2,4a,5,8,9-hexahydroindolo[7a,1-a]isoquinolin-6-one
_symmetry_cell_setting           monoclinic
_symmetry_space_group_name_H-M   'P 21/n'
_symmetry_Int_Tables_number      14
_space_group_name_Hall           '-P 2yn'
loop_
_symmetry_equiv_pos_site_id
_symmetry_equiv_pos_as_xyz
1 x,y,z
2 1/2-x,1/2+y,1/2-z
3 -x,-y,-z
4 1/2+x,1/2-y,1/2+z
_cell_length_a                   9.2919(8)
_cell_length_b                   13.7266(12)
_cell_length_c                   12.8144(10)
_cell_angle_alpha                90
_cell_angle_beta                 92.825(2)
_cell_angle_gamma                90
_cell_volume                     1632.44
_exptl_crystal_colour            colorless
_exptl_crystal_description       tablet
_cell_formula_units_Z            4
loop_
_atom_site_label
_atom_site_type_symbol
_atom_site_fract_x
_atom_site_fract_y
_atom_site_fract_z
C1 C 0.30250(15) 0.66446(10) 0.68674(11)
H1 H 0.3080 0.7266 0.6545
C2 C 0.17301(15) 0.62997(11) 0.70520(11)
H2 H 0.0912 0.6670 0.6821
C3 C 0.14886(14) 0.53618(11) 0.76032(11)
H3 H 0.1204 0.4854 0.7085
H4 H 0.0690 0.5442 0.8080
C4 C 0.28411(14) 0.50336(11) 0.82299(10)
H5 H 0.2706 0.4356 0.8470
H6 H 0.2981 0.5452 0.8856
C5 C 0.42070(13) 0.50839(10) 0.75868(9)
C6 C 0.44113(14) 0.61185(10) 0.71349(10)
H7 H 0.4918 0.6040 0.6469
C7 C 0.54756(14) 0.66393(10) 0.79204(11)
H8 H 0.6186 0.7018 0.7522
O1 O 0.73872(12) 0.58446(8) 0.90076(9)
C8 C 0.62535(15) 0.57909(11) 0.84757(11)
N1 N 0.54856(11) 0.49768(8) 0.82913(8)
C9 C 0.58609(15) 0.40134(10) 0.86916(11)
H9 H 0.5052 0.3744 0.9075
H10 H 0.6716 0.4057 0.9181
C10 C 0.61821(14) 0.33519(10) 0.77853(10)
H11 H 0.6182 0.2667 0.8026
H12 H 0.7157 0.3501 0.7550
C11 C 0.50954(13) 0.34647(9) 0.68709(10)
C12 C 0.50315(13) 0.27481(9) 0.60911(10)
H13 H 0.5619 0.2184 0.6173
C13 C 0.41327(13) 0.28439(9) 0.52051(10)
C14 C 0.32949(13) 0.36938(9) 0.50732(9)
C15 C 0.33404(13) 0.43952(9) 0.58382(10)
H14 H 0.2765 0.4964 0.5746
C16 C 0.42204(13) 0.42895(9) 0.67561(10)
O2 O 0.39919(10) 0.21870(7) 0.44062(7)
C17 C 0.47685(16) 0.12958(10) 0.45252(12)
H15 H 0.4579 0.0888 0.3906
H16 H 0.4458 0.0951 0.5145
H17 H 0.5803 0.1435 0.4607
O3 O 0.24817(9) 0.37577(7) 0.41491(7)
C18 C 0.19139(15) 0.46932(10) 0.38854(11)
H18 H 0.1356 0.4655 0.3217
H19 H 0.2707 0.5157 0.3825
H20 H 0.1287 0.4912 0.4432
C19 C 0.48133(16) 0.73052(11) 0.87013(11)
H21 H 0.3798 0.7273 0.8755
C20 C 0.55079(19) 0.79137(12) 0.93008(14)
H22 H 0.6524 0.7970 0.9272
H23 H 0.5004 0.8307 0.9772
loop_
_geom_bond_atom_site_label_1
_geom_bond_atom_site_label_2
_geom_bond_site_symmetry_1
_geom_bond_site_symmetry_2
C1 H1 1_555 1_555
C2 C1 1_555 1_555
H2 C2 1_555 1_555
C3 C2 1_555 1_555
H3 C3 1_555 1_555
H4 C3 1_555 1_555
C4 C3 1_555 1_555
H5 C4 1_555 1_555
H6 C4 1_555 1_555
C5 C4 1_555 1_555
C6 C1 1_555 1_555
H7 C6 1_555 1_555
C7 C6 1_555 1_555
H8 C7 1_555 1_555
O1 C8 1_555 1_555
C8 C7 1_555 1_555
N1 C5 1_555 1_555
C9 N1 1_555 1_555
H9 C9 1_555 1_555
H10 C9 1_555 1_555
C10 C9 1_555 1_555
H11 C10 1_555 1_555
H12 C10 1_555 1_555
C11 C10 1_555 1_555
C12 C11 1_555 1_555
H13 C12 1_555 1_555
C13 C12 1_555 1_555
C14 C13 1_555 1_555
C15 C14 1_555 1_555
H14 C15 1_555 1_555
C16 C5 1_555 1_555
O2 C13 1_555 1_555
C17 O2 1_555 1_555
H15 C17 1_555 1_555
H16 C17 1_555 1_555
H17 C17 1_555 1_555
O3 C14 1_555 1_555
C18 O3 1_555 1_555
H18 C18 1_555 1_555
H19 C18 1_555 1_555
H20 C18 1_555 1_555
C19 C7 1_555 1_555
H21 C19 1_555 1_555
C20 C19 1_555 1_555
H22 C20 1_555 1_555
H23 C20 1_555 1_555
C5 C6 1_555 1_555
C8 N1 1_555 1_555
C11 C16 1_555 1_555
C15 C16 1_555 1_555

#END
