
#######################################################################
#
#                 Cambridge Crystallographic Data Centre
#                                CCDC 
#
#######################################################################
#
# If this CIF has been generated from an entry in the Cambridge 
# Structural Database, then it will include bibliographic, chemical, 
# crystal, experimental, refinement or atomic coordinate data resulting 
# from the CCDC's data processing and validation procedures.
#
#######################################################################

data_FOXRAN
_chemical_formula_moiety         'C23 H20 Br1 Cl1 N2 O7 S1'
_chemical_name_systematic        
'2-(4-Chlorobenzyl)-4-(2,4-dinitrophenyl)butyl 4-bromobenzenesulfonate'
_symmetry_cell_setting           monoclinic
_symmetry_space_group_name_H-M   'P 21'
_symmetry_Int_Tables_number      4
_space_group_name_Hall           'P 2yb'
loop_
_symmetry_equiv_pos_site_id
_symmetry_equiv_pos_as_xyz
1 x,y,z
2 -x,1/2+y,-z
_cell_length_a                   8.2161(16)
_cell_length_b                   8.7777(18)
_cell_length_c                   17.239(3)
_cell_angle_alpha                90
_cell_angle_beta                 92.12(3)
_cell_angle_gamma                90
_cell_volume                     1242.4
_exptl_crystal_colour            colorless
_exptl_crystal_description       prismatic
_cell_formula_units_Z            2
loop_
_atom_site_label
_atom_site_type_symbol
_atom_site_fract_x
_atom_site_fract_y
_atom_site_fract_z
S1 S -0.21700(7) 0.04562(7) 0.33688(3)
Br1 Br -0.40071(4) -0.02346(3) -0.024439(16)
Cl1 Cl 0.09604(12) -0.02364(12) -0.07928(4)
O1 O 0.0551(4) 0.1025(6) 0.6524(2)
O2 O 0.0519(4) 0.0708(7) 0.53164(19)
O3 O 0.5218(4) -0.0336(6) 0.80204(13)
O4 O 0.7580(4) -0.0346(5) 0.75342(15)
O5 O -0.02943(19) 0.01656(18) 0.34179(9)
O6 O -0.2512(3) 0.1974(2) 0.35984(11)
O7 O -0.2842(3) -0.0774(3) 0.37810(12)
N1 N 0.1233(3) 0.0843(4) 0.59141(18)
N2 N 0.6123(4) -0.0141(3) 0.74863(13)
C1 C 0.3023(3) 0.0789(3) 0.59504(15)
C2 C 0.3950(3) 0.1196(3) 0.53165(13)
C3 C 0.5626(3) 0.1133(3) 0.54420(14)
H1 H 0.6286 0.1395 0.5036
C4 C 0.6358(3) 0.0703(3) 0.61358(14)
H2 H 0.7487 0.0666 0.6200
C5 C 0.5366(3) 0.0326(3) 0.67367(13)
C6 C 0.3724(3) 0.0376(3) 0.66564(14)
H3 H 0.3079 0.0135 0.7071
C7 C 0.3280(4) 0.1655(3) 0.45299(16)
H4 H 0.4018 0.2373 0.4300
H5 H 0.2240 0.2159 0.4584
C8 C 0.3054(3) 0.0276(3) 0.39939(14)
H6 H 0.2264 -0.0406 0.4213
H7 H 0.4080 -0.0268 0.3977
C9 C 0.2483(3) 0.0679(3) 0.31596(14)
H8 H 0.3226 0.1455 0.2968
C10 C 0.0783(3) 0.1349(3) 0.31279(13)
H9 H 0.0741 0.2253 0.3450
H10 H 0.0461 0.1624 0.2599
C11 C -0.2696(3) 0.0255(3) 0.23720(13)
C12 C -0.2843(4) -0.1181(3) 0.20547(17)
H11 H -0.2673 -0.2039 0.2364
C13 C -0.3243(4) -0.1335(3) 0.12764(19)
H12 H -0.3348 -0.2298 0.1056
C14 C -0.3486(3) -0.0056(3) 0.08281(14)
C15 C -0.3332(4) 0.1375(3) 0.11434(18)
H13 H -0.3489 0.2231 0.0832
C16 C -0.2945(3) 0.1536(3) 0.19218(17)
H14 H -0.2851 0.2500 0.2142
C17 C 0.2618(3) -0.0729(3) 0.26385(15)
H15 H 0.3734 -0.1089 0.2680
H16 H 0.1936 -0.1523 0.2845
C18 C 0.2158(3) -0.0544(3) 0.17842(14)
C19 C 0.1594(4) -0.1774(3) 0.13700(17)
H17 H 0.1447 -0.2691 0.1628
C20 C 0.1233(4) -0.1702(4) 0.05802(19)
H18 H 0.0877 -0.2564 0.0310
C21 C 0.1409(3) -0.0347(4) 0.02045(14)
C22 C 0.1968(4) 0.0916(3) 0.05973(16)
H19 H 0.2091 0.1836 0.0338
C23 C 0.2347(4) 0.0806(3) 0.13825(17)
H20 H 0.2738 0.1661 0.1648
loop_
_geom_bond_atom_site_label_1
_geom_bond_atom_site_label_2
_geom_bond_site_symmetry_1
_geom_bond_site_symmetry_2
S1 O5 1_555 1_555
Br1 C14 1_555 1_555
Cl1 C21 1_555 1_555
O1 N1 1_555 1_555
O2 N1 1_555 1_555
O3 N2 1_555 1_555
O4 N2 1_555 1_555
O5 C10 1_555 1_555
O6 S1 1_555 1_555
O7 S1 1_555 1_555
N1 C1 1_555 1_555
N2 C5 1_555 1_555
C1 C2 1_555 1_555
C2 C3 1_555 1_555
C3 H1 1_555 1_555
C4 C3 1_555 1_555
H2 C4 1_555 1_555
C5 C4 1_555 1_555
C6 C1 1_555 1_555
H3 C6 1_555 1_555
C7 C2 1_555 1_555
H4 C7 1_555 1_555
H5 C7 1_555 1_555
C8 C7 1_555 1_555
H6 C8 1_555 1_555
H7 C8 1_555 1_555
C9 C8 1_555 1_555
H8 C9 1_555 1_555
C10 C9 1_555 1_555
H9 C10 1_555 1_555
H10 C10 1_555 1_555
C11 S1 1_555 1_555
C12 C11 1_555 1_555
H11 C12 1_555 1_555
C13 C12 1_555 1_555
H12 C13 1_555 1_555
C14 C13 1_555 1_555
C15 C14 1_555 1_555
H13 C15 1_555 1_555
C16 C11 1_555 1_555
H14 C16 1_555 1_555
C17 C9 1_555 1_555
H15 C17 1_555 1_555
H16 C17 1_555 1_555
C18 C17 1_555 1_555
C19 C18 1_555 1_555
H17 C19 1_555 1_555
C20 C19 1_555 1_555
H18 C20 1_555 1_555
C21 C20 1_555 1_555
C22 C21 1_555 1_555
H19 C22 1_555 1_555
C23 C18 1_555 1_555
H20 C23 1_555 1_555
C5 C6 1_555 1_555
C15 C16 1_555 1_555
C22 C23 1_555 1_555

#END
