
#######################################################################
#
#                 Cambridge Crystallographic Data Centre
#                                CCDC 
#
#######################################################################
#
# If this CIF has been generated from an entry in the Cambridge 
# Structural Database, then it will include bibliographic, chemical, 
# crystal, experimental, refinement or atomic coordinate data resulting 
# from the CCDC's data processing and validation procedures.
#
#######################################################################

data_FOXTAN01
_chemical_name_common            'hydrogen diphenhydramine citrate'
_chemical_formula_moiety         'C17 H22 N1 O1 1+,C6 H7 O7 1-'
_chemical_name_systematic        
'2-(diphenylmethoxy)-N,N-dimethylethan-1-aminium 3-carboxy-2-(carboxymethyl)-2-hydroxypropanoate'
_chemical_properties_biological  
'Diphenhydramine is a first-generation H-receptor antagonist.'
_symmetry_cell_setting           monoclinic
_symmetry_space_group_name_H-M   'P 21/c'
_symmetry_Int_Tables_number      14
_space_group_name_Hall           '-P 2ybc'
loop_
_symmetry_equiv_pos_site_id
_symmetry_equiv_pos_as_xyz
1 x,y,z
2 -x,1/2+y,1/2-z
3 -x,-y,-z
4 x,1/2-y,1/2+z
_cell_length_a                   21.229(3)
_cell_length_b                   9.6695(9)
_cell_length_c                   11.1075(10)
_cell_angle_alpha                90
_cell_angle_beta                 91.327(4)
_cell_angle_gamma                90
_cell_volume                     2279.47
_exptl_crystal_colour            colorless
_exptl_crystal_description       plate
_cell_formula_units_Z            4
_exptl_crystal_recrystallization_method water
loop_
_atom_site_label
_atom_site_type_symbol
_atom_site_fract_x
_atom_site_fract_y
_atom_site_fract_z
N1 N 0.69037(5) 0.41846(10) 0.34079(8)
H1 H 0.6792(7) 0.5079(16) 0.3364(13)
O1 O 0.77949(4) 0.36246(8) 0.57717(7)
C1 C 0.88766(6) 0.21024(13) 0.62731(11)
H2 H 0.8632 0.1889 0.5582
C2 C 0.93763(7) 0.12440(15) 0.66235(14)
H3 H 0.9468 0.0457 0.6162
C3 C 0.97365(6) 0.15386(16) 0.76386(14)
H4 H 1.0075 0.0960 0.7866
C4 C 0.95989(7) 0.26805(16) 0.83160(13)
H5 H 0.9841 0.2883 0.9013
C5 C 0.91033(6) 0.35355(14) 0.79743(11)
H6 H 0.9010 0.4311 0.8449
C6 C 0.87413(5) 0.32674(11) 0.69419(9)
C7 C 0.82407(5) 0.43000(11) 0.65683(10)
H7 H 0.8020 0.4617 0.7294
C8 C 0.85239(5) 0.55446(11) 0.59481(11)
C9 C 0.89217(8) 0.53635(14) 0.49903(12)
H8 H 0.9035 0.4464 0.4757
C10 C 0.64724(8) 0.34078(15) 0.25759(14)
H9 H 0.6519 0.3747 0.1761
H10 H 0.6040 0.3538 0.2819
H11 H 0.6577 0.2431 0.2606
C11 C 0.75643(7) 0.40625(18) 0.30123(12)
H12 H 0.7701 0.3109 0.3088
H13 H 0.7834 0.4648 0.3512
H14 H 0.7590 0.4351 0.2179
C12 C 0.68201(5) 0.36935(12) 0.46698(10)
H15 H 0.6910 0.2700 0.4706
H16 H 0.6379 0.3825 0.4885
C13 C 0.72365(5) 0.44263(12) 0.55861(10)
H17 H 0.7345 0.5350 0.5294
H18 H 0.7015 0.4527 0.6346
C14 C 0.83674(7) 0.68690(14) 0.62910(19)
H19 H 0.8104 0.7011 0.6948
C15 C 0.86016(8) 0.79982(16) 0.5659(3)
H20 H 0.8490 0.8901 0.5885
C16 C 0.89927(8) 0.77989(17) 0.4714(2)
H21 H 0.9151 0.8565 0.4297
C17 C 0.91556(9) 0.64875(18) 0.43710(15)
H22 H 0.9424 0.6352 0.3720
O2 O 0.63123(4) 0.66249(8) 0.44567(6)
H23 H 0.6189(8) 0.6679(17) 0.5224(16)
O3 O 0.71801(4) 0.91271(11) 0.53281(7)
O4 O 0.70629(5) 1.01852(11) 0.35939(8)
O5 O 0.59819(4) 0.84315(8) 0.17520(6)
O6 O 0.66684(4) 0.67900(8) 0.22691(6)
O7 O 0.53041(5) 0.55420(12) 0.24959(11)
O8 O 0.44952(5) 0.58319(11) 0.36798(10)
H24 H 0.6957(9) 0.869(2) 0.5930(18)
C18 C 0.61422(5) 0.91221(10) 0.43690(8)
H25 H 0.5905 0.9825 0.3914
H26 H 0.5991 0.9130 0.5196
C19 C 0.68323(5) 0.95132(11) 0.43895(9)
H27 H 0.4375(9) 0.497(2) 0.3378(17)
C20 C 0.60018(4) 0.76864(9) 0.38059(8)
C21 C 0.62400(4) 0.76227(10) 0.25001(8)
C22 C 0.52834(5) 0.75092(11) 0.38225(9)
H28 H 0.5148 0.7548 0.4660
H29 H 0.5087 0.8288 0.3392
C23 C 0.50461(5) 0.61840(12) 0.32662(10)
loop_
_geom_bond_atom_site_label_1
_geom_bond_atom_site_label_2
_geom_bond_site_symmetry_1
_geom_bond_site_symmetry_2
N1 H1 1_555 1_555
O1 C7 1_555 1_555
C1 H2 1_555 1_555
C2 C1 1_555 1_555
H3 C2 1_555 1_555
C3 C2 1_555 1_555
H4 C3 1_555 1_555
C4 C3 1_555 1_555
H5 C4 1_555 1_555
C5 C4 1_555 1_555
H6 C5 1_555 1_555
C6 C1 1_555 1_555
C7 C6 1_555 1_555
H7 C7 1_555 1_555
C8 C7 1_555 1_555
C9 C8 1_555 1_555
H8 C9 1_555 1_555
C10 N1 1_555 1_555
H9 C10 1_555 1_555
H10 C10 1_555 1_555
H11 C10 1_555 1_555
C11 N1 1_555 1_555
H12 C11 1_555 1_555
H13 C11 1_555 1_555
H14 C11 1_555 1_555
C12 N1 1_555 1_555
H15 C12 1_555 1_555
H16 C12 1_555 1_555
C13 O1 1_555 1_555
H17 C13 1_555 1_555
H18 C13 1_555 1_555
C14 C8 1_555 1_555
H19 C14 1_555 1_555
C15 C14 1_555 1_555
H20 C15 1_555 1_555
C16 C15 1_555 1_555
H21 C16 1_555 1_555
C17 C9 1_555 1_555
H22 C17 1_555 1_555
O2 H23 1_555 1_555
O3 H24 1_555 1_555
O4 C19 1_555 1_555
O5 C21 1_555 1_555
O6 C21 1_555 1_555
O7 C23 1_555 1_555
O8 H27 1_555 1_555
C18 H25 1_555 1_555
H26 C18 1_555 1_555
C19 O3 1_555 1_555
C20 O2 1_555 1_555
C21 C20 1_555 1_555
C22 C20 1_555 1_555
H28 C22 1_555 1_555
H29 C22 1_555 1_555
C23 O8 1_555 1_555
C5 C6 1_555 1_555
C12 C13 1_555 1_555
C16 C17 1_555 1_555
C18 C19 1_555 1_555
C18 C20 1_555 1_555
C22 C23 1_555 1_555

#END
