
#######################################################################
#
#                 Cambridge Crystallographic Data Centre
#                                CCDC 
#
#######################################################################
#
# If this CIF has been generated from an entry in the Cambridge 
# Structural Database, then it will include bibliographic, chemical, 
# crystal, experimental, refinement or atomic coordinate data resulting 
# from the CCDC's data processing and validation procedures.
#
#######################################################################

data_FOXWEW
_chemical_formula_moiety         'C11 H8 Cl1 N1 O2'
_chemical_name_systematic        2-chloro-7-methoxyquinoline-3-carbaldehyde
_symmetry_cell_setting           monoclinic
_symmetry_space_group_name_H-M   'P 21/n'
_symmetry_Int_Tables_number      14
_space_group_name_Hall           '-P 2yn'
loop_
_symmetry_equiv_pos_site_id
_symmetry_equiv_pos_as_xyz
1 x,y,z
2 1/2-x,1/2+y,1/2-z
3 -x,-y,-z
4 1/2+x,1/2-y,1/2+z
_cell_length_a                   3.8274(6)
_cell_length_b                   29.579(4)
_cell_length_c                   8.6242(12)
_cell_angle_alpha                90
_cell_angle_beta                 95.352(7)
_cell_angle_gamma                90
_cell_volume                     972.095
_exptl_crystal_colour            white
_exptl_crystal_description       Block
_cell_formula_units_Z            4
loop_
_atom_site_label
_atom_site_type_symbol
_atom_site_fract_x
_atom_site_fract_y
_atom_site_fract_z
C1 C 0.5195(10) 0.77626(12) -0.5855(5)
H1 H 0.2771 0.7727 -0.5678
H2 H 0.5496 0.8041 -0.6397
H3 H 0.6604 0.7767 -0.4874
C2 C 0.6333(8) 0.69767(10) -0.6111(4)
C3 C 0.5347(8) 0.68845(10) -0.4660(3)
H4 H 0.4516 0.7113 -0.4053
C4 C 0.5611(8) 0.64394(10) -0.4105(3)
C5 C 0.6918(8) 0.60904(10) -0.5023(3)
C6 C 0.7846(9) 0.62002(11) -0.6527(3)
H5 H 0.8673 0.5976 -0.7154
C7 C 0.7535(9) 0.66312(11) -0.7060(4)
H6 H 0.8118 0.6700 -0.8057
C8 C 0.4980(8) 0.59462(10) -0.2120(3)
C9 C 0.6319(8) 0.55762(10) -0.2908(3)
C10 C 0.7259(8) 0.56597(10) -0.4384(3)
H7 H 0.8129 0.5426 -0.4958
C11 C 0.6901(10) 0.51230(11) -0.2206(4)
H8 H 0.6361 0.5056 -0.1182
N1 N 0.4629(7) 0.63550(8) -0.2638(3)
O1 O 0.8413(9) 0.48256(9) -0.2792(3)
O2 O 0.6255(7) 0.73940(8) -0.6772(3)
Cl1 Cl 0.3642(2) 0.58610(3) -0.02577(9)
loop_
_geom_bond_atom_site_label_1
_geom_bond_atom_site_label_2
_geom_bond_site_symmetry_1
_geom_bond_site_symmetry_2
C1 H1 1_555 1_555
H2 C1 1_555 1_555
H3 C1 1_555 1_555
C2 C3 1_555 1_555
C3 H4 1_555 1_555
C4 C3 1_555 1_555
C5 C4 1_555 1_555
C6 C5 1_555 1_555
H5 C6 1_555 1_555
C7 C2 1_555 1_555
H6 C7 1_555 1_555
C8 C9 1_555 1_555
C9 C10 1_555 1_555
C10 C5 1_555 1_555
H7 C10 1_555 1_555
C11 C9 1_555 1_555
H8 C11 1_555 1_555
N1 C4 1_555 1_555
O1 C11 1_555 1_555
O2 C1 1_555 1_555
Cl1 C8 1_555 1_555
C2 O2 1_555 1_555
C6 C7 1_555 1_555
C8 N1 1_555 1_555

#END
