
#######################################################################
#
#                 Cambridge Crystallographic Data Centre
#                                CCDC 
#
#######################################################################
#
# If this CIF has been generated from an entry in the Cambridge 
# Structural Database, then it will include bibliographic, chemical, 
# crystal, experimental, refinement or atomic coordinate data resulting 
# from the CCDC's data processing and validation procedures.
#
#######################################################################

data_FOZCUT
_chemical_formula_moiety         'C29 H36 N4 S1,C1 H1 Cl3'
_chemical_name_systematic        
'4,6-bis(2-(4-(Diethylamino)phenyl)vinyl)-2-(methylsulfanyl)pyrimidine chloroform solvate'
_symmetry_cell_setting           orthorhombic
_symmetry_space_group_name_H-M   'P 21 21 21'
_symmetry_Int_Tables_number      19
_space_group_name_Hall           'P 2ac 2ab'
loop_
_symmetry_equiv_pos_site_id
_symmetry_equiv_pos_as_xyz
1 x,y,z
2 1/2-x,-y,1/2+z
3 -x,1/2+y,1/2-z
4 1/2+x,1/2-y,-z
_cell_length_a                   7.5525(4)
_cell_length_b                   20.0424(11)
_cell_length_c                   21.2234(12)
_cell_angle_alpha                90
_cell_angle_beta                 90
_cell_angle_gamma                90
_cell_volume                     3212.59
_exptl_crystal_colour            purple-red
_exptl_crystal_description       prism
_cell_formula_units_Z            4
_exptl_crystal_preparation       fluorescent
loop_
_atom_site_label
_atom_site_type_symbol
_atom_site_fract_x
_atom_site_fract_y
_atom_site_fract_z
S1 S 1.05033(11) 0.11121(4) 0.43670(4)
C1 C 0.5864(4) 0.11692(13) 0.51283(12)
N1 N 0.7759(3) 0.19424(11) 0.42959(11)
N2 N 0.7510(3) 0.09745(11) 0.49487(11)
C2 C 0.8342(4) 0.13847(14) 0.45510(13)
N3 N 0.3470(5) 0.5045(2) 0.20875(16)
C3 C 0.6106(4) 0.21415(13) 0.44769(13)
C4 C 0.5552(4) 0.35953(13) 0.33227(12)
C5 C 0.5153(4) 0.17668(13) 0.49132(13)
H1 H 0.4058 0.1914 0.5058
C6 C 0.5395(4) 0.27321(13) 0.41793(13)
H2 H 0.4331 0.2906 0.4326
C7 C 0.2822(5) -0.15005(17) 0.66593(18)
C8 C 0.6376(4) 0.37434(15) 0.27484(14)
H3 H 0.7403 0.3516 0.2637
C9 C 0.5380(4) 0.00959(14) 0.56514(14)
H4 H 0.6484 -0.0019 0.5491
C10 C 0.4844(4) 0.07165(14) 0.55273(14)
H5 H 0.3785 0.0866 0.5701
C11 C 0.4163(4) 0.45766(16) 0.24957(15)
C12 C 0.4477(4) -0.04244(14) 0.60032(14)
C13 C 0.6219(4) 0.30386(14) 0.36978(13)
H6 H 0.7336 0.2878 0.3592
C14 C 0.5705(5) 0.42164(17) 0.23456(15)
H7 H 0.6281 0.4300 0.1966
C15 C 0.4069(4) 0.39705(16) 0.34773(14)
H8 H 0.3502 0.3891 0.3859
C16 C 0.2886(5) -0.03384(16) 0.63264(17)
H9 H 0.2354 0.0080 0.6325
N4 N 0.2010(5) -0.20136(16) 0.6977(2)
C17 C 0.3412(5) 0.44558(17) 0.30839(16)
H10 H 0.2445 0.4709 0.3213
C18 C 0.5198(5) -0.10671(16) 0.60154(18)
H11 H 0.6259 -0.1146 0.5806
C19 C 0.2079(5) -0.08508(16) 0.66465(18)
H12 H 0.1024 -0.0770 0.6859
C20 C 0.4390(5) -0.15863(16) 0.63260(19)
H13 H 0.4908 -0.2007 0.6313
C21 C 0.0465(6) -0.1919(2) 0.7373(2)
H14 H 0.0515 -0.1480 0.7564
H15 H 0.0474 -0.2247 0.7708
C22 C 0.1860(6) 0.5404(2) 0.2226(2)
H16 H 0.1815 0.5801 0.1965
H17 H 0.1895 0.5549 0.2662
C23 C 1.1188(6) 0.1732(2) 0.3813(2)
H18 H 1.0448 0.1710 0.3446
H19 H 1.2397 0.1654 0.3694
H20 H 1.1088 0.2166 0.4001
C24 C 0.0217(7) 0.5012(3) 0.2124(3)
H21 H 0.0174 0.4862 0.1695
H22 H -0.0795 0.5288 0.2210
H23 H 0.0209 0.4634 0.2402
C25 C -0.1217(8) -0.1983(3) 0.7005(3)
H24 H -0.1252 -0.1647 0.6684
H25 H -0.2210 -0.1929 0.7282
H26 H -0.1267 -0.2417 0.6813
C26 C 0.2593(8) -0.2726(3) 0.6867(4)
H27 H 0.1565 -0.3014 0.6897
H28 H 0.3050 -0.2763 0.6441
C27 C 0.5114(12) 0.5386(4) 0.1343(4)
H29 H 0.4563 0.5814 0.1393
H30 H 0.5783 0.5380 0.0958
H31 H 0.5891 0.5303 0.1692
C28 C 0.3934(7) 0.4937(4) 0.1323(4)
H32 H 0.4398 0.4497 0.1226
H33 H 0.2953 0.5046 0.1046
C29 C 0.3853(12) -0.2953(4) 0.7275(5)
H34 H 0.4801 -0.2635 0.7300
H35 H 0.4307 -0.3372 0.7128
H36 H 0.3339 -0.3011 0.7685
C30 C 0.1327(8) 0.8659(3) 0.4934(2)
H37 H 0.2200 0.8719 0.5271
Cl1 Cl 0.0012(4) 0.79996(13) 0.51370(12)
Cl2 Cl 0.0137(5) 0.93923(13) 0.48706(15)
Cl3 Cl 0.2434(4) 0.84773(19) 0.42732(13)
loop_
_geom_bond_atom_site_label_1
_geom_bond_atom_site_label_2
_geom_bond_site_symmetry_1
_geom_bond_site_symmetry_2
S1 C2 1_555 1_555
C1 N2 1_555 1_555
N1 C2 1_555 1_555
N2 C2 1_555 1_555
N3 C11 1_555 1_555
C3 N1 1_555 1_555
C4 C8 1_555 1_555
C5 C1 1_555 1_555
H1 C5 1_555 1_555
C6 C3 1_555 1_555
H2 C6 1_555 1_555
C7 N4 1_555 1_555
C8 H3 1_555 1_555
C9 H4 1_555 1_555
C10 C1 1_555 1_555
H5 C10 1_555 1_555
C11 C14 1_555 1_555
C12 C9 1_555 1_555
C13 C4 1_555 1_555
H6 C13 1_555 1_555
C14 C8 1_555 1_555
H7 C14 1_555 1_555
C15 C4 1_555 1_555
H8 C15 1_555 1_555
C16 C12 1_555 1_555
H9 C16 1_555 1_555
N4 C21 1_555 1_555
C17 C11 1_555 1_555
H10 C17 1_555 1_555
C18 C12 1_555 1_555
H11 C18 1_555 1_555
C19 C7 1_555 1_555
H12 C19 1_555 1_555
C20 C7 1_555 1_555
H13 C20 1_555 1_555
C21 H14 1_555 1_555
H15 C21 1_555 1_555
C22 N3 1_555 1_555
H16 C22 1_555 1_555
H17 C22 1_555 1_555
C23 S1 1_555 1_555
H18 C23 1_555 1_555
H19 C23 1_555 1_555
H20 C23 1_555 1_555
C24 C22 1_555 1_555
H21 C24 1_555 1_555
H22 C24 1_555 1_555
H23 C24 1_555 1_555
C25 C21 1_555 1_555
H24 C25 1_555 1_555
H25 C25 1_555 1_555
H26 C25 1_555 1_555
C26 N4 1_555 1_555
H27 C26 1_555 1_555
H28 C26 1_555 1_555
C27 H29 1_555 1_555
H30 C27 1_555 1_555
H31 C27 1_555 1_555
C28 N3 1_555 1_555
H32 C28 1_555 1_555
H33 C28 1_555 1_555
C29 C26 1_555 1_555
H34 C29 1_555 1_555
H35 C29 1_555 1_555
H36 C29 1_555 1_555
C30 H37 1_555 1_555
Cl1 C30 1_555 1_555
Cl2 C30 1_555 1_555
Cl3 C30 1_555 1_555
C3 C5 1_555 1_555
C6 C13 1_555 1_555
C9 C10 1_555 1_555
C15 C17 1_555 1_555
C16 C19 1_555 1_555
C18 C20 1_555 1_555
C27 C28 1_555 1_555

#END
