
#######################################################################
#
#                 Cambridge Crystallographic Data Centre
#                                CCDC 
#
#######################################################################
#
# If this CIF has been generated from an entry in the Cambridge 
# Structural Database, then it will include bibliographic, chemical, 
# crystal, experimental, refinement or atomic coordinate data resulting 
# from the CCDC's data processing and validation procedures.
#
#######################################################################

data_FOZMUD
_chemical_formula_moiety         'C15 H14 F1 N3 O6,C3 H7 N1 O1'
_chemical_name_systematic        
'(R)-2-(2-(5-Fluoro-2,4-dioxo-3,4-dihydropyrimidin-1(2H)-yl)acetamido)-3-(4-hydroxyphenyl)propanoic acid dimethylformamide solvate'
_symmetry_cell_setting           orthorhombic
_symmetry_space_group_name_H-M   'P 21 21 21'
_symmetry_Int_Tables_number      19
_space_group_name_Hall           'P 2ac 2ab'
loop_
_symmetry_equiv_pos_site_id
_symmetry_equiv_pos_as_xyz
1 x,y,z
2 1/2-x,-y,1/2+z
3 -x,1/2+y,1/2-z
4 1/2+x,1/2-y,-z
_cell_length_a                   4.8774(3)
_cell_length_b                   15.4880(10)
_cell_length_c                   25.4480(17)
_cell_angle_alpha                90
_cell_angle_beta                 90
_cell_angle_gamma                90
_cell_volume                     1922.37
_exptl_crystal_colour            colorless
_exptl_crystal_description       prism
_cell_formula_units_Z            4
loop_
_atom_site_label
_atom_site_type_symbol
_atom_site_fract_x
_atom_site_fract_y
_atom_site_fract_z
F1 F 0.2572(14) 0.5860(4) 0.1810(2)
O1 O 0.7985(18) 0.7900(4) 0.0471(2)
O2 O 0.1412(18) 0.5863(5) 0.0753(3)
O3 O 0.5197(11) 0.8944(4) 0.1562(2)
O4 O 0.9429(17) 1.1881(4) 0.1908(3)
H1 H 1.0637 1.2195 0.2025
O5 O 1.2191(14) 1.0845(4) 0.2183(3)
O6 O 1.5415(18) 1.0893(5) -0.0406(3)
H2 H 1.5989 1.0409 -0.0477
N1 N 0.7352(14) 0.7409(4) 0.1304(2)
N2 N 0.4695(19) 0.6883(5) 0.0620(3)
H3 H 0.4290 0.6890 0.0292
N3 N 0.9264(14) 0.9596(4) 0.1676(3)
H4 H 1.0995 0.9522 0.1721
C1 C 0.6760(19) 0.7431(5) 0.0773(3)
C2 C 0.3188(19) 0.6324(5) 0.0927(4)
C3 C 0.398(2) 0.6367(6) 0.1476(4)
C4 C 0.591(2) 0.6895(5) 0.1645(3)
H5 H 0.6299 0.6920 0.2002
C5 C 0.9210(17) 0.8072(5) 0.1505(3)
H6 H 1.0697 0.8162 0.1258
H7 H 0.9993 0.7882 0.1836
C6 C 0.7674(16) 0.8911(5) 0.1587(3)
C7 C 0.8138(17) 1.0467(5) 0.1698(3)
H8 H 0.6530 1.0445 0.1928
C8 C 1.019(2) 1.1065(5) 0.1956(3)
C9 C 0.7128(19) 1.0769(6) 0.1155(3)
H9 H 0.5687 1.0384 0.1037
H10 H 0.6339 1.1341 0.1190
C10 C 0.9335(18) 1.0797(5) 0.0744(3)
C11 C 1.063(2) 1.1565(6) 0.0605(3)
H11 H 1.0129 1.2073 0.0774
C12 C 1.263(2) 1.1594(6) 0.0223(4)
H12 H 1.3437 1.2117 0.0133
C13 C 1.343(2) 1.0833(6) -0.0027(3)
C14 C 1.216(2) 1.0068(6) 0.0100(3)
H13 H 1.2664 0.9560 -0.0069
C15 C 1.015(2) 1.0056(6) 0.0476(3)
H14 H 0.9295 0.9535 0.0555
O7 O 0.288(2) 0.3032(5) 0.2284(3)
N4 N 0.5756(19) 0.3754(5) 0.1736(3)
C16 C 0.502(3) 0.3312(10) 0.1266(5)
H15 H 0.6612 0.3029 0.1124
H16 H 0.4332 0.3719 0.1014
H17 H 0.3638 0.2890 0.1342
C17 C 0.784(3) 0.4418(9) 0.1678(6)
H18 H 0.8031 0.4728 0.2002
H19 H 0.7303 0.4811 0.1405
H20 H 0.9555 0.4155 0.1587
C18 C 0.470(4) 0.3587(9) 0.2189(5)
H21 H 0.5345 0.3906 0.2473
loop_
_geom_bond_atom_site_label_1
_geom_bond_atom_site_label_2
_geom_bond_site_symmetry_1
_geom_bond_site_symmetry_2
F1 C3 1_555 1_555
O1 C1 1_555 1_555
O2 C2 1_555 1_555
O3 C6 1_555 1_555
O4 H1 1_555 1_555
O5 C8 1_555 1_555
O6 H2 1_555 1_555
O7 C18 1_555 1_555
N1 C1 1_555 1_555
N2 H3 1_555 1_555
N3 H4 1_555 1_555
N4 C16 1_555 1_555
C1 N2 1_555 1_555
C2 N2 1_555 1_555
C3 C2 1_555 1_555
C4 N1 1_555 1_555
H5 C4 1_555 1_555
C5 N1 1_555 1_555
H6 C5 1_555 1_555
H7 C5 1_555 1_555
C6 N3 1_555 1_555
C7 N3 1_555 1_555
H8 C7 1_555 1_555
C8 O4 1_555 1_555
C9 C7 1_555 1_555
H9 C9 1_555 1_555
H10 C9 1_555 1_555
C10 C9 1_555 1_555
C11 C10 1_555 1_555
H11 C11 1_555 1_555
C12 C11 1_555 1_555
H12 C12 1_555 1_555
C13 O6 1_555 1_555
C14 C13 1_555 1_555
H13 C14 1_555 1_555
C15 C10 1_555 1_555
H14 C15 1_555 1_555
C16 H15 1_555 1_555
H16 C16 1_555 1_555
H17 C16 1_555 1_555
C17 N4 1_555 1_555
H18 C17 1_555 1_555
H19 C17 1_555 1_555
H20 C17 1_555 1_555
C18 N4 1_555 1_555
H21 C18 1_555 1_555
C3 C4 1_555 1_555
C5 C6 1_555 1_555
C7 C8 1_555 1_555
C12 C13 1_555 1_555
C14 C15 1_555 1_555

#END
