
#######################################################################
#
#                 Cambridge Crystallographic Data Centre
#                                CCDC 
#
#######################################################################
#
# If this CIF has been generated from an entry in the Cambridge 
# Structural Database, then it will include bibliographic, chemical, 
# crystal, experimental, refinement or atomic coordinate data resulting 
# from the CCDC's data processing and validation procedures.
#
#######################################################################

data_FOZPAM
_chemical_formula_moiety         'C35 H22 S2'
_chemical_name_systematic        
4,7-Diphenyl-8-(phenylethynyl)-5-(2-thienyl)-7H-indeno[5,6-b]thiophene
_symmetry_cell_setting           triclinic
_symmetry_space_group_name_H-M   'P -1'
_symmetry_Int_Tables_number      2
_space_group_name_Hall           '-P 1'
loop_
_symmetry_equiv_pos_site_id
_symmetry_equiv_pos_as_xyz
1 x,y,z
2 -x,-y,-z
_cell_length_a                   10.4462(3)
_cell_length_b                   11.3402(3)
_cell_length_c                   12.9205(4)
_cell_angle_alpha                72.464(1)
_cell_angle_beta                 70.535(1)
_cell_angle_gamma                66.002(1)
_cell_volume                     1293.72
_cell_formula_units_Z            2
loop_
_atom_site_label
_atom_site_type_symbol
_atom_site_fract_x
_atom_site_fract_y
_atom_site_fract_z
S1 S 0.54151(5) 0.40165(4) 0.88280(4)
S2 S 0.65357(5) -0.32509(4) 0.76434(5)
C1 C 0.62958(18) -0.06341(16) 0.71163(14)
C2 C 0.54460(18) -0.00827(16) 0.63989(14)
H1 H 0.5329 -0.0559 0.5965
C3 C 0.46924(18) 0.13779(16) 0.63511(14)
H2 H 0.5057 0.1857 0.5592
C4 C 0.52458(17) 0.15980(15) 0.71955(14)
C5 C 0.49886(17) 0.27714(15) 0.74723(14)
C6 C 0.56428(17) 0.26986(15) 0.82911(14)
C7 C 0.65403(17) 0.15084(16) 0.87989(14)
C8 C 0.68286(16) 0.03152(15) 0.84815(13)
C9 C 0.61806(17) 0.03859(15) 0.76753(14)
C10 C 0.70188(19) 0.17150(18) 0.96351(15)
H3 H 0.7632 0.1031 1.0071
C11 C 0.6495(2) 0.29929(19) 0.97278(18)
H4 H 0.6703 0.3298 1.0241
C12 C 0.72545(18) -0.20183(16) 0.72615(14)
C13 C 0.87487(19) -0.25253(16) 0.70894(14)
H5 H 0.9347 -0.2005 0.6873
C14 C 0.9267(2) -0.39250(18) 0.72794(17)
H6 H 1.0260 -0.4444 0.7206
C15 C 0.8198(2) -0.44465(18) 0.75764(19)
H7 H 0.8358 -0.5362 0.7727
C16 C 0.30593(18) 0.17778(16) 0.65877(14)
C17 C 0.2268(2) 0.14156(19) 0.76598(16)
H8 H 0.2737 0.0980 0.8256
C18 C 0.0789(2) 0.1693(2) 0.78568(18)
H9 H 0.0253 0.1448 0.8590
C19 C 0.0095(2) 0.2321(2) 0.6999(2)
H10 H -0.0910 0.2491 0.7134
C20 C 0.0873(2) 0.2698(2) 0.5944(2)
H11 H 0.0399 0.3146 0.5352
C21 C 0.2349(2) 0.24272(19) 0.57386(16)
H12 H 0.2874 0.2692 0.5007
C22 C 0.41662(18) 0.40394(16) 0.69523(15)
C23 C 0.36028(19) 0.51641(16) 0.65579(15)
C24 C 0.29578(17) 0.65338(16) 0.61259(15)
C25 C 0.23980(18) 0.69493(17) 0.51833(15)
H13 H 0.2431 0.6321 0.4819
C26 C 0.17923(19) 0.82852(18) 0.47810(16)
H14 H 0.1411 0.8568 0.4140
C27 C 0.17407(18) 0.92028(17) 0.53059(17)
H15 H 0.1321 1.0114 0.5026
C28 C 0.2297(2) 0.88040(17) 0.62385(17)
H16 H 0.2257 0.9440 0.6599
C29 C 0.2914(2) 0.74725(17) 0.66451(16)
H17 H 0.3309 0.7198 0.7278
C30 C 0.77928(17) -0.09326(15) 0.90223(13)
C31 C 0.92469(19) -0.11169(17) 0.88545(16)
H18 H 0.9616 -0.0436 0.8412
C32 C 1.0156(2) -0.22957(19) 0.93339(18)
H19 H 1.1150 -0.2423 0.9202
C33 C 0.9625(2) -0.32822(18) 0.99999(16)
H20 H 1.0248 -0.4081 1.0334
C34 C 0.8178(2) -0.31019(18) 1.01788(16)
H21 H 0.7810 -0.3780 1.0635
C35 C 0.72667(19) -0.19331(17) 0.96925(14)
H22 H 0.6277 -0.1816 0.9818
loop_
_geom_bond_atom_site_label_1
_geom_bond_atom_site_label_2
_geom_bond_site_symmetry_1
_geom_bond_site_symmetry_2
S1 C6 1_555 1_555
S2 C12 1_555 1_555
C1 C2 1_555 1_555
C2 H1 1_555 1_555
C3 C2 1_555 1_555
H2 C3 1_555 1_555
C4 C3 1_555 1_555
C5 C4 1_555 1_555
C6 C5 1_555 1_555
C7 C6 1_555 1_555
C8 C7 1_555 1_555
C9 C1 1_555 1_555
C10 C7 1_555 1_555
H3 C10 1_555 1_555
C11 S1 1_555 1_555
H4 C11 1_555 1_555
C12 C1 1_555 1_555
C13 C12 1_555 1_555
H5 C13 1_555 1_555
C14 C13 1_555 1_555
H6 C14 1_555 1_555
C15 S2 1_555 1_555
H7 C15 1_555 1_555
C16 C3 1_555 1_555
C17 C16 1_555 1_555
H8 C17 1_555 1_555
C18 C17 1_555 1_555
H9 C18 1_555 1_555
C19 C18 1_555 1_555
H10 C19 1_555 1_555
C20 C19 1_555 1_555
H11 C20 1_555 1_555
C21 C16 1_555 1_555
H12 C21 1_555 1_555
C22 C5 1_555 1_555
C23 C22 1_555 1_555
C24 C23 1_555 1_555
C25 C24 1_555 1_555
H13 C25 1_555 1_555
C26 C25 1_555 1_555
H14 C26 1_555 1_555
C27 C26 1_555 1_555
H15 C27 1_555 1_555
C28 C27 1_555 1_555
H16 C28 1_555 1_555
C29 C24 1_555 1_555
H17 C29 1_555 1_555
C30 C8 1_555 1_555
C31 C30 1_555 1_555
H18 C31 1_555 1_555
C32 C31 1_555 1_555
H19 C32 1_555 1_555
C33 C32 1_555 1_555
H20 C33 1_555 1_555
C34 C33 1_555 1_555
H21 C34 1_555 1_555
C35 C30 1_555 1_555
H22 C35 1_555 1_555
C4 C9 1_555 1_555
C8 C9 1_555 1_555
C10 C11 1_555 1_555
C14 C15 1_555 1_555
C20 C21 1_555 1_555
C28 C29 1_555 1_555
C34 C35 1_555 1_555

#END
