
#######################################################################
#
#                 Cambridge Crystallographic Data Centre
#                                CCDC 
#
#######################################################################
#
# If this CIF has been generated from an entry in the Cambridge 
# Structural Database, then it will include bibliographic, chemical, 
# crystal, experimental, refinement or atomic coordinate data resulting 
# from the CCDC's data processing and validation procedures.
#
#######################################################################

data_FUBCIQ
_chemical_formula_moiety         'C26 H25 Br1 N2 O1'
_chemical_name_systematic        
N-(2-(Adamantan-1-yl)quinolin-8-yl)-4-bromobenzamide
_symmetry_cell_setting           monoclinic
_symmetry_space_group_name_H-M   'I 2/c'
_symmetry_Int_Tables_number      15
_space_group_name_Hall           '-I 2yc'
loop_
_symmetry_equiv_pos_site_id
_symmetry_equiv_pos_as_xyz
1 x,y,z
2 -x,y,1/2-z
3 1/2+x,1/2+y,1/2+z
4 1/2-x,1/2+y,-z
5 -x,-y,-z
6 x,-y,1/2+z
7 1/2-x,1/2-y,1/2-z
8 1/2+x,1/2-y,z
_cell_length_a                   30.6160(15)
_cell_length_b                   6.6330(2)
_cell_length_c                   20.9653(10)
_cell_angle_alpha                90
_cell_angle_beta                 93.234(4)
_cell_angle_gamma                90
_cell_volume                     4250.77
_exptl_crystal_colour            colorless
_exptl_crystal_description       needle
_cell_formula_units_Z            8
loop_
_atom_site_label
_atom_site_type_symbol
_atom_site_fract_x
_atom_site_fract_y
_atom_site_fract_z
Br1 Br 0.42865(2) 1.79125(5) 0.31802(2)
O1 O 0.27865(8) 1.0338(3) 0.28476(9)
N1 N 0.33908(5) 0.7068(2) 0.47689(8)
N2 N 0.30956(6) 0.9325(3) 0.37965(8)
H1 H 0.3284 0.9667 0.4097
C1 C 0.35559(6) 0.5988(3) 0.52509(9)
C2 C 0.33711(8) 0.4101(4) 0.54127(11)
H2 H 0.3493 0.3364 0.5756
C3 C 0.30164(8) 0.3372(3) 0.50663(12)
H3 H 0.2896 0.2137 0.5172
C4 C 0.28324(7) 0.4492(3) 0.45483(10)
C5 C 0.24664(7) 0.3838(4) 0.41555(11)
H4 H 0.2329 0.2623 0.4240
C6 C 0.23179(7) 0.4998(4) 0.36567(11)
H5 H 0.2080 0.4553 0.3398
C7 C 0.25126(7) 0.6853(4) 0.35190(11)
H6 H 0.2402 0.7621 0.3175
C8 C 0.28674(7) 0.7539(3) 0.38925(9)
C9 C 0.30330(6) 0.6348(3) 0.44198(9)
C10 C 0.39608(6) 0.6767(3) 0.56291(9)
C11 C 0.41159(7) 0.8815(3) 0.53793(11)
H7 H 0.3885 0.9806 0.5409
H8 H 0.4182 0.8689 0.4934
C12 C 0.45277(8) 0.9520(4) 0.57750(12)
H9 H 0.4623 1.0825 0.5613
C13 C 0.44219(10) 0.9739(4) 0.64687(13)
H10 H 0.4189 1.0718 0.6505
H11 H 0.4678 1.0219 0.6717
C14 C 0.42799(11) 0.7716(5) 0.67271(12)
H12 H 0.4216 0.7852 0.7178
C15 C 0.38671(9) 0.7010(5) 0.63361(12)
H13 H 0.3770 0.5732 0.6503
H14 H 0.3635 0.7987 0.6377
C16 C 0.46410(11) 0.6146(5) 0.66574(14)
H15 H 0.4901 0.6550 0.6910
H16 H 0.4546 0.4853 0.6816
C17 C 0.47463(8) 0.5946(4) 0.59654(14)
H17 H 0.4981 0.4958 0.5926
C18 C 0.43352(7) 0.5245(4) 0.55744(12)
H18 H 0.4245 0.3939 0.5728
H19 H 0.4401 0.5101 0.5130
C19 C 0.48885(9) 0.7977(4) 0.57098(14)
H20 H 0.5152 0.8424 0.5947
H21 H 0.4953 0.7844 0.5264
C20 C 0.30569(7) 1.0590(3) 0.32872(10)
C21 C 0.33644(7) 1.2341(3) 0.32922(9)
C22 C 0.32719(8) 1.3867(4) 0.28476(10)
H22 H 0.3025 1.3764 0.2570
C23 C 0.35402(8) 1.5524(4) 0.28130(11)
H23 H 0.3475 1.6540 0.2517
C24 C 0.39077(7) 1.5656(3) 0.32233(11)
C25 C 0.40057(7) 1.4184(4) 0.36732(11)
H24 H 0.4252 1.4301 0.3950
C26 C 0.37341(7) 1.2540(4) 0.37069(11)
H25 H 0.3798 1.1547 0.4011
loop_
_geom_bond_atom_site_label_1
_geom_bond_atom_site_label_2
_geom_bond_site_symmetry_1
_geom_bond_site_symmetry_2
Br1 C24 1_555 1_555
O1 C20 1_555 1_555
N1 C1 1_555 1_555
N2 H1 1_555 1_555
C1 C2 1_555 1_555
C2 H2 1_555 1_555
C3 C2 1_555 1_555
H3 C3 1_555 1_555
C4 C3 1_555 1_555
C5 C4 1_555 1_555
H4 C5 1_555 1_555
C6 C5 1_555 1_555
H5 C6 1_555 1_555
C7 C6 1_555 1_555
H6 C7 1_555 1_555
C8 N2 1_555 1_555
C9 N1 1_555 1_555
C10 C1 1_555 1_555
C11 C10 1_555 1_555
H7 C11 1_555 1_555
H8 C11 1_555 1_555
C12 C11 1_555 1_555
H9 C12 1_555 1_555
C13 C12 1_555 1_555
H10 C13 1_555 1_555
H11 C13 1_555 1_555
C14 C13 1_555 1_555
H12 C14 1_555 1_555
C15 C10 1_555 1_555
H13 C15 1_555 1_555
H14 C15 1_555 1_555
C16 C14 1_555 1_555
H15 C16 1_555 1_555
H16 C16 1_555 1_555
C17 C16 1_555 1_555
H17 C17 1_555 1_555
C18 C10 1_555 1_555
H18 C18 1_555 1_555
H19 C18 1_555 1_555
C19 C12 1_555 1_555
H20 C19 1_555 1_555
H21 C19 1_555 1_555
C20 N2 1_555 1_555
C21 C20 1_555 1_555
C22 C21 1_555 1_555
H22 C22 1_555 1_555
C23 C22 1_555 1_555
H23 C23 1_555 1_555
C24 C23 1_555 1_555
C25 C24 1_555 1_555
H24 C25 1_555 1_555
C26 C21 1_555 1_555
H25 C26 1_555 1_555
C4 C9 1_555 1_555
C7 C8 1_555 1_555
C8 C9 1_555 1_555
C14 C15 1_555 1_555
C17 C18 1_555 1_555
C17 C19 1_555 1_555
C25 C26 1_555 1_555

#END
