
#######################################################################
#
#                 Cambridge Crystallographic Data Centre
#                                CCDC 
#
#######################################################################
#
# If this CIF has been generated from an entry in the Cambridge 
# Structural Database, then it will include bibliographic, chemical, 
# crystal, experimental, refinement or atomic coordinate data resulting 
# from the CCDC's data processing and validation procedures.
#
#######################################################################

data_FUBQOI
_chemical_formula_moiety         'C6 H7 Cl1 N4'
_chemical_name_systematic        5-Amino-1-(2-chloroethyl)-4-cyanoimidazole
_symmetry_cell_setting           monoclinic
_symmetry_space_group_name_H-M   'P 21/c'
_symmetry_Int_Tables_number      14
_space_group_name_Hall           '-P 2ybc'
loop_
_symmetry_equiv_pos_site_id
_symmetry_equiv_pos_as_xyz
1 x,y,z
2 x,1/2-y,1/2+z
3 -x,-y,-z
4 -x,1/2+y,1/2-z
_cell_length_a                   6.139(1)
_cell_length_b                   8.522(2)
_cell_length_c                   15.156(3)
_cell_angle_alpha                90
_cell_angle_beta                 96.71(2)
_cell_angle_gamma                90
_cell_volume                     787.479
_exptl_crystal_colour            yellow
_exptl_crystal_description       plate
_chemical_melting_point          175deg.C
_cell_formula_units_Z            4
_exptl_crystal_recrystallization_method 'ethyl acetate'
loop_
_atom_site_label
_atom_site_type_symbol
_atom_site_fract_x
_atom_site_fract_y
_atom_site_fract_z
Cl1 Cl 0.7886(3) 0.0744(2) 0.5497(1)
N1 N 0.8524(5) 0.2633(4) 0.7312(2)
N2 N 1.2030(6) 0.2485(5) 0.7861(3)
N3 N 0.6718(6) 0.1563(6) 0.8499(3)
N4 N 1.2404(7) 0.1009(6) 1.0038(3)
C1 C 1.0692(7) 0.2885(6) 0.7195(3)
C2 C 1.0752(6) 0.1936(5) 0.8489(3)
C3 C 0.8554(6) 0.2024(5) 0.8160(3)
C4 C 1.1644(7) 0.1449(5) 0.9344(3)
C5 C 0.6601(7) 0.2824(6) 0.6672(3)
C6 C 0.5912(9) 0.1338(6) 0.6207(3)
H1 H 1.1030(70) 0.3190(50) 0.6630(30)
H2 H 0.512(10) 0.1780(60) 0.8280(30)
H3 H 0.6740(90) 0.1130(70) 0.9160(40)
H4 H 0.6960(70) 0.3510(50) 0.6280(30)
H5 H 0.5380(90) 0.3190(60) 0.6980(30)
H6 H 0.5750(80) 0.0330(60) 0.6620(30)
H7 H 0.4120(80) 0.1520(50) 0.5830(30)
loop_
_geom_bond_atom_site_label_1
_geom_bond_atom_site_label_2
_geom_bond_site_symmetry_1
_geom_bond_site_symmetry_2
Cl1 C6 1_555 1_555
N1 C1 1_555 1_555
N2 C1 1_555 1_555
N3 C3 1_555 1_555
N4 C4 1_555 1_555
C1 H1 1_555 1_555
C2 N2 1_555 1_555
C3 N1 1_555 1_555
C4 C2 1_555 1_555
C5 N1 1_555 1_555
C6 C5 1_555 1_555
H2 N3 1_555 1_555
H3 N3 1_555 1_555
H4 C5 1_555 1_555
H5 C5 1_555 1_555
H6 C6 1_555 1_555
H7 C6 1_555 1_555
C2 C3 1_555 1_555

#END
