
#######################################################################
#
#                 Cambridge Crystallographic Data Centre
#                                CCDC 
#
#######################################################################
#
# If this CIF has been generated from an entry in the Cambridge 
# Structural Database, then it will include bibliographic, chemical, 
# crystal, experimental, refinement or atomic coordinate data resulting 
# from the CCDC's data processing and validation procedures.
#
#######################################################################

data_FUBQOJ
_chemical_formula_moiety         'C18 H20 N4 Si1'
_chemical_name_systematic        
1,1'-((Trimethylsilyl)methylene)-bis(1H-pyrrolo[2,3-b]pyridine)
_symmetry_cell_setting           orthorhombic
_symmetry_space_group_name_H-M   'C m c a'
_symmetry_Int_Tables_number      64
_space_group_name_Hall           '-C 2ac 2'
loop_
_symmetry_equiv_pos_site_id
_symmetry_equiv_pos_as_xyz
1 x,y,z
2 -x,1/2-y,1/2+z
3 -x,1/2+y,1/2-z
4 x,-y,-z
5 1/2+x,1/2+y,z
6 1/2-x,-y,1/2+z
7 1/2-x,y,1/2-z
8 1/2+x,1/2-y,-z
9 -x,-y,-z
10 x,1/2+y,1/2-z
11 x,1/2-y,1/2+z
12 -x,y,z
13 1/2-x,1/2-y,-z
14 1/2+x,y,1/2-z
15 1/2+x,-y,1/2+z
16 1/2-x,1/2+y,z
_cell_length_a                   19.2611(13)
_cell_length_b                   12.5501(8)
_cell_length_c                   14.3500(9)
_cell_angle_alpha                90
_cell_angle_beta                 90
_cell_angle_gamma                90
_cell_volume                     3468.81
_exptl_crystal_colour            colorless
_exptl_crystal_description       block
_cell_formula_units_Z            8
_exptl_crystal_recrystallization_method hexane
loop_
_atom_site_label
_atom_site_type_symbol
_atom_site_fract_x
_atom_site_fract_y
_atom_site_fract_z
Si1 Si 0.5000 0.22209(5) 0.59737(4)
N1 N 0.56312(5) 0.26517(9) 0.77263(7)
N2 N 0.60754(6) 0.10264(9) 0.83728(8)
C1 C 0.5000 0.22133(14) 0.73068(13)
C2 C 0.58900(8) 0.36743(11) 0.76256(11)
H1 H 0.5657 0.4231 0.7334
C3 C 0.65267(8) 0.37514(12) 0.80099(12)
H2 H 0.6800 0.4361 0.8038
C4 C 0.67017(7) 0.27276(11) 0.83638(9)
C5 C 0.72645(8) 0.22675(14) 0.88093(12)
H3 H 0.7658 0.2664 0.8952
C6 C 0.72216(9) 0.12050(15) 0.90344(12)
H4 H 0.7589 0.0873 0.9339
C7 C 0.66302(8) 0.06256(13) 0.88085(11)
H5 H 0.6620 -0.0091 0.8972
C8 C 0.61303(7) 0.20583(10) 0.81729(8)
C9 C 0.5000 0.3584(3) 0.5468(2)
C10 C 0.42053(10) 0.1491(2) 0.56363(15)
H6 H 0.4173 0.1461 0.4969
H7 H 0.3806 0.1852 0.5882
H8 H 0.4224 0.0780 0.5882
H9 H 0.5000 0.1475(16) 0.7479(14)
H10 H 0.5000 0.352(3) 0.482(3)
H11 H 0.4621(16) 0.398(2) 0.565(3)
N1K N 0.43688(5) 0.26517(9) 0.77263(7)
N2K N 0.39246(6) 0.10264(9) 0.83728(8)
C2K C 0.41100(8) 0.36743(11) 0.76256(11)
H1K H 0.4343 0.4231 0.7334
C3K C 0.34733(8) 0.37514(12) 0.80099(12)
H2K H 0.3200 0.4361 0.8038
C4K C 0.32983(7) 0.27276(11) 0.83638(9)
C5K C 0.27355(8) 0.22675(14) 0.88093(12)
H3K H 0.2342 0.2664 0.8952
C6K C 0.27784(9) 0.12050(15) 0.90344(12)
H4K H 0.2411 0.0873 0.9339
C7K C 0.33698(8) 0.06256(13) 0.88085(11)
H5K H 0.3380 -0.0091 0.8972
C8K C 0.38697(7) 0.20583(10) 0.81729(8)
C10K C 0.57947(10) 0.1491(2) 0.56363(15)
H6K H 0.5827 0.1461 0.4969
H7K H 0.6194 0.1852 0.5882
H8K H 0.5776 0.0780 0.5882
H11K H 0.5379(16) 0.398(2) 0.565(3)
loop_
_geom_bond_atom_site_label_1
_geom_bond_atom_site_label_2
_geom_bond_site_symmetry_1
_geom_bond_site_symmetry_2
Si1 C1 1_555 1_555
N1 C1 1_555 1_555
N2 C7 1_555 1_555
C1 H9 1_555 1_555
C2 N1 1_555 1_555
H1 C2 1_555 1_555
C3 C2 1_555 1_555
H2 C3 1_555 1_555
C4 C3 1_555 1_555
C5 C4 1_555 1_555
H3 C5 1_555 1_555
C6 C5 1_555 1_555
H4 C6 1_555 1_555
C7 C6 1_555 1_555
H5 C7 1_555 1_555
C8 N1 1_555 1_555
C9 Si1 1_555 1_555
C10 Si1 1_555 1_555
H6 C10 1_555 1_555
H7 C10 1_555 1_555
H8 C10 1_555 1_555
H10 C9 1_555 1_555
H11 C9 1_555 1_555
N1K C1 1_555 1_555
N2K C7K 1_555 1_555
C2K N1K 1_555 1_555
H1K C2K 1_555 1_555
C3K C2K 1_555 1_555
H2K C3K 1_555 1_555
C4K C3K 1_555 1_555
C5K C4K 1_555 1_555
H3K C5K 1_555 1_555
C6K C5K 1_555 1_555
H4K C6K 1_555 1_555
C7K C6K 1_555 1_555
H5K C7K 1_555 1_555
C8K N1K 1_555 1_555
C10K Si1 1_555 1_555
H6K C10K 1_555 1_555
H7K C10K 1_555 1_555
H8K C10K 1_555 1_555
H11K C9 1_555 1_555
N2 C8 1_555 1_555
C4 C8 1_555 1_555
N2K C8K 1_555 1_555
C4K C8K 1_555 1_555

#END
