
#######################################################################
#
#                 Cambridge Crystallographic Data Centre
#                                CCDC 
#
#######################################################################
#
# If this CIF has been generated from an entry in the Cambridge 
# Structural Database, then it will include bibliographic, chemical, 
# crystal, experimental, refinement or atomic coordinate data resulting 
# from the CCDC's data processing and validation procedures.
#
#######################################################################

data_FUBWUV
_chemical_formula_moiety         'C16 H19 Br1 O5'
_chemical_name_systematic        
'(R)-Ethyl 2-((S)-1-(4-bromophenyl)-1-oxopropan-2-yl)-2-hydroxy-4-oxopentanoate'
_symmetry_cell_setting           orthorhombic
_symmetry_space_group_name_H-M   'P 21 21 21'
_symmetry_Int_Tables_number      19
_space_group_name_Hall           'P 2ac 2ab'
loop_
_symmetry_equiv_pos_site_id
_symmetry_equiv_pos_as_xyz
1 x,y,z
2 1/2+x,1/2-y,-z
3 -x,1/2+y,1/2-z
4 1/2-x,-y,1/2+z
_cell_length_a                   9.6480(19)
_cell_length_b                   9.9528(19)
_cell_length_c                   17.941(3)
_cell_angle_alpha                90
_cell_angle_beta                 90
_cell_angle_gamma                90
_cell_volume                     1722.78
_exptl_crystal_colour            colorless
_exptl_crystal_description       block
_cell_formula_units_Z            4
loop_
_atom_site_label
_atom_site_type_symbol
_atom_site_fract_x
_atom_site_fract_y
_atom_site_fract_z
Br1 Br 0.69922(12) 0.71278(13) 0.59608(5)
O1 O 0.6199(7) 1.0137(4) 0.2603(3)
O2 O 0.6189(5) 0.9356(4) 0.1089(2)
H1 H 0.6517 0.9931 0.1365
O3 O 0.8604(6) 0.8698(6) 0.1718(4)
O4 O 0.7934(5) 0.6564(6) 0.1888(3)
O5 O 0.7786(6) 0.7296(7) 0.0167(3)
C1 C 0.6218(6) 0.8469(5) 0.3515(3)
C2 C 0.5792(6) 0.7218(6) 0.3762(3)
H2 H 0.5358 0.6632 0.3433
C3 C 0.6005(7) 0.6830(7) 0.4491(3)
H3 H 0.5688 0.6000 0.4656
C4 C 0.6685(7) 0.7672(8) 0.4968(3)
C5 C 0.7144(8) 0.8901(8) 0.4746(4)
H4 H 0.7604 0.9467 0.5076
C6 C 0.6907(6) 0.9286(6) 0.4017(4)
H5 H 0.7222 1.0121 0.3858
C7 C 0.5953(7) 0.8958(6) 0.2746(3)
C8 C 0.5384(6) 0.8034(6) 0.2158(3)
H6 H 0.5411 0.7114 0.2352
C9 C 0.6275(6) 0.8087(6) 0.1438(3)
C10 C 0.7761(7) 0.7830(8) 0.1680(4)
C11 C 0.9437(17) 0.630(2) 0.1977(12)
H7 H 0.9999 0.7006 0.1755
H8 H 0.9706 0.5437 0.1775
C12 C 0.950(3) 0.633(3) 0.2807(12)
H9 H 1.0443 0.6245 0.2967
H10 H 0.8966 0.5591 0.3003
H11 H 0.9120 0.7159 0.2987
C13 C 0.3858(6) 0.8412(6) 0.2014(4)
H12 H 0.3344 0.8339 0.2471
H13 H 0.3472 0.7815 0.1650
H14 H 0.3809 0.9319 0.1834
C14 C 0.5755(5) 0.7054(6) 0.0886(3)
H15 H 0.5618 0.6214 0.1150
H16 H 0.4856 0.7345 0.0706
C15 C 0.6659(7) 0.6787(7) 0.0229(4)
C16 C 0.6118(9) 0.5833(9) -0.0339(4)
H17 H 0.6796 0.5715 -0.0725
H18 H 0.5280 0.6187 -0.0551
H19 H 0.5928 0.4983 -0.0107
C17? C 0.9122(17) 0.612(2) 0.2356(11)
C18? C 1.033(2) 0.588(3) 0.1844(12)
H20? H 0.8889 0.5298 0.2619
H21? H 0.9350 0.6804 0.2721
H22? H 1.1106 0.5562 0.2127
H23? H 1.0574 0.6711 0.1602
H24? H 1.0080 0.5228 0.1475
loop_
_geom_bond_atom_site_label_1
_geom_bond_atom_site_label_2
_geom_bond_site_symmetry_1
_geom_bond_site_symmetry_2
Br1 C4 1_555 1_555
O1 C7 1_555 1_555
O2 H1 1_555 1_555
O3 C10 1_555 1_555
O4 C10 1_555 1_555
O5 C15 1_555 1_555
C1 C2 1_555 1_555
C2 H2 1_555 1_555
C3 C2 1_555 1_555
H3 C3 1_555 1_555
C4 C3 1_555 1_555
C5 C4 1_555 1_555
H4 C5 1_555 1_555
C6 C1 1_555 1_555
H5 C6 1_555 1_555
C7 C1 1_555 1_555
C8 C7 1_555 1_555
H6 C8 1_555 1_555
C9 O2 1_555 1_555
C10 C9 1_555 1_555
C11 O4 1_555 1_555
H7 C11 1_555 1_555
H8 C11 1_555 1_555
C12 C11 1_555 1_555
H9 C12 1_555 1_555
H10 C12 1_555 1_555
H11 C12 1_555 1_555
C13 C8 1_555 1_555
H12 C13 1_555 1_555
H13 C13 1_555 1_555
H14 C13 1_555 1_555
C14 C9 1_555 1_555
H15 C14 1_555 1_555
H16 C14 1_555 1_555
C15 C14 1_555 1_555
C16 C15 1_555 1_555
H17 C16 1_555 1_555
H18 C16 1_555 1_555
H19 C16 1_555 1_555
C5 C6 1_555 1_555
C8 C9 1_555 1_555

#END
