
#######################################################################
#
#                 Cambridge Crystallographic Data Centre
#                                CCDC 
#
#######################################################################
#
# If this CIF has been generated from an entry in the Cambridge 
# Structural Database, then it will include bibliographic, chemical, 
# crystal, experimental, refinement or atomic coordinate data resulting 
# from the CCDC's data processing and validation procedures.
#
#######################################################################

data_FUDDOZ
_chemical_compound_source        'fruit bodies of fungus Ganoderma sinensis'
_chemical_name_common            '(+-)-Sinensilactam A'
_chemical_formula_moiety         'C20 H21 N1 O8'
_chemical_name_systematic        
3a-(2-(2,5-dihydroxyphenyl)-2-oxoethyl)-11-hydroxyhexahydro-3H-furo[4',3':1,5]cyclopenta[1,2-e]pyrrolo[2,1-b][1,3]oxazine-3,9(6aH)-dione
_symmetry_cell_setting           triclinic
_symmetry_space_group_name_H-M   'P -1'
_symmetry_Int_Tables_number      2
_space_group_name_Hall           '-P 1'
loop_
_symmetry_equiv_pos_site_id
_symmetry_equiv_pos_as_xyz
1 x,y,z
2 -x,-y,-z
_cell_length_a                   6.6691(15)
_cell_length_b                   10.167(2)
_cell_length_c                   14.215(3)
_cell_angle_alpha                100.008(10)
_cell_angle_beta                 96.475(10)
_cell_angle_gamma                98.204(11)
_cell_volume                     930.06
_exptl_crystal_colour            brown
_exptl_crystal_description       sheet
_cell_formula_units_Z            2
loop_
_atom_site_label
_atom_site_type_symbol
_atom_site_fract_x
_atom_site_fract_y
_atom_site_fract_z
O1 O 0.6993(7) 0.7632(4) 0.5421(4)
H1 H 0.7483 0.8356 0.5262
O2 O 1.3130(7) 0.5087(4) 0.6781(4)
H2 H 1.2656 0.4332 0.6899
O3 O 0.6702(7) 0.4400(4) 0.8505(4)
H3 H 0.7178 0.5116 0.8907
O4 O 1.0809(9) 0.3476(5) 1.0285(4)
O5 O 0.4611(7) 0.1368(4) 0.9246(4)
O6 O 0.8400(7) 0.0249(3) 0.7300(4)
O7 O 0.7975(7) 0.0432(3) 0.5776(4)
O8 O 1.0247(7) 0.3226(4) 0.7004(4)
N1 N 0.7466(9) 0.3096(5) 0.9661(5)
C1 C 0.8199(15) 0.2650(14) 1.1183(8)
H4 H 0.8545 0.3382 1.1762
H5 H 0.8772 0.1849 1.1328
C2 C 0.9045(15) 0.3103(7) 1.0351(7)
C3 C 0.7720(11) 0.3365(5) 0.8717(5)
H6 H 0.9205 0.3580 0.8655
C4 C 0.6733(10) 0.2031(5) 0.8046(5)
C5 C 0.6371(8) 0.1859(4) 0.6929(5)
C6 C 0.6750(9) 0.3101(6) 0.6467(5)
H7 H 0.6303 0.2823 0.5763
H8 H 0.5893 0.3760 0.6724
C7 C 0.8913(11) 0.3786(6) 0.6631(5)
C8 C 0.9507(10) 0.5096(5) 0.6355(5)
C9 C 0.8009(10) 0.5774(5) 0.6020(5)
H9 H 0.6606 0.5393 0.5970
C10 C 0.8554(10) 0.7016(5) 0.5755(5)
C11 C 1.0559(11) 0.7570(5) 0.5803(5)
H10 H 1.0901 0.8416 0.5614
C12 C 1.2047(12) 0.6929(5) 0.6115(6)
H11 H 1.3437 0.7313 0.6128
C13 C 1.1566(9) 0.5673(5) 0.6428(5)
C14 C 0.5902(14) 0.2292(7) 1.0904(6)
H12 H 0.5433 0.1325 1.0908
H13 H 0.5202 0.2850 1.1362
C15 C 0.5449(12) 0.2573(7) 0.9916(5)
H14 H 0.4515 0.3260 0.9908
C16 C 0.4563(11) 0.1630(6) 0.8315(6)
H15 H 0.3823 0.2414 0.8285
C17 C 0.3532(10) 0.0494(6) 0.7506(5)
H16 H 0.2032 0.0316 0.7501
H17 H 0.4094 -0.0351 0.7534
C18 C 0.4111(11) 0.1115(6) 0.6626(6)
H18 H 0.3195 0.1761 0.6481
H19 H 0.4003 0.0395 0.6047
C19 C 0.8091(11) 0.0934(5) 0.8215(5)
H20 H 0.9422 0.1370 0.8603
H21 H 0.7398 0.0286 0.8568
C20 C 0.7693(10) 0.0821(5) 0.6582(6)
loop_
_geom_bond_atom_site_label_1
_geom_bond_atom_site_label_2
_geom_bond_site_symmetry_1
_geom_bond_site_symmetry_2
O1 H1 1_555 1_555
O2 H2 1_555 1_555
O3 H3 1_555 1_555
O4 C2 1_555 1_555
O5 C15 1_555 1_555
O6 C19 1_555 1_555
O7 C20 1_555 1_555
O8 C7 1_555 1_555
N1 C2 1_555 1_555
C1 H4 1_555 1_555
H5 C1 1_555 1_555
C2 C1 1_555 1_555
C3 O3 1_555 1_555
H6 C3 1_555 1_555
C4 C3 1_555 1_555
C5 C4 1_555 1_555
C6 C5 1_555 1_555
H7 C6 1_555 1_555
H8 C6 1_555 1_555
C7 C6 1_555 1_555
C8 C7 1_555 1_555
C9 C8 1_555 1_555
H9 C9 1_555 1_555
C10 O1 1_555 1_555
C11 C10 1_555 1_555
H10 C11 1_555 1_555
C12 C11 1_555 1_555
H11 C12 1_555 1_555
C13 O2 1_555 1_555
C14 C1 1_555 1_555
H12 C14 1_555 1_555
H13 C14 1_555 1_555
C15 N1 1_555 1_555
H14 C15 1_555 1_555
C16 O5 1_555 1_555
H15 C16 1_555 1_555
C17 C16 1_555 1_555
H16 C17 1_555 1_555
H17 C17 1_555 1_555
C18 C5 1_555 1_555
H18 C18 1_555 1_555
H19 C18 1_555 1_555
C19 C4 1_555 1_555
H20 C19 1_555 1_555
H21 C19 1_555 1_555
C20 O6 1_555 1_555
N1 C3 1_555 1_555
C4 C16 1_555 1_555
C5 C20 1_555 1_555
C8 C13 1_555 1_555
C9 C10 1_555 1_555
C12 C13 1_555 1_555
C14 C15 1_555 1_555
C17 C18 1_555 1_555

#END
