
#######################################################################
#
#                 Cambridge Crystallographic Data Centre
#                                CCDC 
#
#######################################################################
#
# If this CIF has been generated from an entry in the Cambridge 
# Structural Database, then it will include bibliographic, chemical, 
# crystal, experimental, refinement or atomic coordinate data resulting 
# from the CCDC's data processing and validation procedures.
#
#######################################################################

data_FUDKUM
_chemical_formula_moiety         'C16 H24 O3'
_chemical_name_systematic        
8-acetyl-3-t-butyl-5-methyl-3,4,4a,7,8,8a-hexahydro-1H-isochromen-1-one
_symmetry_cell_setting           triclinic
_symmetry_space_group_name_H-M   'P -1'
_symmetry_Int_Tables_number      2
_space_group_name_Hall           '-P 1'
loop_
_symmetry_equiv_pos_site_id
_symmetry_equiv_pos_as_xyz
1 x,y,z
2 -x,-y,-z
_cell_length_a                   6.1254(13)
_cell_length_b                   10.166(2)
_cell_length_c                   12.190(2)
_cell_angle_alpha                86.74(2)
_cell_angle_beta                 77.32(2)
_cell_angle_gamma                81.56(2)
_cell_volume                     732.309
_exptl_crystal_colour            colorless
_exptl_crystal_description       block
_cell_formula_units_Z            2
loop_
_atom_site_label
_atom_site_type_symbol
_atom_site_fract_x
_atom_site_fract_y
_atom_site_fract_z
O1 O 0.36794(19) 0.25141(11) 0.78276(10)
O2 O 0.6497(2) 0.12630(12) 0.83768(10)
O3 O 0.0944(2) -0.18340(12) 0.94603(11)
C1 C 0.4620(3) 0.13375(17) 0.81932(14)
C2 C 0.3175(3) 0.02282(16) 0.83933(14)
H1 H 0.1931 0.0480 0.9059
C3 C 0.4517(3) -0.10636(17) 0.87230(15)
H2 H 0.5372 -0.0839 0.9282
C4 C 0.6257(3) -0.16412(18) 0.77000(15)
H3 H 0.7455 -0.1062 0.7478
H4 H 0.6971 -0.2534 0.7902
C5 C 0.5162(3) -0.17466(18) 0.67332(15)
H5 H 0.5867 -0.2389 0.6183
C6 C 0.3267(3) -0.10015(17) 0.65921(14)
C7 C 0.2024(3) 0.00796(16) 0.73985(14)
H6 H 0.0502 -0.0182 0.7734
C8 C 0.1621(3) 0.14334(17) 0.67782(15)
H7 H 0.2883 0.1500 0.6122
H8 H 0.0208 0.1493 0.6499
C9 C 0.1449(3) 0.25737(17) 0.75533(15)
H9 H 0.0315 0.2430 0.8261
C10 C 0.2993(3) -0.20705(18) 0.92886(15)
C11 C 0.4147(4) -0.33827(19) 0.96497(17)
H10 H 0.3051 -0.3839 1.0189
H11 H 0.5373 -0.3228 1.0005
H12 H 0.4770 -0.3935 0.8991
C12 C 0.2218(3) -0.11902(19) 0.56143(16)
H13 H 0.3045 -0.1972 0.5198
H14 H 0.2291 -0.0400 0.5115
H15 H 0.0637 -0.1322 0.5894
C13 C 0.0887(3) 0.39957(17) 0.70972(15)
C14 C 0.2497(3) 0.4273(2) 0.59857(17)
H16 H 0.4060 0.4075 0.6080
H17 H 0.2184 0.5211 0.5762
H18 H 0.2277 0.3711 0.5403
C15 C -0.1545(3) 0.41732(19) 0.69264(17)
H19 H -0.1638 0.3598 0.6324
H20 H -0.1995 0.5103 0.6720
H21 H -0.2557 0.3932 0.7626
C16 C 0.1050(3) 0.49881(18) 0.79631(17)
H22 H 0.0040 0.4809 0.8682
H23 H 0.0607 0.5895 0.7696
H24 H 0.2608 0.4896 0.8066
loop_
_geom_bond_atom_site_label_1
_geom_bond_atom_site_label_2
_geom_bond_site_symmetry_1
_geom_bond_site_symmetry_2
O1 C1 1_555 1_555
O2 C1 1_555 1_555
O3 C10 1_555 1_555
C1 C2 1_555 1_555
C2 H1 1_555 1_555
C3 C2 1_555 1_555
H2 C3 1_555 1_555
C4 C3 1_555 1_555
H3 C4 1_555 1_555
H4 C4 1_555 1_555
C5 C4 1_555 1_555
H5 C5 1_555 1_555
C6 C5 1_555 1_555
C7 C2 1_555 1_555
H6 C7 1_555 1_555
C8 C7 1_555 1_555
H7 C8 1_555 1_555
H8 C8 1_555 1_555
C9 O1 1_555 1_555
H9 C9 1_555 1_555
C10 C3 1_555 1_555
C11 C10 1_555 1_555
H10 C11 1_555 1_555
H11 C11 1_555 1_555
H12 C11 1_555 1_555
C12 C6 1_555 1_555
H13 C12 1_555 1_555
H14 C12 1_555 1_555
H15 C12 1_555 1_555
C13 C9 1_555 1_555
C14 C13 1_555 1_555
H16 C14 1_555 1_555
H17 C14 1_555 1_555
H18 C14 1_555 1_555
C15 C13 1_555 1_555
H19 C15 1_555 1_555
H20 C15 1_555 1_555
H21 C15 1_555 1_555
C16 C13 1_555 1_555
H22 C16 1_555 1_555
H23 C16 1_555 1_555
H24 C16 1_555 1_555
C6 C7 1_555 1_555
C8 C9 1_555 1_555

#END
