
#######################################################################
#
#                 Cambridge Crystallographic Data Centre
#                                CCDC 
#
#######################################################################
#
# If this CIF has been generated from an entry in the Cambridge 
# Structural Database, then it will include bibliographic, chemical, 
# crystal, experimental, refinement or atomic coordinate data resulting 
# from the CCDC's data processing and validation procedures.
#
#######################################################################

data_FUDRAZ
_chemical_formula_moiety         'C23 H21 N1 O6'
_chemical_name_systematic        
1-(2-(4-methoxyphenyl)-4,4a,6,8a-tetrahydropyrano[3,2-d][1,3]dioxin-6-yl)-5-methyl-1H-indole-2,3-dione
_symmetry_cell_setting           monoclinic
_symmetry_space_group_name_H-M   'P 21'
_symmetry_Int_Tables_number      4
_space_group_name_Hall           'P 2yb'
loop_
_symmetry_equiv_pos_site_id
_symmetry_equiv_pos_as_xyz
1 x,y,z
2 -x,1/2+y,-z
_cell_length_a                   8.0658(10)
_cell_length_b                   6.9998(8)
_cell_length_c                   17.278(3)
_cell_angle_alpha                90
_cell_angle_beta                 90.698(6)
_cell_angle_gamma                90
_cell_volume                     975.426
_exptl_crystal_colour            orange
_exptl_crystal_description       block
_cell_formula_units_Z            2
loop_
_atom_site_label
_atom_site_type_symbol
_atom_site_fract_x
_atom_site_fract_y
_atom_site_fract_z
C1 C 0.6762(3) 0.1961(4) 0.36671(13)
C2 C 0.7203(3) 0.1986(4) 0.45475(13)
C3 C 0.5608(3) 0.1965(4) 0.49373(13)
C4 C 0.5240(3) 0.1996(4) 0.57163(12)
H1 H 0.6104 0.2083 0.6094
C5 C 0.3581(3) 0.1896(4) 0.59442(13)
C6 C 0.3123(3) 0.1915(4) 0.67867(13)
H2 H 0.2097 0.2644 0.6852
H3 H 0.4018 0.2512 0.709
H4 H 0.2957 0.0602 0.6966
C7 C 0.2359(3) 0.1782(4) 0.53666(13)
H5 H 0.1233 0.1704 0.5518
C8 C 0.2708(3) 0.1778(4) 0.45773(13)
H6 H 0.1847 0.1706 0.4198
C9 C 0.4353(3) 0.1883(4) 0.43686(12)
C10 C 0.4186(3) 0.1897(4) 0.28836(12)
H7 H 0.5001 0.22 0.247
C11 C 0.2821(3) 0.3358(3) 0.28390(13)
H8 H 0.3047 0.4619 0.3014
C12 C 0.1320(3) 0.2966(3) 0.25669(13)
H9 H 0.0508 0.3945 0.2526
C13 C 0.0913(3) 0.0974(3) 0.23251(13)
H10 H 0.0384 0.0292 0.2767
C14 C 0.2498(3) -0.0059(3) 0.21102(13)
H11 H 0.302 0.0586 0.1658
C15 C 0.2066(3) -0.2101(3) 0.19028(14)
H12 H 0.3068 -0.2788 0.173
H13 H 0.1619 -0.2772 0.2359
C16 C -0.0583(3) -0.1007(4) 0.14993(13)
H14 H -0.1093 -0.1611 0.1964
C17 C -0.1804(3) -0.1045(3) 0.08392(13)
C18 C -0.1277(3) -0.1059(4) 0.00731(13)
H15 H -0.0125 -0.1061 -0.0035
C19 C -0.2420(3) -0.1069(4) -0.05288(13)
H16 H -0.2049 -0.1075 -0.1049
C20 C -0.4115(3) -0.1071(4) -0.03772(13)
C21 C -0.6886(3) -0.1103(4) -0.08813(15)
H17 H -0.7167 -0.2186 -0.0548
H18 H -0.7481 -0.1221 -0.1377
H19 H -0.7206 0.0091 -0.0628
C22 C -0.4658(3) -0.1060(4) 0.03826(13)
H20 H -0.581 -0.1058 0.0491
C23 C -0.3495(3) -0.1053(4) 0.09837(13)
H21 H -0.3864 -0.1053 0.1504
N1 N 0.5058(2) 0.1926(3) 0.36172(10)
O1 O 0.77197(19) 0.1973(3) 0.31357(10)
O2 O 0.86059(19) 0.2001(3) 0.47956(11)
O3 O 0.36090(19) -0.0022(2) 0.27599(9)
O4 O -0.01858(18) 0.0930(2) 0.16704(9)
O5 O 0.0847(2) -0.2050(2) 0.12918(10)
O6 O -0.5133(2) -0.1093(3) -0.10145(10)
loop_
_geom_bond_atom_site_label_1
_geom_bond_atom_site_label_2
_geom_bond_site_symmetry_1
_geom_bond_site_symmetry_2
C1 C2 1_555 1_555
C2 C3 1_555 1_555
C3 C4 1_555 1_555
C4 H1 1_555 1_555
C5 C4 1_555 1_555
C6 C5 1_555 1_555
H2 C6 1_555 1_555
H3 C6 1_555 1_555
H4 C6 1_555 1_555
C7 C5 1_555 1_555
H5 C7 1_555 1_555
C8 C7 1_555 1_555
H6 C8 1_555 1_555
C9 C3 1_555 1_555
C10 H7 1_555 1_555
C11 C10 1_555 1_555
H8 C11 1_555 1_555
C12 C11 1_555 1_555
H9 C12 1_555 1_555
C13 C12 1_555 1_555
H10 C13 1_555 1_555
C14 C13 1_555 1_555
H11 C14 1_555 1_555
C15 C14 1_555 1_555
H12 C15 1_555 1_555
H13 C15 1_555 1_555
C16 H14 1_555 1_555
C17 C16 1_555 1_555
C18 C17 1_555 1_555
H15 C18 1_555 1_555
C19 C18 1_555 1_555
H16 C19 1_555 1_555
C20 C19 1_555 1_555
C21 H17 1_555 1_555
H18 C21 1_555 1_555
H19 C21 1_555 1_555
C22 C20 1_555 1_555
H20 C22 1_555 1_555
C23 C17 1_555 1_555
H21 C23 1_555 1_555
N1 C1 1_555 1_555
O1 C1 1_555 1_555
O2 C2 1_555 1_555
O3 C10 1_555 1_555
O4 C13 1_555 1_555
O5 C15 1_555 1_555
O6 C20 1_555 1_555
C8 C9 1_555 1_555
C9 N1 1_555 1_555
C10 N1 1_555 1_555
C14 O3 1_555 1_555
C16 O4 1_555 1_555
C16 O5 1_555 1_555
C21 O6 1_555 1_555
C22 C23 1_555 1_555

#END
