
#######################################################################
#
#                 Cambridge Crystallographic Data Centre
#                                CCDC 
#
#######################################################################
#
# If this CIF has been generated from an entry in the Cambridge 
# Structural Database, then it will include bibliographic, chemical, 
# crystal, experimental, refinement or atomic coordinate data resulting 
# from the CCDC's data processing and validation procedures.
#
#######################################################################

data_FUDWAE
_chemical_name_common            
1-(4-Methylbenzyl)-4-(methylphenyl)-5-(diethylamino)-1,2,3-triazole
_chemical_formula_moiety         'C21 H26 N4'
_chemical_name_systematic        
N,N-diethyl-1-(4-methylbenzyl)-4-(4-methylphenyl)-1H-1,2,3-triazol-5-amine
_symmetry_cell_setting           orthorhombic
_symmetry_space_group_name_H-M   'P 21 21 21'
_symmetry_Int_Tables_number      19
_space_group_name_Hall           'P 2ac 2ab'
loop_
_symmetry_equiv_pos_site_id
_symmetry_equiv_pos_as_xyz
1 x,y,z
2 1/2-x,-y,1/2+z
3 -x,1/2+y,1/2-z
4 1/2+x,1/2-y,-z
_cell_length_a                   8.0317(7)
_cell_length_b                   14.9030(12)
_cell_length_c                   15.9141(14)
_cell_angle_alpha                90
_cell_angle_beta                 90
_cell_angle_gamma                90
_cell_volume                     1904.86
_exptl_crystal_colour            colorless
_exptl_crystal_description       Prism
_cell_formula_units_Z            4
loop_
_atom_site_label
_atom_site_type_symbol
_atom_site_fract_x
_atom_site_fract_y
_atom_site_fract_z
N1 N 0.26690(18) 0.65656(9) 0.18163(8)
N2 N 0.12779(19) 0.61655(10) 0.20968(10)
N3 N 0.14342(19) 0.60723(10) 0.29168(9)
N4 N 0.52893(16) 0.71258(9) 0.22868(9)
C1 C 0.37364(18) 0.67513(9) 0.24595(9)
C2 C 0.29161(19) 0.64298(10) 0.31609(9)
C3 C 0.34312(19) 0.64341(10) 0.40518(9)
C4 C 0.3012(2) 0.57321(11) 0.45789(11)
H1 H 0.2399 0.5252 0.4371
C5 C 0.3498(3) 0.57387(12) 0.54126(11)
H2 H 0.3202 0.5260 0.5756
C6 C 0.4410(2) 0.64359(12) 0.57488(10)
C7 C 0.4797(2) 0.71427(12) 0.52232(11)
H3 H 0.5392 0.7628 0.5435
C8 C 0.4324(2) 0.71436(11) 0.43964(11)
H4 H 0.4605 0.7629 0.4058
C9 C 0.4994(3) 0.64176(16) 0.66453(12)
H5 H 0.4233 0.6070 0.6977
H6 H 0.5042 0.7019 0.6860
H7 H 0.6082 0.6152 0.6672
C10 C 0.2876(3) 0.67674(12) 0.09265(10)
H8 H 0.2146 0.6381 0.0603
H9 H 0.4013 0.6632 0.0764
C11 C 0.2501(2) 0.77365(11) 0.07085(9)
C12 C 0.1413(2) 0.82501(11) 0.11687(9)
H10 H 0.0876 0.8001 0.1631
C13 C 0.1105(2) 0.91367(12) 0.09514(11)
H11 H 0.0373 0.9475 0.1275
C14 C 0.1866(2) 0.95245(12) 0.02642(12)
C15 C 0.2936(2) 0.89927(13) -0.02026(12)
H12 H 0.3450 0.9234 -0.0675
C16 C 0.3257(2) 0.81210(13) 0.00133(10)
H13 H 0.3990 0.7783 -0.0310
C17 C 0.1559(3) 1.04916(16) 0.00422(19)
H14 H 0.2588 1.0818 0.0070
H15 H 0.0778 1.0746 0.0432
H16 H 0.1115 1.0528 -0.0517
C18 C 0.5404(2) 0.81119(12) 0.23619(13)
H17 H 0.5870 0.8261 0.2906
H18 H 0.4292 0.8364 0.2335
C19 C 0.6457(3) 0.85329(16) 0.16870(14)
H19 H 0.7551 0.8274 0.1698
H20 H 0.6536 0.9167 0.1784
H21 H 0.5957 0.8427 0.1148
C20 C 0.6752(2) 0.66459(14) 0.26180(13)
H22 H 0.6858 0.6772 0.3214
H23 H 0.7744 0.6870 0.2341
C21 C 0.6652(3) 0.56516(15) 0.24940(17)
H24 H 0.5806 0.5408 0.2854
H25 H 0.7706 0.5385 0.2629
H26 H 0.6379 0.5524 0.1919
loop_
_geom_bond_atom_site_label_1
_geom_bond_atom_site_label_2
_geom_bond_site_symmetry_1
_geom_bond_site_symmetry_2
N1 N2 1_555 1_555
N2 N3 1_555 1_555
N3 C2 1_555 1_555
N4 C1 1_555 1_555
C1 N1 1_555 1_555
C2 C1 1_555 1_555
C3 C2 1_555 1_555
C4 C3 1_555 1_555
H1 C4 1_555 1_555
C5 C4 1_555 1_555
H2 C5 1_555 1_555
C6 C5 1_555 1_555
C7 C6 1_555 1_555
H3 C7 1_555 1_555
C8 C3 1_555 1_555
H4 C8 1_555 1_555
C9 C6 1_555 1_555
H5 C9 1_555 1_555
H6 C9 1_555 1_555
H7 C9 1_555 1_555
C10 N1 1_555 1_555
H8 C10 1_555 1_555
H9 C10 1_555 1_555
C11 C10 1_555 1_555
C12 C11 1_555 1_555
H10 C12 1_555 1_555
C13 C12 1_555 1_555
H11 C13 1_555 1_555
C14 C13 1_555 1_555
C15 C14 1_555 1_555
H12 C15 1_555 1_555
C16 C11 1_555 1_555
H13 C16 1_555 1_555
C17 C14 1_555 1_555
H14 C17 1_555 1_555
H15 C17 1_555 1_555
H16 C17 1_555 1_555
C18 N4 1_555 1_555
H17 C18 1_555 1_555
H18 C18 1_555 1_555
C19 C18 1_555 1_555
H19 C19 1_555 1_555
H20 C19 1_555 1_555
H21 C19 1_555 1_555
C20 N4 1_555 1_555
H22 C20 1_555 1_555
H23 C20 1_555 1_555
C21 C20 1_555 1_555
H24 C21 1_555 1_555
H25 C21 1_555 1_555
H26 C21 1_555 1_555
C7 C8 1_555 1_555
C15 C16 1_555 1_555

#END
