
#######################################################################
#
#                 Cambridge Crystallographic Data Centre
#                                CCDC 
#
#######################################################################
#
# If this CIF has been generated from an entry in the Cambridge 
# Structural Database, then it will include bibliographic, chemical, 
# crystal, experimental, refinement or atomic coordinate data resulting 
# from the CCDC's data processing and validation procedures.
#
#######################################################################

data_FUDWOS
_chemical_formula_moiety         'C6 N8 O11 2-,C1 H6 N1 1+,K1 1+'
_chemical_name_systematic        
'methanaminium potassium (4-((4-(dinitromethanidyl)-1,2,5-oxadiazol-3-yl)oxy)-1,2,5-oxadiazol-3-yl)(dinitro)methanide'
_symmetry_cell_setting           triclinic
_symmetry_space_group_name_H-M   'P -1'
_symmetry_Int_Tables_number      2
_space_group_name_Hall           '-P 1'
loop_
_symmetry_equiv_pos_site_id
_symmetry_equiv_pos_as_xyz
1 x,y,z
2 -x,-y,-z
_cell_length_a                   8.7453(13)
_cell_length_b                   8.7603(13)
_cell_length_c                   10.5278(16)
_cell_angle_alpha                88.015(2)
_cell_angle_beta                 72.462(2)
_cell_angle_gamma                72.292(2)
_cell_volume                     731.176
_cell_formula_units_Z            2
loop_
_atom_site_label
_atom_site_type_symbol
_atom_site_fract_x
_atom_site_fract_y
_atom_site_fract_z
K1 K 0.27011(9) 0.16696(8) 0.12980(7)
N1 N 0.3421(3) 0.5373(3) 0.2875(2)
N2 N 0.4401(3) 0.7395(3) 0.1564(2)
N3 N 0.2700(3) 0.5258(3) 0.0104(3)
N4 N 0.0276(3) 0.7195(3) 0.0062(2)
N5 N -0.2376(3) 0.9867(3) 0.1209(2)
N6 N -0.3906(3) 1.1597(3) 0.3032(2)
N7 N -0.2386(3) 1.0469(3) 0.5450(2)
N8 N -0.0947(3) 1.2210(3) 0.4127(3)
O1 O 0.41832(7) 0.54370(6) 0.36968(5)
O2 O 0.25648(7) 0.44275(6) 0.30032(5)
O3 O 0.54177(7) 0.74313(6) 0.21420(5)
O4 O 0.41948(7) 0.83107(6) 0.06406(5)
O5 O 0.14374(7) 0.57204(6) -0.04948(5)
O6 O 0.01346(7) 0.89150(6) 0.18009(5)
O7 O -0.39186(7) 1.09843(6) 0.18522(5)
O8 O -0.33696(7) 0.96714(6) 0.54967(5)
O9 O -0.18639(7) 1.05684(6) 0.64045(5)
O10 O -0.04905(7) 1.26026(6) 0.50363(5)
O11 O -0.05389(7) 1.27186(6) 0.29809(5)
C1 C 0.34491(7) 0.63575(6) 0.18268(5)
C2 C 0.23727(7) 0.63922(6) 0.09976(5)
C3 C 0.08391(7) 0.75751(6) 0.09718(5)
C4 C -0.14839(7) 0.98087(6) 0.20002(5)
C5 C -0.24173(7) 1.08904(6) 0.31474(5)
C6 C -0.19429(7) 1.12301(6) 0.42920(5)
N9 N 0.15741(7) 0.36074(6) 0.64551(5)
H1 H 0.0980 0.3692 0.5963
H2 H 0.1371 0.4579 0.6626
C7 C 0.33517(7) 0.31999(6) 0.56790(5)
H3 H 0.3486 0.3905 0.4963
H4 H 0.3745 0.2110 0.5317
H5 H 0.3993 0.3317 0.6245
loop_
_geom_bond_atom_site_label_1
_geom_bond_atom_site_label_2
_geom_bond_site_symmetry_1
_geom_bond_site_symmetry_2
N1 O1 1_555 1_555
N2 O3 1_555 1_555
N3 O5 1_555 1_555
N4 O5 1_555 1_555
N5 O7 1_555 1_555
N6 O7 1_555 1_555
N7 O8 1_555 1_555
N8 O10 1_555 1_555
O2 N1 1_555 1_555
O4 N2 1_555 1_555
O6 C3 1_555 1_555
O9 N7 1_555 1_555
O11 N8 1_555 1_555
C1 N1 1_555 1_555
C2 N3 1_555 1_555
C3 N4 1_555 1_555
C4 N5 1_555 1_555
C5 N6 1_555 1_555
C6 N7 1_555 1_555
N9 H1 1_555 1_555
H2 N9 1_555 1_555
C7 N9 1_555 1_555
H3 C7 1_555 1_555
H4 C7 1_555 1_555
H5 C7 1_555 1_555
N2 C1 1_555 1_555
N8 C6 1_555 1_555
O6 C4 1_555 1_555
C1 C2 1_555 1_555
C2 C3 1_555 1_555
C4 C5 1_555 1_555
C5 C6 1_555 1_555

#END
