
#######################################################################
#
#                 Cambridge Crystallographic Data Centre
#                                CCDC 
#
#######################################################################
#
# If this CIF has been generated from an entry in the Cambridge 
# Structural Database, then it will include bibliographic, chemical, 
# crystal, experimental, refinement or atomic coordinate data resulting 
# from the CCDC's data processing and validation procedures.
#
#######################################################################

data_FUDYOS01
_chemical_formula_moiety         'C6 H12 N2 O4'
_chemical_name_systematic        
3,4,8,9-Tetraoxa-1,6-diazabicyclo(4.4.2)dodecane
_symmetry_cell_setting           monoclinic
_symmetry_space_group_name_H-M   'A 2/a'
_symmetry_Int_Tables_number      15
_space_group_name_Hall           '-A 2yn'
loop_
_symmetry_equiv_pos_site_id
_symmetry_equiv_pos_as_xyz
1 x,y,z
2 1/2-x,y,-z
3 x,1/2+y,1/2+z
4 1/2-x,1/2+y,1/2-z
5 -x,-y,-z
6 1/2+x,-y,z
7 -x,1/2-y,1/2-z
8 1/2+x,1/2-y,1/2+z
_cell_length_a                   11.869(4)
_cell_length_b                   5.8573(22)
_cell_length_c                   11.918(3)
_cell_angle_alpha                90
_cell_angle_beta                 109.99(2)
_cell_angle_gamma                90
_cell_volume                     778.625
_exptl_crystal_description       'chunky prisms'
_cell_formula_units_Z            4
_exptl_crystal_recrystallization_method ethanol
loop_
_atom_site_label
_atom_site_type_symbol
_atom_site_fract_x
_atom_site_fract_y
_atom_site_fract_z
O1 O 0.87826(13) 0.0617(3) 0.09309(13)
O2 O 0.94572(13) 0.2322(3) 0.05190(13)
N1 N 0.73063(16) 0.3345(3) 0.11364(15)
C1 C 0.82735(22) 0.1855(4) 0.16882(21)
C2 C 0.88878(20) 0.2529(5) -0.07505(20)
C3 C 0.75354(23) 0.5505(4) 0.06631(20)
H1 H 0.8029(19) 0.059(4) 0.2100(19)
H2 H 0.8954(21) 0.275(4) 0.2286(21)
H3 H 0.8957(21) 0.100(5) -0.1098(21)
H4 H 0.9442(18) 0.368(4) -0.0948(17)
H5 H 0.8354(22) 0.596(4) 0.1176(21)
H6 H 0.6967(20) 0.662(4) 0.0753(20)
N1A N 0.76937(16) 0.3345(3) -0.11364(15)
C1A C 0.67265(22) 0.1855(4) -0.16882(21)
O1A O 0.62174(13) 0.0617(3) -0.09309(13)
O2A O 0.55428(13) 0.2322(3) -0.05190(13)
C2A C 0.61122(20) 0.2529(5) 0.07505(20)
C3A C 0.74646(23) 0.5505(4) -0.06631(20)
H5A H 0.6646(22) 0.596(4) -0.1176(21)
H6A H 0.8033(20) 0.662(4) -0.0753(20)
H3A H 0.6043(21) 0.100(5) 0.1098(21)
H4A H 0.5558(18) 0.368(4) 0.0948(17)
H1A H 0.6971(19) 0.059(4) -0.2100(19)
H2A H 0.6046(21) 0.275(4) -0.2286(21)
loop_
_geom_bond_atom_site_label_1
_geom_bond_atom_site_label_2
_geom_bond_site_symmetry_1
_geom_bond_site_symmetry_2
O1 O2 1_555 1_555
O2 C2 1_555 1_555
N1 C1 1_555 1_555
C1 O1 1_555 1_555
C2 H3 1_555 1_555
C3 N1 1_555 1_555
H1 C1 1_555 1_555
H2 C1 1_555 1_555
H4 C2 1_555 1_555
H5 C3 1_555 1_555
H6 C3 1_555 1_555
N1A C2 1_555 1_555
C1A N1A 1_555 1_555
O1A C1A 1_555 1_555
O2A O1A 1_555 1_555
C2A N1 1_555 1_555
C3A C3 1_555 1_555
H5A C3A 1_555 1_555
H6A C3A 1_555 1_555
H3A C2A 1_555 1_555
H4A C2A 1_555 1_555
H1A C1A 1_555 1_555
H2A C1A 1_555 1_555
N1A C3A 1_555 1_555
O2A C2A 1_555 1_555

#END
