
#######################################################################
#
#                 Cambridge Crystallographic Data Centre
#                                CCDC 
#
#######################################################################
#
# If this CIF has been generated from an entry in the Cambridge 
# Structural Database, then it will include bibliographic, chemical, 
# crystal, experimental, refinement or atomic coordinate data resulting 
# from the CCDC's data processing and validation procedures.
#
#######################################################################

data_FUFFOD
_chemical_formula_moiety         'C15 H9 F3 O3'
_chemical_name_systematic        
3-(2,2,2-Trifluoroethoxy)-6H-benzo[c]chromen-6-one
_symmetry_cell_setting           monoclinic
_symmetry_space_group_name_H-M   'P 21/c'
_symmetry_Int_Tables_number      14
_space_group_name_Hall           '-P 2ybc'
loop_
_symmetry_equiv_pos_site_id
_symmetry_equiv_pos_as_xyz
1 x,y,z
2 -x,1/2+y,1/2-z
3 -x,-y,-z
4 x,1/2-y,1/2+z
_cell_length_a                   24.1196(12)
_cell_length_b                   4.5707(2)
_cell_length_c                   25.3434(12)
_cell_angle_alpha                90
_cell_angle_beta                 116.037(6)
_cell_angle_gamma                90
_cell_volume                     2510.39
_exptl_crystal_description       block
_cell_formula_units_Z            8
loop_
_atom_site_label
_atom_site_type_symbol
_atom_site_fract_x
_atom_site_fract_y
_atom_site_fract_z
F1 F 0.04601(12) -1.2243(7) 0.03968(12)
F2 F 0.04181(10) -1.5560(7) 0.09896(11)
F3 F 0.08955(13) -1.6275(7) 0.04669(14)
O1 O 0.31404(11) -0.5493(6) 0.11827(11)
O2 O 0.16549(11) -1.1858(6) 0.10503(11)
O3 O 0.37907(13) -0.2442(8) 0.11482(13)
C1 C 0.36647(16) -0.5238(9) 0.24848(17)
C2 C 0.29030(15) -0.7089(9) 0.15073(16)
C3 C 0.28588(16) -0.8708(9) 0.24188(16)
H1 H 0.3003 -0.8708 0.2825
C4 C 0.31447(15) -0.7029(9) 0.21479(15)
C5 C 0.21434(15) -1.0320(9) 0.14378(16)
C6 C 0.23676(16) -1.0325(9) 0.20722(16)
H2 H 0.2168 -1.1464 0.2241
C7 C 0.07702(17) -1.4281(10) 0.07927(18)
C8 C 0.24108(15) -0.8680(9) 0.11522(16)
H3 H 0.2262 -0.8676 0.0746
C9 C 0.13050(16) -1.3135(10) 0.13122(17)
H4 H 0.1180 -1.1694 0.1520
H5 H 0.1531 -1.4694 0.1580
C10 C 0.4436(2) -0.3309(12) 0.3418(2)
H6 H 0.4617 -0.3161 0.3825
C11 C 0.38986(15) -0.3640(9) 0.21489(17)
C12 C 0.4665(2) -0.1750(12) 0.3079(2)
H7 H 0.5006 -0.0550 0.3271
C13 C 0.39452(18) -0.5016(11) 0.31271(18)
H8 H 0.3779 -0.6081 0.3336
C14 C 0.36282(17) -0.3760(10) 0.14776(18)
C15 C 0.43989(17) -0.1914(10) 0.2449(2)
H9 H 0.4569 -0.0833 0.2246
F4 F 0.44499(11) -0.7143(6) 0.47505(15)
F5 F 0.39548(11) -1.1033(6) 0.44569(13)
F6 F 0.44755(11) -1.0267(7) 0.54143(13)
O4 O 0.32414(10) -0.6556(6) 0.43391(11)
O5 O 0.17321(11) -0.0670(6) 0.29863(10)
O6 O 0.10886(13) 0.2181(8) 0.22848(12)
C16 C 0.18534(13) -0.0877(8) 0.40374(15)
C17 C 0.13627(14) 0.1180(8) 0.38735(15)
C18 C 0.20185(14) -0.1718(8) 0.35823(14)
C19 C 0.06196(15) 0.4178(9) 0.30906(18)
H10 H 0.0437 0.4878 0.2707
C20 C 0.10904(14) 0.2243(8) 0.32708(15)
C21 C 0.41234(17) -0.8974(10) 0.4883(2)
C22 C 0.26443(15) -0.3964(9) 0.47450(16)
H11 H 0.2861 -0.4742 0.5119
C23 C 0.04191(16) 0.5085(10) 0.3506(2)
H12 H 0.0096 0.6422 0.3390
C24 C 0.21820(15) -0.2074(9) 0.46205(15)
H13 H 0.2070 -0.1520 0.4914
C25 C 0.36216(15) -0.7541(9) 0.49348(17)
H14 H 0.3766 -0.5904 0.5205
H15 H 0.3398 -0.8889 0.5067
C26 C 0.24741(15) -0.3612(9) 0.36891(16)
H16 H 0.2583 -0.4186 0.3395
C27 C 0.11502(15) 0.2109(9) 0.42873(17)
H17 H 0.1325 0.1396 0.4670
C28 C 0.06884(16) 0.4049(10) 0.41062(19)
H18 H 0.0540 0.4731 0.4366
C29 C 0.27896(14) -0.4730(9) 0.42730(16)
C30 C 0.12856(16) 0.1336(9) 0.28098(17)
loop_
_geom_bond_atom_site_label_1
_geom_bond_atom_site_label_2
_geom_bond_site_symmetry_1
_geom_bond_site_symmetry_2
F1 C7 1_555 1_555
F2 C7 1_555 1_555
F3 C7 1_555 1_555
O1 C2 1_555 1_555
O2 C5 1_555 1_555
O3 C14 1_555 1_555
C1 C4 1_555 1_555
C2 C4 1_555 1_555
C3 H1 1_555 1_555
C4 C3 1_555 1_555
C5 C6 1_555 1_555
C6 C3 1_555 1_555
H2 C6 1_555 1_555
C7 C9 1_555 1_555
C8 C2 1_555 1_555
H3 C8 1_555 1_555
C9 O2 1_555 1_555
H4 C9 1_555 1_555
H5 C9 1_555 1_555
C10 H6 1_555 1_555
C11 C1 1_555 1_555
C12 C10 1_555 1_555
H7 C12 1_555 1_555
C13 C1 1_555 1_555
H8 C13 1_555 1_555
C14 O1 1_555 1_555
C15 C11 1_555 1_555
H9 C15 1_555 1_555
F4 C21 1_555 1_555
F5 C21 1_555 1_555
F6 C21 1_555 1_555
O4 C25 1_555 1_555
O5 C18 1_555 1_555
O6 C30 1_555 1_555
C16 C17 1_555 1_555
C17 C20 1_555 1_555
C18 C16 1_555 1_555
C19 H10 1_555 1_555
C20 C19 1_555 1_555
C21 C25 1_555 1_555
C22 H11 1_555 1_555
C23 C19 1_555 1_555
H12 C23 1_555 1_555
C24 C16 1_555 1_555
H13 C24 1_555 1_555
C25 H14 1_555 1_555
H15 C25 1_555 1_555
C26 C18 1_555 1_555
H16 C26 1_555 1_555
C27 C17 1_555 1_555
H17 C27 1_555 1_555
C28 C23 1_555 1_555
H18 C28 1_555 1_555
C29 O4 1_555 1_555
C30 O5 1_555 1_555
C5 C8 1_555 1_555
C10 C13 1_555 1_555
C11 C14 1_555 1_555
C12 C15 1_555 1_555
C20 C30 1_555 1_555
C22 C24 1_555 1_555
C22 C29 1_555 1_555
C26 C29 1_555 1_555
C27 C28 1_555 1_555

#END
