
#######################################################################
#
#                 Cambridge Crystallographic Data Centre
#                                CCDC 
#
#######################################################################
#
# If this CIF has been generated from an entry in the Cambridge 
# Structural Database, then it will include bibliographic, chemical, 
# crystal, experimental, refinement or atomic coordinate data resulting 
# from the CCDC's data processing and validation procedures.
#
#######################################################################

data_FUFXAH
_chemical_formula_moiety         'C21 H25 F1 N6 O3'
_chemical_name_systematic        
1-ethyl-3-(6-fluoro-5-(2-(2-hydroxypropan-2-yl)pyrimidin-5-yl)-7-(tetrahydrofuran-2-yl)-1H-benzimidazol-2-yl)urea
_symmetry_cell_setting           monoclinic
_symmetry_space_group_name_H-M   'P 21'
_symmetry_Int_Tables_number      4
_space_group_name_Hall           'P 2yb'
loop_
_symmetry_equiv_pos_site_id
_symmetry_equiv_pos_as_xyz
1 x,y,z
2 -x,1/2+y,-z
_cell_length_a                   9.9016(2)
_cell_length_b                   10.9184(2)
_cell_length_c                   19.2975(4)
_cell_angle_alpha                90
_cell_angle_beta                 102.8260(10)
_cell_angle_gamma                90
_cell_volume                     2034.19
_exptl_crystal_description       prism
_cell_formula_units_Z            4
loop_
_atom_site_label
_atom_site_type_symbol
_atom_site_fract_x
_atom_site_fract_y
_atom_site_fract_z
N1 N 0.30546(18) 0.01802(17) 0.33753(9)
C1 C 0.2562(2) -0.01433(19) 0.39301(10)
N2 N 0.34895(17) -0.00102(17) 0.45582(10)
H1 H 0.332(2) -0.0213(18) 0.4936(12)
C2 C 0.4702(2) 0.04331(18) 0.44054(11)
C3 C 0.5989(2) 0.07166(19) 0.48428(11)
C4 C 0.6953(2) 0.1138(2) 0.44756(11)
F1 F 0.82398(12) 0.14063(12) 0.48706(6)
C5 C 0.6736(2) 0.1245(2) 0.37369(11)
C6 C 0.5431(2) 0.0938(2) 0.33221(12)
H2 H 0.523(2) 0.102(2) 0.2799(14)
C7 C 0.4411(2) 0.0543(2) 0.36637(11)
N3 N 0.12518(18) -0.05978(18) 0.38832(10)
H3 H 0.085(2) -0.085(2) 0.3491(13)
C8 C 0.0709(2) -0.08387(19) 0.44764(11)
O1 O 0.13513(15) -0.05992(14) 0.50807(8)
N4 N -0.05733(19) -0.13263(18) 0.43236(11)
H4 H -0.090(3) -0.154(3) 0.3938(16)
C9 C -0.1207(2) -0.1752(2) 0.48922(12)
H5 H -0.067(3) -0.251(3) 0.5140(15)
H6 H -0.114(3) -0.110(3) 0.5232(15)
C10 C -0.2679(2) -0.2163(2) 0.45981(12)
H7 H -0.3200 -0.1498 0.4318
H8 H -0.3115 -0.2374 0.4991
H9 H -0.2678 -0.2881 0.4294
C11 C 0.6331(2) 0.0515(2) 0.56345(11)
H10 H 0.728(2) 0.029(2) 0.5789(11)
O2 O 0.54542(16) -0.04280(14) 0.58073(8)
C12 C 0.4900(2) -0.0061(2) 0.64046(12)
H11 H 0.387(3) 0.012(2) 0.6219(13)
H12 H 0.495(3) -0.075(3) 0.6721(14)
C13 C 0.5733(3) 0.1037(2) 0.67247(12)
H13 H 0.654(3) 0.078(2) 0.7066(13)
H14 H 0.516(3) 0.163(3) 0.6969(16)
C14 C 0.6127(2) 0.1632(2) 0.60810(12)
H15 H 0.539(3) 0.217(2) 0.5821(13)
H16 H 0.693(3) 0.208(2) 0.6197(13)
C15 C 0.7869(2) 0.1568(2) 0.33796(11)
C16 C 0.8091(2) 0.0845(2) 0.28227(11)
H17 H 0.751(3) 0.017(3) 0.2677(13)
N5 N 0.90847(18) 0.10722(17) 0.24691(9)
C17 C 0.9886(2) 0.2050(2) 0.26815(11)
N6 N 0.97513(18) 0.28172(17) 0.32033(9)
C18 C 0.8745(2) 0.2575(2) 0.35458(11)
H18 H 0.865(2) 0.314(2) 0.3901(13)
C19 C 1.0996(2) 0.2339(2) 0.22642(11)
C20 C 1.0286(2) 0.2909(2) 0.15554(12)
H19 H 1.095(3) 0.304(2) 0.1251(14)
H20 H 0.989(3) 0.370(3) 0.1622(14)
H21 H 0.951(3) 0.233(3) 0.1278(16)
C21 C 1.2116(2) 0.3182(2) 0.26772(13)
H22 H 1.2560(19) 0.2851(17) 0.3132(11)
H23 H 1.282(2) 0.335(2) 0.2372(13)
H24 H 1.174(3) 0.400(3) 0.2762(14)
O3 O 1.16079(15) 0.12109(14) 0.20979(8)
H25 H 1.207(3) 0.084(3) 0.2475(14)
N7 N 0.68673(18) 0.88416(17) 0.16552(9)
C22 C 0.7449(2) 0.8932(2) 0.11056(11)
N8 N 0.6651(2) 0.8472(2) 0.04925(11)
H26 H 0.698(3) 0.836(3) 0.0138(16)
C23 C 0.5443(2) 0.8055(2) 0.06552(12)
C24 C 0.4263(2) 0.7515(3) 0.02396(12)
C25 C 0.3229(2) 0.7263(2) 0.05972(12)
F2 F 0.20187(14) 0.68017(17) 0.02066(7)
C26 C 0.3291(2) 0.7509(2) 0.13130(12)
C27 C 0.4505(2) 0.8049(2) 0.17056(12)
H27 H 0.459(2) 0.825(2) 0.2186(13)
C28 C 0.5568(2) 0.8312(2) 0.13732(11)
N9 N 0.87197(19) 0.94480(19) 0.11460(10)
H28 H 0.904(3) 0.983(3) 0.1542(16)
C29 C 0.9361(3) 0.9543(3) 0.05674(13)
O4 O 0.8802(2) 0.9146(3) -0.00212(9)
N10 N 1.0599(2) 1.0086(3) 0.07354(12)
H29 H 1.087(3) 1.038(2) 0.1126(15)
C30 C 1.1543(6) 1.0065(6) 0.0213(3)
H30 H 1.2502 0.9847 0.0455
H31 H 1.1207 0.9469 -0.0174
C31 C 1.1474(5) 1.1358(6) -0.0075(3)
H32 H 1.0504 1.1590 -0.0255
H33 H 1.1969 1.1400 -0.0461
H34 H 1.1905 1.1920 0.0306
C32 C 0.4113(3) 0.7270(3) -0.05422(13)
H35 H 0.341(3) 0.668(3) -0.0709(15)
O5 O 0.53821(18) 0.6778(2) -0.06517(9)
C33 C 0.5266(3) 0.6851(3) -0.14016(13)
H36 H 0.458(3) 0.612(3) -0.1645(16)
H37 H 0.616(3) 0.677(3) -0.1510(14)
C34 C 0.4592(4) 0.8063(4) -0.16229(16)
H38 H 0.3917 0.7991 -0.2084
H39 H 0.5293 0.8687 -0.1667
C35 C 0.3850(3) 0.8408(4) -0.10213(16)
H40 H 0.285(4) 0.860(3) -0.1167(17)
H41 H 0.433(5) 0.921(5) -0.073(3)
C36 C 0.2115(2) 0.72619(19) 0.16536(11)
C37 C 0.1803(2) 0.8075(2) 0.21528(12)
H42 H 0.236(2) 0.888(2) 0.2275(12)
N11 N 0.07967(18) 0.78862(17) 0.25021(10)
C38 C 0.0059(2) 0.6860(2) 0.23383(11)
N12 N 0.02594(18) 0.60198(16) 0.18689(9)
C39 C 0.1291(2) 0.6226(2) 0.15365(11)
H43 H 0.146(2) 0.564(2) 0.1193(14)
C40 C -0.1065(2) 0.6591(2) 0.27506(11)
C41 C -0.2204(2) 0.5772(2) 0.23276(13)
H44 H -0.2933 0.5664 0.2593
H45 H -0.1813 0.4972 0.2251
H46 H -0.2597 0.6154 0.1867
C42 C -0.0364(2) 0.5977(2) 0.34497(12)
H47 H 0.005(3) 0.518(3) 0.3330(13)
H48 H -0.105(3) 0.579(3) 0.3724(15)
H49 H 0.036(3) 0.652(3) 0.3723(14)
O6 O -0.16472(16) 0.77145(15) 0.29306(8)
H50 H -0.210(3) 0.812(3) 0.2537(19)
C43? C 1.1128(5) 1.0798(7) 0.0183(3)
H51? H 1.1712 1.1495 0.0400
H52? H 1.0353 1.1113 -0.0191
C44? C 1.1970(7) 0.9865(5) -0.0117(4)
H53? H 1.2799 0.9653 0.0245
H54? H 1.2246 1.0209 -0.0533
H55? H 1.1412 0.9127 -0.0255
loop_
_geom_bond_atom_site_label_1
_geom_bond_atom_site_label_2
_geom_bond_site_symmetry_1
_geom_bond_site_symmetry_2
N1 C1 1_555 1_555
C1 N2 1_555 1_555
N2 H1 1_555 1_555
C2 N2 1_555 1_555
C3 C2 1_555 1_555
C4 C3 1_555 1_555
F1 C4 1_555 1_555
C5 C4 1_555 1_555
C6 C5 1_555 1_555
H2 C6 1_555 1_555
C7 N1 1_555 1_555
N3 C1 1_555 1_555
H3 N3 1_555 1_555
C8 N3 1_555 1_555
O1 C8 1_555 1_555
N4 C8 1_555 1_555
H4 N4 1_555 1_555
C9 N4 1_555 1_555
H5 C9 1_555 1_555
H6 C9 1_555 1_555
C10 C9 1_555 1_555
H7 C10 1_555 1_555
H8 C10 1_555 1_555
H9 C10 1_555 1_555
C11 C3 1_555 1_555
H10 C11 1_555 1_555
O2 C11 1_555 1_555
C12 O2 1_555 1_555
H11 C12 1_555 1_555
H12 C12 1_555 1_555
C13 C12 1_555 1_555
H13 C13 1_555 1_555
H14 C13 1_555 1_555
C14 C11 1_555 1_555
H15 C14 1_555 1_555
H16 C14 1_555 1_555
C15 C5 1_555 1_555
C16 C15 1_555 1_555
H17 C16 1_555 1_555
N5 C16 1_555 1_555
C17 N5 1_555 1_555
N6 C17 1_555 1_555
C18 C15 1_555 1_555
H18 C18 1_555 1_555
C19 C17 1_555 1_555
C20 C19 1_555 1_555
H19 C20 1_555 1_555
H20 C20 1_555 1_555
H21 C20 1_555 1_555
C21 C19 1_555 1_555
H22 C21 1_555 1_555
H23 C21 1_555 1_555
H24 C21 1_555 1_555
O3 C19 1_555 1_555
H25 O3 1_555 1_555
N7 C22 1_555 1_555
C22 N8 1_555 1_555
N8 H26 1_555 1_555
C23 N8 1_555 1_555
C24 C23 1_555 1_555
C25 C24 1_555 1_555
F2 C25 1_555 1_555
C26 C25 1_555 1_555
C27 C26 1_555 1_555
H27 C27 1_555 1_555
C28 N7 1_555 1_555
N9 C22 1_555 1_555
H28 N9 1_555 1_555
C29 N9 1_555 1_555
O4 C29 1_555 1_555
N10 C29 1_555 1_555
H29 N10 1_555 1_555
C30 N10 1_555 1_555
H30 C30 1_555 1_555
H31 C30 1_555 1_555
C31 C30 1_555 1_555
H32 C31 1_555 1_555
H33 C31 1_555 1_555
H34 C31 1_555 1_555
C32 C24 1_555 1_555
H35 C32 1_555 1_555
O5 C32 1_555 1_555
C33 O5 1_555 1_555
H36 C33 1_555 1_555
H37 C33 1_555 1_555
C34 C33 1_555 1_555
H38 C34 1_555 1_555
H39 C34 1_555 1_555
C35 C32 1_555 1_555
H40 C35 1_555 1_555
H41 C35 1_555 1_555
C36 C26 1_555 1_555
C37 C36 1_555 1_555
H42 C37 1_555 1_555
N11 C37 1_555 1_555
C38 N11 1_555 1_555
N12 C38 1_555 1_555
C39 C36 1_555 1_555
H43 C39 1_555 1_555
C40 C38 1_555 1_555
C41 C40 1_555 1_555
H44 C41 1_555 1_555
H45 C41 1_555 1_555
H46 C41 1_555 1_555
C42 C40 1_555 1_555
H47 C42 1_555 1_555
H48 C42 1_555 1_555
H49 C42 1_555 1_555
O6 C40 1_555 1_555
H50 O6 1_555 1_555
C2 C7 1_555 1_555
C6 C7 1_555 1_555
C13 C14 1_555 1_555
N6 C18 1_555 1_555
C23 C28 1_555 1_555
C27 C28 1_555 1_555
C34 C35 1_555 1_555
N12 C39 1_555 1_555

#END
