
#######################################################################
#
#                 Cambridge Crystallographic Data Centre
#                                CCDC 
#
#######################################################################
#
# If this CIF has been generated from an entry in the Cambridge 
# Structural Database, then it will include bibliographic, chemical, 
# crystal, experimental, refinement or atomic coordinate data resulting 
# from the CCDC's data processing and validation procedures.
#
#######################################################################

data_FUGJEW
_chemical_formula_moiety         'C26 H40 Cl4 N12 Si2 2+,2(Cl1 1-)'
_chemical_name_systematic        
'(\m~2~-Ethylene)-bis(dichloro-tris(1-methylimidazole)-silicon(iv)) dichloride'
_symmetry_cell_setting           monoclinic
_symmetry_space_group_name_H-M   'P 21/n'
_symmetry_Int_Tables_number      14
_space_group_name_Hall           '-P 2yn'
loop_
_symmetry_equiv_pos_site_id
_symmetry_equiv_pos_as_xyz
1 x,y,z
2 1/2+x,1/2-y,1/2+z
3 -x,-y,-z
4 1/2-x,1/2+y,1/2-z
_cell_length_a                   13.89760(10)
_cell_length_b                   7.55530(10)
_cell_length_c                   17.3704(2)
_cell_angle_alpha                90
_cell_angle_beta                 97.9470(10)
_cell_angle_gamma                90
_cell_volume                     1806.39
_exptl_crystal_colour            colorless
_exptl_crystal_description       block
_cell_formula_units_Z            2
_exptl_crystal_recrystallization_method sublimation
loop_
_atom_site_label
_atom_site_type_symbol
_atom_site_fract_x
_atom_site_fract_y
_atom_site_fract_z
Si1 Si 0.84087(5) 0.38063(9) 0.50006(4)
Cl1 Cl 0.92492(4) 0.14794(8) 0.55269(3)
Cl2 Cl 0.74196(4) 0.60133(7) 0.44516(3)
C1 C 0.95282(16) 0.4996(3) 0.47145(14)
H1 H 0.9674 0.4461 0.4223
H2 H 0.9344 0.6244 0.4600
N1 N 0.85095(13) 0.5002(3) 0.60054(11)
C2 C 0.84753(18) 0.6741(3) 0.61186(14)
H3 H 0.8362 0.7594 0.5714
N2 N 0.86209(15) 0.7128(3) 0.68765(11)
C3 C 0.8624(2) 0.8914(4) 0.72107(16)
H4 H 0.8385 0.9763 0.6802
H5 H 0.9288 0.9232 0.7434
H6 H 0.8202 0.8939 0.7618
C4 C 0.87626(19) 0.5561(3) 0.72759(15)
H7 H 0.8887 0.5421 0.7824
C5 C 0.86903(18) 0.4257(3) 0.67401(14)
H8 H 0.8753 0.3027 0.6849
N3 N 0.81128(14) 0.2478(3) 0.40312(11)
C6 C 0.72472(18) 0.2332(3) 0.36007(13)
H9 H 0.6667 0.2861 0.3723
N4 N 0.73072(15) 0.1339(3) 0.29721(12)
C7 C 0.6487(2) 0.0874(4) 0.23813(15)
H10 H 0.5890 0.1399 0.2520
H11 H 0.6418 -0.0416 0.2354
H12 H 0.6606 0.1329 0.1875
C8 C 0.82645(19) 0.0812(4) 0.29999(15)
H13 H 0.8527 0.0099 0.2629
C9 C 0.87520(19) 0.1506(3) 0.36549(14)
H14 H 0.9425 0.1353 0.3830
N5 N 0.72537(14) 0.2692(3) 0.52886(11)
C10 C 0.64996(16) 0.3474(3) 0.55490(13)
H15 H 0.6438 0.4712 0.5626
N6 N 0.58432(14) 0.2262(3) 0.56864(11)
C11 C 0.48716(18) 0.2626(4) 0.58895(16)
H16 H 0.4871 0.3783 0.6145
H17 H 0.4697 0.1706 0.6243
H18 H 0.4397 0.2632 0.5416
C12 C 0.61760(18) 0.0619(3) 0.54997(14)
H19 H 0.5859 -0.0485 0.5539
C13 C 0.70426(17) 0.0893(3) 0.52498(14)
H20 H 0.7443 0.0000 0.5076
C1B C 1.04718(16) 0.5004(3) 0.52855(14)
Si1B Si 1.15913(5) 0.61937(9) 0.49994(4)
Cl1B Cl 1.07508(4) 0.85206(8) 0.44731(3)
Cl2B Cl 1.25804(4) 0.39867(7) 0.55484(3)
N1B N 1.14905(13) 0.4998(3) 0.39946(11)
C2B C 1.15247(18) 0.3259(3) 0.38814(14)
H3B H 1.1638 0.2406 0.4286
N2B N 1.13791(15) 0.2872(3) 0.31235(11)
C3B C 1.1376(2) 0.1086(4) 0.27893(16)
H4B H 1.1615 0.0237 0.3198
H5B H 1.0712 0.0768 0.2566
H6B H 1.1798 0.1061 0.2382
C4B C 1.12374(19) 0.4439(3) 0.27241(15)
H7B H 1.1113 0.4579 0.2176
C5B C 1.13097(18) 0.5743(3) 0.32599(14)
H8B H 1.1247 0.6973 0.3151
N3B N 1.18872(14) 0.7522(3) 0.59688(11)
C6B C 1.27528(18) 0.7668(3) 0.63993(13)
H9B H 1.3333 0.7139 0.6277
N4B N 1.26928(15) 0.8661(3) 0.70279(12)
C7B C 1.3513(2) 0.9126(4) 0.76187(15)
H10B H 1.4110 0.8601 0.7480
H11B H 1.3582 1.0416 0.7646
H12B H 1.3394 0.8671 0.8125
C8B C 1.17355(19) 0.9188(4) 0.70001(15)
H13B H 1.1473 0.9901 0.7371
C9B C 1.12480(19) 0.8494(3) 0.63451(14)
H14B H 1.0575 0.8647 0.6170
N5B N 1.27463(14) 0.7308(3) 0.47114(11)
C10B C 1.35004(16) 0.6526(3) 0.44510(13)
H15B H 1.3562 0.5288 0.4374
N6B N 1.41568(14) 0.7738(3) 0.43136(11)
C11B C 1.51284(18) 0.7374(4) 0.41105(16)
H16B H 1.5129 0.6217 0.3855
H17B H 1.5303 0.8294 0.3757
H18B H 1.5603 0.7368 0.4584
C12B C 1.38240(18) 0.9381(3) 0.45003(14)
H19B H 1.4141 1.0485 0.4461
C13B C 1.29574(17) 0.9107(3) 0.47502(14)
H20B H 1.2557 1.0000 0.4924
H1B H 1.0326 0.5539 0.5777
H2B H 1.0656 0.3756 0.5400
Cl3 Cl 0.47226(5) 0.28993(8) 0.35530(4)
loop_
_geom_bond_atom_site_label_1
_geom_bond_atom_site_label_2
_geom_bond_site_symmetry_1
_geom_bond_site_symmetry_2
Si1 Cl1 1_555 1_555
Cl2 Si1 1_555 1_555
C1 Si1 1_555 1_555
H1 C1 1_555 1_555
H2 C1 1_555 1_555
N1 Si1 1_555 1_555
C2 N1 1_555 1_555
H3 C2 1_555 1_555
N2 C2 1_555 1_555
C3 N2 1_555 1_555
H4 C3 1_555 1_555
H5 C3 1_555 1_555
H6 C3 1_555 1_555
C4 N2 1_555 1_555
H7 C4 1_555 1_555
C5 N1 1_555 1_555
H8 C5 1_555 1_555
N3 Si1 1_555 1_555
C6 N3 1_555 1_555
H9 C6 1_555 1_555
N4 C6 1_555 1_555
C7 N4 1_555 1_555
H10 C7 1_555 1_555
H11 C7 1_555 1_555
H12 C7 1_555 1_555
C8 N4 1_555 1_555
H13 C8 1_555 1_555
C9 N3 1_555 1_555
H14 C9 1_555 1_555
N5 Si1 1_555 1_555
C10 N5 1_555 1_555
H15 C10 1_555 1_555
N6 C10 1_555 1_555
C11 N6 1_555 1_555
H16 C11 1_555 1_555
H17 C11 1_555 1_555
H18 C11 1_555 1_555
C12 N6 1_555 1_555
H19 C12 1_555 1_555
C13 N5 1_555 1_555
H20 C13 1_555 1_555
C1B C1 1_555 1_555
Si1B C1B 1_555 1_555
Cl1B Si1B 1_555 1_555
Cl2B Si1B 1_555 1_555
N1B Si1B 1_555 1_555
C2B N1B 1_555 1_555
H3B C2B 1_555 1_555
N2B C2B 1_555 1_555
C3B N2B 1_555 1_555
H4B C3B 1_555 1_555
H5B C3B 1_555 1_555
H6B C3B 1_555 1_555
C4B N2B 1_555 1_555
H7B C4B 1_555 1_555
C5B N1B 1_555 1_555
H8B C5B 1_555 1_555
N3B Si1B 1_555 1_555
C6B N3B 1_555 1_555
H9B C6B 1_555 1_555
N4B C6B 1_555 1_555
C7B N4B 1_555 1_555
H10B C7B 1_555 1_555
H11B C7B 1_555 1_555
H12B C7B 1_555 1_555
C8B N4B 1_555 1_555
H13B C8B 1_555 1_555
C9B N3B 1_555 1_555
H14B C9B 1_555 1_555
N5B Si1B 1_555 1_555
C10B N5B 1_555 1_555
H15B C10B 1_555 1_555
N6B C10B 1_555 1_555
C11B N6B 1_555 1_555
H16B C11B 1_555 1_555
H17B C11B 1_555 1_555
H18B C11B 1_555 1_555
C12B N6B 1_555 1_555
H19B C12B 1_555 1_555
C13B N5B 1_555 1_555
H20B C13B 1_555 1_555
H1B C1B 1_555 1_555
H2B C1B 1_555 1_555
C4 C5 1_555 1_555
C8 C9 1_555 1_555
C12 C13 1_555 1_555
C4B C5B 1_555 1_555
C8B C9B 1_555 1_555
C12B C13B 1_555 1_555

#END
