
#######################################################################
#
#                 Cambridge Crystallographic Data Centre
#                                CCDC 
#
#######################################################################
#
# If this CIF has been generated from an entry in the Cambridge 
# Structural Database, then it will include bibliographic, chemical, 
# crystal, experimental, refinement or atomic coordinate data resulting 
# from the CCDC's data processing and validation procedures.
#
#######################################################################

data_FUGJIA
_chemical_formula_moiety         'C24 H23 N4 O4 S1 1+,C24 H22 N4 O4 S1,Cl1 1-'
_chemical_name_systematic        
'(S)-(+)-4-(5-(2-Oxo-4,5-dihydroimidazol-1-ylsulfonyl)indolin-1-ylcarbonyl)anilinium (S)-(+)-1-(1-(4-aminobenzoyl)indoline-5-sulfonyl)-4-phenyl-4,5-dihydroimidazol-2-one chloride'
_symmetry_cell_setting           monoclinic
_symmetry_space_group_name_H-M   'C 2'
_symmetry_Int_Tables_number      5
_space_group_name_Hall           'C 2y'
loop_
_symmetry_equiv_pos_site_id
_symmetry_equiv_pos_as_xyz
1 x,y,z
2 -x,y,-z
3 1/2+x,1/2+y,z
4 1/2-x,1/2+y,-z
_cell_length_a                   28.945(3)
_cell_length_b                   6.5473(9)
_cell_length_c                   27.526(2)
_cell_angle_alpha                90
_cell_angle_beta                 117.622(7)
_cell_angle_gamma                90
_cell_volume                     4621.95
_exptl_crystal_colour            'pale brown'
_exptl_crystal_description       prism
_chemical_melting_point          '489 K'
_cell_formula_units_Z            4
_exptl_crystal_recrystallization_method methanol/dichloromethane
loop_
_atom_site_label
_atom_site_type_symbol
_atom_site_fract_x
_atom_site_fract_y
_atom_site_fract_z
S1 S 0.71416(3) 0.77234(14) -0.58890(4)
N1 N 0.50142(12) 0.8717(5) -0.28874(13)
H1 H 0.4688 0.8287 -0.3005
H2 H 0.5033 1.0046 -0.2813
H3 H 0.5225 0.8036 -0.2585
N2 N 0.59478(11) 0.8413(4) -0.46512(12)
N3 N 0.60953(12) 0.4745(6) -0.70211(15)
H4 H 0.5770 0.4548 -0.7237
N4 N 0.68106(11) 0.6194(4) -0.64197(12)
O1 O 0.71481(10) 0.9710(4) -0.60969(10)
O2 O 0.76194(9) 0.6676(4) -0.55732(10)
O3 O 0.60350(10) 0.8045(4) -0.67748(10)
O4 O 0.57497(12) 0.5143(4) -0.45563(11)
C1 C 0.51750(14) 0.8355(6) -0.33163(14)
C2 C 0.49431(15) 0.6838(6) -0.36947(15)
H5 H 0.4669 0.6088 -0.3698
C3 C 0.51225(15) 0.6434(6) -0.40746(15)
H6 H 0.4975 0.5378 -0.4326
C4 C 0.55214(13) 0.7604(6) -0.40788(14)
C5 C 0.57369(15) 0.9152(6) -0.37009(15)
H7 H 0.6002 0.9951 -0.3703
C6 C 0.55648(14) 0.9529(7) -0.33199(16)
H8 H 0.5712 1.0577 -0.3066
C7 C 0.57400(15) 0.6952(6) -0.44544(15)
C8 C 0.58062(16) 1.0619(5) -0.47330(16)
H9 H 0.6056 1.1433 -0.4431
H10 H 0.5461 1.0842 -0.4767
C9 C 0.58203(16) 1.1137(6) -0.52681(16)
H11 H 0.5477 1.1014 -0.5581
H12 H 0.5952 1.2506 -0.5258
C10 C 0.61900(14) 0.9545(6) -0.52841(14)
C11 C 0.62372(13) 0.7964(6) -0.49347(13)
C12 C 0.65545(15) 0.6296(6) -0.48706(15)
H13 H 0.6582 0.5237 -0.4634
C13 C 0.68294(15) 0.6244(6) -0.51676(14)
H14 H 0.7046 0.5142 -0.5131
C14 C 0.67829(13) 0.7829(6) -0.55182(13)
C15 C 0.64627(14) 0.9509(6) -0.55836(14)
H15 H 0.6434 1.0570 -0.5821
C16 C 0.62749(15) 0.6473(6) -0.67577(16)
C17 C 0.69450(14) 0.4040(5) -0.63966(16)
H16 H 0.6964 0.3392 -0.6071
H17 H 0.7275 0.3857 -0.6403
C18 C 0.64877(13) 0.3192(6) -0.69205(16)
H18 H 0.6373 0.1885 -0.6840
C19 C 0.66129(13) 0.2927(7) -0.73938(15)
C20 C 0.68585(16) 0.1178(7) -0.74233(18)
H19 H 0.6930 0.0163 -0.7162
C21 C 0.70015(18) 0.0884(9) -0.78298(19)
H20 H 0.7170 -0.0312 -0.7840
C22 C 0.68948(18) 0.2360(11) -0.8219(2)
H21 H 0.6995 0.2187 -0.8492
C23 C 0.6643(2) 0.4070(10) -0.8202(2)
H22 H 0.6564 0.5064 -0.8471
C24 C 0.64993(16) 0.4374(8) -0.77901(19)
H23 H 0.6326 0.5562 -0.7785
S2 S 0.27780(3) 0.78296(14) 0.09839(4)
N5 N 0.51914(14) 0.9075(7) -0.17240(14)
H24 H 0.5437 0.8304 -0.1712
H25 H 0.5106 1.0163 -0.1922
N6 N 0.39633(12) 0.8567(4) -0.02600(13)
N7 N 0.38135(11) 0.4796(5) 0.21321(14)
H26 H 0.4135 0.4599 0.2363
N8 N 0.31097(11) 0.6267(4) 0.15125(11)
O5 O 0.27804(10) 0.9806(4) 0.12061(10)
O6 O 0.22975(9) 0.6784(4) 0.06720(10)
O7 O 0.38956(9) 0.8088(4) 0.19059(10)
O8 O 0.40642(12) 0.5272(4) -0.04358(12)
C25 C 0.49322(16) 0.8564(7) -0.14248(16)
C26 C 0.50564(17) 0.6849(7) -0.11064(17)
H27 H 0.5316 0.5982 -0.1094
C27 C 0.47998(16) 0.6379(6) -0.07999(16)
H28 H 0.4880 0.5179 -0.0596
C28 C 0.44237(14) 0.7695(7) -0.07970(14)
C29 C 0.42967(16) 0.9417(7) -0.11270(16)
H29 H 0.4039 1.0295 -0.1138
C30 C 0.45433(16) 0.9856(7) -0.14383(17)
H30 H 0.4450 1.1016 -0.1658
C31 C 0.41399(16) 0.7076(6) -0.04886(15)
C32 C 0.4179(2) 1.0650(6) -0.0121(2)
H31 H 0.4012 1.1549 -0.0435
H32 H 0.4552 1.0641 -0.0001
C33 C 0.40656(16) 1.1352(6) 0.03474(16)
H33 H 0.4384 1.1436 0.0691
H34 H 0.3895 1.2674 0.0267
C34 C 0.37116(14) 0.9728(6) 0.03713(14)
C35 C 0.36650(13) 0.8148(6) 0.00109(14)
C36 C 0.33412(14) 0.6482(6) -0.00618(15)
H35 H 0.3306 0.5445 -0.0307
C37 C 0.30709(14) 0.6415(6) 0.02440(14)
H36 H 0.2851 0.5321 0.0202
C38 C 0.31261(13) 0.7956(6) 0.06085(13)
C39 C 0.34481(14) 0.9622(6) 0.06754(14)
H37 H 0.3484 1.0652 0.0923
C40 C 0.36438(14) 0.6526(6) 0.18626(15)
C41 C 0.29620(14) 0.4132(5) 0.14870(15)
H38 H 0.2938 0.3476 0.1160
H39 H 0.2632 0.3987 0.1495
C42 C 0.34152(13) 0.3249(6) 0.20097(15)
H40 H 0.3531 0.1957 0.1922
C43 C 0.32817(12) 0.2918(6) 0.24743(14)
C44 C 0.30355(15) 0.1123(7) 0.24913(17)
H41 H 0.2967 0.0131 0.2225
C45 C 0.28897(16) 0.0780(8) 0.28944(19)
H42 H 0.2722 -0.0429 0.2898
C46 C 0.29920(18) 0.2221(10) 0.3290(2)
H43 H 0.2891 0.2002 0.3561
C47 C 0.32398(19) 0.3970(10) 0.32865(19)
H44 H 0.3313 0.4941 0.3559
C48 C 0.33852(17) 0.4323(8) 0.28775(18)
H45 H 0.3555 0.5531 0.2879
Cl1 Cl 0.49530(4) 0.32892(18) 0.25666(6)
loop_
_geom_bond_atom_site_label_1
_geom_bond_atom_site_label_2
_geom_bond_site_symmetry_1
_geom_bond_site_symmetry_2
S1 N4 1_555 1_555
N1 H1 1_555 1_555
H2 N1 1_555 1_555
H3 N1 1_555 1_555
N2 C7 1_555 1_555
N3 H4 1_555 1_555
N4 C16 1_555 1_555
O1 S1 1_555 1_555
O2 S1 1_555 1_555
O3 C16 1_555 1_555
O4 C7 1_555 1_555
C1 N1 1_555 1_555
C2 C1 1_555 1_555
H5 C2 1_555 1_555
C3 C2 1_555 1_555
H6 C3 1_555 1_555
C4 C3 1_555 1_555
C5 C4 1_555 1_555
H7 C5 1_555 1_555
C6 C1 1_555 1_555
H8 C6 1_555 1_555
C7 C4 1_555 1_555
C8 N2 1_555 1_555
H9 C8 1_555 1_555
H10 C8 1_555 1_555
C9 C8 1_555 1_555
H11 C9 1_555 1_555
H12 C9 1_555 1_555
C10 C9 1_555 1_555
C11 N2 1_555 1_555
C12 C11 1_555 1_555
H13 C12 1_555 1_555
C13 C12 1_555 1_555
H14 C13 1_555 1_555
C14 S1 1_555 1_555
C15 C10 1_555 1_555
H15 C15 1_555 1_555
C16 N3 1_555 1_555
C17 N4 1_555 1_555
H16 C17 1_555 1_555
H17 C17 1_555 1_555
C18 N3 1_555 1_555
H18 C18 1_555 1_555
C19 C18 1_555 1_555
C20 C19 1_555 1_555
H19 C20 1_555 1_555
C21 C20 1_555 1_555
H20 C21 1_555 1_555
C22 C21 1_555 1_555
H21 C22 1_555 1_555
C23 C22 1_555 1_555
H22 C23 1_555 1_555
C24 C19 1_555 1_555
H23 C24 1_555 1_555
S2 N8 1_555 1_555
N5 H24 1_555 1_555
H25 N5 1_555 1_555
N6 C31 1_555 1_555
N7 H26 1_555 1_555
N8 C40 1_555 1_555
O5 S2 1_555 1_555
O6 S2 1_555 1_555
O7 C40 1_555 1_555
O8 C31 1_555 1_555
C25 N5 1_555 1_555
C26 C25 1_555 1_555
H27 C26 1_555 1_555
C27 C26 1_555 1_555
H28 C27 1_555 1_555
C28 C27 1_555 1_555
C29 C28 1_555 1_555
H29 C29 1_555 1_555
C30 C25 1_555 1_555
H30 C30 1_555 1_555
C31 C28 1_555 1_555
C32 N6 1_555 1_555
H31 C32 1_555 1_555
H32 C32 1_555 1_555
C33 C32 1_555 1_555
H33 C33 1_555 1_555
H34 C33 1_555 1_555
C34 C33 1_555 1_555
C35 N6 1_555 1_555
C36 C35 1_555 1_555
H35 C36 1_555 1_555
C37 C36 1_555 1_555
H36 C37 1_555 1_555
C38 S2 1_555 1_555
C39 C34 1_555 1_555
H37 C39 1_555 1_555
C40 N7 1_555 1_555
C41 N8 1_555 1_555
H38 C41 1_555 1_555
H39 C41 1_555 1_555
C42 N7 1_555 1_555
H40 C42 1_555 1_555
C43 C42 1_555 1_555
C44 C43 1_555 1_555
H41 C44 1_555 1_555
C45 C44 1_555 1_555
H42 C45 1_555 1_555
C46 C45 1_555 1_555
H43 C46 1_555 1_555
C47 C46 1_555 1_555
H44 C47 1_555 1_555
C48 C43 1_555 1_555
H45 C48 1_555 1_555
C5 C6 1_555 1_555
C10 C11 1_555 1_555
C13 C14 1_555 1_555
C14 C15 1_555 1_555
C17 C18 1_555 1_555
C23 C24 1_555 1_555
C29 C30 1_555 1_555
C34 C35 1_555 1_555
C37 C38 1_555 1_555
C38 C39 1_555 1_555
C41 C42 1_555 1_555
C47 C48 1_555 1_555

#END
