
#######################################################################
#
#                 Cambridge Crystallographic Data Centre
#                                CCDC 
#
#######################################################################
#
# If this CIF has been generated from an entry in the Cambridge 
# Structural Database, then it will include bibliographic, chemical, 
# crystal, experimental, refinement or atomic coordinate data resulting 
# from the CCDC's data processing and validation procedures.
#
#######################################################################

data_FUGPII
_chemical_formula_moiety         'C15 H12 F3 N3 O1'
_chemical_name_systematic        
3-phenyl-1-(pyridin-2-yl)-5-(trifluoromethyl)-4,5-dihydro-1H-pyrazol-5-ol
_symmetry_cell_setting           triclinic
_symmetry_space_group_name_H-M   'P -1'
_symmetry_Int_Tables_number      2
_space_group_name_Hall           '-P 1'
loop_
_symmetry_equiv_pos_site_id
_symmetry_equiv_pos_as_xyz
1 x,y,z
2 -x,-y,-z
_cell_length_a                   5.7091(4)
_cell_length_b                   8.7688(9)
_cell_length_c                   14.0235(14)
_cell_angle_alpha                100.573(8)
_cell_angle_beta                 93.909(7)
_cell_angle_gamma                100.654(7)
_cell_volume                     674.43
_exptl_crystal_colour            colorless
_exptl_crystal_description       parallelepiped
_cell_formula_units_Z            2
loop_
_atom_site_label
_atom_site_type_symbol
_atom_site_fract_x
_atom_site_fract_y
_atom_site_fract_z
F1 F 0.05609(18) 0.50288(11) 0.75364(8)
F2 F 0.36377(17) 0.40219(12) 0.71827(8)
F3 F 0.10076(19) 0.41566(12) 0.60366(7)
O1 O -0.2524(2) 0.21258(15) 0.67142(9)
H1 H -0.304(4) 0.269(3) 0.7201(17)
N1 N -0.2557(2) 0.30215(17) 0.86236(10)
N2 N 0.0480(2) 0.19035(16) 0.79622(10)
N3 N 0.1848(2) 0.07319(16) 0.79463(10)
C1 C -0.3844(3) 0.3370(2) 0.93733(13)
H2 H -0.5108 0.3914 0.9282
C2 C -0.3422(3) 0.2977(2) 1.02678(13)
H3 H -0.4365 0.3245 1.0782
C3 C -0.1578(3) 0.2177(2) 1.03965(13)
H4 H -0.1250 0.1886 1.1004
C4 C -0.0222(3) 0.1803(2) 0.96422(12)
H5 H 0.1054 0.1263 0.9718
C5 C -0.0794(3) 0.22496(19) 0.87622(12)
C6 C -0.0101(3) 0.22166(19) 0.69825(12)
C7 C 0.0894(3) 0.0936(2) 0.63315(12)
H6 H -0.0414 0.0135 0.5922
H7 H 0.2012 0.1403 0.5904
C8 C 0.2180(3) 0.02199(19) 0.70537(12)
C9 C 0.3664(3) -0.09624(18) 0.67860(12)
C10 C 0.3619(3) -0.1694(2) 0.58112(12)
H8 H 0.2575 -0.1458 0.5326
C11 C 0.5089(3) -0.2765(2) 0.55442(13)
H9 H 0.5039 -0.3261 0.4879
C12 C 0.6622(3) -0.3110(2) 0.62424(14)
H10 H 0.7635 -0.3837 0.6059
C13 C 0.6676(3) -0.2390(2) 0.72163(14)
H11 H 0.7725 -0.2630 0.7698
C14 C 0.5214(3) -0.1326(2) 0.74880(13)
H12 H 0.5264 -0.0841 0.8155
C15 C 0.1281(3) 0.3873(2) 0.69388(12)
loop_
_geom_bond_atom_site_label_1
_geom_bond_atom_site_label_2
_geom_bond_site_symmetry_1
_geom_bond_site_symmetry_2
F1 C15 1_555 1_555
F2 C15 1_555 1_555
F3 C15 1_555 1_555
O1 H1 1_555 1_555
N1 C1 1_555 1_555
N2 N3 1_555 1_555
N3 C8 1_555 1_555
C1 H2 1_555 1_555
C2 C1 1_555 1_555
H3 C2 1_555 1_555
C3 C2 1_555 1_555
H4 C3 1_555 1_555
C4 C3 1_555 1_555
H5 C4 1_555 1_555
C5 N1 1_555 1_555
C6 O1 1_555 1_555
C7 C6 1_555 1_555
H6 C7 1_555 1_555
H7 C7 1_555 1_555
C8 C7 1_555 1_555
C9 C8 1_555 1_555
C10 C9 1_555 1_555
H8 C10 1_555 1_555
C11 C10 1_555 1_555
H9 C11 1_555 1_555
C12 C11 1_555 1_555
H10 C12 1_555 1_555
C13 C12 1_555 1_555
H11 C13 1_555 1_555
C14 C9 1_555 1_555
H12 C14 1_555 1_555
C15 C6 1_555 1_555
N2 C5 1_555 1_555
N2 C6 1_555 1_555
C4 C5 1_555 1_555
C13 C14 1_555 1_555

#END
