
#######################################################################
#
#                 Cambridge Crystallographic Data Centre
#                                CCDC 
#
#######################################################################
#
# If this CIF has been generated from an entry in the Cambridge 
# Structural Database, then it will include bibliographic, chemical, 
# crystal, experimental, refinement or atomic coordinate data resulting 
# from the CCDC's data processing and validation procedures.
#
#######################################################################

data_FUGTUX
_chemical_formula_moiety         'C26 H26 N4 O6,C2 H4 Cl2'
_chemical_name_systematic        
'Diethyl 6,13-dioxo-5,7,12,13b,13c,14-hexahydro-6H,13H-5a,6a,12a,13a-tetraazabenz[5,6]azuleno[2,1,8-ija]benz[f]azulene-13b,13c-dicarboxylate 1,2-dichloroethane clathrate'
_symmetry_cell_setting           triclinic
_symmetry_space_group_name_H-M   'P -1'
_symmetry_Int_Tables_number      2
_space_group_name_Hall           '-P 1'
loop_
_symmetry_equiv_pos_site_id
_symmetry_equiv_pos_as_xyz
1 x,y,z
2 -x,-y,-z
_cell_length_a                   8.9468(10)
_cell_length_b                   11.1544(13)
_cell_length_c                   15.6260(18)
_cell_angle_alpha                69.257(2)
_cell_angle_beta                 82.688(2)
_cell_angle_gamma                76.892(2)
_cell_volume                     1418.45
_exptl_crystal_colour            colorless
_exptl_crystal_description       block
_cell_formula_units_Z            2
_exptl_crystal_recrystallization_method 1,2-dichloroethane/methanol
loop_
_atom_site_label
_atom_site_type_symbol
_atom_site_fract_x
_atom_site_fract_y
_atom_site_fract_z
C1 C 0.3563(3) 0.4517(3) 0.43467(17)
C2 C 0.4101(3) 0.3329(3) 0.5006(2)
H1 H 0.3424 0.2944 0.5472
C3 C 0.5627(4) 0.2702(3) 0.4988(2)
H2 H 0.5962 0.1900 0.5434
C4 C 0.6644(3) 0.3268(3) 0.4308(2)
H3 H 0.7670 0.2856 0.4294
C5 C 0.6127(3) 0.4452(3) 0.3650(2)
H4 H 0.6816 0.4833 0.3191
C6 C 0.4600(3) 0.5090(3) 0.36552(18)
C7 C 0.4116(3) 0.6394(3) 0.29185(19)
H5 H 0.3833 0.7071 0.3197
H6 H 0.4982 0.6589 0.2487
C8 C 0.1895(3) 0.5177(3) 0.44266(18)
H7 H 0.1394 0.4605 0.4949
H8 H 0.1866 0.5974 0.4552
C9 C 0.2946(3) 0.6387(2) 0.15541(18)
C10 C 0.0566(3) 0.4531(2) 0.34105(17)
C11 C 0.1265(3) 0.6567(2) 0.27998(17)
C12 C 0.0736(3) 0.7930(3) 0.2899(2)
C13 C -0.0459(15) 0.9472(8) 0.4212(6)
H9 H -0.0458 0.8751 0.4776
H10 H -0.0985 1.0265 0.4314
H11 H 0.0581 0.9543 0.3994
C14 C -0.1260(11) 0.9249(6) 0.3514(6)
H12 H -0.2332 0.9230 0.3705
H13 H -0.1203 0.9933 0.2925
C15 C 0.0392(3) 0.6362(2) 0.20652(16)
C16 C -0.1181(3) 0.7301(3) 0.18476(19)
C17 C -0.2468(4) 0.9420(3) 0.1062(3)
H14 H -0.3236 0.9100 0.0863
H15 H -0.2870 0.9616 0.1614
C18 C -0.2110(6) 1.0594(4) 0.0345(3)
H16 H -0.1399 1.0935 0.0562
H17 H -0.3036 1.1239 0.0187
H18 H -0.1658 1.0379 -0.0187
C19 C -0.0402(3) 0.4324(3) 0.20547(18)
H19 H -0.1262 0.4892 0.1699
H20 H -0.0778 0.3591 0.2512
C20 C 0.1259(3) 0.6119(3) 0.05267(17)
H21 H 0.1919 0.6513 0.0009
H22 H 0.0205 0.6467 0.0350
C21 C 0.0802(3) 0.3813(3) 0.14224(17)
C22 C 0.1590(3) 0.4658(3) 0.07154(17)
C23 C 0.2683(3) 0.4133(3) 0.01628(19)
H23 H 0.3224 0.4681 -0.0301
C24 C 0.2981(4) 0.2818(3) 0.0286(2)
H24 H 0.3710 0.2487 -0.0095
C25 C 0.2200(4) 0.1994(3) 0.0975(2)
H25 H 0.2394 0.1106 0.1059
C26 C 0.1127(3) 0.2490(3) 0.1541(2)
H26 H 0.0611 0.1927 0.2011
N1 N 0.2825(2) 0.6424(2) 0.24224(15)
N2 N 0.1009(2) 0.5506(2) 0.36207(14)
N3 N 0.1477(2) 0.6518(2) 0.12931(13)
N4 N 0.0168(2) 0.5040(2) 0.25176(14)
O1 O 0.4116(2) 0.6274(2) 0.10852(13)
O2 O 0.0510(2) 0.34424(19) 0.39298(13)
O3 O 0.1344(3) 0.8818(2) 0.2469(2)
O4 O -0.0449(3) 0.7988(2) 0.3460(2)
O5 O -0.2343(3) 0.7010(3) 0.2211(2)
O6 O -0.1047(2) 0.84312(19) 0.12437(15)
C27 C 0.4248(6) 0.1793(8) 0.3161(4)
H27 H 0.3189 0.2096 0.3335
H28 H 0.4875 0.1658 0.3663
C28 C 0.4742(5) 0.2807(4) 0.2334(4)
H29 H 0.4497 0.3640 0.2436
H30 H 0.4169 0.2891 0.1822
Cl1 Cl 0.4405(2) 0.03136(15) 0.29818(12)
Cl2 Cl 0.67477(15) 0.24467(12) 0.20429(9)
C29? C -0.062(3) 0.9224(17) 0.3593(19)
C30? C -0.178(2) 0.9307(14) 0.4359(10)
H31? H -0.0937 0.9929 0.3033
H32? H 0.0366 0.9318 0.3737
H33? H -0.2692 0.9053 0.4272
H34? H -0.2036 1.0188 0.4364
H35? H -0.1368 0.8732 0.4933
loop_
_geom_bond_atom_site_label_1
_geom_bond_atom_site_label_2
_geom_bond_site_symmetry_1
_geom_bond_site_symmetry_2
C1 C2 1_555 1_555
C2 H1 1_555 1_555
C3 C2 1_555 1_555
H2 C3 1_555 1_555
C4 C3 1_555 1_555
H3 C4 1_555 1_555
C5 C4 1_555 1_555
H4 C5 1_555 1_555
C6 C1 1_555 1_555
C7 C6 1_555 1_555
H5 C7 1_555 1_555
H6 C7 1_555 1_555
C8 C1 1_555 1_555
H7 C8 1_555 1_555
H8 C8 1_555 1_555
C9 N1 1_555 1_555
C10 N2 1_555 1_555
C11 C12 1_555 1_555
C12 O3 1_555 1_555
C13 H9 1_555 1_555
H10 C13 1_555 1_555
H11 C13 1_555 1_555
C14 C13 1_555 1_555
H12 C14 1_555 1_555
H13 C14 1_555 1_555
C15 C11 1_555 1_555
C16 C15 1_555 1_555
C17 H14 1_555 1_555
H15 C17 1_555 1_555
C18 C17 1_555 1_555
H16 C18 1_555 1_555
H17 C18 1_555 1_555
H18 C18 1_555 1_555
C19 H19 1_555 1_555
H20 C19 1_555 1_555
C20 H21 1_555 1_555
H22 C20 1_555 1_555
C21 C19 1_555 1_555
C22 C20 1_555 1_555
C23 C22 1_555 1_555
H23 C23 1_555 1_555
C24 C23 1_555 1_555
H24 C24 1_555 1_555
C25 C24 1_555 1_555
H25 C25 1_555 1_555
C26 C21 1_555 1_555
H26 C26 1_555 1_555
N1 C7 1_555 1_555
N2 C8 1_555 1_555
N3 C9 1_555 1_555
N4 C10 1_555 1_555
O1 C9 1_555 1_555
O2 C10 1_555 1_555
O4 C12 1_555 1_555
O5 C16 1_555 1_555
O6 C16 1_555 1_555
C27 H27 1_555 1_555
H28 C27 1_555 1_555
C28 C27 1_555 1_555
H29 C28 1_555 1_555
H30 C28 1_555 1_555
Cl1 C27 1_555 1_555
Cl2 C28 1_555 1_555
C5 C6 1_555 1_555
C11 N1 1_555 1_555
C11 N2 1_555 1_555
C14 O4 1_555 1_555
C15 N3 1_555 1_555
C15 N4 1_555 1_555
C17 O6 1_555 1_555
C19 N4 1_555 1_555
C20 N3 1_555 1_555
C21 C22 1_555 1_555
C25 C26 1_555 1_555

#END
