
#######################################################################
#
#                 Cambridge Crystallographic Data Centre
#                                CCDC 
#
#######################################################################
#
# If this CIF has been generated from an entry in the Cambridge 
# Structural Database, then it will include bibliographic, chemical, 
# crystal, experimental, refinement or atomic coordinate data resulting 
# from the CCDC's data processing and validation procedures.
#
#######################################################################

data_FUGVAF
_chemical_formula_moiety         'C10 H16 O3'
_chemical_name_systematic        
'2-Hydroxy-6,6-dimethylbicyclo[3.1.1]heptane-2-carboxylic acid'
_symmetry_cell_setting           monoclinic
_symmetry_space_group_name_H-M   'C 2'
_symmetry_Int_Tables_number      5
_space_group_name_Hall           'C 2y'
loop_
_symmetry_equiv_pos_site_id
_symmetry_equiv_pos_as_xyz
1 x,y,z
2 -x,y,-z
3 1/2+x,1/2+y,z
4 1/2-x,1/2+y,-z
_cell_length_a                   26.796(5)
_cell_length_b                   6.6560(13)
_cell_length_c                   12.250(3)
_cell_angle_alpha                90
_cell_angle_beta                 112.23(3)
_cell_angle_gamma                90
_cell_volume                     2022.45
_exptl_crystal_colour            colorless
_exptl_crystal_description       block
_cell_formula_units_Z            8
_exptl_crystal_recrystallization_method ethanol/toluene
loop_
_atom_site_label
_atom_site_type_symbol
_atom_site_fract_x
_atom_site_fract_y
_atom_site_fract_z
O1 O 0.03238(12) 0.4845(8) 0.2047(3)
H1 H 0.021(3) 0.504(15) 0.134(2)
C1 C 0.2225(3) 0.6237(14) 0.2710(5)
H2 H 0.2158 0.7519 0.2986
H3 H 0.2171 0.6336 0.1891
H4 H 0.2590 0.5836 0.3156
O2 O 0.07227(15) 0.3644(5) 0.0307(3)
H5 H 0.0677 0.2896 -0.0255
C2 C 0.1946(2) 0.2647(10) 0.2414(5)
H6 H 0.1946 0.2814 0.1635
H7 H 0.1672 0.1701 0.2391
H8 H 0.2292 0.2157 0.2931
O3 O 0.06567(14) 0.0776(5) 0.1168(3)
C3 C 0.18336(16) 0.4660(9) 0.2865(4)
C4 C 0.18223(17) 0.4726(8) 0.4114(4)
H9 H 0.2164 0.5083 0.4747
C5 C 0.14121(19) 0.6413(8) 0.3696(4)
H10 H 0.1569 0.7746 0.3781
H11 H 0.1130 0.6356 0.4009
C6 C 0.12546(16) 0.5514(7) 0.2461(3)
H12 H 0.1162 0.6498 0.1820
C7 C 0.08375(14) 0.3881(7) 0.2299(3)
C8 C 0.0964(2) 0.2662(9) 0.3430(4)
H13 H 0.0901 0.1252 0.3223
H14 H 0.0714 0.3056 0.3794
C9 C 0.1543(2) 0.2906(9) 0.4343(4)
H15 H 0.1533 0.3013 0.5124
H16 H 0.1750 0.1716 0.4330
C10 C 0.07381(16) 0.2592(7) 0.1207(4)
O4 O -0.00459(10) -0.2034(5) -0.3282(2)
H17 H -0.010(2) -0.270(8) -0.276(4)
O5 O 0.05228(13) -0.1491(5) -0.0754(2)
H18 H 0.0566 -0.0769 -0.0183
O6 O 0.05719(14) 0.1444(5) -0.1566(3)
C11 C 0.1765(2) -0.5132(10) -0.1362(6)
H19 H 0.1808 -0.5215 -0.0549
H20 H 0.2114 -0.5142 -0.1416
H21 H 0.1559 -0.6262 -0.1785
C12 C 0.17137(18) -0.1448(10) -0.1071(4)
H22 H 0.1733 -0.1796 -0.0295
H23 H 0.1495 -0.0269 -0.1339
H24 H 0.2070 -0.1186 -0.1048
C13 C 0.14673(15) -0.3165(7) -0.1904(4)
C14 C 0.08439(14) -0.3538(6) -0.2409(3)
H25 H 0.0720 -0.4534 -0.1978
C15 C 0.08937(19) -0.4313(7) -0.3542(4)
H26 H 0.0597 -0.3933 -0.4260
H27 H 0.0973 -0.5737 -0.3532
C16 C 0.13896(18) -0.2949(7) -0.3219(4)
H28 H 0.1685 -0.3484 -0.3420
C17 C 0.1211(2) -0.0838(8) -0.3660(4)
H29 H 0.1174 -0.0727 -0.4476
H30 H 0.1483 0.0115 -0.3200
C18 C 0.06712(17) -0.0321(7) -0.3564(3)
H31 H 0.0681 0.1080 -0.3339
H32 H 0.0388 -0.0464 -0.4339
C19 C 0.05197(13) -0.1576(6) -0.2696(3)
C20 C 0.05493(15) -0.0405(6) -0.1616(3)
loop_
_geom_bond_atom_site_label_1
_geom_bond_atom_site_label_2
_geom_bond_site_symmetry_1
_geom_bond_site_symmetry_2
O1 H1 1_555 1_555
C1 H2 1_555 1_555
H3 C1 1_555 1_555
H4 C1 1_555 1_555
O2 H5 1_555 1_555
C2 H6 1_555 1_555
H7 C2 1_555 1_555
H8 C2 1_555 1_555
O3 C10 1_555 1_555
C3 C1 1_555 1_555
C4 C3 1_555 1_555
H9 C4 1_555 1_555
C5 C4 1_555 1_555
H10 C5 1_555 1_555
H11 C5 1_555 1_555
C6 C3 1_555 1_555
H12 C6 1_555 1_555
C7 O1 1_555 1_555
C8 C7 1_555 1_555
H13 C8 1_555 1_555
H14 C8 1_555 1_555
C9 C4 1_555 1_555
H15 C9 1_555 1_555
H16 C9 1_555 1_555
C10 O2 1_555 1_555
O4 H17 1_555 1_555
O5 H18 1_555 1_555
O6 C20 1_555 1_555
C11 H19 1_555 1_555
H20 C11 1_555 1_555
H21 C11 1_555 1_555
C12 H22 1_555 1_555
H23 C12 1_555 1_555
H24 C12 1_555 1_555
C13 C11 1_555 1_555
C14 C13 1_555 1_555
H25 C14 1_555 1_555
C15 C14 1_555 1_555
H26 C15 1_555 1_555
H27 C15 1_555 1_555
C16 C13 1_555 1_555
H28 C16 1_555 1_555
C17 C16 1_555 1_555
H29 C17 1_555 1_555
H30 C17 1_555 1_555
C18 C17 1_555 1_555
H31 C18 1_555 1_555
H32 C18 1_555 1_555
C19 O4 1_555 1_555
C20 O5 1_555 1_555
C2 C3 1_555 1_555
C5 C6 1_555 1_555
C6 C7 1_555 1_555
C7 C10 1_555 1_555
C8 C9 1_555 1_555
C12 C13 1_555 1_555
C14 C19 1_555 1_555
C15 C16 1_555 1_555
C18 C19 1_555 1_555
C19 C20 1_555 1_555

#END
