
#######################################################################
#
#                 Cambridge Crystallographic Data Centre
#                                CCDC 
#
#######################################################################
#
# If this CIF has been generated from an entry in the Cambridge 
# Structural Database, then it will include bibliographic, chemical, 
# crystal, experimental, refinement or atomic coordinate data resulting 
# from the CCDC's data processing and validation procedures.
#
#######################################################################

data_FUHHOG
_chemical_formula_moiety         'C8 H7 Br1 O2'
_chemical_name_systematic        2-Bromo-1-(4-hydroxyphenyl)ethanone
_symmetry_cell_setting           monoclinic
_symmetry_space_group_name_H-M   'P 21/c'
_symmetry_Int_Tables_number      14
_space_group_name_Hall           '-P 2ybc'
loop_
_symmetry_equiv_pos_site_id
_symmetry_equiv_pos_as_xyz
1 x,y,z
2 -x,1/2+y,1/2-z
3 -x,-y,-z
4 x,1/2-y,1/2+z
_cell_length_a                   8.6495(15)
_cell_length_b                   15.052(3)
_cell_length_c                   14.3562(19)
_cell_angle_alpha                90
_cell_angle_beta                 123.224(7)
_cell_angle_gamma                90
_cell_volume                     1563.54
_exptl_crystal_colour            orange
_exptl_crystal_description       block
_cell_formula_units_Z            8
_exptl_crystal_recrystallization_method chloroform
loop_
_atom_site_label
_atom_site_type_symbol
_atom_site_fract_x
_atom_site_fract_y
_atom_site_fract_z
Br1 Br 0.93107(10) 0.53760(4) 0.71841(6)
O1 O 0.9475(6) 0.3392(2) 0.7394(4)
O2 O 0.2872(6) 0.0898(2) 0.4104(3)
H1 H 0.1818 0.1092 0.3705
C1 C 0.4050(9) 0.1575(4) 0.4654(5)
C2 C 0.5763(8) 0.1372(4) 0.5584(5)
H2 H 0.6070 0.0781 0.5797
C3 C 0.7014(8) 0.2024(3) 0.6197(5)
H3 H 0.8141 0.1872 0.6837
C4 C 0.6631(8) 0.2913(3) 0.5878(4)
C5 C 0.4910(9) 0.3105(4) 0.4922(5)
H4 H 0.4612 0.3693 0.4695
C6 C 0.3633(9) 0.2450(4) 0.4300(5)
H5 H 0.2509 0.2594 0.3653
C7 C 0.7990(9) 0.3582(3) 0.6569(5)
C8 C 0.7466(9) 0.4533(3) 0.6211(5)
H6 H 0.6330 0.4665 0.6167
H7 H 0.7223 0.4603 0.5470
Br2 Br 1.06321(10) 0.28455(5) 1.05320(6)
O3 O 0.6801(6) 0.2668(2) 0.8479(3)
O4 O 0.1884(6) 0.5955(2) 0.5816(3)
H8 H 0.2337 0.6450 0.5896
C9 C 0.3201(9) 0.5383(4) 0.6552(5)
C10 C 0.2821(9) 0.4486(4) 0.6349(5)
H9 H 0.1697 0.4297 0.5734
C11 C 0.4103(8) 0.3883(4) 0.7055(5)
H10 H 0.3822 0.3281 0.6922
C12 C 0.5815(8) 0.4134(3) 0.7966(4)
C13 C 0.6156(9) 0.5033(4) 0.8149(5)
H11 H 0.7271 0.5224 0.8770
C14 C 0.4887(9) 0.5657(4) 0.7435(5)
H12 H 0.5174 0.6259 0.7552
C15 C 0.7123(8) 0.3449(4) 0.8668(5)
C16 C 0.8958(8) 0.3773(4) 0.9621(5)
H13 H 0.8753 0.4158 1.0085
H14 H 0.9534 0.4126 0.9326
loop_
_geom_bond_atom_site_label_1
_geom_bond_atom_site_label_2
_geom_bond_site_symmetry_1
_geom_bond_site_symmetry_2
Br1 C8 1_555 1_555
O1 C7 1_555 1_555
O2 H1 1_555 1_555
C1 O2 1_555 1_555
C2 C1 1_555 1_555
H2 C2 1_555 1_555
C3 C2 1_555 1_555
H3 C3 1_555 1_555
C4 C3 1_555 1_555
C5 C4 1_555 1_555
H4 C5 1_555 1_555
C6 C1 1_555 1_555
H5 C6 1_555 1_555
C7 C4 1_555 1_555
C8 C7 1_555 1_555
H6 C8 1_555 1_555
H7 C8 1_555 1_555
Br2 C16 1_555 1_555
O3 C15 1_555 1_555
O4 H8 1_555 1_555
C9 O4 1_555 1_555
C10 C9 1_555 1_555
H9 C10 1_555 1_555
C11 C10 1_555 1_555
H10 C11 1_555 1_555
C12 C11 1_555 1_555
C13 C12 1_555 1_555
H11 C13 1_555 1_555
C14 C9 1_555 1_555
H12 C14 1_555 1_555
C15 C12 1_555 1_555
C16 C15 1_555 1_555
H13 C16 1_555 1_555
H14 C16 1_555 1_555
C5 C6 1_555 1_555
C13 C14 1_555 1_555

#END
