
#######################################################################
#
#                 Cambridge Crystallographic Data Centre
#                                CCDC 
#
#######################################################################
#
# If this CIF has been generated from an entry in the Cambridge 
# Structural Database, then it will include bibliographic, chemical, 
# crystal, experimental, refinement or atomic coordinate data resulting 
# from the CCDC's data processing and validation procedures.
#
#######################################################################

data_FUHWOW
_chemical_formula_moiety         'C27 H24 N2 O4 S2'
_chemical_name_systematic        
6-hydroxy-7-methyl-9-nitro-3,8,10-triphenyl-2-thioxo-1-thia-3-azaspiro[4.5]decan-4-one
_symmetry_cell_setting           orthorhombic
_symmetry_space_group_name_H-M   'P 21 21 21'
_symmetry_Int_Tables_number      19
_space_group_name_Hall           'P 2ac 2ab'
loop_
_symmetry_equiv_pos_site_id
_symmetry_equiv_pos_as_xyz
1 x,y,z
2 1/2-x,-y,1/2+z
3 1/2+x,1/2-y,-z
4 -x,1/2+y,1/2-z
_cell_length_a                   10.8961(3)
_cell_length_b                   12.0000(3)
_cell_length_c                   19.3611(4)
_cell_angle_alpha                90
_cell_angle_beta                 90
_cell_angle_gamma                90
_cell_volume                     2531.53
_cell_formula_units_Z            4
loop_
_atom_site_label
_atom_site_type_symbol
_atom_site_fract_x
_atom_site_fract_y
_atom_site_fract_z
S1 S 0.62246(5) 0.37124(5) 0.70867(3)
S2 S 0.42896(8) 0.25288(8) 0.78495(4)
N1 N 0.47167(17) 0.23711(16) 0.64830(9)
N2 N 0.92886(17) 0.37872(15) 0.67288(9)
O1 O 0.53017(16) 0.24056(15) 0.53496(8)
O2 O 0.87044(16) 0.42919(14) 0.71569(8)
O3 O 1.02487(18) 0.33141(19) 0.68516(11)
O4 O 0.51199(18) 0.50770(17) 0.59164(11)
H1 H 0.5107 0.5323 0.6311
C1 C 0.4984(2) 0.2807(2) 0.71214(13)
C2 C 0.5444(2) 0.27164(19) 0.59365(11)
C3 C 0.64691(19) 0.35059(18) 0.61553(10)
C4 C 0.76966(19) 0.29730(17) 0.59250(10)
H2 H 0.7599 0.2901 0.5424
C5 C 0.8811(2) 0.37450(17) 0.59964(10)
H3 H 0.9466 0.3422 0.5713
C6 C 0.8588(2) 0.49383(17) 0.57195(11)
H4 H 0.8569 0.4867 0.5215
C7 C 0.7336(2) 0.54470(18) 0.59203(11)
H5 H 0.7342 0.5611 0.6416
C8 C 0.6304(2) 0.46282(19) 0.57728(11)
H6 H 0.6330 0.4465 0.5277
C9 C 0.3780(2) 0.15484(19) 0.63812(12)
C10 C 0.2575(2) 0.1865(3) 0.63475(18)
H7 H 0.2360 0.2613 0.6379
C11 C 0.1680(3) 0.1055(3) 0.62649(19)
H8 H 0.0857 0.1255 0.6244
C12 C 0.2017(3) -0.0051(3) 0.62145(15)
H9 H 0.1418 -0.0597 0.6163
C13 C 0.3230(3) -0.0347(2) 0.62407(14)
H10 H 0.3449 -0.1093 0.6198
C14 C 0.4132(3) 0.0448(2) 0.63302(13)
H11 H 0.4954 0.0246 0.6356
C15 C 0.7942(2) 0.17735(18) 0.61582(12)
C16 C 0.7889(3) 0.1431(2) 0.68370(16)
H12 H 0.7672 0.1940 0.7178
C17 C 0.8154(4) 0.0339(3) 0.7021(2)
H13 H 0.8119 0.0126 0.7482
C18 C 0.8465(3) -0.0420(2) 0.6530(2)
H14 H 0.8619 -0.1156 0.6652
C19 C 0.8550(4) -0.0089(2) 0.5850(2)
H15 H 0.8794 -0.0598 0.5515
C20 C 0.8273(3) 0.1003(2) 0.56630(15)
H16 H 0.8312 0.1214 0.5201
C21 C 0.9715(2) 0.56444(18) 0.58792(12)
C22 C 1.0805(3) 0.5416(3) 0.55412(16)
H17 H 1.0812 0.4893 0.5186
C23 C 1.1886(3) 0.5950(3) 0.5721(2)
H18 H 1.2615 0.5767 0.5499
C24 C 1.1877(3) 0.6753(3) 0.62282(18)
H19 H 1.2599 0.7117 0.6350
C25 C 1.0806(3) 0.7010(2) 0.65493(16)
H20 H 1.0797 0.7571 0.6880
C26 C 0.9725(3) 0.64532(19) 0.63939(14)
H21 H 0.9009 0.6620 0.6634
C27 C 0.7124(3) 0.6542(2) 0.55218(15)
H22 H 0.7105 0.6391 0.5035
H23 H 0.7778 0.7054 0.5621
H24 H 0.6356 0.6865 0.5661
loop_
_geom_bond_atom_site_label_1
_geom_bond_atom_site_label_2
_geom_bond_site_symmetry_1
_geom_bond_site_symmetry_2
S1 C1 1_555 1_555
S2 C1 1_555 1_555
N1 C1 1_555 1_555
N2 O2 1_555 1_555
O1 C2 1_555 1_555
O3 N2 1_555 1_555
O4 H1 1_555 1_555
C2 N1 1_555 1_555
C3 S1 1_555 1_555
C4 C3 1_555 1_555
H2 C4 1_555 1_555
C5 N2 1_555 1_555
H3 C5 1_555 1_555
C6 C5 1_555 1_555
H4 C6 1_555 1_555
C7 C6 1_555 1_555
H5 C7 1_555 1_555
C8 O4 1_555 1_555
H6 C8 1_555 1_555
C9 N1 1_555 1_555
C10 C9 1_555 1_555
H7 C10 1_555 1_555
C11 C10 1_555 1_555
H8 C11 1_555 1_555
C12 C11 1_555 1_555
H9 C12 1_555 1_555
C13 C12 1_555 1_555
H10 C13 1_555 1_555
C14 C9 1_555 1_555
H11 C14 1_555 1_555
C15 C4 1_555 1_555
C16 C15 1_555 1_555
H12 C16 1_555 1_555
C17 C16 1_555 1_555
H13 C17 1_555 1_555
C18 C17 1_555 1_555
H14 C18 1_555 1_555
C19 C18 1_555 1_555
H15 C19 1_555 1_555
C20 C15 1_555 1_555
H16 C20 1_555 1_555
C21 C6 1_555 1_555
C22 C21 1_555 1_555
H17 C22 1_555 1_555
C23 C22 1_555 1_555
H18 C23 1_555 1_555
C24 C23 1_555 1_555
H19 C24 1_555 1_555
C25 C24 1_555 1_555
H20 C25 1_555 1_555
C26 C21 1_555 1_555
H21 C26 1_555 1_555
C27 C7 1_555 1_555
H22 C27 1_555 1_555
H23 C27 1_555 1_555
H24 C27 1_555 1_555
C2 C3 1_555 1_555
C3 C8 1_555 1_555
C4 C5 1_555 1_555
C7 C8 1_555 1_555
C13 C14 1_555 1_555
C19 C20 1_555 1_555
C25 C26 1_555 1_555

#END
