
#######################################################################
#
#                 Cambridge Crystallographic Data Centre
#                                CCDC 
#
#######################################################################
#
# If this CIF has been generated from an entry in the Cambridge 
# Structural Database, then it will include bibliographic, chemical, 
# crystal, experimental, refinement or atomic coordinate data resulting 
# from the CCDC's data processing and validation procedures.
#
#######################################################################

data_FUJREI
_chemical_formula_moiety         'C25 H29 N1 O6 S1'
_chemical_name_systematic        
'6-Methoxy-6-oxo-1-phenylhex-1-en-3-yl 1-((4-methylphenyl)sulfonyl)prolinate'
_symmetry_cell_setting           monoclinic
_symmetry_space_group_name_H-M   'P 21'
_symmetry_Int_Tables_number      4
_space_group_name_Hall           'P 2yb'
loop_
_symmetry_equiv_pos_site_id
_symmetry_equiv_pos_as_xyz
1 x,y,z
2 -x,1/2+y,-z
_cell_length_a                   11.814(2)
_cell_length_b                   5.9898(12)
_cell_length_c                   17.425(4)
_cell_angle_alpha                90
_cell_angle_beta                 106.02(3)
_cell_angle_gamma                90
_cell_volume                     1185.17
_cell_formula_units_Z            2
loop_
_atom_site_label
_atom_site_type_symbol
_atom_site_fract_x
_atom_site_fract_y
_atom_site_fract_z
S1 S 0.16411(4) 0.83575(10) 0.78980(3)
O1 O 0.26612(14) 0.6966(3) 0.81383(9)
O2 O 0.17285(15) 1.0716(3) 0.80363(10)
O3 O 0.25569(12) 0.3182(3) 0.66746(8)
O4 O 0.24280(16) 0.6187(3) 0.58843(11)
O5 O 0.59957(19) -0.0624(5) 0.85488(11)
O6 O 0.53306(18) 0.1499(4) 0.93617(10)
N1 N 0.11268(15) 0.8016(3) 0.69367(10)
C1 C -0.1975(3) 0.5036(5) 0.95127(17)
H1 H -0.1988 0.3434 0.9515
H2 H -0.2739 0.5590 0.9231
H3 H -0.1767 0.5577 1.0052
C2 C -0.1078(2) 0.5834(4) 0.91029(13)
C3 C -0.1182(2) 0.7955(4) 0.87567(13)
H4 H -0.1813 0.8864 0.8774
C4 C -0.03566(19) 0.8717(4) 0.83890(13)
H5 H -0.0429 1.0136 0.8164
C5 C 0.05842(19) 0.7351(4) 0.83570(13)
C6 C 0.0703(2) 0.5223(4) 0.86923(13)
H6 H 0.1324 0.4301 0.8666
C7 C -0.0133(2) 0.4506(5) 0.90696(13)
H7 H -0.0054 0.3099 0.9305
C8 C 0.01536(19) 0.9431(5) 0.64731(14)
H8 H -0.0114 1.0440 0.6822
H9 H 0.0402 1.0304 0.6080
C9 C -0.0781(3) 0.7868(5) 0.60840(19)
H10 H -0.1287 0.8503 0.5597
H11 H -0.1256 0.7468 0.6437
C10 C -0.0111(2) 0.5843(5) 0.59015(16)
H12 H 0.0102 0.6056 0.5407
H13 H -0.0581 0.4498 0.5859
C11 C 0.10011(19) 0.5701(4) 0.66223(13)
H14 H 0.0883 0.4648 0.7024
C12 C 0.20827(19) 0.5079(4) 0.63550(13)
C13 C 0.36511(18) 0.2468(4) 0.64949(12)
H15 H 0.4137 0.3775 0.6467
C14 C 0.33560(18) 0.1242(4) 0.57161(13)
H16 H 0.2849 0.0025 0.5651
C15 C 0.37825(18) 0.1807(4) 0.51145(13)
H17 H 0.4281 0.3037 0.5190
C16 C 0.35376(18) 0.0661(4) 0.43352(13)
C17 C 0.30277(18) -0.1454(4) 0.42008(13)
H18 H 0.2874 -0.2238 0.4622
C18 C 0.2748(2) -0.2400(4) 0.34442(14)
H19 H 0.2408 -0.3812 0.3361
C19 C 0.2973(2) -0.1242(4) 0.28096(14)
H20 H 0.2764 -0.1863 0.2301
C20 C 0.3509(2) 0.0833(4) 0.29344(14)
H21 H 0.3671 0.1601 0.2513
C21 C 0.3805(2) 0.1762(4) 0.37004(14)
H22 H 0.4186 0.3136 0.3789
C22 C 0.4286(2) 0.0982(4) 0.71876(13)
H23 H 0.3816 -0.0345 0.7189
H24 H 0.5030 0.0510 0.7107
C23 C 0.4519(2) 0.2125(5) 0.79937(13)
H25 H 0.4847 0.3595 0.7961
H26 H 0.3780 0.2316 0.8127
C24 C 0.5351(2) 0.0820(5) 0.86413(14)
C25 C 0.6137(3) 0.0437(7) 1.00351(16)
H27 H 0.6003 -0.1145 1.0008
H28 H 0.6014 0.1010 1.0520
H29 H 0.6931 0.0739 1.0026
loop_
_geom_bond_atom_site_label_1
_geom_bond_atom_site_label_2
_geom_bond_site_symmetry_1
_geom_bond_site_symmetry_2
S1 O1 1_555 1_555
O2 S1 1_555 1_555
O3 C12 1_555 1_555
O4 C12 1_555 1_555
O5 C24 1_555 1_555
O6 C24 1_555 1_555
N1 S1 1_555 1_555
C1 H1 1_555 1_555
H2 C1 1_555 1_555
H3 C1 1_555 1_555
C2 C1 1_555 1_555
C3 C2 1_555 1_555
H4 C3 1_555 1_555
C4 C3 1_555 1_555
H5 C4 1_555 1_555
C5 S1 1_555 1_555
C6 C5 1_555 1_555
H6 C6 1_555 1_555
C7 C2 1_555 1_555
H7 C7 1_555 1_555
C8 N1 1_555 1_555
H8 C8 1_555 1_555
H9 C8 1_555 1_555
C9 C8 1_555 1_555
H10 C9 1_555 1_555
H11 C9 1_555 1_555
C10 C9 1_555 1_555
H12 C10 1_555 1_555
H13 C10 1_555 1_555
C11 N1 1_555 1_555
H14 C11 1_555 1_555
C12 C11 1_555 1_555
C13 O3 1_555 1_555
H15 C13 1_555 1_555
C14 C13 1_555 1_555
H16 C14 1_555 1_555
C15 C14 1_555 1_555
H17 C15 1_555 1_555
C16 C15 1_555 1_555
C17 C16 1_555 1_555
H18 C17 1_555 1_555
C18 C17 1_555 1_555
H19 C18 1_555 1_555
C19 C18 1_555 1_555
H20 C19 1_555 1_555
C20 C19 1_555 1_555
H21 C20 1_555 1_555
C21 C16 1_555 1_555
H22 C21 1_555 1_555
C22 C13 1_555 1_555
H23 C22 1_555 1_555
H24 C22 1_555 1_555
C23 C22 1_555 1_555
H25 C23 1_555 1_555
H26 C23 1_555 1_555
C24 C23 1_555 1_555
C25 O6 1_555 1_555
H27 C25 1_555 1_555
H28 C25 1_555 1_555
H29 C25 1_555 1_555
C4 C5 1_555 1_555
C6 C7 1_555 1_555
C10 C11 1_555 1_555
C20 C21 1_555 1_555

#END
