
#######################################################################
#
#                 Cambridge Crystallographic Data Centre
#                                CCDC 
#
#######################################################################
#
# If this CIF has been generated from an entry in the Cambridge 
# Structural Database, then it will include bibliographic, chemical, 
# crystal, experimental, refinement or atomic coordinate data resulting 
# from the CCDC's data processing and validation procedures.
#
#######################################################################

data_FUJVAI
_chemical_formula_moiety         'C12 H24 K1 O6 1+,C32 H41 B11 F1 1-'
_chemical_name_systematic        
'(18-Crown-6)-potassium 1-(dimesityl(fluoro)boryl)-4-(2-phenyl-1,2-dicarbadodecaboran-1-yl)benzene'
_symmetry_cell_setting           monoclinic
_symmetry_space_group_name_H-M   'P n'
_symmetry_Int_Tables_number      7
_space_group_name_Hall           'P -2yac'
loop_
_symmetry_equiv_pos_site_id
_symmetry_equiv_pos_as_xyz
1 x,y,z
2 1/2+x,-y,1/2+z
_cell_length_a                   14.5518(5)
_cell_length_b                   11.4399(4)
_cell_length_c                   15.0625(6)
_cell_angle_alpha                90
_cell_angle_beta                 94.463(2)
_cell_angle_gamma                90
_cell_volume                     2499.87
_exptl_crystal_colour            colorless
_exptl_crystal_description       cubic
_cell_formula_units_Z            2
_exptl_crystal_recrystallization_method n-hexane/toluene
loop_
_atom_site_label
_atom_site_type_symbol
_atom_site_fract_x
_atom_site_fract_y
_atom_site_fract_z
B1 B 0.5913(5) 0.1505(6) 1.1286(5)
C1 C 0.4826(4) 0.1480(5) 1.1523(4)
C2 C 0.4249(5) 0.0491(6) 1.1232(4)
C3 C 0.3296(5) 0.0543(7) 1.1322(5)
H1 H 0.2939 -0.0107 1.1154
C4 C 0.2867(5) 0.1494(8) 1.1640(6)
C5 C 0.3414(5) 0.2421(6) 1.1915(5)
H2 H 0.3136 0.3070 1.2153
C6 C 0.4357(4) 0.2440(6) 1.1858(5)
C7 C 0.6644(4) 0.2179(5) 1.2017(4)
C8 C 0.6674(5) 0.1801(6) 1.2925(4)
C9 C 0.7303(5) 0.2273(7) 1.3566(5)
H3 H 0.7292 0.2011 1.4150
C10 C 0.7940(5) 0.3105(7) 1.3385(5)
C11 C 0.7928(5) 0.3473(7) 1.2494(5)
H4 H 0.8355 0.4032 1.2346
C12 C 0.7319(4) 0.3049(6) 1.1834(5)
C13 C 0.5893(4) 0.1967(5) 1.0253(4)
C14 C 0.6352(4) 0.1378(6) 0.9619(4)
H5 H 0.6671 0.0699 0.9789
C15 C 0.6361(5) 0.1745(6) 0.8747(5)
H6 H 0.6688 0.1319 0.8350
C16 C 0.5881(4) 0.2757(5) 0.8454(4)
C17 C 0.5384(5) 0.3326(6) 0.9071(4)
H7 H 0.5050 0.3992 0.8896
C18 C 0.5369(5) 0.2940(6) 0.9929(5)
H8 H 0.5002 0.3331 1.0312
C19 C 0.7746(5) 0.3502(7) 0.7684(4)
C20 C 0.7952(6) 0.4272(9) 0.8384(5)
H9 H 0.7550 0.4876 0.8499
C21 C 0.8776(8) 0.4119(11) 0.8911(6)
H10 H 0.8890 0.4592 0.9409
C22 C 0.9397(8) 0.3336(15) 0.8735(8)
H11 H 0.9955 0.3292 0.9078
C23 C 0.9202(7) 0.2572(14) 0.8023(8)
H12 H 0.9633 0.2008 0.7894
C24 C 0.8386(7) 0.2645(10) 0.7514(7)
H13 H 0.8258 0.2118 0.7050
C25 C 0.4615(6) -0.0614(7) 1.0887(6)
H14 H 0.4947 -0.1029 1.1365
H15 H 0.5021 -0.0442 1.0432
H16 H 0.4113 -0.1088 1.0642
C26 C 0.1822(6) 0.1552(11) 1.1672(11)
H17 H 0.1651 0.1195 1.2212
H18 H 0.1530 0.1145 1.1169
H19 H 0.1627 0.2354 1.1656
C27 C 0.4857(5) 0.3535(6) 1.2215(6)
H20 H 0.4428 0.4173 1.2217
H21 H 0.5341 0.3728 1.1842
H22 H 0.5116 0.3394 1.2811
C28 C 0.6031(6) 0.0878(7) 1.3212(5)
H23 H 0.5418 0.1190 1.3202
H24 H 0.6226 0.0627 1.3805
H25 H 0.6036 0.0223 1.2814
C29 C 0.8638(7) 0.3603(10) 1.4097(7)
H26 H 0.8409 0.4326 1.4317
H27 H 0.9213 0.3742 1.3842
H28 H 0.8732 0.3055 1.4578
C30 C 0.7418(7) 0.3538(8) 1.0927(6)
H29 H 0.8057 0.3683 1.0853
H30 H 0.7080 0.4257 1.0859
H31 H 0.7180 0.2988 1.0486
F1 F 0.6319(3) 0.0314(3) 1.1290(2)
C31 C 0.5857(4) 0.3168(5) 0.7503(4)
C32 C 0.6872(5) 0.3623(6) 0.7097(4)
B2 B 0.5166(7) 0.2598(9) 0.6656(7)
B3 B 0.6324(6) 0.2341(9) 0.6717(6)
B4 B 0.6054(6) 0.4653(6) 0.7335(5)
B5 B 0.4958(6) 0.4006(8) 0.7030(6)
B6 B 0.4892(8) 0.3743(10) 0.5874(6)
B7 B 0.5742(7) 0.2689(10) 0.5701(6)
B8 B 0.6845(7) 0.3314(9) 0.6001(6)
B9 B 0.6612(8) 0.4781(8) 0.6370(6)
B10 B 0.5451(8) 0.5024(8) 0.6336(7)
B11 B 0.5950(8) 0.4195(9) 0.5459(6)
H32 H 0.477(5) 0.193(7) 0.694(5)
H33 H 0.657(4) 0.156(6) 0.686(4)
H34 H 0.617(4) 0.523(5) 0.804(4)
H35 H 0.444(5) 0.417(6) 0.751(4)
H36 H 0.417(6) 0.391(6) 0.561(5)
H37 H 0.577(5) 0.203(7) 0.524(5)
H38 H 0.757(6) 0.311(6) 0.578(5)
H39 H 0.722(6) 0.532(7) 0.626(5)
H40 H 0.500(4) 0.592(6) 0.618(4)
H41 H 0.606(7) 0.494(9) 0.476(7)
K1 K 0.76279(11) -0.11404(13) 1.15415(12)
O1 O 0.8123(9) -0.1661(13) 1.3409(8)
O2 O 0.6701(8) -0.2932(11) 1.2582(10)
O3 O 0.6706(9) -0.3091(10) 1.0705(10)
O4 O 0.7706(9) -0.1434(12) 0.9640(10)
O5 O 0.8994(8) -0.0012(10) 1.0614(7)
O6 O 0.8870(7) 0.0265(10) 1.2523(8)
C33 C 0.7582(17) -0.2278(18) 1.3871(17)
H42 H 0.7098 -0.1784 1.4072
H43 H 0.7930 -0.2595 1.4391
C34 C 0.7161(17) -0.326(2) 1.3311(15)
H44 H 0.7650 -0.3784 1.3159
H45 H 0.6753 -0.3701 1.3666
C35 C 0.6362(14) -0.3803(16) 1.2091(13)
H46 H 0.5847 -0.4131 1.2378
H47 H 0.6831 -0.4405 1.2084
C36 C 0.6041(18) -0.3522(18) 1.1148(16)
H48 H 0.5805 -0.4227 1.0854
H49 H 0.5541 -0.2961 1.1143
C37 C 0.6442(12) -0.2859(16) 0.9860(10)
H50 H 0.5947 -0.2289 0.9819
H51 H 0.6229 -0.3564 0.9551
C38 C 0.7259(11) -0.2393(13) 0.9474(12)
H52 H 0.7719 -0.3004 0.9565
H53 H 0.7094 -0.2373 0.8838
C39 C 0.8472(11) -0.0965(14) 0.9426(12)
H54 H 0.8413 -0.0873 0.8784
H55 H 0.8948 -0.1548 0.9555
C40 C 0.8817(10) 0.0053(14) 0.9760(8)
H56 H 0.9377 0.0242 0.9482
H57 H 0.8375 0.0674 0.9622
C41 C 0.9185(9) 0.0733(15) 1.1221(11)
H58 H 0.8624 0.1193 1.1181
H59 H 0.9627 0.1216 1.0940
C42 C 0.9467(10) 0.0887(13) 1.2080(11)
H60 H 0.9448 0.1707 1.2240
H61 H 1.0091 0.0600 1.2206
C43 C 0.9076(13) -0.0148(16) 1.3313(13)
H62 H 0.9291 0.0515 1.3674
H63 H 0.9609 -0.0645 1.3262
C44 C 0.8511(13) -0.0751(15) 1.3813(11)
H64 H 0.8860 -0.1013 1.4351
H65 H 0.8031 -0.0230 1.3988
loop_
_geom_bond_atom_site_label_1
_geom_bond_atom_site_label_2
_geom_bond_site_symmetry_1
_geom_bond_site_symmetry_2
B1 C1 1_555 1_555
C1 C2 1_555 1_555
C2 C3 1_555 1_555
C3 H1 1_555 1_555
C4 C3 1_555 1_555
C5 C4 1_555 1_555
H2 C5 1_555 1_555
C6 C1 1_555 1_555
C7 B1 1_555 1_555
C8 C7 1_555 1_555
C9 C8 1_555 1_555
H3 C9 1_555 1_555
C10 C9 1_555 1_555
C11 C10 1_555 1_555
H4 C11 1_555 1_555
C12 C7 1_555 1_555
C13 B1 1_555 1_555
C14 C13 1_555 1_555
H5 C14 1_555 1_555
C15 C14 1_555 1_555
H6 C15 1_555 1_555
C16 C15 1_555 1_555
C17 C16 1_555 1_555
H7 C17 1_555 1_555
C18 C13 1_555 1_555
H8 C18 1_555 1_555
C19 C20 1_555 1_555
C20 H9 1_555 1_555
C21 C20 1_555 1_555
H10 C21 1_555 1_555
C22 C21 1_555 1_555
H11 C22 1_555 1_555
C23 C22 1_555 1_555
H12 C23 1_555 1_555
C24 C19 1_555 1_555
H13 C24 1_555 1_555
C25 C2 1_555 1_555
H14 C25 1_555 1_555
H15 C25 1_555 1_555
H16 C25 1_555 1_555
C26 C4 1_555 1_555
H17 C26 1_555 1_555
H18 C26 1_555 1_555
H19 C26 1_555 1_555
C27 C6 1_555 1_555
H20 C27 1_555 1_555
H21 C27 1_555 1_555
H22 C27 1_555 1_555
C28 C8 1_555 1_555
H23 C28 1_555 1_555
H24 C28 1_555 1_555
H25 C28 1_555 1_555
C29 C10 1_555 1_555
H26 C29 1_555 1_555
H27 C29 1_555 1_555
H28 C29 1_555 1_555
C30 C12 1_555 1_555
H29 C30 1_555 1_555
H30 C30 1_555 1_555
H31 C30 1_555 1_555
F1 B1 1_555 1_555
C31 C16 1_555 1_555
C32 C19 1_555 1_555
B2 C31 1_555 1_555
B3 C31 1_555 1_555
B4 C31 1_555 1_555
B5 C31 1_555 1_555
B6 B2 1_555 1_555
B7 B2 1_555 1_555
B8 C32 1_555 1_555
B9 C32 1_555 1_555
B10 B4 1_555 1_555
B11 B6 1_555 1_555
H32 B2 1_555 1_555
H33 B3 1_555 1_555
H34 B4 1_555 1_555
H35 B5 1_555 1_555
H36 B6 1_555 1_555
H37 B7 1_555 1_555
H38 B8 1_555 1_555
H39 B9 1_555 1_555
H40 B10 1_555 1_555
H41 B11 1_555 1_555
K1 O1 1_555 1_555
O1 C33 1_555 1_555
O2 K1 1_555 1_555
O3 K1 1_555 1_555
O4 K1 1_555 1_555
O5 K1 1_555 1_555
O6 K1 1_555 1_555
C33 H42 1_555 1_555
H43 C33 1_555 1_555
C34 O2 1_555 1_555
H44 C34 1_555 1_555
H45 C34 1_555 1_555
C35 O2 1_555 1_555
H46 C35 1_555 1_555
H47 C35 1_555 1_555
C36 O3 1_555 1_555
H48 C36 1_555 1_555
H49 C36 1_555 1_555
C37 O3 1_555 1_555
H50 C37 1_555 1_555
H51 C37 1_555 1_555
C38 O4 1_555 1_555
H52 C38 1_555 1_555
H53 C38 1_555 1_555
C39 O4 1_555 1_555
H54 C39 1_555 1_555
H55 C39 1_555 1_555
C40 O5 1_555 1_555
H56 C40 1_555 1_555
H57 C40 1_555 1_555
C41 O5 1_555 1_555
H58 C41 1_555 1_555
H59 C41 1_555 1_555
C42 O6 1_555 1_555
H60 C42 1_555 1_555
H61 C42 1_555 1_555
C43 O6 1_555 1_555
H62 C43 1_555 1_555
H63 C43 1_555 1_555
C44 O1 1_555 1_555
H64 C44 1_555 1_555
H65 C44 1_555 1_555
C5 C6 1_555 1_555
C11 C12 1_555 1_555
C17 C18 1_555 1_555
C23 C24 1_555 1_555
C31 C32 1_555 1_555
C32 B3 1_555 1_555
C32 B4 1_555 1_555
B2 B3 1_555 1_555
B2 B5 1_555 1_555
B3 B7 1_555 1_555
B3 B8 1_555 1_555
B4 B5 1_555 1_555
B4 B9 1_555 1_555
B5 B6 1_555 1_555
B5 B10 1_555 1_555
B6 B7 1_555 1_555
B6 B10 1_555 1_555
B7 B8 1_555 1_555
B7 B11 1_555 1_555
B8 B9 1_555 1_555
B8 B11 1_555 1_555
B9 B10 1_555 1_555
B9 B11 1_555 1_555
B10 B11 1_555 1_555
C33 C34 1_555 1_555
C35 C36 1_555 1_555
C37 C38 1_555 1_555
C39 C40 1_555 1_555
C41 C42 1_555 1_555
C43 C44 1_555 1_555

#END
