
#######################################################################
#
#                 Cambridge Crystallographic Data Centre
#                                CCDC 
#
#######################################################################
#
# If this CIF has been generated from an entry in the Cambridge 
# Structural Database, then it will include bibliographic, chemical, 
# crystal, experimental, refinement or atomic coordinate data resulting 
# from the CCDC's data processing and validation procedures.
#
#######################################################################

data_FUJYUE
_chemical_formula_moiety         'C17 H19 F1 N1 1+,Cl1 1-'
_chemical_name_systematic        
'(-)-(S)-2-(Fluoro(diphenyl)methyl)pyrrolidinium chloride'
_symmetry_cell_setting           orthorhombic
_symmetry_space_group_name_H-M   'P 21 21 21'
_symmetry_Int_Tables_number      19
_space_group_name_Hall           'P 2ac 2ab'
loop_
_symmetry_equiv_pos_site_id
_symmetry_equiv_pos_as_xyz
1 x,y,z
2 1/2-x,-y,1/2+z
3 -x,1/2+y,1/2-z
4 1/2+x,1/2-y,-z
_cell_length_a                   7.415(3)
_cell_length_b                   8.353(4)
_cell_length_c                   24.406(10)
_cell_angle_alpha                90
_cell_angle_beta                 90
_cell_angle_gamma                90
_cell_volume                     1511.65
_exptl_crystal_colour            colorless
_exptl_crystal_description       plate
_cell_formula_units_Z            4
_exptl_crystal_recrystallization_method isopropanol
loop_
_atom_site_label
_atom_site_type_symbol
_atom_site_fract_x
_atom_site_fract_y
_atom_site_fract_z
Cl1 Cl 0.27784(4) 0.92920(3) 0.517928(12)
F1 F 0.09308(9) 0.41100(9) 0.38753(3)
N1 N 0.19167(13) 0.58321(12) 0.48509(4)
H1 H 0.215(2) 0.688(2) 0.4873(7)
H2 H 0.078(2) 0.572(2) 0.4751(7)
C1 C 0.25370(15) 0.50414(14) 0.38787(4)
C2 C 0.32369(15) 0.50221(14) 0.44705(4)
H3 H 0.4333(19) 0.5598(17) 0.4501(5)
C3 C 0.35215(18) 0.33836(14) 0.47338(5)
H4 H 0.461(2) 0.291(2) 0.4624(7)
H5 H 0.252(2) 0.2678(18) 0.4651(6)
C4 C 0.35491(18) 0.37784(15) 0.53500(5)
H6 H 0.474(2) 0.4165(19) 0.5458(6)
H7 H 0.333(2) 0.288(2) 0.5586(7)
C5 C 0.21312(18) 0.50914(14) 0.54142(4)
H8 H 0.249(2) 0.588(2) 0.5665(7)
H9 H 0.097(2) 0.472(2) 0.5522(6)
C6 C 0.38492(16) 0.42449(15) 0.34784(4)
C7 C 0.56983(17) 0.41412(17) 0.35809(5)
H10 H 0.621(2) 0.4567(18) 0.3914(6)
C8 C 0.68421(18) 0.33778(18) 0.32065(5)
H11 H 0.815(3) 0.328(2) 0.3287(7)
C9 C 0.6141(2) 0.27055(17) 0.27289(5)
H12 H 0.688(2) 0.212(2) 0.2487(7)
C10 C 0.4310(2) 0.28317(18) 0.26219(5)
H13 H 0.378(2) 0.239(2) 0.2276(7)
C11 C 0.31605(18) 0.36049(15) 0.29898(5)
H14 H 0.190(2) 0.3690(18) 0.2907(6)
C12 C 0.20488(17) 0.67430(13) 0.36953(4)
C13 C 0.33566(17) 0.79428(15) 0.37116(5)
H15 H 0.462(2) 0.768(2) 0.3830(7)
C14 C 0.2929(2) 0.95081(15) 0.35549(5)
H16 H 0.376(3) 1.034(2) 0.3570(8)
C15 C 0.1195(2) 0.98682(17) 0.33770(5)
H17 H 0.082(3) 1.093(3) 0.3267(8)
C16 C -0.0101(2) 0.86835(18) 0.33570(6)
H18 H -0.138(3) 0.891(2) 0.3237(7)
C17 C 0.03071(18) 0.71145(16) 0.35168(5)
H19 H -0.060(2) 0.6283(19) 0.3521(7)
loop_
_geom_bond_atom_site_label_1
_geom_bond_atom_site_label_2
_geom_bond_site_symmetry_1
_geom_bond_site_symmetry_2
F1 C1 1_555 1_555
N1 H1 1_555 1_555
H2 N1 1_555 1_555
C1 C2 1_555 1_555
C2 N1 1_555 1_555
H3 C2 1_555 1_555
C3 C2 1_555 1_555
H4 C3 1_555 1_555
H5 C3 1_555 1_555
C4 C3 1_555 1_555
H6 C4 1_555 1_555
H7 C4 1_555 1_555
C5 N1 1_555 1_555
H8 C5 1_555 1_555
H9 C5 1_555 1_555
C6 C1 1_555 1_555
C7 C6 1_555 1_555
H10 C7 1_555 1_555
C8 C7 1_555 1_555
H11 C8 1_555 1_555
C9 C8 1_555 1_555
H12 C9 1_555 1_555
C10 C9 1_555 1_555
H13 C10 1_555 1_555
C11 C6 1_555 1_555
H14 C11 1_555 1_555
C12 C1 1_555 1_555
C13 C12 1_555 1_555
H15 C13 1_555 1_555
C14 C13 1_555 1_555
H16 C14 1_555 1_555
C15 C14 1_555 1_555
H17 C15 1_555 1_555
C16 C15 1_555 1_555
H18 C16 1_555 1_555
C17 C12 1_555 1_555
H19 C17 1_555 1_555
C4 C5 1_555 1_555
C10 C11 1_555 1_555
C16 C17 1_555 1_555

#END
