
#######################################################################
#
#                 Cambridge Crystallographic Data Centre
#                                CCDC 
#
#######################################################################
#
# If this CIF has been generated from an entry in the Cambridge 
# Structural Database, then it will include bibliographic, chemical, 
# crystal, experimental, refinement or atomic coordinate data resulting 
# from the CCDC's data processing and validation procedures.
#
#######################################################################

data_FUMROW01
_chemical_name_common            efonidipine
_chemical_formula_moiety         'C34 H38 N3 O7 P1'
_chemical_name_systematic        
'2-(benzyl(phenyl)amino)ethyl 5-(5,5-dimethyl-2-oxido-1,3,2-dioxaphosphinan-2-yl)-2,6-dimethyl-4-(3-nitrophenyl)-1,4-dihydropyridine-3-carboxylate'
_symmetry_cell_setting           orthorhombic
_symmetry_space_group_name_H-M   'P 21 21 21'
_symmetry_Int_Tables_number      19
_space_group_name_Hall           'P 2ac 2ab'
loop_
_symmetry_equiv_pos_site_id
_symmetry_equiv_pos_as_xyz
1 x,y,z
2 1/2-x,-y,1/2+z
3 1/2+x,1/2-y,-z
4 -x,1/2+y,1/2-z
_cell_length_a                   9.9571(3)
_cell_length_b                   13.1879(3)
_cell_length_c                   24.6117(7)
_cell_angle_alpha                90
_cell_angle_beta                 90
_cell_angle_gamma                90
_cell_volume                     3231.84
_cell_formula_units_Z            4
loop_
_atom_site_label
_atom_site_type_symbol
_atom_site_fract_x
_atom_site_fract_y
_atom_site_fract_z
C1 C 1.1539(4) 0.2519(3) 0.43482(15)
H1 H 1.1448 0.2075 0.4660
H2 H 1.1072 0.3146 0.4430
C2 C 1.3018(4) 0.2747(3) 0.42582(17)
C3 C 1.3135(4) 0.3406(3) 0.37489(18)
H3 H 1.2658 0.4039 0.3806
H4 H 1.4072 0.3566 0.3684
C4 C 1.3827(5) 0.1776(3) 0.4192(2)
H5 H 1.3489 0.1400 0.3887
H6 H 1.3748 0.1373 0.4515
H7 H 1.4754 0.1942 0.4131
C5 C 1.3537(6) 0.3341(4) 0.4748(2)
H8 H 1.4465 0.3508 0.4693
H9 H 1.3447 0.2935 0.5069
H10 H 1.3025 0.3953 0.4788
C6 C 1.0266(4) 0.4427(3) 0.29632(14)
C7 C 1.0024(3) 0.3641(2) 0.32977(14)
C8 C 0.8733(3) 0.3619(3) 0.36332(14)
H11 H 0.8922 0.3271 0.3977
C9 C 0.8293(3) 0.4695(3) 0.37613(14)
C10 C 0.8585(3) 0.5459(3) 0.34103(16)
C11 C 1.1389(4) 0.4525(3) 0.25609(17)
H12 H 1.1099 0.4933 0.2260
H13 H 1.1641 0.3864 0.2433
H14 H 1.2147 0.4841 0.2733
C12 C 0.8107(5) 0.6543(3) 0.3426(2)
H15 H 0.8460 0.6871 0.3744
H16 H 0.7144 0.6556 0.3438
H17 H 0.8414 0.6892 0.3107
C13 C 0.7631(3) 0.3034(3) 0.33372(16)
C14 C 0.6763(4) 0.3515(3) 0.29842(17)
H18 H 0.6828 0.4211 0.2930
C15 C 0.5793(4) 0.2955(3) 0.27104(18)
C16 C 0.5646(4) 0.1931(3) 0.2781(2)
H19 H 0.4989 0.1572 0.2593
C17 C 0.6500(5) 0.1450(3) 0.3138(2)
H20 H 0.6416 0.0755 0.3194
C18 C 0.7481(4) 0.1984(3) 0.34143(19)
H21 H 0.8048 0.1645 0.3654
C19 C 0.7501(4) 0.4795(3) 0.42566(15)
C20 C 0.6285(5) 0.5917(4) 0.48258(19)
H22 H 0.6978 0.6082 0.5088
H23 H 0.5777 0.5343 0.4962
C21 C 0.5376(5) 0.6807(3) 0.4744(2)
H24 H 0.5269 0.7154 0.5089
H25 H 0.5804 0.7275 0.4494
C22 C 0.3083(5) 0.6180(3) 0.4878(2)
C23 C 0.3302(5) 0.6090(4) 0.5436(2)
H26 H 0.4118 0.6298 0.5582
C24 C 0.2334(6) 0.5702(4) 0.5772(3)
H27 H 0.2501 0.5660 0.6143
C25 C 0.1132(6) 0.5377(4) 0.5574(3)
H28 H 0.0493 0.5099 0.5806
C26 C 0.0877(6) 0.5462(4) 0.5036(3)
H29 H 0.0053 0.5248 0.4900
C27 C 0.1829(5) 0.5866(4) 0.4682(2)
H30 H 0.1632 0.5927 0.4314
C28 C 0.3851(7) 0.6561(4) 0.3951(2)
H31 H 0.3451 0.5920 0.3846
H32 H 0.4715 0.6613 0.3770
C29 C 0.2956(5) 0.7417(4) 0.37529(18)
C30 C 0.2037(7) 0.7264(5) 0.3350(2)
H33 H 0.1935 0.6619 0.3204
C31 C 0.1259(8) 0.8045(7) 0.3158(3)
H34 H 0.0632 0.7922 0.2885
C32 C 0.1401(7) 0.9006(6) 0.3364(3)
H35 H 0.0886 0.9540 0.3231
C33 C 0.2299(8) 0.9157(5) 0.3762(3)
H36 H 0.2401 0.9802 0.3908
C34 C 0.3071(6) 0.8375(4) 0.3957(2)
H37 H 0.3684 0.8501 0.4234
N1 N 0.9435(3) 0.5267(2) 0.29825(14)
H38 H 0.958(5) 0.570(4) 0.2742(18)
N2 N 0.4903(4) 0.3496(3) 0.23332(18)
N3 N 0.4070(4) 0.6557(4) 0.45375(19)
O1 O 1.0906(3) 0.20401(19) 0.38790(11)
O2 O 1.2588(3) 0.2898(2) 0.32776(11)
O3 O 1.0778(4) 0.1808(2) 0.28730(13)
O4 O 0.4207(4) 0.3005(3) 0.20279(17)
O5 O 0.4876(5) 0.4402(3) 0.2352(2)
O6 O 0.7405(4) 0.4138(3) 0.45919(14)
O7 O 0.6879(4) 0.5670(2) 0.43113(13)
P1 P 1.10678(9) 0.25373(7) 0.33010(4)
loop_
_geom_bond_atom_site_label_1
_geom_bond_atom_site_label_2
_geom_bond_site_symmetry_1
_geom_bond_site_symmetry_2
C1 H1 1_555 1_555
H2 C1 1_555 1_555
C2 C1 1_555 1_555
C3 C2 1_555 1_555
H3 C3 1_555 1_555
H4 C3 1_555 1_555
C4 C2 1_555 1_555
H5 C4 1_555 1_555
H6 C4 1_555 1_555
H7 C4 1_555 1_555
C5 C2 1_555 1_555
H8 C5 1_555 1_555
H9 C5 1_555 1_555
H10 C5 1_555 1_555
C6 C7 1_555 1_555
C7 C8 1_555 1_555
C8 H11 1_555 1_555
C9 C8 1_555 1_555
C10 C9 1_555 1_555
C11 C6 1_555 1_555
H12 C11 1_555 1_555
H13 C11 1_555 1_555
H14 C11 1_555 1_555
C12 C10 1_555 1_555
H15 C12 1_555 1_555
H16 C12 1_555 1_555
H17 C12 1_555 1_555
C13 C8 1_555 1_555
C14 C13 1_555 1_555
H18 C14 1_555 1_555
C15 C14 1_555 1_555
C16 C15 1_555 1_555
H19 C16 1_555 1_555
C17 C16 1_555 1_555
H20 C17 1_555 1_555
C18 C13 1_555 1_555
H21 C18 1_555 1_555
C19 C9 1_555 1_555
C20 H22 1_555 1_555
H23 C20 1_555 1_555
C21 C20 1_555 1_555
H24 C21 1_555 1_555
H25 C21 1_555 1_555
C22 C23 1_555 1_555
C23 H26 1_555 1_555
C24 C23 1_555 1_555
H27 C24 1_555 1_555
C25 C24 1_555 1_555
H28 C25 1_555 1_555
C26 C25 1_555 1_555
H29 C26 1_555 1_555
C27 C22 1_555 1_555
H30 C27 1_555 1_555
C28 H31 1_555 1_555
H32 C28 1_555 1_555
C29 C28 1_555 1_555
C30 C29 1_555 1_555
H33 C30 1_555 1_555
C31 C30 1_555 1_555
H34 C31 1_555 1_555
C32 C31 1_555 1_555
H35 C32 1_555 1_555
C33 C32 1_555 1_555
H36 C33 1_555 1_555
C34 C29 1_555 1_555
H37 C34 1_555 1_555
N1 C6 1_555 1_555
H38 N1 1_555 1_555
N2 C15 1_555 1_555
N3 C21 1_555 1_555
O1 C1 1_555 1_555
O2 C3 1_555 1_555
O3 P1 1_555 1_555
O4 N2 1_555 1_555
O5 N2 1_555 1_555
O6 C19 1_555 1_555
O7 C19 1_555 1_555
P1 C7 1_555 1_555
C10 N1 1_555 1_555
C17 C18 1_555 1_555
C20 O7 1_555 1_555
C22 N3 1_555 1_555
C26 C27 1_555 1_555
C28 N3 1_555 1_555
C33 C34 1_555 1_555
O1 P1 1_555 1_555
O2 P1 1_555 1_555

#END
