
#######################################################################
#
#                 Cambridge Crystallographic Data Centre
#                                CCDC 
#
#######################################################################
#
# If this CIF has been generated from an entry in the Cambridge 
# Structural Database, then it will include bibliographic, chemical, 
# crystal, experimental, refinement or atomic coordinate data resulting 
# from the CCDC's data processing and validation procedures.
#
#######################################################################

data_FUMRUA
_chemical_compound_source        'Red marine alga Laurencia chilensis'
_chemical_formula_moiety         'C15 H18 O6'
_chemical_name_systematic        'Chilenone B'
_symmetry_cell_setting           monoclinic
_symmetry_space_group_name_H-M   'P 21/n'
_symmetry_Int_Tables_number      14
_space_group_name_Hall           '-P 2yn'
loop_
_symmetry_equiv_pos_site_id
_symmetry_equiv_pos_as_xyz
1 x,y,z
2 1/2-x,1/2+y,1/2-z
3 -x,-y,-z
4 1/2+x,1/2-y,1/2+z
_cell_length_a                   10.0751(16)
_cell_length_b                   6.0502(14)
_cell_length_c                   23.5370(32)
_cell_angle_alpha                90
_cell_angle_beta                 91.917(45)
_cell_angle_gamma                90
_cell_volume                     1433.93
_chemical_melting_point          111deg.C
_cell_formula_units_Z            4
loop_
_atom_site_label
_atom_site_type_symbol
_atom_site_fract_x
_atom_site_fract_y
_atom_site_fract_z
O1 O 0.2266(3) -0.1436(5) 0.1330(1)
O2 O 0.2211(3) 0.3091(6) 0.2254(1)
C1 C 0.2766(4) 0.0756(7) 0.1473(2)
C2 C 0.2052(4) 0.1332(7) 0.2004(2)
C3 C 0.1222(5) -0.0496(9) 0.2128(2)
C4 C 0.1409(5) -0.1997(9) 0.1729(2)
C5 C 0.2432(5) 0.2293(8) 0.0986(2)
O3 O 0.4987(3) 0.0478(5) 0.1100(1)
O4 O 0.5849(3) -0.4585(5) 0.1709(1)
C6 C 0.5709(4) -0.1560(7) 0.1055(2)
C7 C 0.5450(4) -0.2745(7) 0.1599(2)
C8 C 0.4667(5) -0.1327(9) 0.1977(2)
C9 C 0.4259(5) 0.0622(8) 0.1608(2)
C10 C 0.5177(5) -0.2857(9) 0.0544(2)
O5 O 0.7470(3) -0.0097(6) 0.0487(1)
O6 O 0.9079(4) 0.3685(7) 0.1348(2)
C11 C 0.7919(9) 0.1939(12) 0.0561(3)
C12 C 0.8370(5) 0.2223(9) 0.1161(2)
C13 C 0.7746(5) 0.0520(10) 0.1479(2)
C14 C 0.7183(5) -0.1077(8) 0.1018(2)
C15 C 0.8640(6) 0.3005(12) 0.0127(2)
loop_
_geom_bond_atom_site_label_1
_geom_bond_atom_site_label_2
_geom_bond_site_symmetry_1
_geom_bond_site_symmetry_2
O1 C1 1_555 1_555
O2 C2 1_555 1_555
C1 C2 1_555 1_555
C2 C3 1_555 1_555
C3 C4 1_555 1_555
C4 O1 1_555 1_555
C5 C1 1_555 1_555
O3 C6 1_555 1_555
O4 C7 1_555 1_555
C6 C7 1_555 1_555
C7 C8 1_555 1_555
C8 C9 1_555 1_555
C9 C1 1_555 1_555
C10 C6 1_555 1_555
O5 C11 1_555 1_555
O6 C12 1_555 1_555
C11 C12 1_555 1_555
C12 C13 1_555 1_555
C13 C14 1_555 1_555
C14 C6 1_555 1_555
C15 C11 1_555 1_555
O3 C9 1_555 1_555
O5 C14 1_555 1_555

#END
