
#######################################################################
#
#                 Cambridge Crystallographic Data Centre
#                                CCDC 
#
#######################################################################
#
# If this CIF has been generated from an entry in the Cambridge 
# Structural Database, then it will include bibliographic, chemical, 
# crystal, experimental, refinement or atomic coordinate data resulting 
# from the CCDC's data processing and validation procedures.
#
#######################################################################

data_FUMWIU
_chemical_formula_moiety         'C22 H28 N2 P1 1+,I3 1-'
_chemical_name_systematic        
'1,3-Dimesityl-4,5-dimethyl-2,3-dihydro-1H-1,3,2-diazaphosphol-2-ium triiodide'
_symmetry_cell_setting           orthorhombic
_symmetry_space_group_name_H-M   'P 21 21 21'
_symmetry_Int_Tables_number      19
_space_group_name_Hall           'P 2ac 2ab'
loop_
_symmetry_equiv_pos_site_id
_symmetry_equiv_pos_as_xyz
1 x,y,z
2 1/2-x,-y,1/2+z
3 1/2+x,1/2-y,-z
4 -x,1/2+y,1/2-z
_cell_length_a                   14.0085(14)
_cell_length_b                   15.5780(16)
_cell_length_c                   24.014(2)
_cell_angle_alpha                90
_cell_angle_beta                 90
_cell_angle_gamma                90
_cell_volume                     5240.44
_exptl_crystal_colour            orange
_exptl_crystal_description       plate
_cell_formula_units_Z            8
loop_
_atom_site_label
_atom_site_type_symbol
_atom_site_fract_x
_atom_site_fract_y
_atom_site_fract_z
P1 P -0.63706(12) 0.48061(12) 0.12789(7)
N1 N -0.7235(4) 0.4843(3) 0.0803(2)
N2 N -0.7210(4) 0.4778(4) 0.1771(2)
C1 C -0.8150(4) 0.4838(4) 0.1011(3)
C2 C -0.8128(5) 0.4794(4) 0.1574(3)
C3 C -0.8993(5) 0.4865(5) 0.0628(3)
H1 H -0.8772 0.4900 0.0241
H2 H -0.9385 0.5369 0.0714
H3 H -0.9375 0.4343 0.0677
C4 C -0.6986(4) 0.4913(4) 0.0217(3)
C5 C -0.6800(5) 0.5716(4) -0.0005(3)
C6 C -0.6519(5) 0.5763(5) -0.0552(3)
H4 H -0.6394 0.6309 -0.0712
C7 C -0.6413(5) 0.5031(5) -0.0875(3)
C8 C -0.6607(5) 0.4233(5) -0.0639(3)
H5 H -0.6538 0.3729 -0.0858
C9 C -0.6896(5) 0.4163(4) -0.0093(3)
C10 C -0.6897(6) 0.6512(4) 0.0343(3)
H6 H -0.6740 0.7016 0.0117
H7 H -0.6460 0.6478 0.0661
H8 H -0.7555 0.6560 0.0478
C11 C -0.6092(5) 0.5095(6) -0.1473(3)
H9 H -0.6054 0.4519 -0.1635
H10 H -0.5462 0.5368 -0.1489
H11 H -0.6551 0.5441 -0.1684
C12 C -0.7075(5) 0.3301(4) 0.0168(3)
H12 H -0.6981 0.2849 -0.0111
H13 H -0.7732 0.3277 0.0308
H14 H -0.6630 0.3213 0.0478
C13 C -0.8968(5) 0.4783(5) 0.1962(3)
H15 H -0.8742 0.4744 0.2347
H16 H -0.9372 0.4286 0.1878
H17 H -0.9338 0.5312 0.1915
C14 C -0.6944(4) 0.4803(5) 0.2355(3)
C15 C -0.6768(5) 0.5585(4) 0.2602(3)
C16 C -0.6449(5) 0.5587(5) 0.3148(3)
H18 H -0.6328 0.6121 0.3326
C17 C -0.6301(5) 0.4834(6) 0.3443(3)
C18 C -0.6492(5) 0.4061(5) 0.3182(3)
H19 H -0.6403 0.3541 0.3382
C19 C -0.6816(4) 0.4027(4) 0.2631(3)
C20 C -0.6910(6) 0.6427(5) 0.2294(3)
H20 H -0.6754 0.6906 0.2542
H21 H -0.7576 0.6475 0.2174
H22 H -0.6490 0.6443 0.1968
C21 C -0.5938(5) 0.4863(6) 0.4029(3)
H23 H -0.5853 0.5463 0.4143
H24 H -0.5324 0.4563 0.4051
H25 H -0.6399 0.4584 0.4277
C22 C -0.7006(6) 0.3177(5) 0.2357(3)
H26 H -0.6879 0.2713 0.2622
H27 H -0.6589 0.3112 0.2032
H28 H -0.7675 0.3152 0.2237
P2 P -0.13187(13) 0.53236(12) -0.00286(7)
N3 N -0.2108(4) 0.5266(3) -0.0554(2)
N4 N -0.2222(4) 0.5325(3) 0.0418(2)
C23 C -0.3047(4) 0.5248(4) -0.0380(3)
C24 C -0.3113(4) 0.5285(4) 0.0184(3)
C25 C -0.3831(5) 0.5208(5) -0.0796(3)
H29 H -0.3559 0.5190 -0.1172
H30 H -0.4237 0.5717 -0.0758
H31 H -0.4213 0.4690 -0.0732
C26 C -0.1779(4) 0.5150(4) -0.1124(3)
C27 C -0.1627(5) 0.5865(4) -0.1451(3)
C28 C -0.1297(5) 0.5726(5) -0.1985(3)
H32 H -0.1183 0.6205 -0.2221
C29 C -0.1125(4) 0.4901(5) -0.2187(3)
C30 C -0.1288(5) 0.4212(5) -0.1840(3)
H33 H -0.1170 0.3648 -0.1975
C31 C -0.1615(5) 0.4313(4) -0.1303(3)
C32 C -0.1783(6) 0.6761(4) -0.1233(3)
H34 H -0.1640 0.7178 -0.1527
H35 H -0.1361 0.6863 -0.0914
H36 H -0.2449 0.6826 -0.1116
C33 C -0.0762(5) 0.4779(5) -0.2768(3)
H37 H -0.0696 0.5340 -0.2949
H38 H -0.1213 0.4425 -0.2979
H39 H -0.0139 0.4493 -0.2756
C34 C -0.1779(5) 0.3558(4) -0.0931(3)
H40 H -0.2009 0.3757 -0.0568
H41 H -0.1179 0.3244 -0.0882
H42 H -0.2256 0.3178 -0.1099
C35 C -0.3986(5) 0.5274(5) 0.0534(3)
H43 H -0.3805 0.5309 0.0928
H44 H -0.4338 0.4740 0.0468
H45 H -0.4391 0.5765 0.0438
C36 C -0.2045(5) 0.5276(5) 0.1011(3)
C37 C -0.2009(4) 0.6040(4) 0.1315(3)
C38 C -0.1765(5) 0.5980(5) 0.1872(3)
H46 H -0.1724 0.6490 0.2087
C39 C -0.1579(5) 0.5190(5) 0.2127(3)
C40 C -0.1634(5) 0.4452(5) 0.1808(3)
H47 H -0.1511 0.3914 0.1979
C41 C -0.1862(5) 0.4475(4) 0.1247(3)
C42 C -0.2220(6) 0.6897(4) 0.1044(3)
H48 H -0.2157 0.7355 0.1321
H49 H -0.2871 0.6893 0.0896
H50 H -0.1766 0.6996 0.0740
C43 C -0.1288(5) 0.5157(6) 0.2724(3)
H51 H -0.1189 0.4558 0.2835
H52 H -0.1790 0.5413 0.2954
H53 H -0.0692 0.5479 0.2774
C44 C -0.1896(6) 0.3672(5) 0.0909(3)
H54 H -0.1751 0.3178 0.1147
H55 H -0.1425 0.3706 0.0608
H56 H -0.2536 0.3603 0.0749
I1 I -0.94953(4) 0.73208(4) 0.00021(2)
I2 I -0.95422(4) 0.73262(3) 0.12433(2)
I3 I -0.96620(4) 0.73898(4) 0.24328(3)
I4 I -0.44358(4) 0.25971(3) -0.11128(2)
I5 I -0.44803(4) 0.27727(3) 0.00817(2)
I6 I -0.45594(4) 0.29495(3) 0.13148(2)
loop_
_geom_bond_atom_site_label_1
_geom_bond_atom_site_label_2
_geom_bond_site_symmetry_1
_geom_bond_site_symmetry_2
P1 N1 1_555 1_555
N1 C1 1_555 1_555
N2 P1 1_555 1_555
C1 C2 1_555 1_555
C2 N2 1_555 1_555
C3 C1 1_555 1_555
H1 C3 1_555 1_555
H2 C3 1_555 1_555
H3 C3 1_555 1_555
C4 N1 1_555 1_555
C5 C4 1_555 1_555
C6 C5 1_555 1_555
H4 C6 1_555 1_555
C7 C6 1_555 1_555
C8 C7 1_555 1_555
H5 C8 1_555 1_555
C9 C4 1_555 1_555
C10 C5 1_555 1_555
H6 C10 1_555 1_555
H7 C10 1_555 1_555
H8 C10 1_555 1_555
C11 C7 1_555 1_555
H9 C11 1_555 1_555
H10 C11 1_555 1_555
H11 C11 1_555 1_555
C12 C9 1_555 1_555
H12 C12 1_555 1_555
H13 C12 1_555 1_555
H14 C12 1_555 1_555
C13 C2 1_555 1_555
H15 C13 1_555 1_555
H16 C13 1_555 1_555
H17 C13 1_555 1_555
C14 N2 1_555 1_555
C15 C14 1_555 1_555
C16 C15 1_555 1_555
H18 C16 1_555 1_555
C17 C16 1_555 1_555
C18 C17 1_555 1_555
H19 C18 1_555 1_555
C19 C14 1_555 1_555
C20 C15 1_555 1_555
H20 C20 1_555 1_555
H21 C20 1_555 1_555
H22 C20 1_555 1_555
C21 C17 1_555 1_555
H23 C21 1_555 1_555
H24 C21 1_555 1_555
H25 C21 1_555 1_555
C22 C19 1_555 1_555
H26 C22 1_555 1_555
H27 C22 1_555 1_555
H28 C22 1_555 1_555
P2 N3 1_555 1_555
N3 C23 1_555 1_555
N4 P2 1_555 1_555
C23 C24 1_555 1_555
C24 N4 1_555 1_555
C25 C23 1_555 1_555
H29 C25 1_555 1_555
H30 C25 1_555 1_555
H31 C25 1_555 1_555
C26 N3 1_555 1_555
C27 C26 1_555 1_555
C28 C27 1_555 1_555
H32 C28 1_555 1_555
C29 C28 1_555 1_555
C30 C29 1_555 1_555
H33 C30 1_555 1_555
C31 C26 1_555 1_555
C32 C27 1_555 1_555
H34 C32 1_555 1_555
H35 C32 1_555 1_555
H36 C32 1_555 1_555
C33 C29 1_555 1_555
H37 C33 1_555 1_555
H38 C33 1_555 1_555
H39 C33 1_555 1_555
C34 C31 1_555 1_555
H40 C34 1_555 1_555
H41 C34 1_555 1_555
H42 C34 1_555 1_555
C35 C24 1_555 1_555
H43 C35 1_555 1_555
H44 C35 1_555 1_555
H45 C35 1_555 1_555
C36 N4 1_555 1_555
C37 C36 1_555 1_555
C38 C37 1_555 1_555
H46 C38 1_555 1_555
C39 C38 1_555 1_555
C40 C39 1_555 1_555
H47 C40 1_555 1_555
C41 C36 1_555 1_555
C42 C37 1_555 1_555
H48 C42 1_555 1_555
H49 C42 1_555 1_555
H50 C42 1_555 1_555
C43 C39 1_555 1_555
H51 C43 1_555 1_555
H52 C43 1_555 1_555
H53 C43 1_555 1_555
C44 C41 1_555 1_555
H54 C44 1_555 1_555
H55 C44 1_555 1_555
H56 C44 1_555 1_555
I1 I2 1_555 1_555
I2 I3 1_555 1_555
I4 I5 1_555 1_555
I5 I6 1_555 1_555
C8 C9 1_555 1_555
C18 C19 1_555 1_555
C30 C31 1_555 1_555
C40 C41 1_555 1_555

#END
