
#######################################################################
#
#                 Cambridge Crystallographic Data Centre
#                                CCDC 
#
#######################################################################
#
# If this CIF has been generated from an entry in the Cambridge 
# Structural Database, then it will include bibliographic, chemical, 
# crystal, experimental, refinement or atomic coordinate data resulting 
# from the CCDC's data processing and validation procedures.
#
#######################################################################

data_FUNRAJ
_chemical_formula_moiety         'C16 H21 N2 O3 P1'
_chemical_name_systematic        
"diethyl ((5'-methyl-2,2'-bipyridin-5-yl)methyl)phosphonate"
_symmetry_cell_setting           triclinic
_symmetry_space_group_name_H-M   'P -1'
_symmetry_Int_Tables_number      2
_space_group_name_Hall           '-P 1'
loop_
_symmetry_equiv_pos_site_id
_symmetry_equiv_pos_as_xyz
1 x,y,z
2 -x,-y,-z
_cell_length_a                   7.8553(4)
_cell_length_b                   8.4440(2)
_cell_length_c                   13.4441(6)
_cell_angle_alpha                97.770(3)
_cell_angle_beta                 102.310(2)
_cell_angle_gamma                108.186(3)
_cell_volume                     807.94
_exptl_crystal_colour            yellow
_exptl_crystal_description       blocks
_cell_formula_units_Z            2
loop_
_atom_site_label
_atom_site_type_symbol
_atom_site_fract_x
_atom_site_fract_y
_atom_site_fract_z
P1 P 0.27910(5) 0.65384(5) 0.09976(3)
O1 O 0.25473(15) 0.50983(14) 0.02106(8)
O2 O 0.25700(15) 0.80815(14) 0.04727(8)
C1 C 0.2897(4) 0.9734(3) 0.10570(15)
H1 H 0.4127 1.0160 0.1578
H2 H 0.1931 0.9680 0.1432
C2 C 0.2845(3) 1.0929(3) 0.03142(17)
H3 H 0.3069 1.2073 0.0709
H4 H 0.3810 1.0983 -0.0050
H5 H 0.1621 1.0505 -0.0196
O3 O 0.47343(14) 0.72542(14) 0.18208(8)
C3 C 0.6286(2) 0.6701(2) 0.17048(13)
H6 H 0.7460 0.7699 0.1922
H7 H 0.6079 0.6177 0.0964
C4 C 0.6434(2) 0.5415(2) 0.23721(15)
H8 H 0.7473 0.5046 0.2293
H9 H 0.6652 0.5942 0.3105
H10 H 0.5274 0.4424 0.2150
C5 C 0.1756(2) 0.2310(2) 0.35331(12)
C6 C 0.2765(2) 0.39632(19) 0.39432(12)
H11 H 0.3620 0.4299 0.4616
C7 C 0.2556(2) 0.5173(2) 0.33828(13)
H12 H 0.3276 0.6340 0.3687
C8 C 0.1352(2) 0.4767(2) 0.24035(12)
C9 C 0.0361(2) 0.3056(2) 0.20156(13)
H13 H -0.0493 0.2698 0.1342
N1 N 0.0569(2) 0.18328(19) 0.25791(12)
C10 C 0.1164(2) 0.6120(2) 0.17793(12)
H14 H 0.1372 0.7194 0.2267
H15 H -0.0119 0.5731 0.1318
C11 C 0.1963(2) 0.09995(19) 0.41660(11)
C12 C 0.0848(2) -0.06418(19) 0.38060(12)
H16 H -0.0052 -0.0999 0.3147
C13 C 0.1043(2) -0.1808(2) 0.44205(14)
H17 H 0.0226 -0.2961 0.4172
C14 C 0.2343(2) -0.1390(2) 0.53616(13)
C15 C 0.3432(3) 0.0309(2) 0.56778(13)
H18 H 0.4346 0.0679 0.6332
N2 N 0.3269(2) 0.1501(2) 0.50981(11)
C16 C 0.2595(3) -0.2692(3) 0.60093(16)
H19 H 0.1686 -0.3826 0.5650
H20 H 0.3857 -0.2716 0.6100
H21 H 0.2403 -0.2371 0.6694
N3? N 0.2765(2) 0.39632(19) 0.39432(12)
C17? C 0.0569(2) 0.18328(19) 0.25791(12)
H22? H -0.0132 0.0658 0.2287
N4? N 0.0848(2) -0.06418(19) 0.38060(12)
C18? C 0.3269(2) 0.1501(2) 0.50981(11)
H23? H 0.4060 0.2663 0.5347
loop_
_geom_bond_atom_site_label_1
_geom_bond_atom_site_label_2
_geom_bond_site_symmetry_1
_geom_bond_site_symmetry_2
P1 O1 1_555 1_555
O2 P1 1_555 1_555
C1 O2 1_555 1_555
H1 C1 1_555 1_555
H2 C1 1_555 1_555
C2 C1 1_555 1_555
H3 C2 1_555 1_555
H4 C2 1_555 1_555
H5 C2 1_555 1_555
O3 P1 1_555 1_555
C3 O3 1_555 1_555
H6 C3 1_555 1_555
H7 C3 1_555 1_555
C4 C3 1_555 1_555
H8 C4 1_555 1_555
H9 C4 1_555 1_555
H10 C4 1_555 1_555
C5 C6 1_555 1_555
C6 H11 1_555 1_555
C7 C6 1_555 1_555
H12 C7 1_555 1_555
C8 C7 1_555 1_555
C9 C8 1_555 1_555
H13 C9 1_555 1_555
N1 C5 1_555 1_555
C10 P1 1_555 1_555
H14 C10 1_555 1_555
H15 C10 1_555 1_555
C11 C5 1_555 1_555
C12 C11 1_555 1_555
H16 C12 1_555 1_555
C13 C12 1_555 1_555
H17 C13 1_555 1_555
C14 C13 1_555 1_555
C15 C14 1_555 1_555
H18 C15 1_555 1_555
N2 C11 1_555 1_555
C16 C14 1_555 1_555
H19 C16 1_555 1_555
H20 C16 1_555 1_555
H21 C16 1_555 1_555
C8 C10 1_555 1_555
C9 N1 1_555 1_555
C15 N2 1_555 1_555

#END
