
#######################################################################
#
#                 Cambridge Crystallographic Data Centre
#                                CCDC 
#
#######################################################################
#
# If this CIF has been generated from an entry in the Cambridge 
# Structural Database, then it will include bibliographic, chemical, 
# crystal, experimental, refinement or atomic coordinate data resulting 
# from the CCDC's data processing and validation procedures.
#
#######################################################################

data_FUPMIM
_chemical_formula_moiety         'C18 H18 S14'
_chemical_name_systematic        
4,5,5',5'',4''',5'''-hexakis(Methylsulfanyl)-4',4''-bitetrathiafulvalene
_symmetry_cell_setting           monoclinic
_symmetry_space_group_name_H-M   'P 21/n'
_symmetry_Int_Tables_number      14
_space_group_name_Hall           '-P 2yn'
loop_
_symmetry_equiv_pos_site_id
_symmetry_equiv_pos_as_xyz
1 x,y,z
2 1/2+x,1/2-y,1/2+z
3 -x,-y,-z
4 1/2-x,1/2+y,1/2-z
_cell_length_a                   8.374(1)
_cell_length_b                   12.684(2)
_cell_length_c                   26.295(3)
_cell_angle_alpha                90
_cell_angle_beta                 96.20(1)
_cell_angle_gamma                90
_cell_volume                     2776.61
_exptl_crystal_colour            red-brown
_exptl_crystal_description       block
_chemical_melting_point          433-434K
_cell_formula_units_Z            4
loop_
_atom_site_label
_atom_site_type_symbol
_atom_site_fract_x
_atom_site_fract_y
_atom_site_fract_z
S1 S 0.07372(7) 0.53391(5) 0.16303(3)
S2 S 0.31402(7) 0.37867(4) 0.13466(2)
S3 S -0.08302(8) 0.36809(5) 0.23130(3)
S4 S 0.14828(7) 0.20338(4) 0.20756(2)
S5 S -0.31517(13) 0.20529(8) 0.26862(4)
S7 S -0.02445(10) 0.03286(5) 0.26116(3)
S8 S 0.44643(9) 0.53314(5) 0.06139(3)
S9 S 0.28771(7) 0.78610(4) 0.14228(2)
S10 S 0.07805(7) 0.85353(4) 0.05037(2)
S11 S 0.46816(7) 1.01991(4) 0.14333(2)
S12 S 0.25810(7) 1.07714(4) 0.05032(2)
S13 S 0.72838(7) 1.17238(5) 0.12212(2)
S14 S 0.48861(8) 1.24097(5) 0.01730(2)
S15 S -0.02572(7) 0.63149(5) 0.02212(2)
C1 C 0.1491(3) 0.4043(2) 0.16903(8)
C2 C 0.2103(3) 0.5765(2) 0.12122(8)
C3 C 0.3180(3) 0.5062(2) 0.10781(9)
C4 C 0.0802(3) 0.3338(2) 0.19800(8)
C5 C -0.1172(3) 0.2379(2) 0.25112(11)
C6 C -0.0119(3) 0.1639(2) 0.24106(9)
C7 C 0.6367(3) 0.4890(2) 0.09281(14)
H1 H 0.7227(4) 0.5096(12) 0.0723(3)
H2 H 0.6353(8) 0.4120(3) 0.0962(6)
H3 H 0.6560(10) 0.5211(10) 0.1268(3)
C8 C -0.2848(6) 0.2612(4) 0.3320(2)
H4 H -0.3865(10) 0.2598(22) 0.3475(5)
H5 H -0.2484(34) 0.3345(8) 0.3298(2)
H6 H -0.2037(26) 0.2206(14) 0.3535(4)
C10 C 0.1083(3) -0.0347(2) 0.22336(9)
H10 H 0.1106(15) -0.1098(3) 0.2322(4)
H11 H 0.2169(5) -0.0055(8) 0.2298(4)
H12 H 0.0692(11) -0.0262(10) 0.18711(10)
C11 C 0.2358(2) 0.8870(2) 0.09720(8)
C12 C 0.1914(3) 0.6860(2) 0.10307(8)
C13 C 0.0959(3) 0.7168(2) 0.06169(8)
C14 C 0.3097(3) 0.9812(2) 0.09791(8)
C15 C 0.5409(3) 1.1159(2) 0.10266(8)
C16 C 0.4454(3) 1.1414(2) 0.06008(8)
C17 C 0.0327(3) 0.6658(2) -0.04008(9)
H13 H -0.0244(15) 0.7300(7) -0.0523(3)
H14 H 0.0045(18) 0.6081(6) -0.0642(2)
H15 H 0.1488(4) 0.6783(13) -0.03754(15)
C18 C 0.8562(3) 1.0706(2) 0.10101(11)
H16 H 0.9690(3) 1.0886(6) 0.1112(5)
H17 H 0.8380(14) 1.0650(8) 0.06362(12)
H18 H 0.8314(13) 1.0028(3) 0.1163(5)
C19 C 0.4048(3) 1.1873(2) -0.04313(9)
H19 H 0.4388(16) 1.2300(8) -0.07140(9)
H20 H 0.2863(3) 1.1870(12) -0.0455(3)
H21 H 0.4429(16) 1.1143(5) -0.0465(3)
S6? S -0.2461(2) 0.23034(13) 0.30158(7)
C9? C -0.4192(9) 0.2158(5) 0.2537(3)
H7? H -0.5169(9) 0.2097(5) 0.2710(3)
H8? H -0.4066(9) 0.1524(5) 0.2333(3)
H9? H -0.4274(9) 0.2778(5) 0.2313(3)
loop_
_geom_bond_atom_site_label_1
_geom_bond_atom_site_label_2
_geom_bond_site_symmetry_1
_geom_bond_site_symmetry_2
S1 C1 1_555 1_555
S2 C1 1_555 1_555
S3 C4 1_555 1_555
S4 C4 1_555 1_555
S5 C5 1_555 1_555
S7 C6 1_555 1_555
S8 C3 1_555 1_555
S9 C11 1_555 1_555
S10 C11 1_555 1_555
S11 C14 1_555 1_555
S12 C14 1_555 1_555
S13 C15 1_555 1_555
S14 C16 1_555 1_555
S15 C13 1_555 1_555
C1 C4 1_555 1_555
C2 S1 1_555 1_555
C3 S2 1_555 1_555
C5 S3 1_555 1_555
C6 S4 1_555 1_555
C7 S8 1_555 1_555
H1 C7 1_555 1_555
H2 C7 1_555 1_555
H3 C7 1_555 1_555
C8 S5 1_555 1_555
H4 C8 1_555 1_555
H5 C8 1_555 1_555
H6 C8 1_555 1_555
C10 S7 1_555 1_555
H10 C10 1_555 1_555
H11 C10 1_555 1_555
H12 C10 1_555 1_555
C11 C14 1_555 1_555
C12 S9 1_555 1_555
C13 S10 1_555 1_555
C15 S11 1_555 1_555
C16 S12 1_555 1_555
C17 S15 1_555 1_555
H13 C17 1_555 1_555
H14 C17 1_555 1_555
H15 C17 1_555 1_555
C18 S13 1_555 1_555
H16 C18 1_555 1_555
H17 C18 1_555 1_555
H18 C18 1_555 1_555
C19 S14 1_555 1_555
H19 C19 1_555 1_555
H20 C19 1_555 1_555
H21 C19 1_555 1_555
C2 C3 1_555 1_555
C2 C12 1_555 1_555
C5 C6 1_555 1_555
C12 C13 1_555 1_555
C15 C16 1_555 1_555

#END
