
#######################################################################
#
#                 Cambridge Crystallographic Data Centre
#                                CCDC 
#
#######################################################################
#
# If this CIF has been generated from an entry in the Cambridge 
# Structural Database, then it will include bibliographic, chemical, 
# crystal, experimental, refinement or atomic coordinate data resulting 
# from the CCDC's data processing and validation procedures.
#
#######################################################################

data_FUQBOI
_chemical_formula_moiety         'C12 H10 N2 O3'
_chemical_name_systematic        "4-Aminophenyl 4'-nitrophenyl ether"
_symmetry_cell_setting           monoclinic
_symmetry_space_group_name_H-M   'P 21/c'
_symmetry_Int_Tables_number      14
_space_group_name_Hall           '-P 2ybc'
loop_
_symmetry_equiv_pos_site_id
_symmetry_equiv_pos_as_xyz
1 x,y,z
2 x,1/2-y,1/2+z
3 -x,-y,-z
4 -x,1/2+y,1/2-z
_cell_length_a                   7.2340(10)
_cell_length_b                   8.9990(10)
_cell_length_c                   16.907(2)
_cell_angle_alpha                90
_cell_angle_beta                 92.420(10)
_cell_angle_gamma                90
_cell_volume                     1099.64
_exptl_crystal_colour            yellow
_cell_formula_units_Z            4
_exptl_crystal_recrystallization_method 'ethyl acetate'
loop_
_atom_site_label
_atom_site_type_symbol
_atom_site_fract_x
_atom_site_fract_y
_atom_site_fract_z
O1 O 0.51588(14) 0.13356(11) 0.22908(6)
O2 O 0.8751(2) -0.22353(16) -0.03917(8)
O3 O 0.6103(2) -0.33140(16) -0.04034(8)
N1 N -0.1522(3) 0.0890(2) 0.37943(14)
N2 N 0.7191(3) -0.23843(17) -0.01489(8)
C1 C 0.0164(2) 0.09613(16) 0.34172(9)
C2 C 0.1612(2) 0.00120(16) 0.36107(9)
H1 H 0.1475 -0.0704 0.4001
C3 C 0.3265(2) 0.01132(16) 0.32315(9)
H2 H 0.4236 -0.0528 0.3365
C4 C 0.34560(19) 0.11706(16) 0.26552(8)
C5 C 0.2052(2) 0.21376(16) 0.24665(8)
H3 H 0.2199 0.2859 0.2080
C6 C 0.0428(2) 0.20383(17) 0.28489(9)
H4 H -0.0518 0.2709 0.2724
C7 C 0.5536(2) 0.04146(16) 0.16717(8)
C8 C 0.7283(2) 0.05586(18) 0.13778(9)
H5 H 0.8094 0.1274 0.1586
C9 C 0.7819(2) -0.03508(19) 0.07814(8)
H6 H 0.8995 -0.0265 0.0585
C10 C 0.6599(2) -0.13910(17) 0.04766(8)
C11 C 0.4854(2) -0.15154(16) 0.07424(8)
H7 H 0.4036 -0.2208 0.0517
C12 C 0.4304(2) -0.06088(15) 0.13488(8)
H8 H 0.3118 -0.0688 0.1537
H9 H -0.151(2) 0.007(2) 0.4107(10)
H10 H -0.249(4) 0.117(3) 0.3537(17)
loop_
_geom_bond_atom_site_label_1
_geom_bond_atom_site_label_2
_geom_bond_site_symmetry_1
_geom_bond_site_symmetry_2
O1 C4 1_555 1_555
O2 N2 1_555 1_555
O3 N2 1_555 1_555
N1 C1 1_555 1_555
N2 C10 1_555 1_555
C1 C2 1_555 1_555
C2 H1 1_555 1_555
C3 C2 1_555 1_555
H2 C3 1_555 1_555
C4 C3 1_555 1_555
C5 C4 1_555 1_555
H3 C5 1_555 1_555
C6 C1 1_555 1_555
H4 C6 1_555 1_555
C7 O1 1_555 1_555
C8 C7 1_555 1_555
H5 C8 1_555 1_555
C9 C8 1_555 1_555
H6 C9 1_555 1_555
C10 C9 1_555 1_555
C11 C10 1_555 1_555
H7 C11 1_555 1_555
C12 C7 1_555 1_555
H8 C12 1_555 1_555
H9 N1 1_555 1_555
H10 N1 1_555 1_555
C5 C6 1_555 1_555
C11 C12 1_555 1_555

#END
