
#######################################################################
#
#                 Cambridge Crystallographic Data Centre
#                                CCDC 
#
#######################################################################
#
# If this CIF has been generated from an entry in the Cambridge 
# Structural Database, then it will include bibliographic, chemical, 
# crystal, experimental, refinement or atomic coordinate data resulting 
# from the CCDC's data processing and validation procedures.
#
#######################################################################

data_FUQMEJ
_chemical_formula_moiety         'C14 H6 F6 N2 O4 S2'
_chemical_name_systematic        
'Bis-(2-nitro-4-trifluoromethylphenyl) disulfide'
_symmetry_cell_setting           monoclinic
_symmetry_space_group_name_H-M   'P 21/c'
_symmetry_Int_Tables_number      14
_space_group_name_Hall           '-P 2ybc'
loop_
_symmetry_equiv_pos_site_id
_symmetry_equiv_pos_as_xyz
1 x,y,z
2 x,1/2-y,1/2+z
3 -x,-y,-z
4 -x,1/2+y,1/2-z
_cell_length_a                   14.1617(5)
_cell_length_b                   5.3367(2)
_cell_length_c                   22.6233(10)
_cell_angle_alpha                90
_cell_angle_beta                 91.7376(13)
_cell_angle_gamma                90
_cell_volume                     1709.01
_exptl_crystal_colour            yellow
_exptl_crystal_description       needle
_cell_formula_units_Z            4
loop_
_atom_site_label
_atom_site_type_symbol
_atom_site_fract_x
_atom_site_fract_y
_atom_site_fract_z
S1 S 0.22533(7) 0.85099(16) 0.26136(4)
S2 S 0.36334(7) 0.75071(18) 0.27725(4)
C1 C 0.1863(2) 0.6570(5) 0.20162(13)
C2 C 0.0974(2) 0.6873(6) 0.17393(15)
N1 N 0.0328(3) 0.8793(6) 0.19395(15)
O1 O 0.0592(2) 1.0148(5) 0.23493(14)
O2 O -0.0445(2) 0.8981(6) 0.16933(14)
C3 C 0.0671(3) 0.5438(6) 0.12645(15)
C4 C 0.1258(3) 0.3619(6) 0.10481(14)
C5 C 0.0949(4) 0.2153(8) 0.05198(19)
F1 F 0.1023(2) 0.3360(5) 0.00274(11)
F2 F 0.1400(3) 0.0050(5) 0.04609(13)
F3 F 0.0052(3) 0.1512(7) 0.05305(13)
C6 C 0.2126(3) 0.3236(6) 0.13188(16)
C7 C 0.2422(2) 0.4667(6) 0.17987(14)
C8 C 0.3579(3) 0.5036(6) 0.33034(14)
C9 C 0.4390(3) 0.4100(7) 0.35920(16)
N2 N 0.5332(3) 0.5069(8) 0.34643(17)
O3 O 0.5381(2) 0.6731(6) 0.30981(15)
O4 O 0.6013(2) 0.4158(8) 0.37199(17)
C10 C 0.4357(3) 0.2279(7) 0.40201(16)
C11 C 0.3500(3) 0.1328(6) 0.41772(15)
C12 C 0.3456(4) -0.0516(8) 0.46645(19)
F4 F 0.3469(2) 0.0509(5) 0.51923(11)
F5 F 0.4182(2) -0.2098(5) 0.46767(12)
F6 F 0.2693(2) -0.1963(5) 0.46249(14)
C13 C 0.2687(3) 0.2202(7) 0.38939(16)
C14 C 0.2726(3) 0.3999(7) 0.34613(16)
H1 H 0.0075 0.5694 0.1091
H2 H 0.2521 0.1996 0.1177
H3 H 0.3008 0.4347 0.1980
H4 H 0.4912 0.1695 0.4202
H5 H 0.2104 0.1563 0.3998
H6 H 0.2170 0.4529 0.3271
loop_
_geom_bond_atom_site_label_1
_geom_bond_atom_site_label_2
_geom_bond_site_symmetry_1
_geom_bond_site_symmetry_2
S1 S2 1_555 1_555
S2 C8 1_555 1_555
C1 S1 1_555 1_555
C2 C1 1_555 1_555
N1 C2 1_555 1_555
O1 N1 1_555 1_555
O2 N1 1_555 1_555
C3 C2 1_555 1_555
C4 C3 1_555 1_555
C5 C4 1_555 1_555
F1 C5 1_555 1_555
F2 C5 1_555 1_555
F3 C5 1_555 1_555
C6 C4 1_555 1_555
C7 C1 1_555 1_555
C8 C9 1_555 1_555
C9 N2 1_555 1_555
N2 O3 1_555 1_555
O4 N2 1_555 1_555
C10 C9 1_555 1_555
C11 C10 1_555 1_555
C12 C11 1_555 1_555
F4 C12 1_555 1_555
F5 C12 1_555 1_555
F6 C12 1_555 1_555
C13 C11 1_555 1_555
C14 C8 1_555 1_555
H1 C3 1_555 1_555
H2 C6 1_555 1_555
H3 C7 1_555 1_555
H4 C10 1_555 1_555
H5 C13 1_555 1_555
H6 C14 1_555 1_555
C6 C7 1_555 1_555
C13 C14 1_555 1_555

#END
