
#######################################################################
#
#                 Cambridge Crystallographic Data Centre
#                                CCDC 
#
#######################################################################
#
# If this CIF has been generated from an entry in the Cambridge 
# Structural Database, then it will include bibliographic, chemical, 
# crystal, experimental, refinement or atomic coordinate data resulting 
# from the CCDC's data processing and validation procedures.
#
#######################################################################

data_FURDED
_chemical_formula_moiety         'C20 H17 N3 O4 S1'
_chemical_name_systematic        
'ethyl 2-methyl-4-(3-nitrophenyl)-4H-pyrimido[2,1-b][1,3]benzothiazole-3-carboxylate'
_chemical_properties_biological  'antihypertensive activity'
_symmetry_cell_setting           triclinic
_symmetry_space_group_name_H-M   'P -1'
_symmetry_Int_Tables_number      2
_space_group_name_Hall           '-P 1'
loop_
_symmetry_equiv_pos_site_id
_symmetry_equiv_pos_as_xyz
1 x,y,z
2 -x,-y,-z
_cell_length_a                   8.3412(15)
_cell_length_b                   10.5799(19)
_cell_length_c                   11.2033(19)
_cell_angle_alpha                96.871(3)
_cell_angle_beta                 101.345(3)
_cell_angle_gamma                101.897(3)
_cell_volume                     935.225
_exptl_crystal_colour            yellow
_exptl_crystal_description       rectangle
_cell_formula_units_Z            2
loop_
_atom_site_label
_atom_site_type_symbol
_atom_site_fract_x
_atom_site_fract_y
_atom_site_fract_z
S1 S 0.17456(11) 0.88825(8) 0.56005(7)
O1 O 0.1793(2) 1.18585(19) 0.08073(17)
O2 O 0.2789(4) 1.3582(2) 0.2320(2)
O3 O 0.1442(3) 0.7801(3) -0.1977(2)
O4 O 0.3791(3) 0.7304(3) -0.1918(2)
N1 N 0.1302(3) 0.9404(2) 0.33969(18)
N2 N 0.3278(3) 1.1047(2) 0.4919(2)
N3 N 0.2835(4) 0.7776(3) -0.1426(2)
C1 C 0.2216(3) 0.9927(3) 0.4564(2)
C2 C 0.1657(3) 1.0049(2) 0.2352(2)
H1 H 0.0592 0.9988 0.1767
C3 C 0.2482(3) 1.1477(2) 0.2852(2)
C4 C 0.3347(3) 1.1869(3) 0.4045(2)
C5 C 0.0342(4) 0.7735(3) 0.4415(3)
C6 C 0.0246(3) 0.8168(3) 0.3280(2)
C7 C -0.0799(4) 0.7401(3) 0.2212(3)
H2 H -0.0866 0.7686 0.1454
C8 C -0.1733(4) 0.6201(3) 0.2312(3)
H3 H -0.2445 0.5668 0.1607
C9 C -0.1639(5) 0.5766(3) 0.3438(4)
H4 H -0.2288 0.4950 0.3475
C10 C -0.0603(4) 0.6524(3) 0.4500(3)
H5 H -0.0538 0.6231 0.5254
C11 C 0.2765(3) 0.9372(2) 0.1697(2)
C12 C 0.2289(3) 0.8890(2) 0.0448(2)
H6 H 0.1256 0.8942 -0.0014
C13 C 0.3374(3) 0.8327(3) -0.0104(2)
C14 C 0.4921(4) 0.8244(3) 0.0541(3)
H7 H 0.5641 0.7881 0.0144
C15 C 0.5372(4) 0.8710(4) 0.1779(3)
H8 H 0.6405 0.8652 0.2237
C16 C 0.4308(3) 0.9266(3) 0.2355(3)
H9 H 0.4632 0.9576 0.3200
C17 C 0.2333(4) 1.2299(3) 0.1892(3)
C18 C 0.2639(9) 1.4441(4) 0.1413(4)
H10 H 0.3690 1.4639 0.1149
H11 H 0.1766 1.3980 0.0698
C19 C 0.2307(14) 1.5475(8) 0.1781(8)
H12 H 0.1870 1.5395 0.2507
H13 H 0.1480 1.5670 0.1148
H14 H 0.3309 1.6168 0.1975
C20 C 0.4507(4) 1.3188(3) 0.4593(3)
H15 H 0.5142 1.3485 0.4010
H16 H 0.5263 1.3118 0.5334
H17 H 0.3856 1.3803 0.4783
loop_
_geom_bond_atom_site_label_1
_geom_bond_atom_site_label_2
_geom_bond_site_symmetry_1
_geom_bond_site_symmetry_2
S1 C1 1_555 1_555
O1 C17 1_555 1_555
O2 C17 1_555 1_555
O3 N3 1_555 1_555
O4 N3 1_555 1_555
N1 C1 1_555 1_555
N2 C1 1_555 1_555
N3 C13 1_555 1_555
C2 N1 1_555 1_555
H1 C2 1_555 1_555
C3 C2 1_555 1_555
C4 N2 1_555 1_555
C5 S1 1_555 1_555
C6 N1 1_555 1_555
C7 C6 1_555 1_555
H2 C7 1_555 1_555
C8 C7 1_555 1_555
H3 C8 1_555 1_555
C9 C8 1_555 1_555
H4 C9 1_555 1_555
C10 C5 1_555 1_555
H5 C10 1_555 1_555
C11 C2 1_555 1_555
C12 C11 1_555 1_555
H6 C12 1_555 1_555
C13 C12 1_555 1_555
C14 C13 1_555 1_555
H7 C14 1_555 1_555
C15 C14 1_555 1_555
H8 C15 1_555 1_555
C16 C11 1_555 1_555
H9 C16 1_555 1_555
C17 C3 1_555 1_555
C18 O2 1_555 1_555
H10 C18 1_555 1_555
H11 C18 1_555 1_555
C19 C18 1_555 1_555
H12 C19 1_555 1_555
H13 C19 1_555 1_555
H14 C19 1_555 1_555
C20 C4 1_555 1_555
H15 C20 1_555 1_555
H16 C20 1_555 1_555
H17 C20 1_555 1_555
C3 C4 1_555 1_555
C5 C6 1_555 1_555
C9 C10 1_555 1_555
C15 C16 1_555 1_555

#END
