
#######################################################################
#
#                 Cambridge Crystallographic Data Centre
#                                CCDC 
#
#######################################################################
#
# If this CIF has been generated from an entry in the Cambridge 
# Structural Database, then it will include bibliographic, chemical, 
# crystal, experimental, refinement or atomic coordinate data resulting 
# from the CCDC's data processing and validation procedures.
#
#######################################################################

data_FUREHX
_chemical_formula_moiety         'C4 H3 F1 N2 O2,C7 H8 N4 O1'
_chemical_name_systematic        5-Fluorouracil-9-ethylhypoxanthine
_symmetry_cell_setting           monoclinic
_symmetry_space_group_name_H-M   'P 21/c'
_symmetry_Int_Tables_number      14
_space_group_name_Hall           '-P 2ybc'
loop_
_symmetry_equiv_pos_site_id
_symmetry_equiv_pos_as_xyz
1 x,y,z
2 -x,1/2+y,1/2-z
3 -x,-y,-z
4 x,1/2-y,1/2+z
_cell_length_a                   4.656
_cell_length_b                   15.276
_cell_length_c                   17.807
_cell_angle_alpha                90
_cell_angle_beta                 90.80
_cell_angle_gamma                90
_cell_volume                     1266.4
_cell_formula_units_Z            4
loop_
_atom_site_label
_atom_site_type_symbol
_atom_site_fract_x
_atom_site_fract_y
_atom_site_fract_z
C1 C -0.03880 -0.02560 0.35950
C2 C -0.21260 -0.05830 0.42430
C3 C 0.02900 0.25330 0.38430
C4 C -0.14840 0.13380 0.33310
C5 C -0.33330 0.17590 0.28570
C6 C -0.34170 0.26900 0.28550
C7 C -0.39150 0.03950 0.26500
N1 N -0.14860 0.30240 0.33890
N2 N 0.04040 0.16870 0.38440
N3 N -0.48690 0.11690 0.24270
N4 N -0.18510 0.04570 0.32010
O1 O -0.49120 0.31840 0.24600
C8 C -0.00500 0.05080 0.11430
C9 C -0.36670 0.12160 0.03330
C10 C -0.25600 0.20340 0.06160
C11 C -0.04350 0.20600 0.11240
F1 F -0.38220 0.27620 0.03530
N5 N 0.08120 0.13050 0.13800
N6 N -0.22910 0.04930 0.06220
O2 O 0.10700 -0.01690 0.13650
O3 O -0.56770 0.11450 -0.01260
loop_
_geom_bond_atom_site_label_1
_geom_bond_atom_site_label_2
_geom_bond_site_symmetry_1
_geom_bond_site_symmetry_2
C1 C2 1_555 1_555
C3 N1 1_555 1_555
C4 C5 1_555 1_555
C5 C6 1_555 1_555
C6 N1 1_555 1_555
C7 N3 1_555 1_555
N2 C3 1_555 1_555
N3 C5 1_555 1_555
N4 C1 1_555 1_555
O1 C6 1_555 1_555
C8 N5 1_555 1_555
C9 C10 1_555 1_555
C10 C11 1_555 1_555
C11 N5 1_555 1_555
F1 C10 1_555 1_555
N6 C8 1_555 1_555
O2 C8 1_555 1_555
O3 C9 1_555 1_555
C4 N2 1_555 1_555
C4 N4 1_555 1_555
C7 N4 1_555 1_555
C9 N6 1_555 1_555

#END
