
#######################################################################
#
#                 Cambridge Crystallographic Data Centre
#                                CCDC 
#
#######################################################################
#
# If this CIF has been generated from an entry in the Cambridge 
# Structural Database, then it will include bibliographic, chemical, 
# crystal, experimental, refinement or atomic coordinate data resulting 
# from the CCDC's data processing and validation procedures.
#
#######################################################################

data_FURMCY
_chemical_formula_moiety         'C4 H3 F1 N2 O2,C5 H7 N3 O1'
_chemical_name_systematic        '5-Fluorouracil-1-methylcytosine complex'
_symmetry_cell_setting           orthorhombic
_symmetry_space_group_name_H-M   'P b c a'
_symmetry_Int_Tables_number      61
_space_group_name_Hall           '-P 2ac 2ab'
loop_
_symmetry_equiv_pos_site_id
_symmetry_equiv_pos_as_xyz
1 x,y,z
2 1/2-x,1/2+y,z
3 x,1/2-y,1/2+z
4 1/2-x,-y,1/2+z
5 -x,-y,-z
6 1/2+x,1/2-y,-z
7 -x,1/2+y,1/2-z
8 1/2+x,y,1/2-z
_cell_length_a                   18.35
_cell_length_b                   11.40
_cell_length_c                   10.26
_cell_angle_alpha                90
_cell_angle_beta                 90
_cell_angle_gamma                90
_cell_volume                     2146.29
_cell_formula_units_Z            8
loop_
_atom_site_label
_atom_site_type_symbol
_atom_site_fract_x
_atom_site_fract_y
_atom_site_fract_z
C1 C 0.24790 0.39410 -0.06100
C3 C 0.17840 0.50920 0.09850
C5 C 0.11130 0.41710 0.26440
C7 C 0.13280 0.30460 0.21760
C9 C 0.17830 0.30080 0.11130
N2 N 0.20170 0.40000 0.05080
N4 N 0.13340 0.51380 0.20110
N5 N 0.06920 0.42750 0.36250
O2 O 0.19890 0.59970 0.03870
C2 C 0.05270 -0.24290 0.37880
C4 C 0.06610 -0.03110 0.34130
C6 C 0.11110 -0.06220 0.23190
C8 C 0.12330 -0.17210 0.20110
F1 F 0.13830 0.02740 0.16200
N1 N 0.09460 -0.26290 0.27440
N3 N 0.03920 -0.12620 0.40950
O1 O 0.02600 -0.32350 0.44490
O3 O 0.05240 0.06950 0.37830
loop_
_geom_bond_atom_site_label_1
_geom_bond_atom_site_label_2
_geom_bond_site_symmetry_1
_geom_bond_site_symmetry_2
C1 N2 1_555 1_555
C2 N1 1_555 1_555
C3 N2 1_555 1_555
C4 C6 1_555 1_555
C5 C7 1_555 1_555
C6 C8 1_555 1_555
C7 C9 1_555 1_555
C8 N1 1_555 1_555
C9 N2 1_555 1_555
F1 C6 1_555 1_555
N3 C2 1_555 1_555
N4 C3 1_555 1_555
N5 C5 1_555 1_555
O1 C2 1_555 1_555
O2 C3 1_555 1_555
O3 C4 1_555 1_555
C4 N3 1_555 1_555
C5 N4 1_555 1_555

#END
