
#######################################################################
#
#                 Cambridge Crystallographic Data Centre
#                                CCDC 
#
#######################################################################
#
# If this CIF has been generated from an entry in the Cambridge 
# Structural Database, then it will include bibliographic, chemical, 
# crystal, experimental, refinement or atomic coordinate data resulting 
# from the CCDC's data processing and validation procedures.
#
#######################################################################

data_FUSJAE
_chemical_formula_moiety         'C9 H7 O2 1-,C8 H12 N1 1+'
_chemical_name_systematic        '1-Phenylethylammonium cinnamate'
_symmetry_cell_setting           orthorhombic
_symmetry_space_group_name_H-M   'P 21 21 21'
_symmetry_Int_Tables_number      19
_space_group_name_Hall           'P 2ac 2ab'
loop_
_symmetry_equiv_pos_site_id
_symmetry_equiv_pos_as_xyz
1 x,y,z
2 1/2+x,1/2-y,-z
3 -x,1/2+y,1/2-z
4 1/2-x,-y,1/2+z
_cell_length_a                   9.368(1)
_cell_length_b                   26.703(2)
_cell_length_c                   6.043(1)
_cell_angle_alpha                90
_cell_angle_beta                 90
_cell_angle_gamma                90
_cell_volume                     1511.68
_exptl_crystal_colour            colorless
_cell_formula_units_Z            4
loop_
_atom_site_label
_atom_site_type_symbol
_atom_site_fract_x
_atom_site_fract_y
_atom_site_fract_z
O1 O 0.5697(2) 0.42478(6) 0.4982(3)
O2 O 0.6843(2) 0.44281(5) 0.8082(3)
C1 C 0.6018(2) 0.41643(6) 0.6939(4)
C2 C 0.5356(2) 0.37105(7) 0.7927(4)
C3 C 0.5608(2) 0.35539(7) 0.9950(4)
C4 C 0.5050(2) 0.30988(6) 1.1025(3)
C5 C 0.5639(3) 0.29638(8) 1.3022(4)
C6 C 0.5207(3) 0.25344(9) 1.4126(4)
C7 C 0.4170(3) 0.22367(8) 1.3212(5)
C8 C 0.3567(3) 0.23651(9) 1.1243(5)
C9 C 0.3993(2) 0.27997(8) 1.0130(4)
H1 H 0.470(3) 0.3513(7) 0.694(4)
H2 H 0.632(2) 0.3769(7) 1.091(4)
H3 H 0.634(3) 0.3172(8) 1.371(4)
H4 H 0.572(3) 0.243(1) 1.576(5)
H5 H 0.388(3) 0.193(1) 1.401(5)
H6 H 0.272(3) 0.2188(9) 1.057(5)
H7 H 0.354(2) 0.2865(7) 1.0870(4)
N1 N 0.9024(2) 0.50408(5) 0.6814(3)
C10 C 1.0466(2) 0.48095(7) 0.6639(3)
C11 C 1.1530(2) 0.52163(7) 0.6005(4)
C12 C 1.0496(2) 0.43768(6) 0.5022(3)
C13 C 0.9633(2) 0.43453(7) 0.3193(4)
C14 C 0.9771(3) 0.39551(8) 0.1686(4)
C15 C 1.0807(3) 0.35967(7) 0.1984(4)
C16 C 1.1688(3) 0.36256(8) 0.3802(5)
C17 C 1.1526(2) 0.40086(8) 0.5330(4)
H8 H 0.828(3) 0.4778(7) 0.716(5)
H9 H 0.873(2) 0.5237(8) 0.530(4)
H10 H 1.071(2) 0.4683(6) 0.816(3)
H11 H 1.142(3) 0.5495(8) 0.690(5)
H12 H 1.137(2) 0.5337(7) 0.450(4)
H13 H 1.242(2) 0.5078(8) 0.607(3)
H14 H 0.893(2) 0.4590(8) 0.294(4)
H15 H 0.911(2) 0.3944(8) 0.037(4)
H16 H 1.087(3) 0.3336(9) 0.086(4)
H17 H 1.225(3) 0.3358(8) 0.413(4)
H18 H 1.211(2) 0.4030(7) 0.666(4)
loop_
_geom_bond_atom_site_label_1
_geom_bond_atom_site_label_2
_geom_bond_site_symmetry_1
_geom_bond_site_symmetry_2
O1 C1 1_555 1_555
O2 C1 1_555 1_555
C1 C2 1_555 1_555
C2 C3 1_555 1_555
C3 C4 1_555 1_555
C4 C5 1_555 1_555
C5 C6 1_555 1_555
C6 C7 1_555 1_555
C7 C8 1_555 1_555
C8 C9 1_555 1_555
C9 C4 1_555 1_555
H1 C2 1_555 1_555
H2 C3 1_555 1_555
H3 C5 1_555 1_555
H4 C6 1_555 1_555
H5 C7 1_555 1_555
H6 C8 1_555 1_555
H7 C9 1_555 1_555
N1 C10 1_555 1_555
C10 C11 1_555 1_555
C11 H11 1_555 1_555
C12 C10 1_555 1_555
C13 C12 1_555 1_555
C14 C13 1_555 1_555
C15 C14 1_555 1_555
C16 C15 1_555 1_555
C17 C12 1_555 1_555
H8 N1 1_555 1_555
H9 N1 1_555 1_555
H10 C10 1_555 1_555
H12 C11 1_555 1_555
H13 C11 1_555 1_555
H14 C13 1_555 1_555
H15 C14 1_555 1_555
H16 C15 1_555 1_555
H17 C16 1_555 1_555
H18 C17 1_555 1_555
C16 C17 1_555 1_555

#END
