
#######################################################################
#
#                 Cambridge Crystallographic Data Centre
#                                CCDC 
#
#######################################################################
#
# If this CIF has been generated from an entry in the Cambridge 
# Structural Database, then it will include bibliographic, chemical, 
# crystal, experimental, refinement or atomic coordinate data resulting 
# from the CCDC's data processing and validation procedures.
#
#######################################################################

data_FUSPUG
_chemical_formula_moiety         'C19 H19 I1 N4 O4'
_chemical_name_systematic        
(S,E)-1-(2,4-Dinitrophenyl)-2-(2-(iodomethyl)-2-phenylcyclohexylidene)hydrazine
_symmetry_cell_setting           monoclinic
_symmetry_space_group_name_H-M   'P 21'
_symmetry_Int_Tables_number      4
_space_group_name_Hall           'P 2yb'
loop_
_symmetry_equiv_pos_site_id
_symmetry_equiv_pos_as_xyz
1 x,y,z
2 -x,1/2+y,-z
_cell_length_a                   10.310(10)
_cell_length_b                   7.955(8)
_cell_length_c                   11.875(12)
_cell_angle_alpha                90
_cell_angle_beta                 90.15(2)
_cell_angle_gamma                90
_cell_volume                     973.937
_exptl_crystal_colour            yellow
_exptl_crystal_description       prismatic
_cell_formula_units_Z            2
loop_
_atom_site_label
_atom_site_type_symbol
_atom_site_fract_x
_atom_site_fract_y
_atom_site_fract_z
I1 I 0.19636(4) 0.43290(9) 0.51402(4)
N1 N 0.0953(5) 0.9189(11) 0.7268(4)
N2 N 0.0518(6) 1.0568(8) 0.7863(5)
N3 N -0.3951(7) 0.9758(11) 1.0450(5)
N4 N -0.0681(6) 1.3460(8) 0.8926(5)
O1 O -0.4151(11) 0.8355(13) 1.0788(8)
O2 O -0.4593(7) 1.0955(12) 1.0675(5)
O3 O -0.1247(6) 1.4585(8) 0.9423(5)
O4 O 0.0308(6) 1.3736(7) 0.8385(5)
C1 C 0.2132(5) 0.9239(12) 0.6913(4)
C2 C 0.3129(7) 1.0575(10) 0.7185(6)
H1 H 0.2751 1.1425 0.7670
H2 H 0.3418 1.1116 0.6498
C3 C 0.4266(7) 0.9744(11) 0.7773(7)
H3 H 0.4929 1.0576 0.7932
H4 H 0.3982 0.9268 0.8483
C4 C 0.4824(7) 0.8369(11) 0.7037(7)
H5 H 0.5161 0.8858 0.6349
H6 H 0.5536 0.7824 0.7428
C5 C 0.3797(6) 0.7082(10) 0.6750(6)
H7 H 0.3538 0.6515 0.7437
H8 H 0.4175 0.6245 0.6256
C6 C 0.2571(6) 0.7809(8) 0.6176(5)
C7 C 0.1490(6) 0.6497(9) 0.6124(5)
H9 H 0.0718 0.7017 0.5811
H10 H 0.1287 0.6140 0.6885
C8 C 0.2820(6) 0.8478(9) 0.4999(5)
C9 C 0.3893(6) 0.8047(10) 0.4352(6)
H11 H 0.4526 0.7348 0.4658
C10 C 0.4036(7) 0.8632(12) 0.3277(6)
H12 H 0.4760 0.8320 0.2861
C11 C 0.3147(8) 0.9648(13) 0.2817(6)
H13 H 0.3253 1.0030 0.2083
C12 C 0.2078(8) 1.0129(11) 0.3426(6)
H14 H 0.1461 1.0838 0.3107
C13 C 0.1925(5) 0.9554(11) 0.4517(5)
H15 H 0.1209 0.9896 0.4933
C14 C -0.0569(6) 1.0411(9) 0.8481(5)
C15 C -0.1113(7) 0.8827(9) 0.8663(6)
H16 H -0.0723 0.7886 0.8344
C16 C -0.2209(8) 0.8626(11) 0.9300(6)
H17 H -0.2556 0.7561 0.9415
C17 C -0.2788(7) 1.0015(10) 0.9767(5)
C18 C -0.2317(7) 1.1571(10) 0.9628(5)
H18 H -0.2736 1.2491 0.9944
C19 C -0.1183(6) 1.1787(8) 0.8997(5)
H19 H 0.079(6) 1.152(5) 0.773(6)
loop_
_geom_bond_atom_site_label_1
_geom_bond_atom_site_label_2
_geom_bond_site_symmetry_1
_geom_bond_site_symmetry_2
I1 C7 1_555 1_555
N1 N2 1_555 1_555
N2 C14 1_555 1_555
N3 O1 1_555 1_555
N4 O3 1_555 1_555
O2 N3 1_555 1_555
O4 N4 1_555 1_555
C1 N1 1_555 1_555
C2 C1 1_555 1_555
H1 C2 1_555 1_555
H2 C2 1_555 1_555
C3 C2 1_555 1_555
H3 C3 1_555 1_555
H4 C3 1_555 1_555
C4 C3 1_555 1_555
H5 C4 1_555 1_555
H6 C4 1_555 1_555
C5 C4 1_555 1_555
H7 C5 1_555 1_555
H8 C5 1_555 1_555
C6 C1 1_555 1_555
C7 C6 1_555 1_555
H9 C7 1_555 1_555
H10 C7 1_555 1_555
C8 C6 1_555 1_555
C9 C8 1_555 1_555
H11 C9 1_555 1_555
C10 C9 1_555 1_555
H12 C10 1_555 1_555
C11 C10 1_555 1_555
H13 C11 1_555 1_555
C12 C11 1_555 1_555
H14 C12 1_555 1_555
C13 C8 1_555 1_555
H15 C13 1_555 1_555
C14 C15 1_555 1_555
C15 H16 1_555 1_555
C16 C15 1_555 1_555
H17 C16 1_555 1_555
C17 N3 1_555 1_555
C18 C17 1_555 1_555
H18 C18 1_555 1_555
C19 N4 1_555 1_555
H19 N2 1_555 1_555
C5 C6 1_555 1_555
C12 C13 1_555 1_555
C14 C19 1_555 1_555
C16 C17 1_555 1_555
C18 C19 1_555 1_555

#END
