
#######################################################################
#
#                 Cambridge Crystallographic Data Centre
#                                CCDC 
#
#######################################################################
#
# If this CIF has been generated from an entry in the Cambridge 
# Structural Database, then it will include bibliographic, chemical, 
# crystal, experimental, refinement or atomic coordinate data resulting 
# from the CCDC's data processing and validation procedures.
#
#######################################################################

data_FUTCUS
_chemical_compound_source        'soft coral Sarcophyton glaucum Guam'
_chemical_formula_moiety         'C20 H30 O2'
_chemical_name_systematic        (2S,11R,12R)-Isosarcophytoxide
_symmetry_cell_setting           orthorhombic
_symmetry_space_group_name_H-M   'P 21 21 21'
_symmetry_Int_Tables_number      19
_space_group_name_Hall           'P 2ac 2ab'
loop_
_symmetry_equiv_pos_site_id
_symmetry_equiv_pos_as_xyz
1 x,y,z
2 1/2+x,1/2-y,-z
3 -x,1/2+y,1/2-z
4 1/2-x,-y,1/2+z
_cell_length_a                   10.736(5)
_cell_length_b                   17.641(9)
_cell_length_c                   9.862(6)
_cell_angle_alpha                90
_cell_angle_beta                 90
_cell_angle_gamma                90
_cell_volume                     1867.8
_exptl_crystal_colour            colorless
_chemical_melting_point          70-71deg.C
_cell_formula_units_Z            4
loop_
_atom_site_label
_atom_site_type_symbol
_atom_site_fract_x
_atom_site_fract_y
_atom_site_fract_z
C1 C 0.8117(4) -0.1291(2) 1.0441(4)
C2 C 0.9180(4) -0.1257(2) 1.1411(4)
C3 C 1.0334(4) -0.1024(2) 1.1180(4)
C4 C 1.1283(4) -0.1012(2) 1.2295(5)
C5 C 1.1924(4) -0.0240(2) 1.2439(7)
C6 C 1.1040(3) 0.0393(2) 1.2650(4)
C7 C 1.1098(4) 0.1086(2) 1.2137(3)
C8 C 1.0121(5) 0.1662(2) 1.2466(5)
C9 C 0.9454(6) 0.2003(2) 1.1244(6)
C10 C 0.8735(6) 0.1416(2) 1.0422(4)
C11 C 0.7432(5) 0.1248(2) 1.0513(4)
C12 C 0.7041(6) 0.0451(2) 1.0113(4)
C13 C 0.7009(5) -0.0081(2) 1.1326(3)
C14 C 0.6946(3) -0.0913(2) 1.0966(3)
C15 C 0.6064(4) -0.1410(2) 1.1129(3)
C16 C 0.6497(5) -0.2162(3) 1.0723(5)
C17 C 0.4775(6) -0.1276(5) 1.1659(8)
C18 C 1.0782(6) -0.0780(3) 0.9793(6)
C19 C 1.2148(6) 0.1340(3) 1.1229(7)
C20 C 0.6564(6) 0.1673(3) 1.1418(5)
O1 O 0.7733(3) -0.2070(1) 1.0233(3)
O2 O 0.7924(3) 0.1679(1) 0.9374(2)
H1 H 0.836(2) -0.108(1) 0.955(2)
H2 H 0.901(2) -0.141(1) 1.241(3)
H3 H 1.192(2) -0.140(1) 1.211(3)
H4 H 1.081(3) -0.115(1) 1.323(3)
H5 H 1.242(3) -0.025(2) 1.321(4)
H6 H 1.249(3) -0.012(2) 1.150(4)
H7 H 1.034(2) 0.033(1) 1.321(2)
H8 H 1.063(2) 0.208(2) 1.297(3)
H9 H 0.937(3) 0.149(2) 1.297(3)
H10 H 0.882(2) 0.237(1) 1.135(3)
H11 H 1.004(3) 0.222(2) 1.068(3)
H12 H 0.927(2) 0.103(1) 1.013(2)
H13 H 0.761(3) 0.030(2) 0.945(3)
H14 H 0.623(3) 0.045(2) 0.965(4)
H15 H 0.631(2) 0.004(1) 1.195(3)
H16 H 0.783(2) 0.000(1) 1.187(2)
H17 H 0.604(3) -0.237(2) 1.003(4)
H18 H 0.659(3) -0.249(2) 1.163(3)
H19 H 0.461(5) -0.071(2) 1.182(5)
H20 H 0.474(5) -0.158(2) 1.221(5)
H21 H 0.421(4) -0.139(2) 1.100(4)
H22 H 1.080(3) -0.027(2) 0.971(4)
H23 H 1.028(4) -0.097(2) 0.897(4)
H24 H 1.167(4) -0.098(2) 0.964(4)
H25 H 1.167(6) 0.133(3) 1.020(7)
H26 H 1.296(5) 0.112(3) 1.120(6)
H27 H 1.223(4) 0.178(2) 1.140(4)
H28 H 0.650(4) 0.151(2) 1.249(5)
H29 H 0.690(3) 0.212(2) 1.148(4)
H30 H 0.578(8) 0.161(5) 1.120(9)
loop_
_geom_bond_atom_site_label_1
_geom_bond_atom_site_label_2
_geom_bond_site_symmetry_1
_geom_bond_site_symmetry_2
C1 C2 1_555 1_555
C2 C3 1_555 1_555
C3 C4 1_555 1_555
C4 C5 1_555 1_555
C5 C6 1_555 1_555
C6 C7 1_555 1_555
C7 C8 1_555 1_555
C8 C9 1_555 1_555
C9 C10 1_555 1_555
C10 C11 1_555 1_555
C11 C12 1_555 1_555
C12 C13 1_555 1_555
C13 C14 1_555 1_555
C14 C1 1_555 1_555
C15 C14 1_555 1_555
C16 C15 1_555 1_555
C17 C15 1_555 1_555
C18 C3 1_555 1_555
C19 C7 1_555 1_555
C20 C11 1_555 1_555
O1 C1 1_555 1_555
O2 C10 1_555 1_555
H1 C1 1_555 1_555
H2 C2 1_555 1_555
H3 C4 1_555 1_555
H4 C4 1_555 1_555
H5 C5 1_555 1_555
H6 C5 1_555 1_555
H7 C6 1_555 1_555
H8 C8 1_555 1_555
H9 C8 1_555 1_555
H10 C9 1_555 1_555
H11 C9 1_555 1_555
H12 C10 1_555 1_555
H13 C12 1_555 1_555
H14 C12 1_555 1_555
H15 C13 1_555 1_555
H16 C13 1_555 1_555
H17 C16 1_555 1_555
H18 C16 1_555 1_555
H19 C17 1_555 1_555
H20 C17 1_555 1_555
H21 C17 1_555 1_555
H22 C18 1_555 1_555
H23 C18 1_555 1_555
H24 C18 1_555 1_555
H25 C19 1_555 1_555
H26 C19 1_555 1_555
H27 C19 1_555 1_555
H28 C20 1_555 1_555
H29 C20 1_555 1_555
H30 C20 1_555 1_555
C11 O2 1_555 1_555
C16 O1 1_555 1_555

#END
