
#######################################################################
#
#                 Cambridge Crystallographic Data Centre
#                                CCDC 
#
#######################################################################
#
# If this CIF has been generated from an entry in the Cambridge 
# Structural Database, then it will include bibliographic, chemical, 
# crystal, experimental, refinement or atomic coordinate data resulting 
# from the CCDC's data processing and validation procedures.
#
#######################################################################

data_FUVCUW
_chemical_formula_moiety         'C45 H57 N1 O14,C3 H7 N1 O1'
_chemical_name_systematic        'Cabazitaxel N,N-dimethylformamide solvate'
_chemical_properties_biological  'Cabazitaxel is an anticancer drug'
_symmetry_cell_setting           monoclinic
_symmetry_space_group_name_H-M   'P 21'
_symmetry_Int_Tables_number      4
_space_group_name_Hall           'P 2yb'
loop_
_symmetry_equiv_pos_site_id
_symmetry_equiv_pos_as_xyz
1 x,y,z
2 -x,1/2+y,-z
_cell_length_a                   11.951(5)
_cell_length_b                   17.393(6)
_cell_length_c                   12.509(5)
_cell_angle_alpha                90
_cell_angle_beta                 108.649(7)
_cell_angle_gamma                90
_cell_volume                     2463.65
_exptl_crystal_colour            colorless
_exptl_crystal_description       Prism
_cell_formula_units_Z            2
_chemical_properties_physical    Heat-sensitive
_exptl_crystal_recrystallization_method dimethylformamide
loop_
_atom_site_label
_atom_site_type_symbol
_atom_site_fract_x
_atom_site_fract_y
_atom_site_fract_z
N1 N 0.6718(2) 0.24374(13) 0.05598(19)
H1 H 0.6587 0.2462 -0.0157
O1 O 0.49687(14) -0.00523(8) 0.42306(14)
H2 H 0.4610 -0.0338 0.4530
O2 O 0.3843(10) 0.1984(4) 0.0383(4)
O3 O 0.63851(12) 0.08923(8) 0.57063(13)
O4 O 0.45665(19) 0.33065(13) -0.03132(16)
H3 H 0.3844 0.3298 -0.0491
O5 O 0.68224(12) 0.24060(9) 0.56398(13)
O6 O 0.7409(2) 0.17006(13) 0.21140(17)
O7 O 0.68126(17) 0.25360(11) 0.81552(14)
O8 O 0.7420(2) 0.12957(11) 0.03873(18)
O9 O 0.28789(17) 0.31167(10) 0.66553(17)
O10 O 0.21203(17) 0.14924(12) 0.61994(18)
O11 O 0.09662(14) 0.16937(12) 0.40218(19)
O12 O 0.47712(14) 0.22820(10) 0.22046(13)
O13 O 0.63709(16) -0.01560(11) 0.67644(17)
O14 O 0.57227(17) 0.34408(10) 0.49067(16)
C1 C 0.45575(18) 0.07226(12) 0.42425(19)
C2 C 0.4539(3) 0.23840(17) 0.1095(2)
C3 C 0.51352(17) 0.10201(12) 0.54796(18)
H4 H 0.4863 0.0698 0.5990
C4 C 0.5058(3) 0.31283(16) 0.0839(2)
H5 H 0.4867 0.3542 0.1284
C5 C 0.49590(17) 0.18832(11) 0.57361(17)
H6 H 0.4679 0.2144 0.5004
C6 C 0.6403(3) 0.30840(15) 0.1123(2)
H7 H 0.6739 0.2994 0.1936
C7 C 0.61440(18) 0.22665(12) 0.63976(18)
C8 C 0.7206(2) 0.18007(15) 0.1112(2)
C9 C 0.6143(2) 0.29733(14) 0.71554(19)
H8 H 0.6635 0.3384 0.7007
C10 C 0.7725(4) 0.0497(2) 0.0716(3)
C11 C 0.5007(2) 0.33017(14) 0.7222(2)
H9 H 0.4994 0.3850 0.7079
H10 H 0.4973 0.3229 0.7979
C12 C 0.809(3) 0.0225(17) -0.0281(16)
H11 H 0.8799 0.0481 -0.0276
H12 H 0.7469 0.0341 -0.0971
H13 H 0.8218 -0.0320 -0.0227
C13 C 0.8760(14) 0.0392(9) 0.1743(13)
H14 H 0.9457 0.0579 0.1604
H15 H 0.8854 -0.0144 0.1933
H16 H 0.8640 0.0674 0.2357
C14 C 0.6594(15) 0.0169(10) 0.089(2)
H17 H 0.5911 0.0378 0.0335
H18 H 0.6579 0.0307 0.1633
H19 H 0.6590 -0.0381 0.0825
C15 C 0.3918(2) 0.29339(13) 0.6381(2)
H20 H 0.3829 0.3137 0.5628
C16 C 0.6915(2) 0.38364(16) 0.0862(2)
C17 C 0.39987(19) 0.20405(12) 0.63400(19)
C18 C 0.7676(3) 0.38568(19) 0.0248(3)
H21 H 0.7890 0.3400 -0.0022
C19 C 0.2715(2) 0.17769(13) 0.5689(2)
C20 C 0.8135(4) 0.4548(2) 0.0021(3)
H22 H 0.8666 0.4548 -0.0383
C21 C 0.21555(18) 0.19433(14) 0.4421(2)
H23 H 0.2157 0.2502 0.4320
C22 C 0.7817(4) 0.5221(2) 0.0382(3)
H24 H 0.8094 0.5685 0.0197
C23 C 0.0130(3) 0.2216(3) 0.4181(6)
H25 H -0.0646 0.1998 0.3888
H26 H 0.0162 0.2687 0.3793
H27 H 0.0306 0.2318 0.4972
C24 C 0.28451(17) 0.15920(13) 0.37235(19)
C25 C 0.7086(4) 0.5206(2) 0.1019(5)
H28 H 0.6885 0.5663 0.1299
C26 C 0.32486(19) 0.20267(14) 0.3044(2)
C27 C 0.6645(3) 0.45281(19) 0.1252(4)
H29 H 0.6144 0.4533 0.1689
C28 C 0.4134(2) 0.16724(14) 0.2554(2)
H30 H 0.3714 0.1360 0.1896
C29 C 0.5031(2) 0.11703(13) 0.3412(2)
H31 H 0.5676 0.1495 0.3846
H32 H 0.5353 0.0803 0.3004
C30 C 0.31883(18) 0.07342(13) 0.3870(2)
C31 C 0.2718(2) 0.02820(14) 0.4691(2)
H33 H 0.3012 0.0508 0.5429
H34 H 0.2979 -0.0242 0.4725
H35 H 0.1871 0.0297 0.4434
C32 C 0.2655(2) 0.03078(16) 0.2730(2)
H36 H 0.1818 0.0394 0.2451
H37 H 0.2808 -0.0233 0.2840
H38 H 0.3009 0.0499 0.2194
C33 C 0.2910(3) 0.28494(17) 0.2733(3)
H39 H 0.2348 0.3013 0.3089
H40 H 0.2565 0.2892 0.1929
H41 H 0.3600 0.3168 0.2983
C34 C 0.4318(2) 0.16872(14) 0.7524(2)
H42 H 0.3709 0.1803 0.7846
H43 H 0.5054 0.1898 0.7992
H44 H 0.4392 0.1140 0.7473
C35 C 0.6943(2) 0.18943(14) 0.7466(2)
H45 H 0.6630 0.1416 0.7652
H46 H 0.7747 0.1824 0.7463
C36 C 0.68629(19) 0.02496(12) 0.6276(2)
C37 C 0.80857(19) 0.01380(13) 0.6250(2)
C38 C 0.8507(2) 0.05139(16) 0.5482(3)
H47 H 0.8023 0.0859 0.4974
C39 C 0.9646(3) 0.0380(2) 0.5464(3)
H48 H 0.9924 0.0631 0.4943
C40 C 1.0364(2) -0.0132(2) 0.6229(4)
H49 H 1.1130 -0.0221 0.6224
C41 C 0.9956(3) -0.0505(2) 0.6986(3)
H50 H 1.0447 -0.0847 0.7494
C42 C 0.8812(2) -0.03803(16) 0.7009(3)
H51 H 0.8537 -0.0640 0.7525
C43 C 0.6546(2) 0.30225(13) 0.49626(19)
C44 C 0.7385(3) 0.31177(19) 0.4318(3)
H52 H 0.7170 0.3563 0.3843
H53 H 0.7358 0.2670 0.3861
H54 H 0.8170 0.3182 0.4834
C45 C 0.2406(4) 0.38542(19) 0.6275(4)
H55 H 0.1710 0.3939 0.6486
H56 H 0.2205 0.3881 0.5469
H57 H 0.2982 0.4242 0.6615
N2 N 0.0639(4) 0.2479(3) -0.1576(5)
O16 O 0.2180(3) 0.3251(2) -0.0687(4)
C50 C 0.1742(4) 0.2720(3) -0.1334(5)
H70 H 0.2222 0.2468 -0.1680
C51 C 0.0253(5) 0.1844(4) -0.2308(6)
H71 H 0.0873 0.1469 -0.2158
H72 H 0.0054 0.2014 -0.3076
H73 H -0.0429 0.1619 -0.2186
C52 C 0.0030(12) 0.2632(15) -0.0721(15)
H74 H 0.0354 0.2304 -0.0079
H75 H -0.0799 0.2531 -0.1049
H76 H 0.0145 0.3160 -0.0487
O15? O 0.444(2) 0.1829(10) 0.0550(18)
C46? C 0.751(3) 0.0097(10) -0.0414(11)
H58? H 0.8138 0.0222 -0.0709
H59? H 0.6772 0.0265 -0.0933
H60? H 0.7489 -0.0450 -0.0312
C47? C 0.9024(15) 0.056(2) 0.142(3)
H61? H 0.9455 0.0794 0.0972
H62? H 0.9337 0.0062 0.1659
H63? H 0.9098 0.0879 0.2068
C48? C 0.691(3) 0.0139(16) 0.129(3)
H64? H 0.7371 -0.0151 0.1934
H65? H 0.6361 -0.0195 0.0770
H66? H 0.6489 0.0538 0.1529
C49? C 0.0230(14) 0.2118(15) 0.316(2)
H67? H -0.0550 0.1902 0.2949
H68? H 0.0516 0.2112 0.2529
H69? H 0.0207 0.2638 0.3413
C53? C -0.0305(11) 0.3119(11) -0.176(3)
H77? H -0.0438 0.3348 -0.2491
H78? H -0.0033 0.3505 -0.1189
H79? H -0.1029 0.2901 -0.1724
loop_
_geom_bond_atom_site_label_1
_geom_bond_atom_site_label_2
_geom_bond_site_symmetry_1
_geom_bond_site_symmetry_2
N1 H1 1_555 1_555
O1 H2 1_555 1_555
O2 C2 1_555 1_555
O3 C3 1_555 1_555
O4 H3 1_555 1_555
O5 C7 1_555 1_555
O6 C8 1_555 1_555
O7 C9 1_555 1_555
O8 C8 1_555 1_555
O9 C15 1_555 1_555
O10 C19 1_555 1_555
O11 C21 1_555 1_555
O12 C2 1_555 1_555
O13 C36 1_555 1_555
O14 C43 1_555 1_555
C1 O1 1_555 1_555
C2 C4 1_555 1_555
C3 C1 1_555 1_555
H4 C3 1_555 1_555
C4 O4 1_555 1_555
H5 C4 1_555 1_555
C5 C3 1_555 1_555
H6 C5 1_555 1_555
C6 N1 1_555 1_555
H7 C6 1_555 1_555
C7 C5 1_555 1_555
C8 N1 1_555 1_555
C9 C7 1_555 1_555
H8 C9 1_555 1_555
C10 O8 1_555 1_555
C11 C9 1_555 1_555
H9 C11 1_555 1_555
H10 C11 1_555 1_555
C12 C10 1_555 1_555
H11 C12 1_555 1_555
H12 C12 1_555 1_555
H13 C12 1_555 1_555
C13 C10 1_555 1_555
H14 C13 1_555 1_555
H15 C13 1_555 1_555
H16 C13 1_555 1_555
C14 C10 1_555 1_555
H17 C14 1_555 1_555
H18 C14 1_555 1_555
H19 C14 1_555 1_555
C15 C11 1_555 1_555
H20 C15 1_555 1_555
C16 C6 1_555 1_555
C17 C5 1_555 1_555
C18 C16 1_555 1_555
H21 C18 1_555 1_555
C19 C17 1_555 1_555
C20 C18 1_555 1_555
H22 C20 1_555 1_555
C21 C19 1_555 1_555
H23 C21 1_555 1_555
C22 C20 1_555 1_555
H24 C22 1_555 1_555
C23 O11 1_555 1_555
H25 C23 1_555 1_555
H26 C23 1_555 1_555
H27 C23 1_555 1_555
C24 C21 1_555 1_555
C25 C22 1_555 1_555
H28 C25 1_555 1_555
C26 C24 1_555 1_555
C27 C16 1_555 1_555
H29 C27 1_555 1_555
C28 O12 1_555 1_555
H30 C28 1_555 1_555
C29 C1 1_555 1_555
H31 C29 1_555 1_555
H32 C29 1_555 1_555
C30 C1 1_555 1_555
C31 C30 1_555 1_555
H33 C31 1_555 1_555
H34 C31 1_555 1_555
H35 C31 1_555 1_555
C32 C30 1_555 1_555
H36 C32 1_555 1_555
H37 C32 1_555 1_555
H38 C32 1_555 1_555
C33 C26 1_555 1_555
H39 C33 1_555 1_555
H40 C33 1_555 1_555
H41 C33 1_555 1_555
C34 C17 1_555 1_555
H42 C34 1_555 1_555
H43 C34 1_555 1_555
H44 C34 1_555 1_555
C35 O7 1_555 1_555
H45 C35 1_555 1_555
H46 C35 1_555 1_555
C36 O3 1_555 1_555
C37 C36 1_555 1_555
C38 C37 1_555 1_555
H47 C38 1_555 1_555
C39 C38 1_555 1_555
H48 C39 1_555 1_555
C40 C39 1_555 1_555
H49 C40 1_555 1_555
C41 C40 1_555 1_555
H50 C41 1_555 1_555
C42 C37 1_555 1_555
H51 C42 1_555 1_555
C43 O5 1_555 1_555
C44 C43 1_555 1_555
H52 C44 1_555 1_555
H53 C44 1_555 1_555
H54 C44 1_555 1_555
C45 O9 1_555 1_555
H55 C45 1_555 1_555
H56 C45 1_555 1_555
H57 C45 1_555 1_555
N2 C50 1_555 1_555
O16 C50 1_555 1_555
C50 H70 1_555 1_555
C51 N2 1_555 1_555
H71 C51 1_555 1_555
H72 C51 1_555 1_555
H73 C51 1_555 1_555
C52 N2 1_555 1_555
H74 C52 1_555 1_555
H75 C52 1_555 1_555
H76 C52 1_555 1_555
C4 C6 1_555 1_555
C7 C35 1_555 1_555
C15 C17 1_555 1_555
C24 C30 1_555 1_555
C25 C27 1_555 1_555
C26 C28 1_555 1_555
C28 C29 1_555 1_555
C41 C42 1_555 1_555

#END
