
#######################################################################
#
#                 Cambridge Crystallographic Data Centre
#                                CCDC 
#
#######################################################################
#
# If this CIF has been generated from an entry in the Cambridge 
# Structural Database, then it will include bibliographic, chemical, 
# crystal, experimental, refinement or atomic coordinate data resulting 
# from the CCDC's data processing and validation procedures.
#
#######################################################################

data_FUVQUK
_chemical_formula_moiety         'C40 H37 N3 O4,0.25(C2 H3 N1)'
_chemical_name_systematic        
'Methyl 6,13-di-t-butyl-10-(diphenylamino)[1,4]benzoxazino[2,3-b]phenoxazine-3-carboxylate acetonitrile solvate'
_symmetry_cell_setting           monoclinic
_symmetry_space_group_name_H-M   'C 2/c'
_symmetry_Int_Tables_number      15
_space_group_name_Hall           '-C 2yn'
loop_
_symmetry_equiv_pos_site_id
_symmetry_equiv_pos_as_xyz
1 x,y,z
2 -x,y,1/2-z
3 1/2+x,1/2+y,z
4 1/2-x,1/2+y,1/2-z
5 -x,-y,-z
6 x,-y,1/2+z
7 1/2-x,1/2-y,-z
8 1/2+x,1/2-y,1/2+z
_cell_length_a                   54.517(5)
_cell_length_b                   20.357(2)
_cell_length_c                   12.0339(11)
_cell_angle_alpha                90
_cell_angle_beta                 90.704(5)
_cell_angle_gamma                90
_cell_volume                     13354.2
_exptl_crystal_colour            purple
_exptl_crystal_description       'little plate'
_cell_formula_units_Z            16
loop_
_atom_site_label
_atom_site_type_symbol
_atom_site_fract_x
_atom_site_fract_y
_atom_site_fract_z
C1 C 0.04310(9) 0.1725(2) 0.9711(3)
H1 H 0.0516 0.1967 1.0284
H2 H 0.0419 0.1272 0.9925
H3 H 0.0269 0.1904 0.9604
C2 C 0.26304(10) 0.1442(3) -0.0772(5)
H4 H 0.2779 0.1605 -0.0502
C3 C 0.06268(7) 0.2379(2) 0.8344(3)
C4 C 0.07763(6) 0.23672(18) 0.7335(3)
C5 C 0.08835(6) 0.29481(18) 0.6980(3)
H5 H 0.0844 0.3342 0.7328
C6 C 0.10480(6) 0.29470(17) 0.6118(3)
H6 H 0.1119 0.3338 0.5888
C7 C 0.11078(6) 0.23579(17) 0.5592(3)
C8 C 0.13528(6) 0.17706(17) 0.4381(2)
C9 C 0.15624(6) 0.17442(16) 0.3655(2)
C10 C 0.15899(6) 0.11657(17) 0.3103(3)
C11 C 0.18117(6) 0.05624(17) 0.1734(3)
C12 C 0.19971(6) 0.05733(18) 0.0982(3)
H7 H 0.2092 0.0948 0.0887
C13 C 0.20401(6) 0.00053(18) 0.0358(3)
C14 C 0.18925(6) -0.05437(17) 0.0532(3)
H8 H 0.1918 -0.0920 0.0110
C15 C 0.17115(6) -0.05436(17) 0.1306(3)
H9 H 0.1618 -0.0920 0.1413
C16 C 0.16659(6) 0.00210(17) 0.1943(3)
C17 C 0.14404(6) 0.05757(17) 0.3271(3)
C18 C 0.12473(6) 0.05824(16) 0.4093(3)
C19 C 0.12143(6) 0.11697(17) 0.4603(3)
C20 C 0.09866(6) 0.17964(17) 0.5922(3)
C21 C 0.08258(6) 0.17787(18) 0.6783(3)
H10 H 0.0752 0.1388 0.6995
C22 C 0.10974(7) -0.00490(18) 0.4309(3)
C23 C 0.09699(7) -0.0278(2) 0.3240(3)
H11 H 0.0861 -0.0635 0.3404
H12 H 0.1091 -0.0423 0.2721
H13 H 0.0878 0.0079 0.2922
C24 C 0.08984(10) 0.0004(2) 0.5179(4)
H14 H 0.0777 0.0315 0.4937
H15 H 0.0970 0.0147 0.5871
H16 H 0.0823 -0.0418 0.5278
C25 C 0.12737(9) -0.0590(2) 0.4734(4)
H17 H 0.1187 -0.0999 0.4780
H18 H 0.1336 -0.0472 0.5457
H19 H 0.1408 -0.0634 0.4229
C26 C 0.17318(6) 0.23501(16) 0.3565(3)
C27 C 0.18197(7) 0.25574(17) 0.4740(3)
H20 H 0.1926 0.2931 0.4685
H21 H 0.1907 0.2200 0.5084
H22 H 0.1680 0.2670 0.5182
C28 C 0.19679(6) 0.22527(18) 0.2907(3)
H23 H 0.1927 0.2168 0.2141
H24 H 0.2058 0.1887 0.3207
H25 H 0.2067 0.2642 0.2958
C29 C 0.15917(7) 0.29185(17) 0.3007(3)
H26 H 0.1542 0.2791 0.2270
H27 H 0.1696 0.3297 0.2969
H28 H 0.1449 0.3022 0.3435
C30 C 0.23631(6) -0.05763(17) -0.0695(3)
C31 C 0.24556(6) -0.06580(18) -0.1745(3)
H29 H 0.2421 -0.0346 -0.2290
C32 C 0.25982(7) -0.11949(19) -0.2002(3)
H30 H 0.2661 -0.1239 -0.2713
C33 C 0.26484(7) -0.16675(19) -0.1210(3)
H31 H 0.2744 -0.2031 -0.1381
C34 C 0.25545(6) -0.15910(18) -0.0159(3)
H32 H 0.2587 -0.1909 0.0378
C35 C 0.24144(6) -0.10544(18) 0.0109(3)
H33 H 0.2354 -0.1009 0.0824
C36 C 0.23236(7) 0.06124(17) -0.0814(3)
C37 C 0.25431(8) 0.0838(2) -0.0401(3)
H34 H 0.2632 0.0593 0.0117
C38 C 0.24950(15) 0.1798(3) -0.1544(6)
H35 H 0.2550 0.2207 -0.1778
C39 C 0.22815(13) 0.1548(3) -0.1960(4)
H36 H 0.2194 0.1780 -0.2500
C40 C 0.21944(8) 0.0965(2) -0.1595(3)
H37 H 0.2047 0.0802 -0.1876
N1 N 0.12923(5) 0.23404(14) 0.4821(2)
N2 N 0.22265(5) -0.00037(14) -0.0431(2)
N3 N 0.14821(5) 0.00311(14) 0.2712(2)
O1 O 0.05654(5) 0.17741(14) 0.8686(2)
O2 O 0.05659(5) 0.28621(14) 0.8845(2)
O3 O 0.17721(4) 0.11276(11) 0.23256(19)
O4 O 0.10391(4) 0.12078(11) 0.54101(19)
C41 C 0.0000 0.1795(6) 0.7500
C42 C 0.0000 0.2497(5) 0.7500
N4 N 0.0000 0.1237(5) 0.7500
C43 C 0.29040(7) 0.05430(19) 0.6966(3)
H38 H 0.2753 0.0318 0.6805
H39 H 0.2870 0.0984 0.7202
H40 H 0.2991 0.0315 0.7546
C44 C 0.31251(6) -0.0016(2) 0.5587(3)
C45 C 0.32752(6) 0.00378(18) 0.4587(3)
C46 C 0.33145(6) 0.06423(17) 0.4064(3)
H41 H 0.3243 0.1025 0.4331
C47 C 0.34608(6) 0.06543(16) 0.3153(3)
C48 C 0.36278(6) 0.12900(16) 0.1678(2)
C49 C 0.36013(6) 0.18336(16) 0.1031(3)
C50 C 0.37864(6) 0.18930(17) 0.0183(3)
C51 C 0.39783(6) 0.25208(17) -0.1173(3)
C52 C 0.39942(6) 0.30966(17) -0.1793(3)
H42 H 0.3879 0.3428 -0.1695
C53 C 0.41783(6) 0.31792(18) -0.2546(3)
H43 H 0.4185 0.3564 -0.2961
C54 C 0.43580(6) 0.26911(18) -0.2703(3)
C55 C 0.43330(6) 0.21012(17) -0.2131(3)
H44 H 0.4443 0.1759 -0.2247
C56 C 0.41456(6) 0.20299(17) -0.1395(3)
C57 C 0.39649(6) 0.13714(16) 0.0020(2)
C58 C 0.39807(6) 0.08069(16) 0.0628(3)
C59 C 0.37862(6) 0.07371(17) 0.1433(2)
C60 C 0.35821(6) 0.01153(16) 0.2750(3)
C61 C 0.35384(6) -0.04884(17) 0.3265(3)
H45 H 0.3612 -0.0868 0.2997
C62 C 0.33869(6) -0.05224(18) 0.4165(3)
H46 H 0.3358 -0.0927 0.4498
C63 C 0.41759(6) 0.02660(16) 0.0522(3)
C64 C 0.44025(6) 0.04621(18) -0.0156(3)
H47 H 0.4524 0.0121 -0.0105
H48 H 0.4470 0.0864 0.0134
H49 H 0.4355 0.0524 -0.0920
C65 C 0.42816(7) 0.00831(19) 0.1678(3)
H50 H 0.4153 -0.0091 0.2130
H51 H 0.4349 0.0468 0.2026
H52 H 0.4408 -0.0241 0.1596
C66 C 0.40594(7) -0.03410(17) -0.0030(3)
H53 H 0.3924 -0.0491 0.0408
H54 H 0.4180 -0.0684 -0.0082
H55 H 0.4001 -0.0228 -0.0762
C67 C 0.34038(6) 0.23708(16) 0.1213(3)
C68 C 0.32889(6) 0.25941(19) 0.0111(3)
H56 H 0.3158 0.2897 0.0253
H57 H 0.3225 0.2220 -0.0282
H58 H 0.3411 0.2806 -0.0330
C69 C 0.35204(8) 0.2953(2) 0.1801(4)
H59 H 0.3659 0.3103 0.1386
H60 H 0.3574 0.2823 0.2532
H61 H 0.3402 0.3301 0.1859
C70 C 0.31832(8) 0.2125(2) 0.1885(4)
H62 H 0.3046 0.2415 0.1765
H63 H 0.3226 0.2119 0.2661
H64 H 0.3140 0.1690 0.1646
C71 C 0.46788(7) 0.22893(18) -0.3973(3)
C72 C 0.45458(7) 0.18493(19) -0.4607(3)
H65 H 0.4376 0.1875 -0.4646
C73 C 0.46693(8) 0.1370(2) -0.5182(4)
H66 H 0.4580 0.1068 -0.5604
C74 C 0.49204(9) 0.1325(2) -0.5150(4)
H67 H 0.5000 0.0996 -0.5541
C75 C 0.50536(8) 0.1774(2) -0.4531(4)
H68 H 0.5224 0.1755 -0.4513
C76 C 0.49320(7) 0.2255(2) -0.3936(3)
H69 H 0.5021 0.2555 -0.3510
C77 C 0.46292(7) 0.34662(19) -0.3655(3)
C78 C 0.46561(7) 0.3929(2) -0.2828(3)
H70 H 0.4634 0.3812 -0.2089
C79 C 0.47161(8) 0.4570(2) -0.3099(5)
H71 H 0.4729 0.4886 -0.2542
C80 C 0.47558(9) 0.4740(2) -0.4178(6)
H72 H 0.4796 0.5172 -0.4356
C81 C 0.47373(9) 0.4278(3) -0.4999(5)
H73 H 0.4769 0.4394 -0.5731
C82 C 0.46711(7) 0.3641(2) -0.4745(3)
H74 H 0.4655 0.3330 -0.5307
N5 N 0.37972(5) 0.24452(14) -0.0393(2)
N6 N 0.45562(5) 0.28100(14) -0.3405(2)
N7 N 0.37539(5) 0.01621(13) 0.1919(2)
O5 O 0.30520(4) 0.05607(12) 0.59789(18)
O6 O 0.30691(5) -0.05332(13) 0.6013(2)
O7 O 0.34956(4) 0.12551(11) 0.26440(17)
O8 O 0.41295(4) 0.14467(11) -0.08289(17)
H75? H 0.0159 0.2654 0.7292
H76? H -0.0121 0.2654 0.6978
H77? H -0.0038 0.2654 0.8230
loop_
_geom_bond_atom_site_label_1
_geom_bond_atom_site_label_2
_geom_bond_site_symmetry_1
_geom_bond_site_symmetry_2
C1 H1 1_555 1_555
H2 C1 1_555 1_555
H3 C1 1_555 1_555
C2 H4 1_555 1_555
C3 C4 1_555 1_555
C4 C5 1_555 1_555
C5 H5 1_555 1_555
C6 C5 1_555 1_555
H6 C6 1_555 1_555
C7 C6 1_555 1_555
C8 C9 1_555 1_555
C9 C10 1_555 1_555
C10 C17 1_555 1_555
C11 C12 1_555 1_555
C12 H7 1_555 1_555
C13 C12 1_555 1_555
C14 C13 1_555 1_555
H8 C14 1_555 1_555
C15 C14 1_555 1_555
H9 C15 1_555 1_555
C16 C11 1_555 1_555
C17 C18 1_555 1_555
C18 C19 1_555 1_555
C19 C8 1_555 1_555
C20 C7 1_555 1_555
C21 C4 1_555 1_555
H10 C21 1_555 1_555
C22 C18 1_555 1_555
C23 C22 1_555 1_555
H11 C23 1_555 1_555
H12 C23 1_555 1_555
H13 C23 1_555 1_555
C24 C22 1_555 1_555
H14 C24 1_555 1_555
H15 C24 1_555 1_555
H16 C24 1_555 1_555
C25 C22 1_555 1_555
H17 C25 1_555 1_555
H18 C25 1_555 1_555
H19 C25 1_555 1_555
C26 C9 1_555 1_555
C27 C26 1_555 1_555
H20 C27 1_555 1_555
H21 C27 1_555 1_555
H22 C27 1_555 1_555
C28 C26 1_555 1_555
H23 C28 1_555 1_555
H24 C28 1_555 1_555
H25 C28 1_555 1_555
C29 C26 1_555 1_555
H26 C29 1_555 1_555
H27 C29 1_555 1_555
H28 C29 1_555 1_555
C30 C31 1_555 1_555
C31 H29 1_555 1_555
C32 C31 1_555 1_555
H30 C32 1_555 1_555
C33 C32 1_555 1_555
H31 C33 1_555 1_555
C34 C33 1_555 1_555
H32 C34 1_555 1_555
C35 C30 1_555 1_555
H33 C35 1_555 1_555
C36 C37 1_555 1_555
C37 C2 1_555 1_555
H34 C37 1_555 1_555
C38 C2 1_555 1_555
H35 C38 1_555 1_555
C39 C38 1_555 1_555
H36 C39 1_555 1_555
C40 C36 1_555 1_555
H37 C40 1_555 1_555
N1 C7 1_555 1_555
N2 C13 1_555 1_555
N3 C16 1_555 1_555
O1 C1 1_555 1_555
O2 C3 1_555 1_555
O3 C10 1_555 1_555
O4 C19 1_555 1_555
C41 C42 1_555 1_555
N4 C41 1_555 1_555
C43 H38 1_555 1_555
H39 C43 1_555 1_555
H40 C43 1_555 1_555
C44 C45 1_555 1_555
C45 C46 1_555 1_555
C46 H41 1_555 1_555
C47 C46 1_555 1_555
C48 C49 1_555 1_555
C49 C50 1_555 1_555
C50 C57 1_555 1_555
C51 C52 1_555 1_555
C52 H42 1_555 1_555
C53 C52 1_555 1_555
H43 C53 1_555 1_555
C54 C53 1_555 1_555
C55 C54 1_555 1_555
H44 C55 1_555 1_555
C56 C51 1_555 1_555
C57 C58 1_555 1_555
C58 C59 1_555 1_555
C59 C48 1_555 1_555
C60 C47 1_555 1_555
C61 C60 1_555 1_555
H45 C61 1_555 1_555
C62 C45 1_555 1_555
H46 C62 1_555 1_555
C63 C58 1_555 1_555
C64 C63 1_555 1_555
H47 C64 1_555 1_555
H48 C64 1_555 1_555
H49 C64 1_555 1_555
C65 C63 1_555 1_555
H50 C65 1_555 1_555
H51 C65 1_555 1_555
H52 C65 1_555 1_555
C66 C63 1_555 1_555
H53 C66 1_555 1_555
H54 C66 1_555 1_555
H55 C66 1_555 1_555
C67 C49 1_555 1_555
C68 C67 1_555 1_555
H56 C68 1_555 1_555
H57 C68 1_555 1_555
H58 C68 1_555 1_555
C69 C67 1_555 1_555
H59 C69 1_555 1_555
H60 C69 1_555 1_555
H61 C69 1_555 1_555
C70 C67 1_555 1_555
H62 C70 1_555 1_555
H63 C70 1_555 1_555
H64 C70 1_555 1_555
C71 C72 1_555 1_555
C72 H65 1_555 1_555
C73 C72 1_555 1_555
H66 C73 1_555 1_555
C74 C73 1_555 1_555
H67 C74 1_555 1_555
C75 C74 1_555 1_555
H68 C75 1_555 1_555
C76 C71 1_555 1_555
H69 C76 1_555 1_555
C77 C78 1_555 1_555
C78 H70 1_555 1_555
C79 C78 1_555 1_555
H71 C79 1_555 1_555
C80 C79 1_555 1_555
H72 C80 1_555 1_555
C81 C80 1_555 1_555
H73 C81 1_555 1_555
C82 C77 1_555 1_555
H74 C82 1_555 1_555
N5 C50 1_555 1_555
N6 C54 1_555 1_555
N7 C59 1_555 1_555
O5 C43 1_555 1_555
O6 C44 1_555 1_555
O7 C47 1_555 1_555
O8 C56 1_555 1_555
C3 O1 1_555 1_555
C8 N1 1_555 1_555
C11 O3 1_555 1_555
C15 C16 1_555 1_555
C17 N3 1_555 1_555
C20 C21 1_555 1_555
C20 O4 1_555 1_555
C30 N2 1_555 1_555
C34 C35 1_555 1_555
C36 N2 1_555 1_555
C39 C40 1_555 1_555
C44 O5 1_555 1_555
C48 O7 1_555 1_555
C51 N5 1_555 1_555
C55 C56 1_555 1_555
C57 O8 1_555 1_555
C60 N7 1_555 1_555
C61 C62 1_555 1_555
C71 N6 1_555 1_555
C75 C76 1_555 1_555
C77 N6 1_555 1_555
C81 C82 1_555 1_555

#END
