
#######################################################################
#
#                 Cambridge Crystallographic Data Centre
#                                CCDC 
#
#######################################################################
#
# If this CIF has been generated from an entry in the Cambridge 
# Structural Database, then it will include bibliographic, chemical, 
# crystal, experimental, refinement or atomic coordinate data resulting 
# from the CCDC's data processing and validation procedures.
#
#######################################################################

data_FUWCEH
_chemical_name_common            
'(1)-(octamethoxy-butoxy-(4-(5-chloro-2-hydroxybenzylideneamino)butylaminocarbonylmethoxy)pillar(5)arene) rotaxane'
_chemical_formula_moiety         'C60 H69 Cl1 N2 O12'
_chemical_name_systematic        
'(1)-(2-((34-butoxy-9,14,19,24,26,28,30,32-octamethoxyhexacyclo[21.2.2.2^3,6^.2^8,11^.2^13,16^.2^18,21^]pentatriaconta-1(25),3,5,8,10,13,15,18,20,23,26,28,30,32,34-pentadecaen-4-yl)oxy)-N-(4-((5-chloro-2-hydroxybenzylidene)amino)butyl)acetamide) rotaxane'
_symmetry_cell_setting           triclinic
_symmetry_space_group_name_H-M   'P -1'
_symmetry_Int_Tables_number      2
_space_group_name_Hall           '-P 1'
loop_
_symmetry_equiv_pos_site_id
_symmetry_equiv_pos_as_xyz
1 x,y,z
2 -x,-y,-z
_cell_length_a                   12.756(4)
_cell_length_b                   13.236(6)
_cell_length_c                   18.619(6)
_cell_angle_alpha                88.097(7)
_cell_angle_beta                 86.188(5)
_cell_angle_gamma                61.352(4)
_cell_volume                     2752.66
_exptl_crystal_colour            yellow
_exptl_crystal_description       block
_cell_formula_units_Z            2
loop_
_atom_site_label
_atom_site_type_symbol
_atom_site_fract_x
_atom_site_fract_y
_atom_site_fract_z
C1 C 0.7849(4) 0.4837(3) 0.01117(17)
H1 H 0.7566 0.5147 -0.0358
H2 H 0.8496 0.4057 0.0043
C2 C 0.8339(3) 0.5552(3) 0.04303(16)
C3 C 0.7862(3) 0.6727(3) 0.02850(17)
C4 C 0.8333(4) 0.7361(3) 0.05784(18)
H3 H 0.8010 0.8140 0.0468
C5 C 0.9276(3) 0.6864(4) 0.10339(17)
C6 C 0.9745(3) 0.5707(4) 0.11817(18)
C7 C 0.9288(3) 0.5058(3) 0.08786(18)
H4 H 0.9628 0.4275 0.0980
C8 C 0.6401(5) 0.8368(5) -0.0325(3)
H5 H 0.6097 0.8804 0.0112
H6 H 0.5756 0.8568 -0.0634
H7 H 0.6988 0.8538 -0.0564
C9 C 1.1195(5) 0.4075(5) 0.1811(3)
H8 H 1.0591 0.3923 0.2044
H9 H 1.1825 0.3882 0.2130
H10 H 1.1516 0.3619 0.1382
C10 C 0.9704(4) 0.7613(4) 0.1391(2)
H11 H 1.0550 0.7160 0.1471
H12 H 0.9600 0.8247 0.1073
C11 C 0.9016(4) 0.8083(4) 0.20998(19)
C12 C 0.9420(4) 0.7489(4) 0.2735(2)
H13 H 1.0155 0.6822 0.2728
C13 C 0.8747(4) 0.7870(4) 0.33867(19)
C14 C 0.7653(4) 0.8848(3) 0.34154(18)
C15 C 0.7262(4) 0.9459(3) 0.27729(18)
H14 H 0.6530 1.0129 0.2778
C16 C 0.7939(4) 0.9088(3) 0.21328(18)
C17 C 1.0315(5) 0.6440(5) 0.4068(3)
H15 H 1.0829 0.6781 0.3992
H16 H 1.0506 0.5870 0.3705
H17 H 1.0429 0.6083 0.4534
C18 C 0.6424(5) 1.0602(5) 0.1460(3)
H18 H 0.5853 1.0357 0.1627
H19 H 0.6280 1.0873 0.0973
H20 H 0.6345 1.1211 0.1761
C19 C 0.6867(4) 0.9239(3) 0.41016(19)
H21 H 0.6395 1.0071 0.4097
H22 H 0.7369 0.9023 0.4509
C20 C 0.6026(3) 0.8718(3) 0.41987(17)
C21 C 0.6444(3) 0.7599(3) 0.44585(16)
H23 H 0.7234 0.7183 0.4584
C22 C 0.5714(3) 0.7090(3) 0.45344(15)
C23 C 0.4516(3) 0.7702(3) 0.43786(15)
C24 C 0.4106(4) 0.8814(3) 0.41224(18)
H24 H 0.3308 0.9243 0.4013
C25 C 0.4853(4) 0.9315(3) 0.40221(18)
C26 C 0.7282(4) 0.5339(4) 0.4987(3)
H25 H 0.7829 0.5330 0.4604
H26 H 0.7456 0.4564 0.5102
H27 H 0.7365 0.5696 0.5404
C27 C 0.3311(5) 1.1085(4) 0.3621(4)
H28 H 0.3089 1.0755 0.3246
H29 H 0.3179 1.1838 0.3477
H30 H 0.2835 1.1142 0.4054
C28 C 0.3701(3) 0.7161(3) 0.44700(16)
H31 H 0.3945 0.6634 0.4875
H32 H 0.2889 0.7762 0.4583
C29 C 0.3707(3) 0.6516(3) 0.38121(15)
C30 C 0.4463(3) 0.5346(3) 0.37354(16)
H33 H 0.4962 0.4945 0.4103
C31 C 0.4500(3) 0.4752(3) 0.31236(16)
C32 C 0.3772(3) 0.5327(3) 0.25643(16)
C33 C 0.2986(3) 0.6488(3) 0.26440(16)
H34 H 0.2474 0.6882 0.2280
C34 C 0.2943(3) 0.7086(3) 0.32622(17)
C35 C 0.5051(6) 0.2855(4) 0.3513(3)
H35 H 0.5020 0.3066 0.4005
H36 H 0.5671 0.2076 0.3437
H37 H 0.4295 0.2917 0.3408
C36 C 0.1312(4) 0.8853(4) 0.2877(3)
H38 H 0.0796 0.8514 0.2860
H39 H 0.1681 0.8829 0.2407
H40 H 0.0851 0.9639 0.3033
C37 C 0.3917(3) 0.4714(3) 0.18589(17)
H41 H 0.4095 0.3925 0.1956
H42 H 0.3176 0.5094 0.1614
C38 C 0.4923(3) 0.4727(3) 0.13820(16)
C39 C 0.6095(4) 0.3875(3) 0.14419(17)
H43 H 0.6250 0.3264 0.1756
C40 C 0.7047(4) 0.3901(3) 0.10479(19)
C41 C 0.6841(3) 0.4795(3) 0.05639(15)
C42 C 0.5677(3) 0.5649(3) 0.05044(16)
H44 H 0.5522 0.6259 0.0190
C43 C 0.4723(3) 0.5623(3) 0.09044(15)
C44 C 0.8472(5) 0.2055(5) 0.1509(4)
H45 H 0.8262 0.1562 0.1248
H46 H 0.8011 0.2256 0.1966
C45 C 0.9750(8) 0.1456(11) 0.1629(8)
H47 H 0.9830 0.1822 0.2049
H48 H 0.9921 0.0687 0.1781
C46 C 1.0700(10) 0.1299(9) 0.1164(11)
H49 H 1.1471 0.0868 0.1373
H50 H 1.0618 0.2007 0.0946
C47 C 1.040(2) 0.0568(17) 0.0657(11)
H51 H 1.0890 -0.0234 0.0762
H52 H 1.0566 0.0717 0.0165
H53 H 0.9575 0.0772 0.0732
C48 C 0.3291(4) 0.7459(4) 0.0457(2)
H54 H 0.2442 0.7869 0.0378
H55 H 0.3719 0.7233 -0.0010
C49 C 0.3634(4) 0.8273(3) 0.0811(2)
C50 C 0.4213(5) 0.8695(4) 0.1954(3)
H56 H 0.3815 0.8797 0.2429
H57 H 0.3967 0.9452 0.1747
C51 C 0.5548(5) 0.8094(5) 0.2026(3)
H58 H 0.5749 0.8590 0.2292
H59 H 0.5942 0.7985 0.1549
C52 C 0.6046(5) 0.6905(5) 0.2412(2)
H60 H 0.5623 0.6983 0.2876
H61 H 0.5946 0.6363 0.2124
C53 C 0.7312(6) 0.6501(6) 0.2503(3)
H62 H 0.7701 0.6427 0.2027
H63 H 0.7376 0.7101 0.2750
C54 C 0.7672(5) 0.4645(5) 0.3015(3)
H64 H 0.6956 0.4742 0.2852
C55 C 0.8413(4) 0.3637(4) 0.3407(3)
C56 C 0.8119(5) 0.2746(5) 0.3561(3)
H65 H 0.7426 0.2801 0.3387
C57 C 0.8828(5) 0.1812(4) 0.3956(3)
C58 C 0.9857(5) 0.1705(6) 0.4228(3)
H66 H 1.0337 0.1067 0.4502
C59 C 1.0156(5) 0.2565(6) 0.4084(4)
H67 H 1.0846 0.2498 0.4270
C60 C 0.9486(5) 0.3509(5) 0.3682(3)
Cl1 Cl 0.84423(18) 0.07239(14) 0.41181(10)
N1 N 0.3831(3) 0.8072(3) 0.15110(17)
H68 H 0.3721 0.7533 0.1712
N2 N 0.7996(4) 0.5426(4) 0.2885(2)
O1 O 1.0689(3) 0.5249(3) 0.16288(17)
O2 O 0.6933(3) 0.7179(3) -0.01627(14)
O3 O 0.9116(3) 0.7297(3) 0.40297(15)
O4 O 0.7581(3) 0.9674(3) 0.14864(14)
O5 O 0.6096(3) 0.5968(2) 0.47668(14)
O6 O 0.4491(3) 1.0402(3) 0.37409(19)
O7 O 0.5292(3) 0.3595(2) 0.30581(13)
O8 O 0.2204(2) 0.8234(2) 0.33642(14)
O9 O 0.8212(3) 0.3078(3) 0.10992(19)
O10 O 0.3539(2) 0.6453(2) 0.08638(13)
O11 O 0.3667(4) 0.9060(3) 0.04689(18)
O12 O 0.9821(4) 0.4324(4) 0.3579(3)
H69 H 0.9510 0.4709 0.3224
loop_
_geom_bond_atom_site_label_1
_geom_bond_atom_site_label_2
_geom_bond_site_symmetry_1
_geom_bond_site_symmetry_2
C1 H1 1_555 1_555
H2 C1 1_555 1_555
C2 C1 1_555 1_555
C3 C2 1_555 1_555
C4 C3 1_555 1_555
H3 C4 1_555 1_555
C5 C4 1_555 1_555
C6 C5 1_555 1_555
C7 C2 1_555 1_555
H4 C7 1_555 1_555
C8 H5 1_555 1_555
H6 C8 1_555 1_555
H7 C8 1_555 1_555
C9 H8 1_555 1_555
H9 C9 1_555 1_555
H10 C9 1_555 1_555
C10 C5 1_555 1_555
H11 C10 1_555 1_555
H12 C10 1_555 1_555
C11 C10 1_555 1_555
C12 C11 1_555 1_555
H13 C12 1_555 1_555
C13 C12 1_555 1_555
C14 C13 1_555 1_555
C15 C14 1_555 1_555
H14 C15 1_555 1_555
C16 C11 1_555 1_555
C17 H15 1_555 1_555
H16 C17 1_555 1_555
H17 C17 1_555 1_555
C18 H18 1_555 1_555
H19 C18 1_555 1_555
H20 C18 1_555 1_555
C19 C14 1_555 1_555
H21 C19 1_555 1_555
H22 C19 1_555 1_555
C20 C19 1_555 1_555
C21 C20 1_555 1_555
H23 C21 1_555 1_555
C22 C21 1_555 1_555
C23 C22 1_555 1_555
C24 C23 1_555 1_555
H24 C24 1_555 1_555
C25 C20 1_555 1_555
C26 H25 1_555 1_555
H26 C26 1_555 1_555
H27 C26 1_555 1_555
C27 H28 1_555 1_555
H29 C27 1_555 1_555
H30 C27 1_555 1_555
C28 C23 1_555 1_555
H31 C28 1_555 1_555
H32 C28 1_555 1_555
C29 C28 1_555 1_555
C30 C29 1_555 1_555
H33 C30 1_555 1_555
C31 C30 1_555 1_555
C32 C31 1_555 1_555
C33 C32 1_555 1_555
H34 C33 1_555 1_555
C34 C29 1_555 1_555
C35 H35 1_555 1_555
H36 C35 1_555 1_555
H37 C35 1_555 1_555
C36 H38 1_555 1_555
H39 C36 1_555 1_555
H40 C36 1_555 1_555
C37 C32 1_555 1_555
H41 C37 1_555 1_555
H42 C37 1_555 1_555
C38 C37 1_555 1_555
C39 C38 1_555 1_555
H43 C39 1_555 1_555
C40 C39 1_555 1_555
C41 C1 1_555 1_555
C42 C41 1_555 1_555
H44 C42 1_555 1_555
C43 C38 1_555 1_555
C44 H45 1_555 1_555
H46 C44 1_555 1_555
C45 C44 1_555 1_555
H47 C45 1_555 1_555
H48 C45 1_555 1_555
C46 C45 1_555 1_555
H49 C46 1_555 1_555
H50 C46 1_555 1_555
C47 C46 1_555 1_555
H51 C47 1_555 1_555
H52 C47 1_555 1_555
H53 C47 1_555 1_555
C48 H54 1_555 1_555
H55 C48 1_555 1_555
C49 C48 1_555 1_555
C50 H56 1_555 1_555
H57 C50 1_555 1_555
C51 C50 1_555 1_555
H58 C51 1_555 1_555
H59 C51 1_555 1_555
C52 C51 1_555 1_555
H60 C52 1_555 1_555
H61 C52 1_555 1_555
C53 C52 1_555 1_555
H62 C53 1_555 1_555
H63 C53 1_555 1_555
C54 H64 1_555 1_555
C55 C54 1_555 1_555
C56 C55 1_555 1_555
H65 C56 1_555 1_555
C57 C56 1_555 1_555
C58 C57 1_555 1_555
H66 C58 1_555 1_555
C59 C58 1_555 1_555
H67 C59 1_555 1_555
C60 C55 1_555 1_555
Cl1 C57 1_555 1_555
N1 C49 1_555 1_555
H68 N1 1_555 1_555
N2 C53 1_555 1_555
O1 C6 1_555 1_555
O2 C3 1_555 1_555
O3 C13 1_555 1_555
O4 C16 1_555 1_555
O5 C22 1_555 1_555
O6 C25 1_555 1_555
O7 C31 1_555 1_555
O8 C34 1_555 1_555
O9 C40 1_555 1_555
O10 C43 1_555 1_555
O11 C49 1_555 1_555
O12 C60 1_555 1_555
H69 O12 1_555 1_555
C6 C7 1_555 1_555
C8 O2 1_555 1_555
C9 O1 1_555 1_555
C15 C16 1_555 1_555
C17 O3 1_555 1_555
C18 O4 1_555 1_555
C24 C25 1_555 1_555
C26 O5 1_555 1_555
C27 O6 1_555 1_555
C33 C34 1_555 1_555
C35 O7 1_555 1_555
C36 O8 1_555 1_555
C40 C41 1_555 1_555
C42 C43 1_555 1_555
C44 O9 1_555 1_555
C48 O10 1_555 1_555
C50 N1 1_555 1_555
C54 N2 1_555 1_555
C59 C60 1_555 1_555

#END
