
#######################################################################
#
#                 Cambridge Crystallographic Data Centre
#                                CCDC 
#
#######################################################################
#
# If this CIF has been generated from an entry in the Cambridge 
# Structural Database, then it will include bibliographic, chemical, 
# crystal, experimental, refinement or atomic coordinate data resulting 
# from the CCDC's data processing and validation procedures.
#
#######################################################################

data_FUWFAG01
_chemical_formula_moiety         'C25 H17 N1 O1'
_chemical_name_systematic        (4-(9H-Carbazol-9-yl)phenyl)(phenyl)methanone
_symmetry_cell_setting           monoclinic
_symmetry_space_group_name_H-M   'P 21/c'
_symmetry_Int_Tables_number      14
_space_group_name_Hall           '-P 2ybc'
loop_
_symmetry_equiv_pos_site_id
_symmetry_equiv_pos_as_xyz
1 x,y,z
2 -x,1/2+y,1/2-z
3 -x,-y,-z
4 x,1/2-y,1/2+z
_cell_length_a                   9.51318(14)
_cell_length_b                   8.97975(13)
_cell_length_c                   20.4359(3)
_cell_angle_alpha                90
_cell_angle_beta                 98.5942(13)
_cell_angle_gamma                90
_cell_volume                     1726.15
_exptl_crystal_colour            colorless
_exptl_crystal_description       block
_cell_formula_units_Z            4
loop_
_atom_site_label
_atom_site_type_symbol
_atom_site_fract_x
_atom_site_fract_y
_atom_site_fract_z
O1 O 0.09179(9) 0.64359(10) 0.17641(4)
N1 N 0.54297(10) 0.84348(11) 0.42144(5)
C1 C 0.40586(12) 0.57617(14) 0.28934(6)
H1 H 0.4374 0.4927 0.2688
C2 C 0.64092(13) 0.62550(14) 0.49106(6)
H2 H 0.5765 0.5563 0.4703
C3 C 0.31000(12) 0.81994(14) 0.35354(6)
H3 H 0.2767 0.8996 0.3759
C4 C 0.49630(12) 0.64776(14) 0.33873(6)
H4 H 0.5892 0.6143 0.3502
C5 C 0.19731(12) 0.29720(15) 0.25448(6)
H5 H 0.2310 0.3321 0.2968
C6 C 0.73143(12) 0.87998(14) 0.50327(6)
C7 C 0.44892(12) 0.76961(13) 0.37133(5)
C8 C 0.26776(12) 0.62818(13) 0.27006(6)
C9 C 0.63571(12) 0.77383(14) 0.47154(6)
C10 C 0.83639(13) 0.83533(15) 0.55442(6)
H6 H 0.9011 0.9040 0.5755
C11 C 0.22177(12) 0.75133(14) 0.30252(6)
H7 H 0.1303 0.7879 0.2897
C12 C 0.69694(12) 1.02054(14) 0.47016(6)
C13 C 0.74523(14) 0.58413(15) 0.54250(6)
H8 H 0.7503 0.4856 0.5567
C14 C 0.16670(12) 0.39727(14) 0.20228(6)
C15 C 0.58096(12) 0.99436(13) 0.42018(6)
C16 C 0.76023(14) 1.16110(14) 0.47574(6)
H9 H 0.8370 1.1800 0.5085
C17 C 0.11931(12) 0.34190(15) 0.13881(6)
H10 H 0.0981 0.4076 0.1035
C18 C 0.17069(12) 0.56234(14) 0.21314(6)
C19 C 0.52646(13) 1.10588(14) 0.37652(6)
H11 H 0.4491 1.0884 0.3438
C20 C 0.70737(15) 1.27132(15) 0.43206(7)
H12 H 0.7495 1.3650 0.4350
C21 C 0.59146(15) 1.24367(15) 0.38346(7)
H13 H 0.5568 1.3202 0.3549
C22 C 0.84296(14) 0.68726(15) 0.57347(6)
H14 H 0.9133 0.6562 0.6073
C23 C 0.17778(13) 0.14573(15) 0.24368(7)
H15 H 0.1956 0.0798 0.2791
C24 C 0.10374(13) 0.19050(16) 0.12811(6)
H16 H 0.0743 0.1546 0.0856
C25 C 0.13195(13) 0.09177(16) 0.18072(7)
H17 H 0.1201 -0.0101 0.1737
loop_
_geom_bond_atom_site_label_1
_geom_bond_atom_site_label_2
_geom_bond_site_symmetry_1
_geom_bond_site_symmetry_2
O1 C18 1_555 1_555
N1 C7 1_555 1_555
C1 H1 1_555 1_555
C2 H2 1_555 1_555
C3 H3 1_555 1_555
C4 C1 1_555 1_555
H4 C4 1_555 1_555
C5 H5 1_555 1_555
C6 C9 1_555 1_555
C7 C3 1_555 1_555
C8 C1 1_555 1_555
C9 N1 1_555 1_555
C10 C6 1_555 1_555
H6 C10 1_555 1_555
C11 C3 1_555 1_555
H7 C11 1_555 1_555
C12 C6 1_555 1_555
C13 C2 1_555 1_555
H8 C13 1_555 1_555
C14 C5 1_555 1_555
C15 N1 1_555 1_555
C16 C12 1_555 1_555
H9 C16 1_555 1_555
C17 C14 1_555 1_555
H10 C17 1_555 1_555
C18 C8 1_555 1_555
C19 C15 1_555 1_555
H11 C19 1_555 1_555
C20 C16 1_555 1_555
H12 C20 1_555 1_555
C21 C19 1_555 1_555
H13 C21 1_555 1_555
C22 C10 1_555 1_555
H14 C22 1_555 1_555
C23 C5 1_555 1_555
H15 C23 1_555 1_555
C24 C17 1_555 1_555
H16 C24 1_555 1_555
C25 C23 1_555 1_555
H17 C25 1_555 1_555
C2 C9 1_555 1_555
C4 C7 1_555 1_555
C8 C11 1_555 1_555
C12 C15 1_555 1_555
C13 C22 1_555 1_555
C14 C18 1_555 1_555
C20 C21 1_555 1_555
C24 C25 1_555 1_555

#END
