
#######################################################################
#
#                 Cambridge Crystallographic Data Centre
#                                CCDC 
#
#######################################################################
#
# If this CIF has been generated from an entry in the Cambridge 
# Structural Database, then it will include bibliographic, chemical, 
# crystal, experimental, refinement or atomic coordinate data resulting 
# from the CCDC's data processing and validation procedures.
#
#######################################################################

data_FUWGAH
_chemical_formula_moiety         'C21 H21 Br1 N2 O5'
_chemical_name_systematic        
N-(6-bromo-4-(nitromethyl)-2-oxo-3-phenyl-3,4-dihydro-2H-chromen-3-yl)-2,2-dimethylpropanamide
_symmetry_cell_setting           tetragonal
_symmetry_space_group_name_H-M   'P 41 21 2'
_symmetry_Int_Tables_number      92
_space_group_name_Hall           'P 4abw 2nw'
loop_
_symmetry_equiv_pos_site_id
_symmetry_equiv_pos_as_xyz
1 x,y,z
2 -x,-y,1/2+z
3 1/2-y,1/2+x,1/4+z
4 1/2+y,1/2-x,3/4+z
5 1/2-x,1/2+y,1/4-z
6 1/2+x,1/2-y,3/4-z
7 y,x,-z
8 -y,-x,1/2-z
_cell_length_a                   9.6533(14)
_cell_length_b                   9.6533(14)
_cell_length_c                   43.393(9)
_cell_angle_alpha                90
_cell_angle_beta                 90
_cell_angle_gamma                90
_cell_volume                     4043.63
_exptl_crystal_colour            colorless
_exptl_crystal_description       Prism
_cell_formula_units_Z            8
loop_
_atom_site_label
_atom_site_type_symbol
_atom_site_fract_x
_atom_site_fract_y
_atom_site_fract_z
Br1 Br 1.46761(4) 0.63029(4) 0.029958(8)
N1 N 0.7607(3) 0.9860(3) 0.07141(6)
N2 N 0.8332(3) 0.6453(3) 0.06269(6)
O1 O 1.0421(2) 0.8545(2) 0.11766(4)
O2 O 0.8351(3) 0.9346(3) 0.12804(5)
O3 O 0.7741(2) 1.0568(2) 0.02201(5)
O4 O 0.7865(3) 0.5373(3) 0.05258(6)
O5 O 0.8451(3) 0.6716(3) 0.09047(5)
C1 C 1.1344(4) 0.8025(3) 0.09597(7)
C2 C 1.1083(3) 0.8066(3) 0.06445(7)
C3 C 1.2092(3) 0.7539(3) 0.04467(7)
H1 H 1.1961 0.7573 0.0230
C4 C 1.3283(3) 0.6970(3) 0.05683(7)
C5 C 1.3514(4) 0.6883(3) 0.08837(7)
H2 H 1.4329 0.6457 0.0962
C6 C 1.2537(4) 0.7428(4) 0.10810(7)
H3 H 1.2677 0.7397 0.1298
C7 C 0.9738(3) 0.8643(3) 0.05227(6)
H4 H 0.9997 0.9216 0.0339
C8 C 0.9094(3) 0.9666(3) 0.07559(6)
C9 C 0.9221(4) 0.9143(3) 0.10901(7)
C10 C 0.9815(3) 1.1104(3) 0.07490(6)
C11 C 1.0940(3) 1.1413(4) 0.05609(7)
H5 H 1.1356 1.0704 0.0441
C12 C 1.1457(4) 1.2754(4) 0.05485(8)
H6 H 1.2210 1.2963 0.0415
C13 C 1.0887(4) 1.3782(4) 0.07275(8)
H7 H 1.1247 1.4697 0.0718
C14 C 0.9784(4) 1.3480(4) 0.09219(8)
H8 H 0.9390 1.4185 0.1047
C15 C 0.9258(3) 1.2140(4) 0.09325(7)
H9 H 0.8509 1.1931 0.1067
C16 C 0.8771(4) 0.7520(3) 0.03998(7)
H10 H 0.7930 0.7973 0.0316
H11 H 0.9238 0.7047 0.0226
C17 C 0.7056(3) 1.0459(3) 0.04584(7)
C18 C 0.5578(3) 1.1020(3) 0.04848(7)
C19 C 0.4789(4) 1.0606(4) 0.01940(7)
H12 H 0.4727 0.9594 0.0183
H13 H 0.5280 1.0956 0.0012
H14 H 0.3855 1.1002 0.0200
C20 C 0.4814(4) 1.0511(4) 0.07717(7)
H15 H 0.3862 1.0863 0.0770
H16 H 0.5291 1.0848 0.0956
H17 H 0.4800 0.9496 0.0773
C21 C 0.5727(4) 1.2606(4) 0.05003(8)
H18 H 0.6206 1.2938 0.0315
H19 H 0.6264 1.2860 0.0684
H20 H 0.4807 1.3031 0.0512
H21 H 0.710(4) 0.982(4) 0.0877(8)
loop_
_geom_bond_atom_site_label_1
_geom_bond_atom_site_label_2
_geom_bond_site_symmetry_1
_geom_bond_site_symmetry_2
Br1 C4 1_555 1_555
N1 C8 1_555 1_555
N2 O4 1_555 1_555
O1 C1 1_555 1_555
O2 C9 1_555 1_555
O3 C17 1_555 1_555
O5 N2 1_555 1_555
C1 C2 1_555 1_555
C2 C3 1_555 1_555
C3 H1 1_555 1_555
C4 C3 1_555 1_555
C5 C4 1_555 1_555
H2 C5 1_555 1_555
C6 C1 1_555 1_555
H3 C6 1_555 1_555
C7 C2 1_555 1_555
H4 C7 1_555 1_555
C8 C7 1_555 1_555
C9 O1 1_555 1_555
C10 C8 1_555 1_555
C11 C10 1_555 1_555
H5 C11 1_555 1_555
C12 C11 1_555 1_555
H6 C12 1_555 1_555
C13 C12 1_555 1_555
H7 C13 1_555 1_555
C14 C13 1_555 1_555
H8 C14 1_555 1_555
C15 C10 1_555 1_555
H9 C15 1_555 1_555
C16 N2 1_555 1_555
H10 C16 1_555 1_555
H11 C16 1_555 1_555
C17 N1 1_555 1_555
C18 C17 1_555 1_555
C19 C18 1_555 1_555
H12 C19 1_555 1_555
H13 C19 1_555 1_555
H14 C19 1_555 1_555
C20 C18 1_555 1_555
H15 C20 1_555 1_555
H16 C20 1_555 1_555
H17 C20 1_555 1_555
C21 C18 1_555 1_555
H18 C21 1_555 1_555
H19 C21 1_555 1_555
H20 C21 1_555 1_555
H21 N1 1_555 1_555
C5 C6 1_555 1_555
C7 C16 1_555 1_555
C8 C9 1_555 1_555
C14 C15 1_555 1_555

#END
