
#######################################################################
#
#                 Cambridge Crystallographic Data Centre
#                                CCDC 
#
#######################################################################
#
# If this CIF has been generated from an entry in the Cambridge 
# Structural Database, then it will include bibliographic, chemical, 
# crystal, experimental, refinement or atomic coordinate data resulting 
# from the CCDC's data processing and validation procedures.
#
#######################################################################

data_FUWWOL
_chemical_formula_moiety         'C12 H20 N1 1+,C12 H24 O6,B1 F4 1-'
_chemical_name_systematic        
'18-Crown-6 2,6-di-isopropylanilinium tetrafluoroborate'
_symmetry_cell_setting           orthorhombic
_symmetry_space_group_name_H-M   'I b a m'
_symmetry_Int_Tables_number      72
_space_group_name_Hall           '-I 2 2c'
loop_
_symmetry_equiv_pos_site_id
_symmetry_equiv_pos_as_xyz
1 x,y,z
2 -x,-y,z
3 1/2-x,1/2+y,-z
4 1/2+x,1/2-y,-z
5 1/2+x,1/2+y,1/2+z
6 1/2-x,1/2-y,1/2+z
7 -x,y,1/2-z
8 x,-y,1/2-z
9 -x,-y,-z
10 x,y,-z
11 1/2+x,1/2-y,z
12 1/2-x,1/2+y,z
13 1/2-x,1/2-y,1/2-z
14 1/2+x,1/2+y,1/2-z
15 x,-y,1/2+z
16 -x,y,1/2+z
_cell_length_a                   17.125(17)
_cell_length_b                   17.685(16)
_cell_length_c                   19.071(16)
_cell_angle_alpha                90
_cell_angle_beta                 90
_cell_angle_gamma                90
_cell_volume                     5775.76
_exptl_crystal_colour            colorless
_exptl_crystal_description       block
_cell_formula_units_Z            8
loop_
_atom_site_label
_atom_site_type_symbol
_atom_site_fract_x
_atom_site_fract_y
_atom_site_fract_z
B1 B 0.5000 0.3101(5) 0.7500
F1 F 0.4383(9) 0.2733(8) 0.7226(8)
F2 F 0.4733(6) 0.3744(5) 0.7719(6)
F3 F 0.5515(9) 0.3219(5) 0.7080(9)
F4 F 0.5202(7) 0.2690(7) 0.8044(7)
F1F F 0.5617(9) 0.2733(8) 0.7774(8)
F2F F 0.5267(6) 0.3744(5) 0.7281(6)
F3F F 0.4485(9) 0.3219(5) 0.7920(9)
F4F F 0.4798(7) 0.2690(7) 0.6956(7)
O1 O 0.3216(4) 0.5285(5) 0.4002(4)
O2 O 0.3554(3) 0.3893(4) 0.4601(4)
O3 O 0.3468(4) 0.4564(4) 0.5913(4)
O4 O 0.2372(5) 0.5675(4) 0.6239(4)
O5 O 0.0979(4) 0.5665(4) 0.5488(4)
O6 O 0.1693(5) 0.5864(4) 0.4172(3)
C8 C 0.3762(9) 0.4750(11) 0.3708(10)
H10 H 0.3574 0.4443 0.3329
H11 H 0.4159 0.5087 0.3536
C9 C 0.4135(10) 0.4349(9) 0.4271(10)
H12 H 0.4347 0.4673 0.4626
H13 H 0.4556 0.4043 0.4093
C10 C 0.3810(6) 0.3490(6) 0.5219(8)
H14 H 0.3379 0.3194 0.5391
H15 H 0.4215 0.3144 0.5000
C11 C 0.4043(10) 0.3964(9) 0.5808(11)
H16 H 0.4522 0.4211 0.5674
H17 H 0.4138 0.3667 0.6220
C12 C 0.3603(12) 0.5088(10) 0.6482(9)
H18 H 0.3391 0.4843 0.6889
H19 H 0.4156 0.5142 0.6554
C13 C 0.3189(12) 0.5789(12) 0.6326(11)
H20 H 0.3433 0.6076 0.5959
H21 H 0.3247 0.6061 0.6758
C14 C 0.1892(11) 0.6312(11) 0.6113(11)
H22 H 0.1952 0.6624 0.6521
H23 H 0.2094 0.6587 0.5719
C15 C 0.1121(10) 0.6179(8) 0.6043(8)
H24 H 0.0850 0.6642 0.5936
H25 H 0.0905 0.5980 0.6468
C16 C 0.0599(6) 0.5920(7) 0.4870(15)
H26 H 0.0408 0.5504 0.4595
H27 H 0.0159 0.6214 0.5000
C17 C 0.1094(8) 0.6377(7) 0.4438(8)
H28 H 0.1336 0.6760 0.4722
H29 H 0.0805 0.6622 0.4071
C18 C 0.2307(9) 0.6288(11) 0.3865(9)
H30 H 0.2103 0.6650 0.3536
H31 H 0.2551 0.6565 0.4238
C19 C 0.2831(13) 0.5757(13) 0.3513(11)
H32 H 0.3242 0.6072 0.3331
H33 H 0.2595 0.5490 0.3130
O1I O 0.3216(4) 0.5285(5) 0.5998(4)
O2I O 0.3554(3) 0.3893(4) 0.5399(4)
O3I O 0.3468(4) 0.4564(4) 0.4087(4)
O4I O 0.2372(5) 0.5675(4) 0.3761(4)
O5I O 0.0979(4) 0.5665(4) 0.4512(4)
O6I O 0.1693(5) 0.5864(4) 0.5828(3)
C8I C 0.3762(9) 0.4750(11) 0.6292(10)
H10I H 0.3574 0.4443 0.6671
H11I H 0.4159 0.5087 0.6464
C9I C 0.4135(10) 0.4349(9) 0.5729(10)
H12I H 0.4347 0.4673 0.5374
H13I H 0.4556 0.4043 0.5907
C10I C 0.3810(6) 0.3490(6) 0.4781(8)
H14I H 0.3379 0.3194 0.4609
C11I C 0.4043(10) 0.3964(9) 0.4192(11)
H16I H 0.4522 0.4211 0.4326
H17I H 0.4138 0.3667 0.3780
C12I C 0.3603(12) 0.5088(10) 0.3518(9)
H18I H 0.3391 0.4843 0.3111
H19I H 0.4156 0.5142 0.3446
C13I C 0.3189(12) 0.5789(12) 0.3674(11)
H20I H 0.3433 0.6076 0.4041
H21I H 0.3247 0.6061 0.3242
C14I C 0.1892(11) 0.6312(11) 0.3887(11)
H22I H 0.1952 0.6624 0.3479
H23I H 0.2094 0.6587 0.4281
C15I C 0.1121(10) 0.6179(8) 0.3957(8)
H24I H 0.0850 0.6642 0.4064
H25I H 0.0905 0.5980 0.3532
C16I C 0.0599(6) 0.5920(7) 0.5130(15)
H26I H 0.0408 0.5504 0.5405
C17I C 0.1094(8) 0.6377(7) 0.5562(8)
H28I H 0.1336 0.6760 0.5278
H29I H 0.0805 0.6622 0.5929
C18I C 0.2307(9) 0.6288(11) 0.6135(9)
H30I H 0.2103 0.6650 0.6464
H31I H 0.2551 0.6565 0.5762
C19I C 0.2831(13) 0.5757(13) 0.6487(11)
H32I H 0.3242 0.6072 0.6669
H33I H 0.2595 0.5490 0.6870
N1 N 0.21013(18) 0.45481(17) 0.5000
C1 C 0.1683(2) 0.3815(2) 0.5000
C2 C 0.15009(15) 0.34825(16) 0.56442(15)
C3 C 0.0951(2) 0.2438(2) 0.5000
H1 H 0.0715 0.1964 0.5000
C4 C 0.11237(17) 0.27851(17) 0.56242(17)
H2 H 0.0986 0.2550 0.6042
C5 C 0.1672(2) 0.38414(19) 0.63494(17)
H3 H 0.1954 0.4237 0.6258
C6 C 0.2154(3) 0.3310(2) 0.6818(2)
H4 H 0.2630 0.3178 0.6582
H5 H 0.1858 0.2860 0.6912
H6 H 0.2274 0.3561 0.7251
C7 C 0.0921(3) 0.4094(3) 0.6719(2)
H7 H 0.0630 0.4423 0.6414
H8 H 0.1051 0.4359 0.7142
H9 H 0.0610 0.3659 0.6831
C2I C 0.15009(15) 0.34825(16) 0.43558(15)
C4I C 0.11237(17) 0.27851(17) 0.43758(17)
H2I H 0.0986 0.2550 0.3958
C5I C 0.1672(2) 0.38414(19) 0.36506(17)
H3I H 0.1954 0.4237 0.3742
C6I C 0.2154(3) 0.3310(2) 0.3182(2)
H4I H 0.2630 0.3178 0.3418
H5I H 0.1858 0.2860 0.3088
H6I H 0.2274 0.3561 0.2749
C7I C 0.0921(3) 0.4094(3) 0.3281(2)
H7I H 0.0630 0.4423 0.3586
H8I H 0.1051 0.4359 0.2858
H9I H 0.0610 0.3659 0.3169
H34? H 0.2546 0.4470 0.4735
H35? H 0.2263 0.4788 0.5393
H36? H 0.1813 0.4888 0.4752
loop_
_geom_bond_atom_site_label_1
_geom_bond_atom_site_label_2
_geom_bond_site_symmetry_1
_geom_bond_site_symmetry_2
N1 C1 1_555 1_555
C1 C2 1_555 1_555
C2 C4 1_555 1_555
C3 H1 1_555 1_555
C4 C3 1_555 1_555
H2 C4 1_555 1_555
C5 C2 1_555 1_555
H3 C5 1_555 1_555
C6 C5 1_555 1_555
H4 C6 1_555 1_555
H5 C6 1_555 1_555
H6 C6 1_555 1_555
C7 C5 1_555 1_555
H7 C7 1_555 1_555
H8 C7 1_555 1_555
H9 C7 1_555 1_555
B1 F1 1_555 1_555
F1 F4F 1_555 1_555
F2 B1 1_555 1_555
F3 B1 1_555 1_555
F4 B1 1_555 1_555
O1 C19 1_555 1_555
O2 C9 1_555 1_555
O3 C11 1_555 1_555
O4 C13 1_555 1_555
O5 C15 1_555 1_555
O6 C17 1_555 1_555
C8 H10 1_555 1_555
H10 C12I 1_555 1_555
H11 C8 1_555 1_555
C9 C8 1_555 1_555
H12 C9 1_555 1_555
H13 C9 1_555 1_555
C10 H14 1_555 1_555
H14 O2I 1_555 1_555
H15 C10 1_555 1_555
C11 C10 1_555 1_555
H16 C11 1_555 1_555
H17 C11 1_555 1_555
C12 H18 1_555 1_555
H18 C8I 1_555 1_555
H19 C12 1_555 1_555
C13 C12 1_555 1_555
H20 C13 1_555 1_555
H21 C13 1_555 1_555
C14 O4 1_555 1_555
H22 C14 1_555 1_555
H23 C14 1_555 1_555
C15 C14 1_555 1_555
H24 C15 1_555 1_555
H25 C15 1_555 1_555
C16 O5 1_555 1_555
H26 C16 1_555 1_555
H27 C16 1_555 1_555
C17 C16 1_555 1_555
H28 C17 1_555 1_555
H29 C17 1_555 1_555
C18 O6 1_555 1_555
H30 C18 1_555 1_555
H31 C18 1_555 1_555
C19 C18 1_555 1_555
H32 C19 1_555 1_555
H33 C19 1_555 1_555
C2I C1 1_555 1_555
C4I C3 1_555 1_555
H2I C4I 1_555 1_555
C5I C2I 1_555 1_555
H3I C5I 1_555 1_555
C6I C5I 1_555 1_555
H4I C6I 1_555 1_555
H5I C6I 1_555 1_555
H6I C6I 1_555 1_555
C7I C5I 1_555 1_555
H7I C7I 1_555 1_555
H8I C7I 1_555 1_555
H9I C7I 1_555 1_555
F1F B1 1_555 1_555
F2F B1 1_555 1_555
F3F B1 1_555 1_555
F4F B1 1_555 1_555
O1I O3 1_555 1_555
O2I O2 1_555 1_555
O3I O1 1_555 1_555
O4I O1 1_555 1_555
O5I O6 1_555 1_555
O6I O4 1_555 1_555
C8I O3 1_555 1_555
H10I C12 1_555 1_555
H11I C12 1_555 1_555
C9I O3 1_555 1_555
H12I C9I 1_555 1_555
H13I C11 1_555 1_555
C10I C10 1_555 1_555
H14I O2 1_555 1_555
C11I O2 1_555 1_555
H16I C9 1_555 1_555
H17I C11I 1_555 1_555
C12I O1 1_555 1_555
H18I C8 1_555 1_555
H19I C8 1_555 1_555
C13I O1 1_555 1_555
H20I C13I 1_555 1_555
H21I C19 1_555 1_555
C14I O6 1_555 1_555
H22I C18 1_555 1_555
H23I C18 1_555 1_555
C15I O6 1_555 1_555
H24I C17 1_555 1_555
H25I C15I 1_555 1_555
C16I O5 1_555 1_555
H26I O5 1_555 1_555
C17I O5 1_555 1_555
H28I C17I 1_555 1_555
H29I C15 1_555 1_555
C18I O4 1_555 1_555
H30I C14 1_555 1_555
H31I C18I 1_555 1_555
C19I O4 1_555 1_555
H32I C13 1_555 1_555
H33I O4 1_555 1_555
F2 F2F 1_555 1_555
F2 F3F 1_555 1_555
F3 F2F 1_555 1_555
F4 F1F 1_555 1_555
O2 O3I 1_555 1_555
O3 O2I 1_555 1_555
O4 O1I 1_555 1_555
O5 O6I 1_555 1_555
O6 O4I 1_555 1_555
C8 O3I 1_555 1_555
C8 C11I 1_555 1_555
C8 C12I 1_555 1_555
H11 C12I 1_555 1_555
C9 O3I 1_555 1_555
C9 C11I 1_555 1_555
H13 C11I 1_555 1_555
H15 C10I 1_555 1_555
C11 O2I 1_555 1_555
C11 C8I 1_555 1_555
C11 C9I 1_555 1_555
H16 C9I 1_555 1_555
C12 O1I 1_555 1_555
C12 C8I 1_555 1_555
C12 C19I 1_555 1_555
H19 C8I 1_555 1_555
C13 O1I 1_555 1_555
C13 C18I 1_555 1_555
C13 C19I 1_555 1_555
H21 C19I 1_555 1_555
C14 O6I 1_555 1_555
C14 C17I 1_555 1_555
C14 C18I 1_555 1_555
H22 C18I 1_555 1_555
H23 C18I 1_555 1_555
C15 O6I 1_555 1_555
C15 C17I 1_555 1_555
H24 C17I 1_555 1_555
C16 O5I 1_555 1_555
C16 H26I 1_555 1_555
C16 C17I 1_555 1_555
H26 O5I 1_555 1_555
H26 C16I 1_555 1_555
H27 C16I 1_555 1_555
C17 O5I 1_555 1_555
C17 C14I 1_555 1_555
C17 C15I 1_555 1_555
C17 C16I 1_555 1_555
H29 C15I 1_555 1_555
C18 O4I 1_555 1_555
C18 C13I 1_555 1_555
C18 C14I 1_555 1_555
H30 C14I 1_555 1_555
C19 O4I 1_555 1_555
C19 C12I 1_555 1_555
C19 C13I 1_555 1_555
H32 C13I 1_555 1_555
H33 O4I 1_555 1_555
C2I C4I 1_555 1_555
O1I C19I 1_555 1_555
O2I C9I 1_555 1_555
O3I C11I 1_555 1_555
O4I C13I 1_555 1_555
O4I C14I 1_555 1_555
O5I C15I 1_555 1_555
O5I C16I 1_555 1_555
O6I C17I 1_555 1_555
O6I C18I 1_555 1_555
C8I H10I 1_555 1_555
C8I H11I 1_555 1_555
C8I C9I 1_555 1_555
C9I H13I 1_555 1_555
C10I H14I 1_555 1_555
C10I C11I 1_555 1_555
C11I H16I 1_555 1_555
C12I H18I 1_555 1_555
C12I H19I 1_555 1_555
C12I C13I 1_555 1_555
C13I H21I 1_555 1_555
C14I H22I 1_555 1_555
C14I H23I 1_555 1_555
C14I C15I 1_555 1_555
C15I H24I 1_555 1_555
C16I H26I 1_555 1_555
C16I C17I 1_555 1_555
C17I H29I 1_555 1_555
C18I H30I 1_555 1_555
C18I C19I 1_555 1_555
C19I H32I 1_555 1_555
C19I H33I 1_555 1_555

#END
