
#######################################################################
#
#                 Cambridge Crystallographic Data Centre
#                                CCDC 
#
#######################################################################
#
# If this CIF has been generated from an entry in the Cambridge 
# Structural Database, then it will include bibliographic, chemical, 
# crystal, experimental, refinement or atomic coordinate data resulting 
# from the CCDC's data processing and validation procedures.
#
#######################################################################

data_FUWYON
_chemical_formula_moiety         'C21 H20 N2 O5 S1'
_chemical_name_systematic        
N-Benzyl-4-nitro-N-(1-(5-oxocyclopent-1-en-1-yl)prop-1-en-1-yl)benzenesulfonamide
_symmetry_cell_setting           monoclinic
_symmetry_space_group_name_H-M   'P 21/c'
_symmetry_Int_Tables_number      14
_space_group_name_Hall           '-P 2ybc'
loop_
_symmetry_equiv_pos_site_id
_symmetry_equiv_pos_as_xyz
1 x,y,z
2 -x,1/2+y,1/2-z
3 -x,-y,-z
4 x,1/2-y,1/2+z
_cell_length_a                   15.2876(6)
_cell_length_b                   10.0354(4)
_cell_length_c                   13.8347(5)
_cell_angle_alpha                90
_cell_angle_beta                 114.866(2)
_cell_angle_gamma                90
_cell_volume                     1925.71
_exptl_crystal_colour            colorless
_exptl_crystal_description       plate
_cell_formula_units_Z            4
loop_
_atom_site_label
_atom_site_type_symbol
_atom_site_fract_x
_atom_site_fract_y
_atom_site_fract_z
S1 S 0.33922(3) 0.33011(4) 0.50519(3)
O1 O 0.40113(9) 0.29463(12) 0.61290(9)
O2 O 0.27259(8) 0.43812(11) 0.48421(9)
O3 O 0.64310(11) 0.3500(2) 0.27829(13)
O4 O 0.54002(10) 0.49502(15) 0.18029(10)
O5 O 0.12454(9) 0.46930(12) 0.21424(10)
N1 N 0.57017(11) 0.41616(18) 0.25482(12)
N2 N 0.27637(9) 0.19604(12) 0.44738(10)
C1 C 0.41147(12) 0.36265(15) 0.43574(12)
C2 C 0.49810(12) 0.29514(17) 0.46447(13)
H1 H 0.5211 0.2372 0.5243
C3 C 0.55041(12) 0.31349(18) 0.40464(14)
H2 H 0.6096 0.2678 0.4221
C4 C 0.51473(12) 0.39938(17) 0.31928(13)
C5 C 0.42966(12) 0.46904(17) 0.29045(13)
H3 H 0.4081 0.5288 0.2318
C6 C 0.37668(12) 0.44943(16) 0.34936(13)
H4 H 0.3172 0.4947 0.3310
C7 C 0.32900(11) 0.06691(15) 0.47478(13)
H5 H 0.3810 0.0717 0.5478
H6 H 0.3590 0.0497 0.4250
C8 C 0.26142(11) -0.04552(15) 0.46827(12)
C9 C 0.21250(12) -0.04556(16) 0.53383(13)
H7 H 0.2187 0.0283 0.5792
C10 C 0.15491(14) -0.15292(17) 0.53294(14)
H8 H 0.1213 -0.1521 0.5771
C11 C 0.14651(13) -0.26139(17) 0.46758(14)
H9 H 0.1083 -0.3357 0.4683
C12 C 0.19370(13) -0.26155(17) 0.40134(13)
H10 H 0.1873 -0.3356 0.3561
C13 C 0.25046(12) -0.15349(16) 0.40100(13)
H11 H 0.2819 -0.1533 0.3546
C14 C 0.20700(11) 0.21513(15) 0.33727(12)
C15 C 0.11843(11) 0.28678(15) 0.32517(12)
C16 C 0.08542(12) 0.41162(15) 0.26263(12)
C17 C -0.00514(12) 0.45682(17) 0.27166(13)
H12 H -0.0611 0.4537 0.2013
H13 H 0.0023 0.5491 0.2994
C18 C -0.01890(12) 0.35940(17) 0.34930(13)
H14 H -0.0124 0.4055 0.4153
H15 H -0.0830 0.3163 0.3164
C19 C 0.06005(11) 0.25931(16) 0.37227(12)
H16 H 0.0679 0.1834 0.4162
C20 C 0.22457(12) 0.16993(16) 0.25671(13)
H17 H 0.2861 0.1312 0.2741
C21 C 0.15673(13) 0.17449(17) 0.14190(13)
H18 H 0.1835 0.2316 0.1036
H19 H 0.0946 0.2106 0.1344
H20 H 0.1474 0.0843 0.1121
loop_
_geom_bond_atom_site_label_1
_geom_bond_atom_site_label_2
_geom_bond_site_symmetry_1
_geom_bond_site_symmetry_2
S1 O1 1_555 1_555
O2 S1 1_555 1_555
O3 N1 1_555 1_555
O4 N1 1_555 1_555
O5 C16 1_555 1_555
N1 C4 1_555 1_555
N2 S1 1_555 1_555
C1 S1 1_555 1_555
C2 C1 1_555 1_555
H1 C2 1_555 1_555
C3 C2 1_555 1_555
H2 C3 1_555 1_555
C4 C3 1_555 1_555
C5 C4 1_555 1_555
H3 C5 1_555 1_555
C6 C1 1_555 1_555
H4 C6 1_555 1_555
C7 N2 1_555 1_555
H5 C7 1_555 1_555
H6 C7 1_555 1_555
C8 C7 1_555 1_555
C9 C8 1_555 1_555
H7 C9 1_555 1_555
C10 C9 1_555 1_555
H8 C10 1_555 1_555
C11 C10 1_555 1_555
H9 C11 1_555 1_555
C12 C11 1_555 1_555
H10 C12 1_555 1_555
C13 C8 1_555 1_555
H11 C13 1_555 1_555
C14 N2 1_555 1_555
C15 C14 1_555 1_555
C16 C15 1_555 1_555
C17 C16 1_555 1_555
H12 C17 1_555 1_555
H13 C17 1_555 1_555
C18 C17 1_555 1_555
H14 C18 1_555 1_555
H15 C18 1_555 1_555
C19 C15 1_555 1_555
H16 C19 1_555 1_555
C20 C14 1_555 1_555
H17 C20 1_555 1_555
C21 C20 1_555 1_555
H18 C21 1_555 1_555
H19 C21 1_555 1_555
H20 C21 1_555 1_555
C5 C6 1_555 1_555
C12 C13 1_555 1_555
C18 C19 1_555 1_555

#END
