
#######################################################################
#
#                 Cambridge Crystallographic Data Centre
#                                CCDC 
#
#######################################################################
#
# If this CIF has been generated from an entry in the Cambridge 
# Structural Database, then it will include bibliographic, chemical, 
# crystal, experimental, refinement or atomic coordinate data resulting 
# from the CCDC's data processing and validation procedures.
#
#######################################################################

data_FUXSIC
_chemical_formula_moiety         'C24 H28 Cl1 N1 O3 S1'
_chemical_name_systematic        
4-chloro-4,6,6-trimethyl-1-((4-methylphenyl)sulfonyl)-3-phenyloctahydro-2H-indol-2-one
_symmetry_cell_setting           triclinic
_symmetry_space_group_name_H-M   'P -1'
_symmetry_Int_Tables_number      2
_space_group_name_Hall           '-P 1'
loop_
_symmetry_equiv_pos_site_id
_symmetry_equiv_pos_as_xyz
1 x,y,z
2 -x,-y,-z
_cell_length_a                   11.7670(3)
_cell_length_b                   12.4537(4)
_cell_length_c                   15.7544(4)
_cell_angle_alpha                80.2810(10)
_cell_angle_beta                 88.7590(10)
_cell_angle_gamma                84.9020(10)
_cell_volume                     2266.5
_exptl_crystal_colour            colorless
_exptl_crystal_description       prism
_cell_formula_units_Z            4
loop_
_atom_site_label
_atom_site_type_symbol
_atom_site_fract_x
_atom_site_fract_y
_atom_site_fract_z
C1 C 1.04457(16) -0.08278(19) 0.33057(14)
C2 C 1.09843(19) -0.1568(2) 0.28285(15)
H1 H 1.1219 -0.1332 0.2251
C3 C 1.1175(2) -0.2653(2) 0.32055(16)
H2 H 1.1536 -0.3165 0.2881
C4 C 1.08462(19) -0.3007(2) 0.40509(15)
C5 C 1.1135(3) -0.4182(2) 0.44676(18)
H3 H 1.1093 -0.4238 0.5095
H4 H 1.1910 -0.4425 0.4298
H5 H 1.0592 -0.4644 0.4279
C6 C 1.02988(18) -0.2255(2) 0.45071(15)
H6 H 1.0060 -0.2492 0.5083
C7 C 1.00895(18) -0.1166(2) 0.41473(15)
H7 H 0.9710 -0.0659 0.4469
C8 C 0.80035(16) 0.07379(18) 0.26471(14)
C9 C 0.71359(15) 0.10128(18) 0.19116(13)
H8 H 0.6884 0.1811 0.1831
C10 C 0.61068(16) 0.03692(19) 0.21195(14)
C11 C 0.6240(2) -0.0759(2) 0.23187(15)
H9 H 0.6984 -0.1127 0.2340
C12 C 0.5299(2) -0.1360(2) 0.24872(17)
H10 H 0.5399 -0.2135 0.2618
C13 C 0.4216(2) -0.0828(3) 0.24641(18)
H11 H 0.3570 -0.1237 0.2577
C14 C 0.4075(2) 0.0290(3) 0.22785(18)
H12 H 0.3330 0.0654 0.2268
C15 C 0.50132(18) 0.0893(2) 0.21056(16)
H13 H 0.4907 0.1668 0.1977
C16 C 0.78618(16) 0.07740(18) 0.11251(13)
H14 H 0.7916 -0.0034 0.1136
C17 C 0.74397(17) 0.13248(19) 0.02283(14)
C18 C 0.61793(18) 0.1229(2) 0.00835(16)
H15 H 0.5716 0.1673 0.0442
H16 H 0.6015 0.0463 0.0239
H17 H 0.5996 0.1490 -0.0524
C19 C 0.7697(2) 0.2513(2) -0.00039(18)
H18 H 0.7138 0.2954 0.0304
H19 H 0.7559 0.2747 -0.0628
C20 C 0.8899(2) 0.2802(2) 0.0189(2)
C21 C 0.9824(2) 0.2455(4) -0.0433(2)
H20 H 1.0512 0.2824 -0.0370
H21 H 0.9548 0.2659 -0.1026
H22 H 1.0005 0.1662 -0.0302
C22 C 0.8847(3) 0.4053(3) 0.0140(3)
H23 H 0.8182 0.4296 0.0467
H24 H 0.8780 0.4410 -0.0462
H25 H 0.9543 0.4246 0.0386
C23 C 0.91830(18) 0.2296(2) 0.11152(17)
H26 H 0.9978 0.2426 0.1232
H27 H 0.8678 0.2674 0.1504
C24 C 0.90578(16) 0.10771(18) 0.13304(14)
H28 H 0.9666 0.0654 0.1040
N1 N 0.90866(13) 0.07195(15) 0.22787(11)
O1 O 1.11638(12) 0.07743(13) 0.22096(11)
O2 O 1.01535(13) 0.11984(14) 0.35186(11)
O3 O 0.77989(12) 0.05618(14) 0.34081(10)
S1 S 1.02943(4) 0.05603(5) 0.28489(4)
Cl1 Cl 0.81912(6) 0.05086(6) -0.05217(4)
C25 C 0.32731(17) 0.41516(18) 0.13078(15)
C26 C 0.26829(19) 0.3222(2) 0.14612(16)
H29 H 0.2333 0.3006 0.2005
C27 C 0.2613(2) 0.2616(2) 0.08072(16)
H30 H 0.2221 0.1971 0.0909
C28 C 0.31024(18) 0.2929(2) 0.00085(16)
C29 C 0.3041(3) 0.2258(3) -0.06938(19)
H31 H 0.2622 0.2693 -0.1184
H32 H 0.2647 0.1604 -0.0477
H33 H 0.3815 0.2039 -0.0879
C30 C 0.3665(2) 0.3876(2) -0.01326(16)
H34 H 0.3994 0.4106 -0.0682
C31 C 0.37554(19) 0.4487(2) 0.05088(16)
H35 H 0.4145 0.5133 0.0404
C32 C 0.54893(16) 0.38772(18) 0.24871(15)
C33 C 0.62136(16) 0.33867(17) 0.32708(13)
H36 H 0.6385 0.2583 0.3284
C34 C 0.73202(17) 0.39491(18) 0.31837(14)
C35 C 0.83748(18) 0.3354(2) 0.31904(15)
H37 H 0.8421 0.2578 0.3301
C36 C 0.93639(19) 0.3890(2) 0.30356(17)
H38 H 1.0083 0.3477 0.3039
C37 C 0.9311(2) 0.5012(3) 0.28775(18)
H39 H 0.9988 0.5374 0.2754
C38 C 0.8269(2) 0.5611(2) 0.28986(19)
H40 H 0.8231 0.6387 0.2810
C39 C 0.7277(2) 0.5081(2) 0.30496(18)
H41 H 0.6562 0.5497 0.3061
C40 C 0.54497(16) 0.35882(16) 0.40462(13)
H42 H 0.5633 0.4303 0.4194
C41 C 0.56074(17) 0.27360(17) 0.48795(14)
C42 C 0.68393(18) 0.2274(2) 0.50228(16)
H43 H 0.6916 0.1834 0.5599
H44 H 0.7333 0.2876 0.4972
H45 H 0.7064 0.1814 0.4590
C43 C 0.48372(18) 0.18005(18) 0.49588(15)
H46 H 0.4835 0.1444 0.5570
H47 H 0.5193 0.1255 0.4622
C44 C 0.35906(18) 0.20650(19) 0.46722(15)
C45 C 0.2849(2) 0.2685(2) 0.52771(17)
H48 H 0.2866 0.2255 0.5859
H49 H 0.2062 0.2804 0.5069
H50 H 0.3147 0.3393 0.5290
C46 C 0.3083(2) 0.0980(2) 0.46380(19)
H51 H 0.3546 0.0575 0.4253
H52 H 0.2300 0.1129 0.4422
H53 H 0.3079 0.0545 0.5217
C47 C 0.36091(17) 0.27196(18) 0.37615(14)
H54 H 0.3995 0.2253 0.3373
H55 H 0.2814 0.2914 0.3561
C48 C 0.42139(16) 0.37617(17) 0.36972(13)
H56 H 0.3750 0.4311 0.3986
N2 N 0.44184(14) 0.42193(14) 0.27792(11)
O4 O 0.24059(13) 0.49274(15) 0.26402(11)
O5 O 0.38557(16) 0.59334(13) 0.17532(11)
O6 O 0.57875(13) 0.39739(15) 0.17435(10)
S2 S 0.34166(5) 0.49260(5) 0.21241(4)
Cl2 Cl 0.52869(6) 0.35084(5) 0.57719(4)
loop_
_geom_bond_atom_site_label_1
_geom_bond_atom_site_label_2
_geom_bond_site_symmetry_1
_geom_bond_site_symmetry_2
C1 C2 1_555 1_555
C2 H1 1_555 1_555
C3 C2 1_555 1_555
H2 C3 1_555 1_555
C4 C3 1_555 1_555
C5 C4 1_555 1_555
H3 C5 1_555 1_555
H4 C5 1_555 1_555
H5 C5 1_555 1_555
C6 C4 1_555 1_555
H6 C6 1_555 1_555
C7 C1 1_555 1_555
H7 C7 1_555 1_555
C8 C9 1_555 1_555
C9 H8 1_555 1_555
C10 C9 1_555 1_555
C11 C10 1_555 1_555
H9 C11 1_555 1_555
C12 C11 1_555 1_555
H10 C12 1_555 1_555
C13 C12 1_555 1_555
H11 C13 1_555 1_555
C14 C13 1_555 1_555
H12 C14 1_555 1_555
C15 C10 1_555 1_555
H13 C15 1_555 1_555
C16 C9 1_555 1_555
H14 C16 1_555 1_555
C17 C16 1_555 1_555
C18 C17 1_555 1_555
H15 C18 1_555 1_555
H16 C18 1_555 1_555
H17 C18 1_555 1_555
C19 C17 1_555 1_555
H18 C19 1_555 1_555
H19 C19 1_555 1_555
C20 C19 1_555 1_555
C21 C20 1_555 1_555
H20 C21 1_555 1_555
H21 C21 1_555 1_555
H22 C21 1_555 1_555
C22 C20 1_555 1_555
H23 C22 1_555 1_555
H24 C22 1_555 1_555
H25 C22 1_555 1_555
C23 C20 1_555 1_555
H26 C23 1_555 1_555
H27 C23 1_555 1_555
C24 C16 1_555 1_555
H28 C24 1_555 1_555
N1 C8 1_555 1_555
O1 S1 1_555 1_555
O2 S1 1_555 1_555
O3 C8 1_555 1_555
S1 C1 1_555 1_555
Cl1 C17 1_555 1_555
C25 C26 1_555 1_555
C26 H29 1_555 1_555
C27 C26 1_555 1_555
H30 C27 1_555 1_555
C28 C27 1_555 1_555
C29 C28 1_555 1_555
H31 C29 1_555 1_555
H32 C29 1_555 1_555
H33 C29 1_555 1_555
C30 C28 1_555 1_555
H34 C30 1_555 1_555
C31 C25 1_555 1_555
H35 C31 1_555 1_555
C32 C33 1_555 1_555
C33 H36 1_555 1_555
C34 C33 1_555 1_555
C35 C34 1_555 1_555
H37 C35 1_555 1_555
C36 C35 1_555 1_555
H38 C36 1_555 1_555
C37 C36 1_555 1_555
H39 C37 1_555 1_555
C38 C37 1_555 1_555
H40 C38 1_555 1_555
C39 C34 1_555 1_555
H41 C39 1_555 1_555
C40 C33 1_555 1_555
H42 C40 1_555 1_555
C41 C40 1_555 1_555
C42 C41 1_555 1_555
H43 C42 1_555 1_555
H44 C42 1_555 1_555
H45 C42 1_555 1_555
C43 C41 1_555 1_555
H46 C43 1_555 1_555
H47 C43 1_555 1_555
C44 C43 1_555 1_555
C45 C44 1_555 1_555
H48 C45 1_555 1_555
H49 C45 1_555 1_555
H50 C45 1_555 1_555
C46 C44 1_555 1_555
H51 C46 1_555 1_555
H52 C46 1_555 1_555
H53 C46 1_555 1_555
C47 C44 1_555 1_555
H54 C47 1_555 1_555
H55 C47 1_555 1_555
C48 C40 1_555 1_555
H56 C48 1_555 1_555
N2 C32 1_555 1_555
O4 S2 1_555 1_555
O5 S2 1_555 1_555
O6 C32 1_555 1_555
S2 C25 1_555 1_555
Cl2 C41 1_555 1_555
C6 C7 1_555 1_555
C14 C15 1_555 1_555
C23 C24 1_555 1_555
C24 N1 1_555 1_555
N1 S1 1_555 1_555
C30 C31 1_555 1_555
C38 C39 1_555 1_555
C47 C48 1_555 1_555
C48 N2 1_555 1_555
N2 S2 1_555 1_555

#END
