
#######################################################################
#
#                 Cambridge Crystallographic Data Centre
#                                CCDC 
#
#######################################################################
#
# If this CIF has been generated from an entry in the Cambridge 
# Structural Database, then it will include bibliographic, chemical, 
# crystal, experimental, refinement or atomic coordinate data resulting 
# from the CCDC's data processing and validation procedures.
#
#######################################################################

data_FUXYUU
_chemical_formula_moiety         'C24 H30 N2 O3 S1 Si2'
_chemical_name_systematic        
8-((2,2,4,4-tetramethyl-1-phenyl-3-oxa-7-aza-2,4-disilabicyclo[3.3.1]nonan-7-yl)sulfonyl)quinoline
_symmetry_cell_setting           triclinic
_symmetry_space_group_name_H-M   'P -1'
_symmetry_Int_Tables_number      2
_space_group_name_Hall           '-P 1'
loop_
_symmetry_equiv_pos_site_id
_symmetry_equiv_pos_as_xyz
1 x,y,z
2 -x,-y,-z
_cell_length_a                   9.9346(13)
_cell_length_b                   11.8387(16)
_cell_length_c                   11.9667(16)
_cell_angle_alpha                65.486(2)
_cell_angle_beta                 88.359(3)
_cell_angle_gamma                75.099(3)
_cell_volume                     1232.62
_exptl_crystal_colour            colorless
_exptl_crystal_description       Rod
_cell_formula_units_Z            2
loop_
_atom_site_label
_atom_site_type_symbol
_atom_site_fract_x
_atom_site_fract_y
_atom_site_fract_z
C1 C 0.1172(5) 0.9745(4) 0.1872(4)
C2 C 0.1443(5) 1.0883(5) 0.1091(4)
H1 H 0.2348 1.0997 0.1145
C3 C 0.0404(6) 1.1877(5) 0.0216(5)
H2 H 0.0615 1.2653 -0.0322
C4 C -0.0900(6) 1.1744(5) 0.0127(5)
H3 H -0.1592 1.2418 -0.0480
C5 C -0.1228(5) 1.0602(5) 0.0940(4)
C6 C -0.2585(6) 1.0426(6) 0.0903(5)
H4 H -0.3308 1.1083 0.0316
C7 C -0.2839(6) 0.9310(6) 0.1717(5)
H5 H -0.3739 0.9173 0.1713
C8 C -0.1743(6) 0.8373(6) 0.2557(5)
H6 H -0.1939 0.7602 0.3127
N1 N -0.0462(4) 0.8467(4) 0.2626(4)
C9 C -0.0202(5) 0.9591(5) 0.1823(4)
S1 S 0.25992(12) 0.84756(12) 0.28521(10)
O1 O 0.3789(3) 0.8972(4) 0.2558(3)
O2 O 0.2614(3) 0.7328(3) 0.2738(3)
N2 N 0.2381(4) 0.8214(4) 0.4291(3)
C10 C 0.2391(5) 0.9263(5) 0.4635(4)
H7 H 0.1446 0.9871 0.4451
H8 H 0.3050 0.9742 0.4156
C11 C 0.2835(5) 0.8693(5) 0.6003(4)
H9 H 0.2741 0.9426 0.6237
C12 C 0.1835(5) 0.7902(5) 0.6751(4)
H10 H 0.2173 0.7490 0.7636
H11 H 0.0894 0.8494 0.6654
C13 C 0.1717(5) 0.6854(4) 0.6347(4)
C14 C 0.1368(5) 0.7500(4) 0.4936(4)
H12 H 0.1369 0.6832 0.4643
H13 H 0.0418 0.8101 0.4734
C15 C 0.0547(5) 0.6243(5) 0.6918(4)
C16 C 0.0008(5) 0.6297(5) 0.7988(4)
H14 H 0.0370 0.6735 0.8367
C17 C -0.1044(5) 0.5725(5) 0.8510(5)
H15 H -0.1392 0.5776 0.9241
C18 C -0.1595(5) 0.5083(5) 0.7985(5)
H16 H -0.2338 0.4715 0.8330
C19 C -0.1044(6) 0.4987(5) 0.6950(5)
H17 H -0.1387 0.4524 0.6590
C20 C 0.0003(6) 0.5559(5) 0.6431(5)
H18 H 0.0364 0.5481 0.5714
Si1 Si 0.47208(14) 0.76551(14) 0.64595(13)
O3 O 0.4698(3) 0.6192(3) 0.6733(3)
Si2 Si 0.34367(14) 0.54987(13) 0.68674(12)
C21 C 0.5905(5) 0.8172(5) 0.5242(5)
H19 H 0.6848 0.7587 0.5522
H20 H 0.5933 0.9051 0.5067
H21 H 0.5564 0.8153 0.4492
C22 C 0.5309(6) 0.7718(7) 0.7887(6)
H22 H 0.4688 0.7410 0.8529
H23 H 0.5283 0.8608 0.7716
H24 H 0.6267 0.7168 0.8169
C23 C 0.3485(7) 0.4398(6) 0.8531(5)
H25 H 0.4401 0.3763 0.8801
H26 H 0.2753 0.3950 0.8644
H27 H 0.3327 0.4901 0.9021
C24 C 0.3655(6) 0.4561(5) 0.5939(6)
H28 H 0.3672 0.5131 0.5070
H29 H 0.2874 0.4174 0.6030
H30 H 0.4537 0.3878 0.6225
loop_
_geom_bond_atom_site_label_1
_geom_bond_atom_site_label_2
_geom_bond_site_symmetry_1
_geom_bond_site_symmetry_2
C1 C2 1_555 1_555
C2 H1 1_555 1_555
C3 C2 1_555 1_555
H2 C3 1_555 1_555
C4 C3 1_555 1_555
H3 C4 1_555 1_555
C5 C4 1_555 1_555
C6 C5 1_555 1_555
H4 C6 1_555 1_555
C7 C6 1_555 1_555
H5 C7 1_555 1_555
C8 C7 1_555 1_555
H6 C8 1_555 1_555
N1 C8 1_555 1_555
C9 C1 1_555 1_555
S1 C1 1_555 1_555
O1 S1 1_555 1_555
O2 S1 1_555 1_555
N2 S1 1_555 1_555
C10 N2 1_555 1_555
H7 C10 1_555 1_555
H8 C10 1_555 1_555
C11 C10 1_555 1_555
H9 C11 1_555 1_555
C12 C11 1_555 1_555
H10 C12 1_555 1_555
H11 C12 1_555 1_555
C13 C12 1_555 1_555
C14 N2 1_555 1_555
H12 C14 1_555 1_555
H13 C14 1_555 1_555
C15 C13 1_555 1_555
C16 C15 1_555 1_555
H14 C16 1_555 1_555
C17 C16 1_555 1_555
H15 C17 1_555 1_555
C18 C17 1_555 1_555
H16 C18 1_555 1_555
C19 C18 1_555 1_555
H17 C19 1_555 1_555
C20 C15 1_555 1_555
H18 C20 1_555 1_555
Si1 C11 1_555 1_555
O3 Si1 1_555 1_555
Si2 C13 1_555 1_555
C21 Si1 1_555 1_555
H19 C21 1_555 1_555
H20 C21 1_555 1_555
H21 C21 1_555 1_555
C22 Si1 1_555 1_555
H22 C22 1_555 1_555
H23 C22 1_555 1_555
H24 C22 1_555 1_555
C23 Si2 1_555 1_555
H25 C23 1_555 1_555
H26 C23 1_555 1_555
H27 C23 1_555 1_555
C24 Si2 1_555 1_555
H28 C24 1_555 1_555
H29 C24 1_555 1_555
H30 C24 1_555 1_555
C5 C9 1_555 1_555
N1 C9 1_555 1_555
C13 C14 1_555 1_555
C19 C20 1_555 1_555
O3 Si2 1_555 1_555

#END
