
#######################################################################
#
#                 Cambridge Crystallographic Data Centre
#                                CCDC 
#
#######################################################################
#
# If this CIF has been generated from an entry in the Cambridge 
# Structural Database, then it will include bibliographic, chemical, 
# crystal, experimental, refinement or atomic coordinate data resulting 
# from the CCDC's data processing and validation procedures.
#
#######################################################################

data_FUXYOO
_chemical_formula_moiety         'C22 H34 N2 O3 S1 Si2'
_chemical_name_systematic        
8-((2,2,4,4-tetraethyl-3-oxa-7-aza-2,4-disilabicyclo[3.3.1]nonan-7-yl)sulfonyl)quinoline
_symmetry_cell_setting           triclinic
_symmetry_space_group_name_H-M   'P -1'
_symmetry_Int_Tables_number      2
_space_group_name_Hall           '-P 1'
loop_
_symmetry_equiv_pos_site_id
_symmetry_equiv_pos_as_xyz
1 x,y,z
2 -x,-y,-z
_cell_length_a                   8.798(3)
_cell_length_b                   8.917(5)
_cell_length_c                   15.981(7)
_cell_angle_alpha                92.26(3)
_cell_angle_beta                 100.248(10)
_cell_angle_gamma                97.674(13)
_cell_volume                     1220.12
_exptl_crystal_colour            colorless
_exptl_crystal_description       Block
_cell_formula_units_Z            2
loop_
_atom_site_label
_atom_site_type_symbol
_atom_site_fract_x
_atom_site_fract_y
_atom_site_fract_z
C1 C 0.4295(2) 0.1037(2) 0.11800(13)
C2 C 0.4377(3) -0.0410(2) 0.14238(14)
H1 H 0.3530 -0.0945 0.1634
C3 C 0.5706(3) -0.1119(3) 0.13671(16)
H2 H 0.5749 -0.2122 0.1540
C4 C 0.6929(3) -0.0351(3) 0.10621(16)
H3 H 0.7818 -0.0831 0.1023
C5 C 0.6888(2) 0.1134(3) 0.08072(14)
C6 C 0.8121(3) 0.1967(3) 0.04811(16)
H4 H 0.9031 0.1527 0.0435
C7 C 0.7998(3) 0.3384(3) 0.02369(16)
H5 H 0.8817 0.3950 0.0018
C8 C 0.6643(3) 0.4007(3) 0.03109(15)
H6 H 0.6574 0.5002 0.0131
N1 N 0.5455(2) 0.3305(2) 0.06137(12)
C9 C 0.5554(2) 0.1867(2) 0.08642(13)
S1 S 0.25844(6) 0.18246(6) 0.13086(3)
O1 O 0.14887(18) 0.05795(18) 0.14802(11)
O2 O 0.21144(17) 0.27447(18) 0.06232(10)
N2 N 0.30536(19) 0.29292(19) 0.21920(11)
C10 C 0.3590(2) 0.2140(2) 0.29646(14)
H7 H 0.4685 0.1973 0.2985
H8 H 0.2940 0.1138 0.2945
C11 C 0.3469(2) 0.3086(2) 0.37594(14)
H9 H 0.3962 0.2576 0.4263
C12 C 0.4454(3) 0.4653(3) 0.37600(15)
H10 H 0.5566 0.4529 0.3800
H11 H 0.4361 0.5294 0.4263
C13 C 0.3900(3) 0.5440(2) 0.29376(14)
H12 H 0.4656 0.6384 0.2941
C14 C 0.4016(3) 0.4417(2) 0.21625(14)
H13 H 0.3636 0.4892 0.1630
H14 H 0.5117 0.4277 0.2173
Si1 Si 0.14022(7) 0.32686(6) 0.38990(4)
O3 O 0.09985(18) 0.48756(17) 0.35115(10)
Si2 Si 0.19213(8) 0.60498(6) 0.29418(4)
C15 C 0.1339(3) 0.3413(3) 0.50621(15)
H15 H 0.2048 0.4333 0.5324
H16 H 0.0269 0.3557 0.5127
C16 C 0.1788(4) 0.2061(4) 0.55623(19)
H17 H 0.1090 0.1140 0.5316
H18 H 0.1693 0.2240 0.6159
H19 H 0.2868 0.1937 0.5533
C17 C -0.0061(3) 0.1691(3) 0.33296(16)
H20 H 0.0100 0.1573 0.2734
H21 H 0.0128 0.0739 0.3602
C18 C -0.1755(3) 0.1913(4) 0.3319(2)
H22 H -0.1945 0.1972 0.3904
H23 H -0.2451 0.1055 0.2994
H24 H -0.1956 0.2854 0.3051
C19 C 0.2170(4) 0.7989(3) 0.34686(17)
H25 H 0.2541 0.8719 0.3073
H26 H 0.1129 0.8208 0.3548
C20 C 0.3260(4) 0.8294(4) 0.4314(2)
H27 H 0.2964 0.7534 0.4705
H28 H 0.3194 0.9307 0.4554
H29 H 0.4331 0.8241 0.4236
C21 C 0.0733(4) 0.6062(3) 0.18598(17)
H30 H 0.1328 0.6735 0.1516
H31 H 0.0561 0.5025 0.1583
C22 C -0.0841(5) 0.6589(4) 0.1856(3)
H32 H -0.1461 0.5897 0.2169
H33 H -0.1392 0.6594 0.1267
H34 H -0.0684 0.7615 0.2129
loop_
_geom_bond_atom_site_label_1
_geom_bond_atom_site_label_2
_geom_bond_site_symmetry_1
_geom_bond_site_symmetry_2
C1 C2 1_555 1_555
C2 H1 1_555 1_555
C3 C2 1_555 1_555
H2 C3 1_555 1_555
C4 C3 1_555 1_555
H3 C4 1_555 1_555
C5 C4 1_555 1_555
C6 C5 1_555 1_555
H4 C6 1_555 1_555
C7 C6 1_555 1_555
H5 C7 1_555 1_555
C8 C7 1_555 1_555
H6 C8 1_555 1_555
N1 C8 1_555 1_555
C9 C1 1_555 1_555
S1 C1 1_555 1_555
O1 S1 1_555 1_555
O2 S1 1_555 1_555
N2 S1 1_555 1_555
C10 N2 1_555 1_555
H7 C10 1_555 1_555
H8 C10 1_555 1_555
C11 C10 1_555 1_555
H9 C11 1_555 1_555
C12 C11 1_555 1_555
H10 C12 1_555 1_555
H11 C12 1_555 1_555
C13 C12 1_555 1_555
H12 C13 1_555 1_555
C14 N2 1_555 1_555
H13 C14 1_555 1_555
H14 C14 1_555 1_555
Si1 C11 1_555 1_555
O3 Si1 1_555 1_555
Si2 C13 1_555 1_555
C15 Si1 1_555 1_555
H15 C15 1_555 1_555
H16 C15 1_555 1_555
C16 C15 1_555 1_555
H17 C16 1_555 1_555
H18 C16 1_555 1_555
H19 C16 1_555 1_555
C17 Si1 1_555 1_555
H20 C17 1_555 1_555
H21 C17 1_555 1_555
C18 C17 1_555 1_555
H22 C18 1_555 1_555
H23 C18 1_555 1_555
H24 C18 1_555 1_555
C19 Si2 1_555 1_555
H25 C19 1_555 1_555
H26 C19 1_555 1_555
C20 C19 1_555 1_555
H27 C20 1_555 1_555
H28 C20 1_555 1_555
H29 C20 1_555 1_555
C21 Si2 1_555 1_555
H30 C21 1_555 1_555
H31 C21 1_555 1_555
C22 C21 1_555 1_555
H32 C22 1_555 1_555
H33 C22 1_555 1_555
H34 C22 1_555 1_555
C5 C9 1_555 1_555
N1 C9 1_555 1_555
C13 C14 1_555 1_555
O3 Si2 1_555 1_555

#END
