
#######################################################################
#
#                 Cambridge Crystallographic Data Centre
#                                CCDC 
#
#######################################################################
#
# If this CIF has been generated from an entry in the Cambridge 
# Structural Database, then it will include bibliographic, chemical, 
# crystal, experimental, refinement or atomic coordinate data resulting 
# from the CCDC's data processing and validation procedures.
#
#######################################################################

data_FUXZAB
_chemical_formula_moiety         'C24 H27 N2 O2 S1 Si1'
_chemical_name_systematic        
8-((3-(diethylsilyl)-4-phenyl-3,6-dihydropyridin-1(2H)-yl)sulfonyl)quinoline
_symmetry_cell_setting           monoclinic
_symmetry_space_group_name_H-M   'P 21/n'
_symmetry_Int_Tables_number      14
_space_group_name_Hall           '-P 2yn'
loop_
_symmetry_equiv_pos_site_id
_symmetry_equiv_pos_as_xyz
1 x,y,z
2 1/2-x,1/2+y,1/2-z
3 -x,-y,-z
4 1/2+x,1/2-y,1/2+z
_cell_length_a                   6.985(4)
_cell_length_b                   25.542(13)
_cell_length_c                   13.145(7)
_cell_angle_alpha                90
_cell_angle_beta                 103.904(11)
_cell_angle_gamma                90
_cell_volume                     2276.5
_exptl_crystal_colour            colorless
_exptl_crystal_description       Rod
_cell_formula_units_Z            4
loop_
_atom_site_label
_atom_site_type_symbol
_atom_site_fract_x
_atom_site_fract_y
_atom_site_fract_z
C1 C 0.5235(6) 0.32002(13) 0.5481(3)
C2 C 0.7027(6) 0.32904(14) 0.6161(3)
H1 H 0.7999 0.3488 0.5934
C3 C 0.7443(6) 0.30948(15) 0.7188(3)
H2 H 0.8703 0.3156 0.7642
C4 C 0.6072(7) 0.28181(14) 0.7544(3)
H3 H 0.6369 0.2691 0.8243
C5 C 0.4215(6) 0.27218(13) 0.6871(3)
C6 C 0.2727(7) 0.24291(14) 0.7189(3)
H4 H 0.2947 0.2302 0.7886
C7 C 0.1002(7) 0.23339(16) 0.6493(4)
H5 H -0.0008 0.2141 0.6696
C8 C 0.0717(6) 0.25247(15) 0.5458(4)
H6 H -0.0503 0.2451 0.4976
N1 N 0.2040(5) 0.27981(12) 0.5119(3)
C9 C 0.3781(6) 0.29001(13) 0.5819(3)
S1 S 0.48752(15) 0.34434(4) 0.41746(8)
O1 O 0.6633(4) 0.37294(10) 0.4170(2)
O2 O 0.4331(4) 0.30147(9) 0.3457(2)
N2 N 0.3088(4) 0.38636(11) 0.3938(2)
C10 C 0.3355(6) 0.43349(14) 0.4604(3)
H7 H 0.4647 0.4497 0.4611
H8 H 0.3355 0.4235 0.5331
C11 C 0.1752(6) 0.47229(14) 0.4210(3)
H9 H 0.1861 0.5054 0.4550
C12 C 0.0185(5) 0.46442(14) 0.3424(3)
C13 C -0.0111(5) 0.41243(13) 0.2850(3)
H10 H -0.1543 0.4037 0.2734
C14 C 0.1012(5) 0.36997(13) 0.3567(3)
H11 H 0.0419 0.3647 0.4172
H12 H 0.0938 0.3365 0.3180
C15 C -0.1306(6) 0.50642(14) 0.3081(3)
C16 C -0.0741(6) 0.55776(15) 0.2978(3)
H13 H 0.0622 0.5664 0.3136
C17 C -0.2127(7) 0.59666(16) 0.2648(4)
H14 H -0.1704 0.6315 0.2575
C18 C -0.4089(7) 0.58560(17) 0.2426(3)
H15 H -0.5030 0.6126 0.2199
C19 C -0.4710(6) 0.53469(16) 0.2531(3)
H16 H -0.6078 0.5267 0.2383
C20 C -0.3324(6) 0.49564(15) 0.2853(3)
H17 H -0.3754 0.4608 0.2921
Si1 Si 0.04167(17) 0.41710(4) 0.15020(9)
C21 C -0.1651(8) 0.45181(17) 0.0568(4)
H18 H -0.1797 0.4873 0.0844
H19 H -0.1300 0.4559 -0.0114
C22 C -0.3631(8) 0.4232(2) 0.0390(4)
H20 H -0.3527 0.3890 0.0069
H21 H -0.4656 0.4441 -0.0075
H22 H -0.3976 0.4182 0.1064
C23 C 0.0694(7) 0.35058(15) 0.0976(3)
H23 H 0.1807 0.3327 0.1460
H24 H -0.0516 0.3303 0.0969
C24 C 0.1056(8) 0.34934(18) -0.0121(4)
H25 H -0.0051 0.3661 -0.0614
H26 H 0.1172 0.3129 -0.0334
H27 H 0.2278 0.3682 -0.0122
loop_
_geom_bond_atom_site_label_1
_geom_bond_atom_site_label_2
_geom_bond_site_symmetry_1
_geom_bond_site_symmetry_2
C1 C2 1_555 1_555
C2 H1 1_555 1_555
C3 C2 1_555 1_555
H2 C3 1_555 1_555
C4 C3 1_555 1_555
H3 C4 1_555 1_555
C5 C4 1_555 1_555
C6 C5 1_555 1_555
H4 C6 1_555 1_555
C7 C6 1_555 1_555
H5 C7 1_555 1_555
C8 C7 1_555 1_555
H6 C8 1_555 1_555
N1 C8 1_555 1_555
C9 C1 1_555 1_555
S1 C1 1_555 1_555
O1 S1 1_555 1_555
O2 S1 1_555 1_555
N2 S1 1_555 1_555
C10 N2 1_555 1_555
H7 C10 1_555 1_555
H8 C10 1_555 1_555
C11 C10 1_555 1_555
H9 C11 1_555 1_555
C12 C11 1_555 1_555
C13 C12 1_555 1_555
H10 C13 1_555 1_555
C14 N2 1_555 1_555
H11 C14 1_555 1_555
H12 C14 1_555 1_555
C15 C12 1_555 1_555
C16 C15 1_555 1_555
H13 C16 1_555 1_555
C17 C16 1_555 1_555
H14 C17 1_555 1_555
C18 C17 1_555 1_555
H15 C18 1_555 1_555
C19 C18 1_555 1_555
H16 C19 1_555 1_555
C20 C15 1_555 1_555
H17 C20 1_555 1_555
Si1 C13 1_555 1_555
C21 Si1 1_555 1_555
H18 C21 1_555 1_555
H19 C21 1_555 1_555
C22 C21 1_555 1_555
H20 C22 1_555 1_555
H21 C22 1_555 1_555
H22 C22 1_555 1_555
C23 Si1 1_555 1_555
H23 C23 1_555 1_555
H24 C23 1_555 1_555
C24 C23 1_555 1_555
H25 C24 1_555 1_555
H26 C24 1_555 1_555
H27 C24 1_555 1_555
C5 C9 1_555 1_555
N1 C9 1_555 1_555
C13 C14 1_555 1_555
C19 C20 1_555 1_555

#END
