
#######################################################################
#
#                 Cambridge Crystallographic Data Centre
#                                CCDC 
#
#######################################################################
#
# If this CIF has been generated from an entry in the Cambridge 
# Structural Database, then it will include bibliographic, chemical, 
# crystal, experimental, refinement or atomic coordinate data resulting 
# from the CCDC's data processing and validation procedures.
#
#######################################################################

data_FUXZEF
_chemical_formula_moiety         'C20 H28 N2 O2 S1 Si1'
_chemical_name_systematic        
8-((3-(diethylsilyl)-4-ethyl-3,6-dihydropyridin-1(2H)-yl)sulfonyl)quinoline
_symmetry_cell_setting           tetragonal
_symmetry_space_group_name_H-M   'P 43'
_symmetry_Int_Tables_number      78
_space_group_name_Hall           'P 4cw'
loop_
_symmetry_equiv_pos_site_id
_symmetry_equiv_pos_as_xyz
1 x,y,z
2 -x,-y,1/2+z
3 -y,x,3/4+z
4 y,-x,1/4+z
_cell_length_a                   14.9108(5)
_cell_length_b                   14.9108(5)
_cell_length_c                   9.1435(4)
_cell_angle_alpha                90
_cell_angle_beta                 90
_cell_angle_gamma                90
_cell_volume                     2032.89
_exptl_crystal_colour            white
_exptl_crystal_description       rod
_cell_formula_units_Z            4
loop_
_atom_site_label
_atom_site_type_symbol
_atom_site_fract_x
_atom_site_fract_y
_atom_site_fract_z
S1 S 0.25209(5) 0.95133(4) 0.48423(8)
Si1 Si 0.37892(6) 0.72606(6) 0.24257(11)
O1 O 0.33128(15) 0.98837(13) 0.4202(2)
O2 O 0.16879(15) 0.96283(13) 0.4102(2)
N1 N 0.38971(15) 0.96915(15) 0.7314(3)
N2 N 0.26673(15) 0.84373(15) 0.5018(3)
C1 C 0.30540(19) 0.99666(17) 0.7697(3)
C2 C 0.2356(2) 0.99463(18) 0.6639(3)
C3 C 0.1494(2) 1.0210(2) 0.7013(4)
H1 H 0.1029 1.0187 0.6303
C4 C 0.1303(2) 1.0512(2) 0.8441(4)
H2 H 0.0713 1.0702 0.8683
C5 C 0.1956(2) 1.0532(2) 0.9469(4)
H3 H 0.1817 1.0726 1.0432
C6 C 0.2842(2) 1.0268(2) 0.9126(3)
C7 C 0.3553(2) 1.0305(2) 1.0152(3)
H4 H 0.3442 1.0508 1.1120
C8 C 0.4394(2) 1.0053(2) 0.9756(4)
H5 H 0.4880 1.0083 1.0427
C9 C 0.4518(2) 0.97467(19) 0.8328(3)
H6 H 0.5106 0.9561 0.8066
C10 C 0.35633(19) 0.80526(19) 0.5275(3)
H7 H 0.3665 0.7967 0.6335
H8 H 0.4032 0.8459 0.4891
C11 C 0.35997(19) 0.71454(19) 0.4477(3)
H9 H 0.4135 0.6822 0.4872
C12 C 0.2794(2) 0.65879(18) 0.4888(4)
C13 C 0.2074(2) 0.69522(19) 0.5488(3)
H10 H 0.1603 0.6562 0.5778
C14 C 0.19488(19) 0.79353(19) 0.5742(3)
H11 H 0.1360 0.8127 0.5350
H12 H 0.1957 0.8061 0.6805
C15 C 0.2827(2) 0.5584(2) 0.4577(4)
H13 H 0.2239 0.5318 0.4837
H14 H 0.2917 0.5494 0.3514
C16 C 0.3555(3) 0.5087(2) 0.5394(6)
H15 H 0.4143 0.5296 0.5060
H16 H 0.3499 0.4442 0.5207
H17 H 0.3494 0.5201 0.6445
C17 C 0.2768(3) 0.7649(3) 0.1481(4)
H18 H 0.2288 0.7203 0.1653
H19 H 0.2574 0.8218 0.1940
C18 C 0.2846(3) 0.7803(3) -0.0174(5)
H20 H 0.3349 0.8208 -0.0373
H21 H 0.2289 0.8070 -0.0540
H22 H 0.2949 0.7228 -0.0665
C19 C 0.4735(3) 0.8053(3) 0.2110(7)
H23 H 0.4735 0.8204 0.1055
H24 H 0.4592 0.8612 0.2645
C20 C 0.5554(5) 0.7828(5) 0.2459(11)
H25 H 0.5689 0.7233 0.2059
H26 H 0.5614 0.7814 0.3526
H27 H 0.5974 0.8268 0.2053
H28 H 0.408(2) 0.644(2) 0.196(4)
H29? H 0.4460 0.8653 0.1984
H30? H 0.5070 0.8074 0.3043
C21? C 0.5396(5) 0.7970(6) 0.1026(9)
H31? H 0.5807 0.8482 0.1083
H32? H 0.5112 0.7958 0.0060
H33? H 0.5732 0.7413 0.1178
loop_
_geom_bond_atom_site_label_1
_geom_bond_atom_site_label_2
_geom_bond_site_symmetry_1
_geom_bond_site_symmetry_2
S1 O1 1_555 1_555
Si1 C11 1_555 1_555
O2 S1 1_555 1_555
N1 C1 1_555 1_555
N2 S1 1_555 1_555
C1 C2 1_555 1_555
C2 S1 1_555 1_555
C3 C2 1_555 1_555
H1 C3 1_555 1_555
C4 C3 1_555 1_555
H2 C4 1_555 1_555
C5 C4 1_555 1_555
H3 C5 1_555 1_555
C6 C1 1_555 1_555
C7 C6 1_555 1_555
H4 C7 1_555 1_555
C8 C7 1_555 1_555
H5 C8 1_555 1_555
C9 N1 1_555 1_555
H6 C9 1_555 1_555
C10 N2 1_555 1_555
H7 C10 1_555 1_555
H8 C10 1_555 1_555
C11 C10 1_555 1_555
H9 C11 1_555 1_555
C12 C11 1_555 1_555
C13 C12 1_555 1_555
H10 C13 1_555 1_555
C14 N2 1_555 1_555
H11 C14 1_555 1_555
H12 C14 1_555 1_555
C15 C12 1_555 1_555
H13 C15 1_555 1_555
H14 C15 1_555 1_555
C16 C15 1_555 1_555
H15 C16 1_555 1_555
H16 C16 1_555 1_555
H17 C16 1_555 1_555
C17 Si1 1_555 1_555
H18 C17 1_555 1_555
H19 C17 1_555 1_555
C18 C17 1_555 1_555
H20 C18 1_555 1_555
H21 C18 1_555 1_555
H22 C18 1_555 1_555
C19 Si1 1_555 1_555
H23 C19 1_555 1_555
H24 C19 1_555 1_555
C20 C19 1_555 1_555
H25 C20 1_555 1_555
H26 C20 1_555 1_555
H27 C20 1_555 1_555
H28 Si1 1_555 1_555
C5 C6 1_555 1_555
C8 C9 1_555 1_555
C13 C14 1_555 1_555

#END
