
#######################################################################
#
#                 Cambridge Crystallographic Data Centre
#                                CCDC 
#
#######################################################################
#
# If this CIF has been generated from an entry in the Cambridge 
# Structural Database, then it will include bibliographic, chemical, 
# crystal, experimental, refinement or atomic coordinate data resulting 
# from the CCDC's data processing and validation procedures.
#
#######################################################################

data_FUYQAT
_chemical_formula_moiety         'C11 H8 F3 N1 O2 S1'
_chemical_name_systematic        
'methyl 3-((trifluoromethyl)sulfanyl)-1H-indole-5-carboxylate'
_symmetry_cell_setting           triclinic
_symmetry_space_group_name_H-M   'P -1'
_symmetry_Int_Tables_number      2
_space_group_name_Hall           '-P 1'
loop_
_symmetry_equiv_pos_site_id
_symmetry_equiv_pos_as_xyz
1 x,y,z
2 -x,-y,-z
_cell_length_a                   7.699(10)
_cell_length_b                   8.914(11)
_cell_length_c                   9.831(12)
_cell_angle_alpha                73.948(19)
_cell_angle_beta                 82.12(2)
_cell_angle_gamma                64.77(2)
_cell_volume                     586.388
_exptl_crystal_colour            colorless
_exptl_crystal_description       block
_cell_formula_units_Z            2
loop_
_atom_site_label
_atom_site_type_symbol
_atom_site_fract_x
_atom_site_fract_y
_atom_site_fract_z
C1 C 0.0150(8) 0.8816(6) 0.7902(6)
H1 H -0.0495 0.9844 0.7259
C2 C 0.1746(8) 0.7457(7) 0.7593(6)
C3 C 0.2192(7) 0.6094(6) 0.8850(6)
C4 C 0.0887(7) 0.6751(6) 0.9907(6)
C5 C 0.0886(7) 0.5790(6) 1.1277(6)
H2 H -0.0007 0.6246 1.1952
C6 C 0.2217(7) 0.4181(6) 1.1599(6)
H3 H 0.2227 0.3509 1.2511
C7 C 0.3626(7) 0.3462(6) 1.0581(6)
C8 C 0.3602(7) 0.4441(6) 0.9206(6)
H4 H 0.4514 0.3997 0.8536
C9 C 0.5070(7) 0.1692(6) 1.0933(6)
C10 C 0.6191(10) -0.0906(7) 1.2731(8)
H5 H 0.6090 -0.1535 1.2117
H6 H 0.5868 -0.1370 1.3685
H7 H 0.7482 -0.0992 1.2689
C11 C 0.1888(11) 0.6594(8) 0.5139(7)
F1 F -0.0046(6) 0.7400(6) 0.5105(6)
F2 F 0.2613(8) 0.6575(6) 0.3833(4)
F3 F 0.2224(7) 0.4942(5) 0.5787(5)
N1 N -0.0331(7) 0.8416(5) 0.9293(5)
H8 H -0.1248 0.9091 0.9726
O1 O 0.6319(6) 0.1032(5) 1.0135(4)
O2 O 0.4871(6) 0.0886(5) 1.2277(4)
S1 S 0.2968(3) 0.7472(2) 0.59518(19)
loop_
_geom_bond_atom_site_label_1
_geom_bond_atom_site_label_2
_geom_bond_site_symmetry_1
_geom_bond_site_symmetry_2
C1 H1 1_555 1_555
C2 C1 1_555 1_555
C3 C2 1_555 1_555
C4 C3 1_555 1_555
C5 C4 1_555 1_555
H2 C5 1_555 1_555
C6 C5 1_555 1_555
H3 C6 1_555 1_555
C7 C6 1_555 1_555
C8 C3 1_555 1_555
H4 C8 1_555 1_555
C9 C7 1_555 1_555
C10 H5 1_555 1_555
H6 C10 1_555 1_555
H7 C10 1_555 1_555
C11 F1 1_555 1_555
F2 C11 1_555 1_555
F3 C11 1_555 1_555
N1 C1 1_555 1_555
H8 N1 1_555 1_555
O1 C9 1_555 1_555
O2 C9 1_555 1_555
S1 C2 1_555 1_555
C4 N1 1_555 1_555
C7 C8 1_555 1_555
C10 O2 1_555 1_555
C11 S1 1_555 1_555

#END
