
#######################################################################
#
#                 Cambridge Crystallographic Data Centre
#                                CCDC 
#
#######################################################################
#
# If this CIF has been generated from an entry in the Cambridge 
# Structural Database, then it will include bibliographic, chemical, 
# crystal, experimental, refinement or atomic coordinate data resulting 
# from the CCDC's data processing and validation procedures.
#
#######################################################################

data_GABCIX
_chemical_formula_moiety         'C24 H20 Br1 N1 O3 S1'
_chemical_name_systematic        
N-((4-Bromophenyl)(2-hydroxy-1-naphthyl)methyl)-4-methylbenzenesulfonamide
_symmetry_cell_setting           orthorhombic
_symmetry_space_group_name_H-M   'P 21 21 21'
_symmetry_Int_Tables_number      19
_space_group_name_Hall           'P 2ac 2ab'
loop_
_symmetry_equiv_pos_site_id
_symmetry_equiv_pos_as_xyz
1 x,y,z
2 1/2-x,-y,1/2+z
3 -x,1/2+y,1/2-z
4 1/2+x,1/2-y,-z
_cell_length_a                   8.5751(3)
_cell_length_b                   9.2042(4)
_cell_length_c                   27.7948(10)
_cell_angle_alpha                90
_cell_angle_beta                 90
_cell_angle_gamma                90
_cell_volume                     2193.76
_exptl_crystal_colour            colorless
_exptl_crystal_description       block
_cell_formula_units_Z            4
loop_
_atom_site_label
_atom_site_type_symbol
_atom_site_fract_x
_atom_site_fract_y
_atom_site_fract_z
Br1 Br 1.26124(4) 0.44588(4) 0.232080(12)
S1 S 0.43725(9) 0.39889(7) 0.06827(3)
C1 C 0.7987(3) 0.3265(3) 0.15222(10)
C2 C 1.0719(4) 0.3995(3) 0.19983(10)
C3 C 0.8742(4) 0.2281(3) 0.18154(11)
H1 H 0.8327 0.1355 0.1854
C4 C 1.0014(4) 0.4992(3) 0.17111(13)
H2 H 1.0451 0.5909 0.1671
C5 C 1.0105(4) 0.2642(3) 0.20540(11)
H3 H 1.0597 0.1966 0.2251
C6 C 0.8632(4) 0.4631(3) 0.14773(13)
H4 H 0.8135 0.5323 0.1288
C7 C 0.2299(4) 0.1871(3) 0.09181(11)
H5 H 0.1933 0.2512 0.1151
C8 C 0.2219(4) -0.0483(3) 0.05469(13)
C9 C 0.3454(3) 0.2292(3) 0.06057(10)
C10 C 0.3353(4) -0.0022(3) 0.02297(12)
H6 H 0.3702 -0.0660 -0.0007
C11 C 0.1685(4) 0.0486(4) 0.08840(12)
H7 H 0.0895 0.0205 0.1094
C12 C 0.3986(4) 0.1352(3) 0.02518(11)
H8 H 0.4750 0.1642 0.0035
C13 C 0.5378(3) 0.0313(3) 0.15172(10)
C14 C 0.4532(3) 0.0834(3) 0.19188(10)
H9 H 0.4594 0.1813 0.2000
C15 C 0.5269(4) -0.1210(3) 0.14144(11)
C16 C 0.6155(4) -0.1788(3) 0.10324(12)
H10 H 0.6103 -0.2778 0.0967
C17 C 0.3628(4) -0.0070(4) 0.21904(12)
H11 H 0.3085 0.0301 0.2453
C18 C 0.3507(5) -0.1543(4) 0.20794(14)
H12 H 0.2880 -0.2147 0.2265
C19 C 0.4301(5) -0.2092(4) 0.17022(13)
H13 H 0.4208 -0.3075 0.1630
C20 C 0.6322(3) 0.1201(3) 0.12180(10)
C21 C 0.7074(4) -0.0934(3) 0.07611(11)
H14 H 0.7646 -0.1335 0.0510
N1 N 0.6158(3) 0.3681(2) 0.08490(8)
H15 H 0.6928 0.3999 0.0681
C22 C 0.6435(3) 0.2841(3) 0.12965(10)
H16 H 0.5613 0.3111 0.1525
O1 O 0.4519(3) 0.4685(2) 0.02201(7)
O2 O 0.3594(3) 0.4735(2) 0.10619(8)
C23 C 0.7173(3) 0.0570(3) 0.08572(9)
C24 C 0.1586(6) -0.2015(4) 0.05269(17)
H17 H 0.0856 -0.2156 0.0785
H18 H 0.2429 -0.2694 0.0559
H19 H 0.1070 -0.2167 0.0225
O3 O 0.8081(3) 0.1461(2) 0.05800(8)
H20 H 0.8569 0.0971 0.0385
loop_
_geom_bond_atom_site_label_1
_geom_bond_atom_site_label_2
_geom_bond_site_symmetry_1
_geom_bond_site_symmetry_2
Br1 C2 1_555 1_555
S1 C9 1_555 1_555
C1 C3 1_555 1_555
C2 C4 1_555 1_555
C3 H1 1_555 1_555
C4 H2 1_555 1_555
C5 C2 1_555 1_555
H3 C5 1_555 1_555
C6 C1 1_555 1_555
H4 C6 1_555 1_555
C7 H5 1_555 1_555
C8 C10 1_555 1_555
C9 C7 1_555 1_555
C10 H6 1_555 1_555
C11 C7 1_555 1_555
H7 C11 1_555 1_555
C12 C9 1_555 1_555
H8 C12 1_555 1_555
C13 C14 1_555 1_555
C14 H9 1_555 1_555
C15 C13 1_555 1_555
C16 C15 1_555 1_555
H10 C16 1_555 1_555
C17 C14 1_555 1_555
H11 C17 1_555 1_555
C18 C17 1_555 1_555
H12 C18 1_555 1_555
C19 C15 1_555 1_555
H13 C19 1_555 1_555
C20 C13 1_555 1_555
C21 C16 1_555 1_555
H14 C21 1_555 1_555
N1 S1 1_555 1_555
H15 N1 1_555 1_555
C22 C1 1_555 1_555
H16 C22 1_555 1_555
O1 S1 1_555 1_555
O2 S1 1_555 1_555
C23 C20 1_555 1_555
C24 C8 1_555 1_555
H17 C24 1_555 1_555
H18 C24 1_555 1_555
H19 C24 1_555 1_555
O3 C23 1_555 1_555
H20 O3 1_555 1_555
C3 C5 1_555 1_555
C4 C6 1_555 1_555
C8 C11 1_555 1_555
C10 C12 1_555 1_555
C18 C19 1_555 1_555
C20 C22 1_555 1_555
C21 C23 1_555 1_555
N1 C22 1_555 1_555

#END
