
#######################################################################
#
#                 Cambridge Crystallographic Data Centre
#                                CCDC 
#
#######################################################################
#
# If this CIF has been generated from an entry in the Cambridge 
# Structural Database, then it will include bibliographic, chemical, 
# crystal, experimental, refinement or atomic coordinate data resulting 
# from the CCDC's data processing and validation procedures.
#
#######################################################################

data_GABKUP
_chemical_formula_moiety         'C86 H110 Si8,3.5(C7 H8)'
_chemical_name_systematic        
'1,6-bis(4-t-Butylphenyl)-3,4,8,9,12,13-hexakis(trimethylsilylmethylidene)-1,6-disila-2,5,7,10,11,14(1,4)-hexabenzenabicyclo(4.4.4)tetradecaphane toluene solvate'
_symmetry_cell_setting           monoclinic
_symmetry_space_group_name_H-M   'P 21/n'
_symmetry_Int_Tables_number      14
_space_group_name_Hall           '-P 2yn'
loop_
_symmetry_equiv_pos_site_id
_symmetry_equiv_pos_as_xyz
1 x,y,z
2 1/2-x,1/2+y,1/2-z
3 -x,-y,-z
4 1/2+x,1/2-y,1/2+z
_cell_length_a                   19.7159(3)
_cell_length_b                   28.11710(10)
_cell_length_c                   21.0922(4)
_cell_angle_alpha                90
_cell_angle_beta                 112.904(1)
_cell_angle_gamma                90
_cell_volume                     10770.7
_exptl_crystal_colour            colorless
_exptl_crystal_description       block
_cell_formula_units_Z            4
_exptl_crystal_recrystallization_method toluene/acetonitrile
loop_
_atom_site_label
_atom_site_type_symbol
_atom_site_fract_x
_atom_site_fract_y
_atom_site_fract_z
Si1 Si 0.2908(2) 0.46467(12) 0.2930(2)
Si2 Si 0.0492(2) 0.31848(13) 0.3534(2)
Si3 Si 0.5464(2) 0.28379(15) 0.5288(2)
Si4 Si 0.2959(2) 0.14744(14) 0.2898(2)
Si5 Si 0.0771(2) 0.39805(14) -0.0607(2)
Si6 Si -0.2073(2) 0.42418(15) 0.0384(2)
Si7 Si 0.1146(3) 0.63656(15) 0.4405(3)
Si8 Si 0.1586(3) 0.46386(16) 0.6701(2)
C1 C 0.3370(6) 0.4086(4) 0.3386(6)
C2 C 0.3771(7) 0.3807(4) 0.3114(6)
C3 C 0.4019(7) 0.3358(4) 0.3384(6)
C4 C 0.3885(6) 0.3178(4) 0.3938(6)
C5 C 0.3514(7) 0.3470(5) 0.4229(7)
C6 C 0.3268(7) 0.3922(5) 0.3952(7)
C7 C 0.4069(7) 0.2662(4) 0.4154(6)
C8 C 0.3454(7) 0.2336(4) 0.3705(6)
C9 C 0.2707(7) 0.2475(4) 0.3649(6)
C10 C 0.2211(7) 0.2690(4) 0.3047(7)
C11 C 0.1543(7) 0.2874(4) 0.3003(6)
C12 C 0.1326(6) 0.2859(4) 0.3559(6)
C13 C 0.1803(7) 0.2626(4) 0.4149(6)
C14 C 0.2478(7) 0.2441(4) 0.4199(6)
C15 C 0.2139(6) 0.4455(4) 0.2110(6)
C16 C 0.1730(7) 0.4779(4) 0.1605(7)
C17 C 0.1095(7) 0.4659(4) 0.1053(6)
C18 C 0.0817(7) 0.4191(4) 0.0974(6)
C19 C 0.1246(7) 0.3861(4) 0.1454(6)
C20 C 0.1875(7) 0.3978(4) 0.2003(6)
C21 C 0.0118(7) 0.4060(4) 0.0411(6)
C22 C -0.0547(7) 0.4066(4) 0.0605(6)
C23 C -0.0377(7) 0.3864(4) 0.1319(7)
C24 C -0.0062(6) 0.4139(4) 0.1916(6)
C25 C 0.0141(7) 0.3966(5) 0.2564(7)
C26 C 0.0059(6) 0.3465(4) 0.2666(6)
C27 C -0.0262(7) 0.3197(4) 0.2078(7)
C28 C -0.0478(7) 0.3379(4) 0.1413(7)
C29 C 0.2486(7) 0.4942(4) 0.3474(6)
C30 C 0.2913(7) 0.5117(4) 0.4138(7)
C31 C 0.2558(7) 0.5282(4) 0.4583(6)
C32 C 0.1805(7) 0.5264(4) 0.4368(6)
C33 C 0.1383(7) 0.5106(4) 0.3730(6)
C34 C 0.1721(7) 0.4944(4) 0.3285(6)
C35 C 0.1473(7) 0.5389(5) 0.4883(6)
C36 C 0.1461(7) 0.4989(5) 0.5348(7)
C37 C 0.1225(7) 0.4508(4) 0.4985(6)
C38 C 0.0501(7) 0.4386(4) 0.4679(6)
C39 C 0.0291(7) 0.3980(5) 0.4290(6)
C40 C 0.0804(7) 0.3683(4) 0.4183(6)
C41 C 0.1523(7) 0.3803(4) 0.4504(6)
C42 C 0.1763(7) 0.4212(5) 0.4928(6)
C43 C 0.3540(6) 0.5047(4) 0.2725(6)
C44 C 0.3692(7) 0.4964(4) 0.2132(6)
C45 C 0.4157(7) 0.5268(5) 0.1956(7)
C46 C 0.4500(7) 0.5655(5) 0.2349(7)
C47 C 0.4356(8) 0.5734(5) 0.2919(7)
C48 C 0.3896(7) 0.5446(5) 0.3112(6)
C49 C 0.5006(10) 0.6007(7) 0.2151(11)
C50 C 0.4906(13) 0.6508(7) 0.2285(11)
C51 C 0.5827(16) 0.5977(10) 0.2853(15)
C52 C 0.521(2) 0.5788(11) 0.157(2)
C53 C -0.0227(7) 0.2801(4) 0.3649(6)
C54 C -0.0050(8) 0.2404(5) 0.4062(7)
C55 C -0.0619(8) 0.2121(5) 0.4128(7)
C56 C -0.1353(8) 0.2228(5) 0.3782(7)
C57 C -0.1514(8) 0.2625(5) 0.3376(7)
C58 C -0.0958(8) 0.2907(5) 0.3308(7)
C59 C -0.1983(9) 0.1915(7) 0.3860(10)
C60 C -0.2355(10) 0.2197(6) 0.4223(10)
C61 C -0.182(2) 0.1460(15) 0.406(2)
C62 C -0.236(2) 0.1647(11) 0.3233(18)
C63 C 0.4672(7) 0.2513(4) 0.4669(6)
C64 C 0.6262(9) 0.2456(6) 0.5526(11)
C65 C 0.5290(12) 0.2932(10) 0.6095(12)
C66 C 0.5667(12) 0.3400(8) 0.4997(13)
C67 C 0.3597(6) 0.1947(4) 0.3407(6)
C68 C 0.3556(8) 0.1002(5) 0.2785(8)
C69 C 0.2396(8) 0.1237(5) 0.3358(8)
C70 C 0.2347(10) 0.1678(5) 0.2047(9)
C71 C 0.0058(6) 0.3958(4) -0.0227(6)
C72 C 0.0588(7) 0.3487(5) -0.1228(7)
C73 C 0.0670(8) 0.4550(5) -0.1084(7)
C74 C 0.1738(7) 0.3930(5) 0.0023(7)
C75 C -0.1218(7) 0.4215(4) 0.0214(6)
C76 C -0.2612(8) 0.4729(5) -0.0156(8)
C77 C -0.2595(8) 0.3673(5) 0.0149(8)
C78 C -0.1904(7) 0.4367(5) 0.1291(7)
C79 C 0.1197(7) 0.5812(5) 0.4919(6)
C80 C 0.0717(9) 0.6833(5) 0.4741(8)
C81 C 0.0536(12) 0.6277(5) 0.3484(9)
C82 C 0.2072(10) 0.6554(6) 0.4488(11)
C83 C 0.1626(7) 0.5036(5) 0.6019(7)
C84 C 0.0795(9) 0.4837(6) 0.6885(8)
C85 C 0.1504(13) 0.4010(6) 0.6471(9)
C86 C 0.2427(10) 0.4703(7) 0.7483(9)
H1 H 0.3878 0.3923 0.274
H2 H 0.4287 0.317 0.3186
H3 H 0.3427 0.3363 0.4618
H4 H 0.3023 0.4119 0.4163
H5 H 0.2338 0.271 0.2657
H6 H 0.1224 0.3015 0.2583
H7 H 0.1663 0.2593 0.453
H8 H 0.2789 0.2289 0.4612
H9 H 0.1899 0.5099 0.1642
H10 H 0.0841 0.4895 0.0723
H11 H 0.1094 0.3538 0.1398
H12 H 0.2141 0.3737 0.2318
H13 H 0.0015 0.4467 0.1863
H14 H 0.0334 0.4173 0.2948
H15 H -0.034 0.2868 0.2128
H16 H -0.0694 0.3176 0.1026
H17 H 0.3435 0.5127 0.4294
H18 H 0.2848 0.5403 0.5027
H19 H 0.0861 0.5103 0.358
H20 H 0.1415 0.4832 0.284
H21 H 0.0138 0.4584 0.4736
H22 H -0.0217 0.3899 0.4088
H23 H 0.1883 0.3605 0.4444
H24 H 0.2272 0.4281 0.5164
H25 H 0.3476 0.4698 0.1848
H26 H 0.4238 0.5203 0.1549
H27 H 0.4581 0.5999 0.3201
H28 H 0.382 0.5521 0.3518
H29 H 0.0452 0.2318 0.4303
H30 H -0.0487 0.1851 0.442
H31 H -0.2015 0.2711 0.3132
H32 H -0.1092 0.3179 0.3019
H33 H 0.4701 0.2177 0.4728
H34 H 0.6165 0.2166 0.5707
H35 H 0.6368 0.2391 0.5132
H36 H 0.6672 0.2609 0.5866
H37 H 0.5712 0.3074 0.6436
H38 H 0.4878 0.3137 0.5998
H39 H 0.5194 0.2636 0.6256
H40 H 0.6092 0.3534 0.5344
H41 H 0.5756 0.3355 0.459
H42 H 0.5261 0.3609 0.4904
H43 H 0.4096 0.1909 0.3464
H44 H 0.3259 0.0748 0.2526
H45 H 0.3839 0.1128 0.2549
H46 H 0.3876 0.0888 0.3224
H47 H 0.2094 0.1484 0.3415
H48 H 0.2093 0.0986 0.3097
H49 H 0.2711 0.112 0.3796
H50 H 0.2036 0.1923 0.2093
H51 H 0.2631 0.18 0.1808
H52 H 0.2055 0.142 0.1796
H53 H -0.0418 0.3861 -0.0535
H54 H 0.0112 0.3524 -0.1581
H55 H 0.0947 0.3488 -0.1425
H56 H 0.061 0.3193 -0.0998
H57 H 0.0728 0.4809 -0.0778
H58 H 0.1036 0.4568 -0.1272
H59 H 0.0196 0.4564 -0.1445
H60 H 0.1802 0.3637 0.0264
H61 H 0.2062 0.3941 -0.0213
H62 H 0.1847 0.4186 0.0341
H63 H -0.127 0.4326 -0.0228
H64 H -0.2334 0.5014 -0.004
H65 H -0.2729 0.4655 -0.0627
H66 H -0.3055 0.4768 -0.0082
H67 H -0.3047 0.3705 0.0208
H68 H -0.2694 0.3599 -0.0318
H69 H -0.2313 0.3425 0.0436
H70 H -0.1625 0.4115 0.1573
H71 H -0.1639 0.4657 0.1428
H72 H -0.2362 0.4393 0.1341
H73 H 0.0992 0.5841 0.5257
H74 H 0.1012 0.6888 0.5213
H75 H 0.068 0.7118 0.4488
H76 H 0.024 0.6733 0.4694
H77 H 0.0496 0.6567 0.3241
H78 H 0.074 0.6039 0.329
H79 H 0.0062 0.618 0.3451
H80 H 0.2373 0.6604 0.4962
H81 H 0.2286 0.6315 0.4308
H82 H 0.2037 0.6842 0.4242
H83 H 0.1803 0.5345 0.6185
H84 H 0.0874 0.5155 0.7051
H85 H 0.0362 0.4824 0.6476
H86 H 0.074 0.4636 0.7224
H87 H 0.1473 0.3827 0.6837
H88 H 0.1075 0.3961 0.6067
H89 H 0.1926 0.3913 0.6389
H90 H 0.2397 0.4508 0.7838
H91 H 0.2844 0.4609 0.7389
H92 H 0.2485 0.5026 0.7629
C87 C -0.2409(13) 0.2798(10) 0.1533(11)
C88 C -0.2956(18) 0.3087(9) 0.1559(13)
C89 C -0.3670(15) 0.2975(10) 0.1257(13)
C90 C -0.3859(12) 0.2551(9) 0.0937(11)
C91 C -0.3349(13) 0.2235(7) 0.0920(10)
C92 C -0.2591(13) 0.2379(8) 0.1217(11)
C93 C -0.197(2) 0.2115(12) 0.1223(16)
H93 H -0.1909 0.2896 0.1737
H94 H -0.2825 0.338 0.18
H95 H -0.4037 0.3189 0.1269
H96 H -0.4366 0.2471 0.0715
H97 H -0.3486 0.1928 0.0721
H98 H -0.2134 0.1818 0.0997
H99 H -0.1725 0.2288 0.0989
H100 H -0.1642 0.2058 0.1684
C94 C 0.4895(12) 0.3370(9) 0.2006(11)
C95 C 0.432(2) 0.3656(10) 0.1552(15)
C96 C 0.3644(18) 0.3474(12) 0.1255(14)
C97 C 0.3478(15) 0.3071(12) 0.1389(14)
C98 C 0.397(2) 0.2748(9) 0.1763(14)
C99 C 0.4716(15) 0.2863(9) 0.2064(12)
C100 C 0.5366(16) 0.2618(10) 0.2536(14)
H101 H 0.5371 0.3496 0.2262
H102 H 0.4412 0.3974 0.1459
H103 H 0.3274 0.3662 0.0924
H104 H 0.2971 0.2988 0.1218
H105 H 0.3805 0.2439 0.1821
H106 H 0.5262 0.2291 0.2564
H107 H 0.5758 0.2646 0.2378
H108 H 0.5521 0.2757 0.2983
C101? C 0.563(2) 0.5745(13) 0.212(2)
C102? C 0.459(2) 0.6034(12) 0.126(2)
C103? C -0.152(2) 0.1433(12) 0.444(2)
C104? C -0.264(2) 0.1871(13) 0.3005(17)
C105? C 0.4577(15) 0.4652(10) -0.0001(14)
C106? C 0.544(2) 0.4474(12) 0.0588(15)
C107? C 0.4335(14) 0.5057(12) -0.0400(14)
C108? C 0.350(3) 0.6100(17) 0.628(2)
C109? C 0.316(3) 0.617(2) 0.659(3)
C110? C 0.266(3) 0.6321(18) 0.659(3)
C111? C 0.279(3) 0.6080(18) 0.720(3)
C112? C 0.341(2) 0.5782(13) 0.747(2)
C113? C 0.390(2) 0.5586(14) 0.730(2)
C114? C 0.384(3) 0.575(2) 0.668(3)
C115? C 0.428(3) 0.5446(18) 0.666(2)
C116? C 0.433(3) 0.565(2) 0.633(3)
C117? C 0.441(3) 0.521(2) 0.597(2)
C118? C 0.475(3) 0.540(2) 0.567(3)
C119? C 0.498(3) 0.519(2) 0.525(3)
C120? C 0.481(2) 0.4657(18) 0.511(3)
C121? C 0.441(2) 0.4527(15) 0.546(2)
C122? C 0.402(3) 0.473(2) 0.599(3)
loop_
_geom_bond_atom_site_label_1
_geom_bond_atom_site_label_2
_geom_bond_site_symmetry_1
_geom_bond_site_symmetry_2
Si1 C1 1_555 1_555
Si2 C12 1_555 1_555
Si3 C63 1_555 1_555
Si4 C67 1_555 1_555
Si5 C71 1_555 1_555
Si6 C75 1_555 1_555
Si7 C79 1_555 1_555
Si8 C83 1_555 1_555
C1 C2 1_555 1_555
C2 C3 1_555 1_555
C3 C4 1_555 1_555
C4 C5 1_555 1_555
C5 C6 1_555 1_555
C6 C1 1_555 1_555
C7 C4 1_555 1_555
C8 C7 1_555 1_555
C9 C8 1_555 1_555
C10 C9 1_555 1_555
C11 C10 1_555 1_555
C12 C11 1_555 1_555
C13 C12 1_555 1_555
C14 C9 1_555 1_555
C15 Si1 1_555 1_555
C16 C15 1_555 1_555
C17 C16 1_555 1_555
C18 C17 1_555 1_555
C19 C18 1_555 1_555
C20 C15 1_555 1_555
C21 C18 1_555 1_555
C22 C21 1_555 1_555
C23 C22 1_555 1_555
C24 C23 1_555 1_555
C25 C24 1_555 1_555
C26 Si2 1_555 1_555
C27 C26 1_555 1_555
C28 C23 1_555 1_555
C29 Si1 1_555 1_555
C30 C29 1_555 1_555
C31 C30 1_555 1_555
C32 C31 1_555 1_555
C33 C32 1_555 1_555
C34 C29 1_555 1_555
C35 C32 1_555 1_555
C36 C35 1_555 1_555
C37 C36 1_555 1_555
C38 C37 1_555 1_555
C39 C38 1_555 1_555
C40 Si2 1_555 1_555
C41 C40 1_555 1_555
C42 C37 1_555 1_555
C43 Si1 1_555 1_555
C44 C43 1_555 1_555
C45 C44 1_555 1_555
C46 C45 1_555 1_555
C47 C46 1_555 1_555
C48 C43 1_555 1_555
C49 C46 1_555 1_555
C50 C49 1_555 1_555
C51 C49 1_555 1_555
C52 C49 1_555 1_555
C53 Si2 1_555 1_555
C54 C53 1_555 1_555
C55 C54 1_555 1_555
C56 C55 1_555 1_555
C57 C56 1_555 1_555
C58 C53 1_555 1_555
C59 C56 1_555 1_555
C60 C59 1_555 1_555
C61 C59 1_555 1_555
C62 C59 1_555 1_555
C63 C7 1_555 1_555
C64 Si3 1_555 1_555
C65 Si3 1_555 1_555
C66 Si3 1_555 1_555
C67 C8 1_555 1_555
C68 Si4 1_555 1_555
C69 Si4 1_555 1_555
C70 Si4 1_555 1_555
C71 C21 1_555 1_555
C72 Si5 1_555 1_555
C73 Si5 1_555 1_555
C74 Si5 1_555 1_555
C75 C22 1_555 1_555
C76 Si6 1_555 1_555
C77 Si6 1_555 1_555
C78 Si6 1_555 1_555
C79 C35 1_555 1_555
C80 Si7 1_555 1_555
C81 Si7 1_555 1_555
C82 Si7 1_555 1_555
C83 C36 1_555 1_555
C84 Si8 1_555 1_555
C85 Si8 1_555 1_555
C86 Si8 1_555 1_555
H1 C2 1_555 1_555
H2 C3 1_555 1_555
H3 C5 1_555 1_555
H4 C6 1_555 1_555
H5 C10 1_555 1_555
H6 C11 1_555 1_555
H7 C13 1_555 1_555
H8 C14 1_555 1_555
H9 C16 1_555 1_555
H10 C17 1_555 1_555
H11 C19 1_555 1_555
H12 C20 1_555 1_555
H13 C24 1_555 1_555
H14 C25 1_555 1_555
H15 C27 1_555 1_555
H16 C28 1_555 1_555
H17 C30 1_555 1_555
H18 C31 1_555 1_555
H19 C33 1_555 1_555
H20 C34 1_555 1_555
H21 C38 1_555 1_555
H22 C39 1_555 1_555
H23 C41 1_555 1_555
H24 C42 1_555 1_555
H25 C44 1_555 1_555
H26 C45 1_555 1_555
H27 C47 1_555 1_555
H28 C48 1_555 1_555
H29 C54 1_555 1_555
H30 C55 1_555 1_555
H31 C57 1_555 1_555
H32 C58 1_555 1_555
H33 C63 1_555 1_555
H34 C64 1_555 1_555
H35 C64 1_555 1_555
H36 C64 1_555 1_555
H37 C65 1_555 1_555
H38 C65 1_555 1_555
H39 C65 1_555 1_555
H40 C66 1_555 1_555
H41 C66 1_555 1_555
H42 C66 1_555 1_555
H43 C67 1_555 1_555
H44 C68 1_555 1_555
H45 C68 1_555 1_555
H46 C68 1_555 1_555
H47 C69 1_555 1_555
H48 C69 1_555 1_555
H49 C69 1_555 1_555
H50 C70 1_555 1_555
H51 C70 1_555 1_555
H52 C70 1_555 1_555
H53 C71 1_555 1_555
H54 C72 1_555 1_555
H55 C72 1_555 1_555
H56 C72 1_555 1_555
H57 C73 1_555 1_555
H58 C73 1_555 1_555
H59 C73 1_555 1_555
H60 C74 1_555 1_555
H61 C74 1_555 1_555
H62 C74 1_555 1_555
H63 C75 1_555 1_555
H64 C76 1_555 1_555
H65 C76 1_555 1_555
H66 C76 1_555 1_555
H67 C77 1_555 1_555
H68 C77 1_555 1_555
H69 C77 1_555 1_555
H70 C78 1_555 1_555
H71 C78 1_555 1_555
H72 C78 1_555 1_555
H73 C79 1_555 1_555
H74 C80 1_555 1_555
H75 C80 1_555 1_555
H76 C80 1_555 1_555
H77 C81 1_555 1_555
H78 C81 1_555 1_555
H79 C81 1_555 1_555
H80 C82 1_555 1_555
H81 C82 1_555 1_555
H82 C82 1_555 1_555
H83 C83 1_555 1_555
H84 C84 1_555 1_555
H85 C84 1_555 1_555
H86 C84 1_555 1_555
H87 C85 1_555 1_555
H88 C85 1_555 1_555
H89 C85 1_555 1_555
H90 C86 1_555 1_555
H91 C86 1_555 1_555
H92 C86 1_555 1_555
C87 C88 1_555 1_555
C88 C89 1_555 1_555
C89 C90 1_555 1_555
C90 C91 1_555 1_555
C91 C92 1_555 1_555
C92 C87 1_555 1_555
C93 C92 1_555 1_555
H93 C87 1_555 1_555
H94 C88 1_555 1_555
H95 C89 1_555 1_555
H96 C90 1_555 1_555
H97 C91 1_555 1_555
H98 C93 1_555 1_555
H99 C93 1_555 1_555
H100 C93 1_555 1_555
C94 C95 1_555 1_555
C95 C96 1_555 1_555
C96 C97 1_555 1_555
C97 C98 1_555 1_555
C98 C99 1_555 1_555
C99 C94 1_555 1_555
C100 C99 1_555 1_555
H101 C94 1_555 1_555
H102 C95 1_555 1_555
H103 C96 1_555 1_555
H104 C97 1_555 1_555
H105 C98 1_555 1_555
H106 C100 1_555 1_555
H107 C100 1_555 1_555
H108 C100 1_555 1_555
C13 C14 1_555 1_555
C19 C20 1_555 1_555
C25 C26 1_555 1_555
C27 C28 1_555 1_555
C33 C34 1_555 1_555
C39 C40 1_555 1_555
C41 C42 1_555 1_555
C47 C48 1_555 1_555
C57 C58 1_555 1_555

#END
