
#######################################################################
#
#                 Cambridge Crystallographic Data Centre
#                                CCDC 
#
#######################################################################
#
# If this CIF has been generated from an entry in the Cambridge 
# Structural Database, then it will include bibliographic, chemical, 
# crystal, experimental, refinement or atomic coordinate data resulting 
# from the CCDC's data processing and validation procedures.
#
#######################################################################

data_GABSIM
_chemical_formula_moiety         'C17 H32 N3 O1 1+,F6 P1 1-'
_chemical_name_systematic        
'3-Dodecylimidazolio-acetamide hexafluorophosphate'
_symmetry_cell_setting           triclinic
_symmetry_space_group_name_H-M   'P -1'
_symmetry_Int_Tables_number      2
_space_group_name_Hall           '-P 1'
loop_
_symmetry_equiv_pos_site_id
_symmetry_equiv_pos_as_xyz
1 x,y,z
2 -x,-y,-z
_cell_length_a                   9.3592(10)
_cell_length_b                   10.577(4)
_cell_length_c                   24.232(3)
_cell_angle_alpha                78.042(17)
_cell_angle_beta                 83.862(7)
_cell_angle_gamma                76.410(14)
_cell_volume                     2276.74
_exptl_crystal_colour            colorless
_exptl_crystal_description       plate
_cell_formula_units_Z            4
_exptl_crystal_recrystallization_method methanol
loop_
_atom_site_label
_atom_site_type_symbol
_atom_site_fract_x
_atom_site_fract_y
_atom_site_fract_z
P1 P 0.3593(2) 0.4173(2) 0.13550(10)
F1 F 0.4457(8) 0.4887(6) 0.0850(3)
F2 F 0.4745(7) 0.4389(8) 0.1698(4)
F3 F 0.2461(7) 0.3957(10) 0.1021(5)
F4 F 0.2811(10) 0.3537(6) 0.1875(4)
F5 F 0.2580(5) 0.5540(5) 0.1434(3)
F6 F 0.4610(5) 0.2796(4) 0.1260(2)
P2 P 0.9097(2) -0.0587(2) 0.17123(10)
F7 F 1.0103(9) -0.1484(7) 0.2159(3)
F8 F 1.0472(6) -0.0319(10) 0.1328(3)
F9 F 0.7716(8) -0.0846(10) 0.2042(4)
F10 F 0.8078(7) 0.0334(6) 0.1251(3)
F11 F 0.9151(7) 0.0613(6) 0.1979(3)
F12 F 0.9041(8) -0.1775(6) 0.1430(3)
O1 O 0.9881(4) 0.2568(5) -0.0052(2)
N1 N 0.7977(6) 0.3797(6) 0.0699(3)
N2 N 0.8710(6) 0.4182(6) 0.1446(3)
N3 N 0.8174(6) 0.1683(7) -0.0325(3)
H1 H 0.8797 0.1230 -0.0536
H2 H 0.7262 0.1640 -0.0298
C1 C 0.8092(7) 0.3394(7) 0.1251(4)
H5 H 0.7780 0.2661 0.1466
C2 C 0.8543(7) 0.4893(8) 0.0539(4)
H6 H 0.8598 0.5390 0.0176
C3 C 0.9013(8) 0.5127(8) 0.1010(4)
H7 H 0.9462 0.5811 0.1030
C4 C 0.7396(7) 0.3147(8) 0.0320(3)
H8 H 0.6711 0.3803 0.0078
H9 H 0.6865 0.2510 0.0543
C5 C 0.8618(7) 0.2448(7) -0.0039(3)
C6 C 0.8949(10) 0.4116(10) 0.2043(4)
H10 H 0.9910 0.4289 0.2070
H11 H 0.8938 0.3231 0.2253
C7 C 0.7777(10) 0.5110(9) 0.2303(4)
H12 H 0.7783 0.5989 0.2086
H13 H 0.6822 0.4929 0.2274
C8 C 0.7959(12) 0.5108(11) 0.2903(5)
H14 H 0.8898 0.5324 0.2929
H15 H 0.7993 0.4220 0.3117
C9 C 0.6775(13) 0.6051(11) 0.3168(5)
H16 H 0.5834 0.5879 0.3110
H17 H 0.6796 0.6941 0.2967
C10 C 0.6836(14) 0.6021(14) 0.3789(6)
H18 H 0.6804 0.5130 0.3987
H19 H 0.7789 0.6171 0.3845
C11 C 0.5750(14) 0.6911(13) 0.4057(6)
H20 H 0.4799 0.6779 0.3987
H21 H 0.5806 0.7799 0.3864
C12 C 0.5743(16) 0.6889(15) 0.4657(6)
H22 H 0.6701 0.7008 0.4726
H23 H 0.5683 0.5999 0.4848
C13 C 0.4666(15) 0.7784(15) 0.4945(6)
H24 H 0.3706 0.7684 0.4868
H25 H 0.4745 0.8674 0.4762
C14 C 0.465(2) 0.7726(17) 0.5565(6)
H26 H 0.4569 0.6831 0.5741
H27 H 0.5619 0.7805 0.5636
C15 C 0.368(2) 0.853(2) 0.5871(8)
H28 H 0.2720 0.8411 0.5810
H29 H 0.3722 0.9423 0.5675
C16 C 0.362(3) 0.859(3) 0.6435(8)
H30 H 0.3520 0.7712 0.6628
H31 H 0.4613 0.8641 0.6499
C17 C 0.284(4) 0.932(3) 0.6714(12)
H32 H 0.3112 0.9069 0.7098
H33 H 0.1833 0.9269 0.6699
H34 H 0.2940 1.0214 0.6567
O2 O 0.4884(5) -0.1555(5) -0.0010(2)
N4 N 0.5567(6) -0.1366(5) 0.1036(3)
N5 N 0.3988(6) -0.0675(6) 0.1685(3)
N6 N 0.7236(6) -0.1832(6) -0.0349(3)
H3 H 0.7025 -0.1942 -0.0670
H4 H 0.8133 -0.1865 -0.0287
C18 C 0.4986(7) -0.0351(7) 0.1295(3)
H35 H 0.5251 0.0465 0.1212
C19 C 0.4885(9) -0.2376(7) 0.1276(3)
H36 H 0.5072 -0.3208 0.1180
C20 C 0.3895(9) -0.1947(7) 0.1678(4)
H37 H 0.3265 -0.2423 0.1909
C21 C 0.6701(7) -0.1394(8) 0.0581(3)
H38 H 0.7544 -0.2097 0.0699
H39 H 0.7019 -0.0562 0.0502
C22 C 0.6182(7) -0.1613(7) 0.0050(3)
C23 C 0.3084(8) 0.0235(8) 0.2031(3)
H40 H 0.2064 0.0376 0.1945
H41 H 0.3368 0.1081 0.1922
C24 C 0.3185(12) -0.0203(9) 0.2646(4)
H42 H 0.4195 -0.0328 0.2743
H43 H 0.2888 -0.1042 0.2766
C25 C 0.2185(11) 0.0839(10) 0.2947(4)
H44 H 0.2515 0.1662 0.2823
H45 H 0.1198 0.0989 0.2823
C26 C 0.2100(14) 0.0547(11) 0.3565(4)
H46 H 0.3093 0.0336 0.3691
H47 H 0.1700 -0.0239 0.3690
C27 C 0.1188(13) 0.1631(11) 0.3855(4)
H48 H 0.1600 0.2409 0.3724
H49 H 0.0207 0.1846 0.3717
C28 C 0.1024(15) 0.1437(11) 0.4456(5)
H50 H 0.2003 0.1210 0.4595
H51 H 0.0592 0.0671 0.4587
C29 C 0.0145(13) 0.2522(10) 0.4727(5)
H52 H 0.0585 0.3282 0.4592
H53 H -0.0825 0.2751 0.4579
C30 C -0.0072(16) 0.2386(12) 0.5332(5)
H54 H -0.0541 0.1643 0.5467
H55 H 0.0896 0.2134 0.5481
C31 C -0.0897(14) 0.3461(11) 0.5585(5)
H56 H -0.1847 0.3731 0.5421
H57 H -0.0405 0.4190 0.5456
C32 C -0.1198(15) 0.3372(12) 0.6200(5)
H58 H -0.1702 0.2652 0.6332
H59 H -0.0252 0.3103 0.6368
C33 C -0.2021(18) 0.4476(14) 0.6435(5)
H60 H -0.1505 0.5189 0.6305
H61 H -0.2956 0.4753 0.6259
C34 C -0.2350(17) 0.4424(14) 0.7021(5)
H62 H -0.2891 0.5276 0.7086
H63 H -0.1450 0.4183 0.7212
H64 H -0.2931 0.3776 0.7163
loop_
_geom_bond_atom_site_label_1
_geom_bond_atom_site_label_2
_geom_bond_site_symmetry_1
_geom_bond_site_symmetry_2
P1 F1 1_555 1_555
P2 F7 1_555 1_555
F2 P1 1_555 1_555
F3 P1 1_555 1_555
F4 P1 1_555 1_555
F5 P1 1_555 1_555
F6 P1 1_555 1_555
F8 P2 1_555 1_555
F9 P2 1_555 1_555
F10 P2 1_555 1_555
F11 P2 1_555 1_555
F12 P2 1_555 1_555
O1 C5 1_555 1_555
O2 C22 1_555 1_555
N1 C1 1_555 1_555
N2 C1 1_555 1_555
N3 H1 1_555 1_555
H2 N3 1_555 1_555
N4 C18 1_555 1_555
N5 C18 1_555 1_555
N6 H3 1_555 1_555
H4 N6 1_555 1_555
C1 H5 1_555 1_555
C2 N1 1_555 1_555
H6 C2 1_555 1_555
C3 N2 1_555 1_555
H7 C3 1_555 1_555
C4 N1 1_555 1_555
H8 C4 1_555 1_555
H9 C4 1_555 1_555
C5 N3 1_555 1_555
C6 N2 1_555 1_555
H10 C6 1_555 1_555
H11 C6 1_555 1_555
C7 C6 1_555 1_555
H12 C7 1_555 1_555
H13 C7 1_555 1_555
C8 C7 1_555 1_555
H14 C8 1_555 1_555
H15 C8 1_555 1_555
C9 C8 1_555 1_555
H16 C9 1_555 1_555
H17 C9 1_555 1_555
C10 C9 1_555 1_555
H18 C10 1_555 1_555
H19 C10 1_555 1_555
C11 C10 1_555 1_555
H20 C11 1_555 1_555
H21 C11 1_555 1_555
C12 C11 1_555 1_555
H22 C12 1_555 1_555
H23 C12 1_555 1_555
C13 C12 1_555 1_555
H24 C13 1_555 1_555
H25 C13 1_555 1_555
C14 C13 1_555 1_555
H26 C14 1_555 1_555
H27 C14 1_555 1_555
C15 C14 1_555 1_555
H28 C15 1_555 1_555
H29 C15 1_555 1_555
C16 C15 1_555 1_555
H30 C16 1_555 1_555
H31 C16 1_555 1_555
C17 C16 1_555 1_555
H32 C17 1_555 1_555
H33 C17 1_555 1_555
H34 C17 1_555 1_555
C18 H35 1_555 1_555
C19 N4 1_555 1_555
H36 C19 1_555 1_555
C20 N5 1_555 1_555
H37 C20 1_555 1_555
C21 N4 1_555 1_555
H38 C21 1_555 1_555
H39 C21 1_555 1_555
C22 N6 1_555 1_555
C23 N5 1_555 1_555
H40 C23 1_555 1_555
H41 C23 1_555 1_555
C24 C23 1_555 1_555
H42 C24 1_555 1_555
H43 C24 1_555 1_555
C25 C24 1_555 1_555
H44 C25 1_555 1_555
H45 C25 1_555 1_555
C26 C25 1_555 1_555
H46 C26 1_555 1_555
H47 C26 1_555 1_555
C27 C26 1_555 1_555
H48 C27 1_555 1_555
H49 C27 1_555 1_555
C28 C27 1_555 1_555
H50 C28 1_555 1_555
H51 C28 1_555 1_555
C29 C28 1_555 1_555
H52 C29 1_555 1_555
H53 C29 1_555 1_555
C30 C29 1_555 1_555
H54 C30 1_555 1_555
H55 C30 1_555 1_555
C31 C30 1_555 1_555
H56 C31 1_555 1_555
H57 C31 1_555 1_555
C32 C31 1_555 1_555
H58 C32 1_555 1_555
H59 C32 1_555 1_555
C33 C32 1_555 1_555
H60 C33 1_555 1_555
H61 C33 1_555 1_555
C34 C33 1_555 1_555
H62 C34 1_555 1_555
H63 C34 1_555 1_555
H64 C34 1_555 1_555
C2 C3 1_555 1_555
C4 C5 1_555 1_555
C19 C20 1_555 1_555
C21 C22 1_555 1_555

#END
