
#######################################################################
#
#                 Cambridge Crystallographic Data Centre
#                                CCDC 
#
#######################################################################
#
# If this CIF has been generated from an entry in the Cambridge 
# Structural Database, then it will include bibliographic, chemical, 
# crystal, experimental, refinement or atomic coordinate data resulting 
# from the CCDC's data processing and validation procedures.
#
#######################################################################

data_GABTIM10
_chemical_formula_moiety         'C12 H24 O6,H3 O1 1+,H1 Cl2 1-'
_chemical_name_systematic        '(18-Crown-6) oxonium hydrogen dichloride'
_symmetry_cell_setting           monoclinic
_symmetry_space_group_name_H-M   'P 21/c'
_symmetry_Int_Tables_number      14
_space_group_name_Hall           '-P 2ybc'
loop_
_symmetry_equiv_pos_site_id
_symmetry_equiv_pos_as_xyz
1 x,y,z
2 -x,1/2+y,1/2-z
3 -x,-y,-z
4 x,1/2-y,1/2+z
_cell_length_a                   10.475(7)
_cell_length_b                   20.767(9)
_cell_length_c                   8.583(7)
_cell_angle_alpha                90
_cell_angle_beta                 96.23(3)
_cell_angle_gamma                90
_cell_volume                     1856.07
_cell_formula_units_Z            4
loop_
_atom_site_label
_atom_site_type_symbol
_atom_site_fract_x
_atom_site_fract_y
_atom_site_fract_z
Cl1 Cl 0.3720(5) 0.1568(2) 0.4231(6)
Cl2 Cl 0.5484(5) 0.0852(3) 0.2121(7)
H1 H 0.4764 0.1241 0.3161
O1 O -0.219(2) 0.4659(9) 0.225(2)
O2 O -0.329(1) 0.348(1) 0.260(2)
O3 O -0.190(2) 0.2575(7) 0.434(2)
O4 O 0.070(1) 0.2661(7) 0.468(2)
O5 O 0.173(1) 0.386(1) 0.436(2)
O6 O 0.045(2) 0.4775(7) 0.250(2)
C1 C -0.345(3) 0.450(2) 0.156(3)
C2 C -0.403(3) 0.407(2) 0.251(4)
C3 C -0.393(3) 0.300(2) 0.345(4)
C4 C -0.313(3) 0.246(1) 0.347(4)
C5 C -0.115(3) 0.200(1) 0.443(3)
C6 C 0.006(3) 0.215(1) 0.537(3)
C7 C 0.183(2) 0.286(1) 0.557(2)
C8 C 0.254(2) 0.333(1) 0.469(3)
C9 C 0.239(2) 0.434(2) 0.349(4)
C10 C 0.166(3) 0.492(1) 0.339(4)
C11 C -0.035(3) 0.530(2) 0.217(5)
C12 C -0.158(3) 0.510(2) 0.145(5)
H2 H -0.346 0.430 0.050
H3 H -0.398 0.491 0.148
H4 H -0.398 0.427 0.358
H5 H -0.495 0.397 0.214
H6 H -0.481 0.291 0.291
H7 H -0.400 0.314 0.455
H8 H -0.353 0.209 0.398
H9 H -0.301 0.235 0.237
H10 H -0.089 0.190 0.336
H11 H -0.161 0.162 0.482
H12 H 0.064 0.177 0.557
H13 H -0.022 0.230 0.639
H14 H 0.157 0.310 0.649
H15 H 0.236 0.248 0.593
H16 H 0.274 0.310 0.371
H17 H 0.337 0.346 0.532
H18 H 0.247 0.418 0.241
H19 H 0.327 0.442 0.405
H20 H 0.154 0.507 0.447
H21 H 0.211 0.526 0.283
H22 H -0.063 0.543 0.320
H23 H 0.009 0.568 0.171
H24 H -0.135 0.490 0.046
H25 H -0.216 0.548 0.118
O7 O -0.0812(9) 0.3714(5) 0.371(1)
loop_
_geom_bond_atom_site_label_1
_geom_bond_atom_site_label_2
_geom_bond_site_symmetry_1
_geom_bond_site_symmetry_2
Cl1 H1 1_555 1_555
Cl2 H1 1_555 1_555
O1 C1 1_555 1_555
O2 C2 1_555 1_555
O3 C4 1_555 1_555
O4 C6 1_555 1_555
O5 C8 1_555 1_555
O6 C10 1_555 1_555
C1 C2 1_555 1_555
C2 H4 1_555 1_555
C3 O2 1_555 1_555
C4 C3 1_555 1_555
C5 O3 1_555 1_555
C6 C5 1_555 1_555
C7 O4 1_555 1_555
C8 C7 1_555 1_555
C9 O5 1_555 1_555
C10 C9 1_555 1_555
C11 O6 1_555 1_555
C12 O1 1_555 1_555
H2 C1 1_555 1_555
H3 C1 1_555 1_555
H5 C2 1_555 1_555
H6 C3 1_555 1_555
H7 C3 1_555 1_555
H8 C4 1_555 1_555
H9 C4 1_555 1_555
H10 C5 1_555 1_555
H11 C5 1_555 1_555
H12 C6 1_555 1_555
H13 C6 1_555 1_555
H14 C7 1_555 1_555
H15 C7 1_555 1_555
H16 C8 1_555 1_555
H17 C8 1_555 1_555
H18 C9 1_555 1_555
H19 C9 1_555 1_555
H20 C10 1_555 1_555
H21 C10 1_555 1_555
H22 C11 1_555 1_555
H23 C11 1_555 1_555
H24 C12 1_555 1_555
H25 C12 1_555 1_555
C11 C12 1_555 1_555

#END
