
#######################################################################
#
#                 Cambridge Crystallographic Data Centre
#                                CCDC 
#
#######################################################################
#
# If this CIF has been generated from an entry in the Cambridge 
# Structural Database, then it will include bibliographic, chemical, 
# crystal, experimental, refinement or atomic coordinate data resulting 
# from the CCDC's data processing and validation procedures.
#
#######################################################################

data_GABYIT
_chemical_compound_source        'Endophytic Fungus Curvularia geniculata'
_chemical_name_common            'curvularide A'
_chemical_formula_moiety         'C18 H35 N1 O5'
_chemical_name_systematic        
4,5,8-Trihydroxy-N-(1-hydroxy-3-methylpentan-2-yl)-4,6-dimethyldec-2-enamide
_chemical_properties_biological  antifungal
_symmetry_cell_setting           triclinic
_symmetry_space_group_name_H-M   'P 1'
_symmetry_Int_Tables_number      1
_space_group_name_Hall           'P 1'
loop_
_symmetry_equiv_pos_site_id
_symmetry_equiv_pos_as_xyz
1 x,y,z
_cell_length_a                   6.4466(2)
_cell_length_b                   9.8941(4)
_cell_length_c                   16.4164(7)
_cell_angle_alpha                99.619(2)
_cell_angle_beta                 100.660(2)
_cell_angle_gamma                90.330(2)
_cell_volume                     1013.83
_cell_formula_units_Z            2
loop_
_atom_site_label
_atom_site_type_symbol
_atom_site_fract_x
_atom_site_fract_y
_atom_site_fract_z
C1 C 0.5622(4) 0.1637(3) 0.09467(19)
C2 C 0.4446(5) 0.1452(3) 0.1616(2)
H1 H 0.3858 0.0590 0.1611
C3 C 0.4202(4) 0.2461(3) 0.2214(2)
H2 H 0.4900 0.3287 0.2216
C4 C 0.2927(5) 0.2455(3) 0.29049(19)
C5 C 0.3454(4) 0.1224(3) 0.33402(19)
H3 H 0.3238 0.0415 0.2895
C6 C 0.5739(5) 0.1174(3) 0.3828(2)
H4 H 0.6682 0.1589 0.3526
C7 C 0.6134(5) 0.1948(3) 0.4736(2)
H5 H 0.5572 0.2856 0.4741
H6 H 0.5371 0.1469 0.5066
C8 C 0.8461(5) 0.2091(4) 0.5152(2)
H7 H 0.9054 0.1178 0.5100
C9 C 0.8796(7) 0.2713(5) 0.6071(3)
H8 H 0.8031 0.2159 0.6361
H9 H 0.8236 0.3625 0.6130
C10 C 1.1135(14) 0.2805(10) 0.6476(5)
H10 H 1.1298 0.3211 0.7059
H11 H 1.1893 0.3361 0.6194
H12 H 1.1685 0.1902 0.6430
C11 C 0.0580(5) 0.2421(4) 0.2514(2)
H13 H 0.0327 0.3109 0.2163
H14 H -0.0232 0.2598 0.2953
H15 H 0.0172 0.1533 0.2182
C12 C 0.6299(6) -0.0324(4) 0.3811(3)
H16 H 0.5359 -0.0765 0.4084
H17 H 0.7727 -0.0372 0.4100
H18 H 0.6162 -0.0778 0.3238
C13 C 0.9336(5) 0.0093(4) 0.0048(2)
H19 H 1.0139 0.0144 -0.0392
H20 H 0.9965 0.0764 0.0533
C14 C 0.7097(5) 0.0490(3) -0.0255(2)
H21 H 0.7176 0.1436 -0.0356
C15 C 0.5965(5) -0.0382(4) -0.1078(2)
H22 H 0.5797 -0.1318 -0.0970
C16 C 0.3781(7) 0.0108(7) -0.1374(3)
H23 H 0.3104 -0.0550 -0.1857
H24 H 0.2978 0.0080 -0.0931
C17 C 0.3595(15) 0.1448(11) -0.1601(6)
H25 H 0.4104 0.1444 -0.2115
H26 H 0.4416 0.2106 -0.1162
H27 H 0.2140 0.1689 -0.1679
C18 C 0.7272(8) -0.0450(6) -0.1761(3)
H28 H 0.6462 -0.0916 -0.2284
H29 H 0.8528 -0.0941 -0.1612
H30 H 0.7655 0.0463 -0.1819
O1 O 0.6302(3) 0.2779(2) 0.08840(15)
O2 O 0.3309(3) 0.3733(2) 0.34825(14)
H31 H 0.4585 0.3904 0.3618
O3 O 0.1983(3) 0.1053(2) 0.38841(14)
H32 H 0.1427 0.0281 0.3749
O4 O 0.9581(3) 0.2930(2) 0.47366(16)
H33 H 1.0512 0.2488 0.4549
O5 O 0.9543(4) -0.1233(2) 0.02707(17)
H34 H 0.8901 -0.1803 -0.0116
N1 N 0.5880(4) 0.0498(2) 0.04174(17)
H35 H 0.5310 -0.0262 0.0473
C19 C 0.1389(4) 0.7219(3) 0.30835(19)
C20 C 0.2561(5) 0.6666(3) 0.2415(2)
H36 H 0.3137 0.5806 0.2419
C21 C 0.2817(5) 0.7344(3) 0.1818(2)
H37 H 0.2118 0.8164 0.1814
C22 C 0.4104(5) 0.6968(3) 0.1133(2)
C23 C 0.3550(4) 0.5485(3) 0.0684(2)
H38 H 0.3736 0.4915 0.1125
C24 C 0.1289(5) 0.5179(3) 0.0191(2)
H39 H 0.0352 0.5753 0.0497
C25 C 0.0920(5) 0.5484(3) -0.0705(2)
H40 H 0.1510 0.6394 -0.0692
H41 H 0.1678 0.4833 -0.1040
C26 C -0.1386(5) 0.5416(3) -0.1132(2)
H42 H -0.1997 0.4513 -0.1119
C27 C -0.1688(7) 0.5623(5) -0.2029(3)
H43 H -0.0875 0.4957 -0.2328
H44 H -0.1125 0.6529 -0.2042
C28 C -0.3951(9) 0.5490(8) -0.2486(3)
H45 H -0.4441 0.4549 -0.2574
H46 H -0.4046 0.5785 -0.3019
H47 H -0.4808 0.6049 -0.2155
C29 C 0.6449(5) 0.7143(4) 0.1527(2)
H48 H 0.7270 0.7060 0.1091
H49 H 0.6827 0.6447 0.1866
H50 H 0.6723 0.8032 0.1874
C30 C 0.0676(6) 0.3684(4) 0.0184(3)
H51 H -0.0724 0.3475 -0.0138
H52 H 0.0713 0.3541 0.0751
H53 H 0.1654 0.3097 -0.0064
C31 C -0.2313(5) 0.6141(3) 0.4004(2)
H54 H -0.3098 0.6417 0.4451
H55 H -0.2976 0.6535 0.3522
C32 C -0.0072(5) 0.6739(3) 0.4293(2)
H56 H -0.0169 0.7739 0.4385
C33 C 0.1105(6) 0.6366(4) 0.5119(2)
H57 H 0.1374 0.5385 0.5013
C34 C 0.3243(7) 0.7136(6) 0.5409(3)
H58 H 0.4011 0.6767 0.5885
H59 H 0.4039 0.6948 0.4958
C35 C 0.3181(12) 0.8673(7) 0.5663(5)
H60 H 0.2614 0.9072 0.5178
H61 H 0.4586 0.9044 0.5894
H62 H 0.2305 0.8880 0.6077
C36 C -0.0193(8) 0.6600(5) 0.5813(3)
H63 H 0.0660 0.6449 0.6333
H64 H -0.1399 0.5973 0.5668
H65 H -0.0658 0.7525 0.5877
O6 O 0.0702(3) 0.8386(2) 0.31433(15)
O7 O 0.3732(3) 0.7929(2) 0.05593(13)
H66 H 0.2461 0.8045 0.0439
O8 O 0.5036(3) 0.5026(2) 0.01495(14)
H67 H 0.5640 0.4361 0.0304
O9 O -0.2516(3) 0.6450(2) -0.06841(15)
H68 H -0.3329 0.6081 -0.0451
O10 O -0.2482(4) 0.4687(2) 0.37800(16)
H69 H -0.1728 0.4343 0.4144
N2 N 0.1127(4) 0.6379(3) 0.36198(16)
H70 H 0.1691 0.5592 0.3565
C37? C 0.804(3) 0.1849(19) 0.6624(10)
C38? C 0.259(5) -0.067(4) -0.2096(19)
H71? H 0.6578 0.1594 0.6416
H72? H 0.8212 0.2358 0.7186
H73? H 0.8852 0.1038 0.6629
H74? H 0.2996 0.0137 -0.0921
H75? H 0.3923 0.1040 -0.1473
H76? H 0.1134 -0.0693 -0.2045
H77? H 0.3090 -0.1586 -0.2167
H78? H 0.2733 -0.0263 -0.2576
H79? H 1.0295 0.2920 0.6272
H80? H 0.8083 0.3575 0.6125
loop_
_geom_bond_atom_site_label_1
_geom_bond_atom_site_label_2
_geom_bond_site_symmetry_1
_geom_bond_site_symmetry_2
C1 C2 1_555 1_555
C2 H1 1_555 1_555
C3 C2 1_555 1_555
H2 C3 1_555 1_555
C4 C3 1_555 1_555
C5 C4 1_555 1_555
H3 C5 1_555 1_555
C6 C5 1_555 1_555
H4 C6 1_555 1_555
C7 C6 1_555 1_555
H5 C7 1_555 1_555
H6 C7 1_555 1_555
C8 C7 1_555 1_555
H7 C8 1_555 1_555
C9 C8 1_555 1_555
H8 C9 1_555 1_555
H9 C9 1_555 1_555
C10 C9 1_555 1_555
H10 C10 1_555 1_555
H11 C10 1_555 1_555
H12 C10 1_555 1_555
C11 C4 1_555 1_555
H13 C11 1_555 1_555
H14 C11 1_555 1_555
H15 C11 1_555 1_555
C12 C6 1_555 1_555
H16 C12 1_555 1_555
H17 C12 1_555 1_555
H18 C12 1_555 1_555
C13 H19 1_555 1_555
H20 C13 1_555 1_555
C14 C13 1_555 1_555
H21 C14 1_555 1_555
C15 C14 1_555 1_555
H22 C15 1_555 1_555
C16 C15 1_555 1_555
H23 C16 1_555 1_555
H24 C16 1_555 1_555
C17 C16 1_555 1_555
H25 C17 1_555 1_555
H26 C17 1_555 1_555
H27 C17 1_555 1_555
C18 C15 1_555 1_555
H28 C18 1_555 1_555
H29 C18 1_555 1_555
H30 C18 1_555 1_555
O1 C1 1_555 1_555
O2 C4 1_555 1_555
H31 O2 1_555 1_555
O3 C5 1_555 1_555
H32 O3 1_555 1_555
O4 C8 1_555 1_555
H33 O4 1_555 1_555
O5 C13 1_555 1_555
H34 O5 1_555 1_555
N1 C1 1_555 1_555
H35 N1 1_555 1_555
C19 C20 1_555 1_555
C20 H36 1_555 1_555
C21 C20 1_555 1_555
H37 C21 1_555 1_555
C22 C21 1_555 1_555
C23 C22 1_555 1_555
H38 C23 1_555 1_555
C24 C23 1_555 1_555
H39 C24 1_555 1_555
C25 C24 1_555 1_555
H40 C25 1_555 1_555
H41 C25 1_555 1_555
C26 C25 1_555 1_555
H42 C26 1_555 1_555
C27 C26 1_555 1_555
H43 C27 1_555 1_555
H44 C27 1_555 1_555
C28 C27 1_555 1_555
H45 C28 1_555 1_555
H46 C28 1_555 1_555
H47 C28 1_555 1_555
C29 C22 1_555 1_555
H48 C29 1_555 1_555
H49 C29 1_555 1_555
H50 C29 1_555 1_555
C30 C24 1_555 1_555
H51 C30 1_555 1_555
H52 C30 1_555 1_555
H53 C30 1_555 1_555
C31 H54 1_555 1_555
H55 C31 1_555 1_555
C32 C31 1_555 1_555
H56 C32 1_555 1_555
C33 C32 1_555 1_555
H57 C33 1_555 1_555
C34 C33 1_555 1_555
H58 C34 1_555 1_555
H59 C34 1_555 1_555
C35 C34 1_555 1_555
H60 C35 1_555 1_555
H61 C35 1_555 1_555
H62 C35 1_555 1_555
C36 C33 1_555 1_555
H63 C36 1_555 1_555
H64 C36 1_555 1_555
H65 C36 1_555 1_555
O6 C19 1_555 1_555
O7 C22 1_555 1_555
H66 O7 1_555 1_555
O8 C23 1_555 1_555
H67 O8 1_555 1_555
O9 C26 1_555 1_555
H68 O9 1_555 1_555
O10 C31 1_555 1_555
H69 O10 1_555 1_555
N2 C19 1_555 1_555
H70 N2 1_555 1_555
C14 N1 1_555 1_555
C32 N2 1_555 1_555

#END
