
#######################################################################
#
#                 Cambridge Crystallographic Data Centre
#                                CCDC 
#
#######################################################################
#
# If this CIF has been generated from an entry in the Cambridge 
# Structural Database, then it will include bibliographic, chemical, 
# crystal, experimental, refinement or atomic coordinate data resulting 
# from the CCDC's data processing and validation procedures.
#
#######################################################################

data_GABYOZ
_chemical_compound_source        'Endophytic Fungus Curvularia geniculata'
_chemical_name_common            'curvularide E'
_chemical_formula_moiety         'C18 H33 N1 O4'
_chemical_name_systematic        
4-(5-Ethyl-3-methyltetrahydrofuran-2-yl)-4-hydroxy-N-(1-hydroxy-3-methylpentan-2-yl)pent-2-enamide
_chemical_properties_biological  antifungal
_symmetry_cell_setting           monoclinic
_symmetry_space_group_name_H-M   'P 21'
_symmetry_Int_Tables_number      4
_space_group_name_Hall           'P 2yb'
loop_
_symmetry_equiv_pos_site_id
_symmetry_equiv_pos_as_xyz
1 x,y,z
2 -x,1/2+y,-z
_cell_length_a                   5.2320(3)
_cell_length_b                   11.1666(6)
_cell_length_c                   16.4686(8)
_cell_angle_alpha                90
_cell_angle_beta                 91.882(2)
_cell_angle_gamma                90
_cell_volume                     961.637
_cell_formula_units_Z            2
loop_
_atom_site_label
_atom_site_type_symbol
_atom_site_fract_x
_atom_site_fract_y
_atom_site_fract_z
C1 C 0.2952(7) 0.3545(4) 0.3471(2)
C2 C 0.2266(7) 0.3927(4) 0.4293(2)
H1 H 0.0548 0.4043 0.4398
C3 C 0.3957(7) 0.4112(4) 0.4881(2)
H2 H 0.5660 0.3973 0.4765
C4 C 0.3419(7) 0.4526(4) 0.5727(2)
C5 C 0.4799(7) 0.3705(4) 0.6340(2)
H3 H 0.6619 0.3731 0.6218
C6 C 0.4079(8) 0.2379(5) 0.6418(3)
H4 H 0.5522 0.1888 0.6250
C7 C 0.373(3) 0.2203(8) 0.7338(4)
H5 H 0.1937 0.2197 0.7467
H6 H 0.4516 0.1462 0.7527
C8 C 0.5094(10) 0.3286(5) 0.7715(3)
H7 H 0.6939 0.3138 0.7762
C9 C 0.4092(12) 0.3600(7) 0.8523(3)
H8 H 0.2272 0.3753 0.8458
H9 H 0.4306 0.2912 0.8879
C10 C 0.5314(13) 0.4656(8) 0.8931(3)
H10 H 0.7105 0.4503 0.9024
H11 H 0.4528 0.4796 0.9441
H12 H 0.5097 0.5349 0.8591
C11 C 0.4368(8) 0.5813(4) 0.5809(2)
H13 H 0.3544 0.6300 0.5398
H14 H 0.6185 0.5834 0.5746
H15 H 0.3973 0.6116 0.6336
C12 C 0.1682(13) 0.1910(6) 0.6015(4)
H16 H 0.0228 0.2290 0.6245
H17 H 0.1579 0.1060 0.6097
H18 H 0.1697 0.2077 0.5443
C13 C -0.0107(8) 0.1495(5) 0.2193(2)
H19 H -0.1918 0.1598 0.2282
H20 H 0.0063 0.1119 0.1667
C14 C 0.1172(8) 0.2731(4) 0.2180(2)
H21 H 0.2993 0.2610 0.2085
C15 C 0.0100(11) 0.3531(5) 0.1510(3)
H22 H -0.1773 0.3543 0.1465
C16 C 0.1318(16) 0.4760(6) 0.1523(4)
H23 H 0.1219 0.5074 0.2070
H24 H 0.3117 0.4662 0.1414
C17 C 0.0259(19) 0.5672(8) 0.0958(4)
H25 H 0.0670 0.5464 0.0412
H26 H 0.0983 0.6439 0.1092
H27 H -0.1565 0.5705 0.1001
C18 C 0.003(7) 0.2917(16) 0.0649(10)
H28 H 0.1662 0.2558 0.0555
H29 H -0.0340 0.3507 0.0238
H30 H -0.1270 0.2310 0.0629
O1 O 0.5191(5) 0.3481(3) 0.32546(16)
O2 O 0.0725(5) 0.4511(3) 0.58268(16)
H31 H 0.0389 0.4852 0.6251
O3 O 0.4567(5) 0.4206(3) 0.71425(16)
O4 O 0.0942(6) 0.0728(3) 0.2799(2)
H32 H 0.2423 0.0565 0.2694
N1 N 0.0958(6) 0.3267(3) 0.29744(18)
H33 H -0.0551 0.3419 0.3139
C19? C 0.140(11) 0.304(4) 0.074(2)
C20? C 0.5402(10) 0.2159(5) 0.7199(3)
H34? H 0.3212 0.3182 0.0791
H35? H 0.0710 0.3435 0.0269
H36? H 0.1096 0.2193 0.0699
H37? H 0.7199 0.1999 0.7121
H38? H 0.4662 0.1473 0.7466
loop_
_geom_bond_atom_site_label_1
_geom_bond_atom_site_label_2
_geom_bond_site_symmetry_1
_geom_bond_site_symmetry_2
C1 C2 1_555 1_555
C2 H1 1_555 1_555
C3 C2 1_555 1_555
H2 C3 1_555 1_555
C4 C3 1_555 1_555
C5 C4 1_555 1_555
H3 C5 1_555 1_555
C6 C5 1_555 1_555
H4 C6 1_555 1_555
C7 C6 1_555 1_555
H5 C7 1_555 1_555
H6 C7 1_555 1_555
C8 C7 1_555 1_555
H7 C8 1_555 1_555
C9 C8 1_555 1_555
H8 C9 1_555 1_555
H9 C9 1_555 1_555
C10 C9 1_555 1_555
H10 C10 1_555 1_555
H11 C10 1_555 1_555
H12 C10 1_555 1_555
C11 C4 1_555 1_555
H13 C11 1_555 1_555
H14 C11 1_555 1_555
H15 C11 1_555 1_555
C12 C6 1_555 1_555
H16 C12 1_555 1_555
H17 C12 1_555 1_555
H18 C12 1_555 1_555
C13 H19 1_555 1_555
H20 C13 1_555 1_555
C14 C13 1_555 1_555
H21 C14 1_555 1_555
C15 C14 1_555 1_555
H22 C15 1_555 1_555
C16 C15 1_555 1_555
H23 C16 1_555 1_555
H24 C16 1_555 1_555
C17 C16 1_555 1_555
H25 C17 1_555 1_555
H26 C17 1_555 1_555
H27 C17 1_555 1_555
C18 C15 1_555 1_555
H28 C18 1_555 1_555
H29 C18 1_555 1_555
H30 C18 1_555 1_555
O1 C1 1_555 1_555
O2 C4 1_555 1_555
H31 O2 1_555 1_555
O3 C5 1_555 1_555
O4 C13 1_555 1_555
H32 O4 1_555 1_555
N1 C1 1_555 1_555
H33 N1 1_555 1_555
C8 O3 1_555 1_555
C14 N1 1_555 1_555

#END
