
#######################################################################
#
#                 Cambridge Crystallographic Data Centre
#                                CCDC 
#
#######################################################################
#
# If this CIF has been generated from an entry in the Cambridge 
# Structural Database, then it will include bibliographic, chemical, 
# crystal, experimental, refinement or atomic coordinate data resulting 
# from the CCDC's data processing and validation procedures.
#
#######################################################################

data_GACLUU
_chemical_compound_source        'leaves of Casearia balansae'
_chemical_name_common            
2-Hydroxy-8-(3-hydroxy-5,6-dimethylhept-6-en-2-yl)-1,1,7a,10a-tetramethyl-1,2,3,5,6a,7,7a,8,9,10,10a,10b,11,12-tetradecahydro-4H-benzo[4',5']cyclohepta[1',2':4,5]indeno[5,6-b]oxiren-4-one
_chemical_formula_moiety         'C31 H48 O4'
_chemical_name_systematic        'Balanterpene A'
_symmetry_cell_setting           orthorhombic
_symmetry_space_group_name_H-M   'P 21 21 21'
_symmetry_Int_Tables_number      19
_space_group_name_Hall           'P 2ac 2ab'
loop_
_symmetry_equiv_pos_site_id
_symmetry_equiv_pos_as_xyz
1 x,y,z
2 1/2+x,1/2-y,-z
3 -x,1/2+y,1/2-z
4 1/2-x,-y,1/2+z
_cell_length_a                   11.738(3)
_cell_length_b                   13.856(3)
_cell_length_c                   17.106(3)
_cell_angle_alpha                90
_cell_angle_beta                 90
_cell_angle_gamma                90
_cell_volume                     2782.15
_exptl_crystal_colour            colorless
_exptl_crystal_description       prism
_chemical_melting_point          '242-243 deg.C'
_cell_formula_units_Z            4
loop_
_atom_site_label
_atom_site_type_symbol
_atom_site_fract_x
_atom_site_fract_y
_atom_site_fract_z
O1 O 0.35556(14) 0.17865(14) 0.97522(10)
O2 O 0.63553(15) 0.38554(13) 1.07809(13)
H1 H 0.6443 0.4189 1.1187
O3 O 0.17055(12) 0.17470(11) 1.13825(9)
O4 O -0.27210(14) -0.14044(12) 1.41557(12)
H2 H -0.2285 -0.1877 1.4086
C1 C 0.42365(18) 0.19306(17) 1.02790(13)
C2 C 0.5218(2) 0.2611(2) 1.01686(16)
H3 H 0.5035 0.3072 0.9745
H4 H 0.5901 0.2241 1.0009
C3 C 0.54760(18) 0.31627(17) 1.09077(15)
H5 H 0.4772 0.3536 1.1038
C4 C 0.57135(17) 0.25034(17) 1.16099(15)
C5 C 0.48211(17) 0.17034(16) 1.16515(14)
C6 C 0.46625(18) 0.12001(18) 1.24280(15)
H6 H 0.5285 0.1393 1.2786
H7 H 0.4715 0.0494 1.2348
C7 C 0.35059(18) 0.14415(18) 1.28122(13)
H8 H 0.3578 0.1365 1.3385
H9 H 0.3319 0.2126 1.2705
C8 C 0.25197(16) 0.08033(14) 1.25207(12)
H10 H 0.2780 0.0124 1.2606
C9 C 0.23112(17) 0.08879(15) 1.16405(12)
C10 C 0.32959(19) 0.06306(17) 1.11054(14)
H11 H 0.3674 0.0042 1.1306
H12 H 0.2995 0.0483 1.0578
C11 C 0.41680(18) 0.14331(16) 1.10410(14)
C12 C 0.11399(17) 0.08108(16) 1.13292(13)
H13 H 0.1081 0.0538 1.0789
C13 C 0.01068(17) 0.06420(17) 1.18463(12)
H14 H -0.0416 0.0182 1.1587
H15 H -0.0306 0.1258 1.1921
C14 C 0.04638(16) 0.02362(14) 1.26463(12)
C15 C 0.14142(16) 0.09031(15) 1.30009(12)
C16 C 0.15148(18) 0.05129(17) 1.38374(13)
H16 H 0.1843 0.1005 1.4191
H17 H 0.1999 -0.0072 1.3853
C17 C 0.02742(19) 0.02728(17) 1.40706(13)
H18 H -0.0026 0.0772 1.4429
H19 H 0.0243 -0.0359 1.4340
C18 C -0.04484(17) 0.02412(15) 1.33065(12)
H20 H -0.0876 0.0864 1.3269
C19 C -0.13311(17) -0.05822(15) 1.33183(13)
H21 H -0.0898 -0.1202 1.3353
C20 C -0.20934(18) -0.05219(16) 1.40493(14)
H22 H -0.1594 -0.0423 1.4516
C21 C -0.29792(19) 0.02837(17) 1.40319(14)
H23 H -0.3668 0.0050 1.3756
H24 H -0.2670 0.0836 1.3733
C22 C -0.3318(2) 0.0630(2) 1.48557(16)
H25 H -0.3378 0.0049 1.5199
C23 C -0.2406(3) 0.1273(3) 1.51894(19)
C24 C -0.1748(4) 0.0986(5) 1.5772(2)
H26 H -0.1174 0.1404 1.5970
H27 H -0.1849 0.0363 1.5993
C25 C 0.68936(19) 0.2025(2) 1.1550(2)
H28 H 0.7487 0.2521 1.1579
H29 H 0.6955 0.1681 1.1051
H30 H 0.6991 0.1567 1.1982
C26 C 0.5683(3) 0.3141(2) 1.23468(18)
H31 H 0.6190 0.3696 1.2275
H32 H 0.5937 0.2764 1.2799
H33 H 0.4904 0.3369 1.2436
C27 C 0.09010(18) -0.08024(15) 1.25211(14)
H34 H 0.1197 -0.1057 1.3016
H35 H 0.1510 -0.0799 1.2129
H36 H 0.0274 -0.1211 1.2339
C28 C 0.10311(18) 0.19657(15) 1.30683(13)
H37 H 0.0929 0.2237 1.2544
H38 H 0.1612 0.2336 1.3350
H39 H 0.0308 0.1998 1.3354
C29 C -0.20636(18) -0.06332(17) 1.25781(14)
H40 H -0.2681 -0.1100 1.2656
H41 H -0.1591 -0.0837 1.2136
H42 H -0.2388 0.0005 1.2469
C30 C -0.4491(3) 0.1115(3) 1.4835(2)
H43 H -0.5068 0.0640 1.4680
H44 H -0.4481 0.1645 1.4456
H45 H -0.4674 0.1369 1.5355
C31 C -0.2268(5) 0.2252(4) 1.4829(3)
H46 H -0.2990 0.2604 1.4862
H47 H -0.2048 0.2181 1.4279
H48 H -0.1675 0.2610 1.5109
loop_
_geom_bond_atom_site_label_1
_geom_bond_atom_site_label_2
_geom_bond_site_symmetry_1
_geom_bond_site_symmetry_2
O1 C1 1_555 1_555
O2 H1 1_555 1_555
O3 C9 1_555 1_555
O4 H2 1_555 1_555
C1 C2 1_555 1_555
C2 H3 1_555 1_555
H4 C2 1_555 1_555
C3 O2 1_555 1_555
H5 C3 1_555 1_555
C4 C3 1_555 1_555
C5 C4 1_555 1_555
C6 C5 1_555 1_555
H6 C6 1_555 1_555
H7 C6 1_555 1_555
C7 C6 1_555 1_555
H8 C7 1_555 1_555
H9 C7 1_555 1_555
C8 C7 1_555 1_555
H10 C8 1_555 1_555
C9 C8 1_555 1_555
C10 C9 1_555 1_555
H11 C10 1_555 1_555
H12 C10 1_555 1_555
C11 C1 1_555 1_555
C12 O3 1_555 1_555
H13 C12 1_555 1_555
C13 C12 1_555 1_555
H14 C13 1_555 1_555
H15 C13 1_555 1_555
C14 C13 1_555 1_555
C15 C8 1_555 1_555
C16 C15 1_555 1_555
H16 C16 1_555 1_555
H17 C16 1_555 1_555
C17 C16 1_555 1_555
H18 C17 1_555 1_555
H19 C17 1_555 1_555
C18 C14 1_555 1_555
H20 C18 1_555 1_555
C19 C18 1_555 1_555
H21 C19 1_555 1_555
C20 O4 1_555 1_555
H22 C20 1_555 1_555
C21 C20 1_555 1_555
H23 C21 1_555 1_555
H24 C21 1_555 1_555
C22 C21 1_555 1_555
H25 C22 1_555 1_555
C23 C22 1_555 1_555
C24 C23 1_555 1_555
H26 C24 1_555 1_555
H27 C24 1_555 1_555
C25 C4 1_555 1_555
H28 C25 1_555 1_555
H29 C25 1_555 1_555
H30 C25 1_555 1_555
C26 C4 1_555 1_555
H31 C26 1_555 1_555
H32 C26 1_555 1_555
H33 C26 1_555 1_555
C27 C14 1_555 1_555
H34 C27 1_555 1_555
H35 C27 1_555 1_555
H36 C27 1_555 1_555
C28 C15 1_555 1_555
H37 C28 1_555 1_555
H38 C28 1_555 1_555
H39 C28 1_555 1_555
C29 C19 1_555 1_555
H40 C29 1_555 1_555
H41 C29 1_555 1_555
H42 C29 1_555 1_555
C30 C22 1_555 1_555
H43 C30 1_555 1_555
H44 C30 1_555 1_555
H45 C30 1_555 1_555
C31 C23 1_555 1_555
H46 C31 1_555 1_555
H47 C31 1_555 1_555
H48 C31 1_555 1_555
C2 C3 1_555 1_555
C5 C11 1_555 1_555
C9 C12 1_555 1_555
C10 C11 1_555 1_555
C14 C15 1_555 1_555
C17 C18 1_555 1_555
C19 C20 1_555 1_555

#END
