
#######################################################################
#
#                 Cambridge Crystallographic Data Centre
#                                CCDC 
#
#######################################################################
#
# If this CIF has been generated from an entry in the Cambridge 
# Structural Database, then it will include bibliographic, chemical, 
# crystal, experimental, refinement or atomic coordinate data resulting 
# from the CCDC's data processing and validation procedures.
#
#######################################################################

data_GACNIK
_chemical_compound_source        'Dendrobium crepidatum'
_chemical_name_common            
1,3-bis(6-Hydroxy-7-methyl-6-phenyloctahydroindolizin-5-yl)acetone
_chemical_formula_moiety         'C33 H44 N2 O3'
_chemical_name_systematic        '(-)-Homocrepidine A'
_chemical_properties_biological  'anti-inflammatory activity'
_symmetry_cell_setting           monoclinic
_symmetry_space_group_name_H-M   'P 21'
_symmetry_Int_Tables_number      4
_space_group_name_Hall           'P 2yb'
loop_
_symmetry_equiv_pos_site_id
_symmetry_equiv_pos_as_xyz
1 x,y,z
2 -x,1/2+y,-z
_cell_length_a                   9.3519(2)
_cell_length_b                   14.7084(3)
_cell_length_c                   11.0943(2)
_cell_angle_alpha                90
_cell_angle_beta                 91.709(2)
_cell_angle_gamma                90
_cell_volume                     1525.36
_exptl_crystal_colour            colorless
_exptl_crystal_description       block
_cell_formula_units_Z            2
loop_
_atom_site_label
_atom_site_type_symbol
_atom_site_fract_x
_atom_site_fract_y
_atom_site_fract_z
O1 O 0.1066(2) 0.90214(14) 0.51474(16)
H1 H 0.0236 0.9201 0.5160
O2 O -0.2486(2) 0.44551(16) 0.26640(17)
H2 H -0.1914 0.4346 0.3220
C1 C 0.2791(3) 0.8369(2) 0.3888(3)
O3 O 0.0342(4) 0.71579(18) 0.1502(2)
C2 C 0.1528(3) 0.90068(18) 0.3930(2)
C3 C -0.1725(3) 0.4706(2) 0.1615(2)
C4 C -0.0433(3) 0.5303(2) 0.1996(3)
H3 H 0.0035 0.5519 0.1271
N1 N 0.0587(3) 0.4758(2) 0.2713(2)
C5 C 0.0277(3) 0.86509(19) 0.3126(2)
H4 H 0.0570 0.8651 0.2285
C6 C 0.3432(3) 0.8186(3) 0.2798(3)
H5 H 0.3109 0.8483 0.2102
C7 C -0.0048(4) 0.3359(3) 0.1660(4)
H6 H -0.0438 0.3089 0.2377
H7 H 0.0327 0.2871 0.1172
N2 N -0.0920(3) 0.9273(2) 0.3241(3)
C8 C -0.0923(3) 0.6126(2) 0.2723(3)
H8 H -0.1941 0.6209 0.2570
H9 H -0.0784 0.5989 0.3574
C9 C -0.2762(4) 0.5258(2) 0.0824(2)
C10 C 0.1933(3) 0.9976(2) 0.3528(3)
H10 H 0.2276 0.9929 0.2704
C11 C -0.0136(3) 0.7680(2) 0.3474(3)
H11 H 0.0542 0.7466 0.4090
H12 H -0.1071 0.7696 0.3829
C12 C -0.2293(5) 0.5741(3) -0.0167(3)
H13 H -0.1336 0.5707 -0.0367
C13 C -0.0179(3) 0.7008(2) 0.2464(2)
C14 C -0.2472(5) 0.3199(3) 0.0651(4)
H14 H -0.3207 0.3522 0.0206
H15 H -0.2853 0.2968 0.1385
H16 H -0.2136 0.2703 0.0174
C15 C 0.1146(4) 0.3989(3) 0.2022(4)
H17 H 0.1573 0.4226 0.1291
C16 C -0.1237(4) 0.3840(2) 0.0951(3)
H18 H -0.0842 0.4036 0.0185
C17 C 0.1878(4) 0.5225(3) 0.3156(4)
H19 H 0.1670 0.5628 0.3820
H20 H 0.2306 0.5575 0.2519
C18 C 0.3326(4) 0.7936(3) 0.4904(4)
H21 H 0.2938 0.8059 0.5648
C19 C 0.5034(5) 0.7137(4) 0.3742(6)
H22 H 0.5775 0.6718 0.3695
C20 C 0.4539(4) 0.7571(3) 0.2735(4)
H23 H 0.4948 0.7453 0.1997
C21 C -0.0601(4) 1.0178(3) 0.2765(4)
H24 H -0.0315 1.0111 0.1927
C22 C -0.2249(4) 0.9002(4) 0.2575(5)
H25 H -0.2740 0.8520 0.2991
H26 H -0.2049 0.8803 0.1764
C23 C 0.2338(5) 0.3626(4) 0.2854(5)
H27 H 0.3106 0.3372 0.2392
H28 H 0.1979 0.3161 0.3387
C24 C 0.2852(4) 0.4455(4) 0.3568(5)
H29 H 0.2775 0.4350 0.4427
H30 H 0.3840 0.4592 0.3399
C25 C 0.3141(4) 1.0381(3) 0.4298(4)
H31 H 0.3355 1.0981 0.4012
H32 H 0.3975 1.0004 0.4247
H33 H 0.2857 1.0415 0.5121
C26 C -0.4197(4) 0.5335(4) 0.1064(3)
H34 H -0.4556 0.5028 0.1722
C27 C 0.0621(4) 1.0592(2) 0.3478(4)
H35 H 0.0321 1.0712 0.4292
H36 H 0.0873 1.1168 0.3116
C28 C -0.5107(5) 0.5854(5) 0.0355(4)
H37 H -0.6071 0.5884 0.0535
C29 C 0.4438(5) 0.7320(4) 0.4828(5)
H38 H 0.4783 0.7027 0.5521
C30 C -0.3216(5) 0.6268(3) -0.0858(4)
H39 H -0.2868 0.6589 -0.1509
C31 C -0.4624(5) 0.6328(3) -0.0608(4)
H40 H -0.5243 0.6682 -0.1080
C32 C -0.3120(7) 0.9869(5) 0.2556(7)
H41 H -0.3817 0.9857 0.3186
H42 H -0.3623 0.9939 0.1784
C33 C -0.2069(6) 1.0643(4) 0.2765(6)
H43 H -0.2224 1.0939 0.3531
H44 H -0.2156 1.1090 0.2125
loop_
_geom_bond_atom_site_label_1
_geom_bond_atom_site_label_2
_geom_bond_site_symmetry_1
_geom_bond_site_symmetry_2
O1 H1 1_555 1_555
O2 H2 1_555 1_555
C1 C2 1_555 1_555
O3 C13 1_555 1_555
C2 O1 1_555 1_555
C3 O2 1_555 1_555
C4 C3 1_555 1_555
H3 C4 1_555 1_555
N1 C4 1_555 1_555
C5 C2 1_555 1_555
H4 C5 1_555 1_555
C6 C1 1_555 1_555
H5 C6 1_555 1_555
C7 H6 1_555 1_555
H7 C7 1_555 1_555
N2 C5 1_555 1_555
C8 C4 1_555 1_555
H8 C8 1_555 1_555
H9 C8 1_555 1_555
C9 C3 1_555 1_555
C10 C2 1_555 1_555
H10 C10 1_555 1_555
C11 C5 1_555 1_555
H11 C11 1_555 1_555
H12 C11 1_555 1_555
C12 C9 1_555 1_555
H13 C12 1_555 1_555
C13 C8 1_555 1_555
C14 H14 1_555 1_555
H15 C14 1_555 1_555
H16 C14 1_555 1_555
C15 N1 1_555 1_555
H17 C15 1_555 1_555
C16 C3 1_555 1_555
H18 C16 1_555 1_555
C17 N1 1_555 1_555
H19 C17 1_555 1_555
H20 C17 1_555 1_555
C18 C1 1_555 1_555
H21 C18 1_555 1_555
C19 H22 1_555 1_555
C20 C6 1_555 1_555
H23 C20 1_555 1_555
C21 N2 1_555 1_555
H24 C21 1_555 1_555
C22 N2 1_555 1_555
H25 C22 1_555 1_555
H26 C22 1_555 1_555
C23 C15 1_555 1_555
H27 C23 1_555 1_555
H28 C23 1_555 1_555
C24 C17 1_555 1_555
H29 C24 1_555 1_555
H30 C24 1_555 1_555
C25 C10 1_555 1_555
H31 C25 1_555 1_555
H32 C25 1_555 1_555
H33 C25 1_555 1_555
C26 C9 1_555 1_555
H34 C26 1_555 1_555
C27 C10 1_555 1_555
H35 C27 1_555 1_555
H36 C27 1_555 1_555
C28 C26 1_555 1_555
H37 C28 1_555 1_555
C29 C18 1_555 1_555
H38 C29 1_555 1_555
C30 C12 1_555 1_555
H39 C30 1_555 1_555
C31 C28 1_555 1_555
H40 C31 1_555 1_555
C32 C22 1_555 1_555
H41 C32 1_555 1_555
H42 C32 1_555 1_555
C33 C21 1_555 1_555
H43 C33 1_555 1_555
H44 C33 1_555 1_555
C7 C15 1_555 1_555
C7 C16 1_555 1_555
C11 C13 1_555 1_555
C14 C16 1_555 1_555
C19 C20 1_555 1_555
C19 C29 1_555 1_555
C21 C27 1_555 1_555
C23 C24 1_555 1_555
C30 C31 1_555 1_555
C32 C33 1_555 1_555

#END
