
#######################################################################
#
#                 Cambridge Crystallographic Data Centre
#                                CCDC 
#
#######################################################################
#
# If this CIF has been generated from an entry in the Cambridge 
# Structural Database, then it will include bibliographic, chemical, 
# crystal, experimental, refinement or atomic coordinate data resulting 
# from the CCDC's data processing and validation procedures.
#
#######################################################################

data_GACNAC
_chemical_compound_source        'Dendrobium crepidatum'
_chemical_name_common            
1,3-bis(6-Hydroxy-7-methyl-6-phenyloctahydroindolizin-5-yl)acetone
_chemical_formula_moiety         'C33 H44 N2 O3'
_chemical_name_systematic        '(+-)-Homocrepidine A'
_chemical_properties_biological  'anti-inflammatory activity'
_symmetry_cell_setting           triclinic
_symmetry_space_group_name_H-M   'P -1'
_symmetry_Int_Tables_number      2
_space_group_name_Hall           '-P 1'
loop_
_symmetry_equiv_pos_site_id
_symmetry_equiv_pos_as_xyz
1 x,y,z
2 -x,-y,-z
_cell_length_a                   12.1696(3)
_cell_length_b                   12.2213(3)
_cell_length_c                   23.5426(6)
_cell_angle_alpha                89.717(2)
_cell_angle_beta                 89.436(2)
_cell_angle_gamma                63.420(2)
_cell_volume                     3131.23
_exptl_crystal_colour            colorless
_exptl_crystal_description       block
_cell_formula_units_Z            4
loop_
_atom_site_label
_atom_site_type_symbol
_atom_site_fract_x
_atom_site_fract_y
_atom_site_fract_z
O1 O 0.94529(13) 0.29715(14) 0.74002(6)
H1 H 1.0125 0.2965 0.7357
O2 O 0.98175(18) 0.09200(14) 0.92945(7)
O3 O 1.23788(16) -0.35584(14) 0.88279(6)
H2 H 1.1829 -0.3747 0.8753
N1 N 1.10912(15) 0.25111(16) 0.83316(7)
C1 C 1.02462(17) 0.04448(18) 0.88444(8)
C2 C 1.00615(18) 0.11876(17) 0.83074(8)
H3 H 0.9341 0.1232 0.8116
H4 H 1.0763 0.0758 0.8058
C3 C 0.99027(17) 0.24871(17) 0.83951(8)
H5 H 0.9584 0.2756 0.8780
C4 C 0.89968(18) 0.33911(18) 0.79597(8)
N2 N 0.99249(17) -0.20908(17) 0.91219(8)
C5 C 1.08660(18) -0.16974(18) 0.92548(9)
H6 H 1.0637 -0.1221 0.9607
C6 C 0.77546(18) 0.33887(18) 0.80190(9)
C7 C 0.9686(2) -0.2731(2) 0.95980(11)
H7 H 0.9468 -0.2200 0.9933
C8 C 1.20826(19) -0.28716(17) 0.93461(8)
C9 C 1.09845(19) -0.09114(18) 0.87773(9)
H8 H 1.1843 -0.1093 0.8739
H9 H 1.0746 -0.1152 0.8426
C10 C 0.7263(2) 0.2995(2) 0.75874(10)
H10 H 0.7687 0.2746 0.7244
C11 C 1.0999(2) 0.3732(2) 0.84504(11)
H11 H 1.0673 0.3973 0.8836
C12 C 1.3107(2) -0.2530(2) 0.94753(10)
C13 C 0.7089(2) 0.3779(3) 0.85222(11)
H12 H 0.7394 0.4068 0.8816
C14 C 1.2048(2) 0.1716(2) 0.87227(10)
H13 H 1.2392 0.0867 0.8604
H14 H 1.1729 0.1786 0.9107
C15 C 1.1925(2) -0.3650(2) 0.98326(10)
H15 H 1.1766 -0.3174 1.0184
C16 C 0.8873(2) 0.4694(2) 0.80470(12)
H16 H 0.8510 0.4972 0.8424
C17 C 1.2330(2) 0.3493(3) 0.84392(14)
H17 H 1.2452 0.4081 0.8673
H18 H 1.2603 0.3533 0.8054
C18 C 1.0822(3) -0.3892(2) 0.97293(11)
H19 H 1.1003 -0.4457 0.9414
H20 H 1.0671 -0.4273 1.0064
C19 C 1.3013(2) 0.2206(3) 0.86806(14)
H21 H 1.3341 0.2225 0.9052
H22 H 1.3685 0.1696 0.8431
C20 C 0.5978(3) 0.3741(3) 0.85913(14)
H23 H 0.5545 0.3994 0.8932
C21 C 1.0146(3) 0.4663(2) 0.80398(13)
H24 H 1.0493 0.4468 0.7660
H25 H 1.0066 0.5465 0.8139
C22 C 1.4096(2) -0.2811(3) 0.91044(12)
H26 H 1.4162 -0.3256 0.8776
C23 C 1.3078(3) -0.1897(3) 0.99685(13)
H27 H 1.2438 -0.1715 1.0228
C24 C 1.4985(3) -0.2427(3) 0.92256(17)
H28 H 1.5640 -0.2614 0.8975
C25 C 0.5513(3) 0.3331(4) 0.81591(16)
H29 H 0.4767 0.3302 0.8206
C26 C 1.3090(3) -0.4842(2) 0.99201(13)
H30 H 1.3770 -0.4662 0.9986
H31 H 1.3252 -0.5343 0.9587
H32 H 1.2981 -0.5269 1.0242
C27 C 0.6153(3) 0.2966(3) 0.76577(15)
H33 H 0.5835 0.2695 0.7362
C28 C 0.7889(3) -0.1765(4) 0.9021(2)
H34 H 0.7087 -0.1226 0.9176
H35 H 0.7783 -0.2034 0.8647
C29 C 0.8555(3) -0.2848(3) 0.94083(16)
H36 H 0.8785 -0.3610 0.9206
H37 H 0.8043 -0.2819 0.9732
C30 C 1.4910(3) -0.1777(4) 0.97088(19)
H38 H 1.5496 -0.1503 0.9781
C31 C 1.3968(3) -0.1535(3) 1.00830(17)
H39 H 1.3929 -0.1121 1.0419
C32 C 0.8701(2) -0.1113(3) 0.89863(15)
H40 H 0.8689 -0.0787 0.8609
H41 H 0.8442 -0.0452 0.9260
C33 C 0.8022(3) 0.5605(3) 0.76111(17)
H42 H 0.7231 0.5612 0.7629
H43 H 0.8367 0.5367 0.7237
H44 H 0.7935 0.6408 0.7694
O4 O 0.64542(14) 0.22178(16) 0.62055(7)
H45 H 0.6265 0.1666 0.6278
O5 O 1.09329(14) -0.01542(18) 0.57142(7)
C34 C 0.82986(17) 0.07525(18) 0.57518(8)
H46 H 0.8786 0.0561 0.5400
N3 N 0.79106(16) -0.02030(16) 0.58661(8)
O6 O 1.28317(15) 0.02430(19) 0.75575(6)
H47 H 1.2606 0.0982 0.7579
N4 N 1.19220(18) 0.1808(2) 0.65978(8)
C35 C 1.11591(18) 0.02613(19) 0.66799(8)
H48 H 1.1439 -0.0530 0.6863
H49 H 1.0615 0.0875 0.6944
C36 C 1.04308(17) 0.02782(17) 0.61598(8)
C37 C 0.71186(18) 0.19641(19) 0.56778(8)
C38 C 1.22696(19) 0.0498(2) 0.65657(9)
H50 H 1.2585 0.0207 0.6183
C39 C 0.74595(19) 0.30019(19) 0.55529(9)
C40 C 0.90661(17) 0.08424(18) 0.62439(8)
H51 H 0.8783 0.1702 0.6331
H52 H 0.8896 0.0465 0.6575
C41 C 0.7248(2) -0.0387(2) 0.53806(11)
H53 H 0.7763 -0.0554 0.5039
C42 C 1.0944(3) 0.2589(2) 0.62026(11)
H54 H 1.0144 0.2694 0.6333
H55 H 1.1097 0.2244 0.5823
C43 C 0.6078(2) 0.0750(3) 0.52887(12)
H56 H 0.5541 0.0888 0.5616
H57 H 0.5664 0.0642 0.4959
C44 C 0.8070(3) 0.2999(2) 0.50507(11)
H58 H 0.8263 0.2366 0.4791
C45 C 0.7202(2) 0.3954(2) 0.59293(11)
H59 H 0.6794 0.3980 0.6269
C46 C 1.3709(2) -0.1537(3) 0.69816(10)
C47 C 0.6311(2) 0.1863(2) 0.51989(10)
H60 H 0.6769 0.1743 0.4841
C48 C 0.5111(2) 0.3026(3) 0.51402(14)
H61 H 0.5286 0.3711 0.5082
H62 H 0.4627 0.3151 0.5480
H63 H 0.4664 0.2950 0.4822
C49 C 1.3309(2) -0.0175(3) 0.69974(10)
C50 C 0.7157(3) -0.1551(3) 0.55543(15)
H64 H 0.6407 -0.1353 0.5769
H65 H 0.7166 -0.2022 0.5222
C51 C 1.4058(3) -0.2172(3) 0.64732(13)
H66 H 1.4053 -0.1756 0.6141
C52 C 0.8132(3) 0.4854(3) 0.53097(16)
H67 H 0.8352 0.5475 0.5228
C53 C 1.2933(3) 0.2103(4) 0.64387(13)
H68 H 1.3231 0.1779 0.6058
C54 C 0.8273(4) -0.2259(3) 0.5917(2)
H69 H 0.8815 -0.3028 0.5738
H70 H 0.8031 -0.2428 0.6289
C55 C 0.8910(3) -0.1427(2) 0.59689(15)
H71 H 0.9252 -0.1484 0.6344
H72 H 0.9560 -0.1636 0.5687
C56 C 1.4497(5) -0.4060(4) 0.6938(2)
H73 H 1.4762 -0.4901 0.6927
C57 C 1.4415(4) -0.3429(4) 0.64512(17)
H74 H 1.4596 -0.3833 0.6104
C58 C 1.3774(4) -0.2200(4) 0.74691(13)
H75 H 1.3537 -0.1797 0.7816
C59 C 0.8395(3) 0.3923(3) 0.49318(14)
H76 H 0.8795 0.3912 0.4592
C60 C 0.7545(3) 0.4866(2) 0.58058(14)
H77 H 0.7373 0.5495 0.6065
C61 C 1.1022(4) 0.3802(3) 0.62135(16)
H78 H 1.0884 0.4167 0.5838
H79 H 1.0416 0.4372 0.6474
C62 C 1.3968(3) 0.1510(5) 0.68520(17)
H80 H 1.3693 0.1855 0.7227
H81 H 1.4646 0.1678 0.6739
C63 C 1.4405(2) 0.0131(5) 0.68745(14)
H82 H 1.4730 -0.0193 0.6497
C64 C 1.2310(4) 0.3480(4) 0.64109(18)
H83 H 1.2729 0.3774 0.6144
H84 H 1.2293 0.3831 0.6781
C65 C 1.5454(3) -0.0502(6) 0.7298(2)
H85 H 1.5707 -0.1367 0.7294
H86 H 1.5175 -0.0186 0.7672
H87 H 1.6136 -0.0348 0.7191
C66 C 1.4185(6) -0.3447(4) 0.74481(18)
H88 H 1.4252 -0.3881 0.7782
loop_
_geom_bond_atom_site_label_1
_geom_bond_atom_site_label_2
_geom_bond_site_symmetry_1
_geom_bond_site_symmetry_2
O1 H1 1_555 1_555
O2 C1 1_555 1_555
O3 H2 1_555 1_555
N1 C3 1_555 1_555
C1 C2 1_555 1_555
C2 H3 1_555 1_555
H4 C2 1_555 1_555
C3 C2 1_555 1_555
H5 C3 1_555 1_555
C4 O1 1_555 1_555
N2 C5 1_555 1_555
C5 H6 1_555 1_555
C6 C4 1_555 1_555
C7 N2 1_555 1_555
H7 C7 1_555 1_555
C8 O3 1_555 1_555
C9 C1 1_555 1_555
H8 C9 1_555 1_555
H9 C9 1_555 1_555
C10 C6 1_555 1_555
H10 C10 1_555 1_555
C11 N1 1_555 1_555
H11 C11 1_555 1_555
C12 C8 1_555 1_555
C13 C6 1_555 1_555
H12 C13 1_555 1_555
C14 N1 1_555 1_555
H13 C14 1_555 1_555
H14 C14 1_555 1_555
C15 C8 1_555 1_555
H15 C15 1_555 1_555
C16 C4 1_555 1_555
H16 C16 1_555 1_555
C17 C11 1_555 1_555
H17 C17 1_555 1_555
H18 C17 1_555 1_555
C18 C7 1_555 1_555
H19 C18 1_555 1_555
H20 C18 1_555 1_555
C19 C14 1_555 1_555
H21 C19 1_555 1_555
H22 C19 1_555 1_555
C20 C13 1_555 1_555
H23 C20 1_555 1_555
C21 C11 1_555 1_555
H24 C21 1_555 1_555
H25 C21 1_555 1_555
C22 C12 1_555 1_555
H26 C22 1_555 1_555
C23 C12 1_555 1_555
H27 C23 1_555 1_555
C24 C22 1_555 1_555
H28 C24 1_555 1_555
C25 C20 1_555 1_555
H29 C25 1_555 1_555
C26 C15 1_555 1_555
H30 C26 1_555 1_555
H31 C26 1_555 1_555
H32 C26 1_555 1_555
C27 C10 1_555 1_555
H33 C27 1_555 1_555
C28 H34 1_555 1_555
H35 C28 1_555 1_555
C29 C7 1_555 1_555
H36 C29 1_555 1_555
H37 C29 1_555 1_555
C30 C24 1_555 1_555
H38 C30 1_555 1_555
C31 C23 1_555 1_555
H39 C31 1_555 1_555
C32 N2 1_555 1_555
H40 C32 1_555 1_555
H41 C32 1_555 1_555
C33 C16 1_555 1_555
H42 C33 1_555 1_555
H43 C33 1_555 1_555
H44 C33 1_555 1_555
O4 H45 1_555 1_555
O5 C36 1_555 1_555
C34 H46 1_555 1_555
N3 C34 1_555 1_555
O6 H47 1_555 1_555
N4 C38 1_555 1_555
C35 H48 1_555 1_555
H49 C35 1_555 1_555
C36 C35 1_555 1_555
C37 O4 1_555 1_555
C38 C35 1_555 1_555
H50 C38 1_555 1_555
C39 C37 1_555 1_555
C40 C34 1_555 1_555
H51 C40 1_555 1_555
H52 C40 1_555 1_555
C41 N3 1_555 1_555
H53 C41 1_555 1_555
C42 N4 1_555 1_555
H54 C42 1_555 1_555
H55 C42 1_555 1_555
C43 C41 1_555 1_555
H56 C43 1_555 1_555
H57 C43 1_555 1_555
C44 C39 1_555 1_555
H58 C44 1_555 1_555
C45 C39 1_555 1_555
H59 C45 1_555 1_555
C46 C49 1_555 1_555
C47 C37 1_555 1_555
H60 C47 1_555 1_555
C48 C47 1_555 1_555
H61 C48 1_555 1_555
H62 C48 1_555 1_555
H63 C48 1_555 1_555
C49 O6 1_555 1_555
C50 C41 1_555 1_555
H64 C50 1_555 1_555
H65 C50 1_555 1_555
C51 C46 1_555 1_555
H66 C51 1_555 1_555
C52 H67 1_555 1_555
C53 N4 1_555 1_555
H68 C53 1_555 1_555
C54 C50 1_555 1_555
H69 C54 1_555 1_555
H70 C54 1_555 1_555
C55 N3 1_555 1_555
H71 C55 1_555 1_555
H72 C55 1_555 1_555
C56 H73 1_555 1_555
C57 C51 1_555 1_555
H74 C57 1_555 1_555
C58 C46 1_555 1_555
H75 C58 1_555 1_555
C59 C44 1_555 1_555
H76 C59 1_555 1_555
C60 C45 1_555 1_555
H77 C60 1_555 1_555
C61 C42 1_555 1_555
H78 C61 1_555 1_555
H79 C61 1_555 1_555
C62 C53 1_555 1_555
H80 C62 1_555 1_555
H81 C62 1_555 1_555
C63 C49 1_555 1_555
H82 C63 1_555 1_555
C64 C53 1_555 1_555
H83 C64 1_555 1_555
H84 C64 1_555 1_555
C65 C63 1_555 1_555
H85 C65 1_555 1_555
H86 C65 1_555 1_555
H87 C65 1_555 1_555
C66 C56 1_555 1_555
H88 C66 1_555 1_555
C3 C4 1_555 1_555
C5 C8 1_555 1_555
C5 C9 1_555 1_555
C15 C18 1_555 1_555
C16 C21 1_555 1_555
C17 C19 1_555 1_555
C25 C27 1_555 1_555
C28 C29 1_555 1_555
C28 C32 1_555 1_555
C30 C31 1_555 1_555
C34 C37 1_555 1_555
C36 C40 1_555 1_555
C38 C49 1_555 1_555
C43 C47 1_555 1_555
C52 C59 1_555 1_555
C52 C60 1_555 1_555
C54 C55 1_555 1_555
C56 C57 1_555 1_555
C58 C66 1_555 1_555
C61 C64 1_555 1_555
C62 C63 1_555 1_555

#END
