
#######################################################################
#
#                 Cambridge Crystallographic Data Centre
#                                CCDC 
#
#######################################################################
#
# If this CIF has been generated from an entry in the Cambridge 
# Structural Database, then it will include bibliographic, chemical, 
# crystal, experimental, refinement or atomic coordinate data resulting 
# from the CCDC's data processing and validation procedures.
#
#######################################################################

data_GACYIT
_chemical_formula_moiety         'C12 H20 N1 O3 1+,C20 H17 O8 1-,C3 H6 O1,H2 O1'
_chemical_name_systematic        
'(R)-\a-(((1,1-Dimethylethyl)ammonio)methyl)-3,5-dihydroxyphenylmethanol (2S,3S)-di-O-toluoyl tartrate acetone clathrate monohydrate'
_symmetry_cell_setting           orthorhombic
_symmetry_space_group_name_H-M   'P 21 21 21'
_symmetry_Int_Tables_number      19
_space_group_name_Hall           'P 2ac 2ab'
loop_
_symmetry_equiv_pos_site_id
_symmetry_equiv_pos_as_xyz
1 x,y,z
2 1/2-x,-y,1/2+z
3 -x,1/2+y,1/2-z
4 1/2+x,1/2-y,-z
_cell_length_a                   7.810(1)
_cell_length_b                   21.431(4)
_cell_length_c                   21.948(3)
_cell_angle_alpha                90
_cell_angle_beta                 90
_cell_angle_gamma                90
_cell_volume                     3673.57
_exptl_crystal_colour            colorless
_exptl_crystal_description       column
_chemical_melting_point          165.8-167.0deg.C
_cell_formula_units_Z            4
_exptl_crystal_recrystallization_method methanol/acetone
loop_
_atom_site_label
_atom_site_type_symbol
_atom_site_fract_x
_atom_site_fract_y
_atom_site_fract_z
O1 O 0.0879(5) 0.88453(13) 0.63304(13)
H1 H 0.0646 0.8660 0.6647
O2 O 0.3318(4) 0.68579(11) 0.58353(11)
H2 H 0.2897 0.6767 0.6166
O3 O 0.1695(5) 0.86452(18) 0.40052(15)
H3 H 0.0895 0.8475 0.4181
N1 N 0.4419(5) 0.93218(15) 0.36393(14)
C1 C 0.2074(6) 0.86659(18) 0.53653(17)
H4 H 0.1789 0.9072 0.5255
C2 C 0.1673(6) 0.84486(17) 0.59389(17)
C3 C 0.2068(5) 0.78410(17) 0.60965(16)
H5 H 0.1774 0.7689 0.6479
C4 C 0.2891(5) 0.74645(16) 0.56881(16)
C5 C 0.3324(5) 0.76785(16) 0.51155(15)
H6 H 0.3895 0.7420 0.4842
C6 C 0.2897(6) 0.82816(17) 0.49546(15)
C7 C 0.3235(6) 0.85057(18) 0.43090(15)
H7 H 0.3840 0.8178 0.4084
C8 C 0.4282(6) 0.90976(18) 0.42887(15)
H8 H 0.3742 0.9416 0.4537
H9 H 0.5417 0.9019 0.4451
C9 C 0.5261(6) 0.99564(17) 0.35259(19)
C10 C 0.5361(7) 1.0028(2) 0.28371(19)
H10 H 0.5875 1.0422 0.2739
H11 H 0.4229 1.0010 0.2668
H12 H 0.6042 0.9696 0.2670
C11 C 0.4131(7) 1.04637(18) 0.3800(2)
H13 H 0.4075 1.0410 0.4234
H14 H 0.3001 1.0435 0.3631
H15 H 0.4608 1.0866 0.3708
C12 C 0.7014(6) 0.9953(2) 0.3814(2)
H16 H 0.7617 1.0326 0.3701
H17 H 0.7640 0.9595 0.3675
H18 H 0.6900 0.9936 0.4249
H19 H 0.506(5) 0.9066(16) 0.3436(17)
H20 H 0.340(2) 0.9351(19) 0.3492(18)
O4 O 0.9924(3) 0.90950(10) 0.22974(10)
O5 O 1.1043(4) 0.96788(12) 0.30476(12)
O6 O 1.2368(4) 0.77443(12) 0.26303(14)
O7 O 1.3101(3) 0.87009(12) 0.23447(15)
H21 H 1.4022 0.8536 0.2265
O8 O 0.6800(3) 0.84758(11) 0.31109(10)
O9 O 0.6064(3) 0.83449(13) 0.21354(12)
O10 O 0.9135(3) 0.79988(11) 0.17894(10)
O11 O 0.7872(4) 0.70616(12) 0.18058(12)
C13 C 0.8193(7) 1.1744(2) 0.1110(2)
H22 H 0.8567 1.2126 0.1298
H23 H 0.6966 1.1741 0.1086
H24 H 0.8668 1.1715 0.0708
C14 C 0.8788(6) 1.1198(2) 0.1486(2)
C15 C 0.8629(9) 1.0604(2) 0.1268(2)
H25 H 0.8162 1.0539 0.0883
C16 C 0.9153(8) 1.0101(2) 0.1611(2)
H26 H 0.9028 0.9701 0.1453
C17 C 0.9844(5) 1.01720(16) 0.21717(17)
C18 C 1.0035(7) 1.07743(17) 0.2384(2)
H27 H 1.0543 1.0842 0.2762
C19 C 0.9488(7) 1.12729(19) 0.2046(2)
H28 H 0.9599 1.1673 0.2206
C20 C 1.0342(5) 0.96436(16) 0.25580(17)
C21 C 1.0254(4) 0.85312(14) 0.26312(16)
H29 H 1.0105 0.8617 0.3067
C22 C 1.2042(5) 0.82839(17) 0.25295(16)
C23 C 0.8898(5) 0.80770(16) 0.24336(15)
H30 H 0.9072 0.7677 0.2640
C24 C 0.7096(5) 0.83176(15) 0.25643(17)
C25 C 0.8427(5) 0.74989(18) 0.15233(18)
C26 C 0.8447(6) 0.75606(19) 0.08525(18)
C27 C 0.8139(8) 0.7044(2) 0.0493(2)
H31 H 0.7940 0.6658 0.0674
C28 C 0.8128(9) 0.7099(3) -0.0134(2)
H32 H 0.7954 0.6744 -0.0370
C29 C 0.8361(7) 0.7652(3) -0.0414(2)
C30 C 0.8617(9) 0.8164(3) -0.0056(2)
H33 H 0.8754 0.8552 -0.0239
C31 C 0.8678(8) 0.8120(2) 0.05701(19)
H34 H 0.8879 0.8476 0.0802
C32 C 0.8323(10) 0.7690(3) -0.1109(2)
H35 H 0.9471 0.7670 -0.1263
H36 H 0.7803 0.8076 -0.1231
H37 H 0.7671 0.7347 -0.1268
O12 O 0.0016(5) 0.82329(16) 0.73969(16)
H38 H -0.079(6) 0.799(2) 0.740(3)
H39 H 0.072(6) 0.806(3) 0.762(2)
C33 C 0.096(2) 1.0451(5) 0.6153(3)
H40 H 0.0764 1.0044 0.6321
H41 H -0.0030 1.0707 0.6217
H42 H 0.1933 1.0637 0.6350
C34 C 0.1292(12) 1.0398(3) 0.5504(3)
C35 C -0.0083(16) 1.0363(6) 0.5060(5)
H43 H 0.0381 1.0407 0.4657
H44 H -0.0890 1.0692 0.5134
H45 H -0.0651 0.9967 0.5094
O13 O 0.2716(13) 1.0391(4) 0.5295(4)
loop_
_geom_bond_atom_site_label_1
_geom_bond_atom_site_label_2
_geom_bond_site_symmetry_1
_geom_bond_site_symmetry_2
O1 H1 1_555 1_555
O2 H2 1_555 1_555
O3 H3 1_555 1_555
N1 C8 1_555 1_555
C1 H4 1_555 1_555
C2 O1 1_555 1_555
C3 C2 1_555 1_555
H5 C3 1_555 1_555
C4 O2 1_555 1_555
C5 C4 1_555 1_555
H6 C5 1_555 1_555
C6 C1 1_555 1_555
C7 O3 1_555 1_555
H7 C7 1_555 1_555
C8 C7 1_555 1_555
H8 C8 1_555 1_555
H9 C8 1_555 1_555
C9 N1 1_555 1_555
C10 C9 1_555 1_555
H10 C10 1_555 1_555
H11 C10 1_555 1_555
H12 C10 1_555 1_555
C11 C9 1_555 1_555
H13 C11 1_555 1_555
H14 C11 1_555 1_555
H15 C11 1_555 1_555
C12 C9 1_555 1_555
H16 C12 1_555 1_555
H17 C12 1_555 1_555
H18 C12 1_555 1_555
H19 N1 1_555 1_555
H20 N1 1_555 1_555
O4 C20 1_555 1_555
O5 C20 1_555 1_555
O6 C22 1_555 1_555
O7 H21 1_555 1_555
O8 C24 1_555 1_555
O9 C24 1_555 1_555
O10 C23 1_555 1_555
O11 C25 1_555 1_555
C13 H22 1_555 1_555
H23 C13 1_555 1_555
H24 C13 1_555 1_555
C14 C13 1_555 1_555
C15 C14 1_555 1_555
H25 C15 1_555 1_555
C16 C15 1_555 1_555
H26 C16 1_555 1_555
C17 C16 1_555 1_555
C18 C17 1_555 1_555
H27 C18 1_555 1_555
C19 C14 1_555 1_555
H28 C19 1_555 1_555
C20 C17 1_555 1_555
C21 O4 1_555 1_555
H29 C21 1_555 1_555
C22 O7 1_555 1_555
C23 C21 1_555 1_555
H30 C23 1_555 1_555
C24 C23 1_555 1_555
C25 O10 1_555 1_555
C26 C25 1_555 1_555
C27 C26 1_555 1_555
H31 C27 1_555 1_555
C28 C27 1_555 1_555
H32 C28 1_555 1_555
C29 C28 1_555 1_555
C30 C29 1_555 1_555
H33 C30 1_555 1_555
C31 C26 1_555 1_555
H34 C31 1_555 1_555
C32 C29 1_555 1_555
H35 C32 1_555 1_555
H36 C32 1_555 1_555
H37 C32 1_555 1_555
O12 H38 1_555 1_555
H39 O12 1_555 1_555
C33 H40 1_555 1_555
H41 C33 1_555 1_555
H42 C33 1_555 1_555
C34 C33 1_555 1_555
C35 C34 1_555 1_555
H43 C35 1_555 1_555
H44 C35 1_555 1_555
H45 C35 1_555 1_555
O13 C34 1_555 1_555
C1 C2 1_555 1_555
C3 C4 1_555 1_555
C5 C6 1_555 1_555
C6 C7 1_555 1_555
C18 C19 1_555 1_555
C21 C22 1_555 1_555
C30 C31 1_555 1_555

#END
