
#######################################################################
#
#                 Cambridge Crystallographic Data Centre
#                                CCDC 
#
#######################################################################
#
# If this CIF has been generated from an entry in the Cambridge 
# Structural Database, then it will include bibliographic, chemical, 
# crystal, experimental, refinement or atomic coordinate data resulting 
# from the CCDC's data processing and validation procedures.
#
#######################################################################

data_GADNEH
_chemical_formula_moiety         'C8 H4 N1 O6 1-,C5 H12 N1 1+'
_chemical_name_systematic        'piperidinium 2-carboxy-4-nitrobenzoate'
_symmetry_cell_setting           monoclinic
_symmetry_space_group_name_H-M   'P 21/c'
_symmetry_Int_Tables_number      14
_space_group_name_Hall           '-P 2ybc'
loop_
_symmetry_equiv_pos_site_id
_symmetry_equiv_pos_as_xyz
1 x,y,z
2 -x,1/2+y,1/2-z
3 -x,-y,-z
4 x,1/2-y,1/2+z
_cell_length_a                   6.3466(5)
_cell_length_b                   24.008(2)
_cell_length_c                   9.0390(7)
_cell_angle_alpha                90
_cell_angle_beta                 97.0050(10)
_cell_angle_gamma                90
_cell_volume                     1366.98
_exptl_crystal_colour            colorless
_exptl_crystal_description       block
_cell_formula_units_Z            4
loop_
_atom_site_label
_atom_site_type_symbol
_atom_site_fract_x
_atom_site_fract_y
_atom_site_fract_z
N1 N 0.4043(3) 0.29900(7) 0.3133(2)
H1 H 0.3256 0.2695 0.2786
H2 H 0.4540 0.3156 0.2352
C1 C 0.2681(4) 0.33886(10) 0.3835(3)
H3 H 0.2043 0.3204 0.4625
H4 H 0.1548 0.3519 0.3099
C2 C 0.3979(4) 0.38734(10) 0.4464(3)
H5 H 0.3084 0.4127 0.4944
H6 H 0.4528 0.4073 0.3660
C3 C 0.5802(4) 0.36866(11) 0.5579(3)
H7 H 0.5258 0.3519 0.6432
H8 H 0.6661 0.4006 0.5926
C4 C 0.7148(4) 0.32689(12) 0.4869(3)
H9 H 0.7844 0.3453 0.4105
H10 H 0.8241 0.3127 0.5617
C5 C 0.5853(4) 0.27932(10) 0.4187(3)
H11 H 0.6745 0.2553 0.3666
H12 H 0.5325 0.2576 0.4969
N2 N 1.1272(4) -0.01011(9) 0.2025(3)
O1 O 0.5246(3) 0.12827(8) 0.5768(2)
O2 O 0.8002(3) 0.18377(7) 0.6227(2)
O3 O 1.0975(3) 0.21160(7) 0.5027(2)
H13 H 1.0064 0.1999 0.5518
O4 O 1.2060(3) 0.19216(7) 0.2874(2)
O5 O 1.3013(4) 0.00191(8) 0.1707(3)
O6 O 1.0493(3) -0.05512(9) 0.1795(3)
C6 C 0.7044(4) 0.14200(11) 0.5569(3)
C7 C 1.1099(4) 0.17933(10) 0.3912(3)
C8 C 0.8215(4) 0.10694(9) 0.4523(3)
C9 C 1.0028(3) 0.12240(9) 0.3878(3)
C10 C 1.0987(4) 0.08312(9) 0.3045(3)
H14 H 1.2200 0.0926 0.2619
C11 C 1.0159(4) 0.03074(9) 0.2848(3)
C12 C 0.8323(4) 0.01558(10) 0.3406(3)
H15 H 0.7739 -0.0197 0.3228
C13 C 0.7376(4) 0.05418(10) 0.4234(3)
H16 H 0.6128 0.0445 0.4614
loop_
_geom_bond_atom_site_label_1
_geom_bond_atom_site_label_2
_geom_bond_site_symmetry_1
_geom_bond_site_symmetry_2
N1 H1 1_555 1_555
H2 N1 1_555 1_555
C1 N1 1_555 1_555
H3 C1 1_555 1_555
H4 C1 1_555 1_555
C2 C1 1_555 1_555
H5 C2 1_555 1_555
H6 C2 1_555 1_555
C3 C2 1_555 1_555
H7 C3 1_555 1_555
H8 C3 1_555 1_555
C4 C3 1_555 1_555
H9 C4 1_555 1_555
H10 C4 1_555 1_555
C5 N1 1_555 1_555
H11 C5 1_555 1_555
H12 C5 1_555 1_555
N2 O5 1_555 1_555
O1 C6 1_555 1_555
O2 C6 1_555 1_555
O3 H13 1_555 1_555
O4 C7 1_555 1_555
O6 N2 1_555 1_555
C6 C8 1_555 1_555
C7 O3 1_555 1_555
C8 C9 1_555 1_555
C9 C7 1_555 1_555
C10 C9 1_555 1_555
H14 C10 1_555 1_555
C11 N2 1_555 1_555
C12 C11 1_555 1_555
H15 C12 1_555 1_555
C13 C8 1_555 1_555
H16 C13 1_555 1_555
C4 C5 1_555 1_555
C10 C11 1_555 1_555
C12 C13 1_555 1_555

#END
