
#######################################################################
#
#                 Cambridge Crystallographic Data Centre
#                                CCDC 
#
#######################################################################
#
# If this CIF has been generated from an entry in the Cambridge 
# Structural Database, then it will include bibliographic, chemical, 
# crystal, experimental, refinement or atomic coordinate data resulting 
# from the CCDC's data processing and validation procedures.
#
#######################################################################

data_GAFBAT
_chemical_formula_moiety         '2(C6 H16 N1 1+),C2 H2 O4,C2 O4 2-'
_chemical_name_systematic        'bis(triethylammonium) oxalate oxalic acid'
_symmetry_cell_setting           triclinic
_symmetry_space_group_name_H-M   'P -1'
_symmetry_Int_Tables_number      2
_space_group_name_Hall           '-P 1'
loop_
_symmetry_equiv_pos_site_id
_symmetry_equiv_pos_as_xyz
1 x,y,z
2 -x,-y,-z
_cell_length_a                   7.0974(14)
_cell_length_b                   7.4616(14)
_cell_length_c                   11.123(2)
_cell_angle_alpha                71.029(11)
_cell_angle_beta                 76.755(11)
_cell_angle_gamma                67.536(9)
_cell_volume                     511.065
_exptl_crystal_colour            colorless
_exptl_crystal_description       Prism
_cell_formula_units_Z            1
loop_
_atom_site_label
_atom_site_type_symbol
_atom_site_fract_x
_atom_site_fract_y
_atom_site_fract_z
O1 O 0.65508(12) 0.24830(11) 0.51257(7)
O2 O 0.47464(12) 0.40174(11) 0.66617(7)
C1 C 0.53976(15) 0.39679(15) 0.55030(9)
O1A O 0.34492(12) 0.75170(11) 0.48743(7)
O2A O 0.52536(12) 0.59826(11) 0.33383(7)
C1A C 0.46024(15) 0.60321(15) 0.44970(9)
O3 O 0.41623(12) 0.91437(11) 0.16204(7)
O4 O 0.69511(13) 0.77026(13) 0.04060(8)
C2 C 0.53765(15) 0.90596(15) 0.05623(9)
H1 H 0.463(4) 0.782(4) 0.238(2)
O3A O 0.58377(12) 1.08563(11) -0.16204(7)
O4A O 0.30489(13) 1.22974(13) -0.04060(8)
C2A C 0.46235(15) 1.09404(15) -0.05623(9)
H1A H 0.537(4) 1.218(4) -0.238(2)
N1 N 0.83487(13) 0.22976(13) 0.26381(8)
H2 H 0.7491 0.2673 0.3425
C3 C 0.98949(16) 0.33831(16) 0.22300(10)
H3 H 0.9177 0.4839 0.1894
H4 H 1.0899 0.2897 0.1528
C4 C 1.10336(18) 0.30693(18) 0.33215(11)
H5 H 1.1868 0.3951 0.3047
H6 H 1.1928 0.1664 0.3563
H7 H 1.0041 0.3390 0.4059
C5 C 0.93810(17) 0.00551(16) 0.30095(11)
H8 H 1.0200 -0.0315 0.3718
H9 H 1.0338 -0.0358 0.2271
C6 C 0.7868(2) -0.10772(19) 0.34273(12)
H10 H 0.7212 -0.0893 0.2690
H11 H 0.6818 -0.0560 0.4089
H12 H 0.8595 -0.2511 0.3773
C7 C 0.69174(16) 0.30166(16) 0.16383(10)
H13 H 0.6287 0.4497 0.1455
H14 H 0.5798 0.2438 0.1991
C8 C 0.79445(19) 0.24674(19) 0.03939(11)
H15 H 0.6970 0.3126 -0.0243
H16 H 0.8386 0.1006 0.0540
H17 H 0.9142 0.2915 0.0080
loop_
_geom_bond_atom_site_label_1
_geom_bond_atom_site_label_2
_geom_bond_site_symmetry_1
_geom_bond_site_symmetry_2
O1 C1 1_555 1_555
O2 C1 1_555 1_555
C1 C1A 1_555 1_555
O3 C2 1_555 1_555
O4 C2 1_555 1_555
C2 C2A 1_555 1_555
H1 O3 1_555 1_555
N1 H2 1_555 1_555
C3 N1 1_555 1_555
H3 C3 1_555 1_555
H4 C3 1_555 1_555
C4 C3 1_555 1_555
H5 C4 1_555 1_555
H6 C4 1_555 1_555
H7 C4 1_555 1_555
C5 N1 1_555 1_555
H8 C5 1_555 1_555
H9 C5 1_555 1_555
C6 C5 1_555 1_555
H10 C6 1_555 1_555
H11 C6 1_555 1_555
H12 C6 1_555 1_555
C7 N1 1_555 1_555
H13 C7 1_555 1_555
H14 C7 1_555 1_555
C8 C7 1_555 1_555
H15 C8 1_555 1_555
H16 C8 1_555 1_555
H17 C8 1_555 1_555
O1A C1A 1_555 1_555
O2A C1A 1_555 1_555
O3A C2A 1_555 1_555
O4A C2A 1_555 1_555
H1A O3A 1_555 1_555

#END
