
#######################################################################
#
#                 Cambridge Crystallographic Data Centre
#                                CCDC 
#
#######################################################################
#
# If this CIF has been generated from an entry in the Cambridge 
# Structural Database, then it will include bibliographic, chemical, 
# crystal, experimental, refinement or atomic coordinate data resulting 
# from the CCDC's data processing and validation procedures.
#
#######################################################################

data_GAFDEX
_chemical_formula_moiety         'C9 H12 N1 O3 P1,H2 O1'
_chemical_name_systematic        '2-Aminoindane-2-phosphonic acid monohydrate'
_symmetry_cell_setting           monoclinic
_symmetry_space_group_name_H-M   'P 21/n'
_symmetry_Int_Tables_number      14
_space_group_name_Hall           '-P 2yn'
loop_
_symmetry_equiv_pos_site_id
_symmetry_equiv_pos_as_xyz
1 x,y,z
2 1/2+x,1/2-y,1/2+z
3 -x,-y,-z
4 1/2-x,1/2+y,1/2-z
_cell_length_a                   13.261(2)
_cell_length_b                   6.604(2)
_cell_length_c                   13.588(2)
_cell_angle_alpha                90
_cell_angle_beta                 119.09(2)
_cell_angle_gamma                90
_cell_volume                     1039.87
_exptl_crystal_colour            colorless
_exptl_crystal_description       plate
_chemical_melting_point          '257-260 deg.C'
_cell_formula_units_Z            4
loop_
_atom_site_label
_atom_site_type_symbol
_atom_site_fract_x
_atom_site_fract_y
_atom_site_fract_z
P1 P 0.40931(4) 0.22060(8) 0.31713(3)
O1 O 0.53549(12) 0.3051(3) 0.36321(12)
O2 O 0.41722(12) -0.0021(2) 0.33666(12)
O3 O 0.34430(12) 0.3390(2) 0.36215(11)
N1 N 0.21228(14) 0.2280(3) 0.11591(13)
C1 C 0.38594(18) 0.1171(3) 0.10671(17)
C2 C 0.33990(15) 0.2636(3) 0.16458(14)
C3 C 0.35424(16) 0.4778(3) 0.12669(15)
C4 C 0.35307(16) 0.4376(3) 0.01644(15)
C5 C 0.34189(18) 0.5755(4) -0.06491(17)
C6 C 0.35284(18) 0.5068(4) -0.15657(17)
C7 C 0.37197(18) 0.3050(4) -0.16696(17)
C8 C 0.38125(17) 0.1660(4) -0.08644(16)
C9 C 0.37209(16) 0.2346(3) 0.00594(15)
H1 H 0.536(3) 0.426(7) 0.370(3)
H2 H 0.175(2) 0.244(4) 0.042(2)
H3 H 0.196(2) 0.104(5) 0.130(2)
H4 H 0.177(2) 0.314(5) 0.136(2)
H5 H 0.330(2) 0.715(5) -0.058(2)
H6 H 0.347(3) 0.603(5) -0.217(3)
H7 H 0.373(3) 0.262(5) -0.233(3)
H8 H 0.393(2) 0.014(4) -0.095(2)
H9 H 0.473(2) 0.091(4) 0.163(2)
H10 H 0.345(2) -0.013(4) 0.094(2)
H11 H 0.296(2) 0.576(4) 0.122(2)
H12 H 0.429(2) 0.540(4) 0.184(2)
O4 O 0.57524(15) 0.6875(3) 0.40837(14)
H13 H 0.531(3) 0.791(6) 0.379(3)
H14 H 0.607(3) 0.688(6) 0.479(4)
loop_
_geom_bond_atom_site_label_1
_geom_bond_atom_site_label_2
_geom_bond_site_symmetry_1
_geom_bond_site_symmetry_2
P1 O1 1_555 1_555
O1 H1 1_555 1_555
O2 P1 1_555 1_555
O3 P1 1_555 1_555
O4 H13 1_555 1_555
N1 C2 1_555 1_555
C1 C2 1_555 1_555
C2 P1 1_555 1_555
C3 C2 1_555 1_555
C4 C3 1_555 1_555
C5 C4 1_555 1_555
C6 C5 1_555 1_555
C7 C6 1_555 1_555
C8 C7 1_555 1_555
C9 C1 1_555 1_555
H2 N1 1_555 1_555
H3 N1 1_555 1_555
H4 N1 1_555 1_555
H5 C5 1_555 1_555
H6 C6 1_555 1_555
H7 C7 1_555 1_555
H8 C8 1_555 1_555
H9 C1 1_555 1_555
H10 C1 1_555 1_555
H11 C3 1_555 1_555
H12 C3 1_555 1_555
H14 O4 1_555 1_555
C4 C9 1_555 1_555
C8 C9 1_555 1_555

#END
