
#######################################################################
#
#                 Cambridge Crystallographic Data Centre
#                                CCDC 
#
#######################################################################
#
# If this CIF has been generated from an entry in the Cambridge 
# Structural Database, then it will include bibliographic, chemical, 
# crystal, experimental, refinement or atomic coordinate data resulting 
# from the CCDC's data processing and validation procedures.
#
#######################################################################

data_GAFGAW
_chemical_formula_moiety         'C8 H24 N4 4+,4(Br1 1-),2(H2 O1)'
_chemical_name_systematic        
'1,4,7,10-Tetra-azoniacyclododecane tetrabromide dihydrate'
_symmetry_cell_setting           monoclinic
_symmetry_space_group_name_H-M   'C 2/c'
_symmetry_Int_Tables_number      15
_space_group_name_Hall           '-C 2yn'
loop_
_symmetry_equiv_pos_site_id
_symmetry_equiv_pos_as_xyz
1 x,y,z
2 1/2+x,1/2+y,z
3 x,-y,1/2+z
4 1/2+x,1/2-y,1/2+z
5 -x,-y,-z
6 1/2-x,1/2-y,-z
7 -x,y,1/2-z
8 1/2-x,1/2+y,1/2-z
_cell_length_a                   16.9596(4)
_cell_length_b                   8.8949(2)
_cell_length_c                   11.6793(3)
_cell_angle_alpha                90
_cell_angle_beta                 94.87(3)
_cell_angle_gamma                90
_cell_volume                     1755.51
_exptl_crystal_colour            colorless
_cell_formula_units_Z            4
loop_
_atom_site_label
_atom_site_type_symbol
_atom_site_fract_x
_atom_site_fract_y
_atom_site_fract_z
Br1 Br 0.10449(3) -0.24445(6) 0.54782(4)
N1 N 0.1108(2) 0.0142(5) 0.7372(4)
C1 C 0.0355(3) 0.0061(6) 0.7945(4)
H1 H 0.0321 0.0933 0.8465
H2 H 0.0351 -0.0867 0.8413
N2 N 0.1029(2) 0.4283(5) 0.6958(4)
C2 C 0.1249(3) 0.1488(6) 0.6665(4)
C3 C 0.1430(3) 0.2887(6) 0.7425(4)
C4 C 0.0143(3) 0.4328(6) 0.6901(4)
H3 H -0.0076 0.3443 0.647
H4 H -0.005 0.5243 0.6485
H6 H 0.201(3) 0.326(6) 0.743(4)
H7 H 0.176(3) 0.117(6) 0.626(4)
H8 H 0.076(3) 0.169(5) 0.620(4)
H9 H 0.121(3) 0.283(7) 0.828(5)
H10 H 0.117(3) -0.069(8) 0.702(5)
H11 H 0.117(4) 0.497(8) 0.752(6)
H12 H 0.110(4) 0.445(9) 0.627(6)
H13 H 0.150(3) 0.002(8) 0.787(5)
C1F C -0.0355(3) 0.0061(6) 0.7055(4)
N1F N -0.1108(2) 0.0142(5) 0.7628(4)
C2F C -0.1249(3) 0.1488(6) 0.8335(4)
C3F C -0.1430(3) 0.2887(6) 0.7575(4)
N2F N -0.1029(2) 0.4283(5) 0.8042(4)
C4F C -0.0143(3) 0.4328(6) 0.8099(4)
H3F H 0.0076 0.3443 0.853
H4F H 0.005 0.5243 0.8515
H11F H -0.117(4) 0.497(8) 0.748(6)
H12F H -0.110(4) 0.445(9) 0.873(6)
H6F H -0.201(3) 0.326(6) 0.757(4)
H9F H -0.121(3) 0.283(7) 0.672(5)
H7F H -0.176(3) 0.117(6) 0.874(4)
H8F H -0.076(3) 0.169(5) 0.880(4)
H10F H -0.117(3) -0.069(8) 0.798(5)
H13F H -0.150(3) 0.002(8) 0.713(5)
H1F H -0.0321 0.0933 0.6535
H2F H -0.0351 -0.0867 0.6587
Br2 Br 0.15694(3) 0.66748(6) 0.90002(4)
O1 O 0.2448(2) 0.0194(5) 0.8882(3)
H5 H 0.276(3) 0.108(5) 0.918(5)
loop_
_geom_bond_atom_site_label_1
_geom_bond_atom_site_label_2
_geom_bond_site_symmetry_1
_geom_bond_site_symmetry_2
N1 C1 1_555 1_555
C1 H1 1_555 1_555
H2 C1 1_555 1_555
N2 C3 1_555 1_555
C2 N1 1_555 1_555
C3 C2 1_555 1_555
C4 N2 1_555 1_555
H3 C4 1_555 1_555
H4 C4 1_555 1_555
O1 H5 1_555 1_555
H6 C3 1_555 1_555
H7 C2 1_555 1_555
H8 C2 1_555 1_555
H9 C3 1_555 1_555
H10 N1 1_555 1_555
H11 N2 1_555 1_555
H12 N2 1_555 1_555
H13 N1 1_555 1_555
C1F C1 1_555 1_555
N1F C1F 1_555 1_555
C2F N1F 1_555 1_555
C3F C2F 1_555 1_555
N2F C3F 1_555 1_555
C4F C4 1_555 1_555
H3F C4F 1_555 1_555
H4F C4F 1_555 1_555
H11F N2F 1_555 1_555
H12F N2F 1_555 1_555
H6F C3F 1_555 1_555
H9F C3F 1_555 1_555
H7F C2F 1_555 1_555
H8F C2F 1_555 1_555
H10F N1F 1_555 1_555
H13F N1F 1_555 1_555
H1F C1F 1_555 1_555
H2F C1F 1_555 1_555
N2F C4F 1_555 1_555

#END
