
#######################################################################
#
#                 Cambridge Crystallographic Data Centre
#                                CCDC 
#
#######################################################################
#
# If this CIF has been generated from an entry in the Cambridge 
# Structural Database, then it will include bibliographic, chemical, 
# crystal, experimental, refinement or atomic coordinate data resulting 
# from the CCDC's data processing and validation procedures.
#
#######################################################################

data_GAFGUQ
_chemical_formula_moiety         'C12 H34 N6 4+,2(I3 1-),2(I1 1-)'
_chemical_name_systematic        
'1,4,10,13-Tetra-azonia-7,16-diazacyclo-octadecane bis(triiodide) bis(iodide)'
_symmetry_cell_setting           monoclinic
_symmetry_space_group_name_H-M   'P 21/c'
_symmetry_Int_Tables_number      14
_space_group_name_Hall           '-P 2ybc'
loop_
_symmetry_equiv_pos_site_id
_symmetry_equiv_pos_as_xyz
1 x,y,z
2 x,1/2-y,1/2+z
3 -x,-y,-z
4 -x,1/2+y,1/2-z
_cell_length_a                   8.1626(2)
_cell_length_b                   22.7532(5)
_cell_length_c                   8.2545(2)
_cell_angle_alpha                90
_cell_angle_beta                 92.9700(10)
_cell_angle_gamma                90
_cell_volume                     1531.01
_cell_formula_units_Z            2
loop_
_atom_site_label
_atom_site_type_symbol
_atom_site_fract_x
_atom_site_fract_y
_atom_site_fract_z
I1 I 1.19859(5) 0.50626(2) 0.80152(5)
N1 N 1.1673(6) 0.4087(2) 1.1525(7)
H1 H 1.0926 0.4054 1.2317
H2 H 1.1485 0.4439 1.1001
C1 C 1.3612(8) 0.4634(3) 1.3356(8)
H3 H 1.2821 0.4634 1.4226
H4 H 1.4736 0.4643 1.3865
N2 N 0.8920(6) 0.3975(3) 0.8678(7)
H5 H 0.8858 0.4323 0.9241
H6 H 0.9609 0.4033 0.7844
C2 C 1.3378(8) 0.4091(3) 1.2313(8)
H7 H 1.4195 0.4088 1.1468
H8 H 1.3547 0.3735 1.299
N3 N 1.3340(8) 0.5147(3) 1.2309(7)
C3 C 1.1405(9) 0.3603(3) 1.0346(8)
H9 H 1.1838 0.3234 1.0843
H10 H 1.2041 0.3685 0.9383
C4 C 0.9634(8) 0.3508(3) 0.9796(8)
H11 H 0.9537 0.3123 0.9237
H12 H 0.8971 0.3487 1.0766
C5 C 0.7259(8) 0.3818(3) 0.7987(8)
H13 H 0.6494 0.3775 0.8871
H14 H 0.7307 0.3438 0.7404
H15 H 1.424(8) 0.528(4) 1.161(9)
C6 C 1.3347(8) 0.5707(3) 1.3167(9)
H16 H 1.2627 0.5682 1.4094
H17 H 1.4473 0.5799 1.3594
C5B C 1.2741(8) 0.6182(3) 1.2013(8)
N2B N 1.1080(6) 0.6025(3) 1.1322(7)
H5B H 1.1142 0.5677 1.0759
H6B H 1.0391 0.5967 1.2156
C4B C 1.0366(8) 0.6492(3) 1.0204(8)
C3B C 0.8595(9) 0.6397(3) 0.9654(8)
N1B N 0.8327(6) 0.5913(2) 0.8475(7)
H1B H 0.9074 0.5946 0.7683
H2B H 0.8515 0.5561 0.8999
C2B C 0.6622(8) 0.5909(3) 0.7687(8)
C1B C 0.6388(8) 0.5366(3) 0.6644(8)
H3B H 0.7179 0.5366 0.5774
H4B H 0.5264 0.5357 0.6135
N3B N 0.6660(8) 0.4853(3) 0.7691(7)
H15B H 0.576(8) 0.472(4) 0.839(9)
C6B C 0.6653(8) 0.4293(3) 0.6833(9)
H16B H 0.7373 0.4318 0.5906
H17B H 0.5527 0.4201 0.6406
H7B H 0.5805 0.5912 0.8532
H8B H 0.6453 0.6265 0.701
H9B H 0.8162 0.6766 0.9157
H10B H 0.7959 0.6315 1.0617
H11B H 1.0463 0.6877 1.0763
H12B H 1.1029 0.6513 0.9234
H13B H 1.3506 0.6225 1.1129
H14B H 1.2693 0.6562 1.2596
I2 I 0.40258(5) 0.26725(2) 0.73780(5)
I3 I 0.69299(5) 0.21300(2) 0.85629(5)
I4 I 1.03456(5) 0.16741(2) 1.00348(5)
loop_
_geom_bond_atom_site_label_1
_geom_bond_atom_site_label_2
_geom_bond_site_symmetry_1
_geom_bond_site_symmetry_2
N1 H1 1_555 1_555
H2 N1 1_555 1_555
C1 H3 1_555 1_555
H4 C1 1_555 1_555
I2 I3 1_555 1_555
N2 H5 1_555 1_555
H6 N2 1_555 1_555
C2 N1 1_555 1_555
H7 C2 1_555 1_555
H8 C2 1_555 1_555
I3 I4 1_555 1_555
N3 C1 1_555 1_555
C3 N1 1_555 1_555
H9 C3 1_555 1_555
H10 C3 1_555 1_555
C4 N2 1_555 1_555
H11 C4 1_555 1_555
H12 C4 1_555 1_555
C5 N2 1_555 1_555
H13 C5 1_555 1_555
H14 C5 1_555 1_555
H15 N3 1_555 1_555
C6 N3 1_555 1_555
H16 C6 1_555 1_555
H17 C6 1_555 1_555
C5B C6 1_555 1_555
N2B C5B 1_555 1_555
H5B N2B 1_555 1_555
H6B N2B 1_555 1_555
C4B N2B 1_555 1_555
C3B C4B 1_555 1_555
N1B C3B 1_555 1_555
H1B N1B 1_555 1_555
H2B N1B 1_555 1_555
C2B N1B 1_555 1_555
C1B C2B 1_555 1_555
H3B C1B 1_555 1_555
H4B C1B 1_555 1_555
N3B C1B 1_555 1_555
H15B N3B 1_555 1_555
C6B C5 1_555 1_555
H16B C6B 1_555 1_555
H17B C6B 1_555 1_555
H7B C2B 1_555 1_555
H8B C2B 1_555 1_555
H9B C3B 1_555 1_555
H10B C3B 1_555 1_555
H11B C4B 1_555 1_555
H12B C4B 1_555 1_555
H13B C5B 1_555 1_555
H14B C5B 1_555 1_555
C1 C2 1_555 1_555
C3 C4 1_555 1_555
N3B C6B 1_555 1_555

#END
