
#######################################################################
#
#                 Cambridge Crystallographic Data Centre
#                                CCDC 
#
#######################################################################
#
# If this CIF has been generated from an entry in the Cambridge 
# Structural Database, then it will include bibliographic, chemical, 
# crystal, experimental, refinement or atomic coordinate data resulting 
# from the CCDC's data processing and validation procedures.
#
#######################################################################

data_GAFZAR
_chemical_formula_moiety         'C29 H18 O2'
_chemical_name_systematic        3-(4-(9-Anthryl)phenyl)-2H-chromen-2-one
_symmetry_cell_setting           monoclinic
_symmetry_space_group_name_H-M   'P 21/n'
_symmetry_Int_Tables_number      14
_space_group_name_Hall           '-P 2yn'
loop_
_symmetry_equiv_pos_site_id
_symmetry_equiv_pos_as_xyz
1 x,y,z
2 1/2-x,1/2+y,1/2-z
3 -x,-y,-z
4 1/2+x,1/2-y,1/2+z
_cell_length_a                   8.9400(6)
_cell_length_b                   17.1642(11)
_cell_length_c                   13.3874(8)
_cell_angle_alpha                90
_cell_angle_beta                 106.1300(10)
_cell_angle_gamma                90
_cell_volume                     1973.4
_exptl_crystal_colour            colorless
_exptl_crystal_description       plate
_cell_formula_units_Z            4
loop_
_atom_site_label
_atom_site_type_symbol
_atom_site_fract_x
_atom_site_fract_y
_atom_site_fract_z
C1 C 0.72160(17) 0.21024(8) 0.32628(11)
C2 C 0.65174(15) 0.18296(8) 0.40727(11)
C3 C 0.59096(16) 0.11036(8) 0.39919(11)
H1 H 0.5399 0.0938 0.4490
C4 C 0.60062(16) 0.05728(8) 0.31827(12)
C5 C 0.54153(19) -0.01913(9) 0.30821(13)
H2 H 0.4850 -0.0373 0.3541
C6 C 0.5652(2) -0.06759(10) 0.23245(15)
H3 H 0.5254 -0.1192 0.2264
C7 C 0.6469(2) -0.04151(10) 0.16472(15)
H4 H 0.6642 -0.0758 0.1133
C8 C 0.7035(2) 0.03375(10) 0.17129(14)
H5 H 0.7580 0.0519 0.1242
C9 C 0.67907(17) 0.08205(8) 0.24766(12)
C10 C 0.64826(15) 0.23684(8) 0.49330(10)
C11 C 0.52669(16) 0.23271(8) 0.54009(11)
H6 H 0.4450 0.1962 0.5149
C12 C 0.52322(16) 0.28074(8) 0.62225(11)
H7 H 0.4388 0.2769 0.6522
C13 C 0.64119(16) 0.33475(8) 0.66202(11)
C14 C 0.76354(17) 0.33850(8) 0.61585(11)
H8 H 0.8460 0.3744 0.6420
C15 C 0.76687(16) 0.29111(8) 0.53308(11)
H9 H 0.8508 0.2954 0.5027
C16 C 0.63848(16) 0.38682(8) 0.75096(11)
C17 C 0.63958(15) 0.35465(9) 0.84785(11)
C18 C 0.64187(16) 0.27255(9) 0.86676(12)
H10 H 0.6453 0.2376 0.8124
C19 C 0.63920(17) 0.24335(10) 0.96075(13)
H11 H 0.6381 0.1886 0.9705
C20 C 0.63805(18) 0.29383(10) 1.04422(12)
H12 H 0.6360 0.2728 1.1095
C21 C 0.63984(17) 0.37199(10) 1.03108(12)
H13 H 0.6411 0.4052 1.0880
C22 C 0.63992(16) 0.40545(9) 0.93366(11)
C23 C 0.63840(17) 0.48589(9) 0.91890(12)
H14 H 0.6415 0.5192 0.9761
C24 C 0.63242(16) 0.51887(9) 0.82290(12)
C25 C 0.62300(18) 0.60117(9) 0.80752(14)
H15 H 0.6272 0.6344 0.8650
C26 C 0.60824(19) 0.63283(9) 0.71263(14)
H16 H 0.6006 0.6877 0.7038
C27 C 0.6042(2) 0.58411(9) 0.62659(14)
H17 H 0.5929 0.6066 0.5601
C28 C 0.61636(18) 0.50531(9) 0.63807(12)
H18 H 0.6152 0.4739 0.5795
C29 C 0.63087(16) 0.46879(8) 0.73646(11)
O1 O 0.76564(14) 0.27508(6) 0.31619(8)
O2 O 0.73584(13) 0.15687(6) 0.25219(8)
loop_
_geom_bond_atom_site_label_1
_geom_bond_atom_site_label_2
_geom_bond_site_symmetry_1
_geom_bond_site_symmetry_2
C1 C2 1_555 1_555
C2 C3 1_555 1_555
C3 H1 1_555 1_555
C4 C3 1_555 1_555
C5 C4 1_555 1_555
H2 C5 1_555 1_555
C6 C5 1_555 1_555
H3 C6 1_555 1_555
C7 C6 1_555 1_555
H4 C7 1_555 1_555
C8 C7 1_555 1_555
H5 C8 1_555 1_555
C9 C4 1_555 1_555
C10 C2 1_555 1_555
C11 C10 1_555 1_555
H6 C11 1_555 1_555
C12 C11 1_555 1_555
H7 C12 1_555 1_555
C13 C12 1_555 1_555
C14 C13 1_555 1_555
H8 C14 1_555 1_555
C15 C10 1_555 1_555
H9 C15 1_555 1_555
C16 C13 1_555 1_555
C17 C16 1_555 1_555
C18 C17 1_555 1_555
H10 C18 1_555 1_555
C19 C18 1_555 1_555
H11 C19 1_555 1_555
C20 C19 1_555 1_555
H12 C20 1_555 1_555
C21 C20 1_555 1_555
H13 C21 1_555 1_555
C22 C17 1_555 1_555
C23 C22 1_555 1_555
H14 C23 1_555 1_555
C24 C23 1_555 1_555
C25 C24 1_555 1_555
H15 C25 1_555 1_555
C26 C25 1_555 1_555
H16 C26 1_555 1_555
C27 C26 1_555 1_555
H17 C27 1_555 1_555
C28 C27 1_555 1_555
H18 C28 1_555 1_555
C29 C16 1_555 1_555
O1 C1 1_555 1_555
O2 C1 1_555 1_555
C8 C9 1_555 1_555
C9 O2 1_555 1_555
C14 C15 1_555 1_555
C21 C22 1_555 1_555
C24 C29 1_555 1_555
C28 C29 1_555 1_555

#END
