
#######################################################################
#
#                 Cambridge Crystallographic Data Centre
#                                CCDC 
#
#######################################################################
#
# If this CIF has been generated from an entry in the Cambridge 
# Structural Database, then it will include bibliographic, chemical, 
# crystal, experimental, refinement or atomic coordinate data resulting 
# from the CCDC's data processing and validation procedures.
#
#######################################################################

data_GAGDUQ
_chemical_formula_moiety         'C29 H21 N1 O1'
_chemical_name_systematic        
5-methyl-7-(2-((4-methylphenyl)ethynyl)phenyl)-2-phenyl-1,3-benzoxazole
_symmetry_cell_setting           triclinic
_symmetry_space_group_name_H-M   'P -1'
_symmetry_Int_Tables_number      2
_space_group_name_Hall           '-P 1'
loop_
_symmetry_equiv_pos_site_id
_symmetry_equiv_pos_as_xyz
1 x,y,z
2 -x,-y,-z
_cell_length_a                   15.1393(3)
_cell_length_b                   7.11208(16)
_cell_length_c                   20.6001(5)
_cell_angle_alpha                90.00
_cell_angle_beta                 101.473(2)
_cell_angle_gamma                90.00
_cell_volume                     2173.73
_exptl_crystal_colour            colorless
_exptl_crystal_description       block
_cell_formula_units_Z            4
_exptl_crystal_recrystallization_method 'petroleum ether/dichloromethane'
_exptl_crystal_preparation       Luminescent
loop_
_atom_site_label
_atom_site_type_symbol
_atom_site_fract_x
_atom_site_fract_y
_atom_site_fract_z
O1 O 0.97575(8) 0.77353(17) 0.08629(5)
N1 N 0.93666(11) 0.7156(2) -0.02312(7)
C1 C 0.83438(11) 0.6810(2) 0.23716(8)
C2 C 0.85972(13) 0.7051(2) 0.00422(8)
C3 C 0.85469(11) 0.7923(2) 0.18580(7)
C4 C 0.67877(13) 0.2117(3) 0.20705(9)
C5 C 1.09650(13) 0.7825(3) 0.02547(8)
C6 C 0.88414(11) 0.7418(2) 0.07158(8)
C7 C 0.90599(12) 0.9540(3) 0.20202(8)
H1 H 0.9198 1.0282 0.1682
C8 C 1.00130(13) 0.7544(2) 0.02632(8)
C9 C 0.73579(12) 0.7042(3) 0.08461(9)
H2 H 0.6925 0.7026 0.1109
C10 C 0.78104(14) 0.5139(3) 0.22494(8)
C11 C 0.93706(13) 1.0073(3) 0.26721(9)
H3 H 0.9705 1.1170 0.2769
C12 C 0.82423(12) 0.7423(2) 0.11456(8)
C13 C 0.73516(14) 0.3749(3) 0.21711(10)
C14 C 0.91813(14) 0.8967(3) 0.31752(8)
H4 H 0.9395 0.9309 0.3614
C15 C 1.12498(15) 0.7754(3) -0.03478(10)
H5 H 1.0836 0.7510 -0.0737
C16 C 0.86804(13) 0.7367(3) 0.30311(8)
H6 H 0.8559 0.6630 0.3376
C17 C 0.70807(14) 0.6677(3) 0.01651(9)
C18 C 1.15929(14) 0.8178(3) 0.08345(10)
H7 H 1.1411 0.8212 0.1240
C19 C 0.77043(14) 0.6682(3) -0.02392(9)
H8 H 0.7530 0.6443 -0.0690
C20 C 0.69057(14) 0.0659(3) 0.25262(11)
H9 H 0.7359 0.0739 0.2903
C21 C 1.21395(17) 0.8045(4) -0.03680(12)
H10 H 1.2327 0.7987 -0.0771
C22 C 0.63611(15) -0.0903(3) 0.24277(12)
H11 H 0.6455 -0.1859 0.2742
C23 C 1.27566(16) 0.8421(4) 0.02045(13)
H12 H 1.3357 0.8637 0.0187
C24 C 0.56785(15) -0.1099(3) 0.18761(12)
C25 C 0.60995(16) 0.6274(4) -0.01093(13)
H13 H 0.5950 0.5050 0.0032
H14 H 0.5991 0.6314 -0.0584
H15 H 0.5734 0.7203 0.0049
C26 C 1.24828(16) 0.8477(4) 0.08060(12)
H16 H 1.2902 0.8718 0.1193
C27 C 0.55740(19) 0.0347(4) 0.14191(14)
H17 H 0.5128 0.0252 0.1038
C28 C 0.61112(17) 0.1925(3) 0.15110(12)
H18 H 0.6020 0.2874 0.1194
C29 C 0.5103(2) -0.2831(5) 0.17826(19)
H19 H 0.5461 -0.3903 0.1952
H20 H 0.4860 -0.3009 0.1319
H21 H 0.4618 -0.2691 0.2017
O2 O 1.02430(8) 1.27327(17) 0.41375(5)
N2 N 1.06332(12) 1.2156(2) 0.52312(7)
C30 C 1.14552(11) 1.2925(2) 0.31441(8)
C31 C 1.14033(13) 1.2057(3) 0.49572(8)
C32 C 1.16526(12) 1.1818(2) 0.26241(8)
C33 C 1.11595(11) 1.2417(2) 0.42842(8)
C34 C 1.09375(12) 1.4546(3) 0.29764(8)
H22 H 1.0797 1.5289 0.3313
C35 C 1.26452(12) 1.2041(3) 0.41552(8)
H23 H 1.3080 1.2024 0.3893
C36 C 1.06304(13) 1.5076(3) 0.23312(8)
H24 H 1.0296 1.6174 0.2236
C37 C 1.17541(12) 1.2430(2) 0.38503(8)
C38 C 0.99874(13) 1.2549(2) 0.47369(8)
C39 C 0.90319(13) 1.2821(3) 0.47444(8)
C40 C 1.08187(14) 1.3972(3) 0.18226(9)
H25 H 1.0610 1.4318 0.1384
C41 C 0.84116(14) 1.3178(3) 0.41660(10)
H26 H 0.8597 1.3216 0.3762
C42 C 1.21891(13) 1.0134(3) 0.27518(9)
C43 C 1.32137(13) 0.7112(3) 0.29315(9)
C44 C 1.26505(14) 0.8757(3) 0.28276(9)
C45 C 1.29199(13) 1.1674(3) 0.48342(9)
C46 C 1.22965(14) 1.1681(3) 0.52404(9)
H27 H 1.2470 1.1440 0.5692
C47 C 0.87510(15) 1.2750(3) 0.53479(10)
H28 H 0.9166 1.2503 0.5736
C48 C 1.13185(13) 1.2357(3) 0.19725(8)
H29 H 1.1436 1.1607 0.1630
C49 C 0.72461(16) 1.3424(4) 0.47952(13)
H30 H 0.6646 1.3644 0.4813
C50 C 0.75144(16) 1.3478(4) 0.41920(12)
H31 H 0.7095 1.3714 0.3805
C51 C 1.30945(14) 0.5664(3) 0.24726(10)
H32 H 1.2640 0.5746 0.2096
C52 C 1.36453(15) 0.4101(3) 0.25698(12)
H33 H 1.3557 0.3151 0.2253
C53 C 0.78586(17) 1.3048(4) 0.53687(12)
H34 H 0.7670 1.2994 0.5771
C54 C 1.39011(16) 1.1273(4) 0.51094(13)
H35 H 1.4085 1.0184 0.4895
H36 H 1.3985 1.1046 0.5577
H37 H 1.4258 1.2335 0.5031
C55 C 1.43212(15) 0.3906(3) 0.31215(12)
C56 C 1.44292(18) 0.5341(4) 0.35768(13)
H38 H 1.4877 0.5241 0.3956
C57 C 1.38923(17) 0.6925(3) 0.34884(11)
H39 H 1.3987 0.7875 0.3805
C58 C 1.4898(2) 0.2161(4) 0.32232(18)
H40 H 1.4548 0.1098 0.3035
H41 H 1.5112 0.1958 0.3689
H42 H 1.5403 0.2317 0.3010
loop_
_geom_bond_atom_site_label_1
_geom_bond_atom_site_label_2
_geom_bond_site_symmetry_1
_geom_bond_site_symmetry_2
O1 C6 1_555 1_555
N1 C2 1_555 1_555
C1 C3 1_555 1_555
C2 C6 1_555 1_555
C3 C7 1_555 1_555
C4 C13 1_555 1_555
C5 C8 1_555 1_555
C6 C12 1_555 1_555
C7 H1 1_555 1_555
C8 O1 1_555 1_555
C9 H2 1_555 1_555
C10 C1 1_555 1_555
C11 C7 1_555 1_555
H3 C11 1_555 1_555
C12 C3 1_555 1_555
C13 C10 1_555 1_555
C14 C11 1_555 1_555
H4 C14 1_555 1_555
C15 C5 1_555 1_555
H5 C15 1_555 1_555
C16 C1 1_555 1_555
H6 C16 1_555 1_555
C17 C9 1_555 1_555
C18 C5 1_555 1_555
H7 C18 1_555 1_555
C19 C2 1_555 1_555
H8 C19 1_555 1_555
C20 C4 1_555 1_555
H9 C20 1_555 1_555
C21 C15 1_555 1_555
H10 C21 1_555 1_555
C22 C20 1_555 1_555
H11 C22 1_555 1_555
C23 C21 1_555 1_555
H12 C23 1_555 1_555
C24 C22 1_555 1_555
C25 C17 1_555 1_555
H13 C25 1_555 1_555
H14 C25 1_555 1_555
H15 C25 1_555 1_555
C26 C18 1_555 1_555
H16 C26 1_555 1_555
C27 C24 1_555 1_555
H17 C27 1_555 1_555
C28 C4 1_555 1_555
H18 C28 1_555 1_555
C29 C24 1_555 1_555
H19 C29 1_555 1_555
H20 C29 1_555 1_555
H21 C29 1_555 1_555
O2 C33 1_555 1_555
N2 C31 1_555 1_555
C30 C32 1_555 1_555
C31 C33 1_555 1_555
C32 C42 1_555 1_555
C33 C37 1_555 1_555
C34 C30 1_555 1_555
H22 C34 1_555 1_555
C35 H23 1_555 1_555
C36 C34 1_555 1_555
H24 C36 1_555 1_555
C37 C30 1_555 1_555
C38 O2 1_555 1_555
C39 C38 1_555 1_555
C40 C36 1_555 1_555
H25 C40 1_555 1_555
C41 C39 1_555 1_555
H26 C41 1_555 1_555
C42 C44 1_555 1_555
C43 C44 1_555 1_555
C45 C35 1_555 1_555
C46 C31 1_555 1_555
H27 C46 1_555 1_555
C47 C39 1_555 1_555
H28 C47 1_555 1_555
C48 C32 1_555 1_555
H29 C48 1_555 1_555
C49 H30 1_555 1_555
C50 C41 1_555 1_555
H31 C50 1_555 1_555
C51 C43 1_555 1_555
H32 C51 1_555 1_555
C52 C51 1_555 1_555
H33 C52 1_555 1_555
C53 C47 1_555 1_555
H34 C53 1_555 1_555
C54 C45 1_555 1_555
H35 C54 1_555 1_555
H36 C54 1_555 1_555
H37 C54 1_555 1_555
C55 C52 1_555 1_555
C56 C55 1_555 1_555
H38 C56 1_555 1_555
C57 C43 1_555 1_555
H39 C57 1_555 1_555
C58 C55 1_555 1_555
H40 C58 1_555 1_555
H41 C58 1_555 1_555
H42 C58 1_555 1_555
N1 C8 1_555 1_555
C9 C12 1_555 1_555
C14 C16 1_555 1_555
C17 C19 1_555 1_555
C23 C26 1_555 1_555
C27 C28 1_555 1_555
N2 C38 1_555 1_555
C35 C37 1_555 1_555
C40 C48 1_555 1_555
C45 C46 1_555 1_555
C49 C50 1_555 1_555
C49 C53 1_555 1_555
C56 C57 1_555 1_555

#END
