
#######################################################################
#
#                 Cambridge Crystallographic Data Centre
#                                CCDC 
#
#######################################################################
#
# If this CIF has been generated from an entry in the Cambridge 
# Structural Database, then it will include bibliographic, chemical, 
# crystal, experimental, refinement or atomic coordinate data resulting 
# from the CCDC's data processing and validation procedures.
#
#######################################################################

data_GAJKEK
_chemical_name_common            'Dilteazem  acetylsalicylate monohydrate'
_chemical_formula_moiety         'C22 H27 N2 O4 S1 1+,C9 H7 O4 1-,H2 O1'
_chemical_name_systematic        
'2-(3-acetoxy-2-(4-methoxyphenyl)-4-oxo-3,4-dihydro-1,5-benzothiazepin-5(2H)-yl)-N,N-dimethylethanaminium 2-acetoxybenzoate monohydrate'
_symmetry_cell_setting           orthorhombic
_symmetry_space_group_name_H-M   'P 21 21 21'
_symmetry_Int_Tables_number      19
_space_group_name_Hall           'P 2ac 2ab'
loop_
_symmetry_equiv_pos_site_id
_symmetry_equiv_pos_as_xyz
1 x,y,z
2 1/2-x,-y,1/2+z
3 1/2+x,1/2-y,-z
4 -x,1/2+y,1/2-z
_cell_length_a                   9.9411(4)
_cell_length_b                   10.7606(3)
_cell_length_c                   28.5926(11)
_cell_angle_alpha                90
_cell_angle_beta                 90
_cell_angle_gamma                90
_cell_volume                     3058.61
_exptl_crystal_colour            colorless
_exptl_crystal_description       plate
_cell_formula_units_Z            4
loop_
_atom_site_label
_atom_site_type_symbol
_atom_site_fract_x
_atom_site_fract_y
_atom_site_fract_z
S1 S 0.67793(11) 0.01126(11) 0.05627(4)
O1 O 0.0718(3) -0.1265(3) -0.01069(12)
O2 O 0.4258(3) 0.3039(3) 0.06456(10)
O3 O 0.4905(3) 0.4460(3) 0.11794(10)
O4 O 0.4073(3) 0.1709(3) 0.14379(11)
N1 N 0.6334(3) 0.1429(3) 0.15044(13)
N2 N 0.6465(3) -0.0981(4) 0.24646(13)
C1 C 0.5501(4) 0.1279(4) 0.03993(15)
H1 H 0.5807 0.1681 0.0111
C2 C 0.5396(4) 0.2286(4) 0.07758(14)
H2 H 0.6210 0.2799 0.0769
C3 C 0.5203(5) 0.1774(4) 0.12671(15)
C4 C 0.7667(4) 0.1517(4) 0.13080(17)
C5 C 0.8660(5) 0.2112(4) 0.15664(18)
H3 H 0.8453 0.2451 0.1857
C6 C 0.9957(5) 0.2202(5) 0.13937(19)
H4 H 1.0618 0.2602 0.1568
C7 C 1.0270(5) 0.1699(5) 0.0964(2)
H5 H 1.1143 0.1760 0.0849
C8 C 0.9295(4) 0.1104(5) 0.07024(18)
H6 H 0.9510 0.0766 0.0413
C9 C 0.7986(4) 0.1013(4) 0.08747(16)
C10 C 0.4223(4) 0.0574(4) 0.02850(15)
C11 C 0.3628(5) 0.0760(5) -0.01511(16)
H7 H 0.4012 0.1310 -0.0363
C12 C 0.2452(4) 0.0115(5) -0.02681(17)
H8 H 0.2059 0.0238 -0.0560
C13 C 0.1867(5) -0.0707(5) 0.00466(17)
C14 C 0.2468(4) -0.0888(5) 0.04774(16)
H9 H 0.2079 -0.1430 0.0692
C15 C 0.3647(4) -0.0268(4) 0.05924(16)
H10 H 0.4056 -0.0419 0.0879
C16 C 0.0176(5) -0.2223(6) 0.0180(2)
H11 H 0.0837 -0.2863 0.0223
H12 H -0.0607 -0.2567 0.0032
H13 H -0.0068 -0.1883 0.0479
C17 C 0.4108(4) 0.4099(4) 0.08858(16)
C18 C 0.2841(4) 0.4776(5) 0.07566(18)
H14 H 0.2133 0.4541 0.0967
H15 H 0.2591 0.4566 0.0442
H16 H 0.2990 0.5656 0.0778
C19 C 0.6188(4) 0.0920(4) 0.19789(15)
H17 H 0.5272 0.1042 0.2086
H18 H 0.6785 0.1358 0.2191
C20 C 0.6522(4) -0.0459(4) 0.19836(15)
H19 H 0.5889 -0.0899 0.1786
H20 H 0.7416 -0.0582 0.1856
C21 C 0.5082(4) -0.0962(5) 0.26700(15)
H21 H 0.4763 -0.0121 0.2684
H22 H 0.5106 -0.1306 0.2980
H23 H 0.4488 -0.1447 0.2478
C22 C 0.7014(5) -0.2276(4) 0.24799(16)
H24 H 0.6967 -0.2586 0.2794
H25 H 0.7934 -0.2271 0.2378
H26 H 0.6494 -0.2801 0.2278
H27 H 0.696(5) -0.051(4) 0.2655(16)
O5 O 1.1952(3) -0.3070(3) 0.21687(11)
O6 O 1.1840(3) -0.5056(3) 0.19347(10)
O7 O 1.0657(3) -0.1726(3) 0.14757(11)
O8 O 0.9865(3) -0.0835(3) 0.21294(13)
C23 C 1.1382(4) -0.3968(5) 0.19702(16)
C24 C 1.0013(4) -0.3744(4) 0.17485(15)
C25 C 0.9053(4) -0.4687(5) 0.17678(16)
H28 H 0.9244 -0.5421 0.1926
C26 C 0.7805(5) -0.4537(5) 0.15502(18)
H29 H 0.7160 -0.5160 0.1570
C27 C 0.7533(4) -0.3457(5) 0.13057(17)
H30 H 0.6714 -0.3365 0.1152
C28 C 0.8467(4) -0.2526(5) 0.12889(15)
H31 H 0.8277 -0.1795 0.1129
C29 C 0.9688(4) -0.2671(4) 0.15087(16)
C30 C 1.0744(5) -0.0938(5) 0.18449(19)
C31 C 1.2030(4) -0.0218(5) 0.18423(18)
H32 H 1.2095 0.0264 0.2124
H33 H 1.2045 0.0327 0.1576
H34 H 1.2777 -0.0782 0.1825
O9 O 1.4462(4) -0.3067(4) 0.17232(17)
H35 H 1.438(6) -0.379(6) 0.153(2)
H36 H 1.369(6) -0.309(6) 0.184(2)
loop_
_geom_bond_atom_site_label_1
_geom_bond_atom_site_label_2
_geom_bond_site_symmetry_1
_geom_bond_site_symmetry_2
S1 C1 1_555 1_555
O1 C13 1_555 1_555
O2 C2 1_555 1_555
O3 C17 1_555 1_555
O4 C3 1_555 1_555
N1 C3 1_555 1_555
N2 C20 1_555 1_555
C1 H1 1_555 1_555
C2 C1 1_555 1_555
H2 C2 1_555 1_555
C3 C2 1_555 1_555
C4 N1 1_555 1_555
C5 C4 1_555 1_555
H3 C5 1_555 1_555
C6 C5 1_555 1_555
H4 C6 1_555 1_555
C7 C6 1_555 1_555
H5 C7 1_555 1_555
C8 C7 1_555 1_555
H6 C8 1_555 1_555
C9 S1 1_555 1_555
C10 C1 1_555 1_555
C11 C10 1_555 1_555
H7 C11 1_555 1_555
C12 C11 1_555 1_555
H8 C12 1_555 1_555
C13 C12 1_555 1_555
C14 C13 1_555 1_555
H9 C14 1_555 1_555
C15 C10 1_555 1_555
H10 C15 1_555 1_555
C16 O1 1_555 1_555
H11 C16 1_555 1_555
H12 C16 1_555 1_555
H13 C16 1_555 1_555
C17 O2 1_555 1_555
C18 C17 1_555 1_555
H14 C18 1_555 1_555
H15 C18 1_555 1_555
H16 C18 1_555 1_555
C19 N1 1_555 1_555
H17 C19 1_555 1_555
H18 C19 1_555 1_555
C20 C19 1_555 1_555
H19 C20 1_555 1_555
H20 C20 1_555 1_555
C21 N2 1_555 1_555
H21 C21 1_555 1_555
H22 C21 1_555 1_555
H23 C21 1_555 1_555
C22 N2 1_555 1_555
H24 C22 1_555 1_555
H25 C22 1_555 1_555
H26 C22 1_555 1_555
H27 N2 1_555 1_555
O5 C23 1_555 1_555
O6 C23 1_555 1_555
O7 C29 1_555 1_555
O8 C30 1_555 1_555
C23 C24 1_555 1_555
C24 C25 1_555 1_555
C25 H28 1_555 1_555
C26 C25 1_555 1_555
H29 C26 1_555 1_555
C27 C26 1_555 1_555
H30 C27 1_555 1_555
C28 C27 1_555 1_555
H31 C28 1_555 1_555
C29 C24 1_555 1_555
C30 O7 1_555 1_555
C31 C30 1_555 1_555
H32 C31 1_555 1_555
H33 C31 1_555 1_555
H34 C31 1_555 1_555
O9 H35 1_555 1_555
H36 O9 1_555 1_555
C4 C9 1_555 1_555
C8 C9 1_555 1_555
C14 C15 1_555 1_555
C28 C29 1_555 1_555

#END
