
#######################################################################
#
#                 Cambridge Crystallographic Data Centre
#                                CCDC 
#
#######################################################################
#
# If this CIF has been generated from an entry in the Cambridge 
# Structural Database, then it will include bibliographic, chemical, 
# crystal, experimental, refinement or atomic coordinate data resulting 
# from the CCDC's data processing and validation procedures.
#
#######################################################################

data_GAJPAL
_chemical_formula_moiety         'C17 H18 O3'
_chemical_name_systematic        
1,2-Dimethoxy-4-(1-(4-methoxyphenyl)vinyl)benzene
_symmetry_cell_setting           monoclinic
_symmetry_space_group_name_H-M   'P 21/c'
_symmetry_Int_Tables_number      14
_space_group_name_Hall           '-P 2ybc'
loop_
_symmetry_equiv_pos_site_id
_symmetry_equiv_pos_as_xyz
1 x,y,z
2 -x,1/2+y,1/2-z
3 -x,-y,-z
4 x,1/2-y,1/2+z
_cell_length_a                   13.4937(12)
_cell_length_b                   16.3772(15)
_cell_length_c                   6.6323(5)
_cell_angle_alpha                90
_cell_angle_beta                 101.558(2)
_cell_angle_gamma                90
_cell_volume                     1435.95
_exptl_crystal_colour            colorless
_cell_formula_units_Z            4
loop_
_atom_site_label
_atom_site_type_symbol
_atom_site_fract_x
_atom_site_fract_y
_atom_site_fract_z
O1 O 0.58757(9) 0.14307(8) 0.7437(2)
O2 O 1.34266(9) 0.14594(9) 1.0767(2)
O3 O 0.60545(9) 0.05736(8) 0.4306(2)
C1 C 0.57138(16) 0.19513(14) 0.9059(3)
H1 H 0.6135 0.1779 1.0330
H2 H 0.5017 0.1923 0.9175
H3 H 0.5880 0.2503 0.8766
C2 C 0.68269(13) 0.13971(11) 0.7039(3)
C3 C 0.76676(13) 0.17840(11) 0.8157(3)
H4 H 0.7608 0.2099 0.9294
C4 C 0.85993(13) 0.17085(11) 0.7602(3)
H5 H 0.9160 0.1968 0.8385
C5 C 0.87116(12) 0.12534(11) 0.5900(2)
C6 C 0.96821(13) 0.12339(11) 0.5180(3)
C7 C 1.06464(12) 0.12944(11) 0.6713(3)
C8 C 1.08182(13) 0.08482(12) 0.8519(3)
H6 H 1.0302 0.0520 0.8812
C9 C 1.17347(13) 0.08740(12) 0.9909(3)
H7 H 1.1835 0.0560 1.1100
C10 C 1.24956(12) 0.13723(11) 0.9500(3)
C11 C 1.36011(16) 0.10371(16) 1.2672(3)
H8 H 1.3092 0.1186 1.3429
H9 H 1.4256 0.1180 1.3454
H10 H 1.3573 0.0459 1.2422
C12 C 1.14297(13) 0.17863(11) 0.6347(3)
H11 H 1.1336 0.2097 0.5149
C13 C 1.23382(14) 0.18250(11) 0.7711(3)
H12 H 1.2851 0.2159 0.7428
C14 C 0.69307(12) 0.09279(11) 0.5324(3)
C15 C 0.61148(16) 0.00333(14) 0.2657(3)
H13 H 0.6328 0.0331 0.1571
H14 H 0.5462 -0.0204 0.2147
H15 H 0.6595 -0.0391 0.3138
C16 C 0.78591(12) 0.08541(11) 0.4790(3)
H16 H 0.7922 0.0532 0.3667
C17 C 0.96984(16) 0.11933(14) 0.3203(3)
H17 H 0.9095 0.1176 0.2237
H18 H 1.0313 0.1182 0.2773
loop_
_geom_bond_atom_site_label_1
_geom_bond_atom_site_label_2
_geom_bond_site_symmetry_1
_geom_bond_site_symmetry_2
O1 C1 1_555 1_555
O2 C10 1_555 1_555
O3 C14 1_555 1_555
C1 H1 1_555 1_555
H2 C1 1_555 1_555
H3 C1 1_555 1_555
C2 O1 1_555 1_555
C3 C2 1_555 1_555
H4 C3 1_555 1_555
C4 C3 1_555 1_555
H5 C4 1_555 1_555
C5 C4 1_555 1_555
C6 C5 1_555 1_555
C7 C6 1_555 1_555
C8 C7 1_555 1_555
H6 C8 1_555 1_555
C9 C8 1_555 1_555
H7 C9 1_555 1_555
C10 C9 1_555 1_555
C11 O2 1_555 1_555
H8 C11 1_555 1_555
H9 C11 1_555 1_555
H10 C11 1_555 1_555
C12 C7 1_555 1_555
H11 C12 1_555 1_555
C13 C10 1_555 1_555
H12 C13 1_555 1_555
C14 C2 1_555 1_555
C15 O3 1_555 1_555
H13 C15 1_555 1_555
H14 C15 1_555 1_555
H15 C15 1_555 1_555
C16 C5 1_555 1_555
H16 C16 1_555 1_555
C17 C6 1_555 1_555
H17 C17 1_555 1_555
H18 C17 1_555 1_555
C12 C13 1_555 1_555
C14 C16 1_555 1_555

#END
