
#######################################################################
#
#                 Cambridge Crystallographic Data Centre
#                                CCDC 
#
#######################################################################
#
# If this CIF has been generated from an entry in the Cambridge 
# Structural Database, then it will include bibliographic, chemical, 
# crystal, experimental, refinement or atomic coordinate data resulting 
# from the CCDC's data processing and validation procedures.
#
#######################################################################

data_GAKGUU
_chemical_formula_moiety         'C9 H16 N1 O2 S1 1+,I1 1-'
_chemical_name_systematic        
'R-(-)-2-(1-Hydroxyethyl)-3,4-dimethyl-5-(2-hydroxyethyl)thiazolium iodide'
_symmetry_cell_setting           orthorhombic
_symmetry_space_group_name_H-M   'P 21 21 21'
_symmetry_Int_Tables_number      19
_space_group_name_Hall           'P 2ac 2ab'
loop_
_symmetry_equiv_pos_site_id
_symmetry_equiv_pos_as_xyz
1 x,y,z
2 1/2+x,1/2-y,-z
3 -x,1/2+y,1/2-z
4 1/2-x,-y,1/2+z
_cell_length_a                   10.922(3)
_cell_length_b                   16.426(5)
_cell_length_c                   6.971(2)
_cell_angle_alpha                90
_cell_angle_beta                 90
_cell_angle_gamma                90
_cell_volume                     1250.63
_chemical_melting_point          123deg.C
_cell_formula_units_Z            4
loop_
_atom_site_label
_atom_site_type_symbol
_atom_site_fract_x
_atom_site_fract_y
_atom_site_fract_z
I1 I 0.0370 0.3176 0.6824
C1 C 0.1851 0.1293 -0.0996
C2 C 0.1193 0.1383 0.0633
C3 C -0.0231 0.0759 -0.1257
C4 C -0.1451 0.0426 -0.1933
C5 C -0.0863 0.1068 0.2057
C6 C 0.3123 0.1580 -0.1404
C7 C 0.1596 0.1751 0.2497
O1 O -0.1254 0.0005 -0.3694
C8 C 0.3978 0.0902 -0.2009
N1 N 0.0001 0.1077 0.0439
C9 C -0.2323 0.1132 -0.2336
O2 O 0.3612 0.0556 -0.3815
S1 S 0.0992 0.0795 -0.2711
loop_
_geom_bond_atom_site_label_1
_geom_bond_atom_site_label_2
_geom_bond_site_symmetry_1
_geom_bond_site_symmetry_2
C1 C2 1_555 1_555
C2 C7 1_555 1_555
C3 C4 1_555 1_555
C4 O1 1_555 1_555
C5 N1 1_555 1_555
C6 C1 1_555 1_555
C8 C6 1_555 1_555
N1 C2 1_555 1_555
C9 C4 1_555 1_555
O2 C8 1_555 1_555
S1 C1 1_555 1_555
C3 N1 1_555 1_555
C3 S1 1_555 1_555

#END
