
#######################################################################
#
#                 Cambridge Crystallographic Data Centre
#                                CCDC 
#
#######################################################################
#
# If this CIF has been generated from an entry in the Cambridge 
# Structural Database, then it will include bibliographic, chemical, 
# crystal, experimental, refinement or atomic coordinate data resulting 
# from the CCDC's data processing and validation procedures.
#
#######################################################################

data_GAKQUF
_chemical_formula_moiety         'C12 H10 N4 O1'
_chemical_name_systematic        
'Pyridine-2-carboxaldehyde (pyridine-2-carbonyl)hydrazone'
_symmetry_cell_setting           monoclinic
_symmetry_space_group_name_H-M   'P 21/n'
_symmetry_Int_Tables_number      14
_space_group_name_Hall           '-P 2yn'
loop_
_symmetry_equiv_pos_site_id
_symmetry_equiv_pos_as_xyz
1 x,y,z
2 1/2+x,1/2-y,1/2+z
3 -x,-y,-z
4 1/2-x,1/2+y,1/2-z
_cell_length_a                   8.499(7)
_cell_length_b                   13.783(11)
_cell_length_c                   9.820(8)
_cell_angle_alpha                90
_cell_angle_beta                 105.640(11)
_cell_angle_gamma                90
_cell_volume                     1107.74
_exptl_crystal_colour            yellow
_exptl_crystal_description       block
_cell_formula_units_Z            4
_exptl_crystal_recrystallization_method methanol
loop_
_atom_site_label
_atom_site_type_symbol
_atom_site_fract_x
_atom_site_fract_y
_atom_site_fract_z
O1 O 0.6510(2) 0.08084(11) 0.2813(2)
N1 N 0.4125(2) 0.28092(13) 0.1250(2)
N2 N 0.3941(2) 0.08883(13) 0.1349(2)
N3 N 0.3753(2) -0.00976(12) 0.1317(2)
N4 N 0.0500(2) -0.16982(13) -0.0199(2)
C1 C 0.5457(3) 0.23552(15) 0.2013(2)
C2 C 0.6879(3) 0.28241(15) 0.2691(2)
H1 H 0.7776 0.2477 0.3218
C3 C 0.6948(3) 0.38127(16) 0.2577(3)
H2 H 0.7897 0.4149 0.3017
C4 C 0.5601(3) 0.42937(16) 0.1806(3)
H3 H 0.5614 0.4965 0.1716
C5 C 0.4224(3) 0.37719(17) 0.1162(3)
H4 H 0.3312 0.4108 0.0638
C6 C 0.5383(3) 0.12788(16) 0.2109(3)
C7 C 0.2353(3) -0.04060(15) 0.0610(3)
H5 H 0.1541 0.0032 0.0174
C8 C 0.2030(3) -0.14499(15) 0.0489(2)
C9 C 0.3224(3) -0.21226(16) 0.1065(3)
H6 H 0.4274 -0.1923 0.1539
C10 C 0.2840(3) -0.30863(17) 0.0930(3)
H7 H 0.3623 -0.3553 0.1316
C11 C 0.1290(3) -0.33544(17) 0.0221(3)
H8 H 0.0997 -0.4006 0.0109
C12 C 0.0182(3) -0.26445(18) -0.0320(3)
H9 H -0.0869 -0.2834 -0.0808
H10 H 0.312(2) 0.1280(15) 0.091(2)
loop_
_geom_bond_atom_site_label_1
_geom_bond_atom_site_label_2
_geom_bond_site_symmetry_1
_geom_bond_site_symmetry_2
O1 C6 1_555 1_555
N1 C1 1_555 1_555
N2 N3 1_555 1_555
N3 C7 1_555 1_555
N4 C8 1_555 1_555
C1 C2 1_555 1_555
C2 H1 1_555 1_555
C3 C2 1_555 1_555
H2 C3 1_555 1_555
C4 C3 1_555 1_555
H3 C4 1_555 1_555
C5 N1 1_555 1_555
H4 C5 1_555 1_555
C6 N2 1_555 1_555
C7 H5 1_555 1_555
C8 C7 1_555 1_555
C9 C8 1_555 1_555
H6 C9 1_555 1_555
C10 C9 1_555 1_555
H7 C10 1_555 1_555
C11 C10 1_555 1_555
H8 C11 1_555 1_555
C12 N4 1_555 1_555
H9 C12 1_555 1_555
H10 N2 1_555 1_555
C1 C6 1_555 1_555
C4 C5 1_555 1_555
C11 C12 1_555 1_555

#END
