
#######################################################################
#
#                 Cambridge Crystallographic Data Centre
#                                CCDC 
#
#######################################################################
#
# If this CIF has been generated from an entry in the Cambridge 
# Structural Database, then it will include bibliographic, chemical, 
# crystal, experimental, refinement or atomic coordinate data resulting 
# from the CCDC's data processing and validation procedures.
#
#######################################################################

data_GAKZOI
_chemical_formula_moiety         'C17 H14 O5'
_chemical_name_systematic        5-Hydroxy-4',7-dimethoxyisoflavone
_chemical_properties_biological  'potential medical applications'
_symmetry_cell_setting           monoclinic
_symmetry_space_group_name_H-M   'P 21/n'
_symmetry_Int_Tables_number      14
_space_group_name_Hall           '-P 2yn'
loop_
_symmetry_equiv_pos_site_id
_symmetry_equiv_pos_as_xyz
1 x,y,z
2 1/2+x,1/2-y,1/2+z
3 -x,-y,-z
4 1/2-x,1/2+y,1/2-z
_cell_length_a                   5.7754(8)
_cell_length_b                   7.9446(12)
_cell_length_c                   30.044(5)
_cell_angle_alpha                90
_cell_angle_beta                 93.807(12)
_cell_angle_gamma                90
_cell_volume                     1375.47
_exptl_crystal_colour            colorless
_exptl_crystal_description       prism
_chemical_melting_point          '428 K'
_cell_formula_units_Z            4
_exptl_crystal_recrystallization_method 'ethyl acetate'
loop_
_atom_site_label
_atom_site_type_symbol
_atom_site_fract_x
_atom_site_fract_y
_atom_site_fract_z
O1 O -0.01497(17) 0.23550(14) 0.65150(3)
O2 O 0.67377(18) 0.55119(15) 0.62862(4)
H1 H 0.6810 0.5506 0.6560
O3 O 0.54957(17) 0.48501(15) 0.70802(3)
O4 O 0.2227(2) 0.34532(17) 0.50583(4)
O5 O 0.2007(2) 0.38703(16) 0.90489(3)
C1 C 0.1410(3) 0.30694(19) 0.62475(5)
C2 C 0.0933(3) 0.2862(2) 0.57932(5)
H2 H -0.0376 0.2279 0.5681
C3 C 0.2472(3) 0.3554(2) 0.55126(5)
C4 C 0.4436(3) 0.4439(2) 0.56772(5)
H3 H 0.5449 0.4897 0.5482
C5 C 0.4862(2) 0.46291(19) 0.61293(5)
C6 C 0.3343(2) 0.39272(18) 0.64309(5)
C7 C 0.3740(2) 0.41124(19) 0.69099(5)
C8 C 0.1961(2) 0.34029(19) 0.71724(5)
C9 C 0.0199(3) 0.2566(2) 0.69617(5)
H4 H -0.0887 0.2085 0.7139
C10 C 0.2007(2) 0.35938(19) 0.76658(5)
C11 C 0.0120(3) 0.4273(2) 0.78600(5)
H5 H -0.1137 0.4652 0.7678
C12 C 0.0040(3) 0.4406(2) 0.83202(5)
H6 H -0.1245 0.4876 0.8444
C13 C 0.1896(3) 0.3833(2) 0.85900(5)
C14 C 0.3817(3) 0.3153(2) 0.84024(5)
H7 H 0.5065 0.2762 0.8585
C15 C 0.3877(3) 0.3056(2) 0.79459(5)
H8 H 0.5188 0.2624 0.7823
C16 C 0.0224(3) 0.2657(2) 0.48580(6)
H9 H 0.0271 0.1478 0.4927
H10 H 0.0183 0.2805 0.4540
H11 H -0.1138 0.3149 0.4971
C17 C -0.0006(3) 0.4395(3) 0.92563(6)
H12 H -0.0329 0.5551 0.9183
H13 H 0.0246 0.4278 0.9574
H14 H -0.1300 0.3710 0.9152
loop_
_geom_bond_atom_site_label_1
_geom_bond_atom_site_label_2
_geom_bond_site_symmetry_1
_geom_bond_site_symmetry_2
O1 C1 1_555 1_555
O2 H1 1_555 1_555
O3 C7 1_555 1_555
O4 C3 1_555 1_555
O5 C13 1_555 1_555
C1 C2 1_555 1_555
C2 H2 1_555 1_555
C3 C2 1_555 1_555
C4 C3 1_555 1_555
H3 C4 1_555 1_555
C5 O2 1_555 1_555
C6 C1 1_555 1_555
C7 C6 1_555 1_555
C8 C7 1_555 1_555
C9 O1 1_555 1_555
H4 C9 1_555 1_555
C10 C8 1_555 1_555
C11 C10 1_555 1_555
H5 C11 1_555 1_555
C12 C11 1_555 1_555
H6 C12 1_555 1_555
C13 C12 1_555 1_555
C14 C13 1_555 1_555
H7 C14 1_555 1_555
C15 C10 1_555 1_555
H8 C15 1_555 1_555
C16 O4 1_555 1_555
H9 C16 1_555 1_555
H10 C16 1_555 1_555
H11 C16 1_555 1_555
C17 O5 1_555 1_555
H12 C17 1_555 1_555
H13 C17 1_555 1_555
H14 C17 1_555 1_555
C4 C5 1_555 1_555
C5 C6 1_555 1_555
C8 C9 1_555 1_555
C14 C15 1_555 1_555

#END
