
#######################################################################
#
#                 Cambridge Crystallographic Data Centre
#                                CCDC 
#
#######################################################################
#
# If this CIF has been generated from an entry in the Cambridge 
# Structural Database, then it will include bibliographic, chemical, 
# crystal, experimental, refinement or atomic coordinate data resulting 
# from the CCDC's data processing and validation procedures.
#
#######################################################################

data_GALCII
_chemical_formula_moiety         'C27 H34 O10'
_chemical_name_systematic        
'methyl hydroxy[4-(5-hydroxy-2-oxo-2,5-dihydrofuran-3-yl)-4a,7a,9,9-tetramethyl-13-methylidene-2,10-dioxododecahydro-4H-7,12a-methanopyrano[4,3-b][1]benzoxocin-8-yl]acetate'
_symmetry_cell_setting           orthorhombic
_symmetry_space_group_name_H-M   'P 21 21 21'
_symmetry_Int_Tables_number      19
_space_group_name_Hall           'P 2ac 2ab'
loop_
_symmetry_equiv_pos_site_id
_symmetry_equiv_pos_as_xyz
1 x,y,z
2 1/2-x,-y,1/2+z
3 1/2+x,1/2-y,-z
4 -x,1/2+y,1/2-z
_cell_length_a                   12.38360(10)
_cell_length_b                   12.52760(10)
_cell_length_c                   16.77880(10)
_cell_angle_alpha                90
_cell_angle_beta                 90
_cell_angle_gamma                90
_cell_volume                     2603.01
_exptl_crystal_colour            colorless
_exptl_crystal_description       block
_cell_formula_units_Z            4
loop_
_atom_site_label
_atom_site_type_symbol
_atom_site_fract_x
_atom_site_fract_y
_atom_site_fract_z
O1 O 0.92806(17) 0.83565(19) 0.23887(14)
C1 C 0.6737(2) 0.8584(2) 0.22168(18)
H1 H 0.7142 0.9077 0.1876
C2 C 0.5214(3) 0.9269(4) 0.1289(3)
O2 O 0.4891(2) 0.7828(3) 0.2188(2)
H2 H 0.4297 0.8037 0.2038
C3 C 0.7600(3) 0.9395(3) 0.3420(2)
C4 C 0.8459(3) 0.7778(3) 0.2817(2)
H3 H 0.8757 0.7083 0.2970
O3 O 1.1683(2) 0.9066(3) 0.1819(2)
O4 O 1.1043(3) 1.1647(3) -0.0028(2)
C5 C 1.0014(3) 0.8461(3) 0.1093(2)
C6 C 0.7471(2) 0.7585(2) 0.2278(2)
C7 C 1.0707(3) 0.9400(3) 0.1406(3)
H4 H 1.0266 0.9807 0.1784
C8 C 0.7935(3) 0.7245(3) 0.1426(2)
H5 H 0.7486 0.6657 0.1230
C9 C 0.6525(3) 0.9235(3) 0.3002(2)
C10 C 0.9053(3) 0.6800(3) 0.1570(3)
C11 C 0.9815(3) 0.7704(3) 0.1806(3)
O5 O 0.5943(3) 0.9856(3) 0.0916(2)
C12 C 0.5705(2) 0.8331(3) 0.1735(2)
H6 H 0.5921 0.7814 0.1327
O6 O 1.2419(3) 0.8144(4) 0.2788(4)
C13 C 0.8036(3) 0.8061(4) 0.0746(2)
H7 H 0.8166 0.7672 0.0255
H8 H 0.7347 0.8421 0.0690
C14 C 0.8247(3) 0.8406(3) 0.3567(2)
H9 H 0.7864 0.7956 0.3943
H10 H 0.8932 0.8602 0.3806
O7 O 0.7900(3) 1.0250(3) 0.3664(2)
C15 C 0.6884(3) 0.6586(3) 0.2616(3)
H11 H 0.6684 0.6714 0.3161
H12 H 0.7357 0.5981 0.2589
H13 H 0.6246 0.6448 0.2307
O8 O 0.4269(3) 0.9440(4) 0.1264(3)
C16 C 0.8915(3) 0.8911(3) 0.0831(2)
H14 H 0.8680 0.9438 0.1217
H15 H 0.9003 0.9272 0.0323
C17 C 1.1097(3) 1.0156(4) 0.0782(3)
O9 O 0.9659(3) 1.1471(3) 0.0824(2)
C18 C 0.5793(4) 0.8702(5) 0.3645(3)
H16 H 0.5056 0.8714 0.3469
H17 H 0.5855 0.9089 0.4137
H18 H 0.6018 0.7977 0.3725
C19 C 1.0877(3) 0.7334(4) 0.2175(3)
H19 H 1.1194 0.6795 0.1833
H20 H 1.0724 0.7003 0.2685
C20 C 1.0492(4) 1.1134(4) 0.0547(3)
C21 C 1.1700(3) 0.8226(5) 0.2301(4)
C22 C 0.6046(5) 1.0315(4) 0.2812(3)
H21 H 0.6539 1.0711 0.2485
H22 H 0.5917 1.0698 0.3298
H23 H 0.5376 1.0221 0.2532
C23 C 1.0582(4) 0.7873(5) 0.0411(3)
H24 H 1.0577 0.8312 -0.0057
H25 H 1.0212 0.7216 0.0303
H26 H 1.1315 0.7723 0.0561
C24 C 1.2005(4) 1.0151(4) 0.0361(3)
H27 H 1.2553 0.9649 0.0416
C25 C 0.9329(4) 0.5794(4) 0.1481(4)
H28 H 0.8818 0.5295 0.1318
H29 H 1.0036 0.5580 0.1581
C26 C 0.5548(7) 1.0814(7) 0.0518(5)
H30 H 0.4961 1.0629 0.0171
H31 H 0.6121 1.1128 0.0213
H32 H 0.5300 1.1316 0.0910
C27 C 1.2026(4) 1.1053(5) -0.0208(3)
H33 H 1.2009 1.0790 -0.0758
O10 O 1.2905(6) 1.1741(6) -0.0097(4)
H34 H 1.3275 1.1525 0.0275
H35? H 1.2669 1.1497 -0.0131
O11? O 1.2038(8) 1.0575(8) -0.0929(6)
H36? H 1.2385 1.0941 -0.1243
loop_
_geom_bond_atom_site_label_1
_geom_bond_atom_site_label_2
_geom_bond_site_symmetry_1
_geom_bond_site_symmetry_2
O1 C4 1_555 1_555
C1 H1 1_555 1_555
C2 O5 1_555 1_555
O2 H2 1_555 1_555
C3 C9 1_555 1_555
C4 H3 1_555 1_555
O3 C7 1_555 1_555
O4 C20 1_555 1_555
C5 C7 1_555 1_555
C6 C1 1_555 1_555
C7 H4 1_555 1_555
C8 C6 1_555 1_555
H5 C8 1_555 1_555
C9 C1 1_555 1_555
C10 C8 1_555 1_555
C11 O1 1_555 1_555
O5 C26 1_555 1_555
C12 C1 1_555 1_555
H6 C12 1_555 1_555
O6 C21 1_555 1_555
C13 C8 1_555 1_555
H7 C13 1_555 1_555
H8 C13 1_555 1_555
C14 C3 1_555 1_555
H9 C14 1_555 1_555
H10 C14 1_555 1_555
O7 C3 1_555 1_555
C15 C6 1_555 1_555
H11 C15 1_555 1_555
H12 C15 1_555 1_555
H13 C15 1_555 1_555
O8 C2 1_555 1_555
C16 C5 1_555 1_555
H14 C16 1_555 1_555
H15 C16 1_555 1_555
C17 C7 1_555 1_555
O9 C20 1_555 1_555
C18 C9 1_555 1_555
H16 C18 1_555 1_555
H17 C18 1_555 1_555
H18 C18 1_555 1_555
C19 C11 1_555 1_555
H19 C19 1_555 1_555
H20 C19 1_555 1_555
C20 C17 1_555 1_555
C21 O3 1_555 1_555
C22 C9 1_555 1_555
H21 C22 1_555 1_555
H22 C22 1_555 1_555
H23 C22 1_555 1_555
C23 C5 1_555 1_555
H24 C23 1_555 1_555
H25 C23 1_555 1_555
H26 C23 1_555 1_555
C24 C17 1_555 1_555
H27 C24 1_555 1_555
C25 C10 1_555 1_555
H28 C25 1_555 1_555
H29 C25 1_555 1_555
C26 H30 1_555 1_555
H31 C26 1_555 1_555
H32 C26 1_555 1_555
C27 O4 1_555 1_555
H33 C27 1_555 1_555
O10 C27 1_555 1_555
H34 O10 1_555 1_555
C2 C12 1_555 1_555
O2 C12 1_555 1_555
C4 C6 1_555 1_555
C4 C14 1_555 1_555
C5 C11 1_555 1_555
C10 C11 1_555 1_555
C13 C16 1_555 1_555
C19 C21 1_555 1_555
C24 C27 1_555 1_555

#END
