
#######################################################################
#
#                 Cambridge Crystallographic Data Centre
#                                CCDC 
#
#######################################################################
#
# If this CIF has been generated from an entry in the Cambridge 
# Structural Database, then it will include bibliographic, chemical, 
# crystal, experimental, refinement or atomic coordinate data resulting 
# from the CCDC's data processing and validation procedures.
#
#######################################################################

data_GAMBOO
_chemical_formula_moiety         'C25 H32 Br2 F2 N4 P4,0.5(C7 H8)'
_chemical_name_systematic        
'6-bromo-6-[(12-bromo-2,3,4,7,8,9,10,12-octahydro-1H,6H-[1,2,3]benzodiazaphospholo[2,1-a][1,2,3]benzodiazaphosphol-6-yl)(difluoro)methyl]-2,3,4,6,7,8,9,10-octahydro-1H-5\l^5^,6\l^5^-[1,2,3]benzodiazaphospholo[2,1-a][1,2,3]benzodiazaphosphole toluene solvate'
_symmetry_cell_setting           triclinic
_symmetry_space_group_name_H-M   'P -1'
_symmetry_Int_Tables_number      2
_space_group_name_Hall           '-P 1'
loop_
_symmetry_equiv_pos_site_id
_symmetry_equiv_pos_as_xyz
1 x,y,z
2 -x,-y,-z
_cell_length_a                   12.2519(4)
_cell_length_b                   12.8114(4)
_cell_length_c                   12.8150(4)
_cell_angle_alpha                107.274(3)
_cell_angle_beta                 104.567(3)
_cell_angle_gamma                115.593(3)
_cell_volume                     1554.77
_exptl_crystal_colour            orange
_exptl_crystal_description       prism
_cell_formula_units_Z            2
loop_
_atom_site_label
_atom_site_type_symbol
_atom_site_fract_x
_atom_site_fract_y
_atom_site_fract_z
C1 C -0.64993(16) -0.35105(17) -0.77941(16)
F1 F -0.62305(11) -0.43183(11) -0.74363(10)
F2 F -0.56735(10) -0.31071(11) -0.83345(10)
Br1 Br -0.80500(2) -0.21523(2) -0.83420(2)
P1 P -0.83179(4) -0.44946(4) -0.90396(4)
P2 P -0.96586(5) -0.84269(5) -0.97511(6)
N1 N -0.91721(15) -0.68468(14) -0.90597(14)
N2 N -0.84196(14) -0.60774(15) -0.94598(13)
C2 C -0.92403(16) -0.50162(17) -0.81774(15)
C3 C -0.95829(17) -0.62075(17) -0.82971(16)
C4 C -1.03533(19) -0.6914(2) -0.77318(19)
H1 H -0.9885 -0.7266 -0.7353
H2 H -1.1264 -0.7658 -0.8368
C5 C -1.0475(2) -0.5986(2) -0.6764(2)
H3 H -1.1188 -0.6501 -0.6564
H4 H -0.9613 -0.5419 -0.6013
C6 C -1.0816(2) -0.5140(2) -0.7211(2)
H5 H -1.0931 -0.4581 -0.6585
H6 H -1.1680 -0.5709 -0.7960
C7 C -0.97129(17) -0.42779(17) -0.74779(16)
H7 H -1.0061 -0.3913 -0.7953
H8 H -0.8937 -0.3538 -0.6700
C8 C -0.8764(2) -0.8051(2) -1.05794(18)
C9 C -0.81788(18) -0.6738(2) -1.03057(16)
C10 C -0.7358(10) -0.6116(6) -1.0893(7)
H9 H -0.6456 -0.5353 -1.0260
H10 H -0.7809 -0.5809 -1.1361
C11 C -0.7215(4) -0.7118(4) -1.1739(4)
H11 H -0.6428 -0.7099 -1.1262
H12 H -0.7031 -0.6861 -1.2363
C12 C -0.8454(4) -0.8513(3) -1.2381(3)
H13 H -0.9254 -0.8529 -1.2823
H14 H -0.8328 -0.9082 -1.2988
C13 C -0.8709(5) -0.9055(4) -1.1507(3)
H15 H -0.9572 -0.9919 -1.1930
H16 H -0.7969 -0.9145 -1.1119
Br2 Br -0.14501(2) -0.23321(2) -0.46232(2)
P3 P -0.60693(4) -0.20851(4) -0.63336(4)
P4 P -0.24714(4) -0.11082(5) -0.36359(4)
N3 N -0.35663(13) -0.11598(14) -0.47780(13)
N4 N -0.49204(13) -0.21642(14) -0.52530(13)
C14 C -0.45955(16) -0.07210(16) -0.62243(15)
C15 C -0.34361(16) -0.03883(16) -0.53778(15)
C16 C -0.20421(16) 0.06994(17) -0.50273(16)
H17 H -0.1521 0.0329 -0.5241
H18 H -0.1578 0.1267 -0.4136
C17 C -0.20895(17) 0.15137(18) -0.56800(17)
H19 H -0.2217 0.2184 -0.5210
H20 H -0.1217 0.1972 -0.5709
C18 C -0.32181(18) 0.0686(2) -0.69683(17)
H21 H -0.3079 0.0031 -0.7447
H22 H -0.3191 0.1252 -0.7359
C19 C -0.46064(17) -0.00194(18) -0.69823(16)
H23 H -0.4831 0.0623 -0.6652
H24 H -0.5303 -0.0656 -0.7830
C20 C -0.38515(17) -0.24028(18) -0.36765(17)
C21 C -0.50512(17) -0.28214(17) -0.45872(16)
C22 C -0.64088(17) -0.38800(18) -0.48314(17)
H25 H -0.6717 -0.4707 -0.5524
H26 H -0.7071 -0.3641 -0.5047
C23 C -0.63105(19) -0.4061(2) -0.36929(18)
H27 H -0.7170 -0.4833 -0.3878
H28 H -0.6149 -0.3284 -0.3041
C24 C -0.51554(19) -0.4248(2) -0.32571(19)
H29 H -0.5307 -0.5007 -0.3923
H30 H -0.5153 -0.4441 -0.2564
C25 C -0.37792(19) -0.3035(2) -0.28602(19)
H31 H -0.3452 -0.2395 -0.2013
H32 H -0.3124 -0.3289 -0.2876
C26? C -0.739(2) -0.5994(9) -1.0859(13)
H33? H -0.6428 -0.5423 -1.0268
H34? H -0.7698 -0.5422 -1.0985
C27? C -0.7522(10) -0.6837(7) -1.2059(8)
H35? H -0.8385 -0.7163 -1.2731
H36? H -0.6775 -0.6315 -1.2222
C28? C -0.7476(9) -0.7979(8) -1.1988(8)
H37? H -0.6578 -0.7653 -1.1371
H38? H -0.7622 -0.8569 -1.2785
C29? C -0.8557(10) -0.8728(7) -1.1646(7)
H39? H -0.8395 -0.9374 -1.1494
H40? H -0.9429 -0.9234 -1.2380
C30? C -0.4941(6) 0.2045(5) -0.9627(6)
H41? H -0.4118 0.2795 -0.8906
H42? H -0.5730 0.1932 -0.9495
H43? H -0.4984 0.2200 -1.0337
C31? C -0.4925(4) 0.0812(3) -0.9852(4)
C32? C -0.5930(4) -0.0263(4) -0.9860(4)
H44? H -0.6630 -0.0231 -0.9692
C33? C -0.5909(4) -0.1386(3) -1.0115(3)
H45? H -0.6596 -0.2121 -1.0121
C34? C -0.4885(5) -0.1433(3) -1.0362(3)
H46? H -0.4871 -0.2201 -1.0536
C35? C -0.3881(4) -0.0358(4) -1.0354(3)
H47? H -0.3181 -0.0390 -1.0522
C36? C -0.3901(4) 0.0765(3) -1.0099(3)
H48? H -0.3215 0.1500 -1.0093
loop_
_geom_bond_atom_site_label_1
_geom_bond_atom_site_label_2
_geom_bond_site_symmetry_1
_geom_bond_site_symmetry_2
C1 F1 1_555 1_555
F2 C1 1_555 1_555
Br1 P1 1_555 1_555
P1 C1 1_555 1_555
P2 N1 1_555 1_555
N1 N2 1_555 1_555
N2 P1 1_555 1_555
C2 P1 1_555 1_555
C3 N1 1_555 1_555
C4 C3 1_555 1_555
H1 C4 1_555 1_555
H2 C4 1_555 1_555
C5 C4 1_555 1_555
H3 C5 1_555 1_555
H4 C5 1_555 1_555
C6 C5 1_555 1_555
H5 C6 1_555 1_555
H6 C6 1_555 1_555
C7 C2 1_555 1_555
H7 C7 1_555 1_555
H8 C7 1_555 1_555
C8 P2 1_555 1_555
C9 N2 1_555 1_555
C10 C9 1_555 1_555
H9 C10 1_555 1_555
H10 C10 1_555 1_555
C11 C10 1_555 1_555
H11 C11 1_555 1_555
H12 C11 1_555 1_555
C12 C11 1_555 1_555
H13 C12 1_555 1_555
H14 C12 1_555 1_555
C13 C8 1_555 1_555
H15 C13 1_555 1_555
H16 C13 1_555 1_555
Br2 P4 1_555 1_555
P3 C1 1_555 1_555
P4 N3 1_555 1_555
N3 N4 1_555 1_555
N4 P3 1_555 1_555
C14 P3 1_555 1_555
C15 N3 1_555 1_555
C16 C15 1_555 1_555
H17 C16 1_555 1_555
H18 C16 1_555 1_555
C17 C16 1_555 1_555
H19 C17 1_555 1_555
H20 C17 1_555 1_555
C18 C17 1_555 1_555
H21 C18 1_555 1_555
H22 C18 1_555 1_555
C19 C14 1_555 1_555
H23 C19 1_555 1_555
H24 C19 1_555 1_555
C20 P4 1_555 1_555
C21 N4 1_555 1_555
C22 C21 1_555 1_555
H25 C22 1_555 1_555
H26 C22 1_555 1_555
C23 C22 1_555 1_555
H27 C23 1_555 1_555
H28 C23 1_555 1_555
C24 C23 1_555 1_555
H29 C24 1_555 1_555
H30 C24 1_555 1_555
C25 C20 1_555 1_555
H31 C25 1_555 1_555
H32 C25 1_555 1_555
C2 C3 1_555 1_555
C6 C7 1_555 1_555
C8 C9 1_555 1_555
C12 C13 1_555 1_555
C14 C15 1_555 1_555
C18 C19 1_555 1_555
C20 C21 1_555 1_555
C24 C25 1_555 1_555

#END
