
#######################################################################
#
#                 Cambridge Crystallographic Data Centre
#                                CCDC 
#
#######################################################################
#
# If this CIF has been generated from an entry in the Cambridge 
# Structural Database, then it will include bibliographic, chemical, 
# crystal, experimental, refinement or atomic coordinate data resulting 
# from the CCDC's data processing and validation procedures.
#
#######################################################################

data_GAMGIL
_chemical_formula_moiety         'C14 H6 O7'
_chemical_name_systematic        
'Naphthalene-1,4,5,8-tetracarboxylic 1,8-anhydride'
_symmetry_cell_setting           orthorhombic
_symmetry_space_group_name_H-M   'P 21 21 21'
_symmetry_Int_Tables_number      19
_space_group_name_Hall           'P 2ac 2ab'
loop_
_symmetry_equiv_pos_site_id
_symmetry_equiv_pos_as_xyz
1 x,y,z
2 1/2-x,-y,1/2+z
3 1/2+x,1/2-y,-z
4 -x,1/2+y,1/2-z
_cell_length_a                   7.6811(15)
_cell_length_b                   9.754(2)
_cell_length_c                   14.357(3)
_cell_angle_alpha                90
_cell_angle_beta                 90
_cell_angle_gamma                90
_cell_volume                     1075.65
_exptl_crystal_colour            yellow
_exptl_crystal_description       needle
_chemical_melting_point          'above 573 K'
_cell_formula_units_Z            4
loop_
_atom_site_label
_atom_site_type_symbol
_atom_site_fract_x
_atom_site_fract_y
_atom_site_fract_z
O1 O 0.3403(3) 1.1613(2) 0.67132(15)
C1 C 0.3558(4) 0.9393(3) 0.6043(2)
O2 O 0.3662(3) 1.1555(2) 0.51847(15)
C2 C 0.3398(5) 0.8720(3) 0.6876(2)
H1 H 0.3235 0.9222 0.7436
O3 O 0.4155(3) 1.1605(2) 0.36785(15)
C3 C 0.3475(5) 0.7278(3) 0.6894(2)
H2 H 0.3390 0.6811 0.7473
O4 O 0.5296(3) 0.4501(3) 0.57967(16)
C4 C 0.3671(4) 0.6536(3) 0.6088(2)
O5 O 0.2989(3) 0.4398(3) 0.67473(17)
H3 H 0.3184 0.3551 0.6734
C5 C 0.3863(4) 0.6525(3) 0.4320(2)
O6 O 0.2180(3) 0.4508(3) 0.45630(16)
C6 C 0.4105(5) 0.7256(3) 0.3517(2)
H4 H 0.4234 0.6782 0.2944
O7 O 0.4619(3) 0.4359(3) 0.37152(17)
H5 H 0.4449 0.3510 0.3757
C7 C 0.4167(4) 0.8704(4) 0.3525(2)
H6 H 0.4361 0.9197 0.2964
C8 C 0.3946(4) 0.9389(3) 0.4349(2)
C9 C 0.3745(4) 0.8668(3) 0.5196(2)
C10 C 0.3750(4) 0.7210(3) 0.5203(2)
C11 C 0.3547(4) 1.0906(3) 0.6029(2)
C12 C 0.3937(4) 1.0890(3) 0.4354(2)
C13 C 0.4032(4) 0.5016(3) 0.6178(2)
C14 C 0.3474(4) 0.5011(3) 0.4227(2)
loop_
_geom_bond_atom_site_label_1
_geom_bond_atom_site_label_2
_geom_bond_site_symmetry_1
_geom_bond_site_symmetry_2
O1 C11 1_555 1_555
C1 C2 1_555 1_555
O2 C11 1_555 1_555
C2 H1 1_555 1_555
O3 C12 1_555 1_555
C3 C2 1_555 1_555
H2 C3 1_555 1_555
O4 C13 1_555 1_555
C4 C3 1_555 1_555
O5 H3 1_555 1_555
C5 C6 1_555 1_555
O6 C14 1_555 1_555
C6 H4 1_555 1_555
O7 H5 1_555 1_555
C7 C6 1_555 1_555
H6 C7 1_555 1_555
C8 C7 1_555 1_555
C9 C1 1_555 1_555
C10 C4 1_555 1_555
C11 C1 1_555 1_555
C12 O2 1_555 1_555
C13 C4 1_555 1_555
C14 C5 1_555 1_555
O5 C13 1_555 1_555
C5 C10 1_555 1_555
O7 C14 1_555 1_555
C8 C9 1_555 1_555
C8 C12 1_555 1_555
C9 C10 1_555 1_555

#END
