
#######################################################################
#
#                 Cambridge Crystallographic Data Centre
#                                CCDC 
#
#######################################################################
#
# If this CIF has been generated from an entry in the Cambridge 
# Structural Database, then it will include bibliographic, chemical, 
# crystal, experimental, refinement or atomic coordinate data resulting 
# from the CCDC's data processing and validation procedures.
#
#######################################################################

data_GAMNIS
_chemical_formula_moiety         'C20 H15 N3 O1'
_chemical_name_systematic        
2,3-dihydro-2-spiro-4'-(8'-aminonaphthalen-1'(4H)-one)perimidine
_symmetry_cell_setting           monoclinic
_symmetry_space_group_name_H-M   'P 21/c'
_symmetry_Int_Tables_number      14
_space_group_name_Hall           '-P 2ybc'
loop_
_symmetry_equiv_pos_site_id
_symmetry_equiv_pos_as_xyz
1 x,y,z
2 -x,1/2+y,1/2-z
3 -x,-y,-z
4 x,1/2-y,1/2+z
_cell_length_a                   11.993(4)
_cell_length_b                   16.027(5)
_cell_length_c                   7.917(3)
_cell_angle_alpha                90
_cell_angle_beta                 97.520(6)
_cell_angle_gamma                90
_cell_volume                     1508.65
_exptl_crystal_colour            yellow
_exptl_crystal_description       needle
_cell_formula_units_Z            4
loop_
_atom_site_label
_atom_site_type_symbol
_atom_site_fract_x
_atom_site_fract_y
_atom_site_fract_z
C1 C 0.5994(3) 0.2403(2) 0.2235(4)
N1 N 0.7327(3) 0.04893(19) 0.1483(4)
N2 N 0.6619(3) 0.0398(2) 0.4095(4)
O1 O 0.7046(2) 0.35970(16) 0.3277(3)
C2 C 0.5973(3) 0.1527(2) 0.2115(4)
C3 C 0.8138(3) -0.0507(2) 0.3557(5)
C4 C 0.6986(3) 0.2828(2) 0.3113(5)
C5 C 0.8886(3) -0.1167(2) 0.4037(5)
C6 C 0.7930(3) 0.2319(2) 0.3829(5)
H1 H 0.8573 0.2588 0.4417
C7 C 0.7938(3) 0.1505(2) 0.3701(5)
H2 H 0.8598 0.1217 0.4175
C8 C 0.8120(3) -0.0130(2) 0.1924(5)
N3 N 0.5012(3) 0.3714(2) 0.1562(4)
H3 H 0.4420 0.3986 0.1068
H4 H 0.5588 0.3991 0.2092
C9 C 0.5037(4) 0.2860(2) 0.1507(5)
C10 C 0.6978(3) 0.1000(2) 0.2859(4)
C11 C 0.7409(4) -0.0590(2) 0.6247(5)
H5 H 0.6918 -0.0400 0.7017
C12 C 0.5048(3) 0.1124(3) 0.1300(5)
H6 H 0.5033 0.0532 0.1235
C13 C 0.8818(3) -0.0414(2) 0.0832(5)
H7 H 0.8806 -0.0164 -0.0258
C14 C 0.7395(3) -0.0214(2) 0.4684(5)
C15 C 0.9604(4) -0.1444(2) 0.2870(5)
H8 H 1.0119 -0.1887 0.3172
C16 C 0.4117(3) 0.2430(3) 0.0662(5)
H9 H 0.3478 0.2730 0.0151
C17 C 0.4133(3) 0.1589(3) 0.0570(5)
H10 H 0.3500 0.1307 -0.0012
C18 C 0.8150(4) -0.1254(3) 0.6702(5)
H11 H 0.8150 -0.1510 0.7784
C19 C 0.8871(4) -0.1544(2) 0.5639(5)
H12 H 0.9360 -0.1997 0.5979
C20 C 0.9554(4) -0.1074(2) 0.1305(5)
H13 H 1.0031 -0.1269 0.0523
H14 H 0.743(3) 0.080(3) 0.047(6)
H15 H 0.628(4) 0.064(3) 0.477(5)
loop_
_geom_bond_atom_site_label_1
_geom_bond_atom_site_label_2
_geom_bond_site_symmetry_1
_geom_bond_site_symmetry_2
C1 C2 1_555 1_555
N1 C8 1_555 1_555
N2 C10 1_555 1_555
O1 C4 1_555 1_555
C2 C10 1_555 1_555
C3 C5 1_555 1_555
C4 C1 1_555 1_555
C5 C15 1_555 1_555
C6 C4 1_555 1_555
H1 C6 1_555 1_555
C7 C6 1_555 1_555
H2 C7 1_555 1_555
C8 C3 1_555 1_555
N3 H3 1_555 1_555
H4 N3 1_555 1_555
C9 C1 1_555 1_555
C10 N1 1_555 1_555
C11 H5 1_555 1_555
C12 C2 1_555 1_555
H6 C12 1_555 1_555
C13 C8 1_555 1_555
H7 C13 1_555 1_555
C14 N2 1_555 1_555
C15 H8 1_555 1_555
C16 C9 1_555 1_555
H9 C16 1_555 1_555
C17 C12 1_555 1_555
H10 C17 1_555 1_555
C18 C11 1_555 1_555
H11 C18 1_555 1_555
C19 C5 1_555 1_555
H12 C19 1_555 1_555
C20 C13 1_555 1_555
H13 C20 1_555 1_555
H14 N1 1_555 1_555
H15 N2 1_555 1_555
C3 C14 1_555 1_555
C7 C10 1_555 1_555
N3 C9 1_555 1_555
C11 C14 1_555 1_555
C15 C20 1_555 1_555
C16 C17 1_555 1_555
C18 C19 1_555 1_555

#END
