
#######################################################################
#
#                 Cambridge Crystallographic Data Centre
#                                CCDC 
#
#######################################################################
#
# If this CIF has been generated from an entry in the Cambridge 
# Structural Database, then it will include bibliographic, chemical, 
# crystal, experimental, refinement or atomic coordinate data resulting 
# from the CCDC's data processing and validation procedures.
#
#######################################################################

data_GAPCIJ
_chemical_formula_moiety         'C17 H17 Cl1 N2 O6'
_chemical_name_systematic        
'Dimethyl 4-(2-chloro-4-nitrophenyl)-1,4-dihydro-2,6-dimethyl-pyridine-3,5-dicarboxylate'
_symmetry_cell_setting           orthorhombic
_symmetry_space_group_name_H-M   'P 21 21 21'
_symmetry_Int_Tables_number      19
_space_group_name_Hall           'P 2ac 2ab'
loop_
_symmetry_equiv_pos_site_id
_symmetry_equiv_pos_as_xyz
1 x,y,z
2 1/2+x,1/2-y,-z
3 -x,1/2+y,1/2-z
4 1/2-x,-y,1/2+z
_cell_length_a                   11.233(1)
_cell_length_b                   17.663(1)
_cell_length_c                   8.885(1)
_cell_angle_alpha                90
_cell_angle_beta                 90
_cell_angle_gamma                90
_cell_volume                     1762.86
_chemical_melting_point          228-229deg.C
_cell_formula_units_Z            4
loop_
_atom_site_label
_atom_site_type_symbol
_atom_site_fract_x
_atom_site_fract_y
_atom_site_fract_z
N1 N 0.2641(3) 0.8605(2) 0.7263(4)
C1 C 0.3086(3) 0.9229(2) 0.6524(5)
C2 C 0.4047(3) 0.9596(2) 0.7111(4)
C3 C 0.4691(3) 0.9295(2) 0.8490(4)
C4 C 0.3942(3) 0.8712(2) 0.9338(4)
C5 C 0.2981(3) 0.8387(2) 0.8690(5)
C6 C 0.5884(3) 0.8963(2) 0.7998(4)
C7 C 0.6991(3) 0.9237(2) 0.8445(4)
C8 C 0.8046(3) 0.8947(2) 0.7865(4)
C9 C 0.7972(3) 0.8380(2) 0.6809(4)
C10 C 0.6904(3) 0.8074(2) 0.6353(4)
C11 C 0.5874(3) 0.8375(2) 0.6964(4)
C12 C 0.2415(4) 0.9430(3) 0.5147(6)
C13 C 0.4506(4) 1.0290(2) 0.6408(5)
O1 O 0.4354(3) 1.0507(2) 0.5141(4)
O2 O 0.5171(3) 1.0681(2) 0.7384(3)
C14 C 0.5694(5) 1.1370(3) 0.6849(6)
C15 C 0.4268(4) 0.8529(2) 1.0893(5)
O3 O 0.5133(3) 0.8972(2) 1.1385(3)
O4 O 0.3857(4) 0.8051(2) 1.1662(4)
C16 C 0.5510(5) 0.8873(3) 1.2917(5)
C17 C 0.2175(4) 0.7808(2) 0.9378(5)
Cl1 Cl 0.71227(8) 0.99592(6) 0.9763(1)
N2 N 0.9084(3) 0.8089(2) 0.6146(4)
O5 O 0.8997(3) 0.7625(2) 0.5143(4)
O6 O 1.0015(2) 0.8332(2) 0.6613(5)
H1 H 0.2064 0.8305 0.6756
H2 H 0.4822 0.9699 0.9173
H3 H 0.8795 0.9134 0.8192
H4 H 0.6875 0.7668 0.5647
H5 H 0.5127 0.8170 0.6662
H6 H 0.1788 0.9076 0.5002
H7 H 0.2092 0.9923 0.5253
H8 H 0.2935 0.9417 0.4305
H9 H 0.6142 1.1597 0.7634
H10 H 0.6198 1.1263 0.6020
H11 H 0.5080 1.1707 0.6540
H12 H 0.6131 0.9219 1.3134
H13 H 0.4858 0.8959 1.3568
H14 H 0.5793 0.8368 1.3045
H15 H 0.1568 0.7677 0.8679
H16 H 0.2623 0.7369 0.9626
H17 H 0.1823 0.8009 1.0264
loop_
_geom_bond_atom_site_label_1
_geom_bond_atom_site_label_2
_geom_bond_site_symmetry_1
_geom_bond_site_symmetry_2
N1 C1 1_555 1_555
C1 C2 1_555 1_555
C2 C3 1_555 1_555
C3 C4 1_555 1_555
C4 C5 1_555 1_555
C5 N1 1_555 1_555
C6 C3 1_555 1_555
C7 C6 1_555 1_555
C8 C7 1_555 1_555
C9 C8 1_555 1_555
C10 C9 1_555 1_555
C11 C6 1_555 1_555
C12 C1 1_555 1_555
C13 C2 1_555 1_555
O1 C13 1_555 1_555
O2 C13 1_555 1_555
C14 O2 1_555 1_555
C15 C4 1_555 1_555
O3 C15 1_555 1_555
O4 C15 1_555 1_555
C16 O3 1_555 1_555
C17 C5 1_555 1_555
Cl1 C7 1_555 1_555
N2 C9 1_555 1_555
O5 N2 1_555 1_555
O6 N2 1_555 1_555
H1 N1 1_555 1_555
H2 C3 1_555 1_555
H3 C8 1_555 1_555
H4 C10 1_555 1_555
H5 C11 1_555 1_555
H6 C12 1_555 1_555
H7 C12 1_555 1_555
H8 C12 1_555 1_555
H9 C14 1_555 1_555
H10 C14 1_555 1_555
H11 C14 1_555 1_555
H12 C16 1_555 1_555
H13 C16 1_555 1_555
H14 C16 1_555 1_555
H15 C17 1_555 1_555
H16 C17 1_555 1_555
H17 C17 1_555 1_555
C10 C11 1_555 1_555

#END
