
#######################################################################
#
#                 Cambridge Crystallographic Data Centre
#                                CCDC 
#
#######################################################################
#
# If this CIF has been generated from an entry in the Cambridge 
# Structural Database, then it will include bibliographic, chemical, 
# crystal, experimental, refinement or atomic coordinate data resulting 
# from the CCDC's data processing and validation procedures.
#
#######################################################################

data_GAPFOS
_chemical_formula_moiety         'C19 H21 N1 O4'
_chemical_name_systematic        
2-(2,5-Dimethoxybenzyl)-3,6-dimethoxy-4-methylbenzonitrile
_symmetry_cell_setting           monoclinic
_symmetry_space_group_name_H-M   'P 21/c'
_symmetry_Int_Tables_number      14
_space_group_name_Hall           '-P 2ybc'
loop_
_symmetry_equiv_pos_site_id
_symmetry_equiv_pos_as_xyz
1 x,y,z
2 -x,1/2+y,1/2-z
3 -x,-y,-z
4 x,1/2-y,1/2+z
_cell_length_a                   8.152(3)
_cell_length_b                   21.858(7)
_cell_length_c                   9.872(3)
_cell_angle_alpha                90
_cell_angle_beta                 103.83(2)
_cell_angle_gamma                90
_cell_volume                     1708.06
_exptl_crystal_colour            colorless
_cell_formula_units_Z            4
loop_
_atom_site_label
_atom_site_type_symbol
_atom_site_fract_x
_atom_site_fract_y
_atom_site_fract_z
C1 C 0.7826(3) 0.54103(11) -0.1624(2)
C2 C 0.6964(3) 0.48595(11) -0.1938(2)
C3 C 0.6651(3) 0.44779(11) -0.0906(3)
C4 C 0.7216(3) 0.46535(12) 0.0474(3)
C5 C 0.8036(3) 0.51996(12) 0.0820(2)
C6 C 0.8350(3) 0.55780(11) -0.0225(3)
C7 C 0.8098(3) 0.58305(11) -0.2763(3)
C8 C 0.6715(3) 0.62988(11) -0.3218(2)
C9 C 0.5427(3) 0.63686(11) -0.2543(3)
C10 C 0.4158(3) 0.68003(12) -0.2975(3)
C11 C 0.4172(4) 0.71749(12) -0.4079(3)
C12 C 0.5468(4) 0.71172(12) -0.4771(3)
C13 C 0.6720(4) 0.66783(12) -0.4356(3)
O1 O 0.6303(2) 0.47191(9) -0.3322(2)
C14 C 0.5691(4) 0.38876(13) -0.1257(3)
O2 O 0.8589(2) 0.54138(9) 0.2147(2)
C15 C 0.9203(3) 0.61452(12) 0.0159(3)
O3 O 0.2955(2) 0.68057(9) -0.2202(2)
O4 O 0.8012(3) 0.65743(9) -0.4993(2)
C16 C 0.7229(4) 0.42767(15) -0.3896(3)
C17 C 0.8084(4) 0.50920(16) 0.3243(3)
N1 N 0.9868(3) 0.66038(11) 0.0447(3)
C18 C 0.1597(4) 0.72252(15) -0.2590(4)
C19 C 0.8108(4) 0.69435(16) -0.6167(3)
H1 H 0.7008(3) 0.4356(1) 0.1290(3)
H2 H 0.9280(3) 0.6069(1) -0.2387(3)
H3 H 0.8166(3) 0.5555(1) -0.3656(3)
H4 H 0.5405(3) 0.6080(1) -0.1659(3)
H5 H 0.3191(4) 0.7512(1) -0.4412(3)
H6 H 0.5498(4) 0.7416(1) -0.5636(3)
H7 H 0.5354(4) 0.3826(1) -0.2374(3)
H8 H 0.4558(4) 0.3903(1) -0.0872(3)
H9 H 0.6473(4) 0.3510(1) -0.0775(3)
H10 H 0.6611(4) 0.4199(2) -0.4978(3)
H11 H 0.7283(4) 0.3853(2) -0.3325(3)
H12 H 0.8496(4) 0.4443(2) -0.3821(3)
H13 H 0.8616(4) 0.5314(2) 0.4228(3)
H14 H 0.8532(4) 0.4626(2) 0.3281(3)
H15 H 0.6723(4) 0.5093(2) 0.3049(3)
H16 H 0.0764(4) 0.7176(1) -0.1894(4)
H17 H 0.0905(4) 0.7133(1) -0.3647(4)
H18 H 0.2087(4) 0.7686(1) -0.2523(4)
H19 H 0.9189(4) 0.6806(2) -0.6548(3)
H20 H 0.8237(4) 0.7418(2) -0.5857(3)
H21 H 0.6971(4) 0.6885(2) -0.6982(3)
loop_
_geom_bond_atom_site_label_1
_geom_bond_atom_site_label_2
_geom_bond_site_symmetry_1
_geom_bond_site_symmetry_2
C1 C2 1_555 1_555
C2 C3 1_555 1_555
C3 C4 1_555 1_555
C4 C5 1_555 1_555
C5 C6 1_555 1_555
C6 C1 1_555 1_555
C7 C1 1_555 1_555
C8 C7 1_555 1_555
C9 C8 1_555 1_555
C10 C9 1_555 1_555
C11 C10 1_555 1_555
C12 C11 1_555 1_555
C13 C8 1_555 1_555
O1 C2 1_555 1_555
C14 C3 1_555 1_555
O2 C5 1_555 1_555
C15 C6 1_555 1_555
O3 C10 1_555 1_555
O4 C13 1_555 1_555
C16 O1 1_555 1_555
C17 O2 1_555 1_555
N1 C15 1_555 1_555
C18 O3 1_555 1_555
C19 O4 1_555 1_555
H1 C4 1_555 1_555
H2 C7 1_555 1_555
H3 C7 1_555 1_555
H4 C9 1_555 1_555
H5 C11 1_555 1_555
H6 C12 1_555 1_555
H7 C14 1_555 1_555
H8 C14 1_555 1_555
H9 C14 1_555 1_555
H10 C16 1_555 1_555
H11 C16 1_555 1_555
H12 C16 1_555 1_555
H13 C17 1_555 1_555
H14 C17 1_555 1_555
H15 C17 1_555 1_555
H16 C18 1_555 1_555
H17 C18 1_555 1_555
H18 C18 1_555 1_555
H19 C19 1_555 1_555
H20 C19 1_555 1_555
H21 C19 1_555 1_555
C12 C13 1_555 1_555

#END
