
#######################################################################
#
#                 Cambridge Crystallographic Data Centre
#                                CCDC 
#
#######################################################################
#
# If this CIF has been generated from an entry in the Cambridge 
# Structural Database, then it will include bibliographic, chemical, 
# crystal, experimental, refinement or atomic coordinate data resulting 
# from the CCDC's data processing and validation procedures.
#
#######################################################################

data_GAPJAK01
_chemical_formula_moiety         'C15 H17 N3 O4'
_chemical_name_systematic        
'2-ethoxyethyl 2-cyano-3-((phenylcarbamoyl)amino)acrylate'
_symmetry_cell_setting           monoclinic
_symmetry_space_group_name_H-M   'C 2/c'
_symmetry_Int_Tables_number      15
_space_group_name_Hall           '-C 2yn'
loop_
_symmetry_equiv_pos_site_id
_symmetry_equiv_pos_as_xyz
1 x,y,z
2 -x,y,1/2-z
3 1/2+x,1/2+y,z
4 1/2-x,1/2+y,1/2-z
5 -x,-y,-z
6 x,-y,1/2+z
7 1/2-x,1/2-y,-z
8 1/2+x,1/2-y,1/2+z
_cell_length_a                   25.102(7)
_cell_length_b                   12.013(3)
_cell_length_c                   10.436(3)
_cell_angle_alpha                90
_cell_angle_beta                 96.248(4)
_cell_angle_gamma                90
_cell_volume                     3128.29
_exptl_crystal_colour            colorless
_exptl_crystal_description       Platelet
_cell_formula_units_Z            8
loop_
_atom_site_label
_atom_site_type_symbol
_atom_site_fract_x
_atom_site_fract_y
_atom_site_fract_z
O1 O 0.15659(4) 0.22114(7) 0.47309(9)
O2 O 0.32432(3) 0.36646(7) 0.09862(8)
O3 O 0.27763(4) 0.46231(7) 0.23556(8)
O4 O 0.42663(4) 0.39232(8) -0.00208(9)
N1 N 0.16467(4) 0.40528(8) 0.53128(10)
N2 N 0.21226(4) 0.33631(8) 0.37397(9)
N3 N 0.28465(4) 0.09868(8) 0.07213(10)
C1 C 0.11615(5) 0.52205(11) 0.66349(12)
H1 H 0.1298 0.5844 0.6216
C2 C 0.08347(6) 0.53787(13) 0.76109(13)
H2 H 0.0747 0.6112 0.7858
C3 C 0.06367(6) 0.44733(14) 0.82240(13)
H3 H 0.0416 0.4583 0.8896
C4 C 0.07616(5) 0.34066(13) 0.78556(13)
H4 H 0.0625 0.2785 0.8278
C5 C 0.10845(5) 0.32346(11) 0.68761(12)
H5 H 0.1165 0.2500 0.6622
C6 C 0.12894(5) 0.41423(10) 0.62707(11)
C7 C 0.17519(5) 0.31405(9) 0.46344(12)
C8 C 0.22843(5) 0.25503(9) 0.29863(11)
H6 H 0.2142 0.1827 0.3086
C9 C 0.26364(5) 0.26801(9) 0.20886(11)
C10 C 0.28862(5) 0.37541(10) 0.18432(11)
C11 C 0.34591(5) 0.47118(10) 0.05780(13)
H7 H 0.3684 0.5062 0.1306
H8 H 0.3164 0.5229 0.0284
C12 C 0.37881(5) 0.44736(11) -0.05006(12)
H9 H 0.3581 0.4000 -0.1153
H10 H 0.3876 0.5179 -0.0921
C13 C 0.45942(7) 0.36769(16) -0.10075(16)
H11 H 0.4701 0.4375 -0.1414
H12 H 0.4393 0.3214 -0.1680
C14 C 0.50822(8) 0.30642(17) -0.0432(2)
H13 H 0.5255 0.3486 0.0303
H14 H 0.5333 0.2978 -0.1082
H15 H 0.4978 0.2328 -0.0140
C15 C 0.27583(5) 0.17378(9) 0.13389(11)
H16 H 0.2248(6) 0.4059(13) 0.3597(14)
H17 H 0.1787(6) 0.4663(13) 0.5061(13)
loop_
_geom_bond_atom_site_label_1
_geom_bond_atom_site_label_2
_geom_bond_site_symmetry_1
_geom_bond_site_symmetry_2
O1 C7 1_555 1_555
O2 C10 1_555 1_555
O3 C10 1_555 1_555
O4 C12 1_555 1_555
N1 C6 1_555 1_555
N2 C7 1_555 1_555
N3 C15 1_555 1_555
C1 H1 1_555 1_555
C2 C1 1_555 1_555
H2 C2 1_555 1_555
C3 C2 1_555 1_555
H3 C3 1_555 1_555
C4 C3 1_555 1_555
H4 C4 1_555 1_555
C5 C4 1_555 1_555
H5 C5 1_555 1_555
C6 C1 1_555 1_555
C7 N1 1_555 1_555
C8 N2 1_555 1_555
H6 C8 1_555 1_555
C9 C8 1_555 1_555
C10 C9 1_555 1_555
C11 O2 1_555 1_555
H7 C11 1_555 1_555
H8 C11 1_555 1_555
C12 C11 1_555 1_555
H9 C12 1_555 1_555
H10 C12 1_555 1_555
C13 O4 1_555 1_555
H11 C13 1_555 1_555
H12 C13 1_555 1_555
C14 C13 1_555 1_555
H13 C14 1_555 1_555
H14 C14 1_555 1_555
H15 C14 1_555 1_555
C15 C9 1_555 1_555
H16 N2 1_555 1_555
H17 N1 1_555 1_555
C5 C6 1_555 1_555

#END
