
#######################################################################
#
#                 Cambridge Crystallographic Data Centre
#                                CCDC 
#
#######################################################################
#
# If this CIF has been generated from an entry in the Cambridge 
# Structural Database, then it will include bibliographic, chemical, 
# crystal, experimental, refinement or atomic coordinate data resulting 
# from the CCDC's data processing and validation procedures.
#
#######################################################################

data_GAPYUT
_chemical_formula_moiety         'C15 H13 Cl1 N2 O1'
_chemical_name_systematic        
N'-(2-Chlorobenzylidene)-2-methylbenzohydrazide
_symmetry_cell_setting           monoclinic
_symmetry_space_group_name_H-M   'P 21/n'
_symmetry_Int_Tables_number      14
_space_group_name_Hall           '-P 2yn'
loop_
_symmetry_equiv_pos_site_id
_symmetry_equiv_pos_as_xyz
1 x,y,z
2 1/2-x,1/2+y,1/2-z
3 -x,-y,-z
4 1/2+x,1/2-y,1/2+z
_cell_length_a                   7.4305(17)
_cell_length_b                   25.596(2)
_cell_length_c                   7.7926(18)
_cell_angle_alpha                90
_cell_angle_beta                 113.505(2)
_cell_angle_gamma                90
_cell_volume                     1359.11
_exptl_crystal_colour            colorless
_exptl_crystal_description       block
_cell_formula_units_Z            4
loop_
_atom_site_label
_atom_site_type_symbol
_atom_site_fract_x
_atom_site_fract_y
_atom_site_fract_z
Cl1 Cl 0.29514(17) 0.04920(3) 0.54672(14)
N1 N 0.1795(3) 0.21108(8) 0.4023(3)
N2 N 0.2213(3) 0.24341(8) 0.5565(3)
O1 O 0.0050(3) 0.30528(7) 0.3860(2)
C1 C 0.2276(4) 0.12767(10) 0.2918(4)
C2 C 0.2488(4) 0.07402(11) 0.3250(4)
C3 C 0.2323(5) 0.03896(12) 0.1830(5)
H1 H 0.2448 0.0033 0.2069
C4 C 0.1976(5) 0.05753(14) 0.0072(5)
H2 H 0.1865 0.0343 -0.0882
C5 C 0.1791(5) 0.11049(13) -0.0288(4)
H3 H 0.1573 0.1229 -0.1476
C6 C 0.1931(4) 0.14482(11) 0.1120(4)
H4 H 0.1792 0.1804 0.0863
C7 C 0.2488(4) 0.16495(10) 0.4419(4)
H5 H 0.3131 0.1549 0.5664
C8 C 0.1263(4) 0.28972(10) 0.5363(3)
C9 C 0.1778(4) 0.31909(10) 0.7153(4)
C10 C 0.2087(4) 0.37314(11) 0.7235(4)
C11 C 0.2488(5) 0.39768(14) 0.8949(5)
H6 H 0.2718 0.4335 0.9046
C12 C 0.2553(5) 0.37064(17) 1.0496(5)
H7 H 0.2811 0.3883 1.1612
C13 C 0.2242(5) 0.31800(17) 1.0403(4)
H8 H 0.2282 0.2997 1.1450
C14 C 0.1869(4) 0.29217(12) 0.8746(4)
H9 H 0.1673 0.2562 0.8686
C15 C 0.2020(5) 0.40465(12) 0.5579(5)
H10 H 0.2780 0.3874 0.4998
H11 H 0.2554 0.4388 0.5990
H12 H 0.0685 0.4078 0.4693
H13 H 0.312(4) 0.2342(13) 0.669(3)
loop_
_geom_bond_atom_site_label_1
_geom_bond_atom_site_label_2
_geom_bond_site_symmetry_1
_geom_bond_site_symmetry_2
Cl1 C2 1_555 1_555
N1 N2 1_555 1_555
N2 C8 1_555 1_555
O1 C8 1_555 1_555
C1 C2 1_555 1_555
C2 C3 1_555 1_555
C3 H1 1_555 1_555
C4 C3 1_555 1_555
H2 C4 1_555 1_555
C5 C4 1_555 1_555
H3 C5 1_555 1_555
C6 C1 1_555 1_555
H4 C6 1_555 1_555
C7 N1 1_555 1_555
H5 C7 1_555 1_555
C8 C9 1_555 1_555
C9 C10 1_555 1_555
C10 C11 1_555 1_555
C11 H6 1_555 1_555
C12 C11 1_555 1_555
H7 C12 1_555 1_555
C13 C12 1_555 1_555
H8 C13 1_555 1_555
C14 C9 1_555 1_555
H9 C14 1_555 1_555
C15 C10 1_555 1_555
H10 C15 1_555 1_555
H11 C15 1_555 1_555
H12 C15 1_555 1_555
H13 N2 1_555 1_555
C1 C7 1_555 1_555
C5 C6 1_555 1_555
C13 C14 1_555 1_555

#END
