
#######################################################################
#
#                 Cambridge Crystallographic Data Centre
#                                CCDC 
#
#######################################################################
#
# If this CIF has been generated from an entry in the Cambridge 
# Structural Database, then it will include bibliographic, chemical, 
# crystal, experimental, refinement or atomic coordinate data resulting 
# from the CCDC's data processing and validation procedures.
#
#######################################################################

data_GAQCUX
_chemical_formula_moiety         'C25 H38 O9 S1'
_chemical_name_systematic        
'2-Oxo-2-(2,2,4,4-tetramethyl-7-((methylsulfonyl)oxy)dodecahydro-3bH-5,7a-(epoxymethano)phenanthro(9,10-d)(1,3)dioxol-10-yl)ethyl acetate'
_symmetry_cell_setting           triclinic
_symmetry_space_group_name_H-M   'P 1'
_symmetry_Int_Tables_number      1
_space_group_name_Hall           'P 1'
loop_
_symmetry_equiv_pos_site_id
_symmetry_equiv_pos_as_xyz
1 x,y,z
_cell_length_a                   8.584(2)
_cell_length_b                   9.118(2)
_cell_length_c                   9.605(2)
_cell_angle_alpha                67.01(2)
_cell_angle_beta                 68.02(2)
_cell_angle_gamma                78.30(2)
_cell_volume                     640.347
_exptl_crystal_colour            colorless
_exptl_crystal_description       cubic
_chemical_melting_point          '150-151 deg.C'
_cell_formula_units_Z            1
_exptl_crystal_recrystallization_method cyclohexane/acetone
loop_
_atom_site_label
_atom_site_type_symbol
_atom_site_fract_x
_atom_site_fract_y
_atom_site_fract_z
S1 S 0.0470(1) 0.3947(1) -0.0333(1)
O1 O 0.3734(3) -0.2109(3) 0.0900(3)
O2 O -0.0280(2) -0.1962(2) 0.5799(2)
O3 O 0.0492(2) 0.0304(2) 0.5777(2)
O4 O 0.0721(2) 0.2116(2) 0.0578(2)
O5 O -0.1031(4) 0.4446(3) 0.0688(3)
O6 O 0.1955(3) 0.4694(3) -0.0811(3)
O7 O 0.3659(4) 0.4329(5) 0.5294(5)
O8 O 0.6133(3) 0.5898(3) 0.4735(3)
O9 O 0.6403(6) 0.3802(4) 0.6818(5)
C1 C 0.2325(4) 0.1195(4) 0.0165(3)
C2 C 0.2194(5) 0.0023(4) -0.0571(4)
C3 C 0.2136(4) -0.1647(4) 0.0627(4)
C4 C 0.0735(4) -0.1819(4) 0.2254(3)
C5 C 0.1192(4) -0.0730(3) 0.2957(3)
C6 C 0.1375(4) -0.1606(3) 0.4619(3)
C7 C 0.1996(4) -0.0605(4) 0.5217(3)
C8 C 0.3389(4) 0.0469(4) 0.4032(3)
C9 C 0.3139(3) 0.1358(3) 0.2389(3)
C10 C 0.2746(3) 0.0241(3) 0.1720(3)
C11 C 0.4663(4) 0.2367(4) 0.1282(3)
C12 C 0.4791(4) 0.3591(4) 0.1931(3)
C13 C 0.4977(4) 0.2783(4) 0.3603(4)
C14 C 0.3595(4) 0.1634(4) 0.4709(4)
C15 C 0.6441(5) 0.4839(5) 0.3858(4)
C16 C 0.4911(4) 0.4004(5) 0.4338(4)
C17 C -0.1001(4) -0.1278(4) 0.2061(4)
C18 C 0.0685(5) -0.3599(4) 0.3287(4)
C19 C 0.4225(4) -0.0927(4) 0.1259(4)
C20 C 0.6106(5) 0.5200(5) 0.6243(5)
C21 C 0.5686(5) 0.6336(5) 0.7093(5)
C22 C -0.0841(4) -0.0733(3) 0.6513(3)
C23 C -0.2379(4) 0.0215(4) 0.6134(5)
C24 C -0.1160(4) -0.1510(4) 0.8292(4)
C25 C 0.0084(5) 0.4027(5) -0.2019(4)
H1 H 0.3213 0.1920 -0.0592
H2 H 0.1184 0.0302 -0.0872
H3 H 0.3158 0.0084 -0.1527
H4 H 0.1952 -0.2372 0.0181
H5 H 0.0237 0.0059 0.3092
H6 H 0.2097 -0.2591 0.4640
H7 H 0.2353 -0.1311 0.6132
H8 H 0.4438 -0.0207 0.3863
H9 H 0.2152 0.2109 0.2553
H10 H 0.5686 0.1672 0.1177
H11 H 0.4555 0.2908 0.0226
H12 H 0.3790 0.4316 0.1991
H13 H 0.5756 0.4211 0.1207
H14 H 0.6069 0.2173 0.3499
H15 H 0.3836 0.1033 0.5698
H16 H 0.2535 0.2253 0.4969
H17 H 0.7356 0.4059 0.4063
H18 H 0.6774 0.5446 0.2720
H19 H -0.1212 -0.1864 0.1516
H20 H -0.1037 -0.0158 0.1450
H21 H -0.1845 -0.1473 0.3098
H22 H 0.1758 -0.3990 0.3434
H23 H 0.0436 -0.4184 0.2762
H24 H -0.0171 -0.3736 0.4309
H25 H 0.5109 -0.0340 0.0333
H26 H 0.4677 -0.1450 0.2135
H27 H 0.6642 0.6938 0.6747
H28 H 0.5388 0.5762 0.8224
H29 H 0.4753 0.7049 0.6863
H30 H -0.2133 0.0656 0.4994
H31 H -0.2692 0.1065 0.6560
H32 H -0.3291 -0.0471 0.6604
H33 H -0.1554 -0.0708 0.8784
H34 H -0.0134 -0.2041 0.8480
H35 H -0.1996 -0.2274 0.8743
H36 H 0.1053 0.3576 -0.2667
H37 H -0.0142 0.5118 -0.2627
H38 H -0.0872 0.3430 -0.1691
loop_
_geom_bond_atom_site_label_1
_geom_bond_atom_site_label_2
_geom_bond_site_symmetry_1
_geom_bond_site_symmetry_2
S1 O4 1_555 1_555
O1 C3 1_555 1_555
O2 C6 1_555 1_555
O3 C7 1_555 1_555
O4 C1 1_555 1_555
O5 S1 1_555 1_555
O6 S1 1_555 1_555
O7 C16 1_555 1_555
O8 C15 1_555 1_555
O9 C20 1_555 1_555
C1 C2 1_555 1_555
C2 C3 1_555 1_555
C3 C4 1_555 1_555
C4 C5 1_555 1_555
C5 C6 1_555 1_555
C6 C7 1_555 1_555
C7 C8 1_555 1_555
C8 C9 1_555 1_555
C9 C10 1_555 1_555
C10 C1 1_555 1_555
C11 C9 1_555 1_555
C12 C11 1_555 1_555
C13 C12 1_555 1_555
C14 C8 1_555 1_555
C15 C16 1_555 1_555
C16 C13 1_555 1_555
C17 C4 1_555 1_555
C18 C4 1_555 1_555
C19 O1 1_555 1_555
C20 O8 1_555 1_555
C21 C20 1_555 1_555
C22 O2 1_555 1_555
C23 C22 1_555 1_555
C24 C22 1_555 1_555
C25 S1 1_555 1_555
H1 C1 1_555 1_555
H2 C2 1_555 1_555
H3 C2 1_555 1_555
H4 C3 1_555 1_555
H5 C5 1_555 1_555
H6 C6 1_555 1_555
H7 C7 1_555 1_555
H8 C8 1_555 1_555
H9 C9 1_555 1_555
H10 C11 1_555 1_555
H11 C11 1_555 1_555
H12 C12 1_555 1_555
H13 C12 1_555 1_555
H14 C13 1_555 1_555
H15 C14 1_555 1_555
H16 C14 1_555 1_555
H17 C15 1_555 1_555
H18 C15 1_555 1_555
H19 C17 1_555 1_555
H20 C17 1_555 1_555
H21 C17 1_555 1_555
H22 C18 1_555 1_555
H23 C18 1_555 1_555
H24 C18 1_555 1_555
H25 C19 1_555 1_555
H26 C19 1_555 1_555
H27 C21 1_555 1_555
H28 C21 1_555 1_555
H29 C21 1_555 1_555
H30 C23 1_555 1_555
H31 C23 1_555 1_555
H32 C23 1_555 1_555
H33 C24 1_555 1_555
H34 C24 1_555 1_555
H35 C24 1_555 1_555
H36 C25 1_555 1_555
H37 C25 1_555 1_555
H38 C25 1_555 1_555
O3 C22 1_555 1_555
C5 C10 1_555 1_555
C10 C19 1_555 1_555
C13 C14 1_555 1_555

#END
