
#######################################################################
#
#                 Cambridge Crystallographic Data Centre
#                                CCDC 
#
#######################################################################
#
# If this CIF has been generated from an entry in the Cambridge 
# Structural Database, then it will include bibliographic, chemical, 
# crystal, experimental, refinement or atomic coordinate data resulting 
# from the CCDC's data processing and validation procedures.
#
#######################################################################

data_GAQJUG
_chemical_formula_moiety         'C29 H25 N3 O2 S1,0.5(C1 H1 Cl3)'
_chemical_name_systematic        
'2-(1,3,5-triphenyl-1,2,3,6-tetrahydropyrimidin-4-yl)-2,3-dihydro-1H-1\l^6^,2-benzothiazole-1,1-dione chloroform solvate'
_symmetry_cell_setting           triclinic
_symmetry_space_group_name_H-M   'P -1'
_symmetry_Int_Tables_number      2
_space_group_name_Hall           '-P 1'
loop_
_symmetry_equiv_pos_site_id
_symmetry_equiv_pos_as_xyz
1 x,y,z
2 -x,-y,-z
_cell_length_a                   11.6270(3)
_cell_length_b                   12.8264(3)
_cell_length_c                   17.7390(4)
_cell_angle_alpha                91.757(2)
_cell_angle_beta                 99.346(2)
_cell_angle_gamma                96.677(2)
_cell_volume                     2589.33
_exptl_crystal_colour            'light yellow'
_exptl_crystal_description       polyhedron
_cell_formula_units_Z            4
loop_
_atom_site_label
_atom_site_type_symbol
_atom_site_fract_x
_atom_site_fract_y
_atom_site_fract_z
S1 S 0.57426(4) 0.00225(3) 0.81622(3)
C1 C 0.36761(16) 0.07427(13) 0.82339(10)
N1 N 0.38735(13) 0.08287(12) 0.90335(9)
C2 C 0.28010(17) 0.05305(16) 0.93459(11)
H1 H 0.253795 -0.022853 0.923394
H2 H 0.295548 0.066405 0.990802
N2 N 0.18896(14) 0.11426(13) 0.90030(9)
C3 C 0.15553(18) 0.08654(17) 0.81898(11)
H3 H 0.121298 0.145822 0.793081
H4 H 0.094355 0.024931 0.811540
C4 C 0.25836(17) 0.06107(14) 0.78252(11)
N3 N 0.47188(14) 0.08041(12) 0.79118(9)
C5 C 0.48486(18) 0.13777(15) 0.72179(12)
H5 H 0.476910 0.213047 0.730320
H6 H 0.424309 0.108058 0.678261
O1 O 0.63157(12) 0.02237(12) 0.89357(8)
C6 C 0.46127(16) 0.17380(14) 0.94079(10)
O2 O 0.52874(13) -0.10513(10) 0.79440(9)
C7 C 0.46610(19) 0.27044(15) 0.90833(12)
H7 H 0.421151 0.278017 0.859507
C8 C 0.5372(2) 0.35692(17) 0.94746(13)
H8 H 0.539407 0.423739 0.925714
C9 C 0.6041(2) 0.34551(18) 1.01750(13)
H9 H 0.653480 0.404189 1.043627
C10 C 0.59947(18) 0.24734(17) 1.05035(12)
H10 H 0.645321 0.239433 1.098808
C11 C 0.52808(17) 0.16243(16) 1.01200(11)
H11 H 0.524436 0.095911 1.034208
C12 C 0.09870(17) 0.13693(15) 0.94059(12)
C13 C 0.1053(2) 0.1214(2) 1.01868(14)
H12 H 0.170102 0.091912 1.045902
C14 C 0.0161(3) 0.1494(2) 1.05663(15)
H13 H 0.022062 0.139126 1.109857
C15 C -0.0793(2) 0.1912(2) 1.01975(15)
H14 H -0.138604 0.210316 1.046684
C16 C -0.0871(2) 0.2048(2) 0.94237(16)
H15 H -0.153136 0.232655 0.915392
C17 C 0.0008(2) 0.1780(2) 0.90329(15)
H16 H -0.006362 0.188146 0.849975
C18 C 0.22878(16) 0.02310(15) 0.70114(11)
C19 C 0.15600(17) 0.07501(15) 0.64919(11)
H17 H 0.126442 0.136066 0.666057
C20 C 0.12559(18) 0.03960(16) 0.57321(11)
H18 H 0.075978 0.076406 0.538402
C21 C 0.16784(18) -0.04985(16) 0.54810(12)
H19 H 0.146835 -0.074617 0.496087
C22 C 0.23984(18) -0.10236(15) 0.59840(12)
H20 H 0.269110 -0.163240 0.580964
C23 C 0.27051(17) -0.06723(15) 0.67491(12)
H21 H 0.319872 -0.104618 0.709444
C24 C 0.66214(17) 0.05606(15) 0.75245(11)
C25 C 0.60489(18) 0.12484(15) 0.70602(11)
C26 C 0.6616(2) 0.17337(17) 0.65088(12)
H22 H 0.624452 0.221353 0.618280
C27 C 0.7732(2) 0.15068(18) 0.64420(13)
H23 H 0.812046 0.182901 0.606155
C28 C 0.8292(2) 0.0821(2) 0.69175(14)
H24 H 0.906016 0.068322 0.686225
C29 C 0.77464(19) 0.03334(18) 0.74736(13)
H25 H 0.812464 -0.013607 0.780583
S2 S 0.56040(4) 0.48504(4) 0.71075(3)
C30 C 0.37851(16) 0.58560(13) 0.66059(10)
N4 N 0.40334(13) 0.58420(11) 0.58561(9)
C31 C 0.29883(16) 0.54843(14) 0.52977(10)
H26 H 0.269397 0.475053 0.538727
H27 H 0.318281 0.550407 0.477486
N5 N 0.20866(13) 0.61656(12) 0.53690(9)
C32 C 0.17220(16) 0.61143(14) 0.61192(11)
H28 H 0.103514 0.557135 0.608893
H29 H 0.147236 0.679813 0.625449
C33 C 0.26783(16) 0.58609(13) 0.67441(10)
N6 N 0.47934(13) 0.58182(11) 0.71662(9)
C34 C 0.50110(17) 0.64116(15) 0.79074(11)
H30 H 0.432861 0.627615 0.817491
H31 H 0.515714 0.717539 0.783665
O3 O 0.48919(14) 0.38547(11) 0.70866(11)
C35 C 0.47860(16) 0.67149(14) 0.56421(11)
O4 O 0.63029(13) 0.49779(13) 0.65151(8)
C36 C 0.50012(17) 0.76693(14) 0.60598(11)
H32 H 0.467463 0.775069 0.651227
C37 C 0.56951(19) 0.85065(15) 0.58159(13)
H33 H 0.583956 0.915958 0.610301
C38 C 0.61775(19) 0.83969(16) 0.51584(13)
H34 H 0.664258 0.897409 0.499005
C39 C 0.59762(18) 0.74377(16) 0.47473(12)
H35 H 0.631219 0.735661 0.429850
C40 C 0.52889(17) 0.65970(15) 0.49861(11)
H36 H 0.515968 0.594063 0.470374
C41 C 0.12135(16) 0.62725(14) 0.47418(11)
C42 C 0.13291(19) 0.59966(17) 0.39904(12)
H37 H 0.199753 0.568391 0.389711
C43 C 0.0475(2) 0.61761(18) 0.33799(13)
H38 H 0.057364 0.599020 0.287390
C44 C -0.05077(19) 0.66162(16) 0.34930(13)
H39 H -0.108078 0.674516 0.307120
C45 C -0.06464(19) 0.68671(16) 0.42303(13)
H40 H -0.132796 0.716412 0.431652
C46 C 0.01907(18) 0.66939(15) 0.48486(12)
H41 H 0.006895 0.686362 0.535243
C47 C 0.22697(16) 0.55851(15) 0.74733(11)
C48 C 0.14504(18) 0.61507(17) 0.77473(12)
H42 H 0.123628 0.676581 0.750403
C49 C 0.0948(2) 0.58206(19) 0.83720(12)
H43 H 0.039431 0.621213 0.855369
C50 C 0.12485(19) 0.4925(2) 0.87309(12)
H44 H 0.088063 0.468659 0.914550
C51 C 0.20888(18) 0.43751(18) 0.84837(11)
H45 H 0.231952 0.377512 0.874111
C52 C 0.25932(17) 0.47038(16) 0.78583(11)
H46 H 0.316633 0.432283 0.769068
C53 C 0.64598(17) 0.51922(15) 0.80026(11)
C54 C 0.60727(17) 0.60311(15) 0.83535(11)
C55 C 0.66875(18) 0.64468(16) 0.90566(11)
H47 H 0.643519 0.702013 0.931054
C56 C 0.76718(19) 0.60105(19) 0.93786(12)
H48 H 0.810711 0.629806 0.985411
C57 C 0.8039(2) 0.5158(2) 0.90205(13)
H49 H 0.871011 0.486363 0.925929
C58 C 0.7438(2) 0.47349(18) 0.83214(12)
H50 H 0.768399 0.415600 0.807017
C59 C 0.8235(7) 0.7583(7) 0.6693(5)
H51 H 0.743914 0.770256 0.642556
Cl1 Cl 0.9249(3) 0.84256(15) 0.63715(17)
Cl2 Cl 0.8195(4) 0.7505(3) 0.7641(2)
Cl3 Cl 0.8535(3) 0.6432(2) 0.63788(16)
Cl4? Cl 0.8855(5) 0.6387(4) 0.6712(6)
Cl5? Cl 0.8240(17) 0.6937(14) 0.6629(17)
Cl6? Cl 0.7815(5) 0.7661(3) 0.7566(2)
Cl7? Cl 0.7454(17) 0.841(3) 0.7432(14)
Cl8? Cl 0.9772(2) 0.84952(12) 0.6823(2)
Cl9? Cl 0.9837(13) 0.8435(13) 0.7421(11)
C60? C 0.8525(11) 0.7661(8) 0.6798(8)
C61? C 0.8488(17) 0.824(2) 0.6869(16)
H52? H 0.795835 0.779285 0.633376
H53? H 0.842221 0.867884 0.641391
loop_
_geom_bond_atom_site_label_1
_geom_bond_atom_site_label_2
_geom_bond_site_symmetry_1
_geom_bond_site_symmetry_2
S1 N3 1_555 1_555
C1 N1 1_555 1_555
N1 C2 1_555 1_555
C2 H1 1_555 1_555
H2 C2 1_555 1_555
N2 C2 1_555 1_555
C3 N2 1_555 1_555
H3 C3 1_555 1_555
H4 C3 1_555 1_555
C4 C1 1_555 1_555
N3 C1 1_555 1_555
C5 N3 1_555 1_555
H5 C5 1_555 1_555
H6 C5 1_555 1_555
O1 S1 1_555 1_555
C6 N1 1_555 1_555
O2 S1 1_555 1_555
C7 C6 1_555 1_555
H7 C7 1_555 1_555
C8 C7 1_555 1_555
H8 C8 1_555 1_555
C9 C8 1_555 1_555
H9 C9 1_555 1_555
C10 C9 1_555 1_555
H10 C10 1_555 1_555
C11 C6 1_555 1_555
H11 C11 1_555 1_555
C12 N2 1_555 1_555
C13 C12 1_555 1_555
H12 C13 1_555 1_555
C14 C13 1_555 1_555
H13 C14 1_555 1_555
C15 C14 1_555 1_555
H14 C15 1_555 1_555
C16 C15 1_555 1_555
H15 C16 1_555 1_555
C17 C12 1_555 1_555
H16 C17 1_555 1_555
C18 C4 1_555 1_555
C19 C18 1_555 1_555
H17 C19 1_555 1_555
C20 C19 1_555 1_555
H18 C20 1_555 1_555
C21 C20 1_555 1_555
H19 C21 1_555 1_555
C22 C21 1_555 1_555
H20 C22 1_555 1_555
C23 C18 1_555 1_555
H21 C23 1_555 1_555
C24 S1 1_555 1_555
C25 C5 1_555 1_555
C26 C25 1_555 1_555
H22 C26 1_555 1_555
C27 C26 1_555 1_555
H23 C27 1_555 1_555
C28 C27 1_555 1_555
H24 C28 1_555 1_555
C29 C24 1_555 1_555
H25 C29 1_555 1_555
S2 N6 1_555 1_555
C30 N4 1_555 1_555
N4 C31 1_555 1_555
C31 H26 1_555 1_555
H27 C31 1_555 1_555
N5 C31 1_555 1_555
C32 N5 1_555 1_555
H28 C32 1_555 1_555
H29 C32 1_555 1_555
C33 C30 1_555 1_555
N6 C30 1_555 1_555
C34 N6 1_555 1_555
H30 C34 1_555 1_555
H31 C34 1_555 1_555
O3 S2 1_555 1_555
C35 N4 1_555 1_555
O4 S2 1_555 1_555
C36 C35 1_555 1_555
H32 C36 1_555 1_555
C37 C36 1_555 1_555
H33 C37 1_555 1_555
C38 C37 1_555 1_555
H34 C38 1_555 1_555
C39 C38 1_555 1_555
H35 C39 1_555 1_555
C40 C35 1_555 1_555
H36 C40 1_555 1_555
C41 N5 1_555 1_555
C42 C41 1_555 1_555
H37 C42 1_555 1_555
C43 C42 1_555 1_555
H38 C43 1_555 1_555
C44 C43 1_555 1_555
H39 C44 1_555 1_555
C45 C44 1_555 1_555
H40 C45 1_555 1_555
C46 C41 1_555 1_555
H41 C46 1_555 1_555
C47 C33 1_555 1_555
C48 C47 1_555 1_555
H42 C48 1_555 1_555
C49 C48 1_555 1_555
H43 C49 1_555 1_555
C50 C49 1_555 1_555
H44 C50 1_555 1_555
C51 C50 1_555 1_555
H45 C51 1_555 1_555
C52 C47 1_555 1_555
H46 C52 1_555 1_555
C53 S2 1_555 1_555
C54 C34 1_555 1_555
C55 C54 1_555 1_555
H47 C55 1_555 1_555
C56 C55 1_555 1_555
H48 C56 1_555 1_555
C57 C56 1_555 1_555
H49 C57 1_555 1_555
C58 C53 1_555 1_555
H50 C58 1_555 1_555
C59 H51 1_555 1_555
Cl1 C59 1_555 1_555
Cl2 C59 1_555 1_555
Cl3 C59 1_555 1_555
C3 C4 1_555 1_555
C10 C11 1_555 1_555
C16 C17 1_555 1_555
C22 C23 1_555 1_555
C24 C25 1_555 1_555
C28 C29 1_555 1_555
C32 C33 1_555 1_555
C39 C40 1_555 1_555
C45 C46 1_555 1_555
C51 C52 1_555 1_555
C53 C54 1_555 1_555
C57 C58 1_555 1_555

#END
