
#######################################################################
#
#                 Cambridge Crystallographic Data Centre
#                                CCDC 
#
#######################################################################
#
# If this CIF has been generated from an entry in the Cambridge 
# Structural Database, then it will include bibliographic, chemical, 
# crystal, experimental, refinement or atomic coordinate data resulting 
# from the CCDC's data processing and validation procedures.
#
#######################################################################

data_GAQVIF
_chemical_formula_moiety         'C3 H4 N2 O2 S1'
_chemical_name_systematic        5-Methoxy-1,3,4-thiadiazol-2(3H)-one
_symmetry_cell_setting           hexagonal
_symmetry_space_group_name_H-M   'P 61'
_symmetry_Int_Tables_number      169
_space_group_name_Hall           'P 61'
loop_
_symmetry_equiv_pos_site_id
_symmetry_equiv_pos_as_xyz
1 x,y,z
2 -y,x-y,1/3+z
3 -x+y,-x,2/3+z
4 -x,-y,1/2+z
5 y,-x+y,5/6+z
6 x-y,x,1/6+z
_cell_length_a                   11.9240(17)
_cell_length_b                   11.9240(17)
_cell_length_c                   20.111(4)
_cell_angle_alpha                90
_cell_angle_beta                 90
_cell_angle_gamma                120
_cell_volume                     2476.33
_exptl_crystal_colour            colorless
_exptl_crystal_description       block
_cell_formula_units_Z            18
loop_
_atom_site_label
_atom_site_type_symbol
_atom_site_fract_x
_atom_site_fract_y
_atom_site_fract_z
S1 S 0.82079(12) 0.67453(12) 0.52166(9)
N1 N 0.8459(4) 0.4789(4) 0.5285(3)
H1 H 0.8783 0.4288 0.5317
C1 C 0.9238(5) 0.6063(5) 0.5255(3)
O1 O 1.0407(3) 0.6672(4) 0.5228(3)
N2 N 0.7133(4) 0.4265(4) 0.5265(3)
O2 O 0.5724(3) 0.5049(3) 0.5201(2)
C2 C 0.6895(5) 0.5184(5) 0.5232(3)
C3 C 0.4662(5) 0.3737(6) 0.5148(4)
H2 H 0.3860 0.3742 0.5130
H3 H 0.4659 0.3248 0.5528
H4 H 0.4759 0.3348 0.4751
S2 S -0.10862(12) 0.04825(12) 0.51466(7)
O3 O -0.1023(4) 0.2749(4) 0.5220(3)
O4 O 0.0620(3) -0.0301(3) 0.5161(2)
N3 N 0.0884(4) 0.2708(4) 0.5190(3)
H5 H 0.1382 0.3535 0.5191
N4 N 0.1407(4) 0.1911(4) 0.5184(3)
C4 C -0.0410(5) 0.2188(5) 0.5194(3)
C5 C 0.0477(4) 0.0735(5) 0.5165(3)
C6 C 0.1950(5) -0.0021(6) 0.5226(4)
H6 H 0.1968 -0.0817 0.5216
H7 H 0.2302 0.0416 0.5640
H8 H 0.2456 0.0521 0.4864
S3 S 0.52008(12) 0.74536(12) 0.53340(7)
O5 O 0.2932(4) 0.5245(3) 0.5299(3)
O6 O 0.5965(3) 0.9929(3) 0.5329(2)
N5 N 0.2976(4) 0.7178(4) 0.5261(3)
H9 H 0.2149 0.6839 0.5233
N6 N 0.3771(4) 0.8501(4) 0.5268(3)
C7 C 0.3507(5) 0.6438(5) 0.5296(3)
C8 C 0.4939(4) 0.8748(5) 0.5309(3)
C9 C 0.5707(6) 1.0982(5) 0.5339(5)
H10 H 0.6511 1.1787 0.5356
H11 H 0.5198 1.0907 0.5725
H12 H 0.5240 1.0955 0.4945
loop_
_geom_bond_atom_site_label_1
_geom_bond_atom_site_label_2
_geom_bond_site_symmetry_1
_geom_bond_site_symmetry_2
S1 C1 1_555 1_555
N1 H1 1_555 1_555
C1 N1 1_555 1_555
O1 C1 1_555 1_555
N2 N1 1_555 1_555
O2 C2 1_555 1_555
C2 S1 1_555 1_555
C3 O2 1_555 1_555
H2 C3 1_555 1_555
H3 C3 1_555 1_555
H4 C3 1_555 1_555
S2 C4 1_555 1_555
O3 C4 1_555 1_555
O4 C5 1_555 1_555
N3 H5 1_555 1_555
N4 N3 1_555 1_555
C4 N3 1_555 1_555
C5 S2 1_555 1_555
C6 O4 1_555 1_555
H6 C6 1_555 1_555
H7 C6 1_555 1_555
H8 C6 1_555 1_555
S3 C7 1_555 1_555
O5 C7 1_555 1_555
O6 C8 1_555 1_555
N5 H9 1_555 1_555
N6 N5 1_555 1_555
C7 N5 1_555 1_555
C8 S3 1_555 1_555
C9 O6 1_555 1_555
H10 C9 1_555 1_555
H11 C9 1_555 1_555
H12 C9 1_555 1_555
N2 C2 1_555 1_555
N4 C5 1_555 1_555
N6 C8 1_555 1_555

#END
