
#######################################################################
#
#                 Cambridge Crystallographic Data Centre
#                                CCDC 
#
#######################################################################
#
# If this CIF has been generated from an entry in the Cambridge 
# Structural Database, then it will include bibliographic, chemical, 
# crystal, experimental, refinement or atomic coordinate data resulting 
# from the CCDC's data processing and validation procedures.
#
#######################################################################

data_GAQYUU
_chemical_formula_moiety         'C19 H18 Br1 N1 O5'
_chemical_name_systematic        
'Ethyl (2R,3S)-2-benzoyl-3-(4-bromophenyl)-4-nitrobutanoate'
_symmetry_cell_setting           monoclinic
_symmetry_space_group_name_H-M   'P 21'
_symmetry_Int_Tables_number      4
_space_group_name_Hall           'P 2yb'
loop_
_symmetry_equiv_pos_site_id
_symmetry_equiv_pos_as_xyz
1 x,y,z
2 -x,1/2+y,-z
_cell_length_a                   5.7558(3)
_cell_length_b                   21.6262(9)
_cell_length_c                   15.1337(7)
_cell_angle_alpha                90
_cell_angle_beta                 93.7200(10)
_cell_angle_gamma                90
_cell_volume                     1879.81
_exptl_crystal_colour            colorless
_exptl_crystal_description       needle
_cell_formula_units_Z            4
loop_
_atom_site_label
_atom_site_type_symbol
_atom_site_fract_x
_atom_site_fract_y
_atom_site_fract_z
Br1 Br 1.29441(11) 0.56418(3) 0.17401(5)
O1 O 0.4552(6) 0.81610(17) 0.4794(3)
O2 O 0.6040(7) 0.7964(2) 0.2713(3)
O3 O 0.9340(7) 0.85124(18) 0.2842(2)
O4 O 0.6867(9) 0.6324(2) 0.5360(3)
O5 O 1.0065(11) 0.6395(2) 0.6147(4)
N1 N 0.8595(10) 0.6601(2) 0.5607(3)
C1 C 0.7975(8) 0.7339(2) 0.4326(3)
H1 H 0.6321 0.7227 0.4288
C2 C 0.8168(8) 0.8036(2) 0.4127(3)
H2 H 0.9740 0.8179 0.4312
C3 C 0.6384(9) 0.8405(2) 0.4625(3)
C4 C 0.6864(9) 0.9065(2) 0.4869(3)
C5 C 0.5307(10) 0.9361(3) 0.5379(4)
H3 H 0.4035 0.9145 0.5570
C6 C 0.5620(12) 0.9975(3) 0.5609(5)
H4 H 0.4538 1.0178 0.5936
C7 C 0.7557(11) 1.0283(3) 0.5348(4)
H5 H 0.7801 1.0693 0.5514
C8 C 0.9117(11) 0.9994(3) 0.4848(4)
H6 H 1.0387 1.0214 0.4662
C9 C 0.8838(9) 0.9384(2) 0.4617(4)
H7 H 0.9943 0.9185 0.4297
C10 C 0.7691(9) 0.8160(2) 0.3148(4)
C11 C 0.9041(14) 0.8701(4) 0.1943(5)
H8 H 0.8619 0.9135 0.1916
H9 H 0.7782 0.8466 0.1647
C12 C 1.1267(16) 0.8601(6) 0.1466(8)
H10 H 1.1016 0.8728 0.0859
H11 H 1.1682 0.8171 0.1490
H12 H 1.2504 0.8842 0.1749
C13 C 0.8929(10) 0.7242(2) 0.5278(3)
H13 H 1.0579 0.7338 0.5319
H14 H 0.8167 0.7529 0.5658
C14 C 0.9208(8) 0.6937(2) 0.3675(3)
C15 C 0.8224(8) 0.6384(2) 0.3383(3)
H15 H 0.6796 0.6267 0.3585
C16 C 0.9288(9) 0.5998(3) 0.2802(4)
H16 H 0.8589 0.5627 0.2623
C17 C 1.1408(8) 0.6170(3) 0.2490(4)
C18 C 1.2407(9) 0.6726(3) 0.2778(4)
H17 H 1.3830 0.6844 0.2574
C19 C 1.1330(8) 0.7107(2) 0.3363(3)
H18 H 1.2030 0.7476 0.3547
Br2 Br 0.63666(15) 0.41912(3) 1.11381(5)
O6 O 0.5085(6) 0.70722(17) 0.6957(2)
O7 O 0.1843(7) 0.6699(2) 0.9555(3)
O8 O 0.5254(7) 0.7107(2) 0.9220(2)
O9 O 0.8589(9) 0.5332(2) 0.7336(4)
O10 O 0.6010(12) 0.4713(3) 0.6777(5)
N2 N 0.6594(11) 0.5201(3) 0.7085(3)
C20 C 0.5169(8) 0.6042(2) 0.8032(3)
H19 H 0.6666 0.6255 0.8007
C21 C 0.3228(8) 0.6546(2) 0.8097(3)
H20 H 0.1709 0.6351 0.7962
C22 C 0.3503(8) 0.7079(2) 0.7448(3)
C23 C 0.1843(9) 0.7606(2) 0.7434(3)
C24 C 0.2286(10) 0.8121(3) 0.6921(4)
H21 H 0.3589 0.8128 0.6588
C25 C 0.0800(11) 0.8622(3) 0.6902(4)
H22 H 0.1122 0.8967 0.6563
C26 C -0.1159(10) 0.8617(3) 0.7381(4)
H23 H -0.2171 0.8953 0.7356
C27 C -0.1600(10) 0.8112(3) 0.7895(4)
H24 H -0.2899 0.8110 0.8230
C28 C -0.0138(9) 0.7608(3) 0.7918(4)
H25 H -0.0475 0.7266 0.8259
C29 C 0.3312(10) 0.6787(3) 0.9041(4)
C30 C 0.5567(14) 0.7394(4) 1.0100(5)
H26 H 0.4056 0.7479 1.0322
H27 H 0.6385 0.7784 1.0055
C31 C 0.6951(17) 0.6968(4) 1.0744(6)
H28 H 0.7124 0.7160 1.1316
H29 H 0.8460 0.6892 1.0531
H30 H 0.6138 0.6582 1.0789
C32 C 0.4719(8) 0.5678(3) 0.7169(3)
H31 H 0.3213 0.5477 0.7166
H32 H 0.4697 0.5959 0.6669
C33 C 0.5342(7) 0.5612(3) 0.8821(3)
C34 C 0.7338(8) 0.5612(3) 0.9380(4)
H33 H 0.8511 0.5896 0.9287
C35 C 0.7630(10) 0.5195(3) 1.0080(4)
H34 H 0.8984 0.5200 1.0450
C36 C 0.5928(10) 0.4783(3) 1.0216(4)
C37 C 0.3873(10) 0.4772(3) 0.9684(4)
H35 H 0.2699 0.4492 0.9792
C38 C 0.3612(9) 0.5190(3) 0.8987(4)
H36 H 0.2246 0.5186 0.8624
loop_
_geom_bond_atom_site_label_1
_geom_bond_atom_site_label_2
_geom_bond_site_symmetry_1
_geom_bond_site_symmetry_2
Br1 C17 1_555 1_555
O1 C3 1_555 1_555
O2 C10 1_555 1_555
O3 C10 1_555 1_555
O4 N1 1_555 1_555
O5 N1 1_555 1_555
N1 C13 1_555 1_555
C1 H1 1_555 1_555
C2 C1 1_555 1_555
H2 C2 1_555 1_555
C3 C2 1_555 1_555
C4 C3 1_555 1_555
C5 C4 1_555 1_555
H3 C5 1_555 1_555
C6 C5 1_555 1_555
H4 C6 1_555 1_555
C7 C6 1_555 1_555
H5 C7 1_555 1_555
C8 C7 1_555 1_555
H6 C8 1_555 1_555
C9 C4 1_555 1_555
H7 C9 1_555 1_555
C10 C2 1_555 1_555
C11 O3 1_555 1_555
H8 C11 1_555 1_555
H9 C11 1_555 1_555
C12 C11 1_555 1_555
H10 C12 1_555 1_555
H11 C12 1_555 1_555
H12 C12 1_555 1_555
C13 C1 1_555 1_555
H13 C13 1_555 1_555
H14 C13 1_555 1_555
C14 C1 1_555 1_555
C15 C14 1_555 1_555
H15 C15 1_555 1_555
C16 C15 1_555 1_555
H16 C16 1_555 1_555
C17 C16 1_555 1_555
C18 C17 1_555 1_555
H17 C18 1_555 1_555
C19 C14 1_555 1_555
H18 C19 1_555 1_555
Br2 C36 1_555 1_555
O6 C22 1_555 1_555
O7 C29 1_555 1_555
O8 C29 1_555 1_555
O9 N2 1_555 1_555
O10 N2 1_555 1_555
N2 C32 1_555 1_555
C20 H19 1_555 1_555
C21 C20 1_555 1_555
H20 C21 1_555 1_555
C22 C21 1_555 1_555
C23 C22 1_555 1_555
C24 C23 1_555 1_555
H21 C24 1_555 1_555
C25 C24 1_555 1_555
H22 C25 1_555 1_555
C26 C25 1_555 1_555
H23 C26 1_555 1_555
C27 C26 1_555 1_555
H24 C27 1_555 1_555
C28 C23 1_555 1_555
H25 C28 1_555 1_555
C29 C21 1_555 1_555
C30 O8 1_555 1_555
H26 C30 1_555 1_555
H27 C30 1_555 1_555
C31 C30 1_555 1_555
H28 C31 1_555 1_555
H29 C31 1_555 1_555
H30 C31 1_555 1_555
C32 C20 1_555 1_555
H31 C32 1_555 1_555
H32 C32 1_555 1_555
C33 C20 1_555 1_555
C34 C33 1_555 1_555
H33 C34 1_555 1_555
C35 C34 1_555 1_555
H34 C35 1_555 1_555
C36 C35 1_555 1_555
C37 C36 1_555 1_555
H35 C37 1_555 1_555
C38 C33 1_555 1_555
H36 C38 1_555 1_555
C8 C9 1_555 1_555
C18 C19 1_555 1_555
C27 C28 1_555 1_555
C37 C38 1_555 1_555

#END
