
#######################################################################
#
#                 Cambridge Crystallographic Data Centre
#                                CCDC 
#
#######################################################################
#
# If this CIF has been generated from an entry in the Cambridge 
# Structural Database, then it will include bibliographic, chemical, 
# crystal, experimental, refinement or atomic coordinate data resulting 
# from the CCDC's data processing and validation procedures.
#
#######################################################################

data_GASBIO01
_chemical_formula_moiety         'C6 H14 N2 2+,H2 O1,2(I1 1-)'
_chemical_name_systematic        
'1,4-Diazoniabicyclo[2.2.2]octane bis(iodide) monohydrate'
_symmetry_cell_setting           orthorhombic
_symmetry_space_group_name_H-M   'C m c 21'
_symmetry_Int_Tables_number      36
_space_group_name_Hall           'C 2n -2'
loop_
_symmetry_equiv_pos_site_id
_symmetry_equiv_pos_as_xyz
1 x,y,z
2 -x,-y,1/2+z
3 -x,y,z
4 x,-y,1/2+z
5 1/2+x,1/2+y,z
6 1/2-x,1/2-y,1/2+z
7 1/2-x,1/2+y,z
8 1/2+x,1/2-y,1/2+z
_cell_length_a                   7.7811(16)
_cell_length_b                   13.010(3)
_cell_length_c                   11.610(2)
_cell_angle_alpha                90
_cell_angle_beta                 90
_cell_angle_gamma                90
_cell_volume                     1175.3
_cell_formula_units_Z            4
loop_
_atom_site_label
_atom_site_type_symbol
_atom_site_fract_x
_atom_site_fract_y
_atom_site_fract_z
I2 I 0.0000 0.98775(6) 0.11611(4)
N1 N 0.0000 0.7538(7) 0.9745(8)
H1 H 0.0000 0.7974 1.0358
N2 N 0.0000 0.6347(6) 0.8032(11)
H2 H 0.0000 0.5917 0.7413
C1 C -0.1601(10) 0.6872(6) 0.9789(7)
H3 H -0.2622 0.7300 0.9773
H4 H -0.1615 0.6471 1.0493
C2 C -0.1576(12) 0.6152(7) 0.8732(8)
H5 H -0.1591 0.5442 0.8985
H6 H -0.2590 0.6271 0.8265
C3 C 0.0000 0.7469(11) 0.7600(12)
H7 H 0.1011 0.7597 0.7133
C4 C 0.0000 0.8163(8) 0.8632(11)
H8 H -0.1009 0.8601 0.8612
C1B C 0.1601(10) 0.6872(6) 0.9789(7)
H3B H 0.2622 0.7300 0.9773
H4B H 0.1615 0.6471 1.0493
C2B C 0.1576(12) 0.6152(7) 0.8732(8)
H5B H 0.1591 0.5442 0.8985
H6B H 0.2590 0.6271 0.8265
H7B H -0.1011 0.7597 0.7133
H8B H 0.1009 0.8601 0.8612
O1 O 0.922(2) 0.5657(10) 0.5840(12)
O1B O 1.078(2) 0.5657(10) 0.5840(12)
I1 I 0.5000 0.83765(5) 0.79962(12)
H9? H 0.1011 0.7597 0.7133
H10? H -0.1009 0.8601 0.8612
loop_
_geom_bond_atom_site_label_1
_geom_bond_atom_site_label_2
_geom_bond_site_symmetry_1
_geom_bond_site_symmetry_2
N1 H1 1_555 1_555
N2 H2 1_555 1_555
C1 N1 1_555 1_555
H3 C1 1_555 1_555
H4 C1 1_555 1_555
C2 N2 1_555 1_555
H5 C2 1_555 1_555
H6 C2 1_555 1_555
C3 N2 1_555 1_555
H7 C3 1_555 1_555
C4 N1 1_555 1_555
H8 C4 1_555 1_555
O1 O1B 1_555 1_555
C1B N1 1_555 1_555
H3B C1B 1_555 1_555
H4B C1B 1_555 1_555
C2B N2 1_555 1_555
H5B C2B 1_555 1_555
H6B C2B 1_555 1_555
H7B C3 1_555 1_555
H8B C4 1_555 1_555
C1 C2 1_555 1_555
C3 C4 1_555 1_555
C1B C2B 1_555 1_555

#END
