
#######################################################################
#
#                 Cambridge Crystallographic Data Centre
#                                CCDC 
#
#######################################################################
#
# If this CIF has been generated from an entry in the Cambridge 
# Structural Database, then it will include bibliographic, chemical, 
# crystal, experimental, refinement or atomic coordinate data resulting 
# from the CCDC's data processing and validation procedures.
#
#######################################################################

data_GASYIJ
_chemical_name_common            
C-tetra-iso-butyl-4,6,10,12,16,18,22,24-O-octapropargylcalix[4]resorcinarene
_chemical_formula_moiety         'C68 H72 O8'
_chemical_name_systematic        
2,8,14,20-tetra-iso-butyl-4,6,10,12,16,18,22,24-octapropargyloxycalix[4]arene
_symmetry_cell_setting           monoclinic
_symmetry_space_group_name_H-M   'P 21/n'
_symmetry_Int_Tables_number      14
_space_group_name_Hall           '-P 2yn'
loop_
_symmetry_equiv_pos_site_id
_symmetry_equiv_pos_as_xyz
1 x,y,z
2 1/2-x,1/2+y,1/2-z
3 -x,-y,-z
4 1/2+x,1/2-y,1/2+z
_cell_length_a                   13.3247(6)
_cell_length_b                   24.7929(11)
_cell_length_c                   19.1810(9)
_cell_angle_alpha                90
_cell_angle_beta                 109.2720(10)
_cell_angle_gamma                90
_cell_volume                     5981.51
_exptl_crystal_colour            colorless
_exptl_crystal_description       Block
_cell_formula_units_Z            4
_exptl_crystal_recrystallization_method dichloromethane/hexane
loop_
_atom_site_label
_atom_site_type_symbol
_atom_site_fract_x
_atom_site_fract_y
_atom_site_fract_z
O1 O 0.7607(2) 0.83717(12) 0.25672(17)
O2 O 0.7195(2) 0.65539(11) 0.15704(17)
O3 O 0.6294(2) 0.58984(13) 0.32864(17)
O4 O 0.2888(2) 0.57750(12) 0.36891(15)
O5 O 0.0011(2) 0.61403(11) 0.27709(18)
O6 O 0.0385(2) 0.79642(11) 0.37435(17)
O7 O 0.3315(2) 0.75972(11) 0.46658(14)
O8 O 0.6675(2) 0.77453(11) 0.42171(15)
C1 C 0.7072(3) 0.78822(15) 0.2377(2)
C2 C 0.7433(3) 0.74718(16) 0.2031(2)
H1 H 0.8033 0.7519 0.1891
C3 C 0.6879(3) 0.69920(16) 0.1899(2)
C4 C 0.5974(3) 0.69085(14) 0.2094(2)
C5 C 0.5645(3) 0.73366(14) 0.24366(19)
H2 H 0.5046 0.7290 0.2577
C6 C 0.6170(3) 0.78300(15) 0.2579(2)
C7 C 0.5213(3) 0.59874(15) 0.3090(2)
C8 C 0.4606(3) 0.58358(16) 0.3531(2)
H3 H 0.4932 0.5674 0.3987
C9 C 0.3528(3) 0.59263(15) 0.3287(2)
C10 C 0.3008(3) 0.61751(13) 0.26143(19)
C11 C 0.3642(3) 0.63301(13) 0.2202(2)
H4 H 0.3317 0.6507 0.1757
C12 C 0.4734(3) 0.62382(13) 0.2411(2)
C13 C 0.0533(3) 0.66286(15) 0.2947(2)
C14 C 0.0170(3) 0.70462(17) 0.3284(2)
H5 H -0.0440 0.7002 0.3412
C15 C 0.0719(3) 0.75264(15) 0.3427(2)
C16 C 0.1633(3) 0.76042(13) 0.32540(18)
C17 C 0.1978(3) 0.71760(13) 0.29193(18)
H6 H 0.2593 0.7221 0.2798
C18 C 0.1446(3) 0.66845(14) 0.27578(19)
C19 C 0.3951(3) 0.77575(15) 0.42591(19)
C20 C 0.5022(3) 0.76450(15) 0.4464(2)
H7 H 0.5355 0.7447 0.4889
C21 C 0.5593(3) 0.78299(15) 0.4032(2)
C22 C 0.5118(3) 0.81284(13) 0.33933(19)
C23 C 0.4032(3) 0.82255(13) 0.32095(19)
H8 H 0.3695 0.8419 0.2781
C24 C 0.3424(3) 0.80498(13) 0.36281(19)
C25 C 0.5389(3) 0.63717(15) 0.1917(2)
H9 H 0.594(3) 0.6093(15) 0.201(2)
C26 C 0.4763(3) 0.63419(15) 0.1088(2)
H10 H 0.4169 0.6591 0.0980
H11 H 0.5221 0.6463 0.0817
C27 C 0.4335(5) 0.57838(19) 0.0805(3)
H12 H 0.387(4) 0.5666(18) 0.108(2)
C28 C 0.3675(5) 0.5811(3) -0.0009(3)
H13 H 0.4116 0.5925 -0.0289
H14 H 0.3105 0.6064 -0.0078
H15 H 0.3387 0.5460 -0.0174
C29 C 0.5216(6) 0.5372(2) 0.0931(4)
H16 H 0.5699 0.5486 0.0683
H17 H 0.4916 0.5029 0.0738
H18 H 0.5592 0.5339 0.1451
C30 C 0.1807(3) 0.62296(15) 0.2357(2)
H19 H 0.153(3) 0.5893(15) 0.2493(19)
C31 C 0.1275(3) 0.62964(14) 0.1519(2)
H20 H 0.0525 0.6366 0.1419
H21 H 0.1576 0.6612 0.1363
C32 C 0.1381(4) 0.58192(16) 0.1044(2)
H22 H 0.214(3) 0.5746(15) 0.115(2)
C33 C 0.0862(4) 0.53102(17) 0.1212(3)
H23 H 0.0125 0.5380 0.1137
H24 H 0.1213 0.5205 0.1715
H25 H 0.0921 0.5025 0.0889
C34 C 0.0901(4) 0.5962(2) 0.0225(2)
H26 H 0.0162 0.6048 0.0112
H27 H 0.0974 0.5661 -0.0068
H28 H 0.1267 0.6268 0.0118
C35 C 0.2240(3) 0.81403(14) 0.3432(2)
H29 H 0.212(3) 0.8284(14) 0.3875(19)
C36 C 0.1760(3) 0.85496(14) 0.2812(2)
H30 H 0.0992 0.8519 0.2654
H31 H 0.1983 0.8455 0.2395
C37 C 0.2066(4) 0.91388(16) 0.3021(3)
H32 H 0.284(4) 0.9159(17) 0.324(2)
C38 C 0.1581(6) 0.9345(2) 0.3570(4)
H33 H 0.1924 0.9179 0.4041
H34 H 0.0837 0.9260 0.3406
H35 H 0.1672 0.9729 0.3616
C39 C 0.1737(5) 0.9492(2) 0.2343(3)
H36 H 0.0976 0.9495 0.2131
H37 H 0.2038 0.9354 0.1988
H38 H 0.1988 0.9853 0.2477
C40 C 0.5788(3) 0.83079(15) 0.2931(2)
H39 H 0.642(3) 0.8481(14) 0.327(2)
C41 C 0.5255(3) 0.87239(15) 0.2330(2)
H40 H 0.5670 0.8750 0.2000
H41 H 0.4558 0.8589 0.2043
C42 C 0.5122(4) 0.92906(16) 0.2599(3)
H42 H 0.471(3) 0.9264(17) 0.294(2)
C43 C 0.6170(5) 0.9548(2) 0.3005(3)
H43 H 0.6604 0.9556 0.2693
H44 H 0.6523 0.9344 0.3443
H45 H 0.6054 0.9910 0.3140
C44 C 0.4500(5) 0.9638(2) 0.1944(3)
H46 H 0.4409 0.9993 0.2114
H47 H 0.3816 0.9479 0.1705
H48 H 0.4883 0.9662 0.1600
C45 C 0.8287(5) 0.8545(2) 0.2173(4)
H49 H 0.888(4) 0.830(2) 0.220(3)
C46 C 0.8528(9) 0.9054(5) 0.2289(7)
C48 C 0.8724(12) 0.9521(6) 0.2390(8)
H50 H 0.8877 0.9886 0.2469
C50 C 0.7847(4) 0.66508(19) 0.1131(3)
H52 H 0.8546 0.6772 0.1435
H53 H 0.7532 0.6925 0.0763
C51 C 0.7922(4) 0.6146(2) 0.0779(3)
C52 C 0.7988(5) 0.5739(3) 0.0495(4)
H54 H 0.8040 0.5413 0.0269
C53 C 0.6772(4) 0.5525(2) 0.3864(3)
H55 H 0.7425 0.5390 0.3808
H56 H 0.6297 0.5221 0.3819
C54 C 0.7014(5) 0.5763(3) 0.4604(5)
C55 C 0.7217(8) 0.5950(3) 0.5206(5)
H57 H 0.7375 0.6096 0.5677
C56 C 0.3280(4) 0.53872(19) 0.4264(3)
H58 H 0.3672 0.5113 0.4101
H59 H 0.2681 0.5213 0.4352
C57 C 0.3960(5) 0.5612(2) 0.4947(3)
C58 C 0.4489(7) 0.5793(3) 0.5506(4)
H60 H 0.4913 0.5938 0.5953
C59 C -0.0860(4) 0.6024(2) 0.3015(3)
H61 H -0.1233 0.5710 0.2753
H62 H -0.1351 0.6326 0.2895
C60 C -0.0535(6) 0.5925(3) 0.3793(5)
C61 C -0.0285(9) 0.5837(4) 0.4430(5)
H63 H -0.0087 0.5767 0.4933
C62 C -0.0405(4) 0.7881(2) 0.4085(3)
H64 H -0.1015 0.7706 0.3734
H65 H -0.0637 0.8229 0.4206
C63 C -0.0038(4) 0.7553(2) 0.4757(3)
C64 C 0.0244(6) 0.7304(3) 0.5296(4)
H66 H 0.0471 0.7104 0.5731
C65 C 0.3575(3) 0.71066(17) 0.5061(2)
H67 H 0.3880 0.6859 0.4794
H68 H 0.2933 0.6944 0.5099
C66 C 0.4333(3) 0.71932(17) 0.5803(2)
C67 C 0.4944(4) 0.7295(2) 0.6388(3)
H69 H 0.5427 0.7375 0.6851
C68 C 0.7100(4) 0.72629(19) 0.4601(3)
H70 H 0.7712 0.7154 0.4468
H71 H 0.6571 0.6980 0.4445
C69 C 0.7423(4) 0.7319(2) 0.5408(3)
C70 C 0.7696(5) 0.7341(2) 0.6048(3)
H72 H 0.7914 0.7359 0.6561
C47? C 0.7671(10) 0.8722(4) 0.1459(8)
C49? C 0.7177(12) 0.8853(6) 0.0875(9)
H51? H 0.6775 0.8959 0.0400
loop_
_geom_bond_atom_site_label_1
_geom_bond_atom_site_label_2
_geom_bond_site_symmetry_1
_geom_bond_site_symmetry_2
O1 C1 1_555 1_555
O2 C3 1_555 1_555
O3 C7 1_555 1_555
O4 C9 1_555 1_555
O5 C13 1_555 1_555
O6 C15 1_555 1_555
O7 C19 1_555 1_555
O8 C21 1_555 1_555
C1 C2 1_555 1_555
C2 H1 1_555 1_555
C3 C2 1_555 1_555
C4 C3 1_555 1_555
C5 C4 1_555 1_555
H2 C5 1_555 1_555
C6 C1 1_555 1_555
C7 C8 1_555 1_555
C8 H3 1_555 1_555
C9 C8 1_555 1_555
C10 C9 1_555 1_555
C11 C10 1_555 1_555
H4 C11 1_555 1_555
C12 C7 1_555 1_555
C13 C14 1_555 1_555
C14 H5 1_555 1_555
C15 C14 1_555 1_555
C16 C15 1_555 1_555
C17 C16 1_555 1_555
H6 C17 1_555 1_555
C18 C13 1_555 1_555
C19 C20 1_555 1_555
C20 H7 1_555 1_555
C21 C20 1_555 1_555
C22 C21 1_555 1_555
C23 C22 1_555 1_555
H8 C23 1_555 1_555
C24 C19 1_555 1_555
C25 C4 1_555 1_555
H9 C25 1_555 1_555
C26 C25 1_555 1_555
H10 C26 1_555 1_555
H11 C26 1_555 1_555
C27 C26 1_555 1_555
H12 C27 1_555 1_555
C28 C27 1_555 1_555
H13 C28 1_555 1_555
H14 C28 1_555 1_555
H15 C28 1_555 1_555
C29 C27 1_555 1_555
H16 C29 1_555 1_555
H17 C29 1_555 1_555
H18 C29 1_555 1_555
C30 C10 1_555 1_555
H19 C30 1_555 1_555
C31 C30 1_555 1_555
H20 C31 1_555 1_555
H21 C31 1_555 1_555
C32 C31 1_555 1_555
H22 C32 1_555 1_555
C33 C32 1_555 1_555
H23 C33 1_555 1_555
H24 C33 1_555 1_555
H25 C33 1_555 1_555
C34 C32 1_555 1_555
H26 C34 1_555 1_555
H27 C34 1_555 1_555
H28 C34 1_555 1_555
C35 C16 1_555 1_555
H29 C35 1_555 1_555
C36 C35 1_555 1_555
H30 C36 1_555 1_555
H31 C36 1_555 1_555
C37 C36 1_555 1_555
H32 C37 1_555 1_555
C38 C37 1_555 1_555
H33 C38 1_555 1_555
H34 C38 1_555 1_555
H35 C38 1_555 1_555
C39 C37 1_555 1_555
H36 C39 1_555 1_555
H37 C39 1_555 1_555
H38 C39 1_555 1_555
C40 C6 1_555 1_555
H39 C40 1_555 1_555
C41 C40 1_555 1_555
H40 C41 1_555 1_555
H41 C41 1_555 1_555
C42 C41 1_555 1_555
H42 C42 1_555 1_555
C43 C42 1_555 1_555
H43 C43 1_555 1_555
H44 C43 1_555 1_555
H45 C43 1_555 1_555
C44 C42 1_555 1_555
H46 C44 1_555 1_555
H47 C44 1_555 1_555
H48 C44 1_555 1_555
C45 O1 1_555 1_555
H49 C45 1_555 1_555
C46 C45 1_555 1_555
C48 C46 1_555 1_555
H50 C48 1_555 1_555
C50 O2 1_555 1_555
H52 C50 1_555 1_555
H53 C50 1_555 1_555
C51 C50 1_555 1_555
C52 C51 1_555 1_555
H54 C52 1_555 1_555
C53 O3 1_555 1_555
H55 C53 1_555 1_555
H56 C53 1_555 1_555
C54 C53 1_555 1_555
C55 C54 1_555 1_555
H57 C55 1_555 1_555
C56 O4 1_555 1_555
H58 C56 1_555 1_555
H59 C56 1_555 1_555
C57 C56 1_555 1_555
C58 C57 1_555 1_555
H60 C58 1_555 1_555
C59 O5 1_555 1_555
H61 C59 1_555 1_555
H62 C59 1_555 1_555
C60 C59 1_555 1_555
C61 C60 1_555 1_555
H63 C61 1_555 1_555
C62 O6 1_555 1_555
H64 C62 1_555 1_555
H65 C62 1_555 1_555
C63 C62 1_555 1_555
C64 C63 1_555 1_555
H66 C64 1_555 1_555
C65 O7 1_555 1_555
H67 C65 1_555 1_555
H68 C65 1_555 1_555
C66 C65 1_555 1_555
C67 C66 1_555 1_555
H69 C67 1_555 1_555
C68 O8 1_555 1_555
H70 C68 1_555 1_555
H71 C68 1_555 1_555
C69 C68 1_555 1_555
C70 C69 1_555 1_555
H72 C70 1_555 1_555
C5 C6 1_555 1_555
C11 C12 1_555 1_555
C12 C25 1_555 1_555
C17 C18 1_555 1_555
C18 C30 1_555 1_555
C22 C40 1_555 1_555
C23 C24 1_555 1_555
C24 C35 1_555 1_555

#END
