
#######################################################################
#
#                 Cambridge Crystallographic Data Centre
#                                CCDC 
#
#######################################################################
#
# If this CIF has been generated from an entry in the Cambridge 
# Structural Database, then it will include bibliographic, chemical, 
# crystal, experimental, refinement or atomic coordinate data resulting 
# from the CCDC's data processing and validation procedures.
#
#######################################################################

data_GASZIM
_chemical_formula_moiety         'C54 H45 B1 F2 N2 Si2'
_chemical_name_systematic        
5,5-difluoro-10-mesityl-2,8-bis(triphenylsilyl)-5H-6\l^5^,5\l^5^-dipyrrolo[1,2-c:2',1'-f][1,3,2]diazaborinine
_symmetry_cell_setting           triclinic
_symmetry_space_group_name_H-M   'P -1'
_symmetry_Int_Tables_number      2
_space_group_name_Hall           '-P 1'
loop_
_symmetry_equiv_pos_site_id
_symmetry_equiv_pos_as_xyz
1 x,y,z
2 -x,-y,-z
_cell_length_a                   10.8873(16)
_cell_length_b                   14.989(2)
_cell_length_c                   15.229(2)
_cell_angle_alpha                70.886(3)
_cell_angle_beta                 79.761(3)
_cell_angle_gamma                84.250(3)
_cell_volume                     2308.45
_exptl_crystal_colour            yellow
_exptl_crystal_description       block
_cell_formula_units_Z            2
loop_
_atom_site_label
_atom_site_type_symbol
_atom_site_fract_x
_atom_site_fract_y
_atom_site_fract_z
Si1 Si 0.32095(6) 0.80622(4) 0.48833(4)
Si2 Si 0.93054(5) 0.31898(4) 0.89191(4)
C1 C 0.70225(18) 0.53853(13) 0.76009(13)
C2 C 0.56170(18) 0.65141(13) 0.66819(13)
C3 C 0.82189(19) 0.40646(14) 0.82174(14)
C4 C 0.42845(19) 0.72269(14) 0.56311(14)
C5 C 0.77206(19) 0.49227(14) 0.83262(14)
H1 H 0.7833 0.5152 0.8803
C6 C 0.48429(19) 0.63768(14) 0.54981(14)
H2 H 0.4682 0.6140 0.5039
C7 C 0.62617(19) 0.68313(14) 0.80461(14)
C8 C 0.63064(17) 0.62388(13) 0.74209(13)
C9 C 0.47846(19) 0.72993(14) 0.63808(13)
H3 H 0.4601 0.7786 0.6643
C10 C 0.2565(2) 0.89995(15) 0.54250(15)
C11 C 0.8927(2) 0.30602(14) 1.02025(14)
C12 C 0.7794(2) 0.40372(14) 0.74056(15)
H4 H 0.7981 0.3542 0.7155
C13 C 0.1890(2) 0.74131(14) 0.47819(15)
C14 C 1.0926(2) 0.36157(14) 0.84778(14)
C15 C 0.9226(2) 0.20106(15) 0.87564(15)
C16 C 0.5302(2) 0.67149(15) 0.88086(14)
C17 C 0.4143(2) 0.86224(16) 0.36966(15)
C18 C 1.1767(2) 0.35949(17) 0.90741(17)
H5 H 1.1524 0.3356 0.9721
C19 C 0.7178(2) 0.74825(16) 0.78690(17)
C20 C 0.1269(2) 0.77561(17) 0.40019(17)
H6 H 0.1563 0.8280 0.3507
C21 C 1.1352(3) 0.39656(17) 0.75161(16)
H7 H 1.0818 0.3992 0.7094
C22 C 0.9082(2) 0.37909(17) 1.05444(16)
H8 H 0.9337 0.4370 1.0119
C23 C 0.0228(2) 0.7333(2) 0.3951(2)
H9 H -0.0165 0.7571 0.3422
C24 C 0.5279(3) 0.72768(19) 0.93848(16)
H10 H 0.4634 0.7216 0.9888
C25 C 0.8518(3) 0.22161(17) 1.08674(17)
H11 H 0.8385 0.1714 1.0668
C26 C 0.1292(2) 0.91659(18) 0.56537(17)
H12 H 0.0737 0.8787 0.5557
C27 C 0.3350(3) 0.95797(17) 0.55983(19)
H13 H 0.4210 0.9477 0.5469
C28 C 0.1419(2) 0.66276(17) 0.54996(17)
H14 H 0.1818 0.6375 0.6025
C29 C 0.4927(3) 0.8069(2) 0.32376(18)
H15 H 0.4932 0.7416 0.3507
C30 C 0.4155(3) 0.95862(18) 0.32490(18)
H16 H 0.3637 0.9986 0.3523
C31 C 0.8871(3) 0.3684(2) 1.14904(18)
H17 H 0.8986 0.4184 1.1697
C32 C 1.0298(3) 0.14264(17) 0.87213(19)
H18 H 1.1056 0.1636 0.8760
C33 C 0.6170(4) 0.79121(19) 0.92368(19)
C34 C 0.7110(3) 0.80026(19) 0.8486(2)
H19 H 0.7725 0.8428 0.8386
C35 C 1.2951(2) 0.3920(2) 0.8726(2)
H20 H 1.3493 0.3908 0.9138
C36 C -0.0229(3) 0.6571(2) 0.4668(2)
H21 H -0.0938 0.6293 0.4633
C37 C 0.1642(4) 1.0449(2) 0.6161(2)
H22 H 0.1331 1.0939 0.6399
C38 C 0.8121(3) 0.16723(19) 0.8693(2)
H23 H 0.7386 0.2043 0.8714
C39 C 0.2890(4) 1.0300(2) 0.5955(2)
H24 H 0.3436 1.0684 0.6055
C40 C 0.4335(3) 0.5999(2) 0.90177(19)
H25 H 0.3869 0.6156 0.8504
H26 H 0.3779 0.5999 0.9583
H27 H 0.4738 0.5384 0.9101
C41 C 0.0832(3) 0.9881(2) 0.6022(2)
H28 H -0.0026 0.9978 0.6175
C42 C 0.6116(5) 0.8498(2) 0.9889(2)
H29 H 0.5688 0.9095 0.9636
H30 H 0.6950 0.8602 0.9947
H31 H 0.5676 0.8168 1.0498
C43 C 1.3334(3) 0.4258(2) 0.7782(2)
H32 H 1.4134 0.4479 0.7551
C44 C 0.5694(4) 0.9395(3) 0.1986(2)
H33 H 0.6215 0.9653 0.1421
C45 C 0.5695(4) 0.8450(3) 0.2403(2)
H34 H 0.6217 0.8055 0.2123
C46 C 0.8304(3) 0.2110(2) 1.18188(19)
H35 H 0.8033 0.1539 1.2251
C47 C 1.2550(3) 0.4274(2) 0.7176(2)
H36 H 1.2819 0.4494 0.6531
C48 C 0.0370(3) 0.6214(2) 0.5448(2)
H37 H 0.0063 0.5692 0.5940
C49 C 0.4923(3) 0.9972(2) 0.2399(2)
H38 H 0.4913 1.0623 0.2110
C50 C 0.9162(5) 0.0229(2) 0.8573(3)
H39 H 0.9134 -0.0368 0.8518
C51 C 1.0264(4) 0.0541(2) 0.8630(3)
H40 H 1.0992 0.0162 0.8607
C52 C 0.8490(3) 0.2838(2) 1.21269(19)
H41 H 0.8358 0.2760 1.2768
C53 C 0.8209(3) 0.7627(3) 0.7034(2)
H42 H 0.7868 0.7943 0.6466
H43 H 0.8582 0.7025 0.7013
H44 H 0.8833 0.8005 0.7094
C54 C 0.8100(4) 0.0783(2) 0.8598(2)
H45 H 0.7351 0.0567 0.8550
N1 N 0.56280(15) 0.59545(11) 0.61081(11)
N2 N 0.70869(15) 0.48108(11) 0.70365(11)
B1 B 0.6473(2) 0.50521(16) 0.61370(16)
F1 F 0.57691(13) 0.43208(9) 0.61836(9)
F2 F 0.73605(13) 0.52247(10) 0.53455(9)
loop_
_geom_bond_atom_site_label_1
_geom_bond_atom_site_label_2
_geom_bond_site_symmetry_1
_geom_bond_site_symmetry_2
Si1 C4 1_555 1_555
Si2 C3 1_555 1_555
C1 C5 1_555 1_555
C2 C8 1_555 1_555
C3 C5 1_555 1_555
C4 C6 1_555 1_555
C5 H1 1_555 1_555
C6 H2 1_555 1_555
C7 C8 1_555 1_555
C8 C1 1_555 1_555
C9 C2 1_555 1_555
H3 C9 1_555 1_555
C10 Si1 1_555 1_555
C11 Si2 1_555 1_555
C12 C3 1_555 1_555
H4 C12 1_555 1_555
C13 Si1 1_555 1_555
C14 Si2 1_555 1_555
C15 Si2 1_555 1_555
C16 C7 1_555 1_555
C17 Si1 1_555 1_555
C18 C14 1_555 1_555
H5 C18 1_555 1_555
C19 C7 1_555 1_555
C20 C13 1_555 1_555
H6 C20 1_555 1_555
C21 C14 1_555 1_555
H7 C21 1_555 1_555
C22 C11 1_555 1_555
H8 C22 1_555 1_555
C23 C20 1_555 1_555
H9 C23 1_555 1_555
C24 C16 1_555 1_555
H10 C24 1_555 1_555
C25 C11 1_555 1_555
H11 C25 1_555 1_555
C26 C10 1_555 1_555
H12 C26 1_555 1_555
C27 C10 1_555 1_555
H13 C27 1_555 1_555
C28 C13 1_555 1_555
H14 C28 1_555 1_555
C29 C17 1_555 1_555
H15 C29 1_555 1_555
C30 C17 1_555 1_555
H16 C30 1_555 1_555
C31 C22 1_555 1_555
H17 C31 1_555 1_555
C32 C15 1_555 1_555
H18 C32 1_555 1_555
C33 C24 1_555 1_555
C34 C19 1_555 1_555
H19 C34 1_555 1_555
C35 C18 1_555 1_555
H20 C35 1_555 1_555
C36 C23 1_555 1_555
H21 C36 1_555 1_555
C37 H22 1_555 1_555
C38 C15 1_555 1_555
H23 C38 1_555 1_555
C39 C27 1_555 1_555
H24 C39 1_555 1_555
C40 C16 1_555 1_555
H25 C40 1_555 1_555
H26 C40 1_555 1_555
H27 C40 1_555 1_555
C41 C26 1_555 1_555
H28 C41 1_555 1_555
C42 C33 1_555 1_555
H29 C42 1_555 1_555
H30 C42 1_555 1_555
H31 C42 1_555 1_555
C43 C35 1_555 1_555
H32 C43 1_555 1_555
C44 H33 1_555 1_555
C45 C29 1_555 1_555
H34 C45 1_555 1_555
C46 C25 1_555 1_555
H35 C46 1_555 1_555
C47 C21 1_555 1_555
H36 C47 1_555 1_555
C48 C28 1_555 1_555
H37 C48 1_555 1_555
C49 C30 1_555 1_555
H38 C49 1_555 1_555
C50 H39 1_555 1_555
C51 C32 1_555 1_555
H40 C51 1_555 1_555
C52 C31 1_555 1_555
H41 C52 1_555 1_555
C53 C19 1_555 1_555
H42 C53 1_555 1_555
H43 C53 1_555 1_555
H44 C53 1_555 1_555
C54 C38 1_555 1_555
H45 C54 1_555 1_555
N1 C2 1_555 1_555
N2 C1 1_555 1_555
B1 N1 1_555 1_555
F1 B1 1_555 1_555
F2 B1 1_555 1_555
C4 C9 1_555 1_555
C6 N1 1_555 1_555
C12 N2 1_555 1_555
C33 C34 1_555 1_555
C36 C48 1_555 1_555
C37 C39 1_555 1_555
C37 C41 1_555 1_555
C43 C47 1_555 1_555
C44 C45 1_555 1_555
C44 C49 1_555 1_555
C46 C52 1_555 1_555
C50 C51 1_555 1_555
C50 C54 1_555 1_555
N2 B1 1_555 1_555

#END
