
#######################################################################
#
#                 Cambridge Crystallographic Data Centre
#                                CCDC 
#
#######################################################################
#
# If this CIF has been generated from an entry in the Cambridge 
# Structural Database, then it will include bibliographic, chemical, 
# crystal, experimental, refinement or atomic coordinate data resulting 
# from the CCDC's data processing and validation procedures.
#
#######################################################################

data_GATCAG
_chemical_name_common            
'semicarbazide trinitrophloroglucinol dihydrate'
_chemical_formula_moiety         'C6 H2 N3 O9 1-,C1 H6 N3 O1 1+,2(H2 O1)'
_chemical_name_systematic        
'semicarbazide 3,5-dihydroxy-2,4,6-trinitrophenolate dihydrate'
_symmetry_cell_setting           triclinic
_symmetry_space_group_name_H-M   'P -1'
_symmetry_Int_Tables_number      2
_space_group_name_Hall           '-P 1'
loop_
_symmetry_equiv_pos_site_id
_symmetry_equiv_pos_as_xyz
1 x,y,z
2 -x,-y,-z
_cell_length_a                   6.8853(14)
_cell_length_b                   9.3966(19)
_cell_length_c                   11.925(2)
_cell_angle_alpha                67.48(3)
_cell_angle_beta                 77.56(3)
_cell_angle_gamma                78.93(3)
_cell_volume                     690.817
_exptl_crystal_colour            yellow
_exptl_crystal_description       Block
_cell_formula_units_Z            2
loop_
_atom_site_label
_atom_site_type_symbol
_atom_site_fract_x
_atom_site_fract_y
_atom_site_fract_z
O1 O 0.3198(3) 0.55598(17) 0.42711(13)
O2 O 0.1055(3) 0.26202(18) 0.84011(13)
O3 O 0.2005(3) 0.04311(18) 0.52374(14)
O4 O 0.1633(3) 0.67067(16) 0.60560(14)
O5 O 0.2915(3) 0.51185(17) 0.76400(13)
O6 O 0.0358(3) -0.00794(17) 0.88509(13)
O7 O 0.0902(3) -0.10775(17) 0.74398(14)
O8 O 0.4174(3) 0.20988(19) 0.31820(15)
O9 O 0.2524(3) 0.4380(2) 0.26819(14)
N1 N 0.2209(3) 0.53904(19) 0.67039(15)
N2 N 0.0902(3) 0.00625(19) 0.77445(15)
N3 N 0.3127(3) 0.3158(2) 0.34608(16)
C1 C 0.2622(3) 0.4336(2) 0.50497(17)
C2 C 0.2085(3) 0.4105(2) 0.63406(18)
C3 C 0.1533(3) 0.2733(2) 0.72337(17)
C4 C 0.1487(3) 0.1451(2) 0.68646(18)
C5 C 0.2053(3) 0.1598(2) 0.56004(18)
C6 C 0.2599(3) 0.2990(2) 0.47450(17)
H1 H 0.074(5) 0.159(4) 0.882(3)
H2 H 0.159(5) -0.038(4) 0.597(3)
O10 O 0.4816(3) 0.99894(17) 0.13900(13)
N4 N 0.3361(3) 0.8828(2) 0.33549(17)
N5 N 0.3612(3) 0.7695(2) 0.19340(16)
N6 N 0.4655(4) 0.7587(2) 0.08004(17)
C7 C 0.4000(3) 0.8907(2) 0.21962(18)
H3 H 0.353(4) 0.960(3) 0.353(2)
H4 H 0.290(4) 0.797(3) 0.394(2)
H5 H 0.347(4) 0.685(3) 0.254(2)
H6 H 0.387(5) 0.715(3) 0.052(3)
H7 H 0.597(5) 0.709(3) 0.085(3)
H8 H 0.471(4) 0.856(3) 0.023(3)
O11 O 0.1830(4) 0.3336(2) 0.05965(19)
H9 H 0.210(6) 0.276(5) 0.133(4)
H10 H 0.062(8) 0.306(6) 0.074(4)
O12 O 0.2672(4) 0.6351(2) 0.9691(2)
H11 H 0.226(6) 0.501(6) 1.021(4)
H12 H 0.310(8) 0.674(6) 0.900(4)
loop_
_geom_bond_atom_site_label_1
_geom_bond_atom_site_label_2
_geom_bond_site_symmetry_1
_geom_bond_site_symmetry_2
O1 C1 1_555 1_555
O2 C3 1_555 1_555
O3 C5 1_555 1_555
O4 N1 1_555 1_555
O5 N1 1_555 1_555
O6 N2 1_555 1_555
O7 N2 1_555 1_555
O8 N3 1_555 1_555
O9 N3 1_555 1_555
O10 C7 1_555 1_555
O11 H9 1_555 1_555
O12 H11 1_555 1_555
N1 C2 1_555 1_555
N2 C4 1_555 1_555
N3 C6 1_555 1_555
N4 C7 1_555 1_555
N5 N6 1_555 1_555
N6 H6 1_555 1_555
C1 C2 1_555 1_555
C2 C3 1_555 1_555
C3 C4 1_555 1_555
C4 C5 1_555 1_555
C5 C6 1_555 1_555
C6 C1 1_555 1_555
C7 N5 1_555 1_555
H1 O2 1_555 1_555
H2 O3 1_555 1_555
H3 N4 1_555 1_555
H4 N4 1_555 1_555
H5 N5 1_555 1_555
H7 N6 1_555 1_555
H8 N6 1_555 1_555
H10 O11 1_555 1_555
H12 O12 1_555 1_555

#END
