
#######################################################################
#
#                 Cambridge Crystallographic Data Centre
#                                CCDC 
#
#######################################################################
#
# If this CIF has been generated from an entry in the Cambridge 
# Structural Database, then it will include bibliographic, chemical, 
# crystal, experimental, refinement or atomic coordinate data resulting 
# from the CCDC's data processing and validation procedures.
#
#######################################################################

data_GATCEL
_chemical_formula_moiety         'C34 H24 F2 N2 O2 S1,C1 H1 Cl3'
_chemical_name_systematic        
'7,11-bis(4-fluorophenyl)-9-((4-methylphenyl)sulfonyl)-9,10-dihydro-8H-pyrrolo[3,4-b]phenanthridine chloroform solvate'
_symmetry_cell_setting           triclinic
_symmetry_space_group_name_H-M   'P -1'
_symmetry_Int_Tables_number      2
_space_group_name_Hall           '-P 1'
loop_
_symmetry_equiv_pos_site_id
_symmetry_equiv_pos_as_xyz
1 x,y,z
2 -x,-y,-z
_cell_length_a                   11.301(5)
_cell_length_b                   11.524(5)
_cell_length_c                   12.526(5)
_cell_angle_alpha                94.960(5)
_cell_angle_beta                 99.185(4)
_cell_angle_gamma                101.219(4)
_cell_volume                     1567.93
_cell_formula_units_Z            2
loop_
_atom_site_label
_atom_site_type_symbol
_atom_site_fract_x
_atom_site_fract_y
_atom_site_fract_z
C1 C 0.6490(7) 0.9735(7) 1.3058(6)
H1 H 0.5763 0.9720 1.2538
H2 H 0.6847 1.0541 1.3372
H3 H 0.6282 0.9261 1.3622
F1 F 0.4947(4) 0.1127(3) 1.0529(3)
N1 N 0.9174(3) 0.6908(3) 0.9569(3)
O1 O 1.0445(3) 0.6747(3) 1.1309(2)
S1 S 1.00098(8) 0.76170(8) 1.06945(7)
C2 C 0.7405(5) 0.9231(5) 1.2491(4)
F2 F 0.8967(4) 1.1387(3) 0.5850(3)
N2 N 0.4398(4) 0.4346(4) 0.6768(3)
O2 O 1.0868(3) 0.8565(3) 1.0397(2)
C3 C 0.7936(6) 0.9800(4) 1.1679(4)
H4 H 0.7740 1.0513 1.1495
C4 C 0.8734(5) 0.9323(4) 1.1158(4)
H5 H 0.9078 0.9716 1.0627
C5 C 0.9041(3) 0.8251(3) 1.1414(3)
C6 C 0.8579(4) 0.7698(4) 1.2247(3)
H6 H 0.8806 0.7004 1.2451
C7 C 0.7773(4) 0.8201(4) 1.2772(4)
H7 H 0.7468 0.7832 1.3333
C8 C 0.8786(4) 0.7611(4) 0.8698(3)
H8 H 0.9375 0.7727 0.8211
H9 H 0.8685 0.8382 0.8999
C9 C 0.7578(3) 0.6847(3) 0.8120(3)
C10 C 0.7295(3) 0.5806(3) 0.8603(3)
C11 C 0.8269(3) 0.5798(3) 0.9583(3)
H10 H 0.7936 0.5811 1.0250
H11 H 0.8631 0.5104 0.9507
C12 C 0.6218(3) 0.4990(3) 0.8217(3)
C13 C 0.5862(3) 0.3910(3) 0.8763(3)
C14 C 0.6613(4) 0.3107(3) 0.8926(3)
H12 H 0.7334 0.3207 0.8645
C15 C 0.6304(4) 0.2142(4) 0.9511(4)
H13 H 0.6807 0.1597 0.9619
C16 C 0.5248(5) 0.2030(4) 0.9912(4)
C17 C 0.4481(4) 0.2795(4) 0.9781(4)
H14 H 0.3773 0.2693 1.0084
C18 C 0.4776(4) 0.3740(3) 0.9180(3)
H15 H 0.4247 0.4259 0.9058
C19 C 0.5433(3) 0.5236(3) 0.7295(3)
C20 C 0.5695(3) 0.6324(3) 0.6827(3)
C21 C 0.6814(3) 0.7137(3) 0.7262(3)
C22 C 0.7306(3) 0.8272(3) 0.6835(3)
C23 C 0.7273(5) 0.9373(4) 0.7367(3)
H16 H 0.6881 0.9401 0.7965
C24 C 0.7806(5) 1.0421(4) 0.7029(4)
H17 H 0.7760 1.1154 0.7374
C25 C 0.8406(5) 1.0349(4) 0.6168(4)
C26 C 0.8483(5) 0.9289(4) 0.5615(4)
H18 H 0.8899 0.9272 0.5032
C27 C 0.7914(4) 0.8243(4) 0.5964(3)
H19 H 0.7943 0.7512 0.5604
C28 C 0.4776(3) 0.6488(3) 0.5911(3)
C29 C 0.4776(4) 0.7543(4) 0.5436(4)
H20 H 0.5395 0.8208 0.5710
C30 C 0.3898(5) 0.7624(5) 0.4586(4)
H21 H 0.3925 0.8345 0.4299
C31 C 0.2957(5) 0.6651(5) 0.4135(4)
H22 H 0.2387 0.6703 0.3526
C32 C 0.2887(4) 0.5613(4) 0.4605(3)
H23 H 0.2243 0.4968 0.4334
C33 C 0.3782(4) 0.5515(4) 0.5497(3)
C34 C 0.3621(4) 0.4437(3) 0.5912(3)
H24 H 0.2984 0.3803 0.5593
Cl1 Cl 0.7477(4) 0.3459(4) 0.2106(3)
Cl2 Cl 0.9767(4) 0.4882(4) 0.2893(6)
Cl3 Cl 0.9186(4) 0.2714(2) 0.3688(2)
C35 C 0.8631(5) 0.3915(6) 0.3204(6)
H25 H 0.8308 0.4306 0.3785
loop_
_geom_bond_atom_site_label_1
_geom_bond_atom_site_label_2
_geom_bond_site_symmetry_1
_geom_bond_site_symmetry_2
C1 H1 1_555 1_555
H2 C1 1_555 1_555
H3 C1 1_555 1_555
Cl1 C35 1_555 1_555
F1 C16 1_555 1_555
N1 S1 1_555 1_555
O1 S1 1_555 1_555
S1 O2 1_555 1_555
C2 C1 1_555 1_555
Cl2 C35 1_555 1_555
F2 C25 1_555 1_555
N2 C19 1_555 1_555
C3 C2 1_555 1_555
H4 C3 1_555 1_555
Cl3 C35 1_555 1_555
C4 C3 1_555 1_555
H5 C4 1_555 1_555
C5 S1 1_555 1_555
C6 C5 1_555 1_555
H6 C6 1_555 1_555
C7 C2 1_555 1_555
H7 C7 1_555 1_555
C8 N1 1_555 1_555
H8 C8 1_555 1_555
H9 C8 1_555 1_555
C9 C8 1_555 1_555
C10 C9 1_555 1_555
C11 N1 1_555 1_555
H10 C11 1_555 1_555
H11 C11 1_555 1_555
C12 C10 1_555 1_555
C13 C12 1_555 1_555
C14 C13 1_555 1_555
H12 C14 1_555 1_555
C15 C14 1_555 1_555
H13 C15 1_555 1_555
C16 C15 1_555 1_555
C17 C16 1_555 1_555
H14 C17 1_555 1_555
C18 C13 1_555 1_555
H15 C18 1_555 1_555
C19 C12 1_555 1_555
C20 C19 1_555 1_555
C21 C9 1_555 1_555
C22 C21 1_555 1_555
C23 C22 1_555 1_555
H16 C23 1_555 1_555
C24 C23 1_555 1_555
H17 C24 1_555 1_555
C25 C24 1_555 1_555
C26 C25 1_555 1_555
H18 C26 1_555 1_555
C27 C22 1_555 1_555
H19 C27 1_555 1_555
C28 C20 1_555 1_555
C29 C28 1_555 1_555
H20 C29 1_555 1_555
C30 C29 1_555 1_555
H21 C30 1_555 1_555
C31 C30 1_555 1_555
H22 C31 1_555 1_555
C32 C31 1_555 1_555
H23 C32 1_555 1_555
C33 C28 1_555 1_555
C34 N2 1_555 1_555
H24 C34 1_555 1_555
C35 H25 1_555 1_555
C4 C5 1_555 1_555
C6 C7 1_555 1_555
C10 C11 1_555 1_555
C17 C18 1_555 1_555
C20 C21 1_555 1_555
C26 C27 1_555 1_555
C32 C33 1_555 1_555
C33 C34 1_555 1_555

#END
