
#######################################################################
#
#                 Cambridge Crystallographic Data Centre
#                                CCDC 
#
#######################################################################
#
# If this CIF has been generated from an entry in the Cambridge 
# Structural Database, then it will include bibliographic, chemical, 
# crystal, experimental, refinement or atomic coordinate data resulting 
# from the CCDC's data processing and validation procedures.
#
#######################################################################

data_GATLOF
_chemical_formula_moiety         'C11 H9 Cl1 N4 O2'
_chemical_name_systematic        
N-(4-chloro-6-methoxy-1,3,5-triazin-2-yl)benzamide
_symmetry_cell_setting           triclinic
_symmetry_space_group_name_H-M   'P 1'
_symmetry_Int_Tables_number      1
_space_group_name_Hall           'P 1'
loop_
_symmetry_equiv_pos_site_id
_symmetry_equiv_pos_as_xyz
1 x,y,z
_cell_length_a                   8.0739(6)
_cell_length_b                   8.4676(4)
_cell_length_c                   8.6682(4)
_cell_angle_alpha                98.0228(13)
_cell_angle_beta                 96.071(3)
_cell_angle_gamma                97.190(3)
_cell_volume                     577.602
_exptl_crystal_colour            colorless
_exptl_crystal_description       prism
_cell_formula_units_Z            2
loop_
_atom_site_label
_atom_site_type_symbol
_atom_site_fract_x
_atom_site_fract_y
_atom_site_fract_z
Cl1 Cl -0.25794(9) 0.04248(10) 0.40530(9)
O1 O 0.2585(3) -0.1945(3) 0.4999(3)
O2 O 0.2644(3) -0.0382(3) 1.0235(3)
N1 N 0.0177(3) -0.0813(3) 0.4512(3)
N2 N 0.1791(3) -0.0476(3) 0.7044(3)
N3 N -0.0648(3) 0.0817(3) 0.6686(3)
N4 N 0.0886(3) 0.1167(3) 0.9112(3)
C1 C -0.0800(4) 0.0116(4) 0.5216(4)
C2 C 0.1471(4) -0.1051(4) 0.5504(4)
C3 C 0.0702(4) 0.0448(4) 0.7554(4)
C4 C 0.2410(4) -0.2555(5) 0.3328(4)
C5 C 0.1867(4) 0.0757(4) 1.0354(4)
C6 C 0.1875(4) 0.1793(4) 1.1896(4)
C7 C 0.3296(4) 0.1896(4) 1.2992(4)
C8 C 0.3398(5) 0.2832(5) 1.4445(4)
C9 C 0.2066(6) 0.3633(5) 1.4840(5)
C10 C 0.0652(5) 0.3506(4) 1.3767(4)
C11 C 0.0548(4) 0.2602(4) 1.2295(4)
H1 H 0.33117 -0.3197 0.31094
H2 H 0.13169 -0.323 0.30109
H3 H 0.24856 -0.16482 0.27363
H4 H 0.03149 0.19726 0.93314
H5 H 0.41935 0.1321 1.27376
H6 H 0.43821 0.29282 1.51766
H7 H 0.21305 0.42646 1.58458
H8 H -0.02626 0.40464 1.40423
H9 H -0.04265 0.2534 1.15588
Cl2 Cl -0.33223(9) 0.64184(10) 0.52215(10)
O3 O -0.2790(3) 0.2670(3) 0.8985(3)
O4 O 0.2742(3) 0.4313(3) 0.9938(4)
N5 N -0.3048(3) 0.4389(3) 0.7173(3)
N6 N -0.0490(3) 0.4338(3) 0.8814(3)
N7 N -0.0632(3) 0.6271(3) 0.7064(3)
N8 N 0.1830(3) 0.6250(3) 0.8628(3)
C12 C -0.2205(4) 0.5600(4) 0.6655(4)
C13 C -0.2112(4) 0.3834(4) 0.8281(4)
C14 C 0.0172(4) 0.5563(4) 0.8168(4)
C15 C -0.4505(4) 0.1948(4) 0.8396(5)
C16 C 0.3041(4) 0.5599(4) 0.9490(4)
C17 C 0.4763(4) 0.6525(4) 0.9804(4)
C18 C 0.5856(4) 0.6049(4) 1.0955(4)
C19 C 0.7498(4) 0.6797(4) 1.1293(4)
C20 C 0.8072(4) 0.8004(4) 1.0476(4)
C21 C 0.6997(4) 0.8471(4) 0.9329(5)
C22 C 0.5334(4) 0.7743(4) 0.8985(4)
H10 H -0.4862 0.11075 0.90107
H11 H -0.52496 0.27772 0.84888
H12 H -0.45635 0.14719 0.7291
H13 H 0.2144 0.71888 0.83439
H14 H 0.54666 0.521 1.1506
H15 H 0.82357 0.64831 1.20865
H16 H 0.92062 0.85127 1.07033
H17 H 0.74005 0.92982 0.87698
H18 H 0.4597 0.80724 0.82016
loop_
_geom_bond_atom_site_label_1
_geom_bond_atom_site_label_2
_geom_bond_site_symmetry_1
_geom_bond_site_symmetry_2
Cl1 C1 1_555 1_555
O1 C2 1_555 1_555
O2 C5 1_555 1_555
N1 C1 1_555 1_555
N2 C2 1_555 1_555
N3 C1 1_555 1_555
N4 C3 1_555 1_555
C2 N1 1_555 1_555
C3 N2 1_555 1_555
C4 O1 1_555 1_555
C5 N4 1_555 1_555
C6 C5 1_555 1_555
C7 C6 1_555 1_555
C8 C7 1_555 1_555
C9 C8 1_555 1_555
C10 C9 1_555 1_555
C11 C6 1_555 1_555
H1 C4 1_555 1_555
H2 C4 1_555 1_555
H3 C4 1_555 1_555
H4 N4 1_555 1_555
H5 C7 1_555 1_555
H6 C8 1_555 1_555
H7 C9 1_555 1_555
H8 C10 1_555 1_555
H9 C11 1_555 1_555
Cl2 C12 1_555 1_555
O3 C13 1_555 1_555
O4 C16 1_555 1_555
N5 C12 1_555 1_555
N6 C13 1_555 1_555
N7 C12 1_555 1_555
N8 C14 1_555 1_555
C13 N5 1_555 1_555
C14 N6 1_555 1_555
C15 O3 1_555 1_555
C16 N8 1_555 1_555
C17 C16 1_555 1_555
C18 C17 1_555 1_555
C19 C18 1_555 1_555
C20 C19 1_555 1_555
C21 C20 1_555 1_555
C22 C17 1_555 1_555
H10 C15 1_555 1_555
H11 C15 1_555 1_555
H12 C15 1_555 1_555
H13 N8 1_555 1_555
H14 C18 1_555 1_555
H15 C19 1_555 1_555
H16 C20 1_555 1_555
H17 C21 1_555 1_555
H18 C22 1_555 1_555
N3 C3 1_555 1_555
C10 C11 1_555 1_555
N7 C14 1_555 1_555
C21 C22 1_555 1_555

#END
