
#######################################################################
#
#                 Cambridge Crystallographic Data Centre
#                                CCDC 
#
#######################################################################
#
# If this CIF has been generated from an entry in the Cambridge 
# Structural Database, then it will include bibliographic, chemical, 
# crystal, experimental, refinement or atomic coordinate data resulting 
# from the CCDC's data processing and validation procedures.
#
#######################################################################

data_GATMIA
_chemical_formula_moiety         'C35 H29 N1 O1'
_chemical_name_systematic        
3-(2,2-diphenylvinyl)-1-(4-methoxyphenyl)-2-phenylindoline
_symmetry_cell_setting           triclinic
_symmetry_space_group_name_H-M   'P -1'
_symmetry_Int_Tables_number      2
_space_group_name_Hall           '-P 1'
loop_
_symmetry_equiv_pos_site_id
_symmetry_equiv_pos_as_xyz
1 x,y,z
2 -x,-y,-z
_cell_length_a                   6.3044(9)
_cell_length_b                   10.7952(15)
_cell_length_c                   20.613(3)
_cell_angle_alpha                77.669(4)
_cell_angle_beta                 88.541(3)
_cell_angle_gamma                75.011(3)
_cell_volume                     1323.21
_exptl_crystal_colour            colorless
_exptl_crystal_description       prismatic
_cell_formula_units_Z            2
loop_
_atom_site_label
_atom_site_type_symbol
_atom_site_fract_x
_atom_site_fract_y
_atom_site_fract_z
N1 N 0.0842(2) 0.27690(12) 0.20859(7)
O1 O 0.0854(2) 0.71282(13) 0.00807(7)
C1 C -0.0651(3) 0.28559(15) 0.26048(8)
C2 C -0.2413(3) 0.38820(17) 0.26863(10)
H1 H -0.2774 0.4665 0.2370
C3 C -0.3617(3) 0.3704(2) 0.32544(10)
H2 H -0.4800 0.4383 0.3319
C4 C -0.3113(3) 0.2552(2) 0.37244(10)
H3 H -0.3958 0.2456 0.4099
C5 C -0.1356(3) 0.15365(18) 0.36420(9)
H4 H -0.1007 0.0754 0.3959
C6 C -0.0127(3) 0.16966(15) 0.30851(8)
C7 C 0.1858(3) 0.07654(15) 0.28731(8)
H5 H 0.1362 0.0167 0.2652
C8 C 0.2822(3) 0.17148(14) 0.23479(8)
H6 H 0.3798 0.2076 0.2572
C9 C 0.4090(3) 0.10233(15) 0.18466(8)
C10 C 0.6309(3) 0.04386(17) 0.19650(10)
H7 H 0.7034 0.0593 0.2315
C11 C 0.7461(4) -0.0372(2) 0.15688(13)
H8 H 0.8947 -0.0775 0.1660
C12 C 0.6435(5) -0.0585(2) 0.10447(13)
H9 H 0.7209 -0.1140 0.0782
C13 C 0.4254(5) 0.0026(2) 0.09095(11)
H10 H 0.3556 -0.0099 0.0546
C14 C 0.3078(3) 0.08266(18) 0.13079(9)
H11 H 0.1597 0.1234 0.1211
C15 C 0.0956(3) 0.38545(14) 0.15798(8)
C16 C 0.2869(3) 0.42149(15) 0.14247(8)
H12 H 0.4163 0.3730 0.1659
C17 C 0.2900(3) 0.52957(16) 0.09220(9)
H13 H 0.4217 0.5520 0.0821
C18 C 0.1011(3) 0.60356(16) 0.05732(9)
C19 C -0.0899(3) 0.56592(18) 0.07157(10)
H14 H -0.2190 0.6144 0.0480
C20 C -0.0922(3) 0.45819(18) 0.11998(10)
H15 H -0.2224 0.4328 0.1278
C21 C 0.2797(4) 0.7486(2) -0.01156(13)
H16 H 0.3419 0.7714 0.0249
H17 H 0.2476 0.8227 -0.0484
H18 H 0.3825 0.6763 -0.0246
C22 C 0.3422(3) -0.00257(15) 0.34294(8)
H19 H 0.4119 0.0436 0.3649
C23 C 0.3928(3) -0.13249(15) 0.36461(8)
C24 C 0.2990(3) -0.21338(14) 0.32825(8)
C25 C 0.1238(3) -0.26244(17) 0.35201(10)
H20 H 0.0656 -0.2482 0.3925
C26 C 0.0341(3) -0.33222(19) 0.31654(12)
H21 H -0.0842 -0.3646 0.3331
C27 C 0.1193(4) -0.35402(19) 0.25671(12)
H22 H 0.0582 -0.4006 0.2326
C28 C 0.2938(4) -0.30702(18) 0.23279(10)
H23 H 0.3516 -0.3217 0.1923
C29 C 0.3847(3) -0.23785(16) 0.26851(9)
H24 H 0.5049 -0.2074 0.2522
C30 C 0.5416(3) -0.20105(16) 0.42334(8)
C31 C 0.6384(3) -0.13346(18) 0.45907(9)
H25 H 0.6075 -0.0425 0.4463
C32 C 0.7787(3) -0.1975(2) 0.51275(10)
H26 H 0.8428 -0.1495 0.5352
C33 C 0.8247(3) -0.3307(2) 0.53349(10)
H27 H 0.9188 -0.3737 0.5700
C34 C 0.7305(3) -0.3996(2) 0.49975(11)
H28 H 0.7605 -0.4904 0.5136
C35 C 0.5911(3) -0.33650(17) 0.44532(9)
H29 H 0.5293 -0.3856 0.4230
loop_
_geom_bond_atom_site_label_1
_geom_bond_atom_site_label_2
_geom_bond_site_symmetry_1
_geom_bond_site_symmetry_2
N1 C1 1_555 1_555
O1 C18 1_555 1_555
C1 C2 1_555 1_555
C2 H1 1_555 1_555
C3 C2 1_555 1_555
H2 C3 1_555 1_555
C4 C3 1_555 1_555
H3 C4 1_555 1_555
C5 C4 1_555 1_555
H4 C5 1_555 1_555
C6 C1 1_555 1_555
C7 C6 1_555 1_555
H5 C7 1_555 1_555
C8 N1 1_555 1_555
H6 C8 1_555 1_555
C9 C8 1_555 1_555
C10 C9 1_555 1_555
H7 C10 1_555 1_555
C11 C10 1_555 1_555
H8 C11 1_555 1_555
C12 C11 1_555 1_555
H9 C12 1_555 1_555
C13 C12 1_555 1_555
H10 C13 1_555 1_555
C14 C9 1_555 1_555
H11 C14 1_555 1_555
C15 N1 1_555 1_555
C16 C15 1_555 1_555
H12 C16 1_555 1_555
C17 C16 1_555 1_555
H13 C17 1_555 1_555
C18 C17 1_555 1_555
C19 C18 1_555 1_555
H14 C19 1_555 1_555
C20 C15 1_555 1_555
H15 C20 1_555 1_555
C21 O1 1_555 1_555
H16 C21 1_555 1_555
H17 C21 1_555 1_555
H18 C21 1_555 1_555
C22 C7 1_555 1_555
H19 C22 1_555 1_555
C23 C22 1_555 1_555
C24 C23 1_555 1_555
C25 C24 1_555 1_555
H20 C25 1_555 1_555
C26 C25 1_555 1_555
H21 C26 1_555 1_555
C27 C26 1_555 1_555
H22 C27 1_555 1_555
C28 C27 1_555 1_555
H23 C28 1_555 1_555
C29 C24 1_555 1_555
H24 C29 1_555 1_555
C30 C23 1_555 1_555
C31 C30 1_555 1_555
H25 C31 1_555 1_555
C32 C31 1_555 1_555
H26 C32 1_555 1_555
C33 C32 1_555 1_555
H27 C33 1_555 1_555
C34 C33 1_555 1_555
H28 C34 1_555 1_555
C35 C30 1_555 1_555
H29 C35 1_555 1_555
C5 C6 1_555 1_555
C7 C8 1_555 1_555
C13 C14 1_555 1_555
C19 C20 1_555 1_555
C28 C29 1_555 1_555
C34 C35 1_555 1_555

#END
