
#######################################################################
#
#                 Cambridge Crystallographic Data Centre
#                                CCDC 
#
#######################################################################
#
# If this CIF has been generated from an entry in the Cambridge 
# Structural Database, then it will include bibliographic, chemical, 
# crystal, experimental, refinement or atomic coordinate data resulting 
# from the CCDC's data processing and validation procedures.
#
#######################################################################

data_GATMAS
_chemical_formula_moiety         'C22 H24 N5 O3 1+,2(H2 O1),Cl1 1-'
_chemical_name_systematic        
'4-(4-(benzoyl(phenyl)amino)-6-methoxy-1,3,5-triazin-2-yl)-4-methylmorpholin-4-ium chloride dihydrate'
_symmetry_cell_setting           monoclinic
_symmetry_space_group_name_H-M   'P 21/c'
_symmetry_Int_Tables_number      14
_space_group_name_Hall           '-P 2ybc'
loop_
_symmetry_equiv_pos_site_id
_symmetry_equiv_pos_as_xyz
1 x,y,z
2 -x,1/2+y,1/2-z
3 -x,-y,-z
4 x,1/2-y,1/2+z
_cell_length_a                   18.3057(9)
_cell_length_b                   7.5743(3)
_cell_length_c                   16.4677(9)
_cell_angle_alpha                90
_cell_angle_beta                 101.797(2)
_cell_angle_gamma                90
_cell_volume                     2235.07
_exptl_crystal_colour            colorless
_exptl_crystal_description       block
_cell_formula_units_Z            4
loop_
_atom_site_label
_atom_site_type_symbol
_atom_site_fract_x
_atom_site_fract_y
_atom_site_fract_z
Cl1 Cl 0.39551(5) 0.51984(15) 0.08239(6)
O1 O 0.28642(12) 0.1294(3) -0.02345(13)
O2 O 0.14342(14) 0.6002(3) 0.26063(15)
O3 O 0.30163(18) -0.2151(5) 0.3315(2)
N1 N 0.32618(14) 0.0895(3) 0.11664(16)
N2 N 0.22814(14) 0.2883(3) 0.05864(16)
N3 N 0.27150(13) 0.2693(3) 0.20608(15)
N4 N 0.17678(14) 0.4618(3) 0.14946(15)
N5 N 0.37075(15) 0.0717(4) 0.26102(17)
C1 C 0.31687(16) 0.1472(4) 0.18855(18)
C2 C 0.28106(16) 0.1705(4) 0.05319(18)
C3 C 0.22702(16) 0.3346(4) 0.13616(18)
C4 C 0.3447(2) 0.0037(5) -0.0318(2)
C5 C 0.15100(16) 0.4633(4) 0.22635(18)
C6 C 0.12683(15) 0.2888(4) 0.25394(18)
C7 C 0.09725(17) 0.1591(4) 0.19596(18)
C8 C 0.06961(18) 0.0037(4) 0.2224(2)
C9 C 0.07326(18) -0.0249(4) 0.3065(2)
C10 C 0.10349(17) 0.1029(4) 0.36420(19)
C11 C 0.12969(16) 0.2610(4) 0.33785(18)
C12 C 0.14804(16) 0.5916(4) 0.08757(18)
C13 C 0.07262(17) 0.6316(4) 0.07293(19)
C14 C 0.04331(17) 0.7581(4) 0.01457(19)
C15 C 0.08904(18) 0.8415(4) -0.03166(19)
C16 C 0.16416(18) 0.7986(4) -0.0177(2)
C17 C 0.19456(16) 0.6759(4) 0.04288(19)
C18 C 0.3442(2) 0.0846(5) 0.3418(2)
C19 C 0.2818(3) -0.0386(7) 0.3430(3)
C20 C 0.3202(3) -0.2324(5) 0.2534(3)
C21 C 0.3871(2) -0.1228(5) 0.2477(2)
C22 C 0.4419(2) 0.1736(7) 0.2652(4)
H1 H 0.05501 -0.13219 0.32468
H2 H 0.24645 0.65028 0.05351
H3 H 0.14944 0.34949 0.37711
H4 H 0.04819 -0.08321 0.18312
H5 H 0.04093 0.57202 0.10299
H6 H -0.00809 0.78804 0.00607
H7 H 0.34375 -0.0172 -0.09074
H8 H 0.39349 0.05163 -0.00518
H9 H 0.33617 -0.10787 -0.00507
H10 H 0.09612 0.17747 0.13865
H11 H 0.10628 0.08239 0.42167
H12 H 0.19533 0.85352 -0.04987
H13 H 0.06893 0.9269 -0.07236
H14 H 0.39963 -0.13863 0.1925
H15 H 0.43035 -0.16175 0.29034
H16 H 0.26601 -0.0279 0.39685
H17 H 0.23888 -0.0054 0.29865
H18 H 0.38601 0.05679 0.38845
H19 H 0.32767 0.20689 0.34934
H20 H 0.27731 -0.19474 0.20989
H21 H 0.33069 -0.35785 0.24351
H22 H 0.47983 0.13039 0.31175
H23 H 0.45948 0.15774 0.21334
H24 H 0.43262 0.29925 0.27322
O4 O 0.4778(3) 0.4948(7) 0.3743(3)
O5 O 0.5102(2) 0.2674(5) 0.0231(4)
loop_
_geom_bond_atom_site_label_1
_geom_bond_atom_site_label_2
_geom_bond_site_symmetry_1
_geom_bond_site_symmetry_2
O1 C2 1_555 1_555
O2 C5 1_555 1_555
O3 C19 1_555 1_555
N1 C1 1_555 1_555
N2 C2 1_555 1_555
N3 C1 1_555 1_555
N4 C3 1_555 1_555
N5 C1 1_555 1_555
C2 N1 1_555 1_555
C3 N2 1_555 1_555
C4 O1 1_555 1_555
C5 N4 1_555 1_555
C6 C5 1_555 1_555
C7 C6 1_555 1_555
C8 C7 1_555 1_555
C9 C8 1_555 1_555
C10 C9 1_555 1_555
C11 C6 1_555 1_555
C12 N4 1_555 1_555
C13 C12 1_555 1_555
C14 C13 1_555 1_555
C15 C14 1_555 1_555
C16 C15 1_555 1_555
C17 C12 1_555 1_555
C18 N5 1_555 1_555
C19 C18 1_555 1_555
C20 O3 1_555 1_555
C21 N5 1_555 1_555
C22 N5 1_555 1_555
H1 C9 1_555 1_555
H2 C17 1_555 1_555
H3 C11 1_555 1_555
H4 C8 1_555 1_555
H5 C13 1_555 1_555
H6 C14 1_555 1_555
H7 C4 1_555 1_555
H8 C4 1_555 1_555
H9 C4 1_555 1_555
H10 C7 1_555 1_555
H11 C10 1_555 1_555
H12 C16 1_555 1_555
H13 C15 1_555 1_555
H14 C21 1_555 1_555
H15 C21 1_555 1_555
H16 C19 1_555 1_555
H17 C19 1_555 1_555
H18 C18 1_555 1_555
H19 C18 1_555 1_555
H20 C20 1_555 1_555
H21 C20 1_555 1_555
H22 C22 1_555 1_555
H23 C22 1_555 1_555
H24 C22 1_555 1_555
N3 C3 1_555 1_555
C10 C11 1_555 1_555
C16 C17 1_555 1_555
C20 C21 1_555 1_555

#END
