
#######################################################################
#
#                 Cambridge Crystallographic Data Centre
#                                CCDC 
#
#######################################################################
#
# If this CIF has been generated from an entry in the Cambridge 
# Structural Database, then it will include bibliographic, chemical, 
# crystal, experimental, refinement or atomic coordinate data resulting 
# from the CCDC's data processing and validation procedures.
#
#######################################################################

data_GATREA
_chemical_formula_moiety         'C30 H42 N4 O2'
_chemical_name_systematic        
'3-(Methyl(phenyl)amino)-16-(1H-1,2,4-triazol-1-yl)androstan-17-yl acetate'
_symmetry_cell_setting           orthorhombic
_symmetry_space_group_name_H-M   'P 21 21 21'
_symmetry_Int_Tables_number      19
_space_group_name_Hall           'P 2ac 2ab'
loop_
_symmetry_equiv_pos_site_id
_symmetry_equiv_pos_as_xyz
1 x,y,z
2 1/2-x,-y,1/2+z
3 -x,1/2+y,1/2-z
4 1/2+x,1/2-y,-z
_cell_length_a                   7.4381(11)
_cell_length_b                   9.3290(13)
_cell_length_c                   39.412(6)
_cell_angle_alpha                90
_cell_angle_beta                 90
_cell_angle_gamma                90
_cell_volume                     2734.8
_exptl_crystal_colour            colorless
_exptl_crystal_description       block
_cell_formula_units_Z            4
loop_
_atom_site_label
_atom_site_type_symbol
_atom_site_fract_x
_atom_site_fract_y
_atom_site_fract_z
C1 C -0.1255(8) 0.9820(6) 0.09377(15)
H1 H -0.2030 0.9006 0.0892
H2 H -0.1675 1.0266 0.1145
C2 C -0.1446(8) 1.0897(6) 0.06478(15)
H3 H -0.2671 1.1253 0.0642
H4 H -0.1212 1.0417 0.0434
C3 C -0.0146(8) 1.2167(6) 0.06868(15)
H5 H -0.0507 1.2664 0.0895
C4 C 0.1759(8) 1.1650(6) 0.07465(14)
H6 H 0.2525 1.2468 0.0793
H7 H 0.2200 1.1190 0.0542
C5 C 0.1877(8) 1.0596(6) 0.10420(15)
H8 H 0.1420 1.1103 0.1242
C6 C 0.3853(7) 1.0212(6) 0.11196(15)
H9 H 0.4387 0.9759 0.0922
H10 H 0.4521 1.1082 0.1167
C7 C 0.3987(8) 0.9210(6) 0.14210(15)
H11 H 0.5222 0.8891 0.1444
H12 H 0.3670 0.9732 0.1625
C8 C 0.2781(7) 0.7914(5) 0.13900(15)
H13 H 0.3190 0.7353 0.1194
C9 C 0.0815(7) 0.8371(6) 0.13230(15)
H14 H 0.0492 0.9017 0.1509
C10 C 0.0662(7) 0.9272(6) 0.09942(13)
C11 C -0.0530(7) 0.7096(6) 0.13435(15)
H15 H -0.1744 0.7476 0.1348
H16 H -0.0409 0.6521 0.1140
C12 C -0.0271(8) 0.6123(6) 0.16533(17)
H17 H -0.0580 0.6646 0.1858
H18 H -0.1068 0.5304 0.1636
C13 C 0.1662(7) 0.5609(5) 0.16761(13)
C14 C 0.2854(7) 0.6942(6) 0.17025(14)
H19 H 0.2397 0.7507 0.1894
C15 C 0.4693(8) 0.6341(6) 0.18120(14)
H20 H 0.5335 0.5933 0.1621
H21 H 0.5430 0.7077 0.1916
C16 C 0.4172(8) 0.5188(6) 0.20681(16)
H22 H 0.4290 0.5616 0.2294
C17 C 0.2157(8) 0.4892(6) 0.20112(16)
H23 H 0.1468 0.5341 0.2195
C18 C 0.2133(8) 0.4624(5) 0.13765(14)
H24 H 0.3366 0.4331 0.1394
H25 H 0.1955 0.5132 0.1167
H26 H 0.1371 0.3794 0.1381
C19 C 0.1206(8) 0.8388(6) 0.06844(13)
H27 H 0.0233 0.7768 0.0621
H28 H 0.2245 0.7822 0.0738
H29 H 0.1483 0.9019 0.0499
C20 C 0.0652(9) 1.2945(8) 0.01055(15)
H30 H -0.0133 1.3077 -0.0085
H31 H 0.1111 1.1983 0.0105
H32 H 0.1633 1.3610 0.0091
C21 C -0.1488(8) 1.4338(6) 0.04326(15)
C22 C -0.2820(8) 1.4441(7) 0.06812(17)
H33 H -0.2937 1.3720 0.0843
C23 C -0.3943(10) 1.5585(9) 0.06889(18)
H34 H -0.4791 1.5646 0.0862
C24 C -0.3875(11) 1.6657(9) 0.0451(2)
H35 H -0.4705 1.7402 0.0454
C25 C -0.2586(11) 1.6607(7) 0.02141(19)
H36 H -0.2486 1.7351 0.0058
C26 C -0.1418(9) 1.5482(7) 0.01980(16)
H37 H -0.0552 1.5468 0.0028
C27 C 0.6020(10) 0.3198(8) 0.23259(18)
H38 H 0.5859 0.3432 0.2553
C28 C 0.6775(11) 0.2196(8) 0.1876(2)
H39 H 0.7280 0.1525 0.1729
C29 C 0.1628(9) 0.2728(7) 0.2302(2)
C30 C 0.1378(10) 0.1133(6) 0.22603(19)
H40 H 0.1542 0.0667 0.2475
H41 H 0.2245 0.0774 0.2101
H42 H 0.0188 0.0942 0.2178
N1 N -0.0340(7) 1.3195(5) 0.04169(13)
N2 N 0.5336(7) 0.3924(5) 0.20611(14)
N3 N 0.5839(8) 0.3297(6) 0.17672(15)
N4 N 0.6946(9) 0.2112(7) 0.2213(2)
O1 O 0.1736(5) 0.3371(4) 0.20009(10)
O2 O 0.1837(8) 0.3291(5) 0.25704(13)
loop_
_geom_bond_atom_site_label_1
_geom_bond_atom_site_label_2
_geom_bond_site_symmetry_1
_geom_bond_site_symmetry_2
C1 H1 1_555 1_555
H2 C1 1_555 1_555
C2 C1 1_555 1_555
H3 C2 1_555 1_555
H4 C2 1_555 1_555
C3 C2 1_555 1_555
H5 C3 1_555 1_555
C4 C3 1_555 1_555
H6 C4 1_555 1_555
H7 C4 1_555 1_555
C5 C4 1_555 1_555
H8 C5 1_555 1_555
C6 C5 1_555 1_555
H9 C6 1_555 1_555
H10 C6 1_555 1_555
C7 C6 1_555 1_555
H11 C7 1_555 1_555
H12 C7 1_555 1_555
C8 C7 1_555 1_555
H13 C8 1_555 1_555
C9 C8 1_555 1_555
H14 C9 1_555 1_555
C10 C1 1_555 1_555
C11 C9 1_555 1_555
H15 C11 1_555 1_555
H16 C11 1_555 1_555
C12 C11 1_555 1_555
H17 C12 1_555 1_555
H18 C12 1_555 1_555
C13 C12 1_555 1_555
C14 C8 1_555 1_555
H19 C14 1_555 1_555
C15 C14 1_555 1_555
H20 C15 1_555 1_555
H21 C15 1_555 1_555
C16 C15 1_555 1_555
H22 C16 1_555 1_555
C17 C13 1_555 1_555
H23 C17 1_555 1_555
C18 C13 1_555 1_555
H24 C18 1_555 1_555
H25 C18 1_555 1_555
H26 C18 1_555 1_555
C19 C10 1_555 1_555
H27 C19 1_555 1_555
H28 C19 1_555 1_555
H29 C19 1_555 1_555
C20 H30 1_555 1_555
H31 C20 1_555 1_555
H32 C20 1_555 1_555
C21 C22 1_555 1_555
C22 H33 1_555 1_555
C23 C22 1_555 1_555
H34 C23 1_555 1_555
C24 C23 1_555 1_555
H35 C24 1_555 1_555
C25 C24 1_555 1_555
H36 C25 1_555 1_555
C26 C21 1_555 1_555
H37 C26 1_555 1_555
C27 H38 1_555 1_555
C28 H39 1_555 1_555
C29 C30 1_555 1_555
C30 H40 1_555 1_555
H41 C30 1_555 1_555
H42 C30 1_555 1_555
N1 C3 1_555 1_555
N2 C16 1_555 1_555
N3 C28 1_555 1_555
N4 C27 1_555 1_555
O1 C17 1_555 1_555
O2 C29 1_555 1_555
C5 C10 1_555 1_555
C9 C10 1_555 1_555
C13 C14 1_555 1_555
C16 C17 1_555 1_555
C20 N1 1_555 1_555
C21 N1 1_555 1_555
C25 C26 1_555 1_555
C27 N2 1_555 1_555
C28 N4 1_555 1_555
C29 O1 1_555 1_555
N2 N3 1_555 1_555

#END
