
#######################################################################
#
#                 Cambridge Crystallographic Data Centre
#                                CCDC 
#
#######################################################################
#
# If this CIF has been generated from an entry in the Cambridge 
# Structural Database, then it will include bibliographic, chemical, 
# crystal, experimental, refinement or atomic coordinate data resulting 
# from the CCDC's data processing and validation procedures.
#
#######################################################################

data_GAVCEM03
_chemical_formula_moiety         'C14 H10 Cl2 N2'
_chemical_name_systematic        
(E,E)-bis((4-chlorophenyl)methylidene)hydrazine
_symmetry_cell_setting           monoclinic
_symmetry_space_group_name_H-M   'P 21/c'
_symmetry_Int_Tables_number      14
_space_group_name_Hall           '-P 2ybc'
loop_
_symmetry_equiv_pos_site_id
_symmetry_equiv_pos_as_xyz
1 x,y,z
2 -x,1/2+y,1/2-z
3 -x,-y,-z
4 x,1/2-y,1/2+z
_cell_length_a                   3.8597(2)
_cell_length_b                   6.9975(5)
_cell_length_c                   22.9081(16)
_cell_angle_alpha                90
_cell_angle_beta                 90.946(3)
_cell_angle_gamma                90
_cell_volume                     618.623
_exptl_crystal_colour            yellow
_exptl_crystal_description       plate
_cell_formula_units_Z            2
loop_
_atom_site_label
_atom_site_type_symbol
_atom_site_fract_x
_atom_site_fract_y
_atom_site_fract_z
Cl1 Cl 0.10181(14) -0.33708(7) 0.31247(2)
N1 N 0.4388(5) 0.4108(2) 0.48979(8)
C1 C 0.4165(6) 0.2055(3) 0.40615(9)
C2 C 0.4836(6) 0.1827(3) 0.34686(9)
H1 H 0.5943 0.2825 0.3261
C3 C 0.3898(6) 0.0149(3) 0.31772(9)
H2 H 0.4360 -0.0009 0.2774
C4 C 0.2274(6) -0.1284(3) 0.34903(9)
C5 C 0.1617(6) -0.1112(3) 0.40817(9)
H3 H 0.0539 -0.2120 0.4289
C6 C 0.2572(5) 0.0566(3) 0.43635(9)
H4 H 0.2137 0.0707 0.4768
C7 C 0.5169(6) 0.3831(3) 0.43626(9)
H5 H 0.6412 0.4785 0.4158
Cl1B Cl 0.89819(14) 1.33708(7) 0.68753(2)
N1B N 0.5612(5) 0.5892(2) 0.51021(8)
C1B C 0.5835(6) 0.7945(3) 0.59385(9)
C2B C 0.5164(6) 0.8173(3) 0.65314(9)
H1B H 0.4057 0.7175 0.6739
C3B C 0.6102(6) 0.9851(3) 0.68228(9)
H2B H 0.5640 1.0009 0.7226
C4B C 0.7726(6) 1.1284(3) 0.65097(9)
C5B C 0.8383(6) 1.1112(3) 0.59183(9)
H3B H 0.9461 1.2120 0.5711
C6B C 0.7428(5) 0.9434(3) 0.56365(9)
H4B H 0.7863 0.9293 0.5232
C7B C 0.4831(6) 0.6169(3) 0.56374(9)
H5B H 0.3588 0.5215 0.5842
loop_
_geom_bond_atom_site_label_1
_geom_bond_atom_site_label_2
_geom_bond_site_symmetry_1
_geom_bond_site_symmetry_2
Cl1 C4 1_555 1_555
N1 C7 1_555 1_555
C1 C2 1_555 1_555
C2 H1 1_555 1_555
C3 C2 1_555 1_555
H2 C3 1_555 1_555
C4 C3 1_555 1_555
C5 C4 1_555 1_555
H3 C5 1_555 1_555
C6 C1 1_555 1_555
H4 C6 1_555 1_555
C7 C1 1_555 1_555
H5 C7 1_555 1_555
Cl1B C4B 1_555 1_555
N1B N1 1_555 1_555
C1B C2B 1_555 1_555
C2B H1B 1_555 1_555
C3B C2B 1_555 1_555
H2B C3B 1_555 1_555
C4B C3B 1_555 1_555
C5B C4B 1_555 1_555
H3B C5B 1_555 1_555
C6B C1B 1_555 1_555
H4B C6B 1_555 1_555
C7B N1B 1_555 1_555
H5B C7B 1_555 1_555
C5 C6 1_555 1_555
C1B C7B 1_555 1_555
C5B C6B 1_555 1_555

#END
