
#######################################################################
#
#                 Cambridge Crystallographic Data Centre
#                                CCDC 
#
#######################################################################
#
# If this CIF has been generated from an entry in the Cambridge 
# Structural Database, then it will include bibliographic, chemical, 
# crystal, experimental, refinement or atomic coordinate data resulting 
# from the CCDC's data processing and validation procedures.
#
#######################################################################

data_GAVCEM01
_chemical_formula_moiety         'C14 H10 Cl2 N2'
_chemical_name_systematic        (E,E)-1,2-bis(4-chlorobenzylidene)hydrazine
_symmetry_cell_setting           monoclinic
_symmetry_space_group_name_H-M   'P 21/c'
_symmetry_Int_Tables_number      14
_space_group_name_Hall           '-P 2ybc'
loop_
_symmetry_equiv_pos_site_id
_symmetry_equiv_pos_as_xyz
1 x,y,z
2 -x,1/2+y,1/2-z
3 -x,-y,-z
4 x,1/2-y,1/2+z
_cell_length_a                   3.8917(5)
_cell_length_b                   6.9999(8)
_cell_length_c                   22.977(3)
_cell_angle_alpha                90
_cell_angle_beta                 90.798(2)
_cell_angle_gamma                90
_cell_volume                     625.867
_exptl_crystal_colour            yellow
_exptl_crystal_description       plate
_cell_formula_units_Z            2
loop_
_atom_site_label
_atom_site_type_symbol
_atom_site_fract_x
_atom_site_fract_y
_atom_site_fract_z
Cl1 Cl 0.89903(9) 1.33329(5) 0.687598(16)
N1 N 0.5608(3) 0.58903(15) 0.51029(5)
C1 C 0.4850(3) 0.61641(19) 0.56355(6)
H1 H 0.3622 0.5208 0.5840
C2 C 0.5844(3) 0.79287(18) 0.59362(5)
C3 C 0.5180(3) 0.81548(19) 0.65269(6)
H2 H 0.4066 0.7160 0.6733
C4 C 0.6125(3) 0.9814(2) 0.68179(6)
H3 H 0.5675 0.9961 0.7221
C5 C 0.7734(3) 1.12528(19) 0.65106(6)
C6 C 0.8395(3) 1.10895(19) 0.59214(6)
H4 H 0.9473 1.2099 0.5716
C7 C 0.7444(3) 0.94197(19) 0.56393(5)
H5 H 0.7888 0.9284 0.5236
Cl1B Cl 0.10097(9) -0.33329(5) 0.312402(16)
N1B N 0.4392(3) 0.41097(15) 0.48971(5)
C1B C 0.5150(3) 0.38359(19) 0.43645(6)
H1B H 0.6378 0.4792 0.4160
C2B C 0.4156(3) 0.20713(18) 0.40638(5)
C3B C 0.4820(3) 0.18452(19) 0.34731(6)
H2B H 0.5934 0.2840 0.3267
C4B C 0.3875(3) 0.0186(2) 0.31821(6)
H3B H 0.4325 0.0039 0.2779
C5B C 0.2266(3) -0.12528(19) 0.34894(6)
C6B C 0.1605(3) -0.10895(19) 0.40786(6)
H4B H 0.0527 -0.2099 0.4284
C7B C 0.2556(3) 0.05803(19) 0.43607(5)
H5B H 0.2112 0.0716 0.4764
loop_
_geom_bond_atom_site_label_1
_geom_bond_atom_site_label_2
_geom_bond_site_symmetry_1
_geom_bond_site_symmetry_2
Cl1 C5 1_555 1_555
N1 C1 1_555 1_555
C1 H1 1_555 1_555
C2 C1 1_555 1_555
C3 C2 1_555 1_555
H2 C3 1_555 1_555
C4 C3 1_555 1_555
H3 C4 1_555 1_555
C5 C4 1_555 1_555
C6 C5 1_555 1_555
H4 C6 1_555 1_555
C7 C2 1_555 1_555
H5 C7 1_555 1_555
Cl1B C5B 1_555 1_555
N1B N1 1_555 1_555
C1B N1B 1_555 1_555
H1B C1B 1_555 1_555
C2B C1B 1_555 1_555
C3B C2B 1_555 1_555
H2B C3B 1_555 1_555
C4B C3B 1_555 1_555
H3B C4B 1_555 1_555
C5B C4B 1_555 1_555
C6B C5B 1_555 1_555
H4B C6B 1_555 1_555
C7B C2B 1_555 1_555
H5B C7B 1_555 1_555
C6 C7 1_555 1_555
C6B C7B 1_555 1_555

#END
