
#######################################################################
#
#                 Cambridge Crystallographic Data Centre
#                                CCDC 
#
#######################################################################
#
# If this CIF has been generated from an entry in the Cambridge 
# Structural Database, then it will include bibliographic, chemical, 
# crystal, experimental, refinement or atomic coordinate data resulting 
# from the CCDC's data processing and validation procedures.
#
#######################################################################

data_GAVGUH
_chemical_formula_moiety         'C47 H44 B1 N1 Si1'
_chemical_name_systematic        
2-(4-((4-(Dimesitylboryl)phenyl)(diphenyl)silyl)phenyl)pyridine
_symmetry_cell_setting           triclinic
_symmetry_space_group_name_H-M   'P -1'
_symmetry_Int_Tables_number      2
_space_group_name_Hall           '-P 1'
loop_
_symmetry_equiv_pos_site_id
_symmetry_equiv_pos_as_xyz
1 x,y,z
2 -x,-y,-z
_cell_length_a                   11.148(8)
_cell_length_b                   13.357(10)
_cell_length_c                   13.864(11)
_cell_angle_alpha                72.748(9)
_cell_angle_beta                 75.411(10)
_cell_angle_gamma                87.040(10)
_cell_volume                     1907.36
_exptl_crystal_colour            colorless
_exptl_crystal_description       block
_cell_formula_units_Z            2
loop_
_atom_site_label
_atom_site_type_symbol
_atom_site_fract_x
_atom_site_fract_y
_atom_site_fract_z
Si1 Si 0.13925(10) -0.00917(7) 0.22618(8)
B1 B 0.1126(4) 0.4683(3) 0.1998(3)
N1 N -0.3502(5) -0.3190(4) 0.5837(3)
C1 C 0.1336(3) 0.1328(3) 0.2178(3)
C2 C 0.2346(3) 0.1880(3) 0.2204(3)
H1 H 0.3086 0.1519 0.2292
C3 C 0.2301(4) 0.2948(3) 0.2105(3)
H2 H 0.3020 0.3305 0.2098
C4 C 0.1232(4) 0.3501(2) 0.2017(2)
C5 C 0.0209(4) 0.2956(3) 0.1990(3)
H3 H -0.0541 0.3313 0.1932
C6 C 0.0276(4) 0.1899(3) 0.2046(3)
H4 H -0.0420 0.1556 0.1992
C7 C 0.2759(4) -0.0681(3) 0.2755(3)
C8 C 0.2643(5) -0.1275(3) 0.3778(4)
H5 H 0.1840 -0.1423 0.4238
C9 C 0.3673(8) -0.1661(5) 0.4150(6)
H6 H 0.3576 -0.2085 0.4851
C10 C 0.4835(8) -0.1421(6) 0.3490(8)
H7 H 0.5543 -0.1660 0.3748
C11 C 0.4988(6) -0.0852(5) 0.2484(7)
H8 H 0.5795 -0.0697 0.2034
C12 C 0.3948(5) -0.0496(3) 0.2116(4)
H9 H 0.4056 -0.0112 0.1402
C13 C 0.1584(3) -0.0211(3) 0.0933(3)
C14 C 0.1952(4) -0.1144(3) 0.0682(3)
H10 H 0.2082 -0.1747 0.1214
C15 C 0.2129(4) -0.1206(3) -0.0319(4)
H11 H 0.2380 -0.1846 -0.0467
C16 C 0.1948(4) -0.0351(4) -0.1101(3)
H12 H 0.2065 -0.0397 -0.1790
C17 C 0.1596(4) 0.0567(3) -0.0883(3)
H13 H 0.1469 0.1163 -0.1423
C18 C 0.1422(4) 0.0633(3) 0.0113(3)
H14 H 0.1183 0.1283 0.0244
C19 C -0.0055(4) -0.0740(3) 0.3220(3)
C20 C -0.0680(4) -0.0293(3) 0.3998(3)
H15 H -0.0367 0.0351 0.4008
C21 C -0.1727(4) -0.0742(3) 0.4746(3)
H16 H -0.2126 -0.0397 0.5245
C22 C -0.2202(4) -0.1688(3) 0.4779(3)
C23 C -0.1587(4) -0.2169(3) 0.4050(3)
H17 H -0.1886 -0.2829 0.4067
C24 C -0.0533(4) -0.1704(3) 0.3286(3)
H18 H -0.0130 -0.2058 0.2796
C25 C -0.3370(6) -0.2128(4) 0.5566(4)
C26 C -0.4277(6) -0.1524(6) 0.6011(4)
H19 H -0.4163 -0.0785 0.5812
C27 C -0.5319(6) -0.1984(8) 0.6723(5)
H20 H -0.5940 -0.1573 0.7021
C28 C -0.5457(9) -0.3061(10) 0.7005(5)
H21 H -0.6172 -0.3405 0.7512
C29 C -0.4569(9) -0.3621(7) 0.6554(5)
H22 H -0.4692 -0.4360 0.6746
C30 C -0.0203(4) 0.5050(3) 0.2450(3)
C31 C -0.0898(4) 0.4543(3) 0.3460(3)
C32 C -0.2097(4) 0.4848(3) 0.3825(3)
H23 H -0.2546 0.4499 0.4516
C33 C -0.2651(4) 0.5651(4) 0.3202(4)
C34 C -0.1973(5) 0.6133(3) 0.2205(4)
H24 H -0.2346 0.6670 0.1761
C35 C -0.0767(4) 0.5867(3) 0.1822(3)
C36 C -0.0107(5) 0.6424(3) 0.0715(3)
H25 H 0.0235 0.5907 0.0351
H26 H 0.0567 0.6869 0.0711
H27 H -0.0694 0.6860 0.0361
C37 C -0.3951(5) 0.5981(4) 0.3627(4)
H28 H -0.4263 0.6442 0.3053
H29 H -0.3933 0.6357 0.4133
H30 H -0.4496 0.5358 0.3970
C38 C -0.0357(5) 0.3682(4) 0.4201(3)
H31 H -0.0999 0.3145 0.4617
H32 H -0.0049 0.3977 0.4664
H33 H 0.0329 0.3366 0.3802
C39 C 0.2309(4) 0.5428(2) 0.1560(3)
C40 C 0.3070(4) 0.5567(3) 0.0553(3)
C41 C 0.4088(4) 0.6245(3) 0.0190(3)
H34 H 0.4581 0.6335 -0.0499
C42 C 0.4421(4) 0.6803(3) 0.0788(3)
C43 C 0.3688(4) 0.6643(3) 0.1784(3)
H35 H 0.3905 0.7000 0.2218
C44 C 0.2649(4) 0.5984(3) 0.2180(3)
C45 C 0.2771(5) 0.5055(3) -0.0202(3)
H36 H 0.2325 0.4387 0.0189
H37 H 0.3542 0.4928 -0.0671
H38 H 0.2252 0.5519 -0.0611
C46 C 0.5504(5) 0.7577(4) 0.0367(4)
H39 H 0.5806 0.7656 0.0947
H40 H 0.5238 0.8257 -0.0015
H41 H 0.6171 0.7319 -0.0104
C47 C 0.1916(4) 0.5861(3) 0.3289(3)
H42 H 0.2241 0.6358 0.3563
H43 H 0.1991 0.5143 0.3721
H44 H 0.1042 0.6001 0.3300
loop_
_geom_bond_atom_site_label_1
_geom_bond_atom_site_label_2
_geom_bond_site_symmetry_1
_geom_bond_site_symmetry_2
Si1 C1 1_555 1_555
B1 C4 1_555 1_555
N1 C25 1_555 1_555
C1 C2 1_555 1_555
C2 H1 1_555 1_555
C3 C2 1_555 1_555
H2 C3 1_555 1_555
C4 C3 1_555 1_555
C5 C4 1_555 1_555
H3 C5 1_555 1_555
C6 C1 1_555 1_555
H4 C6 1_555 1_555
C7 Si1 1_555 1_555
C8 C7 1_555 1_555
H5 C8 1_555 1_555
C9 C8 1_555 1_555
H6 C9 1_555 1_555
C10 C9 1_555 1_555
H7 C10 1_555 1_555
C11 C10 1_555 1_555
H8 C11 1_555 1_555
C12 C7 1_555 1_555
H9 C12 1_555 1_555
C13 Si1 1_555 1_555
C14 C13 1_555 1_555
H10 C14 1_555 1_555
C15 C14 1_555 1_555
H11 C15 1_555 1_555
C16 C15 1_555 1_555
H12 C16 1_555 1_555
C17 C16 1_555 1_555
H13 C17 1_555 1_555
C18 C13 1_555 1_555
H14 C18 1_555 1_555
C19 Si1 1_555 1_555
C20 C19 1_555 1_555
H15 C20 1_555 1_555
C21 C20 1_555 1_555
H16 C21 1_555 1_555
C22 C21 1_555 1_555
C23 C22 1_555 1_555
H17 C23 1_555 1_555
C24 C19 1_555 1_555
H18 C24 1_555 1_555
C25 C22 1_555 1_555
C26 C25 1_555 1_555
H19 C26 1_555 1_555
C27 C26 1_555 1_555
H20 C27 1_555 1_555
C28 C27 1_555 1_555
H21 C28 1_555 1_555
C29 N1 1_555 1_555
H22 C29 1_555 1_555
C30 B1 1_555 1_555
C31 C30 1_555 1_555
C32 C31 1_555 1_555
H23 C32 1_555 1_555
C33 C32 1_555 1_555
C34 C33 1_555 1_555
H24 C34 1_555 1_555
C35 C30 1_555 1_555
C36 C35 1_555 1_555
H25 C36 1_555 1_555
H26 C36 1_555 1_555
H27 C36 1_555 1_555
C37 C33 1_555 1_555
H28 C37 1_555 1_555
H29 C37 1_555 1_555
H30 C37 1_555 1_555
C38 C31 1_555 1_555
H31 C38 1_555 1_555
H32 C38 1_555 1_555
H33 C38 1_555 1_555
C39 B1 1_555 1_555
C40 C39 1_555 1_555
C41 C40 1_555 1_555
H34 C41 1_555 1_555
C42 C41 1_555 1_555
C43 C42 1_555 1_555
H35 C43 1_555 1_555
C44 C39 1_555 1_555
C45 C40 1_555 1_555
H36 C45 1_555 1_555
H37 C45 1_555 1_555
H38 C45 1_555 1_555
C46 C42 1_555 1_555
H39 C46 1_555 1_555
H40 C46 1_555 1_555
H41 C46 1_555 1_555
C47 C44 1_555 1_555
H42 C47 1_555 1_555
H43 C47 1_555 1_555
H44 C47 1_555 1_555
C5 C6 1_555 1_555
C11 C12 1_555 1_555
C17 C18 1_555 1_555
C23 C24 1_555 1_555
C28 C29 1_555 1_555
C34 C35 1_555 1_555
C43 C44 1_555 1_555

#END
