
#######################################################################
#
#                 Cambridge Crystallographic Data Centre
#                                CCDC 
#
#######################################################################
#
# If this CIF has been generated from an entry in the Cambridge 
# Structural Database, then it will include bibliographic, chemical, 
# crystal, experimental, refinement or atomic coordinate data resulting 
# from the CCDC's data processing and validation procedures.
#
#######################################################################

data_GAVJAP
_chemical_formula_moiety         'C7 H8 N1 O3 1+,C7 H7 N1 O3,N1 O3 1-'
_chemical_name_systematic        
'1-Carboxymethyl-3-hydroxypyridinium nitrate 3-hydroxypyridinium-1-acetate'
_symmetry_cell_setting           triclinic
_symmetry_space_group_name_H-M   'P -1'
_symmetry_Int_Tables_number      2
_space_group_name_Hall           '-P 1'
loop_
_symmetry_equiv_pos_site_id
_symmetry_equiv_pos_as_xyz
1 x,y,z
2 -x,-y,-z
_cell_length_a                   7.0054(14)
_cell_length_b                   8.2661(17)
_cell_length_c                   14.445(3)
_cell_angle_alpha                74.50(3)
_cell_angle_beta                 77.09(3)
_cell_angle_gamma                88.37(3)
_cell_volume                     785.239
_exptl_crystal_colour            colorless
_exptl_crystal_description       prism
_cell_formula_units_Z            2
loop_
_atom_site_label
_atom_site_type_symbol
_atom_site_fract_x
_atom_site_fract_y
_atom_site_fract_z
N1 N 0.1570(3) 0.5130(2) 0.88150(14)
O1 O 0.2039(3) 0.5897(3) 0.93462(16)
O2 O 0.0679(3) 0.5859(3) 0.81886(17)
O3 O 0.1928(3) 0.3654(2) 0.8883(2)
N2 N 0.7792(3) 0.81471(19) 0.36826(11)
O4 O 0.6803(3) 0.58880(18) 0.54027(11)
O5 O 0.8277(3) 0.37764(17) 0.48665(12)
O6 O 0.3700(2) 1.07759(17) 0.35358(13)
C1 C 0.6003(3) 0.8686(2) 0.36050(14)
C2 C 0.5519(3) 1.0319(2) 0.36105(14)
C3 C 0.6916(3) 1.1373(2) 0.37024(17)
C4 C 0.8744(4) 1.0779(3) 0.37873(19)
C5 C 0.9174(3) 0.9152(3) 0.37777(17)
C6 C 0.8243(4) 0.6381(2) 0.37083(15)
C7 C 0.7766(3) 0.5209(2) 0.47368(15)
H1 H 0.5076 0.7957 0.3547
H2 H 0.6627 1.2476 0.3707
H3 H 0.9690 1.1483 0.3851
H4 H 1.0406 0.8749 0.3836
H5 H 0.9625 0.6319 0.3422
H6 H 0.7506 0.6006 0.3305
H13 H 0.672(5) 0.522(3) 0.5981(11)
H14 H 0.363(5) 1.1833(14) 0.332(2)
N3 N 0.6761(2) 0.18412(17) 0.88093(11)
O7 O 0.6636(3) 0.39480(16) 0.70618(10)
O8 O 0.6126(3) 0.61937(16) 0.76520(11)
O9 O 1.0834(2) -0.0822(2) 0.88579(15)
C8 C 0.8559(3) 0.1281(2) 0.88375(14)
C9 C 0.8989(3) -0.0370(2) 0.88359(15)
C10 C 0.7510(3) -0.1416(2) 0.87995(15)
C11 C 0.5677(3) -0.0795(2) 0.87716(15)
C12 C 0.5311(3) 0.0840(2) 0.87748(14)
C13 C 0.6396(3) 0.3623(2) 0.87735(14)
C14 C 0.6384(3) 0.4689(2) 0.77397(14)
H7 H 0.9534 0.2002 0.8858
H8 H 0.7756 -0.2526 0.8794
H9 H 0.4677 -0.1491 0.8750
H10 H 0.4070 0.1256 0.8753
H11 H 0.7403 0.4065 0.9012
H12 H 0.5143 0.3700 0.9209
H15 H 1.097(5) -0.1873(15) 0.894(2)
loop_
_geom_bond_atom_site_label_1
_geom_bond_atom_site_label_2
_geom_bond_site_symmetry_1
_geom_bond_site_symmetry_2
N1 O1 1_555 1_555
N2 C1 1_555 1_555
N3 C8 1_555 1_555
O2 N1 1_555 1_555
O3 N1 1_555 1_555
O4 C7 1_555 1_555
O5 C7 1_555 1_555
O6 C2 1_555 1_555
O7 C14 1_555 1_555
O8 C14 1_555 1_555
O9 C9 1_555 1_555
C1 C2 1_555 1_555
C2 C3 1_555 1_555
C3 C4 1_555 1_555
C4 C5 1_555 1_555
C5 N2 1_555 1_555
C6 N2 1_555 1_555
C7 C6 1_555 1_555
C8 C9 1_555 1_555
C9 C10 1_555 1_555
C10 C11 1_555 1_555
C11 C12 1_555 1_555
C12 N3 1_555 1_555
C13 N3 1_555 1_555
C14 C13 1_555 1_555
H1 C1 1_555 1_555
H2 C3 1_555 1_555
H3 C4 1_555 1_555
H4 C5 1_555 1_555
H5 C6 1_555 1_555
H6 C6 1_555 1_555
H7 C8 1_555 1_555
H8 C10 1_555 1_555
H9 C11 1_555 1_555
H10 C12 1_555 1_555
H11 C13 1_555 1_555
H12 C13 1_555 1_555
H13 O4 1_555 1_555
H14 O6 1_555 1_555
H15 O9 1_555 1_555

#END
