
#######################################################################
#
#                 Cambridge Crystallographic Data Centre
#                                CCDC 
#
#######################################################################
#
# If this CIF has been generated from an entry in the Cambridge 
# Structural Database, then it will include bibliographic, chemical, 
# crystal, experimental, refinement or atomic coordinate data resulting 
# from the CCDC's data processing and validation procedures.
#
#######################################################################

data_GAVMEY
_chemical_formula_moiety         'C15 H14 O4'
_chemical_name_systematic        
'methyl 4-methyl-2-oxo-3,4-dihydrodibenzo[b,d]furan-4a(2H)-carboxylate'
_symmetry_cell_setting           monoclinic
_symmetry_space_group_name_H-M   'P 21/c'
_symmetry_Int_Tables_number      14
_space_group_name_Hall           '-P 2ybc'
loop_
_symmetry_equiv_pos_site_id
_symmetry_equiv_pos_as_xyz
1 x,y,z
2 -x,1/2+y,1/2-z
3 -x,-y,-z
4 x,1/2-y,1/2+z
_cell_length_a                   7.5629(19)
_cell_length_b                   8.205(2)
_cell_length_c                   20.587(5)
_cell_angle_alpha                90
_cell_angle_beta                 91.147(5)
_cell_angle_gamma                90
_cell_volume                     1277.24
_exptl_crystal_colour            yellow
_exptl_crystal_description       prismatic
_cell_formula_units_Z            4
loop_
_atom_site_label
_atom_site_type_symbol
_atom_site_fract_x
_atom_site_fract_y
_atom_site_fract_z
O1 O -0.0877(2) 0.9292(3) 0.22792(8)
O2 O 0.32975(13) 0.60786(13) 0.06049(5)
O3 O 0.55387(16) 0.85572(17) 0.06209(7)
O4 O 0.37667(15) 1.01442(15) 0.12004(6)
C1 C -0.0163(2) 0.8566(2) 0.12190(8)
H1 H -0.1242 0.8931 0.1051
C2 C 0.0203(2) 0.8695(2) 0.19168(9)
C3 C 0.1928(2) 0.8018(2) 0.21819(8)
H2 H 0.1706 0.7506 0.2597
H3 H 0.2732 0.8920 0.2262
C4 C 0.2851(2) 0.6774(2) 0.17467(7)
H4 H 0.2137 0.5778 0.1751
C5 C 0.28479(19) 0.73901(18) 0.10436(7)
C6 C 0.10214(18) 0.79335(17) 0.08177(7)
C7 C 0.08941(19) 0.74126(18) 0.01420(7)
C8 C 0.22453(19) 0.62851(18) 0.00562(7)
C9 C 0.2450(2) 0.5433(2) -0.05172(7)
H5 H 0.3332 0.4655 -0.0563
C10 C 0.1270(2) 0.5802(2) -0.10195(7)
H6 H 0.1378 0.5268 -0.1415
C11 C -0.0068(2) 0.6944(2) -0.09503(8)
H7 H -0.0823 0.7174 -0.1301
C12 C -0.0291(2) 0.7744(2) -0.03651(8)
H8 H -0.1210 0.8483 -0.0313
C13 C 0.4676(3) 0.6326(3) 0.20074(9)
H9 H 0.5213 0.5560 0.1719
H10 H 0.4577 0.5844 0.2430
H11 H 0.5395 0.7288 0.2038
C14 C 0.42267(19) 0.87457(19) 0.09257(7)
C15 C 0.4953(3) 1.1509(2) 0.11045(10)
H12 H 0.6117 1.1228 0.1262
H13 H 0.4532 1.2440 0.1338
H14 H 0.4996 1.1764 0.0650
loop_
_geom_bond_atom_site_label_1
_geom_bond_atom_site_label_2
_geom_bond_site_symmetry_1
_geom_bond_site_symmetry_2
O1 C2 1_555 1_555
O2 C5 1_555 1_555
O3 C14 1_555 1_555
O4 C14 1_555 1_555
C1 H1 1_555 1_555
C2 C1 1_555 1_555
C3 C2 1_555 1_555
H2 C3 1_555 1_555
H3 C3 1_555 1_555
C4 C3 1_555 1_555
H4 C4 1_555 1_555
C5 C4 1_555 1_555
C6 C1 1_555 1_555
C7 C6 1_555 1_555
C8 O2 1_555 1_555
C9 C8 1_555 1_555
H5 C9 1_555 1_555
C10 C9 1_555 1_555
H6 C10 1_555 1_555
C11 C10 1_555 1_555
H7 C11 1_555 1_555
C12 C7 1_555 1_555
H8 C12 1_555 1_555
C13 C4 1_555 1_555
H9 C13 1_555 1_555
H10 C13 1_555 1_555
H11 C13 1_555 1_555
C14 C5 1_555 1_555
C15 O4 1_555 1_555
H12 C15 1_555 1_555
H13 C15 1_555 1_555
H14 C15 1_555 1_555
C5 C6 1_555 1_555
C7 C8 1_555 1_555
C11 C12 1_555 1_555

#END
