
#######################################################################
#
#                 Cambridge Crystallographic Data Centre
#                                CCDC 
#
#######################################################################
#
# If this CIF has been generated from an entry in the Cambridge 
# Structural Database, then it will include bibliographic, chemical, 
# crystal, experimental, refinement or atomic coordinate data resulting 
# from the CCDC's data processing and validation procedures.
#
#######################################################################

data_GAVSEC
_chemical_formula_moiety         'C18 H16 N4'
_chemical_name_systematic        1,4-bis(Imidazol-1-ylmethyl)naphthalene
_symmetry_cell_setting           monoclinic
_symmetry_space_group_name_H-M   'P 21/c'
_symmetry_Int_Tables_number      14
_space_group_name_Hall           '-P 2ybc'
loop_
_symmetry_equiv_pos_site_id
_symmetry_equiv_pos_as_xyz
1 x,y,z
2 -x,1/2+y,1/2-z
3 -x,-y,-z
4 x,1/2-y,1/2+z
_cell_length_a                   8.222(4)
_cell_length_b                   19.541(8)
_cell_length_c                   9.956(3)
_cell_angle_alpha                90
_cell_angle_beta                 114.31(3)
_cell_angle_gamma                90
_cell_volume                     1457.76
_exptl_crystal_colour            colorless
_exptl_crystal_description       Block
_cell_formula_units_Z            4
_exptl_crystal_recrystallization_method 'diethyl ether/methanol'
loop_
_atom_site_label
_atom_site_type_symbol
_atom_site_fract_x
_atom_site_fract_y
_atom_site_fract_z
N1 N 0.5776(3) 0.70133(11) 0.1311(2)
N2 N 0.7139(4) 0.68164(14) -0.0144(3)
N3 N 0.9207(3) 0.53278(11) 0.8107(2)
N4 N 1.1991(4) 0.56693(15) 0.9338(3)
C1 C 0.5171(3) 0.64973(13) 0.3338(2)
C2 C 0.2501(4) 0.67878(15) 0.3780(3)
C3 C 0.1522(4) 0.67338(17) 0.4600(3)
C4 C 0.2133(4) 0.63341(17) 0.5867(3)
C5 C 0.3727(4) 0.60072(15) 0.6325(3)
C6 C 0.6504(3) 0.57283(13) 0.5989(3)
C7 C 0.7393(4) 0.57648(14) 0.5104(3)
C8 C 0.6738(4) 0.61457(14) 0.3793(3)
C9 C 0.4158(3) 0.64498(13) 0.4197(2)
C10 C 0.4798(3) 0.60527(13) 0.5516(2)
C11 C 0.4501(4) 0.69349(16) 0.1971(3)
C12 C 0.5789(5) 0.66531(17) 0.0164(3)
C13 C 0.8019(5) 0.73085(19) 0.0869(4)
C14 C 0.7206(4) 0.74427(17) 0.1771(3)
C15 C 0.7258(4) 0.53583(19) 0.7452(3)
C16 C 1.0281(5) 0.48271(17) 0.7961(3)
C17 C 1.1968(5) 0.5048(2) 0.8720(4)
C18 C 1.0299(5) 0.58145(18) 0.8942(3)
H1 H 0.210(3) 0.7073(10) 0.287(2)
H2 H 0.037(4) 0.6969(13) 0.427(3)
H3 H 0.140(3) 0.6298(12) 0.642(3)
H4 H 0.417(3) 0.5698(13) 0.719(3)
H5 H 0.851(3) 0.5543(12) 0.535(3)
H6 H 0.743(3) 0.6158(10) 0.323(2)
H7 H 0.329(3) 0.6744(11) 0.125(3)
H8 H 0.423(3) 0.7414(12) 0.220(3)
H9 H 0.481(4) 0.6314(16) -0.036(3)
H10 H 0.897(4) 0.7530(14) 0.091(3)
H11 H 0.748(4) 0.7731(15) 0.261(3)
H12 H 0.685(3) 0.4895(14) 0.734(3)
H13 H 0.694(3) 0.5611(12) 0.820(3)
H14 H 0.975(4) 0.4428(16) 0.732(4)
H15 H 1.298(5) 0.4803(17) 0.886(4)
H16 H 0.981(3) 0.6224(14) 0.920(3)
loop_
_geom_bond_atom_site_label_1
_geom_bond_atom_site_label_2
_geom_bond_site_symmetry_1
_geom_bond_site_symmetry_2
N1 C11 1_555 1_555
N2 C12 1_555 1_555
N3 C15 1_555 1_555
N4 C17 1_555 1_555
C1 C8 1_555 1_555
C2 C3 1_555 1_555
C3 C4 1_555 1_555
C4 C5 1_555 1_555
C5 C10 1_555 1_555
C6 C7 1_555 1_555
C7 C8 1_555 1_555
C8 H6 1_555 1_555
C9 C1 1_555 1_555
C10 C6 1_555 1_555
C11 C1 1_555 1_555
C12 N1 1_555 1_555
C13 N2 1_555 1_555
C14 N1 1_555 1_555
C15 C6 1_555 1_555
C16 N3 1_555 1_555
C17 C16 1_555 1_555
C18 N3 1_555 1_555
H1 C2 1_555 1_555
H2 C3 1_555 1_555
H3 C4 1_555 1_555
H4 C5 1_555 1_555
H5 C7 1_555 1_555
H7 C11 1_555 1_555
H8 C11 1_555 1_555
H9 C12 1_555 1_555
H10 C13 1_555 1_555
H11 C14 1_555 1_555
H12 C15 1_555 1_555
H13 C15 1_555 1_555
H14 C16 1_555 1_555
H15 C17 1_555 1_555
H16 C18 1_555 1_555
N4 C18 1_555 1_555
C2 C9 1_555 1_555
C9 C10 1_555 1_555
C13 C14 1_555 1_555

#END
