
#######################################################################
#
#                 Cambridge Crystallographic Data Centre
#                                CCDC 
#
#######################################################################
#
# If this CIF has been generated from an entry in the Cambridge 
# Structural Database, then it will include bibliographic, chemical, 
# crystal, experimental, refinement or atomic coordinate data resulting 
# from the CCDC's data processing and validation procedures.
#
#######################################################################

data_GAWFOB
_chemical_formula_moiety         'C25 H19 N1 O4'
_chemical_name_systematic        'Ethyl 1,3-dibenzoylindolizine-2-carboxylate'
_symmetry_cell_setting           monoclinic
_symmetry_space_group_name_H-M   'P 21/c'
_symmetry_Int_Tables_number      14
_space_group_name_Hall           '-P 2ybc'
loop_
_symmetry_equiv_pos_site_id
_symmetry_equiv_pos_as_xyz
1 x,y,z
2 -x,1/2+y,1/2-z
3 -x,-y,-z
4 x,1/2-y,1/2+z
_cell_length_a                   19.6161(8)
_cell_length_b                   10.4162(4)
_cell_length_c                   10.2144(6)
_cell_angle_alpha                90
_cell_angle_beta                 100.109(5)
_cell_angle_gamma                90
_cell_volume                     2054.66
_exptl_crystal_colour            yellow
_exptl_crystal_description       block
_chemical_melting_point          '130-131 deg.C'
_cell_formula_units_Z            4
loop_
_atom_site_label
_atom_site_type_symbol
_atom_site_fract_x
_atom_site_fract_y
_atom_site_fract_z
O1 O 0.06233(9) 0.50762(17) 0.1273(2)
O2 O 0.24213(9) 0.6705(2) 0.31036(19)
O3 O 0.29702(9) 0.75402(15) 0.15643(17)
O4 O 0.38544(9) 0.39974(19) -0.0096(2)
N1 N 0.17303(11) 0.40896(18) -0.0050(2)
C1 C 0.25362(14) 0.2740(2) -0.0880(3)
H1 H 0.2989 0.2524 -0.0944
C2 C 0.20006(16) 0.2024(2) -0.1512(3)
H2 H 0.2090 0.1316 -0.2010
C3 C 0.13208(15) 0.2333(3) -0.1428(3)
H3 H 0.0960 0.1834 -0.1873
C4 C 0.11800(13) 0.3344(2) -0.0711(3)
H4 H 0.0725 0.3549 -0.0652
C5 C 0.24035(10) 0.37914(18) -0.0141(2)
C6 C 0.17266(11) 0.5203(2) 0.0725(2)
C7 C 0.10942(11) 0.5772(2) 0.1056(2)
C8 C 0.10308(10) 0.7185(2) 0.1088(2)
C9 C 0.06272(11) 0.7754(3) 0.1920(3)
H5 H 0.0408 0.7247 0.2471
C10 C 0.05535(14) 0.9068(3) 0.1925(3)
H6 H 0.0293 0.9451 0.2497
C11 C 0.08616(17) 0.9812(3) 0.1093(4)
H7 H 0.0806 1.0699 0.1095
C12 C 0.12500(15) 0.9263(3) 0.0259(3)
H8 H 0.1455 0.9776 -0.0309
C13 C 0.13400(12) 0.7954(2) 0.0256(2)
H9 H 0.1609 0.7585 -0.0307
C14 C 0.24159(11) 0.5563(2) 0.1120(2)
C15 C 0.26025(11) 0.6650(2) 0.2048(3)
C16 C 0.3156(2) 0.8646(3) 0.2426(4)
H10 H 0.3228 0.8619 0.3350
C17 C 0.3209(3) 0.9734(4) 0.1692(5)
H11 H 0.2774 0.9897 0.1120
H12 H 0.3563 0.9615 0.1162
H13 H 0.3327 1.0451 0.2279
C18 C 0.28435(11) 0.4688(2) 0.0604(2)
C19 C 0.35961(12) 0.4637(2) 0.0704(3)
C20 C 0.40583(11) 0.5364(2) 0.1754(3)
C21 C 0.39678(13) 0.5389(3) 0.3056(3)
H14 H 0.3596 0.4958 0.3309
C22 C 0.44304(15) 0.6059(3) 0.3997(3)
H15 H 0.4375 0.6064 0.4882
C23 C 0.49681(15) 0.6711(4) 0.3618(4)
H16 H 0.5273 0.7175 0.4244
C24 C 0.50608(15) 0.6686(3) 0.2323(4)
H17 H 0.5426 0.7136 0.2069
C25 C 0.46194(13) 0.6002(3) 0.1404(3)
H18 H 0.4695 0.5963 0.0531
loop_
_geom_bond_atom_site_label_1
_geom_bond_atom_site_label_2
_geom_bond_site_symmetry_1
_geom_bond_site_symmetry_2
O1 C7 1_555 1_555
O2 C15 1_555 1_555
O3 C15 1_555 1_555
O4 C19 1_555 1_555
N1 C4 1_555 1_555
C1 H1 1_555 1_555
C2 C1 1_555 1_555
H2 C2 1_555 1_555
C3 C2 1_555 1_555
H3 C3 1_555 1_555
C4 C3 1_555 1_555
H4 C4 1_555 1_555
C5 N1 1_555 1_555
C6 N1 1_555 1_555
C7 C6 1_555 1_555
C8 C7 1_555 1_555
C9 C8 1_555 1_555
H5 C9 1_555 1_555
C10 C9 1_555 1_555
H6 C10 1_555 1_555
C11 C10 1_555 1_555
H7 C11 1_555 1_555
C12 C11 1_555 1_555
H8 C12 1_555 1_555
C13 C8 1_555 1_555
H9 C13 1_555 1_555
C14 C6 1_555 1_555
C15 C14 1_555 1_555
C16 O3 1_555 1_555
H10 C16 1_555 1_555
C17 C16 1_555 1_555
H11 C17 1_555 1_555
H12 C17 1_555 1_555
H13 C17 1_555 1_555
C18 C5 1_555 1_555
C19 C18 1_555 1_555
C20 C19 1_555 1_555
C21 C20 1_555 1_555
H14 C21 1_555 1_555
C22 C21 1_555 1_555
H15 C22 1_555 1_555
C23 C22 1_555 1_555
H16 C23 1_555 1_555
C24 C23 1_555 1_555
H17 C24 1_555 1_555
C25 C20 1_555 1_555
H18 C25 1_555 1_555
C1 C5 1_555 1_555
C12 C13 1_555 1_555
C14 C18 1_555 1_555
C24 C25 1_555 1_555

#END
