
#######################################################################
#
#                 Cambridge Crystallographic Data Centre
#                                CCDC 
#
#######################################################################
#
# If this CIF has been generated from an entry in the Cambridge 
# Structural Database, then it will include bibliographic, chemical, 
# crystal, experimental, refinement or atomic coordinate data resulting 
# from the CCDC's data processing and validation procedures.
#
#######################################################################

data_GAWHEU
_chemical_formula_moiety         'C18 H20 O2'
_chemical_name_systematic        
(S)-5,6,7,8,9,10-hexahydrodibenzo[a,c][10]annulene-1,14-diol
_symmetry_cell_setting           orthorhombic
_symmetry_space_group_name_H-M   'P 21 21 21'
_symmetry_Int_Tables_number      19
_space_group_name_Hall           'P 2ac 2ab'
loop_
_symmetry_equiv_pos_site_id
_symmetry_equiv_pos_as_xyz
1 x,y,z
2 1/2-x,-y,1/2+z
3 1/2+x,1/2-y,-z
4 -x,1/2+y,1/2-z
_cell_length_a                   7.9891(6)
_cell_length_b                   9.8687(6)
_cell_length_c                   18.6908(7)
_cell_angle_alpha                90
_cell_angle_beta                 90
_cell_angle_gamma                90
_cell_volume                     1473.62
_exptl_crystal_colour            colorless
_exptl_crystal_description       column
_chemical_melting_point          '431-432 K'
_cell_formula_units_Z            4
loop_
_atom_site_label
_atom_site_type_symbol
_atom_site_fract_x
_atom_site_fract_y
_atom_site_fract_z
O1 O -0.54336(14) -0.79227(10) -0.04342(6)
H1 H -0.5720 -0.7134 -0.0371
O2 O -0.24694(14) -0.48257(10) 0.01837(6)
H2 H -0.2017 -0.5554 0.0100
C1 C -0.38063(19) -0.79572(14) -0.06701(7)
C2 C -0.05911(19) -0.81239(16) -0.11954(8)
H3 H 0.0491 -0.8193 -0.1375
C3 C -0.2989(2) -0.91968(15) -0.06614(8)
H4 H -0.3512 -0.9965 -0.0480
C4 C -0.30313(17) -0.67826(13) -0.09268(7)
C5 C -0.36421(17) -0.45692(14) -0.03268(7)
C6 C -0.13962(17) -0.68699(15) -0.11998(7)
C7 C -0.61077(18) -0.39426(14) -0.13128(8)
H5 H -0.6954 -0.3733 -0.1636
C8 C -0.57461(18) -0.30498(15) -0.07639(8)
H6 H -0.6339 -0.2242 -0.0725
C9 C -0.05289(17) -0.56526(16) -0.15162(8)
H7 H 0.0560 -0.5549 -0.1293
H8 H -0.1179 -0.4847 -0.1411
C10 C -0.39725(16) -0.54741(13) -0.08885(7)
C11 C -0.45051(19) -0.33523(14) -0.02718(8)
H9 H -0.4252 -0.2745 0.0093
C12 C -0.52275(16) -0.51486(14) -0.13900(7)
C13 C -0.19350(18) -0.60357(17) -0.27389(8)
H10 H -0.2472 -0.6826 -0.2532
H11 H -0.1664 -0.6251 -0.3232
C14 C -0.1374(2) -0.92650(16) -0.09294(8)
H12 H -0.0811 -1.0090 -0.0930
C15 C -0.50227(18) -0.53215(16) -0.27333(8)
H13 H -0.5201 -0.5937 -0.3130
H14 H -0.5734 -0.4538 -0.2808
C16 C -0.55504(17) -0.60311(14) -0.20348(7)
H15 H -0.6733 -0.6251 -0.2058
H16 H -0.4933 -0.6872 -0.1985
C17 C -0.31912(19) -0.48624(16) -0.27352(8)
H17 H -0.2991 -0.4307 -0.2316
H18 H -0.2998 -0.4302 -0.3154
C18 C -0.03017(18) -0.57757(18) -0.23347(8)
H19 H 0.0198 -0.4946 -0.2513
H20 H 0.0470 -0.6511 -0.2434
loop_
_geom_bond_atom_site_label_1
_geom_bond_atom_site_label_2
_geom_bond_site_symmetry_1
_geom_bond_site_symmetry_2
O1 H1 1_555 1_555
O2 H2 1_555 1_555
C1 O1 1_555 1_555
C2 H3 1_555 1_555
C3 C1 1_555 1_555
H4 C3 1_555 1_555
C4 C1 1_555 1_555
C5 O2 1_555 1_555
C6 C2 1_555 1_555
C7 H5 1_555 1_555
C8 C7 1_555 1_555
H6 C8 1_555 1_555
C9 C6 1_555 1_555
H7 C9 1_555 1_555
H8 C9 1_555 1_555
C10 C4 1_555 1_555
C11 C5 1_555 1_555
H9 C11 1_555 1_555
C12 C7 1_555 1_555
C13 H10 1_555 1_555
H11 C13 1_555 1_555
C14 C2 1_555 1_555
H12 C14 1_555 1_555
C15 H13 1_555 1_555
H14 C15 1_555 1_555
C16 C12 1_555 1_555
H15 C16 1_555 1_555
H16 C16 1_555 1_555
C17 C13 1_555 1_555
H17 C17 1_555 1_555
H18 C17 1_555 1_555
C18 C9 1_555 1_555
H19 C18 1_555 1_555
H20 C18 1_555 1_555
C3 C14 1_555 1_555
C4 C6 1_555 1_555
C5 C10 1_555 1_555
C8 C11 1_555 1_555
C10 C12 1_555 1_555
C13 C18 1_555 1_555
C15 C16 1_555 1_555
C15 C17 1_555 1_555

#END
