
#######################################################################
#
#                 Cambridge Crystallographic Data Centre
#                                CCDC 
#
#######################################################################
#
# If this CIF has been generated from an entry in the Cambridge 
# Structural Database, then it will include bibliographic, chemical, 
# crystal, experimental, refinement or atomic coordinate data resulting 
# from the CCDC's data processing and validation procedures.
#
#######################################################################

data_GAWVUW
_chemical_formula_moiety         'C19 H18 O3 Si1,C3 H6 O1'
_chemical_name_systematic        '(Triphenylmethyl)silanetriol acetone solvate'
_symmetry_cell_setting           triclinic
_symmetry_space_group_name_H-M   'P 1'
_symmetry_Int_Tables_number      1
_space_group_name_Hall           'P 1'
loop_
_symmetry_equiv_pos_site_id
_symmetry_equiv_pos_as_xyz
1 x,y,z
_cell_length_a                   8.850(2)
_cell_length_b                   9.654(2)
_cell_length_c                   12.662(2)
_cell_angle_alpha                86.51(2)
_cell_angle_beta                 86.730(10)
_cell_angle_gamma                70.93(2)
_cell_volume                     1019.76
_exptl_crystal_colour            colorless
_chemical_melting_point          '192-193 deg.C(dec.)'
_cell_formula_units_Z            2
loop_
_atom_site_label
_atom_site_type_symbol
_atom_site_fract_x
_atom_site_fract_y
_atom_site_fract_z
Si1 Si 0.85887(18) 0.66712(18) 0.28748(13)
O1 O 0.9552(7) 0.5202(6) 0.3566(4)
H1 H 0.889(7) 0.480(6) 0.374(4)
O2 O 0.8972(8) 0.8063(6) 0.3307(5)
H2 H 0.985(6) 0.796(5) 0.358(4)
O3 O 0.6695(7) 0.6925(7) 0.3018(5)
H3 H 0.6198 0.7704 0.2717
C1 C 0.9229(9) 0.6459(8) 0.1382(5)
C2 C 0.8015(9) 0.7541(9) 0.0726(6)
C3 C 0.7267(11) 0.9006(10) 0.1038(8)
H7 H 0.7535 0.9324 0.1658
C4 C 0.6114(11) 0.9956(10) 0.0382(10)
H8 H 0.5543 1.0894 0.0597
C5 C 0.5822(14) 0.9523(13) -0.0564(9)
H9 H 0.5113 1.0208 -0.1004
C6 C 0.6476(13) 0.8219(13) -0.0882(8)
H10 H 0.6214 0.7961 -0.1526
C7 C 0.7603(9) 0.7176(10) -0.0239(7)
H11 H 0.8077 0.6228 -0.0466
C8 C 1.0890(8) 0.6741(9) 0.1280(6)
C9 C 1.2080(11) 0.5958(12) 0.1927(8)
H12 H 1.1889 0.5258 0.2405
C10 C 1.3581(10) 0.6161(12) 0.1906(7)
H13 H 1.4394 0.5617 0.2345
C11 C 1.3770(13) 0.7318(13) 0.1124(9)
H14 H 1.4707 0.7560 0.1090
C12 C 1.2590(14) 0.8010(13) 0.0467(8)
H15 H 1.2765 0.8662 -0.0059
C13 C 1.1160(11) 0.7788(10) 0.0549(7)
H16 H 1.0344 0.8338 0.0115
C14 C 0.9442(11) 0.4875(9) 0.1103(7)
C15 C 0.8190(13) 0.4316(10) 0.1384(8)
H17 H 0.7280 0.4856 0.1765
C16 C 0.8373(17) 0.2918(13) 0.1068(10)
H18 H 0.7569 0.2513 0.1249
C17 C 0.968(2) 0.2120(13) 0.0503(13)
H19 H 0.9819 0.1152 0.0364
C18 C 1.0765(16) 0.2721(16) 0.0152(12)
H20 H 1.1583 0.2210 -0.0312
C19 C 1.0725(14) 0.4074(11) 0.0447(8)
H21 H 1.1532 0.4455 0.0218
Si2 Si 1.28012(18) 0.61785(17) -0.49113(13)
O4 O 1.2450(7) 0.4791(7) -0.5371(5)
H4 H 1.1732 0.4611 -0.5011
O5 O 1.1851(7) 0.7662(6) -0.5603(5)
H5 H 1.0949 0.7657 -0.5712
O6 O 1.4714(7) 0.5941(8) -0.5036(6)
H6 H 1.5184 0.5133 -0.5272
C20 C 1.2114(9) 0.6424(9) -0.3465(6)
C21 C 1.1969(11) 0.7962(9) -0.3127(7)
C22 C 1.3139(12) 0.8574(11) -0.3403(9)
H22 H 1.3984 0.8055 -0.3844
C23 C 1.3151(16) 0.9928(12) -0.3068(12)
H23 H 1.3991 1.0279 -0.3268
C24 C 1.1915(18) 1.0707(12) -0.2449(9)
H24 H 1.1908 1.1593 -0.2194
C25 C 1.0629(17) 1.0167(11) -0.2188(9)
H25 H 0.9747 1.0715 -0.1787
C26 C 1.0697(14) 0.8777(12) -0.2546(9)
H26 H 0.9849 0.8424 -0.2376
C27 C 1.0555(10) 0.6123(8) -0.3324(7)
C28 C 0.9254(10) 0.6894(12) -0.3970(8)
H27 H 0.9348 0.7607 -0.4473
C29 C 0.7839(13) 0.6560(16) -0.3835(10)
H28 H 0.7018 0.7075 -0.4276
C30 C 0.7554(11) 0.5645(13) -0.3187(9)
H29 H 0.6560 0.5507 -0.3141
C31 C 0.8768(12) 0.4844(12) -0.2540(9)
H30 H 0.8617 0.4121 -0.2067
C32 C 1.0251(11) 0.5126(10) -0.2597(8)
H31 H 1.1037 0.4620 -0.2128
C33 C 1.3391(9) 0.5284(9) -0.2726(7)
C34 C 1.3805(12) 0.5642(10) -0.1774(7)
H32 H 1.3323 0.6590 -0.1547
C35 C 1.4883(14) 0.4667(12) -0.1162(9)
H33 H 1.5123 0.4957 -0.0523
C36 C 1.5668(11) 0.3199(10) -0.1467(8)
H34 H 1.6467 0.2540 -0.1071
C37 C 1.5159(13) 0.2809(10) -0.2408(7)
H35 H 1.5543 0.1844 -0.2616
C38 C 1.4083(11) 0.3880(9) -0.3017(7)
H36 H 1.3819 0.3623 -0.3661
O7 O 0.7658(9) 0.3557(7) 0.4418(8)
C39 C 0.789(5) 0.223(5) 0.471(4)
C40 C 0.744(5) 0.125(2) 0.5064(19)
C41 C 0.920(4) 0.220(4) 0.532(2)
O8 O 0.3662(17) 0.9510(14) 0.3741(10)
C42 C 0.3140(12) 1.0450(7) 0.3177(7)
C43 C 0.417(3) 1.149(2) 0.312(2)
C44 C 0.1341(19) 1.0745(17) 0.2772(11)
loop_
_geom_bond_atom_site_label_1
_geom_bond_atom_site_label_2
_geom_bond_site_symmetry_1
_geom_bond_site_symmetry_2
Si1 O1 1_555 1_555
Si2 O4 1_555 1_555
O1 H1 1_555 1_555
O2 Si1 1_555 1_555
H2 O2 1_555 1_555
O3 Si1 1_555 1_555
H3 O3 1_555 1_555
O4 H4 1_555 1_555
O5 Si2 1_555 1_555
H5 O5 1_555 1_555
O6 Si2 1_555 1_555
H6 O6 1_555 1_555
C1 Si1 1_555 1_555
C2 C1 1_555 1_555
C3 C2 1_555 1_555
H7 C3 1_555 1_555
C4 C3 1_555 1_555
H8 C4 1_555 1_555
C5 C4 1_555 1_555
H9 C5 1_555 1_555
C6 C5 1_555 1_555
H10 C6 1_555 1_555
C7 C2 1_555 1_555
H11 C7 1_555 1_555
C8 C1 1_555 1_555
C9 C8 1_555 1_555
H12 C9 1_555 1_555
C10 C9 1_555 1_555
H13 C10 1_555 1_555
C11 C10 1_555 1_555
H14 C11 1_555 1_555
C12 C11 1_555 1_555
H15 C12 1_555 1_555
C13 C8 1_555 1_555
H16 C13 1_555 1_555
C14 C1 1_555 1_555
C15 C14 1_555 1_555
H17 C15 1_555 1_555
C16 C15 1_555 1_555
H18 C16 1_555 1_555
C17 C16 1_555 1_555
H19 C17 1_555 1_555
C18 C17 1_555 1_555
H20 C18 1_555 1_555
C19 C14 1_555 1_555
H21 C19 1_555 1_555
C20 Si2 1_555 1_555
C21 C20 1_555 1_555
C22 C21 1_555 1_555
H22 C22 1_555 1_555
C23 C22 1_555 1_555
H23 C23 1_555 1_555
C24 C23 1_555 1_555
H24 C24 1_555 1_555
C25 C24 1_555 1_555
H25 C25 1_555 1_555
C26 C21 1_555 1_555
H26 C26 1_555 1_555
C27 C20 1_555 1_555
C28 C27 1_555 1_555
H27 C28 1_555 1_555
C29 C28 1_555 1_555
H28 C29 1_555 1_555
C30 C29 1_555 1_555
H29 C30 1_555 1_555
C31 C30 1_555 1_555
H30 C31 1_555 1_555
C32 C27 1_555 1_555
H31 C32 1_555 1_555
C33 C20 1_555 1_555
C34 C33 1_555 1_555
H32 C34 1_555 1_555
C35 C34 1_555 1_555
H33 C35 1_555 1_555
C36 C35 1_555 1_555
H34 C36 1_555 1_555
C37 C36 1_555 1_555
H35 C37 1_555 1_555
C38 C33 1_555 1_555
H36 C38 1_555 1_555
O7 C39 1_555 1_555
O8 C42 1_555 1_555
C39 C40 1_555 1_555
C41 C39 1_555 1_555
C42 C43 1_555 1_555
C44 C42 1_555 1_555
C6 C7 1_555 1_555
C12 C13 1_555 1_555
C18 C19 1_555 1_555
C25 C26 1_555 1_555
C31 C32 1_555 1_555
C37 C38 1_555 1_555

#END
