
#######################################################################
#
#                 Cambridge Crystallographic Data Centre
#                                CCDC 
#
#######################################################################
#
# If this CIF has been generated from an entry in the Cambridge 
# Structural Database, then it will include bibliographic, chemical, 
# crystal, experimental, refinement or atomic coordinate data resulting 
# from the CCDC's data processing and validation procedures.
#
#######################################################################

data_GAWWOT
_chemical_formula_moiety         'C18 H21 N1 O3'
_chemical_name_systematic        
(4,5-dimethoxy-2-(1-methyl-2,3-dihydro-1H-indol-7-yl)phenyl)methanol
_symmetry_cell_setting           triclinic
_symmetry_space_group_name_H-M   'P -1'
_symmetry_Int_Tables_number      2
_space_group_name_Hall           '-P 1'
loop_
_symmetry_equiv_pos_site_id
_symmetry_equiv_pos_as_xyz
1 x,y,z
2 -x,-y,-z
_cell_length_a                   8.0070(4)
_cell_length_b                   8.6147(3)
_cell_length_c                   12.8193(6)
_cell_angle_alpha                84.737(4)
_cell_angle_beta                 79.243(4)
_cell_angle_gamma                63.307(4)
_cell_volume                     776.097
_exptl_crystal_colour            colorless
_exptl_crystal_description       plate
_cell_formula_units_Z            2
loop_
_atom_site_label
_atom_site_type_symbol
_atom_site_fract_x
_atom_site_fract_y
_atom_site_fract_z
N1 N 0.80935(11) 0.77500(10) 0.11276(6)
C1 C 0.86793(15) 0.89811(14) 0.04637(9)
C2 C 0.68527(15) 1.06246(13) 0.03628(8)
C3 C 0.55171(14) 1.04805(12) 0.13229(8)
C4 C 0.37205(15) 1.16855(13) 0.17537(9)
C5 C 0.27115(15) 1.11942(14) 0.26165(9)
C6 C 0.34930(15) 0.95121(14) 0.30263(8)
C7 C 0.52881(14) 0.82592(12) 0.25841(8)
C8 C 0.63010(13) 0.87878(12) 0.17371(8)
C9 C 0.60339(13) 0.64423(12) 0.30104(8)
C10 C 0.66280(13) 0.61226(13) 0.40029(8)
C11 C 0.74097(13) 0.44561(13) 0.44169(8)
C12 C 0.75998(13) 0.30569(13) 0.38351(8)
C13 C 0.69925(14) 0.33763(13) 0.28616(8)
C14 C 0.61940(13) 0.50700(13) 0.24382(8)
C15 C 0.96298(14) 0.65101(14) 0.16759(9)
O1 O 0.80466(11) 0.40256(10) 0.53672(6)
C16 C 0.78263(16) 0.54356(15) 0.59766(9)
O2 O 0.83939(11) 0.14614(9) 0.43100(6)
C17 C 0.8544(2) 0.00191(15) 0.37705(11)
C18 C 0.55376(15) 0.53582(14) 0.13748(8)
O3 O 0.69910(13) 0.52086(11) 0.04930(6)
H1 H 0.949(2) 0.9271(18) 0.0851(11)
H2 H 0.942(2) 0.8444(18) -0.0213(11)
H3 H 0.7009(19) 1.1667(18) 0.0367(10)
H4 H 0.6377(19) 1.0603(17) -0.0299(11)
H5 H 0.3183(19) 1.2843(18) 0.1431(11)
H6 H 0.146(2) 1.2012(19) 0.2928(11)
H7 H 0.2789(19) 0.9148(18) 0.3621(11)
H8 H 0.6490(18) 0.7103(17) 0.4397(10)
H9 H 0.7057(18) 0.2440(17) 0.2460(10)
H10 H 0.937(2) 0.5539(19) 0.1987(12)
H11 H 0.984(2) 0.7107(19) 0.2261(12)
H12 H 1.081(2) 0.6029(19) 0.1136(12)
H13 H 0.829(2) 0.489(2) 0.6635(13)
H14 H 0.859(2) 0.603(2) 0.5594(12)
H15 H 0.649(2) 0.632(2) 0.6124(12)
H16 H 0.915(3) -0.100(2) 0.4213(14)
H17 H 0.937(3) -0.014(2) 0.3031(15)
H18 H 0.729(3) 0.013(2) 0.3697(14)
H19 H 0.4421(19) 0.6546(18) 0.1349(10)
H20 H 0.5130(19) 0.4466(18) 0.1264(11)
H21 H 0.741(2) 0.600(2) 0.0593(13)
loop_
_geom_bond_atom_site_label_1
_geom_bond_atom_site_label_2
_geom_bond_site_symmetry_1
_geom_bond_site_symmetry_2
N1 C1 1_555 1_555
C1 C2 1_555 1_555
C2 C3 1_555 1_555
C3 C4 1_555 1_555
C4 C5 1_555 1_555
C5 C6 1_555 1_555
C6 C7 1_555 1_555
C7 C8 1_555 1_555
C8 N1 1_555 1_555
C9 C7 1_555 1_555
C10 C9 1_555 1_555
C11 C10 1_555 1_555
C12 C11 1_555 1_555
C13 C12 1_555 1_555
C14 C9 1_555 1_555
C15 N1 1_555 1_555
O1 C11 1_555 1_555
C16 O1 1_555 1_555
O2 C12 1_555 1_555
C17 O2 1_555 1_555
C18 C14 1_555 1_555
O3 C18 1_555 1_555
H1 C1 1_555 1_555
H2 C1 1_555 1_555
H3 C2 1_555 1_555
H4 C2 1_555 1_555
H5 C4 1_555 1_555
H6 C5 1_555 1_555
H7 C6 1_555 1_555
H8 C10 1_555 1_555
H9 C13 1_555 1_555
H10 C15 1_555 1_555
H11 C15 1_555 1_555
H12 C15 1_555 1_555
H13 C16 1_555 1_555
H14 C16 1_555 1_555
H15 C16 1_555 1_555
H16 C17 1_555 1_555
H17 C17 1_555 1_555
H18 C17 1_555 1_555
H19 C18 1_555 1_555
H20 C18 1_555 1_555
H21 O3 1_555 1_555
C3 C8 1_555 1_555
C13 C14 1_555 1_555

#END
