
#######################################################################
#
#                 Cambridge Crystallographic Data Centre
#                                CCDC 
#
#######################################################################
#
# If this CIF has been generated from an entry in the Cambridge 
# Structural Database, then it will include bibliographic, chemical, 
# crystal, experimental, refinement or atomic coordinate data resulting 
# from the CCDC's data processing and validation procedures.
#
#######################################################################

data_GAWZEM
_chemical_formula_moiety         'C25 H27 N1 O2 S3'
_chemical_name_systematic        
3,25-dioxa-11,14,17-trithia-31-azatetracyclo[25.3.1.0^4,9^.0^19,24^]hentriaconta-1(31),4,6,8,19,21,23,27,29-nonaene
_symmetry_cell_setting           triclinic
_symmetry_space_group_name_H-M   'P -1'
_symmetry_Int_Tables_number      2
_space_group_name_Hall           '-P 1'
loop_
_symmetry_equiv_pos_site_id
_symmetry_equiv_pos_as_xyz
1 x,y,z
2 -x,-y,-z
_cell_length_a                   8.1248(2)
_cell_length_b                   8.5333(2)
_cell_length_c                   18.2789(5)
_cell_angle_alpha                101.403(2)
_cell_angle_beta                 91.947(2)
_cell_angle_gamma                113.320(2)
_cell_volume                     1131.9
_exptl_crystal_colour            colorless
_exptl_crystal_description       block
_cell_formula_units_Z            2
loop_
_atom_site_label
_atom_site_type_symbol
_atom_site_fract_x
_atom_site_fract_y
_atom_site_fract_z
S1 S -0.27021(6) -0.50369(5) 0.05257(2)
S2 S -0.02811(6) -0.33400(5) 0.29042(2)
S3 S -0.04488(6) 0.14583(5) 0.42343(2)
O1 O 0.14570(15) -0.15928(15) 0.05358(6)
O2 O 0.37770(15) 0.28049(14) 0.33892(7)
N1 N 0.44573(17) 0.08301(16) 0.19571(7)
C1 C 0.2284(2) 0.4476(2) 0.39685(9)
C2 C 0.2337(2) 0.6016(2) 0.44146(9)
H1 H 0.1235 0.6114 0.4510
C3 C 0.3961(3) 0.7419(2) 0.47247(10)
H2 H 0.3970 0.8463 0.5029
C4 C 0.5561(3) 0.7282(2) 0.45866(10)
H3 H 0.6676 0.8238 0.4798
C5 C 0.5560(2) 0.5765(2) 0.41417(9)
H4 H 0.6669 0.5682 0.4047
C6 C 0.3928(2) 0.4367(2) 0.38347(9)
C7 C 0.5427(2) 0.2650(2) 0.32155(9)
H5 H 0.6143 0.2719 0.3679
H6 H 0.6163 0.3605 0.2979
C8 C 0.4897(2) 0.0900(2) 0.26820(9)
C9 C 0.4837(2) -0.0547(2) 0.29351(10)
H7 H 0.5155 -0.0449 0.3452
C10 C 0.4307(2) -0.2139(2) 0.24208(10)
H8 H 0.4254 -0.3152 0.2579
C11 C 0.3857(2) -0.2226(2) 0.16758(10)
H9 H 0.3501 -0.3298 0.1310
C12 C 0.3933(2) -0.0719(2) 0.14678(9)
C13 C 0.3388(2) -0.0781(2) 0.06663(9)
H10 H 0.3840 0.0420 0.0580
H11 H 0.3900 -0.1468 0.0320
C14 C 0.0658(2) -0.18468(19) -0.01755(9)
C15 C 0.1593(2) -0.1492(2) -0.07839(9)
H12 H 0.2874 -0.1048 -0.0724
C16 C 0.0654(2) -0.1787(2) -0.14834(10)
H13 H 0.1300 -0.1537 -0.1900
C17 C -0.1203(2) -0.2438(2) -0.15777(10)
H14 H -0.1842 -0.2644 -0.2056
C18 C -0.2128(2) -0.2788(2) -0.09636(9)
H15 H -0.3409 -0.3239 -0.1029
C19 C -0.1233(2) -0.24993(19) -0.02580(9)
C20 C -0.2247(2) -0.2842(2) 0.04029(9)
H16 H -0.3401 -0.2726 0.0324
H17 H -0.1528 -0.1964 0.0863
C21 C -0.2545(2) -0.4672(2) 0.15407(9)
H18 H -0.3144 -0.3894 0.1736
H19 H -0.3178 -0.5804 0.1683
C22 C -0.0591(2) -0.3845(2) 0.18898(9)
H20 H 0.0043 -0.2750 0.1719
H21 H -0.0018 -0.4653 0.1702
C23 C -0.0733(3) -0.1391(2) 0.31123(10)
H22 H -0.0312 -0.0708 0.2725
H23 H -0.2049 -0.1729 0.3108
C24 C 0.0240(2) -0.0288(2) 0.38780(9)
H24 H 0.1555 0.0226 0.3847
H25 H 0.0017 -0.1056 0.4238
C25 C 0.0509(2) 0.2994(2) 0.36385(9)
H26 H 0.0665 0.2341 0.3154
H27 H -0.0365 0.3488 0.3530
loop_
_geom_bond_atom_site_label_1
_geom_bond_atom_site_label_2
_geom_bond_site_symmetry_1
_geom_bond_site_symmetry_2
S1 C20 1_555 1_555
S2 C22 1_555 1_555
S3 C24 1_555 1_555
O1 C13 1_555 1_555
O2 C6 1_555 1_555
N1 C8 1_555 1_555
C1 C2 1_555 1_555
C2 H1 1_555 1_555
C3 C2 1_555 1_555
H2 C3 1_555 1_555
C4 C3 1_555 1_555
H3 C4 1_555 1_555
C5 C4 1_555 1_555
H4 C5 1_555 1_555
C6 C1 1_555 1_555
C7 O2 1_555 1_555
H5 C7 1_555 1_555
H6 C7 1_555 1_555
C8 C7 1_555 1_555
C9 C8 1_555 1_555
H7 C9 1_555 1_555
C10 C9 1_555 1_555
H8 C10 1_555 1_555
C11 C10 1_555 1_555
H9 C11 1_555 1_555
C12 N1 1_555 1_555
C13 C12 1_555 1_555
H10 C13 1_555 1_555
H11 C13 1_555 1_555
C14 O1 1_555 1_555
C15 C14 1_555 1_555
H12 C15 1_555 1_555
C16 C15 1_555 1_555
H13 C16 1_555 1_555
C17 C16 1_555 1_555
H14 C17 1_555 1_555
C18 C17 1_555 1_555
H15 C18 1_555 1_555
C19 C14 1_555 1_555
C20 C19 1_555 1_555
H16 C20 1_555 1_555
H17 C20 1_555 1_555
C21 S1 1_555 1_555
H18 C21 1_555 1_555
H19 C21 1_555 1_555
C22 C21 1_555 1_555
H20 C22 1_555 1_555
H21 C22 1_555 1_555
C23 S2 1_555 1_555
H22 C23 1_555 1_555
H23 C23 1_555 1_555
C24 C23 1_555 1_555
H24 C24 1_555 1_555
H25 C24 1_555 1_555
C25 S3 1_555 1_555
H26 C25 1_555 1_555
H27 C25 1_555 1_555
C1 C25 1_555 1_555
C5 C6 1_555 1_555
C11 C12 1_555 1_555
C18 C19 1_555 1_555

#END
