
#######################################################################
#
#                 Cambridge Crystallographic Data Centre
#                                CCDC 
#
#######################################################################
#
# If this CIF has been generated from an entry in the Cambridge 
# Structural Database, then it will include bibliographic, chemical, 
# crystal, experimental, refinement or atomic coordinate data resulting 
# from the CCDC's data processing and validation procedures.
#
#######################################################################

data_GAXHAQ
_chemical_formula_moiety         'C25 H26 O2 S2'
_chemical_name_systematic        
11,15-Dioxa-3,23-dithiatetracyclo[23.2.2.0^5,10^.0^16,21^]nonacosa-1(27),5,7,9,16,18,20,25,28-nonaene
_symmetry_cell_setting           orthorhombic
_symmetry_space_group_name_H-M   'P 21 21 21'
_symmetry_Int_Tables_number      19
_space_group_name_Hall           'P 2ac 2ab'
loop_
_symmetry_equiv_pos_site_id
_symmetry_equiv_pos_as_xyz
1 x,y,z
2 1/2-x,-y,1/2+z
3 -x,1/2+y,1/2-z
4 1/2+x,1/2-y,-z
_cell_length_a                   5.5135(2)
_cell_length_b                   8.1356(3)
_cell_length_c                   47.2858(14)
_cell_angle_alpha                90
_cell_angle_beta                 90
_cell_angle_gamma                90
_cell_volume                     2121.03
_exptl_crystal_colour            colorless
_exptl_crystal_description       block
_cell_formula_units_Z            4
loop_
_atom_site_label
_atom_site_type_symbol
_atom_site_fract_x
_atom_site_fract_y
_atom_site_fract_z
S1 S 0.70146(13) 1.03564(9) 0.053444(13)
S2 S 0.71080(11) 0.95425(8) 0.204345(12)
O1 O 1.0266(4) 0.6330(3) 0.16457(4)
O2 O 1.0118(4) 0.6716(3) 0.07837(5)
C1 C 1.2022(8) 0.5286(5) 0.14662(8)
H1 H 1.3613 0.5182 0.1561
H2 H 1.1351 0.4173 0.1434
C2 C 1.0115(14) 0.5867(9) 0.10050(13)
H3 H 1.0089 0.4692 0.0951
H4 H 0.8599 0.6097 0.1110
C3 C 1.2262(5) 0.6149(3) 0.12046(5)
H5 H 1.3772 0.5790 0.1110
H6 H 1.2409 0.7340 0.1244
C4 C 0.8912(5) 0.6167(4) 0.05477(5)
C5 C 0.9767(5) 0.4845(4) 0.03898(6)
H7 H 1.1198 0.4285 0.0447
C6 C 0.8550(6) 0.4346(4) 0.01513(6)
H8 H 0.9146 0.3452 0.0042
C7 C 0.6467(6) 0.5145(3) 0.00713(6)
H9 H 0.5603 0.4790 -0.0091
C8 C 0.5628(5) 0.6459(3) 0.02259(5)
H10 H 0.4206 0.7014 0.0165
C9 C 0.6800(5) 0.6996(3) 0.04685(5)
C10 C 0.5800(5) 0.8378(3) 0.06420(6)
H11 H 0.6193 0.8186 0.0844
H12 H 0.4012 0.8396 0.0623
C11 C 0.4773(5) 1.1695(3) 0.06966(5)
H13 H 0.5148 1.2849 0.0646
H14 H 0.3154 1.1429 0.0618
C12 C 0.4686(4) 1.1541(3) 0.10146(4)
C13 C 0.6584(4) 1.2150(3) 0.11787(5)
H15 H 0.7891 1.2705 0.1089
C14 C 0.2791(4) 1.0763(3) 0.11504(5)
H16 H 0.1471 1.0349 0.1043
C15 C 0.6602(4) 1.1963(3) 0.14674(5)
H17 H 0.7922 1.2383 0.1574
C16 C 0.2788(4) 1.0576(3) 0.14437(5)
H18 H 0.1464 1.0042 0.1534
C17 C 0.4707(4) 1.1165(3) 0.16049(4)
C18 C 0.4771(5) 1.0938(3) 0.19213(5)
H19 H 0.3175 1.0519 0.1984
H20 H 0.5026 1.2023 0.2011
C19 C 0.6012(5) 0.7649(3) 0.18857(5)
H21 H 0.4250 0.7533 0.1921
H22 H 0.6279 0.7675 0.1679
C20 C 0.7343(4) 0.6219(3) 0.20127(4)
C21 C 0.6536(4) 0.5486(3) 0.22618(5)
H23 H 0.5108 0.5886 0.2351
C22 C 0.7782(5) 0.4182(3) 0.23825(5)
H24 H 0.7200 0.3697 0.2552
C23 C 0.9858(5) 0.3586(3) 0.22574(5)
H25 H 1.0721 0.2701 0.2342
C24 C 1.0678(5) 0.4279(4) 0.20095(5)
H26 H 1.2090 0.3855 0.1920
C25 C 0.9445(4) 0.5597(4) 0.18892(5)
C26? C 1.0175(13) 0.5765(10) 0.14091(11)
C27? C 1.1842(10) 0.5447(7) 0.09258(10)
H27? H 0.8652 0.6154 0.1321
H28? H 1.0053 0.4555 0.1426
H29? H 1.3795 0.5702 0.1282
H30? H 1.2443 0.7356 0.1188
H31? H 1.1062 0.4354 0.0940
H32? H 1.3378 0.5340 0.0819
loop_
_geom_bond_atom_site_label_1
_geom_bond_atom_site_label_2
_geom_bond_site_symmetry_1
_geom_bond_site_symmetry_2
S1 C10 1_555 1_555
S2 C18 1_555 1_555
O1 C1 1_555 1_555
O2 C2 1_555 1_555
C1 H1 1_555 1_555
H2 C1 1_555 1_555
C2 H3 1_555 1_555
H4 C2 1_555 1_555
C3 C1 1_555 1_555
H5 C3 1_555 1_555
H6 C3 1_555 1_555
C4 O2 1_555 1_555
C5 C4 1_555 1_555
H7 C5 1_555 1_555
C6 C5 1_555 1_555
H8 C6 1_555 1_555
C7 C6 1_555 1_555
H9 C7 1_555 1_555
C8 C7 1_555 1_555
H10 C8 1_555 1_555
C9 C4 1_555 1_555
C10 C9 1_555 1_555
H11 C10 1_555 1_555
H12 C10 1_555 1_555
C11 S1 1_555 1_555
H13 C11 1_555 1_555
H14 C11 1_555 1_555
C12 C11 1_555 1_555
C13 C12 1_555 1_555
H15 C13 1_555 1_555
C14 C12 1_555 1_555
H16 C14 1_555 1_555
C15 C13 1_555 1_555
H17 C15 1_555 1_555
C16 C14 1_555 1_555
H18 C16 1_555 1_555
C17 C15 1_555 1_555
C18 C17 1_555 1_555
H19 C18 1_555 1_555
H20 C18 1_555 1_555
C19 S2 1_555 1_555
H21 C19 1_555 1_555
H22 C19 1_555 1_555
C20 C19 1_555 1_555
C21 C20 1_555 1_555
H23 C21 1_555 1_555
C22 C21 1_555 1_555
H24 C22 1_555 1_555
C23 C22 1_555 1_555
H25 C23 1_555 1_555
C24 C23 1_555 1_555
H26 C24 1_555 1_555
C25 O1 1_555 1_555
C2 C3 1_555 1_555
C8 C9 1_555 1_555
C16 C17 1_555 1_555
C20 C25 1_555 1_555
C24 C25 1_555 1_555

#END
