
#######################################################################
#
#                 Cambridge Crystallographic Data Centre
#                                CCDC 
#
#######################################################################
#
# If this CIF has been generated from an entry in the Cambridge 
# Structural Database, then it will include bibliographic, chemical, 
# crystal, experimental, refinement or atomic coordinate data resulting 
# from the CCDC's data processing and validation procedures.
#
#######################################################################

data_GAXXUY
_chemical_formula_moiety         'C12 H12 S8 1+,C12 H12 S8,Cl2 I1 1-'
_chemical_name_systematic        
'bis(bis(Propylenedithio)tetrathiafulvalenium) dichloro-iodide'
_symmetry_cell_setting           monoclinic
_symmetry_space_group_name_H-M   'P 2/c'
_symmetry_Int_Tables_number      13
_space_group_name_Hall           '-P 2yc'
loop_
_symmetry_equiv_pos_site_id
_symmetry_equiv_pos_as_xyz
1 x,y,z
2 -x,y,1/2-z
3 -x,-y,-z
4 x,-y,1/2+z
_cell_length_a                   15.958(8)
_cell_length_b                   6.912(2)
_cell_length_c                   17.001(6)
_cell_angle_alpha                90
_cell_angle_beta                 100.33(3)
_cell_angle_gamma                90
_cell_volume                     1844.84
_exptl_crystal_colour            black
_cell_formula_units_Z            2
loop_
_atom_site_label
_atom_site_type_symbol
_atom_site_fract_x
_atom_site_fract_y
_atom_site_fract_z
I1 I 0.00000 0.17078(4) 0.2500
Cl1 Cl 0.02799(5) 0.17009(12) 0.10652(4)
Cl1A Cl -0.02799(5) 0.17009(12) 0.39348(4)
S1 S 0.62352(5) 0.65726(11) 0.47262(4)
S2 S 0.57812(5) 0.24705(11) 0.44358(5)
S3 S 0.45499(5) 0.78143(11) 0.34319(4)
S4 S 0.41122(5) 0.36987(11) 0.31766(4)
S5 S 0.78238(5) 0.57425(11) 0.58916(4)
S6 S 0.72363(5) 0.09397(11) 0.56047(4)
S7 S 0.32786(5) 0.92557(11) 0.20828(4)
S8 S 0.27157(5) 0.43637(11) 0.17979(4)
C1 C 0.5521(2) 0.4890(4) 0.4224(2)
C2 C 0.4818(2) 0.5406(4) 0.3676(2)
C3 C 0.6925(2) 0.4847(4) 0.5253(2)
C4 C 0.6713(2) 0.2968(4) 0.5125(2)
C5 C 0.3704(2) 0.7255(4) 0.2656(2)
C6 C 0.3497(2) 0.5366(4) 0.2538(2)
C7 C 0.8695(2) 0.4619(5) 0.5495(2)
C8 C 0.8898(2) 0.2521(5) 0.5732(2)
C9 C 0.8276(2) 0.1034(5) 0.5305(2)
C10 C 0.2147(2) 0.9163(4) 0.2123(2)
C11 C 0.1628(2) 0.7647(5) 0.1600(2)
C12 C 0.1741(2) 0.5593(5) 0.1923(2)
H1 H 0.9221 0.5404 0.5679
H2 H 0.8547 0.4671 0.4896
H3 H 0.8904 0.2397 0.6320
H4 H 0.9478 0.2212 0.5619
H5 H 0.8183 0.1332 0.4718
H6 H 0.8545 -0.0273 0.5399
H7 H 0.1897 1.0461 0.1962
H8 H 0.2090 0.8896 0.2692
H9 H 0.1802 0.7672 0.1062
H10 H 0.1011 0.7999 0.1539
H11 H 0.1727 0.5644 0.2510
H12 H 0.1249 0.4803 0.1648
loop_
_geom_bond_atom_site_label_1
_geom_bond_atom_site_label_2
_geom_bond_site_symmetry_1
_geom_bond_site_symmetry_2
S1 C1 1_555 1_555
S2 C1 1_555 1_555
S3 C2 1_555 1_555
S4 C2 1_555 1_555
S5 C3 1_555 1_555
S6 C4 1_555 1_555
S7 C5 1_555 1_555
S8 C6 1_555 1_555
C1 C2 1_555 1_555
C3 S1 1_555 1_555
C4 S2 1_555 1_555
C5 S3 1_555 1_555
C6 S4 1_555 1_555
C7 S5 1_555 1_555
C8 C7 1_555 1_555
C9 S6 1_555 1_555
C10 S7 1_555 1_555
C11 C10 1_555 1_555
C12 S8 1_555 1_555
H1 C7 1_555 1_555
H2 C7 1_555 1_555
H3 C8 1_555 1_555
H4 C8 1_555 1_555
H5 C9 1_555 1_555
H6 C9 1_555 1_555
H7 C10 1_555 1_555
H8 C10 1_555 1_555
H9 C11 1_555 1_555
H10 C11 1_555 1_555
H11 C12 1_555 1_555
H12 C12 1_555 1_555
I1 Cl1 1_555 1_555
Cl1A I1 1_555 1_555
C3 C4 1_555 1_555
C5 C6 1_555 1_555
C8 C9 1_555 1_555
C11 C12 1_555 1_555

#END
