
#######################################################################
#
#                 Cambridge Crystallographic Data Centre
#                                CCDC 
#
#######################################################################
#
# If this CIF has been generated from an entry in the Cambridge 
# Structural Database, then it will include bibliographic, chemical, 
# crystal, experimental, refinement or atomic coordinate data resulting 
# from the CCDC's data processing and validation procedures.
#
#######################################################################

data_GAXZAG
_chemical_formula_moiety         'C12 H32 Li2 O10 2+,2(Br1 1-),H2 O1'
_chemical_name_systematic        
"(\m~2~-Aqua)-(\m~2~-18-crown-6-O,O',O',O'',O''')-tri-aqua-di-lithium dibromide monohydrate"
_symmetry_cell_setting           monoclinic
_symmetry_space_group_name_H-M   'C c'
_symmetry_Int_Tables_number      9
_space_group_name_Hall           'C -2yc'
loop_
_symmetry_equiv_pos_site_id
_symmetry_equiv_pos_as_xyz
1 x,y,z
2 1/2+x,1/2+y,z
3 x,-y,1/2+z
4 1/2+x,1/2-y,1/2+z
_cell_length_a                   18.121(5)
_cell_length_b                   9.745(2)
_cell_length_c                   16.140(3)
_cell_angle_alpha                90
_cell_angle_beta                 126.74(1)
_cell_angle_gamma                90
_cell_volume                     2283.99
_cell_formula_units_Z            4
_chemical_properties_physical    oisture-sensitive
loop_
_atom_site_label
_atom_site_type_symbol
_atom_site_fract_x
_atom_site_fract_y
_atom_site_fract_z
Br1 Br 1.0000 0.7749(1) 0.5000
Br2 Br 1.0235(1) 0.3339(1) 0.6842(1)
Li1 Li 0.7803(16) 0.6391(21) 0.5464(16)
Li2 Li 0.6839(15) 0.9338(24) 0.5322(16)
O1 O 0.7581(5) 0.8785(9) 0.4578(6)
O2 O 0.6991(6) 0.6143(9) 0.3841(6)
O3 O 0.7305(6) 0.4392(9) 0.5296(7)
O4 O 0.8409(7) 0.5094(10) 0.7391(7)
O5 O 0.8571(6) 0.7972(9) 0.7901(7)
O6 O 0.8164(6) 1.0034(9) 0.6343(7)
O7 O 0.7115(6) 0.7396(8) 0.5837(7)
O8 O 0.9057(6) 0.6299(10) 0.6017(8)
O9 O 0.6381(7) 1.0016(11) 0.6110(8)
O10 O 0.5910(7) 1.0445(11) 0.4105(8)
C1 C 0.7105(12) 0.8432(16) 0.3484(11)
C2 C 0.6477(11) 0.7308(16) 0.3183(11)
C3 C 0.6482(10) 0.4911(16) 0.3536(12)
C4 C 0.7067(12) 0.3870(17) 0.4357(13)
C5 C 0.7748(10) 0.3394(14) 0.6088(12)
C6 C 0.7858(10) 0.3893(13) 0.7033(11)
C7 C 0.8479(11) 0.5615(18) 0.8218(11)
C8 C 0.9054(12) 0.6844(14) 0.8602(12)
C9 C 0.9159(11) 0.9082(15) 0.8095(11)
C10 C 0.8622(10) 1.0280(14) 0.7411(9)
C11 C 0.8764(9) 0.9912(14) 0.6055(12)
C12 C 0.8198(9) 0.9904(15) 0.4904(12)
O11 O 0.5850(7) 0.4061(10) 0.0850(8)
loop_
_geom_bond_atom_site_label_1
_geom_bond_atom_site_label_2
_geom_bond_site_symmetry_1
_geom_bond_site_symmetry_2
Li1 O1 1_555 1_555
Li2 O1 1_555 1_555
O1 C1 1_555 1_555
O2 Li1 1_555 1_555
O3 Li1 1_555 1_555
O4 C6 1_555 1_555
O5 C8 1_555 1_555
O6 Li2 1_555 1_555
O7 Li1 1_555 1_555
O8 Li1 1_555 1_555
O9 Li2 1_555 1_555
O10 Li2 1_555 1_555
C1 C2 1_555 1_555
C2 O2 1_555 1_555
C3 O2 1_555 1_555
C4 O3 1_555 1_555
C5 O3 1_555 1_555
C6 C5 1_555 1_555
C7 O4 1_555 1_555
C8 C7 1_555 1_555
C9 O5 1_555 1_555
C10 O6 1_555 1_555
C11 O6 1_555 1_555
C12 O1 1_555 1_555
Li2 O7 1_555 1_555
C3 C4 1_555 1_555
C9 C10 1_555 1_555
C11 C12 1_555 1_555

#END
