
#######################################################################
#
#                 Cambridge Crystallographic Data Centre
#                                CCDC 
#
#######################################################################
#
# If this CIF has been generated from an entry in the Cambridge 
# Structural Database, then it will include bibliographic, chemical, 
# crystal, experimental, refinement or atomic coordinate data resulting 
# from the CCDC's data processing and validation procedures.
#
#######################################################################

data_GAYJEY
_chemical_formula_moiety         'C28 H29 Cl1 N2 O2 S1'
_chemical_name_systematic        
16-((4-chlorophenyl)sulfonyl)-8-(4-methylbenzyl)-8,16-diazatetracyclo[7.4.3.0^1,9^.0^2,7^]hexadeca-2,4,6-triene
_symmetry_cell_setting           orthorhombic
_symmetry_space_group_name_H-M   'P 21 21 21'
_symmetry_Int_Tables_number      19
_space_group_name_Hall           'P 2ac 2ab'
loop_
_symmetry_equiv_pos_site_id
_symmetry_equiv_pos_as_xyz
1 x,y,z
2 1/2-x,-y,1/2+z
3 1/2+x,1/2-y,-z
4 -x,1/2+y,1/2-z
_cell_length_a                   9.6650(8)
_cell_length_b                   10.8809(10)
_cell_length_c                   22.7957(19)
_cell_angle_alpha                90
_cell_angle_beta                 90
_cell_angle_gamma                90
_cell_volume                     2397.28
_cell_formula_units_Z            4
loop_
_atom_site_label
_atom_site_type_symbol
_atom_site_fract_x
_atom_site_fract_y
_atom_site_fract_z
S1 S 0.71026(4) 0.23318(4) 0.22973(2)
Cl1 Cl 1.35182(5) 0.28311(5) 0.20391(2)
C1 C 0.89378(18) 0.24491(17) 0.22812(8)
O1 O 0.67894(15) 0.10378(13) 0.23022(6)
N1 N 0.76363(17) 0.17810(15) 0.37221(7)
C2 C 0.9645(2) 0.33300(19) 0.26036(8)
H1 H 0.9159 0.3852 0.2866
O2 O 0.66134(14) 0.30755(15) 0.18183(6)
C3 C 0.8001(2) 0.48208(18) 0.43117(9)
H2 H 0.7397 0.5485 0.4398
C4 C 1.17410(19) 0.26747(18) 0.21478(8)
C5 C 0.9782(2) 0.28210(19) 0.40899(8)
H3 H 1.0377 0.2140 0.4023
C6 C 1.0291(2) 0.3925(2) 0.43213(9)
H4 H 1.1252 0.4002 0.4401
C7 C 0.9627(2) 0.16757(19) 0.18929(9)
H5 H 0.9132 0.1074 0.1676
C8 C 0.8024(2) -0.02040(19) 0.45719(9)
H6 H 0.7175 0.0232 0.4599
C9 C 0.8379(2) 0.27566(18) 0.39618(8)
C10 C 0.8833(2) -0.00893(17) 0.40693(9)
C11 C 0.8445(2) -0.0947(2) 0.50333(9)
H7 H 0.7872 -0.1013 0.5371
C12 C 0.8335(2) 0.06589(17) 0.35480(8)
H8 H 0.9137 0.0870 0.3298
H9 H 0.7693 0.0152 0.3311
C13 C 0.9685(2) -0.15994(18) 0.50145(9)
C14 C 0.5199(2) 0.30342(19) 0.44313(9)
H10 H 0.5814 0.2596 0.4709
H11 H 0.4873 0.3793 0.4627
C15 C 0.5335(2) 0.43285(19) 0.34852(9)
H12 H 0.4349 0.4117 0.3426
H13 H 0.5396 0.5165 0.3654
C16 C 1.0085(2) -0.07141(19) 0.40519(9)
H14 H 1.0666 -0.0632 0.3718
N2 N 0.65681(16) 0.29422(15) 0.28975(7)
C17 C 0.6040(2) 0.33921(17) 0.38829(9)
C18 C 0.7495(2) 0.37525(18) 0.40623(8)
C19 C 1.1071(2) 0.34443(19) 0.25401(9)
H15 H 1.1574 0.4036 0.2760
C20 C 0.6125(2) 0.42528(18) 0.29125(9)
H16 H 0.5523 0.4454 0.2574
H17 H 0.6933 0.4813 0.2913
C21 C 1.0106(3) -0.2423(2) 0.55148(9)
H18 H 0.9854 -0.2035 0.5888
H19 H 1.1109 -0.2555 0.5503
H20 H 0.9630 -0.3215 0.5479
C22 C 0.63539(19) 0.22666(17) 0.34770(8)
C23 C 1.1047(2) 0.17960(19) 0.18269(9)
H21 H 1.1536 0.1278 0.1563
C24 C 1.0502(2) -0.1460(2) 0.45163(10)
H22 H 1.1360 -0.1882 0.4492
C25 C 0.4429(2) 0.1047(2) 0.39955(9)
H23 H 0.3617 0.0518 0.3915
H24 H 0.5061 0.0590 0.4259
C26 C 0.9417(3) 0.4908(2) 0.44353(9)
H25 H 0.9781 0.5644 0.4598
C27 C 0.5175(2) 0.13345(19) 0.34193(9)
H26 H 0.4490 0.1655 0.3135
H27 H 0.5553 0.0560 0.3257
C28 C 0.3954(2) 0.2223(2) 0.42982(9)
H28 H 0.3301 0.2670 0.4041
H29 H 0.3468 0.2016 0.4667
loop_
_geom_bond_atom_site_label_1
_geom_bond_atom_site_label_2
_geom_bond_site_symmetry_1
_geom_bond_site_symmetry_2
S1 C1 1_555 1_555
Cl1 C4 1_555 1_555
C1 C2 1_555 1_555
O1 S1 1_555 1_555
N1 C9 1_555 1_555
C2 H1 1_555 1_555
O2 S1 1_555 1_555
C3 H2 1_555 1_555
C4 C19 1_555 1_555
C5 H3 1_555 1_555
C6 C5 1_555 1_555
H4 C6 1_555 1_555
C7 C1 1_555 1_555
H5 C7 1_555 1_555
C8 H6 1_555 1_555
C9 C5 1_555 1_555
C10 C8 1_555 1_555
C11 C8 1_555 1_555
H7 C11 1_555 1_555
C12 N1 1_555 1_555
H8 C12 1_555 1_555
H9 C12 1_555 1_555
C13 C11 1_555 1_555
C14 H10 1_555 1_555
H11 C14 1_555 1_555
C15 H12 1_555 1_555
H13 C15 1_555 1_555
C16 C10 1_555 1_555
H14 C16 1_555 1_555
N2 S1 1_555 1_555
C17 C14 1_555 1_555
C18 C3 1_555 1_555
C19 C2 1_555 1_555
H15 C19 1_555 1_555
C20 C15 1_555 1_555
H16 C20 1_555 1_555
H17 C20 1_555 1_555
C21 C13 1_555 1_555
H18 C21 1_555 1_555
H19 C21 1_555 1_555
H20 C21 1_555 1_555
C22 N1 1_555 1_555
C23 C4 1_555 1_555
H21 C23 1_555 1_555
C24 C13 1_555 1_555
H22 C24 1_555 1_555
C25 H23 1_555 1_555
H24 C25 1_555 1_555
C26 C3 1_555 1_555
H25 C26 1_555 1_555
C27 C22 1_555 1_555
H26 C27 1_555 1_555
H27 C27 1_555 1_555
C28 C14 1_555 1_555
H28 C28 1_555 1_555
H29 C28 1_555 1_555
C6 C26 1_555 1_555
C7 C23 1_555 1_555
C9 C18 1_555 1_555
C10 C12 1_555 1_555
C15 C17 1_555 1_555
C16 C24 1_555 1_555
N2 C20 1_555 1_555
N2 C22 1_555 1_555
C17 C18 1_555 1_555
C17 C22 1_555 1_555
C25 C27 1_555 1_555
C25 C28 1_555 1_555

#END
