
#######################################################################
#
#                 Cambridge Crystallographic Data Centre
#                                CCDC 
#
#######################################################################
#
# If this CIF has been generated from an entry in the Cambridge 
# Structural Database, then it will include bibliographic, chemical, 
# crystal, experimental, refinement or atomic coordinate data resulting 
# from the CCDC's data processing and validation procedures.
#
#######################################################################

data_GAYMIF
_chemical_formula_moiety         'C3 Cl2 N4'
_chemical_name_systematic        3,5-dichloro-4-diazoniopyrazolate
_symmetry_cell_setting           orthorhombic
_symmetry_space_group_name_H-M   'P b c a'
_symmetry_Int_Tables_number      61
_space_group_name_Hall           '-P 2ac 2ab'
loop_
_symmetry_equiv_pos_site_id
_symmetry_equiv_pos_as_xyz
1 x,y,z
2 1/2-x,-y,1/2+z
3 -x,1/2+y,1/2-z
4 1/2+x,1/2-y,-z
5 -x,-y,-z
6 1/2+x,y,1/2-z
7 x,1/2-y,1/2+z
8 1/2-x,1/2+y,z
_cell_length_a                   8.814(3)
_cell_length_b                   9.208(3)
_cell_length_c                   14.261(4)
_cell_angle_alpha                90
_cell_angle_beta                 90
_cell_angle_gamma                90
_cell_volume                     1157.41
_exptl_crystal_colour            colorless
_cell_formula_units_Z            8
loop_
_atom_site_label
_atom_site_type_symbol
_atom_site_fract_x
_atom_site_fract_y
_atom_site_fract_z
Cl1 Cl 0.72296(5) 0.48553(5) 0.03537(3)
Cl2 Cl 0.54303(5) 0.73574(5) 0.36797(3)
N1 N 0.78133(16) 0.47249(15) 0.21862(10)
N2 N 0.73570(16) 0.53712(15) 0.30345(10)
N3 N 0.51112(17) 0.72524(15) 0.13913(9)
N4 N 0.43668(19) 0.79810(18) 0.09802(11)
C1 C 0.70318(18) 0.53116(16) 0.15082(11)
C2 C 0.60299(17) 0.63751(15) 0.18706(10)
C3 C 0.63128(17) 0.63363(15) 0.28462(10)
loop_
_geom_bond_atom_site_label_1
_geom_bond_atom_site_label_2
_geom_bond_site_symmetry_1
_geom_bond_site_symmetry_2
Cl1 C1 1_555 1_555
Cl2 C3 1_555 1_555
N1 N2 1_555 1_555
N2 C3 1_555 1_555
N3 N4 1_555 1_555
C1 N1 1_555 1_555
C2 N3 1_555 1_555
C3 C2 1_555 1_555
C1 C2 1_555 1_555

#END
