
#######################################################################
#
#                 Cambridge Crystallographic Data Centre
#                                CCDC 
#
#######################################################################
#
# If this CIF has been generated from an entry in the Cambridge 
# Structural Database, then it will include bibliographic, chemical, 
# crystal, experimental, refinement or atomic coordinate data resulting 
# from the CCDC's data processing and validation procedures.
#
#######################################################################

data_GAYNIG
_chemical_formula_moiety         'C8 H9 N2 S1 1+,I1 1-'
_chemical_name_systematic        
'3-methyl-1-(thiophen-3-yl)-1H-imidazol-3-ium iodide'
_symmetry_cell_setting           orthorhombic
_symmetry_space_group_name_H-M   'P c a 21'
_symmetry_Int_Tables_number      29
_space_group_name_Hall           'P 2c -2ac'
loop_
_symmetry_equiv_pos_site_id
_symmetry_equiv_pos_as_xyz
1 x,y,z
2 -x,-y,1/2+z
3 1/2+x,-y,z
4 1/2-x,y,1/2+z
_cell_length_a                   19.028(6)
_cell_length_b                   7.932(3)
_cell_length_c                   13.915(5)
_cell_angle_alpha                90
_cell_angle_beta                 90
_cell_angle_gamma                90
_cell_volume                     2100.19
_exptl_crystal_colour            colorless
_exptl_crystal_description       block
_cell_formula_units_Z            8
loop_
_atom_site_label
_atom_site_type_symbol
_atom_site_fract_x
_atom_site_fract_y
_atom_site_fract_z
I1 I 0.66848(2) 0.46050(6) 0.78174(3)
I2 I 0.36379(2) 0.97090(6) 0.59239(4)
S1 S 0.66109(11) 0.7640(3) 0.45123(16)
N1 N 0.4845(3) 0.5858(7) 0.5520(4)
N2 N 0.3814(3) 0.4869(7) 0.5842(6)
C1 C 0.4192(4) 0.5671(8) 0.5178(5)
H1 H 0.4028 0.6043 0.4570
C2 C 0.4229(5) 0.4558(9) 0.6618(6)
H2 H 0.4088 0.4012 0.7194
C3 C 0.4874(4) 0.5157(10) 0.6427(5)
H3 H 0.5273 0.5107 0.6836
C4 C 0.6081(3) 0.6586(10) 0.5301(5)
H4 H 0.6240 0.6031 0.5866
C5 C 0.5401(3) 0.6653(8) 0.5009(4)
C6 C 0.5296(4) 0.7560(9) 0.4130(5)
H5 H 0.4853 0.7715 0.3828
C7 C 0.5934(4) 0.8187(9) 0.3776(5)
H6 H 0.5982 0.8829 0.3203
C8 C 0.3063(4) 0.4499(9) 0.5734(7)
H7 H 0.2792 0.5215 0.6172
H8 H 0.2976 0.3311 0.5887
H9 H 0.2919 0.4725 0.5070
N3 N 0.8881(3) 0.0963(7) 0.1164(4)
N4 N 0.8385(3) -0.0081(8) 0.2433(5)
C9 C 0.8271(4) 0.0704(9) 0.1620(6)
H10 H 0.7823 0.1039 0.1388
C10 C 0.9090(4) -0.0372(10) 0.2524(7)
H11 H 0.9318 -0.0921 0.3044
C11 C 0.9401(4) 0.0273(11) 0.1730(7)
H12 H 0.9890 0.0254 0.1588
C12 C 0.9599(4) 0.2005(9) -0.0169(5)
H13 H 1.0039 0.1752 0.0119
C13 C 0.8381(4) 0.2258(9) -0.0328(6)
H14 H 0.7900 0.2132 -0.0160
C14 C 0.8615(14) 0.295(4) -0.1134(19)
H15 H 0.8314 0.3452 -0.1595
S2 S 0.94951(11) 0.2857(3) -0.12700(16)
C15 C 0.8960(3) 0.1733(8) 0.0249(5)
C16 C 0.7845(5) -0.0514(10) 0.3145(7)
H16 H 0.7389 -0.0082 0.2931
H17 H 0.7967 -0.0006 0.3766
H18 H 0.7820 -0.1742 0.3215
H19? H 0.7904 0.2159 -0.0133
S3? S 0.8631(13) 0.307(4) -0.1394(18)
C17? C 0.94951(11) 0.2857(3) -0.12700(16)
H20? H 0.9851 0.3147 -0.1719
loop_
_geom_bond_atom_site_label_1
_geom_bond_atom_site_label_2
_geom_bond_site_symmetry_1
_geom_bond_site_symmetry_2
S1 C4 1_555 1_555
N1 C1 1_555 1_555
N2 C1 1_555 1_555
C1 H1 1_555 1_555
C2 N2 1_555 1_555
H2 C2 1_555 1_555
C3 N1 1_555 1_555
H3 C3 1_555 1_555
C4 H4 1_555 1_555
C5 N1 1_555 1_555
C6 C5 1_555 1_555
H5 C6 1_555 1_555
C7 S1 1_555 1_555
H6 C7 1_555 1_555
C8 N2 1_555 1_555
H7 C8 1_555 1_555
H8 C8 1_555 1_555
H9 C8 1_555 1_555
N3 C9 1_555 1_555
N4 C9 1_555 1_555
C9 H10 1_555 1_555
C10 N4 1_555 1_555
H11 C10 1_555 1_555
C11 N3 1_555 1_555
H12 C11 1_555 1_555
C12 H13 1_555 1_555
C13 H14 1_555 1_555
C14 C13 1_555 1_555
H15 C14 1_555 1_555
S2 C12 1_555 1_555
C15 N3 1_555 1_555
C16 N4 1_555 1_555
H16 C16 1_555 1_555
H17 C16 1_555 1_555
H18 C16 1_555 1_555
C2 C3 1_555 1_555
C4 C5 1_555 1_555
C6 C7 1_555 1_555
C10 C11 1_555 1_555
C12 C15 1_555 1_555
C13 C15 1_555 1_555
C14 S2 1_555 1_555

#END
