
#######################################################################
#
#                 Cambridge Crystallographic Data Centre
#                                CCDC 
#
#######################################################################
#
# If this CIF has been generated from an entry in the Cambridge 
# Structural Database, then it will include bibliographic, chemical, 
# crystal, experimental, refinement or atomic coordinate data resulting 
# from the CCDC's data processing and validation procedures.
#
#######################################################################

data_GAZYAJ01
_chemical_formula_moiety         'C14 H10 Br1 N3'
_chemical_name_systematic        
4-(2-(4-bromobenzylidene)hydrazino)benzonitrile
_symmetry_cell_setting           monoclinic
_symmetry_space_group_name_H-M   'P 21/c'
_symmetry_Int_Tables_number      14
_space_group_name_Hall           '-P 2ybc'
loop_
_symmetry_equiv_pos_site_id
_symmetry_equiv_pos_as_xyz
1 x,y,z
2 -x,1/2+y,1/2-z
3 -x,-y,-z
4 x,1/2-y,1/2+z
_cell_length_a                   7.7832(10)
_cell_length_b                   9.8765(13)
_cell_length_c                   16.564(2)
_cell_angle_alpha                90
_cell_angle_beta                 91.056(3)
_cell_angle_gamma                90
_cell_volume                     1273.07
_exptl_crystal_colour            yellow
_exptl_crystal_description       block
_cell_formula_units_Z            4
loop_
_atom_site_label
_atom_site_type_symbol
_atom_site_fract_x
_atom_site_fract_y
_atom_site_fract_z
Br1 Br 0.33218(4) 0.05552(3) 0.334037(18)
C1 C 0.9682(3) 0.6580(3) 0.95489(16)
N1 N 0.9948(3) 0.6781(2) 1.02194(14)
C2 C 0.4626(3) 0.1910(3) 0.38892(16)
C3 C 0.7588(3) 0.4880(3) 0.51232(15)
H1 H 0.8142 0.5539 0.4823
C4 C 0.7979(3) 0.5245(3) 0.75876(15)
H2 H 0.7194 0.4606 0.7395
C5 C 0.9385(3) 0.6389(3) 0.86996(15)
C6 C 0.8904(3) 0.6037(3) 0.70445(15)
C7 C 0.4754(3) 0.1873(3) 0.47255(16)
H3 H 0.4193 0.1200 0.5012
C8 C 1.0030(3) 0.7026(3) 0.73404(15)
H4 H 1.0625 0.7570 0.6982
C9 C 0.6557(3) 0.3852(3) 0.47065(15)
C10 C 0.5707(3) 0.2827(3) 0.51266(16)
H5 H 0.5792 0.2798 0.5687
C11 C 0.5443(3) 0.2906(3) 0.34557(16)
H6 H 0.5351 0.2927 0.2895
C12 C 1.0262(3) 0.7201(3) 0.81544(16)
H7 H 1.1011 0.7866 0.8346
C13 C 0.6398(3) 0.3870(3) 0.38666(15)
H8 H 0.6946 0.4547 0.3578
C14 C 0.8235(3) 0.5414(3) 0.84090(15)
H9 H 0.7638 0.4876 0.8769
N2 N 0.7747(3) 0.4893(2) 0.58926(12)
N3 N 0.8762(3) 0.5879(2) 0.62198(12)
H10 H 0.9322 0.6410 0.5908
loop_
_geom_bond_atom_site_label_1
_geom_bond_atom_site_label_2
_geom_bond_site_symmetry_1
_geom_bond_site_symmetry_2
Br1 C2 1_555 1_555
C1 N1 1_555 1_555
C2 C7 1_555 1_555
C3 H1 1_555 1_555
C4 H2 1_555 1_555
C5 C1 1_555 1_555
C6 C4 1_555 1_555
C7 H3 1_555 1_555
C8 C6 1_555 1_555
H4 C8 1_555 1_555
C9 C3 1_555 1_555
C10 C7 1_555 1_555
H5 C10 1_555 1_555
C11 C2 1_555 1_555
H6 C11 1_555 1_555
C12 C5 1_555 1_555
H7 C12 1_555 1_555
C13 C9 1_555 1_555
H8 C13 1_555 1_555
C14 C4 1_555 1_555
H9 C14 1_555 1_555
N2 C3 1_555 1_555
N3 C6 1_555 1_555
H10 N3 1_555 1_555
C5 C14 1_555 1_555
C8 C12 1_555 1_555
C9 C10 1_555 1_555
C11 C13 1_555 1_555
N2 N3 1_555 1_555

#END
