
#######################################################################
#
#                 Cambridge Crystallographic Data Centre
#                                CCDC 
#
#######################################################################
#
# If this CIF has been generated from an entry in the Cambridge 
# Structural Database, then it will include bibliographic, chemical, 
# crystal, experimental, refinement or atomic coordinate data resulting 
# from the CCDC's data processing and validation procedures.
#
#######################################################################

data_GECRAJ
_chemical_formula_moiety         'C14 H24 B10'
_chemical_name_systematic        
trans-1,2,3,4,4a,10a-hexahydrophenanthreno(9,10)-1,2-dicarba-closo-dodecaborane
_symmetry_cell_setting           monoclinic
_symmetry_space_group_name_H-M   'P 21/c'
_symmetry_Int_Tables_number      14
_space_group_name_Hall           '-P 2ybc'
loop_
_symmetry_equiv_pos_site_id
_symmetry_equiv_pos_as_xyz
1 x,y,z
2 -x,1/2+y,1/2-z
3 -x,-y,-z
4 x,1/2-y,1/2+z
_cell_length_a                   10.021(7)
_cell_length_b                   13.926(10)
_cell_length_c                   12.832(9)
_cell_angle_alpha                90
_cell_angle_beta                 102.973(15)
_cell_angle_gamma                90
_cell_volume                     1745.03
_exptl_crystal_colour            colorless
_exptl_crystal_description       block
_cell_formula_units_Z            4
loop_
_atom_site_label
_atom_site_type_symbol
_atom_site_fract_x
_atom_site_fract_y
_atom_site_fract_z
C1 C 0.1368(2) 0.10149(17) 0.24868(18)
C2 C 0.1732(2) 0.15844(16) 0.36395(17)
C3 C 0.2587(3) 0.0598(2) 0.2102(2)
H1 H 0.2885 0.1149 0.1736
C4 C 0.2185(3) -0.0111(2) 0.1211(2)
H2 H 0.1539 0.0190 0.0626
H3 H 0.1724 -0.0649 0.1460
C5 C 0.3375(4) -0.0481(3) 0.0805(3)
H4 H 0.3073 -0.1029 0.0345
H5 H 0.3662 0.0014 0.0370
C6 C 0.4534(5) -0.0764(4) 0.1620(4)
H6 H 0.5297 -0.0891 0.1290
H7 H 0.4317 -0.1359 0.1939
C7 C 0.4976(3) -0.0026(3) 0.2498(3)
H8 H 0.5624 -0.0322 0.3086
H9 H 0.5445 0.0494 0.2226
C8 C 0.3802(3) 0.0387(3) 0.2917(3)
H10 H 0.3506 -0.0171 0.3272
C9 C 0.4203(3) 0.1086(2) 0.3833(2)
C10 C 0.5578(3) 0.1204(2) 0.4375(3)
H11 H 0.6254 0.0863 0.4143
C11 C 0.5951(3) 0.1810(3) 0.5240(3)
H12 H 0.6871 0.1884 0.5572
C12 C 0.4984(3) 0.2300(3) 0.5610(3)
H13 H 0.5237 0.2688 0.6212
C13 C 0.3600(3) 0.2221(2) 0.5085(2)
H14 H 0.2935 0.2566 0.5327
C14 C 0.3231(2) 0.16202(17) 0.41997(19)
B1 B 0.1266(3) 0.2259(2) 0.2481(2)
H15 H 0.1959 0.2737 0.2170
B2 B 0.0007(3) 0.1555(2) 0.1631(2)
H16 H -0.0122 0.1574 0.0757
B3 B -0.0216(3) 0.0471(2) 0.2308(2)
H17 H -0.0489 -0.0205 0.1869
B4 B 0.0903(3) 0.04890(19) 0.3585(2)
H18 H 0.1362 -0.0171 0.3982
B5 B 0.0658(3) 0.2549(2) 0.3631(2)
H19 H 0.0960 0.3223 0.4069
B6 B -0.0479(3) 0.2527(2) 0.2355(3)
H20 H -0.0938 0.3185 0.1953
B7 B -0.1401(3) 0.1427(2) 0.2257(3)
H21 H -0.2462 0.1372 0.1791
B8 B -0.0833(3) 0.0768(2) 0.3460(3)
H22 H -0.1519 0.0288 0.3776
B9 B 0.0442(3) 0.1470(2) 0.4314(2)
H23 H 0.0604 0.1449 0.5191
B10 B -0.0995(3) 0.2048(2) 0.3491(3)
H24 H -0.1786 0.2398 0.3829
loop_
_geom_bond_atom_site_label_1
_geom_bond_atom_site_label_2
_geom_bond_site_symmetry_1
_geom_bond_site_symmetry_2
C1 C2 1_555 1_555
C2 C14 1_555 1_555
C3 C1 1_555 1_555
H1 C3 1_555 1_555
C4 C3 1_555 1_555
H2 C4 1_555 1_555
H3 C4 1_555 1_555
C5 C4 1_555 1_555
H4 C5 1_555 1_555
H5 C5 1_555 1_555
C6 C5 1_555 1_555
H6 C6 1_555 1_555
H7 C6 1_555 1_555
C7 C6 1_555 1_555
H8 C7 1_555 1_555
H9 C7 1_555 1_555
C8 C3 1_555 1_555
H10 C8 1_555 1_555
C9 C8 1_555 1_555
C10 C9 1_555 1_555
H11 C10 1_555 1_555
C11 C10 1_555 1_555
H12 C11 1_555 1_555
C12 C11 1_555 1_555
H13 C12 1_555 1_555
C13 C12 1_555 1_555
H14 C13 1_555 1_555
C14 C9 1_555 1_555
B1 C1 1_555 1_555
H15 B1 1_555 1_555
B2 C1 1_555 1_555
H16 B2 1_555 1_555
B3 C1 1_555 1_555
H17 B3 1_555 1_555
B4 C1 1_555 1_555
H18 B4 1_555 1_555
B5 C2 1_555 1_555
H19 B5 1_555 1_555
B6 B1 1_555 1_555
H20 B6 1_555 1_555
B7 B2 1_555 1_555
H21 B7 1_555 1_555
B8 B3 1_555 1_555
H22 B8 1_555 1_555
B9 C2 1_555 1_555
H23 B9 1_555 1_555
B10 B5 1_555 1_555
H24 B10 1_555 1_555
C2 B1 1_555 1_555
C2 B4 1_555 1_555
C7 C8 1_555 1_555
C13 C14 1_555 1_555
B1 B2 1_555 1_555
B1 B5 1_555 1_555
B2 B3 1_555 1_555
B2 B6 1_555 1_555
B3 B4 1_555 1_555
B3 B7 1_555 1_555
B4 B8 1_555 1_555
B4 B9 1_555 1_555
B5 B6 1_555 1_555
B5 B9 1_555 1_555
B6 B7 1_555 1_555
B6 B10 1_555 1_555
B7 B8 1_555 1_555
B7 B10 1_555 1_555
B8 B9 1_555 1_555
B8 B10 1_555 1_555
B9 B10 1_555 1_555

#END
