
#######################################################################
#
#                 Cambridge Crystallographic Data Centre
#                                CCDC 
#
#######################################################################
#
# If this CIF has been generated from an entry in the Cambridge 
# Structural Database, then it will include bibliographic, chemical, 
# crystal, experimental, refinement or atomic coordinate data resulting 
# from the CCDC's data processing and validation procedures.
#
#######################################################################

data_GECSOY
_chemical_formula_moiety         'C13 H20 B10'
_chemical_name_systematic        
3-(cyclopropyl)naphtho(1,2)-1,2-dicarba-closo-dodecaborane
_symmetry_cell_setting           triclinic
_symmetry_space_group_name_H-M   'P -1'
_symmetry_Int_Tables_number      2
_space_group_name_Hall           '-P 1'
loop_
_symmetry_equiv_pos_site_id
_symmetry_equiv_pos_as_xyz
1 x,y,z
2 -x,-y,-z
_cell_length_a                   7.1409(6)
_cell_length_b                   8.9749(7)
_cell_length_c                   13.2765(11)
_cell_angle_alpha                76.937(2)
_cell_angle_beta                 81.783(2)
_cell_angle_gamma                83.063(2)
_cell_volume                     816.886
_exptl_crystal_colour            colorless
_exptl_crystal_description       block
_cell_formula_units_Z            2
loop_
_atom_site_label
_atom_site_type_symbol
_atom_site_fract_x
_atom_site_fract_y
_atom_site_fract_z
C1 C 0.3011(2) 0.87184(18) 0.20257(12)
C2 C 0.4223(2) 0.86348(18) 0.30130(12)
C3 C 0.3278(2) 0.73252(19) 0.15536(13)
C4 C 0.2091(3) 0.7378(2) 0.07102(15)
H1 H 0.2034 0.8351 0.0195
C5 C 0.0292(3) 0.6597(3) 0.0954(2)
H2 H -0.0007 0.6013 0.1657
H3 H -0.0800 0.7114 0.0618
C6 C 0.1914(3) 0.5987(3) 0.02971(19)
H4 H 0.1815 0.6132 -0.0440
H5 H 0.2608 0.5031 0.0599
C7 C 0.4475(3) 0.6135(2) 0.19257(15)
H6 H 0.4642 0.5314 0.1592
C8 C 0.5546(2) 0.5991(2) 0.28015(14)
C9 C 0.6697(3) 0.4649(2) 0.31365(16)
H7 H 0.6786 0.3850 0.2787
C10 C 0.7704(3) 0.4478(2) 0.39737(17)
H8 H 0.8470 0.3576 0.4180
C11 C 0.7572(3) 0.5652(2) 0.45037(16)
H9 H 0.8234 0.5534 0.5075
C12 C 0.6457(2) 0.7002(2) 0.41864(14)
H10 H 0.6384 0.7796 0.4540
C13 C 0.5446(2) 0.71780(19) 0.33428(13)
B1 B 0.4953(3) 0.9793(2) 0.18198(14)
H11 H 0.6287 0.9569 0.1327
B2 B 0.2816(3) 1.0558(2) 0.12895(16)
H12 H 0.2764 1.0839 0.0443
B3 B 0.0870(3) 0.9790(3) 0.21757(17)
H13 H -0.0435 0.9574 0.1902
B4 B 0.1780(3) 0.8547(3) 0.32681(15)
H14 H 0.1077 0.7529 0.3703
B5 B 0.4920(3) 1.0408(2) 0.29976(16)
H15 H 0.6241 1.0589 0.3271
B6 B 0.3985(3) 1.1663(2) 0.19114(17)
H16 H 0.4687 1.2680 0.1474
B7 B 0.1463(3) 1.1672(3) 0.21259(18)
H17 H 0.0527 1.2694 0.1825
B8 B 0.0849(3) 1.0430(3) 0.33524(18)
H18 H -0.0479 1.0650 0.3851
B9 B 0.2986(3) 0.9645(3) 0.38856(16)
H19 H 0.3065 0.9335 0.4730
B10 B 0.2774(3) 1.1585(3) 0.31867(18)
H20 H 0.2693 1.2553 0.3577
loop_
_geom_bond_atom_site_label_1
_geom_bond_atom_site_label_2
_geom_bond_site_symmetry_1
_geom_bond_site_symmetry_2
C1 C2 1_555 1_555
C2 C13 1_555 1_555
C3 C1 1_555 1_555
C4 C3 1_555 1_555
H1 C4 1_555 1_555
C5 C4 1_555 1_555
H2 C5 1_555 1_555
H3 C5 1_555 1_555
C6 C4 1_555 1_555
H4 C6 1_555 1_555
H5 C6 1_555 1_555
C7 C3 1_555 1_555
H6 C7 1_555 1_555
C8 C7 1_555 1_555
C9 C8 1_555 1_555
H7 C9 1_555 1_555
C10 C9 1_555 1_555
H8 C10 1_555 1_555
C11 C10 1_555 1_555
H9 C11 1_555 1_555
C12 C11 1_555 1_555
H10 C12 1_555 1_555
C13 C8 1_555 1_555
B1 C1 1_555 1_555
H11 B1 1_555 1_555
B2 C1 1_555 1_555
H12 B2 1_555 1_555
B3 C1 1_555 1_555
H13 B3 1_555 1_555
B4 C1 1_555 1_555
H14 B4 1_555 1_555
B5 C2 1_555 1_555
H15 B5 1_555 1_555
B6 B1 1_555 1_555
H16 B6 1_555 1_555
B7 B2 1_555 1_555
H17 B7 1_555 1_555
B8 B3 1_555 1_555
H18 B8 1_555 1_555
B9 C2 1_555 1_555
H19 B9 1_555 1_555
B10 B5 1_555 1_555
H20 B10 1_555 1_555
C2 B1 1_555 1_555
C2 B4 1_555 1_555
C5 C6 1_555 1_555
C12 C13 1_555 1_555
B1 B2 1_555 1_555
B1 B5 1_555 1_555
B2 B3 1_555 1_555
B2 B6 1_555 1_555
B3 B4 1_555 1_555
B3 B7 1_555 1_555
B4 B8 1_555 1_555
B4 B9 1_555 1_555
B5 B6 1_555 1_555
B5 B9 1_555 1_555
B6 B7 1_555 1_555
B6 B10 1_555 1_555
B7 B8 1_555 1_555
B7 B10 1_555 1_555
B8 B9 1_555 1_555
B8 B10 1_555 1_555
B9 B10 1_555 1_555

#END
