
#######################################################################
#
#                 Cambridge Crystallographic Data Centre
#                                CCDC 
#
#######################################################################
#
# If this CIF has been generated from an entry in the Cambridge 
# Structural Database, then it will include bibliographic, chemical, 
# crystal, experimental, refinement or atomic coordinate data resulting 
# from the CCDC's data processing and validation procedures.
#
#######################################################################

data_GECTEP
_chemical_formula_moiety         'C12 H22 B10'
_chemical_name_systematic        
1-(2-phenylbut-1-en-3-yl)-1,2-dicarba-closo-dodecaborane
_symmetry_cell_setting           monoclinic
_symmetry_space_group_name_H-M   'C 2/c'
_symmetry_Int_Tables_number      15
_space_group_name_Hall           '-C 2yn'
loop_
_symmetry_equiv_pos_site_id
_symmetry_equiv_pos_as_xyz
1 x,y,z
2 -x,y,1/2-z
3 1/2+x,1/2+y,z
4 1/2-x,1/2+y,1/2-z
5 -x,-y,-z
6 x,-y,1/2+z
7 1/2-x,1/2-y,-z
8 1/2+x,1/2-y,1/2+z
_cell_length_a                   18.224(3)
_cell_length_b                   8.3937(15)
_cell_length_c                   21.808(4)
_cell_angle_alpha                90
_cell_angle_beta                 93.500(3)
_cell_angle_gamma                90
_cell_volume                     3329.68
_exptl_crystal_colour            colorless
_exptl_crystal_description       block
_cell_formula_units_Z            8
loop_
_atom_site_label
_atom_site_type_symbol
_atom_site_fract_x
_atom_site_fract_y
_atom_site_fract_z
C1 C 0.12121(9) 0.5789(2) 0.39659(7)
C2 C 0.14137(11) 0.7245(2) 0.34866(8)
H1 H 0.1804 0.7048 0.3129
C3 C 0.15413(10) 0.4106(2) 0.38859(8)
H2 H 0.1125 0.3406 0.3771
C4 C 0.18863(16) 0.3455(3) 0.44933(11)
H3 H 0.2083 0.2412 0.4427
H4 H 0.1518 0.3392 0.4789
H5 H 0.2274 0.4152 0.4644
C5 C 0.20504(10) 0.4020(2) 0.33592(9)
C6 C 0.27744(13) 0.4198(3) 0.34468(13)
H6 H 0.3071 0.4122 0.3116
H7 H 0.2984 0.4400 0.3839
C7 C 0.17142(10) 0.3697(2) 0.27305(9)
C8 C 0.19315(12) 0.4532(3) 0.22183(11)
H8 H 0.2282 0.5336 0.2268
C9 C 0.16270(15) 0.4169(3) 0.16347(11)
H9 H 0.1773 0.4744 0.1298
C10 C 0.11188(14) 0.2987(3) 0.15461(10)
H10 H 0.0926 0.2743 0.1153
C11 C 0.08956(13) 0.2162(3) 0.20440(10)
H11 H 0.0547 0.1358 0.1989
C12 C 0.11862(11) 0.2519(2) 0.26270(9)
H12 H 0.1024 0.1955 0.2960
B1 B 0.05675(12) 0.6375(3) 0.34076(10)
H13 H 0.0386 0.5615 0.3017
B2 B 0.03180(13) 0.5964(3) 0.41514(12)
H14 H -0.0031 0.4939 0.4252
B3 B 0.10453(14) 0.6582(3) 0.46707(10)
H15 H 0.1168 0.5965 0.5110
B4 B 0.17527(12) 0.7345(2) 0.42377(10)
H16 H 0.2337 0.7220 0.4387
B5 B 0.06704(13) 0.8443(3) 0.33233(11)
H17 H 0.0554 0.9044 0.2880
B6 B -0.00391(14) 0.7662(4) 0.37527(14)
H18 H -0.0622 0.7757 0.3594
B7 B 0.02614(16) 0.7803(4) 0.45440(13)
H19 H -0.0130 0.7995 0.4901
B8 B 0.11520(15) 0.8660(3) 0.45986(11)
H20 H 0.1343 0.9407 0.4991
B9 B 0.14009(13) 0.9060(3) 0.38417(11)
H21 H 0.1759 1.0066 0.3736
B10 B 0.04838(15) 0.9345(3) 0.40289(12)
H22 H 0.0240 1.0541 0.4050
loop_
_geom_bond_atom_site_label_1
_geom_bond_atom_site_label_2
_geom_bond_site_symmetry_1
_geom_bond_site_symmetry_2
C1 C2 1_555 1_555
C2 H1 1_555 1_555
C3 C1 1_555 1_555
H2 C3 1_555 1_555
C4 C3 1_555 1_555
H3 C4 1_555 1_555
H4 C4 1_555 1_555
H5 C4 1_555 1_555
C5 C3 1_555 1_555
C6 C5 1_555 1_555
H6 C6 1_555 1_555
H7 C6 1_555 1_555
C7 C5 1_555 1_555
C8 C7 1_555 1_555
H8 C8 1_555 1_555
C9 C8 1_555 1_555
H9 C9 1_555 1_555
C10 C9 1_555 1_555
H10 C10 1_555 1_555
C11 C10 1_555 1_555
H11 C11 1_555 1_555
C12 C7 1_555 1_555
H12 C12 1_555 1_555
B1 C1 1_555 1_555
H13 B1 1_555 1_555
B2 C1 1_555 1_555
H14 B2 1_555 1_555
B3 C1 1_555 1_555
H15 B3 1_555 1_555
B4 C1 1_555 1_555
H16 B4 1_555 1_555
B5 C2 1_555 1_555
H17 B5 1_555 1_555
B6 B1 1_555 1_555
H18 B6 1_555 1_555
B7 B2 1_555 1_555
H19 B7 1_555 1_555
B8 B3 1_555 1_555
H20 B8 1_555 1_555
B9 C2 1_555 1_555
H21 B9 1_555 1_555
B10 B5 1_555 1_555
H22 B10 1_555 1_555
C2 B1 1_555 1_555
C2 B4 1_555 1_555
C11 C12 1_555 1_555
B1 B2 1_555 1_555
B1 B5 1_555 1_555
B2 B3 1_555 1_555
B2 B6 1_555 1_555
B3 B4 1_555 1_555
B3 B7 1_555 1_555
B4 B8 1_555 1_555
B4 B9 1_555 1_555
B5 B6 1_555 1_555
B5 B9 1_555 1_555
B6 B7 1_555 1_555
B6 B10 1_555 1_555
B7 B8 1_555 1_555
B7 B10 1_555 1_555
B8 B9 1_555 1_555
B8 B10 1_555 1_555
B9 B10 1_555 1_555

#END
