
#######################################################################
#
#                 Cambridge Crystallographic Data Centre
#                                CCDC 
#
#######################################################################
#
# If this CIF has been generated from an entry in the Cambridge 
# Structural Database, then it will include bibliographic, chemical, 
# crystal, experimental, refinement or atomic coordinate data resulting 
# from the CCDC's data processing and validation procedures.
#
#######################################################################

data_GEFCUQ
_chemical_formula_moiety         'C17 H24 N2 O3'
_chemical_name_systematic        
N-(3-Hexyl-3-hydroxy-2-methyl-1-oxo-2,3-dihydro-1H-isoindol-4-yl)acetamide
_chemical_properties_biological  
'antibiotic activity against Staphylococcus aureus'
_symmetry_cell_setting           triclinic
_symmetry_space_group_name_H-M   'P -1'
_symmetry_Int_Tables_number      2
_space_group_name_Hall           '-P 1'
loop_
_symmetry_equiv_pos_site_id
_symmetry_equiv_pos_as_xyz
1 x,y,z
2 -x,-y,-z
_cell_length_a                   8.917(2)
_cell_length_b                   8.949(2)
_cell_length_c                   10.953(2)
_cell_angle_alpha                96.61(3)
_cell_angle_beta                 97.73(3)
_cell_angle_gamma                99.99(3)
_cell_volume                     844.329
_exptl_crystal_colour            colorless
_exptl_crystal_description       prism
_chemical_melting_point          118-120deg.C
_cell_formula_units_Z            2
loop_
_atom_site_label
_atom_site_type_symbol
_atom_site_fract_x
_atom_site_fract_y
_atom_site_fract_z
C1 C 0.3947(10) -0.3221(6) 0.6269(6)
H1 H 0.2963 -0.2929 0.6026
H2 H 0.4482 -0.3241 0.5554
C2 C 0.3674(9) -0.4796(8) 0.6655(8)
H3 H 0.3075 -0.5517 0.5973
H4 H 0.3126 -0.4783 0.7352
H5 H 0.4646 -0.5092 0.6886
C5 C 0.8345(3) 0.3224(3) 0.7967(2)
C6 C 0.9796(3) 0.2587(3) 0.8274(2)
C7 C 1.0764(3) 0.2112(3) 0.7486(3)
C8 C 1.1976(4) 0.1475(4) 0.8009(3)
H11 H 1.2641 0.1127 0.7505
C9 C 1.2208(4) 0.1351(4) 0.9264(3)
H12 H 1.3009 0.0895 0.9582
C10 C 1.1283(4) 0.1884(4) 1.0053(3)
H13 H 1.1455 0.1821 1.0900
C11 C 1.0088(3) 0.2518(3) 0.9534(2)
C12 C 0.8952(4) 0.3225(3) 1.0141(3)
C13 C 1.1123(4) 0.1727(4) 0.5255(3)
C14 C 1.0624(5) 0.2258(5) 0.4044(3)
H14 H 0.9954 0.2974 0.4170
H15 H 1.0084 0.1394 0.3452
H16 H 1.1513 0.2746 0.3734
C15 C 0.6657(4) 0.4290(4) 0.9446(3)
H17 H 0.6142 0.4492 0.8672
H18 H 0.6983 0.5230 1.0011
H19 H 0.5962 0.3581 0.9801
C16 C 0.7029(3) 0.2065(3) 0.7159(3)
H20 H 0.6152 0.2560 0.6996
H21 H 0.7347 0.1778 0.6366
C17 C 0.6516(4) 0.0627(3) 0.7705(3)
H22 H 0.7415 0.0213 0.7991
H23 H 0.6035 0.0889 0.8424
C18 C 0.5397(3) -0.0590(3) 0.6802(3)
H24 H 0.5872 -0.0829 0.6076
H25 H 0.4491 -0.0177 0.6531
C19 C 0.4890(5) -0.2055(4) 0.7315(4)
H26 H 0.4277 -0.1870 0.7965
H27 H 0.5783 -0.2432 0.7671
N1 N 0.7992(3) 0.3633(3) 0.9227(2)
N2 N 1.0503(3) 0.2326(3) 0.6227(2)
O1 O 0.8576(3) 0.4518(3) 0.7338(2)
O2 O 0.8891(3) 0.3451(3) 1.12614(19)
O3 O 1.1968(3) 0.0825(4) 0.5360(2)
H28 H 0.995(4) 0.293(4) 0.613(3)
H29 H 0.937(4) 0.528(5) 0.775(3)
C3? C 0.3598(12) -0.3323(16) 0.6656(19)
H6? H 0.3126 -0.3937 0.7227
H7? H 0.2815 -0.2944 0.6141
C4? C 0.4555(19) -0.417(2) 0.5894(14)
H8? H 0.3905 -0.5056 0.5390
H9? H 0.5338 -0.4489 0.6440
H10? H 0.5031 -0.3509 0.5368
loop_
_geom_bond_atom_site_label_1
_geom_bond_atom_site_label_2
_geom_bond_site_symmetry_1
_geom_bond_site_symmetry_2
C1 H1 1_555 1_555
H2 C1 1_555 1_555
C2 C1 1_555 1_555
H3 C2 1_555 1_555
H4 C2 1_555 1_555
H5 C2 1_555 1_555
C5 C6 1_555 1_555
C6 C7 1_555 1_555
C7 C8 1_555 1_555
C8 H11 1_555 1_555
C9 C8 1_555 1_555
H12 C9 1_555 1_555
C10 C9 1_555 1_555
H13 C10 1_555 1_555
C11 C6 1_555 1_555
C12 C11 1_555 1_555
C13 C14 1_555 1_555
C14 H14 1_555 1_555
H15 C14 1_555 1_555
H16 C14 1_555 1_555
C15 H17 1_555 1_555
H18 C15 1_555 1_555
H19 C15 1_555 1_555
C16 C5 1_555 1_555
H20 C16 1_555 1_555
H21 C16 1_555 1_555
C17 C16 1_555 1_555
H22 C17 1_555 1_555
H23 C17 1_555 1_555
C18 C17 1_555 1_555
H24 C18 1_555 1_555
H25 C18 1_555 1_555
C19 C1 1_555 1_555
H26 C19 1_555 1_555
H27 C19 1_555 1_555
N1 C5 1_555 1_555
N2 C7 1_555 1_555
O1 C5 1_555 1_555
O2 C12 1_555 1_555
O3 C13 1_555 1_555
H28 N2 1_555 1_555
H29 O1 1_555 1_555
C10 C11 1_555 1_555
C12 N1 1_555 1_555
C13 N2 1_555 1_555
C15 N1 1_555 1_555
C18 C19 1_555 1_555

#END
