
#######################################################################
#
#                 Cambridge Crystallographic Data Centre
#                                CCDC 
#
#######################################################################
#
# If this CIF has been generated from an entry in the Cambridge 
# Structural Database, then it will include bibliographic, chemical, 
# crystal, experimental, refinement or atomic coordinate data resulting 
# from the CCDC's data processing and validation procedures.
#
#######################################################################

data_GEFCIF
_chemical_formula_moiety         'C7 H10 F3 N1 O3'
_chemical_name_systematic        
1-Methyl-3-(2,2,2-trifluoro-1,1-dihydroxyethyl)pyrrolidin-2-one
_symmetry_cell_setting           monoclinic
_symmetry_space_group_name_H-M   'P 21/n'
_symmetry_Int_Tables_number      14
_space_group_name_Hall           '-P 2yn'
loop_
_symmetry_equiv_pos_site_id
_symmetry_equiv_pos_as_xyz
1 x,y,z
2 1/2-x,1/2+y,1/2-z
3 -x,-y,-z
4 1/2+x,1/2-y,1/2+z
_cell_length_a                   9.1206(6)
_cell_length_b                   9.5688(7)
_cell_length_c                   10.2660(7)
_cell_angle_alpha                90
_cell_angle_beta                 99.0520(10)
_cell_angle_gamma                90
_cell_volume                     884.788
_exptl_crystal_colour            colorless
_cell_formula_units_Z            4
loop_
_atom_site_label
_atom_site_type_symbol
_atom_site_fract_x
_atom_site_fract_y
_atom_site_fract_z
F1 F 0.47164(9) 0.33697(8) -0.00453(9)
F2 F 0.23768(9) 0.38166(8) -0.03494(7)
F3 F 0.37180(9) 0.43143(8) 0.15115(7)
O1 O 0.44132(10) 0.16357(9) 0.20484(8)
H1 H 0.4420 0.0784 0.2248
O2 O 0.18497(9) 0.19595(9) 0.15640(8)
C1 C 0.35119(14) 0.33638(12) 0.05449(12)
C2 C 0.31892(13) 0.19145(12) 0.10721(11)
C3 C 0.30425(13) 0.08137(12) -0.00210(11)
H2 H 0.3961 0.0847 -0.0439
C4 C 0.29151(12) -0.06543(12) 0.05405(11)
N1 N 0.20118(11) -0.14046(10) -0.03312(9)
C5 C 0.17679(14) -0.29008(12) -0.02262(12)
H3 H 0.2256 -0.3233 0.0637
H4 H 0.2184 -0.3389 -0.0924
H5 H 0.0700 -0.3088 -0.0321
O3 O 0.35925(9) -0.10657(9) 0.16226(8)
C6 C 0.14857(14) -0.06410(13) -0.15528(11)
H6 H 0.0429 -0.0848 -0.1882
H7 H 0.2085 -0.0872 -0.2248
C7 C 0.16984(13) 0.08858(12) -0.11214(11)
H8 H 0.0812 0.1248 -0.0786
H9 H 0.1906 0.1484 -0.1858
H10 H 0.1896(19) 0.257(2) 0.2203(18)
loop_
_geom_bond_atom_site_label_1
_geom_bond_atom_site_label_2
_geom_bond_site_symmetry_1
_geom_bond_site_symmetry_2
F1 C1 1_555 1_555
F2 C1 1_555 1_555
F3 C1 1_555 1_555
O1 H1 1_555 1_555
O2 C2 1_555 1_555
C1 C2 1_555 1_555
C2 O1 1_555 1_555
C3 C2 1_555 1_555
H2 C3 1_555 1_555
C4 C3 1_555 1_555
N1 C4 1_555 1_555
C5 N1 1_555 1_555
H3 C5 1_555 1_555
H4 C5 1_555 1_555
H5 C5 1_555 1_555
O3 C4 1_555 1_555
C6 N1 1_555 1_555
H6 C6 1_555 1_555
H7 C6 1_555 1_555
C7 C3 1_555 1_555
H8 C7 1_555 1_555
H9 C7 1_555 1_555
H10 O2 1_555 1_555
C6 C7 1_555 1_555

#END
