
#######################################################################
#
#                 Cambridge Crystallographic Data Centre
#                                CCDC 
#
#######################################################################
#
# If this CIF has been generated from an entry in the Cambridge 
# Structural Database, then it will include bibliographic, chemical, 
# crystal, experimental, refinement or atomic coordinate data resulting 
# from the CCDC's data processing and validation procedures.
#
#######################################################################

data_GEFGEG
_chemical_name_common            '3-epi-Palhinine D'
_chemical_formula_moiety         'C16 H23 N1 O3'
_chemical_name_systematic        
2,10-dihydroxy-5-azapentacyclo[10.4.1.0^1,9^.0^5,10^.0^9,14^]heptadecan-16-one
_symmetry_cell_setting           triclinic
_symmetry_space_group_name_H-M   'P -1'
_symmetry_Int_Tables_number      2
_space_group_name_Hall           '-P 1'
loop_
_symmetry_equiv_pos_site_id
_symmetry_equiv_pos_as_xyz
1 x,y,z
2 -x,-y,-z
_cell_length_a                   7.2637(11)
_cell_length_b                   8.707(2)
_cell_length_c                   10.894(2)
_cell_angle_alpha                101.354(19)
_cell_angle_beta                 90.789(14)
_cell_angle_gamma                100.289(17)
_cell_volume                     663.789
_exptl_crystal_colour            colorless
_exptl_crystal_description       block
_chemical_melting_point          '442 K'
_cell_formula_units_Z            2
_exptl_crystal_recrystallization_method 'petroleum ether/dichloromethane'
loop_
_atom_site_label
_atom_site_type_symbol
_atom_site_fract_x
_atom_site_fract_y
_atom_site_fract_z
O1 O 0.9247(2) 0.6508(2) -0.02273(16)
O2 O 0.4225(2) 0.95484(19) 0.33145(15)
H1 H 0.425(4) 1.030(3) 0.402(3)
O3 O 0.7769(2) 0.46727(19) 0.16418(18)
H2 H 0.8428 0.4353 0.1078
N1 N 0.5980(2) 0.8116(2) 0.43211(16)
C1 C 0.8147(3) 0.7208(3) 0.0368(2)
C2 C 0.6689(3) 0.7954(3) -0.0177(2)
H3 H 0.5643 0.7150 -0.0581
H4 H 0.7220 0.8572 -0.0780
C3 C 0.6082(3) 0.9028(2) 0.09753(19)
H5 H 0.4815 0.9218 0.0832
C4 C 0.6129(3) 0.8033(2) 0.20111(18)
C5 C 0.8101(3) 0.7573(2) 0.1804(2)
C6 C 0.9636(3) 0.9104(3) 0.2224(2)
H6 H 1.0294 0.9036 0.2987
H7 H 1.0540 0.9169 0.1580
C7 C 0.8770(3) 1.0596(3) 0.2453(2)
H8 H 0.9754 1.1551 0.2617
C8 C 0.7490(3) 1.0620(3) 0.1337(2)
H9 H 0.8239 1.0790 0.0629
H10 H 0.6813 1.1493 0.1550
C9 C 0.7554(3) 1.0556(3) 0.3579(2)
H11 H 0.6996 1.1504 0.3751
H12 H 0.8322 1.0547 0.4312
C10 C 0.5999(3) 0.9062(2) 0.33164(19)
C11 C 0.7735(3) 0.7615(3) 0.4600(2)
H13 H 0.7650 0.7360 0.5427
H14 H 0.8726 0.8540 0.4665
C12 C 0.8403(3) 0.6218(3) 0.3735(2)
H15 H 0.7515 0.5259 0.3781
H16 H 0.9587 0.6112 0.4102
C13 C 0.8687(3) 0.6210(3) 0.2334(2)
H17 H 1.0032 0.6274 0.2215
C14 C 0.4468(3) 0.6619(2) 0.17645(19)
H18 H 0.3337 0.7018 0.1618
H19 H 0.4670 0.5890 0.1004
C15 C 0.4151(3) 0.5689(3) 0.2819(2)
H20 H 0.5049 0.4981 0.2777
H21 H 0.2905 0.5039 0.2702
C16 C 0.4353(3) 0.6789(3) 0.4113(2)
H22 H 0.3223 0.7234 0.4247
H23 H 0.4439 0.6150 0.4740
loop_
_geom_bond_atom_site_label_1
_geom_bond_atom_site_label_2
_geom_bond_site_symmetry_1
_geom_bond_site_symmetry_2
O1 C1 1_555 1_555
O2 H1 1_555 1_555
O3 H2 1_555 1_555
N1 C10 1_555 1_555
C1 C2 1_555 1_555
C2 H3 1_555 1_555
H4 C2 1_555 1_555
C3 C2 1_555 1_555
H5 C3 1_555 1_555
C4 C3 1_555 1_555
C5 C1 1_555 1_555
C6 C5 1_555 1_555
H6 C6 1_555 1_555
H7 C6 1_555 1_555
C7 C6 1_555 1_555
H8 C7 1_555 1_555
C8 C3 1_555 1_555
H9 C8 1_555 1_555
H10 C8 1_555 1_555
C9 C7 1_555 1_555
H11 C9 1_555 1_555
H12 C9 1_555 1_555
C10 O2 1_555 1_555
C11 N1 1_555 1_555
H13 C11 1_555 1_555
H14 C11 1_555 1_555
C12 C11 1_555 1_555
H15 C12 1_555 1_555
H16 C12 1_555 1_555
C13 O3 1_555 1_555
H17 C13 1_555 1_555
C14 C4 1_555 1_555
H18 C14 1_555 1_555
H19 C14 1_555 1_555
C15 C14 1_555 1_555
H20 C15 1_555 1_555
H21 C15 1_555 1_555
C16 N1 1_555 1_555
H22 C16 1_555 1_555
H23 C16 1_555 1_555
C4 C5 1_555 1_555
C4 C10 1_555 1_555
C5 C13 1_555 1_555
C7 C8 1_555 1_555
C9 C10 1_555 1_555
C12 C13 1_555 1_555
C15 C16 1_555 1_555

#END
