
#######################################################################
#
#                 Cambridge Crystallographic Data Centre
#                                CCDC 
#
#######################################################################
#
# If this CIF has been generated from an entry in the Cambridge 
# Structural Database, then it will include bibliographic, chemical, 
# crystal, experimental, refinement or atomic coordinate data resulting 
# from the CCDC's data processing and validation procedures.
#
#######################################################################

data_GEFGAC
_chemical_name_common            '3-epi-Palhinine A'
_chemical_formula_moiety         'C17 H25 N1 O3'
_chemical_name_systematic        
2-hydroxy-5-methyl-5-azatetracyclo[10.4.1.0^1,9^.0^9,14^]heptadecane-10,16-dione
_symmetry_cell_setting           monoclinic
_symmetry_space_group_name_H-M   'P 21/c'
_symmetry_Int_Tables_number      14
_space_group_name_Hall           '-P 2ybc'
loop_
_symmetry_equiv_pos_site_id
_symmetry_equiv_pos_as_xyz
1 x,y,z
2 -x,1/2+y,1/2-z
3 -x,-y,-z
4 x,1/2-y,1/2+z
_cell_length_a                   18.3993(6)
_cell_length_b                   7.78611(18)
_cell_length_c                   20.8816(6)
_cell_angle_alpha                90
_cell_angle_beta                 90.719(3)
_cell_angle_gamma                90
_cell_volume                     2991.24
_exptl_crystal_colour            colorless
_exptl_crystal_description       block
_chemical_melting_point          '433 K'
_cell_formula_units_Z            8
_exptl_crystal_recrystallization_method 'petroleum ether/ethyl acetate'
loop_
_atom_site_label
_atom_site_type_symbol
_atom_site_fract_x
_atom_site_fract_y
_atom_site_fract_z
O1 O 0.40353(9) 0.48423(18) 0.30405(7)
O2 O 0.48494(10) -0.2153(2) 0.39472(8)
O3 O 0.35638(11) -0.17452(19) 0.30748(8)
H1 H 0.3745 -0.2680 0.3162
N1 N 0.28050(10) 0.2450(2) 0.29106(9)
C1 C 0.43578(11) 0.1963(3) 0.33268(10)
C2 C 0.44240(12) 0.1588(3) 0.26058(10)
H2 H 0.4702 0.2521 0.2422
H3 H 0.4716 0.0558 0.2565
C3 C 0.37460(13) 0.1342(3) 0.21786(10)
H4 H 0.3896 0.1421 0.1736
H5 H 0.3567 0.0184 0.2245
C4 C 0.31163(13) 0.2571(3) 0.22708(10)
H6 H 0.3283 0.3737 0.2200
H7 H 0.2741 0.2324 0.1954
C5 C 0.24600(12) 0.0786(3) 0.30233(11)
H8 H 0.2570 0.0023 0.2671
H9 H 0.1937 0.0941 0.3031
C6 C 0.27069(13) -0.0047(3) 0.36452(12)
H10 H 0.2371 -0.0966 0.3745
H11 H 0.2675 0.0799 0.3985
C7 C 0.34739(13) -0.0778(3) 0.36484(11)
H12 H 0.3487 -0.1622 0.3997
C8 C 0.41250(12) 0.0437(3) 0.37787(10)
C9 C 0.40710(13) 0.1116(3) 0.44845(10)
H13 H 0.3572 0.1029 0.4624
H14 H 0.4368 0.0401 0.4764
C10 C 0.43211(13) 0.2970(3) 0.45414(11)
H15 H 0.4305 0.3351 0.4988
C11 C 0.38102(14) 0.4060(3) 0.41239(11)
H16 H 0.3308 0.3751 0.4200
H17 H 0.3874 0.5270 0.4220
C12 C 0.40053(12) 0.3698(3) 0.34399(10)
C13 C 0.50893(13) 0.3156(3) 0.42822(11)
H18 H 0.5434 0.2634 0.4579
H19 H 0.5210 0.4364 0.4245
C14 C 0.51500(12) 0.2281(3) 0.36166(11)
H20 H 0.5437 0.2992 0.3326
C15 C 0.54642(12) 0.0464(3) 0.36567(12)
H21 H 0.5682 0.0134 0.3254
H22 H 0.5829 0.0384 0.3995
C16 C 0.48210(13) -0.0649(3) 0.38013(10)
C17 C 0.23151(15) 0.3879(3) 0.30334(14)
H23 H 0.2574 0.4942 0.2989
H24 H 0.2131 0.3789 0.3460
H25 H 0.1917 0.3847 0.2732
O4 O 0.09901(9) 0.08749(18) 0.05399(7)
O5 O 0.02050(11) -0.6172(2) 0.13963(9)
O6 O 0.14769(11) -0.5710(2) 0.05376(9)
H26 H 0.1250 -0.6594 0.0610
N2 N 0.22250(10) -0.1458(2) 0.04352(9)
C18 C 0.06186(12) -0.2372(3) 0.00763(10)
H27 H 0.0342 -0.3423 0.0021
H28 H 0.0327 -0.1453 -0.0108
C19 C 0.13064(13) -0.2539(3) -0.03338(11)
H29 H 0.1497 -0.3691 -0.0275
H30 H 0.1159 -0.2437 -0.0780
C20 C 0.19247(13) -0.1287(3) -0.02149(10)
H31 H 0.2306 -0.1495 -0.0522
H32 H 0.1749 -0.0123 -0.0278
C21 C 0.23363(14) -0.4020(4) 0.11362(13)
H33 H 0.2369 -0.3207 0.1487
H34 H 0.2674 -0.4946 0.1230
C22 C 0.25827(13) -0.3123(3) 0.05311(13)
H35 H 0.3104 -0.2952 0.0554
H36 H 0.2478 -0.3855 0.0165
C23 C 0.15701(13) -0.4762(3) 0.11191(12)
H37 H 0.1561 -0.5620 0.1462
C24 C 0.09164(12) -0.3563(3) 0.12470(10)
C25 C 0.06798(11) -0.2027(3) 0.08032(10)
C26 C 0.10198(12) -0.0283(3) 0.09357(11)
C27 C 0.12060(14) 0.0056(3) 0.16250(11)
H38 H 0.1130 0.1257 0.1727
H39 H 0.1711 -0.0230 0.1713
C28 C 0.07022(15) -0.1082(3) 0.20195(11)
H40 H 0.0712 -0.0723 0.2469
C29 C -0.00687(15) -0.0917(3) 0.17414(13)
H41 H -0.0200 0.0287 0.1712
H42 H -0.0409 -0.1477 0.2024
C30 C -0.01177(13) -0.1747(3) 0.10701(12)
H43 H -0.0405 -0.1027 0.0777
C31 C -0.04228(13) -0.3576(3) 0.10881(13)
H44 H -0.0794 -0.3681 0.1412
H45 H -0.0630 -0.3895 0.0676
C32 C 0.02260(14) -0.4678(3) 0.12511(11)
C33 C 0.09680(15) -0.2917(3) 0.19593(11)
H46 H 0.0678 -0.3657 0.2229
H47 H 0.1469 -0.2985 0.2108
C34 C 0.26998(14) -0.0026(4) 0.06017(13)
H48 H 0.3107 -0.0010 0.0318
H49 H 0.2871 -0.0156 0.1035
H50 H 0.2435 0.1031 0.0561
loop_
_geom_bond_atom_site_label_1
_geom_bond_atom_site_label_2
_geom_bond_site_symmetry_1
_geom_bond_site_symmetry_2
O1 C12 1_555 1_555
O2 C16 1_555 1_555
O3 H1 1_555 1_555
N1 C4 1_555 1_555
C1 C2 1_555 1_555
C2 H2 1_555 1_555
H3 C2 1_555 1_555
C3 C2 1_555 1_555
H4 C3 1_555 1_555
H5 C3 1_555 1_555
C4 C3 1_555 1_555
H6 C4 1_555 1_555
H7 C4 1_555 1_555
C5 N1 1_555 1_555
H8 C5 1_555 1_555
H9 C5 1_555 1_555
C6 C5 1_555 1_555
H10 C6 1_555 1_555
H11 C6 1_555 1_555
C7 O3 1_555 1_555
H12 C7 1_555 1_555
C8 C1 1_555 1_555
C9 C8 1_555 1_555
H13 C9 1_555 1_555
H14 C9 1_555 1_555
C10 C9 1_555 1_555
H15 C10 1_555 1_555
C11 C10 1_555 1_555
H16 C11 1_555 1_555
H17 C11 1_555 1_555
C12 C1 1_555 1_555
C13 C10 1_555 1_555
H18 C13 1_555 1_555
H19 C13 1_555 1_555
C14 C1 1_555 1_555
H20 C14 1_555 1_555
C15 C14 1_555 1_555
H21 C15 1_555 1_555
H22 C15 1_555 1_555
C16 C8 1_555 1_555
C17 N1 1_555 1_555
H23 C17 1_555 1_555
H24 C17 1_555 1_555
H25 C17 1_555 1_555
O4 C26 1_555 1_555
O5 C32 1_555 1_555
O6 H26 1_555 1_555
N2 C20 1_555 1_555
C18 H27 1_555 1_555
H28 C18 1_555 1_555
C19 C18 1_555 1_555
H29 C19 1_555 1_555
H30 C19 1_555 1_555
C20 C19 1_555 1_555
H31 C20 1_555 1_555
H32 C20 1_555 1_555
C21 H33 1_555 1_555
H34 C21 1_555 1_555
C22 N2 1_555 1_555
H35 C22 1_555 1_555
H36 C22 1_555 1_555
C23 O6 1_555 1_555
H37 C23 1_555 1_555
C24 C23 1_555 1_555
C25 C18 1_555 1_555
C26 C25 1_555 1_555
C27 C26 1_555 1_555
H38 C27 1_555 1_555
H39 C27 1_555 1_555
C28 C27 1_555 1_555
H40 C28 1_555 1_555
C29 C28 1_555 1_555
H41 C29 1_555 1_555
H42 C29 1_555 1_555
C30 C25 1_555 1_555
H43 C30 1_555 1_555
C31 C30 1_555 1_555
H44 C31 1_555 1_555
H45 C31 1_555 1_555
C32 C24 1_555 1_555
C33 C24 1_555 1_555
H46 C33 1_555 1_555
H47 C33 1_555 1_555
C34 N2 1_555 1_555
H48 C34 1_555 1_555
H49 C34 1_555 1_555
H50 C34 1_555 1_555
C6 C7 1_555 1_555
C7 C8 1_555 1_555
C11 C12 1_555 1_555
C13 C14 1_555 1_555
C15 C16 1_555 1_555
C21 C22 1_555 1_555
C21 C23 1_555 1_555
C24 C25 1_555 1_555
C28 C33 1_555 1_555
C29 C30 1_555 1_555
C31 C32 1_555 1_555

#END
