
#######################################################################
#
#                 Cambridge Crystallographic Data Centre
#                                CCDC 
#
#######################################################################
#
# If this CIF has been generated from an entry in the Cambridge 
# Structural Database, then it will include bibliographic, chemical, 
# crystal, experimental, refinement or atomic coordinate data resulting 
# from the CCDC's data processing and validation procedures.
#
#######################################################################

data_GEFMIQ
_chemical_formula_moiety         'C29 H20 Br1 N3 O1'
_chemical_name_systematic        
2^4^-amino-2^6^-(4-bromobenzene-1-carbonyl)-1^3^,3^3^-dimethyl[1^1^,2^1^:2^2^,3^1^-terphenyl]-2^3^,2^5^-dicarbonitrile
_symmetry_cell_setting           monoclinic
_symmetry_space_group_name_H-M   'P 21/c'
_symmetry_Int_Tables_number      14
_space_group_name_Hall           '-P 2ybc'
loop_
_symmetry_equiv_pos_site_id
_symmetry_equiv_pos_as_xyz
1 x,y,z
2 -x,1/2+y,1/2-z
3 -x,-y,-z
4 x,1/2-y,1/2+z
_cell_length_a                   8.6727(5)
_cell_length_b                   21.9456(14)
_cell_length_c                   12.5567(7)
_cell_angle_alpha                90
_cell_angle_beta                 94.984(2)
_cell_angle_gamma                90
_cell_volume                     2380.85
_exptl_crystal_colour            colorless
_exptl_crystal_description       block
_cell_formula_units_Z            4
loop_
_atom_site_label
_atom_site_type_symbol
_atom_site_fract_x
_atom_site_fract_y
_atom_site_fract_z
Br1 Br 0.09002(6) 0.26883(3) -0.25685(4)
O1 O 0.5726(4) 0.44311(15) 0.0793(2)
C1 C 0.6099(5) 0.31372(18) 0.3528(3)
C2 C 0.7097(5) 0.31571(18) 0.1756(3)
C3 C 0.4871(4) 0.37801(17) 0.2109(3)
C4 C 0.3764(4) 0.39965(19) 0.2764(3)
N1 N 0.7164(5) 0.27170(17) 0.3878(3)
H1 H 0.7809 0.2580 0.3454
H2 H 0.7196 0.2587 0.4525
C5 C 0.4882(5) 0.40134(19) 0.0973(3)
C6 C 0.2135(5) 0.3098(2) -0.1472(3)
C7 C 0.6003(4) 0.33644(18) 0.2474(3)
C8 C 0.2540(5) 0.4426(2) 0.2308(3)
C9 C 0.3052(6) 0.3183(2) 0.0352(3)
H3 H 0.3087 0.3037 0.1049
C10 C 0.2861(6) 0.4059(2) 0.4624(4)
N2 N 0.7960(5) 0.30003(19) 0.1176(3)
C11 C 0.3895(4) 0.37013(17) 0.0130(3)
C12 C 0.5030(5) 0.33889(19) 0.4204(3)
C13 C 0.5151(6) 0.3205(2) 0.5309(4)
C14 C 0.2855(5) 0.5034(2) 0.2198(3)
H4 H 0.3819 0.5187 0.2448
C15 C 0.3888(5) 0.38055(19) 0.3836(3)
C16 C 0.0315(6) 0.5185(3) 0.1340(4)
H5 H -0.0439 0.5439 0.1007
C17 C 0.3825(5) 0.3908(2) -0.0916(3)
H6 H 0.4372 0.4256 -0.1079
C18 C 0.2955(5) 0.3605(2) -0.1714(3)
H7 H 0.2923 0.3743 -0.2416
N3 N 0.5282(6) 0.3058(2) 0.6181(3)
C19 C 0.1092(5) 0.4207(2) 0.1923(4)
H8 H 0.0872 0.3794 0.1990
C20 C -0.0019(6) 0.4589(3) 0.1446(4)
H9 H -0.0987 0.4438 0.1200
C21 C 0.2164(6) 0.2884(2) -0.0453(4)
H10 H 0.1595 0.2541 -0.0300
C22 C 0.1708(7) 0.5431(2) 0.1699(4)
C23 C 0.1323(6) 0.3891(2) 0.4601(4)
H11 H 0.0905 0.3614 0.4095
C24 C 0.0392(6) 0.4146(3) 0.5359(5)
C25 C 0.3445(7) 0.4467(2) 0.5384(4)
H12 H 0.4486 0.4572 0.5413
C26 C 0.1010(10) 0.4564(3) 0.6079(5)
H13 H 0.0380 0.4740 0.6558
C27 C 0.2509(9) 0.4727(3) 0.6114(5)
H14 H 0.2917 0.5008 0.6616
C28 C 0.2070(8) 0.6087(3) 0.1559(6)
H15 H 0.2634 0.6137 0.0940
H16 H 0.2685 0.6232 0.2180
H17 H 0.1124 0.6315 0.1467
C29 C -0.1197(8) 0.3975(4) 0.5372(6)
H18 H -0.1265 0.3599 0.5757
H19 H -0.1646 0.3922 0.4652
H20 H -0.1746 0.4288 0.5716
loop_
_geom_bond_atom_site_label_1
_geom_bond_atom_site_label_2
_geom_bond_site_symmetry_1
_geom_bond_site_symmetry_2
Br1 C6 1_555 1_555
O1 C5 1_555 1_555
C1 N1 1_555 1_555
C2 C7 1_555 1_555
C3 C4 1_555 1_555
C4 C8 1_555 1_555
N1 H1 1_555 1_555
H2 N1 1_555 1_555
C5 C3 1_555 1_555
C6 C18 1_555 1_555
C7 C1 1_555 1_555
C8 C14 1_555 1_555
C9 H3 1_555 1_555
C10 C15 1_555 1_555
N2 C2 1_555 1_555
C11 C5 1_555 1_555
C12 C1 1_555 1_555
C13 C12 1_555 1_555
C14 H4 1_555 1_555
C15 C4 1_555 1_555
C16 H5 1_555 1_555
C17 C11 1_555 1_555
H6 C17 1_555 1_555
C18 C17 1_555 1_555
H7 C18 1_555 1_555
N3 C13 1_555 1_555
C19 C8 1_555 1_555
H8 C19 1_555 1_555
C20 C16 1_555 1_555
H9 C20 1_555 1_555
C21 C6 1_555 1_555
H10 C21 1_555 1_555
C22 C14 1_555 1_555
C23 C10 1_555 1_555
H11 C23 1_555 1_555
C24 C23 1_555 1_555
C25 C10 1_555 1_555
H12 C25 1_555 1_555
C26 C24 1_555 1_555
H13 C26 1_555 1_555
C27 C25 1_555 1_555
H14 C27 1_555 1_555
C28 C22 1_555 1_555
H15 C28 1_555 1_555
H16 C28 1_555 1_555
H17 C28 1_555 1_555
C29 C24 1_555 1_555
H18 C29 1_555 1_555
H19 C29 1_555 1_555
H20 C29 1_555 1_555
C3 C7 1_555 1_555
C9 C11 1_555 1_555
C9 C21 1_555 1_555
C12 C15 1_555 1_555
C16 C22 1_555 1_555
C19 C20 1_555 1_555
C26 C27 1_555 1_555

#END
