
#######################################################################
#
#                 Cambridge Crystallographic Data Centre
#                                CCDC 
#
#######################################################################
#
# If this CIF has been generated from an entry in the Cambridge 
# Structural Database, then it will include bibliographic, chemical, 
# crystal, experimental, refinement or atomic coordinate data resulting 
# from the CCDC's data processing and validation procedures.
#
#######################################################################

data_GEFNIQ
_chemical_formula_moiety         'C34 H24 N6,1.33(C2 H6 O1)'
_chemical_name_systematic        
"6,6'-(1,4-Phenylene)bis(5,6-dihydrobenzimidazo[1,2-c]quinazoline) ethanol solvate"
_symmetry_cell_setting           triclinic
_symmetry_space_group_name_H-M   'P -1'
_symmetry_Int_Tables_number      2
_space_group_name_Hall           '-P 1'
loop_
_symmetry_equiv_pos_site_id
_symmetry_equiv_pos_as_xyz
1 x,y,z
2 -x,-y,-z
_cell_length_a                   13.267(8)
_cell_length_b                   14.522(8)
_cell_length_c                   14.575(9)
_cell_angle_alpha                61.727(10)
_cell_angle_beta                 70.658(11)
_cell_angle_gamma                87.560(11)
_cell_volume                     2311.3
_exptl_crystal_colour            white
_exptl_crystal_description       block
_cell_formula_units_Z            3
loop_
_atom_site_label
_atom_site_type_symbol
_atom_site_fract_x
_atom_site_fract_y
_atom_site_fract_z
C1 C 0.2057(8) 0.6969(9) -0.0287(9)
C2 C 0.1763(13) 0.7753(7) -0.1138(11)
H1 H 0.1924 0.8458 -0.1352
C3 C 0.1229(12) 0.7482(11) -0.1669(9)
H2 H 0.1032 0.8006 -0.2239
C4 C 0.0989(9) 0.6427(13) -0.1349(11)
H3 H 0.0632 0.6245 -0.1705
C5 C 0.1283(8) 0.5643(9) -0.0498(11)
H4 H 0.1122 0.4937 -0.0284
C6 C 0.1817(6) 0.5914(8) 0.0033(8)
C7 C 0.3215(11) 0.7897(8) 0.1126(12)
N1 N 0.2743(7) 0.8117(5) 0.0312(8)
C8 C 0.2548(7) 0.7160(6) 0.0318(6)
N2 N 0.2900(5) 0.6349(4) 0.1135(5)
C9 C 0.3312(10) 0.6804(8) 0.1634(9)
C44 C 0.356(2) 0.8656(17) 0.123(2)
H29 H 0.3601 0.9376 0.0762
C45 C 0.3843(17) 0.8199(16) 0.2146(17)
H30 H 0.3956 0.8640 0.2412
C46 C 0.399(2) 0.7135(17) 0.275(2)
H31 H 0.4300 0.6929 0.3290
C47 C 0.3661(16) 0.6399(15) 0.2504(18)
H32 H 0.3680 0.5680 0.2914
C48 C 0.2888(4) 0.5290(4) 0.1245(4)
H33 H 0.2753 0.4784 0.2030
C49 C 0.3993(3) 0.5170(3) 0.0574(4)
C50 C 0.4162(4) 0.5035(6) -0.0313(6)
H34 H 0.3586 0.5042 -0.0545
C51 C 0.4852(4) 0.5112(6) 0.0894(6)
H35 H 0.4773 0.5173 0.1520
N9 N 0.2030(5) 0.5072(6) 0.0993(7)
C1A C 0.7943(8) 0.3031(9) 0.0287(9)
C2A C 0.8237(13) 0.2247(7) 0.1138(11)
H1A H 0.8076 0.1542 0.1352
C3A C 0.8771(12) 0.2518(11) 0.1669(9)
H2A H 0.8968 0.1994 0.2239
C4A C 0.9011(9) 0.3573(13) 0.1349(11)
H3A H 0.9368 0.3755 0.1705
C5A C 0.8717(8) 0.4357(9) 0.0498(11)
H4A H 0.8878 0.5063 0.0284
C6A C 0.8183(6) 0.4086(8) -0.0033(8)
C7A C 0.6785(11) 0.2103(8) -0.1126(12)
N1A N 0.7257(7) 0.1883(5) -0.0312(8)
C8A C 0.7452(7) 0.2840(6) -0.0318(6)
N2A N 0.7100(5) 0.3651(4) -0.1135(5)
C9A C 0.6688(10) 0.3196(8) -0.1634(9)
C44A C 0.644(2) 0.1344(17) -0.123(2)
H29A H 0.6399 0.0624 -0.0762
C45A C 0.6157(17) 0.1801(16) -0.2146(17)
H30A H 0.6044 0.1360 -0.2412
C46A C 0.601(2) 0.2865(17) -0.275(2)
H31A H 0.5700 0.3071 -0.3290
C47A C 0.6339(16) 0.3601(15) -0.2504(18)
H32A H 0.6320 0.4320 -0.2914
C48A C 0.7112(4) 0.4710(4) -0.1245(4)
H33A H 0.7247 0.5216 -0.2030
C49A C 0.6007(3) 0.4830(3) -0.0574(4)
C50A C 0.5838(4) 0.4965(6) 0.0313(6)
H34A H 0.6414 0.4958 0.0545
C51A C 0.5148(4) 0.4888(6) -0.0894(6)
H35A H 0.5227 0.4827 -0.1520
N9A N 0.7970(5) 0.4928(6) -0.0993(7)
C10 C 0.3902(4) 0.2085(4) 0.2240(4)
C11 C 0.4442(4) 0.1677(4) 0.1558(5)
H5 H 0.5150 0.1544 0.1472
C12 C 0.3894(6) 0.1479(5) 0.1015(5)
H6 H 0.4237 0.1206 0.0547
C13 C 0.2859(7) 0.1669(6) 0.1137(6)
H7 H 0.2511 0.1511 0.0760
C14 C 0.2304(5) 0.2093(5) 0.1810(6)
H8 H 0.1601 0.2234 0.1878
C15 C 0.2833(4) 0.2293(4) 0.2361(4)
C16 C 0.3295(3) 0.2689(4) 0.3418(4)
C17 C 0.3354(4) 0.3060(4) 0.4203(4)
C18 C 0.2475(4) 0.3293(5) 0.4862(6)
H9 H 0.1790 0.3188 0.4860
C19 C 0.2606(6) 0.3665(6) 0.5499(6)
H10 H 0.2011 0.3813 0.5942
C20 C 0.3629(7) 0.3834(6) 0.5505(6)
H11 H 0.3721 0.4108 0.5939
C21 C 0.4504(4) 0.3593(5) 0.4865(5)
H12 H 0.5188 0.3709 0.4865
C22 C 0.4379(4) 0.3190(4) 0.4234(4)
C23 C 0.5131(3) 0.2176(3) 0.3241(4)
H13 H 0.5752 0.2305 0.2579
C24 C 0.5040(3) 0.1032(3) 0.4153(3)
C25 C 0.5962(3) 0.0622(4) 0.4281(5)
H14 H 0.6626 0.1030 0.3788
C26 C 0.4065(3) 0.0382(4) 0.4877(4)
H15 H 0.3424 0.0625 0.4794
N3 N 0.4162(3) 0.2376(3) 0.2930(3)
N4 N 0.2477(3) 0.2698(3) 0.3113(4)
N5 N 0.5267(3) 0.2973(3) 0.3549(3)
H27 H 0.5897 0.3312 0.3309
C10A C 0.6098(4) -0.2085(4) 0.7760(4)
C11A C 0.5558(4) -0.1677(4) 0.8442(5)
H5A H 0.4850 -0.1544 0.8528
C12A C 0.6106(6) -0.1479(5) 0.8985(5)
H6A H 0.5763 -0.1206 0.9453
C13A C 0.7141(7) -0.1669(6) 0.8863(6)
H7A H 0.7489 -0.1511 0.9240
C14A C 0.7696(5) -0.2093(5) 0.8190(6)
H8A H 0.8399 -0.2234 0.8122
C15A C 0.7167(4) -0.2293(4) 0.7639(4)
C16A C 0.6705(3) -0.2689(4) 0.6582(4)
C17A C 0.6646(4) -0.3060(4) 0.5797(4)
C18A C 0.7525(4) -0.3293(5) 0.5138(6)
H9A H 0.8210 -0.3188 0.5140
C19A C 0.7394(6) -0.3665(6) 0.4501(6)
H10A H 0.7989 -0.3813 0.4058
C20A C 0.6371(7) -0.3834(6) 0.4495(6)
H11A H 0.6279 -0.4108 0.4061
C21A C 0.5496(4) -0.3593(5) 0.5135(5)
H12A H 0.4812 -0.3709 0.5135
C22A C 0.5621(4) -0.3190(4) 0.5766(4)
C23A C 0.4869(3) -0.2176(3) 0.6759(4)
H13A H 0.4248 -0.2305 0.7421
C24A C 0.4960(3) -0.1032(3) 0.5847(3)
C25A C 0.4038(3) -0.0622(4) 0.5719(5)
H14A H 0.3374 -0.1030 0.6212
C26A C 0.5935(3) -0.0382(4) 0.5123(4)
H15A H 0.6576 -0.0625 0.5206
N3A N 0.5838(3) -0.2376(3) 0.7070(3)
N4A N 0.7523(3) -0.2698(3) 0.6887(4)
N5A N 0.4733(3) -0.2973(3) 0.6451(3)
H27A H 0.4103 -0.3312 0.6691
C27 C 0.8507(4) 0.5222(4) 0.2581(4)
C28 C 0.8971(5) 0.6266(5) 0.1787(5)
H16 H 0.9673 0.6514 0.1636
C29 C 0.8311(6) 0.6923(5) 0.1227(5)
H17 H 0.8562 0.7626 0.0691
C30 C 0.7277(6) 0.6474(6) 0.1512(6)
H18 H 0.6846 0.6909 0.1145
C31 C 0.6849(5) 0.5488(5) 0.2257(5)
H19 H 0.6147 0.5244 0.2402
C32 C 0.7472(4) 0.4832(4) 0.2811(4)
C33 C 0.8126(3) 0.3536(4) 0.3830(4)
C34 C 0.8382(3) 0.2493(3) 0.4549(4)
C35 C 0.7588(4) 0.1603(5) 0.5288(5)
H20 H 0.6868 0.1669 0.5369
C36 C 0.7880(5) 0.0626(4) 0.5897(5)
H21 H 0.7362 0.0036 0.6398
C37 C 0.8948(5) 0.0560(5) 0.5739(5)
H22 H 0.9151 -0.0087 0.6147
C38 C 0.9730(4) 0.1409(4) 0.5005(5)
H23 H 1.0451 0.1328 0.4905
C39 C 0.9451(3) 0.2393(4) 0.4407(4)
C40 C 0.9969(3) 0.4325(3) 0.3398(4)
H24 H 1.0506 0.4822 0.2678
C41 C 0.9966(3) 0.4665(3) 0.4252(3)
C42 C 1.0548(3) 0.5612(4) 0.3893(4)
H25 H 1.0930 0.6037 0.3137
C43 C 0.9421(3) 0.4055(4) 0.5373(4)
H26 H 0.9026 0.3409 0.5641
N6 N 0.8918(3) 0.4366(3) 0.3255(3)
N7 N 0.7247(3) 0.3744(4) 0.3609(3)
N8 N 1.0229(3) 0.3270(3) 0.3655(3)
H28 H 1.0873 0.3187 0.3338
C27A C 1.1493(4) 0.4778(4) 0.7419(4)
C28A C 1.1029(5) 0.3734(5) 0.8213(5)
H16A H 1.0327 0.3486 0.8364
C29A C 1.1689(6) 0.3077(5) 0.8773(5)
H17A H 1.1438 0.2374 0.9309
C30A C 1.2723(6) 0.3526(6) 0.8488(6)
H18A H 1.3154 0.3091 0.8855
C31A C 1.3151(5) 0.4512(5) 0.7743(5)
H19A H 1.3853 0.4756 0.7598
C32A C 1.2528(4) 0.5168(4) 0.7189(4)
C33A C 1.1874(3) 0.6464(4) 0.6170(4)
C34A C 1.1618(3) 0.7507(3) 0.5451(4)
C35A C 1.2412(4) 0.8397(5) 0.4712(5)
H20A H 1.3132 0.8331 0.4631
C36A C 1.2120(5) 0.9374(4) 0.4103(5)
H21A H 1.2638 0.9964 0.3602
C37A C 1.1052(5) 0.9440(5) 0.4261(5)
H22A H 1.0849 1.0087 0.3853
C38A C 1.0270(4) 0.8591(4) 0.4995(5)
H23A H 0.9549 0.8672 0.5095
C39A C 1.0549(3) 0.7607(4) 0.5593(4)
C40A C 1.0031(3) 0.5675(3) 0.6602(4)
H24A H 0.9494 0.5178 0.7322
C41A C 1.0034(3) 0.5335(3) 0.5748(3)
C42A C 0.9452(3) 0.4388(4) 0.6107(4)
H25A H 0.9070 0.3963 0.6863
C43A C 1.0579(3) 0.5945(4) 0.4627(4)
H26A H 1.0974 0.6591 0.4359
N6A N 1.1082(3) 0.5634(3) 0.6745(3)
N7A N 1.2753(3) 0.6256(4) 0.6391(3)
N8A N 0.9771(3) 0.6730(3) 0.6345(3)
H28A H 0.9127 0.6813 0.6662
O1 O 0.2335(13) 0.0182(9) 0.9237(12)
H36 H 0.2487 -0.0421 0.9469
C52 C 0.3229(16) 0.0885(14) 0.837(2)
H37 H 0.3778 0.0861 0.8679
H38 H 0.3020 0.1587 0.8120
C53 C 0.3749(15) 0.0781(11) 0.7370(12)
H39 H 0.3729 0.0047 0.7577
H40 H 0.4485 0.1110 0.7022
H41 H 0.3374 0.1117 0.6859
C54 C 0.0126(18) 0.8650(17) 0.2147(17)
H42 H 0.0101 0.8542 0.1554
H43 H -0.0536 0.8324 0.2771
H44 H 0.0718 0.8341 0.2368
O2 O 0.086(3) 1.0458(19) 0.059(2)
H45 H 0.1461 1.0289 0.0433
C55 C 0.028(3) 0.981(2) 0.175(3)
H46 H -0.0428 1.0036 0.1935
H47 H 0.0655 0.9932 0.2163
C56? C 0.1938(7) 0.7646(10) -0.0739(8)
C57? C 0.1435(10) 0.8051(13) -0.1523(10)
C58? C 0.0995(10) 0.7380(15) -0.1767(11)
C59? C 0.1057(11) 0.6305(15) -0.1228(13)
C60? C 0.1560(11) 0.5900(12) -0.0444(13)
C61? C 0.2001(7) 0.6571(10) -0.0199(9)
C62? C 0.2731(11) 0.7304(13) 0.0521(12)
C63? C 0.3071(8) 0.7220(9) 0.1296(8)
C64? C 0.3343(11) 0.8111(11) 0.1335(12)
C65? C 0.3694(13) 0.8005(14) 0.2175(13)
C66? C 0.3772(12) 0.7009(15) 0.2975(12)
C67? C 0.3500(13) 0.6118(13) 0.2935(10)
C68? C 0.3149(11) 0.6224(10) 0.2096(9)
C69? C 0.2888(4) 0.5290(4) 0.1245(4)
C70? C 0.3993(3) 0.5170(3) 0.0574(4)
C71? C 0.4162(4) 0.5035(6) -0.0313(6)
C72? C 0.4852(4) 0.5112(6) 0.0894(6)
H48? H 0.1393 0.8770 -0.1884
H49? H 0.0658 0.7650 -0.2292
H50? H 0.0762 0.5856 -0.1391
H51? H 0.1602 0.5181 -0.0083
H52? H 0.3291 0.8777 0.0800
H53? H 0.3877 0.8601 0.2202
H54? H 0.4007 0.6939 0.3537
H55? H 0.3552 0.5452 0.3471
H56? H 0.2378 0.4702 0.1436
H57? H 0.3586 0.5042 -0.0545
H58? H 0.4773 0.5173 0.1520
N10? N 0.2409(8) 0.8037(10) -0.0194(11)
N11? N 0.2491(7) 0.6315(10) 0.0559(10)
N12? N 0.2735(8) 0.5310(8) 0.2255(8)
loop_
_geom_bond_atom_site_label_1
_geom_bond_atom_site_label_2
_geom_bond_site_symmetry_1
_geom_bond_site_symmetry_2
C1 C2 1_555 1_555
C2 H1 1_555 1_555
C3 C2 1_555 1_555
H2 C3 1_555 1_555
C4 C3 1_555 1_555
H3 C4 1_555 1_555
C5 C4 1_555 1_555
H4 C5 1_555 1_555
C6 C1 1_555 1_555
C7 N1 1_555 1_555
N1 C8 1_555 1_555
C8 C1 1_555 1_555
N2 C8 1_555 1_555
C9 C7 1_555 1_555
C10 C11 1_555 1_555
C11 H5 1_555 1_555
C12 C11 1_555 1_555
H6 C12 1_555 1_555
C13 C12 1_555 1_555
H7 C13 1_555 1_555
C14 C13 1_555 1_555
H8 C14 1_555 1_555
C15 C10 1_555 1_555
C16 C17 1_555 1_555
C17 C18 1_555 1_555
C18 H9 1_555 1_555
C19 C18 1_555 1_555
H10 C19 1_555 1_555
C20 C19 1_555 1_555
H11 C20 1_555 1_555
C21 C20 1_555 1_555
H12 C21 1_555 1_555
C22 C17 1_555 1_555
C23 H13 1_555 1_555
C24 C23 1_555 1_555
C25 C24 1_555 1_555
H14 C25 1_555 1_555
C26 C24 1_555 1_555
H15 C26 1_555 1_555
C27 C28 1_555 1_555
C28 H16 1_555 1_555
C29 C28 1_555 1_555
H17 C29 1_555 1_555
C30 C29 1_555 1_555
H18 C30 1_555 1_555
C31 C30 1_555 1_555
H19 C31 1_555 1_555
C32 C27 1_555 1_555
C33 C34 1_555 1_555
C34 C35 1_555 1_555
C35 H20 1_555 1_555
C36 C35 1_555 1_555
H21 C36 1_555 1_555
C37 C36 1_555 1_555
H22 C37 1_555 1_555
C38 C37 1_555 1_555
H23 C38 1_555 1_555
C39 C34 1_555 1_555
C40 H24 1_555 1_555
C41 C40 1_555 1_555
C42 C41 1_555 1_555
H25 C42 1_555 1_555
C43 C41 1_555 1_555
H26 C43 1_555 1_555
N3 C10 1_555 1_555
N4 C15 1_555 1_555
N5 C22 1_555 1_555
H27 N5 1_555 1_555
N6 C27 1_555 1_555
N7 C32 1_555 1_555
N8 C39 1_555 1_555
H28 N8 1_555 1_555
C44 C7 1_555 1_555
H29 C44 1_555 1_555
C45 C44 1_555 1_555
H30 C45 1_555 1_555
C46 C45 1_555 1_555
H31 C46 1_555 1_555
C47 C9 1_555 1_555
H32 C47 1_555 1_555
C48 N2 1_555 1_555
H33 C48 1_555 1_555
C49 C48 1_555 1_555
C50 C49 1_555 1_555
H34 C50 1_555 1_555
C51 C49 1_555 1_555
H35 C51 1_555 1_555
N9 C6 1_555 1_555
O1 H36 1_555 1_555
C52 O1 1_555 1_555
H37 C52 1_555 1_555
H38 C52 1_555 1_555
C53 C52 1_555 1_555
H39 C53 1_555 1_555
H40 C53 1_555 1_555
H41 C53 1_555 1_555
C54 H42 1_555 1_555
H43 C54 1_555 1_555
H44 C54 1_555 1_555
O2 H45 1_555 1_555
C55 C54 1_555 1_555
H46 C55 1_555 1_555
H47 C55 1_555 1_555
C1A C2A 1_555 1_555
C2A H1A 1_555 1_555
C3A C2A 1_555 1_555
H2A C3A 1_555 1_555
C4A C3A 1_555 1_555
H3A C4A 1_555 1_555
C5A C4A 1_555 1_555
H4A C5A 1_555 1_555
C6A C1A 1_555 1_555
C7A N1A 1_555 1_555
N1A C8A 1_555 1_555
C8A C1A 1_555 1_555
N2A C8A 1_555 1_555
C9A C7A 1_555 1_555
C10A C11A 1_555 1_555
C11A H5A 1_555 1_555
C12A C11A 1_555 1_555
H6A C12A 1_555 1_555
C13A C12A 1_555 1_555
H7A C13A 1_555 1_555
C14A C13A 1_555 1_555
H8A C14A 1_555 1_555
C15A C10A 1_555 1_555
C16A C17A 1_555 1_555
C17A C18A 1_555 1_555
C18A H9A 1_555 1_555
C19A C18A 1_555 1_555
H10A C19A 1_555 1_555
C20A C19A 1_555 1_555
H11A C20A 1_555 1_555
C21A C20A 1_555 1_555
H12A C21A 1_555 1_555
C22A C17A 1_555 1_555
C23A H13A 1_555 1_555
C24A C23A 1_555 1_555
C25A C26 1_555 1_555
H14A C25A 1_555 1_555
C26A C25 1_555 1_555
H15A C26A 1_555 1_555
C27A C28A 1_555 1_555
C28A H16A 1_555 1_555
C29A C28A 1_555 1_555
H17A C29A 1_555 1_555
C30A C29A 1_555 1_555
H18A C30A 1_555 1_555
C31A C30A 1_555 1_555
H19A C31A 1_555 1_555
C32A C27A 1_555 1_555
C33A C34A 1_555 1_555
C34A C35A 1_555 1_555
C35A H20A 1_555 1_555
C36A C35A 1_555 1_555
H21A C36A 1_555 1_555
C37A C36A 1_555 1_555
H22A C37A 1_555 1_555
C38A C37A 1_555 1_555
H23A C38A 1_555 1_555
C39A C34A 1_555 1_555
C40A H24A 1_555 1_555
C41A C40A 1_555 1_555
C42A C43 1_555 1_555
H25A C42A 1_555 1_555
C43A C42 1_555 1_555
H26A C43A 1_555 1_555
N3A C10A 1_555 1_555
N4A C15A 1_555 1_555
N5A C22A 1_555 1_555
H27A N5A 1_555 1_555
N6A C27A 1_555 1_555
N7A C32A 1_555 1_555
N8A C39A 1_555 1_555
H28A N8A 1_555 1_555
C44A C7A 1_555 1_555
H29A C44A 1_555 1_555
C45A C44A 1_555 1_555
H30A C45A 1_555 1_555
C46A C45A 1_555 1_555
H31A C46A 1_555 1_555
C47A C9A 1_555 1_555
H32A C47A 1_555 1_555
C48A N2A 1_555 1_555
H33A C48A 1_555 1_555
C49A C48A 1_555 1_555
C50A C51 1_555 1_555
H34A C50A 1_555 1_555
C51A C50 1_555 1_555
H35A C51A 1_555 1_555
N9A C6A 1_555 1_555
C5 C6 1_555 1_555
N2 C9 1_555 1_555
C14 C15 1_555 1_555
C16 N3 1_555 1_555
C16 N4 1_555 1_555
C21 C22 1_555 1_555
C23 N3 1_555 1_555
C23 N5 1_555 1_555
C31 C32 1_555 1_555
C33 N6 1_555 1_555
C33 N7 1_555 1_555
C38 C39 1_555 1_555
C40 N6 1_555 1_555
C40 N8 1_555 1_555
C46 C47 1_555 1_555
C48 N9 1_555 1_555
O2 C55 1_555 1_555
C5A C6A 1_555 1_555
N2A C9A 1_555 1_555
C14A C15A 1_555 1_555
C16A N3A 1_555 1_555
C16A N4A 1_555 1_555
C21A C22A 1_555 1_555
C23A N3A 1_555 1_555
C23A N5A 1_555 1_555
C24A C25A 1_555 1_555
C24A C26A 1_555 1_555
C31A C32A 1_555 1_555
C33A N6A 1_555 1_555
C33A N7A 1_555 1_555
C38A C39A 1_555 1_555
C40A N6A 1_555 1_555
C40A N8A 1_555 1_555
C41A C42A 1_555 1_555
C41A C43A 1_555 1_555
C46A C47A 1_555 1_555
C48A N9A 1_555 1_555
C49A C50A 1_555 1_555
C49A C51A 1_555 1_555

#END
