
#######################################################################
#
#                 Cambridge Crystallographic Data Centre
#                                CCDC 
#
#######################################################################
#
# If this CIF has been generated from an entry in the Cambridge 
# Structural Database, then it will include bibliographic, chemical, 
# crystal, experimental, refinement or atomic coordinate data resulting 
# from the CCDC's data processing and validation procedures.
#
#######################################################################

data_GEFQIT
_chemical_formula_moiety         'C23 H23 Cl1 F3 N1 O6 S1'
_chemical_name_systematic        
'4-Ethyl 2-methyl 5-(4-chlorophenyl)-1-((4-methylphenyl)sulfonyl)-3-(trifluoromethyl)pyrrolidine-2,4-dicarboxylate'
_symmetry_cell_setting           orthorhombic
_symmetry_space_group_name_H-M   'P 21 21 21'
_symmetry_Int_Tables_number      19
_space_group_name_Hall           'P 2ac 2ab'
loop_
_symmetry_equiv_pos_site_id
_symmetry_equiv_pos_as_xyz
1 x,y,z
2 1/2-x,-y,1/2+z
3 -x,1/2+y,1/2-z
4 1/2+x,1/2-y,-z
_cell_length_a                   10.1514(18)
_cell_length_b                   12.640(2)
_cell_length_c                   20.255(4)
_cell_angle_alpha                90
_cell_angle_beta                 90
_cell_angle_gamma                90
_cell_volume                     2598.99
_exptl_crystal_colour            colorless
_exptl_crystal_description       block
_cell_formula_units_Z            4
loop_
_atom_site_label
_atom_site_type_symbol
_atom_site_fract_x
_atom_site_fract_y
_atom_site_fract_z
C1 C 0.3829(5) -0.3422(4) 0.0183(4)
H1 H 0.2993 -0.3422 0.0405
H2 H 0.4341 -0.4015 0.0331
H3 H 0.3692 -0.3472 -0.0285
C2 C 0.4560(4) -0.2400(3) 0.0340(3)
C3 C 0.5079(4) -0.2211(3) 0.0957(3)
H4 H 0.5000 -0.2725 0.1283
C4 C 0.5717(3) -0.1270(3) 0.1100(2)
H5 H 0.6063 -0.1151 0.1518
C5 C 0.5831(3) -0.0521(2) 0.06187(17)
C6 C 0.5334(4) -0.0697(3) -0.00053(18)
H6 H 0.5429 -0.0187 -0.0333
C7 C 0.4698(4) -0.1632(3) -0.0140(2)
H7 H 0.4356 -0.1749 -0.0560
C8 C 0.4528(3) 0.1728(3) 0.13103(15)
H8 H 0.5056 0.1831 0.1710
C9 C 0.3851(3) 0.2770(2) 0.11276(15)
H9 H 0.3106 0.2598 0.0839
C10 C 0.4863(3) 0.3389(2) 0.07108(15)
H10 H 0.4394 0.3847 0.0399
C11 C 0.5568(3) 0.2510(2) 0.03284(13)
H11 H 0.6505 0.2683 0.0285
C12 C 0.3576(3) 0.0833(2) 0.14176(14)
C13 C 0.3324(4) 0.0459(3) 0.20410(17)
H12 H 0.3765 0.0747 0.2401
C14 C 0.2416(4) -0.0349(4) 0.2138(2)
H13 H 0.2243 -0.0596 0.2562
C15 C 0.1783(4) -0.0775(3) 0.1613(2)
C16 C 0.2001(3) -0.0421(3) 0.09879(18)
H14 H 0.1555 -0.0714 0.0631
C17 C 0.2913(3) 0.0395(2) 0.08940(15)
H15 H 0.3072 0.0645 0.0470
C18 C 0.4969(3) 0.2357(2) -0.03488(14)
C19 C 0.5007(3) 0.2997(3) -0.14432(16)
H16 H 0.4899 0.2278 -0.1586
H17 H 0.5619 0.3351 -0.1729
H18 H 0.4172 0.3353 -0.1459
C20 C 0.5843(3) 0.4042(3) 0.10953(18)
C21 C 0.3303(4) 0.3327(3) 0.17303(19)
C22 C 0.1968(6) 0.4710(5) 0.2104(3)
H19 H 0.1657 0.4257 0.2458
H20 H 0.2668 0.5154 0.2275
C23 C 0.0922(10) 0.5344(7) 0.1865(3)
H21 H 0.1258 0.5841 0.1548
H22 H 0.0526 0.5720 0.2225
H23 H 0.0274 0.4901 0.1658
Cl1 Cl 0.06390(17) -0.17836(12) 0.17401(8)
F1 F 0.6644(2) 0.45707(15) 0.06944(12)
F2 F 0.5257(2) 0.47614(17) 0.14782(11)
F3 F 0.6600(2) 0.34527(18) 0.14885(11)
N1 N 0.5414(2) 0.15687(17) 0.07380(12)
O1 O 0.7091(2) 0.06508(19) 0.14428(12)
O2 O 0.7475(2) 0.09491(18) 0.02524(12)
O3 O 0.3579(4) 0.3119(3) 0.22836(14)
O4 O 0.2457(3) 0.4068(2) 0.15581(12)
O5 O 0.4109(2) 0.17464(19) -0.04749(11)
O6 O 0.55065(19) 0.30118(17) -0.07723(11)
S1 S 0.66021(7) 0.06939(6) 0.07832(4)
loop_
_geom_bond_atom_site_label_1
_geom_bond_atom_site_label_2
_geom_bond_site_symmetry_1
_geom_bond_site_symmetry_2
C1 H1 1_555 1_555
H2 C1 1_555 1_555
H3 C1 1_555 1_555
C2 C1 1_555 1_555
C3 C2 1_555 1_555
H4 C3 1_555 1_555
C4 C3 1_555 1_555
H5 C4 1_555 1_555
C5 C4 1_555 1_555
C6 C5 1_555 1_555
H6 C6 1_555 1_555
C7 C2 1_555 1_555
H7 C7 1_555 1_555
C8 H8 1_555 1_555
C9 C8 1_555 1_555
H9 C9 1_555 1_555
C10 C9 1_555 1_555
H10 C10 1_555 1_555
C11 C10 1_555 1_555
H11 C11 1_555 1_555
C12 C8 1_555 1_555
C13 C12 1_555 1_555
H12 C13 1_555 1_555
C14 C13 1_555 1_555
H13 C14 1_555 1_555
C15 C14 1_555 1_555
C16 C15 1_555 1_555
H14 C16 1_555 1_555
C17 C12 1_555 1_555
H15 C17 1_555 1_555
C18 C11 1_555 1_555
C19 H16 1_555 1_555
H17 C19 1_555 1_555
H18 C19 1_555 1_555
C20 C10 1_555 1_555
C21 C9 1_555 1_555
C22 H19 1_555 1_555
H20 C22 1_555 1_555
C23 C22 1_555 1_555
H21 C23 1_555 1_555
H22 C23 1_555 1_555
H23 C23 1_555 1_555
Cl1 C15 1_555 1_555
F1 C20 1_555 1_555
F2 C20 1_555 1_555
F3 C20 1_555 1_555
N1 C8 1_555 1_555
O1 S1 1_555 1_555
O2 S1 1_555 1_555
O3 C21 1_555 1_555
O4 C21 1_555 1_555
O5 C18 1_555 1_555
O6 C18 1_555 1_555
S1 C5 1_555 1_555
C6 C7 1_555 1_555
C11 N1 1_555 1_555
C16 C17 1_555 1_555
C19 O6 1_555 1_555
C22 O4 1_555 1_555
N1 S1 1_555 1_555

#END
