
#######################################################################
#
#                 Cambridge Crystallographic Data Centre
#                                CCDC 
#
#######################################################################
#
# If this CIF has been generated from an entry in the Cambridge 
# Structural Database, then it will include bibliographic, chemical, 
# crystal, experimental, refinement or atomic coordinate data resulting 
# from the CCDC's data processing and validation procedures.
#
#######################################################################

data_GEFVEU
_chemical_formula_moiety         'C19 H15 Br1 N2 O3'
_chemical_name_systematic        
N'-(5-Bromo-2-methoxybenzylidene)-3-hydroxy-2-naphthohydrazide
_symmetry_cell_setting           monoclinic
_symmetry_space_group_name_H-M   'P 21/c'
_symmetry_Int_Tables_number      14
_space_group_name_Hall           '-P 2ybc'
loop_
_symmetry_equiv_pos_site_id
_symmetry_equiv_pos_as_xyz
1 x,y,z
2 -x,1/2+y,1/2-z
3 -x,-y,-z
4 x,1/2-y,1/2+z
_cell_length_a                   8.9505(3)
_cell_length_b                   19.9571(7)
_cell_length_c                   19.4520(7)
_cell_angle_alpha                90
_cell_angle_beta                 99.558(2)
_cell_angle_gamma                90
_cell_volume                     3426.4
_exptl_crystal_colour            colorless
_exptl_crystal_description       block
_cell_formula_units_Z            8
loop_
_atom_site_label
_atom_site_type_symbol
_atom_site_fract_x
_atom_site_fract_y
_atom_site_fract_z
Br1 Br 0.22081(7) 0.72232(3) 0.95333(3)
N1 N 0.3944(4) 0.55787(18) 0.76253(19)
N2 N 0.3920(4) 0.52139(17) 0.70226(18)
O1 O 0.6897(4) 0.5101(2) 0.93762(18)
O2 O 0.2224(4) 0.59540(15) 0.64795(16)
O3 O 0.1103(4) 0.58622(18) 0.51818(18)
H1 H 0.1179 0.6002 0.5583
C1 C 0.4833(5) 0.5751(2) 0.8821(2)
C2 C 0.5872(6) 0.5597(3) 0.9426(3)
C3 C 0.5834(7) 0.5949(3) 1.0035(3)
H2 H 0.6541 0.5856 1.0430
C4 C 0.4762(7) 0.6434(3) 1.0059(3)
H3 H 0.4744 0.6669 1.0470
C5 C 0.3723(6) 0.6572(3) 0.9483(2)
C6 C 0.3746(5) 0.6238(2) 0.8864(2)
H4 H 0.3030 0.6339 0.8475
C7 C 0.4842(5) 0.5388(2) 0.8164(2)
H5 H 0.5491 0.5028 0.8143
C8 C 0.3028(5) 0.5443(2) 0.6447(2)
C9 C 0.3006(5) 0.5089(2) 0.5775(2)
C10 C 0.2032(5) 0.5331(2) 0.5166(2)
C11 C 0.2035(6) 0.5024(2) 0.4538(2)
H6 H 0.1384 0.5180 0.4148
C12 C 0.2991(5) 0.4480(2) 0.4464(2)
C13 C 0.3059(6) 0.4169(3) 0.3814(2)
H7 H 0.2438 0.4321 0.3413
C14 C 0.4017(7) 0.3653(3) 0.3771(3)
H8 H 0.4041 0.3457 0.3339
C15 C 0.4973(6) 0.3407(2) 0.4356(3)
H9 H 0.5622 0.3051 0.4315
C16 C 0.4942(6) 0.3697(2) 0.4992(2)
H10 H 0.5576 0.3535 0.5384
C17 C 0.3963(5) 0.4237(2) 0.5061(2)
C18 C 0.3938(5) 0.45551(19) 0.5707(2)
H11 H 0.4575 0.4397 0.6101
C19 C 0.7951(7) 0.4946(4) 0.9996(3)
H12 H 0.8615 0.5320 1.0118
H13 H 0.8537 0.4560 0.9913
H14 H 0.7407 0.4853 1.0370
H15 H 0.454(5) 0.4859(18) 0.703(3)
Br2 Br 1.04345(8) 0.46288(3) 0.19932(4)
N3 N 0.5785(4) 0.63724(18) 0.21480(19)
N4 N 0.4551(4) 0.67293(18) 0.2274(2)
O4 O 0.8409(4) 0.73882(15) 0.10493(17)
O5 O 0.3692(4) 0.58853(15) 0.28780(16)
O6 O 0.2993(4) 0.78470(15) 0.21258(19)
H16 H 0.2753 0.8237 0.2032
C20 C 0.8063(5) 0.6412(2) 0.1658(2)
C21 C 0.8955(5) 0.6777(2) 0.1268(2)
C22 C 1.0319(5) 0.6513(2) 0.1135(2)
H17 H 1.0922 0.6762 0.0884
C23 C 1.0776(5) 0.5886(2) 0.1373(2)
H18 H 1.1696 0.5713 0.1293
C24 C 0.9857(6) 0.5519(2) 0.1729(3)
C25 C 0.8529(5) 0.5769(2) 0.1880(2)
H19 H 0.7937 0.5512 0.2130
C26 C 0.6676(5) 0.6703(2) 0.1828(2)
H20 H 0.6434 0.7143 0.1699
C27 C 0.3551(5) 0.6459(2) 0.2644(2)
C28 C 0.2245(5) 0.6897(2) 0.2745(2)
C29 C 0.1955(5) 0.7561(2) 0.2476(2)
C30 C 0.0654(5) 0.7892(2) 0.2558(2)
H21 H 0.0466 0.8315 0.2363
C31 C -0.0404(5) 0.7603(2) 0.2931(2)
C32 C -0.1745(5) 0.7930(2) 0.3029(3)
H22 H -0.1971 0.8347 0.2824
C33 C -0.2724(6) 0.7650(3) 0.3417(3)
H23 H -0.3593 0.7880 0.3483
C34 C -0.2419(6) 0.7019(3) 0.3714(3)
H24 H -0.3089 0.6830 0.3977
C35 C -0.1145(6) 0.6675(2) 0.3624(2)
H25 H -0.0954 0.6255 0.3827
C36 C -0.0116(5) 0.6955(2) 0.3226(2)
C37 C 0.1212(5) 0.6621(2) 0.3115(2)
H26 H 0.1399 0.6194 0.3300
C38 C 0.9211(7) 0.7772(3) 0.0615(3)
H27 H 1.0200 0.7879 0.0865
H28 H 0.8667 0.8179 0.0482
H29 H 0.9308 0.7518 0.0206
H30 H 0.440(6) 0.7155(10) 0.213(3)
loop_
_geom_bond_atom_site_label_1
_geom_bond_atom_site_label_2
_geom_bond_site_symmetry_1
_geom_bond_site_symmetry_2
Br1 C5 1_555 1_555
N1 N2 1_555 1_555
N2 C8 1_555 1_555
O1 C2 1_555 1_555
O2 C8 1_555 1_555
O3 H1 1_555 1_555
C1 C2 1_555 1_555
C2 C3 1_555 1_555
C3 H2 1_555 1_555
C4 C3 1_555 1_555
H3 C4 1_555 1_555
C5 C4 1_555 1_555
C6 C1 1_555 1_555
H4 C6 1_555 1_555
C7 N1 1_555 1_555
H5 C7 1_555 1_555
C8 C9 1_555 1_555
C9 C10 1_555 1_555
C10 O3 1_555 1_555
C11 C10 1_555 1_555
H6 C11 1_555 1_555
C12 C11 1_555 1_555
C13 C12 1_555 1_555
H7 C13 1_555 1_555
C14 C13 1_555 1_555
H8 C14 1_555 1_555
C15 C14 1_555 1_555
H9 C15 1_555 1_555
C16 C15 1_555 1_555
H10 C16 1_555 1_555
C17 C12 1_555 1_555
C18 C9 1_555 1_555
H11 C18 1_555 1_555
C19 O1 1_555 1_555
H12 C19 1_555 1_555
H13 C19 1_555 1_555
H14 C19 1_555 1_555
H15 N2 1_555 1_555
Br2 C24 1_555 1_555
N3 N4 1_555 1_555
N4 C27 1_555 1_555
O4 C21 1_555 1_555
O5 C27 1_555 1_555
O6 H16 1_555 1_555
C20 C21 1_555 1_555
C21 C22 1_555 1_555
C22 H17 1_555 1_555
C23 C22 1_555 1_555
H18 C23 1_555 1_555
C24 C23 1_555 1_555
C25 C20 1_555 1_555
H19 C25 1_555 1_555
C26 N3 1_555 1_555
H20 C26 1_555 1_555
C27 C28 1_555 1_555
C28 C29 1_555 1_555
C29 O6 1_555 1_555
C30 C29 1_555 1_555
H21 C30 1_555 1_555
C31 C30 1_555 1_555
C32 C31 1_555 1_555
H22 C32 1_555 1_555
C33 C32 1_555 1_555
H23 C33 1_555 1_555
C34 C33 1_555 1_555
H24 C34 1_555 1_555
C35 C34 1_555 1_555
H25 C35 1_555 1_555
C36 C31 1_555 1_555
C37 C28 1_555 1_555
H26 C37 1_555 1_555
C38 O4 1_555 1_555
H27 C38 1_555 1_555
H28 C38 1_555 1_555
H29 C38 1_555 1_555
H30 N4 1_555 1_555
C1 C7 1_555 1_555
C5 C6 1_555 1_555
C16 C17 1_555 1_555
C17 C18 1_555 1_555
C20 C26 1_555 1_555
C24 C25 1_555 1_555
C35 C36 1_555 1_555
C36 C37 1_555 1_555

#END
