
#######################################################################
#
#                 Cambridge Crystallographic Data Centre
#                                CCDC 
#
#######################################################################
#
# If this CIF has been generated from an entry in the Cambridge 
# Structural Database, then it will include bibliographic, chemical, 
# crystal, experimental, refinement or atomic coordinate data resulting 
# from the CCDC's data processing and validation procedures.
#
#######################################################################

data_GEFWIZ
_chemical_formula_moiety         'C14 H9 Cl1 F1 N3 O3'
_chemical_name_systematic        
N'-(2-Chloro-5-nitrobenzylidene)-2-fluorobenzohydrazide
_symmetry_cell_setting           orthorhombic
_symmetry_space_group_name_H-M   'P 21 21 21'
_symmetry_Int_Tables_number      19
_space_group_name_Hall           'P 2ac 2ab'
loop_
_symmetry_equiv_pos_site_id
_symmetry_equiv_pos_as_xyz
1 x,y,z
2 1/2-x,-y,1/2+z
3 -x,1/2+y,1/2-z
4 1/2+x,1/2-y,-z
_cell_length_a                   4.850(2)
_cell_length_b                   5.536(3)
_cell_length_c                   49.738(3)
_cell_angle_alpha                90
_cell_angle_beta                 90
_cell_angle_gamma                90
_cell_volume                     1335.45
_exptl_crystal_colour            colorless
_exptl_crystal_description       block
_cell_formula_units_Z            4
loop_
_atom_site_label
_atom_site_type_symbol
_atom_site_fract_x
_atom_site_fract_y
_atom_site_fract_z
Cl1 Cl 0.2045(3) -0.2027(3) 0.09976(3)
F1 F 1.0855(7) 0.5516(7) 0.21120(6)
N1 N 0.7332(8) 0.3581(7) 0.12124(7)
N2 N 0.6718(8) 0.4891(8) 0.14350(7)
N3 N 1.0328(9) 0.1844(9) 0.02574(8)
O1 O 1.1212(9) 0.3876(8) 0.02972(7)
O2 O 1.1067(7) 0.0567(7) 0.00731(6)
O3 O 1.1135(7) 0.5081(7) 0.15639(6)
C1 C 0.4423(10) -0.0837(9) 0.07811(9)
C2 C 0.5845(9) 0.1247(8) 0.08519(8)
C3 C 0.7760(10) 0.2121(8) 0.06735(8)
H1 H 0.8712 0.3537 0.0712
C4 C 0.8266(9) 0.0923(9) 0.04406(8)
C5 C 0.6897(10) -0.1183(9) 0.03748(9)
H2 H 0.7301 -0.2004 0.0216
C6 C 0.4959(11) -0.2023(10) 0.05455(10)
H3 H 0.3983 -0.3417 0.0503
C7 C 0.5345(10) 0.2535(9) 0.11029(8)
H4 H 0.3596 0.2577 0.1179
C8 C 0.8723(10) 0.5647(10) 0.15949(8)
C9 C 0.7839(9) 0.7311(8) 0.18074(8)
C10 C 0.8978(10) 0.7238(10) 0.20561(9)
C11 C 0.8283(13) 0.8750(11) 0.22587(10)
H5 H 0.9097 0.8604 0.2427
C12 C 0.6393(13) 1.0467(12) 0.22108(12)
H6 H 0.5911 1.1524 0.2348
C13 C 0.5151(12) 1.0702(12) 0.19643(11)
H7 H 0.3870 1.1916 0.1931
C14 C 0.5879(10) 0.9063(10) 0.17666(10)
H8 H 0.5009 0.9152 0.1600
H9 H 0.495(4) 0.519(11) 0.1481(10)
loop_
_geom_bond_atom_site_label_1
_geom_bond_atom_site_label_2
_geom_bond_site_symmetry_1
_geom_bond_site_symmetry_2
Cl1 C1 1_555 1_555
F1 C10 1_555 1_555
N1 N2 1_555 1_555
N2 C8 1_555 1_555
N3 O1 1_555 1_555
O2 N3 1_555 1_555
O3 C8 1_555 1_555
C1 C2 1_555 1_555
C2 C3 1_555 1_555
C3 H1 1_555 1_555
C4 N3 1_555 1_555
C5 C4 1_555 1_555
H2 C5 1_555 1_555
C6 C1 1_555 1_555
H3 C6 1_555 1_555
C7 N1 1_555 1_555
H4 C7 1_555 1_555
C8 C9 1_555 1_555
C9 C10 1_555 1_555
C10 C11 1_555 1_555
C11 H5 1_555 1_555
C12 C11 1_555 1_555
H6 C12 1_555 1_555
C13 C12 1_555 1_555
H7 C13 1_555 1_555
C14 C9 1_555 1_555
H8 C14 1_555 1_555
H9 N2 1_555 1_555
C2 C7 1_555 1_555
C3 C4 1_555 1_555
C5 C6 1_555 1_555
C13 C14 1_555 1_555

#END
