
#######################################################################
#
#                 Cambridge Crystallographic Data Centre
#                                CCDC 
#
#######################################################################
#
# If this CIF has been generated from an entry in the Cambridge 
# Structural Database, then it will include bibliographic, chemical, 
# crystal, experimental, refinement or atomic coordinate data resulting 
# from the CCDC's data processing and validation procedures.
#
#######################################################################

data_GEGBIF
_chemical_formula_moiety         'C42 H36 N10,3(H2 O1)'
_chemical_name_systematic        
'tris(1-(3-Pyridylmethyl)benzimidazol-2-ylmethyl)amine trihydrate'
_symmetry_cell_setting           triclinic
_symmetry_space_group_name_H-M   'P -1'
_symmetry_Int_Tables_number      2
_space_group_name_Hall           '-P 1'
loop_
_symmetry_equiv_pos_site_id
_symmetry_equiv_pos_as_xyz
1 x,y,z
2 -x,-y,-z
_cell_length_a                   10.8124(5)
_cell_length_b                   11.2603(4)
_cell_length_c                   17.2799(7)
_cell_angle_alpha                100.994(3)
_cell_angle_beta                 95.756(4)
_cell_angle_gamma                116.213(4)
_cell_volume                     1811.71
_exptl_crystal_colour            yellow
_exptl_crystal_description       block
_cell_formula_units_Z            2
loop_
_atom_site_label
_atom_site_type_symbol
_atom_site_fract_x
_atom_site_fract_y
_atom_site_fract_z
N1 N 0.01127(12) 0.58157(12) 0.19556(7)
N2 N -0.19690(13) 0.52828(13) 0.02406(7)
N3 N -0.28003(13) 0.59154(12) 0.12910(7)
N4 N -0.04399(14) 0.98087(13) 0.29424(8)
N5 N 0.36355(13) 0.75044(13) 0.20891(7)
N6 N 0.24416(12) 0.85187(12) 0.16449(7)
C1 C 0.28003(18) 0.90250(17) -0.07160(10)
H1 H 0.3624 0.9153 -0.0917
N7 N -0.14392(13) 0.48393(12) 0.33149(7)
N8 N 0.06601(12) 0.63989(12) 0.40987(7)
N9 N 0.40242(13) 1.11450(13) 0.52284(8)
C2 C -0.13205(15) 0.47491(15) 0.15050(9)
H2 H -0.1904 0.4376 0.1892
H3 H -0.1250 0.3987 0.1153
C3 C -0.20230(15) 0.53061(14) 0.10024(9)
C4 C -0.27490(16) 0.59121(15) 0.00169(9)
C5 C -0.30736(17) 0.61522(18) -0.07245(10)
H4 H -0.2740 0.5878 -0.1178
C6 C -0.38883(18) 0.67945(17) -0.07747(11)
H5 H -0.4120 0.6964 -0.1273
C7 C -0.43854(19) 0.72054(17) -0.01194(12)
H6 H -0.4936 0.7660 -0.0179
C8 C -0.40994(18) 0.69697(17) 0.06160(11)
H7 H -0.4451 0.7235 0.1063
C9 C -0.32679(15) 0.63218(15) 0.06663(9)
C10 C -0.31509(17) 0.60640(16) 0.20869(9)
H8 H -0.3117 0.5335 0.2316
H9 H -0.4129 0.5926 0.2025
C11 C -0.21816(15) 0.74390(15) 0.26711(9)
C12 C -0.12896(16) 0.85749(16) 0.24353(10)
H10 H -0.1281 0.8471 0.1877
C13 C -0.04594(17) 0.99289(16) 0.37250(10)
H11 H 0.0148 1.0792 0.4097
C14 C -0.13106(17) 0.88711(17) 0.40181(10)
H12 H -0.1293 0.9005 0.4580
C15 C -0.21925(16) 0.76102(16) 0.34868(9)
H13 H -0.2801 0.6867 0.3677
C16 C 0.10992(15) 0.59786(15) 0.13985(9)
H14 H 0.0636 0.5933 0.0862
H15 H 0.1339 0.5217 0.1336
C17 C 0.24173(15) 0.73159(15) 0.17092(8)
C18 C 0.45209(15) 0.89210(15) 0.22796(9)
C19 C 0.59254(17) 0.97092(18) 0.26857(9)
H16 H 0.6450 0.9297 0.2879
C20 C 0.65250(18) 1.11146(18) 0.27956(10)
H17 H 0.7484 1.1672 0.3065
C21 C 0.57702(18) 1.17379(17) 0.25248(10)
H18 H 0.6220 1.2708 0.2619
C22 C 0.43833(17) 1.09757(16) 0.21230(9)
H19 H 0.3861 1.1393 0.1934
C23 C 0.37877(15) 0.95629(15) 0.20088(9)
C24 C 0.13507(16) 0.86863(16) 0.11950(9)
H20 H 0.1357 0.9537 0.1486
H21 H 0.0422 0.7907 0.1172
C25 C 0.15237(16) 0.87596(15) 0.03441(9)
C26 C 0.27271(17) 0.89157(16) 0.00636(10)
H22 H 0.3495 0.8947 0.0403
C27 C 0.1663(2) 0.89445(18) -0.11911(11)
H23 H 0.1719 0.9024 -0.1725
N10 N 0.04794(17) 0.87603(18) -0.09440(9)
C28 C 0.04382(18) 0.86803(18) -0.01858(11)
H24 H -0.0397 0.8561 0.0000
C29 C 0.05956(15) 0.54067(15) 0.26415(9)
H25 H 0.1630 0.5978 0.2823
H26 H 0.0394 0.4440 0.2454
C30 C -0.00822(15) 0.55471(14) 0.33430(8)
C31 C -0.16154(16) 0.52372(14) 0.40905(9)
C32 C -0.28470(17) 0.48210(16) 0.43980(10)
H27 H -0.3742 0.4178 0.4064
C33 C -0.27096(18) 0.53823(16) 0.52043(10)
H28 H -0.3530 0.5131 0.5427
C34 C -0.14018(19) 0.63067(17) 0.56997(10)
H29 H -0.1348 0.6652 0.6255
C35 C -0.01795(18) 0.67353(16) 0.54054(9)
H30 H 0.0713 0.7368 0.5745
C36 C -0.03160(15) 0.61962(14) 0.45879(9)
C37 C 0.21769(15) 0.72945(15) 0.43897(9)
H31 H 0.2681 0.6965 0.4029
H32 H 0.2453 0.7215 0.4934
C38 C 0.26548(15) 0.87898(14) 0.44342(9)
C39 C 0.34744(15) 0.97852(15) 0.51394(9)
H33 H 0.3663 0.9487 0.5595
C40 C 0.37469(17) 1.15367(17) 0.45777(11)
H34 H 0.4128 1.2491 0.4620
C41 C 0.29369(18) 1.06265(17) 0.38508(10)
H35 H 0.2765 1.0951 0.3404
C42 C 0.23759(17) 0.92354(17) 0.37770(9)
H36 H 0.1805 0.8592 0.3281
O1 O 0.44063(13) 0.65172(12) 0.33606(9)
H40 H 0.415(2) 0.675(2) 0.2871(15)
H41 H 0.488(3) 0.733(3) 0.3761(16)
O2 O 0.15527(14) 0.17822(14) 0.22984(9)
H39 H 0.093(2) 0.123(2) 0.2533(13)
H42 H 0.099(2) 0.174(2) 0.1835(14)
O3 O 0.42656(15) 0.39072(15) 0.30152(9)
H37 H 0.326(2) 0.326(2) 0.2786(13)
H38 H 0.414(2) 0.481(3) 0.3079(14)
loop_
_geom_bond_atom_site_label_1
_geom_bond_atom_site_label_2
_geom_bond_site_symmetry_1
_geom_bond_site_symmetry_2
N1 C2 1_555 1_555
N2 C3 1_555 1_555
N3 C3 1_555 1_555
N4 C12 1_555 1_555
N5 C17 1_555 1_555
N6 C17 1_555 1_555
C1 H1 1_555 1_555
N7 C30 1_555 1_555
N8 C30 1_555 1_555
N9 C39 1_555 1_555
C2 H2 1_555 1_555
H3 C2 1_555 1_555
C3 C2 1_555 1_555
C4 N2 1_555 1_555
C5 C4 1_555 1_555
H4 C5 1_555 1_555
C6 C5 1_555 1_555
H5 C6 1_555 1_555
C7 C6 1_555 1_555
H6 C7 1_555 1_555
C8 C7 1_555 1_555
H7 C8 1_555 1_555
C9 N3 1_555 1_555
C10 N3 1_555 1_555
H8 C10 1_555 1_555
H9 C10 1_555 1_555
C11 C10 1_555 1_555
C12 C11 1_555 1_555
H10 C12 1_555 1_555
C13 N4 1_555 1_555
H11 C13 1_555 1_555
C14 C13 1_555 1_555
H12 C14 1_555 1_555
C15 C11 1_555 1_555
H13 C15 1_555 1_555
C16 N1 1_555 1_555
H14 C16 1_555 1_555
H15 C16 1_555 1_555
C17 C16 1_555 1_555
C18 N5 1_555 1_555
C19 C18 1_555 1_555
H16 C19 1_555 1_555
C20 C19 1_555 1_555
H17 C20 1_555 1_555
C21 C20 1_555 1_555
H18 C21 1_555 1_555
C22 C21 1_555 1_555
H19 C22 1_555 1_555
C23 N6 1_555 1_555
C24 N6 1_555 1_555
H20 C24 1_555 1_555
H21 C24 1_555 1_555
C25 C24 1_555 1_555
C26 C1 1_555 1_555
H22 C26 1_555 1_555
C27 C1 1_555 1_555
H23 C27 1_555 1_555
N10 C27 1_555 1_555
C28 C25 1_555 1_555
H24 C28 1_555 1_555
C29 N1 1_555 1_555
H25 C29 1_555 1_555
H26 C29 1_555 1_555
C30 C29 1_555 1_555
C31 N7 1_555 1_555
C32 C31 1_555 1_555
H27 C32 1_555 1_555
C33 C32 1_555 1_555
H28 C33 1_555 1_555
C34 C33 1_555 1_555
H29 C34 1_555 1_555
C35 C34 1_555 1_555
H30 C35 1_555 1_555
C36 N8 1_555 1_555
C37 N8 1_555 1_555
H31 C37 1_555 1_555
H32 C37 1_555 1_555
C38 C37 1_555 1_555
C39 C38 1_555 1_555
H33 C39 1_555 1_555
C40 N9 1_555 1_555
H34 C40 1_555 1_555
C41 C40 1_555 1_555
H35 C41 1_555 1_555
C42 C38 1_555 1_555
H36 C42 1_555 1_555
O1 H40 1_555 1_555
O2 H39 1_555 1_555
O3 H37 1_555 1_555
H38 O3 1_555 1_555
H41 O1 1_555 1_555
H42 O2 1_555 1_555
C4 C9 1_555 1_555
C8 C9 1_555 1_555
C14 C15 1_555 1_555
C18 C23 1_555 1_555
C22 C23 1_555 1_555
C25 C26 1_555 1_555
N10 C28 1_555 1_555
C31 C36 1_555 1_555
C35 C36 1_555 1_555
C41 C42 1_555 1_555

#END
