
#######################################################################
#
#                 Cambridge Crystallographic Data Centre
#                                CCDC 
#
#######################################################################
#
# If this CIF has been generated from an entry in the Cambridge 
# Structural Database, then it will include bibliographic, chemical, 
# crystal, experimental, refinement or atomic coordinate data resulting 
# from the CCDC's data processing and validation procedures.
#
#######################################################################

data_GEGDUU
_chemical_formula_moiety         'C18 H11 F7 N2 O3'
_chemical_name_systematic        
2-(4-nitrophenyl)-N-[2,3,5,6-tetrafluoro-4-(trifluoromethyl)phenyl]cyclobutane-1-carboxamide
_symmetry_cell_setting           orthorhombic
_symmetry_space_group_name_H-M   'P 21 21 21'
_symmetry_Int_Tables_number      19
_space_group_name_Hall           'P 2ac 2ab'
loop_
_symmetry_equiv_pos_site_id
_symmetry_equiv_pos_as_xyz
1 x,y,z
2 1/2-x,-y,1/2+z
3 -x,1/2+y,1/2-z
4 1/2+x,1/2-y,-z
_cell_length_a                   4.8829(4)
_cell_length_b                   31.362(2)
_cell_length_c                   33.483(2)
_cell_angle_alpha                90
_cell_angle_beta                 90
_cell_angle_gamma                90
_cell_volume                     5127.5
_exptl_crystal_colour            colorless
_exptl_crystal_description       needle
_cell_formula_units_Z            12
loop_
_atom_site_label
_atom_site_type_symbol
_atom_site_fract_x
_atom_site_fract_y
_atom_site_fract_z
F1 F -0.0264(6) 0.72213(9) 0.49638(8)
F2 F 0.0622(7) 0.68480(9) 0.42607(8)
F3 F 0.5384(8) 0.65765(11) 0.38422(9)
F4 F 0.2552(7) 0.60700(11) 0.39686(9)
F5 F 0.6812(7) 0.59843(12) 0.40942(10)
F6 F 0.7893(6) 0.60599(9) 0.48331(9)
F7 F 0.6842(6) 0.63964(9) 0.55327(8)
O1 O 0.6991(7) 0.71971(11) 0.58332(10)
O2 O 0.8174(11) 0.52878(14) 0.65313(13)
O3 O 0.9811(11) 0.55210(15) 0.70825(13)
N1 N 0.2663(8) 0.70276(13) 0.56325(12)
H1 H 0.0923 0.7038 0.5701
N2 N 0.8338(11) 0.55608(15) 0.67904(14)
C1 C 0.4781(12) 0.62696(17) 0.41026(16)
C2 C 0.4327(11) 0.64515(16) 0.45153(15)
C3 C 0.2236(10) 0.67450(16) 0.45699(14)
C4 C 0.1764(10) 0.69330(14) 0.49317(14)
C5 C 0.3310(10) 0.68331(15) 0.52660(14)
C6 C 0.5368(10) 0.65285(15) 0.52190(14)
C7 C 0.5854(11) 0.63505(15) 0.48495(15)
C8 C 0.4517(10) 0.72026(16) 0.58923(14)
C9 C 0.3180(10) 0.74061(15) 0.62521(14)
H2 H 0.1601 0.7584 0.6161
C10 C 0.4851(11) 0.76589(16) 0.65534(15)
H3 H 0.4756 0.7972 0.6516
H4 H 0.6771 0.7562 0.6580
C11 C 0.2936(12) 0.74891(17) 0.68792(16)
H5 H 0.1370 0.7680 0.6938
H6 H 0.3894 0.7406 0.7128
C12 C 0.2191(11) 0.71055(16) 0.66063(15)
H7 H 0.0175 0.7050 0.6598
C13 C 0.3829(11) 0.67050(16) 0.66616(14)
C14 C 0.3263(12) 0.63511(16) 0.64173(15)
H8 H 0.1843 0.6369 0.6224
C15 C 0.4755(12) 0.59761(17) 0.64549(16)
H9 H 0.4414 0.5740 0.6284
C16 C 0.6745(12) 0.59541(16) 0.67468(16)
C17 C 0.7314(11) 0.62883(17) 0.69976(15)
H10 H 0.8676 0.6264 0.7199
C18 C 0.5840(11) 0.66643(17) 0.69486(16)
H11 H 0.6229 0.6900 0.7118
F8 F 0.4998(6) 0.43056(9) 0.46944(9)
F9 F 0.6092(7) 0.47028(10) 0.53763(9)
F10 F 1.0990(8) 0.50461(12) 0.57457(10)
F11 F 0.7813(7) 0.54955(10) 0.56204(10)
F12 F 1.1956(8) 0.56370(12) 0.54556(11)
F13 F 1.3009(7) 0.54941(9) 0.47217(9)
F14 F 1.1788(7) 0.51236(10) 0.40459(9)
O4 O 1.2039(8) 0.43093(11) 0.38010(11)
O5 O 0.8551(11) 0.63250(13) 0.31367(14)
O6 O 1.2228(11) 0.62424(15) 0.27892(15)
N3 N 0.7714(8) 0.44615(13) 0.40026(12)
H12 H 0.5964 0.4435 0.3945
N4 N 1.0237(12) 0.60991(17) 0.29677(14)
C19 C 1.0134(12) 0.53240(18) 0.54750(17)
C20 C 0.9594(11) 0.51131(15) 0.50793(15)
C21 C 0.7542(11) 0.48091(16) 0.50531(15)
C22 C 0.6968(11) 0.46014(15) 0.46998(16)
C23 C 0.8433(10) 0.46887(15) 0.43504(15)
C24 C 1.0429(11) 0.50018(15) 0.43726(15)
C25 C 1.1021(11) 0.52021(16) 0.47292(17)
C26 C 0.9583(11) 0.42797(16) 0.37481(15)
C27 C 0.8269(11) 0.40529(17) 0.34013(16)
H13 H 0.6319 0.3970 0.3449
C28 C 1.0067(13) 0.36881(18) 0.32357(18)
H14 H 0.9001 0.3447 0.3125
H15 H 1.1467 0.3586 0.3427
C29 C 1.1215(11) 0.39931(19) 0.29133(17)
H16 H 1.3009 0.4120 0.2983
H17 H 1.1244 0.3870 0.2641
C30 C 0.8755(10) 0.42898(17) 0.29926(16)
H18 H 0.7243 0.4212 0.2805
C31 C 0.9125(12) 0.47652(18) 0.29836(15)
C32 C 0.7384(12) 0.50359(18) 0.31997(15)
H19 H 0.5939 0.4916 0.3353
C33 C 0.7727(13) 0.54709(18) 0.31941(15)
H20 H 0.6545 0.5653 0.3342
C34 C 0.9835(13) 0.56365(18) 0.29681(16)
C35 C 1.1566(12) 0.5386(2) 0.27438(17)
H21 H 1.2981 0.5509 0.2587
C36 C 1.1172(12) 0.49466(19) 0.27554(16)
H22 H 1.2339 0.4767 0.2603
F15 F -0.0054(6) 0.38925(9) 0.50791(9)
F16 F 0.0963(7) 0.35710(10) 0.43588(9)
F17 F 0.5966(8) 0.32864(12) 0.39472(10)
F18 F 0.2781(8) 0.28278(12) 0.40344(10)
F19 F 0.6912(8) 0.26656(13) 0.41780(11)
F20 F 0.8139(6) 0.27473(9) 0.49120(10)
F21 F 0.6953(7) 0.30366(10) 0.56245(9)
O7 O 0.7062(8) 0.38415(13) 0.59420(11)
O8 O 0.9214(12) 0.20372(14) 0.69829(18)
O9 O 1.1862(10) 0.23744(14) 0.73833(13)
N5 N 0.2754(9) 0.36579(14) 0.57486(12)
H23 H 0.1025 0.3649 0.5822
N6 N 0.9984(11) 0.23602(16) 0.71409(14)
C37 C 0.5093(12) 0.29791(18) 0.41928(17)
C38 C 0.4622(11) 0.31481(17) 0.46078(15)
C39 C 0.2488(11) 0.34387(16) 0.46678(15)
C40 C 0.1958(10) 0.36016(15) 0.50407(15)
C41 C 0.3450(10) 0.34836(16) 0.53742(15)
C42 C 0.5520(11) 0.31871(16) 0.53172(16)
C43 C 0.6093(10) 0.30297(15) 0.49404(16)
C44 C 0.4578(11) 0.38386(17) 0.60020(16)
C45 C 0.3314(12) 0.40443(18) 0.63624(16)
H24 H 0.1273 0.4018 0.6363
C46 C 0.4262(12) 0.45114(19) 0.64265(17)
H25 H 0.5238 0.4635 0.6195
H26 H 0.2791 0.4704 0.6520
C47 C 0.6178(12) 0.43545(17) 0.67623(16)
H27 H 0.8111 0.4322 0.6678
H28 H 0.6040 0.4523 0.7012
C48 C 0.4575(12) 0.39313(18) 0.67734(15)
H29 H 0.3094 0.3963 0.6978
C49 C 0.5990(11) 0.35174(18) 0.68544(15)
C50 C 0.5237(12) 0.31389(18) 0.66677(16)
H30 H 0.3810 0.3141 0.6475
C51 C 0.6529(12) 0.27609(19) 0.67587(16)
H31 H 0.6009 0.2503 0.6631
C52 C 0.8605(11) 0.27661(17) 0.70409(16)
C53 C 0.9385(12) 0.31338(17) 0.72353(15)
H32 H 1.0797 0.3128 0.7430
C54 C 0.8083(12) 0.35098(17) 0.71418(15)
H33 H 0.8604 0.3766 0.7273
loop_
_geom_bond_atom_site_label_1
_geom_bond_atom_site_label_2
_geom_bond_site_symmetry_1
_geom_bond_site_symmetry_2
F1 C4 1_555 1_555
F2 C3 1_555 1_555
F3 C1 1_555 1_555
F4 C1 1_555 1_555
F5 C1 1_555 1_555
F6 C7 1_555 1_555
F7 C6 1_555 1_555
O1 C8 1_555 1_555
O2 N2 1_555 1_555
O3 N2 1_555 1_555
N1 H1 1_555 1_555
N2 C16 1_555 1_555
C1 C2 1_555 1_555
C2 C3 1_555 1_555
C3 C4 1_555 1_555
C4 C5 1_555 1_555
C5 N1 1_555 1_555
C6 C5 1_555 1_555
C7 C2 1_555 1_555
C8 N1 1_555 1_555
C9 C8 1_555 1_555
H2 C9 1_555 1_555
C10 C9 1_555 1_555
H3 C10 1_555 1_555
H4 C10 1_555 1_555
C11 C10 1_555 1_555
H5 C11 1_555 1_555
H6 C11 1_555 1_555
C12 C9 1_555 1_555
H7 C12 1_555 1_555
C13 C12 1_555 1_555
C14 C13 1_555 1_555
H8 C14 1_555 1_555
C15 C14 1_555 1_555
H9 C15 1_555 1_555
C16 C15 1_555 1_555
C17 C16 1_555 1_555
H10 C17 1_555 1_555
C18 C13 1_555 1_555
H11 C18 1_555 1_555
F8 C22 1_555 1_555
F9 C21 1_555 1_555
F10 C19 1_555 1_555
F11 C19 1_555 1_555
F12 C19 1_555 1_555
F13 C25 1_555 1_555
F14 C24 1_555 1_555
O4 C26 1_555 1_555
O5 N4 1_555 1_555
O6 N4 1_555 1_555
N3 H12 1_555 1_555
N4 C34 1_555 1_555
C19 C20 1_555 1_555
C20 C21 1_555 1_555
C21 C22 1_555 1_555
C22 C23 1_555 1_555
C23 N3 1_555 1_555
C24 C23 1_555 1_555
C25 C20 1_555 1_555
C26 N3 1_555 1_555
C27 C26 1_555 1_555
H13 C27 1_555 1_555
C28 C27 1_555 1_555
H14 C28 1_555 1_555
H15 C28 1_555 1_555
C29 C28 1_555 1_555
H16 C29 1_555 1_555
H17 C29 1_555 1_555
C30 C27 1_555 1_555
H18 C30 1_555 1_555
C31 C30 1_555 1_555
C32 C31 1_555 1_555
H19 C32 1_555 1_555
C33 C32 1_555 1_555
H20 C33 1_555 1_555
C34 C33 1_555 1_555
C35 C34 1_555 1_555
H21 C35 1_555 1_555
C36 C31 1_555 1_555
H22 C36 1_555 1_555
F15 C40 1_555 1_555
F16 C39 1_555 1_555
F17 C37 1_555 1_555
F18 C37 1_555 1_555
F19 C37 1_555 1_555
F20 C43 1_555 1_555
F21 C42 1_555 1_555
O7 C44 1_555 1_555
O8 N6 1_555 1_555
O9 N6 1_555 1_555
N5 H23 1_555 1_555
N6 C52 1_555 1_555
C37 C38 1_555 1_555
C38 C39 1_555 1_555
C39 C40 1_555 1_555
C40 C41 1_555 1_555
C41 N5 1_555 1_555
C42 C41 1_555 1_555
C43 C38 1_555 1_555
C44 N5 1_555 1_555
C45 C44 1_555 1_555
H24 C45 1_555 1_555
C46 C45 1_555 1_555
H25 C46 1_555 1_555
H26 C46 1_555 1_555
C47 C46 1_555 1_555
H27 C47 1_555 1_555
H28 C47 1_555 1_555
C48 C45 1_555 1_555
H29 C48 1_555 1_555
C49 C48 1_555 1_555
C50 C49 1_555 1_555
H30 C50 1_555 1_555
C51 C50 1_555 1_555
H31 C51 1_555 1_555
C52 C51 1_555 1_555
C53 C52 1_555 1_555
H32 C53 1_555 1_555
C54 C49 1_555 1_555
H33 C54 1_555 1_555
C6 C7 1_555 1_555
C11 C12 1_555 1_555
C17 C18 1_555 1_555
C24 C25 1_555 1_555
C29 C30 1_555 1_555
C35 C36 1_555 1_555
C42 C43 1_555 1_555
C47 C48 1_555 1_555
C53 C54 1_555 1_555

#END
