
#######################################################################
#
#                 Cambridge Crystallographic Data Centre
#                                CCDC 
#
#######################################################################
#
# If this CIF has been generated from an entry in the Cambridge 
# Structural Database, then it will include bibliographic, chemical, 
# crystal, experimental, refinement or atomic coordinate data resulting 
# from the CCDC's data processing and validation procedures.
#
#######################################################################

data_GEGFEF
_chemical_formula_moiety         'C70 H52 N2 O8,2(C1 H1 Cl3)'
_chemical_name_systematic        
"9,9'-(Hexane-1,6-diyl)bis(7,11-bis(4-methoxyphenyl)-8H-acenaphtho[1,2-f]isoindole-8,10(9H)-dione) chloroform solvate"
_symmetry_cell_setting           triclinic
_symmetry_space_group_name_H-M   'P -1'
_symmetry_Int_Tables_number      2
_space_group_name_Hall           '-P 1'
loop_
_symmetry_equiv_pos_site_id
_symmetry_equiv_pos_as_xyz
1 x,y,z
2 -x,-y,-z
_cell_length_a                   12.255(3)
_cell_length_b                   14.877(3)
_cell_length_c                   16.037(3)
_cell_angle_alpha                90.02(3)
_cell_angle_beta                 94.30(3)
_cell_angle_gamma                94.75(3)
_cell_volume                     2905.52
_exptl_crystal_colour            yellow
_exptl_crystal_description       line
_cell_formula_units_Z            2
loop_
_atom_site_label
_atom_site_type_symbol
_atom_site_fract_x
_atom_site_fract_y
_atom_site_fract_z
O1 O 1.26342(16) 0.72426(14) 0.39786(13)
O2 O 1.04082(15) 0.46363(14) 0.40566(13)
O3 O 1.69053(17) 0.87668(15) 0.29996(14)
O4 O 0.99950(18) 0.07862(16) 0.39256(15)
O5 O 0.71060(16) 0.80240(14) 0.09123(13)
O6 O 0.94548(15) 1.05646(15) 0.10056(13)
O7 O 0.28214(19) 0.65030(17) 0.16949(18)
O8 O 1.01102(18) 1.43603(16) 0.11321(15)
N1 N 1.13011(18) 0.60561(16) 0.40124(14)
N2 N 0.84890(18) 0.91707(17) 0.09547(15)
C1 C 1.2374(2) 0.6437(2) 0.39513(17)
C2 C 1.3069(2) 0.5669(2) 0.38728(17)
C3 C 1.4201(2) 0.5675(2) 0.37862(17)
C4 C 1.4598(2) 0.4812(2) 0.37833(18)
C5 C 1.3892(2) 0.4001(2) 0.37728(17)
C6 C 1.2756(2) 0.4016(2) 0.38392(17)
C7 C 1.2387(2) 0.4874(2) 0.38987(17)
C8 C 1.1246(2) 0.5120(2) 0.40015(17)
C9 C 1.4926(2) 0.6494(2) 0.36374(18)
C10 C 1.5067(2) 0.7240(2) 0.41782(18)
H1 H 1.4697 0.7226 0.4678
C11 C 1.5737(2) 0.7997(2) 0.39962(19)
H2 H 1.5833 0.8495 0.4373
C12 C 1.6271(2) 0.8028(2) 0.32596(19)
C13 C 1.6159(2) 0.7286(2) 0.27232(19)
H3 H 1.6541 0.7299 0.2229
C14 C 1.5492(2) 0.6532(2) 0.29115(18)
H4 H 1.5416 0.6029 0.2541
C15 C 1.6737(3) 0.9614(2) 0.3364(2)
H5 H 1.5948 0.9665 0.3391
H6 H 1.7047 1.0103 0.3022
H7 H 1.7101 0.9656 0.3930
C16 C 1.2013(2) 0.3170(2) 0.38481(18)
C17 C 1.1893(3) 0.2689(2) 0.4584(2)
H8 H 1.2281 0.2908 0.5088
C18 C 1.1217(3) 0.1897(2) 0.4594(2)
H9 H 1.1146 0.1574 0.5100
C19 C 1.0643(2) 0.1577(2) 0.3857(2)
C20 C 1.0761(2) 0.2033(2) 0.3124(2)
H10 H 1.0382 0.1809 0.2618
C21 C 1.1443(2) 0.2826(2) 0.3129(2)
H11 H 1.1520 0.3143 0.2619
C22 C 0.9496(3) 0.0380(3) 0.3163(2)
H12 H 0.8965 0.0774 0.2905
H13 H 0.9118 -0.0206 0.3286
H14 H 1.0064 0.0295 0.2779
C23 C 1.5744(2) 0.4553(2) 0.38144(17)
C24 C 1.6771(2) 0.5004(2) 0.39050(18)
H15 H 1.6854 0.5644 0.3932
C25 C 1.7707(2) 0.4499(2) 0.39577(18)
H16 H 1.8416 0.4812 0.4028
C26 C 1.7622(2) 0.3573(2) 0.39107(18)
H17 H 1.8267 0.3259 0.3939
C27 C 1.6571(2) 0.3082(2) 0.38203(18)
C28 C 1.6334(2) 0.2137(2) 0.37622(18)
H18 H 1.6917 0.1753 0.3787
C29 C 1.5263(2) 0.1771(2) 0.36694(19)
H19 H 1.5125 0.1136 0.3609
C30 C 1.4352(2) 0.2309(2) 0.36607(18)
H20 H 1.3619 0.2040 0.3608
C31 C 1.4565(2) 0.3230(2) 0.37303(18)
C32 C 1.5668(2) 0.3599(2) 0.37818(17)
C33 C 1.0390(2) 0.6575(2) 0.42194(18)
H21 H 1.0692 0.7134 0.4518
H22 H 0.9931 0.6217 0.4602
C34 C 0.9664(2) 0.6827(2) 0.34478(18)
H23 H 0.9388 0.6269 0.3137
H24 H 0.9021 0.7112 0.3635
C35 C 1.0256(2) 0.7469(2) 0.28583(18)
H25 H 1.0881 0.7177 0.2651
H26 H 1.0555 0.8020 0.3172
C36 C 0.9500(2) 0.7737(2) 0.21100(18)
H27 H 0.9202 0.7187 0.1796
H28 H 0.8874 0.8029 0.2317
C37 C 1.0096(2) 0.8380(2) 0.15221(18)
H29 H 1.0741 0.8096 0.1338
H30 H 1.0372 0.8937 0.1835
C38 C 0.9386(2) 0.8638(2) 0.07488(18)
H31 H 0.9853 0.8989 0.0367
H32 H 0.9073 0.8082 0.0451
C39 C 0.7394(2) 0.8818(2) 0.09815(17)
C40 C 0.6739(2) 0.9611(2) 0.11042(17)
C41 C 0.5614(2) 0.9632(2) 0.12091(17)
C42 C 0.5270(2) 1.0506(2) 0.12975(18)
C43 C 0.6015(2) 1.1297(2) 0.13555(17)
C44 C 0.7147(2) 1.1252(2) 0.12534(18)
C45 C 0.7458(2) 1.0388(2) 0.11226(17)
C46 C 0.8589(2) 1.0106(2) 0.10192(17)
C47 C 0.4853(2) 0.8817(2) 0.12839(18)
C48 C 0.4739(2) 0.8121(2) 0.06956(19)
H33 H 0.5139 0.8177 0.0211
C49 C 0.4056(2) 0.7351(2) 0.0801(2)
H34 H 0.3985 0.6884 0.0392
C50 C 0.3474(2) 0.7263(2) 0.1510(2)
C51 C 0.3552(2) 0.7953(2) 0.2097(2)
H35 H 0.3136 0.7898 0.2574
C52 C 0.4234(2) 0.8717(2) 0.19850(18)
H36 H 0.4288 0.9187 0.2391
C53 C 0.2960(4) 0.5716(3) 0.1223(4)
H37 H 0.2597 0.5764 0.0661
H38 H 0.2634 0.5184 0.1501
H39 H 0.3745 0.5658 0.1181
C54 C 0.7932(2) 1.2066(2) 0.12489(19)
C55 C 0.8246(2) 1.2573(2) 0.19644(19)
H40 H 0.7948 1.2392 0.2474
C56 C 0.8979(2) 1.3335(2) 0.1963(2)
H41 H 0.9193 1.3661 0.2466
C57 C 0.9393(2) 1.3612(2) 0.1220(2)
C58 C 0.9082(3) 1.3122(2) 0.0487(2)
H42 H 0.9361 1.3315 -0.0026
C59 C 0.8368(2) 1.2358(2) 0.05087(19)
H43 H 0.8170 1.2022 0.0008
C60 C 1.0337(3) 1.4953(3) 0.1842(2)
H44 H 0.9644 1.5102 0.2054
H45 H 1.0751 1.5508 0.1674
H46 H 1.0771 1.4654 0.2281
C61 C 0.4144(2) 1.0798(2) 0.12979(17)
C62 C 0.3098(2) 1.0382(2) 0.11623(18)
H47 H 0.2988 0.9749 0.1073
C63 C 0.2187(2) 1.0915(2) 0.11583(19)
H48 H 0.1467 1.0626 0.1070
C64 C 0.2311(2) 1.1827(2) 0.12776(19)
H49 H 0.1680 1.2158 0.1274
C65 C 0.3377(2) 1.2287(2) 0.14071(18)
C66 C 0.3657(3) 1.3227(2) 0.1520(2)
H50 H 0.3092 1.3626 0.1539
C67 C 0.4739(2) 1.3563(2) 0.1602(2)
H51 H 0.4904 1.4192 0.1693
C68 C 0.5624(2) 1.3003(2) 0.15562(19)
H52 H 0.6364 1.3256 0.1595
C69 C 0.5379(2) 1.2085(2) 0.14538(18)
C70 C 0.4262(2) 1.1745(2) 0.14055(17)
Cl1 Cl 0.83381(7) 0.58516(7) 0.03020(6)
Cl2 Cl 0.74139(7) 0.53131(7) 0.18607(6)
Cl3 Cl 0.59942(8) 0.56580(10) 0.04233(7)
C71 C 0.7262(3) 0.5961(3) 0.0954(2)
H53 H 0.7278 0.6609 0.1125
Cl4 Cl 0.38530(7) 0.96697(9) 0.45526(7)
Cl5 Cl 0.23315(8) 0.99525(7) 0.31542(6)
Cl6 Cl 0.15395(7) 0.92622(6) 0.47188(5)
C72 C 0.2599(3) 0.9287(2) 0.4031(2)
H54 H 0.2658 0.8656 0.3834
loop_
_geom_bond_atom_site_label_1
_geom_bond_atom_site_label_2
_geom_bond_site_symmetry_1
_geom_bond_site_symmetry_2
O1 C1 1_555 1_555
O2 C8 1_555 1_555
O3 C12 1_555 1_555
O4 C19 1_555 1_555
O5 C39 1_555 1_555
O6 C46 1_555 1_555
O7 C50 1_555 1_555
O8 C57 1_555 1_555
N1 C1 1_555 1_555
N2 C38 1_555 1_555
C1 C2 1_555 1_555
C2 C3 1_555 1_555
C3 C4 1_555 1_555
C4 C5 1_555 1_555
C5 C6 1_555 1_555
C6 C7 1_555 1_555
C7 C2 1_555 1_555
C8 N1 1_555 1_555
C9 C3 1_555 1_555
C10 C9 1_555 1_555
H1 C10 1_555 1_555
C11 C10 1_555 1_555
H2 C11 1_555 1_555
C12 C11 1_555 1_555
C13 C12 1_555 1_555
H3 C13 1_555 1_555
C14 C9 1_555 1_555
H4 C14 1_555 1_555
C15 O3 1_555 1_555
H5 C15 1_555 1_555
H6 C15 1_555 1_555
H7 C15 1_555 1_555
C16 C6 1_555 1_555
C17 C16 1_555 1_555
H8 C17 1_555 1_555
C18 C17 1_555 1_555
H9 C18 1_555 1_555
C19 C18 1_555 1_555
C20 C19 1_555 1_555
H10 C20 1_555 1_555
C21 C16 1_555 1_555
H11 C21 1_555 1_555
C22 O4 1_555 1_555
H12 C22 1_555 1_555
H13 C22 1_555 1_555
H14 C22 1_555 1_555
C23 C4 1_555 1_555
C24 C23 1_555 1_555
H15 C24 1_555 1_555
C25 C24 1_555 1_555
H16 C25 1_555 1_555
C26 C25 1_555 1_555
H17 C26 1_555 1_555
C27 C26 1_555 1_555
C28 C27 1_555 1_555
H18 C28 1_555 1_555
C29 C28 1_555 1_555
H19 C29 1_555 1_555
C30 C29 1_555 1_555
H20 C30 1_555 1_555
C31 C5 1_555 1_555
C32 C23 1_555 1_555
C33 N1 1_555 1_555
H21 C33 1_555 1_555
H22 C33 1_555 1_555
C34 C33 1_555 1_555
H23 C34 1_555 1_555
H24 C34 1_555 1_555
C35 C34 1_555 1_555
H25 C35 1_555 1_555
H26 C35 1_555 1_555
C36 C35 1_555 1_555
H27 C36 1_555 1_555
H28 C36 1_555 1_555
C37 C36 1_555 1_555
H29 C37 1_555 1_555
H30 C37 1_555 1_555
C38 C37 1_555 1_555
H31 C38 1_555 1_555
H32 C38 1_555 1_555
C39 N2 1_555 1_555
C40 C39 1_555 1_555
C41 C40 1_555 1_555
C42 C41 1_555 1_555
C43 C42 1_555 1_555
C44 C43 1_555 1_555
C45 C40 1_555 1_555
C46 N2 1_555 1_555
C47 C41 1_555 1_555
C48 C47 1_555 1_555
H33 C48 1_555 1_555
C49 C48 1_555 1_555
H34 C49 1_555 1_555
C50 C49 1_555 1_555
C51 C50 1_555 1_555
H35 C51 1_555 1_555
C52 C47 1_555 1_555
H36 C52 1_555 1_555
C53 O7 1_555 1_555
H37 C53 1_555 1_555
H38 C53 1_555 1_555
H39 C53 1_555 1_555
C54 C44 1_555 1_555
C55 C54 1_555 1_555
H40 C55 1_555 1_555
C56 C55 1_555 1_555
H41 C56 1_555 1_555
C57 C56 1_555 1_555
C58 C57 1_555 1_555
H42 C58 1_555 1_555
C59 C54 1_555 1_555
H43 C59 1_555 1_555
C60 O8 1_555 1_555
H44 C60 1_555 1_555
H45 C60 1_555 1_555
H46 C60 1_555 1_555
C61 C42 1_555 1_555
C62 C61 1_555 1_555
H47 C62 1_555 1_555
C63 C62 1_555 1_555
H48 C63 1_555 1_555
C64 C63 1_555 1_555
H49 C64 1_555 1_555
C65 C64 1_555 1_555
C66 C65 1_555 1_555
H50 C66 1_555 1_555
C67 C66 1_555 1_555
H51 C67 1_555 1_555
C68 C67 1_555 1_555
H52 C68 1_555 1_555
C69 C43 1_555 1_555
C70 C61 1_555 1_555
Cl1 C71 1_555 1_555
Cl2 C71 1_555 1_555
Cl3 C71 1_555 1_555
C71 H53 1_555 1_555
Cl4 C72 1_555 1_555
Cl5 C72 1_555 1_555
Cl6 C72 1_555 1_555
C72 H54 1_555 1_555
C7 C8 1_555 1_555
C13 C14 1_555 1_555
C20 C21 1_555 1_555
C27 C32 1_555 1_555
C30 C31 1_555 1_555
C31 C32 1_555 1_555
C44 C45 1_555 1_555
C45 C46 1_555 1_555
C51 C52 1_555 1_555
C58 C59 1_555 1_555
C65 C70 1_555 1_555
C68 C69 1_555 1_555
C69 C70 1_555 1_555

#END
