
#######################################################################
#
#                 Cambridge Crystallographic Data Centre
#                                CCDC 
#
#######################################################################
#
# If this CIF has been generated from an entry in the Cambridge 
# Structural Database, then it will include bibliographic, chemical, 
# crystal, experimental, refinement or atomic coordinate data resulting 
# from the CCDC's data processing and validation procedures.
#
#######################################################################

data_GEGFAB
_chemical_formula_moiety         'C69 H50 N2 O8,C1 H1 Cl3'
_chemical_name_systematic        
"9,9'-(Pentane-1,5-diyl)bis(7,11-bis(4-methoxyphenyl)-8H-acenaphtho[1,2-f]isoindole-8,10(9H)-dione) chloroform solvate"
_symmetry_cell_setting           monoclinic
_symmetry_space_group_name_H-M   'P 21/c'
_symmetry_Int_Tables_number      14
_space_group_name_Hall           '-P 2ybc'
loop_
_symmetry_equiv_pos_site_id
_symmetry_equiv_pos_as_xyz
1 x,y,z
2 -x,1/2+y,1/2-z
3 -x,-y,-z
4 x,1/2-y,1/2+z
_cell_length_a                   26.823(8)
_cell_length_b                   8.243(2)
_cell_length_c                   27.085(8)
_cell_angle_alpha                90
_cell_angle_beta                 108.789(5)
_cell_angle_gamma                90
_cell_volume                     5669.42
_exptl_crystal_colour            yellow
_exptl_crystal_description       line
_cell_formula_units_Z            4
loop_
_atom_site_label
_atom_site_type_symbol
_atom_site_fract_x
_atom_site_fract_y
_atom_site_fract_z
O1 O 0.46370(14) 0.7331(4) 0.50626(10)
O2 O 0.36346(10) 0.3484(3) 0.32896(9)
O3 O 0.29898(11) 0.3012(3) 0.15156(10)
O4 O 0.24339(13) 0.5953(4) -0.04311(10)
O5 O 0.02531(10) -0.1023(3) 0.15498(10)
O6 O 0.09698(10) -0.1021(3) 0.33231(10)
O7 O 0.06255(12) -0.1595(3) 0.52840(10)
O8 O -0.17125(13) -0.1093(4) -0.02162(11)
N1 N 0.32708(12) 0.2890(4) 0.24124(11)
N2 N 0.07296(12) -0.0936(4) 0.24284(11)
C1 C 0.35479(14) 0.3844(4) 0.28321(14)
C2 C 0.37030(14) 0.5339(4) 0.26075(13)
C3 C 0.39355(14) 0.6747(4) 0.28634(14)
C4 C 0.39848(14) 0.8026(4) 0.25377(14)
C5 C 0.42487(15) 0.9626(4) 0.26704(14)
C6 C 0.45201(14) 1.0427(4) 0.31240(15)
H1 H 0.4554 0.9965 0.3455
C7 C 0.47473(15) 1.1951(5) 0.30864(16)
H2 H 0.4933 1.2507 0.3399
C8 C 0.47110(16) 1.2665(5) 0.26164(16)
H3 H 0.4868 1.3694 0.2609
C9 C 0.44385(15) 1.1857(5) 0.21427(15)
C10 C 0.43888(16) 1.2361(5) 0.16263(16)
H4 H 0.4539 1.3361 0.1571
C11 C 0.41250(16) 1.1414(5) 0.12075(15)
H5 H 0.4094 1.1785 0.0867
C12 C 0.38968(15) 0.9906(5) 0.12617(15)
H6 H 0.3721 0.9271 0.0964
C13 C 0.39342(14) 0.9374(4) 0.17571(14)
C14 C 0.42075(14) 1.0362(4) 0.21817(14)
C15 C 0.37876(14) 0.7893(4) 0.19794(13)
C16 C 0.35265(14) 0.6502(4) 0.17307(13)
C17 C 0.35037(14) 0.5213(4) 0.20618(14)
C18 C 0.32238(15) 0.3618(5) 0.19326(14)
C19 C 0.41125(14) 0.6925(4) 0.34465(13)
C20 C 0.38536(16) 0.7979(5) 0.36820(14)
H7 H 0.3562 0.8589 0.3472
C21 C 0.40159(17) 0.8154(5) 0.42211(15)
H8 H 0.3837 0.8878 0.4379
C22 C 0.44420(18) 0.7260(5) 0.45268(15)
C23 C 0.46996(17) 0.6189(5) 0.42966(15)
H9 H 0.4989 0.5570 0.4507
C24 C 0.45333(15) 0.6026(5) 0.37612(14)
H10 H 0.4710 0.5286 0.3605
C25 C 0.4377(3) 0.8376(7) 0.53153(18)
H11 H 0.4439 0.9507 0.5239
H12 H 0.4514 0.8194 0.5693
H13 H 0.3998 0.8152 0.5189
C26 C 0.32521(14) 0.6438(4) 0.11542(13)
C27 C 0.28493(15) 0.7517(5) 0.09199(14)
H14 H 0.2765 0.8348 0.1123
C28 C 0.25643(16) 0.7399(5) 0.03873(15)
H15 H 0.2286 0.8136 0.0231
C29 C 0.26912(16) 0.6204(5) 0.00907(14)
C30 C 0.31021(17) 0.5144(5) 0.03197(15)
H16 H 0.3196 0.4344 0.0113
C31 C 0.33745(16) 0.5246(5) 0.08461(14)
H17 H 0.3649 0.4495 0.1001
C32 C 0.1975(2) 0.6887(6) -0.06650(18)
H18 H 0.1715 0.6668 -0.0489
H19 H 0.1827 0.6599 -0.1035
H20 H 0.2067 0.8043 -0.0633
C33 C 0.29907(14) 0.1394(4) 0.24546(15)
H21 H 0.3172 0.0860 0.2792
H22 H 0.2995 0.0639 0.2172
C34 C 0.24233(14) 0.1757(4) 0.24167(15)
H23 H 0.2250 0.2358 0.2090
H24 H 0.2420 0.2459 0.2712
C35 C 0.21123(15) 0.0212(5) 0.24247(16)
H25 H 0.2296 -0.0406 0.2745
H26 H 0.2108 -0.0469 0.2122
C36 C 0.15425(15) 0.0521(5) 0.24074(16)
H27 H 0.1541 0.1141 0.2720
H28 H 0.1357 0.1171 0.2095
C37 C 0.12593(14) -0.1084(5) 0.23901(15)
H29 H 0.1235 -0.1643 0.2060
H30 H 0.1473 -0.1775 0.2680
C38 C 0.02669(15) -0.0936(4) 0.20012(14)
C39 C -0.01756(15) -0.0804(5) 0.22254(14)
C40 C -0.07193(14) -0.0730(4) 0.19681(14)
C41 C -0.10260(14) -0.0508(4) 0.22957(14)
C42 C -0.15902(15) -0.0065(4) 0.21603(14)
C43 C -0.19867(15) 0.0300(5) 0.17066(15)
H31 H -0.1942 0.0122 0.1377
C44 C -0.24638(16) 0.0950(5) 0.17419(15)
H32 H -0.2738 0.1206 0.1429
C45 C -0.25436(15) 0.1222(5) 0.22101(15)
H33 H -0.2867 0.1676 0.2217
C46 C -0.21446(15) 0.0826(4) 0.26869(15)
C47 C -0.21544(16) 0.1085(5) 0.31997(15)
H34 H -0.2463 0.1508 0.3251
C48 C -0.17237(16) 0.0734(5) 0.36244(15)
H35 H -0.1744 0.0899 0.3965
C49 C -0.12485(15) 0.0129(4) 0.35687(15)
H36 H -0.0953 -0.0093 0.3867
C50 C -0.12242(15) -0.0128(4) 0.30726(14)
C51 C -0.16801(15) 0.0191(4) 0.26421(14)
C52 C -0.08017(14) -0.0538(4) 0.28526(14)
C53 C -0.02608(15) -0.0735(4) 0.31033(14)
C54 C 0.00472(15) -0.0805(5) 0.27732(14)
C55 C 0.06303(15) -0.0929(5) 0.29014(14)
C56 C -0.00385(15) -0.0906(5) 0.36825(14)
C57 C -0.02072(16) -0.2195(5) 0.39231(14)
H37 H -0.0469 -0.2913 0.3716
C58 C -0.00026(16) -0.2454(5) 0.44568(15)
H38 H -0.0123 -0.3340 0.4613
C59 C 0.03786(16) -0.1412(5) 0.47607(14)
C60 C 0.05427(16) -0.0098(5) 0.45278(15)
H39 H 0.0799 0.0629 0.4737
C61 C 0.03374(15) 0.0161(5) 0.39944(14)
H40 H 0.0452 0.1064 0.3841
C62 C 0.0481(2) -0.2997(5) 0.55286(16)
H41 H 0.0101 -0.2984 0.5468
H42 H 0.0670 -0.2970 0.5904
H43 H 0.0575 -0.3987 0.5379
C63 C -0.09715(15) -0.0852(5) 0.13914(14)
C64 C -0.08755(16) 0.0259(5) 0.10503(14)
H44 H -0.0635 0.1121 0.1185
C65 C -0.11226(17) 0.0144(5) 0.05178(15)
H45 H -0.1048 0.0912 0.0290
C66 C -0.14814(17) -0.1102(5) 0.03162(15)
C67 C -0.15815(16) -0.2235(5) 0.06476(15)
H46 H -0.1823 -0.3095 0.0512
C68 C -0.13256(15) -0.2107(5) 0.11818(15)
H47 H -0.1394 -0.2891 0.1409
C69 C -0.2098(2) -0.2315(7) -0.04369(18)
H48 H -0.1942 -0.3389 -0.0335
H49 H -0.2219 -0.2222 -0.0818
H50 H -0.2398 -0.2173 -0.0309
C70 C 0.34269(19) 0.3614(6) 0.43099(16)
H51 H 0.3471 0.4257 0.4014
Cl1 Cl 0.40355(5) 0.27701(16) 0.46642(5)
Cl2 Cl 0.31982(6) 0.49163(19) 0.47055(5)
Cl3 Cl 0.29600(5) 0.20636(17) 0.40532(5)
loop_
_geom_bond_atom_site_label_1
_geom_bond_atom_site_label_2
_geom_bond_site_symmetry_1
_geom_bond_site_symmetry_2
O1 C22 1_555 1_555
O2 C1 1_555 1_555
O3 C18 1_555 1_555
O4 C29 1_555 1_555
O5 C38 1_555 1_555
O6 C55 1_555 1_555
O7 C59 1_555 1_555
O8 C66 1_555 1_555
N1 C1 1_555 1_555
N2 C37 1_555 1_555
C1 C2 1_555 1_555
C2 C3 1_555 1_555
C3 C4 1_555 1_555
C4 C5 1_555 1_555
C5 C6 1_555 1_555
C6 H1 1_555 1_555
C7 C6 1_555 1_555
H2 C7 1_555 1_555
C8 C7 1_555 1_555
H3 C8 1_555 1_555
C9 C8 1_555 1_555
C10 C9 1_555 1_555
H4 C10 1_555 1_555
C11 C10 1_555 1_555
H5 C11 1_555 1_555
C12 C11 1_555 1_555
H6 C12 1_555 1_555
C13 C12 1_555 1_555
C14 C5 1_555 1_555
C15 C4 1_555 1_555
C16 C15 1_555 1_555
C17 C2 1_555 1_555
C18 N1 1_555 1_555
C19 C3 1_555 1_555
C20 C19 1_555 1_555
H7 C20 1_555 1_555
C21 C20 1_555 1_555
H8 C21 1_555 1_555
C22 C21 1_555 1_555
C23 C22 1_555 1_555
H9 C23 1_555 1_555
C24 C19 1_555 1_555
H10 C24 1_555 1_555
C25 O1 1_555 1_555
H11 C25 1_555 1_555
H12 C25 1_555 1_555
H13 C25 1_555 1_555
C26 C16 1_555 1_555
C27 C26 1_555 1_555
H14 C27 1_555 1_555
C28 C27 1_555 1_555
H15 C28 1_555 1_555
C29 C28 1_555 1_555
C30 C29 1_555 1_555
H16 C30 1_555 1_555
C31 C26 1_555 1_555
H17 C31 1_555 1_555
C32 O4 1_555 1_555
H18 C32 1_555 1_555
H19 C32 1_555 1_555
H20 C32 1_555 1_555
C33 N1 1_555 1_555
H21 C33 1_555 1_555
H22 C33 1_555 1_555
C34 C33 1_555 1_555
H23 C34 1_555 1_555
H24 C34 1_555 1_555
C35 C34 1_555 1_555
H25 C35 1_555 1_555
H26 C35 1_555 1_555
C36 C35 1_555 1_555
H27 C36 1_555 1_555
H28 C36 1_555 1_555
C37 C36 1_555 1_555
H29 C37 1_555 1_555
H30 C37 1_555 1_555
C38 N2 1_555 1_555
C39 C38 1_555 1_555
C40 C39 1_555 1_555
C41 C40 1_555 1_555
C42 C41 1_555 1_555
C43 C42 1_555 1_555
H31 C43 1_555 1_555
C44 C43 1_555 1_555
H32 C44 1_555 1_555
C45 C44 1_555 1_555
H33 C45 1_555 1_555
C46 C45 1_555 1_555
C47 C46 1_555 1_555
H34 C47 1_555 1_555
C48 C47 1_555 1_555
H35 C48 1_555 1_555
C49 C48 1_555 1_555
H36 C49 1_555 1_555
C50 C49 1_555 1_555
C51 C42 1_555 1_555
C52 C41 1_555 1_555
C53 C52 1_555 1_555
C54 C39 1_555 1_555
C55 N2 1_555 1_555
C56 C53 1_555 1_555
C57 C56 1_555 1_555
H37 C57 1_555 1_555
C58 C57 1_555 1_555
H38 C58 1_555 1_555
C59 C58 1_555 1_555
C60 C59 1_555 1_555
H39 C60 1_555 1_555
C61 C56 1_555 1_555
H40 C61 1_555 1_555
C62 O7 1_555 1_555
H41 C62 1_555 1_555
H42 C62 1_555 1_555
H43 C62 1_555 1_555
C63 C40 1_555 1_555
C64 C63 1_555 1_555
H44 C64 1_555 1_555
C65 C64 1_555 1_555
H45 C65 1_555 1_555
C66 C65 1_555 1_555
C67 C66 1_555 1_555
H46 C67 1_555 1_555
C68 C63 1_555 1_555
H47 C68 1_555 1_555
C69 O8 1_555 1_555
H48 C69 1_555 1_555
H49 C69 1_555 1_555
H50 C69 1_555 1_555
C70 H51 1_555 1_555
Cl1 C70 1_555 1_555
Cl2 C70 1_555 1_555
Cl3 C70 1_555 1_555
C9 C14 1_555 1_555
C13 C14 1_555 1_555
C13 C15 1_555 1_555
C16 C17 1_555 1_555
C17 C18 1_555 1_555
C23 C24 1_555 1_555
C30 C31 1_555 1_555
C46 C51 1_555 1_555
C50 C51 1_555 1_555
C50 C52 1_555 1_555
C53 C54 1_555 1_555
C54 C55 1_555 1_555
C60 C61 1_555 1_555
C67 C68 1_555 1_555

#END
