
#######################################################################
#
#                 Cambridge Crystallographic Data Centre
#                                CCDC 
#
#######################################################################
#
# If this CIF has been generated from an entry in the Cambridge 
# Structural Database, then it will include bibliographic, chemical, 
# crystal, experimental, refinement or atomic coordinate data resulting 
# from the CCDC's data processing and validation procedures.
#
#######################################################################

data_GEGJIN
_chemical_formula_moiety         'C62 H76 N2 O2 S4'
_chemical_name_systematic        
2,5-bis(2-Ethylhexyl)-3,6-bis(4-(5'-hexyl-2,2'-bithiophen-5-yl)phenyl)-2,5-dihydropyrrolo[3,4-c]pyrrole-1,4-dione
_symmetry_cell_setting           monoclinic
_symmetry_space_group_name_H-M   'C 2/c'
_symmetry_Int_Tables_number      15
_space_group_name_Hall           '-C 2yn'
loop_
_symmetry_equiv_pos_site_id
_symmetry_equiv_pos_as_xyz
1 x,y,z
2 -x,y,1/2-z
3 1/2+x,1/2+y,z
4 1/2-x,1/2+y,1/2-z
5 -x,-y,-z
6 x,-y,1/2+z
7 1/2-x,1/2-y,-z
8 1/2+x,1/2-y,1/2+z
_cell_length_a                   57.201(8)
_cell_length_b                   10.5227(15)
_cell_length_c                   9.1022(12)
_cell_angle_alpha                90
_cell_angle_beta                 97.505(3)
_cell_angle_gamma                90
_cell_volume                     5431.76
_exptl_crystal_colour            red
_exptl_crystal_description       plate
_cell_formula_units_Z            4
loop_
_atom_site_label
_atom_site_type_symbol
_atom_site_fract_x
_atom_site_fract_y
_atom_site_fract_z
C1 C 0.33014(5) 0.2038(3) -0.4881(3)
H1 H 0.3214 0.2145 -0.5874
H2 H 0.3452 0.1612 -0.4957
H3 H 0.3332 0.2872 -0.4417
C2 C 0.31558(5) 0.1230(3) -0.3936(3)
H4 H 0.3127 0.0387 -0.4410
H5 H 0.3248 0.1095 -0.2951
C3 C 0.29188(4) 0.1825(3) -0.3727(3)
H6 H 0.2945 0.2696 -0.3328
H7 H 0.2820 0.1889 -0.4701
C4 C 0.27879(4) 0.1053(3) -0.2677(3)
H8 H 0.2892 0.0957 -0.1723
H9 H 0.2758 0.0192 -0.3100
C5 C 0.25536(4) 0.1616(3) -0.2366(3)
H10 H 0.2445 0.1675 -0.3302
H11 H 0.2580 0.2485 -0.1961
C6 C 0.24433(4) 0.0791(3) -0.1259(3)
H12 H 0.2420 -0.0075 -0.1677
H13 H 0.2556 0.0726 -0.0341
C7 C 0.22119(4) 0.1257(2) -0.0857(3)
C8 C 0.20825(4) 0.2308(3) -0.1286(3)
H14 H 0.2130 0.2921 -0.1953
C9 C 0.18679(4) 0.2405(3) -0.0637(3)
H15 H 0.1759 0.3087 -0.0829
C10 C 0.18361(4) 0.1409(2) 0.0289(3)
C11 C 0.16420(4) 0.1101(2) 0.1108(3)
C12 C 0.16219(4) 0.0053(3) 0.1970(3)
H16 H 0.1742 -0.0569 0.2164
C13 C 0.14044(4) -0.0011(3) 0.2544(3)
H17 H 0.1365 -0.0683 0.3163
C14 C 0.12559(4) 0.0988(3) 0.2124(3)
C15 C 0.10150(4) 0.1178(3) 0.2460(3)
C16 C 0.08574(5) 0.1997(3) 0.1619(3)
H18 H 0.0910 0.2481 0.0845
C17 C 0.06254(5) 0.2115(3) 0.1895(3)
H19 H 0.0521 0.2666 0.1300
C18 C 0.05444(4) 0.1427(3) 0.3046(3)
C19 C 0.07006(5) 0.0600(3) 0.3881(3)
H20 H 0.0647 0.0110 0.4649
C20 C 0.09316(5) 0.0487(3) 0.3601(3)
H21 H 0.1036 -0.0069 0.4193
C21 C 0.02953(5) 0.1558(3) 0.3255(3)
C22 C 0.01052(5) 0.1669(3) 0.2167(3)
C23 C -0.00417(5) 0.1589(4) 0.4428(3)
C24 C 0.03458(5) 0.1621(4) 0.6116(3)
C25 C 0.05178(10) 0.2961(5) 0.6178(6)
C26 C 0.04153(16) 0.4187(7) 0.5473(10)
C27 C 0.02461(17) 0.4733(12) 0.643(2)
C28 C 0.06451(9) 0.3003(6) 0.7744(5)
C29 C 0.08356(9) 0.4008(6) 0.7974(8)
C30 C 0.10498(10) 0.3736(6) 0.7261(8)
C31 C 0.12498(10) 0.4644(7) 0.7814(9)
N1 N 0.02110(4) 0.1537(3) 0.4625(3)
O1 O -0.01593(4) 0.1581(3) 0.5459(2)
S1 S 0.207103(11) 0.03542(6) 0.03569(7)
S2 S 0.139029(11) 0.20348(6) 0.10176(7)
C1A C -0.33014(5) 0.2038(3) 0.9881(3)
H1A H -0.3214 0.2145 1.0874
H2A H -0.3452 0.1612 0.9957
H3A H -0.3332 0.2872 0.9417
C2A C -0.31558(5) 0.1230(3) 0.8936(3)
H4A H -0.3127 0.0387 0.9410
H5A H -0.3248 0.1095 0.7951
C3A C -0.29188(4) 0.1825(3) 0.8727(3)
H6A H -0.2945 0.2696 0.8328
H7A H -0.2820 0.1889 0.9701
C4A C -0.27879(4) 0.1053(3) 0.7677(3)
H8A H -0.2892 0.0957 0.6723
H9A H -0.2758 0.0192 0.8100
C5A C -0.25536(4) 0.1616(3) 0.7366(3)
H10A H -0.2445 0.1675 0.8302
H11A H -0.2580 0.2485 0.6961
C6A C -0.24433(4) 0.0791(3) 0.6259(3)
H12A H -0.2420 -0.0075 0.6677
H13A H -0.2556 0.0726 0.5341
C7A C -0.22119(4) 0.1257(2) 0.5857(3)
C8A C -0.20825(4) 0.2308(3) 0.6286(3)
H14A H -0.2130 0.2921 0.6953
C9A C -0.18679(4) 0.2405(3) 0.5637(3)
H15A H -0.1759 0.3087 0.5829
C10A C -0.18361(4) 0.1409(2) 0.4711(3)
C11A C -0.16420(4) 0.1101(2) 0.3892(3)
C12A C -0.16219(4) 0.0053(3) 0.3030(3)
H16A H -0.1742 -0.0569 0.2836
C13A C -0.14044(4) -0.0011(3) 0.2456(3)
H17A H -0.1365 -0.0683 0.1837
C14A C -0.12559(4) 0.0988(3) 0.2876(3)
C15A C -0.10150(4) 0.1178(3) 0.2540(3)
C16A C -0.08574(5) 0.1997(3) 0.3381(3)
H18A H -0.0910 0.2481 0.4155
C17A C -0.06254(5) 0.2115(3) 0.3105(3)
H19A H -0.0521 0.2666 0.3700
C18A C -0.05444(4) 0.1427(3) 0.1954(3)
C19A C -0.07006(5) 0.0600(3) 0.1119(3)
H20A H -0.0647 0.0110 0.0351
C20A C -0.09316(5) 0.0487(3) 0.1399(3)
H21A H -0.1036 -0.0069 0.0807
C21A C -0.02953(5) 0.1558(3) 0.1745(3)
C22A C -0.01052(5) 0.1669(3) 0.2833(3)
C23A C 0.00417(5) 0.1589(4) 0.0572(3)
C24A C -0.03458(5) 0.1621(4) -0.1116(3)
C25A C -0.05178(10) 0.2961(5) -0.1178(6)
C26A C -0.04153(16) 0.4187(7) -0.0473(10)
C27A C -0.02461(17) 0.4733(12) -0.143(2)
C28A C -0.06451(9) 0.3003(6) -0.2744(5)
C29A C -0.08356(9) 0.4008(6) -0.2974(8)
C30A C -0.10498(10) 0.3736(6) -0.2261(8)
C31A C -0.12498(10) 0.4644(7) -0.2814(9)
N1A N -0.02110(4) 0.1537(3) 0.0375(3)
O1A O 0.01593(4) 0.1581(3) -0.0459(2)
S1A S -0.207103(11) 0.03542(6) 0.46431(7)
S2A S -0.139029(11) 0.20348(6) 0.39824(7)
C32? C 0.04438(13) 0.2732(8) 0.6758(11)
C33? C 0.0255(2) 0.3718(10) 0.6608(18)
C34? C 0.0354(3) 0.5011(10) 0.663(6)
C35? C 0.06657(13) 0.3167(10) 0.6253(9)
C36? C 0.08823(12) 0.2566(9) 0.7005(12)
C37? C 0.10794(15) 0.3217(9) 0.6300(12)
C38? C 0.11400(19) 0.4413(9) 0.7125(14)
loop_
_geom_bond_atom_site_label_1
_geom_bond_atom_site_label_2
_geom_bond_site_symmetry_1
_geom_bond_site_symmetry_2
C1 H1 1_555 1_555
H2 C1 1_555 1_555
H3 C1 1_555 1_555
C2 C1 1_555 1_555
H4 C2 1_555 1_555
H5 C2 1_555 1_555
C3 C2 1_555 1_555
H6 C3 1_555 1_555
H7 C3 1_555 1_555
C4 C3 1_555 1_555
H8 C4 1_555 1_555
H9 C4 1_555 1_555
C5 C4 1_555 1_555
H10 C5 1_555 1_555
H11 C5 1_555 1_555
C6 C5 1_555 1_555
H12 C6 1_555 1_555
H13 C6 1_555 1_555
C7 C6 1_555 1_555
C8 C7 1_555 1_555
H14 C8 1_555 1_555
C9 C8 1_555 1_555
H15 C9 1_555 1_555
C10 C9 1_555 1_555
C11 C10 1_555 1_555
C12 C11 1_555 1_555
H16 C12 1_555 1_555
C13 C12 1_555 1_555
H17 C13 1_555 1_555
C14 C13 1_555 1_555
C15 C14 1_555 1_555
C16 C15 1_555 1_555
H18 C16 1_555 1_555
C17 C16 1_555 1_555
H19 C17 1_555 1_555
C18 C17 1_555 1_555
C19 C18 1_555 1_555
H20 C19 1_555 1_555
C20 C15 1_555 1_555
H21 C20 1_555 1_555
C21 C18 1_555 1_555
C22 C21 1_555 1_555
C23 N1 1_555 1_555
C24 C25 1_555 1_555
C25 C26 1_555 1_555
C26 C27 1_555 1_555
C28 C25 1_555 1_555
C29 C28 1_555 1_555
C30 C29 1_555 1_555
C31 C30 1_555 1_555
N1 C21 1_555 1_555
O1 C23 1_555 1_555
S1 C7 1_555 1_555
S2 C11 1_555 1_555
C1A H1A 1_555 1_555
H2A C1A 1_555 1_555
H3A C1A 1_555 1_555
C2A C1A 1_555 1_555
H4A C2A 1_555 1_555
H5A C2A 1_555 1_555
C3A C2A 1_555 1_555
H6A C3A 1_555 1_555
H7A C3A 1_555 1_555
C4A C3A 1_555 1_555
H8A C4A 1_555 1_555
H9A C4A 1_555 1_555
C5A C4A 1_555 1_555
H10A C5A 1_555 1_555
H11A C5A 1_555 1_555
C6A C5A 1_555 1_555
H12A C6A 1_555 1_555
H13A C6A 1_555 1_555
C7A C6A 1_555 1_555
C8A C7A 1_555 1_555
H14A C8A 1_555 1_555
C9A C8A 1_555 1_555
H15A C9A 1_555 1_555
C10A C9A 1_555 1_555
C11A C10A 1_555 1_555
C12A C11A 1_555 1_555
H16A C12A 1_555 1_555
C13A C12A 1_555 1_555
H17A C13A 1_555 1_555
C14A C13A 1_555 1_555
C15A C14A 1_555 1_555
C16A C15A 1_555 1_555
H18A C16A 1_555 1_555
C17A C16A 1_555 1_555
H19A C17A 1_555 1_555
C18A C17A 1_555 1_555
C19A C18A 1_555 1_555
H20A C19A 1_555 1_555
C20A C15A 1_555 1_555
H21A C20A 1_555 1_555
C21A C18A 1_555 1_555
C22A C22 1_555 1_555
C23A C22 1_555 1_555
C24A C25A 1_555 1_555
C25A C26A 1_555 1_555
C26A C27A 1_555 1_555
C28A C25A 1_555 1_555
C29A C28A 1_555 1_555
C30A C29A 1_555 1_555
C31A C30A 1_555 1_555
N1A C21A 1_555 1_555
O1A C23A 1_555 1_555
S1A C7A 1_555 1_555
S2A C11A 1_555 1_555
C10 S1 1_555 1_555
C14 S2 1_555 1_555
C19 C20 1_555 1_555
C23 C22A 1_555 1_555
C24 N1 1_555 1_555
C10A S1A 1_555 1_555
C14A S2A 1_555 1_555
C19A C20A 1_555 1_555
C21A C22A 1_555 1_555
C23A N1A 1_555 1_555
C24A N1A 1_555 1_555

#END
