
#######################################################################
#
#                 Cambridge Crystallographic Data Centre
#                                CCDC 
#
#######################################################################
#
# If this CIF has been generated from an entry in the Cambridge 
# Structural Database, then it will include bibliographic, chemical, 
# crystal, experimental, refinement or atomic coordinate data resulting 
# from the CCDC's data processing and validation procedures.
#
#######################################################################

data_GEGJEJ
_chemical_formula_moiety         'C66 H72 N2 O2 S6'
_chemical_name_systematic        
2,5-Dihexyl-3,6-bis(4-(5''-hexyl-2,2':5',2''-terthiophen-5-yl)phenyl)-2,5-dihydropyrrolo[3,4-c]pyrrole-1,4-dione
_symmetry_cell_setting           monoclinic
_symmetry_space_group_name_H-M   'P 21/c'
_symmetry_Int_Tables_number      14
_space_group_name_Hall           '-P 2ybc'
loop_
_symmetry_equiv_pos_site_id
_symmetry_equiv_pos_as_xyz
1 x,y,z
2 -x,1/2+y,1/2-z
3 -x,-y,-z
4 x,1/2-y,1/2+z
_cell_length_a                   19.4619(18)
_cell_length_b                   15.0990(13)
_cell_length_c                   9.8470(7)
_cell_angle_alpha                90
_cell_angle_beta                 96.944(6)
_cell_angle_gamma                90
_cell_volume                     2872.37
_exptl_crystal_colour            'dark red'
_exptl_crystal_description       plate
_cell_formula_units_Z            2
loop_
_atom_site_label
_atom_site_type_symbol
_atom_site_fract_x
_atom_site_fract_y
_atom_site_fract_z
S1 S 0.83043(8) 0.02694(9) 1.17166(13)
S2 S 0.79431(8) 0.14300(9) 0.76262(13)
S3 S 0.66314(9) 0.01713(10) 0.42488(14)
O1 O 1.0202(2) 0.1850(2) 1.9120(3)
C1 C 0.9942(3) 0.0270(3) 1.9415(5)
N1 N 0.9508(2) -0.1072(3) 1.8851(4)
C2 C 0.7359(3) 0.0750(4) 0.6662(5)
C3 C 0.9603(3) -0.0226(4) 1.8344(5)
C4 C 0.9733(3) 0.0766(3) 1.6406(5)
H1 H 1.0105 0.1043 1.6964
C5 C 0.6890(3) 0.1622(4) 0.3107(6)
H2 H 0.6911 0.2078 0.2449
C6 C 0.8708(3) 0.1730(4) 1.0780(5)
H3 H 0.8780 0.2210 1.0189
C7 C 0.9385(3) 0.0061(3) 1.6940(5)
C8 C 0.8322(3) 0.1001(4) 1.0369(5)
C9 C 0.7211(3) 0.1691(4) 0.4484(5)
H4 H 0.7461 0.2198 0.4839
C10 C 0.7184(3) 0.0043(4) 0.7404(5)
H5 H 0.6875 -0.0410 0.7044
C11 C 0.8817(3) 0.0962(4) 1.2820(5)
C12 C 0.9003(3) 0.0674(3) 1.4251(5)
C13 C 0.8989(3) 0.1701(4) 1.2163(5)
H6 H 0.9272 0.2157 1.2595
C14 C 0.9551(3) 0.1068(3) 1.5089(5)
H7 H 0.9799 0.1545 1.4750
C15 C 0.6138(3) 0.1169(4) 0.0323(5)
H8 H 0.6615 0.1248 0.0090
H9 H 0.5965 0.1755 0.0584
C16 C 1.0201(3) 0.1148(4) 1.9751(5)
C17 C 0.7121(3) 0.0948(4) 0.5239(5)
C18 C 0.7507(3) 0.0052(4) 0.8757(5)
H10 H 0.7434 -0.0393 0.9406
C19 C 0.8640(3) -0.0008(4) 1.4789(5)
H11 H 0.8259 -0.0271 1.4241
C20 C 0.6554(3) 0.0850(4) 0.2824(5)
C21 C 0.7938(3) 0.0763(4) 0.9059(5)
C22 C 0.8824(3) -0.0313(4) 1.6114(5)
H12 H 0.8567 -0.0779 1.6461
C23 C 0.9248(3) -0.1869(3) 1.8133(5)
H13 H 0.9547 -0.2376 1.8456
H14 H 0.9275 -0.1794 1.7142
C24 C 0.6146(4) 0.0535(4) 0.1519(6)
H15 H 0.5662 0.0427 0.1694
H16 H 0.6340 -0.0037 0.1258
C25 C 0.8503(3) -0.2077(4) 1.8352(5)
H17 H 0.8483 -0.2210 1.9331
H18 H 0.8211 -0.1550 1.8111
C26 C 0.5650(4) 0.1390(4) -0.2208(5)
H19 H 0.5447 0.1974 -0.2028
H20 H 0.6128 0.1491 -0.2425
C27 C 0.5166(4) 0.1546(5) -0.4724(6)
H21 H 0.4928 0.2099 -0.4549
H22 H 0.4903 0.1231 -0.5487
H23 H 0.5631 0.1680 -0.4955
C28 C 0.5674(3) 0.0817(4) -0.0924(5)
H24 H 0.5838 0.0218 -0.1141
H25 H 0.5198 0.0754 -0.0682
C29 C 0.8215(4) -0.2854(4) 1.7500(7)
H26 H 0.8535 -0.3362 1.7675
H27 H 0.8198 -0.2697 1.6520
C30 C 0.5224(4) 0.0961(5) -0.3434(6)
H28 H 0.4754 0.0835 -0.3198
H29 H 0.5440 0.0389 -0.3635
C31 C 0.7501(4) -0.3139(5) 1.7778(9)
H30 H 0.7520 -0.3295 1.8758
H31 H 0.7372 -0.3681 1.7241
C32 C 0.6935(4) -0.2448(5) 1.7437(11)
H32 H 0.7030 -0.1945 1.8077
H33 H 0.6970 -0.2223 1.6504
C33 C 0.6234(6) -0.2734(7) 1.7493(14)
H34 H 0.6095 -0.3138 1.6731
H35 H 0.5927 -0.2217 1.7425
H36 H 0.6203 -0.3040 1.8361
S1B S 1.16957(8) -0.02694(9) 2.82834(13)
S2B S 1.20569(8) -0.14300(9) 3.23738(13)
S3B S 1.33686(9) -0.01713(10) 3.57512(14)
O1B O 0.9798(2) -0.1850(2) 2.0880(3)
C1B C 1.0058(3) -0.0270(3) 2.0585(5)
N1B N 1.0492(2) 0.1072(3) 2.1149(4)
C2B C 1.2641(3) -0.0750(4) 3.3338(5)
C3B C 1.0397(3) 0.0226(4) 2.1656(5)
C4B C 1.0267(3) -0.0766(3) 2.3594(5)
H1B H 0.9895 -0.1043 2.3036
C5B C 1.3110(3) -0.1622(4) 3.6893(6)
H2B H 1.3089 -0.2078 3.7551
C6B C 1.1292(3) -0.1730(4) 2.9220(5)
H3B H 1.1220 -0.2210 2.9811
C7B C 1.0615(3) -0.0061(3) 2.3060(5)
C8B C 1.1678(3) -0.1001(4) 2.9631(5)
C9B C 1.2789(3) -0.1691(4) 3.5516(5)
H4B H 1.2539 -0.2198 3.5161
C10B C 1.2816(3) -0.0043(4) 3.2596(5)
H5B H 1.3125 0.0410 3.2956
C11B C 1.1183(3) -0.0962(4) 2.7180(5)
C12B C 1.0997(3) -0.0674(3) 2.5749(5)
C13B C 1.1011(3) -0.1701(4) 2.7837(5)
H6B H 1.0728 -0.2157 2.7405
C14B C 1.0449(3) -0.1068(3) 2.4911(5)
H7B H 1.0201 -0.1545 2.5250
C15B C 1.3862(3) -0.1169(4) 3.9677(5)
H8B H 1.3385 -0.1248 3.9910
H9B H 1.4035 -0.1755 3.9416
C16B C 0.9799(3) -0.1148(4) 2.0249(5)
C17B C 1.2879(3) -0.0948(4) 3.4761(5)
C18B C 1.2493(3) -0.0052(4) 3.1243(5)
H10B H 1.2566 0.0393 3.0594
C19B C 1.1360(3) 0.0008(4) 2.5211(5)
H11B H 1.1741 0.0271 2.5759
C20B C 1.3446(3) -0.0850(4) 3.7176(5)
C21B C 1.2062(3) -0.0763(4) 3.0941(5)
C22B C 1.1176(3) 0.0313(4) 2.3886(5)
H12B H 1.1433 0.0779 2.3539
C23B C 1.0752(3) 0.1869(3) 2.1867(5)
H13B H 1.0453 0.2376 2.1544
H14B H 1.0725 0.1794 2.2858
C24B C 1.3854(4) -0.0535(4) 3.8481(6)
H15B H 1.4338 -0.0427 3.8306
H16B H 1.3660 0.0037 3.8742
C25B C 1.1497(3) 0.2077(4) 2.1648(5)
H17B H 1.1517 0.2210 2.0669
H18B H 1.1789 0.1550 2.1889
C26B C 1.4350(4) -0.1390(4) 4.2208(5)
H19B H 1.4553 -0.1974 4.2028
H20B H 1.3872 -0.1491 4.2425
C27B C 1.4834(4) -0.1546(5) 4.4724(6)
H21B H 1.5072 -0.2099 4.4549
H22B H 1.5097 -0.1231 4.5487
H23B H 1.4369 -0.1680 4.4955
C28B C 1.4326(3) -0.0817(4) 4.0924(5)
H24B H 1.4162 -0.0218 4.1141
H25B H 1.4802 -0.0754 4.0682
C29B C 1.1785(4) 0.2854(4) 2.2500(7)
H26B H 1.1465 0.3362 2.2325
H27B H 1.1802 0.2697 2.3480
C30B C 1.4776(4) -0.0961(5) 4.3434(6)
H28B H 1.5246 -0.0835 4.3198
H29B H 1.4560 -0.0389 4.3635
C31B C 1.2499(4) 0.3139(5) 2.2222(9)
H30B H 1.2480 0.3295 2.1242
H31B H 1.2628 0.3681 2.2759
C32B C 1.3065(4) 0.2448(5) 2.2563(11)
H32B H 1.2970 0.1945 2.1923
H33B H 1.3030 0.2223 2.3496
C33B C 1.3766(6) 0.2734(7) 2.2507(14)
H34B H 1.3905 0.3138 2.3269
H35B H 1.4073 0.2217 2.2575
H36B H 1.3797 0.3040 2.1639
loop_
_geom_bond_atom_site_label_1
_geom_bond_atom_site_label_2
_geom_bond_site_symmetry_1
_geom_bond_site_symmetry_2
S1 C8 1_555 1_555
S2 C2 1_555 1_555
S3 C17 1_555 1_555
O1 C16 1_555 1_555
C1 C3 1_555 1_555
N1 C3 1_555 1_555
C2 C10 1_555 1_555
C3 C7 1_555 1_555
C4 H1 1_555 1_555
C5 H2 1_555 1_555
C6 H3 1_555 1_555
C7 C4 1_555 1_555
C8 C6 1_555 1_555
C9 C5 1_555 1_555
H4 C9 1_555 1_555
C10 H5 1_555 1_555
C11 S1 1_555 1_555
C12 C11 1_555 1_555
C13 C6 1_555 1_555
H6 C13 1_555 1_555
C14 C4 1_555 1_555
H7 C14 1_555 1_555
C15 H8 1_555 1_555
H9 C15 1_555 1_555
C16 C1 1_555 1_555
C17 C2 1_555 1_555
C18 C10 1_555 1_555
H10 C18 1_555 1_555
C19 C12 1_555 1_555
H11 C19 1_555 1_555
C20 S3 1_555 1_555
C21 S2 1_555 1_555
C22 C7 1_555 1_555
H12 C22 1_555 1_555
C23 N1 1_555 1_555
H13 C23 1_555 1_555
H14 C23 1_555 1_555
C24 C15 1_555 1_555
H15 C24 1_555 1_555
H16 C24 1_555 1_555
C25 C23 1_555 1_555
H17 C25 1_555 1_555
H18 C25 1_555 1_555
C26 H19 1_555 1_555
H20 C26 1_555 1_555
C27 H21 1_555 1_555
H22 C27 1_555 1_555
H23 C27 1_555 1_555
C28 C15 1_555 1_555
H24 C28 1_555 1_555
H25 C28 1_555 1_555
C29 C25 1_555 1_555
H26 C29 1_555 1_555
H27 C29 1_555 1_555
C30 C26 1_555 1_555
H28 C30 1_555 1_555
H29 C30 1_555 1_555
C31 C29 1_555 1_555
H30 C31 1_555 1_555
H31 C31 1_555 1_555
C32 C31 1_555 1_555
H32 C32 1_555 1_555
H33 C32 1_555 1_555
C33 C32 1_555 1_555
H34 C33 1_555 1_555
H35 C33 1_555 1_555
H36 C33 1_555 1_555
S1B C8B 1_555 1_555
S2B C2B 1_555 1_555
S3B C17B 1_555 1_555
O1B C16B 1_555 1_555
C1B C1 1_555 1_555
N1B C16 1_555 1_555
C2B C10B 1_555 1_555
C3B C1B 1_555 1_555
C4B H1B 1_555 1_555
C5B H2B 1_555 1_555
C6B H3B 1_555 1_555
C7B C3B 1_555 1_555
C8B C6B 1_555 1_555
C9B C5B 1_555 1_555
H4B C9B 1_555 1_555
C10B H5B 1_555 1_555
C11B S1B 1_555 1_555
C12B C11B 1_555 1_555
C13B C6B 1_555 1_555
H6B C13B 1_555 1_555
C14B C4B 1_555 1_555
H7B C14B 1_555 1_555
C15B H8B 1_555 1_555
H9B C15B 1_555 1_555
C16B N1 1_555 1_555
C17B C2B 1_555 1_555
C18B C10B 1_555 1_555
H10B C18B 1_555 1_555
C19B C12B 1_555 1_555
H11B C19B 1_555 1_555
C20B S3B 1_555 1_555
C21B S2B 1_555 1_555
C22B C7B 1_555 1_555
H12B C22B 1_555 1_555
C23B N1B 1_555 1_555
H13B C23B 1_555 1_555
H14B C23B 1_555 1_555
C24B C15B 1_555 1_555
H15B C24B 1_555 1_555
H16B C24B 1_555 1_555
C25B C23B 1_555 1_555
H17B C25B 1_555 1_555
H18B C25B 1_555 1_555
C26B H19B 1_555 1_555
H20B C26B 1_555 1_555
C27B H21B 1_555 1_555
H22B C27B 1_555 1_555
H23B C27B 1_555 1_555
C28B C15B 1_555 1_555
H24B C28B 1_555 1_555
H25B C28B 1_555 1_555
C29B C25B 1_555 1_555
H26B C29B 1_555 1_555
H27B C29B 1_555 1_555
C30B C26B 1_555 1_555
H28B C30B 1_555 1_555
H29B C30B 1_555 1_555
C31B C29B 1_555 1_555
H30B C31B 1_555 1_555
H31B C31B 1_555 1_555
C32B C31B 1_555 1_555
H32B C32B 1_555 1_555
H33B C32B 1_555 1_555
C33B C32B 1_555 1_555
H34B C33B 1_555 1_555
H35B C33B 1_555 1_555
H36B C33B 1_555 1_555
C5 C20 1_555 1_555
C8 C21 1_555 1_555
C9 C17 1_555 1_555
C11 C13 1_555 1_555
C12 C14 1_555 1_555
C18 C21 1_555 1_555
C19 C22 1_555 1_555
C20 C24 1_555 1_555
C26 C28 1_555 1_555
C27 C30 1_555 1_555
C1B C16B 1_555 1_555
N1B C3B 1_555 1_555
C4B C7B 1_555 1_555
C5B C20B 1_555 1_555
C8B C21B 1_555 1_555
C9B C17B 1_555 1_555
C11B C13B 1_555 1_555
C12B C14B 1_555 1_555
C18B C21B 1_555 1_555
C19B C22B 1_555 1_555
C20B C24B 1_555 1_555
C26B C28B 1_555 1_555
C27B C30B 1_555 1_555

#END
