
#######################################################################
#
#                 Cambridge Crystallographic Data Centre
#                                CCDC 
#
#######################################################################
#
# If this CIF has been generated from an entry in the Cambridge 
# Structural Database, then it will include bibliographic, chemical, 
# crystal, experimental, refinement or atomic coordinate data resulting 
# from the CCDC's data processing and validation procedures.
#
#######################################################################

data_GEGKUA
_chemical_formula_moiety         'C52 H88 S4 Si4'
_chemical_name_systematic        
4,4,9,9-Tetraoctyl-2,7-bis(trimethylsilyl)-4,9-dihydrothieno[2',3':4,5]silolo[3,2-b]thieno[2'',3'':4',5']silolo[2',3':4,5]thieno[2,3-d]thiophene
_symmetry_cell_setting           triclinic
_symmetry_space_group_name_H-M   'P -1'
_symmetry_Int_Tables_number      2
_space_group_name_Hall           '-P 1'
loop_
_symmetry_equiv_pos_site_id
_symmetry_equiv_pos_as_xyz
1 x,y,z
2 -x,-y,-z
_cell_length_a                   11.9054(4)
_cell_length_b                   11.9347(4)
_cell_length_c                   12.3649(4)
_cell_angle_alpha                64.485(3)
_cell_angle_beta                 64.935(3)
_cell_angle_gamma                85.259(3)
_cell_volume                     1425.49
_exptl_crystal_colour            yellow
_exptl_crystal_description       blocks
_cell_formula_units_Z            1
loop_
_atom_site_label
_atom_site_type_symbol
_atom_site_fract_x
_atom_site_fract_y
_atom_site_fract_z
S1 S 0.66706(4) 0.14370(4) 0.17782(5)
C1 C 0.50884(15) 0.15254(15) 0.25460(17)
C2 C 0.49135(16) 0.26709(15) 0.25761(16)
H1 H 0.4108 0.2903 0.2953
C3 C 0.60357(15) 0.34796(14) 0.19969(16)
Si1 Si 0.66188(4) 0.50821(4) 0.16202(4)
C4 C 0.82886(15) 0.48147(15) 0.08182(16)
C5 C 0.82882(15) 0.36204(15) 0.08999(16)
C6 C 0.70647(15) 0.29057(14) 0.15272(16)
C7 C 0.95474(15) 0.53731(14) 0.01885(16)
S2 S 0.97580(4) 0.31803(4) 0.02441(4)
Si2 Si 0.38953(5) 0.01782(4) 0.32397(5)
C8 C 0.3932(3) -0.1079(2) 0.4767(3)
H2 H 0.3733 -0.0762 0.5430
H3 H 0.4766 -0.1350 0.4555
H4 H 0.3314 -0.1789 0.5123
C9 C 0.4271(3) -0.0414(3) 0.1976(3)
H5 H 0.5084 -0.0730 0.1800
H6 H 0.4299 0.0267 0.1153
H7 H 0.3626 -0.1091 0.2308
C10 C 0.2353(2) 0.0782(2) 0.3604(3)
H8 H 0.2172 0.1089 0.4273
H9 H 0.1702 0.0108 0.3943
H10 H 0.2371 0.1468 0.2789
C11 C 0.61762(17) 0.64189(16) 0.04158(18)
H11 H 0.6791 0.7161 -0.0002
H12 H 0.6244 0.6203 -0.0296
C12 C 0.4865(2) 0.6778(2) 0.1004(2)
H13 H 0.4820 0.7076 0.1654
H14 H 0.4733 0.7484 0.0283
C13 C 0.3832(2) 0.5741(2) 0.1678(3)
H17 H 0.3984 0.5027 0.2335
H18 H 0.3809 0.5505 0.1037
C19 C 0.2539(9) 0.6188(15) 0.219(3)
H32 H 0.2586 0.6758 0.2561
H33 H 0.2345 0.6678 0.1418
C20 C 0.1460(7) 0.5142(8) 0.3241(8)
H34 H 0.1660 0.4634 0.4000
H35 H 0.0694 0.5522 0.3571
C21 C 0.1207(7) 0.4304(8) 0.2737(9)
H36 H 0.1985 0.3952 0.2377
H37 H 0.0986 0.4813 0.1995
C22 C 0.0149(9) 0.3207(9) 0.3788(13)
H38 H 0.0226 0.2547 0.3488
H39 H 0.0216 0.2840 0.4642
C23 C -0.1066(10) 0.3683(16) 0.3970(17)
H40 H -0.1739 0.3001 0.4653
H41 H -0.1141 0.4014 0.3130
H42 H -0.1129 0.4350 0.4247
C29 C 0.63141(16) 0.53179(16) 0.31168(16)
H54 H 0.5410 0.5358 0.3578
H55 H 0.6544 0.4592 0.3737
C30 C 0.70542(18) 0.65186(17) 0.27560(17)
H56 H 0.7954 0.6486 0.2264
H57 H 0.6804 0.7241 0.2153
C31 C 0.6871(2) 0.6735(2) 0.39428(19)
H58 H 0.7208 0.6062 0.4497
H59 H 0.5965 0.6680 0.4489
C32 C 0.7511(2) 0.8009(2) 0.3550(2)
H60 H 0.7224 0.8675 0.2936
H61 H 0.7237 0.8141 0.4358
C33 C 0.8912(2) 0.8144(2) 0.2898(2)
H62 H 0.9212 0.8043 0.2070
H63 H 0.9225 0.7498 0.3501
C34 C 0.9410(4) 0.9521(4) 0.2571(4)
H64 H 0.9103 1.0154 0.1953
H65 H 0.9058 0.9623 0.3402
C35 C 1.0830(4) 0.9765(4) 0.1953(4)
H66 H 1.1065 1.0570 0.1901
H67 H 1.1135 0.9099 0.2547
C36 C 1.1476(4) 0.9814(5) 0.0598(5)
H68 H 1.2382 0.9976 0.0273
H69 H 1.1199 1.0486 -0.0007
H70 H 1.1273 0.9013 0.0641
S1A S 1.33294(4) 0.85630(4) -0.17782(5)
C1A C 1.49116(15) 0.84746(15) -0.25460(17)
C2A C 1.50865(16) 0.73291(15) -0.25761(16)
H1A H 1.5892 0.7097 -0.2953
C3A C 1.39643(15) 0.65204(14) -0.19969(16)
Si1A Si 1.33812(4) 0.49179(4) -0.16202(4)
C4A C 1.17114(15) 0.51853(15) -0.08182(16)
C5A C 1.17118(15) 0.63796(15) -0.08999(16)
C6A C 1.29353(15) 0.70943(14) -0.15272(16)
C7A C 1.04526(15) 0.46269(14) -0.01885(16)
S2A S 1.02420(4) 0.68197(4) -0.02441(4)
Si2A Si 1.61047(5) 0.98218(4) -0.32397(5)
C8A C 1.6068(3) 1.1079(2) -0.4767(3)
H2A H 1.6267 1.0762 -0.5430
H3A H 1.5234 1.1350 -0.4555
H4A H 1.6686 1.1789 -0.5123
C9A C 1.5729(3) 1.0414(3) -0.1976(3)
H5A H 1.4916 1.0730 -0.1800
H6A H 1.5701 0.9733 -0.1153
H7A H 1.6374 1.1091 -0.2308
C10A C 1.7647(2) 0.9218(2) -0.3604(3)
H8A H 1.7828 0.8911 -0.4273
H9A H 1.8298 0.9892 -0.3943
H10A H 1.7629 0.8532 -0.2789
C11A C 1.38238(17) 0.35811(16) -0.04158(18)
H11A H 1.3209 0.2839 0.0002
H12A H 1.3756 0.3797 0.0296
C12A C 1.5135(2) 0.3222(2) -0.1004(2)
H13A H 1.5180 0.2924 -0.1654
H14A H 1.5267 0.2516 -0.0283
C13A C 1.6168(2) 0.4259(2) -0.1678(3)
H17A H 1.6016 0.4973 -0.2335
H18A H 1.6191 0.4495 -0.1037
C19A C 1.7461(9) 0.3812(15) -0.219(3)
H32A H 1.7414 0.3242 -0.2561
H33A H 1.7655 0.3322 -0.1418
C20A C 1.8540(7) 0.4858(8) -0.3241(8)
H34A H 1.8340 0.5366 -0.4000
H35A H 1.9306 0.4478 -0.3571
C21A C 1.8793(7) 0.5696(8) -0.2737(9)
H36A H 1.8015 0.6048 -0.2377
H37A H 1.9014 0.5187 -0.1995
C22A C 1.9851(9) 0.6793(9) -0.3788(13)
H38A H 1.9774 0.7453 -0.3488
H39A H 1.9784 0.7160 -0.4642
C23A C 2.1066(10) 0.6317(16) -0.3970(17)
H40A H 2.1739 0.6999 -0.4653
H41A H 2.1141 0.5986 -0.3130
H42A H 2.1129 0.5650 -0.4247
C29A C 1.36859(16) 0.46821(16) -0.31168(16)
H54A H 1.4590 0.4642 -0.3578
H55A H 1.3456 0.5408 -0.3737
C30A C 1.29458(18) 0.34814(17) -0.27560(17)
H56A H 1.2046 0.3514 -0.2264
H57A H 1.3196 0.2759 -0.2153
C31A C 1.3129(2) 0.3265(2) -0.39428(19)
H58A H 1.2792 0.3938 -0.4497
H59A H 1.4035 0.3320 -0.4489
C32A C 1.2489(2) 0.1991(2) -0.3550(2)
H60A H 1.2776 0.1325 -0.2936
H61A H 1.2763 0.1859 -0.4358
C33A C 1.1088(2) 0.1856(2) -0.2898(2)
H62A H 1.0788 0.1957 -0.2070
H63A H 1.0775 0.2502 -0.3501
C34A C 1.0590(4) 0.0479(4) -0.2571(4)
H64A H 1.0897 -0.0154 -0.1953
H65A H 1.0942 0.0377 -0.3402
C35A C 0.9170(4) 0.0235(4) -0.1953(4)
H66A H 0.8935 -0.0570 -0.1901
H67A H 0.8865 0.0901 -0.2547
C36A C 0.8524(4) 0.0186(5) -0.0598(5)
H68A H 0.7618 0.0024 -0.0273
H69A H 0.8801 -0.0486 0.0007
H70A H 0.8727 0.0987 -0.0641
H15? H 0.3973 0.5383 0.1049
H16? H 0.3947 0.5083 0.2441
H19? H 0.3894 0.5072 0.2433
H20? H 0.3865 0.5421 0.1075
C14? C 0.2486(4) 0.5941(9) 0.2188(11)
H21? H 0.2321 0.6561 0.1441
H22? H 0.2303 0.6287 0.2835
C15? C 0.1609(5) 0.4706(6) 0.2868(7)
H23? H 0.1840 0.4340 0.2231
H24? H 0.1759 0.4107 0.3635
C16? C 0.0282(5) 0.4834(6) 0.3331(6)
H25? H 0.0114 0.5311 0.2544
H26? H 0.0088 0.5339 0.3833
C17? C -0.0602(10) 0.3634(11) 0.4197(11)
H27? H -0.0438 0.3149 0.4985
H28? H -0.1469 0.3844 0.4515
C18? C -0.0506(7) 0.2824(7) 0.3522(7)
H29? H -0.1123 0.2079 0.4138
H30? H 0.0335 0.2570 0.3246
H31? H -0.0668 0.3293 0.2739
C24? C 0.2590(9) 0.6241(15) 0.235(2)
H43? H 0.2462 0.6089 0.3249
H44? H 0.2649 0.7153 0.1816
C25? C 0.1497(10) 0.5578(12) 0.2446(16)
H45? H 0.1662 0.5677 0.1552
H46? H 0.0735 0.5968 0.2763
C26? C 0.1275(16) 0.4187(13) 0.339(2)
H47? H 0.1029 0.4066 0.4309
H48? H 0.2042 0.3788 0.3116
C27? C 0.018(2) 0.360(2) 0.331(2)
H49? H -0.0291 0.4265 0.2936
H50? H 0.0522 0.3168 0.2727
C28? C -0.0651(16) 0.2702(18) 0.4678(17)
H51? H -0.1283 0.2241 0.4660
H52? H -0.1064 0.3156 0.5211
H53? H -0.0154 0.2112 0.5070
C37? C 0.9699(5) 0.9279(6) 0.2180(7)
C38? C 1.1101(5) 0.9256(6) 0.1491(7)
C39? C 1.1810(6) 1.0532(6) 0.0666(6)
H71? H 0.9133 0.7777 0.2291
H72? H 0.9154 0.7610 0.3586
H73? H 0.9555 0.9653 0.2796
H74? H 0.9431 0.9850 0.1495
H75? H 1.1406 0.8767 0.2170
H76? H 1.1262 0.8828 0.0917
H77? H 1.2702 1.0467 0.0232
H78? H 1.1682 1.0948 0.1234
H79? H 1.1514 1.1020 -0.0011
loop_
_geom_bond_atom_site_label_1
_geom_bond_atom_site_label_2
_geom_bond_site_symmetry_1
_geom_bond_site_symmetry_2
S1 C1 1_555 1_555
C1 C2 1_555 1_555
C2 H1 1_555 1_555
C3 C2 1_555 1_555
Si1 C3 1_555 1_555
C4 Si1 1_555 1_555
C5 C4 1_555 1_555
C6 S1 1_555 1_555
C7 C4 1_555 1_555
S2 C5 1_555 1_555
Si2 C1 1_555 1_555
C8 Si2 1_555 1_555
H2 C8 1_555 1_555
H3 C8 1_555 1_555
H4 C8 1_555 1_555
C9 Si2 1_555 1_555
H5 C9 1_555 1_555
H6 C9 1_555 1_555
H7 C9 1_555 1_555
C10 Si2 1_555 1_555
H8 C10 1_555 1_555
H9 C10 1_555 1_555
H10 C10 1_555 1_555
C11 Si1 1_555 1_555
H11 C11 1_555 1_555
H12 C11 1_555 1_555
C12 C11 1_555 1_555
H13 C12 1_555 1_555
H14 C12 1_555 1_555
C13 C12 1_555 1_555
H17 C13 1_555 1_555
H18 C13 1_555 1_555
C19 C13 1_555 1_555
H32 C19 1_555 1_555
H33 C19 1_555 1_555
C20 C19 1_555 1_555
H34 C20 1_555 1_555
H35 C20 1_555 1_555
C21 C20 1_555 1_555
H36 C21 1_555 1_555
H37 C21 1_555 1_555
C22 C21 1_555 1_555
H38 C22 1_555 1_555
H39 C22 1_555 1_555
C23 C22 1_555 1_555
H40 C23 1_555 1_555
H41 C23 1_555 1_555
H42 C23 1_555 1_555
C29 Si1 1_555 1_555
H54 C29 1_555 1_555
H55 C29 1_555 1_555
C30 C29 1_555 1_555
H56 C30 1_555 1_555
H57 C30 1_555 1_555
C31 C30 1_555 1_555
H58 C31 1_555 1_555
H59 C31 1_555 1_555
C32 C31 1_555 1_555
H60 C32 1_555 1_555
H61 C32 1_555 1_555
C33 C32 1_555 1_555
H62 C33 1_555 1_555
H63 C33 1_555 1_555
C34 C33 1_555 1_555
H64 C34 1_555 1_555
H65 C34 1_555 1_555
C35 C34 1_555 1_555
H66 C35 1_555 1_555
H67 C35 1_555 1_555
C36 C35 1_555 1_555
H68 C36 1_555 1_555
H69 C36 1_555 1_555
H70 C36 1_555 1_555
S1A C1A 1_555 1_555
C1A C2A 1_555 1_555
C2A H1A 1_555 1_555
C3A C2A 1_555 1_555
Si1A C3A 1_555 1_555
C4A Si1A 1_555 1_555
C5A C4A 1_555 1_555
C6A S1A 1_555 1_555
C7A C7 1_555 1_555
S2A C7 1_555 1_555
Si2A C1A 1_555 1_555
C8A Si2A 1_555 1_555
H2A C8A 1_555 1_555
H3A C8A 1_555 1_555
H4A C8A 1_555 1_555
C9A Si2A 1_555 1_555
H5A C9A 1_555 1_555
H6A C9A 1_555 1_555
H7A C9A 1_555 1_555
C10A Si2A 1_555 1_555
H8A C10A 1_555 1_555
H9A C10A 1_555 1_555
H10A C10A 1_555 1_555
C11A Si1A 1_555 1_555
H11A C11A 1_555 1_555
H12A C11A 1_555 1_555
C12A C11A 1_555 1_555
H13A C12A 1_555 1_555
H14A C12A 1_555 1_555
C13A C12A 1_555 1_555
H17A C13A 1_555 1_555
H18A C13A 1_555 1_555
C19A C13A 1_555 1_555
H32A C19A 1_555 1_555
H33A C19A 1_555 1_555
C20A C19A 1_555 1_555
H34A C20A 1_555 1_555
H35A C20A 1_555 1_555
C21A C20A 1_555 1_555
H36A C21A 1_555 1_555
H37A C21A 1_555 1_555
C22A C21A 1_555 1_555
H38A C22A 1_555 1_555
H39A C22A 1_555 1_555
C23A C22A 1_555 1_555
H40A C23A 1_555 1_555
H41A C23A 1_555 1_555
H42A C23A 1_555 1_555
C29A Si1A 1_555 1_555
H54A C29A 1_555 1_555
H55A C29A 1_555 1_555
C30A C29A 1_555 1_555
H56A C30A 1_555 1_555
H57A C30A 1_555 1_555
C31A C30A 1_555 1_555
H58A C31A 1_555 1_555
H59A C31A 1_555 1_555
C32A C31A 1_555 1_555
H60A C32A 1_555 1_555
H61A C32A 1_555 1_555
C33A C32A 1_555 1_555
H62A C33A 1_555 1_555
H63A C33A 1_555 1_555
C34A C33A 1_555 1_555
H64A C34A 1_555 1_555
H65A C34A 1_555 1_555
C35A C34A 1_555 1_555
H66A C35A 1_555 1_555
H67A C35A 1_555 1_555
C36A C35A 1_555 1_555
H68A C36A 1_555 1_555
H69A C36A 1_555 1_555
H70A C36A 1_555 1_555
C3 C6 1_555 1_555
C5 C6 1_555 1_555
S2 C7A 1_555 1_555
C3A C6A 1_555 1_555
C4A C7A 1_555 1_555
C5A C6A 1_555 1_555
C5A S2A 1_555 1_555

#END
