
#######################################################################
#
#                 Cambridge Crystallographic Data Centre
#                                CCDC 
#
#######################################################################
#
# If this CIF has been generated from an entry in the Cambridge 
# Structural Database, then it will include bibliographic, chemical, 
# crystal, experimental, refinement or atomic coordinate data resulting 
# from the CCDC's data processing and validation procedures.
#
#######################################################################

data_GEGMAJ
_chemical_name_common            
1-benzyl-3-(thiophene-2-carbonyl)-1H-indazole-2-oxide
_chemical_formula_moiety         'C19 H14 N2 O2 S1'
_chemical_name_systematic        
(1-benzyl-2-oxo-1H-2-indazol-3-yl)(thiophen-2-yl)methanone
_symmetry_cell_setting           triclinic
_symmetry_space_group_name_H-M   'P -1'
_symmetry_Int_Tables_number      2
_space_group_name_Hall           '-P 1'
loop_
_symmetry_equiv_pos_site_id
_symmetry_equiv_pos_as_xyz
1 x,y,z
2 -x,-y,-z
_cell_length_a                   8.6729(6)
_cell_length_b                   9.8561(8)
_cell_length_c                   11.3625(9)
_cell_angle_alpha                107.236(7)
_cell_angle_beta                 105.082(6)
_cell_angle_gamma                107.876(7)
_cell_volume                     814.334
_exptl_crystal_colour            brown
_exptl_crystal_description       parallelepiped
_cell_formula_units_Z            2
loop_
_atom_site_label
_atom_site_type_symbol
_atom_site_fract_x
_atom_site_fract_y
_atom_site_fract_z
S1 S 0.2513(2) 0.7255(2) 0.84785(18)
O1 O 0.4535(5) 0.7265(6) 0.6738(4)
O2 O 0.0560(5) 0.8590(5) 0.5022(4)
N1 N 0.1726(5) 0.8318(4) 0.4668(3)
N2 N 0.2076(4) 0.8729(4) 0.3681(3)
C1 C 0.0490(9) 0.6683(7) 0.8452(7)
H1 H 0.0236 0.6617 0.9185
C2 C -0.0710(9) 0.6336(6) 0.7311(7)
H2 H -0.1897 0.5931 0.7163
C3 C -0.0159(7) 0.6589(5) 0.6329(5)
H3 H -0.0859 0.6477 0.5502
C4 C 0.1764(7) 0.7075(5) 0.6851(5)
C5 C 0.3113(7) 0.7347(6) 0.6278(5)
C6 C 0.2880(6) 0.7722(5) 0.5120(4)
C7 C 0.3977(5) 0.7717(5) 0.4343(4)
C8 C 0.5316(6) 0.7219(6) 0.4289(5)
H4 H 0.5696 0.6762 0.4846
C9 C 0.6040(6) 0.7426(7) 0.3395(6)
H5 H 0.6939 0.7111 0.3356
C10 C 0.5498(7) 0.8086(7) 0.2539(6)
H6 H 0.6049 0.8217 0.1955
C11 C 0.4142(7) 0.8554(6) 0.2541(5)
H7 H 0.3750 0.8981 0.1959
C12 C 0.3405(5) 0.8350(5) 0.3457(4)
C13 C 0.1157(6) 0.9518(5) 0.3109(4)
H8 H 0.1984 1.0331 0.2986
H9 H 0.0725 1.0021 0.3738
C14 C -0.0367(5) 0.8470(4) 0.1787(4)
C15 C -0.1163(6) 0.6874(5) 0.1367(4)
H10 H -0.0726 0.6404 0.1890
C16 C -0.2608(6) 0.5961(5) 0.0171(5)
H11 H -0.3129 0.4883 -0.0108
C17 C -0.3269(6) 0.6648(6) -0.0599(5)
H12 H -0.4247 0.6038 -0.1396
C18 C -0.2489(6) 0.8227(6) -0.0192(5)
H13 H -0.2932 0.8691 -0.0719
C19 C -0.1043(6) 0.9145(5) 0.0999(5)
H14 H -0.0524 1.0222 0.1270
loop_
_geom_bond_atom_site_label_1
_geom_bond_atom_site_label_2
_geom_bond_site_symmetry_1
_geom_bond_site_symmetry_2
S1 C1 1_555 1_555
O1 C5 1_555 1_555
O2 N1 1_555 1_555
N1 N2 1_555 1_555
N2 C12 1_555 1_555
C1 H1 1_555 1_555
C2 C1 1_555 1_555
H2 C2 1_555 1_555
C3 C2 1_555 1_555
H3 C3 1_555 1_555
C4 S1 1_555 1_555
C5 C4 1_555 1_555
C6 N1 1_555 1_555
C7 C6 1_555 1_555
C8 C7 1_555 1_555
H4 C8 1_555 1_555
C9 C8 1_555 1_555
H5 C9 1_555 1_555
C10 C9 1_555 1_555
H6 C10 1_555 1_555
C11 C10 1_555 1_555
H7 C11 1_555 1_555
C12 C7 1_555 1_555
C13 N2 1_555 1_555
H8 C13 1_555 1_555
H9 C13 1_555 1_555
C14 C13 1_555 1_555
C15 C14 1_555 1_555
H10 C15 1_555 1_555
C16 C15 1_555 1_555
H11 C16 1_555 1_555
C17 C16 1_555 1_555
H12 C17 1_555 1_555
C18 C17 1_555 1_555
H13 C18 1_555 1_555
C19 C14 1_555 1_555
H14 C19 1_555 1_555
C3 C4 1_555 1_555
C5 C6 1_555 1_555
C11 C12 1_555 1_555
C18 C19 1_555 1_555

#END
