
#######################################################################
#
#                 Cambridge Crystallographic Data Centre
#                                CCDC 
#
#######################################################################
#
# If this CIF has been generated from an entry in the Cambridge 
# Structural Database, then it will include bibliographic, chemical, 
# crystal, experimental, refinement or atomic coordinate data resulting 
# from the CCDC's data processing and validation procedures.
#
#######################################################################

data_GEGMOX
_chemical_formula_moiety         'C37 H30 B1 F2 N3 O5,C1 H2 Cl2'
_chemical_name_systematic        
'(5-{[3,5-bis(4-methoxyphenyl)-2H-pyrrol-2-ylidene]amino}-2,4-bis(4-methoxyphenyl)-1H-pyrrole-3-carbaldehydato)(difluoro)boron dichloromethane solvate'
_symmetry_cell_setting           monoclinic
_symmetry_space_group_name_H-M   'P 21/n'
_symmetry_Int_Tables_number      14
_space_group_name_Hall           '-P 2yn'
loop_
_symmetry_equiv_pos_site_id
_symmetry_equiv_pos_as_xyz
1 x,y,z
2 1/2-x,1/2+y,1/2-z
3 -x,-y,-z
4 1/2+x,1/2-y,1/2+z
_cell_length_a                   10.4594(8)
_cell_length_b                   12.3954(10)
_cell_length_c                   26.280(2)
_cell_angle_alpha                90
_cell_angle_beta                 95.3880(10)
_cell_angle_gamma                90
_cell_volume                     3392.11
_exptl_crystal_colour            colorless
_exptl_crystal_description       block
_cell_formula_units_Z            4
loop_
_atom_site_label
_atom_site_type_symbol
_atom_site_fract_x
_atom_site_fract_y
_atom_site_fract_z
B1 B 0.1463(3) 0.2895(2) 1.04475(13)
C1 C 0.2119(3) 0.4935(2) 1.03371(11)
C2 C 0.2759(3) 0.5528(2) 0.99795(12)
C3 C 0.3224(3) 0.4787(2) 0.96296(12)
C4 C 0.2858(3) 0.3763(2) 0.98019(11)
C5 C 0.2892(3) 0.1918(2) 0.98403(11)
C6 C 0.3292(3) 0.0842(2) 0.97072(12)
C7 C 0.2598(3) 0.0165(2) 0.99814(12)
H1 H 0.2640 -0.0584 0.9972
C8 C 0.1797(3) 0.0773(2) 1.02855(11)
C9 C 0.1558(3) 0.5357(2) 1.07894(11)
C10 C 0.0303(3) 0.5161(3) 1.08894(13)
H2 H -0.0234 0.4768 1.0656
C11 C -0.0167(3) 0.5539(3) 1.13324(13)
H3 H -0.1014 0.5406 1.1393
C12 C 0.0631(3) 0.6115(3) 1.16839(12)
C13 C 0.1881(3) 0.6327(3) 1.15861(13)
H4 H 0.2417 0.6718 1.1821
C14 C 0.2337(3) 0.5963(2) 1.11421(12)
H5 H 0.3174 0.6124 1.1077
C15 C -0.0987(5) 0.6309(5) 1.22635(19)
H6 H -0.1094 0.6622 1.2591
H7 H -0.1137 0.5546 1.2276
H8 H -0.1589 0.6630 1.2009
C16 C 0.2711(3) 0.6704(3) 0.99703(15)
H9 H 0.2239 0.7009 1.0216
C17 C 0.3885(3) 0.4954(2) 0.91673(12)
C18 C 0.3686(3) 0.4232(3) 0.87561(13)
H10 H 0.3151 0.3641 0.8786
C19 C 0.4256(3) 0.4370(3) 0.83109(14)
H11 H 0.4101 0.3877 0.8045
C20 C 0.5063(3) 0.5241(3) 0.82564(14)
C21 C 0.5311(3) 0.5956(3) 0.86615(16)
H12 H 0.5875 0.6528 0.8633
C22 C 0.4719(3) 0.5817(3) 0.91064(15)
H13 H 0.4880 0.6309 0.9372
C23 C 0.6420(7) 0.6190(5) 0.7731(3)
H14 H 0.5947 0.6853 0.7734
H15 H 0.6776 0.6115 0.7410
H16 H 0.7102 0.6198 0.8003
C24 C 0.4238(3) 0.0572(3) 0.93474(12)
C25 C 0.4398(4) -0.0479(3) 0.91910(15)
H17 H 0.3911 -0.1029 0.9317
C26 C 0.5318(5) -0.0724(4) 0.88345(18)
H18 H 0.5413 -0.1431 0.8726
C27 C 0.6038(6) 0.0059(4) 0.8657(2)
C28 C 0.5901(5) 0.1072(4) 0.88115(17)
H19 H 0.6408 0.1610 0.8687
C29 C 0.5020(4) 0.1345(3) 0.91530(15)
H20 H 0.4951 0.2060 0.9254
C30 C 0.7157(8) -0.1029(5) 0.8165(3)
H21 H 0.7434 -0.1052 0.7827
H22 H 0.6357 -0.1408 0.8169
H23 H 0.7792 -0.1365 0.8401
C31 C 0.0902(3) 0.0285(2) 1.06075(12)
C32 C 0.0858(4) -0.0849(3) 1.06329(15)
H24 H 0.1388 -0.1251 1.0440
C33 C 0.0060(4) -0.1376(3) 1.09323(17)
H25 H 0.0050 -0.2126 1.0938
C34 C -0.0736(4) -0.0802(3) 1.12286(15)
C35 C -0.0768(4) 0.0317(3) 1.11876(15)
H26 H -0.1333 0.0713 1.1367
C36 C 0.0031(4) 0.0839(3) 1.08832(15)
H27 H -0.0008 0.1587 1.0860
C37 C -0.2221(5) -0.0832(5) 1.18673(19)
H28 H -0.1659 -0.0425 1.2105
H29 H -0.2690 -0.1345 1.2051
H30 H -0.2812 -0.0353 1.1680
F1 F 0.01603(17) 0.29700(14) 1.03114(8)
F2 F 0.17156(19) 0.28765(14) 1.09734(7)
N1 N 0.2157(2) 0.38642(18) 1.02181(9)
N2 N 0.2006(2) 0.18464(18) 1.02073(9)
N3 N 0.3253(2) 0.28099(18) 0.96343(9)
O1 O 0.0274(3) 0.6501(3) 1.21371(10)
O2 O 0.3160(4) 0.7324(2) 0.97087(16)
O3 O 0.5583(3) 0.5307(3) 0.78021(12)
O4 O 0.7006(4) -0.0039(3) 0.82978(13)
O5 O -0.1476(3) -0.1394(3) 1.15178(12)
C38 C 0.9743(7) 0.2796(11) 0.1901(3)
H31 H 0.9968 0.2040 0.1874
H32 H 1.0204 0.3195 0.1658
Cl1 Cl 0.8098(5) 0.2948(5) 0.1741(2)
Cl2 Cl 1.0212(2) 0.3242(4) 0.25043(10)
C39? C 0.976(2) 0.316(2) 0.1877(11)
H33? H 1.0266 0.2939 0.1605
H34? H 0.9969 0.3910 0.1956
Cl3? Cl 0.8164(14) 0.3085(11) 0.1659(6)
Cl4? Cl 1.0189(9) 0.240(2) 0.2402(6)
loop_
_geom_bond_atom_site_label_1
_geom_bond_atom_site_label_2
_geom_bond_site_symmetry_1
_geom_bond_site_symmetry_2
B1 F1 1_555 1_555
C1 C2 1_555 1_555
C2 C3 1_555 1_555
C3 C4 1_555 1_555
C4 N1 1_555 1_555
C5 C6 1_555 1_555
C6 C7 1_555 1_555
C7 H1 1_555 1_555
C8 C7 1_555 1_555
C9 C1 1_555 1_555
C10 C9 1_555 1_555
H2 C10 1_555 1_555
C11 C10 1_555 1_555
H3 C11 1_555 1_555
C12 C11 1_555 1_555
C13 C12 1_555 1_555
H4 C13 1_555 1_555
C14 C9 1_555 1_555
H5 C14 1_555 1_555
C15 H6 1_555 1_555
H7 C15 1_555 1_555
H8 C15 1_555 1_555
C16 C2 1_555 1_555
H9 C16 1_555 1_555
C17 C3 1_555 1_555
C18 C17 1_555 1_555
H10 C18 1_555 1_555
C19 C18 1_555 1_555
H11 C19 1_555 1_555
C20 C19 1_555 1_555
C21 C20 1_555 1_555
H12 C21 1_555 1_555
C22 C17 1_555 1_555
H13 C22 1_555 1_555
C23 H14 1_555 1_555
H15 C23 1_555 1_555
H16 C23 1_555 1_555
C24 C6 1_555 1_555
C25 C24 1_555 1_555
H17 C25 1_555 1_555
C26 C25 1_555 1_555
H18 C26 1_555 1_555
C27 C26 1_555 1_555
C28 C27 1_555 1_555
H19 C28 1_555 1_555
C29 C24 1_555 1_555
H20 C29 1_555 1_555
C30 H21 1_555 1_555
H22 C30 1_555 1_555
H23 C30 1_555 1_555
C31 C8 1_555 1_555
C32 C31 1_555 1_555
H24 C32 1_555 1_555
C33 C32 1_555 1_555
H25 C33 1_555 1_555
C34 C33 1_555 1_555
C35 C34 1_555 1_555
H26 C35 1_555 1_555
C36 C31 1_555 1_555
H27 C36 1_555 1_555
C37 H28 1_555 1_555
H29 C37 1_555 1_555
H30 C37 1_555 1_555
F2 B1 1_555 1_555
N1 B1 1_555 1_555
N2 B1 1_555 1_555
N3 C4 1_555 1_555
O1 C12 1_555 1_555
O2 C16 1_555 1_555
O3 C20 1_555 1_555
O4 C27 1_555 1_555
O5 C34 1_555 1_555
C38 H31 1_555 1_555
H32 C38 1_555 1_555
Cl1 C38 1_555 1_555
Cl2 C38 1_555 1_555
C1 N1 1_555 1_555
C5 N2 1_555 1_555
C5 N3 1_555 1_555
C8 N2 1_555 1_555
C13 C14 1_555 1_555
C15 O1 1_555 1_555
C21 C22 1_555 1_555
C23 O3 1_555 1_555
C28 C29 1_555 1_555
C30 O4 1_555 1_555
C35 C36 1_555 1_555
C37 O5 1_555 1_555

#END
