
#######################################################################
#
#                 Cambridge Crystallographic Data Centre
#                                CCDC 
#
#######################################################################
#
# If this CIF has been generated from an entry in the Cambridge 
# Structural Database, then it will include bibliographic, chemical, 
# crystal, experimental, refinement or atomic coordinate data resulting 
# from the CCDC's data processing and validation procedures.
#
#######################################################################

data_GEGQIT
_chemical_formula_moiety         'C42 H28,0.33(C4 H10 O1)'
_chemical_name_systematic        
"4'-Benzylidene-1'-(fluoren-9-yl)-2'-phenyl-fluorene-9-spiro-3'-cyclobutene diethyl ether solvate"
_symmetry_cell_setting           monoclinic
_symmetry_space_group_name_H-M   'P 21/c'
_symmetry_Int_Tables_number      14
_space_group_name_Hall           '-P 2ybc'
loop_
_symmetry_equiv_pos_site_id
_symmetry_equiv_pos_as_xyz
1 x,y,z
2 -x,1/2+y,1/2-z
3 -x,-y,-z
4 x,1/2-y,1/2+z
_cell_length_a                   8.5223(9)
_cell_length_b                   17.7609(19)
_cell_length_c                   20.117(2)
_cell_angle_alpha                90
_cell_angle_beta                 99.502(2)
_cell_angle_gamma                90
_cell_volume                     3003.21
_exptl_crystal_colour            yellow
_exptl_crystal_description       rod
_chemical_melting_point          194-196deg.C
_cell_formula_units_Z            4
_exptl_crystal_recrystallization_method 'dichloromethane/diethyl ether/hexane'
loop_
_atom_site_label
_atom_site_type_symbol
_atom_site_fract_x
_atom_site_fract_y
_atom_site_fract_z
C1 C 0.31597(14) 0.91978(7) 0.32420(6)
C2 C 0.40928(15) 0.88357(7) 0.38529(6)
H1 H 0.4450 0.9246 0.4184
C3 C 0.55735(15) 0.84250(7) 0.37199(6)
C4 C 0.67160(16) 0.86635(8) 0.33571(7)
H2 H 0.6628 0.9141 0.3141
C5 C 0.79963(16) 0.81960(9) 0.33133(8)
H3 H 0.8794 0.8354 0.3065
C6 C 0.81230(16) 0.74981(9) 0.36301(7)
H4 H 0.9011 0.7185 0.3598
C7 C 0.69757(16) 0.72534(8) 0.39917(7)
H5 H 0.7064 0.6775 0.4205
C8 C 0.56861(15) 0.77217(7) 0.40369(6)
C9 C 0.42844(16) 0.76150(7) 0.43602(6)
C10 C 0.38718(18) 0.70324(8) 0.47595(7)
H6 H 0.4556 0.6612 0.4864
C11 C 0.24444(19) 0.70771(8) 0.50014(7)
H7 H 0.2160 0.6689 0.5284
C12 C 0.14298(18) 0.76792(9) 0.48363(7)
H8 H 0.0438 0.7691 0.4993
C13 C 0.18430(16) 0.82704(8) 0.44414(7)
H9 H 0.1144 0.8685 0.4329
C14 C 0.32848(15) 0.82401(7) 0.42182(6)
C15 C 0.31240(15) 0.99015(7) 0.29741(6)
C16 C 0.39369(15) 1.06161(7) 0.31323(6)
C17 C 0.37436(16) 1.12043(7) 0.26675(7)
H10 H 0.3038 1.1143 0.2253
C18 C 0.45596(17) 1.18770(8) 0.27971(7)
H11 H 0.4425 1.2267 0.2469
C19 C 0.55648(18) 1.19825(8) 0.33992(7)
H12 H 0.6128 1.2443 0.3488
C20 C 0.5745(2) 1.14144(9) 0.38708(8)
H13 H 0.6422 1.1488 0.4291
C21 C 0.4957(2) 1.07407(9) 0.37408(8)
H14 H 0.5108 1.0353 0.4071
C22 C 0.19116(15) 0.96801(7) 0.23477(6)
C23 C 0.24361(16) 0.97722(8) 0.16721(7)
C24 C 0.38091(19) 0.95158(9) 0.14690(9)
H15 H 0.4578 0.9237 0.1766
C25 C 0.4028(2) 0.96801(11) 0.08155(10)
H16 H 0.4965 0.9512 0.0663
C26 C 0.2899(3) 1.00870(12) 0.03801(9)
H17 H 0.3071 1.0186 -0.0066
C27 C 0.1544(2) 1.03465(9) 0.05864(8)
H18 H 0.0781 1.0628 0.0289
C28 C 0.13088(18) 1.01904(8) 0.12381(7)
C29 C -0.00083(16) 1.03761(7) 0.15912(7)
C30 C -0.14346(18) 1.07513(8) 0.13781(8)
H19 H -0.1657 1.0963 0.0939
C31 C -0.25222(18) 1.08121(8) 0.18123(9)
H20 H -0.3500 1.1067 0.1671
C32 C -0.22001(17) 1.05043(8) 0.24533(8)
H21 H -0.2966 1.0546 0.2745
C33 C -0.07690(16) 1.01353(7) 0.26744(7)
H22 H -0.0545 0.9931 0.3116
C34 C 0.03176(15) 1.00714(7) 0.22411(6)
C35 C 0.20508(14) 0.88858(7) 0.26785(6)
C36 C 0.15009(15) 0.81905(7) 0.25219(7)
H23 H 0.1908 0.7812 0.2837
C37 C 0.03753(15) 0.79213(7) 0.19435(7)
C38 C 0.00896(17) 0.71489(8) 0.18852(7)
H24 H 0.0647 0.6819 0.2214
C39 C -0.09841(19) 0.68528(8) 0.13618(7)
H25 H -0.1146 0.6324 0.1331
C40 C -0.18247(17) 0.73208(9) 0.08826(7)
H26 H -0.2574 0.7118 0.0525
C41 C -0.15605(18) 0.80882(9) 0.09307(7)
H27 H -0.2131 0.8415 0.0603
C42 C -0.04692(17) 0.83843(8) 0.14529(7)
H28 H -0.0295 0.8913 0.1476
loop_
_geom_bond_atom_site_label_1
_geom_bond_atom_site_label_2
_geom_bond_site_symmetry_1
_geom_bond_site_symmetry_2
C1 C2 1_555 1_555
C2 H1 1_555 1_555
C3 C2 1_555 1_555
C4 C3 1_555 1_555
H2 C4 1_555 1_555
C5 C4 1_555 1_555
H3 C5 1_555 1_555
C6 C5 1_555 1_555
H4 C6 1_555 1_555
C7 C6 1_555 1_555
H5 C7 1_555 1_555
C8 C3 1_555 1_555
C9 C8 1_555 1_555
C10 C9 1_555 1_555
H6 C10 1_555 1_555
C11 C10 1_555 1_555
H7 C11 1_555 1_555
C12 C11 1_555 1_555
H8 C12 1_555 1_555
C13 C12 1_555 1_555
H9 C13 1_555 1_555
C14 C2 1_555 1_555
C15 C1 1_555 1_555
C16 C15 1_555 1_555
C17 C16 1_555 1_555
H10 C17 1_555 1_555
C18 C17 1_555 1_555
H11 C18 1_555 1_555
C19 C18 1_555 1_555
H12 C19 1_555 1_555
C20 C19 1_555 1_555
H13 C20 1_555 1_555
C21 C16 1_555 1_555
H14 C21 1_555 1_555
C22 C15 1_555 1_555
C23 C22 1_555 1_555
C24 C23 1_555 1_555
H15 C24 1_555 1_555
C25 C24 1_555 1_555
H16 C25 1_555 1_555
C26 C25 1_555 1_555
H17 C26 1_555 1_555
C27 C26 1_555 1_555
H18 C27 1_555 1_555
C28 C23 1_555 1_555
C29 C28 1_555 1_555
C30 C29 1_555 1_555
H19 C30 1_555 1_555
C31 C30 1_555 1_555
H20 C31 1_555 1_555
C32 C31 1_555 1_555
H21 C32 1_555 1_555
C33 C32 1_555 1_555
H22 C33 1_555 1_555
C34 C22 1_555 1_555
C35 C1 1_555 1_555
C36 C35 1_555 1_555
H23 C36 1_555 1_555
C37 C36 1_555 1_555
C38 C37 1_555 1_555
H24 C38 1_555 1_555
C39 C38 1_555 1_555
H25 C39 1_555 1_555
C40 C39 1_555 1_555
H26 C40 1_555 1_555
C41 C40 1_555 1_555
H27 C41 1_555 1_555
C42 C37 1_555 1_555
H28 C42 1_555 1_555
C7 C8 1_555 1_555
C9 C14 1_555 1_555
C13 C14 1_555 1_555
C20 C21 1_555 1_555
C22 C35 1_555 1_555
C27 C28 1_555 1_555
C29 C34 1_555 1_555
C33 C34 1_555 1_555
C41 C42 1_555 1_555

#END
