
#######################################################################
#
#                 Cambridge Crystallographic Data Centre
#                                CCDC 
#
#######################################################################
#
# If this CIF has been generated from an entry in the Cambridge 
# Structural Database, then it will include bibliographic, chemical, 
# crystal, experimental, refinement or atomic coordinate data resulting 
# from the CCDC's data processing and validation procedures.
#
#######################################################################

data_GEHSES
_chemical_name_common            5-Iodoisatin
_chemical_formula_moiety         'C8 H4 I1 N1 O2'
_chemical_name_systematic        5-Iodo-1H-indole-2,3-dione
_symmetry_cell_setting           monoclinic
_symmetry_space_group_name_H-M   'P 21/c'
_symmetry_Int_Tables_number      14
_space_group_name_Hall           '-P 2ybc'
loop_
_symmetry_equiv_pos_site_id
_symmetry_equiv_pos_as_xyz
1 x,y,z
2 -x,1/2+y,1/2-z
3 -x,-y,-z
4 x,1/2-y,1/2+z
_cell_length_a                   9.3617(6)
_cell_length_b                   11.0930(5)
_cell_length_c                   7.6482(4)
_cell_angle_alpha                90
_cell_angle_beta                 101.146(2)
_cell_angle_gamma                90
_cell_volume                     779.279
_exptl_crystal_colour            red
_exptl_crystal_description       block
_cell_formula_units_Z            4
loop_
_atom_site_label
_atom_site_type_symbol
_atom_site_fract_x
_atom_site_fract_y
_atom_site_fract_z
N1 N 0.9489(2) 0.59853(18) 0.6930(3)
C1 C 0.9913(3) 0.7132(2) 0.7379(3)
O1 O 1.0895(2) 0.74742(17) 0.8541(2)
C2 C 0.8832(2) 0.7957(2) 0.6088(3)
O2 O 0.88944(18) 0.90452(17) 0.6072(2)
C3 C 0.7797(3) 0.7125(2) 0.5018(3)
C4 C 0.6559(3) 0.7327(2) 0.3725(3)
C5 C 0.5766(3) 0.6322(2) 0.2997(3)
I1 I 0.381940(16) 0.653274(14) 0.11269(2)
C6 C 0.6229(2) 0.5167(2) 0.3537(3)
C7 C 0.7475(3) 0.4957(2) 0.4822(3)
C8 C 0.8244(3) 0.5958(2) 0.5568(3)
H1 H 0.9938 0.5339 0.7429
H2 H 0.6264 0.8120 0.3351
H3 H 0.5676 0.4496 0.3010
H4 H 0.7784 0.4162 0.5172
loop_
_geom_bond_atom_site_label_1
_geom_bond_atom_site_label_2
_geom_bond_site_symmetry_1
_geom_bond_site_symmetry_2
N1 C1 1_555 1_555
C1 O1 1_555 1_555
C2 C1 1_555 1_555
O2 C2 1_555 1_555
C3 C2 1_555 1_555
C4 C3 1_555 1_555
C5 C4 1_555 1_555
I1 C5 1_555 1_555
C6 C5 1_555 1_555
C7 C6 1_555 1_555
C8 N1 1_555 1_555
H1 N1 1_555 1_555
H2 C4 1_555 1_555
H3 C6 1_555 1_555
H4 C7 1_555 1_555
C3 C8 1_555 1_555
C7 C8 1_555 1_555

#END
