
#######################################################################
#
#                 Cambridge Crystallographic Data Centre
#                                CCDC 
#
#######################################################################
#
# If this CIF has been generated from an entry in the Cambridge 
# Structural Database, then it will include bibliographic, chemical, 
# crystal, experimental, refinement or atomic coordinate data resulting 
# from the CCDC's data processing and validation procedures.
#
#######################################################################

data_GEHVEX
_chemical_formula_moiety         'C15 H17 N1 O3'
_chemical_name_systematic        
3-(4-methoxyphenyl)-6-methyltetrahydro-3H-cyclopropa[3,4]pyrrolo[1,2-c][1,3]oxazol-5(1H)-one
_symmetry_cell_setting           orthorhombic
_symmetry_space_group_name_H-M   'P 21 21 21'
_symmetry_Int_Tables_number      19
_space_group_name_Hall           'P 2ac 2ab'
loop_
_symmetry_equiv_pos_site_id
_symmetry_equiv_pos_as_xyz
1 x,y,z
2 1/2-x,-y,1/2+z
3 -x,1/2+y,1/2-z
4 1/2+x,1/2-y,-z
_cell_length_a                   5.9778(3)
_cell_length_b                   8.4508(5)
_cell_length_c                   26.5725(13)
_cell_angle_alpha                90
_cell_angle_beta                 90
_cell_angle_gamma                90
_cell_volume                     1342.37
_exptl_crystal_description       plate
_cell_formula_units_Z            4
loop_
_atom_site_label
_atom_site_type_symbol
_atom_site_fract_x
_atom_site_fract_y
_atom_site_fract_z
C1 C 0.2948(2) 0.16545(17) 0.92778(5)
C2 C 0.3519(2) 0.29752(17) 0.96204(5)
H1 H 0.3835 0.2754 0.9975
C3 C 0.5064(2) 0.40508(16) 0.93270(5)
H2 H 0.6378 0.4506 0.9493
C4 C 0.5309(2) 0.33100(16) 0.88101(5)
H3 H 0.5094 0.4092 0.8542
C5 C 0.2793(3) 0.4624(2) 0.94646(6)
H4 H 0.1705 0.4680 0.9189
C6 C 0.2534(4) 0.5851(3) 0.98752(7)
H5 H 0.3659 0.5687 1.0128
H6 H 0.1078 0.5754 1.0025
H7 H 0.2699 0.6889 0.9734
C7 C 0.7408(2) 0.2327(2) 0.87242(6)
H8 H 0.8528 0.2938 0.8545
H9 H 0.8033 0.1980 0.9042
C8 C 0.4322(2) 0.08648(16) 0.84425(5)
H10 H 0.3922 -0.0178 0.8577
C9 C 0.3371(2) 0.10286(15) 0.79189(5)
C10 C 0.4425(3) 0.1908(2) 0.75538(6)
H11 H 0.5764 0.2415 0.7629
C11 C 0.3526(3) 0.2051(2) 0.70743(6)
H12 H 0.4258 0.2654 0.6832
C12 C 0.1557(3) 0.13023(16) 0.69569(5)
C13 C 0.0495(3) 0.0407(2) 0.73184(6)
H13 H -0.0840 -0.0105 0.7242
C14 C 0.1402(3) 0.02667(19) 0.77920(5)
H14 H 0.0678 -0.0352 0.8031
C15 C 0.1477(5) 0.2391(2) 0.61291(6)
H15 H 0.1537 0.3447 0.6262
H16 H 0.0556 0.2378 0.5833
H17 H 0.2960 0.2046 0.6044
N1 N 0.35887(17) 0.20771(12) 0.87943(4)
O1 O 0.2083(2) 0.04009(14) 0.93903(4)
O2 O 0.67125(18) 0.10090(14) 0.84323(4)
O3 O 0.0559(3) 0.13636(15) 0.64947(4)
loop_
_geom_bond_atom_site_label_1
_geom_bond_atom_site_label_2
_geom_bond_site_symmetry_1
_geom_bond_site_symmetry_2
C1 C2 1_555 1_555
C2 H1 1_555 1_555
C3 C2 1_555 1_555
H2 C3 1_555 1_555
C4 C3 1_555 1_555
H3 C4 1_555 1_555
C5 C2 1_555 1_555
H4 C5 1_555 1_555
C6 C5 1_555 1_555
H5 C6 1_555 1_555
H6 C6 1_555 1_555
H7 C6 1_555 1_555
C7 C4 1_555 1_555
H8 C7 1_555 1_555
H9 C7 1_555 1_555
C8 H10 1_555 1_555
C9 C8 1_555 1_555
C10 C9 1_555 1_555
H11 C10 1_555 1_555
C11 C10 1_555 1_555
H12 C11 1_555 1_555
C12 C11 1_555 1_555
C13 C12 1_555 1_555
H13 C13 1_555 1_555
C14 C9 1_555 1_555
H14 C14 1_555 1_555
C15 H15 1_555 1_555
H16 C15 1_555 1_555
H17 C15 1_555 1_555
N1 C1 1_555 1_555
O1 C1 1_555 1_555
O2 C7 1_555 1_555
O3 C12 1_555 1_555
C3 C5 1_555 1_555
C4 N1 1_555 1_555
C8 N1 1_555 1_555
C8 O2 1_555 1_555
C13 C14 1_555 1_555
C15 O3 1_555 1_555

#END
