
#######################################################################
#
#                 Cambridge Crystallographic Data Centre
#                                CCDC 
#
#######################################################################
#
# If this CIF has been generated from an entry in the Cambridge 
# Structural Database, then it will include bibliographic, chemical, 
# crystal, experimental, refinement or atomic coordinate data resulting 
# from the CCDC's data processing and validation procedures.
#
#######################################################################

data_GEHVOH
_chemical_name_common            PF-06650833
_chemical_formula_moiety         'C18 H20 F1 N3 O4'
_chemical_name_systematic        
1-(((2S,3S,4S)-3-ethyl-4-fluoro-5-oxopyrrolidin-2-yl)methoxy)-7-methoxyisoquinoline-6-carboxamide
_chemical_properties_biological  
'Interleukin-1 receptor associated kinase 4 (IRAK4) inhibitor'
_symmetry_cell_setting           orthorhombic
_symmetry_space_group_name_H-M   'P 21 21 21'
_symmetry_Int_Tables_number      19
_space_group_name_Hall           'P 2ac 2ab'
loop_
_symmetry_equiv_pos_site_id
_symmetry_equiv_pos_as_xyz
1 x,y,z
2 1/2-x,-y,1/2+z
3 -x,1/2+y,1/2-z
4 1/2+x,1/2-y,-z
_cell_length_a                   10.5138(8)
_cell_length_b                   22.6593(14)
_cell_length_c                   7.2726(7)
_cell_angle_alpha                90
_cell_angle_beta                 90
_cell_angle_gamma                90
_cell_volume                     1732.59
_exptl_crystal_description       needle
_cell_formula_units_Z            4
loop_
_atom_site_label
_atom_site_type_symbol
_atom_site_fract_x
_atom_site_fract_y
_atom_site_fract_z
C1 C 0.40683(19) 0.45262(9) 0.1828(4)
C2 C 0.44550(17) 0.51273(10) 0.1816(4)
C3 C 0.35377(19) 0.55585(10) 0.1809(4)
H1 H 0.3787 0.5952 0.1792
C4 C 0.22236(18) 0.54217(10) 0.1828(3)
C5 C 0.18752(17) 0.48298(10) 0.1832(3)
C6 C 0.28025(18) 0.43817(10) 0.1822(4)
H2 H 0.2556 0.3988 0.1810
C7 C 0.4621(3) 0.35043(12) 0.1884(6)
H3 H 0.4158 0.3432 0.2999
H4 H 0.5358 0.3254 0.1844
H5 H 0.4087 0.3421 0.0846
C8 C 0.5821(2) 0.53370(10) 0.1798(4)
C9 C 0.1249(2) 0.58515(11) 0.1843(4)
H6 H 0.1447 0.6252 0.1844
C10 C 0.0022(2) 0.56701(12) 0.1855(4)
H7 H -0.0608 0.5958 0.1881
C11 C 0.05353(19) 0.46997(10) 0.1818(4)
C12 C -0.1046(2) 0.39486(11) 0.1560(4)
H8 H -0.1450 0.4197 0.0645
H9 H -0.1501 0.3993 0.2712
C13 C -0.1079(2) 0.33086(12) 0.0944(4)
H10 H -0.1963 0.3207 0.0651
C14 C 0.0794(3) 0.29628(13) -0.0428(5)
C15 C 0.0797(3) 0.27282(12) 0.1522(5)
H11 H 0.1002 0.2306 0.1531
C16 C -0.0550(3) 0.28294(12) 0.2218(4)
H12 H -0.1027 0.2468 0.1943
C17 C -0.0671(3) 0.29293(16) 0.4260(5)
H13 H -0.0278 0.3304 0.4569
H14 H -0.0209 0.2621 0.4901
C18 C -0.2032(4) 0.2934(2) 0.4933(6)
H15 H -0.2460 0.3276 0.4461
H16 H -0.2041 0.2944 0.6252
H17 H -0.2459 0.2584 0.4512
F1 F 0.17020(15) 0.30441(8) 0.2509(3)
N1 N 0.67274(18) 0.49431(12) 0.1872(7)
N2 N -0.03540(16) 0.50951(9) 0.1830(3)
N3 N -0.0319(2) 0.32311(10) -0.0724(3)
O1 O 0.50085(14) 0.41055(7) 0.1829(3)
O2 O 0.60757(16) 0.58585(8) 0.1772(4)
O3 O 0.02600(13) 0.41188(7) 0.1790(3)
O4 O 0.1674(2) 0.29237(12) -0.1518(4)
H18 H -0.050(3) 0.3481(11) -0.169(3)
H19 H 0.758(2) 0.5079(14) 0.164(5)
H20 H 0.651(4) 0.4523(10) 0.200(6)
loop_
_geom_bond_atom_site_label_1
_geom_bond_atom_site_label_2
_geom_bond_site_symmetry_1
_geom_bond_site_symmetry_2
C1 C2 1_555 1_555
C2 C3 1_555 1_555
C3 H1 1_555 1_555
C4 C3 1_555 1_555
C5 C4 1_555 1_555
C6 C1 1_555 1_555
H2 C6 1_555 1_555
C7 H3 1_555 1_555
H4 C7 1_555 1_555
H5 C7 1_555 1_555
C8 C2 1_555 1_555
C9 C4 1_555 1_555
H6 C9 1_555 1_555
C10 C9 1_555 1_555
H7 C10 1_555 1_555
C11 C5 1_555 1_555
C12 H8 1_555 1_555
H9 C12 1_555 1_555
C13 C12 1_555 1_555
H10 C13 1_555 1_555
C14 C15 1_555 1_555
C15 H11 1_555 1_555
C16 C13 1_555 1_555
H12 C16 1_555 1_555
C17 C16 1_555 1_555
H13 C17 1_555 1_555
H14 C17 1_555 1_555
C18 C17 1_555 1_555
H15 C18 1_555 1_555
H16 C18 1_555 1_555
H17 C18 1_555 1_555
F1 C15 1_555 1_555
N1 C8 1_555 1_555
N2 C10 1_555 1_555
N3 C13 1_555 1_555
O1 C1 1_555 1_555
O2 C8 1_555 1_555
O3 C11 1_555 1_555
O4 C14 1_555 1_555
H18 N3 1_555 1_555
H19 N1 1_555 1_555
H20 N1 1_555 1_555
C5 C6 1_555 1_555
C7 O1 1_555 1_555
C11 N2 1_555 1_555
C12 O3 1_555 1_555
C14 N3 1_555 1_555
C15 C16 1_555 1_555

#END
