
#######################################################################
#
#                 Cambridge Crystallographic Data Centre
#                                CCDC 
#
#######################################################################
#
# If this CIF has been generated from an entry in the Cambridge 
# Structural Database, then it will include bibliographic, chemical, 
# crystal, experimental, refinement or atomic coordinate data resulting 
# from the CCDC's data processing and validation procedures.
#
#######################################################################

data_GEHYOJ
_chemical_formula_moiety         'C20 H24 Br1 N1 O2'
_chemical_name_systematic        
4-Bromo-8-(3-oxobutyl)-8-azatetracyclo[7.4.4.0^1,9^.0^2,7^]heptadeca-2,4,6-trien-11-one
_symmetry_cell_setting           monoclinic
_symmetry_space_group_name_H-M   'P 21'
_symmetry_Int_Tables_number      4
_space_group_name_Hall           'P 2yb'
loop_
_symmetry_equiv_pos_site_id
_symmetry_equiv_pos_as_xyz
1 x,y,z
2 -x,1/2+y,-z
_cell_length_a                   10.237(6)
_cell_length_b                   7.803(5)
_cell_length_c                   11.166(6)
_cell_angle_alpha                90
_cell_angle_beta                 95.959(11)
_cell_angle_gamma                90
_cell_volume                     887.113
_exptl_crystal_colour            colorless
_exptl_crystal_description       prismatic
_cell_formula_units_Z            2
loop_
_atom_site_label
_atom_site_type_symbol
_atom_site_fract_x
_atom_site_fract_y
_atom_site_fract_z
Br1 Br 0.34886(3) 0.53610(5) 0.50803(3)
N1 N 0.6771(2) 0.6750(3) 0.10206(18)
O1 O 0.8504(2) 0.3906(3) -0.08982(19)
O2 O 0.8272(2) 0.8397(4) -0.1719(2)
C1 C 0.7776(2) 0.4948(3) 0.2543(2)
C2 C 0.7493(3) 0.3220(3) 0.1884(2)
H1 H 0.7434 0.2329 0.2482
H2 H 0.6646 0.3295 0.1410
C3 C 0.8525(3) 0.2686(3) 0.1051(3)
H3 H 0.9359 0.2467 0.1522
H4 H 0.8248 0.1645 0.0623
C4 C 0.8671(2) 0.4102(4) 0.0179(2)
C5 C 0.9041(2) 0.5785(3) 0.0751(2)
H5 H 0.9058 0.6644 0.0125
H6 H 0.9921 0.5697 0.1161
C6 C 0.8110(2) 0.6383(3) 0.1652(2)
C7 C 0.8662(3) 0.7995(3) 0.2329(2)
H7 H 0.8971 0.8789 0.1752
H8 H 0.7959 0.8552 0.2700
C8 C 0.9775(3) 0.7612(5) 0.3288(3)
H9 H 1.0081 0.8666 0.3683
H10 H 1.0502 0.7102 0.2924
C9 C 0.9298(4) 0.6390(5) 0.4202(3)
H11 H 1.0007 0.6155 0.4826
H12 H 0.8586 0.6918 0.4577
C10 C 0.8827(3) 0.4726(4) 0.3609(3)
H13 H 0.8476 0.4006 0.4207
H14 H 0.9574 0.4135 0.3334
C11 C 0.6448(2) 0.5576(4) 0.2848(2)
C12 C 0.5883(2) 0.6554(3) 0.1866(2)
C13 C 0.4593(3) 0.7120(4) 0.1836(3)
H15 H 0.4207 0.7747 0.1185
C14 C 0.3899(3) 0.6726(4) 0.2797(3)
H16 H 0.3033 0.7089 0.2792
C15 C 0.4466(3) 0.5812(3) 0.3753(3)
C16 C 0.5746(2) 0.5189(4) 0.3800(2)
H17 H 0.6111 0.4539 0.4448
C17 C 0.6594(3) 0.8123(4) 0.0128(2)
H18 H 0.7398 0.8788 0.0157
H19 H 0.5901 0.8881 0.0336
C18 C 0.6250(3) 0.7470(4) -0.1147(2)
H20 H 0.5952 0.6294 -0.1104
H21 H 0.5519 0.8140 -0.1519
C19 C 0.7324(3) 0.7526(4) -0.1944(2)
C20 C 0.7139(5) 0.6463(6) -0.3071(3)
H22 H 0.7967 0.6335 -0.3395
H23 H 0.6526 0.7020 -0.3653
H24 H 0.6808 0.5354 -0.2886
loop_
_geom_bond_atom_site_label_1
_geom_bond_atom_site_label_2
_geom_bond_site_symmetry_1
_geom_bond_site_symmetry_2
Br1 C15 1_555 1_555
N1 C6 1_555 1_555
O1 C4 1_555 1_555
O2 C19 1_555 1_555
C1 C2 1_555 1_555
C2 H1 1_555 1_555
H2 C2 1_555 1_555
C3 C2 1_555 1_555
H3 C3 1_555 1_555
H4 C3 1_555 1_555
C4 C3 1_555 1_555
C5 C4 1_555 1_555
H5 C5 1_555 1_555
H6 C5 1_555 1_555
C6 C1 1_555 1_555
C7 C6 1_555 1_555
H7 C7 1_555 1_555
H8 C7 1_555 1_555
C8 C7 1_555 1_555
H9 C8 1_555 1_555
H10 C8 1_555 1_555
C9 C8 1_555 1_555
H11 C9 1_555 1_555
H12 C9 1_555 1_555
C10 C1 1_555 1_555
H13 C10 1_555 1_555
H14 C10 1_555 1_555
C11 C1 1_555 1_555
C12 N1 1_555 1_555
C13 C12 1_555 1_555
H15 C13 1_555 1_555
C14 C13 1_555 1_555
H16 C14 1_555 1_555
C15 C14 1_555 1_555
C16 C11 1_555 1_555
H17 C16 1_555 1_555
C17 N1 1_555 1_555
H18 C17 1_555 1_555
H19 C17 1_555 1_555
C18 C17 1_555 1_555
H20 C18 1_555 1_555
H21 C18 1_555 1_555
C19 C18 1_555 1_555
C20 C19 1_555 1_555
H22 C20 1_555 1_555
H23 C20 1_555 1_555
H24 C20 1_555 1_555
C5 C6 1_555 1_555
C9 C10 1_555 1_555
C11 C12 1_555 1_555
C15 C16 1_555 1_555

#END
