
#######################################################################
#
#                 Cambridge Crystallographic Data Centre
#                                CCDC 
#
#######################################################################
#
# If this CIF has been generated from an entry in the Cambridge 
# Structural Database, then it will include bibliographic, chemical, 
# crystal, experimental, refinement or atomic coordinate data resulting 
# from the CCDC's data processing and validation procedures.
#
#######################################################################

data_GEJFIL
_chemical_formula_moiety         'C18 H14 Cl2 N4 O1'
_chemical_name_systematic        
5-Chloro-4-((2-chlorobenzoylhydrazono)methyl)-3-methyl-1-phenyl-1H-pyrazole
_symmetry_cell_setting           monoclinic
_symmetry_space_group_name_H-M   'C 2/c'
_symmetry_Int_Tables_number      15
_space_group_name_Hall           '-C 2yn'
loop_
_symmetry_equiv_pos_site_id
_symmetry_equiv_pos_as_xyz
1 x,y,z
2 1/2+x,1/2+y,z
3 -x,y,1/2-z
4 1/2-x,1/2+y,1/2-z
5 -x,-y,-z
6 1/2-x,1/2-y,-z
7 x,-y,1/2+z
8 1/2+x,1/2-y,1/2+z
_cell_length_a                   28.01(2)
_cell_length_b                   6.199(5)
_cell_length_c                   23.535(18)
_cell_angle_alpha                90
_cell_angle_beta                 119.199(9)
_cell_angle_gamma                90
_cell_volume                     3567.21
_exptl_crystal_colour            colorless
_exptl_crystal_description       block
_chemical_melting_point          452K
_cell_formula_units_Z            8
loop_
_atom_site_label
_atom_site_type_symbol
_atom_site_fract_x
_atom_site_fract_y
_atom_site_fract_z
Cl1 Cl 0.13913(3) 1.11082(11) 0.64746(4)
Cl2 Cl 0.001588(17) 0.66442(8) 0.34635(3)
O1 O 0.05878(5) 1.6294(2) 0.56587(7)
N1 N 0.05848(6) 1.3433(3) 0.50707(8)
H1 H 0.0234 1.3335 0.4876
N2 N 0.08847(5) 1.2082(2) 0.49021(7)
N3 N 0.10581(5) 0.6708(2) 0.36951(7)
N4 N 0.15388(6) 0.7819(3) 0.40307(8)
C1 C 0.17409(8) 1.3165(3) 0.63421(10)
C2 C 0.23062(9) 1.3133(4) 0.66723(11)
H2 H 0.2493 1.2024 0.6963
C3 C 0.25865(9) 1.4742(4) 0.65686(13)
H3 H 0.2967 1.4707 0.6780
C4 C 0.23131(8) 1.6400(4) 0.61571(14)
H4 H 0.2507 1.7500 0.6092
C5 C 0.17508(8) 1.6448(3) 0.58388(11)
H5 H 0.1568 1.7605 0.5568
C6 C 0.14540(6) 1.4807(3) 0.59146(8)
C7 C 0.08428(7) 1.4909(3) 0.55424(9)
C8 C 0.06231(7) 1.0602(3) 0.44959(9)
H6 H 0.0252 1.0413 0.4350
C9 C 0.09028(7) 0.9207(3) 0.42586(8)
C10 C 0.14482(7) 0.9313(3) 0.43674(9)
C11 C 0.18958(8) 1.0849(4) 0.47850(12)
H7 H 0.2225 1.0462 0.4778
H8 H 0.1959 1.0781 0.5224
H9 H 0.1791 1.2290 0.4621
C12 C 0.06741(6) 0.7539(3) 0.38270(8)
C13 C 0.10118(7) 0.5118(3) 0.32348(8)
C14 C 0.12442(7) 0.5520(3) 0.28442(9)
H10 H 0.1434 0.6795 0.2889
C15 C 0.11902(8) 0.4002(4) 0.23876(10)
H11 H 0.1344 0.4260 0.2122
C16 C 0.09126(9) 0.2117(4) 0.23228(11)
H12 H 0.0874 0.1112 0.2010
C17 C 0.06932(10) 0.1713(3) 0.27156(12)
H13 H 0.0510 0.0422 0.2675
C18 C 0.07412(8) 0.3209(3) 0.31741(10)
H14 H 0.0591 0.2926 0.3442
loop_
_geom_bond_atom_site_label_1
_geom_bond_atom_site_label_2
_geom_bond_site_symmetry_1
_geom_bond_site_symmetry_2
Cl1 C1 1_555 1_555
Cl2 C12 1_555 1_555
O1 C7 1_555 1_555
N1 H1 1_555 1_555
N2 N1 1_555 1_555
N3 N4 1_555 1_555
N4 C10 1_555 1_555
C1 C2 1_555 1_555
C2 H2 1_555 1_555
C3 C2 1_555 1_555
H3 C3 1_555 1_555
C4 C3 1_555 1_555
H4 C4 1_555 1_555
C5 C4 1_555 1_555
H5 C5 1_555 1_555
C6 C1 1_555 1_555
C7 N1 1_555 1_555
C8 N2 1_555 1_555
H6 C8 1_555 1_555
C9 C8 1_555 1_555
C10 C9 1_555 1_555
C11 C10 1_555 1_555
H7 C11 1_555 1_555
H8 C11 1_555 1_555
H9 C11 1_555 1_555
C12 N3 1_555 1_555
C13 N3 1_555 1_555
C14 C13 1_555 1_555
H10 C14 1_555 1_555
C15 C14 1_555 1_555
H11 C15 1_555 1_555
C16 C15 1_555 1_555
H12 C16 1_555 1_555
C17 C16 1_555 1_555
H13 C17 1_555 1_555
C18 C13 1_555 1_555
H14 C18 1_555 1_555
C5 C6 1_555 1_555
C6 C7 1_555 1_555
C9 C12 1_555 1_555
C17 C18 1_555 1_555

#END
