
#######################################################################
#
#                 Cambridge Crystallographic Data Centre
#                                CCDC 
#
#######################################################################
#
# If this CIF has been generated from an entry in the Cambridge 
# Structural Database, then it will include bibliographic, chemical, 
# crystal, experimental, refinement or atomic coordinate data resulting 
# from the CCDC's data processing and validation procedures.
#
#######################################################################

data_GEJYUQ
_chemical_formula_moiety         'C30 H30 N6,C4 H10 O1'
_chemical_name_systematic        
's-trans-2,3-bis(2-(1,3,3-Trimethyl-1,3-dihydroindol-2-ylidene)-ethylideneamino)but-2-enedinitrile diethyl ether solvate'
_symmetry_cell_setting           triclinic
_symmetry_space_group_name_H-M   'P -1'
_symmetry_Int_Tables_number      2
_space_group_name_Hall           '-P 1'
loop_
_symmetry_equiv_pos_site_id
_symmetry_equiv_pos_as_xyz
1 x,y,z
2 -x,-y,-z
_cell_length_a                   8.276(9)
_cell_length_b                   10.35(2)
_cell_length_c                   10.75(1)
_cell_angle_alpha                60.40(6)
_cell_angle_beta                 67.68(9)
_cell_angle_gamma                78.14(5)
_cell_volume                     740.468
_exptl_crystal_colour            blue
_exptl_crystal_description       needle
_cell_formula_units_Z            1
_exptl_crystal_recrystallization_method 'chloroform/diethyl ether'
_exptl_crystal_preparation       dye
loop_
_atom_site_label
_atom_site_type_symbol
_atom_site_fract_x
_atom_site_fract_y
_atom_site_fract_z
O1 O 0.471(2) 0.043(1) -0.040(1)
C16 C 0.369(4) -0.064(4) -0.015(4)
C17 C 0.220(3) -0.058(2) -0.002(2)
O1A O 0.529(2) -0.043(1) 0.040(1)
C16A C 0.631(4) 0.064(4) 0.015(4)
C17A C 0.780(3) 0.058(2) 0.002(2)
N1 N 0.0744(8) 0.1851(7) 0.6145(7)
N2 N 0.2289(7) 0.5267(5) 0.4081(6)
N3 N 0.8321(6) 0.5173(5) 0.2168(5)
C1 C 0.0651(8) 0.3083(9) 0.5619(8)
C2 C 0.0733(8) 0.4635(7) 0.4904(7)
C3 C 0.3688(9) 0.4517(7) 0.3931(7)
C4 C 0.5297(8) 0.5163(6) 0.3114(6)
C5 C 0.6841(8) 0.4458(6) 0.2925(6)
C6 C 0.7255(7) 0.2836(6) 0.3482(6)
C7 C 0.9175(8) 0.2837(6) 0.2847(6)
C8 C 1.0370(9) 0.1707(7) 0.2940(7)
C9 C 1.208(1) 0.2021(8) 0.2260(8)
C10 C 1.2608(9) 0.3419(9) 0.1524(7)
C11 C 1.1435(9) 0.4570(7) 0.1433(7)
C12 C 0.9731(9) 0.4228(6) 0.2111(6)
C13 C 0.8466(8) 0.6703(6) 0.1473(7)
C14 C 0.6534(8) 0.2134(6) 0.2852(7)
C15 C 0.6647(8) 0.2051(6) 0.5214(6)
H1 H 0.3679(9) 0.3464(7) 0.4374(7)
H2 H 0.5302(8) 0.6217(6) 0.2651(6)
H3 H 0.9990(9) 0.0710(7) 0.3486(7)
H4 H 1.290(1) 0.1234(8) 0.2258(8)
H5 H 1.3826(9) 0.3595(9) 0.1110(7)
H6 H 1.1804(9) 0.5568(7) 0.0916(7)
H7 H 0.9665(8) 0.6951(6) 0.0994(7)
H8 H 0.7887(8) 0.7160(6) 0.0739(7)
H9 H 0.7947(8) 0.7047(6) 0.2214(7)
H10 H 0.6912(8) 0.2698(6) 0.1781(7)
H11 H 0.5293(8) 0.2149(6) 0.3236(7)
H12 H 0.6954(8) 0.1137(6) 0.3124(7)
H13 H 0.5407(8) 0.2068(6) 0.5605(6)
H14 H 0.7069(8) 0.1051(6) 0.5576(6)
H15 H 0.7097(8) 0.2565(6) 0.5536(6)
N1A N -0.0744(8) 0.8149(7) 0.3855(7)
N2A N -0.2289(7) 0.4733(5) 0.5919(6)
N3A N -0.8321(6) 0.4827(5) 0.7832(5)
C1A C -0.0651(8) 0.6917(9) 0.4381(8)
C2A C -0.0733(8) 0.5365(7) 0.5096(7)
C3A C -0.3688(9) 0.5483(7) 0.6069(7)
C4A C -0.5297(8) 0.4837(6) 0.6886(6)
C5A C -0.6841(8) 0.5542(6) 0.7075(6)
C6A C -0.7255(7) 0.7164(6) 0.6518(6)
C7A C -0.9175(8) 0.7163(6) 0.7153(6)
C8A C -1.0370(9) 0.8293(7) 0.7060(7)
C9A C -1.208(1) 0.7979(8) 0.7740(8)
C10A C -1.2608(9) 0.6581(9) 0.8476(7)
C11A C -1.1435(9) 0.5430(7) 0.8567(7)
C12A C -0.9731(9) 0.5772(6) 0.7889(6)
C13A C -0.8466(8) 0.3297(6) 0.8527(7)
C14A C -0.6534(8) 0.7866(6) 0.7148(7)
C15A C -0.6647(8) 0.7949(6) 0.4786(6)
H1A H -0.3679(9) 0.6536(7) 0.5626(7)
H2A H -0.5302(8) 0.3783(6) 0.7349(6)
H3A H -0.9990(9) 0.9290(7) 0.6514(7)
H4A H -1.290(1) 0.8766(8) 0.7742(8)
H5A H -1.3826(9) 0.6405(9) 0.8890(7)
H6A H -1.1804(9) 0.4432(7) 0.9084(7)
H7A H -0.9665(8) 0.3049(6) 0.9006(7)
H8A H -0.7887(8) 0.2840(6) 0.9261(7)
H9A H -0.7947(8) 0.2953(6) 0.7786(7)
H10A H -0.6912(8) 0.7302(6) 0.8219(7)
H11A H -0.5293(8) 0.7851(6) 0.6764(7)
H12A H -0.6954(8) 0.8863(6) 0.6876(7)
H13A H -0.5407(8) 0.7932(6) 0.4395(6)
H14A H -0.7069(8) 0.8949(6) 0.4424(6)
H15A H -0.7097(8) 0.7435(6) 0.4464(6)
C18? C 0.369(3) -0.064(3) 0.067(3)
C19? C 0.297(3) -0.138(2) 0.056(3)
loop_
_geom_bond_atom_site_label_1
_geom_bond_atom_site_label_2
_geom_bond_site_symmetry_1
_geom_bond_site_symmetry_2
N1 C1 1_555 1_555
N2 C2 1_555 1_555
N3 C5 1_555 1_555
C1 C2 1_555 1_555
C2 C2A 1_555 1_555
C3 N2 1_555 1_555
C4 C3 1_555 1_555
C5 C4 1_555 1_555
C6 C5 1_555 1_555
C7 C6 1_555 1_555
C8 C7 1_555 1_555
C9 C8 1_555 1_555
C10 C9 1_555 1_555
C11 C10 1_555 1_555
C12 N3 1_555 1_555
C13 N3 1_555 1_555
C14 C6 1_555 1_555
C15 C6 1_555 1_555
H1 C3 1_555 1_555
H2 C4 1_555 1_555
H3 C8 1_555 1_555
H4 C9 1_555 1_555
H5 C10 1_555 1_555
H6 C11 1_555 1_555
H7 C13 1_555 1_555
H8 C13 1_555 1_555
H9 C13 1_555 1_555
H10 C14 1_555 1_555
H11 C14 1_555 1_555
H12 C14 1_555 1_555
H13 C15 1_555 1_555
H14 C15 1_555 1_555
H15 C15 1_555 1_555
O1 C16 1_555 1_555
C16 C17 1_555 1_555
N1A C1A 1_555 1_555
N2A C2A 1_555 1_555
N3A C5A 1_555 1_555
C1A C2A 1_555 1_555
C3A N2A 1_555 1_555
C4A C3A 1_555 1_555
C5A C4A 1_555 1_555
C6A C5A 1_555 1_555
C7A C6A 1_555 1_555
C8A C7A 1_555 1_555
C9A C8A 1_555 1_555
C10A C9A 1_555 1_555
C11A C10A 1_555 1_555
C12A N3A 1_555 1_555
C13A N3A 1_555 1_555
C14A C6A 1_555 1_555
C15A C6A 1_555 1_555
H1A C3A 1_555 1_555
H2A C4A 1_555 1_555
H3A C8A 1_555 1_555
H4A C9A 1_555 1_555
H5A C10A 1_555 1_555
H6A C11A 1_555 1_555
H7A C13A 1_555 1_555
H8A C13A 1_555 1_555
H9A C13A 1_555 1_555
H10A C14A 1_555 1_555
H11A C14A 1_555 1_555
H12A C14A 1_555 1_555
H13A C15A 1_555 1_555
H14A C15A 1_555 1_555
H15A C15A 1_555 1_555
O1A O1 1_555 1_555
C16A O1 1_555 1_555
C17A C16A 1_555 1_555
C7 C12 1_555 1_555
C11 C12 1_555 1_555
C16 O1A 1_555 1_555
C7A C12A 1_555 1_555
C11A C12A 1_555 1_555
O1A C16A 1_555 1_555

#END
