
#######################################################################
#
#                 Cambridge Crystallographic Data Centre
#                                CCDC 
#
#######################################################################
#
# If this CIF has been generated from an entry in the Cambridge 
# Structural Database, then it will include bibliographic, chemical, 
# crystal, experimental, refinement or atomic coordinate data resulting 
# from the CCDC's data processing and validation procedures.
#
#######################################################################

data_GEKCOQ
_chemical_formula_moiety         'C19 H16 N2 O3,2(C1 H4 O1)'
_chemical_name_systematic        
"4-Hydroxy-N'-((2-methoxy-1-naphthyl)methylidene)benzohydrazide methanol solvate"
_symmetry_cell_setting           monoclinic
_symmetry_space_group_name_H-M   'P 21/c'
_symmetry_Int_Tables_number      14
_space_group_name_Hall           '-P 2ybc'
loop_
_symmetry_equiv_pos_site_id
_symmetry_equiv_pos_as_xyz
1 x,y,z
2 -x,1/2+y,1/2-z
3 -x,-y,-z
4 x,1/2-y,1/2+z
_cell_length_a                   7.600(1)
_cell_length_b                   22.775(2)
_cell_length_c                   11.443(1)
_cell_angle_alpha                90
_cell_angle_beta                 100.275(2)
_cell_angle_gamma                90
_cell_volume                     1948.9
_exptl_crystal_colour            colorless
_exptl_crystal_description       block
_cell_formula_units_Z            4
_chemical_properties_physical    air-sensitive
loop_
_atom_site_label
_atom_site_type_symbol
_atom_site_fract_x
_atom_site_fract_y
_atom_site_fract_z
N1 N 0.3454(2) 0.24976(8) 0.27838(15)
N2 N 0.4248(3) 0.22341(8) 0.38386(16)
O1 O 0.3214(2) 0.41844(7) 0.31062(15)
O2 O 0.4372(2) 0.13664(7) 0.29186(13)
O3 O 0.8070(3) 0.06006(8) 0.80909(15)
H1 H 0.8028 0.0242 0.8024
C1 C 0.2126(3) 0.33922(10) 0.18906(19)
C2 C 0.2331(3) 0.39944(10) 0.2033(2)
C3 C 0.1714(3) 0.43868(10) 0.1106(2)
H3 H 0.1887 0.4789 0.1213
C4 C 0.0861(3) 0.41721(11) 0.0051(2)
H4 H 0.0474 0.4433 -0.0566
C5 C 0.0541(3) 0.35728(10) -0.0144(2)
C6 C -0.0421(3) 0.33621(12) -0.1227(2)
H5 H -0.0820 0.3627 -0.1836
C7 C -0.0780(3) 0.27856(12) -0.1408(2)
H6 H -0.1414 0.2654 -0.2132
C8 C -0.0187(3) 0.23880(11) -0.0491(2)
H7 H -0.0447 0.1991 -0.0606
C9 C 0.0762(3) 0.25712(10) 0.0566(2)
H8 H 0.1154 0.2296 0.1156
C10 C 0.1166(3) 0.31716(9) 0.07863(18)
C11 C 0.2944(3) 0.30301(10) 0.28848(19)
H9 H 0.3110 0.3194 0.3641
C12 C 0.4692(3) 0.16647(10) 0.38392(18)
C13 C 0.5595(3) 0.14021(9) 0.49729(18)
C14 C 0.5922(3) 0.08088(10) 0.5009(2)
H10 H 0.5578 0.0589 0.4321
C15 C 0.6743(3) 0.05289(10) 0.6029(2)
H11 H 0.6941 0.0126 0.6027
C16 C 0.7272(3) 0.08512(10) 0.7056(2)
C17 C 0.6970(3) 0.14422(10) 0.7028(2)
H12 H 0.7324 0.1663 0.7714
C18 C 0.6154(3) 0.17167(10) 0.6006(2)
H13 H 0.5974 0.2121 0.6009
C19 C 0.3367(5) 0.47934(12) 0.3324(3)
H14 H 0.4078 0.4967 0.2802
H15 H 0.3929 0.4859 0.4134
H16 H 0.2199 0.4968 0.3186
H23 H 0.439(3) 0.2457(10) 0.4501(15)
O4 O 0.4849(3) 0.18581(8) 0.06988(15)
H2 H 0.4691 0.1882 0.1388
C20 C 0.6104(4) 0.14265(15) 0.0616(3)
H17 H 0.7226 0.1533 0.1097
H18 H 0.6252 0.1387 -0.0196
H19 H 0.5706 0.1060 0.0891
O5 O 0.8144(3) 0.94262(9) 0.8108(2)
C21 C 0.8969(4) 0.91723(14) 0.9144(3)
H20 H 0.9820 0.9442 0.9571
H21 H 0.9577 0.8822 0.8969
H22 H 0.8092 0.9074 0.9621
H24 H 0.739(3) 0.9196(10) 0.772(2)
loop_
_geom_bond_atom_site_label_1
_geom_bond_atom_site_label_2
_geom_bond_site_symmetry_1
_geom_bond_site_symmetry_2
N1 N2 1_555 1_555
N2 C12 1_555 1_555
O1 C2 1_555 1_555
O2 C12 1_555 1_555
O3 H1 1_555 1_555
O4 H2 1_555 1_555
O5 C21 1_555 1_555
C1 C2 1_555 1_555
C2 C3 1_555 1_555
C3 H3 1_555 1_555
C4 C3 1_555 1_555
H4 C4 1_555 1_555
C5 C4 1_555 1_555
C6 C5 1_555 1_555
H5 C6 1_555 1_555
C7 C6 1_555 1_555
H6 C7 1_555 1_555
C8 C7 1_555 1_555
H7 C8 1_555 1_555
C9 C8 1_555 1_555
H8 C9 1_555 1_555
C10 C1 1_555 1_555
C11 N1 1_555 1_555
H9 C11 1_555 1_555
C12 C13 1_555 1_555
C13 C14 1_555 1_555
C14 H10 1_555 1_555
C15 C14 1_555 1_555
H11 C15 1_555 1_555
C16 O3 1_555 1_555
C17 C16 1_555 1_555
H12 C17 1_555 1_555
C18 C13 1_555 1_555
H13 C18 1_555 1_555
C19 O1 1_555 1_555
H14 C19 1_555 1_555
H15 C19 1_555 1_555
H16 C19 1_555 1_555
C20 O4 1_555 1_555
H17 C20 1_555 1_555
H18 C20 1_555 1_555
H19 C20 1_555 1_555
C21 H20 1_555 1_555
H21 C21 1_555 1_555
H22 C21 1_555 1_555
H23 N2 1_555 1_555
H24 O5 1_555 1_555
C1 C11 1_555 1_555
C5 C10 1_555 1_555
C9 C10 1_555 1_555
C15 C16 1_555 1_555
C17 C18 1_555 1_555

#END
