
#######################################################################
#
#                 Cambridge Crystallographic Data Centre
#                                CCDC 
#
#######################################################################
#
# If this CIF has been generated from an entry in the Cambridge 
# Structural Database, then it will include bibliographic, chemical, 
# crystal, experimental, refinement or atomic coordinate data resulting 
# from the CCDC's data processing and validation procedures.
#
#######################################################################

data_GEKMOA
_chemical_formula_moiety         'C15 H16 N1 O2 1+,Cl1 O4 1-'
_chemical_name_systematic        
'4-((E)-2-(3,4-Dimethoxyphenyl)-1-ethenyl)pyridinium perchlorate'
_symmetry_cell_setting           monoclinic
_symmetry_space_group_name_H-M   'C 2/c'
_symmetry_Int_Tables_number      15
_space_group_name_Hall           '-C 2yn'
loop_
_symmetry_equiv_pos_site_id
_symmetry_equiv_pos_as_xyz
1 x,y,z
2 -x,y,1/2-z
3 1/2+x,1/2+y,z
4 1/2-x,1/2+y,1/2-z
5 -x,-y,-z
6 x,-y,1/2+z
7 1/2-x,1/2-y,-z
8 1/2+x,1/2-y,1/2+z
_cell_length_a                   18.7653(5)
_cell_length_b                   13.4602(4)
_cell_length_c                   12.5863(4)
_cell_angle_alpha                90
_cell_angle_beta                 109.875(1)
_cell_angle_gamma                90
_cell_volume                     2989.75
_exptl_crystal_colour            yellowish
_exptl_crystal_description       block
_chemical_melting_point          '260-262 deg.C.(dec.)'
_cell_formula_units_Z            8
loop_
_atom_site_label
_atom_site_type_symbol
_atom_site_fract_x
_atom_site_fract_y
_atom_site_fract_z
Cl1 Cl 0.0000 0.15160(3) 0.2500
O1 O 0.05656(7) 0.21363(9) 0.32713(10)
O2 O 0.03445(7) 0.09118(10) 0.18736(11)
O1A O -0.05656(7) 0.21363(9) 0.17287(10)
O2A O -0.03445(7) 0.09118(10) 0.31264(11)
Cl2 Cl 0.5000 0.06890(4) 0.2500
O3 O 0.55025(8) 0.00501(11) 0.21707(13)
O4 O 0.45759(9) 0.12895(13) 0.15818(13)
O3A O 0.44975(8) 0.00501(11) 0.28293(13)
O4A O 0.54241(9) 0.12895(13) 0.34182(13)
O5 O 0.15807(5) 0.13883(8) -0.31567(8)
O6 O 0.30089(5) 0.14875(7) -0.18858(8)
N1 N 0.3027(3) 0.11784(16) 0.5782(2)
H1 H 0.3059 0.1173 0.6496
C1 C 0.3668(2) 0.1113(2) 0.5521(3)
H2 H 0.4145 0.1058 0.6107
C2 C 0.3632(3) 0.1126(3) 0.4413(3)
H3 H 0.4084 0.1093 0.4233
C3 C 0.2926(2) 0.1188(2) 0.3549(3)
C4 C 0.22802(15) 0.12607(17) 0.3864(3)
H4 H 0.1794 0.1317 0.3298
C5 C 0.2344(2) 0.12513(18) 0.4976(4)
H5 H 0.1902 0.1297 0.5180
C6 C 0.28746(10) 0.11933(13) 0.23646(16)
H6 H 0.3322 0.1306 0.2190
C7 C 0.22189(13) 0.10447(13) 0.15107(14)
H7 H 0.1791 0.0899 0.1725
C8 C 0.20794(18) 0.1078(2) 0.0302(2)
C9 C 0.13351(18) 0.0962(2) -0.0421(2)
H8 H 0.0948 0.0820 -0.0116
C10 C 0.1154(3) 0.1052(5) -0.1571(4)
H9 H 0.0644 0.0973 -0.2057
C11 C 0.17335(8) 0.12634(10) -0.20257(11)
C12 C 0.25009(8) 0.13368(9) -0.13360(11)
C13 C 0.26893(9) 0.12639(10) -0.01715(11)
C14 C 0.07915(9) 0.14212(13) -0.38522(13)
C15 C 0.37805(8) 0.16659(12) -0.11776(14)
H10 H 0.3200(10) 0.1342(12) 0.0277(15)
H11 H 0.0804(11) 0.1528(14) -0.4587(17)
H12 H 0.0547(11) 0.1959(15) -0.3582(16)
H13 H 0.0543(10) 0.0783(15) -0.3856(16)
H14 H 0.4015(11) 0.1787(16) -0.1646(17)
H15 H 0.4021(10) 0.1056(14) -0.0753(15)
H16 H 0.3828(11) 0.2234(15) -0.0661(16)
C16? C 0.3824(5) 0.1021(7) 0.5222(9)
C17? C 0.1319(9) 0.1151(16) -0.1413(15)
C18? C 0.3463(6) 0.1069(10) 0.4081(9)
C19? C 0.2674(6) 0.1153(7) 0.3595(9)
C20? C 0.2268(4) 0.1224(5) 0.4311(9)
C21? C 0.2637(6) 0.1180(5) 0.5441(9)
C22? C 0.2295(3) 0.1146(4) 0.2378(4)
C23? C 0.2658(4) 0.1159(4) 0.1639(5)
C24? C 0.2333(5) 0.1177(6) 0.0377(8)
C25? C 0.1573(5) 0.1067(6) -0.0214(7)
H17? H 0.4358 0.0950 0.5537
H18? H 0.3607 0.1045 0.6627
H19? H 0.0788 0.1120 -0.1796
H20? H 0.3758 0.1046 0.3600
H21? H 0.1733 0.1303 0.4020
H22? H 0.2351 0.1224 0.5934
H23? H 0.1757 0.1131 0.2095
H24? H 0.3196 0.1155 0.1953
H25? H 0.1225 0.0939 0.0168
N2? N 0.3391(5) 0.1077(5) 0.5889(6)
loop_
_geom_bond_atom_site_label_1
_geom_bond_atom_site_label_2
_geom_bond_site_symmetry_1
_geom_bond_site_symmetry_2
Cl1 O1 1_555 1_555
O2 Cl1 1_555 1_555
Cl2 O3 1_555 1_555
O4 Cl2 1_555 1_555
O5 C11 1_555 1_555
O6 C12 1_555 1_555
N1 H1 1_555 1_555
C1 N1 1_555 1_555
H2 C1 1_555 1_555
C2 C1 1_555 1_555
H3 C2 1_555 1_555
C3 C2 1_555 1_555
C4 C3 1_555 1_555
H4 C4 1_555 1_555
C5 N1 1_555 1_555
H5 C5 1_555 1_555
C6 C3 1_555 1_555
H6 C6 1_555 1_555
C7 C6 1_555 1_555
H7 C7 1_555 1_555
C8 C7 1_555 1_555
C9 C8 1_555 1_555
H8 C9 1_555 1_555
C10 C9 1_555 1_555
H9 C10 1_555 1_555
C11 C10 1_555 1_555
C12 C11 1_555 1_555
C13 C8 1_555 1_555
C14 O5 1_555 1_555
C15 O6 1_555 1_555
H10 C13 1_555 1_555
H11 C14 1_555 1_555
H12 C14 1_555 1_555
H13 C14 1_555 1_555
H14 C15 1_555 1_555
H15 C15 1_555 1_555
H16 C15 1_555 1_555
O1A Cl1 1_555 1_555
O2A Cl1 1_555 1_555
O3A Cl2 1_555 1_555
O4A Cl2 1_555 1_555
C4 C5 1_555 1_555
C12 C13 1_555 1_555

#END
