
#######################################################################
#
#                 Cambridge Crystallographic Data Centre
#                                CCDC 
#
#######################################################################
#
# If this CIF has been generated from an entry in the Cambridge 
# Structural Database, then it will include bibliographic, chemical, 
# crystal, experimental, refinement or atomic coordinate data resulting 
# from the CCDC's data processing and validation procedures.
#
#######################################################################

data_GEKXUS
_chemical_formula_moiety         'C20 H24 O4'
_chemical_name_systematic        
(9,10-dimethoxy-2-propyl-6,7-dihydrodibenzo[b,d]oxepin-6-yl)methanol
_symmetry_cell_setting           monoclinic
_symmetry_space_group_name_H-M   'P 21/c'
_symmetry_Int_Tables_number      14
_space_group_name_Hall           '-P 2ybc'
loop_
_symmetry_equiv_pos_site_id
_symmetry_equiv_pos_as_xyz
1 x,y,z
2 -x,1/2+y,1/2-z
3 -x,-y,-z
4 x,1/2-y,1/2+z
_cell_length_a                   14.4834(14)
_cell_length_b                   5.5205(5)
_cell_length_c                   21.6449(19)
_cell_angle_alpha                90
_cell_angle_beta                 96.375(8)
_cell_angle_gamma                90
_cell_volume                     1719.93
_exptl_crystal_colour            yellow
_exptl_crystal_description       block
_cell_formula_units_Z            4
loop_
_atom_site_label
_atom_site_type_symbol
_atom_site_fract_x
_atom_site_fract_y
_atom_site_fract_z
O1 O 0.31063(15) 0.5672(4) 0.19235(10)
O2 O -0.09855(15) 0.3089(5) 0.09626(11)
O3 O -0.11686(16) 0.6621(5) 0.17268(12)
C1 C 0.1312(2) 0.7458(6) 0.14929(15)
C2 C 0.0651(2) 0.4005(6) 0.09218(15)
H1 H 0.0720 0.2704 0.0658
C3 C 0.2331(2) 0.4987(6) 0.08888(14)
C4 C 0.0449(2) 0.7849(6) 0.17096(16)
H2 H 0.0381 0.9138 0.1977
C5 C 0.3149(2) 0.5191(6) 0.12975(15)
C6 C 0.1418(2) 0.5501(6) 0.11077(14)
O4 O 0.45096(18) 0.8910(5) 0.25285(13)
H3 H 0.4606 0.7462 0.2482
C7 C 0.3997(2) 0.4671(6) 0.11020(16)
H4 H 0.4534 0.4801 0.1379
C8 C -0.0307(2) 0.6363(6) 0.15349(15)
C9 C 0.2109(2) 0.9196(6) 0.16517(16)
H5 H 0.1877 1.0622 0.1846
H6 H 0.2343 0.9709 0.1270
C10 C 0.3264(2) 0.3736(7) 0.00700(16)
C11 C -0.0203(2) 0.4440(6) 0.11256(15)
C12 C 0.2418(2) 0.4262(6) 0.02837(16)
H7 H 0.1881 0.4122 0.0007
C13 C 0.4059(2) 0.3957(7) 0.04953(18)
H8 H 0.4638 0.3620 0.0368
C14 C 0.3765(2) 0.9662(7) 0.20968(18)
H9 H 0.3970 0.9660 0.1685
H10 H 0.3606 1.1317 0.2193
C15 C 0.2905(2) 0.8135(6) 0.20820(16)
H11 H 0.2715 0.8124 0.2503
C16 C -0.0947(3) 0.1342(7) 0.04836(18)
H12 H -0.0742 0.2106 0.0125
H13 H -0.1553 0.0661 0.0376
H14 H -0.0520 0.0080 0.0627
C17 C 0.3333(3) 0.2982(9) -0.05934(18)
H15 H 0.2713 0.2961 -0.0815
H16 H 0.3691 0.4191 -0.0788
C18 C -0.1306(3) 0.8608(8) 0.21263(19)
H17 H -0.0872 0.8503 0.2494
H18 H -0.1928 0.8559 0.2240
H19 H -0.1213 1.0100 0.1914
C19 C 0.3772(4) 0.0553(11) -0.0663(2)
H20 H 0.4401 0.0588 -0.0457
H21 H 0.3429 -0.0653 -0.0456
C20 C 0.3799(4) -0.0192(12) -0.1321(2)
H22 H 0.3190 -0.0691 -0.1495
H23 H 0.4225 -0.1515 -0.1339
H24 H 0.3998 0.1150 -0.1555
loop_
_geom_bond_atom_site_label_1
_geom_bond_atom_site_label_2
_geom_bond_site_symmetry_1
_geom_bond_site_symmetry_2
O1 C5 1_555 1_555
O2 C11 1_555 1_555
O3 C8 1_555 1_555
C1 C4 1_555 1_555
C2 H1 1_555 1_555
C3 C5 1_555 1_555
C4 H2 1_555 1_555
C5 C7 1_555 1_555
C6 C1 1_555 1_555
O4 H3 1_555 1_555
C7 H4 1_555 1_555
C8 C4 1_555 1_555
C9 C1 1_555 1_555
H5 C9 1_555 1_555
H6 C9 1_555 1_555
C10 C12 1_555 1_555
C11 C2 1_555 1_555
C12 C3 1_555 1_555
H7 C12 1_555 1_555
C13 C7 1_555 1_555
H8 C13 1_555 1_555
C14 O4 1_555 1_555
H9 C14 1_555 1_555
H10 C14 1_555 1_555
C15 O1 1_555 1_555
H11 C15 1_555 1_555
C16 O2 1_555 1_555
H12 C16 1_555 1_555
H13 C16 1_555 1_555
H14 C16 1_555 1_555
C17 C10 1_555 1_555
H15 C17 1_555 1_555
H16 C17 1_555 1_555
C18 O3 1_555 1_555
H17 C18 1_555 1_555
H18 C18 1_555 1_555
H19 C18 1_555 1_555
C19 C17 1_555 1_555
H20 C19 1_555 1_555
H21 C19 1_555 1_555
C20 C19 1_555 1_555
H22 C20 1_555 1_555
H23 C20 1_555 1_555
H24 C20 1_555 1_555
C2 C6 1_555 1_555
C3 C6 1_555 1_555
C8 C11 1_555 1_555
C9 C15 1_555 1_555
C10 C13 1_555 1_555
C14 C15 1_555 1_555

#END
