
#######################################################################
#
#                 Cambridge Crystallographic Data Centre
#                                CCDC 
#
#######################################################################
#
# If this CIF has been generated from an entry in the Cambridge 
# Structural Database, then it will include bibliographic, chemical, 
# crystal, experimental, refinement or atomic coordinate data resulting 
# from the CCDC's data processing and validation procedures.
#
#######################################################################

data_GELNUJ
_chemical_name_common            'methyl (S)-N-(3-acetoxybenzoyl)tryptophanate'
_chemical_formula_moiety         'C21 H20 N2 O5'
_chemical_name_systematic        
'(S)-2-(4-acetoxybenzamido)-3-(1H-indol-3-yl)propanoic acid'
_symmetry_cell_setting           monoclinic
_symmetry_space_group_name_H-M   'P 21'
_symmetry_Int_Tables_number      4
_space_group_name_Hall           'P 2yb'
loop_
_symmetry_equiv_pos_site_id
_symmetry_equiv_pos_as_xyz
1 x,y,z
2 -x,1/2+y,-z
_cell_length_a                   8.5227(6)
_cell_length_b                   7.8310(6)
_cell_length_c                   15.2527(11)
_cell_angle_alpha                90
_cell_angle_beta                 91.051(2)
_cell_angle_gamma                90
_cell_volume                     1017.81
_exptl_crystal_colour            colorless
_exptl_crystal_description       block
_chemical_melting_point          '418.45-419.55 K'
_cell_formula_units_Z            2
_exptl_crystal_recrystallization_method dichloromethane
loop_
_atom_site_label
_atom_site_type_symbol
_atom_site_fract_x
_atom_site_fract_y
_atom_site_fract_z
C1 C 0.3267(3) 0.6780(4) 0.68290(16)
H1 H 0.2596 0.7232 0.6373
H2 H 0.3701 0.7702 0.7170
H3 H 0.2669 0.6047 0.7201
C2 C 0.4557(3) 0.5789(3) 0.64326(11)
C3 C 0.6959(3) 0.6101(2) 0.56998(12)
C4 C 0.8128(3) 0.5362(3) 0.62140(13)
H4 H 0.8026 0.5292 0.6819
C5 C 0.7086(2) 0.6224(2) 0.48031(11)
H5 H 0.6289 0.6725 0.4467
C6 C 0.9440(3) 0.4736(4) 0.58185(14)
H6 H 1.0235 0.4241 0.6158
C7 C 0.9593(2) 0.4835(3) 0.49176(14)
H7 H 1.0481 0.4396 0.4654
C8 C 0.8416(2) 0.5592(2) 0.44081(11)
C9 C 0.86429(19) 0.5631(2) 0.34358(12)
C10 C 0.77235(19) 0.6498(2) 0.19969(10)
H8 H 0.7828 0.5294 0.1833
C11 C 0.9112(2) 0.7458(3) 0.16318(12)
C12 C 1.0695(4) 0.7569(6) 0.0370(2)
H9 H 1.0479 0.8762 0.0291
H10 H 1.0773 0.7028 -0.0193
H11 H 1.1666 0.7433 0.0691
C13 C 0.6185(2) 0.7176(2) 0.15844(12)
H12 H 0.5966 0.8297 0.1823
H13 H 0.6313 0.7299 0.0957
C14 C 0.4828(2) 0.6029(2) 0.17484(11)
C15 C 0.3534(2) 0.6344(3) 0.22312(14)
H14 H 0.3338 0.7357 0.2527
C16 C 0.3223(2) 0.3686(3) 0.17333(12)
C17 C 0.4657(2) 0.4324(2) 0.14239(10)
C18 C 0.5585(2) 0.3252(3) 0.09102(11)
H15 H 0.6529 0.3648 0.0691
C19 C 0.5098(3) 0.1620(3) 0.07319(14)
H16 H 0.5720 0.0909 0.0396
C20 C 0.3679(3) 0.1015(3) 0.10479(15)
H17 H 0.3377 -0.0102 0.0924
C21 C 0.2718(3) 0.2024(3) 0.15373(15)
H18 H 0.1761 0.1619 0.1733
N1 N 0.2567(2) 0.4956(3) 0.22181(13)
H19 H 0.1680 0.4891 0.2476
N2 N 0.76715(17) 0.6593(2) 0.29474(9)
H20 H 0.7017 0.7266 0.3195
O1 O 0.5646(2) 0.68396(19) 0.60899(9)
O2 O 0.4669(2) 0.4268(2) 0.64094(11)
O3 O 0.9794(2) 0.8613(3) 0.19623(12)
O4 O 0.94432(19) 0.6791(3) 0.08511(9)
O5 O 0.96672(15) 0.4756(2) 0.30974(9)
loop_
_geom_bond_atom_site_label_1
_geom_bond_atom_site_label_2
_geom_bond_site_symmetry_1
_geom_bond_site_symmetry_2
C1 H1 1_555 1_555
H2 C1 1_555 1_555
H3 C1 1_555 1_555
C2 C1 1_555 1_555
C3 C4 1_555 1_555
C4 H4 1_555 1_555
C5 C3 1_555 1_555
H5 C5 1_555 1_555
C6 C4 1_555 1_555
H6 C6 1_555 1_555
C7 C6 1_555 1_555
H7 C7 1_555 1_555
C8 C5 1_555 1_555
C9 C8 1_555 1_555
C10 H8 1_555 1_555
C11 C10 1_555 1_555
C12 H9 1_555 1_555
H10 C12 1_555 1_555
H11 C12 1_555 1_555
C13 C10 1_555 1_555
H12 C13 1_555 1_555
H13 C13 1_555 1_555
C14 C13 1_555 1_555
C15 C14 1_555 1_555
H14 C15 1_555 1_555
C16 C17 1_555 1_555
C17 C14 1_555 1_555
C18 C17 1_555 1_555
H15 C18 1_555 1_555
C19 C18 1_555 1_555
H16 C19 1_555 1_555
C20 C19 1_555 1_555
H17 C20 1_555 1_555
C21 C16 1_555 1_555
H18 C21 1_555 1_555
N1 C15 1_555 1_555
H19 N1 1_555 1_555
N2 C9 1_555 1_555
H20 N2 1_555 1_555
O1 C2 1_555 1_555
O2 C2 1_555 1_555
O3 C11 1_555 1_555
O4 C11 1_555 1_555
O5 C9 1_555 1_555
C3 O1 1_555 1_555
C7 C8 1_555 1_555
C10 N2 1_555 1_555
C12 O4 1_555 1_555
C16 N1 1_555 1_555
C20 C21 1_555 1_555

#END
