
#######################################################################
#
#                 Cambridge Crystallographic Data Centre
#                                CCDC 
#
#######################################################################
#
# If this CIF has been generated from an entry in the Cambridge 
# Structural Database, then it will include bibliographic, chemical, 
# crystal, experimental, refinement or atomic coordinate data resulting 
# from the CCDC's data processing and validation procedures.
#
#######################################################################

data_GELRUL
_chemical_formula_moiety         'C24 H12 O8,2(C3 H7 N1 O1),H2 O1'
_chemical_name_systematic        
'2,3-bis(4-Hydroxy-2-oxo-2H-chromen-3-yl)cyclohexa-2,5-diene-1,4-dione dimethylformamide solvate monohydrate'
_symmetry_cell_setting           triclinic
_symmetry_space_group_name_H-M   'P -1'
_symmetry_Int_Tables_number      2
_space_group_name_Hall           '-P 1'
loop_
_symmetry_equiv_pos_site_id
_symmetry_equiv_pos_as_xyz
1 x,y,z
2 -x,-y,-z
_cell_length_a                   8.698(3)
_cell_length_b                   11.787(4)
_cell_length_c                   15.652(5)
_cell_angle_alpha                96.744(6)
_cell_angle_beta                 102.114(6)
_cell_angle_gamma                110.336(5)
_cell_volume                     1439.11
_exptl_crystal_colour            colorless
_exptl_crystal_description       block
_cell_formula_units_Z            2
loop_
_atom_site_label
_atom_site_type_symbol
_atom_site_fract_x
_atom_site_fract_y
_atom_site_fract_z
O1 O 0.94640(14) 0.45379(11) 0.20830(8)
O2 O 0.77890(14) 0.10889(10) 0.39554(7)
O3 O 0.52390(18) 0.15079(12) 0.08131(9)
O4 O 0.39450(14) 0.27157(10) 0.03750(7)
O5 O 0.64784(14) 0.53314(9) 0.26835(7)
H1 H 0.7051 0.5110 0.3063
O6 O 0.45540(13) 0.31353(9) 0.35083(8)
O7 O 0.25487(12) 0.13316(9) 0.33954(8)
O8 O 0.50129(13) -0.05487(9) 0.22391(7)
H2 H 0.5947 -0.0106 0.2197
C1 C 0.72319(16) 0.30775(12) 0.24765(9)
C2 C 0.67992(16) 0.21600(12) 0.29240(9)
C3 C 0.81637(18) 0.19134(13) 0.35459(9)
C4 C 0.99325(19) 0.26970(15) 0.36524(11)
H3 H 1.0787 0.2574 0.4051
C5 C 1.03537(19) 0.35796(15) 0.31960(11)
H4 H 1.1497 0.4069 0.3284
C6 C 0.90603(18) 0.38022(13) 0.25554(10)
C7 C 0.59640(17) 0.33610(12) 0.18321(9)
C8 C 0.50860(19) 0.24729(15) 0.10117(10)
C9 C 0.36853(18) 0.37938(16) 0.05068(10)
C10 C 0.2527(2) 0.3955(2) -0.01790(12)
H5 H 0.1974 0.3353 -0.0702
C11 C 0.2220(2) 0.5009(2) -0.00693(13)
H6 H 0.1444 0.5126 -0.0523
C12 C 0.3037(3) 0.5907(2) 0.07005(14)
H7 H 0.2816 0.6625 0.0762
C13 C 0.4180(2) 0.57422(18) 0.13781(12)
H8 H 0.4733 0.6350 0.1897
C14 C 0.45115(18) 0.46685(15) 0.12886(10)
C15 C 0.57101(17) 0.44342(13) 0.19671(9)
C16 C 0.50263(17) 0.13947(12) 0.28996(9)
C17 C 0.41017(18) 0.20342(13) 0.32747(10)
C18 C 0.18529(19) 0.00688(14) 0.31329(11)
C19 C 0.0301(2) -0.05374(17) 0.33001(14)
H9 H -0.0217 -0.0097 0.3585
C20 C -0.0452(2) -0.17980(17) 0.30369(14)
H10 H -0.1497 -0.2217 0.3140
C21 C 0.0317(2) -0.24501(16) 0.26219(13)
H11 H -0.0211 -0.3306 0.2446
C22 C 0.1860(2) -0.18481(14) 0.24651(11)
H12 H 0.2374 -0.2298 0.2186
C23 C 0.26625(18) -0.05587(13) 0.27237(10)
C24 C 0.43228(18) 0.01419(13) 0.26163(9)
O9 O -0.21530(13) 0.03492(11) 0.18607(7)
N1 N -0.10895(17) 0.10027(13) 0.07347(9)
C25 C -0.23199(19) 0.03763(14) 0.10616(11)
H13 H -0.3385 -0.0076 0.0666
C26 C -0.1402(3) 0.1096(2) -0.01988(13)
H14 H -0.2537 0.0538 -0.0519
H15 H -0.0599 0.0885 -0.0452
H16 H -0.1277 0.1928 -0.0242
C27 C 0.0590(2) 0.1745(2) 0.13118(14)
H17 H 0.0637 0.1618 0.1910
H18 H 0.0831 0.2603 0.1306
H19 H 0.1419 0.1508 0.1103
O10 O 0.19480(15) 0.63419(12) 0.46789(9)
N2 N 0.44647(17) 0.73545(13) 0.44161(9)
C28 C 0.3013(2) 0.72646(17) 0.45599(11)
H20 H 0.2759 0.7970 0.4574
C29 C 0.5658(3) 0.8506(2) 0.43001(16)
H21 H 0.5210 0.9139 0.4368
H22 H 0.5828 0.8393 0.3714
H23 H 0.6726 0.8748 0.4742
C30 C 0.4944(3) 0.6296(2) 0.43645(16)
H24 H 0.4190 0.5659 0.4582
H25 H 0.6091 0.6536 0.4722
H26 H 0.4869 0.5991 0.3755
O11 O 0.84075(14) 0.53513(10) 0.41691(7)
H27 H 0.8243 0.4843 0.4531
H28 H 0.9505 0.5746 0.4304
loop_
_geom_bond_atom_site_label_1
_geom_bond_atom_site_label_2
_geom_bond_site_symmetry_1
_geom_bond_site_symmetry_2
O1 C6 1_555 1_555
O2 C3 1_555 1_555
O3 C8 1_555 1_555
O4 C8 1_555 1_555
O5 H1 1_555 1_555
O6 C17 1_555 1_555
O7 C17 1_555 1_555
O8 H2 1_555 1_555
C1 C2 1_555 1_555
C2 C3 1_555 1_555
C3 C4 1_555 1_555
C4 H3 1_555 1_555
C5 C4 1_555 1_555
H4 C5 1_555 1_555
C6 C1 1_555 1_555
C7 C1 1_555 1_555
C8 C7 1_555 1_555
C9 O4 1_555 1_555
C10 C9 1_555 1_555
H5 C10 1_555 1_555
C11 C10 1_555 1_555
H6 C11 1_555 1_555
C12 C11 1_555 1_555
H7 C12 1_555 1_555
C13 C12 1_555 1_555
H8 C13 1_555 1_555
C14 C9 1_555 1_555
C15 O5 1_555 1_555
C16 C2 1_555 1_555
C17 C16 1_555 1_555
C18 O7 1_555 1_555
C19 C18 1_555 1_555
H9 C19 1_555 1_555
C20 C19 1_555 1_555
H10 C20 1_555 1_555
C21 C20 1_555 1_555
H11 C21 1_555 1_555
C22 C21 1_555 1_555
H12 C22 1_555 1_555
C23 C18 1_555 1_555
C24 O8 1_555 1_555
O9 C25 1_555 1_555
N1 C25 1_555 1_555
C25 H13 1_555 1_555
C26 N1 1_555 1_555
H14 C26 1_555 1_555
H15 C26 1_555 1_555
H16 C26 1_555 1_555
C27 N1 1_555 1_555
H17 C27 1_555 1_555
H18 C27 1_555 1_555
H19 C27 1_555 1_555
O10 C28 1_555 1_555
N2 C28 1_555 1_555
C28 H20 1_555 1_555
C29 N2 1_555 1_555
H21 C29 1_555 1_555
H22 C29 1_555 1_555
H23 C29 1_555 1_555
C30 N2 1_555 1_555
H24 C30 1_555 1_555
H25 C30 1_555 1_555
H26 C30 1_555 1_555
O11 H27 1_555 1_555
H28 O11 1_555 1_555
C5 C6 1_555 1_555
C7 C15 1_555 1_555
C13 C14 1_555 1_555
C14 C15 1_555 1_555
C16 C24 1_555 1_555
C22 C23 1_555 1_555
C23 C24 1_555 1_555

#END
