
#######################################################################
#
#                 Cambridge Crystallographic Data Centre
#                                CCDC 
#
#######################################################################
#
# If this CIF has been generated from an entry in the Cambridge 
# Structural Database, then it will include bibliographic, chemical, 
# crystal, experimental, refinement or atomic coordinate data resulting 
# from the CCDC's data processing and validation procedures.
#
#######################################################################

data_GEMJUG
_chemical_formula_moiety         'C2 H10 N2 2+,C2 N8 O2 2-'
_chemical_name_systematic        
"ethane-1,2-diaminium 1H,1'H-5,5'-bitetrazole-1,1'-diolate"
_symmetry_cell_setting           triclinic
_symmetry_space_group_name_H-M   'P -1'
_symmetry_Int_Tables_number      2
_space_group_name_Hall           '-P 1'
loop_
_symmetry_equiv_pos_site_id
_symmetry_equiv_pos_as_xyz
1 x,y,z
2 -x,-y,-z
_cell_length_a                   4.8860(4)
_cell_length_b                   6.9969(6)
_cell_length_c                   7.0961(6)
_cell_angle_alpha                96.3250(10)
_cell_angle_beta                 105.194(2)
_cell_angle_gamma                92.0390(10)
_cell_volume                     232.162
_exptl_crystal_colour            colorless
_exptl_crystal_description       block
_cell_formula_units_Z            1
loop_
_atom_site_label
_atom_site_type_symbol
_atom_site_fract_x
_atom_site_fract_y
_atom_site_fract_z
N1 N 0.3273(4) 0.1298(2) 0.6601(3)
N2 N 0.5512(4) 0.0560(3) 0.7716(3)
N3 N 0.4927(5) -0.1303(3) 0.7484(3)
N4 N 0.2348(4) -0.1778(3) 0.6233(3)
O1 O 0.3174(3) 0.3178(2) 0.6485(3)
C1 C 0.1326(5) -0.0126(3) 0.5686(3)
N1A N -0.3273(4) -0.1298(2) 0.3399(3)
N2A N -0.5512(4) -0.0560(3) 0.2284(3)
N3A N -0.4927(5) 0.1303(3) 0.2516(3)
N4A N -0.2348(4) 0.1778(3) 0.3767(3)
O1A O -0.3174(3) -0.3178(2) 0.3515(3)
C1A C -0.1326(5) 0.0126(3) 0.4314(3)
N5 N 0.1451(4) 0.4928(2) 0.2705(2)
H1 H 0.3096 0.5602 0.2881
H2 H 0.1725 0.3944 0.3413
H3 H 0.0219 0.5683 0.3087
C2 C 0.0308(5) 0.4185(3) 0.0599(3)
H4 H -0.1421 0.3380 0.0416
H5 H 0.1680 0.3403 0.0165
N5A N -0.1451(4) 0.5072(2) -0.2705(2)
H1A H -0.3096 0.4398 -0.2881
H2A H -0.1725 0.6056 -0.3413
H3A H -0.0219 0.4317 -0.3087
C2A C -0.0308(5) 0.5815(3) -0.0599(3)
H4A H 0.1421 0.6620 -0.0416
H5A H -0.1680 0.6597 -0.0165
loop_
_geom_bond_atom_site_label_1
_geom_bond_atom_site_label_2
_geom_bond_site_symmetry_1
_geom_bond_site_symmetry_2
N1 N2 1_555 1_555
N2 N3 1_555 1_555
N3 N4 1_555 1_555
N4 C1 1_555 1_555
O1 N1 1_555 1_555
C1 N1 1_555 1_555
N5 H1 1_555 1_555
H2 N5 1_555 1_555
H3 N5 1_555 1_555
C2 N5 1_555 1_555
H4 C2 1_555 1_555
H5 C2 1_555 1_555
N1A N2A 1_555 1_555
N2A N3A 1_555 1_555
N3A N4A 1_555 1_555
N4A C1A 1_555 1_555
O1A N1A 1_555 1_555
C1A C1 1_555 1_555
N5A H1A 1_555 1_555
H2A N5A 1_555 1_555
H3A N5A 1_555 1_555
C2A C2 1_555 1_555
H4A C2A 1_555 1_555
H5A C2A 1_555 1_555
N1A C1A 1_555 1_555
N5A C2A 1_555 1_555

#END
