
#######################################################################
#
#                 Cambridge Crystallographic Data Centre
#                                CCDC 
#
#######################################################################
#
# If this CIF has been generated from an entry in the Cambridge 
# Structural Database, then it will include bibliographic, chemical, 
# crystal, experimental, refinement or atomic coordinate data resulting 
# from the CCDC's data processing and validation procedures.
#
#######################################################################

data_GEMKAN
_chemical_formula_moiety         'C2 H1 N8 O2 1-,C2 H5 N4 1+'
_chemical_name_systematic        
"4-amino-1H-1,2,4-triazol-4-ium 1'-hydroxy-1H,1'H-5,5'-bitetrazol-1-olate"
_symmetry_cell_setting           monoclinic
_symmetry_space_group_name_H-M   'P 21'
_symmetry_Int_Tables_number      4
_space_group_name_Hall           'P 2yb'
loop_
_symmetry_equiv_pos_site_id
_symmetry_equiv_pos_as_xyz
1 x,y,z
2 -x,1/2+y,-z
_cell_length_a                   7.8773(6)
_cell_length_b                   7.4111(5)
_cell_length_c                   8.7009(7)
_cell_angle_alpha                90
_cell_angle_beta                 108.536(2)
_cell_angle_gamma                90
_cell_volume                     481.603
_exptl_crystal_colour            colorless
_exptl_crystal_description       block
_cell_formula_units_Z            2
loop_
_atom_site_label
_atom_site_type_symbol
_atom_site_fract_x
_atom_site_fract_y
_atom_site_fract_z
N1 N 0.7010(5) 0.2539(5) 0.0587(4)
N2 N 0.6362(6) 0.1956(6) 0.1726(5)
N3 N 0.6138(5) 0.3399(6) 0.2514(4)
N4 N 0.6617(6) 0.4894(5) 0.1872(5)
N5 N 0.7976(5) 0.7214(5) -0.0379(5)
N6 N 0.8493(6) 0.7738(5) -0.1620(5)
N7 N 0.8566(6) 0.6296(6) -0.2445(5)
N8 N 0.8122(6) 0.4830(5) -0.1729(5)
O1 O 0.7441(5) 0.1430(4) -0.0433(4)
H1 H 0.7232 0.0387 -0.0238
O2 O 0.7662(5) 0.8363(5) 0.0658(4)
C1 C 0.7153(6) 0.4322(7) 0.0675(6)
C2 C 0.7746(6) 0.5409(7) -0.0443(6)
N9 N 0.9309(6) 1.1606(7) 0.5830(5)
N10 N 0.7941(7) 1.1644(6) 0.6413(5)
H2 H 0.7859 1.2388 0.7145
N11 N 0.7342(6) 0.9564(6) 0.4734(4)
N12 N 0.6460(6) 0.8102(6) 0.3770(5)
H3 H 0.5451 0.7727 0.3834
H4 H 0.6931 0.7586 0.3118
C3 C 0.6739(7) 1.0426(7) 0.5750(6)
H5 H 0.5670 1.0218 0.5961
C4 C 0.8890(7) 1.0295(7) 0.4774(6)
H6 H 0.9580 0.9926 0.4141
loop_
_geom_bond_atom_site_label_1
_geom_bond_atom_site_label_2
_geom_bond_site_symmetry_1
_geom_bond_site_symmetry_2
N1 N2 1_555 1_555
N2 N3 1_555 1_555
N3 N4 1_555 1_555
N4 C1 1_555 1_555
N5 N6 1_555 1_555
N6 N7 1_555 1_555
N7 N8 1_555 1_555
N8 C2 1_555 1_555
O1 N1 1_555 1_555
H1 O1 1_555 1_555
O2 N5 1_555 1_555
C1 N1 1_555 1_555
C2 N5 1_555 1_555
N9 N10 1_555 1_555
N10 H2 1_555 1_555
N11 N12 1_555 1_555
N12 H3 1_555 1_555
H4 N12 1_555 1_555
C3 N10 1_555 1_555
H5 C3 1_555 1_555
C4 N9 1_555 1_555
H6 C4 1_555 1_555
C1 C2 1_555 1_555
N11 C3 1_555 1_555
N11 C4 1_555 1_555

#END
