
#######################################################################
#
#                 Cambridge Crystallographic Data Centre
#                                CCDC 
#
#######################################################################
#
# If this CIF has been generated from an entry in the Cambridge 
# Structural Database, then it will include bibliographic, chemical, 
# crystal, experimental, refinement or atomic coordinate data resulting 
# from the CCDC's data processing and validation procedures.
#
#######################################################################

data_GENDIP
_chemical_formula_moiety         'C54 H72 N7'
_chemical_name_systematic        
'1,3-bis{1,3-bis[2,6-di-isopropylphenyl]imidazol-2-ylidene}triazane radical'
_symmetry_cell_setting           monoclinic
_symmetry_space_group_name_H-M   'P 21/n'
_symmetry_Int_Tables_number      14
_space_group_name_Hall           '-P 2yn'
loop_
_symmetry_equiv_pos_site_id
_symmetry_equiv_pos_as_xyz
1 x,y,z
2 1/2-x,1/2+y,1/2-z
3 -x,-y,-z
4 1/2+x,1/2-y,1/2+z
_cell_length_a                   12.821(3)
_cell_length_b                   28.197(6)
_cell_length_c                   13.549(3)
_cell_angle_alpha                90
_cell_angle_beta                 93.77(3)
_cell_angle_gamma                90
_cell_volume                     4887.55
_exptl_crystal_colour            red
_exptl_crystal_description       block
_cell_formula_units_Z            4
loop_
_atom_site_label
_atom_site_type_symbol
_atom_site_fract_x
_atom_site_fract_y
_atom_site_fract_z
C1 C 0.5587(3) 0.68012(9) 0.9552(2)
H1 H 0.6353 0.6741 0.9677
C2 C 0.5164(4) 0.69592(12) 1.0530(3)
H2 H 0.5507 0.7255 1.0750
H3 H 0.5306 0.6713 1.1031
H4 H 0.4408 0.7011 1.0435
C3 C 0.5084(3) 0.63414(10) 0.9183(3)
H5 H 0.4325 0.6384 0.9093
H6 H 0.5242 0.6089 0.9668
H7 H 0.5359 0.6254 0.8551
C4 C 0.5459(2) 0.72008(9) 0.88092(19)
C5 C 0.6304(2) 0.74654(9) 0.85071(19)
C6 C 0.6173(2) 0.78535(9) 0.7865(2)
C7 C 0.5160(2) 0.79635(10) 0.7505(2)
H8 H 0.5048 0.8226 0.7072
C8 C 0.4323(2) 0.77006(11) 0.7761(2)
H9 H 0.3640 0.7777 0.7493
C9 C 0.4470(2) 0.73243(10) 0.8409(2)
H10 H 0.3881 0.7146 0.8586
C10 C 0.6938(3) 0.86695(10) 0.7690(3)
H11 H 0.6353 0.8781 0.7249
H12 H 0.7578 0.8836 0.7535
H13 H 0.6790 0.8733 0.8378
C11 C 0.7082(2) 0.81440(10) 0.7549(2)
H14 H 0.7720 0.8044 0.7961
C12 C 0.7277(5) 0.80540(17) 0.6479(4)
H15 H 0.6634 0.8115 0.6066
H16 H 0.7492 0.7724 0.6398
H17 H 0.7831 0.8266 0.6278
C13 C 0.7954(2) 0.75333(9) 0.9619(2)
H18 H 0.7803 0.7820 0.9948
C14 C 0.8785(2) 0.72631(8) 0.9813(2)
H19 H 0.9334 0.7324 1.0302
C15 C 0.7798(2) 0.69037(8) 0.85724(18)
C16 C 0.9481(2) 0.64955(9) 0.9257(2)
C17 C 1.0451(2) 0.65809(9) 0.8879(2)
C18 C 1.0631(2) 0.70101(10) 0.8230(3)
H20 H 1.0277 0.7279 0.8555
C19 C 1.1239(3) 0.62486(11) 0.9098(3)
H21 H 1.1911 0.6297 0.8860
C20 C 0.9264(2) 0.60880(9) 0.97896(19)
C21 C 1.0079(3) 0.57708(10) 0.9984(2)
H22 H 0.9963 0.5492 1.0353
C22 C 1.1061(3) 0.58552(11) 0.9647(3)
H23 H 1.1614 0.5637 0.9800
C23 C 0.8182(2) 0.59997(9) 1.01429(19)
H24 H 0.7664 0.6130 0.9629
C24 C 0.8010(3) 0.62558(11) 1.1111(2)
H25 H 0.8487 0.6127 1.1639
H26 H 0.7286 0.6210 1.1282
H27 H 0.8147 0.6595 1.1033
C25 C 0.7939(3) 0.54733(10) 1.0257(2)
H28 H 0.8105 0.5304 0.9656
H29 H 0.7196 0.5433 1.0364
H30 H 0.8361 0.5345 1.0825
C26 C 0.69662(18) 0.56560(8) 0.65713(16)
C27 C 0.7882(4) 0.69239(11) 0.5241(2)
H31 H 0.8005 0.6950 0.5961
H32 H 0.7217 0.7077 0.5033
H33 H 0.8452 0.7080 0.4918
C28 C 0.7836(3) 0.64015(10) 0.4948(2)
H34 H 0.7236 0.6257 0.5275
C29 C 0.7612(3) 0.63469(11) 0.3837(2)
H35 H 0.8199 0.6475 0.3492
H36 H 0.6973 0.6521 0.3629
H37 H 0.7520 0.6010 0.3673
C30 C 0.8807(2) 0.61342(10) 0.53059(19)
C31 C 0.9790(3) 0.62899(13) 0.5077(2)
H38 H 0.9853 0.6573 0.4705
C32 C 1.0668(3) 0.60414(16) 0.5381(2)
H39 H 1.1333 0.6152 0.5214
C33 C 0.8756(2) 0.57143(10) 0.58450(18)
C34 C 0.9638(2) 0.54541(11) 0.61729(18)
C35 C 1.0599(2) 0.56313(14) 0.5928(2)
H40 H 1.1220 0.5467 0.6142
C36 C 0.9240(3) 0.51272(13) 0.78278(19)
H41 H 0.9836 0.5282 0.8185
H42 H 0.9064 0.4836 0.8174
H43 H 0.8637 0.5342 0.7797
C37 C 0.9525(2) 0.50054(11) 0.67728(19)
H44 H 0.8925 0.4824 0.6453
C38 C 1.0476(2) 0.46784(13) 0.6804(2)
H45 H 1.0664 0.4612 0.6129
H46 H 1.0310 0.4380 0.7131
H47 H 1.1065 0.4833 0.7174
C39 C 0.7330(2) 0.51578(9) 0.53270(18)
H48 H 0.7697 0.5001 0.4835
C40 C 0.63422(19) 0.50814(8) 0.55153(17)
H49 H 0.5881 0.4861 0.5185
C41 C 0.6055(4) 0.48051(16) 0.8656(3)
H50 H 0.5549 0.4827 0.9166
H51 H 0.6414 0.5110 0.8601
H52 H 0.6568 0.4557 0.8837
C42 C 0.5490(2) 0.46832(9) 0.76735(19)
H53 H 0.6031 0.4650 0.7179
C43 C 0.4927(3) 0.42166(11) 0.7711(3)
H54 H 0.4424 0.4229 0.8224
H55 H 0.5434 0.3963 0.7864
H56 H 0.4556 0.4154 0.7068
C44 C 0.50935(18) 0.54325(8) 0.66732(17)
C45 C 0.4469(2) 0.58216(9) 0.63793(18)
C46 C 0.3505(2) 0.58573(11) 0.6793(2)
H57 H 0.3064 0.6119 0.6620
C47 C 0.3175(2) 0.55261(12) 0.7439(2)
H58 H 0.2511 0.5559 0.7704
C48 C 0.3799(2) 0.51450(11) 0.7709(2)
H59 H 0.3558 0.4917 0.8157
C49 C 0.47831(19) 0.50879(9) 0.73357(18)
C50 C 0.4809(2) 0.61926(9) 0.56592(19)
H60 H 0.5488 0.6087 0.5409
C51 C 0.4987(2) 0.66744(10) 0.6159(2)
H61 H 0.4326 0.6791 0.6392
H62 H 0.5246 0.6900 0.5683
H63 H 0.5502 0.6641 0.6721
C52 C 0.4016(3) 0.62417(10) 0.4766(2)
H64 H 0.3924 0.5934 0.4436
H65 H 0.4273 0.6474 0.4301
H66 H 0.3344 0.6349 0.4990
N1 N 0.77448(15) 0.55089(7) 0.59765(14)
N2 N 0.61021(15) 0.53809(6) 0.62786(13)
N3 N 0.68630(15) 0.59801(6) 0.72369(13)
N4 N 0.77188(16) 0.62413(7) 0.75810(14)
N5 N 0.72807(16) 0.66457(7) 0.79236(14)
N6 N 0.87188(16) 0.68706(7) 0.91745(15)
N7 N 0.73427(16) 0.73272(7) 0.88560(15)
C53 C 1.0056(4) 0.69422(19) 0.7332(4)
H67 H 1.0365 0.6683 0.6968
H68 H 1.0065 0.7234 0.6940
H69 H 0.9332 0.6862 0.7457
C54 C 1.1746(4) 0.7136(2) 0.8295(4)
H70 H 1.2002 0.7154 0.8991
H71 H 1.1839 0.7444 0.7978
H72 H 1.2140 0.6893 0.7959
H73? H 0.9923 0.7122 0.7980
C55? C 1.1327(7) 0.6885(3) 0.7161(5)
H74? H 1.2067 0.6832 0.7360
H75? H 1.1262 0.7155 0.6704
H76? H 1.1035 0.6601 0.6833
C56? C 1.1200(7) 0.7429(3) 0.8581(6)
H77? H 1.0880 0.7557 0.9161
H78? H 1.1177 0.7669 0.8057
H79? H 1.1929 0.7344 0.8761
loop_
_geom_bond_atom_site_label_1
_geom_bond_atom_site_label_2
_geom_bond_site_symmetry_1
_geom_bond_site_symmetry_2
C1 H1 1_555 1_555
C2 C1 1_555 1_555
H2 C2 1_555 1_555
H3 C2 1_555 1_555
H4 C2 1_555 1_555
C3 C1 1_555 1_555
H5 C3 1_555 1_555
H6 C3 1_555 1_555
H7 C3 1_555 1_555
C4 C1 1_555 1_555
C5 C4 1_555 1_555
C6 C5 1_555 1_555
C7 C6 1_555 1_555
H8 C7 1_555 1_555
C8 C7 1_555 1_555
H9 C8 1_555 1_555
C9 C4 1_555 1_555
H10 C9 1_555 1_555
C10 H11 1_555 1_555
H12 C10 1_555 1_555
H13 C10 1_555 1_555
C11 C6 1_555 1_555
H14 C11 1_555 1_555
C12 C11 1_555 1_555
H15 C12 1_555 1_555
H16 C12 1_555 1_555
H17 C12 1_555 1_555
C13 H18 1_555 1_555
C14 C13 1_555 1_555
H19 C14 1_555 1_555
C15 N5 1_555 1_555
C16 C17 1_555 1_555
C17 C18 1_555 1_555
C18 H20 1_555 1_555
C19 C17 1_555 1_555
H21 C19 1_555 1_555
C20 C16 1_555 1_555
C21 C20 1_555 1_555
H22 C21 1_555 1_555
C22 C19 1_555 1_555
H23 C22 1_555 1_555
C23 C20 1_555 1_555
H24 C23 1_555 1_555
C24 C23 1_555 1_555
H25 C24 1_555 1_555
H26 C24 1_555 1_555
H27 C24 1_555 1_555
C25 C23 1_555 1_555
H28 C25 1_555 1_555
H29 C25 1_555 1_555
H30 C25 1_555 1_555
C26 N1 1_555 1_555
C27 H31 1_555 1_555
H32 C27 1_555 1_555
H33 C27 1_555 1_555
C28 C27 1_555 1_555
H34 C28 1_555 1_555
C29 C28 1_555 1_555
H35 C29 1_555 1_555
H36 C29 1_555 1_555
H37 C29 1_555 1_555
C30 C28 1_555 1_555
C31 C30 1_555 1_555
H38 C31 1_555 1_555
C32 C31 1_555 1_555
H39 C32 1_555 1_555
C33 C30 1_555 1_555
C34 C33 1_555 1_555
C35 C32 1_555 1_555
H40 C35 1_555 1_555
C36 H41 1_555 1_555
H42 C36 1_555 1_555
H43 C36 1_555 1_555
C37 C34 1_555 1_555
H44 C37 1_555 1_555
C38 C37 1_555 1_555
H45 C38 1_555 1_555
H46 C38 1_555 1_555
H47 C38 1_555 1_555
C39 H48 1_555 1_555
C40 C39 1_555 1_555
H49 C40 1_555 1_555
C41 H50 1_555 1_555
H51 C41 1_555 1_555
H52 C41 1_555 1_555
C42 C41 1_555 1_555
H53 C42 1_555 1_555
C43 C42 1_555 1_555
H54 C43 1_555 1_555
H55 C43 1_555 1_555
H56 C43 1_555 1_555
C44 C45 1_555 1_555
C45 C46 1_555 1_555
C46 H57 1_555 1_555
C47 C46 1_555 1_555
H58 C47 1_555 1_555
C48 C47 1_555 1_555
H59 C48 1_555 1_555
C49 C42 1_555 1_555
C50 C45 1_555 1_555
H60 C50 1_555 1_555
C51 C50 1_555 1_555
H61 C51 1_555 1_555
H62 C51 1_555 1_555
H63 C51 1_555 1_555
C52 C50 1_555 1_555
H64 C52 1_555 1_555
H65 C52 1_555 1_555
H66 C52 1_555 1_555
N1 C33 1_555 1_555
N2 C26 1_555 1_555
N3 C26 1_555 1_555
N4 N3 1_555 1_555
N5 N4 1_555 1_555
N6 C14 1_555 1_555
N7 C5 1_555 1_555
C53 C18 1_555 1_555
H67 C53 1_555 1_555
H68 C53 1_555 1_555
H69 C53 1_555 1_555
C54 C18 1_555 1_555
H70 C54 1_555 1_555
H71 C54 1_555 1_555
H72 C54 1_555 1_555
C8 C9 1_555 1_555
C10 C11 1_555 1_555
C13 N7 1_555 1_555
C15 N6 1_555 1_555
C15 N7 1_555 1_555
C16 N6 1_555 1_555
C21 C22 1_555 1_555
C34 C35 1_555 1_555
C36 C37 1_555 1_555
C39 N1 1_555 1_555
C40 N2 1_555 1_555
C44 C49 1_555 1_555
C44 N2 1_555 1_555
C48 C49 1_555 1_555

#END
