
#######################################################################
#
#                 Cambridge Crystallographic Data Centre
#                                CCDC 
#
#######################################################################
#
# If this CIF has been generated from an entry in the Cambridge 
# Structural Database, then it will include bibliographic, chemical, 
# crystal, experimental, refinement or atomic coordinate data resulting 
# from the CCDC's data processing and validation procedures.
#
#######################################################################

data_GENLAN01
_chemical_name_common            4-Ethynylphenyl-N,N-dimethylamine
_chemical_formula_moiety         'C10 H11 N1'
_chemical_name_systematic        4-Ethynyl-N,N-dimethylaniline
_symmetry_cell_setting           triclinic
_symmetry_space_group_name_H-M   'P -1'
_symmetry_Int_Tables_number      2
_space_group_name_Hall           '-P 1'
loop_
_symmetry_equiv_pos_site_id
_symmetry_equiv_pos_as_xyz
1 x,y,z
2 -x,-y,-z
_cell_length_a                   17.412(1)
_cell_length_b                   18.845(1)
_cell_length_c                   19.252(1)
_cell_angle_alpha                105.84(1)
_cell_angle_beta                 104.51(1)
_cell_angle_gamma                112.99(1)
_cell_volume                     5119.45
_exptl_crystal_colour            colorless
_exptl_crystal_description       block
_chemical_melting_point          '310.5 K'
_cell_formula_units_Z            24
loop_
_atom_site_label
_atom_site_type_symbol
_atom_site_fract_x
_atom_site_fract_y
_atom_site_fract_z
N1 N -0.08112(13) -0.09396(12) -0.40767(11)
C1 C 0.01192(16) -0.05195(14) -0.37033(13)
C2 C 0.05750(16) -0.01846(14) -0.28764(13)
H1 H 0.0229 -0.0249 -0.2564
C3 C 0.15147(16) 0.02353(14) -0.25118(14)
H2 H 0.1801 0.0456 -0.1953
C4 C 0.20530(16) 0.03432(14) -0.29442(14)
C5 C 0.16033(16) 0.00202(14) -0.37632(14)
H3 H 0.1954 0.0092 -0.4071
C6 C 0.06713(16) -0.03971(14) -0.41346(13)
H4 H 0.0391 -0.0609 -0.4693
C7 C -0.13716(16) -0.11097(16) -0.36370(14)
H5 H -0.1267 -0.1479 -0.3398
H6 H -0.2016 -0.1391 -0.3993
H7 H -0.1211 -0.0576 -0.3221
C8 C -0.12508(16) -0.13111(16) -0.49311(13)
H8 H -0.1065 -0.0865 -0.5121
H9 H -0.1914 -0.1596 -0.5099
H10 H -0.1071 -0.1724 -0.5151
C9 C 0.30277(17) 0.07493(15) -0.25848(14)
C10 C 0.3831(2) 0.10744(18) -0.23203(18)
H11 H 0.442(2) 0.1316(18) -0.2123(17)
N2 N 1.06901(13) 0.58817(12) 0.40285(11)
C11 C 0.97590(16) 0.54704(14) 0.36330(13)
C12 C 0.93414(16) 0.51603(14) 0.28073(13)
H12 H 0.9710 0.5221 0.2514
C13 C 0.84074(15) 0.47703(14) 0.24161(13)
H13 H 0.8144 0.4571 0.1858
C14 C 0.78419(16) 0.46648(14) 0.28227(14)
C15 C 0.82489(16) 0.49514(14) 0.36375(14)
H14 H 0.7875 0.4874 0.3925
C16 C 0.91827(16) 0.53479(14) 0.40381(13)
H15 H 0.9440 0.5539 0.4595
C17 C 1.12712(16) 0.60965(15) 0.36072(14)
H16 H 1.1149 0.5575 0.3198
H17 H 1.1912 0.6405 0.3978
H18 H 1.1144 0.6453 0.3361
C18 C 1.11044(16) 0.62213(15) 0.48840(13)
H19 H 1.0891 0.5759 0.5051
H20 H 1.0931 0.6637 0.5110
H21 H 1.1769 0.6496 0.5067
C19 C 0.68741(17) 0.43289(15) 0.24280(15)
C20 C 0.60852(19) 0.40782(17) 0.21240(17)
H22 H 0.5434(19) 0.3880(17) 0.1876(16)
N3 N -0.07952(13) -0.22973(12) -0.15952(11)
C21 C 0.01317(16) -0.18492(15) -0.11848(14)
C22 C 0.07288(16) -0.16937(14) -0.15693(14)
H23 H 0.0488 -0.1909 -0.2129
C23 C 0.16591(16) -0.12304(14) -0.11419(14)
H24 H 0.2048 -0.1137 -0.1415
C24 C 0.20481(16) -0.08943(14) -0.03194(14)
C25 C 0.14526(16) -0.10597(14) 0.00563(14)
H25 H 0.1697 -0.0843 0.0616
C26 C 0.05222(16) -0.15280(14) -0.03573(13)
H26 H 0.0138 -0.1636 -0.0081
C27 C -0.11983(16) -0.25584(15) -0.24419(13)
H27 H -0.0960 -0.2062 -0.2561
H28 H -0.1862 -0.2816 -0.2626
H29 H -0.1044 -0.2972 -0.2710
C28 C -0.13924(16) -0.24781(16) -0.11813(15)
H30 H -0.1253 -0.2793 -0.0886
H31 H -0.2028 -0.2819 -0.1565
H32 H -0.1299 -0.1945 -0.0815
C29 C 0.30118(18) -0.03944(16) 0.01409(15)
C30 C 0.3798(2) 0.00358(18) 0.05595(17)
H33 H 0.4409(18) 0.0358(16) 0.0891(15)
N4 N 1.08390(13) 0.73480(13) 1.15832(11)
C31 C 0.99092(17) 0.68697(15) 1.12006(14)
C32 C 0.94718(16) 0.65078(14) 1.03691(13)
H34 H 0.9829 0.6608 1.0069
C33 C 0.85412(16) 0.60147(14) 0.99820(14)
H35 H 0.8269 0.5778 0.9422
C34 C 0.79848(16) 0.58535(15) 1.03960(14)
C35 C 0.84034(16) 0.62210(14) 1.12173(14)
H36 H 0.8039 0.6132 1.1512
C36 C 0.93360(16) 0.67141(14) 1.16095(13)
H37 H 0.9600 0.6955 1.2170
C37 C 1.13979(16) 0.74330(16) 1.11328(14)
H38 H 1.1278 0.6871 1.0805
H39 H 1.2043 0.7779 1.1495
H40 H 1.1252 0.7707 1.0794
C38 C 1.12818(17) 0.76076(15) 1.24233(14)
H41 H 1.1077 0.7964 1.2706
H42 H 1.1944 0.7930 1.2595
H43 H 1.1123 0.7105 1.2537
C39 C 0.70144(18) 0.52945(16) 0.99669(15)
C40 C 0.6227(2) 0.48234(18) 0.95918(18)
H44 H 0.5630(17) 0.4446(15) 0.9270(14)
N5 N -0.08982(13) -0.23553(12) -0.66311(12)
C41 C 0.00318(16) -0.19118(15) -0.62429(14)
C42 C 0.05135(16) -0.22310(14) -0.58459(13)
H45 H 0.0189 -0.2778 -0.5861
C43 C 0.14422(16) -0.17695(14) -0.54356(13)
H46 H 0.1744 -0.2007 -0.5176
C44 C 0.19539(16) -0.09635(15) -0.53899(13)
C45 C 0.14823(16) -0.06516(15) -0.58015(13)
H47 H 0.1815 -0.0110 -0.5794
C46 C 0.05543(16) -0.11027(14) -0.62160(13)
H48 H 0.0258 -0.0870 -0.6489
C47 C -0.14199(16) -0.31785(14) -0.66366(14)
H49 H -0.1220 -0.3567 -0.6874
H50 H -0.2070 -0.3408 -0.6945
H51 H -0.1322 -0.3115 -0.6094
C48 C -0.13814(16) -0.20056(15) -0.70226(14)
H52 H -0.1167 -0.1895 -0.7427
H53 H -0.1268 -0.1475 -0.6636
H54 H -0.2037 -0.2412 -0.7272
C49 C 0.29157(17) -0.04479(15) -0.48887(15)
C50 C 0.3690(2) -0.00157(18) -0.44484(17)
H55 H 0.4268(19) 0.0342(17) -0.4094(17)
N6 N 1.07968(13) 0.72990(12) 0.65519(12)
C51 C 0.98608(16) 0.68298(15) 0.61847(14)
C52 C 0.93405(16) 0.71186(14) 0.57870(13)
H56 H 0.9639 0.7661 0.5787
C53 C 0.84049(16) 0.66304(15) 0.53966(13)
H57 H 0.8071 0.6845 0.5135
C54 C 0.79387(16) 0.58254(15) 0.53800(14)
C55 C 0.84490(16) 0.55467(14) 0.57899(13)
H58 H 0.8145 0.5010 0.5800
C56 C 0.93849(15) 0.60301(14) 0.61845(13)
H59 H 0.9712 0.5819 0.6458
C57 C 1.12773(16) 0.81216(14) 0.65437(14)
H60 H 1.1092 0.8066 0.5999
H61 H 1.1936 0.8337 0.6778
H62 H 1.1127 0.8517 0.6850
C58 C 1.13232(16) 0.69955(15) 0.69638(15)
H63 H 1.1183 0.6439 0.6603
H64 H 1.1169 0.6947 0.7411
H65 H 1.1974 0.7395 0.7157
C59 C 0.69751(18) 0.52927(16) 0.49269(15)
C60 C 0.6185(2) 0.48409(18) 0.45241(17)
H66 H 0.5572(18) 0.4515(16) 0.4216(15)
N7 N -0.07652(13) -0.09630(12) 0.08899(12)
C61 C 0.01614(16) -0.05210(14) 0.12981(13)
C62 C 0.06961(15) 0.02867(14) 0.13357(13)
H67 H 0.0406 0.0550 0.1105
C63 C 0.16337(15) 0.06993(14) 0.16994(13)
H68 H 0.1976 0.1238 0.1706
C64 C 0.20937(16) 0.03503(15) 0.20606(13)
C65 C 0.15657(15) -0.04288(14) 0.20598(13)
H69 H 0.1861 -0.0672 0.2318
C66 C 0.06287(16) -0.08565(14) 0.16946(13)
H70 H 0.0291 -0.1385 0.1709
C67 C -0.12312(15) -0.05975(15) 0.05090(14)
H71 H -0.0977 -0.0440 0.0139
H72 H -0.1882 -0.1013 0.0221
H73 H -0.1151 -0.0092 0.0908
C68 C -0.13080(15) -0.17832(14) 0.08837(14)
H74 H -0.1278 -0.1706 0.1416
H75 H -0.1943 -0.2034 0.0519
H76 H -0.1069 -0.2160 0.0712
C69 C 0.30713(17) 0.07528(15) 0.23826(14)
C70 C 0.3878(2) 0.10849(17) 0.26294(17)
H77 H 0.4480(19) 0.1314(17) 0.2793(17)
N8 N 1.07823(13) 0.59771(12) 0.91095(11)
C71 C 0.98588(16) 0.55595(14) 0.86879(13)
C72 C 0.94290(15) 0.59126(14) 0.82844(13)
H78 H 0.9791 0.6439 0.8278
C73 C 0.84944(15) 0.55094(14) 0.79001(13)
H79 H 0.8226 0.5765 0.7634
C74 C 0.79305(16) 0.47362(15) 0.78888(13)
C75 C 0.83559(16) 0.43657(14) 0.82615(13)
H80 H 0.7991 0.3829 0.8248
C76 C 0.92877(15) 0.47595(14) 0.86461(13)
H81 H 0.9553 0.4488 0.8890
C77 C 1.13591(15) 0.67833(13) 0.91161(14)
H82 H 1.1143 0.7181 0.9288
H83 H 1.1989 0.7012 0.9481
H84 H 1.1334 0.6700 0.8584
C78 C 1.12096(15) 0.55748(14) 0.94808(13)
H85 H 1.0971 0.5453 0.9869
H86 H 1.1076 0.5045 0.9077
H87 H 1.1871 0.5955 0.9745
C79 C 0.69590(17) 0.43568(15) 0.75244(14)
C80 C 0.6162(2) 0.40746(17) 0.72346(17)
H88 H 0.5554(17) 0.3862(15) 0.7031(15)
N9 N 0.59707(14) 0.11036(13) -0.33664(13)
C81 C 0.60686(15) 0.15088(15) -0.26064(15)
C82 C 0.61307(15) 0.23089(15) -0.23528(15)
H89 H 0.6124 0.2582 -0.2701
C83 C 0.62021(16) 0.27058(16) -0.16000(15)
H90 H 0.6241 0.3247 -0.1440
C84 C 0.62162(15) 0.23270(16) -0.10732(15)
C85 C 0.61748(15) 0.15394(16) -0.13231(15)
H91 H 0.6197 0.1275 -0.0969
C86 C 0.61028(15) 0.11379(16) -0.20672(15)
H92 H 0.6076 0.0602 -0.2218
C87 C 0.61513(18) 0.15898(16) -0.38411(15)
H93 H 0.6779 0.2062 -0.3568
H94 H 0.6068 0.1221 -0.4356
H95 H 0.5727 0.1811 -0.3917
C88 C 0.60532(17) 0.03419(16) -0.35810(16)
H96 H 0.5609 -0.0085 -0.3479
H97 H 0.5936 0.0118 -0.4142
H98 H 0.6670 0.0480 -0.3265
C89 C 0.62491(16) 0.27310(17) -0.03057(16)
C90 C 0.62699(19) 0.3073(2) 0.03158(19)
H99 H 0.6269(17) 0.3318(16) 0.0776(14)
N10 N 0.36487(14) 0.22521(13) -0.00997(13)
C91 C 0.37265(16) 0.26614(16) 0.06515(15)
C92 C 0.37485(16) 0.34503(15) 0.08828(15)
H100 H 0.3728 0.3708 0.0523
C93 C 0.38005(16) 0.38514(16) 0.16184(16)
H101 H 0.3814 0.4381 0.1758
C94 C 0.38341(16) 0.34938(16) 0.21681(16)
C95 C 0.38194(16) 0.27188(16) 0.19416(16)
H102 H 0.3847 0.2467 0.2306
C96 C 0.37637(16) 0.23074(16) 0.12075(15)
H103 H 0.3751 0.1778 0.1072
C97 C 0.37941(18) 0.27105(16) -0.05941(16)
H104 H 0.4415 0.3194 -0.0334
H105 H 0.3710 0.2334 -0.1106
H106 H 0.3354 0.2914 -0.0675
C98 C 0.37861(17) 0.15211(16) -0.02773(16)
H107 H 0.3354 0.1087 -0.0173
H108 H 0.3685 0.1290 -0.0834
H109 H 0.4411 0.1692 0.0055
C99 C 0.38425(17) 0.39019(18) 0.29216(18)
C100 C 0.3827(2) 0.4237(2) 0.3527(2)
H110 H 0.3792(18) 0.4490(16) 0.3961(15)
N11 N 0.60980(15) 0.12017(14) 0.17498(14)
C101 C 0.61551(16) 0.16077(16) 0.24922(16)
C102 C 0.61824(16) 0.23964(15) 0.27203(16)
H111 H 0.6170 0.2655 0.2361
C103 C 0.62277(16) 0.27976(16) 0.34538(16)
H112 H 0.6245 0.3329 0.3592
C104 C 0.62475(16) 0.24396(16) 0.40028(16)
C105 C 0.62302(16) 0.16624(16) 0.37791(16)
H113 H 0.6252 0.1410 0.4144
C106 C 0.61841(16) 0.12518(16) 0.30474(15)
H114 H 0.6171 0.0722 0.2914
C107 C 0.62313(18) 0.16458(16) 0.12440(15)
H115 H 0.6828 0.2162 0.1518
H116 H 0.6204 0.1278 0.0756
H117 H 0.5752 0.1797 0.1116
C108 C 0.61230(17) 0.04118(15) 0.15454(16)
H118 H 0.5615 -0.0010 0.1596
H119 H 0.6069 0.0204 0.1000
H120 H 0.6701 0.0509 0.1903
C109 C 0.62785(17) 0.28589(17) 0.47623(17)
C110 C 0.6304(2) 0.3207(2) 0.5383(2)
H121 H 0.6332(19) 0.3506(17) 0.5852(16)
N12 N 0.37590(14) 0.22826(13) 0.48798(13)
C111 C 0.38154(16) 0.26647(16) 0.56268(16)
C112 C 0.38468(16) 0.34515(16) 0.58871(16)
H122 H 0.3860 0.3739 0.5551
C113 C 0.38617(16) 0.38180(16) 0.66127(16)
H123 H 0.3880 0.4350 0.6767
C114 C 0.38480(16) 0.34213(17) 0.71319(16)
C115 C 0.38229(16) 0.26423(16) 0.68836(16)
H124 H 0.3816 0.2362 0.7226
C116 C 0.38073(16) 0.22699(16) 0.61549(16)
H125 H 0.3790 0.1738 0.6004
C117 C 0.38853(19) 0.27575(16) 0.43977(16)
H126 H 0.3422 0.2934 0.4312
H127 H 0.4494 0.3260 0.4669
H128 H 0.3825 0.2400 0.3888
C118 C 0.38702(17) 0.15359(16) 0.46668(16)
H129 H 0.3426 0.1094 0.4755
H130 H 0.3770 0.1326 0.4109
H131 H 0.4489 0.1685 0.4992
C119 C 0.38558(17) 0.38097(18) 0.78907(18)
C120 C 0.38462(19) 0.4141(2) 0.8504(2)
H132 H 0.3880(18) 0.4408(16) 0.8983(15)
loop_
_geom_bond_atom_site_label_1
_geom_bond_atom_site_label_2
_geom_bond_site_symmetry_1
_geom_bond_site_symmetry_2
N1 C1 1_555 1_555
C1 C2 1_555 1_555
C2 H1 1_555 1_555
C3 C2 1_555 1_555
H2 C3 1_555 1_555
C4 C3 1_555 1_555
C5 C4 1_555 1_555
H3 C5 1_555 1_555
C6 C1 1_555 1_555
H4 C6 1_555 1_555
C7 N1 1_555 1_555
H5 C7 1_555 1_555
H6 C7 1_555 1_555
H7 C7 1_555 1_555
C8 N1 1_555 1_555
H8 C8 1_555 1_555
H9 C8 1_555 1_555
H10 C8 1_555 1_555
C9 C4 1_555 1_555
C10 C9 1_555 1_555
H11 C10 1_555 1_555
N2 C11 1_555 1_555
C11 C12 1_555 1_555
C12 H12 1_555 1_555
C13 C12 1_555 1_555
H13 C13 1_555 1_555
C14 C13 1_555 1_555
C15 C14 1_555 1_555
H14 C15 1_555 1_555
C16 C11 1_555 1_555
H15 C16 1_555 1_555
C17 N2 1_555 1_555
H16 C17 1_555 1_555
H17 C17 1_555 1_555
H18 C17 1_555 1_555
C18 N2 1_555 1_555
H19 C18 1_555 1_555
H20 C18 1_555 1_555
H21 C18 1_555 1_555
C19 C14 1_555 1_555
C20 C19 1_555 1_555
H22 C20 1_555 1_555
N3 C21 1_555 1_555
C21 C22 1_555 1_555
C22 H23 1_555 1_555
C23 C22 1_555 1_555
H24 C23 1_555 1_555
C24 C23 1_555 1_555
C25 C24 1_555 1_555
H25 C25 1_555 1_555
C26 C21 1_555 1_555
H26 C26 1_555 1_555
C27 N3 1_555 1_555
H27 C27 1_555 1_555
H28 C27 1_555 1_555
H29 C27 1_555 1_555
C28 N3 1_555 1_555
H30 C28 1_555 1_555
H31 C28 1_555 1_555
H32 C28 1_555 1_555
C29 C24 1_555 1_555
C30 C29 1_555 1_555
H33 C30 1_555 1_555
N4 C31 1_555 1_555
C31 C32 1_555 1_555
C32 H34 1_555 1_555
C33 C32 1_555 1_555
H35 C33 1_555 1_555
C34 C33 1_555 1_555
C35 C34 1_555 1_555
H36 C35 1_555 1_555
C36 C31 1_555 1_555
H37 C36 1_555 1_555
C37 N4 1_555 1_555
H38 C37 1_555 1_555
H39 C37 1_555 1_555
H40 C37 1_555 1_555
C38 N4 1_555 1_555
H41 C38 1_555 1_555
H42 C38 1_555 1_555
H43 C38 1_555 1_555
C39 C34 1_555 1_555
C40 C39 1_555 1_555
H44 C40 1_555 1_555
N5 C41 1_555 1_555
C41 C42 1_555 1_555
C42 H45 1_555 1_555
C43 C42 1_555 1_555
H46 C43 1_555 1_555
C44 C43 1_555 1_555
C45 C44 1_555 1_555
H47 C45 1_555 1_555
C46 C41 1_555 1_555
H48 C46 1_555 1_555
C47 N5 1_555 1_555
H49 C47 1_555 1_555
H50 C47 1_555 1_555
H51 C47 1_555 1_555
C48 N5 1_555 1_555
H52 C48 1_555 1_555
H53 C48 1_555 1_555
H54 C48 1_555 1_555
C49 C44 1_555 1_555
C50 C49 1_555 1_555
H55 C50 1_555 1_555
N6 C51 1_555 1_555
C51 C52 1_555 1_555
C52 H56 1_555 1_555
C53 C52 1_555 1_555
H57 C53 1_555 1_555
C54 C53 1_555 1_555
C55 C54 1_555 1_555
H58 C55 1_555 1_555
C56 C51 1_555 1_555
H59 C56 1_555 1_555
C57 N6 1_555 1_555
H60 C57 1_555 1_555
H61 C57 1_555 1_555
H62 C57 1_555 1_555
C58 N6 1_555 1_555
H63 C58 1_555 1_555
H64 C58 1_555 1_555
H65 C58 1_555 1_555
C59 C54 1_555 1_555
C60 C59 1_555 1_555
H66 C60 1_555 1_555
N7 C61 1_555 1_555
C61 C62 1_555 1_555
C62 H67 1_555 1_555
C63 C62 1_555 1_555
H68 C63 1_555 1_555
C64 C63 1_555 1_555
C65 C64 1_555 1_555
H69 C65 1_555 1_555
C66 C61 1_555 1_555
H70 C66 1_555 1_555
C67 N7 1_555 1_555
H71 C67 1_555 1_555
H72 C67 1_555 1_555
H73 C67 1_555 1_555
C68 N7 1_555 1_555
H74 C68 1_555 1_555
H75 C68 1_555 1_555
H76 C68 1_555 1_555
C69 C64 1_555 1_555
C70 C69 1_555 1_555
H77 C70 1_555 1_555
N8 C71 1_555 1_555
C71 C72 1_555 1_555
C72 H78 1_555 1_555
C73 C72 1_555 1_555
H79 C73 1_555 1_555
C74 C73 1_555 1_555
C75 C74 1_555 1_555
H80 C75 1_555 1_555
C76 C71 1_555 1_555
H81 C76 1_555 1_555
C77 N8 1_555 1_555
H82 C77 1_555 1_555
H83 C77 1_555 1_555
H84 C77 1_555 1_555
C78 N8 1_555 1_555
H85 C78 1_555 1_555
H86 C78 1_555 1_555
H87 C78 1_555 1_555
C79 C74 1_555 1_555
C80 C79 1_555 1_555
H88 C80 1_555 1_555
N9 C81 1_555 1_555
C81 C82 1_555 1_555
C82 H89 1_555 1_555
C83 C82 1_555 1_555
H90 C83 1_555 1_555
C84 C83 1_555 1_555
C85 C84 1_555 1_555
H91 C85 1_555 1_555
C86 C81 1_555 1_555
H92 C86 1_555 1_555
C87 N9 1_555 1_555
H93 C87 1_555 1_555
H94 C87 1_555 1_555
H95 C87 1_555 1_555
C88 N9 1_555 1_555
H96 C88 1_555 1_555
H97 C88 1_555 1_555
H98 C88 1_555 1_555
C89 C84 1_555 1_555
C90 C89 1_555 1_555
H99 C90 1_555 1_555
N10 C91 1_555 1_555
C91 C92 1_555 1_555
C92 H100 1_555 1_555
C93 C92 1_555 1_555
H101 C93 1_555 1_555
C94 C93 1_555 1_555
C95 C94 1_555 1_555
H102 C95 1_555 1_555
C96 C91 1_555 1_555
H103 C96 1_555 1_555
C97 N10 1_555 1_555
H104 C97 1_555 1_555
H105 C97 1_555 1_555
H106 C97 1_555 1_555
C98 N10 1_555 1_555
H107 C98 1_555 1_555
H108 C98 1_555 1_555
H109 C98 1_555 1_555
C99 C94 1_555 1_555
C100 C99 1_555 1_555
H110 C100 1_555 1_555
N11 C101 1_555 1_555
C101 C102 1_555 1_555
C102 H111 1_555 1_555
C103 C102 1_555 1_555
H112 C103 1_555 1_555
C104 C103 1_555 1_555
C105 C104 1_555 1_555
H113 C105 1_555 1_555
C106 C101 1_555 1_555
H114 C106 1_555 1_555
C107 N11 1_555 1_555
H115 C107 1_555 1_555
H116 C107 1_555 1_555
H117 C107 1_555 1_555
C108 N11 1_555 1_555
H118 C108 1_555 1_555
H119 C108 1_555 1_555
H120 C108 1_555 1_555
C109 C104 1_555 1_555
C110 C109 1_555 1_555
H121 C110 1_555 1_555
N12 C111 1_555 1_555
C111 C112 1_555 1_555
C112 H122 1_555 1_555
C113 C112 1_555 1_555
H123 C113 1_555 1_555
C114 C113 1_555 1_555
C115 C114 1_555 1_555
H124 C115 1_555 1_555
C116 C111 1_555 1_555
H125 C116 1_555 1_555
C117 N12 1_555 1_555
H126 C117 1_555 1_555
H127 C117 1_555 1_555
H128 C117 1_555 1_555
C118 N12 1_555 1_555
H129 C118 1_555 1_555
H130 C118 1_555 1_555
H131 C118 1_555 1_555
C119 C114 1_555 1_555
C120 C119 1_555 1_555
H132 C120 1_555 1_555
C5 C6 1_555 1_555
C15 C16 1_555 1_555
C25 C26 1_555 1_555
C35 C36 1_555 1_555
C45 C46 1_555 1_555
C55 C56 1_555 1_555
C65 C66 1_555 1_555
C75 C76 1_555 1_555
C85 C86 1_555 1_555
C95 C96 1_555 1_555
C105 C106 1_555 1_555
C115 C116 1_555 1_555

#END
