
#######################################################################
#
#                 Cambridge Crystallographic Data Centre
#                                CCDC 
#
#######################################################################
#
# If this CIF has been generated from an entry in the Cambridge 
# Structural Database, then it will include bibliographic, chemical, 
# crystal, experimental, refinement or atomic coordinate data resulting 
# from the CCDC's data processing and validation procedures.
#
#######################################################################

data_GENRAT
_chemical_formula_moiety         'C14 H18 N2 O2'
_chemical_name_systematic        
N-(2,6-Dimethylphenyl)-2-(2-oxopyrrolidin-1-yl)acetamide
_symmetry_cell_setting           orthorhombic
_symmetry_space_group_name_H-M   'P 21 21 21'
_symmetry_Int_Tables_number      19
_space_group_name_Hall           'P 2ac 2ab'
loop_
_symmetry_equiv_pos_site_id
_symmetry_equiv_pos_as_xyz
1 x,y,z
2 1/2-x,-y,1/2+z
3 -x,1/2+y,1/2-z
4 1/2+x,1/2-y,-z
_cell_length_a                   6.3390(13)
_cell_length_b                   9.3130(19)
_cell_length_c                   22.712(5)
_cell_angle_alpha                90
_cell_angle_beta                 90
_cell_angle_gamma                90
_cell_volume                     1340.81
_exptl_crystal_colour            colorless
_exptl_crystal_description       block
_cell_formula_units_Z            4
_exptl_crystal_recrystallization_method 'ethyl acetate/ethanol'
loop_
_atom_site_label
_atom_site_type_symbol
_atom_site_fract_x
_atom_site_fract_y
_atom_site_fract_z
O1 O 0.9789(4) 0.46127(18) 0.23228(9)
O2 O 0.8424(4) 0.3048(3) 0.06907(12)
N1 N 0.9122(5) 0.2559(3) 0.28130(10)
N2 N 1.1149(4) 0.3184(3) 0.13335(10)
C1 C 1.1857(6) 0.1982(4) 0.37970(16)
H1 H 1.2689 0.2254 0.3462
H2 H 1.1396 0.1006 0.3753
H3 H 1.2694 0.2067 0.4148
C2 C 0.5370(6) 0.4318(4) 0.29141(16)
H4 H 0.5130 0.3426 0.2712
H5 H 0.5979 0.4999 0.2646
H6 H 0.4054 0.4683 0.3060
C3 C 0.9968(5) 0.2953(3) 0.38424(13)
C4 C 0.9494(6) 0.3615(4) 0.43744(14)
H7 H 1.0363 0.3458 0.4698
C5 C 0.7783(7) 0.4492(4) 0.44328(16)
H8 H 0.7516 0.4941 0.4791
C6 C 0.6452(6) 0.4714(4) 0.39632(14)
H9 H 0.5272 0.5297 0.4008
C7 C 0.6855(5) 0.4073(3) 0.34207(13)
C8 C 0.8645(5) 0.3213(3) 0.33676(12)
C9 C 0.9701(5) 0.3296(3) 0.23356(12)
C10 C 1.0188(7) 0.2392(3) 0.18003(13)
H10 H 1.1122 0.1616 0.1915
H11 H 0.8889 0.1967 0.1657
C11 C 1.0210(5) 0.3401(3) 0.08114(14)
C12 C 1.1745(6) 0.4170(4) 0.04193(14)
H12 H 1.2158 0.3560 0.0093
H13 H 1.1115 0.5039 0.0263
C13 C 1.3588(6) 0.4521(6) 0.07865(18)
H14 H 1.3651 0.5546 0.0862
H15 H 1.4882 0.4230 0.0593
C14 C 1.3289(6) 0.3697(4) 0.13566(15)
H16 H 1.4273 0.2902 0.1381
H17 H 1.3496 0.4320 0.1694
H18 H 0.933(5) 0.172(4) 0.2833(13)
loop_
_geom_bond_atom_site_label_1
_geom_bond_atom_site_label_2
_geom_bond_site_symmetry_1
_geom_bond_site_symmetry_2
O1 C9 1_555 1_555
O2 C11 1_555 1_555
N1 C8 1_555 1_555
N2 C10 1_555 1_555
C1 H1 1_555 1_555
H2 C1 1_555 1_555
H3 C1 1_555 1_555
C2 H4 1_555 1_555
H5 C2 1_555 1_555
H6 C2 1_555 1_555
C3 C1 1_555 1_555
C4 C3 1_555 1_555
H7 C4 1_555 1_555
C5 C4 1_555 1_555
H8 C5 1_555 1_555
C6 C5 1_555 1_555
H9 C6 1_555 1_555
C7 C2 1_555 1_555
C8 C3 1_555 1_555
C9 N1 1_555 1_555
C10 C9 1_555 1_555
H10 C10 1_555 1_555
H11 C10 1_555 1_555
C11 N2 1_555 1_555
C12 C11 1_555 1_555
H12 C12 1_555 1_555
H13 C12 1_555 1_555
C13 C12 1_555 1_555
H14 C13 1_555 1_555
H15 C13 1_555 1_555
C14 N2 1_555 1_555
H16 C14 1_555 1_555
H17 C14 1_555 1_555
H18 N1 1_555 1_555
C6 C7 1_555 1_555
C7 C8 1_555 1_555
C13 C14 1_555 1_555

#END
