
#######################################################################
#
#                 Cambridge Crystallographic Data Centre
#                                CCDC 
#
#######################################################################
#
# If this CIF has been generated from an entry in the Cambridge 
# Structural Database, then it will include bibliographic, chemical, 
# crystal, experimental, refinement or atomic coordinate data resulting 
# from the CCDC's data processing and validation procedures.
#
#######################################################################

data_GENZEF
_chemical_formula_moiety         'C5 H6 N4 O1'
_chemical_name_systematic        Pyrazine-2-carbohydrazide
_symmetry_cell_setting           monoclinic
_symmetry_space_group_name_H-M   'P 21/c'
_symmetry_Int_Tables_number      14
_space_group_name_Hall           '-P 2ybc'
loop_
_symmetry_equiv_pos_site_id
_symmetry_equiv_pos_as_xyz
1 x,y,z
2 -x,1/2+y,1/2-z
3 -x,-y,-z
4 x,1/2-y,1/2+z
_cell_length_a                   3.7193(5)
_cell_length_b                   16.978(2)
_cell_length_c                   9.7858(10)
_cell_angle_alpha                90
_cell_angle_beta                 99.185(8)
_cell_angle_gamma                90
_cell_volume                     610.014
_exptl_crystal_colour            colorless
_exptl_crystal_description       plate
_chemical_melting_point          431-432K
_cell_formula_units_Z            4
loop_
_atom_site_label
_atom_site_type_symbol
_atom_site_fract_x
_atom_site_fract_y
_atom_site_fract_z
N1 N 0.2754(5) 0.23490(10) 0.66747(17)
C1 C 0.1216(6) 0.27960(12) 0.5616(2)
C2 C -0.1032(6) 0.24786(13) 0.4486(2)
N2 N -0.1773(5) 0.17092(11) 0.43778(19)
C3 C -0.0225(6) 0.12634(13) 0.5431(2)
C4 C 0.1998(6) 0.15799(13) 0.6573(2)
C5 C 0.1993(6) 0.36628(12) 0.5634(2)
O1 O 0.0679(4) 0.40779(9) 0.46448(15)
N3 N 0.4142(5) 0.39368(10) 0.67541(18)
N4 N 0.5100(6) 0.47441(11) 0.6892(2)
H1 H 0.5180 0.3612 0.7520
H2 H -0.2086 0.2820 0.3763
H3 H -0.0659 0.0712 0.5400
H4 H 0.3014 0.1239 0.7304
H5 H 0.6722 0.4855 0.6300
H6 H 0.3048 0.5034 0.6571
loop_
_geom_bond_atom_site_label_1
_geom_bond_atom_site_label_2
_geom_bond_site_symmetry_1
_geom_bond_site_symmetry_2
N1 C1 1_555 1_555
C1 C2 1_555 1_555
C2 N2 1_555 1_555
N2 C3 1_555 1_555
C3 C4 1_555 1_555
C4 N1 1_555 1_555
C5 C1 1_555 1_555
O1 C5 1_555 1_555
N3 C5 1_555 1_555
N4 N3 1_555 1_555
H1 N3 1_555 1_555
H2 C2 1_555 1_555
H3 C3 1_555 1_555
H4 C4 1_555 1_555
H5 N4 1_555 1_555
H6 N4 1_555 1_555

#END
