
#######################################################################
#
#                 Cambridge Crystallographic Data Centre
#                                CCDC 
#
#######################################################################
#
# If this CIF has been generated from an entry in the Cambridge 
# Structural Database, then it will include bibliographic, chemical, 
# crystal, experimental, refinement or atomic coordinate data resulting 
# from the CCDC's data processing and validation procedures.
#
#######################################################################

data_GEPCOT
_chemical_formula_moiety         'C11 H12 O3'
_chemical_name_systematic        (-)-1-Phenyl-2,7,8-trioxabicyclo(3.2.1)octane
_symmetry_cell_setting           monoclinic
_symmetry_space_group_name_H-M   'P 21'
_symmetry_Int_Tables_number      4
_space_group_name_Hall           'P 2yb'
loop_
_symmetry_equiv_pos_site_id
_symmetry_equiv_pos_as_xyz
1 x,y,z
2 -x,1/2+y,-z
_cell_length_a                   7.8520(9)
_cell_length_b                   10.493(1)
_cell_length_c                   6.1048(6)
_cell_angle_alpha                90
_cell_angle_beta                 107.02(1)
_cell_angle_gamma                90
_cell_volume                     480.952
_chemical_melting_point          59.5-60.5deg.C
_cell_formula_units_Z            2
loop_
_atom_site_label
_atom_site_type_symbol
_atom_site_fract_x
_atom_site_fract_y
_atom_site_fract_z
O1 O 0.0265(3) 0.3773 0.2712(4)
O2 O 0.0405(2) 0.2833(3) -0.0635(3)
O3 O 0.1851(2) 0.4673(3) 0.0458(4)
C1 C -0.1234(5) 0.4571(5) 0.1575(7)
C2 C -0.2131(4) 0.4138(5) -0.0857(7)
C3 C -0.0711(4) 0.3817(4) -0.2003(6)
C4 C 0.0647(7) 0.4857(4) -0.1810(6)
C5 C 0.1360(4) 0.3519(3) 0.1322(5)
C6 C 0.2973(4) 0.2789(4) 0.2642(5)
C7 C 0.4349(4) 0.2633(4) 0.1688(6)
C8 C 0.5817(5) 0.1910(5) 0.2771(7)
C9 C 0.5949(5) 0.1340(4) 0.4866(6)
C10 C 0.4585(5) 0.1492(4) 0.5839(6)
C11 C 0.3103(4) 0.2212(4) 0.4741(5)
H1 H -0.2050(50) 0.4630(50) 0.2590(80)
H2 H -0.0780(60) 0.5400(50) 0.1560(90)
H3 H -0.2940(50) 0.4820(50) -0.1800(80)
H4 H -0.2860(50) 0.3270(50) -0.0860(80)
H5 H -0.1260(50) 0.3460(40) -0.3610(80)
H6 H 0.1320(50) 0.4790(40) -0.2880(70)
H7 H 0.0080(50) 0.5670(50) -0.1970(80)
H8 H 0.4270(50) 0.3050(50) 0.0220(80)
H9 H 0.6870(60) 0.1850(50) 0.2190(80)
H10 H 0.7070(60) 0.0840(50) 0.5800(80)
H11 H 0.4600(50) 0.1010(40) 0.7210(80)
H12 H 0.2130(50) 0.2360(40) 0.5280(70)
loop_
_geom_bond_atom_site_label_1
_geom_bond_atom_site_label_2
_geom_bond_site_symmetry_1
_geom_bond_site_symmetry_2
O1 C1 1_555 1_555
O2 C3 1_555 1_555
O3 C4 1_555 1_555
C1 C2 1_555 1_555
C2 C3 1_555 1_555
C3 C4 1_555 1_555
C4 H6 1_555 1_555
C5 O1 1_555 1_555
C6 C5 1_555 1_555
C7 C6 1_555 1_555
C8 C7 1_555 1_555
C9 C8 1_555 1_555
C10 C9 1_555 1_555
C11 C6 1_555 1_555
H1 C1 1_555 1_555
H2 C1 1_555 1_555
H3 C2 1_555 1_555
H4 C2 1_555 1_555
H5 C3 1_555 1_555
H7 C4 1_555 1_555
H8 C7 1_555 1_555
H9 C8 1_555 1_555
H10 C9 1_555 1_555
H11 C10 1_555 1_555
H12 C11 1_555 1_555
O2 C5 1_555 1_555
O3 C5 1_555 1_555
C10 C11 1_555 1_555

#END
