
#######################################################################
#
#                 Cambridge Crystallographic Data Centre
#                                CCDC 
#
#######################################################################
#
# If this CIF has been generated from an entry in the Cambridge 
# Structural Database, then it will include bibliographic, chemical, 
# crystal, experimental, refinement or atomic coordinate data resulting 
# from the CCDC's data processing and validation procedures.
#
#######################################################################

data_GEPNIZ
_chemical_formula_moiety         'C9 H9 Br2 N1 O2'
_chemical_name_systematic        
trans-2,4-Dibromo-6-(2-hydroxyethyliminiomethyl)phenolate
_symmetry_cell_setting           orthorhombic
_symmetry_space_group_name_H-M   'A b a 2'
_symmetry_Int_Tables_number      41
_space_group_name_Hall           'A 2 -2ab'
loop_
_symmetry_equiv_pos_site_id
_symmetry_equiv_pos_as_xyz
1 x,y,z
2 -x,-y,z
3 1/2+x,1/2-y,z
4 1/2-x,1/2+y,z
5 x,1/2+y,1/2+z
6 -x,1/2-y,1/2+z
7 1/2+x,-y,1/2+z
8 1/2-x,y,1/2+z
_cell_length_a                   18.7541(9)
_cell_length_b                   21.9752(11)
_cell_length_c                   5.0082(3)
_cell_angle_alpha                90
_cell_angle_beta                 90
_cell_angle_gamma                90
_cell_volume                     2064
_exptl_crystal_colour            yellow
_exptl_crystal_description       Prism
_chemical_melting_point          '418-420 K'
_cell_formula_units_Z            8
loop_
_atom_site_label
_atom_site_type_symbol
_atom_site_fract_x
_atom_site_fract_y
_atom_site_fract_z
Br1 Br -0.182769(15) 0.613447(14) 1.30996(10)
Br2 Br -0.149288(18) 0.802597(14) 0.56070(10)
O1 O -0.04484(12) 0.56934(10) 1.0547(6)
O2 O 0.21279(12) 0.58027(10) 0.8007(7)
H1 H 0.2325 0.5910 0.6624
N1 N 0.05429(15) 0.56737(14) 0.7025(6)
H2 H 0.0301(17) 0.5503(14) 0.838(5)
C1 C -0.06596(17) 0.62026(15) 0.9490(7)
C2 C -0.12788(15) 0.65041(14) 1.0364(7)
C3 C -0.15150(18) 0.70450(14) 0.9295(7)
H3 H -0.1924 0.7232 0.9955
C4 C -0.11343(17) 0.73072(14) 0.7222(7)
C5 C -0.05276(18) 0.70377(14) 0.6237(7)
H4 H -0.0276 0.7220 0.4850
C6 C -0.02896(16) 0.64877(14) 0.7331(6)
C7 C 0.03116(17) 0.61829(15) 0.6153(7)
H5 H 0.0540 0.6363 0.4705
C8 C 0.11121(16) 0.53393(15) 0.5721(9)
H6 H 0.1260 0.5557 0.4132
H7 H 0.0935 0.4944 0.5172
C9 C 0.17480(17) 0.52545(15) 0.7544(8)
H8 H 0.1585 0.5093 0.9241
H9 H 0.2068 0.4958 0.6757
loop_
_geom_bond_atom_site_label_1
_geom_bond_atom_site_label_2
_geom_bond_site_symmetry_1
_geom_bond_site_symmetry_2
Br1 C2 1_555 1_555
Br2 C4 1_555 1_555
O1 C1 1_555 1_555
O2 H1 1_555 1_555
N1 H2 1_555 1_555
C1 C2 1_555 1_555
C2 C3 1_555 1_555
C3 H3 1_555 1_555
C4 C3 1_555 1_555
C5 C4 1_555 1_555
H4 C5 1_555 1_555
C6 C1 1_555 1_555
C7 N1 1_555 1_555
H5 C7 1_555 1_555
C8 N1 1_555 1_555
H6 C8 1_555 1_555
H7 C8 1_555 1_555
C9 O2 1_555 1_555
H8 C9 1_555 1_555
H9 C9 1_555 1_555
C5 C6 1_555 1_555
C6 C7 1_555 1_555
C8 C9 1_555 1_555

#END
