
#######################################################################
#
#                 Cambridge Crystallographic Data Centre
#                                CCDC 
#
#######################################################################
#
# If this CIF has been generated from an entry in the Cambridge 
# Structural Database, then it will include bibliographic, chemical, 
# crystal, experimental, refinement or atomic coordinate data resulting 
# from the CCDC's data processing and validation procedures.
#
#######################################################################

data_GEPTIG
_chemical_formula_moiety         'C26 H22 N2 O2,C3 H4 O4'
_chemical_name_systematic        
'1-(5-(anthracen-10-yl)-3-(4-methoxyphenyl)-4,5-dihydropyrazol-1-yl)ethanone.propandioic acid'
_symmetry_cell_setting           triclinic
_symmetry_space_group_name_H-M   'P -1'
_symmetry_Int_Tables_number      2
_space_group_name_Hall           '-P 1'
loop_
_symmetry_equiv_pos_site_id
_symmetry_equiv_pos_as_xyz
1 x,y,z
2 -x,-y,-z
_cell_length_a                   10.343(2)
_cell_length_b                   10.623(2)
_cell_length_c                   12.106(2)
_cell_angle_alpha                93.00(3)
_cell_angle_beta                 91.92(3)
_cell_angle_gamma                113.69(3)
_cell_volume                     1214.21
_exptl_crystal_colour            yellow
_exptl_crystal_description       Prism
_cell_formula_units_Z            2
loop_
_atom_site_label
_atom_site_type_symbol
_atom_site_fract_x
_atom_site_fract_y
_atom_site_fract_z
N1 N 0.5841(2) 0.7992(2) 0.35706(16)
C1 C 0.2362(2) 0.5378(2) 0.37818(18)
C2 C 0.0236(2) 0.5615(2) 0.30377(19)
C3 C 0.1746(2) 0.6149(2) 0.32092(18)
C4 C 0.2535(3) 0.7457(2) 0.27826(19)
H1 H 0.3516 0.7841 0.2881
C5 C 0.6522(2) 0.7721(2) 0.1710(2)
C6 C 0.1492(2) 0.4129(2) 0.42281(19)
N2 N 0.48467(19) 0.72064(19) 0.43003(16)
C7 C -0.0017(2) 0.3607(2) 0.4029(2)
C8 C -0.0594(3) 0.4359(3) 0.3440(2)
H2 H -0.1570 0.4012 0.3309
O1 O 0.42366(19) 0.67110(19) 0.60199(15)
O2 O 0.8614(2) 0.9172(2) -0.11310(16)
C9 C 0.5699(2) 0.7216(2) 0.2677(2)
C10 C -0.0399(3) 0.6360(3) 0.2439(2)
H3 H -0.1377 0.5993 0.2311
C11 C 0.2005(2) 0.3332(2) 0.4891(2)
H4 H 0.2972 0.3648 0.5063
C12 C -0.0898(3) 0.2321(3) 0.4443(2)
H5 H -0.1871 0.1975 0.4295
C13 C 0.1881(3) 0.8150(3) 0.2236(2)
H6 H 0.2424 0.9003 0.1980
C14 C -0.0347(3) 0.1602(3) 0.5042(2)
H7 H -0.0936 0.0764 0.5298
C15 C 0.1118(3) 0.2121(3) 0.5278(2)
H8 H 0.1491 0.1632 0.5707
C16 C 0.4957(3) 0.7575(3) 0.5386(2)
C17 C 0.6546(3) 0.6794(3) 0.0866(2)
H9 H 0.6081 0.5854 0.0945
C18 C 0.3957(2) 0.5784(2) 0.38298(18)
H10 H 0.4167 0.5133 0.4270
C19 C 0.4566(3) 0.5784(2) 0.2692(2)
H11 H 0.4962 0.5098 0.2618
H12 H 0.3845 0.5602 0.2100
C20 C 0.0396(3) 0.7598(3) 0.2053(2)
H13 H -0.0034 0.8077 0.1670
C21 C 0.7924(3) 0.8619(3) -0.0218(2)
C22 C 0.7253(3) 0.9123(3) 0.1575(2)
H14 H 0.7278 0.9766 0.2136
C23 C 0.7237(3) 0.7228(3) -0.0085(2)
H15 H 0.7242 0.6586 -0.0636
C24 C 0.7933(3) 0.9566(3) 0.0629(2)
H16 H 0.8406 1.0506 0.0550
C25 C 0.5939(3) 0.9016(3) 0.5788(2)
H17 H 0.5468 0.9393 0.6293
H18 H 0.6211 0.9575 0.5169
H19 H 0.6766 0.9001 0.6161
C26 C 0.8633(4) 0.8243(4) -0.2022(3)
H20 H 0.9152 0.8759 -0.2608
H21 H 0.7681 0.7678 -0.2294
H22 H 0.9079 0.7669 -0.1761
O3 O 0.1723(2) 0.5343(2) 1.03763(17)
O4 O 0.0971(2) 0.6659(2) 0.94025(18)
H23 H 0.0202 0.6034 0.9489
C27 C 0.1963(3) 0.6409(3) 0.9895(2)
C28 C 0.3422(3) 0.7528(3) 0.9854(2)
H24 H 0.4072 0.7307 1.0320
H25 H 0.3415 0.8386 1.0164
O5 O 0.3820(2) 0.6615(2) 0.81485(17)
H26 H 0.4066 0.6791 0.7518
C29 C 0.3969(4) 0.7746(4) 0.8716(3)
O6 O 0.4555(4) 0.8869(3) 0.8379(3)
loop_
_geom_bond_atom_site_label_1
_geom_bond_atom_site_label_2
_geom_bond_site_symmetry_1
_geom_bond_site_symmetry_2
N1 N2 1_555 1_555
C1 C3 1_555 1_555
C2 C3 1_555 1_555
C3 C4 1_555 1_555
C4 H1 1_555 1_555
C5 C9 1_555 1_555
C6 C1 1_555 1_555
N2 C16 1_555 1_555
C7 C6 1_555 1_555
C8 C2 1_555 1_555
H2 C8 1_555 1_555
O1 C16 1_555 1_555
O2 C21 1_555 1_555
C9 N1 1_555 1_555
C10 C2 1_555 1_555
H3 C10 1_555 1_555
C11 C6 1_555 1_555
H4 C11 1_555 1_555
C12 C7 1_555 1_555
H5 C12 1_555 1_555
C13 C4 1_555 1_555
H6 C13 1_555 1_555
C14 C12 1_555 1_555
H7 C14 1_555 1_555
C15 C11 1_555 1_555
H8 C15 1_555 1_555
C16 C25 1_555 1_555
C17 C5 1_555 1_555
H9 C17 1_555 1_555
C18 C1 1_555 1_555
H10 C18 1_555 1_555
C19 C9 1_555 1_555
H11 C19 1_555 1_555
H12 C19 1_555 1_555
C20 C10 1_555 1_555
H13 C20 1_555 1_555
C21 C23 1_555 1_555
C22 C5 1_555 1_555
H14 C22 1_555 1_555
C23 C17 1_555 1_555
H15 C23 1_555 1_555
C24 C21 1_555 1_555
H16 C24 1_555 1_555
C25 H17 1_555 1_555
H18 C25 1_555 1_555
H19 C25 1_555 1_555
C26 O2 1_555 1_555
H20 C26 1_555 1_555
H21 C26 1_555 1_555
H22 C26 1_555 1_555
O3 C27 1_555 1_555
O4 H23 1_555 1_555
C27 O4 1_555 1_555
C28 C27 1_555 1_555
H24 C28 1_555 1_555
H25 C28 1_555 1_555
O5 H26 1_555 1_555
C29 C28 1_555 1_555
O6 C29 1_555 1_555
N2 C18 1_555 1_555
C7 C8 1_555 1_555
C13 C20 1_555 1_555
C14 C15 1_555 1_555
C18 C19 1_555 1_555
C22 C24 1_555 1_555
O5 C29 1_555 1_555

#END
