
#######################################################################
#
#                 Cambridge Crystallographic Data Centre
#                                CCDC 
#
#######################################################################
#
# If this CIF has been generated from an entry in the Cambridge 
# Structural Database, then it will include bibliographic, chemical, 
# crystal, experimental, refinement or atomic coordinate data resulting 
# from the CCDC's data processing and validation procedures.
#
#######################################################################

data_GEPTAY
_chemical_formula_moiety         'C26 H22 N2 O2'
_chemical_name_systematic        
'1-(5-(anthracen-10-yl)-3-(4-methoxyphenyl)-4,5-dihydropyrazol-1-yl) ethanone'
_symmetry_cell_setting           orthorhombic
_symmetry_space_group_name_H-M   'P 21 21 21'
_symmetry_Int_Tables_number      19
_space_group_name_Hall           'P 2ac 2ab'
loop_
_symmetry_equiv_pos_site_id
_symmetry_equiv_pos_as_xyz
1 x,y,z
2 1/2-x,-y,1/2+z
3 -x,1/2+y,1/2-z
4 1/2+x,1/2-y,-z
_cell_length_a                   10.856(2)
_cell_length_b                   11.111(2)
_cell_length_c                   17.560(4)
_cell_angle_alpha                90
_cell_angle_beta                 90
_cell_angle_gamma                90
_cell_volume                     2118.11
_exptl_crystal_colour            colorless
_exptl_crystal_description       prism
_cell_formula_units_Z            4
loop_
_atom_site_label
_atom_site_type_symbol
_atom_site_fract_x
_atom_site_fract_y
_atom_site_fract_z
C1 C -0.06515(18) 0.37989(17) 0.90485(11)
O1 O -0.18491(15) 0.64920(15) 0.73819(9)
N1 N -0.14463(16) 0.46562(15) 0.89933(9)
N2 N -0.12304(15) 0.52568(15) 0.83051(9)
C2 C -0.05884(18) 0.30043(17) 0.97125(11)
C3 C 0.1262(2) 0.65018(19) 0.81377(12)
C4 C 0.13630(19) 0.54557(19) 0.69170(11)
C5 C -0.02020(19) 0.47404(18) 0.78662(11)
H1 H -0.0540 0.4384 0.7400
C6 C 0.0183(2) 0.20010(18) 0.97014(12)
H2 H 0.0647 0.1837 0.9268
C7 C 0.08156(18) 0.56092(18) 0.76402(11)
C8 C -0.1210(2) 0.24600(19) 1.09937(12)
H3 H -0.1678 0.2616 1.1426
C9 C -0.1282(2) 0.32090(19) 1.03653(11)
H4 H -0.1809 0.3868 1.0380
O2 O -0.02585(17) 0.06871(16) 1.15538(9)
C10 C 0.0216(2) 0.37151(18) 0.83887(12)
H5 H 0.0145 0.2942 0.8135
H6 H 0.1062 0.3829 0.8551
C11 C -0.0426(2) 0.1470(2) 1.09662(12)
C12 C -0.2020(2) 0.6089(2) 0.80226(13)
C13 C 0.0268(2) 0.1252(2) 1.03204(12)
H7 H 0.0796 0.0593 1.0306
C14 C 0.2311(2) 0.6274(2) 0.66746(14)
C15 C 0.0870(2) 0.6634(2) 0.89131(13)
H8 H 0.0282 0.6107 0.9106
C16 C 0.2192(2) 0.7325(2) 0.78800(15)
C17 C 0.1069(2) 0.4492(2) 0.64142(12)
H9 H 0.0472 0.3936 0.6557
C18 C 0.2558(3) 0.5190(3) 0.54994(16)
H10 H 0.2945 0.5094 0.5031
C19 C 0.2667(2) 0.7212(2) 0.71541(16)
H11 H 0.3237 0.7774 0.6981
C20 C 0.1331(3) 0.7506(2) 0.93754(15)
H12 H 0.1057 0.7558 0.9876
C21 C 0.2872(2) 0.6105(3) 0.59490(16)
H13 H 0.3471 0.6646 0.5786
C22 C 0.1644(3) 0.4366(3) 0.57288(14)
H14 H 0.1431 0.3731 0.5410
C23 C 0.2208(3) 0.8322(3) 0.91133(19)
H15 H 0.2508 0.8918 0.9436
C24 C -0.3056(2) 0.6484(2) 0.85270(15)
H16 H -0.3560 0.7055 0.8260
H17 H -0.2727 0.6851 0.8978
H18 H -0.3545 0.5798 0.8666
C25 C 0.2621(3) 0.8248(2) 0.83900(19)
H19 H 0.3196 0.8805 0.8217
C26 C -0.0958(3) 0.0815(3) 1.22124(15)
H20 H -0.0726 0.0207 1.2573
H21 H -0.1816 0.0732 1.2090
H22 H -0.0815 0.1596 1.2429
loop_
_geom_bond_atom_site_label_1
_geom_bond_atom_site_label_2
_geom_bond_site_symmetry_1
_geom_bond_site_symmetry_2
C1 N1 1_555 1_555
O1 C12 1_555 1_555
N1 N2 1_555 1_555
N2 C5 1_555 1_555
C2 C1 1_555 1_555
C3 C7 1_555 1_555
C4 C7 1_555 1_555
C5 H1 1_555 1_555
C6 C2 1_555 1_555
H2 C6 1_555 1_555
C7 C5 1_555 1_555
C8 H3 1_555 1_555
C9 C2 1_555 1_555
H4 C9 1_555 1_555
O2 C11 1_555 1_555
C10 C1 1_555 1_555
H5 C10 1_555 1_555
H6 C10 1_555 1_555
C11 C8 1_555 1_555
C12 N2 1_555 1_555
C13 C6 1_555 1_555
H7 C13 1_555 1_555
C14 C4 1_555 1_555
C15 C3 1_555 1_555
H8 C15 1_555 1_555
C16 C3 1_555 1_555
C17 C4 1_555 1_555
H9 C17 1_555 1_555
C18 H10 1_555 1_555
C19 C14 1_555 1_555
H11 C19 1_555 1_555
C20 C15 1_555 1_555
H12 C20 1_555 1_555
C21 C14 1_555 1_555
H13 C21 1_555 1_555
C22 C17 1_555 1_555
H14 C22 1_555 1_555
C23 C20 1_555 1_555
H15 C23 1_555 1_555
C24 C12 1_555 1_555
H16 C24 1_555 1_555
H17 C24 1_555 1_555
H18 C24 1_555 1_555
C25 C16 1_555 1_555
H19 C25 1_555 1_555
C26 O2 1_555 1_555
H20 C26 1_555 1_555
H21 C26 1_555 1_555
H22 C26 1_555 1_555
C5 C10 1_555 1_555
C8 C9 1_555 1_555
C11 C13 1_555 1_555
C16 C19 1_555 1_555
C18 C21 1_555 1_555
C18 C22 1_555 1_555
C23 C25 1_555 1_555

#END
