
#######################################################################
#
#                 Cambridge Crystallographic Data Centre
#                                CCDC 
#
#######################################################################
#
# If this CIF has been generated from an entry in the Cambridge 
# Structural Database, then it will include bibliographic, chemical, 
# crystal, experimental, refinement or atomic coordinate data resulting 
# from the CCDC's data processing and validation procedures.
#
#######################################################################

data_GEPYOQ
_chemical_formula_moiety         'C48 H72 Cs2 O18 2+,2(I5 1-)'
_chemical_name_systematic        
'(\m~2~-Benzo-18-crown-6)-bis(benzo-18-crown-6)-di-cesium bis(pentaiodide)'
_symmetry_cell_setting           triclinic
_symmetry_space_group_name_H-M   'P -1'
_symmetry_Int_Tables_number      2
_space_group_name_Hall           '-P 1'
loop_
_symmetry_equiv_pos_site_id
_symmetry_equiv_pos_as_xyz
1 x,y,z
2 -x,-y,-z
_cell_length_a                   12.4165(14)
_cell_length_b                   15.3982(18)
_cell_length_c                   19.384(2)
_cell_angle_alpha                91.146(9)
_cell_angle_beta                 100.526(9)
_cell_angle_gamma                95.264(9)
_cell_volume                     3625.77
_exptl_crystal_colour            black
_cell_formula_units_Z            2
loop_
_atom_site_label
_atom_site_type_symbol
_atom_site_fract_x
_atom_site_fract_y
_atom_site_fract_z
Cs1 Cs 0.27340(4) 0.35610(3) 0.82575(3)
Cs2 Cs 0.20140(5) 0.11620(4) 0.68881(3)
O1 O 0.5158(4) 0.4145(3) 0.9281(3)
C1 C 0.5453(7) 0.3735(5) 0.9939(4)
H1 H 0.6040 0.4093 1.0244
H2 H 0.5706 0.3169 0.9862
C2 C 0.4457(6) 0.3632(5) 1.0265(4)
H3 H 0.4647 0.3426 1.0737
H4 H 0.4159 0.4190 1.0293
O2 O 0.3662(4) 0.3022(3) 0.9850(3)
C3 C 0.2741(7) 0.2769(5) 1.0171(4)
H5 H 0.3001 0.2526 1.0622
H6 H 0.2268 0.2315 0.9879
C4 C 0.2071(7) 0.3519(5) 1.0279(4)
H7 H 0.1405 0.3300 1.0440
H8 H 0.2494 0.3932 1.0634
O3 O 0.1799(4) 0.3936(4) 0.9636(3)
C5 C 0.0962(7) 0.4499(6) 0.9650(4)
H9 H 0.1065 0.4792 1.0108
H10 H 0.0247 0.4164 0.9562
C6 C 0.1013(7) 0.5156(5) 0.9099(4)
H11 H 0.0468 0.5563 0.9122
H12 H 0.1733 0.5483 0.9185
O4 O 0.0813(4) 0.4740(3) 0.8419(3)
C7 C 0.0626(7) 0.5336(5) 0.7867(4)
H13 H -0.0027 0.5621 0.7905
H14 H 0.0479 0.5009 0.7421
C8 C 0.1573(7) 0.6034(5) 0.7860(4)
H15 H 0.1393 0.6408 0.7467
H16 H 0.1707 0.6392 0.8291
O5 O 0.2537(5) 0.5606(3) 0.7800(3)
C9 C 0.3463(7) 0.6212(5) 0.7867(4)
H17 H 0.3622 0.6477 0.8337
H18 H 0.3314 0.6670 0.7536
C10 C 0.4439(7) 0.5783(5) 0.7730(4)
H19 H 0.4280 0.5503 0.7266
H20 H 0.5065 0.6216 0.7753
O6 O 0.4690(4) 0.5143(3) 0.8255(3)
C11 C 0.5688(6) 0.4822(5) 0.8316(4)
C12 C 0.6448(7) 0.4995(6) 0.7875(5)
H21 H 0.6271 0.5347 0.7495
C13 C 0.7450(8) 0.4659(7) 0.7989(5)
H22 H 0.7945 0.4783 0.7690
C14 C 0.7715(8) 0.4133(7) 0.8554(5)
H23 H 0.8393 0.3904 0.8637
C15 C 0.6966(7) 0.3946(6) 0.9001(5)
H24 H 0.7148 0.3590 0.9378
C16 C 0.5960(6) 0.4284(5) 0.8889(4)
O7 O 0.4568(4) 0.2707(4) 0.7324(3)
C17 C 0.5294(7) 0.2126(6) 0.7670(5)
H25 H 0.6041 0.2406 0.7759
H26 H 0.5271 0.1609 0.7372
C18 C 0.4970(7) 0.1867(6) 0.8356(5)
H27 H 0.5491 0.1490 0.8595
H28 H 0.4997 0.2385 0.8654
O8 O 0.3897(4) 0.1427(3) 0.8247(3)
C19 C 0.3640(7) 0.1154(6) 0.8912(4)
H29 H 0.3808 0.1641 0.9251
H30 H 0.4087 0.0693 0.9087
C20 C 0.2458(7) 0.0834(5) 0.8828(4)
H32 H 0.2295 0.0625 0.9270
O9 O 0.1826(4) 0.1542(3) 0.8606(3)
C21 C 0.0679(7) 0.1326(6) 0.8613(5)
H33 H 0.0576 0.1191 0.9084
H34 H 0.0399 0.0819 0.8306
C22 C 0.0076(7) 0.2091(6) 0.8367(5)
H35 H -0.0701 0.1965 0.8376
H36 H 0.0357 0.2597 0.8674
O10 O 0.0223(5) 0.2264(4) 0.7676(3)
C23 C -0.0470(7) 0.2899(6) 0.7362(5)
H37 H -0.0386 0.3413 0.7671
H38 H -0.1235 0.2660 0.7281
C24 C -0.0141(7) 0.3131(6) 0.6689(5)
H39 H -0.0198 0.2609 0.6392
H40 H -0.0637 0.3526 0.6449
O11 O 0.0955(5) 0.3534(4) 0.6802(3)
C25 C 0.1295(8) 0.3740(6) 0.6162(4)
H41 H 0.0759 0.4075 0.5885
H42 H 0.1328 0.3205 0.5898
C26 C 0.2394(7) 0.4251(6) 0.6289(5)
H43 H 0.2593 0.4418 0.5846
H44 H 0.2374 0.4779 0.6567
O12 O 0.3197(5) 0.3720(4) 0.6659(3)
C27 C 0.4231(7) 0.3798(5) 0.6502(4)
C28 C 0.4604(8) 0.4408(6) 0.6046(5)
H45 H 0.4151 0.4820 0.5845
C29 C 0.5653(9) 0.4388(7) 0.5900(5)
H46 H 0.5900 0.4793 0.5600
C30 C 0.6316(9) 0.3803(7) 0.6179(5)
H47 H 0.7008 0.3791 0.6061
C31 C 0.5976(8) 0.3207(6) 0.6647(5)
H48 H 0.6439 0.2796 0.6836
C32 C 0.4959(7) 0.3223(5) 0.6832(4)
O13 O -0.0339(5) -0.0060(4) 0.6619(3)
C33 C -0.0498(8) -0.0647(6) 0.7167(5)
H49 H -0.1236 -0.0944 0.7066
H50 H -0.0403 -0.0326 0.7613
C34 C 0.0323(8) -0.1287(6) 0.7201(5)
H51 H 0.0242 -0.1685 0.7573
H52 H 0.0199 -0.1625 0.6761
O14 O 0.1412(5) -0.0852(4) 0.7330(3)
C35 C 0.2187(8) -0.1456(7) 0.7354(6)
H53 H 0.1980 -0.1862 0.6952
H54 H 0.2209 -0.1786 0.7776
C36 C 0.3281(9) -0.1002(7) 0.7348(6)
H55 H 0.3475 -0.0581 0.7740
H56 H 0.3826 -0.1421 0.7401
O15 O 0.3283(6) -0.0570(5) 0.6710(4)
C37 C 0.4321(9) -0.0350(7) 0.6558(6)
H57 H 0.4716 -0.0866 0.6568
H58 H 0.4735 0.0070 0.6910
C38 C 0.4216(9) 0.0029(7) 0.5852(6)
H59 H 0.4932 0.0106 0.5716
H60 H 0.3733 -0.0364 0.5508
O16 O 0.3784(6) 0.0835(5) 0.5871(4)
C39 C 0.3652(9) 0.1234(7) 0.5209(6)
H61 H 0.3272 0.0815 0.4845
H62 H 0.4368 0.1420 0.5101
C40 C 0.3012(8) 0.1995(7) 0.5225(5)
H63 H 0.3421 0.2418 0.5576
H64 H 0.2950 0.2265 0.4773
O17 O 0.1924(5) 0.1807(4) 0.5375(3)
C41 C 0.1194(7) 0.1315(6) 0.4838(4)
H65 H 0.1365 0.0713 0.4843
H66 H 0.1272 0.1543 0.4385
C42 C 0.0051(7) 0.1358(6) 0.4946(4)
H67 H -0.0095 0.1961 0.4999
H68 H -0.0464 0.1090 0.4545
O18 O -0.0076(4) 0.0897(3) 0.5574(3)
C43 C -0.1059(7) 0.0942(5) 0.5807(4)
C44 C -0.1881(7) 0.1444(6) 0.5522(5)
H69 H -0.1808 0.1757 0.5125
C45 C -0.2810(8) 0.1492(7) 0.5813(6)
H70 H -0.3353 0.1840 0.5620
C46 C -0.2918(8) 0.1023(7) 0.6386(6)
H71 H -0.3538 0.1054 0.6588
C47 C -0.2115(8) 0.0499(6) 0.6674(5)
H72 H -0.2208 0.0177 0.7063
C48 C -0.1171(7) 0.0447(6) 0.6388(5)
I1 I -0.20583(5) 0.01711(5) 0.88565(4)
I2 I -0.04837(5) -0.10931(4) 0.92386(3)
I3 I 0.10750(6) -0.23879(4) 0.96794(4)
I4 I -0.64565(5) -0.14939(4) 0.93886(3)
I5 I -0.44384(5) -0.08353(4) 0.91143(3)
I6 I 0.66925(7) -0.20932(5) 0.75891(5)
I7 I 0.77450(7) -0.31252(5) 0.67676(4)
I8 I 0.88832(9) -0.42988(6) 0.58257(4)
I9 I 1.12541(9) -0.35958(5) 0.57980(4)
I10 I 1.35112(10) -0.30503(6) 0.58514(5)
H31? H 0.2279 0.0355 0.8480
loop_
_geom_bond_atom_site_label_1
_geom_bond_atom_site_label_2
_geom_bond_site_symmetry_1
_geom_bond_site_symmetry_2
Cs1 O1 1_555 1_555
Cs2 O7 1_555 1_555
I1 I2 1_555 1_555
I2 I3 1_555 1_555
I4 I5 1_555 1_555
I5 I1 1_555 1_555
I6 I7 1_555 1_555
I7 I8 1_555 1_555
I8 I9 1_555 1_555
I9 I10 1_555 1_555
O1 C1 1_555 1_555
C1 H1 1_555 1_555
H2 C1 1_555 1_555
C2 C1 1_555 1_555
H3 C2 1_555 1_555
H4 C2 1_555 1_555
O2 Cs1 1_555 1_555
C3 O2 1_555 1_555
H5 C3 1_555 1_555
H6 C3 1_555 1_555
C4 C3 1_555 1_555
H7 C4 1_555 1_555
H8 C4 1_555 1_555
O3 Cs1 1_555 1_555
C5 O3 1_555 1_555
H9 C5 1_555 1_555
H10 C5 1_555 1_555
C6 C5 1_555 1_555
H11 C6 1_555 1_555
H12 C6 1_555 1_555
O4 Cs1 1_555 1_555
C7 O4 1_555 1_555
H13 C7 1_555 1_555
H14 C7 1_555 1_555
C8 C7 1_555 1_555
H15 C8 1_555 1_555
H16 C8 1_555 1_555
O5 Cs1 1_555 1_555
C9 O5 1_555 1_555
H17 C9 1_555 1_555
H18 C9 1_555 1_555
C10 C9 1_555 1_555
H19 C10 1_555 1_555
H20 C10 1_555 1_555
O6 Cs1 1_555 1_555
C11 O6 1_555 1_555
C12 C11 1_555 1_555
H21 C12 1_555 1_555
C13 C12 1_555 1_555
H22 C13 1_555 1_555
C14 C13 1_555 1_555
H23 C14 1_555 1_555
C15 C14 1_555 1_555
H24 C15 1_555 1_555
C16 O1 1_555 1_555
O7 Cs1 1_555 1_555
C17 O7 1_555 1_555
H25 C17 1_555 1_555
H26 C17 1_555 1_555
C18 C17 1_555 1_555
H27 C18 1_555 1_555
H28 C18 1_555 1_555
O8 Cs1 1_555 1_555
C19 O8 1_555 1_555
H29 C19 1_555 1_555
H30 C19 1_555 1_555
C20 C19 1_555 1_555
H32 C20 1_555 1_555
O9 Cs1 1_555 1_555
C21 O9 1_555 1_555
H33 C21 1_555 1_555
H34 C21 1_555 1_555
C22 C21 1_555 1_555
H35 C22 1_555 1_555
H36 C22 1_555 1_555
O10 Cs1 1_555 1_555
C23 O10 1_555 1_555
H37 C23 1_555 1_555
H38 C23 1_555 1_555
C24 C23 1_555 1_555
H39 C24 1_555 1_555
H40 C24 1_555 1_555
O11 Cs1 1_555 1_555
C25 O11 1_555 1_555
H41 C25 1_555 1_555
H42 C25 1_555 1_555
C26 C25 1_555 1_555
H43 C26 1_555 1_555
H44 C26 1_555 1_555
O12 Cs1 1_555 1_555
C27 O12 1_555 1_555
C28 C27 1_555 1_555
H45 C28 1_555 1_555
C29 C28 1_555 1_555
H46 C29 1_555 1_555
C30 C29 1_555 1_555
H47 C30 1_555 1_555
C31 C30 1_555 1_555
H48 C31 1_555 1_555
C32 O7 1_555 1_555
O13 Cs2 1_555 1_555
C33 O13 1_555 1_555
H49 C33 1_555 1_555
H50 C33 1_555 1_555
C34 C33 1_555 1_555
H51 C34 1_555 1_555
H52 C34 1_555 1_555
O14 Cs2 1_555 1_555
C35 O14 1_555 1_555
H53 C35 1_555 1_555
H54 C35 1_555 1_555
C36 C35 1_555 1_555
H55 C36 1_555 1_555
H56 C36 1_555 1_555
O15 Cs2 1_555 1_555
C37 O15 1_555 1_555
H57 C37 1_555 1_555
H58 C37 1_555 1_555
C38 C37 1_555 1_555
H59 C38 1_555 1_555
H60 C38 1_555 1_555
O16 Cs2 1_555 1_555
C39 O16 1_555 1_555
H61 C39 1_555 1_555
H62 C39 1_555 1_555
C40 C39 1_555 1_555
H63 C40 1_555 1_555
H64 C40 1_555 1_555
O17 Cs2 1_555 1_555
C41 O17 1_555 1_555
H65 C41 1_555 1_555
H66 C41 1_555 1_555
C42 C41 1_555 1_555
H67 C42 1_555 1_555
H68 C42 1_555 1_555
O18 Cs2 1_555 1_555
C43 O18 1_555 1_555
C44 C43 1_555 1_555
H69 C44 1_555 1_555
C45 C44 1_555 1_555
H70 C45 1_555 1_555
C46 C45 1_555 1_555
H71 C46 1_555 1_555
C47 C46 1_555 1_555
H72 C47 1_555 1_555
C48 O13 1_555 1_555
Cs2 O8 1_555 1_555
Cs2 O9 1_555 1_555
Cs2 O10 1_555 1_555
Cs2 O11 1_555 1_555
Cs2 O12 1_555 1_555
C2 O2 1_555 1_555
C4 O3 1_555 1_555
C6 O4 1_555 1_555
C8 O5 1_555 1_555
C10 O6 1_555 1_555
C11 C16 1_555 1_555
C15 C16 1_555 1_555
C18 O8 1_555 1_555
C20 O9 1_555 1_555
C22 O10 1_555 1_555
C24 O11 1_555 1_555
C26 O12 1_555 1_555
C27 C32 1_555 1_555
C31 C32 1_555 1_555
C34 O14 1_555 1_555
C36 O15 1_555 1_555
C38 O16 1_555 1_555
C40 O17 1_555 1_555
C42 O18 1_555 1_555
C43 C48 1_555 1_555
C47 C48 1_555 1_555

#END
