
#######################################################################
#
#                 Cambridge Crystallographic Data Centre
#                                CCDC 
#
#######################################################################
#
# If this CIF has been generated from an entry in the Cambridge 
# Structural Database, then it will include bibliographic, chemical, 
# crystal, experimental, refinement or atomic coordinate data resulting 
# from the CCDC's data processing and validation procedures.
#
#######################################################################

data_GEQDUD
_chemical_formula_moiety         'C20 H20 F1 N1 O1 S1'
_chemical_name_systematic        
3-(2-(2-Fluorophenyl)-1,2,3,4-tetrahydroisoquinolin-1-yl)-tetrahydro-4H-thiopyran-4-one
_symmetry_cell_setting           monoclinic
_symmetry_space_group_name_H-M   'P 21/n'
_symmetry_Int_Tables_number      14
_space_group_name_Hall           '-P 2yn'
loop_
_symmetry_equiv_pos_site_id
_symmetry_equiv_pos_as_xyz
1 x,y,z
2 1/2-x,1/2+y,1/2-z
3 -x,-y,-z
4 1/2+x,1/2-y,1/2+z
_cell_length_a                   6.7008(2)
_cell_length_b                   14.8959(6)
_cell_length_c                   16.9986(6)
_cell_angle_alpha                90
_cell_angle_beta                 93.806(3)
_cell_angle_gamma                90
_cell_volume                     1692.96
_exptl_crystal_colour            'light yellow'
_exptl_crystal_description       block
_cell_formula_units_Z            4
loop_
_atom_site_label
_atom_site_type_symbol
_atom_site_fract_x
_atom_site_fract_y
_atom_site_fract_z
S1 S 1.01518(10) 0.40541(5) 0.91710(4)
F1 F 0.4398(2) 0.43773(12) 0.60062(10)
O1 O 0.4703(3) 0.52744(14) 0.83560(14)
N1 N 0.5319(3) 0.34144(13) 0.73512(11)
C1 C 0.6411(3) 0.31207(15) 0.80837(13)
H1 H 0.7839 0.3119 0.7991
C2 C 0.5863(3) 0.21841(16) 0.83404(13)
C3 C 0.7162(4) 0.16935(17) 0.88508(15)
H2 H 0.8394 0.1939 0.9019
C4 C 0.6658(4) 0.08514(18) 0.91115(17)
H3 H 0.7528 0.0542 0.9464
C5 C 0.4849(4) 0.04680(19) 0.88470(17)
H4 H 0.4497 -0.0098 0.9021
C6 C 0.3578(4) 0.09356(18) 0.83222(16)
H5 H 0.2376 0.0674 0.8138
C7 C 0.4056(3) 0.17898(17) 0.80624(14)
C8 C 0.2685(4) 0.2261(2) 0.74593(17)
H6 H 0.1319 0.2199 0.7608
H7 H 0.2774 0.1966 0.6954
C9 C 0.3149(3) 0.32479(17) 0.73670(15)
H8 H 0.2478 0.3468 0.6882
H9 H 0.2633 0.3579 0.7801
C10 C 0.6171(3) 0.31794(15) 0.66403(13)
C11 C 0.5715(4) 0.36834(17) 0.59614(15)
C12 C 0.6561(4) 0.35444(19) 0.52625(15)
H10 H 0.6207 0.3903 0.4827
C13 C 0.7943(4) 0.2867(2) 0.52103(15)
H11 H 0.8535 0.2764 0.4739
C14 C 0.8438(4) 0.23454(19) 0.58575(16)
H12 H 0.9362 0.1884 0.5823
C15 C 0.7572(4) 0.25001(17) 0.65676(15)
H13 H 0.7937 0.2142 0.7002
C16 C 0.6075(4) 0.38460(17) 0.87206(14)
H14 H 0.4749 0.3751 0.8916
C17 C 0.6100(4) 0.47637(17) 0.83390(15)
C18 C 0.8036(4) 0.50413(17) 0.80009(15)
H15 H 0.7868 0.5620 0.7743
H16 H 0.8402 0.4605 0.7612
C19 C 0.9697(4) 0.5101(2) 0.86683(17)
H17 H 0.9327 0.5549 0.9047
H18 H 1.0923 0.5299 0.8450
C20 C 0.7625(4) 0.38357(19) 0.94320(15)
H19 H 0.7587 0.3254 0.9687
H20 H 0.7255 0.4284 0.9809
loop_
_geom_bond_atom_site_label_1
_geom_bond_atom_site_label_2
_geom_bond_site_symmetry_1
_geom_bond_site_symmetry_2
S1 C19 1_555 1_555
F1 C11 1_555 1_555
O1 C17 1_555 1_555
N1 C1 1_555 1_555
C1 H1 1_555 1_555
C2 C1 1_555 1_555
C3 C2 1_555 1_555
H2 C3 1_555 1_555
C4 C3 1_555 1_555
H3 C4 1_555 1_555
C5 C4 1_555 1_555
H4 C5 1_555 1_555
C6 C5 1_555 1_555
H5 C6 1_555 1_555
C7 C2 1_555 1_555
C8 C7 1_555 1_555
H6 C8 1_555 1_555
H7 C8 1_555 1_555
C9 N1 1_555 1_555
H8 C9 1_555 1_555
H9 C9 1_555 1_555
C10 N1 1_555 1_555
C11 C10 1_555 1_555
C12 C11 1_555 1_555
H10 C12 1_555 1_555
C13 C12 1_555 1_555
H11 C13 1_555 1_555
C14 C13 1_555 1_555
H12 C14 1_555 1_555
C15 C10 1_555 1_555
H13 C15 1_555 1_555
C16 C1 1_555 1_555
H14 C16 1_555 1_555
C17 C16 1_555 1_555
C18 C17 1_555 1_555
H15 C18 1_555 1_555
H16 C18 1_555 1_555
C19 C18 1_555 1_555
H17 C19 1_555 1_555
H18 C19 1_555 1_555
C20 S1 1_555 1_555
H19 C20 1_555 1_555
H20 C20 1_555 1_555
C6 C7 1_555 1_555
C8 C9 1_555 1_555
C14 C15 1_555 1_555
C16 C20 1_555 1_555

#END
