
#######################################################################
#
#                 Cambridge Crystallographic Data Centre
#                                CCDC 
#
#######################################################################
#
# If this CIF has been generated from an entry in the Cambridge 
# Structural Database, then it will include bibliographic, chemical, 
# crystal, experimental, refinement or atomic coordinate data resulting 
# from the CCDC's data processing and validation procedures.
#
#######################################################################

data_GEQXIJ
_chemical_formula_moiety         'C10 H5 Cl1 N2 O3 S2'
_chemical_name_systematic        
(Z)-Benzoyl(4-chloro-5H-1,2,3-dithiazol-5-ylidene)nitromethane
_symmetry_cell_setting           monoclinic
_symmetry_space_group_name_H-M   'P 21/c'
_symmetry_Int_Tables_number      14
_space_group_name_Hall           '-P 2ybc'
loop_
_symmetry_equiv_pos_site_id
_symmetry_equiv_pos_as_xyz
1 x,y,z
2 -x,1/2+y,1/2-z
3 -x,-y,-z
4 x,1/2-y,1/2+z
_cell_length_a                   8.546(3)
_cell_length_b                   13.099(5)
_cell_length_c                   10.620(4)
_cell_angle_alpha                90
_cell_angle_beta                 101.37(3)
_cell_angle_gamma                90
_cell_volume                     1165.51
_exptl_crystal_colour            orange
_chemical_melting_point          '169-171 deg.C(dec.)'
_cell_formula_units_Z            4
_exptl_crystal_recrystallization_method dichloromethane
loop_
_atom_site_label
_atom_site_type_symbol
_atom_site_fract_x
_atom_site_fract_y
_atom_site_fract_z
S1 S 0.4334(1) 0.5279(1) 0.1731(1)
S2 S 0.3433(1) 0.3905(1) 0.0896(1)
N1 N 0.2143(4) 0.4395(3) -0.0292(3)
C1 C 0.2066(4) 0.5371(3) -0.0334(4)
Cl1 Cl 0.0717(1) 0.5890(1) -0.1584(1)
C2 C 0.3063(4) 0.6013(3) 0.0607(3)
C3 C 0.3024(4) 0.7059(3) 0.0648(4)
N2 N 0.4117(4) 0.7553(2) 0.1607(3)
O1 O 0.5141(3) 0.7037(2) 0.2327(3)
O2 O 0.4024(4) 0.8497(2) 0.1696(3)
O3 O 0.2616(4) 0.8095(3) -0.1198(3)
C4 C 0.2041(4) 0.7797(3) -0.0318(4)
C5 C 0.0463(4) 0.8126(3) -0.0097(3)
C6 C -0.0387(5) 0.8849(3) -0.0927(4)
C7 C -0.1856(6) 0.9164(4) -0.0771(6)
C8 C -0.2508(5) 0.8770(4) 0.0206(6)
C9 C -0.1710(5) 0.8057(4) 0.1031(5)
C10 C -0.0216(5) 0.7738(3) 0.0864(4)
H1 H 0.0157(58) 0.9073(37) -0.1495(46)
H2 H -0.2304(65) 0.9653(44) -0.1260(51)
H3 H -0.3481(67) 0.9013(41) 0.0312(50)
H4 H -0.2164(59) 0.7780(39) 0.1657(48)
H5 H 0.0202(52) 0.7287(35) 0.1319(42)
loop_
_geom_bond_atom_site_label_1
_geom_bond_atom_site_label_2
_geom_bond_site_symmetry_1
_geom_bond_site_symmetry_2
S1 S2 1_555 1_555
S2 N1 1_555 1_555
N1 C1 1_555 1_555
C1 Cl1 1_555 1_555
C2 S1 1_555 1_555
C3 C2 1_555 1_555
N2 C3 1_555 1_555
O1 N2 1_555 1_555
O2 N2 1_555 1_555
O3 C4 1_555 1_555
C4 C3 1_555 1_555
C5 C4 1_555 1_555
C6 C5 1_555 1_555
C7 C6 1_555 1_555
C8 C7 1_555 1_555
C9 C8 1_555 1_555
C10 C5 1_555 1_555
H1 C6 1_555 1_555
H2 C7 1_555 1_555
H3 C8 1_555 1_555
H4 C9 1_555 1_555
H5 C10 1_555 1_555
C1 C2 1_555 1_555
C9 C10 1_555 1_555

#END
