
#######################################################################
#
#                 Cambridge Crystallographic Data Centre
#                                CCDC 
#
#######################################################################
#
# If this CIF has been generated from an entry in the Cambridge 
# Structural Database, then it will include bibliographic, chemical, 
# crystal, experimental, refinement or atomic coordinate data resulting 
# from the CCDC's data processing and validation procedures.
#
#######################################################################

data_GERPUR
_chemical_formula_moiety         'C27 H20 N1 O1 1+,F6 P1 1-'
_chemical_name_systematic        
'2,3,4,5-tetraphenyl-1,3-oxazol-3-ium hexafluorophosphate'
_symmetry_cell_setting           monoclinic
_symmetry_space_group_name_H-M   'P 21/n'
_symmetry_Int_Tables_number      14
_space_group_name_Hall           '-P 2yn'
loop_
_symmetry_equiv_pos_site_id
_symmetry_equiv_pos_as_xyz
1 x,y,z
2 1/2-x,1/2+y,1/2-z
3 -x,-y,-z
4 1/2+x,1/2-y,1/2+z
_cell_length_a                   10.680(5)
_cell_length_b                   19.072(8)
_cell_length_c                   12.243(5)
_cell_angle_alpha                90
_cell_angle_beta                 98.412(9)
_cell_angle_gamma                90
_cell_volume                     2466.94
_exptl_crystal_colour            colorless
_exptl_crystal_description       prism
_cell_formula_units_Z            4
loop_
_atom_site_label
_atom_site_type_symbol
_atom_site_fract_x
_atom_site_fract_y
_atom_site_fract_z
O1 O 0.4171(3) 0.73552(16) 0.5100(2)
N1 N 0.2586(3) 0.7364(2) 0.6020(3)
C1 C 0.3141(4) 0.6998(2) 0.5292(3)
C2 C 0.4242(4) 0.7961(3) 0.5710(3)
C3 C 0.3264(4) 0.7981(2) 0.6276(3)
C4 C 0.2910(4) 0.8508(2) 0.7039(4)
C5 C 0.3183(5) 0.8414(3) 0.8160(4)
H1 H 0.361873 0.801752 0.844841
C6 C 0.2800(6) 0.8916(4) 0.8855(5)
H2 H 0.297898 0.885578 0.961607
C7 C 0.2159(6) 0.9500(4) 0.8435(7)
H3 H 0.190680 0.983364 0.891224
C8 C 0.1888(6) 0.9599(3) 0.7321(6)
H4 H 0.145807 0.999796 0.703680
C9 C 0.2260(5) 0.9098(3) 0.6623(5)
H5 H 0.207118 0.915783 0.586255
C10 C 0.1518(4) 0.7119(2) 0.6558(3)
C11 C 0.0420(4) 0.7507(3) 0.6499(4)
H6 H 0.033947 0.793030 0.611717
C12 C -0.0557(5) 0.7260(4) 0.7013(5)
H7 H -0.129026 0.752471 0.699845
C13 C -0.0455(5) 0.6627(4) 0.7546(5)
H8 H -0.113305 0.645254 0.786032
C14 C 0.0641(5) 0.6252(3) 0.7617(4)
H9 H 0.071593 0.582861 0.799790
C15 C 0.1636(4) 0.6496(3) 0.7129(4)
H10 H 0.238538 0.624141 0.718390
C16 C 0.2842(4) 0.6343(2) 0.4723(3)
C17 C 0.1600(5) 0.6111(3) 0.4474(4)
H11 H 0.094480 0.637827 0.467946
C18 C 0.1341(6) 0.5494(3) 0.3930(5)
H12 H 0.050631 0.534424 0.375981
C19 C 0.2296(7) 0.5092(3) 0.3632(5)
H13 H 0.211191 0.466351 0.328190
C20 C 0.3526(6) 0.5320(3) 0.3851(5)
H14 H 0.417275 0.505287 0.362966
C21 C 0.3805(5) 0.5944(3) 0.4396(4)
H15 H 0.463886 0.609723 0.454577
C22 C 0.5349(5) 0.8404(3) 0.5649(4)
C23 C 0.6399(5) 0.8117(4) 0.5285(5)
H16 H 0.639967 0.764617 0.508987
C24 C 0.7459(6) 0.8531(5) 0.5206(7)
H17 H 0.816722 0.833746 0.496116
C25 C 0.7445(7) 0.9217(5) 0.5491(5)
H18 H 0.814992 0.949389 0.543603
C26 C 0.6438(9) 0.9503(5) 0.5851(6)
H19 H 0.645485 0.997213 0.605899
C27 C 0.5361(7) 0.9100(4) 0.5916(6)
H20 H 0.465133 0.930567 0.614164
P1 P 0.57942(12) 0.64877(8) 0.81648(11)
F1 F 0.6723(10) 0.5872(5) 0.8312(8)
F2 F 0.4761(10) 0.7053(6) 0.7916(9)
F3 F 0.4801(7) 0.6003(6) 0.7372(7)
F4 F 0.6739(9) 0.6939(7) 0.8845(9)
F5 F 0.5171(9) 0.6269(9) 0.9171(8)
F6 F 0.6353(8) 0.6714(6) 0.7120(7)
F7? F 0.7166(12) 0.6366(18) 0.8953(14)
F8? F 0.4552(15) 0.6624(18) 0.7527(18)
F9? F 0.6437(16) 0.6331(9) 0.7197(13)
F10? F 0.546(3) 0.689(2) 0.919(2)
F11? F 0.549(3) 0.5798(12) 0.849(3)
F12? F 0.624(4) 0.7262(9) 0.803(2)
loop_
_geom_bond_atom_site_label_1
_geom_bond_atom_site_label_2
_geom_bond_site_symmetry_1
_geom_bond_site_symmetry_2
O1 C1 1_555 1_555
N1 C1 1_555 1_555
C1 C16 1_555 1_555
C2 O1 1_555 1_555
C3 N1 1_555 1_555
C4 C3 1_555 1_555
C5 C4 1_555 1_555
H1 C5 1_555 1_555
C6 C5 1_555 1_555
H2 C6 1_555 1_555
C7 C6 1_555 1_555
H3 C7 1_555 1_555
C8 C7 1_555 1_555
H4 C8 1_555 1_555
C9 C4 1_555 1_555
H5 C9 1_555 1_555
C10 N1 1_555 1_555
C11 C10 1_555 1_555
H6 C11 1_555 1_555
C12 C11 1_555 1_555
H7 C12 1_555 1_555
C13 C12 1_555 1_555
H8 C13 1_555 1_555
C14 C13 1_555 1_555
H9 C14 1_555 1_555
C15 C10 1_555 1_555
H10 C15 1_555 1_555
C16 C17 1_555 1_555
C17 H11 1_555 1_555
C18 C17 1_555 1_555
H12 C18 1_555 1_555
C19 C18 1_555 1_555
H13 C19 1_555 1_555
C20 C19 1_555 1_555
H14 C20 1_555 1_555
C21 C16 1_555 1_555
H15 C21 1_555 1_555
C22 C2 1_555 1_555
C23 C22 1_555 1_555
H16 C23 1_555 1_555
C24 C23 1_555 1_555
H17 C24 1_555 1_555
C25 C24 1_555 1_555
H18 C25 1_555 1_555
C26 C25 1_555 1_555
H19 C26 1_555 1_555
C27 C22 1_555 1_555
H20 C27 1_555 1_555
P1 F1 1_555 1_555
F2 P1 1_555 1_555
F3 P1 1_555 1_555
F4 P1 1_555 1_555
F5 P1 1_555 1_555
F6 P1 1_555 1_555
C2 C3 1_555 1_555
C8 C9 1_555 1_555
C14 C15 1_555 1_555
C20 C21 1_555 1_555
C26 C27 1_555 1_555

#END
