
#######################################################################
#
#                 Cambridge Crystallographic Data Centre
#                                CCDC 
#
#######################################################################
#
# If this CIF has been generated from an entry in the Cambridge 
# Structural Database, then it will include bibliographic, chemical, 
# crystal, experimental, refinement or atomic coordinate data resulting 
# from the CCDC's data processing and validation procedures.
#
#######################################################################

data_GESYIN
_chemical_formula_moiety         'C19 H18 N2 O4'
_chemical_name_systematic        
'4-Nitro-8,9,10,11-tetrahydrodibenzo[b,e]indolizine-7-carboxylic acid ethyl ester'
_symmetry_cell_setting           triclinic
_symmetry_space_group_name_H-M   'P -1'
_symmetry_Int_Tables_number      2
_space_group_name_Hall           '-P 1'
loop_
_symmetry_equiv_pos_site_id
_symmetry_equiv_pos_as_xyz
1 x,y,z
2 -x,-y,-z
_cell_length_a                   8.3578(2)
_cell_length_b                   9.7068(2)
_cell_length_c                   10.2325(3)
_cell_angle_alpha                92.537(1)
_cell_angle_beta                 98.656(1)
_cell_angle_gamma                107.014(1)
_cell_volume                     781.332
_exptl_crystal_colour            orange
_exptl_crystal_description       prisms
_cell_formula_units_Z            2
loop_
_atom_site_label
_atom_site_type_symbol
_atom_site_fract_x
_atom_site_fract_y
_atom_site_fract_z
C1 C 0.83858(17) 0.57316(14) 0.53987(14)
C2 C 0.80843(17) 0.48621(15) 0.64769(14)
C3 C 0.90015(19) 0.51182(17) 0.78856(15)
C4 C 0.8016(2) 0.40620(17) 0.87560(16)
C5 C 0.7429(2) 0.25327(17) 0.80703(16)
C6 C 0.61217(19) 0.24010(16) 0.68165(14)
C7 C 0.67301(17) 0.36534(15) 0.60250(14)
N1 N 0.61421(14) 0.37567(12) 0.46837(11)
C8 C 0.47598(16) 0.28359(14) 0.37974(13)
C9 C 0.35668(18) 0.16775(15) 0.42209(15)
C10 C 0.22329(18) 0.07596(16) 0.33357(15)
C11 C 0.20195(19) 0.09945(16) 0.20021(15)
C12 C 0.31647(18) 0.21511(15) 0.15904(14)
C13 C 0.45616(17) 0.31301(14) 0.24417(14)
C14 C 0.56837(18) 0.44141(15) 0.20522(15)
C15 C 0.69038(18) 0.53408(16) 0.29603(14)
C16 C 0.71867(17) 0.50326(14) 0.43004(14)
C17 C 0.96939(18) 0.71038(15) 0.53801(15)
O1 O 0.98393(14) 0.78364(11) 0.44462(11)
O2 O 1.07460(13) 0.74963(10) 0.65536(11)
C18 C 1.2028(2) 0.88967(17) 0.67154(17)
C19 C 1.2821(2) 0.9162(2) 0.81510(19)
N2 N 0.28696(17) 0.23265(13) 0.01642(13)
O3 O 0.13932(15) 0.20515(14) -0.04034(12)
O4 O 0.41003(15) 0.26963(12) -0.04092(11)
H1 H 1.016(2) 0.5034(17) 0.7919(15)
H2 H 0.919(2) 0.6098(19) 0.8221(16)
H3 H 0.701(2) 0.4366(17) 0.8927(15)
H4 H 0.872(2) 0.4085(18) 0.9621(17)
H5 H 0.844(2) 0.2277(18) 0.7822(16)
H6 H 0.688(2) 0.1809(19) 0.8660(16)
H7 H 0.5934(18) 0.1454(17) 0.6254(14)
H8 H 0.497(2) 0.2358(16) 0.7067(15)
H9 H 0.3649(19) 0.1519(17) 0.5148(17)
H10 H 0.143(2) -0.0051(18) 0.3658(16)
H11 H 0.111(2) 0.0369(18) 0.1351(16)
H12 H 0.5527(19) 0.4633(17) 0.1093(16)
H13 H 0.7653(19) 0.6199(18) 0.2733(15)
H14 H 1.285(2) 0.8861(18) 0.6103(17)
H15 H 1.145(2) 0.9637(19) 0.6429(16)
H16 H 1.198(2) 0.920(2) 0.8723(19)
H17 H 1.375(3) 1.009(2) 0.8321(19)
H18 H 1.333(2) 0.839(2) 0.8454(18)
loop_
_geom_bond_atom_site_label_1
_geom_bond_atom_site_label_2
_geom_bond_site_symmetry_1
_geom_bond_site_symmetry_2
C1 C2 1_555 1_555
C2 C3 1_555 1_555
C3 C4 1_555 1_555
C4 C5 1_555 1_555
C5 C6 1_555 1_555
C6 C7 1_555 1_555
C7 C2 1_555 1_555
N1 C7 1_555 1_555
C8 N1 1_555 1_555
C9 C8 1_555 1_555
C10 C9 1_555 1_555
C11 C10 1_555 1_555
C12 C11 1_555 1_555
C13 C8 1_555 1_555
C14 C13 1_555 1_555
C15 C14 1_555 1_555
C16 C1 1_555 1_555
C17 C1 1_555 1_555
O1 C17 1_555 1_555
O2 C17 1_555 1_555
C18 O2 1_555 1_555
C19 C18 1_555 1_555
N2 C12 1_555 1_555
O3 N2 1_555 1_555
O4 N2 1_555 1_555
H1 C3 1_555 1_555
H2 C3 1_555 1_555
H3 C4 1_555 1_555
H4 C4 1_555 1_555
H5 C5 1_555 1_555
H6 C5 1_555 1_555
H7 C6 1_555 1_555
H8 C6 1_555 1_555
H9 C9 1_555 1_555
H10 C10 1_555 1_555
H11 C11 1_555 1_555
H12 C14 1_555 1_555
H13 C15 1_555 1_555
H14 C18 1_555 1_555
H15 C18 1_555 1_555
H16 C19 1_555 1_555
H17 C19 1_555 1_555
H18 C19 1_555 1_555
N1 C16 1_555 1_555
C12 C13 1_555 1_555
C15 C16 1_555 1_555

#END
