
#######################################################################
#
#                 Cambridge Crystallographic Data Centre
#                                CCDC 
#
#######################################################################
#
# If this CIF has been generated from an entry in the Cambridge 
# Structural Database, then it will include bibliographic, chemical, 
# crystal, experimental, refinement or atomic coordinate data resulting 
# from the CCDC's data processing and validation procedures.
#
#######################################################################

data_GETTOP
_chemical_formula_moiety         'C18 H16 P1 1+,Cl1 O4 1-'
_chemical_name_systematic        'Triphenylphosphonium perchlorate'
_symmetry_cell_setting           orthorhombic
_symmetry_space_group_name_H-M   'P n m a'
_symmetry_Int_Tables_number      62
_space_group_name_Hall           '-P 2ac 2n'
loop_
_symmetry_equiv_pos_site_id
_symmetry_equiv_pos_as_xyz
1 x,y,z
2 1/2-x,-y,1/2+z
3 -x,1/2+y,-z
4 1/2+x,1/2-y,1/2-z
5 -x,-y,-z
6 1/2+x,y,1/2-z
7 x,1/2-y,z
8 1/2-x,1/2+y,1/2+z
_cell_length_a                   10.6695(18)
_cell_length_b                   13.113(2)
_cell_length_c                   12.488(2)
_cell_angle_alpha                90
_cell_angle_beta                 90
_cell_angle_gamma                90
_cell_volume                     1747.19
_exptl_crystal_colour            colorless
_exptl_crystal_description       Block
_cell_formula_units_Z            4
_exptl_crystal_recrystallization_method hexane
loop_
_atom_site_label
_atom_site_type_symbol
_atom_site_fract_x
_atom_site_fract_y
_atom_site_fract_z
P1 P 0.39902(10) 0.2500 0.22899(9)
C1 C 0.3096(3) 0.1361(2) 0.2401(2)
C2 C 0.3221(4) 0.0748(3) 0.3293(3)
H1 H 0.3756 0.0938 0.3846
C3 C 0.1766(4) -0.0423(3) 0.2564(4)
H2 H 0.1317 -0.1029 0.2611
C4 C 0.1637(3) 0.0182(3) 0.1697(3)
H3 H 0.1090 -0.0012 0.1154
C5 C 0.2292(3) 0.1073(2) 0.1598(3)
H4 H 0.2193 0.1480 0.0994
C6 C 0.2548(4) -0.0147(3) 0.3361(4)
H5 H 0.2633 -0.0562 0.3960
C7 C 0.4860(4) 0.2500 0.1069(4)
C8 C 0.5212(5) 0.3391(3) 0.0599(4)
H6 H 0.4984 0.4012 0.0902
C9 C 0.5913(5) 0.3365(4) -0.0336(5)
H7 H 0.6140 0.3979 -0.0654
C10 C 0.6276(6) 0.2500 -0.0800(5)
H8 H 0.6760 0.2500 -0.1419
H9 H 0.472(4) 0.2500 0.307(4)
C1F C 0.3096(3) 0.3639(2) 0.2401(2)
C2F C 0.3221(4) 0.4252(3) 0.3293(3)
H1F H 0.3756 0.4062 0.3846
C3F C 0.1766(4) 0.5423(3) 0.2564(4)
H2F H 0.1317 0.6029 0.2611
C4F C 0.1637(3) 0.4818(3) 0.1697(3)
H3F H 0.1090 0.5012 0.1154
C5F C 0.2292(3) 0.3927(2) 0.1598(3)
H4F H 0.2193 0.3520 0.0994
C6F C 0.2548(4) 0.5147(3) 0.3361(4)
H5F H 0.2633 0.5562 0.3960
C8F C 0.5212(5) 0.1609(3) 0.0599(4)
H6F H 0.4984 0.0988 0.0902
C9F C 0.5913(5) 0.1635(4) -0.0336(5)
H7F H 0.6140 0.1021 -0.0654
O1 O 0.4987(5) 0.7500 0.3202(3)
O2 O 0.4920(3) 0.6608(3) 0.4775(3)
O3 O 0.3194(4) 0.7500 0.4259(3)
Cl1 Cl 0.45473(12) 0.7500 0.42426(9)
O2F O 0.4920(3) 0.8392(3) 0.4775(3)
loop_
_geom_bond_atom_site_label_1
_geom_bond_atom_site_label_2
_geom_bond_site_symmetry_1
_geom_bond_site_symmetry_2
P1 C1 1_555 1_555
O1 Cl1 1_555 1_555
O2 Cl1 1_555 1_555
O3 Cl1 1_555 1_555
Cl1 O2F 1_555 1_555
C1 C2 1_555 1_555
C2 H1 1_555 1_555
C3 H2 1_555 1_555
C4 C3 1_555 1_555
H3 C4 1_555 1_555
C5 C1 1_555 1_555
H4 C5 1_555 1_555
C6 C2 1_555 1_555
H5 C6 1_555 1_555
C7 P1 1_555 1_555
C8 C7 1_555 1_555
H6 C8 1_555 1_555
C9 C8 1_555 1_555
H7 C9 1_555 1_555
C10 C9 1_555 1_555
H8 C10 1_555 1_555
H9 P1 1_555 1_555
C1F P1 1_555 1_555
C2F C1F 1_555 1_555
H1F C2F 1_555 1_555
C3F H2F 1_555 1_555
C4F C3F 1_555 1_555
H3F C4F 1_555 1_555
C5F C1F 1_555 1_555
H4F C5F 1_555 1_555
C6F C2F 1_555 1_555
H5F C6F 1_555 1_555
C8F C7 1_555 1_555
H6F C8F 1_555 1_555
C9F C10 1_555 1_555
H7F C9F 1_555 1_555
C3 C6 1_555 1_555
C4 C5 1_555 1_555
C3F C6F 1_555 1_555
C4F C5F 1_555 1_555
C8F C9F 1_555 1_555

#END
