
#######################################################################
#
#                 Cambridge Crystallographic Data Centre
#                                CCDC 
#
#######################################################################
#
# If this CIF has been generated from an entry in the Cambridge 
# Structural Database, then it will include bibliographic, chemical, 
# crystal, experimental, refinement or atomic coordinate data resulting 
# from the CCDC's data processing and validation procedures.
#
#######################################################################

data_GEVBAL
_chemical_formula_moiety         'C16 H18 N2 O4 S1'
_chemical_name_systematic        
N-(2-(4-(aminosulfonyl)phenyl)ethyl)-2-(4-hydroxyphenyl)acetamide
_symmetry_cell_setting           monoclinic
_symmetry_space_group_name_H-M   'P 21/n'
_symmetry_Int_Tables_number      14
_space_group_name_Hall           '-P 2yn'
loop_
_symmetry_equiv_pos_site_id
_symmetry_equiv_pos_as_xyz
1 x,y,z
2 1/2-x,1/2+y,1/2-z
3 -x,-y,-z
4 1/2+x,1/2-y,1/2+z
_cell_length_a                   15.715(3)
_cell_length_b                   10.250(2)
_cell_length_c                   9.819(3)
_cell_angle_alpha                90
_cell_angle_beta                 91.862(18)
_cell_angle_gamma                90
_cell_volume                     1580.8
_exptl_crystal_colour            colorless
_exptl_crystal_description       prism
_chemical_melting_point          '476-478 K'
_cell_formula_units_Z            4
_exptl_crystal_recrystallization_method methanol
loop_
_atom_site_label
_atom_site_type_symbol
_atom_site_fract_x
_atom_site_fract_y
_atom_site_fract_z
S1 S 0.15036(3) 0.16214(6) 0.45805(5)
O1 O 0.12798(10) -0.44728(16) 0.39567(16)
O2 O -0.22426(9) -0.18689(15) -0.09475(14)
O3 O 0.13205(11) 0.21505(19) 0.58883(14)
O4 O 0.20507(11) 0.05214(17) 0.4487(2)
N1 N -0.17633(10) -0.17636(17) 0.12408(16)
N2 N 0.19320(11) 0.27858(19) 0.37363(17)
C1 C -0.05157(12) -0.3702(2) 0.08473(19)
C2 C 0.02723(14) -0.3102(2) 0.0851(2)
C3 C 0.08824(13) -0.3331(2) 0.1876(2)
C4 C 0.07026(12) -0.4176(2) 0.2912(2)
C5 C -0.00737(13) -0.4800(2) 0.2933(2)
C6 C -0.06737(13) -0.4556(2) 0.1892(2)
C7 C -0.11813(14) -0.3411(2) -0.0252(2)
C8 C -0.17668(12) -0.2283(2) 0.00006(19)
C9 C -0.22572(13) -0.0639(2) 0.1634(2)
C10 C -0.18061(15) 0.0649(2) 0.1401(2)
C11 C -0.09913(14) 0.0831(2) 0.2251(2)
C12 C -0.09757(14) 0.1574(2) 0.3431(2)
C13 C -0.02252(14) 0.1782(2) 0.4179(2)
C14 C 0.05229(13) 0.1235(2) 0.3745(2)
C15 C 0.05157(14) 0.0448(2) 0.2602(2)
C16 C -0.02385(15) 0.0254(2) 0.1868(2)
H1 H -0.14430 -0.21220 0.18570
H2 H 0.03950 -0.25120 0.01350
H3 H 0.19840 0.25350 0.29010
H4 H 0.15930 0.34540 0.37370
H5 H 0.14210 -0.29150 0.18490
H6 H 0.17480 -0.40590 0.38360
H7 H -0.02000 -0.53810 0.36570
H8 H -0.12050 -0.49960 0.18980
H9 H -0.08930 -0.32440 -0.10770
H10 H -0.15230 -0.41760 -0.03770
H11 H -0.27800 -0.06330 0.11150
H12 H -0.23760 -0.07100 0.25760
H13 H -0.16730 0.07070 0.04720
H14 H -0.21830 0.13400 0.16270
H15 H -0.14930 0.19450 0.37360
H16 H -0.02250 0.22950 0.49890
H17 H 0.10260 0.00390 0.23240
H18 H -0.02470 -0.02860 0.10740
loop_
_geom_bond_atom_site_label_1
_geom_bond_atom_site_label_2
_geom_bond_site_symmetry_1
_geom_bond_site_symmetry_2
S1 O3 1_555 1_555
O1 C4 1_555 1_555
O2 C8 1_555 1_555
O4 S1 1_555 1_555
N1 C8 1_555 1_555
N2 S1 1_555 1_555
C1 C2 1_555 1_555
C2 C3 1_555 1_555
C3 C4 1_555 1_555
C4 C5 1_555 1_555
C5 C6 1_555 1_555
C6 C1 1_555 1_555
C7 C1 1_555 1_555
C8 C7 1_555 1_555
C9 N1 1_555 1_555
C10 C9 1_555 1_555
C11 C10 1_555 1_555
C12 C11 1_555 1_555
C13 C12 1_555 1_555
C14 S1 1_555 1_555
C15 C14 1_555 1_555
C16 C11 1_555 1_555
H1 N1 1_555 1_555
H2 C2 1_555 1_555
H3 N2 1_555 1_555
H4 N2 1_555 1_555
H5 C3 1_555 1_555
H6 O1 1_555 1_555
H7 C5 1_555 1_555
H8 C6 1_555 1_555
H9 C7 1_555 1_555
H10 C7 1_555 1_555
H11 C9 1_555 1_555
H12 C9 1_555 1_555
H13 C10 1_555 1_555
H14 C10 1_555 1_555
H15 C12 1_555 1_555
H16 C13 1_555 1_555
H17 C15 1_555 1_555
H18 C16 1_555 1_555
C13 C14 1_555 1_555
C15 C16 1_555 1_555

#END
