
#######################################################################
#
#                 Cambridge Crystallographic Data Centre
#                                CCDC 
#
#######################################################################
#
# If this CIF has been generated from an entry in the Cambridge 
# Structural Database, then it will include bibliographic, chemical, 
# crystal, experimental, refinement or atomic coordinate data resulting 
# from the CCDC's data processing and validation procedures.
#
#######################################################################

data_GEVFOF
_chemical_formula_moiety         'C22 H16 N2 O1'
_chemical_name_systematic        1,2,6-triphenylpyrimidin-4(1H)-one
_symmetry_cell_setting           monoclinic
_symmetry_space_group_name_H-M   'P 21/c'
_symmetry_Int_Tables_number      14
_space_group_name_Hall           '-P 2ybc'
loop_
_symmetry_equiv_pos_site_id
_symmetry_equiv_pos_as_xyz
1 x,y,z
2 -x,1/2+y,1/2-z
3 -x,-y,-z
4 x,1/2-y,1/2+z
_cell_length_a                   23.5316(6)
_cell_length_b                   6.70060(10)
_cell_length_c                   24.2907(6)
_cell_angle_alpha                90
_cell_angle_beta                 115.166(3)
_cell_angle_gamma                90
_cell_volume                     3466.51
_exptl_crystal_colour            colorless
_exptl_crystal_description       block
_cell_formula_units_Z            8
loop_
_atom_site_label
_atom_site_type_symbol
_atom_site_fract_x
_atom_site_fract_y
_atom_site_fract_z
O1 O 0.77549(6) 0.75122(18) 0.61053(5)
N1 N 0.67357(6) 0.75898(18) 0.43015(6)
N2 N 0.77110(6) 0.72630(19) 0.51546(6)
C1 C 0.63717(7) 0.7601(2) 0.36448(7)
C2 C 0.74288(7) 0.7508(2) 0.55500(7)
C3 C 0.64245(7) 0.7759(2) 0.46744(7)
C4 C 0.73751(7) 0.7343(2) 0.45702(7)
C5 C 0.67624(8) 0.7745(2) 0.52808(7)
H1 H 0.6557 0.7894 0.5532
C6 C 0.57266(7) 0.7919(3) 0.43932(7)
C7 C 0.61198(8) 0.9371(3) 0.33571(7)
H2 H 0.6205 1.0562 0.3574
C8 C 0.77201(7) 0.7210(3) 0.41788(7)
C9 C 0.62604(8) 0.5827(3) 0.33300(7)
H3 H 0.6437 0.4644 0.3530
C10 C 0.57367(8) 0.9348(3) 0.27373(8)
H4 H 0.5559 1.0528 0.2537
C11 C 0.56203(9) 0.7586(3) 0.24199(8)
H5 H 0.5362 0.7577 0.2005
C12 C 0.58823(9) 0.5836(3) 0.27116(8)
H6 H 0.5805 0.4651 0.2492
C13 C 0.77952(9) 0.8872(4) 0.38824(10)
H7 H 0.7602 1.0068 0.3898
C14 C 0.54443(9) 0.9711(3) 0.43872(10)
H8 H 0.5688 1.0845 0.4543
C15 C 0.80168(9) 0.5451(3) 0.41608(10)
H9 H 0.7975 0.4332 0.4367
C16 C 0.84438(10) 0.7011(4) 0.35353(10)
H10 H 0.8683 0.6943 0.3314
C17 C 0.44350(9) 0.8188(4) 0.39259(10)
H11 H 0.4000 0.8273 0.3775
C18 C 0.81587(10) 0.8758(4) 0.35627(11)
H12 H 0.8210 0.9882 0.3364
C19 C 0.53595(9) 0.6260(4) 0.41604(11)
H13 H 0.5546 0.5035 0.4161
C20 C 0.47945(10) 0.9836(4) 0.41485(11)
H14 H 0.4604 1.1058 0.4141
C21 C 0.83763(10) 0.5354(4) 0.38343(11)
H15 H 0.8572 0.4165 0.3818
C22 C 0.47133(10) 0.6410(5) 0.39252(13)
H16 H 0.4467 0.5284 0.3765
O2 O 0.66315(6) 0.27057(18) 0.44620(5)
N3 N 0.80395(6) 0.24296(18) 0.61301(6)
N4 N 0.76726(6) 0.22808(19) 0.50641(6)
C23 C 0.74313(7) 0.2637(2) 0.60751(7)
C24 C 0.81262(7) 0.2266(2) 0.56090(7)
C25 C 0.85646(7) 0.2420(2) 0.67286(7)
C26 C 0.73179(7) 0.2675(2) 0.66334(7)
C27 C 0.70576(7) 0.2584(2) 0.49816(7)
C28 C 0.69545(7) 0.2738(2) 0.55192(7)
H17 H 0.6548 0.2913 0.5482
C29 C 0.87787(8) 0.2102(3) 0.56613(7)
C30 C 0.73587(8) 0.0927(3) 0.69529(8)
H18 H 0.7495 -0.0246 0.6843
C31 C 0.71206(8) 0.4423(3) 0.68001(8)
H19 H 0.7095 0.5597 0.6586
C32 C 0.88665(8) 0.0649(3) 0.69672(8)
H20 H 0.8740 -0.0532 0.6748
C33 C 0.87387(8) 0.4183(3) 0.70492(8)
H21 H 0.8528 0.5364 0.6883
C34 C 0.69614(9) 0.4413(3) 0.72898(9)
H22 H 0.6830 0.5584 0.7406
C35 C 0.71939(9) 0.0939(3) 0.74389(8)
H23 H 0.7217 -0.0232 0.7653
C36 C 0.69978(9) 0.2673(3) 0.76020(9)
H24 H 0.6888 0.2672 0.7927
C37 C 0.93632(9) 0.0665(3) 0.75420(9)
H25 H 0.9575 -0.0514 0.7709
C38 C 0.92326(9) 0.4164(3) 0.76230(9)
H26 H 0.9355 0.5341 0.7846
C39 C 0.89843(9) 0.0308(4) 0.55320(10)
H27 H 0.8728 -0.0814 0.5442
C40 C 0.95427(10) 0.2412(3) 0.78654(9)
H28 H 0.9876 0.2411 0.8250
C41 C 0.91559(11) 0.3754(4) 0.57870(12)
H29 H 0.9019 0.4968 0.5872
C42 C 0.99461(11) 0.1832(5) 0.56591(11)
H30 H 1.0339 0.1748 0.5656
C43 C 0.95731(11) 0.0182(5) 0.55367(12)
H31 H 0.9715 -0.1030 0.5456
C44 C 0.97436(12) 0.3601(5) 0.57858(14)
H32 H 1.0002 0.4719 0.5872
loop_
_geom_bond_atom_site_label_1
_geom_bond_atom_site_label_2
_geom_bond_site_symmetry_1
_geom_bond_site_symmetry_2
O1 C2 1_555 1_555
N1 C1 1_555 1_555
N2 C2 1_555 1_555
C1 C7 1_555 1_555
C2 C5 1_555 1_555
C3 N1 1_555 1_555
C4 N1 1_555 1_555
C5 C3 1_555 1_555
H1 C5 1_555 1_555
C6 C3 1_555 1_555
C7 H2 1_555 1_555
C8 C4 1_555 1_555
C9 C1 1_555 1_555
H3 C9 1_555 1_555
C10 C7 1_555 1_555
H4 C10 1_555 1_555
C11 C10 1_555 1_555
H5 C11 1_555 1_555
C12 C9 1_555 1_555
H6 C12 1_555 1_555
C13 C8 1_555 1_555
H7 C13 1_555 1_555
C14 C6 1_555 1_555
H8 C14 1_555 1_555
C15 C8 1_555 1_555
H9 C15 1_555 1_555
C16 H10 1_555 1_555
C17 H11 1_555 1_555
C18 C13 1_555 1_555
H12 C18 1_555 1_555
C19 C6 1_555 1_555
H13 C19 1_555 1_555
C20 C14 1_555 1_555
H14 C20 1_555 1_555
C21 C15 1_555 1_555
H15 C21 1_555 1_555
C22 C17 1_555 1_555
H16 C22 1_555 1_555
O2 C27 1_555 1_555
N3 C23 1_555 1_555
N4 C24 1_555 1_555
C23 C26 1_555 1_555
C24 N3 1_555 1_555
C25 N3 1_555 1_555
C26 C30 1_555 1_555
C27 N4 1_555 1_555
C28 C23 1_555 1_555
H17 C28 1_555 1_555
C29 C24 1_555 1_555
C30 H18 1_555 1_555
C31 C26 1_555 1_555
H19 C31 1_555 1_555
C32 C25 1_555 1_555
H20 C32 1_555 1_555
C33 C25 1_555 1_555
H21 C33 1_555 1_555
C34 C31 1_555 1_555
H22 C34 1_555 1_555
C35 C30 1_555 1_555
H23 C35 1_555 1_555
C36 C34 1_555 1_555
H24 C36 1_555 1_555
C37 C32 1_555 1_555
H25 C37 1_555 1_555
C38 C33 1_555 1_555
H26 C38 1_555 1_555
C39 C29 1_555 1_555
H27 C39 1_555 1_555
C40 C37 1_555 1_555
H28 C40 1_555 1_555
C41 C29 1_555 1_555
H29 C41 1_555 1_555
C42 H30 1_555 1_555
C43 C39 1_555 1_555
H31 C43 1_555 1_555
C44 C41 1_555 1_555
H32 C44 1_555 1_555
N2 C4 1_555 1_555
C11 C12 1_555 1_555
C16 C18 1_555 1_555
C16 C21 1_555 1_555
C17 C20 1_555 1_555
C19 C22 1_555 1_555
C27 C28 1_555 1_555
C35 C36 1_555 1_555
C38 C40 1_555 1_555
C42 C43 1_555 1_555
C42 C44 1_555 1_555

#END
