
#######################################################################
#
#                 Cambridge Crystallographic Data Centre
#                                CCDC 
#
#######################################################################
#
# If this CIF has been generated from an entry in the Cambridge 
# Structural Database, then it will include bibliographic, chemical, 
# crystal, experimental, refinement or atomic coordinate data resulting 
# from the CCDC's data processing and validation procedures.
#
#######################################################################

data_GEVKEY
_chemical_formula_moiety         'C15 H14 O5 S1'
_chemical_name_systematic        '2-Ethoxy-4-formylphenyl benzenesulfonate'
_symmetry_cell_setting           orthorhombic
_symmetry_space_group_name_H-M   'P b c a'
_symmetry_Int_Tables_number      61
_space_group_name_Hall           '-P 2ac 2ab'
loop_
_symmetry_equiv_pos_site_id
_symmetry_equiv_pos_as_xyz
1 x,y,z
2 1/2-x,-y,1/2+z
3 -x,1/2+y,1/2-z
4 1/2+x,1/2-y,-z
5 -x,-y,-z
6 1/2+x,y,1/2-z
7 x,1/2-y,1/2+z
8 1/2-x,1/2+y,z
_cell_length_a                   7.5538(15)
_cell_length_b                   13.511(3)
_cell_length_c                   28.994(6)
_cell_angle_alpha                90
_cell_angle_beta                 90
_cell_angle_gamma                90
_cell_volume                     2959.11
_exptl_crystal_colour            colorless
_exptl_crystal_description       block
_cell_formula_units_Z            8
_exptl_crystal_recrystallization_method acetonitrile
loop_
_atom_site_label
_atom_site_type_symbol
_atom_site_fract_x
_atom_site_fract_y
_atom_site_fract_z
S1 S 0.98655(11) 0.54549(5) 0.35464(3)
O1 O 1.0494(3) 0.59909(14) 0.31596(8)
O2 O 0.9381(3) 0.59584(14) 0.39575(7)
O3 O 1.1475(2) 0.47214(13) 0.36623(6)
O4 O 1.0799(2) 0.28082(11) 0.35510(6)
O5 O 1.1511(4) 0.13302(18) 0.51921(8)
C1 C 0.8150(3) 0.46669(18) 0.33826(9)
C2 C 0.7939(4) 0.4446(2) 0.29202(10)
H1 H 0.8687 0.4732 0.2703
C3 C 0.6639(5) 0.3811(2) 0.27810(12)
H2 H 0.6492 0.3665 0.2470
C4 C 0.5559(5) 0.3393(2) 0.31031(15)
H3 H 0.4684 0.2953 0.3009
C5 C 0.5733(4) 0.3606(2) 0.35621(14)
H4 H 0.4976 0.3316 0.3776
C6 C 0.7050(4) 0.4261(2) 0.37092(10)
H5 H 0.7179 0.4417 0.4020
C7 C 1.1407(4) 0.41166(19) 0.40593(10)
C8 C 1.1759(4) 0.4503(2) 0.44858(11)
H6 H 1.1963 0.5178 0.4520
C9 C 1.1810(4) 0.3887(2) 0.48639(11)
H7 H 1.2037 0.4147 0.5155
C10 C 1.1524(4) 0.2887(2) 0.48109(9)
C11 C 1.1170(4) 0.2497(2) 0.43751(9)
H8 H 1.0980 0.1820 0.4342
C12 C 1.1099(3) 0.31037(18) 0.39925(9)
C13 C 1.0272(4) 0.17956(19) 0.34847(9)
H9 H 0.9165 0.1667 0.3643
H10 H 1.1167 0.1352 0.3607
C14 C 1.0055(4) 0.1636(2) 0.29762(9)
H11 H 0.9113 0.2047 0.2863
H12 H 0.9777 0.0954 0.2918
H13 H 1.1136 0.1806 0.2821
C15 C 1.1639(5) 0.2217(3) 0.52091(11)
H14 H 1.1824 0.2501 0.5497
loop_
_geom_bond_atom_site_label_1
_geom_bond_atom_site_label_2
_geom_bond_site_symmetry_1
_geom_bond_site_symmetry_2
S1 O1 1_555 1_555
O2 S1 1_555 1_555
O3 S1 1_555 1_555
O4 C12 1_555 1_555
O5 C15 1_555 1_555
C1 S1 1_555 1_555
C2 C1 1_555 1_555
H1 C2 1_555 1_555
C3 C2 1_555 1_555
H2 C3 1_555 1_555
C4 C3 1_555 1_555
H3 C4 1_555 1_555
C5 C4 1_555 1_555
H4 C5 1_555 1_555
C6 C1 1_555 1_555
H5 C6 1_555 1_555
C7 O3 1_555 1_555
C8 C7 1_555 1_555
H6 C8 1_555 1_555
C9 C8 1_555 1_555
H7 C9 1_555 1_555
C10 C9 1_555 1_555
C11 C10 1_555 1_555
H8 C11 1_555 1_555
C12 C7 1_555 1_555
C13 O4 1_555 1_555
H9 C13 1_555 1_555
H10 C13 1_555 1_555
C14 C13 1_555 1_555
H11 C14 1_555 1_555
H12 C14 1_555 1_555
H13 C14 1_555 1_555
C15 C10 1_555 1_555
H14 C15 1_555 1_555
C5 C6 1_555 1_555
C11 C12 1_555 1_555

#END
