
#######################################################################
#
#                 Cambridge Crystallographic Data Centre
#                                CCDC 
#
#######################################################################
#
# If this CIF has been generated from an entry in the Cambridge 
# Structural Database, then it will include bibliographic, chemical, 
# crystal, experimental, refinement or atomic coordinate data resulting 
# from the CCDC's data processing and validation procedures.
#
#######################################################################

data_GEWLUS
_chemical_formula_moiety         'C14 H29 O3 S1 1-,C11 H10 N1 1+,H2 O1'
_chemical_name_systematic        
'1-phenylpyridin-1-ium tetradecane-1-sulfonate monohydrate'
_symmetry_cell_setting           orthorhombic
_symmetry_space_group_name_H-M   'P b c n'
_symmetry_Int_Tables_number      60
_space_group_name_Hall           '-P 2n 2ab'
loop_
_symmetry_equiv_pos_site_id
_symmetry_equiv_pos_as_xyz
1 x,y,z
2 1/2-x,1/2-y,1/2+z
3 -x,y,1/2-z
4 1/2+x,1/2-y,-z
5 -x,-y,-z
6 1/2+x,1/2+y,1/2-z
7 x,-y,1/2+z
8 1/2-x,1/2+y,z
_cell_length_a                   57.9542(14)
_cell_length_b                   8.3909(2)
_cell_length_c                   10.5626(3)
_cell_angle_alpha                90
_cell_angle_beta                 90
_cell_angle_gamma                90
_cell_volume                     5136.46
_exptl_crystal_colour            colorless
_exptl_crystal_description       plate
_cell_formula_units_Z            8
loop_
_atom_site_label
_atom_site_type_symbol
_atom_site_fract_x
_atom_site_fract_y
_atom_site_fract_z
S1 S 0.18301(2) 0.31742(3) 0.01800(2)
O1 O 0.19153(2) 0.48044(10) 0.01843(8)
O2 O 0.18690(2) 0.23728(10) 0.13798(7)
O3 O 0.19138(2) 0.22655(10) -0.09010(7)
C1 C 0.15255(2) 0.33139(15) 0.00094(11)
H1 H 0.1489 0.3940 -0.0760
H2 H 0.1461 0.2232 -0.0103
C2 C 0.14128(2) 0.40987(15) 0.11499(11)
H3 H 0.1486 0.5151 0.1291
H4 H 0.1443 0.3437 0.1908
C3 C 0.11532(2) 0.43275(16) 0.10097(11)
H5 H 0.1123 0.5095 0.0317
H6 H 0.1082 0.3298 0.0773
C4 C 0.10420(2) 0.49380(16) 0.22231(11)
H7 H 0.1125 0.5909 0.2499
H8 H 0.1062 0.4123 0.2892
C5 C 0.07863(2) 0.53282(16) 0.21037(11)
H9 H 0.0766 0.6183 0.1467
H10 H 0.0704 0.4373 0.1792
C6 C 0.06780(2) 0.58615(16) 0.33453(12)
H11 H 0.0763 0.6802 0.3664
H12 H 0.0696 0.4997 0.3976
C7 C 0.04225(2) 0.62888(16) 0.32359(12)
H13 H 0.0405 0.7167 0.2618
H14 H 0.0338 0.5355 0.2902
C8 C 0.03133(2) 0.67930(16) 0.44838(12)
H15 H 0.0399 0.7720 0.4825
H16 H 0.0328 0.5910 0.5100
C9 C 0.00588(2) 0.72358(16) 0.43537(12)
H17 H 0.0045 0.8120 0.3738
H18 H -0.0026 0.6310 0.4005
C10 C -0.00546(2) 0.77362(16) 0.55914(12)
H19 H 0.0029 0.8666 0.5941
H20 H -0.0041 0.6853 0.6209
C11 C -0.03087(2) 0.81710(16) 0.54361(12)
H21 H -0.0322 0.9044 0.4809
H22 H -0.0392 0.7237 0.5093
C12 C -0.04247(2) 0.86918(16) 0.66604(12)
H23 H -0.0412 0.7821 0.7288
H24 H -0.0342 0.9629 0.7002
C13 C -0.06780(2) 0.91182(18) 0.64979(13)
H25 H -0.0691 0.9980 0.5862
H26 H -0.0762 0.8177 0.6168
C14 C -0.07916(2) 0.9657(2) 0.77204(15)
H27 H -0.0785 0.8792 0.8343
H28 H -0.0953 0.9937 0.7555
H29 H -0.0710 1.0591 0.8053
O4 O 0.21790(2) 0.58998(13) 0.22467(10)
H30 H 0.2086(3) 0.551(2) 0.1679(17)
H31 H 0.2091(3) 0.634(2) 0.2774(17)
N1 N 0.20197(2) 0.85328(11) -0.00184(8)
C15 C 0.21166(2) 0.76557(13) -0.09477(10)
H32 H 0.2022 0.7029 -0.1490
C16 C 0.23525(2) 0.76710(16) -0.11087(12)
H33 H 0.2421 0.7075 -0.1774
C17 C 0.24887(2) 0.85565(18) -0.02991(13)
H34 H 0.2652 0.8563 -0.0398
C18 C 0.23869(2) 0.94310(15) 0.06538(13)
H35 H 0.2479 1.0037 0.1222
C19 C 0.21511(2) 0.94158(14) 0.07728(12)
H36 H 0.2080 1.0032 0.1417
C20 C 0.17704(2) 0.85447(13) 0.01367(10)
C21 C 0.16318(2) 0.85819(14) -0.09268(11)
H37 H 0.1698 0.8587 -0.1750
C22 C 0.13936(2) 0.86112(15) -0.07687(12)
H38 H 0.1296 0.8626 -0.1491
C23 C 0.12980(2) 0.86189(15) 0.04305(13)
H39 H 0.1135 0.8649 0.0533
C24 C 0.14402(2) 0.85821(15) 0.14789(12)
H40 H 0.1374 0.8591 0.2303
C25 C 0.16782(2) 0.85329(14) 0.13424(11)
H41 H 0.1776 0.8492 0.2064
loop_
_geom_bond_atom_site_label_1
_geom_bond_atom_site_label_2
_geom_bond_site_symmetry_1
_geom_bond_site_symmetry_2
S1 O1 1_555 1_555
O2 S1 1_555 1_555
O3 S1 1_555 1_555
C1 S1 1_555 1_555
H1 C1 1_555 1_555
H2 C1 1_555 1_555
C2 C1 1_555 1_555
H3 C2 1_555 1_555
H4 C2 1_555 1_555
C3 C2 1_555 1_555
H5 C3 1_555 1_555
H6 C3 1_555 1_555
C4 C3 1_555 1_555
H7 C4 1_555 1_555
H8 C4 1_555 1_555
C5 C4 1_555 1_555
H9 C5 1_555 1_555
H10 C5 1_555 1_555
C6 C5 1_555 1_555
H11 C6 1_555 1_555
H12 C6 1_555 1_555
C7 C6 1_555 1_555
H13 C7 1_555 1_555
H14 C7 1_555 1_555
C8 C7 1_555 1_555
H15 C8 1_555 1_555
H16 C8 1_555 1_555
C9 C8 1_555 1_555
H17 C9 1_555 1_555
H18 C9 1_555 1_555
C10 C9 1_555 1_555
H19 C10 1_555 1_555
H20 C10 1_555 1_555
C11 C10 1_555 1_555
H21 C11 1_555 1_555
H22 C11 1_555 1_555
C12 C11 1_555 1_555
H23 C12 1_555 1_555
H24 C12 1_555 1_555
C13 C12 1_555 1_555
H25 C13 1_555 1_555
H26 C13 1_555 1_555
C14 C13 1_555 1_555
H27 C14 1_555 1_555
H28 C14 1_555 1_555
H29 C14 1_555 1_555
O4 H30 1_555 1_555
H31 O4 1_555 1_555
N1 C15 1_555 1_555
C15 H32 1_555 1_555
C16 C15 1_555 1_555
H33 C16 1_555 1_555
C17 C16 1_555 1_555
H34 C17 1_555 1_555
C18 C17 1_555 1_555
H35 C18 1_555 1_555
C19 N1 1_555 1_555
H36 C19 1_555 1_555
C20 N1 1_555 1_555
C21 C20 1_555 1_555
H37 C21 1_555 1_555
C22 C21 1_555 1_555
H38 C22 1_555 1_555
C23 C22 1_555 1_555
H39 C23 1_555 1_555
C24 C23 1_555 1_555
H40 C24 1_555 1_555
C25 C20 1_555 1_555
H41 C25 1_555 1_555
C18 C19 1_555 1_555
C24 C25 1_555 1_555

#END
