
#######################################################################
#
#                 Cambridge Crystallographic Data Centre
#                                CCDC 
#
#######################################################################
#
# If this CIF has been generated from an entry in the Cambridge 
# Structural Database, then it will include bibliographic, chemical, 
# crystal, experimental, refinement or atomic coordinate data resulting 
# from the CCDC's data processing and validation procedures.
#
#######################################################################

data_GEXBAP
_chemical_formula_moiety         'C34 H7 Cl2 F10 N5 O2,0.5(C4 H8 O1)'
_chemical_name_systematic        
'21,22-dichloro-7,12-bis(pentafluorophenyl)-2,17-dioxa-23,24,25-triazapentacyclo[16.2.2.1^3,6^.1^8,11^.1^13,16^]pentacosa-1(20),3(25),4,6,8,10,12,14,16(23),18,21-undecaene-19,20-dicarbonitrile tetrahydrofuran solvate'
_symmetry_cell_setting           monoclinic
_symmetry_space_group_name_H-M   'P 21/m'
_symmetry_Int_Tables_number      11
_space_group_name_Hall           '-P 2yb'
loop_
_symmetry_equiv_pos_site_id
_symmetry_equiv_pos_as_xyz
1 x,y,z
2 -x,1/2+y,-z
3 -x,-y,-z
4 x,1/2-y,z
_cell_length_a                   6.3689(5)
_cell_length_b                   19.2075(10)
_cell_length_c                   14.4005(9)
_cell_angle_alpha                90
_cell_angle_beta                 96.153(7)
_cell_angle_gamma                90
_cell_volume                     1751.47
_exptl_crystal_colour            'pinkish red'
_exptl_crystal_description       plate
_cell_formula_units_Z            2
loop_
_atom_site_label
_atom_site_type_symbol
_atom_site_fract_x
_atom_site_fract_y
_atom_site_fract_z
Cl1 Cl 1.24256(17) 0.66899(6) 0.00012(8)
O1 O 0.8491(4) 0.60757(13) -0.09196(18)
F1 F 0.8799(5) 0.57156(14) 0.35787(19)
F2 F 0.2004(4) 0.55488(15) 0.1950(2)
F3 F 0.1115(6) 0.44709(16) 0.3043(2)
F4 F 0.4081(6) 0.40192(15) 0.4417(2)
F5 F 0.7900(6) 0.46438(17) 0.4679(2)
N1 N 0.7329(5) 0.63621(17) 0.0531(2)
N2 N 0.6218(8) 0.7500 0.1832(3)
H1 H 0.6807 0.7500 0.1306
C1 C 0.7826(6) 0.5898(2) -0.0068(3)
C2 C 0.6996(6) 0.7130(2) -0.1527(3)
C3 C 0.8657(6) 0.67837(19) -0.1021(3)
C4 C 0.6757(6) 0.5943(2) 0.1273(3)
C5 C 1.0387(6) 0.7137(2) -0.0594(3)
C6 C 0.7665(6) 0.5178(2) 0.0201(3)
H2 H 0.7946 0.4774 -0.0147
C7 C 0.7026(6) 0.5210(2) 0.1056(3)
H3 H 0.6792 0.4826 0.1448
C8 C 0.6004(7) 0.6204(2) 0.2054(3)
C9 C 0.5236(7) 0.6743(2) -0.1962(3)
C10 C 0.5435(7) 0.5658(2) 0.2738(3)
C11 C 0.5685(7) 0.6914(2) 0.2308(3)
N3 N 0.3834(7) 0.6434(2) -0.2301(3)
C12 C 0.4777(8) 0.7140(2) 0.3093(3)
H4 H 0.4250 0.6849 0.3550
C13 C 0.6878(8) 0.5418(2) 0.3444(3)
C14 C 0.3494(8) 0.5338(2) 0.2632(3)
C15 C 0.6440(9) 0.4879(2) 0.4009(3)
C16 C 0.3007(9) 0.4791(2) 0.3185(3)
C17 C 0.4490(10) 0.4564(2) 0.3875(4)
Cl1C Cl 1.24256(17) 0.83101(6) 0.00012(8)
O1C O 0.8491(4) 0.89243(13) -0.09196(18)
F1C F 0.8799(5) 0.92844(14) 0.35787(19)
F2C F 0.2004(4) 0.94512(15) 0.1950(2)
F3C F 0.1115(6) 1.05291(16) 0.3043(2)
F4C F 0.4081(6) 1.09808(15) 0.4417(2)
F5C F 0.7900(6) 1.03562(17) 0.4679(2)
N1C N 0.7329(5) 0.86379(17) 0.0531(2)
C1C C 0.7826(6) 0.9102(2) -0.0068(3)
C2C C 0.6996(6) 0.7870(2) -0.1527(3)
C3C C 0.8657(6) 0.82163(19) -0.1021(3)
C4C C 0.6757(6) 0.9057(2) 0.1273(3)
C5C C 1.0387(6) 0.7863(2) -0.0594(3)
C6C C 0.7665(6) 0.9822(2) 0.0201(3)
H2C H 0.7946 1.0226 -0.0147
C7C C 0.7026(6) 0.9790(2) 0.1056(3)
H3C H 0.6792 1.0174 0.1448
C8C C 0.6004(7) 0.8796(2) 0.2054(3)
C9C C 0.5236(7) 0.8257(2) -0.1962(3)
C10C C 0.5435(7) 0.9342(2) 0.2738(3)
C11C C 0.5685(7) 0.8086(2) 0.2308(3)
N3C N 0.3834(7) 0.8566(2) -0.2301(3)
C12C C 0.4777(8) 0.7860(2) 0.3093(3)
H4C H 0.4250 0.8151 0.3550
C13C C 0.6878(8) 0.9582(2) 0.3444(3)
C14C C 0.3494(8) 0.9662(2) 0.2632(3)
C15C C 0.6440(9) 1.0121(2) 0.4009(3)
C16C C 0.3007(9) 1.0209(2) 0.3185(3)
C17C C 0.4490(10) 1.0436(2) 0.3875(4)
O2 O 0.2111(16) 0.7500 0.4810(6)
C18 C 0.017(3) 0.7500 0.6117(15)
H5 H 0.0000 0.7921 0.6498
C19 C 0.207(3) 0.7500 0.5738(9)
H6 H 0.2866 0.7914 0.5986
C20 C -0.137(4) 0.7500 0.5195(11)
H7 H -0.2279 0.7080 0.5154
C21 C -0.004(3) 0.7500 0.4509(16)
H8 H -0.0358 0.7915 0.4112
H5C H 0.0000 0.7079 0.6498
H6C H 0.2866 0.7086 0.5986
H7C H -0.2279 0.7920 0.5154
H8C H -0.0358 0.7085 0.4112
H9? H 0.0000 0.7921 0.6498
H10? H 0.2866 0.7914 0.5986
H11? H -0.2279 0.7080 0.5154
H12? H -0.0358 0.7915 0.4112
loop_
_geom_bond_atom_site_label_1
_geom_bond_atom_site_label_2
_geom_bond_site_symmetry_1
_geom_bond_site_symmetry_2
Cl1 C5 1_555 1_555
O1 C1 1_555 1_555
F1 C13 1_555 1_555
F2 C14 1_555 1_555
F3 C16 1_555 1_555
F4 C17 1_555 1_555
F5 C15 1_555 1_555
N1 C1 1_555 1_555
N2 H1 1_555 1_555
C1 C6 1_555 1_555
C2 C3 1_555 1_555
C3 O1 1_555 1_555
C4 N1 1_555 1_555
C5 C3 1_555 1_555
C6 H2 1_555 1_555
C7 C4 1_555 1_555
H3 C7 1_555 1_555
C8 C4 1_555 1_555
C9 C2 1_555 1_555
C10 C8 1_555 1_555
C11 N2 1_555 1_555
N3 C9 1_555 1_555
C12 C11 1_555 1_555
H4 C12 1_555 1_555
C13 C10 1_555 1_555
C14 C10 1_555 1_555
C15 C13 1_555 1_555
C16 C14 1_555 1_555
C17 C15 1_555 1_555
O2 C19 1_555 1_555
C18 H5 1_555 1_555
C19 C18 1_555 1_555
H6 C19 1_555 1_555
C20 C18 1_555 1_555
H7 C20 1_555 1_555
C21 O2 1_555 1_555
H8 C21 1_555 1_555
Cl1C C5C 1_555 1_555
O1C C1C 1_555 1_555
F1C C13C 1_555 1_555
F2C C14C 1_555 1_555
F3C C16C 1_555 1_555
F4C C17C 1_555 1_555
F5C C15C 1_555 1_555
N1C C1C 1_555 1_555
C1C C6C 1_555 1_555
C2C C2 1_555 1_555
C3C O1C 1_555 1_555
C4C N1C 1_555 1_555
C5C C5 1_555 1_555
C6C H2C 1_555 1_555
C7C C4C 1_555 1_555
H3C C7C 1_555 1_555
C8C C4C 1_555 1_555
C9C C2C 1_555 1_555
C10C C8C 1_555 1_555
C11C N2 1_555 1_555
N3C C9C 1_555 1_555
C12C C12 1_555 1_555
H4C C12C 1_555 1_555
C13C C10C 1_555 1_555
C14C C10C 1_555 1_555
C15C C13C 1_555 1_555
C16C C14C 1_555 1_555
C17C C15C 1_555 1_555
H5C C18 1_555 1_555
H6C C19 1_555 1_555
H7C C20 1_555 1_555
H8C C21 1_555 1_555
C6 C7 1_555 1_555
C8 C11 1_555 1_555
C16 C17 1_555 1_555
C20 C21 1_555 1_555
C2C C3C 1_555 1_555
C3C C5C 1_555 1_555
C6C C7C 1_555 1_555
C8C C11C 1_555 1_555
C11C C12C 1_555 1_555
C16C C17C 1_555 1_555

#END
