
#######################################################################
#
#                 Cambridge Crystallographic Data Centre
#                                CCDC 
#
#######################################################################
#
# If this CIF has been generated from an entry in the Cambridge 
# Structural Database, then it will include bibliographic, chemical, 
# crystal, experimental, refinement or atomic coordinate data resulting 
# from the CCDC's data processing and validation procedures.
#
#######################################################################

data_GEXGEY
_chemical_formula_moiety         'C26 H20 Br1 N3 O2 S1'
_chemical_name_systematic        
'[(4-bromophenyl)methyl]{2-methylidene-1-[(4-methylphenyl)sulfonyl]-2,3-dihydro-1H-indol-3-yl}propanedinitrile'
_symmetry_cell_setting           monoclinic
_symmetry_space_group_name_H-M   'P 21'
_symmetry_Int_Tables_number      4
_space_group_name_Hall           'P 2yb'
loop_
_symmetry_equiv_pos_site_id
_symmetry_equiv_pos_as_xyz
1 x,y,z
2 -x,1/2+y,-z
_cell_length_a                   6.1461(3)
_cell_length_b                   15.0236(9)
_cell_length_c                   13.0355(7)
_cell_angle_alpha                90
_cell_angle_beta                 98.280(2)
_cell_angle_gamma                90
_cell_volume                     1191.11
_exptl_crystal_colour            colorless
_exptl_crystal_description       block
_cell_formula_units_Z            2
loop_
_atom_site_label
_atom_site_type_symbol
_atom_site_fract_x
_atom_site_fract_y
_atom_site_fract_z
Br1 Br 0.84587(10) 0.36436(6) 1.13645(3)
S1 S 0.35449(19) 0.62888(8) 0.33161(8)
O1 O 0.1443(5) 0.5868(3) 0.3195(3)
O2 O 0.3790(7) 0.7149(2) 0.3762(2)
N1 N 0.5239(5) 0.5636(2) 0.4073(2)
N2 N 0.4029(6) 0.4970(3) 0.6393(3)
N3 N 1.0177(7) 0.6216(3) 0.7364(3)
C1 C 0.7300(6) 0.5904(3) 0.4651(3)
C2 C 0.8444(5) 0.5061(2) 0.5065(3)
H1 H 0.999840 0.507354 0.497300
C3 C 0.7244(6) 0.4351(2) 0.4404(3)
C4 C 0.7756(7) 0.3463(3) 0.4279(3)
H2 H 0.908017 0.323097 0.460544
C5 C 0.6281(10) 0.2926(3) 0.3667(4)
H3 H 0.661074 0.232832 0.358167
C6 C 0.4333(10) 0.3266(3) 0.3182(4)
H4 H 0.333990 0.289284 0.278453
C7 C 0.3816(8) 0.4158(3) 0.3274(3)
H5 H 0.249419 0.438707 0.294231
C8 C 0.5317(6) 0.4697(3) 0.3872(3)
C9 C 0.8078(9) 0.6709(3) 0.4836(4)
H6 H 0.725362 0.720006 0.457812
H7 H 0.945439 0.678947 0.522622
C10 C 0.8201(5) 0.4931(2) 0.6252(3)
C11 C 0.5832(6) 0.4970(3) 0.6351(3)
C12 C 0.9307(6) 0.5673(3) 0.6877(3)
C13 C 0.9160(6) 0.4034(2) 0.6704(3)
H8 H 0.835797 0.354949 0.633029
H9 H 1.068227 0.398993 0.659207
C14 C 0.9046(6) 0.3927(2) 0.7854(3)
C15 C 1.0798(6) 0.4129(3) 0.8602(3)
H10 H 1.210527 0.432606 0.839922
C16 C 1.0662(7) 0.4045(3) 0.9643(3)
H11 H 1.185969 0.418568 1.013684
C17 C 0.8730(7) 0.3750(3) 0.9942(3)
C18 C 0.6972(6) 0.3526(3) 0.9218(3)
H12 H 0.567931 0.331769 0.942613
C19 C 0.7134(6) 0.3612(3) 0.8176(3)
H13 H 0.594444 0.345622 0.768461
C20 C 0.4487(7) 0.6301(3) 0.2110(3)
C21 C 0.3139(9) 0.5995(3) 0.1248(4)
H14 H 0.176688 0.575522 0.130640
C22 C 0.3863(11) 0.6050(4) 0.0284(4)
H15 H 0.295175 0.584499 -0.029961
C23 C 0.5856(11) 0.6393(4) 0.0174(4)
C24 C 0.7198(9) 0.6693(4) 0.1045(4)
H16 H 0.856957 0.692968 0.098049
C25 C 0.6530(8) 0.6647(3) 0.2017(4)
H17 H 0.745154 0.684715 0.259957
C26 C 0.6607(15) 0.6443(5) -0.0888(5)
H18 H 0.688378 0.585290 -0.112092
H19 H 0.793066 0.678894 -0.084030
H20 H 0.548047 0.671781 -0.137090
loop_
_geom_bond_atom_site_label_1
_geom_bond_atom_site_label_2
_geom_bond_site_symmetry_1
_geom_bond_site_symmetry_2
Br1 C17 1_555 1_555
S1 O1 1_555 1_555
O2 S1 1_555 1_555
N1 S1 1_555 1_555
N2 C11 1_555 1_555
N3 C12 1_555 1_555
C1 N1 1_555 1_555
C2 C1 1_555 1_555
H1 C2 1_555 1_555
C3 C2 1_555 1_555
C4 C3 1_555 1_555
H2 C4 1_555 1_555
C5 C4 1_555 1_555
H3 C5 1_555 1_555
C6 C5 1_555 1_555
H4 C6 1_555 1_555
C7 C6 1_555 1_555
H5 C7 1_555 1_555
C8 N1 1_555 1_555
C9 C1 1_555 1_555
H6 C9 1_555 1_555
H7 C9 1_555 1_555
C10 C2 1_555 1_555
C11 C10 1_555 1_555
C12 C10 1_555 1_555
C13 C10 1_555 1_555
H8 C13 1_555 1_555
H9 C13 1_555 1_555
C14 C13 1_555 1_555
C15 C14 1_555 1_555
H10 C15 1_555 1_555
C16 C15 1_555 1_555
H11 C16 1_555 1_555
C17 C16 1_555 1_555
C18 C17 1_555 1_555
H12 C18 1_555 1_555
C19 C14 1_555 1_555
H13 C19 1_555 1_555
C20 S1 1_555 1_555
C21 C20 1_555 1_555
H14 C21 1_555 1_555
C22 C21 1_555 1_555
H15 C22 1_555 1_555
C23 C22 1_555 1_555
C24 C23 1_555 1_555
H16 C24 1_555 1_555
C25 C20 1_555 1_555
H17 C25 1_555 1_555
C26 C23 1_555 1_555
H18 C26 1_555 1_555
H19 C26 1_555 1_555
H20 C26 1_555 1_555
C3 C8 1_555 1_555
C7 C8 1_555 1_555
C18 C19 1_555 1_555
C24 C25 1_555 1_555

#END
