
#######################################################################
#
#                 Cambridge Crystallographic Data Centre
#                                CCDC 
#
#######################################################################
#
# If this CIF has been generated from an entry in the Cambridge 
# Structural Database, then it will include bibliographic, chemical, 
# crystal, experimental, refinement or atomic coordinate data resulting 
# from the CCDC's data processing and validation procedures.
#
#######################################################################

data_GEZBIZ
_chemical_formula_moiety         'C20 H14 N2 O5'
_chemical_name_systematic        
(3R,3aS,9aR)-3-ethenyl-6-nitro-4-oxo-3-phenyl-2,3-dihydro-4H-furo[2,3-b][1]benzopyran-3a(9aH)-carbonitrile
_symmetry_cell_setting           monoclinic
_symmetry_space_group_name_H-M   'P 21/c'
_symmetry_Int_Tables_number      14
_space_group_name_Hall           '-P 2ybc'
loop_
_symmetry_equiv_pos_site_id
_symmetry_equiv_pos_as_xyz
1 x,y,z
2 -x,1/2+y,1/2-z
3 -x,-y,-z
4 x,1/2-y,1/2+z
_cell_length_a                   11.4782(3)
_cell_length_b                   14.6774(4)
_cell_length_c                   10.8540(3)
_cell_angle_alpha                90
_cell_angle_beta                 115.8240(10)
_cell_angle_gamma                90
_cell_volume                     1645.97
_exptl_crystal_colour            colorless
_exptl_crystal_description       block
_cell_formula_units_Z            4
loop_
_atom_site_label
_atom_site_type_symbol
_atom_site_fract_x
_atom_site_fract_y
_atom_site_fract_z
C1 C 0.37306(11) 0.97036(8) 0.13051(11)
C2 C 0.48486(12) 1.01375(8) 0.25600(12)
H1 H 0.5512 1.0382 0.2312
C3 C 0.35874(12) 1.14856(8) 0.23065(12)
C4 C 0.35361(13) 1.23206(9) 0.28914(13)
H2 H 0.3997 1.2407 0.3830
C5 C 0.28023(13) 1.30157(9) 0.20756(14)
H3 H 0.2762 1.3576 0.2456
C6 C 0.21206(12) 1.28727(8) 0.06736(13)
C7 C 0.21015(11) 1.20398(8) 0.00821(12)
H4 H 0.1609 1.1953 -0.0852
C8 C 0.28343(11) 1.13276(8) 0.09095(12)
C9 C 0.28415(11) 1.04325(8) 0.03050(11)
C10 C 0.42975(11) 0.91750(8) 0.05478(11)
C11 C 0.31090(11) 0.90434(8) 0.20314(11)
C12 C 0.43345(12) 0.88334(9) 0.33844(12)
H5 H 0.4134 0.8900 0.4160
H6 H 0.4614 0.8211 0.3370
C13 C 0.21219(12) 0.95744(8) 0.23394(12)
H7 H 0.2448 0.9964 0.3090
C14 C 0.08639(13) 0.95344(9) 0.16500(14)
H8 H 0.0492 0.9155 0.0891
H9 H 0.0340 0.9886 0.1918
C15 C 0.25026(11) 0.81737(8) 0.12387(12)
C16 C 0.25853(12) 0.73698(8) 0.19592(13)
H10 H 0.3051 0.7365 0.2907
C17 C 0.19845(13) 0.65775(8) 0.12853(14)
H11 H 0.2050 0.6049 0.1783
C18 C 0.12891(13) 0.65705(9) -0.01240(14)
H12 H 0.0898 0.6037 -0.0578
C19 C 0.11812(13) 0.73662(9) -0.08513(13)
H13 H 0.0706 0.7368 -0.1798
C20 C 0.17771(12) 0.81637(8) -0.01790(12)
H14 H 0.1691 0.8695 -0.0679
N1 N 0.47466(10) 0.87943(7) -0.00572(11)
N2 N 0.14350(11) 1.36434(7) -0.02056(13)
O1 O 0.13978(11) 1.43619(6) 0.03481(12)
O2 O 0.09478(11) 1.35299(7) -0.14477(11)
O3 O 0.43719(8) 1.08374(6) 0.31607(8)
O4 O 0.53480(8) 0.94558(6) 0.35132(8)
O5 O 0.22400(8) 1.02729(5) -0.09072(8)
loop_
_geom_bond_atom_site_label_1
_geom_bond_atom_site_label_2
_geom_bond_site_symmetry_1
_geom_bond_site_symmetry_2
C1 C2 1_555 1_555
C2 H1 1_555 1_555
C3 C4 1_555 1_555
C4 H2 1_555 1_555
C5 C4 1_555 1_555
H3 C5 1_555 1_555
C6 C5 1_555 1_555
C7 C6 1_555 1_555
H4 C7 1_555 1_555
C8 C3 1_555 1_555
C9 C1 1_555 1_555
C10 C1 1_555 1_555
C11 C1 1_555 1_555
C12 C11 1_555 1_555
H5 C12 1_555 1_555
H6 C12 1_555 1_555
C13 C11 1_555 1_555
H7 C13 1_555 1_555
C14 C13 1_555 1_555
H8 C14 1_555 1_555
H9 C14 1_555 1_555
C15 C11 1_555 1_555
C16 C15 1_555 1_555
H10 C16 1_555 1_555
C17 C16 1_555 1_555
H11 C17 1_555 1_555
C18 C17 1_555 1_555
H12 C18 1_555 1_555
C19 C18 1_555 1_555
H13 C19 1_555 1_555
C20 C15 1_555 1_555
H14 C20 1_555 1_555
N1 C10 1_555 1_555
N2 C6 1_555 1_555
O1 N2 1_555 1_555
O2 N2 1_555 1_555
O3 C2 1_555 1_555
O4 C2 1_555 1_555
O5 C9 1_555 1_555
C3 O3 1_555 1_555
C7 C8 1_555 1_555
C8 C9 1_555 1_555
C12 O4 1_555 1_555
C19 C20 1_555 1_555

#END
