
#######################################################################
#
#                 Cambridge Crystallographic Data Centre
#                                CCDC 
#
#######################################################################
#
# If this CIF has been generated from an entry in the Cambridge 
# Structural Database, then it will include bibliographic, chemical, 
# crystal, experimental, refinement or atomic coordinate data resulting 
# from the CCDC's data processing and validation procedures.
#
#######################################################################

data_GEZNIL
_chemical_formula_moiety         'C26 H22 F1 N3 O3 S1'
_chemical_name_systematic        
6-(4-fluorophenyl)-4-methyl-2-phenyl-13-(thiophen-2-yl)-9-oxa-2,3,12-triazadispiro[4.1.4^7^.2^5^]tridec-3-ene-1,8-dione
_symmetry_cell_setting           orthorhombic
_symmetry_space_group_name_H-M   'P 21 21 21'
_symmetry_Int_Tables_number      19
_space_group_name_Hall           'P 2ac 2ab'
loop_
_symmetry_equiv_pos_site_id
_symmetry_equiv_pos_as_xyz
1 x,y,z
2 1/2-x,-y,1/2+z
3 1/2+x,1/2-y,-z
4 -x,1/2+y,1/2-z
_cell_length_a                   7.46644(6)
_cell_length_b                   14.74581(13)
_cell_length_c                   19.96000(18)
_cell_angle_alpha                90
_cell_angle_beta                 90
_cell_angle_gamma                90
_cell_volume                     2197.57
_exptl_crystal_colour            colorless
_exptl_crystal_description       block
_cell_formula_units_Z            4
loop_
_atom_site_label
_atom_site_type_symbol
_atom_site_fract_x
_atom_site_fract_y
_atom_site_fract_z
S1 S -0.22802(13) -0.86711(8) -0.10657(5)
F1 F -0.43893(19) -0.42352(9) -0.48402(7)
O1 O -0.12013(18) -0.58022(9) -0.18457(7)
N1 N -0.4173(2) -0.62585(10) -0.17525(8)
O2 O 0.0891(2) -0.83214(10) -0.38403(8)
N2 N -0.5260(2) -0.69737(11) -0.19966(8)
O3 O 0.1738(2) -0.69479(11) -0.41754(8)
C1 C -0.2596(2) -0.62335(13) -0.35582(9)
C2 C -0.3215(3) -0.64443(13) -0.42010(10)
H1 H -0.321252 -0.705872 -0.434414
C3 C -0.4274(2) -0.74840(12) -0.23635(9)
C4 C -0.2433(2) -0.63172(12) -0.19755(9)
C5 C -0.7752(3) -0.47764(12) -0.10858(10)
H2 H -0.901583 -0.471640 -0.111768
C6 C 0.1657(3) -0.60193(14) -0.39229(12)
H3 H 0.065763 -0.568279 -0.413390
H4 H 0.279069 -0.569440 -0.401497
C7 C 0.1004(3) -0.75240(14) -0.37311(9)
C8 C -0.6782(3) -0.41846(13) -0.06866(10)
H5 H -0.737800 -0.372145 -0.044227
C9 C -0.0901(2) -0.78490(12) -0.21964(9)
H6 H -0.118875 -0.844431 -0.241091
C10 C -0.0748(3) -0.80080(12) -0.14542(10)
C11 C -0.4033(3) -0.49558(13) -0.09935(10)
H7 H -0.276883 -0.501392 -0.096191
C12 C -0.5026(3) -0.55517(12) -0.13883(9)
N3 N 0.0751(2) -0.75177(11) -0.24959(8)
C13 C -0.4930(3) -0.42727(14) -0.06458(10)
H8 H -0.426638 -0.386108 -0.037685
C14 C 0.1355(3) -0.61160(13) -0.31716(10)
H9 H 0.063329 -0.560587 -0.299552
H10 H 0.250895 -0.613955 -0.292772
C15 C -0.1772(2) -0.69940(13) -0.31522(9)
H11 H -0.210367 -0.756227 -0.339579
C16 C -0.3833(3) -0.57781(15) -0.46353(10)
H12 H -0.424818 -0.592857 -0.507119
C17 C -0.4997(3) -0.83143(13) -0.26899(11)
H13 H -0.436348 -0.884828 -0.251897
H14 H -0.482732 -0.827172 -0.317571
H15 H -0.627785 -0.836972 -0.258989
C18 C -0.6881(3) -0.54561(13) -0.14390(10)
H16 H -0.754820 -0.585697 -0.171566
C19 C -0.3280(3) -0.46514(14) -0.37811(11)
H17 H -0.332513 -0.403645 -0.364026
C20 C -0.2661(3) -0.53233(14) -0.33507(10)
H18 H -0.227900 -0.516561 -0.291188
C21 C 0.0344(2) -0.70130(13) -0.31081(9)
C22 C -0.1251(10) -0.8551(4) -0.0303(3)
H19 H -0.164673 -0.883209 0.009870
C23 C -0.2378(3) -0.71529(12) -0.24195(9)
C24 C -0.3825(3) -0.48938(14) -0.44153(11)
C25 C 0.0190(5) -0.8008(3) -0.0348(2)
H20 H 0.090456 -0.784225 0.002666
C26 C 0.0538(8) -0.7703(4) -0.1015(3)
H21 H 0.153053 -0.733749 -0.113937
H22 H 0.144(4) -0.719(2) -0.2210(15)
C27? C -0.143(3) -0.8640(13) -0.0383(11)
H23? H -0.209344 -0.897770 -0.006307
C28? C -0.0197(19) -0.8048(11) -0.0227(7)
H24? H 0.024503 -0.796249 0.021520
S2? S 0.0547(6) -0.7435(2) -0.09166(17)
C29? C -0.1681(19) -0.8725(10) -0.1135(7)
H25? H -0.235268 -0.918361 -0.135579
loop_
_geom_bond_atom_site_label_1
_geom_bond_atom_site_label_2
_geom_bond_site_symmetry_1
_geom_bond_site_symmetry_2
S1 C10 1_555 1_555
F1 C24 1_555 1_555
O1 C4 1_555 1_555
N1 N2 1_555 1_555
O2 C7 1_555 1_555
N2 C3 1_555 1_555
O3 C6 1_555 1_555
C1 C2 1_555 1_555
C2 H1 1_555 1_555
C3 C17 1_555 1_555
C4 N1 1_555 1_555
C5 H2 1_555 1_555
C6 H3 1_555 1_555
H4 C6 1_555 1_555
C7 O3 1_555 1_555
C8 C5 1_555 1_555
H5 C8 1_555 1_555
C9 H6 1_555 1_555
C10 C9 1_555 1_555
C11 H7 1_555 1_555
C12 N1 1_555 1_555
N3 C9 1_555 1_555
C13 C8 1_555 1_555
H8 C13 1_555 1_555
C14 C6 1_555 1_555
H9 C14 1_555 1_555
H10 C14 1_555 1_555
C15 C1 1_555 1_555
H11 C15 1_555 1_555
C16 C2 1_555 1_555
H12 C16 1_555 1_555
C17 H13 1_555 1_555
H14 C17 1_555 1_555
H15 C17 1_555 1_555
C18 C5 1_555 1_555
H16 C18 1_555 1_555
C19 H17 1_555 1_555
C20 C1 1_555 1_555
H18 C20 1_555 1_555
C21 C7 1_555 1_555
C22 S1 1_555 1_555
H19 C22 1_555 1_555
C23 C3 1_555 1_555
C24 C16 1_555 1_555
C25 C22 1_555 1_555
H20 C25 1_555 1_555
C26 C10 1_555 1_555
H21 C26 1_555 1_555
H22 N3 1_555 1_555
C4 C23 1_555 1_555
C9 C23 1_555 1_555
C11 C12 1_555 1_555
C11 C13 1_555 1_555
C12 C18 1_555 1_555
N3 C21 1_555 1_555
C14 C21 1_555 1_555
C15 C21 1_555 1_555
C15 C23 1_555 1_555
C19 C20 1_555 1_555
C19 C24 1_555 1_555
C25 C26 1_555 1_555

#END
