
#######################################################################
#
#                 Cambridge Crystallographic Data Centre
#                                CCDC 
#
#######################################################################
#
# If this CIF has been generated from an entry in the Cambridge 
# Structural Database, then it will include bibliographic, chemical, 
# crystal, experimental, refinement or atomic coordinate data resulting 
# from the CCDC's data processing and validation procedures.
#
#######################################################################

data_GEZSAH
_chemical_formula_moiety         'C50 H46 N4'
_chemical_name_systematic        
2,2'-bis(4-t-butylphenyl)-4,4',5,5'-tetraphenyl-2'H-1,2'-biimidazole
_symmetry_cell_setting           monoclinic
_symmetry_space_group_name_H-M   'P 21/n'
_symmetry_Int_Tables_number      14
_space_group_name_Hall           '-P 2yn'
loop_
_symmetry_equiv_pos_site_id
_symmetry_equiv_pos_as_xyz
1 x,y,z
2 1/2-x,1/2+y,1/2-z
3 -x,-y,-z
4 1/2+x,1/2-y,1/2+z
_cell_length_a                   12.6166(2)
_cell_length_b                   12.1515(2)
_cell_length_c                   26.5190(4)
_cell_angle_alpha                90
_cell_angle_beta                 98.3060(4)
_cell_angle_gamma                90
_cell_volume                     4023
_exptl_crystal_colour            'light yellow'
_exptl_crystal_description       plate
_cell_formula_units_Z            4
loop_
_atom_site_label
_atom_site_type_symbol
_atom_site_fract_x
_atom_site_fract_y
_atom_site_fract_z
N1 N 0.48641(7) 0.18615(7) 0.23296(3)
N2 N 0.62203(7) 0.05451(8) 0.22345(3)
N3 N 0.31133(7) -0.10440(8) 0.15672(3)
N4 N 0.43701(7) 0.00788(7) 0.19555(3)
C1 C 0.53638(8) 0.14019(9) 0.14805(4)
C2 C 0.35161(9) -0.00460(9) 0.15686(4)
C3 C 0.65295(9) 0.11626(9) 0.26218(4)
C4 C 0.51724(9) 0.09762(9) 0.20031(4)
C5 C 0.52240(9) -0.11201(9) 0.26931(4)
C6 C 0.44711(9) -0.09187(9) 0.22209(4)
C7 C 0.75743(9) 0.09791(9) 0.29398(4)
C8 C 0.59047(9) 0.10117(10) 0.06642(4)
H1 H 0.6105 0.0488 0.0429
C9 C 0.51012(9) -0.05716(10) 0.31431(4)
H2 H 0.4547 -0.0043 0.3145
C10 C 0.23456(9) 0.26361(10) 0.10262(4)
H3 H 0.2251 0.3368 0.1137
C11 C 0.34120(9) -0.27412(9) 0.20777(4)
C12 C 0.28742(9) 0.18856(9) 0.13679(4)
H4 H 0.3135 0.2109 0.1706
C13 C 0.56623(9) 0.19897(9) 0.26851(4)
C14 C 0.58580(9) 0.21275(10) 0.05304(4)
C15 C 0.77523(9) 0.12218(10) 0.34577(4)
H5 H 0.7199 0.1546 0.3616
C16 C 0.60339(9) -0.18997(10) 0.26995(5)
H6 H 0.6120 -0.2282 0.2396
C17 C 0.29120(9) -0.33828(10) 0.16761(5)
H7 H 0.2764 -0.3075 0.1344
C18 C 0.55641(9) 0.28608(10) 0.08885(4)
H8 H 0.5525 0.3624 0.0810
C19 C 0.36950(9) -0.15955(9) 0.19715(4)
C20 C 0.57899(10) -0.07981(12) 0.35883(5)
H9 H 0.5707 -0.0422 0.3894
C21 C 0.56495(9) 0.28443(9) 0.30830(4)
C22 C 0.26280(10) -0.44644(10) 0.17555(5)
H10 H 0.2288 -0.4890 0.1478
C23 C 0.65355(9) 0.35100(10) 0.32393(4)
H11 H 0.7182 0.3399 0.3102
C24 C 0.36031(9) -0.32106(10) 0.25634(5)
H12 H 0.3931 -0.2784 0.2843
C25 C 0.87372(10) 0.09907(11) 0.37435(5)
H13 H 0.8856 0.1156 0.4097
C26 C 0.83936(9) 0.04933(9) 0.27155(5)
H14 H 0.8276 0.0316 0.2363
C27 C 0.26095(10) 0.05026(10) 0.07234(5)
H15 H 0.2687 -0.0236 0.0617
C28 C 0.30239(9) 0.08104(9) 0.12179(4)
C29 C 0.93739(9) 0.02670(10) 0.30017(5)
H16 H 0.9928 -0.0062 0.2846
C30 C 0.56658(9) 0.06531(9) 0.11299(4)
H17 H 0.5708 -0.0109 0.1211
C31 C 0.61312(10) 0.24914(10) 0.00105(4)
C32 C 0.47059(9) 0.30153(10) 0.32900(4)
H18 H 0.4095 0.2572 0.3182
C33 C 0.20865(10) 0.12580(10) 0.03850(5)
H19 H 0.1814 0.1029 0.0049
C34 C 0.19508(9) 0.23499(10) 0.05273(4)
C35 C 0.46553(10) 0.38293(11) 0.36524(5)
H20 H 0.4016 0.3933 0.3796
C36 C 0.54260(10) 0.18604(11) -0.04151(5)
H21 H 0.5568 0.1070 -0.0376
H22 H 0.5591 0.2105 -0.0747
H23 H 0.4670 0.2005 -0.0394
C37 C 0.53261(9) 0.25109(10) 0.13581(4)
H24 H 0.5137 0.3034 0.1596
C38 C 0.59504(12) 0.37272(11) -0.00806(5)
H25 H 0.5201 0.3908 -0.0060
H26 H 0.6117 0.3921 -0.0419
H27 H 0.6418 0.4143 0.0179
C39 C 0.13889(11) 0.43377(11) 0.03506(5)
H28 H 0.1002 0.4356 0.0645
H29 H 0.1041 0.4834 0.0086
H30 H 0.2131 0.4574 0.0455
C40 C 0.95465(10) 0.05208(10) 0.35157(5)
H31 H 1.0222 0.0372 0.3712
C41 C 0.73171(10) 0.22390(12) -0.00136(5)
H32 H 0.7769 0.2701 0.0233
H33 H 0.7477 0.2393 -0.0357
H34 H 0.7461 0.1462 0.0068
C42 C 0.28376(10) -0.49287(10) 0.22380(5)
H35 H 0.2653 -0.5673 0.2291
C43 C 0.64755(10) 0.43354(10) 0.35958(5)
H36 H 0.7077 0.4796 0.3697
C44 C 0.67153(10) -0.21216(11) 0.31450(5)
H37 H 0.7266 -0.2655 0.3146
C45 C 0.33183(10) -0.42952(10) 0.26403(5)
H38 H 0.3455 -0.4605 0.2972
C46 C 0.55381(10) 0.44898(10) 0.38040(5)
H39 H 0.5502 0.5050 0.4051
C47 C 0.65961(11) -0.15689(12) 0.35879(5)
H40 H 0.7068 -0.1718 0.3893
C48 C 0.13788(11) 0.31640(11) 0.01402(5)
C49 C 0.02101(13) 0.28002(14) -0.00045(7)
H41 H 0.0190 0.2051 -0.0142
H42 H -0.0155 0.3301 -0.0263
H43 H -0.0151 0.2816 0.0299
C50 C 0.19412(18) 0.31792(16) -0.03331(6)
H44 H 0.2692 0.3394 -0.0236
H45 H 0.1584 0.3709 -0.0580
H46 H 0.1908 0.2444 -0.0487
loop_
_geom_bond_atom_site_label_1
_geom_bond_atom_site_label_2
_geom_bond_site_symmetry_1
_geom_bond_site_symmetry_2
N1 C4 1_555 1_555
N2 C3 1_555 1_555
N3 C2 1_555 1_555
N4 C2 1_555 1_555
C1 C4 1_555 1_555
C2 C28 1_555 1_555
C3 C7 1_555 1_555
C4 N2 1_555 1_555
C5 C6 1_555 1_555
C6 N4 1_555 1_555
C7 C15 1_555 1_555
C8 H1 1_555 1_555
C9 C5 1_555 1_555
H2 C9 1_555 1_555
C10 H3 1_555 1_555
C11 C17 1_555 1_555
C12 C10 1_555 1_555
H4 C12 1_555 1_555
C13 N1 1_555 1_555
C14 C8 1_555 1_555
C15 H5 1_555 1_555
C16 C5 1_555 1_555
H6 C16 1_555 1_555
C17 H7 1_555 1_555
C18 C14 1_555 1_555
H8 C18 1_555 1_555
C19 N3 1_555 1_555
C20 C9 1_555 1_555
H9 C20 1_555 1_555
C21 C13 1_555 1_555
C22 C17 1_555 1_555
H10 C22 1_555 1_555
C23 C21 1_555 1_555
H11 C23 1_555 1_555
C24 C11 1_555 1_555
H12 C24 1_555 1_555
C25 C15 1_555 1_555
H13 C25 1_555 1_555
C26 C7 1_555 1_555
H14 C26 1_555 1_555
C27 H15 1_555 1_555
C28 C12 1_555 1_555
C29 C26 1_555 1_555
H16 C29 1_555 1_555
C30 C1 1_555 1_555
H17 C30 1_555 1_555
C31 C14 1_555 1_555
C32 C21 1_555 1_555
H18 C32 1_555 1_555
C33 C27 1_555 1_555
H19 C33 1_555 1_555
C34 C10 1_555 1_555
C35 C32 1_555 1_555
H20 C35 1_555 1_555
C36 C31 1_555 1_555
H21 C36 1_555 1_555
H22 C36 1_555 1_555
H23 C36 1_555 1_555
C37 C1 1_555 1_555
H24 C37 1_555 1_555
C38 C31 1_555 1_555
H25 C38 1_555 1_555
H26 C38 1_555 1_555
H27 C38 1_555 1_555
C39 H28 1_555 1_555
H29 C39 1_555 1_555
H30 C39 1_555 1_555
C40 C25 1_555 1_555
H31 C40 1_555 1_555
C41 C31 1_555 1_555
H32 C41 1_555 1_555
H33 C41 1_555 1_555
H34 C41 1_555 1_555
C42 C22 1_555 1_555
H35 C42 1_555 1_555
C43 C23 1_555 1_555
H36 C43 1_555 1_555
C44 C16 1_555 1_555
H37 C44 1_555 1_555
C45 C24 1_555 1_555
H38 C45 1_555 1_555
C46 C35 1_555 1_555
H39 C46 1_555 1_555
C47 C20 1_555 1_555
H40 C47 1_555 1_555
C48 C34 1_555 1_555
C49 C48 1_555 1_555
H41 C49 1_555 1_555
H42 C49 1_555 1_555
H43 C49 1_555 1_555
C50 C48 1_555 1_555
H44 C50 1_555 1_555
H45 C50 1_555 1_555
H46 C50 1_555 1_555
N4 C4 1_555 1_555
C3 C13 1_555 1_555
C6 C19 1_555 1_555
C8 C30 1_555 1_555
C11 C19 1_555 1_555
C18 C37 1_555 1_555
C27 C28 1_555 1_555
C29 C40 1_555 1_555
C33 C34 1_555 1_555
C39 C48 1_555 1_555
C42 C45 1_555 1_555
C43 C46 1_555 1_555
C44 C47 1_555 1_555

#END
