
#######################################################################
#
#                 Cambridge Crystallographic Data Centre
#                                CCDC 
#
#######################################################################
#
# If this CIF has been generated from an entry in the Cambridge 
# Structural Database, then it will include bibliographic, chemical, 
# crystal, experimental, refinement or atomic coordinate data resulting 
# from the CCDC's data processing and validation procedures.
#
#######################################################################

data_GEZXUH
_chemical_formula_moiety         'C24 H24 O2 S1'
_chemical_name_systematic        
1,1'-{3-[(4-methylphenyl)sulfonyl]pent-1-ene-1,5-diyl}dibenzene
_symmetry_cell_setting           monoclinic
_symmetry_space_group_name_H-M   'P 21'
_symmetry_Int_Tables_number      4
_space_group_name_Hall           'P 2yb'
loop_
_symmetry_equiv_pos_site_id
_symmetry_equiv_pos_as_xyz
1 x,y,z
2 -x,1/2+y,-z
_cell_length_a                   5.6098(4)
_cell_length_b                   9.7873(10)
_cell_length_c                   18.6270(15)
_cell_angle_alpha                90
_cell_angle_beta                 90.672(6)
_cell_angle_gamma                90
_cell_volume                     1022.64
_exptl_crystal_colour            colorless
_exptl_crystal_description       block
_cell_formula_units_Z            2
loop_
_atom_site_label
_atom_site_type_symbol
_atom_site_fract_x
_atom_site_fract_y
_atom_site_fract_z
S1 S -0.77508(16) -0.79743(13) -0.23455(6)
O1 O -0.9144(4) -0.8254(4) -0.29791(17)
O2 O -0.8958(5) -0.7561(4) -0.17036(17)
C1 C -0.2036(7) -1.0624(5) -0.4122(2)
H1 H -0.1468 -0.9868 -0.3870
C2 C -0.0857(8) -1.1079(7) -0.4722(3)
H2 H 0.0505 -1.0624 -0.4872
C3 C -0.1667(8) -1.2199(6) -0.5104(3)
H3 H -0.0855 -1.2505 -0.5506
C4 C -0.3673(8) -1.2845(6) -0.4882(3)
H4 H -0.4249 -1.3594 -0.5138
C5 C -0.4870(8) -1.2400(6) -0.4280(3)
H5 H -0.6236 -1.2855 -0.4133
C6 C -0.4056(7) -1.1292(5) -0.3896(2)
C7 C -0.5350(7) -1.0859(5) -0.3250(2)
H6 H -0.6811 -1.1279 -0.3172
C8 C -0.4671(7) -0.9946(5) -0.2772(2)
H7 H -0.3190 -0.9540 -0.2837
C9 C -0.6052(7) -0.9499(5) -0.2134(2)
H8 H -0.7194 -1.0225 -0.2024
C10 C -0.4517(7) -0.9271(5) -0.1463(2)
H9 H -0.5449 -0.8802 -0.1103
H10 H -0.3172 -0.8695 -0.1581
C11 C -0.3602(7) -1.0625(6) -0.1153(3)
H11 H -0.2923 -1.1163 -0.1537
H12 H -0.2341 -1.0436 -0.0807
C12 C -0.5510(7) -1.1451(6) -0.0794(2)
C13 C -0.6535(10) -1.2578(6) -0.1111(3)
H13 H -0.6001 -1.2864 -0.1558
C14 C -0.8339(10) -1.3294(7) -0.0782(4)
H14 H -0.9011 -1.4051 -0.1009
C15 C -0.9153(9) -1.2887(9) -0.0113(4)
H15 H -1.0365 -1.3364 0.0113
C16 C -0.8156(9) -1.1796(7) 0.0196(3)
H16 H -0.8680 -1.1521 0.0646
C17 C -0.6378(8) -1.1067(6) -0.0129(3)
H17 H -0.5745 -1.0302 0.0100
C18 C -0.5624(6) -0.6726(5) -0.2554(2)
C19 C -0.4799(8) -0.6613(6) -0.3244(3)
H18 H -0.5401 -0.7170 -0.3607
C20 C -0.3053(9) -0.5652(6) -0.3387(3)
H19 H -0.2508 -0.5564 -0.3854
C21 C -0.2103(8) -0.4827(6) -0.2862(3)
C22 C -0.3013(9) -0.4950(6) -0.2179(3)
H20 H -0.2441 -0.4382 -0.1816
C23 C -0.4747(8) -0.5896(6) -0.2025(3)
H21 H -0.5321 -0.5970 -0.1560
C24 C -0.0165(9) -0.3812(7) -0.3038(4)
H22 H -0.0351 -0.3009 -0.2748
H23 H -0.0277 -0.3568 -0.3536
H24 H 0.1365 -0.4216 -0.2940
loop_
_geom_bond_atom_site_label_1
_geom_bond_atom_site_label_2
_geom_bond_site_symmetry_1
_geom_bond_site_symmetry_2
S1 O1 1_555 1_555
O2 S1 1_555 1_555
C1 H1 1_555 1_555
C2 C1 1_555 1_555
H2 C2 1_555 1_555
C3 C2 1_555 1_555
H3 C3 1_555 1_555
C4 C3 1_555 1_555
H4 C4 1_555 1_555
C5 C4 1_555 1_555
H5 C5 1_555 1_555
C6 C1 1_555 1_555
C7 C6 1_555 1_555
H6 C7 1_555 1_555
C8 C7 1_555 1_555
H7 C8 1_555 1_555
C9 S1 1_555 1_555
H8 C9 1_555 1_555
C10 C9 1_555 1_555
H9 C10 1_555 1_555
H10 C10 1_555 1_555
C11 C10 1_555 1_555
H11 C11 1_555 1_555
H12 C11 1_555 1_555
C12 C11 1_555 1_555
C13 C12 1_555 1_555
H13 C13 1_555 1_555
C14 C13 1_555 1_555
H14 C14 1_555 1_555
C15 C14 1_555 1_555
H15 C15 1_555 1_555
C16 C15 1_555 1_555
H16 C16 1_555 1_555
C17 C12 1_555 1_555
H17 C17 1_555 1_555
C18 S1 1_555 1_555
C19 C18 1_555 1_555
H18 C19 1_555 1_555
C20 C19 1_555 1_555
H19 C20 1_555 1_555
C21 C20 1_555 1_555
C22 C21 1_555 1_555
H20 C22 1_555 1_555
C23 C18 1_555 1_555
H21 C23 1_555 1_555
C24 C21 1_555 1_555
H22 C24 1_555 1_555
H23 C24 1_555 1_555
H24 C24 1_555 1_555
C5 C6 1_555 1_555
C8 C9 1_555 1_555
C16 C17 1_555 1_555
C22 C23 1_555 1_555

#END
