
#######################################################################
#
#                 Cambridge Crystallographic Data Centre
#                                CCDC 
#
#######################################################################
#
# If this CIF has been generated from an entry in the Cambridge 
# Structural Database, then it will include bibliographic, chemical, 
# crystal, experimental, refinement or atomic coordinate data resulting 
# from the CCDC's data processing and validation procedures.
#
#######################################################################

data_GIBJUZ
_chemical_formula_moiety         'C29 H26 N2 O5'
_chemical_name_systematic        
"methyl 8',9'-dimethoxy-2-oxo-1-phenyl-1,2,6',10b'-tetrahydro-5'H-spiro[indole-3,1'-pyrrolo[2,1-a]isoquinoline]-2'-carboxylate"
_symmetry_cell_setting           triclinic
_symmetry_space_group_name_H-M   'P -1'
_symmetry_Int_Tables_number      2
_space_group_name_Hall           '-P 1'
loop_
_symmetry_equiv_pos_site_id
_symmetry_equiv_pos_as_xyz
1 x,y,z
2 -x,-y,-z
_cell_length_a                   9.050(4)
_cell_length_b                   10.200(4)
_cell_length_c                   27.541(11)
_cell_angle_alpha                89.877(6)
_cell_angle_beta                 93.866(6)
_cell_angle_gamma                111.112(5)
_cell_volume                     2365.6
_exptl_crystal_colour            colorless
_exptl_crystal_description       block
_cell_formula_units_Z            4
loop_
_atom_site_label
_atom_site_type_symbol
_atom_site_fract_x
_atom_site_fract_y
_atom_site_fract_z
O1 O 0.2130(6) -0.0938(5) 0.31480(16)
O2 O 0.0980(6) -0.2672(5) 0.36543(17)
O3 O 0.5921(5) 0.1237(5) 0.37652(17)
O4 O 0.3382(6) 0.6255(4) 0.44621(16)
O5 O 0.1901(6) 0.5875(5) 0.52431(18)
N1 N 0.3141(7) 0.0228(5) 0.47713(19)
N2 N 0.4542(6) 0.2288(5) 0.32775(17)
C1 C 0.1890(8) -0.1309(6) 0.3561(2)
C2 C 0.0428(12) -0.3613(9) 0.3236(3)
H1 H -0.039825 -0.340701 0.305214
H2 H 0.002068 -0.456572 0.334242
H3 H 0.129345 -0.349150 0.303597
C3 C 0.2463(7) -0.0482(6) 0.3988(2)
C4 C 0.2417(8) -0.0840(6) 0.4454(2)
H4 H 0.191984 -0.175963 0.455083
C5 C 0.3778(7) 0.1560(6) 0.4515(2)
H5 H 0.493931 0.190289 0.456096
C6 C 0.3283(7) 0.1128(6) 0.3960(2)
C7 C 0.4749(7) 0.1524(6) 0.3666(2)
C8 C 0.3048(7) 0.2438(6) 0.3272(2)
C9 C 0.2261(7) 0.1802(5) 0.3676(2)
C10 C 0.0761(7) 0.1771(6) 0.3733(2)
H6 H 0.021742 0.133208 0.399809
C11 C 0.0059(8) 0.2405(8) 0.3388(2)
H7 H -0.095159 0.241045 0.342768
C12 C 0.0838(9) 0.3015(7) 0.2996(2)
H8 H 0.033445 0.340988 0.276542
C13 C 0.2351(8) 0.3068(6) 0.2929(2)
H9 H 0.288493 0.351069 0.266223
C14 C 0.5588(8) 0.2725(6) 0.2895(2)
C15 C 0.6000(10) 0.1761(8) 0.2644(3)
H10 H 0.562890 0.081980 0.272804
C16 C 0.6971(11) 0.2208(10) 0.2265(3)
H11 H 0.728474 0.156504 0.210185
C17 C 0.7479(10) 0.3565(10) 0.2125(3)
H12 H 0.809130 0.384180 0.185861
C18 C 0.7082(11) 0.4510(10) 0.2378(3)
H13 H 0.744882 0.544632 0.228775
C19 C 0.6146(9) 0.4114(8) 0.2765(3)
H14 H 0.589225 0.477841 0.293779
C20 C 0.3215(7) 0.2660(6) 0.4728(2)
C21 C 0.3579(6) 0.3941(6) 0.4500(2)
H15 H 0.416093 0.410341 0.422584
C22 C 0.3095(7) 0.4975(6) 0.4672(2)
C23 C 0.4049(9) 0.6437(7) 0.4014(2)
H16 H 0.330471 0.582273 0.377412
H17 H 0.499890 0.622047 0.404121
H18 H 0.430399 0.739510 0.391852
C24 C 0.2295(7) 0.4770(6) 0.5096(2)
C25 C 0.1135(11) 0.5743(9) 0.5679(3)
H19 H 0.025195 0.486661 0.567269
H20 H 0.076038 0.650537 0.571233
H21 H 0.187041 0.576819 0.595038
C26 C 0.1951(7) 0.3519(7) 0.5326(2)
H22 H 0.140508 0.337420 0.560740
C27 C 0.2407(7) 0.2442(6) 0.5144(2)
C28 C 0.2005(8) 0.1078(7) 0.5417(2)
H23 H 0.090045 0.050002 0.533908
H24 H 0.214846 0.128321 0.576480
C29 C 0.3056(9) 0.0274(7) 0.5285(2)
H25 H 0.411414 0.072738 0.544000
H26 H 0.262685 -0.067646 0.540315
O6 O 0.1593(6) 0.2345(4) 0.12663(17)
O7 O 0.2750(7) 0.4119(5) 0.18107(17)
O8 O 0.6350(5) 0.6480(5) 0.13100(17)
O9 O 0.3891(6) 1.1418(4) 0.06332(16)
O10 O 0.2027(6) 1.1048(5) -0.01472(17)
N3 N 0.3261(7) 0.5321(5) 0.02154(18)
N4 N 0.4923(6) 0.7415(5) 0.17650(17)
C30 C 0.2454(7) 0.3725(6) 0.1392(2)
C31 C 0.2903(7) 0.4587(6) 0.0979(2)
C32 C 0.2709(7) 0.4243(6) 0.0504(2)
H27 H 0.222479 0.332178 0.038637
C33 C 0.4003(7) 0.6647(6) 0.0502(2)
H28 H 0.515489 0.697052 0.047970
C34 C 0.3624(6) 0.6185(6) 0.1040(2)
C35 C 0.5143(6) 0.6697(6) 0.1375(2)
C36 C 0.3341(7) 0.7429(6) 0.1729(2)
C37 C 0.2560(6) 0.6758(6) 0.1303(2)
C38 C 0.0997(7) 0.6631(6) 0.1198(2)
H29 H 0.045107 0.618571 0.091059
C39 C 0.0256(8) 0.7168(7) 0.1522(2)
H30 H -0.080064 0.707073 0.145639
C40 C 0.1081(8) 0.7851(7) 0.1942(2)
H31 H 0.057170 0.822132 0.215562
C41 C 0.2643(8) 0.8000(7) 0.2055(2)
H32 H 0.319795 0.846614 0.233849
C42 C 0.5973(7) 0.7864(6) 0.2186(2)
C43 C 0.7496(7) 0.8803(7) 0.2152(2)
H33 H 0.784758 0.913114 0.184942
C44 C 0.8498(8) 0.9257(7) 0.2565(2)
H34 H 0.952274 0.989720 0.253795
C45 C 0.8026(9) 0.8792(8) 0.3009(3)
H35 H 0.871713 0.909553 0.328522
C46 C 0.6488(9) 0.7852(10) 0.3043(3)
H36 H 0.613277 0.754032 0.334616
C47 C 0.5491(8) 0.7380(8) 0.2635(3)
H37 H 0.447471 0.672366 0.266174
C48 C 0.3427(7) 0.7776(6) 0.0308(2)
C49 C 0.3944(7) 0.9064(6) 0.0559(2)
H38 H 0.463282 0.920230 0.083630
C50 C 0.3455(7) 1.0134(6) 0.0404(2)
C51 C 0.4744(10) 1.1601(7) 0.1090(3)
H39 H 0.573952 1.148769 0.105418
H40 H 0.413894 1.091346 0.130893
H41 H 0.493590 1.252661 0.121824
C52 C 0.2446(7) 0.9925(6) -0.0022(2)
C53 C 0.1060(10) 1.0911(8) -0.0583(3)
H42 H 0.166218 1.090123 -0.085647
H43 H 0.070177 1.168876 -0.060726
H44 H 0.015948 1.004831 -0.058278
C54 C 0.1946(7) 0.8665(6) -0.0273(2)
H45 H 0.127554 0.853500 -0.055454
C55 C 0.2436(7) 0.7562(6) -0.0112(2)
C56 C 0.1886(8) 0.6209(6) -0.0402(2)
H46 H 0.184256 0.640938 -0.074570
H47 H 0.082215 0.563670 -0.032082
C57 C 0.2981(9) 0.5389(7) -0.0303(2)
H48 H 0.249396 0.444730 -0.044456
H49 H 0.397877 0.585231 -0.044945
C58 C 0.1212(13) 0.1448(9) 0.1670(3)
H50 H 0.090428 0.048763 0.155945
H51 H 0.035148 0.157167 0.182465
H52 H 0.212352 0.167575 0.189784
loop_
_geom_bond_atom_site_label_1
_geom_bond_atom_site_label_2
_geom_bond_site_symmetry_1
_geom_bond_site_symmetry_2
O1 C1 1_555 1_555
O2 C1 1_555 1_555
O3 C7 1_555 1_555
O4 C22 1_555 1_555
O5 C24 1_555 1_555
N1 C4 1_555 1_555
N2 C7 1_555 1_555
C1 C3 1_555 1_555
C2 O2 1_555 1_555
H1 C2 1_555 1_555
H2 C2 1_555 1_555
H3 C2 1_555 1_555
C3 C4 1_555 1_555
C4 H4 1_555 1_555
C5 N1 1_555 1_555
H5 C5 1_555 1_555
C6 C3 1_555 1_555
C7 C6 1_555 1_555
C8 N2 1_555 1_555
C9 C6 1_555 1_555
C10 C9 1_555 1_555
H6 C10 1_555 1_555
C11 C10 1_555 1_555
H7 C11 1_555 1_555
C12 C11 1_555 1_555
H8 C12 1_555 1_555
C13 C8 1_555 1_555
H9 C13 1_555 1_555
C14 N2 1_555 1_555
C15 C14 1_555 1_555
H10 C15 1_555 1_555
C16 C15 1_555 1_555
H11 C16 1_555 1_555
C17 C16 1_555 1_555
H12 C17 1_555 1_555
C18 C17 1_555 1_555
H13 C18 1_555 1_555
C19 C14 1_555 1_555
H14 C19 1_555 1_555
C20 C5 1_555 1_555
C21 C20 1_555 1_555
H15 C21 1_555 1_555
C22 C21 1_555 1_555
C23 O4 1_555 1_555
H16 C23 1_555 1_555
H17 C23 1_555 1_555
H18 C23 1_555 1_555
C24 C22 1_555 1_555
C25 O5 1_555 1_555
H19 C25 1_555 1_555
H20 C25 1_555 1_555
H21 C25 1_555 1_555
C26 C24 1_555 1_555
H22 C26 1_555 1_555
C27 C20 1_555 1_555
C28 C27 1_555 1_555
H23 C28 1_555 1_555
H24 C28 1_555 1_555
C29 N1 1_555 1_555
H25 C29 1_555 1_555
H26 C29 1_555 1_555
O6 C30 1_555 1_555
O7 C30 1_555 1_555
O8 C35 1_555 1_555
O9 C50 1_555 1_555
O10 C52 1_555 1_555
N3 C32 1_555 1_555
N4 C35 1_555 1_555
C30 C31 1_555 1_555
C31 C32 1_555 1_555
C32 H27 1_555 1_555
C33 N3 1_555 1_555
H28 C33 1_555 1_555
C34 C31 1_555 1_555
C35 C34 1_555 1_555
C36 N4 1_555 1_555
C37 C34 1_555 1_555
C38 C37 1_555 1_555
H29 C38 1_555 1_555
C39 C38 1_555 1_555
H30 C39 1_555 1_555
C40 C39 1_555 1_555
H31 C40 1_555 1_555
C41 C36 1_555 1_555
H32 C41 1_555 1_555
C42 N4 1_555 1_555
C43 C42 1_555 1_555
H33 C43 1_555 1_555
C44 C43 1_555 1_555
H34 C44 1_555 1_555
C45 C44 1_555 1_555
H35 C45 1_555 1_555
C46 C45 1_555 1_555
H36 C46 1_555 1_555
C47 C42 1_555 1_555
H37 C47 1_555 1_555
C48 C33 1_555 1_555
C49 C48 1_555 1_555
H38 C49 1_555 1_555
C50 C49 1_555 1_555
C51 O9 1_555 1_555
H39 C51 1_555 1_555
H40 C51 1_555 1_555
H41 C51 1_555 1_555
C52 C50 1_555 1_555
C53 O10 1_555 1_555
H42 C53 1_555 1_555
H43 C53 1_555 1_555
H44 C53 1_555 1_555
C54 C52 1_555 1_555
H45 C54 1_555 1_555
C55 C48 1_555 1_555
C56 C55 1_555 1_555
H46 C56 1_555 1_555
H47 C56 1_555 1_555
C57 N3 1_555 1_555
H48 C57 1_555 1_555
H49 C57 1_555 1_555
C58 O6 1_555 1_555
H50 C58 1_555 1_555
H51 C58 1_555 1_555
H52 C58 1_555 1_555
C5 C6 1_555 1_555
C8 C9 1_555 1_555
C12 C13 1_555 1_555
C18 C19 1_555 1_555
C26 C27 1_555 1_555
C28 C29 1_555 1_555
C33 C34 1_555 1_555
C36 C37 1_555 1_555
C40 C41 1_555 1_555
C46 C47 1_555 1_555
C54 C55 1_555 1_555
C56 C57 1_555 1_555

#END
