
#######################################################################
#
#                 Cambridge Crystallographic Data Centre
#                                CCDC 
#
#######################################################################
#
# If this CIF has been generated from an entry in the Cambridge 
# Structural Database, then it will include bibliographic, chemical, 
# crystal, experimental, refinement or atomic coordinate data resulting 
# from the CCDC's data processing and validation procedures.
#
#######################################################################

data_GIBWUM01
_chemical_formula_moiety         'C13 H14 O4'
_chemical_name_systematic        '4,7-dioxo-7-phenylheptanoic acid'
_symmetry_cell_setting           monoclinic
_symmetry_space_group_name_H-M   'P 21/c'
_symmetry_Int_Tables_number      14
_space_group_name_Hall           '-P 2ybc'
loop_
_symmetry_equiv_pos_site_id
_symmetry_equiv_pos_as_xyz
1 x,y,z
2 -x,1/2+y,1/2-z
3 -x,-y,-z
4 x,1/2-y,1/2+z
_cell_length_a                   5.24420(10)
_cell_length_b                   28.3447(6)
_cell_length_c                   7.5884(2)
_cell_angle_alpha                90
_cell_angle_beta                 101.392(2)
_cell_angle_gamma                90
_cell_volume                     1105.76
_exptl_crystal_colour            colorless
_exptl_crystal_description       plate
_cell_formula_units_Z            4
loop_
_atom_site_label
_atom_site_type_symbol
_atom_site_fract_x
_atom_site_fract_y
_atom_site_fract_z
O1 O 0.80798(15) 0.47859(3) 0.55486(10)
H1 H 0.949(7) 0.4930(12) 0.534(4)
O2 O 0.82404(14) 0.37420(3) 0.76431(10)
O3 O 1.00257(15) 0.50027(3) 0.82770(12)
O4 O 0.19605(16) 0.25285(3) 0.48381(12)
C1 C 0.72689(19) 0.18465(4) 0.73911(13)
H2 H 0.8506 0.2089 0.7775
C2 C 0.48390(19) 0.19577(3) 0.63549(13)
C3 C 0.58978(19) 0.46085(3) 0.79452(13)
H3 H 0.4669 0.4869 0.8023
H4 H 0.6556 0.4493 0.9182
C4 C 0.43663(19) 0.33259(3) 0.62669(14)
H5 H 0.3797 0.3364 0.4951
H6 H 0.2784 0.3314 0.6793
C5 C 0.8144(2) 0.48021(3) 0.72225(15)
C6 C 0.57873(19) 0.28577(3) 0.66287(13)
H7 H 0.7348 0.2860 0.6078
H8 H 0.6366 0.2813 0.7941
C7 C 0.44131(18) 0.42109(3) 0.68525(13)
H9 H 0.2762 0.4158 0.7268
H10 H 0.3973 0.4307 0.5574
C8 C 0.7873(2) 0.13791(4) 0.78597(13)
H11 H 0.9523 0.1303 0.8572
C9 C 0.59298(19) 0.37531(3) 0.69990(13)
C10 C 0.6078(2) 0.10242(4) 0.72918(14)
H12 H 0.6496 0.0706 0.7623
C11 C 0.30463(19) 0.15978(4) 0.57688(13)
H13 H 0.1400 0.1672 0.5048
C12 C 0.3668(2) 0.11332(4) 0.62382(14)
H14 H 0.2447 0.0889 0.5840
C13 C 0.40229(19) 0.24533(3) 0.58574(13)
H15? H 0.983(6) 0.5005(11) 0.929(4)
loop_
_geom_bond_atom_site_label_1
_geom_bond_atom_site_label_2
_geom_bond_site_symmetry_1
_geom_bond_site_symmetry_2
O1 H1 1_555 1_555
O2 C9 1_555 1_555
O3 C5 1_555 1_555
O4 C13 1_555 1_555
C1 H2 1_555 1_555
C2 C1 1_555 1_555
C3 H3 1_555 1_555
H4 C3 1_555 1_555
C4 H5 1_555 1_555
H6 C4 1_555 1_555
C5 O1 1_555 1_555
C6 C4 1_555 1_555
H7 C6 1_555 1_555
H8 C6 1_555 1_555
C7 C3 1_555 1_555
H9 C7 1_555 1_555
H10 C7 1_555 1_555
C8 C1 1_555 1_555
H11 C8 1_555 1_555
C9 C4 1_555 1_555
C10 C8 1_555 1_555
H12 C10 1_555 1_555
C11 C2 1_555 1_555
H13 C11 1_555 1_555
C12 C10 1_555 1_555
H14 C12 1_555 1_555
C13 C2 1_555 1_555
C3 C5 1_555 1_555
C6 C13 1_555 1_555
C7 C9 1_555 1_555
C11 C12 1_555 1_555

#END
