
#######################################################################
#
#                 Cambridge Crystallographic Data Centre
#                                CCDC 
#
#######################################################################
#
# If this CIF has been generated from an entry in the Cambridge 
# Structural Database, then it will include bibliographic, chemical, 
# crystal, experimental, refinement or atomic coordinate data resulting 
# from the CCDC's data processing and validation procedures.
#
#######################################################################

data_GICJAG
_chemical_formula_moiety         'C18 H17 N1 O2'
_chemical_name_systematic        
(1SR,4RS,7SR)-7-(2-hydroxyphenyl)-2-phenyl-2-azabicyclo[2.2.1]heptan-3-one
_symmetry_cell_setting           monoclinic
_symmetry_space_group_name_H-M   'P 21/c'
_symmetry_Int_Tables_number      14
_space_group_name_Hall           '-P 2ybc'
loop_
_symmetry_equiv_pos_site_id
_symmetry_equiv_pos_as_xyz
1 x,y,z
2 -x,1/2+y,1/2-z
3 -x,-y,-z
4 x,1/2-y,1/2+z
_cell_length_a                   8.57957(13)
_cell_length_b                   9.11553(18)
_cell_length_c                   18.2009(3)
_cell_angle_alpha                90
_cell_angle_beta                 95.3552(15)
_cell_angle_gamma                90
_cell_volume                     1417.23
_exptl_crystal_colour            colorless
_exptl_crystal_description       block
_chemical_melting_point          '210.4-212.3 deg.C'
_cell_formula_units_Z            4
_exptl_crystal_recrystallization_method 'ethyl acetate/methanol'
loop_
_atom_site_label
_atom_site_type_symbol
_atom_site_fract_x
_atom_site_fract_y
_atom_site_fract_z
O1 O -0.03305(10) 0.25979(13) 0.55540(6)
O2 O 0.65444(10) 0.19933(13) 0.55740(6)
H1 H 0.7445 0.2262 0.5536
N1 N 0.20503(11) 0.26952(13) 0.62689(6)
C1 C 0.39813(14) 0.22542(15) 0.50091(7)
C2 C 0.09823(14) 0.21199(16) 0.57401(7)
C3 C 0.34710(13) 0.11578(14) 0.55556(7)
H2 H 0.4117 0.0273 0.5548
C4 C 0.55674(14) 0.26320(15) 0.50338(7)
C5 C 0.18117(13) 0.38561(15) 0.67563(7)
C6 C 0.34083(14) 0.16812(15) 0.63585(7)
H3 H 0.4380 0.2114 0.6588
C7 C 0.17313(14) 0.07330(16) 0.54806(8)
H4 H 0.1315 0.0370 0.4995
C8 C 0.29617(15) 0.28965(18) 0.44616(8)
H5 H 0.1903 0.2661 0.4433
C9 C 0.26258(16) 0.38851(17) 0.74553(8)
H6 H 0.3281 0.3108 0.7608
C10 C 0.61006(15) 0.35991(17) 0.45275(8)
H7 H 0.7159 0.3833 0.4549
C11 C 0.08057(15) 0.50146(16) 0.65402(8)
H8 H 0.0241 0.5006 0.6078
C12 C 0.50576(19) 0.42175(19) 0.39900(8)
H9 H 0.5417 0.4865 0.3649
C13 C 0.34872(18) 0.3878(2) 0.39583(8)
H10 H 0.2784 0.4305 0.3601
C14 C 0.28662(18) 0.02850(18) 0.67342(9)
H11 H 0.2376 0.0516 0.7179
H12 H 0.3731 -0.0384 0.6855
C15 C 0.16674(17) -0.03603(18) 0.61295(9)
H13 H 0.1970 -0.1339 0.5989
H14 H 0.0627 -0.0398 0.6296
C16 C 0.06549(19) 0.61759(18) 0.70182(10)
H15 H -0.0016 0.6945 0.6873
C17 C 0.2469(2) 0.5057(2) 0.79237(9)
H16 H 0.3028 0.5070 0.8387
C18 C 0.1481(2) 0.6216(2) 0.77066(10)
H17 H 0.1377 0.7008 0.8020
loop_
_geom_bond_atom_site_label_1
_geom_bond_atom_site_label_2
_geom_bond_site_symmetry_1
_geom_bond_site_symmetry_2
O1 C2 1_555 1_555
O2 H1 1_555 1_555
N1 C2 1_555 1_555
C1 C3 1_555 1_555
C2 C7 1_555 1_555
C3 H2 1_555 1_555
C4 O2 1_555 1_555
C5 N1 1_555 1_555
C6 N1 1_555 1_555
H3 C6 1_555 1_555
C7 C3 1_555 1_555
H4 C7 1_555 1_555
C8 C1 1_555 1_555
H5 C8 1_555 1_555
C9 C5 1_555 1_555
H6 C9 1_555 1_555
C10 C4 1_555 1_555
H7 C10 1_555 1_555
C11 C5 1_555 1_555
H8 C11 1_555 1_555
C12 C10 1_555 1_555
H9 C12 1_555 1_555
C13 C8 1_555 1_555
H10 C13 1_555 1_555
C14 C6 1_555 1_555
H11 C14 1_555 1_555
H12 C14 1_555 1_555
C15 C7 1_555 1_555
H13 C15 1_555 1_555
H14 C15 1_555 1_555
C16 C11 1_555 1_555
H15 C16 1_555 1_555
C17 C9 1_555 1_555
H16 C17 1_555 1_555
C18 C16 1_555 1_555
H17 C18 1_555 1_555
C1 C4 1_555 1_555
C3 C6 1_555 1_555
C12 C13 1_555 1_555
C14 C15 1_555 1_555
C17 C18 1_555 1_555

#END
