
#######################################################################
#
#                 Cambridge Crystallographic Data Centre
#                                CCDC 
#
#######################################################################
#
# If this CIF has been generated from an entry in the Cambridge 
# Structural Database, then it will include bibliographic, chemical, 
# crystal, experimental, refinement or atomic coordinate data resulting 
# from the CCDC's data processing and validation procedures.
#
#######################################################################

data_GICMUA
_chemical_formula_moiety         'C15 H17 Cl1 O1'
_chemical_name_systematic        \a-(2-Norbornyl)-4-chloroacetophenone
_symmetry_cell_setting           monoclinic
_symmetry_space_group_name_H-M   'P 21/a'
_symmetry_Int_Tables_number      14
_space_group_name_Hall           '-P 2yab'
loop_
_symmetry_equiv_pos_site_id
_symmetry_equiv_pos_as_xyz
1 x,y,z
2 1/2-x,1/2+y,-z
3 -x,-y,-z
4 1/2+x,1/2-y,z
_cell_length_a                   8.836(2)
_cell_length_b                   10.222(1)
_cell_length_c                   14.578(2)
_cell_angle_alpha                90
_cell_angle_beta                 95.828(7)
_cell_angle_gamma                90
_cell_volume                     1309.9
_exptl_crystal_colour            colorless
_cell_formula_units_Z            4
loop_
_atom_site_label
_atom_site_type_symbol
_atom_site_fract_x
_atom_site_fract_y
_atom_site_fract_z
Cl1 Cl 0.30240(10) 0.38053(9) 0.80857(5)
O1 O 0.4605(3) 0.2392(2) 0.3830(1)
C1 C 0.3662(3) 0.3487(2) 0.5069(2)
C2 C 0.2846(3) 0.4508(3) 0.5401(2)
C3 C 0.2655(4) 0.4616(3) 0.6324(2)
C4 C 0.3286(3) 0.3694(3) 0.6927(2)
C5 C 0.4129(4) 0.2679(3) 0.6630(2)
C6 C 0.4311(3) 0.2583(3) 0.5701(2)
C7 C 0.3866(3) 0.3315(3) 0.4073(2)
C8 C 0.3149(4) 0.4285(3) 0.3390(2)
C9 C 0.3326(3) 0.3975(2) 0.2381(2)
C10 C 0.2400(4) 0.2773(3) 0.2015(2)
C11 C 0.1398(4) 0.3302(4) 0.1198(2)
C12 C 0.2355(5) 0.3611(5) 0.0416(2)
C13 C 0.3272(6) 0.4811(4) 0.0783(3)
C14 C 0.2715(4) 0.5058(4) 0.1730(2)
C15 C 0.1036(5) 0.4659(5) 0.1543(3)
H1 H 0.240(3) 0.512(2) 0.498(2)
H2 H 0.202(3) 0.530(3) 0.651(2)
H3 H 0.467(3) 0.211(3) 0.707(2)
H4 H 0.493(3) 0.191(3) 0.548(2)
H5 H 0.362(3) 0.513(3) 0.358(2)
H6 H 0.208(3) 0.432(3) 0.348(2)
H7 H 0.443(3) 0.387(2) 0.232(1)
H8 H 0.313(4) 0.203(4) 0.180(2)
H9 H 0.180(3) 0.244(3) 0.251(2)
H10 H 0.056(4) 0.275(3) 0.100(2)
H11 H 0.171(4) 0.377(3) -0.013(2)
H12 H 0.309(4) 0.283(4) 0.025(2)
H13 H 0.306(4) 0.561(4) 0.041(3)
H14 H 0.452(5) 0.474(4) 0.082(3)
H15 H 0.294(3) 0.590(3) 0.197(2)
H16 H 0.049(4) 0.463(3) 0.215(2)
H17 H 0.055(5) 0.518(4) 0.111(3)
loop_
_geom_bond_atom_site_label_1
_geom_bond_atom_site_label_2
_geom_bond_site_symmetry_1
_geom_bond_site_symmetry_2
Cl1 C4 1_555 1_555
O1 C7 1_555 1_555
C1 C2 1_555 1_555
C2 C3 1_555 1_555
C3 C4 1_555 1_555
C4 C5 1_555 1_555
C5 C6 1_555 1_555
C6 C1 1_555 1_555
C7 C1 1_555 1_555
C8 C7 1_555 1_555
C9 C8 1_555 1_555
C10 C9 1_555 1_555
C11 C10 1_555 1_555
C12 C11 1_555 1_555
C13 C12 1_555 1_555
C14 C9 1_555 1_555
C15 C11 1_555 1_555
H1 C2 1_555 1_555
H2 C3 1_555 1_555
H3 C5 1_555 1_555
H4 C6 1_555 1_555
H5 C8 1_555 1_555
H6 C8 1_555 1_555
H7 C9 1_555 1_555
H8 C10 1_555 1_555
H9 C10 1_555 1_555
H10 C11 1_555 1_555
H11 C12 1_555 1_555
H12 C12 1_555 1_555
H13 C13 1_555 1_555
H14 C13 1_555 1_555
H15 C14 1_555 1_555
H16 C15 1_555 1_555
H17 C15 1_555 1_555
C13 C14 1_555 1_555
C14 C15 1_555 1_555

#END
