
#######################################################################
#
#                 Cambridge Crystallographic Data Centre
#                                CCDC 
#
#######################################################################
#
# If this CIF has been generated from an entry in the Cambridge 
# Structural Database, then it will include bibliographic, chemical, 
# crystal, experimental, refinement or atomic coordinate data resulting 
# from the CCDC's data processing and validation procedures.
#
#######################################################################

data_GICSIX
_chemical_formula_moiety         'C36 H45 N7'
_chemical_name_systematic        
1-(1-butyl-1H-benzimidazol-2-yl)-N,N-bis[(1-butyl-1H-benzimidazol-2-yl)methyl]methanamine
_symmetry_cell_setting           rhombohedral
_symmetry_space_group_name_H-M   'R -3'
_symmetry_Int_Tables_number      148
_space_group_name_Hall           '-R 3'
loop_
_symmetry_equiv_pos_site_id
_symmetry_equiv_pos_as_xyz
1 x,y,z
2 -y,x-y,z
3 -x+y,-x,z
4 2/3+x,1/3+y,1/3+z
5 2/3-y,1/3+x-y,1/3+z
6 2/3-x+y,1/3-x,1/3+z
7 1/3+x,2/3+y,2/3+z
8 1/3-y,2/3+x-y,2/3+z
9 1/3-x+y,2/3-x,2/3+z
10 -x,-y,-z
11 y,-x+y,-z
12 x-y,x,-z
13 1/3-x,2/3-y,2/3-z
14 1/3+y,2/3-x+y,2/3-z
15 1/3+x-y,2/3+x,2/3-z
16 2/3-x,1/3-y,1/3-z
17 2/3+y,1/3-x+y,1/3-z
18 2/3+x-y,1/3+x,1/3-z
_cell_length_a                   17.2984(7)
_cell_length_b                   17.2984(7)
_cell_length_c                   18.7912(9)
_cell_angle_alpha                90
_cell_angle_beta                 90
_cell_angle_gamma                120
_cell_volume                     4869.64
_exptl_crystal_colour            colorless
_exptl_crystal_description       prism
_cell_formula_units_Z            6
loop_
_atom_site_label
_atom_site_type_symbol
_atom_site_fract_x
_atom_site_fract_y
_atom_site_fract_z
N1 N 0.3333 0.6667 0.53286(9)
N2 N 0.52113(7) 0.66540(7) 0.53742(6)
N3 N 0.42952(7) 0.55890(7) 0.46105(5)
C1 C 0.35953(8) 0.60233(8) 0.55922(6)
H1 H 0.3084 0.5409 0.5541
H2 H 0.3745 0.6133 0.6104
C2 C 0.43767(8) 0.60980(8) 0.51967(6)
C3 C 0.57139(8) 0.65070(8) 0.48742(6)
C4 C 0.66370(9) 0.69063(9) 0.48059(8)
H3 H 0.7027 0.7361 0.5125
C5 C 0.69683(10) 0.66203(10) 0.42605(8)
H4 H 0.7596 0.6880 0.4209
C6 C 0.64037(10) 0.59583(10) 0.37822(8)
H5 H 0.6655 0.5781 0.3411
C7 C 0.54838(10) 0.55567(9) 0.38396(7)
H6 H 0.5097 0.5107 0.3516
C8 C 0.51523(8) 0.58421(8) 0.43940(6)
C9 C 0.34811(9) 0.49195(8) 0.42577(7)
H7 H 0.2976 0.4706 0.4595
H8 H 0.3550 0.4403 0.4126
C10 C 0.32654(10) 0.52742(9) 0.35974(8)
H9 H 0.3771 0.5491 0.3260
H10 H 0.3189 0.5786 0.3728
C11 C 0.24219(10) 0.45654(12) 0.32364(9)
H11 H 0.1903 0.4423 0.3544
H12 H 0.2457 0.4015 0.3182
C12 C 0.22757(16) 0.48563(18) 0.25089(12)
H13 H 0.2789 0.5000 0.2202
H14 H 0.2211 0.5385 0.2562
H15 H 0.1733 0.4371 0.2294
N2A N 0.33460(7) 0.85573(10) 0.53742(6)
N3A N 0.44110(7) 0.87062(10) 0.46105(5)
C1A C 0.39767(8) 0.75720(11) 0.55922(6)
H1A H 0.4591 0.7675 0.5541
H2A H 0.3867 0.7612 0.6104
C2A C 0.39020(8) 0.82787(11) 0.51967(6)
C3A C 0.34930(8) 0.92069(11) 0.48742(6)
C4A C 0.30937(9) 0.97307(13) 0.48059(8)
H3A H 0.2639 0.9666 0.5125
C5A C 0.33797(10) 1.03480(14) 0.42605(8)
H4A H 0.3120 1.0716 0.4209
C6A C 0.40417(10) 1.04454(14) 0.37822(8)
H5A H 0.4219 1.0874 0.3411
C7A C 0.44433(9) 0.99271(13) 0.38396(7)
H6A H 0.4893 0.9990 0.3516
C8A C 0.41579(8) 0.93102(11) 0.43940(6)
C9A C 0.50805(8) 0.85616(12) 0.42577(7)
H7A H 0.5294 0.8270 0.4595
H8A H 0.5597 0.9147 0.4126
C10A C 0.47258(9) 0.79912(13) 0.35974(8)
H9A H 0.4509 0.8280 0.3260
H10A H 0.4214 0.7403 0.3728
C11A C 0.54346(12) 0.78565(16) 0.32364(9)
H11A H 0.5577 0.7480 0.3544
H12A H 0.5985 0.8442 0.3182
C12A C 0.51437(18) 0.74194(24) 0.25089(12)
H13A H 0.5000 0.7789 0.2202
H14A H 0.4615 0.6826 0.2562
H15A H 0.5629 0.7362 0.2294
N2B N 0.14427(10) 0.47887(7) 0.53742(6)
N3B N 0.12938(10) 0.57048(7) 0.46105(5)
C1B C 0.24280(11) 0.64047(8) 0.55922(6)
H1B H 0.2325 0.6916 0.5541
H2B H 0.2388 0.6255 0.6104
C2B C 0.17213(11) 0.56233(8) 0.51967(6)
C3B C 0.07931(11) 0.42861(8) 0.48742(6)
C4B C 0.02693(13) 0.33630(9) 0.48059(8)
H3B H 0.0334 0.2973 0.5125
C5B C -0.03480(14) 0.30317(10) 0.42605(8)
H4B H -0.0716 0.2404 0.4209
C6B C -0.04454(14) 0.35963(10) 0.37822(8)
H5B H -0.0874 0.3345 0.3411
C7B C 0.00729(13) 0.45162(10) 0.38396(7)
H6B H 0.0010 0.4903 0.3516
C8B C 0.06898(11) 0.48477(8) 0.43940(6)
C9B C 0.14384(12) 0.65189(9) 0.42577(7)
H7B H 0.1730 0.7024 0.4595
H8B H 0.0853 0.6450 0.4126
C10B C 0.20088(13) 0.67346(10) 0.35974(8)
H9B H 0.1720 0.6229 0.3260
H10B H 0.2597 0.6811 0.3728
C11B C 0.21435(16) 0.75781(10) 0.32364(9)
H11B H 0.2520 0.8097 0.3544
H12B H 0.1558 0.7543 0.3182
C12B C 0.25806(24) 0.77243(16) 0.25089(12)
H13B H 0.2211 0.7211 0.2202
H14B H 0.3174 0.7789 0.2562
H15B H 0.2638 0.8267 0.2294
loop_
_geom_bond_atom_site_label_1
_geom_bond_atom_site_label_2
_geom_bond_site_symmetry_1
_geom_bond_site_symmetry_2
N1 C1 1_555 1_555
N2 C2 1_555 1_555
N3 C2 1_555 1_555
C1 H1 1_555 1_555
H2 C1 1_555 1_555
C2 C1 1_555 1_555
C3 N2 1_555 1_555
C4 C3 1_555 1_555
H3 C4 1_555 1_555
C5 C4 1_555 1_555
H4 C5 1_555 1_555
C6 C5 1_555 1_555
H5 C6 1_555 1_555
C7 C6 1_555 1_555
H6 C7 1_555 1_555
C8 N3 1_555 1_555
C9 N3 1_555 1_555
H7 C9 1_555 1_555
H8 C9 1_555 1_555
C10 C9 1_555 1_555
H9 C10 1_555 1_555
H10 C10 1_555 1_555
C11 C10 1_555 1_555
H11 C11 1_555 1_555
H12 C11 1_555 1_555
C12 C11 1_555 1_555
H13 C12 1_555 1_555
H14 C12 1_555 1_555
H15 C12 1_555 1_555
N2A C2A 1_555 1_555
N3A C2A 1_555 1_555
C1A N1 1_555 1_555
H1A C1A 1_555 1_555
H2A C1A 1_555 1_555
C2A C1A 1_555 1_555
C3A N2A 1_555 1_555
C4A C3A 1_555 1_555
H3A C4A 1_555 1_555
C5A C4A 1_555 1_555
H4A C5A 1_555 1_555
C6A C5A 1_555 1_555
H5A C6A 1_555 1_555
C7A C6A 1_555 1_555
H6A C7A 1_555 1_555
C8A N3A 1_555 1_555
C9A N3A 1_555 1_555
H7A C9A 1_555 1_555
H8A C9A 1_555 1_555
C10A C9A 1_555 1_555
H9A C10A 1_555 1_555
H10A C10A 1_555 1_555
C11A C10A 1_555 1_555
H11A C11A 1_555 1_555
H12A C11A 1_555 1_555
C12A C11A 1_555 1_555
H13A C12A 1_555 1_555
H14A C12A 1_555 1_555
H15A C12A 1_555 1_555
N2B C2B 1_555 1_555
N3B C2B 1_555 1_555
C1B N1 1_555 1_555
H1B C1B 1_555 1_555
H2B C1B 1_555 1_555
C2B C1B 1_555 1_555
C3B N2B 1_555 1_555
C4B C3B 1_555 1_555
H3B C4B 1_555 1_555
C5B C4B 1_555 1_555
H4B C5B 1_555 1_555
C6B C5B 1_555 1_555
H5B C6B 1_555 1_555
C7B C6B 1_555 1_555
H6B C7B 1_555 1_555
C8B N3B 1_555 1_555
C9B N3B 1_555 1_555
H7B C9B 1_555 1_555
H8B C9B 1_555 1_555
C10B C9B 1_555 1_555
H9B C10B 1_555 1_555
H10B C10B 1_555 1_555
C11B C10B 1_555 1_555
H11B C11B 1_555 1_555
H12B C11B 1_555 1_555
C12B C11B 1_555 1_555
H13B C12B 1_555 1_555
H14B C12B 1_555 1_555
H15B C12B 1_555 1_555
C3 C8 1_555 1_555
C7 C8 1_555 1_555
C3A C8A 1_555 1_555
C7A C8A 1_555 1_555
C3B C8B 1_555 1_555
C7B C8B 1_555 1_555

#END
