
#######################################################################
#
#                 Cambridge Crystallographic Data Centre
#                                CCDC 
#
#######################################################################
#
# If this CIF has been generated from an entry in the Cambridge 
# Structural Database, then it will include bibliographic, chemical, 
# crystal, experimental, refinement or atomic coordinate data resulting 
# from the CCDC's data processing and validation procedures.
#
#######################################################################

data_GICSOC
_chemical_formula_moiety         'C30 H36 N6 O3 S1,H2 O1,H1 Br1'
_chemical_name_systematic        
'N-(2-Naphthylmethyl)-3-((4-(pentoxy)phenyl)sulfonyl)-5-(1H-tetrazol-1-ylmethyl)-7-azabicyclo[2.2.1]heptan-2-amine hydrobromide monohydrate'
_symmetry_cell_setting           monoclinic
_symmetry_space_group_name_H-M   'P 21/n'
_symmetry_Int_Tables_number      14
_space_group_name_Hall           '-P 2yn'
loop_
_symmetry_equiv_pos_site_id
_symmetry_equiv_pos_as_xyz
1 x,y,z
2 1/2-x,1/2+y,1/2-z
3 -x,-y,-z
4 1/2+x,1/2-y,1/2+z
_cell_length_a                   5.5782(5)
_cell_length_b                   35.645(3)
_cell_length_c                   15.1313(12)
_cell_angle_alpha                90
_cell_angle_beta                 91.453(6)
_cell_angle_gamma                90
_cell_volume                     3007.66
_exptl_crystal_colour            colorless
_exptl_crystal_description       plate
_cell_formula_units_Z            4
loop_
_atom_site_label
_atom_site_type_symbol
_atom_site_fract_x
_atom_site_fract_y
_atom_site_fract_z
Br1 Br 0.37270(19) 0.58236(2) 0.63058(6)
H1 H 0.606(9) 0.586(3) 0.670(7)
S1 S -0.2142(4) 0.47009(6) 0.84742(14)
O1 O -0.2172(11) 0.49573(14) 0.9207(3)
O2 O -0.4416(11) 0.45953(15) 0.8082(3)
O3 O 0.3260(11) 0.33670(15) 0.9571(4)
N1 N 0.1109(13) 0.49369(17) 0.6199(4)
H2 H 0.236(10) 0.5139(15) 0.626(4)
N2 N 0.1212(15) 0.3837(2) 0.6288(5)
N3 N 0.3611(16) 0.3848(2) 0.6439(5)
N4 N 0.4237(15) 0.3543(2) 0.6847(5)
N5 N 0.2203(16) 0.3326(2) 0.6971(5)
N6 N -0.1296(14) 0.56087(18) 0.7247(4)
H3 H 0.034(8) 0.569(2) 0.706(6)
C1 C -0.0396(16) 0.4920(2) 0.7644(5)
H4 H 0.1050 0.5072 0.7969
C2 C 0.0694(17) 0.4668(2) 0.6906(5)
H5 H 0.2279 0.4516 0.7119
C3 C -0.1238(17) 0.4422(2) 0.6468(5)
H6 H -0.2281 0.4279 0.6955
C4 C -0.2755(17) 0.4712(2) 0.5959(5)
H7 H -0.4546 0.4727 0.6211
H8 H -0.2860 0.4646 0.5262
C5 C -0.1375(17) 0.5079(2) 0.6129(5)
H9 H -0.1674 0.5294 0.5635
C6 C -0.1923(17) 0.5201(2) 0.7103(5)
H10 H -0.3799 0.5156 0.7229
C7 C -0.0613(18) 0.4297(2) 0.8813(6)
C8 C 0.1533(17) 0.4333(2) 0.9315(5)
H11 H 0.2207 0.4601 0.9492
C9 C 0.2739(17) 0.4013(2) 0.9570(5)
H12 H 0.4337 0.4034 0.9961
C10 C 0.1864(19) 0.3658(2) 0.9313(6)
C11 C -0.0310(17) 0.3623(2) 0.8829(6)
H13 H -0.1012 0.3355 0.8667
C12 C -0.1530(17) 0.3948(2) 0.8566(5)
H14 H -0.3140 0.3929 0.8181
C13 C 0.2562(18) 0.2998(2) 0.9270(6)
H15 H 0.2462 0.2989 0.8556
H16 H 0.0828 0.2924 0.9519
C14 C 0.4446(18) 0.2730(2) 0.9616(6)
H17 H 0.4480 0.2735 1.0330
H18 H 0.6184 0.2819 0.9397
C15 C 0.395(2) 0.2326(2) 0.9292(6)
H19 H 0.2253 0.2233 0.9543
H20 H 0.3801 0.2325 0.8579
C16 C 0.592(2) 0.2049(3) 0.9588(6)
H21 H 0.7602 0.2136 0.9318
H22 H 0.6105 0.2056 1.0300
C17 C 0.537(2) 0.1651(2) 0.9292(6)
H23 H 0.3810 0.1549 0.9629
H24 H 0.6884 0.1473 0.9450
H25 H 0.5014 0.1647 0.8587
C18 C -0.0117(18) 0.4141(2) 0.5813(6)
H26 H -0.1520 0.4020 0.5400
H27 H 0.1094 0.4289 0.5390
C19 C 0.043(2) 0.3514(3) 0.6625(6)
H28 H -0.1382 0.3425 0.6612
C20 C -0.1716(18) 0.5739(2) 0.8155(5)
H29 H -0.0577 0.5585 0.8614
H30 H -0.3558 0.5686 0.8319
C21 C -0.1189(17) 0.6162(2) 0.8245(5)
C22 C 0.0938(18) 0.6284(2) 0.8684(6)
H31 H 0.2166 0.6083 0.8946
C23 C 0.1419(18) 0.6656(2) 0.8773(6)
H32 H 0.3023 0.6743 0.9102
C24 C -0.0217(18) 0.6930(2) 0.8426(6)
C25 C -0.2359(17) 0.6812(2) 0.8000(5)
C26 C -0.2816(17) 0.6422(2) 0.7924(5)
H33 H -0.4436 0.6329 0.7616
C27 C -0.3980(18) 0.7080(2) 0.7658(6)
H34 H -0.5603 0.6990 0.7346
C28 C -0.348(2) 0.7457(3) 0.7726(7)
H35 H -0.4670 0.7658 0.7442
C29 C -0.136(2) 0.7571(3) 0.8181(7)
H36 H -0.1012 0.7861 0.8259
C30 C 0.0254(19) 0.7319(2) 0.8523(6)
H37 H 0.1838 0.7412 0.8856
O4 O 0.6695(17) 0.4626(2) 0.0872(5)
H38 H 0.73(2) 0.4895(14) 0.081(8)
H39 H 0.68(2) 0.463(4) 0.1555(15)
loop_
_geom_bond_atom_site_label_1
_geom_bond_atom_site_label_2
_geom_bond_site_symmetry_1
_geom_bond_site_symmetry_2
Br1 H1 1_555 1_555
S1 O1 1_555 1_555
O2 S1 1_555 1_555
O3 C10 1_555 1_555
N1 H2 1_555 1_555
N2 N3 1_555 1_555
N3 N4 1_555 1_555
N4 N5 1_555 1_555
N5 C19 1_555 1_555
N6 H3 1_555 1_555
C1 S1 1_555 1_555
H4 C1 1_555 1_555
C2 N1 1_555 1_555
H5 C2 1_555 1_555
C3 C2 1_555 1_555
H6 C3 1_555 1_555
C4 C3 1_555 1_555
H7 C4 1_555 1_555
H8 C4 1_555 1_555
C5 N1 1_555 1_555
H9 C5 1_555 1_555
C6 N6 1_555 1_555
H10 C6 1_555 1_555
C7 S1 1_555 1_555
C8 C7 1_555 1_555
H11 C8 1_555 1_555
C9 C8 1_555 1_555
H12 C9 1_555 1_555
C10 C9 1_555 1_555
C11 C10 1_555 1_555
H13 C11 1_555 1_555
C12 C7 1_555 1_555
H14 C12 1_555 1_555
C13 O3 1_555 1_555
H15 C13 1_555 1_555
H16 C13 1_555 1_555
C14 C13 1_555 1_555
H17 C14 1_555 1_555
H18 C14 1_555 1_555
C15 C14 1_555 1_555
H19 C15 1_555 1_555
H20 C15 1_555 1_555
C16 C15 1_555 1_555
H21 C16 1_555 1_555
H22 C16 1_555 1_555
C17 C16 1_555 1_555
H23 C17 1_555 1_555
H24 C17 1_555 1_555
H25 C17 1_555 1_555
C18 N2 1_555 1_555
H26 C18 1_555 1_555
H27 C18 1_555 1_555
C19 N2 1_555 1_555
H28 C19 1_555 1_555
C20 N6 1_555 1_555
H29 C20 1_555 1_555
H30 C20 1_555 1_555
C21 C20 1_555 1_555
C22 C21 1_555 1_555
H31 C22 1_555 1_555
C23 C22 1_555 1_555
H32 C23 1_555 1_555
C24 C23 1_555 1_555
C25 C24 1_555 1_555
C26 C21 1_555 1_555
H33 C26 1_555 1_555
C27 C25 1_555 1_555
H34 C27 1_555 1_555
C28 C27 1_555 1_555
H35 C28 1_555 1_555
C29 C28 1_555 1_555
H36 C29 1_555 1_555
C30 C24 1_555 1_555
H37 C30 1_555 1_555
O4 H38 1_555 1_555
H39 O4 1_555 1_555
C1 C2 1_555 1_555
C1 C6 1_555 1_555
C3 C18 1_555 1_555
C4 C5 1_555 1_555
C5 C6 1_555 1_555
C11 C12 1_555 1_555
C25 C26 1_555 1_555
C29 C30 1_555 1_555

#END
