
#######################################################################
#
#                 Cambridge Crystallographic Data Centre
#                                CCDC 
#
#######################################################################
#
# If this CIF has been generated from an entry in the Cambridge 
# Structural Database, then it will include bibliographic, chemical, 
# crystal, experimental, refinement or atomic coordinate data resulting 
# from the CCDC's data processing and validation procedures.
#
#######################################################################

data_GICWAQ
_chemical_formula_moiety         'C26 H33 N3 O3,0.5(C7 H8)'
_chemical_name_systematic        
'2-(10-Methoxy-1,6-dimethyl-8\b-ergolinyl)ethyl 3,5-dimethyl-1H-2-pyrrolecarboxylate toluene solvate'
_chemical_properties_biological  'central nervous system activity'
_symmetry_cell_setting           monoclinic
_symmetry_space_group_name_H-M   'P 21'
_symmetry_Int_Tables_number      4
_space_group_name_Hall           'P 2yb'
loop_
_symmetry_equiv_pos_site_id
_symmetry_equiv_pos_as_xyz
1 x,y,z
2 -x,1/2+y,-z
_cell_length_a                   11.595(4)
_cell_length_b                   14.274(2)
_cell_length_c                   16.103(4)
_cell_angle_alpha                90
_cell_angle_beta                 100.19(3)
_cell_angle_gamma                90
_cell_volume                     2623.12
_exptl_crystal_colour            colorless
_chemical_melting_point          427-429K
_cell_formula_units_Z            4
loop_
_atom_site_label
_atom_site_type_symbol
_atom_site_fract_x
_atom_site_fract_y
_atom_site_fract_z
N1 N -0.4733(5) -0.0598(4) 0.0202(4)
C1 C -0.5504(7) -0.0410(6) -0.0525(4)
C2 C -0.4926(6) -0.0160(5) -0.1159(4)
C3 C -0.5297(6) 0.0124(5) -0.2051(4)
C4 C -0.4261(5) 0.0002(5) -0.2556(4)
N2 N -0.4579(5) 0.0422(4) -0.3383(4)
C5 C -0.3651(6) 0.0276(6) -0.3886(5)
C6 C -0.2510(6) 0.0715(5) -0.3488(4)
C7 C -0.2139(6) 0.0325(5) -0.2603(4)
C8 C -0.3116(6) 0.0457(5) -0.2072(4)
C9 C -0.2782(6) 0.0037(5) -0.1201(4)
C10 C -0.1672(6) -0.0038(5) -0.0713(4)
C11 C -0.1555(7) -0.0324(6) 0.0145(5)
C12 C -0.2499(6) -0.0519(6) 0.0530(5)
C13 C -0.3606(6) -0.0455(5) 0.0039(4)
C14 C -0.3733(5) -0.0183(5) -0.0804(4)
C15 C -0.5032(8) -0.0831(6) 0.1024(5)
C16 C -0.5681(6) 0.0031(6) -0.3855(5)
O1 O -0.3404(4) 0.1435(3) -0.2013(3)
C17 C -0.2536(7) 0.2033(6) -0.1542(5)
C18 C -0.1544(6) 0.0570(6) -0.4018(4)
C19 C -0.1657(7) 0.1172(5) -0.4800(5)
O2 O -0.1419(4) 0.2123(4) -0.4517(3)
C20 C -0.1434(6) 0.2773(5) -0.5118(5)
O3 O -0.1590(5) 0.2581(4) -0.5859(3)
C21 C -0.1277(6) 0.3707(5) -0.4797(5)
C22 C -0.1091(7) 0.4083(6) -0.3989(5)
C23 C -0.0890(10) 0.3566(8) -0.3147(5)
C24 C -0.1080(8) 0.5065(6) -0.4070(6)
C25 C -0.1293(6) 0.5276(5) -0.4921(5)
C26 C -0.1410(8) 0.6194(6) -0.5365(6)
N3 N -0.1378(5) 0.4454(4) -0.5345(4)
H1 H -0.6446 -0.0453 -0.0588
H2 H -0.5561 0.0850 -0.2073
H3 H -0.6029 -0.0305 -0.2337
H4 H -0.4103 -0.0738 -0.2624
H5 H -0.3928 0.0581 -0.4503
H6 H -0.3518 -0.0468 -0.3950
H7 H -0.2643 0.1463 -0.3455
H8 H -0.1360 0.0688 -0.2298
H9 H -0.1951 -0.0413 -0.2644
H10 H -0.0904 0.0116 -0.0982
H11 H -0.0685 -0.0387 0.0512
H12 H -0.2380 -0.0715 0.1187
H13 H -0.4267 -0.0987 0.1492
H14 H -0.5497 -0.0248 0.1237
H15 H -0.5598 -0.1437 0.0934
H16 H -0.6331 0.0314 -0.3520
H17 H -0.5802 0.0327 -0.4481
H18 H -0.5774 -0.0721 -0.3899
H19 H -0.2951 0.2695 -0.1458
H20 H -0.2108 0.1771 -0.0936
H21 H -0.1895 0.2130 -0.1946
H22 H -0.0711 0.0724 -0.3626
H23 H -0.1562 -0.0156 -0.4211
H24 H -0.1035 0.0951 -0.5187
H25 H -0.2534 0.1121 -0.5160
H26 H -0.0921 0.2837 -0.3328
H27 H 0.0006 0.3765 -0.2909
H28 H -0.1411 0.3670 -0.2661
H29 H -0.0931 0.5564 -0.3559
H30 H -0.0922 0.6698 -0.4940
H31 H -0.1090 0.6196 -0.5955
H32 H -0.2328 0.6380 -0.5477
H33 H -0.1508 0.4392 -0.6024
N4 N -0.5332(6) 0.2528(5) -0.5931(4)
C27 C -0.4604(7) 0.2255(6) -0.6487(5)
C28 C -0.5246(6) 0.2084(5) -0.7259(4)
C29 C -0.4961(6) 0.1798(5) -0.8096(4)
C30 C -0.5944(5) 0.2065(5) -0.8812(4)
N5 N -0.5744(5) 0.1630(4) -0.9599(4)
C31 C -0.6652(6) 0.1876(5) -1.0330(4)
C32 C -0.7856(6) 0.1546(5) -1.0196(4)
C33 C -0.8122(6) 0.2018(5) -0.9396(4)
C34 C -0.7196(5) 0.1770(5) -0.8634(4)
C35 C -0.7400(6) 0.2188(5) -0.7822(4)
C36 C -0.8450(6) 0.2461(5) -0.7589(5)
C37 C -0.8500(7) 0.2742(5) -0.6758(5)
C38 C -0.7523(7) 0.2758(5) -0.6131(5)
C39 C -0.6464(6) 0.2531(5) -0.6359(4)
C40 C -0.6410(6) 0.2258(5) -0.7187(4)
C41 C -0.4972(9) 0.2711(7) -0.5033(5)
C42 C -0.4597(6) 0.1870(6) -0.9813(5)
O4 O -0.7103(4) 0.0752(3) -0.8528(3)
C43 C -0.8110(7) 0.0305(6) -0.8343(5)
C44 C -0.8814(6) 0.1729(5) -1.0966(4)
C45 C -0.8666(7) 0.1167(5) -1.1735(5)
O5 O -0.8697(4) 0.0185(3) -1.1511(3)
C46 C -0.8582(6) -0.0448(5) -1.2109(4)
O6 O -0.8511(4) -0.0221(4) -1.2827(3)
C47 C -0.8533(5) -0.1416(5) -1.1795(4)
C48 C -0.8563(6) -0.1807(5) -1.1027(4)
C49 C -0.8695(7) -0.1335(6) -1.0215(4)
C50 C -0.8483(6) -0.2782(5) -1.1137(4)
C51 C -0.8396(6) -0.2950(5) -1.1970(5)
C52 C -0.8303(9) -0.3855(6) -1.2428(6)
N6 N -0.8417(5) -0.2115(4) -1.2368(4)
H34 H -0.3663 0.2189 -0.6325
H35 H -0.4835 0.1048 -0.8100
H36 H -0.4164 0.2144 -0.8187
H37 H -0.5939 0.2819 -0.8867
H38 H -0.6443 0.1546 -1.0889
H39 H -0.6667 0.2627 -1.0411
H40 H -0.7843 0.0794 -1.0118
H41 H -0.8137 0.2768 -0.9482
H42 H -0.8968 0.1784 -0.9285
H43 H -0.9243 0.2457 -0.8057
H44 H -0.9334 0.2952 -0.6606
H45 H -0.7582 0.2941 -0.5490
H46 H -0.4035 0.2706 -0.5005
H47 H -0.5264 0.3421 -0.4965
H48 H -0.5190 0.2284 -0.4529
H49 H -0.3891 0.1505 -0.9416
H50 H -0.4605 0.1686 -1.0464
H51 H -0.4471 0.2616 -0.9733
H52 H -0.7820 -0.0415 -0.8292
H53 H -0.8380 0.0515 -0.7762
H54 H -0.8840 0.0372 -0.8859
H55 H -0.9650 0.1552 -1.0801
H56 H -0.8804 0.2465 -1.1123
H57 H -0.9369 0.1323 -1.2252
H58 H -0.7837 0.1334 -1.1916
H59 H -0.8633 -0.0585 -1.0132
H60 H -0.9554 -0.1568 -1.0133
H61 H -0.8037 -0.1673 -0.9753
H62 H -0.8487 -0.3308 -1.0655
H63 H -0.8458 -0.4510 -1.2132
H64 H -0.8800 -0.3838 -1.3062
H65 H -0.7380 -0.3789 -1.2451
H66 H -0.8353 -0.2012 -1.3023
C53 C -0.24439 -0.17285 -0.66947
C54 C -0.26000 -0.08004 -0.64667
C55 C -0.37269 -0.04508 -0.64814
C56 C -0.46978 -0.10292 -0.67242
C57 C -0.45417 -0.19573 -0.69523
C58 C -0.34147 -0.23069 -0.69375
C59 C -0.57201 -0.04715 -0.66558
loop_
_geom_bond_atom_site_label_1
_geom_bond_atom_site_label_2
_geom_bond_site_symmetry_1
_geom_bond_site_symmetry_2
N1 C1 1_555 1_555
C1 C2 1_555 1_555
C2 C3 1_555 1_555
C3 C4 1_555 1_555
C4 N2 1_555 1_555
N2 C5 1_555 1_555
C5 C6 1_555 1_555
C6 C7 1_555 1_555
C7 C8 1_555 1_555
C8 C4 1_555 1_555
C9 C8 1_555 1_555
C10 C9 1_555 1_555
C11 C10 1_555 1_555
C12 C11 1_555 1_555
C13 N1 1_555 1_555
C14 C2 1_555 1_555
C15 N1 1_555 1_555
C16 N2 1_555 1_555
O1 C8 1_555 1_555
C17 O1 1_555 1_555
C18 C6 1_555 1_555
C19 C18 1_555 1_555
O2 C19 1_555 1_555
C20 O2 1_555 1_555
O3 C20 1_555 1_555
C21 C20 1_555 1_555
C22 C21 1_555 1_555
C23 C22 1_555 1_555
C24 C22 1_555 1_555
C25 C24 1_555 1_555
C26 C25 1_555 1_555
N3 C21 1_555 1_555
H1 C1 1_555 1_555
H2 C3 1_555 1_555
H3 C3 1_555 1_555
H4 C4 1_555 1_555
H5 C5 1_555 1_555
H6 C5 1_555 1_555
H7 C6 1_555 1_555
H8 C7 1_555 1_555
H9 C7 1_555 1_555
H10 C10 1_555 1_555
H11 C11 1_555 1_555
H12 C12 1_555 1_555
H13 C15 1_555 1_555
H14 C15 1_555 1_555
H15 C15 1_555 1_555
H16 C16 1_555 1_555
H17 C16 1_555 1_555
H18 C16 1_555 1_555
H19 C17 1_555 1_555
H20 C17 1_555 1_555
H21 C17 1_555 1_555
H22 C18 1_555 1_555
H23 C18 1_555 1_555
H24 C19 1_555 1_555
H25 C19 1_555 1_555
H26 C23 1_555 1_555
H27 C23 1_555 1_555
H28 C23 1_555 1_555
H29 C24 1_555 1_555
H30 C26 1_555 1_555
H31 C26 1_555 1_555
H32 C26 1_555 1_555
H33 N3 1_555 1_555
N4 C27 1_555 1_555
C27 C28 1_555 1_555
C28 C29 1_555 1_555
C29 C30 1_555 1_555
C30 N5 1_555 1_555
N5 C31 1_555 1_555
C31 C32 1_555 1_555
C32 C33 1_555 1_555
C33 C34 1_555 1_555
C34 C30 1_555 1_555
C35 C34 1_555 1_555
C36 C35 1_555 1_555
C37 C36 1_555 1_555
C38 C37 1_555 1_555
C39 N4 1_555 1_555
C40 C28 1_555 1_555
C41 N4 1_555 1_555
C42 N5 1_555 1_555
O4 C34 1_555 1_555
C43 O4 1_555 1_555
C44 C32 1_555 1_555
C45 C44 1_555 1_555
O5 C45 1_555 1_555
C46 O5 1_555 1_555
O6 C46 1_555 1_555
C47 C46 1_555 1_555
C48 C47 1_555 1_555
C49 C48 1_555 1_555
C50 C48 1_555 1_555
C51 C50 1_555 1_555
C52 C51 1_555 1_555
N6 C47 1_555 1_555
H34 C27 1_555 1_555
H35 C29 1_555 1_555
H36 C29 1_555 1_555
H37 C30 1_555 1_555
H38 C31 1_555 1_555
H39 C31 1_555 1_555
H40 C32 1_555 1_555
H41 C33 1_555 1_555
H42 C33 1_555 1_555
H43 C36 1_555 1_555
H44 C37 1_555 1_555
H45 C38 1_555 1_555
H46 C41 1_555 1_555
H47 C41 1_555 1_555
H48 C41 1_555 1_555
H49 C42 1_555 1_555
H50 C42 1_555 1_555
H51 C42 1_555 1_555
H52 C43 1_555 1_555
H53 C43 1_555 1_555
H54 C43 1_555 1_555
H55 C44 1_555 1_555
H56 C44 1_555 1_555
H57 C45 1_555 1_555
H58 C45 1_555 1_555
H59 C49 1_555 1_555
H60 C49 1_555 1_555
H61 C49 1_555 1_555
H62 C50 1_555 1_555
H63 C52 1_555 1_555
H64 C52 1_555 1_555
H65 C52 1_555 1_555
H66 N6 1_555 1_555
C53 C54 1_555 1_555
C54 C55 1_555 1_555
C55 C56 1_555 1_555
C56 C57 1_555 1_555
C57 C58 1_555 1_555
C58 C53 1_555 1_555
C59 C56 1_555 1_555
C9 C14 1_555 1_555
C12 C13 1_555 1_555
C13 C14 1_555 1_555
C25 N3 1_555 1_555
C35 C40 1_555 1_555
C38 C39 1_555 1_555
C39 C40 1_555 1_555
C51 N6 1_555 1_555

#END
