
#######################################################################
#
#                 Cambridge Crystallographic Data Centre
#                                CCDC 
#
#######################################################################
#
# If this CIF has been generated from an entry in the Cambridge 
# Structural Database, then it will include bibliographic, chemical, 
# crystal, experimental, refinement or atomic coordinate data resulting 
# from the CCDC's data processing and validation procedures.
#
#######################################################################

data_GIDDAY
_chemical_formula_moiety         'C18 H18 N2 O5'
_chemical_name_systematic        
(+-)-2-((1\a,6\b,8a\b)-1-Acetoxy-1,2,3,5,6,7,8,8a-octahydro-5-oxo-6-indolizinyl)-1H-isoindole-1,3(2H)-dione
_symmetry_cell_setting           monoclinic
_symmetry_space_group_name_H-M   'P 21/n'
_symmetry_Int_Tables_number      14
_space_group_name_Hall           '-P 2yn'
loop_
_symmetry_equiv_pos_site_id
_symmetry_equiv_pos_as_xyz
1 x,y,z
2 1/2-x,1/2+y,1/2-z
3 -x,-y,-z
4 1/2+x,1/2-y,1/2+z
_cell_length_a                   6.505(3)
_cell_length_b                   23.881(3)
_cell_length_c                   10.889(3)
_cell_angle_alpha                90
_cell_angle_beta                 105.53(3)
_cell_angle_gamma                90
_cell_volume                     1629.8
_chemical_melting_point          208deg.C
_cell_formula_units_Z            4
loop_
_atom_site_label
_atom_site_type_symbol
_atom_site_fract_x
_atom_site_fract_y
_atom_site_fract_z
O1 O 0.3671(2) 0.14711(6) 0.8097(1)
O2 O 0.3654(2) 0.04676(6) 1.0879(1)
O3 O 0.7731(2) 0.19885(5) 1.0534(1)
O4 O 0.7804(2) 0.05808(6) 0.5561(1)
O5 O 0.9077(2) 0.07235(7) 0.3858(1)
N1 N 0.6579(3) 0.13321(7) 0.7390(1)
N2 N 0.5955(2) 0.11482(6) 1.0515(1)
C1 C 0.8836(3) 0.10974(9) 0.6122(2)
C2 C 0.8355 0.09855 0.7284
C3 C 0.9274(3) 0.06231(8) 0.8349(2)
C4 C 0.8810(3) 0.07652(8) 0.9623(2)
C5 C 0.6735 0.10079 0.9479
C6 C 0.5457(3) 0.12672(8) 0.8244(2)
C7 C 0.5692(3) 0.16260(9) 0.6176(2)
C8 C 0.7493(3) 0.15928(9) 0.5519(2)
C9 C 0.4434(3) 0.09300(8) 1.1080(2)
C10 C 0.4017(3) 0.13771(8) 1.1932(2)
C11 C 0.2559(3) 0.13974(9) 1.2653(2)
C12 C 0.2465(4) 0.1895(1) 1.3309(2)
C13 C 0.3823(4) 0.2340(1) 1.3272(2)
C14 C 0.5291(4) 0.23168(9) 1.2552(2)
C15 C 0.5315(3) 0.18298(8) 1.1864(2)
C16 C 0.6529(3) 0.16966(8) 1.0924(2)
C17 C 0.8012(3) 0.04544(9) 0.4387(2)
H1 H 1.035(3) 0.110(1) 0.605(2)
H2 H 1.078(3) 0.053(1) 0.850(2)
H3 H 0.828(3) 0.029(1) 0.789(2)
H4 H 0.964(3) 0.109(1) 1.001(2)
H5 H 0.920(3) 0.045(1) 1.026(2)
H6 H 0.565(3) 0.057(1) 0.926(2)
H7 H 0.443(3) 0.140(1) 0.571(2)
H8 H 0.524(3) 0.202(1) 0.633(2)
H9 H 0.841(3) 0.193(1) 0.568(2)
H10 H 0.697(3) 0.155(1) 0.460(2)
H11 H 0.164(3) 0.110(1) 1.269(2)
H12 H 0.145(3) 0.192(1) 1.379(2)
H13 H 0.372(3) 0.266(1) 1.376(2)
H14 H 0.624(3) 0.261(1) 1.250(2)
H15 H 0.523(4) 0.006(1) 0.360(2)
H16 H 0.708(3) -0.018(1) 0.310(2)
C18 C 0.6728 -0.0056 0.3859
H17 H 0.687(4) -0.036(1) 0.453(2)
H18? H 0.987(3) 0.146(1) 0.794(2)
loop_
_geom_bond_atom_site_label_1
_geom_bond_atom_site_label_2
_geom_bond_site_symmetry_1
_geom_bond_site_symmetry_2
O1 C6 1_555 1_555
O2 C9 1_555 1_555
O3 C16 1_555 1_555
O4 C1 1_555 1_555
O5 C17 1_555 1_555
N1 C2 1_555 1_555
N2 C5 1_555 1_555
C1 C2 1_555 1_555
C2 C3 1_555 1_555
C3 C4 1_555 1_555
C4 C5 1_555 1_555
C5 C6 1_555 1_555
C6 N1 1_555 1_555
C7 N1 1_555 1_555
C8 C1 1_555 1_555
C9 N2 1_555 1_555
C10 C9 1_555 1_555
C11 C10 1_555 1_555
C12 C11 1_555 1_555
C13 C12 1_555 1_555
C14 C13 1_555 1_555
C15 C10 1_555 1_555
C16 N2 1_555 1_555
C17 O4 1_555 1_555
H1 C1 1_555 1_555
H2 C3 1_555 1_555
H3 C3 1_555 1_555
H4 C4 1_555 1_555
H5 C4 1_555 1_555
H6 C5 1_555 1_555
H7 C7 1_555 1_555
H8 C7 1_555 1_555
H9 C8 1_555 1_555
H10 C8 1_555 1_555
H11 C11 1_555 1_555
H12 C12 1_555 1_555
H13 C13 1_555 1_555
H14 C14 1_555 1_555
H15 C18 1_555 1_555
H16 C18 1_555 1_555
C18 C17 1_555 1_555
H17 C18 1_555 1_555
C7 C8 1_555 1_555
C14 C15 1_555 1_555
C15 C16 1_555 1_555

#END
