
#######################################################################
#
#                 Cambridge Crystallographic Data Centre
#                                CCDC 
#
#######################################################################
#
# If this CIF has been generated from an entry in the Cambridge 
# Structural Database, then it will include bibliographic, chemical, 
# crystal, experimental, refinement or atomic coordinate data resulting 
# from the CCDC's data processing and validation procedures.
#
#######################################################################

data_GIDGUW
_chemical_formula_moiety         'C28 H20 O1'
_chemical_name_systematic        
4-methyl-4-phenyl-4H-benzo[f]naphtho[2,1-c]chromene
_symmetry_cell_setting           orthorhombic
_symmetry_space_group_name_H-M   'P b c a'
_symmetry_Int_Tables_number      61
_space_group_name_Hall           '-P 2ac 2ab'
loop_
_symmetry_equiv_pos_site_id
_symmetry_equiv_pos_as_xyz
1 x,y,z
2 1/2-x,-y,1/2+z
3 -x,1/2+y,1/2-z
4 1/2+x,1/2-y,-z
5 -x,-y,-z
6 1/2+x,y,1/2-z
7 x,1/2-y,1/2+z
8 1/2-x,1/2+y,z
_cell_length_a                   20.556(5)
_cell_length_b                   9.116(2)
_cell_length_c                   21.214(5)
_cell_angle_alpha                90
_cell_angle_beta                 90
_cell_angle_gamma                90
_cell_volume                     3975.26
_exptl_crystal_colour            colorless
_chemical_melting_point          196-197deg.C
_cell_formula_units_Z            8
loop_
_atom_site_label
_atom_site_type_symbol
_atom_site_fract_x
_atom_site_fract_y
_atom_site_fract_z
O1 O 0.17288(9) 0.7493(2) 0.09318(9)
C1 C 0.14839(13) 0.8500(3) 0.21256(14)
C2 C 0.15466(13) 0.8438(3) 0.27968(14)
C3 C 0.11342(14) 0.7589(3) 0.31894(15)
H1 H 0.0802 0.7040 0.3008
C4 C 0.12154(17) 0.7562(4) 0.38309(16)
H2 H 0.0932 0.7016 0.4080
C5 C 0.17237(19) 0.8355(4) 0.41155(17)
H3 H 0.1776 0.8337 0.4551
C6 C 0.21359(18) 0.9143(4) 0.37524(18)
H4 H 0.2471 0.9664 0.3943
C7 C 0.20692(15) 0.9194(3) 0.30901(15)
C8 C 0.25190(16) 0.9961(4) 0.27160(17)
H5 H 0.2845 1.0511 0.2908
C9 C 0.24828(15) 0.9907(3) 0.20808(16)
H6 H 0.2796 1.0385 0.1841
C10 C 0.19805(13) 0.9140(3) 0.17758(13)
C11 C 0.19487(14) 0.9009(3) 0.10691(14)
C12 C 0.26106(15) 0.9077(4) 0.07489(16)
H7 H 0.2907 0.8430 0.0961
H8 H 0.2774 1.0062 0.0767
H9 H 0.2568 0.8780 0.0317
C13 C 0.14633(15) 1.0084(3) 0.07754(15)
C14 C 0.1355(2) 1.0070(4) 0.01370(17)
H10 H 0.1585 0.9418 -0.0116
C15 C 0.0905(3) 1.1021(5) -0.0135(2)
H11 H 0.0838 1.1002 -0.0569
C16 C 0.0563(2) 1.1979(5) 0.0231(2)
H12 H 0.0261 1.2607 0.0048
C17 C 0.06656(19) 1.2010(4) 0.08572(19)
H13 H 0.0436 1.2668 0.1108
C18 C 0.11107(15) 1.1069(3) 0.11289(15)
H14 H 0.1174 1.1101 0.1563
C19 C 0.11341(14) 0.7182(3) 0.11917(14)
C20 C 0.07314(16) 0.6212(3) 0.08589(14)
H15 H 0.0887 0.5714 0.0507
C21 C 0.01073(16) 0.6008(3) 0.10602(15)
H16 H -0.0156 0.5323 0.0859
C22 C -0.01429(14) 0.6825(3) 0.15691(14)
C23 C -0.08126(15) 0.6806(4) 0.17193(16)
H17 H -0.1088 0.6182 0.1499
C24 C -0.10614(15) 0.7673(4) 0.21752(18)
H18 H -0.1502 0.7626 0.2273
C25 C -0.06542(15) 0.8641(4) 0.24996(16)
H19 H -0.0831 0.9267 0.2800
C26 C -0.00024(14) 0.8684(3) 0.23830(14)
H20 H 0.0260 0.9329 0.2607
C27 C 0.02780(13) 0.7752(3) 0.19231(13)
C28 C 0.09576(13) 0.7793(3) 0.17614(14)
loop_
_geom_bond_atom_site_label_1
_geom_bond_atom_site_label_2
_geom_bond_site_symmetry_1
_geom_bond_site_symmetry_2
O1 C11 1_555 1_555
C1 C2 1_555 1_555
C2 C3 1_555 1_555
C3 H1 1_555 1_555
C4 C3 1_555 1_555
H2 C4 1_555 1_555
C5 C4 1_555 1_555
H3 C5 1_555 1_555
C6 C5 1_555 1_555
H4 C6 1_555 1_555
C7 C2 1_555 1_555
C8 C7 1_555 1_555
H5 C8 1_555 1_555
C9 C8 1_555 1_555
H6 C9 1_555 1_555
C10 C1 1_555 1_555
C11 C10 1_555 1_555
C12 C11 1_555 1_555
H7 C12 1_555 1_555
H8 C12 1_555 1_555
H9 C12 1_555 1_555
C13 C11 1_555 1_555
C14 C13 1_555 1_555
H10 C14 1_555 1_555
C15 C14 1_555 1_555
H11 C15 1_555 1_555
C16 C15 1_555 1_555
H12 C16 1_555 1_555
C17 C16 1_555 1_555
H13 C17 1_555 1_555
C18 C13 1_555 1_555
H14 C18 1_555 1_555
C19 O1 1_555 1_555
C20 C19 1_555 1_555
H15 C20 1_555 1_555
C21 C20 1_555 1_555
H16 C21 1_555 1_555
C22 C21 1_555 1_555
C23 C22 1_555 1_555
H17 C23 1_555 1_555
C24 C23 1_555 1_555
H18 C24 1_555 1_555
C25 C24 1_555 1_555
H19 C25 1_555 1_555
C26 C25 1_555 1_555
H20 C26 1_555 1_555
C27 C22 1_555 1_555
C28 C1 1_555 1_555
C6 C7 1_555 1_555
C9 C10 1_555 1_555
C17 C18 1_555 1_555
C19 C28 1_555 1_555
C26 C27 1_555 1_555
C27 C28 1_555 1_555

#END
