
#######################################################################
#
#                 Cambridge Crystallographic Data Centre
#                                CCDC 
#
#######################################################################
#
# If this CIF has been generated from an entry in the Cambridge 
# Structural Database, then it will include bibliographic, chemical, 
# crystal, experimental, refinement or atomic coordinate data resulting 
# from the CCDC's data processing and validation procedures.
#
#######################################################################

data_GIFGEK
_chemical_formula_moiety         'C21 H22 N4 O1'
_chemical_name_systematic        
1-phenyl-N-[(pyridin-2-yl)methyl]-1,4,5,6,7,8-hexahydrocyclohepta[c]pyrazole-3-carboxamide
_symmetry_cell_setting           monoclinic
_symmetry_space_group_name_H-M   'P 21/n'
_symmetry_Int_Tables_number      14
_space_group_name_Hall           '-P 2yn'
loop_
_symmetry_equiv_pos_site_id
_symmetry_equiv_pos_as_xyz
1 x,y,z
2 1/2-x,1/2+y,1/2-z
3 -x,-y,-z
4 1/2+x,1/2-y,1/2+z
_cell_length_a                   8.668(2)
_cell_length_b                   22.236(4)
_cell_length_c                   9.539(2)
_cell_angle_alpha                90
_cell_angle_beta                 103.68(3)
_cell_angle_gamma                90
_cell_volume                     1786.41
_exptl_crystal_colour            colorless
_exptl_crystal_description       block
_cell_formula_units_Z            4
loop_
_atom_site_label
_atom_site_type_symbol
_atom_site_fract_x
_atom_site_fract_y
_atom_site_fract_z
O1 O 0.70280(11) 0.48385(4) 0.18491(9)
C1 C 0.84094(13) 0.51393(5) 0.64445(12)
N1 N 0.84269(11) 0.57454(4) 0.61909(10)
N2 N 0.80039(11) 0.58781(4) 0.47663(10)
C2 C 0.86432(15) 0.48599(5) 0.79057(13)
H1 H 0.8823 0.5181 0.8646
H2 H 0.9601 0.4602 0.8090
N3 N 0.69445(13) 0.58523(4) 0.18609(10)
H3 H 0.7130 0.6182 0.2386
C3 C 0.72112(17) 0.44816(6) 0.80428(14)
H4 H 0.7302 0.4395 0.9077
H5 H 0.6237 0.4724 0.7694
N4 N 0.59909(13) 0.69552(5) 0.08802(11)
C4 C 0.70163(18) 0.38855(6) 0.72194(15)
H6 H 0.8034 0.3664 0.7496
H7 H 0.6209 0.3643 0.7546
C5 C 0.77853(15) 0.41984(5) 0.48791(13)
H8 H 0.8819 0.4000 0.5278
H9 H 0.7486 0.4118 0.3829
C6 C 0.65346(16) 0.39221(6) 0.55757(14)
H10 H 0.5549 0.4163 0.5292
H11 H 0.6290 0.3511 0.5186
C7 C 0.79740(13) 0.48643(5) 0.51170(12)
C8 C 0.77291(13) 0.53415(5) 0.41169(12)
C9 C 0.72110(13) 0.53179(5) 0.25184(12)
C10 C 0.88370(14) 0.62267(5) 0.72055(12)
C11 C 0.78110(15) 0.67107(5) 0.71084(14)
H12 H 0.6844 0.6719 0.6388
C12 C 0.82120(17) 0.71822(6) 0.80752(16)
H13 H 0.7517 0.7517 0.8017
C13 C 0.96161(18) 0.71685(6) 0.91225(15)
H14 H 0.9882 0.7492 0.9787
C14 C 1.06359(16) 0.66854(6) 0.92051(13)
H15 H 1.1603 0.6679 0.9925
C15 C 1.02548(15) 0.62093(5) 0.82411(12)
H16 H 1.0956 0.5877 0.8293
C16 C 0.63611(17) 0.59060(6) 0.03163(13)
H17 H 0.5556 0.5590 -0.0032
H18 H 0.7248 0.5843 -0.0158
C17 C 0.56317(14) 0.65155(5) -0.00921(12)
C18 C 0.46708(15) 0.66029(6) -0.14583(13)
H19 H 0.4430 0.6278 -0.2121
C19 C 0.40683(16) 0.71692(7) -0.18428(15)
H20 H 0.3419 0.7242 -0.2779
C20 C 0.44234(16) 0.76293(6) -0.08457(16)
H21 H 0.4022 0.8024 -0.1077
C21 C 0.53721(16) 0.75004(6) 0.04889(15)
H22 H 0.5605 0.7816 0.1177
loop_
_geom_bond_atom_site_label_1
_geom_bond_atom_site_label_2
_geom_bond_site_symmetry_1
_geom_bond_site_symmetry_2
O1 C9 1_555 1_555
C1 N1 1_555 1_555
N1 N2 1_555 1_555
N2 C8 1_555 1_555
C2 C1 1_555 1_555
H1 C2 1_555 1_555
H2 C2 1_555 1_555
N3 H3 1_555 1_555
C3 C2 1_555 1_555
H4 C3 1_555 1_555
H5 C3 1_555 1_555
N4 C17 1_555 1_555
C4 C3 1_555 1_555
H6 C4 1_555 1_555
H7 C4 1_555 1_555
C5 H8 1_555 1_555
H9 C5 1_555 1_555
C6 C4 1_555 1_555
H10 C6 1_555 1_555
H11 C6 1_555 1_555
C7 C1 1_555 1_555
C8 C7 1_555 1_555
C9 N3 1_555 1_555
C10 N1 1_555 1_555
C11 C10 1_555 1_555
H12 C11 1_555 1_555
C12 C11 1_555 1_555
H13 C12 1_555 1_555
C13 C12 1_555 1_555
H14 C13 1_555 1_555
C14 C13 1_555 1_555
H15 C14 1_555 1_555
C15 C10 1_555 1_555
H16 C15 1_555 1_555
C16 N3 1_555 1_555
H17 C16 1_555 1_555
H18 C16 1_555 1_555
C17 C16 1_555 1_555
C18 C17 1_555 1_555
H19 C18 1_555 1_555
C19 C18 1_555 1_555
H20 C19 1_555 1_555
C20 C19 1_555 1_555
H21 C20 1_555 1_555
C21 N4 1_555 1_555
H22 C21 1_555 1_555
C5 C6 1_555 1_555
C5 C7 1_555 1_555
C8 C9 1_555 1_555
C14 C15 1_555 1_555
C20 C21 1_555 1_555

#END
