
#######################################################################
#
#                 Cambridge Crystallographic Data Centre
#                                CCDC 
#
#######################################################################
#
# If this CIF has been generated from an entry in the Cambridge 
# Structural Database, then it will include bibliographic, chemical, 
# crystal, experimental, refinement or atomic coordinate data resulting 
# from the CCDC's data processing and validation procedures.
#
#######################################################################

data_GIFYAX
_chemical_formula_moiety         'C22 H22 N2 O4 S1'
_chemical_name_systematic        
1,5-bis(4-methoxyphenyl)-3-(4-methyl-1,2,3-thiadiazol-5-yl)pentane-1,5-dione
_symmetry_cell_setting           monoclinic
_symmetry_space_group_name_H-M   'P 21/c'
_symmetry_Int_Tables_number      14
_space_group_name_Hall           '-P 2ybc'
loop_
_symmetry_equiv_pos_site_id
_symmetry_equiv_pos_as_xyz
1 x,y,z
2 -x,1/2+y,1/2-z
3 -x,-y,-z
4 x,1/2-y,1/2+z
_cell_length_a                   11.159(3)
_cell_length_b                   9.002(3)
_cell_length_c                   20.192(6)
_cell_angle_alpha                90
_cell_angle_beta                 93.393(5)
_cell_angle_gamma                90
_cell_volume                     2024.8
_cell_formula_units_Z            4
loop_
_atom_site_label
_atom_site_type_symbol
_atom_site_fract_x
_atom_site_fract_y
_atom_site_fract_z
S1 S 0.47345(3) -0.15394(3) 0.224930(15)
O1 O 1.21289(8) -0.00216(10) 0.22500(5)
O2 O 0.71919(7) -0.20698(9) 0.08591(4)
O3 O 0.29286(8) -0.04407(9) 0.03525(4)
O4 O -0.07121(8) 0.47499(10) 0.09109(5)
N1 N 0.41287(10) -0.38955(12) 0.16985(6)
N2 N 0.42319(10) -0.32856(12) 0.22880(6)
C1 C 1.23904(11) 0.11020(16) 0.27414(7)
H1 H 1.2290 0.2086 0.2538
H2 H 1.3220 0.0988 0.2923
H3 H 1.1840 0.1000 0.3099
C2 C 1.09696(11) -0.01463(14) 0.20067(6)
C3 C 1.07301(11) -0.13332(14) 0.15731(6)
H4 H 1.1360 -0.1983 0.1463
C4 C 0.95820(11) -0.15616(13) 0.13051(6)
H5 H 0.9423 -0.2379 0.1015
C5 C 0.86448(10) -0.06047(13) 0.14543(6)
C6 C 0.89041(11) 0.05846(14) 0.18813(6)
H6 H 0.8280 0.1250 0.1982
C7 C 1.00517(11) 0.08190(15) 0.21621(6)
H7 H 1.0211 0.1627 0.2457
C8 C 0.74187(10) -0.09107(13) 0.11576(6)
C9 C 0.64588(10) 0.02583(13) 0.12225(6)
H8 H 0.6657 0.1134 0.0953
H9 H 0.6462 0.0580 0.1692
C10 C 0.51942(10) -0.02821(13) 0.10003(6)
H10 H 0.5209 -0.0623 0.0529
C11 C 0.48059(10) -0.15770(13) 0.14125(6)
C12 C 0.44452(11) -0.29690(14) 0.12022(6)
C13 C 0.44115(13) -0.35444(14) 0.05059(6)
H11 H 0.5227 -0.3558 0.0350
H12 H 0.3903 -0.2897 0.0218
H13 H 0.4083 -0.4554 0.0494
C14 C 0.43087(10) 0.10189(13) 0.10227(6)
H14 H 0.4203 0.1279 0.1492
H15 H 0.4658 0.1893 0.0808
C15 C 0.30864(10) 0.06936(13) 0.06836(6)
C16 C 0.21050(10) 0.17865(13) 0.07487(6)
C17 C 0.10023(11) 0.14985(13) 0.04176(6)
H16 H 0.0910 0.0623 0.0157
C18 C 0.00377(11) 0.24463(13) 0.04567(6)
H17 H -0.0709 0.2226 0.0227
C19 C 0.01744(11) 0.37328(14) 0.08388(6)
C20 C 0.12734(11) 0.40485(14) 0.11722(7)
H18 H 0.1365 0.4926 0.1431
C21 C 0.22295(11) 0.30889(13) 0.11268(6)
H19 H 0.2978 0.3313 0.1354
C22 C -0.18390(11) 0.44922(15) 0.05521(7)
H20 H -0.1710 0.4393 0.0078
H21 H -0.2379 0.5330 0.0620
H22 H -0.2199 0.3577 0.0713
loop_
_geom_bond_atom_site_label_1
_geom_bond_atom_site_label_2
_geom_bond_site_symmetry_1
_geom_bond_site_symmetry_2
S1 N2 1_555 1_555
O1 C1 1_555 1_555
O2 C8 1_555 1_555
O3 C15 1_555 1_555
O4 C19 1_555 1_555
N1 N2 1_555 1_555
C1 H1 1_555 1_555
H2 C1 1_555 1_555
H3 C1 1_555 1_555
C2 O1 1_555 1_555
C3 C2 1_555 1_555
H4 C3 1_555 1_555
C4 C3 1_555 1_555
H5 C4 1_555 1_555
C5 C4 1_555 1_555
C6 C5 1_555 1_555
H6 C6 1_555 1_555
C7 C2 1_555 1_555
H7 C7 1_555 1_555
C8 C5 1_555 1_555
C9 C8 1_555 1_555
H8 C9 1_555 1_555
H9 C9 1_555 1_555
C10 C9 1_555 1_555
H10 C10 1_555 1_555
C11 S1 1_555 1_555
C12 N1 1_555 1_555
C13 C12 1_555 1_555
H11 C13 1_555 1_555
H12 C13 1_555 1_555
H13 C13 1_555 1_555
C14 C10 1_555 1_555
H14 C14 1_555 1_555
H15 C14 1_555 1_555
C15 C14 1_555 1_555
C16 C15 1_555 1_555
C17 C16 1_555 1_555
H16 C17 1_555 1_555
C18 C17 1_555 1_555
H17 C18 1_555 1_555
C19 C18 1_555 1_555
C20 C19 1_555 1_555
H18 C20 1_555 1_555
C21 C16 1_555 1_555
H19 C21 1_555 1_555
C22 O4 1_555 1_555
H20 C22 1_555 1_555
H21 C22 1_555 1_555
H22 C22 1_555 1_555
C6 C7 1_555 1_555
C10 C11 1_555 1_555
C11 C12 1_555 1_555
C20 C21 1_555 1_555

#END
