
#######################################################################
#
#                 Cambridge Crystallographic Data Centre
#                                CCDC 
#
#######################################################################
#
# If this CIF has been generated from an entry in the Cambridge 
# Structural Database, then it will include bibliographic, chemical, 
# crystal, experimental, refinement or atomic coordinate data resulting 
# from the CCDC's data processing and validation procedures.
#
#######################################################################

data_GIGBOQ
_chemical_formula_moiety         'C19 H17 Br1 N4 O4'
_chemical_name_systematic        
5-bromo-6-methoxy-1'-methyl-2-[methyl(pyridin-2-yl)amino]-2'H,5'H-spiro[isoindole-1,3'-pyrrolidine]-2',3,5'(2H)-trione
_symmetry_cell_setting           orthorhombic
_symmetry_space_group_name_H-M   'P n a 21'
_symmetry_Int_Tables_number      33
_space_group_name_Hall           'P 2c -2n'
loop_
_symmetry_equiv_pos_site_id
_symmetry_equiv_pos_as_xyz
1 x,y,z
2 -x,-y,1/2+z
3 1/2-x,1/2+y,1/2+z
4 1/2+x,1/2-y,z
_cell_length_a                   18.4667(5)
_cell_length_b                   8.4993(2)
_cell_length_c                   12.0129(4)
_cell_angle_alpha                90
_cell_angle_beta                 90
_cell_angle_gamma                90
_cell_volume                     1885.47
_exptl_crystal_colour            colorless
_exptl_crystal_description       block
_cell_formula_units_Z            4
loop_
_atom_site_label
_atom_site_type_symbol
_atom_site_fract_x
_atom_site_fract_y
_atom_site_fract_z
Br1 Br -0.48808(2) -0.55973(5) 0.56356(7)
O1 O -0.2045(2) -0.4697(4) 0.3546(4)
O2 O -0.1233(3) 0.0880(4) 0.7615(4)
O3 O -0.4516(2) -0.3106(4) 0.7256(3)
O4 O -0.2558(2) 0.0264(4) 0.4461(4)
N1 N -0.0607(3) -0.4265(4) 0.5429(4)
N2 N -0.1757(2) -0.2705(5) 0.4769(4)
N3 N -0.1939(3) 0.0916(5) 0.6050(4)
N4 N -0.1092(2) -0.2282(5) 0.4326(4)
C1 C -0.0039(3) -0.5180(6) 0.5707(8)
H1 H -0.0101 -0.5897 0.6306
C2 C 0.0621(3) -0.5151(6) 0.5185(6)
H2 H 0.1004 -0.5823 0.5414
C3 C 0.0710(3) -0.4108(6) 0.4314(6)
H3 H 0.1161 -0.4049 0.3936
C4 C -0.1583(3) -0.1568(6) 0.6703(5)
H4 H -0.1785 -0.2102 0.7346
H5 H -0.1102 -0.1979 0.6562
C5 C 0.0143(3) -0.3151(7) 0.3993(5)
H6 H 0.0195 -0.2425 0.3396
C6 C -0.2776(3) -0.2686(5) 0.5851(5)
C7 C -0.2196(3) -0.3857(6) 0.4343(5)
C8 C -0.3308(3) -0.2396(5) 0.6638(5)
H7 H -0.3245 -0.1619 0.7198
C9 C -0.2235(3) -0.0094(6) 0.5287(5)
C10 C -0.4002(3) -0.4455(5) 0.5748(6)
C11 C -0.1553(3) 0.0183(6) 0.6890(5)
C12 C -0.3939(3) -0.3289(5) 0.6576(4)
C13 C -0.2072(2) -0.1805(5) 0.5688(6)
C14 C -0.2845(3) -0.3838(5) 0.5049(4)
C15 C -0.1132(3) -0.1540(7) 0.3226(5)
H8 H -0.1124 -0.2354 0.2649
H9 H -0.0716 -0.0837 0.3127
H10 H -0.1581 -0.0932 0.3168
C16 C -0.4436(4) -0.2014(6) 0.8162(5)
H11 H -0.4884 -0.1985 0.8598
H12 H -0.4334 -0.0963 0.7865
H13 H -0.4035 -0.2350 0.8640
C17 C -0.0509(3) -0.3286(5) 0.4575(5)
C18 C -0.2016(4) 0.2622(6) 0.5977(6)
H14 H -0.1537 0.3104 0.5895
H15 H -0.2247 0.3018 0.6655
H16 H -0.2316 0.2890 0.5331
C19 C -0.3463(3) -0.4768(5) 0.4991(4)
H17 H -0.3511 -0.5581 0.4453
loop_
_geom_bond_atom_site_label_1
_geom_bond_atom_site_label_2
_geom_bond_site_symmetry_1
_geom_bond_site_symmetry_2
Br1 C10 1_555 1_555
O1 C7 1_555 1_555
O2 C11 1_555 1_555
O3 C12 1_555 1_555
O4 C9 1_555 1_555
N1 C1 1_555 1_555
N2 N4 1_555 1_555
N3 C9 1_555 1_555
N4 C15 1_555 1_555
C1 H1 1_555 1_555
C2 C1 1_555 1_555
H2 C2 1_555 1_555
C3 C2 1_555 1_555
H3 C3 1_555 1_555
C4 H4 1_555 1_555
H5 C4 1_555 1_555
C5 C3 1_555 1_555
H6 C5 1_555 1_555
C6 C8 1_555 1_555
C7 N2 1_555 1_555
C8 H7 1_555 1_555
C9 C13 1_555 1_555
C10 C12 1_555 1_555
C11 N3 1_555 1_555
C12 C8 1_555 1_555
C13 N2 1_555 1_555
C14 C6 1_555 1_555
C15 H8 1_555 1_555
H9 C15 1_555 1_555
H10 C15 1_555 1_555
C16 O3 1_555 1_555
H11 C16 1_555 1_555
H12 C16 1_555 1_555
H13 C16 1_555 1_555
C17 N1 1_555 1_555
C18 N3 1_555 1_555
H14 C18 1_555 1_555
H15 C18 1_555 1_555
H16 C18 1_555 1_555
C19 C10 1_555 1_555
H17 C19 1_555 1_555
N4 C17 1_555 1_555
C4 C11 1_555 1_555
C4 C13 1_555 1_555
C5 C17 1_555 1_555
C6 C13 1_555 1_555
C7 C14 1_555 1_555
C14 C19 1_555 1_555

#END
