
#######################################################################
#
#                 Cambridge Crystallographic Data Centre
#                                CCDC 
#
#######################################################################
#
# If this CIF has been generated from an entry in the Cambridge 
# Structural Database, then it will include bibliographic, chemical, 
# crystal, experimental, refinement or atomic coordinate data resulting 
# from the CCDC's data processing and validation procedures.
#
#######################################################################

data_GIGMIU
_chemical_formula_moiety         'C25 H18 N2 O1'
_chemical_name_systematic        3-Benzyl-2-phenylbenzo[h]quinazolin-4(3H)-one
_symmetry_cell_setting           monoclinic
_symmetry_space_group_name_H-M   'P 21/c'
_symmetry_Int_Tables_number      14
_space_group_name_Hall           '-P 2ybc'
loop_
_symmetry_equiv_pos_site_id
_symmetry_equiv_pos_as_xyz
1 x,y,z
2 -x,1/2+y,1/2-z
3 -x,-y,-z
4 x,1/2-y,1/2+z
_cell_length_a                   9.7108(8)
_cell_length_b                   32.689(4)
_cell_length_c                   12.1744(13)
_cell_angle_alpha                90
_cell_angle_beta                 113.434(3)
_cell_angle_gamma                90
_cell_volume                     3545.84
_exptl_crystal_colour            colorless
_exptl_crystal_description       needle
_cell_formula_units_Z            8
loop_
_atom_site_label
_atom_site_type_symbol
_atom_site_fract_x
_atom_site_fract_y
_atom_site_fract_z
C1 C 0.3323(4) 0.86924(12) 0.2235(3)
C2 C 0.4572(3) 0.88808(11) 0.4330(3)
C3 C 0.5249(4) 0.92231(11) 0.2964(3)
C4 C 0.4268(4) 0.89958(11) 0.2021(3)
C5 C 0.4163(4) 0.90613(12) 0.0838(3)
H1 H 0.3482 0.8904 0.0195
C6 C 0.5036(4) 0.93482(12) 0.0625(3)
H2 H 0.4960 0.9388 -0.0170
C7 C 0.6060(4) 0.95911(11) 0.1563(3)
C8 C 0.6969(4) 0.98883(12) 0.1353(3)
H3 H 0.6896 0.9932 0.0560
C9 C 0.7959(4) 1.01165(12) 0.2268(3)
H4 H 0.8560 1.0317 0.2106
C10 C 0.8088(4) 1.00544(12) 0.3445(3)
H5 H 0.8783 1.0212 0.4080
C11 C 0.7217(4) 0.97677(11) 0.3683(3)
H6 H 0.7313 0.9727 0.4483
C12 C 0.6176(3) 0.95312(11) 0.2751(3)
C13 C 0.2519(4) 0.83615(11) 0.3694(3)
H7 H 0.1589 0.8334 0.2960
H8 H 0.2238 0.8485 0.4319
C14 C 0.3144(4) 0.79404(11) 0.4102(3)
C15 C 0.2628(4) 0.77225(12) 0.4825(3)
H9 H 0.1839 0.7832 0.5010
C16 C 0.3238(4) 0.73483(13) 0.5289(4)
H10 H 0.2859 0.7200 0.5780
C17 C 0.4395(4) 0.71883(12) 0.5040(4)
H11 H 0.4837 0.6934 0.5378
C18 C 0.4904(4) 0.73972(13) 0.4302(4)
H12 H 0.5697 0.7287 0.4123
C19 C 0.4268(4) 0.77689(12) 0.3815(4)
H13 H 0.4603 0.7908 0.3281
C20 C 0.4786(3) 0.88155(12) 0.5596(3)
C21 C 0.4462(4) 0.91336(12) 0.6215(3)
H14 H 0.4071 0.9383 0.5813
C22 C 0.4703(4) 0.90908(13) 0.7403(3)
H15 H 0.4452 0.9308 0.7809
C23 C 0.5309(4) 0.87335(14) 0.8005(4)
H16 H 0.5483 0.8705 0.8826
C24 C 0.5662(4) 0.84168(13) 0.7406(3)
H17 H 0.6085 0.8171 0.7819
C25 C 0.5399(4) 0.84573(12) 0.6207(3)
H18 H 0.5640 0.8239 0.5800
N1 N 0.3539(3) 0.86453(9) 0.3444(3)
N2 N 0.5388(3) 0.91621(9) 0.4133(2)
O1 O 0.2390(3) 0.84831(8) 0.1458(2)
C26 C 0.1828(4) 0.13465(11) 0.7571(3)
C27 C 0.0408(4) 0.11187(11) 0.5518(3)
C28 C -0.0118(4) 0.08216(11) 0.7017(3)
C29 C 0.0940(4) 0.10559(11) 0.7901(3)
C30 C 0.1154(4) 0.10165(11) 0.9110(3)
H19 H 0.1872 0.1183 0.9701
C31 C 0.0341(4) 0.07426(12) 0.9432(3)
H20 H 0.0496 0.0720 1.0251
C32 C -0.0744(4) 0.04882(12) 0.8570(3)
C33 C -0.1597(4) 0.01981(12) 0.8887(3)
H21 H -0.1470 0.0175 0.9700
C34 C -0.2602(4) -0.00497(12) 0.8044(3)
H22 H -0.3157 -0.0246 0.8274
C35 C -0.2814(4) -0.00147(12) 0.6839(3)
H23 H -0.3515 -0.0187 0.6254
C36 C -0.2019(4) 0.02656(11) 0.6506(3)
H24 H -0.2173 0.0286 0.5687
C37 C -0.0980(4) 0.05236(11) 0.7345(3)
C38 C 0.2427(4) 0.16548(11) 0.5971(3)
H25 H 0.2602 0.1536 0.5289
H26 H 0.3416 0.1688 0.6645
C39 C 0.1722(4) 0.20697(11) 0.5615(3)
C40 C 0.1113(4) 0.21858(12) 0.4421(3)
H27 H 0.1124 0.1999 0.3826
C41 C 0.0490(4) 0.25707(13) 0.4085(4)
H28 H 0.0065 0.2645 0.3263
C42 C 0.0488(4) 0.28451(12) 0.4944(4)
H29 H 0.0076 0.3111 0.4718
C43 C 0.1086(4) 0.27320(12) 0.6129(4)
H30 H 0.1067 0.2920 0.6719
C44 C 0.1714(4) 0.23501(12) 0.6474(3)
H31 H 0.2141 0.2278 0.7298
C45 C 0.0088(4) 0.11688(11) 0.4228(3)
C46 C 0.1088(4) 0.10301(11) 0.3742(3)
H32 H 0.1983 0.0894 0.4239
C47 C 0.0787(4) 0.10898(12) 0.2546(3)
H33 H 0.1474 0.0994 0.2226
C48 C -0.0506(4) 0.12883(12) 0.1812(3)
H34 H -0.0701 0.1333 0.0993
C49 C -0.1520(4) 0.14228(12) 0.2278(3)
H35 H -0.2418 0.1557 0.1774
C50 C -0.1224(4) 0.13612(11) 0.3480(3)
H36 H -0.1926 0.1452 0.3793
N3 N 0.1510(3) 0.13638(9) 0.6333(3)
N4 N -0.0391(3) 0.08595(9) 0.5810(2)
O2 O 0.2800(3) 0.15650(8) 0.8277(2)
loop_
_geom_bond_atom_site_label_1
_geom_bond_atom_site_label_2
_geom_bond_site_symmetry_1
_geom_bond_site_symmetry_2
C1 C4 1_555 1_555
C2 C20 1_555 1_555
C3 C4 1_555 1_555
C4 C5 1_555 1_555
C5 H1 1_555 1_555
C6 C5 1_555 1_555
H2 C6 1_555 1_555
C7 C6 1_555 1_555
C8 C7 1_555 1_555
H3 C8 1_555 1_555
C9 C8 1_555 1_555
H4 C9 1_555 1_555
C10 C9 1_555 1_555
H5 C10 1_555 1_555
C11 C10 1_555 1_555
H6 C11 1_555 1_555
C12 C3 1_555 1_555
C13 H7 1_555 1_555
H8 C13 1_555 1_555
C14 C13 1_555 1_555
C15 C14 1_555 1_555
H9 C15 1_555 1_555
C16 C15 1_555 1_555
H10 C16 1_555 1_555
C17 C16 1_555 1_555
H11 C17 1_555 1_555
C18 C17 1_555 1_555
H12 C18 1_555 1_555
C19 C14 1_555 1_555
H13 C19 1_555 1_555
C20 C21 1_555 1_555
C21 H14 1_555 1_555
C22 C21 1_555 1_555
H15 C22 1_555 1_555
C23 C22 1_555 1_555
H16 C23 1_555 1_555
C24 C23 1_555 1_555
H17 C24 1_555 1_555
C25 C20 1_555 1_555
H18 C25 1_555 1_555
N1 C1 1_555 1_555
N2 C2 1_555 1_555
O1 C1 1_555 1_555
C26 C29 1_555 1_555
C27 C45 1_555 1_555
C28 C29 1_555 1_555
C29 C30 1_555 1_555
C30 H19 1_555 1_555
C31 C30 1_555 1_555
H20 C31 1_555 1_555
C32 C31 1_555 1_555
C33 C32 1_555 1_555
H21 C33 1_555 1_555
C34 C33 1_555 1_555
H22 C34 1_555 1_555
C35 C34 1_555 1_555
H23 C35 1_555 1_555
C36 C35 1_555 1_555
H24 C36 1_555 1_555
C37 C28 1_555 1_555
C38 H25 1_555 1_555
H26 C38 1_555 1_555
C39 C38 1_555 1_555
C40 C39 1_555 1_555
H27 C40 1_555 1_555
C41 C40 1_555 1_555
H28 C41 1_555 1_555
C42 C41 1_555 1_555
H29 C42 1_555 1_555
C43 C42 1_555 1_555
H30 C43 1_555 1_555
C44 C39 1_555 1_555
H31 C44 1_555 1_555
C45 C46 1_555 1_555
C46 H32 1_555 1_555
C47 C46 1_555 1_555
H33 C47 1_555 1_555
C48 C47 1_555 1_555
H34 C48 1_555 1_555
C49 C48 1_555 1_555
H35 C49 1_555 1_555
C50 C45 1_555 1_555
H36 C50 1_555 1_555
N3 C26 1_555 1_555
N4 C27 1_555 1_555
O2 C26 1_555 1_555
C2 N1 1_555 1_555
C3 N2 1_555 1_555
C7 C12 1_555 1_555
C11 C12 1_555 1_555
C13 N1 1_555 1_555
C18 C19 1_555 1_555
C24 C25 1_555 1_555
C27 N3 1_555 1_555
C28 N4 1_555 1_555
C32 C37 1_555 1_555
C36 C37 1_555 1_555
C38 N3 1_555 1_555
C43 C44 1_555 1_555
C49 C50 1_555 1_555

#END
