
#######################################################################
#
#                 Cambridge Crystallographic Data Centre
#                                CCDC 
#
#######################################################################
#
# If this CIF has been generated from an entry in the Cambridge 
# Structural Database, then it will include bibliographic, chemical, 
# crystal, experimental, refinement or atomic coordinate data resulting 
# from the CCDC's data processing and validation procedures.
#
#######################################################################

data_GIGMAM
_chemical_formula_moiety         'C22 H18 N2 O1'
_chemical_name_systematic        
3-Benzyl-5-methyl-2-phenylquinazolin-4(3H)-one
_symmetry_cell_setting           monoclinic
_symmetry_space_group_name_H-M   'P 21/n'
_symmetry_Int_Tables_number      14
_space_group_name_Hall           '-P 2yn'
loop_
_symmetry_equiv_pos_site_id
_symmetry_equiv_pos_as_xyz
1 x,y,z
2 1/2-x,1/2+y,1/2-z
3 -x,-y,-z
4 1/2+x,1/2-y,1/2+z
_cell_length_a                   8.8622(11)
_cell_length_b                   9.9009(10)
_cell_length_c                   19.590(2)
_cell_angle_alpha                90
_cell_angle_beta                 96.015(4)
_cell_angle_gamma                90
_cell_volume                     1709.44
_exptl_crystal_colour            colorless
_exptl_crystal_description       block
_cell_formula_units_Z            4
loop_
_atom_site_label
_atom_site_type_symbol
_atom_site_fract_x
_atom_site_fract_y
_atom_site_fract_z
C1 C 1.00452(15) 1.07554(15) 0.13123(7)
C2 C 0.92671(15) 0.84494(14) 0.15466(7)
C3 C 0.82041(15) 0.94544(15) 0.05463(7)
C4 C 0.72046(16) 0.93104(16) -0.00519(7)
H1 H 0.6648 0.8497 -0.0137
C5 C 0.70361(16) 1.03580(16) -0.05145(8)
H2 H 0.6369 1.0263 -0.0924
C6 C 0.78380(16) 1.15575(16) -0.03859(7)
H3 H 0.7712 1.2263 -0.0715
C7 C 0.88117(16) 1.17553(15) 0.02058(7)
C8 C 0.90029(15) 1.06689(14) 0.06831(7)
C9 C 0.96146(19) 1.30913(16) 0.03109(8)
H4 H 0.9311 1.3685 -0.0080
H5 H 1.0714 1.2947 0.0346
H6 H 0.9342 1.3511 0.0734
C10 C 1.14419(15) 0.95149(15) 0.22655(7)
H7 H 1.2284 1.0074 0.2126
H8 H 1.1811 0.8572 0.2311
C11 C 1.10642(15) 0.99921(14) 0.29591(7)
C12 C 1.18305(16) 0.94085(15) 0.35456(7)
H9 H 1.2571 0.8729 0.3502
C13 C 1.15085(16) 0.98234(16) 0.41912(7)
H10 H 1.2039 0.9431 0.4589
C14 C 1.04204(16) 1.08048(15) 0.42601(7)
H11 H 1.0208 1.1086 0.4704
C15 C 0.96446(16) 1.13742(15) 0.36812(7)
H12 H 0.8886 1.2037 0.3727
C16 C 0.99748(16) 1.09764(15) 0.30336(7)
H13 H 0.9451 1.1381 0.2637
C17 C 0.93062(15) 0.72799(14) 0.20293(7)
C18 C 0.95813(16) 0.59928(15) 0.17865(8)
H14 H 0.9820 0.5881 0.1328
C19 C 0.95108(16) 0.48699(16) 0.22065(8)
H15 H 0.9710 0.3995 0.2039
C20 C 0.91480(16) 0.50348(16) 0.28727(8)
H16 H 0.9092 0.4270 0.3161
C21 C 0.88670(16) 0.63120(16) 0.31187(8)
H17 H 0.8621 0.6419 0.3576
C22 C 0.89422(15) 0.74351(16) 0.27018(7)
H18 H 0.8747 0.8309 0.2873
N1 N 1.01692(12) 0.95669(12) 0.17125(6)
N2 N 0.83301(13) 0.83601(12) 0.09949(6)
O1 O 1.08079(11) 1.17433(10) 0.15073(5)
loop_
_geom_bond_atom_site_label_1
_geom_bond_atom_site_label_2
_geom_bond_site_symmetry_1
_geom_bond_site_symmetry_2
C1 C8 1_555 1_555
C2 C17 1_555 1_555
C3 C4 1_555 1_555
C4 H1 1_555 1_555
C5 C4 1_555 1_555
H2 C5 1_555 1_555
C6 C5 1_555 1_555
H3 C6 1_555 1_555
C7 C6 1_555 1_555
C8 C3 1_555 1_555
C9 C7 1_555 1_555
H4 C9 1_555 1_555
H5 C9 1_555 1_555
H6 C9 1_555 1_555
C10 H7 1_555 1_555
H8 C10 1_555 1_555
C11 C10 1_555 1_555
C12 C11 1_555 1_555
H9 C12 1_555 1_555
C13 C12 1_555 1_555
H10 C13 1_555 1_555
C14 C13 1_555 1_555
H11 C14 1_555 1_555
C15 C14 1_555 1_555
H12 C15 1_555 1_555
C16 C11 1_555 1_555
H13 C16 1_555 1_555
C17 C18 1_555 1_555
C18 H14 1_555 1_555
C19 C18 1_555 1_555
H15 C19 1_555 1_555
C20 C19 1_555 1_555
H16 C20 1_555 1_555
C21 C20 1_555 1_555
H17 C21 1_555 1_555
C22 C17 1_555 1_555
H18 C22 1_555 1_555
N1 C1 1_555 1_555
N2 C2 1_555 1_555
O1 C1 1_555 1_555
C2 N1 1_555 1_555
C3 N2 1_555 1_555
C7 C8 1_555 1_555
C10 N1 1_555 1_555
C15 C16 1_555 1_555
C21 C22 1_555 1_555

#END
