
#######################################################################
#
#                 Cambridge Crystallographic Data Centre
#                                CCDC 
#
#######################################################################
#
# If this CIF has been generated from an entry in the Cambridge 
# Structural Database, then it will include bibliographic, chemical, 
# crystal, experimental, refinement or atomic coordinate data resulting 
# from the CCDC's data processing and validation procedures.
#
#######################################################################

data_GIHDOR
_chemical_formula_moiety         'C8 H7 I1 O3'
_chemical_name_systematic        4-Hydroxy-3-iodo-5-methoxybenzaldehyde
_symmetry_cell_setting           orthorhombic
_symmetry_space_group_name_H-M   'P b a m'
_symmetry_Int_Tables_number      55
_space_group_name_Hall           '-P 2 2ab'
loop_
_symmetry_equiv_pos_site_id
_symmetry_equiv_pos_as_xyz
1 x,y,z
2 -x,-y,z
3 1/2+x,1/2-y,-z
4 1/2-x,1/2+y,-z
5 -x,-y,-z
6 x,y,-z
7 1/2-x,1/2+y,z
8 1/2+x,1/2-y,z
_cell_length_a                   16.332(2)
_cell_length_b                   16.344(2)
_cell_length_c                   6.5957(12)
_cell_angle_alpha                90
_cell_angle_beta                 90
_cell_angle_gamma                90
_cell_volume                     1760.59
_exptl_crystal_colour            yellow
_exptl_crystal_description       block
_cell_formula_units_Z            8
_exptl_crystal_recrystallization_method 'anhydrous ethanol'
loop_
_atom_site_label
_atom_site_type_symbol
_atom_site_fract_x
_atom_site_fract_y
_atom_site_fract_z
I1 I -0.024919(16) 0.352244(16) 0.5000
O1 O 0.13388(17) 0.45773(15) 0.5000
H1 H 0.1744 0.4873 0.5000
O2 O 0.29270(16) 0.42133(16) 0.5000
O3 O 0.29135(17) 0.10050(16) 0.5000
C1 C 0.0976(2) 0.3182(2) 0.5000
C2 C 0.1575(2) 0.3788(2) 0.5000
C3 C 0.2406(2) 0.3558(2) 0.5000
C4 C 0.2620(2) 0.2753(2) 0.5000
H2 H 0.3170 0.2604 0.5000
C5 C 0.2013(2) 0.2148(2) 0.5000
C6 C 0.1193(2) 0.2362(2) 0.5000
H3 H 0.0791 0.1959 0.5000
C7 C 0.2227(3) 0.1278(2) 0.5000
H4 H 0.1797 0.0904 0.5000
C8 C 0.3785(2) 0.4039(3) 0.5000
H5 H 0.4087 0.4542 0.5000
H6 H 0.3921 0.3728 0.3812
H6E H 0.3921 0.3728 0.6188
I2 I 0.049445(18) 0.127572(19) 0.0000
O4 O 0.15122(18) -0.03449(17) 0.0000
H7 H 0.1763 -0.0779 0.0000
O5 O 0.30938(17) -0.06768(16) 0.0000
O6 O 0.3560(2) 0.29765(18) 0.0000
C9 C 0.1756(2) 0.1081(2) 0.0000
C10 C 0.2044(2) 0.0276(2) 0.0000
C11 C 0.2889(2) 0.0137(2) 0.0000
C12 C 0.3422(2) 0.0785(2) 0.0000
H8 H 0.3984 0.0690 0.0000
C13 C 0.3128(3) 0.1583(2) 0.0000
C14 C 0.2296(3) 0.1732(2) 0.0000
H9 H 0.2101 0.2266 0.0000
C15 C 0.3720(3) 0.2257(3) 0.0000
H10 H 0.4271 0.2115 0.0000
C16 C 0.3938(3) -0.0866(3) 0.0000
H11 H 0.4008 -0.1449 0.0000
H12 H 0.4190 -0.0638 0.1188
H12E H 0.4190 -0.0638 -0.1188
loop_
_geom_bond_atom_site_label_1
_geom_bond_atom_site_label_2
_geom_bond_site_symmetry_1
_geom_bond_site_symmetry_2
I1 C1 1_555 1_555
O1 H1 1_555 1_555
O2 C3 1_555 1_555
O3 C7 1_555 1_555
C1 C2 1_555 1_555
C2 O1 1_555 1_555
C3 C2 1_555 1_555
C4 C3 1_555 1_555
H2 C4 1_555 1_555
C5 C4 1_555 1_555
C6 C1 1_555 1_555
H3 C6 1_555 1_555
C7 C5 1_555 1_555
H4 C7 1_555 1_555
C8 O2 1_555 1_555
H5 C8 1_555 1_555
H6 C8 1_555 1_555
I2 C9 1_555 1_555
O4 H7 1_555 1_555
O5 C11 1_555 1_555
O6 C15 1_555 1_555
C9 C10 1_555 1_555
C10 O4 1_555 1_555
C11 C10 1_555 1_555
C12 C11 1_555 1_555
H8 C12 1_555 1_555
C13 C12 1_555 1_555
C14 C9 1_555 1_555
H9 C14 1_555 1_555
C15 C13 1_555 1_555
H10 C15 1_555 1_555
C16 O5 1_555 1_555
H11 C16 1_555 1_555
H12 C16 1_555 1_555
H6E C8 1_555 1_555
H12E C16 1_555 1_555
C5 C6 1_555 1_555
C13 C14 1_555 1_555

#END
