
#######################################################################
#
#                 Cambridge Crystallographic Data Centre
#                                CCDC 
#
#######################################################################
#
# If this CIF has been generated from an entry in the Cambridge 
# Structural Database, then it will include bibliographic, chemical, 
# crystal, experimental, refinement or atomic coordinate data resulting 
# from the CCDC's data processing and validation procedures.
#
#######################################################################

data_GIHDIL
_chemical_formula_moiety         'C23 H21 N1 O1'
_chemical_name_systematic        
2,2-Dimethyl-5-phenyl-4-oxa-1-aza-6,7:8,9-dibenzobicyclo(3.2.2)nonane
_symmetry_cell_setting           monoclinic
_symmetry_space_group_name_H-M   'P 21/c'
_symmetry_Int_Tables_number      14
_space_group_name_Hall           '-P 2ybc'
loop_
_symmetry_equiv_pos_site_id
_symmetry_equiv_pos_as_xyz
1 x,y,z
2 -x,1/2+y,1/2-z
3 -x,-y,-z
4 x,1/2-y,1/2+z
_cell_length_a                   15.707(6)
_cell_length_b                   9.227(4)
_cell_length_c                   12.198(5)
_cell_angle_alpha                90
_cell_angle_beta                 101.575(6)
_cell_angle_gamma                90
_cell_volume                     1731.89
_exptl_crystal_colour            colorless
_exptl_crystal_description       prism
_cell_formula_units_Z            4
_exptl_crystal_recrystallization_method hexane
loop_
_atom_site_label
_atom_site_type_symbol
_atom_site_fract_x
_atom_site_fract_y
_atom_site_fract_z
C1 C 0.96183(10) 0.24037(17) 0.28052(13)
H1 H 0.9429 0.2047 0.3428
C2 C 1.04785(10) 0.28135(19) 0.28977(15)
H2 H 1.0861 0.2729 0.3583
C3 C 1.07728(10) 0.33424(19) 0.19895(16)
H3 H 1.1348 0.3634 0.2061
C4 C 1.02079(11) 0.34364(19) 0.09715(16)
H4 H 1.0406 0.3769 0.0348
C5 C 0.93473(10) 0.30390(19) 0.08725(13)
H5 H 0.8969 0.3118 0.0183
C6 C 0.90390(9) 0.25219(15) 0.17922(11)
C7 C 0.80819(9) 0.21735(15) 0.16881(10)
C8 C 0.72086(9) 0.18203(16) 0.31426(11)
H6 H 0.7166 0.2861 0.3229
H7 H 0.7257 0.1387 0.3877
C9 C 0.63664(9) 0.12763(15) 0.23859(11)
C10 C 0.56008(10) 0.19291(19) 0.28076(13)
H8 H 0.5067 0.1602 0.2346
H9 H 0.5630 0.2967 0.2776
H10 H 0.5623 0.1629 0.3567
C11 C 0.63202(12) -0.03686(17) 0.24199(14)
H11 H 0.5791 -0.0691 0.1944
H12 H 0.6332 -0.0680 0.3174
H13 H 0.6808 -0.0773 0.2163
C12 C 0.68217(9) 0.08999(14) 0.05706(11)
C13 C 0.64116(11) -0.00665(16) -0.02287(12)
H14 H 0.5811 -0.0174 -0.0360
C14 C 0.69024(12) -0.08768(17) -0.08352(13)
H15 H 0.6629 -0.1526 -0.1376
C15 C 0.77895(12) -0.07215(18) -0.06376(13)
H16 H 0.8115 -0.1270 -0.1044
C16 C 0.82047(10) 0.02507(16) 0.01655(12)
H17 H 0.8806 0.0349 0.0296
C17 C 0.77218(9) 0.10735(14) 0.07715(11)
C18 C 0.66150(9) 0.32615(14) 0.11765(10)
C19 C 0.60351(10) 0.44013(16) 0.09311(12)
H18 H 0.5440 0.4225 0.0772
C20 C 0.63460(11) 0.58057(17) 0.09236(13)
H19 H 0.5958 0.6573 0.0751
C21 C 0.72252(11) 0.60710(17) 0.11705(13)
H20 H 0.7430 0.7016 0.1158
C22 C 0.78091(10) 0.49345(15) 0.14383(12)
H21 H 0.8402 0.5122 0.1622
C23 C 0.75088(9) 0.35205(14) 0.14324(10)
O1 O 0.79830(6) 0.15078(11) 0.27410(7)
N1 N 0.63133(7) 0.17812(12) 0.11871(9)
loop_
_geom_bond_atom_site_label_1
_geom_bond_atom_site_label_2
_geom_bond_site_symmetry_1
_geom_bond_site_symmetry_2
C1 H1 1_555 1_555
C2 C1 1_555 1_555
H2 C2 1_555 1_555
C3 C2 1_555 1_555
H3 C3 1_555 1_555
C4 C3 1_555 1_555
H4 C4 1_555 1_555
C5 C4 1_555 1_555
H5 C5 1_555 1_555
C6 C1 1_555 1_555
C7 C6 1_555 1_555
C8 H6 1_555 1_555
H7 C8 1_555 1_555
C9 C8 1_555 1_555
C10 C9 1_555 1_555
H8 C10 1_555 1_555
H9 C10 1_555 1_555
H10 C10 1_555 1_555
C11 C9 1_555 1_555
H11 C11 1_555 1_555
H12 C11 1_555 1_555
H13 C11 1_555 1_555
C12 C13 1_555 1_555
C13 H14 1_555 1_555
C14 C13 1_555 1_555
H15 C14 1_555 1_555
C15 C14 1_555 1_555
H16 C15 1_555 1_555
C16 C15 1_555 1_555
H17 C16 1_555 1_555
C17 C7 1_555 1_555
C18 C19 1_555 1_555
C19 H18 1_555 1_555
C20 C19 1_555 1_555
H19 C20 1_555 1_555
C21 C20 1_555 1_555
H20 C21 1_555 1_555
C22 C21 1_555 1_555
H21 C22 1_555 1_555
C23 C7 1_555 1_555
O1 C7 1_555 1_555
N1 C9 1_555 1_555
C5 C6 1_555 1_555
C8 O1 1_555 1_555
C12 C17 1_555 1_555
C12 N1 1_555 1_555
C16 C17 1_555 1_555
C18 C23 1_555 1_555
C18 N1 1_555 1_555
C22 C23 1_555 1_555

#END
