
#######################################################################
#
#                 Cambridge Crystallographic Data Centre
#                                CCDC 
#
#######################################################################
#
# If this CIF has been generated from an entry in the Cambridge 
# Structural Database, then it will include bibliographic, chemical, 
# crystal, experimental, refinement or atomic coordinate data resulting 
# from the CCDC's data processing and validation procedures.
#
#######################################################################

data_GIJGAK
_chemical_name_common            
'[4-(9H-carbazol-9-yl)phenyl]-[2-(1H-pyrazol-1-yl)phenyl]-(2,4,6-trimethylphenyl)-boron'
_chemical_formula_moiety         'C36 H30 B1 N3'
_chemical_name_systematic        
9-{4-[5-(2,4,6-trimethylphenyl)-5H-4,5-pyrazolo[1,2-a][1,2,3]benzodiazaborol-5-yl]phenyl}-9H-carbazole
_symmetry_cell_setting           triclinic
_symmetry_space_group_name_H-M   'P -1'
_symmetry_Int_Tables_number      2
_space_group_name_Hall           '-P 1'
loop_
_symmetry_equiv_pos_site_id
_symmetry_equiv_pos_as_xyz
1 x,y,z
2 -x,-y,-z
_cell_length_a                   10.6235(9)
_cell_length_b                   12.3400(13)
_cell_length_c                   12.5242(13)
_cell_angle_alpha                72.283(3)
_cell_angle_beta                 72.107(3)
_cell_angle_gamma                64.832(3)
_cell_volume                     1385.06
_exptl_crystal_colour            colorless
_exptl_crystal_description       Block
_cell_formula_units_Z            2
loop_
_atom_site_label
_atom_site_type_symbol
_atom_site_fract_x
_atom_site_fract_y
_atom_site_fract_z
B1 B 0.3049(4) 0.5222(4) 0.3092(3)
C1 C 0.4611(4) 0.5063(3) 0.2308(3)
N1 N 0.3148(3) 0.5996(3) 0.3891(2)
C2 C 0.5342(4) 0.4547(4) 0.1329(3)
H1 H 0.4888 0.4207 0.1046
N2 N 0.4466(3) 0.6050(3) 0.3627(3)
C3 C 0.6683(4) 0.4515(4) 0.0766(4)
H2 H 0.7143 0.4169 0.0101
N3 N 0.2993(3) 0.0730(3) 0.6465(2)
C4 C 0.7342(5) 0.4992(4) 0.1182(4)
H3 H 0.8275 0.4968 0.0804
C5 C 0.6670(4) 0.5516(4) 0.2157(3)
H4 H 0.7128 0.5851 0.2442
C6 C 0.5336(4) 0.5527(3) 0.2679(3)
C7 C 0.4574(5) 0.6625(4) 0.4341(3)
H5 H 0.5390 0.6768 0.4326
C8 C 0.3299(5) 0.6961(4) 0.5084(4)
H6 H 0.3051 0.7383 0.5682
C9 C 0.2402(5) 0.6545(4) 0.4776(3)
H7 H 0.1444 0.6646 0.5141
C10 C 0.3010(4) 0.3963(3) 0.3981(3)
C11 C 0.4073(4) 0.2834(3) 0.3868(3)
H8 H 0.4826 0.2786 0.3213
C12 C 0.4083(4) 0.1777(3) 0.4665(3)
H9 H 0.4833 0.1022 0.4554
C13 C 0.3001(4) 0.1817(3) 0.5629(3)
C14 C 0.1918(4) 0.2917(3) 0.5780(3)
H10 H 0.1165 0.2956 0.6435
C15 C 0.1936(4) 0.3969(3) 0.4966(3)
H11 H 0.1189 0.4724 0.5083
C16 C 0.1802(3) 0.6003(3) 0.2360(3)
C17 C 0.1070(4) 0.5438(3) 0.2072(3)
C18 C 0.0014(4) 0.6136(4) 0.1437(3)
H12 H -0.0456 0.5732 0.1254
C19 C -0.0382(4) 0.7385(4) 0.1060(3)
C20 C 0.0382(4) 0.7931(4) 0.1280(3)
H13 H 0.0164 0.8784 0.1003
C21 C 0.1468(4) 0.7271(3) 0.1899(3)
C22 C 0.2284(4) 0.7973(3) 0.1987(3)
H14 H 0.2039 0.8768 0.1461
H15 H 0.3306 0.7510 0.1785
H16 H 0.2039 0.8095 0.2774
C23 C 0.1415(5) 0.4071(4) 0.2354(4)
H17 H 0.1123 0.3804 0.3182
H18 H 0.2441 0.3647 0.2114
H19 H 0.0905 0.3877 0.1949
C24 C -0.1569(4) 0.8108(5) 0.0413(4)
H20 H -0.1541 0.7628 -0.0096
H21 H -0.1453 0.8873 -0.0043
H22 H -0.2484 0.8292 0.0957
C25 C 0.2022(4) 0.0176(3) 0.6665(3)
C26 C 0.1009(4) 0.0441(4) 0.6057(3)
H23 H 0.0889 0.1084 0.5400
C27 C 0.0177(5) -0.0257(4) 0.6432(4)
H24 H -0.0537 -0.0085 0.6032
C28 C 0.0358(5) -0.1210(5) 0.7386(4)
H25 H -0.0220 -0.1687 0.7617
C29 C 0.1362(5) -0.1470(4) 0.7999(4)
H26 H 0.1472 -0.2114 0.8655
C30 C 0.2223(4) -0.0769(3) 0.7638(3)
C31 C 0.3347(4) -0.0776(3) 0.8050(3)
C32 C 0.4011(5) -0.1480(4) 0.8970(3)
H27 H 0.3721 -0.2115 0.9485
C33 C 0.5083(5) -0.1245(4) 0.9122(4)
H28 H 0.5529 -0.1716 0.9753
C34 C 0.5537(5) -0.0324(4) 0.8366(4)
H29 H 0.6291 -0.0184 0.8486
C35 C 0.4905(4) 0.0384(4) 0.7450(4)
H30 H 0.5213 0.1010 0.6935
C36 C 0.3806(4) 0.0156(3) 0.7300(3)
loop_
_geom_bond_atom_site_label_1
_geom_bond_atom_site_label_2
_geom_bond_site_symmetry_1
_geom_bond_site_symmetry_2
B1 C1 1_555 1_555
C1 C2 1_555 1_555
N1 B1 1_555 1_555
C2 H1 1_555 1_555
N2 N1 1_555 1_555
C3 C2 1_555 1_555
H2 C3 1_555 1_555
N3 C13 1_555 1_555
C4 C3 1_555 1_555
H3 C4 1_555 1_555
C5 C4 1_555 1_555
H4 C5 1_555 1_555
C6 C1 1_555 1_555
C7 N2 1_555 1_555
H5 C7 1_555 1_555
C8 C7 1_555 1_555
H6 C8 1_555 1_555
C9 N1 1_555 1_555
H7 C9 1_555 1_555
C10 B1 1_555 1_555
C11 C10 1_555 1_555
H8 C11 1_555 1_555
C12 C11 1_555 1_555
H9 C12 1_555 1_555
C13 C12 1_555 1_555
C14 C13 1_555 1_555
H10 C14 1_555 1_555
C15 C10 1_555 1_555
H11 C15 1_555 1_555
C16 B1 1_555 1_555
C17 C16 1_555 1_555
C18 C17 1_555 1_555
H12 C18 1_555 1_555
C19 C18 1_555 1_555
C20 C19 1_555 1_555
H13 C20 1_555 1_555
C21 C16 1_555 1_555
C22 C21 1_555 1_555
H14 C22 1_555 1_555
H15 C22 1_555 1_555
H16 C22 1_555 1_555
C23 C17 1_555 1_555
H17 C23 1_555 1_555
H18 C23 1_555 1_555
H19 C23 1_555 1_555
C24 C19 1_555 1_555
H20 C24 1_555 1_555
H21 C24 1_555 1_555
H22 C24 1_555 1_555
C25 N3 1_555 1_555
C26 C25 1_555 1_555
H23 C26 1_555 1_555
C27 C26 1_555 1_555
H24 C27 1_555 1_555
C28 C27 1_555 1_555
H25 C28 1_555 1_555
C29 C28 1_555 1_555
H26 C29 1_555 1_555
C30 C25 1_555 1_555
C31 C30 1_555 1_555
C32 C31 1_555 1_555
H27 C32 1_555 1_555
C33 C32 1_555 1_555
H28 C33 1_555 1_555
C34 C33 1_555 1_555
H29 C34 1_555 1_555
C35 C34 1_555 1_555
H30 C35 1_555 1_555
C36 N3 1_555 1_555
N2 C6 1_555 1_555
C5 C6 1_555 1_555
C8 C9 1_555 1_555
C14 C15 1_555 1_555
C20 C21 1_555 1_555
C29 C30 1_555 1_555
C31 C36 1_555 1_555
C35 C36 1_555 1_555

#END
