
#######################################################################
#
#                 Cambridge Crystallographic Data Centre
#                                CCDC 
#
#######################################################################
#
# If this CIF has been generated from an entry in the Cambridge 
# Structural Database, then it will include bibliographic, chemical, 
# crystal, experimental, refinement or atomic coordinate data resulting 
# from the CCDC's data processing and validation procedures.
#
#######################################################################

data_GIJLES
_chemical_formula_moiety         'C17 H15 F3 N2 O2'
_chemical_name_systematic        
'Ethyl 1-ethyl-3-(trifluoromethyl)-1H-azuleno[8,1-cd]pyridazine-5-carboxylate'
_symmetry_cell_setting           monoclinic
_symmetry_space_group_name_H-M   'P 21/m'
_symmetry_Int_Tables_number      11
_space_group_name_Hall           '-P 2yb'
loop_
_symmetry_equiv_pos_site_id
_symmetry_equiv_pos_as_xyz
1 x,y,z
2 -x,1/2+y,-z
3 -x,-y,-z
4 x,1/2-y,z
_cell_length_a                   10.4078(3)
_cell_length_b                   6.8160(2)
_cell_length_c                   10.9689(4)
_cell_angle_alpha                90
_cell_angle_beta                 92.845(2)
_cell_angle_gamma                90
_cell_volume                     777.17
_cell_formula_units_Z            2
loop_
_atom_site_label
_atom_site_type_symbol
_atom_site_fract_x
_atom_site_fract_y
_atom_site_fract_z
F1 F 0.4041(3) 0.7500 -0.0006(2)
F2 F 0.2590(3) 0.6003(5) 0.0823(2)
O1 O -0.0120(2) 0.7500 0.4799(3)
O2 O 0.0966(2) 0.7500 0.6594(2)
N1 N 0.6074(3) 0.7500 0.3137(3)
N2 N 0.5342(3) 0.7500 0.2073(3)
C1 C 0.5026(3) 0.7500 0.7113(3)
H1 H 0.5097 0.7500 0.7961
C2 C 0.3808(3) 0.7500 0.6605(3)
H2 H 0.3150 0.7500 0.7148
C3 C 0.3420(3) 0.7500 0.5347(3)
C4 C 0.2145(3) 0.7500 0.4810(3)
C5 C 0.2188(3) 0.7500 0.3536(3)
H3 H 0.1478 0.7500 0.2986
C6 C 0.3457(3) 0.7500 0.3230(3)
C7 C 0.4249(3) 0.7500 0.4336(3)
C8 C 0.5590(3) 0.7500 0.4282(3)
C9 C 0.6474(3) 0.7500 0.5323(3)
H4 H 0.7342 0.7500 0.5160
C10 C 0.6202(3) 0.7500 0.6513(3)
H5 H 0.6927 0.7500 0.7044
C11 C 0.7488(3) 0.7500 0.2992(4)
H6 H 0.7853 0.6362 0.3392
C12 C 0.7853(5) 0.7500 0.1732(5)
H7 H 0.7522 0.6366 0.1328
H8 H 0.8766 0.7500 0.1711
C13 C 0.4105(4) 0.7500 0.2132(3)
C14 C 0.3388(5) 0.7500 0.0927(4)
C15 C 0.0893(3) 0.7500 0.5380(4)
C16 C -0.0250(3) 0.7500 0.7179(4)
H9 H -0.0743 0.6351 0.6935
C17 C 0.0001(5) 0.7500 0.8502(5)
H10 H 0.0479 0.6365 0.8734
H11 H -0.0791 0.7500 0.8904
F2C F 0.2590(3) 0.8997(5) 0.0823(2)
H6C H 0.7853 0.8638 0.3392
H7C H 0.7522 0.8634 0.1328
H9C H -0.0743 0.8649 0.6935
H10C H 0.0479 0.8635 0.8734
loop_
_geom_bond_atom_site_label_1
_geom_bond_atom_site_label_2
_geom_bond_site_symmetry_1
_geom_bond_site_symmetry_2
F1 C14 1_555 1_555
F2 C14 1_555 1_555
O1 C15 1_555 1_555
O2 C15 1_555 1_555
N1 N2 1_555 1_555
N2 C13 1_555 1_555
C1 H1 1_555 1_555
C2 C1 1_555 1_555
H2 C2 1_555 1_555
C3 C2 1_555 1_555
C4 C3 1_555 1_555
C5 C4 1_555 1_555
H3 C5 1_555 1_555
C6 C5 1_555 1_555
C7 C3 1_555 1_555
C8 N1 1_555 1_555
C9 C8 1_555 1_555
H4 C9 1_555 1_555
C10 C1 1_555 1_555
H5 C10 1_555 1_555
C11 N1 1_555 1_555
H6 C11 1_555 1_555
C12 C11 1_555 1_555
H7 C12 1_555 1_555
H8 C12 1_555 1_555
C13 C6 1_555 1_555
C14 C13 1_555 1_555
C15 C4 1_555 1_555
C16 O2 1_555 1_555
H9 C16 1_555 1_555
C17 C16 1_555 1_555
H10 C17 1_555 1_555
H11 C17 1_555 1_555
F2C C14 1_555 1_555
H6C C11 1_555 1_555
H7C C12 1_555 1_555
H9C C16 1_555 1_555
H10C C17 1_555 1_555
C6 C7 1_555 1_555
C7 C8 1_555 1_555
C9 C10 1_555 1_555

#END
