
#######################################################################
#
#                 Cambridge Crystallographic Data Centre
#                                CCDC 
#
#######################################################################
#
# If this CIF has been generated from an entry in the Cambridge 
# Structural Database, then it will include bibliographic, chemical, 
# crystal, experimental, refinement or atomic coordinate data resulting 
# from the CCDC's data processing and validation procedures.
#
#######################################################################

data_GIJMUK
_chemical_formula_moiety         'C5 H17 B9 N1 O1 1-,C8 H20 N1 1+'
_chemical_name_systematic        
'tetraethylammonium 1-(isopropylaminocarbonyl)-1-carba-closo-dodecaborate'
_symmetry_cell_setting           monoclinic
_symmetry_space_group_name_H-M   'C 2/c'
_symmetry_Int_Tables_number      15
_space_group_name_Hall           '-C 2yn'
loop_
_symmetry_equiv_pos_site_id
_symmetry_equiv_pos_as_xyz
1 x,y,z
2 -x,y,1/2-z
3 1/2+x,1/2+y,z
4 1/2-x,1/2+y,1/2-z
5 -x,-y,-z
6 x,-y,1/2+z
7 1/2-x,1/2-y,-z
8 1/2+x,1/2-y,1/2+z
_cell_length_a                   31.845(4)
_cell_length_b                   10.2834(6)
_cell_length_c                   15.723(2)
_cell_angle_alpha                90
_cell_angle_beta                 118.864(19)
_cell_angle_gamma                90
_cell_volume                     4509.23
_exptl_crystal_colour            colorless
_exptl_crystal_description       plate
_cell_formula_units_Z            8
loop_
_atom_site_label
_atom_site_type_symbol
_atom_site_fract_x
_atom_site_fract_y
_atom_site_fract_z
O1 O 0.11474(9) 0.64852(17) 0.24840(17)
N1 N 0.13216(13) 0.6277(2) 0.1296(2)
H1 H 0.138407 0.573507 0.095512
C1 C 0.12825(8) 0.4361(2) 0.21074(17)
C2 C 0.12409(8) 0.5794(2) 0.19725(18)
C3 C 0.13147(16) 0.7657(3) 0.1068(3)
H2 H 0.126167 0.814463 0.154315
C4 C 0.17818(19) 0.8074(4) 0.1178(4)
H3 H 0.203143 0.785747 0.181755
H4 H 0.177827 0.899648 0.108264
H5 H 0.183947 0.763755 0.070383
C5 C 0.0906(2) 0.7940(4) 0.0095(4)
H6 H 0.093622 0.743375 -0.038552
H7 H 0.090505 0.884780 -0.004755
H8 H 0.061093 0.772087 0.008762
B1 B 0.12676(13) 0.3617(3) 0.2987(2)
H9 H 0.121726 0.414114 0.354132
B2 B 0.17762(11) 0.3589(3) 0.2735(2)
H10 H 0.212425 0.409180 0.309144
B3 B 0.13583(11) 0.3288(3) 0.1448(2)
H11 H 0.137844 0.355936 0.079151
B4 B 0.08521(12) 0.3326(3) 0.1703(3)
H12 H 0.047612 0.361953 0.124741
B5 B 0.10095(15) 0.2043(3) 0.2581(3)
H13 H 0.074264 0.167426 0.277517
B6 B 0.16596(15) 0.2227(3) 0.3306(3)
H14 H 0.190810 0.200522 0.407304
B7 B 0.17182(13) 0.1990(3) 0.2210(2)
H15 H 0.201156 0.158059 0.211332
B8 B 0.10754(13) 0.1812(3) 0.1492(3)
H16 H 0.085912 0.126118 0.081986
B9 B 0.13944(15) 0.0976(3) 0.2520(3)
H17 H 0.1420(11) -0.0111(18) 0.262(2)
N2 N 0.000000 0.7803(3) 0.250000
C6 C 0.00259(14) 0.9526(4) 0.1358(3)
H18 H -0.014743 0.901944 0.077801
H19 H 0.024480 1.009535 0.128372
H20 H -0.019562 1.003208 0.147130
C7 C 0.03500(10) 0.6967(3) 0.3340(2)
H21 H 0.054917 0.649682 0.313297
H22 H 0.055861 0.753627 0.386797
C8 C 0.01296(15) 0.6004(4) 0.3723(3)
H23 H -0.008164 0.543865 0.320750
H24 H -0.004859 0.645784 0.397900
H25 H 0.037794 0.549800 0.422966
C9 C 0.03011(10) 0.8634(3) 0.2205(2)
H26 H 0.051658 0.915643 0.275923
H27 H 0.049686 0.806403 0.204869
C6A C -0.00259(14) 0.9526(4) 0.3642(3)
H18A H 0.014743 0.901944 0.422199
H19A H -0.024480 1.009535 0.371628
H20A H 0.019562 1.003208 0.352870
C7A C -0.03500(10) 0.6967(3) 0.1660(2)
H21A H -0.054917 0.649682 0.186703
H22A H -0.055861 0.753627 0.113203
C8A C -0.01296(15) 0.6004(4) 0.1277(3)
H23A H 0.008164 0.543865 0.179250
H24A H 0.004859 0.645784 0.102100
H25A H -0.037794 0.549800 0.077034
C9A C -0.03011(10) 0.8634(3) 0.2795(2)
H26A H -0.051658 0.915643 0.224077
H27A H -0.049686 0.806403 0.295131
N3? N 0.250000 0.750000 0.500000
C10? C 0.2258(2) 0.6157(5) 0.4638(5)
C11? C 0.2777(2) 0.6743(6) 0.4577(4)
C12? C 0.19949(19) 0.7616(6) 0.4221(4)
C13? C 0.16826(12) 0.8465(4) 0.4610(3)
C14? C 0.2435(2) 0.8183(6) 0.4078(5)
C15? C 0.26899(17) 0.9636(4) 0.4418(4)
loop_
_geom_bond_atom_site_label_1
_geom_bond_atom_site_label_2
_geom_bond_site_symmetry_1
_geom_bond_site_symmetry_2
O1 C2 1_555 1_555
N1 H1 1_555 1_555
C1 C2 1_555 1_555
C2 N1 1_555 1_555
C3 N1 1_555 1_555
H2 C3 1_555 1_555
C4 C3 1_555 1_555
H3 C4 1_555 1_555
H4 C4 1_555 1_555
H5 C4 1_555 1_555
C5 C3 1_555 1_555
H6 C5 1_555 1_555
H7 C5 1_555 1_555
H8 C5 1_555 1_555
B1 C1 1_555 1_555
H9 B1 1_555 1_555
B2 C1 1_555 1_555
H10 B2 1_555 1_555
B3 C1 1_555 1_555
H11 B3 1_555 1_555
B4 C1 1_555 1_555
H12 B4 1_555 1_555
B5 B1 1_555 1_555
H13 B5 1_555 1_555
B6 B1 1_555 1_555
H14 B6 1_555 1_555
B7 B2 1_555 1_555
H15 B7 1_555 1_555
B8 B3 1_555 1_555
H16 B8 1_555 1_555
B9 B5 1_555 1_555
H17 B9 1_555 1_555
N2 C7 1_555 1_555
C6 H18 1_555 1_555
H19 C6 1_555 1_555
H20 C6 1_555 1_555
C7 H21 1_555 1_555
H22 C7 1_555 1_555
C8 C7 1_555 1_555
H23 C8 1_555 1_555
H24 C8 1_555 1_555
H25 C8 1_555 1_555
C9 N2 1_555 1_555
H26 C9 1_555 1_555
H27 C9 1_555 1_555
C6A H18A 1_555 1_555
H19A C6A 1_555 1_555
H20A C6A 1_555 1_555
C7A N2 1_555 1_555
H21A C7A 1_555 1_555
H22A C7A 1_555 1_555
C8A C7A 1_555 1_555
H23A C8A 1_555 1_555
H24A C8A 1_555 1_555
H25A C8A 1_555 1_555
C9A N2 1_555 1_555
H26A C9A 1_555 1_555
H27A C9A 1_555 1_555
B1 B2 1_555 1_555
B1 B4 1_555 1_555
B2 B3 1_555 1_555
B2 B6 1_555 1_555
B3 B4 1_555 1_555
B3 B7 1_555 1_555
B4 B5 1_555 1_555
B4 B8 1_555 1_555
B5 B6 1_555 1_555
B5 B8 1_555 1_555
B6 B7 1_555 1_555
B6 B9 1_555 1_555
B7 B8 1_555 1_555
B7 B9 1_555 1_555
B8 B9 1_555 1_555
C6 C9 1_555 1_555
C6A C9A 1_555 1_555

#END
