
#######################################################################
#
#                 Cambridge Crystallographic Data Centre
#                                CCDC 
#
#######################################################################
#
# If this CIF has been generated from an entry in the Cambridge 
# Structural Database, then it will include bibliographic, chemical, 
# crystal, experimental, refinement or atomic coordinate data resulting 
# from the CCDC's data processing and validation procedures.
#
#######################################################################

data_GIJWON
_chemical_formula_moiety         'C9 H8 F3 N3 O3'
_chemical_name_systematic        
9-Nitro-8-(trifluoromethyl)-1,2,3,4-tetrahydro-6H-pyrido[1,2-a]pyrimidin-6-one
_symmetry_cell_setting           monoclinic
_symmetry_space_group_name_H-M   'P 21/m'
_symmetry_Int_Tables_number      11
_space_group_name_Hall           '-P 2yb'
loop_
_symmetry_equiv_pos_site_id
_symmetry_equiv_pos_as_xyz
1 x,y,z
2 -x,1/2+y,-z
3 -x,-y,-z
4 x,1/2-y,z
_cell_length_a                   7.7031(18)
_cell_length_b                   7.1192(17)
_cell_length_c                   9.495(2)
_cell_angle_alpha                90
_cell_angle_beta                 104.330(2)
_cell_angle_gamma                90
_cell_volume                     504.504
_cell_formula_units_Z            2
loop_
_atom_site_label
_atom_site_type_symbol
_atom_site_fract_x
_atom_site_fract_y
_atom_site_fract_z
C1 C 0.2270(6) 0.2500 0.6793(5)
H1 H 0.2796 0.3598 0.6458
C2 C 0.0556(9) 0.2500 0.6189(6)
H2 H 0.0365 0.1414 0.5552
C3 C -0.0869(6) 0.2500 0.6810(5)
H3 H -0.1602 0.1396 0.6498
C4 C 0.1465(5) 0.2500 0.9151(4)
C5 C 0.1990(5) 0.2500 1.0706(4)
C6 C 0.3848(5) 0.2500 1.1429(4)
C7 C 0.5075(5) 0.2500 1.0640(5)
H4 H 0.6282 0.2500 1.1126
C8 C 0.4606(5) 0.2500 0.9088(5)
C9 C 0.4602(6) 0.2500 1.3073(5)
F1 F 0.4156(3) 0.0996(4) 1.3720(2)
F2 F 0.6388(4) 0.2500 1.3386(4)
N1 N 0.2771(4) 0.2500 0.8406(3)
N2 N -0.0229(5) 0.2500 0.8391(4)
H5 H -0.1032 0.2500 0.8879
N3 N 0.0676(5) 0.2500 1.1492(4)
O1 O 0.5699(4) 0.2500 0.8350(4)
O2 O 0.1067(5) 0.2500 1.2787(4)
O3 O -0.0903(5) 0.2500 1.0885(4)
H1C H 0.2796 0.1402 0.6458
H2C H 0.0365 0.3586 0.5552
H3C H -0.1602 0.3604 0.6498
F1C F 0.4156(3) 0.4004(4) 1.3720(2)
H6? H 0.2796 0.3598 0.6458
H7? H 0.0365 0.1414 0.5552
H8? H -0.1602 0.1396 0.6498
loop_
_geom_bond_atom_site_label_1
_geom_bond_atom_site_label_2
_geom_bond_site_symmetry_1
_geom_bond_site_symmetry_2
C1 H1 1_555 1_555
C2 C1 1_555 1_555
H2 C2 1_555 1_555
C3 C2 1_555 1_555
H3 C3 1_555 1_555
C4 C5 1_555 1_555
C5 C6 1_555 1_555
C6 C7 1_555 1_555
C7 H4 1_555 1_555
C8 C7 1_555 1_555
C9 C6 1_555 1_555
F1 C9 1_555 1_555
F2 C9 1_555 1_555
N1 C1 1_555 1_555
N2 C3 1_555 1_555
H5 N2 1_555 1_555
N3 C5 1_555 1_555
O1 C8 1_555 1_555
O2 N3 1_555 1_555
O3 N3 1_555 1_555
H1C C1 1_555 1_555
H2C C2 1_555 1_555
H3C C3 1_555 1_555
F1C C9 1_555 1_555
C4 N1 1_555 1_555
C4 N2 1_555 1_555
C8 N1 1_555 1_555

#END
