
#######################################################################
#
#                 Cambridge Crystallographic Data Centre
#                                CCDC 
#
#######################################################################
#
# If this CIF has been generated from an entry in the Cambridge 
# Structural Database, then it will include bibliographic, chemical, 
# crystal, experimental, refinement or atomic coordinate data resulting 
# from the CCDC's data processing and validation procedures.
#
#######################################################################

data_GIJXIJ
_chemical_formula_moiety         'C24 H20 N4 O5'
_chemical_name_systematic        
3',6'-bis[ethyl(nitroso)amino]-3H-spiro[2-benzofuran-1,9'-xanthen]-3-one
_symmetry_cell_setting           monoclinic
_symmetry_space_group_name_H-M   'P 21/c'
_symmetry_Int_Tables_number      14
_space_group_name_Hall           '-P 2ybc'
loop_
_symmetry_equiv_pos_site_id
_symmetry_equiv_pos_as_xyz
1 x,y,z
2 -x,1/2+y,1/2-z
3 -x,-y,-z
4 x,1/2-y,1/2+z
_cell_length_a                   13.1450(5)
_cell_length_b                   14.0218(6)
_cell_length_c                   12.9264(5)
_cell_angle_alpha                90
_cell_angle_beta                 114.4160(10)
_cell_angle_gamma                90
_cell_volume                     2169.47
_exptl_crystal_colour            colorless
_exptl_crystal_description       prismatic
_cell_formula_units_Z            4
loop_
_atom_site_label
_atom_site_type_symbol
_atom_site_fract_x
_atom_site_fract_y
_atom_site_fract_z
N1 N 0.28064(11) 0.56794(10) 0.15217(11)
N2 N 0.17371(13) 0.58405(12) 0.08379(13)
N3 N 0.82031(11) 0.19280(10) 0.72824(12)
N4 N 0.89452(12) 0.25471(12) 0.71976(12)
O1 O 0.29582(12) 0.41059(10) 0.75329(12)
O2 O 0.37436(9) 0.39445(8) 0.63082(9)
O3 O 0.53602(8) 0.38043(8) 0.45268(9)
O4 O 0.16025(11) 0.63435(12) 0.00053(12)
O5 O 0.99201(10) 0.22648(11) 0.76390(11)
C1 C 0.30069(14) 0.36748(13) 0.67452(15)
C2 C 0.23846(13) 0.28455(13) 0.61121(14)
C3 C 0.15225(15) 0.23455(15) 0.62176(18)
H1 H 0.1254 0.2517 0.6771
C4 C 0.10726(15) 0.15926(16) 0.54909(19)
H2 H 0.0479 0.1236 0.5539
C5 C 0.14721(15) 0.13448(15) 0.46874(17)
H3 H 0.1144 0.0821 0.4196
C6 C 0.23375(14) 0.18416(13) 0.45833(15)
H4 H 0.2612 0.1667 0.4036
C7 C 0.27822(12) 0.26011(12) 0.53098(13)
C8 C 0.36988(12) 0.32795(11) 0.53826(13)
C9 C 0.34414(13) 0.38751(11) 0.43383(13)
C10 C 0.42699(12) 0.41125(11) 0.39849(13)
C11 C 0.40640(13) 0.46947(11) 0.30504(13)
H5 H 0.4644 0.4833 0.2816
C12 C 0.30099(13) 0.50696(11) 0.24665(13)
C13 C 0.21562(14) 0.48557(12) 0.28112(14)
H6 H 0.1431 0.5119 0.2419
C14 C 0.23801(13) 0.42601(12) 0.37228(14)
H7 H 0.1794 0.4105 0.3942
C15 C 0.48428(12) 0.28377(11) 0.57892(13)
C16 C 0.56236(13) 0.31659(11) 0.54064(13)
C17 C 0.67278(12) 0.28678(11) 0.58828(13)
H8 H 0.7244 0.3111 0.5608
C18 C 0.70695(12) 0.22139(11) 0.67608(13)
C19 C 0.62946(13) 0.18365(12) 0.71315(14)
H9 H 0.6518 0.1367 0.7713
C20 C 0.52046(13) 0.21499(12) 0.66489(14)
H10 H 0.4683 0.1891 0.6908
C21 C 0.37020(14) 0.60807(12) 0.12649(14)
H11 H 0.4377 0.6161 0.1982
H12 H 0.3473 0.6720 0.0922
C22 C 0.39892(17) 0.54656(14) 0.04641(16)
H13 H 0.4252 0.4842 0.0814
H14 H 0.4578 0.5775 0.0306
H15 H 0.3324 0.5381 -0.0248
C23 C 0.85581(16) 0.10111(14) 0.78488(19)
H16 H 0.9175 0.0758 0.7679
H17 H 0.7928 0.0556 0.7542
C24 C 0.8946(2) 0.1080(2) 0.9125(2)
H18 H 0.9607 0.1491 0.9442
H19 H 0.9135 0.0442 0.9461
H20 H 0.8347 0.1351 0.9299
loop_
_geom_bond_atom_site_label_1
_geom_bond_atom_site_label_2
_geom_bond_site_symmetry_1
_geom_bond_site_symmetry_2
N1 N2 1_555 1_555
N2 O4 1_555 1_555
N3 N4 1_555 1_555
N4 O5 1_555 1_555
O1 C1 1_555 1_555
O2 C1 1_555 1_555
O3 C10 1_555 1_555
C1 C2 1_555 1_555
C2 C3 1_555 1_555
C3 H1 1_555 1_555
C4 C3 1_555 1_555
H2 C4 1_555 1_555
C5 C4 1_555 1_555
H3 C5 1_555 1_555
C6 C5 1_555 1_555
H4 C6 1_555 1_555
C7 C2 1_555 1_555
C8 O2 1_555 1_555
C9 C8 1_555 1_555
C10 C9 1_555 1_555
C11 C10 1_555 1_555
H5 C11 1_555 1_555
C12 N1 1_555 1_555
C13 C12 1_555 1_555
H6 C13 1_555 1_555
C14 C9 1_555 1_555
H7 C14 1_555 1_555
C15 C8 1_555 1_555
C16 O3 1_555 1_555
C17 C16 1_555 1_555
H8 C17 1_555 1_555
C18 N3 1_555 1_555
C19 C18 1_555 1_555
H9 C19 1_555 1_555
C20 C15 1_555 1_555
H10 C20 1_555 1_555
C21 N1 1_555 1_555
H11 C21 1_555 1_555
H12 C21 1_555 1_555
C22 C21 1_555 1_555
H13 C22 1_555 1_555
H14 C22 1_555 1_555
H15 C22 1_555 1_555
C23 N3 1_555 1_555
H16 C23 1_555 1_555
H17 C23 1_555 1_555
C24 C23 1_555 1_555
H18 C24 1_555 1_555
H19 C24 1_555 1_555
H20 C24 1_555 1_555
C6 C7 1_555 1_555
C7 C8 1_555 1_555
C11 C12 1_555 1_555
C13 C14 1_555 1_555
C15 C16 1_555 1_555
C17 C18 1_555 1_555
C19 C20 1_555 1_555

#END
