
#######################################################################
#
#                 Cambridge Crystallographic Data Centre
#                                CCDC 
#
#######################################################################
#
# If this CIF has been generated from an entry in the Cambridge 
# Structural Database, then it will include bibliographic, chemical, 
# crystal, experimental, refinement or atomic coordinate data resulting 
# from the CCDC's data processing and validation procedures.
#
#######################################################################

data_GIKHOA
_chemical_formula_moiety         'C12 H13 N1 O1'
_chemical_name_systematic        
3,3-dimethyl-5-phenyl-1,3-dihydro-2H-pyrrol-2-one
_symmetry_cell_setting           orthorhombic
_symmetry_space_group_name_H-M   'P b c a'
_symmetry_Int_Tables_number      61
_space_group_name_Hall           '-P 2ac 2ab'
loop_
_symmetry_equiv_pos_site_id
_symmetry_equiv_pos_as_xyz
1 x,y,z
2 1/2-x,-y,1/2+z
3 1/2+x,1/2-y,-z
4 -x,1/2+y,1/2-z
5 -x,-y,-z
6 1/2+x,y,1/2-z
7 1/2-x,1/2+y,z
8 x,1/2-y,1/2+z
_cell_length_a                   9.3680(5)
_cell_length_b                   11.2884(8)
_cell_length_c                   20.2886(14)
_cell_angle_alpha                90
_cell_angle_beta                 90
_cell_angle_gamma                90
_cell_volume                     2145.51
_exptl_crystal_colour            'light colorless'
_exptl_crystal_description       block
_cell_formula_units_Z            8
loop_
_atom_site_label
_atom_site_type_symbol
_atom_site_fract_x
_atom_site_fract_y
_atom_site_fract_z
O1 O 0.07428(14) 0.57984(13) 0.42693(7)
N1 N 0.16463(17) 0.56788(16) 0.53182(8)
H1 H 0.1024 0.5205 0.5484
C1 C 0.3954(3) 0.6540(3) 0.67508(14)
H2 H 0.4350 0.7228 0.6578
C2 C 0.4273(3) 0.6209(3) 0.73842(15)
H3 H 0.4886 0.6672 0.7636
C3 C 0.3697(4) 0.5203(4) 0.76476(15)
H4 H 0.3905 0.4989 0.8080
C4 C 0.2816(4) 0.4513(3) 0.72741(15)
H5 H 0.2435 0.3820 0.7449
C5 C 0.2488(3) 0.4842(3) 0.66362(12)
H6 H 0.1882 0.4369 0.6386
C6 C 0.3046(2) 0.5859(2) 0.63646(12)
C7 C 0.2805(2) 0.61733(19) 0.56756(11)
C8 C 0.3556(2) 0.6864(2) 0.52723(12)
H7 H 0.4344 0.7311 0.5399
C9 C 0.2964(2) 0.68257(18) 0.45898(11)
C10 C 0.1645(2) 0.60451(17) 0.46875(11)
C11 C 0.2529(3) 0.8041(2) 0.43219(14)
H8 H 0.2032 0.7943 0.3912
H9 H 0.3368 0.8514 0.4252
H10 H 0.1916 0.8428 0.4634
C12 C 0.3994(3) 0.6215(2) 0.41085(13)
H11 H 0.4269 0.5459 0.4283
H12 H 0.4827 0.6700 0.4050
H13 H 0.3529 0.6106 0.3691
loop_
_geom_bond_atom_site_label_1
_geom_bond_atom_site_label_2
_geom_bond_site_symmetry_1
_geom_bond_site_symmetry_2
O1 C10 1_555 1_555
N1 H1 1_555 1_555
C1 H2 1_555 1_555
C2 C1 1_555 1_555
H3 C2 1_555 1_555
C3 C2 1_555 1_555
H4 C3 1_555 1_555
C4 C3 1_555 1_555
H5 C4 1_555 1_555
C5 C4 1_555 1_555
H6 C5 1_555 1_555
C6 C1 1_555 1_555
C7 N1 1_555 1_555
C8 C7 1_555 1_555
H7 C8 1_555 1_555
C9 C8 1_555 1_555
C10 N1 1_555 1_555
C11 C9 1_555 1_555
H8 C11 1_555 1_555
H9 C11 1_555 1_555
H10 C11 1_555 1_555
C12 C9 1_555 1_555
H11 C12 1_555 1_555
H12 C12 1_555 1_555
H13 C12 1_555 1_555
C5 C6 1_555 1_555
C6 C7 1_555 1_555
C9 C10 1_555 1_555

#END
