
#######################################################################
#
#                 Cambridge Crystallographic Data Centre
#                                CCDC 
#
#######################################################################
#
# If this CIF has been generated from an entry in the Cambridge 
# Structural Database, then it will include bibliographic, chemical, 
# crystal, experimental, refinement or atomic coordinate data resulting 
# from the CCDC's data processing and validation procedures.
#
#######################################################################

data_GIKJAO
_chemical_formula_moiety         'C14 H21 N1 O3 S1'
_chemical_name_systematic        
1-{3-ethyl-2-methyl-1-[(4-methylphenyl)sulfonyl]aziridin-2-yl}ethan-1-ol
_symmetry_cell_setting           triclinic
_symmetry_space_group_name_H-M   'P -1'
_symmetry_Int_Tables_number      2
_space_group_name_Hall           '-P 1'
loop_
_symmetry_equiv_pos_site_id
_symmetry_equiv_pos_as_xyz
1 x,y,z
2 -x,-y,-z
_cell_length_a                   7.4115(6)
_cell_length_b                   13.5876(9)
_cell_length_c                   14.9850(11)
_cell_angle_alpha                90.394(3)
_cell_angle_beta                 95.335(4)
_cell_angle_gamma                99.044(3)
_cell_volume                     1483.49
_exptl_crystal_colour            colorless
_exptl_crystal_description       block
_cell_formula_units_Z            4
loop_
_atom_site_label
_atom_site_type_symbol
_atom_site_fract_x
_atom_site_fract_y
_atom_site_fract_z
S1 S 0.58081(7) 0.80772(4) 0.41087(4)
O1 O 0.3653(3) 0.92343(14) 0.23561(11)
H1 H 0.4397 0.8826 0.2394
O2 O 0.6001(2) 0.79094(13) 0.31713(11)
O3 O 0.6785(2) 0.89817(13) 0.45380(12)
N1 N 0.3582(2) 0.79361(14) 0.42042(13)
C1 C 0.2018(4) 1.02873(18) 0.31245(17)
H2 H 0.2660 1.0884 0.2859
H3 H 0.1662 1.0462 0.3712
H4 H 0.0918 1.0018 0.2731
C2 C 0.3282(3) 0.95077(17) 0.32360(15)
H5 H 0.4458 0.9809 0.3584
C3 C 0.2390(3) 0.86170(17) 0.37358(15)
C4 C 0.2776(3) 0.86646(17) 0.47309(15)
H6 H 0.3671 0.9258 0.4968
C5 C 0.1412(3) 0.8251(2) 0.53692(17)
H7 H 0.0693 0.7620 0.5114
H8 H 0.0549 0.8728 0.5436
C6 C 0.2327(4) 0.8058(3) 0.62861(19)
H9 H 0.3126 0.7555 0.6229
H10 H 0.1385 0.7816 0.6685
H11 H 0.3061 0.8679 0.6537
C7 C 0.0605(3) 0.80677(19) 0.32895(17)
H12 H 0.0732 0.7950 0.2654
H13 H -0.0371 0.8468 0.3344
H14 H 0.0293 0.7428 0.3580
C8 C 0.6455(3) 0.70700(18) 0.47223(15)
C9 C 0.6614(3) 0.61940(18) 0.42825(15)
H15 H 0.6331 0.6123 0.3652
C10 C 0.7193(3) 0.54194(18) 0.47747(16)
H16 H 0.7318 0.4819 0.4475
C11 C 0.7594(3) 0.55097(18) 0.57039(16)
C12 C 0.7400(3) 0.63950(18) 0.61306(15)
H17 H 0.7661 0.6464 0.6763
C13 C 0.6835(3) 0.71768(18) 0.56505(15)
H18 H 0.6708 0.7778 0.5949
C14 C 0.8219(4) 0.4669(2) 0.62335(18)
H19 H 0.7860 0.4044 0.5886
H20 H 0.7648 0.4615 0.6799
H21 H 0.9557 0.4800 0.6361
S2 S 0.39220(7) 0.29310(4) 0.09272(4)
O4 O 0.6237(3) 0.44972(13) 0.26756(11)
H22 H 0.5495 0.3961 0.2660
O5 O 0.3695(2) 0.27717(14) 0.18629(11)
O6 O 0.2990(2) 0.36680(13) 0.04744(12)
N2 N 0.6160(2) 0.31371(14) 0.08413(12)
C15 C 0.7783(3) 0.57946(17) 0.18500(16)
H23 H 0.7167 0.6288 0.2129
H24 H 0.8065 0.6010 0.1249
H25 H 0.8924 0.5733 0.2216
C16 C 0.6535(3) 0.47950(17) 0.17820(15)
H26 H 0.5335 0.4875 0.1450
C17 C 0.7398(3) 0.40338(17) 0.12821(15)
C18 C 0.6968(3) 0.39714(17) 0.02904(15)
H27 H 0.6081 0.4411 0.0051
C19 C 0.8265(3) 0.37301(19) -0.03666(16)
H28 H 0.9103 0.3302 -0.0076
H29 H 0.9018 0.4354 -0.0540
C20 C 0.7228(4) 0.3196(2) -0.12031(18)
H30 H 0.8105 0.3062 -0.1622
H31 H 0.6394 0.3618 -0.1490
H32 H 0.6518 0.2565 -0.1035
C21 C 0.9174(3) 0.37806(18) 0.17289(16)
H33 H 0.9046 0.3657 0.2365
H34 H 1.0166 0.4338 0.1671
H35 H 0.9462 0.3182 0.1440
C22 C 0.3260(3) 0.17967(18) 0.03302(15)
C23 C 0.3349(3) 0.09041(18) 0.07678(16)
H36 H 0.3774 0.0903 0.1386
C24 C 0.2806(3) 0.00181(19) 0.02879(17)
H37 H 0.2835 -0.0595 0.0586
C25 C 0.2218(3) 0.00032(19) -0.06224(18)
C26 C 0.2180(4) 0.0907(2) -0.10502(18)
H38 H 0.1810 0.0910 -0.1674
C27 C 0.2677(4) 0.1803(2) -0.05770(17)
H39 H 0.2619 0.2416 -0.0871
C28 C 0.1647(4) -0.0969(2) -0.1140(2)
H40 H 0.2289 -0.1481 -0.0857
H41 H 0.1961 -0.0882 -0.1758
H42 H 0.0319 -0.1176 -0.1140
loop_
_geom_bond_atom_site_label_1
_geom_bond_atom_site_label_2
_geom_bond_site_symmetry_1
_geom_bond_site_symmetry_2
S1 O2 1_555 1_555
O1 H1 1_555 1_555
O3 S1 1_555 1_555
N1 S1 1_555 1_555
C1 H2 1_555 1_555
H3 C1 1_555 1_555
H4 C1 1_555 1_555
C2 O1 1_555 1_555
H5 C2 1_555 1_555
C3 N1 1_555 1_555
C4 N1 1_555 1_555
H6 C4 1_555 1_555
C5 C4 1_555 1_555
H7 C5 1_555 1_555
H8 C5 1_555 1_555
C6 C5 1_555 1_555
H9 C6 1_555 1_555
H10 C6 1_555 1_555
H11 C6 1_555 1_555
C7 C3 1_555 1_555
H12 C7 1_555 1_555
H13 C7 1_555 1_555
H14 C7 1_555 1_555
C8 S1 1_555 1_555
C9 C8 1_555 1_555
H15 C9 1_555 1_555
C10 C9 1_555 1_555
H16 C10 1_555 1_555
C11 C10 1_555 1_555
C12 C11 1_555 1_555
H17 C12 1_555 1_555
C13 C8 1_555 1_555
H18 C13 1_555 1_555
C14 C11 1_555 1_555
H19 C14 1_555 1_555
H20 C14 1_555 1_555
H21 C14 1_555 1_555
S2 O5 1_555 1_555
O4 H22 1_555 1_555
O6 S2 1_555 1_555
N2 S2 1_555 1_555
C15 H23 1_555 1_555
H24 C15 1_555 1_555
H25 C15 1_555 1_555
C16 O4 1_555 1_555
H26 C16 1_555 1_555
C17 N2 1_555 1_555
C18 N2 1_555 1_555
H27 C18 1_555 1_555
C19 C18 1_555 1_555
H28 C19 1_555 1_555
H29 C19 1_555 1_555
C20 C19 1_555 1_555
H30 C20 1_555 1_555
H31 C20 1_555 1_555
H32 C20 1_555 1_555
C21 C17 1_555 1_555
H33 C21 1_555 1_555
H34 C21 1_555 1_555
H35 C21 1_555 1_555
C22 S2 1_555 1_555
C23 C22 1_555 1_555
H36 C23 1_555 1_555
C24 C23 1_555 1_555
H37 C24 1_555 1_555
C25 C24 1_555 1_555
C26 C25 1_555 1_555
H38 C26 1_555 1_555
C27 C22 1_555 1_555
H39 C27 1_555 1_555
C28 C25 1_555 1_555
H40 C28 1_555 1_555
H41 C28 1_555 1_555
H42 C28 1_555 1_555
C1 C2 1_555 1_555
C2 C3 1_555 1_555
C3 C4 1_555 1_555
C12 C13 1_555 1_555
C15 C16 1_555 1_555
C16 C17 1_555 1_555
C17 C18 1_555 1_555
C26 C27 1_555 1_555

#END
