
#######################################################################
#
#                 Cambridge Crystallographic Data Centre
#                                CCDC 
#
#######################################################################
#
# If this CIF has been generated from an entry in the Cambridge 
# Structural Database, then it will include bibliographic, chemical, 
# crystal, experimental, refinement or atomic coordinate data resulting 
# from the CCDC's data processing and validation procedures.
#
#######################################################################

data_GIKVOO
_chemical_formula_moiety         'C19 H17 N1 O3'
_chemical_name_systematic        
'methyl 3-(1-methyl-1H-indol-3-yl)-3-oxo-2-phenylpropanoate'
_symmetry_cell_setting           monoclinic
_symmetry_space_group_name_H-M   'I a'
_symmetry_Int_Tables_number      9
_space_group_name_Hall           'I -2ya'
loop_
_symmetry_equiv_pos_site_id
_symmetry_equiv_pos_as_xyz
1 x,y,z
2 1/2+x,-y,z
3 1/2+x,1/2+y,1/2+z
4 x,1/2-y,1/2+z
_cell_length_a                   11.73859(17)
_cell_length_b                   32.9744(5)
_cell_length_c                   16.3820(3)
_cell_angle_alpha                90
_cell_angle_beta                 103.4814(15)
_cell_angle_gamma                90
_cell_volume                     6166.31
_exptl_crystal_colour            yellow
_exptl_crystal_description       block
_cell_formula_units_Z            16
loop_
_atom_site_label
_atom_site_type_symbol
_atom_site_fract_x
_atom_site_fract_y
_atom_site_fract_z
O1 O 0.71549(15) 0.49328(5) 0.78486(10)
O2 O 0.83961(18) 0.40536(5) 0.83425(11)
O3 O 0.84398(15) 0.42859(5) 0.70573(10)
N1 N 0.95636(19) 0.60155(6) 0.77701(12)
C1 C 0.9683(2) 0.47403(7) 0.91204(15)
C2 C 0.8633(2) 0.43134(7) 0.78916(14)
C3 C 0.8401(2) 0.61361(7) 0.75436(15)
C4 C 0.8490(2) 0.54483(7) 0.77557(14)
C5 C 0.6485(2) 0.58241(7) 0.72377(14)
H1 H 0.6002 0.5598 0.7198
C6 C 0.8966(2) 0.47584(7) 0.96883(15)
H2 H 0.8156 0.4762 0.9492
C7 C 0.6727(3) 0.65499(8) 0.70961(16)
H3 H 0.6382 0.6803 0.6968
C8 C 0.6012(2) 0.62052(8) 0.70243(16)
H4 H 0.5205 0.6233 0.6830
C9 C 0.9621(2) 0.56117(7) 0.78929(15)
H5 H 1.0311 0.5463 0.8046
C10 C 0.9454(3) 0.47717(8) 1.05455(16)
H6 H 0.8970 0.4786 1.0921
C11 C 0.9167(2) 0.47245(7) 0.81796(14)
H7 H 0.9789 0.4782 0.7888
C12 C 0.7697(2) 0.57856(7) 0.75126(14)
C13 C 0.8178(2) 0.50383(7) 0.79027(14)
C14 C 1.0547(2) 0.62949(8) 0.78870(17)
H8 H 1.0547 0.6426 0.7364
H9 H 1.1266 0.6148 0.8077
H10 H 1.0476 0.6495 0.8298
C15 C 0.7934(2) 0.65227(7) 0.73538(16)
H11 H 0.8410 0.6751 0.7398
C16 C 1.0660(3) 0.47640(8) 1.08439(16)
H12 H 1.0986 0.4774 1.1418
C17 C 1.0891(2) 0.47303(8) 0.94245(17)
H13 H 1.1378 0.4716 0.9052
C18 C 0.7803(2) 0.39304(8) 0.66847(17)
H14 H 0.7945 0.3886 0.6138
H15 H 0.6980 0.3971 0.6636
H16 H 0.8061 0.3699 0.7033
C19 C 1.1375(2) 0.47414(9) 1.02849(17)
H17 H 1.2184 0.4734 1.0484
O4 O 0.00737(15) 0.25568(5) 0.02045(11)
O5 O 0.14932(17) 0.33904(5) 0.07939(11)
O6 O 0.15850(17) 0.31763(5) -0.04921(11)
N2 N 0.22091(19) 0.13979(6) 0.02030(13)
C20 C 0.2559(2) 0.26840(7) 0.15552(15)
C21 C 0.1704(2) 0.31318(7) 0.03333(15)
C22 C 0.1017(2) 0.13133(8) 0.00003(15)
C23 C 0.1288(2) 0.19987(7) 0.01461(14)
C24 C 0.1793(2) 0.26522(7) 0.20868(15)
H18 H 0.0990 0.2638 0.1860
C25 C 0.1069(2) 0.24205(7) 0.02869(14)
C26 C -0.0761(2) 0.09455(8) -0.03222(16)
H19 H -0.1172 0.0702 -0.0399
C27 C -0.0812(2) 0.16801(8) -0.02750(15)
H20 H -0.1235 0.1921 -0.0331
C28 C 0.2368(2) 0.18030(7) 0.02940(15)
H21 H 0.3092 0.1932 0.0435
C29 C 0.0450(3) 0.09385(8) -0.01246(16)
H22 H 0.0866 0.0696 -0.0077
C30 C 0.0411(2) 0.16846(7) -0.00538(14)
C31 C -0.1383(2) 0.13107(8) -0.04093(16)
H23 H -0.2197 0.1305 -0.0561
C32 C 0.3755(2) 0.27138(8) 0.19101(17)
H24 H 0.4279 0.2737 0.1565
C33 C 0.2218(3) 0.26419(8) 0.29493(16)
H25 H 0.1700 0.2616 0.3298
C34 C 0.3412(3) 0.26693(8) 0.32969(17)
H26 H 0.3696 0.2661 0.3876
C35 C 0.2119(2) 0.27056(7) 0.06056(15)
H27 H 0.2756 0.2631 0.0341
C36 C 0.3113(2) 0.10866(7) 0.03400(17)
H28 H 0.2977 0.0897 0.0751
H29 H 0.3867 0.1211 0.0537
H30 H 0.3092 0.0947 -0.0178
C37 C 0.1113(3) 0.35611(8) -0.08456(17)
H31 H 0.1449 0.3630 -0.1309
H32 H 0.1301 0.3768 -0.0424
H33 H 0.0278 0.3540 -0.1038
C38 C 0.4173(3) 0.27095(10) 0.27762(18)
H34 H 0.4972 0.2734 0.3007
O7 O 0.48837(15) 0.24993(5) 0.52841(10)
O8 O 0.56730(17) 0.34006(5) 0.57543(11)
O9 O 0.59482(17) 0.32293(5) 0.44886(11)
N3 N 0.77184(18) 0.15442(7) 0.52982(14)
C39 C 0.7373(2) 0.28018(7) 0.65285(15)
C40 C 0.5776(2) 0.16692(7) 0.50889(15)
C41 C 0.7590(2) 0.19487(8) 0.53643(15)
H35 H 0.8203 0.2134 0.5472
C42 C 0.6081(2) 0.31793(7) 0.53125(15)
C43 C 0.5937(2) 0.24408(7) 0.53523(14)
C44 C 0.6626(2) 0.13622(8) 0.51367(15)
C45 C 0.6415(2) 0.20484(7) 0.52491(14)
C46 C 0.8589(2) 0.28175(8) 0.67927(16)
H36 H 0.9044 0.2821 0.6398
C47 C 0.6708(2) 0.27973(7) 0.71314(15)
H37 H 0.5895 0.2790 0.6963
C48 C 0.6792(2) 0.27996(7) 0.55963(15)
H38 H 0.7403 0.2777 0.5281
C49 C 0.7248(2) 0.28044(8) 0.79774(16)
H39 H 0.6795 0.2799 0.8374
C50 C 0.8460(3) 0.28197(8) 0.82380(17)
H40 H 0.8821 0.2824 0.8807
C51 C 0.4310(2) 0.11533(8) 0.47896(17)
H41 H 0.3526 0.1077 0.4657
C52 C 0.4591(2) 0.15594(8) 0.48951(15)
H42 H 0.4008 0.1755 0.4839
C53 C 0.6345(3) 0.09511(8) 0.50450(16)
H43 H 0.6922 0.0753 0.5095
C54 C 0.9126(2) 0.28280(8) 0.76455(16)
H44 H 0.9938 0.2841 0.7817
C55 C 0.5173(3) 0.08514(8) 0.48768(16)
H45 H 0.4951 0.0580 0.4820
C56 C 0.5211(3) 0.35658(9) 0.41261(17)
H46 H 0.5292 0.3613 0.3564
H47 H 0.5442 0.3805 0.4458
H48 H 0.4408 0.3503 0.4115
C57 C 0.8817(2) 0.13244(9) 0.53997(18)
H49 H 0.9459 0.1512 0.5532
H50 H 0.8830 0.1185 0.4888
H51 H 0.8887 0.1131 0.5847
O10 O 0.24593(16) 0.50280(5) 0.27467(11)
O11 O 0.34480(18) 0.41714(5) 0.32714(11)
O12 O 0.38141(18) 0.43338(6) 0.20261(11)
N4 N 0.4958(2) 0.60930(6) 0.27557(13)
C58 C 0.4954(2) 0.48030(7) 0.40592(15)
C59 C 0.3800(2) 0.62237(8) 0.25715(15)
C60 C 0.4241(2) 0.48385(8) 0.46239(16)
H52 H 0.3437 0.4870 0.4424
C61 C 0.3847(2) 0.55344(7) 0.27185(14)
C62 C 0.3853(2) 0.43965(7) 0.28351(15)
C63 C 0.3490(2) 0.51256(7) 0.28367(14)
C64 C 0.6153(2) 0.47498(8) 0.43693(17)
H53 H 0.6641 0.4723 0.3999
C65 C 0.4447(2) 0.47987(7) 0.31172(15)
H54 H 0.5079 0.4844 0.2827
C66 C 0.4716(3) 0.48276(8) 0.54828(16)
H55 H 0.4230 0.4853 0.5854
C67 C 0.4980(2) 0.56848(8) 0.28448(15)
H56 H 0.5657 0.5528 0.2972
C68 C 0.3075(2) 0.58817(7) 0.25335(15)
C69 C 0.1420(3) 0.63251(9) 0.22117(17)
H57 H 0.0613 0.6364 0.2079
C70 C 0.5911(3) 0.47784(8) 0.57898(17)
H58 H 0.6231 0.4774 0.6365
C71 C 0.1859(2) 0.59347(8) 0.23386(15)
H59 H 0.1358 0.5713 0.2295
C72 C 0.6626(3) 0.47362(9) 0.52318(18)
H60 H 0.7427 0.4698 0.5434
C73 C 0.5962(3) 0.63638(8) 0.28581(17)
H61 H 0.5969 0.6488 0.2329
H62 H 0.6671 0.6212 0.3053
H63 H 0.5908 0.6570 0.3260
C74 C 0.2161(3) 0.66624(8) 0.22786(17)
H64 H 0.1838 0.6921 0.2205
C75 C 0.3137(3) 0.39804(9) 0.16632(17)
H65 H 0.3272 0.3927 0.1118
H66 H 0.2318 0.4032 0.1614
H67 H 0.3373 0.3750 0.2019
C76 C 0.3365(3) 0.66179(8) 0.24527(18)
H68 H 0.3860 0.6841 0.2489
loop_
_geom_bond_atom_site_label_1
_geom_bond_atom_site_label_2
_geom_bond_site_symmetry_1
_geom_bond_site_symmetry_2
O1 C13 1_555 1_555
O2 C2 1_555 1_555
O3 C2 1_555 1_555
N1 C3 1_555 1_555
C1 C6 1_555 1_555
C2 C11 1_555 1_555
C3 C12 1_555 1_555
C4 C9 1_555 1_555
C5 H1 1_555 1_555
C6 H2 1_555 1_555
C7 H3 1_555 1_555
C8 C5 1_555 1_555
H4 C8 1_555 1_555
C9 N1 1_555 1_555
H5 C9 1_555 1_555
C10 C6 1_555 1_555
H6 C10 1_555 1_555
C11 C1 1_555 1_555
H7 C11 1_555 1_555
C12 C4 1_555 1_555
C13 C4 1_555 1_555
C14 N1 1_555 1_555
H8 C14 1_555 1_555
H9 C14 1_555 1_555
H10 C14 1_555 1_555
C15 C3 1_555 1_555
H11 C15 1_555 1_555
C16 C10 1_555 1_555
H12 C16 1_555 1_555
C17 C1 1_555 1_555
H13 C17 1_555 1_555
C18 O3 1_555 1_555
H14 C18 1_555 1_555
H15 C18 1_555 1_555
H16 C18 1_555 1_555
C19 C16 1_555 1_555
H17 C19 1_555 1_555
O4 C25 1_555 1_555
O5 C21 1_555 1_555
O6 C21 1_555 1_555
N2 C22 1_555 1_555
C20 C24 1_555 1_555
C21 C35 1_555 1_555
C22 C29 1_555 1_555
C23 C25 1_555 1_555
C24 H18 1_555 1_555
C25 C35 1_555 1_555
C26 H19 1_555 1_555
C27 H20 1_555 1_555
C28 N2 1_555 1_555
H21 C28 1_555 1_555
C29 C26 1_555 1_555
H22 C29 1_555 1_555
C30 C22 1_555 1_555
C31 C26 1_555 1_555
H23 C31 1_555 1_555
C32 C20 1_555 1_555
H24 C32 1_555 1_555
C33 C24 1_555 1_555
H25 C33 1_555 1_555
C34 C33 1_555 1_555
H26 C34 1_555 1_555
C35 C20 1_555 1_555
H27 C35 1_555 1_555
C36 N2 1_555 1_555
H28 C36 1_555 1_555
H29 C36 1_555 1_555
H30 C36 1_555 1_555
C37 O6 1_555 1_555
H31 C37 1_555 1_555
H32 C37 1_555 1_555
H33 C37 1_555 1_555
C38 C32 1_555 1_555
H34 C38 1_555 1_555
O7 C43 1_555 1_555
O8 C42 1_555 1_555
O9 C42 1_555 1_555
N3 C41 1_555 1_555
C39 C46 1_555 1_555
C40 C44 1_555 1_555
C41 H35 1_555 1_555
C42 C48 1_555 1_555
C43 C45 1_555 1_555
C44 N3 1_555 1_555
C45 C40 1_555 1_555
C46 H36 1_555 1_555
C47 C39 1_555 1_555
H37 C47 1_555 1_555
C48 C39 1_555 1_555
H38 C48 1_555 1_555
C49 C47 1_555 1_555
H39 C49 1_555 1_555
C50 C49 1_555 1_555
H40 C50 1_555 1_555
C51 H41 1_555 1_555
C52 C40 1_555 1_555
H42 C52 1_555 1_555
C53 C44 1_555 1_555
H43 C53 1_555 1_555
C54 C46 1_555 1_555
H44 C54 1_555 1_555
C55 C51 1_555 1_555
H45 C55 1_555 1_555
C56 O9 1_555 1_555
H46 C56 1_555 1_555
H47 C56 1_555 1_555
H48 C56 1_555 1_555
C57 N3 1_555 1_555
H49 C57 1_555 1_555
H50 C57 1_555 1_555
H51 C57 1_555 1_555
O10 C63 1_555 1_555
O11 C62 1_555 1_555
O12 C62 1_555 1_555
N4 C59 1_555 1_555
C58 C60 1_555 1_555
C59 C68 1_555 1_555
C60 H52 1_555 1_555
C61 C63 1_555 1_555
C62 C65 1_555 1_555
C63 C65 1_555 1_555
C64 C58 1_555 1_555
H53 C64 1_555 1_555
C65 C58 1_555 1_555
H54 C65 1_555 1_555
C66 C60 1_555 1_555
H55 C66 1_555 1_555
C67 N4 1_555 1_555
H56 C67 1_555 1_555
C68 C61 1_555 1_555
C69 H57 1_555 1_555
C70 C66 1_555 1_555
H58 C70 1_555 1_555
C71 C68 1_555 1_555
H59 C71 1_555 1_555
C72 C64 1_555 1_555
H60 C72 1_555 1_555
C73 N4 1_555 1_555
H61 C73 1_555 1_555
H62 C73 1_555 1_555
H63 C73 1_555 1_555
C74 C69 1_555 1_555
H64 C74 1_555 1_555
C75 O12 1_555 1_555
H65 C75 1_555 1_555
H66 C75 1_555 1_555
H67 C75 1_555 1_555
C76 C59 1_555 1_555
H68 C76 1_555 1_555
C5 C12 1_555 1_555
C7 C8 1_555 1_555
C7 C15 1_555 1_555
C11 C13 1_555 1_555
C17 C19 1_555 1_555
C23 C28 1_555 1_555
C23 C30 1_555 1_555
C27 C30 1_555 1_555
C27 C31 1_555 1_555
C34 C38 1_555 1_555
C41 C45 1_555 1_555
C43 C48 1_555 1_555
C50 C54 1_555 1_555
C51 C52 1_555 1_555
C53 C55 1_555 1_555
C61 C67 1_555 1_555
C69 C71 1_555 1_555
C70 C72 1_555 1_555
C74 C76 1_555 1_555

#END
