
#######################################################################
#
#                 Cambridge Crystallographic Data Centre
#                                CCDC 
#
#######################################################################
#
# If this CIF has been generated from an entry in the Cambridge 
# Structural Database, then it will include bibliographic, chemical, 
# crystal, experimental, refinement or atomic coordinate data resulting 
# from the CCDC's data processing and validation procedures.
#
#######################################################################

data_GIKVOL
_chemical_formula_moiety         'C24 H47 N1 O7 Si2'
_chemical_name_systematic        
'Butyl 4,6-bis(O-t-butyldimethylsilyl)-2,3-dideoxy-3-N-oxamate-D-ribohexaldono-1,5-lactone'
_symmetry_cell_setting           monoclinic
_symmetry_space_group_name_H-M   'C 2'
_symmetry_Int_Tables_number      5
_space_group_name_Hall           'C 2y'
loop_
_symmetry_equiv_pos_site_id
_symmetry_equiv_pos_as_xyz
1 x,y,z
2 -x,y,-z
3 1/2+x,1/2+y,z
4 1/2-x,1/2+y,-z
_cell_length_a                   27.560(9)
_cell_length_b                   6.930(2)
_cell_length_c                   16.394(4)
_cell_angle_alpha                90
_cell_angle_beta                 90.97(3)
_cell_angle_gamma                90
_cell_volume                     3130.65
_chemical_melting_point          82-84deg.C
_cell_formula_units_Z            4
loop_
_atom_site_label
_atom_site_type_symbol
_atom_site_fract_x
_atom_site_fract_y
_atom_site_fract_z
Si1 Si 0.1523(2) 0.0044 0.8758(3)
Si2 Si 0.3889(2) 0.2950(12) 0.7258(3)
O1 O 0.2876(4) -0.0161(25) 0.8697(6)
O2 O 0.2783(6) -0.3207(27) 0.8615(9)
O3 O 0.1942(4) 0.1129(19) 0.8257(6)
O4 O 0.3442(3) 0.1465(19) 0.7368(5)
O5 O 0.2086(5) -0.0320(30) 0.5547(7)
O6 O 0.2515(5) 0.0005(29) 0.4049(8)
O7 O 0.3223(5) 0.0124(28) 0.4730(6)
N1 N 0.2813(4) 0.0396(24) 0.6122(8)
H1 H 0.3113(4) 0.0619(24) 0.6015(8)
C1 C 0.2779(7) -0.1742(44) 0.8268(13)
C2 C 0.2738(6) -0.1621(27) 0.7346(10)
H2 H 0.3051(6) -0.2188(27) 0.7110(10)
H3 H 0.2456(6) -0.2499(27) 0.7160(10)
C3 C 0.2657(5) 0.0369(25) 0.6963(10)
H4 H 0.2293(5) 0.0694(25) 0.6978(10)
C4 C 0.2932(6) 0.1845(25) 0.7447(9)
H5 H 0.2853(6) 0.3203(25) 0.7228(9)
C5 C 0.2818(6) 0.1740(34) 0.8345(11)
H6 H 0.3058(6) 0.2640(34) 0.8646(11)
C6 C 0.2313(6) 0.2384(28) 0.8565(9)
H7 H 0.2290(6) 0.2454(28) 0.9191(9)
H8 H 0.2255(6) 0.3751(28) 0.8338(9)
C7 C 0.2511(7) 0.0092(32) 0.5542(10)
C8 C 0.4430(8) 0.1356(50) 0.7283(19)
C9 C 0.3831(8) 0.4204(45) 0.6231(12)
H9 H 0.3815(8) 0.3185(45) 0.5774(12)
H10 H 0.4128(8) 0.5082(45) 0.6147(12)
H11 H 0.3520(8) 0.5025(45) 0.6214(12)
C10 C 0.3920(7) 0.4760(37) 0.8061(12)
H12 H 0.3616(7) 0.5624(37) 0.8027(12)
H13 H 0.4226(7) 0.5595(37) 0.7990(12)
H14 H 0.3936(7) 0.4087(37) 0.8621(12)
C11 C 0.4448(9) 0.0522(51) 0.8186(19)
H15 H 0.4476(9) 0.1645(51) 0.8596(19)
H16 H 0.4743(9) -0.0376(51) 0.8255(19)
H17 H 0.4135(9) -0.0244(51) 0.8293(19)
C12 C 0.4890(6) 0.2613(44) 0.7151(17)
H18 H 0.4905(6) 0.3690(44) 0.7584(17)
H19 H 0.4875(6) 0.3219(44) 0.6578(17)
H20 H 0.5195(6) 0.1761(44) 0.7206(17)
C13 C 0.4387(9) -0.0264(50) 0.6658(18)
H21 H 0.4078(9) -0.1057(50) 0.6764(18)
H22 H 0.4687(9) -0.1147(50) 0.6706(18)
H23 H 0.4367(9) 0.0317(50) 0.6080(18)
C14 C 0.1007(7) 0.1756(37) 0.9012(12)
C15 C 0.1310(6) -0.1825(34) 0.8012(9)
H24 H 0.1171(6) -0.1158(34) 0.7497(9)
H25 H 0.1043(6) -0.2653(34) 0.8273(9)
H26 H 0.1597(6) -0.2693(34) 0.7856(9)
C16 C 0.1775(6) -0.1080(31) 0.9694(9)
H27 H 0.1888(6) -0.0019(31) 1.0094(9)
H28 H 0.2066(6) -0.1938(31) 0.9548(9)
H29 H 0.1512(6) -0.1910(31) 0.9963(9)
C17 C 0.0807(7) 0.2572(40) 0.8252(14)
H30 H 0.0681(7) 0.1474(40) 0.7882(14)
H31 H 0.1074(7) 0.3327(40) 0.7957(14)
H32 H 0.0525(7) 0.3490(40) 0.8385(14)
C18 C 0.0597(6) 0.0534(51) 0.9426(13)
H33 H 0.0730(6) -0.0048(51) 0.9963(13)
H34 H 0.0489(6) -0.0561(51) 0.9039(13)
H35 H 0.0306(6) 0.1411(51) 0.9547(13)
C19 C 0.1206(8) 0.3239(43) 0.9616(12)
H36 H 0.1337(8) 0.2543(43) 1.0129(12)
H37 H 0.0933(8) 0.4173(43) 0.9776(12)
H38 H 0.1483(8) 0.4002(43) 0.9350(12)
C20 C 0.2752(8) 0.0097(40) 0.4660(12)
C21 C 0.3472(9) 0.0234(59) 0.3934(13)
H39 H 0.3283(9) -0.0552(59) 0.3500(13)
H40 H 0.3489(9) 0.1647(59) 0.3741(13)
C22 C 0.3917(13) -0.0476(48) 0.4032(15)
H41 H 0.4092(13) 0.0411(48) 0.4447(15)
H42 H 0.4087(13) -0.0277(48) 0.3484(15)
C23 C 0.4034(13) -0.2565(62) 0.4300(19)
H43 H 0.3984(13) -0.2503(62) 0.4920(19)
H44 H 0.3739(13) -0.3316(62) 0.4075(19)
C24 C 0.4389(12) -0.3856(63) 0.4241(21)
H45 H 0.4287(12) -0.5116(63) 0.4525(21)
H46 H 0.4699(12) -0.3325(63) 0.4518(21)
H47 H 0.4454(12) -0.4128(63) 0.3635(21)
loop_
_geom_bond_atom_site_label_1
_geom_bond_atom_site_label_2
_geom_bond_site_symmetry_1
_geom_bond_site_symmetry_2
Si1 O3 1_555 1_555
Si2 O4 1_555 1_555
O1 C1 1_555 1_555
O2 C1 1_555 1_555
O3 C6 1_555 1_555
O4 C4 1_555 1_555
O5 C7 1_555 1_555
O6 C20 1_555 1_555
O7 C20 1_555 1_555
N1 H1 1_555 1_555
C1 C2 1_555 1_555
C2 H2 1_555 1_555
H3 C2 1_555 1_555
C3 N1 1_555 1_555
H4 C3 1_555 1_555
C4 C3 1_555 1_555
H5 C4 1_555 1_555
C5 O1 1_555 1_555
H6 C5 1_555 1_555
C6 C5 1_555 1_555
H7 C6 1_555 1_555
H8 C6 1_555 1_555
C7 N1 1_555 1_555
C8 Si2 1_555 1_555
C9 Si2 1_555 1_555
H9 C9 1_555 1_555
H10 C9 1_555 1_555
H11 C9 1_555 1_555
C10 Si2 1_555 1_555
H12 C10 1_555 1_555
H13 C10 1_555 1_555
H14 C10 1_555 1_555
C11 C8 1_555 1_555
H15 C11 1_555 1_555
H16 C11 1_555 1_555
H17 C11 1_555 1_555
C12 C8 1_555 1_555
H18 C12 1_555 1_555
H19 C12 1_555 1_555
H20 C12 1_555 1_555
C13 C8 1_555 1_555
H21 C13 1_555 1_555
H22 C13 1_555 1_555
H23 C13 1_555 1_555
C14 Si1 1_555 1_555
C15 Si1 1_555 1_555
H24 C15 1_555 1_555
H25 C15 1_555 1_555
H26 C15 1_555 1_555
C16 Si1 1_555 1_555
H27 C16 1_555 1_555
H28 C16 1_555 1_555
H29 C16 1_555 1_555
C17 C14 1_555 1_555
H30 C17 1_555 1_555
H31 C17 1_555 1_555
H32 C17 1_555 1_555
C18 C14 1_555 1_555
H33 C18 1_555 1_555
H34 C18 1_555 1_555
H35 C18 1_555 1_555
C19 C14 1_555 1_555
H36 C19 1_555 1_555
H37 C19 1_555 1_555
H38 C19 1_555 1_555
C20 C7 1_555 1_555
C21 O7 1_555 1_555
H39 C21 1_555 1_555
H40 C21 1_555 1_555
C22 C21 1_555 1_555
H41 C22 1_555 1_555
H42 C22 1_555 1_555
C23 C22 1_555 1_555
H43 C23 1_555 1_555
H44 C23 1_555 1_555
C24 C23 1_555 1_555
H45 C24 1_555 1_555
H46 C24 1_555 1_555
H47 C24 1_555 1_555
C2 C3 1_555 1_555
C4 C5 1_555 1_555

#END
