
#######################################################################
#
#                 Cambridge Crystallographic Data Centre
#                                CCDC 
#
#######################################################################
#
# If this CIF has been generated from an entry in the Cambridge 
# Structural Database, then it will include bibliographic, chemical, 
# crystal, experimental, refinement or atomic coordinate data resulting 
# from the CCDC's data processing and validation procedures.
#
#######################################################################

data_GILBEK
_chemical_formula_moiety         '2(C14 H13 N1 O1),C1 H1 Cl3'
_chemical_name_systematic        
'2-(2-Naphthyl)cyclopropanecarboxamide chloroform solvate'
_symmetry_cell_setting           monoclinic
_symmetry_space_group_name_H-M   'P 21'
_symmetry_Int_Tables_number      4
_space_group_name_Hall           'P 2yb'
loop_
_symmetry_equiv_pos_site_id
_symmetry_equiv_pos_as_xyz
1 x,y,z
2 -x,1/2+y,-z
_cell_length_a                   14.8535(7)
_cell_length_b                   5.1315(3)
_cell_length_c                   18.0352(9)
_cell_angle_alpha                90
_cell_angle_beta                 102.293(3)
_cell_angle_gamma                90
_cell_volume                     1343.14
_exptl_crystal_colour            colorless
_exptl_crystal_description       block
_cell_formula_units_Z            2
loop_
_atom_site_label
_atom_site_type_symbol
_atom_site_fract_x
_atom_site_fract_y
_atom_site_fract_z
O1 O 0.88372(18) 0.8973(6) 1.02019(16)
C1 C 0.6136(3) 0.6430(8) 0.8979(2)
N1 N 0.9167(2) 0.4696(8) 1.0382(2)
H1 H 0.964(3) 0.494(13) 1.074(3)
H2 H 0.907(4) 0.313(8) 1.021(3)
C2 C 0.2715(3) 0.4612(13) 0.8484(3)
H3 H 0.2115 0.3950 0.8326
C3 C 0.2870(3) 0.6781(13) 0.8951(3)
H4 H 0.2369 0.7605 0.9095
C4 C 0.3741(3) 0.7744(11) 0.9205(3)
H5 H 0.3834 0.9185 0.9535
C5 C 0.4501(3) 0.6593(9) 0.8977(2)
C6 C 0.5407(3) 0.7543(9) 0.9215(2)
H6 H 0.5514 0.8981 0.9545
C7 C 0.7071(3) 0.7615(8) 0.9226(2)
H7 H 0.7098 0.9147 0.9564
C8 C 0.7930(3) 0.5914(8) 0.9379(2)
H8 H 0.7840 0.4023 0.9281
C9 C 0.8685(2) 0.6699(8) 1.0020(2)
C10 C 0.7720(3) 0.7699(10) 0.8701(2)
H9 H 0.8102 0.9260 0.8710
H10 H 0.7519 0.6899 0.8199
C11 C 0.3431(3) 0.3439(12) 0.8255(3)
H11 H 0.3320 0.1980 0.7933
C12 C 0.4346(3) 0.4403(9) 0.8497(2)
C13 C 0.5108(3) 0.3198(10) 0.8275(2)
H12 H 0.5017 0.1703 0.7967
C14 C 0.5977(3) 0.4214(9) 0.8510(2)
H13 H 0.6476 0.3415 0.8354
O2 O 0.9499(2) 0.0914(6) 0.81488(17)
N2 N 0.9839(3) 0.5154(7) 0.8355(2)
H14 H 1.024(3) 0.468(13) 0.874(2)
H15 H 0.975(4) 0.673(8) 0.820(3)
C15 C 0.9377(3) 0.3224(8) 0.7961(2)
C16 C 0.8697(3) 0.4002(8) 0.7265(2)
H16 H 0.8632 0.5893 0.7159
C17 C 0.8571(3) 0.2204(9) 0.6581(2)
H17 H 0.8944 0.0589 0.6666
C18 C 0.8449(3) 0.3294(9) 0.5804(2)
C19 C 0.8893(3) 0.2164(9) 0.5304(2)
H18 H 0.9271 0.0712 0.5463
C20 C 0.8811(3) 0.3088(10) 0.4547(2)
C21 C 0.8242(3) 0.5296(10) 0.4316(2)
C22 C 0.8159(4) 0.6209(13) 0.3565(3)
H19 H 0.7778 0.7648 0.3399
C23 C 0.8614(4) 0.5056(15) 0.3086(3)
H20 H 0.8567 0.5737 0.2595
C24 C 0.7892(3) 0.5472(9) 0.5561(3)
H21 H 0.7582 0.6286 0.5901
C25 C 0.7792(3) 0.6436(11) 0.4843(3)
H22 H 0.7412 0.7895 0.4699
C26 C 0.9158(4) 0.2856(15) 0.3310(3)
H23 H 0.9448 0.2016 0.2960
C27 C 0.9270(3) 0.1927(13) 0.4021(3)
H24 H 0.9659 0.0490 0.4169
C28 C 0.7845(3) 0.2377(11) 0.7028(3)
H25 H 0.7768 0.0885 0.7347
H26 H 0.7272 0.3276 0.6796
Cl1 Cl 0.58502(14) 0.8439(7) 0.67186(16)
C29 C 0.4922(7) 0.635(3) 0.6491(6)
H27 H 0.5041 0.4943 0.6875
Cl2 Cl 0.3906(2) 0.7805(12) 0.6590(3)
Cl3 Cl 0.4868(4) 0.4848(11) 0.5633(3)
Cl4? Cl 0.4922(12) 0.390(3) 0.6126(15)
Cl5? Cl 0.3922(9) 0.845(4) 0.6169(14)
Cl6? Cl 0.58502(14) 0.8439(7) 0.67186(16)
C30? C 0.4840(14) 0.664(5) 0.6675(18)
H28? H 0.4750 0.6171 0.7186
loop_
_geom_bond_atom_site_label_1
_geom_bond_atom_site_label_2
_geom_bond_site_symmetry_1
_geom_bond_site_symmetry_2
O1 C9 1_555 1_555
C1 C6 1_555 1_555
N1 H1 1_555 1_555
H2 N1 1_555 1_555
C2 H3 1_555 1_555
C3 C2 1_555 1_555
H4 C3 1_555 1_555
C4 C3 1_555 1_555
H5 C4 1_555 1_555
C5 C4 1_555 1_555
C6 C5 1_555 1_555
H6 C6 1_555 1_555
C7 C1 1_555 1_555
H7 C7 1_555 1_555
C8 C7 1_555 1_555
H8 C8 1_555 1_555
C9 N1 1_555 1_555
C10 C7 1_555 1_555
H9 C10 1_555 1_555
H10 C10 1_555 1_555
C11 C2 1_555 1_555
H11 C11 1_555 1_555
C12 C5 1_555 1_555
C13 C12 1_555 1_555
H12 C13 1_555 1_555
C14 C1 1_555 1_555
H13 C14 1_555 1_555
O2 C15 1_555 1_555
N2 H14 1_555 1_555
H15 N2 1_555 1_555
C15 N2 1_555 1_555
C16 C15 1_555 1_555
H16 C16 1_555 1_555
C17 C16 1_555 1_555
H17 C17 1_555 1_555
C18 C17 1_555 1_555
C19 C18 1_555 1_555
H18 C19 1_555 1_555
C20 C19 1_555 1_555
C21 C20 1_555 1_555
C22 C21 1_555 1_555
H19 C22 1_555 1_555
C23 C22 1_555 1_555
H20 C23 1_555 1_555
C24 C18 1_555 1_555
H21 C24 1_555 1_555
C25 C21 1_555 1_555
H22 C25 1_555 1_555
C26 C23 1_555 1_555
H23 C26 1_555 1_555
C27 C20 1_555 1_555
H24 C27 1_555 1_555
C28 C16 1_555 1_555
H25 C28 1_555 1_555
H26 C28 1_555 1_555
Cl1 C29 1_555 1_555
C29 H27 1_555 1_555
Cl2 C29 1_555 1_555
Cl3 C29 1_555 1_555
C8 C9 1_555 1_555
C8 C10 1_555 1_555
C11 C12 1_555 1_555
C13 C14 1_555 1_555
C17 C28 1_555 1_555
C24 C25 1_555 1_555
C26 C27 1_555 1_555

#END
