
#######################################################################
#
#                 Cambridge Crystallographic Data Centre
#                                CCDC 
#
#######################################################################
#
# If this CIF has been generated from an entry in the Cambridge 
# Structural Database, then it will include bibliographic, chemical, 
# crystal, experimental, refinement or atomic coordinate data resulting 
# from the CCDC's data processing and validation procedures.
#
#######################################################################

data_GILDEM
_chemical_formula_moiety         'C18 H20 N2 O3'
_chemical_name_systematic        
'Methyl 9-methoxy-1,2,6,7,12,12b-hexahydroindolo[2,3-a]quinolizine-3-carboxylate'
_symmetry_cell_setting           orthorhombic
_symmetry_space_group_name_H-M   'P b c a'
_symmetry_Int_Tables_number      61
_space_group_name_Hall           '-P 2ac 2ab'
loop_
_symmetry_equiv_pos_site_id
_symmetry_equiv_pos_as_xyz
1 x,y,z
2 1/2-x,-y,1/2+z
3 1/2+x,1/2-y,-z
4 -x,1/2+y,1/2-z
5 -x,-y,-z
6 1/2+x,y,1/2-z
7 1/2-x,1/2+y,z
8 x,1/2-y,1/2+z
_cell_length_a                   8.2878(9)
_cell_length_b                   18.358(2)
_cell_length_c                   20.650(3)
_cell_angle_alpha                90
_cell_angle_beta                 90
_cell_angle_gamma                90
_cell_volume                     3141.84
_cell_formula_units_Z            8
loop_
_atom_site_label
_atom_site_type_symbol
_atom_site_fract_x
_atom_site_fract_y
_atom_site_fract_z
C1 C 1.2425(3) 0.37386(12) 0.12470(10)
C2 C 1.3959(3) 0.40203(12) 0.11273(12)
H1 H 1.4736 0.3747 0.0911
C3 C 1.4283(3) 0.47116(12) 0.13379(12)
H2 H 1.5298 0.4911 0.1262
C4 C 1.3124(3) 0.51261(11) 0.16646(11)
C5 C 1.2630(4) 0.62018(14) 0.22732(14)
H3 H 1.2308 0.5916 0.2640
H4 H 1.1693 0.6335 0.2027
H5 H 1.3171 0.6634 0.2419
C6 C 1.1600(3) 0.48642(11) 0.17653(11)
H6 H 1.0821 0.5148 0.1969
C7 C 1.1242(2) 0.41565(11) 0.15541(10)
C8 C 0.9848(2) 0.37041(11) 0.16127(10)
C9 C 1.0225(2) 0.30479(11) 0.13485(10)
C10 C 0.9140(3) 0.23969(12) 0.13150(11)
H7 H 0.9529 0.2032 0.1624
C11 C 0.7436(3) 0.31370(12) 0.20683(11)
H8 H 0.7949 0.2916 0.2442
H9 H 0.6313 0.3224 0.2176
C12 C 0.8249(3) 0.38523(12) 0.19190(11)
H10 H 0.7582 0.4136 0.1627
H11 H 0.8397 0.4129 0.2315
C13 C 0.9059(3) 0.20517(13) 0.06495(12)
H12 H 1.0102 0.1844 0.0544
H13 H 0.8819 0.2425 0.0331
C14 C 0.7782(3) 0.14602(12) 0.06132(12)
H14 H 0.7673 0.1293 0.0170
H15 H 0.8104 0.1049 0.0878
C15 C 0.6197(2) 0.17539(11) 0.08483(11)
C16 C 0.6211(3) 0.23042(11) 0.12809(11)
H16 H 0.5216 0.2469 0.1429
C17 C 0.4656(3) 0.15028(11) 0.06177(11)
C18 C 0.3285(3) 0.06544(14) -0.00488(14)
H17 H 0.2711 0.1041 -0.0261
H18 H 0.2634 0.0461 0.0295
H19 H 0.3517 0.0276 -0.0355
N1 N 1.1785(2) 0.30593(9) 0.11233(9)
H20 H 1.2277 0.2704 0.0937
N2 N 0.7528(2) 0.26360(10) 0.15178(9)
O1 O 1.36858(19) 0.57901(8) 0.18804(9)
O2 O 0.33346(19) 0.17548(8) 0.07530(8)
O3 O 0.47770(17) 0.09335(8) 0.02147(8)
loop_
_geom_bond_atom_site_label_1
_geom_bond_atom_site_label_2
_geom_bond_site_symmetry_1
_geom_bond_site_symmetry_2
C1 C2 1_555 1_555
C2 H1 1_555 1_555
C3 C2 1_555 1_555
H2 C3 1_555 1_555
C4 C3 1_555 1_555
C5 H3 1_555 1_555
H4 C5 1_555 1_555
H5 C5 1_555 1_555
C6 C4 1_555 1_555
H6 C6 1_555 1_555
C7 C1 1_555 1_555
C8 C7 1_555 1_555
C9 C8 1_555 1_555
C10 C9 1_555 1_555
H7 C10 1_555 1_555
C11 H8 1_555 1_555
H9 C11 1_555 1_555
C12 C8 1_555 1_555
H10 C12 1_555 1_555
H11 C12 1_555 1_555
C13 C10 1_555 1_555
H12 C13 1_555 1_555
H13 C13 1_555 1_555
C14 C13 1_555 1_555
H14 C14 1_555 1_555
H15 C14 1_555 1_555
C15 C14 1_555 1_555
C16 C15 1_555 1_555
H16 C16 1_555 1_555
C17 C15 1_555 1_555
C18 H17 1_555 1_555
H18 C18 1_555 1_555
H19 C18 1_555 1_555
N1 C1 1_555 1_555
H20 N1 1_555 1_555
N2 C10 1_555 1_555
O1 C4 1_555 1_555
O2 C17 1_555 1_555
O3 C17 1_555 1_555
C5 O1 1_555 1_555
C6 C7 1_555 1_555
C9 N1 1_555 1_555
C11 C12 1_555 1_555
C11 N2 1_555 1_555
C16 N2 1_555 1_555
C18 O3 1_555 1_555

#END
