
#######################################################################
#
#                 Cambridge Crystallographic Data Centre
#                                CCDC 
#
#######################################################################
#
# If this CIF has been generated from an entry in the Cambridge 
# Structural Database, then it will include bibliographic, chemical, 
# crystal, experimental, refinement or atomic coordinate data resulting 
# from the CCDC's data processing and validation procedures.
#
#######################################################################

data_GILDOW
_chemical_formula_moiety         'C27 H21 N3 O3'
_chemical_name_systematic        
1'-Cyclohexyl-2,5'-dioxo-1',5',7',8'-tetrahydro-2H-spiro[acenaphthylene-1,4'-furo[3,4-b]pyrrolo[3,2-e]pyridine]-3'-carbonitrile
_symmetry_cell_setting           triclinic
_symmetry_space_group_name_H-M   'P -1'
_symmetry_Int_Tables_number      2
_space_group_name_Hall           '-P 1'
loop_
_symmetry_equiv_pos_site_id
_symmetry_equiv_pos_as_xyz
1 x,y,z
2 -x,-y,-z
_cell_length_a                   7.7675(2)
_cell_length_b                   11.2712(2)
_cell_length_c                   13.0114(3)
_cell_angle_alpha                78.310(1)
_cell_angle_beta                 81.848(1)
_cell_angle_gamma                80.530(1)
_cell_volume                     1093.35
_exptl_crystal_colour            colorless
_exptl_crystal_description       prism
_cell_formula_units_Z            2
loop_
_atom_site_label
_atom_site_type_symbol
_atom_site_fract_x
_atom_site_fract_y
_atom_site_fract_z
C1 C -0.12790(14) 0.98963(10) 0.88897(8)
C2 C 0.00537(14) 0.98828(10) 0.81019(8)
C3 C 0.16176(14) 0.89011(10) 0.80477(8)
C4 C 0.13949(14) 0.79863(10) 0.90619(9)
C5 C -0.00337(14) 0.80662(10) 0.98085(8)
C6 C 0.24945(15) 0.68863(10) 0.94604(9)
C7 C 0.16713(15) 0.63593(10) 1.04140(9)
H1 H 0.2110 0.5620 1.0851
C8 C -0.25764(14) 1.10242(10) 0.86505(9)
H2 H -0.3742 1.0814 0.8591
H3 H -0.2701 1.1527 0.9206
C9 C -0.02582(14) 1.09975(10) 0.73303(9)
C10 C 0.33826(14) 0.94529(10) 0.79459(9)
C11 C 0.45049(15) 0.91234(11) 0.70123(9)
C12 C 0.61536(15) 0.93675(12) 0.65652(9)
H4 H 0.6821 0.9790 0.6892
C13 C 0.68221(16) 0.89702(12) 0.56067(10)
H5 H 0.7964 0.9122 0.5292
C14 C 0.58664(17) 0.83682(12) 0.51143(9)
H6 H 0.6362 0.8119 0.4468
C15 C 0.41594(16) 0.81129(11) 0.55507(9)
C16 C 0.29697(18) 0.75850(11) 0.51065(9)
H7 H 0.3312 0.7323 0.4449
C17 C 0.13307(17) 0.74524(11) 0.56223(10)
H8 H 0.0551 0.7106 0.5306
C18 C 0.07507(16) 0.78144(10) 0.66167(9)
H9 H -0.0380 0.7689 0.6969
C19 C 0.18606(14) 0.83463(10) 0.70501(9)
C20 C 0.35356(15) 0.84973(10) 0.65149(9)
C21 C 0.42012(16) 0.64437(11) 0.90025(10)
C22 C -0.12146(15) 0.68627(10) 1.15471(9)
H10 H -0.1559 0.7646 1.1821
C23 C -0.04729(17) 0.58930(11) 1.24360(10)
H11 H 0.0587 0.6136 1.2632
H12 H -0.0132 0.5100 1.2195
C24 C -0.18618(19) 0.57610(12) 1.33932(10)
H13 H -0.1394 0.5111 1.3959
H14 H -0.2121 0.6537 1.3666
C25 C -0.35527(19) 0.54441(13) 1.31170(12)
H15 H -0.4446 0.5419 1.3742
H16 H -0.3325 0.4623 1.2922
C26 C -0.42564(18) 0.63871(13) 1.21996(12)
H17 H -0.4613 0.7189 1.2424
H18 H -0.5307 0.6133 1.2003
C27 C -0.28662(16) 0.65179(12) 1.12385(10)
H19 H -0.2576 0.5736 1.0975
H20 H -0.3332 0.7158 1.0666
N1 N -0.14496(12) 0.90058(8) 0.97576(7)
N2 N 0.01148(12) 0.70818(9) 1.06241(7)
N3 N 0.55841(15) 0.61133(11) 0.86373(10)
O1 O -0.18299(10) 1.16604(7) 0.76528(6)
O2 O 0.06344(11) 1.13811(8) 0.65338(6)
O3 O 0.36890(11) 1.00655(8) 0.85558(7)
H21 H -0.216(2) 0.9176(13) 1.0344(12)
loop_
_geom_bond_atom_site_label_1
_geom_bond_atom_site_label_2
_geom_bond_site_symmetry_1
_geom_bond_site_symmetry_2
C1 C2 1_555 1_555
C2 C3 1_555 1_555
C3 C4 1_555 1_555
C4 C5 1_555 1_555
C5 N1 1_555 1_555
C6 C4 1_555 1_555
C7 C6 1_555 1_555
H1 C7 1_555 1_555
C8 C1 1_555 1_555
H2 C8 1_555 1_555
H3 C8 1_555 1_555
C9 C2 1_555 1_555
C10 C3 1_555 1_555
C11 C10 1_555 1_555
C12 C11 1_555 1_555
H4 C12 1_555 1_555
C13 C12 1_555 1_555
H5 C13 1_555 1_555
C14 C13 1_555 1_555
H6 C14 1_555 1_555
C15 C14 1_555 1_555
C16 C15 1_555 1_555
H7 C16 1_555 1_555
C17 C16 1_555 1_555
H8 C17 1_555 1_555
C18 C17 1_555 1_555
H9 C18 1_555 1_555
C19 C3 1_555 1_555
C20 C11 1_555 1_555
C21 C6 1_555 1_555
C22 H10 1_555 1_555
C23 C22 1_555 1_555
H11 C23 1_555 1_555
H12 C23 1_555 1_555
C24 C23 1_555 1_555
H13 C24 1_555 1_555
H14 C24 1_555 1_555
C25 C24 1_555 1_555
H15 C25 1_555 1_555
H16 C25 1_555 1_555
C26 C25 1_555 1_555
H17 C26 1_555 1_555
H18 C26 1_555 1_555
C27 C22 1_555 1_555
H19 C27 1_555 1_555
H20 C27 1_555 1_555
N1 C1 1_555 1_555
N2 C5 1_555 1_555
N3 C21 1_555 1_555
O1 C8 1_555 1_555
O2 C9 1_555 1_555
O3 C10 1_555 1_555
H21 N1 1_555 1_555
C7 N2 1_555 1_555
C9 O1 1_555 1_555
C15 C20 1_555 1_555
C18 C19 1_555 1_555
C19 C20 1_555 1_555
C22 N2 1_555 1_555
C26 C27 1_555 1_555

#END
