
#######################################################################
#
#                 Cambridge Crystallographic Data Centre
#                                CCDC 
#
#######################################################################
#
# If this CIF has been generated from an entry in the Cambridge 
# Structural Database, then it will include bibliographic, chemical, 
# crystal, experimental, refinement or atomic coordinate data resulting 
# from the CCDC's data processing and validation procedures.
#
#######################################################################

data_GILDAI
_chemical_formula_moiety         'C26 H28 N2 O4'
_chemical_name_systematic        
'Methyl 9-methoxy-2-(4-methoxyphenyl)-12b-methyl-1,2,6,7,12,12b-hexahydroindolo[2,3-a]quinolizine-3-carboxylate'
_symmetry_cell_setting           monoclinic
_symmetry_space_group_name_H-M   'P 21/c'
_symmetry_Int_Tables_number      14
_space_group_name_Hall           '-P 2ybc'
loop_
_symmetry_equiv_pos_site_id
_symmetry_equiv_pos_as_xyz
1 x,y,z
2 -x,1/2+y,1/2-z
3 -x,-y,-z
4 x,1/2-y,1/2+z
_cell_length_a                   13.9856(13)
_cell_length_b                   8.3411(7)
_cell_length_c                   21.2607(16)
_cell_angle_alpha                90
_cell_angle_beta                 114.499(5)
_cell_angle_gamma                90
_cell_volume                     2256.88
_cell_formula_units_Z            4
loop_
_atom_site_label
_atom_site_type_symbol
_atom_site_fract_x
_atom_site_fract_y
_atom_site_fract_z
C1 C 1.14234(14) 1.1750(2) 0.89074(9)
C2 C 1.18837(16) 1.3239(2) 0.91114(10)
H1 H 1.1560 1.4026 0.9265
C3 C 1.28318(17) 1.3526(3) 0.90813(11)
H2 H 1.3157 1.4516 0.9221
C4 C 1.33136(16) 1.2353(3) 0.88434(12)
C5 C 1.4638(3) 1.4157(4) 0.8848(2)
H3 H 1.4096 1.4836 0.8534
H4 H 1.5233 1.4168 0.8732
H5 H 1.4847 1.4542 0.9312
C6 C 1.28668(16) 1.0864(2) 0.86441(11)
H6 H 1.3198 1.0085 0.8492
C7 C 1.19050(14) 1.0545(2) 0.86748(9)
C8 C 1.02493(18) 0.6786(3) 0.79289(11)
H7 H 0.9814 0.7271 0.7487
H8 H 1.0333 0.5660 0.7850
C9 C 1.13109(17) 0.7584(2) 0.82208(12)
H9 H 1.1812 0.6923 0.8583
H10 H 1.1560 0.7715 0.7860
C10 C 1.12219(15) 0.9186(2) 0.85077(10)
C11 C 1.03804(14) 0.9590(2) 0.86373(9)
C12 C 0.94380(14) 0.8567(2) 0.85302(9)
C13 C 0.84777(16) 0.9175(3) 0.79053(11)
H11 H 0.8610 0.9100 0.7498
H12 H 0.8345 1.0272 0.7979
H13 H 0.7877 0.8534 0.7847
C14 C 0.92370(14) 0.8529(2) 0.91881(9)
H14 H 0.8926 0.9544 0.9225
H15 H 0.9909 0.8445 0.9584
C15 C 0.85217(14) 0.7166(2) 0.92322(9)
H16 H 0.8660 0.7066 0.9722
C16 C 0.88832(14) 0.5617(2) 0.90350(10)
C17 C 0.94243(14) 0.5636(2) 0.86374(10)
H17 H 0.9609 0.4646 0.8520
C18 C 0.86355(14) 0.4079(2) 0.92364(10)
C19 C 0.7690(2) 0.2724(3) 0.97789(13)
H18 H 0.7459 0.1999 0.9394
H19 H 0.7120 0.2937 0.9907
H20 H 0.8263 0.2251 1.0163
C20 C 0.73438(14) 0.7456(2) 0.88448(10)
C21 C 0.68296(16) 0.8447(2) 0.91294(11)
H21 H 0.7213 0.8945 0.9551
C22 C 0.57665(17) 0.8709(3) 0.88006(13)
H22 H 0.5439 0.9387 0.8998
C23 C 0.51821(15) 0.7967(3) 0.81775(12)
C24 C 0.35038(19) 0.7523(4) 0.72635(15)
H23 H 0.3736 0.7875 0.6920
H24 H 0.2780 0.7814 0.7124
H25 H 0.3575 0.6380 0.7312
C25 C 0.56719(16) 0.6992(2) 0.78827(11)
H26 H 0.5287 0.6502 0.7459
C26 C 0.67444(15) 0.6744(2) 0.82213(11)
H27 H 0.7071 0.6073 0.8020
N1 N 1.04885(12) 1.11422(17) 0.88788(8)
H28 H 1.0048 1.1647 0.8993
N2 N 0.97232(13) 0.69331(18) 0.83941(8)
O1 O 1.42594(13) 1.2596(2) 0.87992(12)
O2 O 0.41180(12) 0.8255(2) 0.78986(9)
O3 O 0.88936(11) 0.27667(16) 0.91064(8)
O4 O 0.80320(12) 0.41988(15) 0.95896(8)
loop_
_geom_bond_atom_site_label_1
_geom_bond_atom_site_label_2
_geom_bond_site_symmetry_1
_geom_bond_site_symmetry_2
C1 C2 1_555 1_555
C2 H1 1_555 1_555
C3 C2 1_555 1_555
H2 C3 1_555 1_555
C4 C3 1_555 1_555
C5 H3 1_555 1_555
H4 C5 1_555 1_555
H5 C5 1_555 1_555
C6 C4 1_555 1_555
H6 C6 1_555 1_555
C7 C1 1_555 1_555
C8 H7 1_555 1_555
H8 C8 1_555 1_555
C9 C8 1_555 1_555
H9 C9 1_555 1_555
H10 C9 1_555 1_555
C10 C7 1_555 1_555
C11 C10 1_555 1_555
C12 C11 1_555 1_555
C13 C12 1_555 1_555
H11 C13 1_555 1_555
H12 C13 1_555 1_555
H13 C13 1_555 1_555
C14 C12 1_555 1_555
H14 C14 1_555 1_555
H15 C14 1_555 1_555
C15 C14 1_555 1_555
H16 C15 1_555 1_555
C16 C15 1_555 1_555
C17 C16 1_555 1_555
H17 C17 1_555 1_555
C18 C16 1_555 1_555
C19 H18 1_555 1_555
H19 C19 1_555 1_555
H20 C19 1_555 1_555
C20 C15 1_555 1_555
C21 C20 1_555 1_555
H21 C21 1_555 1_555
C22 C21 1_555 1_555
H22 C22 1_555 1_555
C23 C22 1_555 1_555
C24 H23 1_555 1_555
H24 C24 1_555 1_555
H25 C24 1_555 1_555
C25 C23 1_555 1_555
H26 C25 1_555 1_555
C26 C20 1_555 1_555
H27 C26 1_555 1_555
N1 C1 1_555 1_555
H28 N1 1_555 1_555
N2 C8 1_555 1_555
O1 C4 1_555 1_555
O2 C23 1_555 1_555
O3 C18 1_555 1_555
O4 C18 1_555 1_555
C5 O1 1_555 1_555
C6 C7 1_555 1_555
C9 C10 1_555 1_555
C11 N1 1_555 1_555
C12 N2 1_555 1_555
C17 N2 1_555 1_555
C19 O4 1_555 1_555
C24 O2 1_555 1_555
C25 C26 1_555 1_555

#END
