
#######################################################################
#
#                 Cambridge Crystallographic Data Centre
#                                CCDC 
#
#######################################################################
#
# If this CIF has been generated from an entry in the Cambridge 
# Structural Database, then it will include bibliographic, chemical, 
# crystal, experimental, refinement or atomic coordinate data resulting 
# from the CCDC's data processing and validation procedures.
#
#######################################################################

data_GILHEQ
_chemical_formula_moiety         'C20 H17 F3 N2 O4'
_chemical_name_systematic        
'Methyl (2-amino-3-cyano-5-oxo-7-phenyl-4-(trifluoromethyl)-5,6,7,8-tetrahydro-4H-chromen-4-yl)acetate'
_symmetry_cell_setting           triclinic
_symmetry_space_group_name_H-M   'P -1'
_symmetry_Int_Tables_number      2
_space_group_name_Hall           '-P 1'
loop_
_symmetry_equiv_pos_site_id
_symmetry_equiv_pos_as_xyz
1 x,y,z
2 -x,-y,-z
_cell_length_a                   6.6666(8)
_cell_length_b                   8.5408(10)
_cell_length_c                   17.961(2)
_cell_angle_alpha                78.0950(10)
_cell_angle_beta                 88.4470(10)
_cell_angle_gamma                67.7130(10)
_cell_volume                     924.437
_cell_formula_units_Z            2
loop_
_atom_site_label
_atom_site_type_symbol
_atom_site_fract_x
_atom_site_fract_y
_atom_site_fract_z
C1 C 0.5502(4) 0.2141(3) 0.48720(14)
H1 H 0.4952 0.1812 0.4486
C2 C 0.4702(5) 0.1964(3) 0.55901(16)
H2 H 0.3626 0.1514 0.5682
C3 C 0.5478(5) 0.2446(3) 0.61691(14)
H3 H 0.4940 0.2319 0.6652
C4 C 0.7051(5) 0.3114(3) 0.60279(13)
H4 H 0.7575 0.3455 0.6415
C5 C 0.7867(4) 0.3286(3) 0.53111(12)
H5 H 0.8943 0.3736 0.5225
C6 C 0.7112(3) 0.2801(3) 0.47187(12)
C7 C 0.7934(4) 0.2985(3) 0.39214(11)
H6 H 0.6685 0.3730 0.3569
C8 C 0.9623(4) 0.3789(3) 0.38057(13)
H7 H 0.8988 0.4947 0.3905
H8 H 1.0825 0.3117 0.4178
C9 C 1.0497(4) 0.3898(3) 0.30242(13)
C10 C 1.0452(3) 0.2631(3) 0.25775(11)
C11 C 0.9751(3) 0.1404(2) 0.29181(11)
C12 C 0.8882(4) 0.1240(3) 0.36903(12)
H9 H 1.0039 0.0440 0.4058
H10 H 0.7764 0.0772 0.3693
C13 C 1.1271(3) 0.2675(3) 0.17743(11)
C14 C 1.0520(3) 0.1518(3) 0.14112(11)
C15 C 0.9948(3) 0.0249(2) 0.18271(11)
C16 C 1.0593(4) 0.1621(3) 0.06139(12)
C17 C 1.3760(4) 0.1913(3) 0.18202(14)
C18 C 1.0516(4) 0.4527(3) 0.12674(12)
H11 H 1.1295 0.5151 0.1442
H12 H 1.0883 0.4444 0.0747
C19 C 0.8110(5) 0.5535(3) 0.12796(16)
C20 C 0.4703(6) 0.6644(6) 0.0656(3)
H13 H 0.4185 0.6534 0.1161
H14 H 0.3899 0.6297 0.0333
H15 H 0.4514 0.7827 0.0457
F1 F 1.4664(3) 0.2803(3) 0.21188(11)
F2 F 1.4554(3) 0.1823(3) 0.11375(9)
F3 F 1.4551(3) 0.0311(2) 0.22432(10)
N1 N 1.0631(5) 0.1679(3) -0.00284(11)
N2 N 0.9541(3) -0.0974(2) 0.15858(10)
H16 H 0.9628 -0.1023 0.1112
H17 H 0.9190 -0.1718 0.1903
O1 O 0.9710(3) 0.01013(17) 0.25903(7)
O2 O 1.1280(5) 0.4964(3) 0.27944(11)
O3 O 0.7034(3) 0.5524(3) 0.06847(12)
O4 O 0.7289(4) 0.6310(3) 0.17634(15)
loop_
_geom_bond_atom_site_label_1
_geom_bond_atom_site_label_2
_geom_bond_site_symmetry_1
_geom_bond_site_symmetry_2
C1 H1 1_555 1_555
C2 C1 1_555 1_555
H2 C2 1_555 1_555
C3 C2 1_555 1_555
H3 C3 1_555 1_555
C4 C3 1_555 1_555
H4 C4 1_555 1_555
C5 C4 1_555 1_555
H5 C5 1_555 1_555
C6 C1 1_555 1_555
C7 C6 1_555 1_555
H6 C7 1_555 1_555
C8 C7 1_555 1_555
H7 C8 1_555 1_555
H8 C8 1_555 1_555
C9 C8 1_555 1_555
C10 C9 1_555 1_555
C11 C10 1_555 1_555
C12 C7 1_555 1_555
H9 C12 1_555 1_555
H10 C12 1_555 1_555
C13 C10 1_555 1_555
C14 C13 1_555 1_555
C15 C14 1_555 1_555
C16 C14 1_555 1_555
C17 C13 1_555 1_555
C18 C13 1_555 1_555
H11 C18 1_555 1_555
H12 C18 1_555 1_555
C19 C18 1_555 1_555
C20 H13 1_555 1_555
H14 C20 1_555 1_555
H15 C20 1_555 1_555
F1 C17 1_555 1_555
F2 C17 1_555 1_555
F3 C17 1_555 1_555
N1 C16 1_555 1_555
N2 C15 1_555 1_555
H16 N2 1_555 1_555
H17 N2 1_555 1_555
O1 C11 1_555 1_555
O2 C9 1_555 1_555
O3 C19 1_555 1_555
O4 C19 1_555 1_555
C5 C6 1_555 1_555
C11 C12 1_555 1_555
C15 O1 1_555 1_555
C20 O3 1_555 1_555

#END
