
#######################################################################
#
#                 Cambridge Crystallographic Data Centre
#                                CCDC 
#
#######################################################################
#
# If this CIF has been generated from an entry in the Cambridge 
# Structural Database, then it will include bibliographic, chemical, 
# crystal, experimental, refinement or atomic coordinate data resulting 
# from the CCDC's data processing and validation procedures.
#
#######################################################################

data_GILLAQ
_chemical_formula_moiety         'C45 H43 N4 O4 1+,2(C2 H3 N1),Cl1 O4 1-'
_chemical_name_systematic        
'1-(3-(1,3-Dioxo-1,3-dihydro-2H-isoindol-2-yl)propyl)-2-(3-(1-(3-(1,3-dioxo-1,3-dihydro-2H-isoindol-2-yl)propyl)-3,3-dimethyl-1,3-dihydro-2H-indol-2-ylidene)prop-1-en-1-yl)-3,3-dimethyl-3H-indolium perchlorate acetonitrile solvate'
_symmetry_cell_setting           triclinic
_symmetry_space_group_name_H-M   'P -1'
_symmetry_Int_Tables_number      2
_space_group_name_Hall           '-P 1'
loop_
_symmetry_equiv_pos_site_id
_symmetry_equiv_pos_as_xyz
1 x,y,z
2 -x,-y,-z
_cell_length_a                   11.7498(3)
_cell_length_b                   14.0094(4)
_cell_length_c                   14.6629(4)
_cell_angle_alpha                107.3300(10)
_cell_angle_beta                 96.3280(10)
_cell_angle_gamma                103.5450(10)
_cell_volume                     2197.45
_exptl_crystal_colour            'dark red'
_exptl_crystal_description       block
_cell_formula_units_Z            2
loop_
_atom_site_label
_atom_site_type_symbol
_atom_site_fract_x
_atom_site_fract_y
_atom_site_fract_z
Cl1 Cl 0.53747(6) 0.73002(5) 0.97214(5)
O1 O 0.6383(4) 0.7669(3) 1.0448(3)
O2 O 0.4740(5) 0.8034(4) 0.9698(4)
O3 O 0.4619(4) 0.6321(3) 0.9778(3)
O4 O 0.5795(5) 0.7060(5) 0.8814(4)
O13 O 0.25117(15) 0.88268(15) 0.59627(14)
O14 O 0.61107(16) 1.03446(17) 0.80620(15)
O15 O 0.29289(16) 0.34783(16) 0.51459(17)
O16 O 0.67567(17) 0.49290(17) 0.68637(16)
N1 N 0.15966(17) 0.89885(16) 0.88931(15)
N2 N 0.19948(17) 0.37008(15) 0.77347(15)
N3 N 0.41703(17) 0.96905(17) 0.71925(16)
N4 N 0.47350(17) 0.42862(16) 0.62211(16)
C1 C -0.0279(2) 0.89344(19) 0.82376(17)
C2 C -0.1211(2) 0.9344(2) 0.8075(2)
H1 H -0.1962 0.8902 0.7694
C3 C -0.1037(2) 1.0413(2) 0.8476(2)
H2 H -0.1675 1.0701 0.8368
C4 C 0.0060(2) 1.1064(2) 0.9031(2)
H3 H 0.0166 1.1793 0.9290
C5 C 0.1010(2) 1.0660(2) 0.92155(19)
H4 H 0.1760 1.1098 0.9602
C6 C 0.0809(2) 0.96028(19) 0.88123(17)
C7 C 0.1070(2) 0.79649(19) 0.84144(17)
C8 C -0.0201(2) 0.78322(19) 0.78966(18)
C9 C -0.0295(2) 0.7440(2) 0.67824(18)
H5 H 0.0332 0.7909 0.6604
H6 H -0.1078 0.7427 0.6462
H7 H -0.0198 0.6736 0.6574
C10 C -0.1164(2) 0.7126(2) 0.8225(2)
H8 H -0.1074 0.7400 0.8934
H9 H -0.1076 0.6419 0.8030
H10 H -0.1956 0.7111 0.7919
C11 C 0.1641(2) 0.7207(2) 0.84173(18)
H11 H 0.2432 0.7438 0.8783
C12 C 0.1173(2) 0.6139(2) 0.79386(18)
H12 H 0.0398 0.5887 0.7542
C13 C 0.1789(2) 0.54273(19) 0.80148(18)
H13 H 0.2568 0.5700 0.8406
C14 C 0.1376(2) 0.43492(19) 0.75724(17)
C15 C 0.1366(2) 0.26440(19) 0.72283(18)
C16 C 0.1699(2) 0.1761(2) 0.72434(19)
H14 H 0.2428 0.1807 0.7628
C17 C 0.0915(2) 0.0809(2) 0.6668(2)
H15 H 0.1109 0.0184 0.6656
C18 C -0.0148(2) 0.0753(2) 0.6110(2)
H16 H -0.0667 0.0091 0.5721
C19 C -0.0467(2) 0.1646(2) 0.61087(19)
H17 H -0.1196 0.1600 0.5723
C20 C 0.0303(2) 0.2607(2) 0.66841(18)
C21 C 0.0214(2) 0.3698(2) 0.68432(18)
C22 C 0.0221(2) 0.3944(2) 0.58842(19)
H18 H 0.0945 0.3847 0.5641
H19 H 0.0206 0.4667 0.6004
H20 H -0.0483 0.3474 0.5399
C23 C -0.0913(2) 0.3831(2) 0.7255(2)
H21 H -0.0887 0.3672 0.7862
H22 H -0.1623 0.3355 0.6780
H23 H -0.0944 0.4551 0.7383
C24 C 0.2857(2) 0.9439(2) 0.93970(19)
H24 H 0.3033 0.9064 0.9847
H25 H 0.2986 1.0179 0.9790
C25 C 0.3703(2) 0.9372(2) 0.86944(19)
H26 H 0.3573 0.8631 0.8306
H27 H 0.4532 0.9640 0.9070
C26 C 0.3565(2) 0.9976(2) 0.80066(19)
H28 H 0.2705 0.9840 0.7751
H29 H 0.3895 1.0731 0.8370
C27 C 0.3589(2) 0.91340(19) 0.62395(19)
C28 C 0.4544(2) 0.90079(19) 0.5667(2)
C29 C 0.4467(2) 0.8545(2) 0.4684(2)
H30 H 0.3719 0.8227 0.4248
C30 C 0.5550(3) 0.8565(2) 0.4355(2)
H31 H 0.5536 0.8255 0.3682
C31 C 0.6640(3) 0.9030(2) 0.5000(2)
H32 H 0.7357 0.9031 0.4757
C32 C 0.6703(2) 0.9494(2) 0.5988(2)
H33 H 0.7448 0.9810 0.6429
C33 C 0.5639(2) 0.9475(2) 0.6304(2)
C34 C 0.5413(2) 0.9906(2) 0.7297(2)
C35 C 0.3201(2) 0.39738(19) 0.83059(18)
H34 H 0.3219 0.3522 0.8711
H35 H 0.3427 0.4706 0.8746
C36 C 0.4093(2) 0.3834(2) 0.7627(2)
H36 H 0.4870 0.3894 0.8011
H37 H 0.3805 0.3126 0.7136
C37 C 0.4272(2) 0.4636(2) 0.7104(2)
H38 H 0.3500 0.4773 0.6936
H39 H 0.4835 0.5299 0.7549
C38 C 0.4009(2) 0.37292(19) 0.5302(2)
C39 C 0.4826(2) 0.3537(2) 0.4620(2)
C40 C 0.4589(3) 0.3029(2) 0.3617(2)
H40 H 0.3796 0.2745 0.3253
C41 C 0.5568(3) 0.2958(2) 0.3172(2)
H41 H 0.5440 0.2613 0.2490
C42 C 0.6714(3) 0.3375(3) 0.3699(3)
H42 H 0.7360 0.3307 0.3372
C43 C 0.6953(3) 0.3894(2) 0.4696(2)
H43 H 0.7748 0.4189 0.5056
C44 C 0.5990(2) 0.3964(2) 0.5142(2)
C45 C 0.5943(2) 0.4457(2) 0.6177(2)
N5 N 0.0722(3) 0.3924(3) -0.0381(2)
C46 C 0.1611(3) 0.4284(3) 0.0141(2)
C47 C 0.2773(3) 0.4686(3) 0.0804(3)
H44 H 0.3105 0.4106 0.0805
H45 H 0.2675 0.5039 0.1463
H46 H 0.3317 0.5180 0.0585
N6 N 0.3664(3) 0.7406(3) 0.2379(2)
C48 C 0.3079(3) 0.7330(3) 0.1670(3)
C49 C 0.2328(3) 0.7200(3) 0.0767(3)
H47 H 0.2339 0.7886 0.0721
H48 H 0.1508 0.6816 0.0751
H49 H 0.2626 0.6809 0.0218
O5? O 0.6168(7) 0.7626(5) 1.0678(5)
O6? O 0.4628(6) 0.8058(5) 0.9942(6)
O7? O 0.4688(6) 0.6312(5) 0.9340(6)
O8? O 0.6157(8) 0.7554(9) 0.9029(7)
O9? O 0.5564(18) 0.7532(15) 1.0791(8)
O10? O 0.4146(12) 0.7176(19) 0.9353(15)
O11? O 0.6174(18) 0.8054(17) 0.9455(17)
O12? O 0.559(2) 0.6255(13) 0.9335(17)
loop_
_geom_bond_atom_site_label_1
_geom_bond_atom_site_label_2
_geom_bond_site_symmetry_1
_geom_bond_site_symmetry_2
Cl1 O1 1_555 1_555
O2 Cl1 1_555 1_555
O3 Cl1 1_555 1_555
O4 Cl1 1_555 1_555
O13 C27 1_555 1_555
O14 C34 1_555 1_555
O15 C38 1_555 1_555
O16 C45 1_555 1_555
N1 C6 1_555 1_555
N2 C14 1_555 1_555
N3 C26 1_555 1_555
N4 C37 1_555 1_555
C1 C2 1_555 1_555
C2 H1 1_555 1_555
C3 C2 1_555 1_555
H2 C3 1_555 1_555
C4 C3 1_555 1_555
H3 C4 1_555 1_555
C5 C4 1_555 1_555
H4 C5 1_555 1_555
C6 C1 1_555 1_555
C7 N1 1_555 1_555
C8 C1 1_555 1_555
C9 C8 1_555 1_555
H5 C9 1_555 1_555
H6 C9 1_555 1_555
H7 C9 1_555 1_555
C10 C8 1_555 1_555
H8 C10 1_555 1_555
H9 C10 1_555 1_555
H10 C10 1_555 1_555
C11 C7 1_555 1_555
H11 C11 1_555 1_555
C12 C11 1_555 1_555
H12 C12 1_555 1_555
C13 C12 1_555 1_555
H13 C13 1_555 1_555
C14 C13 1_555 1_555
C15 N2 1_555 1_555
C16 C15 1_555 1_555
H14 C16 1_555 1_555
C17 C16 1_555 1_555
H15 C17 1_555 1_555
C18 C17 1_555 1_555
H16 C18 1_555 1_555
C19 C18 1_555 1_555
H17 C19 1_555 1_555
C20 C15 1_555 1_555
C21 C14 1_555 1_555
C22 C21 1_555 1_555
H18 C22 1_555 1_555
H19 C22 1_555 1_555
H20 C22 1_555 1_555
C23 C21 1_555 1_555
H21 C23 1_555 1_555
H22 C23 1_555 1_555
H23 C23 1_555 1_555
C24 N1 1_555 1_555
H24 C24 1_555 1_555
H25 C24 1_555 1_555
C25 C24 1_555 1_555
H26 C25 1_555 1_555
H27 C25 1_555 1_555
C26 C25 1_555 1_555
H28 C26 1_555 1_555
H29 C26 1_555 1_555
C27 N3 1_555 1_555
C28 C27 1_555 1_555
C29 C28 1_555 1_555
H30 C29 1_555 1_555
C30 C29 1_555 1_555
H31 C30 1_555 1_555
C31 C30 1_555 1_555
H32 C31 1_555 1_555
C32 C31 1_555 1_555
H33 C32 1_555 1_555
C33 C28 1_555 1_555
C34 N3 1_555 1_555
C35 N2 1_555 1_555
H34 C35 1_555 1_555
H35 C35 1_555 1_555
C36 C35 1_555 1_555
H36 C36 1_555 1_555
H37 C36 1_555 1_555
C37 C36 1_555 1_555
H38 C37 1_555 1_555
H39 C37 1_555 1_555
C38 N4 1_555 1_555
C39 C38 1_555 1_555
C40 C39 1_555 1_555
H40 C40 1_555 1_555
C41 C40 1_555 1_555
H41 C41 1_555 1_555
C42 C41 1_555 1_555
H42 C42 1_555 1_555
C43 C42 1_555 1_555
H43 C43 1_555 1_555
C44 C39 1_555 1_555
C45 N4 1_555 1_555
N5 C46 1_555 1_555
C46 C47 1_555 1_555
C47 H44 1_555 1_555
H45 C47 1_555 1_555
H46 C47 1_555 1_555
N6 C48 1_555 1_555
C48 C49 1_555 1_555
C49 H47 1_555 1_555
H48 C49 1_555 1_555
H49 C49 1_555 1_555
C5 C6 1_555 1_555
C7 C8 1_555 1_555
C19 C20 1_555 1_555
C20 C21 1_555 1_555
C32 C33 1_555 1_555
C33 C34 1_555 1_555
C43 C44 1_555 1_555
C44 C45 1_555 1_555

#END
