
#######################################################################
#
#                 Cambridge Crystallographic Data Centre
#                                CCDC 
#
#######################################################################
#
# If this CIF has been generated from an entry in the Cambridge 
# Structural Database, then it will include bibliographic, chemical, 
# crystal, experimental, refinement or atomic coordinate data resulting 
# from the CCDC's data processing and validation procedures.
#
#######################################################################

data_GILYUW
_chemical_formula_moiety         'C65 H64 N2'
_chemical_name_systematic        
9,9-bis(4-(3,6-di-t-butyl-9H-carbazol-9-yl)phenyl)fluorene
_symmetry_cell_setting           monoclinic
_symmetry_space_group_name_H-M   'C 2/c'
_symmetry_Int_Tables_number      15
_space_group_name_Hall           '-C 2yn'
loop_
_symmetry_equiv_pos_site_id
_symmetry_equiv_pos_as_xyz
1 x,y,z
2 1/2+x,1/2+y,z
3 -x,y,1/2-z
4 1/2-x,1/2+y,1/2-z
5 -x,-y,-z
6 1/2-x,1/2-y,-z
7 x,-y,1/2+z
8 1/2+x,1/2-y,1/2+z
_cell_length_a                   38.594(6)
_cell_length_b                   10.9140(18)
_cell_length_c                   12.493(2)
_cell_angle_alpha                90
_cell_angle_beta                 98.972(4)
_cell_angle_gamma                90
_cell_volume                     5197.85
_exptl_crystal_colour            colorless
_exptl_crystal_description       prism
_chemical_melting_point          '675 K'
_cell_formula_units_Z            4
_exptl_crystal_recrystallization_method sublimation
_exptl_crystal_preparation       electrophosphorescent
loop_
_atom_site_label
_atom_site_type_symbol
_atom_site_fract_x
_atom_site_fract_y
_atom_site_fract_z
N1 N 0.09741(8) 0.4408(3) 0.0908(3)
C1 C 0.12749(11) 0.5657(4) -0.0374(3)
H1 H 0.1113 0.6295 -0.0456
C2 C 0.15636(11) 0.5674(4) -0.0893(4)
H2 H 0.1594 0.6345 -0.1329
C3 C 0.18143(10) 0.4739(3) -0.0803(3)
C4 C 0.17605(9) 0.3743(3) -0.0163(3)
H3 H 0.1920 0.3099 -0.0096
C5 C 0.15092(9) 0.1754(3) 0.1618(3)
H4 H 0.1711 0.1430 0.1404
C6 C 0.13571(9) 0.1161(3) 0.2402(3)
C7 C 0.10517(9) 0.1669(4) 0.2686(3)
H5 H 0.0946 0.1273 0.3209
C8 C 0.08997(10) 0.2724(3) 0.2233(3)
H6 H 0.0695 0.3033 0.2437
C9 C 0.10607(9) 0.3309(3) 0.1464(3)
C10 C 0.13658(8) 0.2828(3) 0.1143(3)
C11 C 0.14739(9) 0.3685(3) 0.0380(3)
C12 C 0.12333(9) 0.4656(3) 0.0275(3)
C13 C 0.21332(11) 0.4835(4) -0.1379(4)
C14 C 0.2274(2) 0.6099(7) -0.1336(12)
H7 H 0.2089 0.6661 -0.1603
H8 H 0.2456 0.6153 -0.1776
H9 H 0.2368 0.6304 -0.0600
C15 C 0.2022(2) 0.4527(11) -0.2547(6)
H10 H 0.1931 0.3707 -0.2607
H11 H 0.2220 0.4587 -0.2923
H12 H 0.1843 0.5089 -0.2860
C16 C 0.24148(14) 0.3941(7) -0.0965(6)
H13 H 0.2320 0.3126 -0.1013
H14 H 0.2505 0.4126 -0.0222
H15 H 0.2601 0.3995 -0.1392
C17 C 0.15189(12) -0.0003(4) 0.2952(4)
C18 C 0.1888(3) 0.0113(10) 0.3349(12)
H16 H 0.1999 0.0543 0.2826
H17 H 0.1990 -0.0688 0.3468
H18 H 0.1920 0.0560 0.4019
C19 C 0.1505(4) -0.1030(8) 0.1955(10)
H19 H 0.1265 -0.1179 0.1643
H20 H 0.1610 -0.1782 0.2241
H21 H 0.1631 -0.0721 0.1408
C20 C 0.1294(3) -0.0631(9) 0.3650(11)
H22 H 0.1057 -0.0659 0.3282
H23 H 0.1303 -0.0189 0.4318
H24 H 0.1379 -0.1450 0.3801
C21 C 0.03856(10) 0.8347(4) 0.4348(3)
H25 H 0.0435 0.7544 0.4570
C22 C 0.05189(12) 0.9320(5) 0.5005(4)
H26 H 0.0660 0.9166 0.5665
C23 C 0.04444(12) 1.0505(4) 0.4684(4)
H27 H 0.0534 1.1147 0.5134
C24 C 0.02391(11) 1.0754(4) 0.3705(4)
H28 H 0.0187 1.1560 0.3496
C25 C 0.01103(9) 0.9791(3) 0.3034(3)
C26 C 0.01787(8) 0.8582(3) 0.3363(3)
C27 C 0.0000 0.7682(4) 0.2500
C28 C 0.02650(9) 0.6871(3) 0.2032(3)
C29 C 0.06036(11) 0.7013(5) 0.2219(5)
H29 H 0.0694 0.7677 0.2639
C30 C 0.08367(12) 0.6230(5) 0.1829(5)
H30 H 0.1076 0.6390 0.1997
C31 C 0.07345(10) 0.5281(3) 0.1237(3)
C32 C 0.03881(16) 0.5108(7) 0.1030(7)
H31 H 0.0301 0.4447 0.0601
C33 C 0.01552(14) 0.5878(7) 0.1430(7)
H32 H -0.0084 0.5707 0.1282
N1B N -0.09741(8) 0.4408(3) 0.4092(3)
C1B C -0.12749(11) 0.5657(4) 0.5374(3)
H1B H -0.1113 0.6295 0.5456
C2B C -0.15636(11) 0.5674(4) 0.5893(4)
H2B H -0.1594 0.6345 0.6329
C3B C -0.18143(10) 0.4739(3) 0.5803(3)
C4B C -0.17605(9) 0.3743(3) 0.5163(3)
H3B H -0.1920 0.3099 0.5096
C5B C -0.15092(9) 0.1754(3) 0.3382(3)
H4B H -0.1711 0.1430 0.3596
C6B C -0.13571(9) 0.1161(3) 0.2598(3)
C7B C -0.10517(9) 0.1669(4) 0.2314(3)
H5B H -0.0946 0.1273 0.1791
C8B C -0.08997(10) 0.2724(3) 0.2767(3)
H6B H -0.0695 0.3033 0.2563
C9B C -0.10607(9) 0.3309(3) 0.3536(3)
C10B C -0.13658(8) 0.2828(3) 0.3857(3)
C11B C -0.14739(9) 0.3685(3) 0.4620(3)
C12B C -0.12333(9) 0.4656(3) 0.4725(3)
C13B C -0.21332(11) 0.4835(4) 0.6379(4)
C14B C -0.2274(2) 0.6099(7) 0.6336(12)
H7B H -0.2089 0.6661 0.6603
H8B H -0.2456 0.6153 0.6776
H9B H -0.2368 0.6304 0.5600
C15B C -0.2022(2) 0.4527(11) 0.7547(6)
H10B H -0.1931 0.3707 0.7607
H11B H -0.2220 0.4587 0.7923
H12B H -0.1843 0.5089 0.7860
C16B C -0.24148(14) 0.3941(7) 0.5965(6)
H13B H -0.2320 0.3126 0.6013
H14B H -0.2505 0.4126 0.5222
H15B H -0.2601 0.3995 0.6392
C17B C -0.15189(12) -0.0003(4) 0.2048(4)
C18B C -0.1888(3) 0.0113(10) 0.1651(12)
H16B H -0.1999 0.0543 0.2174
H17B H -0.1990 -0.0688 0.1532
H18B H -0.1920 0.0560 0.0981
C19B C -0.1505(4) -0.1030(8) 0.3045(10)
H19B H -0.1265 -0.1179 0.3357
H20B H -0.1610 -0.1782 0.2759
H21B H -0.1631 -0.0721 0.3592
C20B C -0.1294(3) -0.0631(9) 0.1350(11)
H22B H -0.1057 -0.0659 0.1718
H23B H -0.1303 -0.0189 0.0682
H24B H -0.1379 -0.1450 0.1199
C21B C -0.03856(10) 0.8347(4) 0.0652(3)
H25B H -0.0435 0.7544 0.0430
C22B C -0.05189(12) 0.9320(5) -0.0005(4)
H26B H -0.0660 0.9166 -0.0665
C23B C -0.04444(12) 1.0505(4) 0.0316(4)
H27B H -0.0534 1.1147 -0.0134
C24B C -0.02391(11) 1.0754(4) 0.1295(4)
H28B H -0.0187 1.1560 0.1504
C25B C -0.01103(9) 0.9791(3) 0.1966(3)
C26B C -0.01787(8) 0.8582(3) 0.1637(3)
C28B C -0.02650(9) 0.6871(3) 0.2968(3)
C29B C -0.06036(11) 0.7013(5) 0.2781(5)
H29B H -0.0694 0.7677 0.2361
C30B C -0.08367(12) 0.6230(5) 0.3171(5)
H30B H -0.1076 0.6390 0.3003
C31B C -0.07345(10) 0.5281(3) 0.3763(3)
C32B C -0.03881(16) 0.5108(7) 0.3970(7)
H31B H -0.0301 0.4447 0.4399
C33B C -0.01552(14) 0.5878(7) 0.3570(7)
H32B H 0.0084 0.5707 0.3718
C34? C 0.1865(4) -0.0297(14) 0.2691(13)
H33? H 0.2015 0.0405 0.2826
H34? H 0.1844 -0.0522 0.1941
H35? H 0.1964 -0.0968 0.3134
C35? C 0.1594(4) 0.0367(12) 0.4306(10)
H36? H 0.1757 0.1037 0.4421
H37? H 0.1691 -0.0329 0.4718
H38? H 0.1378 0.0601 0.4535
C36? C 0.1278(4) -0.0972(13) 0.2833(14)
H39? H 0.1054 -0.0683 0.2971
H40? H 0.1360 -0.1611 0.3338
H41? H 0.1255 -0.1287 0.2108
loop_
_geom_bond_atom_site_label_1
_geom_bond_atom_site_label_2
_geom_bond_site_symmetry_1
_geom_bond_site_symmetry_2
N1 C9 1_555 1_555
C1 H1 1_555 1_555
C2 C1 1_555 1_555
H2 C2 1_555 1_555
C3 C2 1_555 1_555
C4 C3 1_555 1_555
H3 C4 1_555 1_555
C5 H4 1_555 1_555
C6 C5 1_555 1_555
C7 C6 1_555 1_555
H5 C7 1_555 1_555
C8 C7 1_555 1_555
H6 C8 1_555 1_555
C9 C8 1_555 1_555
C10 C5 1_555 1_555
C11 C4 1_555 1_555
C12 N1 1_555 1_555
C13 C3 1_555 1_555
C14 C13 1_555 1_555
H7 C14 1_555 1_555
H8 C14 1_555 1_555
H9 C14 1_555 1_555
C15 C13 1_555 1_555
H10 C15 1_555 1_555
H11 C15 1_555 1_555
H12 C15 1_555 1_555
C16 C13 1_555 1_555
H13 C16 1_555 1_555
H14 C16 1_555 1_555
H15 C16 1_555 1_555
C17 C6 1_555 1_555
C18 C17 1_555 1_555
H16 C18 1_555 1_555
H17 C18 1_555 1_555
H18 C18 1_555 1_555
C19 C17 1_555 1_555
H19 C19 1_555 1_555
H20 C19 1_555 1_555
H21 C19 1_555 1_555
C20 C17 1_555 1_555
H22 C20 1_555 1_555
H23 C20 1_555 1_555
H24 C20 1_555 1_555
C21 H25 1_555 1_555
C22 C21 1_555 1_555
H26 C22 1_555 1_555
C23 C22 1_555 1_555
H27 C23 1_555 1_555
C24 C23 1_555 1_555
H28 C24 1_555 1_555
C25 C24 1_555 1_555
C26 C21 1_555 1_555
C27 C26 1_555 1_555
C28 C27 1_555 1_555
C29 C28 1_555 1_555
H29 C29 1_555 1_555
C30 C29 1_555 1_555
H30 C30 1_555 1_555
C31 N1 1_555 1_555
C32 C31 1_555 1_555
H31 C32 1_555 1_555
C33 C28 1_555 1_555
H32 C33 1_555 1_555
N1B C9B 1_555 1_555
C1B H1B 1_555 1_555
C2B C1B 1_555 1_555
H2B C2B 1_555 1_555
C3B C2B 1_555 1_555
C4B C3B 1_555 1_555
H3B C4B 1_555 1_555
C5B H4B 1_555 1_555
C6B C5B 1_555 1_555
C7B C6B 1_555 1_555
H5B C7B 1_555 1_555
C8B C7B 1_555 1_555
H6B C8B 1_555 1_555
C9B C8B 1_555 1_555
C10B C5B 1_555 1_555
C11B C4B 1_555 1_555
C12B N1B 1_555 1_555
C13B C3B 1_555 1_555
C14B C13B 1_555 1_555
H7B C14B 1_555 1_555
H8B C14B 1_555 1_555
H9B C14B 1_555 1_555
C15B C13B 1_555 1_555
H10B C15B 1_555 1_555
H11B C15B 1_555 1_555
H12B C15B 1_555 1_555
C16B C13B 1_555 1_555
H13B C16B 1_555 1_555
H14B C16B 1_555 1_555
H15B C16B 1_555 1_555
C17B C6B 1_555 1_555
C18B C17B 1_555 1_555
H16B C18B 1_555 1_555
H17B C18B 1_555 1_555
H18B C18B 1_555 1_555
C19B C17B 1_555 1_555
H19B C19B 1_555 1_555
H20B C19B 1_555 1_555
H21B C19B 1_555 1_555
C20B C17B 1_555 1_555
H22B C20B 1_555 1_555
H23B C20B 1_555 1_555
H24B C20B 1_555 1_555
C21B H25B 1_555 1_555
C22B C21B 1_555 1_555
H26B C22B 1_555 1_555
C23B C22B 1_555 1_555
H27B C23B 1_555 1_555
C24B C23B 1_555 1_555
H28B C24B 1_555 1_555
C25B C25 1_555 1_555
C26B C27 1_555 1_555
C28B C27 1_555 1_555
C29B C28B 1_555 1_555
H29B C29B 1_555 1_555
C30B C29B 1_555 1_555
H30B C30B 1_555 1_555
C31B N1B 1_555 1_555
C32B C31B 1_555 1_555
H31B C32B 1_555 1_555
C33B C28B 1_555 1_555
H32B C33B 1_555 1_555
C1 C12 1_555 1_555
C9 C10 1_555 1_555
C10 C11 1_555 1_555
C11 C12 1_555 1_555
C25 C26 1_555 1_555
C30 C31 1_555 1_555
C32 C33 1_555 1_555
C1B C12B 1_555 1_555
C9B C10B 1_555 1_555
C10B C11B 1_555 1_555
C11B C12B 1_555 1_555
C21B C26B 1_555 1_555
C24B C25B 1_555 1_555
C25B C26B 1_555 1_555
C30B C31B 1_555 1_555
C32B C33B 1_555 1_555

#END
