
#######################################################################
#
#                 Cambridge Crystallographic Data Centre
#                                CCDC 
#
#######################################################################
#
# If this CIF has been generated from an entry in the Cambridge 
# Structural Database, then it will include bibliographic, chemical, 
# crystal, experimental, refinement or atomic coordinate data resulting 
# from the CCDC's data processing and validation procedures.
#
#######################################################################

data_GILZUX
_chemical_formula_moiety         'C24 H25 N1 O5'
_chemical_name_systematic        sym-(2-picolyl)dibenzo-14-crown-4
_symmetry_cell_setting           monoclinic
_symmetry_space_group_name_H-M   'P 2/c'
_symmetry_Int_Tables_number      13
_space_group_name_Hall           '-P 2yc'
loop_
_symmetry_equiv_pos_site_id
_symmetry_equiv_pos_as_xyz
1 x,y,z
2 -x,y,1/2-z
3 -x,-y,-z
4 x,-y,1/2+z
_cell_length_a                   13.6570(2)
_cell_length_b                   5.018(2)
_cell_length_c                   30.0427(2)
_cell_angle_alpha                90
_cell_angle_beta                 96.22(2)
_cell_angle_gamma                90
_cell_volume                     2046.73
_exptl_crystal_colour            colorless
_exptl_crystal_description       rod
_chemical_melting_point          '97-98 deg.C'
_cell_formula_units_Z            4
loop_
_atom_site_label
_atom_site_type_symbol
_atom_site_fract_x
_atom_site_fract_y
_atom_site_fract_z
C1 C 0.8461(4) 0.5570(12) 0.00408(16)
O1 O 0.8695(3) 0.5393(8) 0.04953(11)
C2 C 0.9319(4) 0.7382(12) 0.07153(17)
H1 H 0.9052 0.9146 0.0649
H2 H 0.9973 0.7287 0.0619
C3 C 0.9356(3) 0.6800(12) 0.12124(16)
H3 H 0.9521 0.4921 0.1269
C4 C 0.8422(4) 0.7501(12) 0.14175(19)
H4 H 0.8566 0.7738 0.1738
H5 H 0.8148 0.9150 0.1290
O2 O 0.7737(2) 0.5372(8) 0.13245(12)
C5 C 0.6803(4) 0.5672(11) 0.14510(16)
C6 C 0.6549(4) 0.7563(12) 0.17539(18)
H6 H 0.7019 0.8754 0.1882
C7 C 0.5582(4) 0.7671(12) 0.1865(2)
H7 H 0.5409 0.8904 0.2074
C8 C 0.4893(5) 0.5951(13) 0.1665(2)
H8 H 0.4246 0.6060 0.1733
C9 C 0.5139(4) 0.4060(12) 0.13644(19)
H9 H 0.4662 0.2894 0.1234
C10 C 0.6105(4) 0.3889(11) 0.12541(17)
O3 O 0.6434(2) 0.2144(8) 0.09597(12)
C11 C 0.5732(4) 0.0487(12) 0.07059(18)
H10 H 0.5224 0.1572 0.0544
H11 H 0.5423 -0.0702 0.0903
C12 C 0.6268(4) -0.1101(11) 0.03819(18)
H12 H 0.5841 -0.2543 0.0266
H13 H 0.6845 -0.1898 0.0546
C13 C 0.6596(4) 0.0422(11) -0.00110(18)
H14 H 0.6804 -0.0808 -0.0231
H15 H 0.6057 0.1488 -0.0152
O4 O 0.7396(2) 0.2100(7) 0.01548(11)
C14 C 0.7750(4) 0.3793(11) -0.01450(17)
C15 C 0.7441(4) 0.3892(12) -0.06023(18)
H16 H 0.6959 0.2722 -0.0726
C16 C 0.7849(4) 0.5727(12) -0.08721(18)
H17 H 0.7640 0.5788 -0.1177
C17 C 0.8561(4) 0.7455(13) -0.06915(18)
H18 H 0.8838 0.8678 -0.0874
C18 C 0.8871(4) 0.7377(12) -0.02337(18)
H19 H 0.9356 0.8548 -0.0112
O5 O 1.0129(2) 0.8461(8) 0.14209(11)
C19 C 1.0665(4) 0.7191(13) 0.1797(2)
H20 H 1.0989 0.5603 0.1701
H21 H 1.0222 0.6676 0.2013
C20 C 1.1421(4) 0.9162(11) 0.20042(17)
N1 N 1.2309(4) 0.9296(12) 0.18292(17)
C21 C 1.2982(4) 1.1052(14) 0.2022(2)
H22 H 1.3591 1.1169 0.1911
C22 C 1.2804(5) 1.2628(13) 0.2365(2)
H23 H 1.3278 1.3824 0.2489
C23 C 1.1911(5) 1.2432(14) 0.2529(2)
H24 H 1.1774 1.3519 0.2766
C24 C 1.1217(4) 1.0654(12) 0.23497(18)
H25 H 1.0616 1.0491 0.2466
loop_
_geom_bond_atom_site_label_1
_geom_bond_atom_site_label_2
_geom_bond_site_symmetry_1
_geom_bond_site_symmetry_2
C1 O1 1_555 1_555
O1 C2 1_555 1_555
C2 H1 1_555 1_555
H2 C2 1_555 1_555
C3 C2 1_555 1_555
H3 C3 1_555 1_555
C4 C3 1_555 1_555
H4 C4 1_555 1_555
H5 C4 1_555 1_555
O2 C4 1_555 1_555
C5 O2 1_555 1_555
C6 C5 1_555 1_555
H6 C6 1_555 1_555
C7 C6 1_555 1_555
H7 C7 1_555 1_555
C8 C7 1_555 1_555
H8 C8 1_555 1_555
C9 C8 1_555 1_555
H9 C9 1_555 1_555
C10 C5 1_555 1_555
O3 C10 1_555 1_555
C11 O3 1_555 1_555
H10 C11 1_555 1_555
H11 C11 1_555 1_555
C12 C11 1_555 1_555
H12 C12 1_555 1_555
H13 C12 1_555 1_555
C13 C12 1_555 1_555
H14 C13 1_555 1_555
H15 C13 1_555 1_555
O4 C13 1_555 1_555
C14 C1 1_555 1_555
C15 C14 1_555 1_555
H16 C15 1_555 1_555
C16 C15 1_555 1_555
H17 C16 1_555 1_555
C17 C16 1_555 1_555
H18 C17 1_555 1_555
C18 C1 1_555 1_555
H19 C18 1_555 1_555
O5 C3 1_555 1_555
C19 O5 1_555 1_555
H20 C19 1_555 1_555
H21 C19 1_555 1_555
C20 C19 1_555 1_555
N1 C20 1_555 1_555
C21 N1 1_555 1_555
H22 C21 1_555 1_555
C22 C21 1_555 1_555
H23 C22 1_555 1_555
C23 C22 1_555 1_555
H24 C23 1_555 1_555
C24 C20 1_555 1_555
H25 C24 1_555 1_555
C9 C10 1_555 1_555
O4 C14 1_555 1_555
C17 C18 1_555 1_555
C23 C24 1_555 1_555

#END
