
#######################################################################
#
#                 Cambridge Crystallographic Data Centre
#                                CCDC 
#
#######################################################################
#
# If this CIF has been generated from an entry in the Cambridge 
# Structural Database, then it will include bibliographic, chemical, 
# crystal, experimental, refinement or atomic coordinate data resulting 
# from the CCDC's data processing and validation procedures.
#
#######################################################################

data_GIMCIQ
_chemical_formula_moiety         'C25 H19 Br1 N2 O4 S1'
_chemical_name_systematic        
6a-(4-Bromophenyl)-5-(4-methoxyphenyl)-2-(methylsulfanyl)-3a-phenyl-3aH-pyrrolo[3,4-d][1,3]oxazole-4,6(5H,6aH)-dione
_symmetry_cell_setting           monoclinic
_symmetry_space_group_name_H-M   'P 21/c'
_symmetry_Int_Tables_number      14
_space_group_name_Hall           '-P 2ybc'
loop_
_symmetry_equiv_pos_site_id
_symmetry_equiv_pos_as_xyz
1 x,y,z
2 -x,1/2+y,1/2-z
3 -x,-y,-z
4 x,1/2-y,1/2+z
_cell_length_a                   17.627(3)
_cell_length_b                   14.856(3)
_cell_length_c                   9.0777(16)
_cell_angle_alpha                90
_cell_angle_beta                 96.209(3)
_cell_angle_gamma                90
_cell_volume                     2363.2
_exptl_crystal_colour            colorless
_exptl_crystal_description       block
_cell_formula_units_Z            4
loop_
_atom_site_label
_atom_site_type_symbol
_atom_site_fract_x
_atom_site_fract_y
_atom_site_fract_z
Br1 Br -0.06370(3) 0.22599(4) 0.15431(6)
S1 S 0.22204(7) 0.66266(8) 0.62517(12)
O1 O 0.39973(16) 0.4739(2) 0.2699(3)
O2 O 0.27313(16) 0.3200(2) 0.6034(3)
O3 O 0.20265(15) 0.49864(18) 0.5347(3)
O4 O 0.59616(18) 0.1694(2) 0.6557(4)
N1 N 0.34939(18) 0.3821(2) 0.4384(3)
N2 N 0.27130(18) 0.5822(2) 0.3822(3)
C1 C 0.3465(2) 0.4503(3) 0.3328(4)
C2 C 0.2656(2) 0.4904(2) 0.3153(4)
C3 C 0.2213(2) 0.4336(2) 0.4261(4)
C4 C 0.2817(2) 0.3708(3) 0.5032(4)
C5 C 0.2366(2) 0.5784(3) 0.4993(4)
C6 C 0.2278(2) 0.4911(2) 0.1561(4)
C7 C 0.2527(3) 0.4361(3) 0.0496(5)
H1 H 0.2970 0.4024 0.0704
C8 C 0.2110(4) 0.4313(4) -0.0905(5)
H2 H 0.2280 0.3948 -0.1634
C9 C 0.1459(4) 0.4797(4) -0.1205(6)
H3 H 0.1180 0.4754 -0.2132
C10 C 0.1209(3) 0.5350(4) -0.0139(5)
H4 H 0.0763 0.5682 -0.0343
C11 C 0.1625(3) 0.5406(3) 0.1234(5)
H5 H 0.1461 0.5787 0.1949
C12 C 0.1511(2) 0.3829(3) 0.3642(4)
C13 C 0.1582(2) 0.3068(3) 0.2794(5)
H6 H 0.2066 0.2865 0.2643
C14 C 0.0952(3) 0.2602(3) 0.2164(5)
H7 H 0.1011 0.2097 0.1583
C15 C 0.0237(2) 0.2892(3) 0.2402(5)
C16 C 0.0147(2) 0.3642(3) 0.3266(4)
H8 H -0.0338 0.3827 0.3450
C17 C 0.0783(2) 0.4115(3) 0.3855(4)
H9 H 0.0721 0.4633 0.4404
C18 C 0.4749(3) 0.1830(3) 0.5049(5)
H10 H 0.4743 0.1222 0.4807
C19 C 0.4149(3) 0.2374(3) 0.4503(6)
H11 H 0.3739 0.2132 0.3900
C20 C 0.4161(2) 0.3281(3) 0.4856(4)
C21 C 0.4776(2) 0.3637(3) 0.5700(5)
H12 H 0.4790 0.4250 0.5910
C22 C 0.5372(3) 0.3099(3) 0.6241(5)
H13 H 0.5792 0.3348 0.6805
C23 C 0.5352(2) 0.2179(3) 0.5947(5)
C24 C 0.5957(4) 0.0743(4) 0.6312(8)
H14 H 0.6416 0.0484 0.6798
H15 H 0.5927 0.0624 0.5267
H16 H 0.5523 0.0481 0.6705
C25 C 0.2765(3) 0.7512(3) 0.5538(6)
H17 H 0.2738 0.8040 0.6139
H18 H 0.2562 0.7645 0.4538
H19 H 0.3288 0.7326 0.5555
loop_
_geom_bond_atom_site_label_1
_geom_bond_atom_site_label_2
_geom_bond_site_symmetry_1
_geom_bond_site_symmetry_2
Br1 C15 1_555 1_555
S1 C5 1_555 1_555
O1 C1 1_555 1_555
O2 C4 1_555 1_555
O3 C3 1_555 1_555
O4 C23 1_555 1_555
N1 C1 1_555 1_555
N2 C2 1_555 1_555
C1 C2 1_555 1_555
C2 C3 1_555 1_555
C3 C4 1_555 1_555
C4 N1 1_555 1_555
C5 O3 1_555 1_555
C6 C2 1_555 1_555
C7 C6 1_555 1_555
H1 C7 1_555 1_555
C8 C7 1_555 1_555
H2 C8 1_555 1_555
C9 C8 1_555 1_555
H3 C9 1_555 1_555
C10 C9 1_555 1_555
H4 C10 1_555 1_555
C11 C6 1_555 1_555
H5 C11 1_555 1_555
C12 C3 1_555 1_555
C13 C12 1_555 1_555
H6 C13 1_555 1_555
C14 C13 1_555 1_555
H7 C14 1_555 1_555
C15 C14 1_555 1_555
C16 C15 1_555 1_555
H8 C16 1_555 1_555
C17 C12 1_555 1_555
H9 C17 1_555 1_555
C18 H10 1_555 1_555
C19 C18 1_555 1_555
H11 C19 1_555 1_555
C20 N1 1_555 1_555
C21 C20 1_555 1_555
H12 C21 1_555 1_555
C22 C21 1_555 1_555
H13 C22 1_555 1_555
C23 C18 1_555 1_555
C24 O4 1_555 1_555
H14 C24 1_555 1_555
H15 C24 1_555 1_555
H16 C24 1_555 1_555
C25 S1 1_555 1_555
H17 C25 1_555 1_555
H18 C25 1_555 1_555
H19 C25 1_555 1_555
N2 C5 1_555 1_555
C10 C11 1_555 1_555
C16 C17 1_555 1_555
C19 C20 1_555 1_555
C22 C23 1_555 1_555

#END
