
#######################################################################
#
#                 Cambridge Crystallographic Data Centre
#                                CCDC 
#
#######################################################################
#
# If this CIF has been generated from an entry in the Cambridge 
# Structural Database, then it will include bibliographic, chemical, 
# crystal, experimental, refinement or atomic coordinate data resulting 
# from the CCDC's data processing and validation procedures.
#
#######################################################################

data_GIMDIQ
_chemical_formula_moiety         'C15 H13 N5,2(H2 O1)'
_chemical_name_systematic        '2,6-bis(N-(4-Pyridyl)amino)pyridine dihydrate'
_symmetry_cell_setting           monoclinic
_symmetry_space_group_name_H-M   'P 21/c'
_symmetry_Int_Tables_number      14
_space_group_name_Hall           '-P 2ybc'
loop_
_symmetry_equiv_pos_site_id
_symmetry_equiv_pos_as_xyz
1 x,y,z
2 -x,1/2+y,1/2-z
3 -x,-y,-z
4 x,1/2-y,1/2+z
_cell_length_a                   10.358(5)
_cell_length_b                   16.092(7)
_cell_length_c                   9.243(4)
_cell_angle_alpha                90
_cell_angle_beta                 92.219(8)
_cell_angle_gamma                90
_cell_volume                     1539.48
_exptl_crystal_colour            colorless
_exptl_crystal_description       Block
_cell_formula_units_Z            4
loop_
_atom_site_label
_atom_site_type_symbol
_atom_site_fract_x
_atom_site_fract_y
_atom_site_fract_z
N1 N -0.33798(12) -0.09763(7) 0.28578(14)
N2 N -0.19129(11) 0.13637(7) 0.40531(14)
H1 H -0.2516 0.1702 0.4275
N3 N 0.03124(10) 0.13088(7) 0.35990(12)
N4 N 0.24967(10) 0.13148(7) 0.30209(13)
H2 H 0.3190 0.1608 0.3005
N5 N 0.28123(12) -0.09630(7) 0.08608(15)
C1 C -0.21328(15) -0.07965(9) 0.27510(18)
H3 H -0.1595 -0.1216 0.2434
C2 C -0.15745(13) -0.00381(8) 0.30726(17)
H4 H -0.0698 0.0048 0.2948
C3 C -0.23457(13) 0.05965(8) 0.35866(15)
C4 C -0.36649(13) 0.04233(9) 0.36740(16)
H5 H -0.4230 0.0831 0.3976
C5 C -0.41149(14) -0.03507(9) 0.33122(17)
H6 H -0.4994 -0.0450 0.3387
C6 C -0.06671(12) 0.16891(8) 0.42290(15)
C7 C -0.05240(14) 0.24173(8) 0.50340(16)
H7 H -0.1227 0.2664 0.5459
C8 C 0.06912(14) 0.27586(9) 0.51786(16)
H8 H 0.0818 0.3247 0.5702
C9 C 0.17163(14) 0.23802(8) 0.45535(17)
H9 H 0.2545 0.2600 0.4656
C10 C 0.14808(12) 0.16581(8) 0.37626(14)
C11 C 0.25305(12) 0.05591(8) 0.23045(15)
C12 C 0.32694(13) 0.04917(9) 0.10821(17)
H10 H 0.3687 0.0955 0.0723
C13 C 0.33737(14) -0.02629(9) 0.04162(16)
H11 H 0.3868 -0.0292 -0.0401
C14 C 0.21022(15) -0.08881(9) 0.20282(18)
H12 H 0.1699 -0.1363 0.2365
C15 C 0.19250(13) -0.01578(8) 0.27675(16)
H13 H 0.1407 -0.0144 0.3567
O1 O 0.54419(11) 0.74847(6) 0.26190(13)
H14 H 0.5852(17) 0.7976(12) 0.271(2)
H15 H 0.4934(18) 0.7498(11) 0.183(2)
O2 O 0.39046(11) 0.75347(6) 1.00533(14)
H16 H 0.4359(19) 0.7542(10) 0.926(2)
H17 H 0.3503(17) 0.8019(12) 1.0227(19)
loop_
_geom_bond_atom_site_label_1
_geom_bond_atom_site_label_2
_geom_bond_site_symmetry_1
_geom_bond_site_symmetry_2
N1 C1 1_555 1_555
N2 H1 1_555 1_555
N3 C6 1_555 1_555
N4 H2 1_555 1_555
N5 C13 1_555 1_555
C1 H3 1_555 1_555
C2 C1 1_555 1_555
H4 C2 1_555 1_555
C3 N2 1_555 1_555
C4 C3 1_555 1_555
H5 C4 1_555 1_555
C5 N1 1_555 1_555
H6 C5 1_555 1_555
C6 N2 1_555 1_555
C7 C6 1_555 1_555
H7 C7 1_555 1_555
C8 C7 1_555 1_555
H8 C8 1_555 1_555
C9 C8 1_555 1_555
H9 C9 1_555 1_555
C10 N3 1_555 1_555
C11 N4 1_555 1_555
C12 C11 1_555 1_555
H10 C12 1_555 1_555
C13 C12 1_555 1_555
H11 C13 1_555 1_555
C14 N5 1_555 1_555
H12 C14 1_555 1_555
C15 C11 1_555 1_555
H13 C15 1_555 1_555
O1 H14 1_555 1_555
O2 H16 1_555 1_555
H15 O1 1_555 1_555
H17 O2 1_555 1_555
N4 C10 1_555 1_555
C2 C3 1_555 1_555
C4 C5 1_555 1_555
C9 C10 1_555 1_555
C14 C15 1_555 1_555

#END
