
#######################################################################
#
#                 Cambridge Crystallographic Data Centre
#                                CCDC 
#
#######################################################################
#
# If this CIF has been generated from an entry in the Cambridge 
# Structural Database, then it will include bibliographic, chemical, 
# crystal, experimental, refinement or atomic coordinate data resulting 
# from the CCDC's data processing and validation procedures.
#
#######################################################################

data_GIMSOL
_chemical_formula_moiety         'C5 H7 N2 1+,C7 H5 O6 S1 1-'
_chemical_name_systematic        
'3-aminopyridinium 3-carboxy-4-hydroxybenzenesulfonate'
_symmetry_cell_setting           monoclinic
_symmetry_space_group_name_H-M   'P 21/n'
_symmetry_Int_Tables_number      14
_space_group_name_Hall           '-P 2yn'
loop_
_symmetry_equiv_pos_site_id
_symmetry_equiv_pos_as_xyz
1 x,y,z
2 1/2-x,1/2+y,1/2-z
3 -x,-y,-z
4 1/2+x,1/2-y,1/2+z
_cell_length_a                   13.9642(10)
_cell_length_b                   12.8331(9)
_cell_length_c                   15.7831(11)
_cell_angle_alpha                90
_cell_angle_beta                 114.957(2)
_cell_angle_gamma                90
_cell_volume                     2564.29
_exptl_crystal_colour            'light yellow'
_exptl_crystal_description       plate
_cell_formula_units_Z            8
loop_
_atom_site_label
_atom_site_type_symbol
_atom_site_fract_x
_atom_site_fract_y
_atom_site_fract_z
C1 C 0.12473(19) 0.56335(18) -0.02483(17)
C2 C 0.1270(2) 0.66889(19) 0.00080(18)
C3 C 0.1424(2) 0.6939(2) 0.09119(18)
H1 H 0.1416 0.7634 0.1076
C4 C 0.1591(2) 0.6170(2) 0.15732(18)
H2 H 0.1701 0.6346 0.2179
C5 C 0.15917(19) 0.51282(19) 0.13252(17)
C6 C 0.14154(18) 0.48723(19) 0.04229(16)
H3 H 0.1409 0.4175 0.0261
C7 C 0.1084(2) 0.5366(2) -0.12039(18)
O1 O 0.10906(17) 0.43634(15) -0.13605(13)
H4 H 0.111(2) 0.421(2) -0.189(2)
O2 O 0.09669(17) 0.60227(15) -0.18020(13)
O3 O 0.11632(16) 0.74808(14) -0.05887(13)
H5 H 0.104(2) 0.720(3) -0.113(2)
O4 O 0.15719(16) 0.44821(14) 0.28701(13)
O5 O 0.30865(15) 0.40955(15) 0.25940(12)
O6 O 0.14537(18) 0.31940(14) 0.17054(13)
S1 S 0.19339(6) 0.41441(5) 0.21845(4)
C8 C 0.36627(18) 0.22496(18) 1.01963(16)
C9 C 0.37872(19) 0.12097(18) 0.99747(17)
C10 C 0.3660(2) 0.0964(2) 0.90794(17)
H6 H 0.3758 0.0280 0.8937
C11 C 0.3390(2) 0.17151(19) 0.83968(18)
H7 H 0.3298 0.1536 0.7796
C12 C 0.32526(18) 0.27473(19) 0.86048(16)
C13 C 0.33878(18) 0.30011(19) 0.94969(15)
H8 H 0.3294 0.3688 0.9634
C14 C 0.3803(2) 0.2524(2) 1.11419(17)
O7 O 0.36474(16) 0.35178(15) 1.12581(12)
H9 H 0.357(2) 0.359(2) 1.178(2)
O8 O 0.40380(16) 0.18901(15) 1.17709(12)
O9 O 0.40249(17) 0.04371(14) 1.06086(13)
H10 H 0.410(3) 0.069(3) 1.110(2)
O10 O 0.32663(16) 0.46926(14) 0.81956(13)
O11 O 0.16947(14) 0.36940(15) 0.73050(12)
O12 O 0.32585(16) 0.34190(14) 0.70578(12)
S2 S 0.28474(6) 0.37187(5) 0.77284(4)
C15 C 0.3660(2) 0.4980(2) 0.5163(2)
H11 H 0.3476 0.4386 0.4792
C16 C 0.3835(2) 0.5907(2) 0.4804(2)
C17 C 0.4112(2) 0.6763(2) 0.5399(2)
H12 H 0.4233 0.7404 0.5186
C18 C 0.4209(2) 0.6672(2) 0.6296(2)
H13 H 0.4402 0.7248 0.6690
C19 C 0.4024(2) 0.5738(3) 0.6612(2)
H14 H 0.4088 0.5667 0.7220
N1 N 0.3752(2) 0.4934(2) 0.6031(2)
H15 H 0.370(2) 0.434(2) 0.627(2)
N2 N 0.3782(2) 0.5973(2) 0.39265(19)
H16 H 0.350(3) 0.545(3) 0.355(2)
H17 H 0.368(3) 0.658(3) 0.364(2)
C20 C 0.1119(2) 0.2879(2) 0.4766(2)
H18 H 0.1215 0.3475 0.5128
C21 C 0.1094(2) 0.1909(2) 0.5135(2)
C22 C 0.0958(2) 0.1055(2) 0.4549(2)
H19 H 0.0949 0.0388 0.4774
C23 C 0.0838(3) 0.1180(3) 0.3658(2)
H20 H 0.076(2) 0.063(2) 0.325(2)
C24 C 0.0867(2) 0.2153(3) 0.3323(2)
H21 H 0.0791 0.2249 0.2714
N3 N 0.1003(2) 0.2956(2) 0.3886(2)
H22 H 0.105(2) 0.358(2) 0.364(2)
N4 N 0.1167(2) 0.1797(2) 0.6013(2)
H23 H 0.131(3) 0.118(3) 0.627(2)
H24 H 0.134(3) 0.239(3) 0.634(2)
loop_
_geom_bond_atom_site_label_1
_geom_bond_atom_site_label_2
_geom_bond_site_symmetry_1
_geom_bond_site_symmetry_2
C1 C2 1_555 1_555
C2 C3 1_555 1_555
C3 H1 1_555 1_555
C4 C3 1_555 1_555
H2 C4 1_555 1_555
C5 C4 1_555 1_555
C6 C1 1_555 1_555
H3 C6 1_555 1_555
C7 C1 1_555 1_555
O1 C7 1_555 1_555
H4 O1 1_555 1_555
O2 C7 1_555 1_555
O3 C2 1_555 1_555
H5 O3 1_555 1_555
O4 S1 1_555 1_555
O5 S1 1_555 1_555
O6 S1 1_555 1_555
S1 C5 1_555 1_555
C8 C9 1_555 1_555
C9 C10 1_555 1_555
C10 H6 1_555 1_555
C11 C10 1_555 1_555
H7 C11 1_555 1_555
C12 C11 1_555 1_555
C13 C8 1_555 1_555
H8 C13 1_555 1_555
C14 C8 1_555 1_555
O7 C14 1_555 1_555
H9 O7 1_555 1_555
O8 C14 1_555 1_555
O9 C9 1_555 1_555
H10 O9 1_555 1_555
O10 S2 1_555 1_555
O11 S2 1_555 1_555
O12 S2 1_555 1_555
S2 C12 1_555 1_555
C15 H11 1_555 1_555
C16 C15 1_555 1_555
C17 C16 1_555 1_555
H12 C17 1_555 1_555
C18 C17 1_555 1_555
H13 C18 1_555 1_555
C19 C18 1_555 1_555
H14 C19 1_555 1_555
N1 C15 1_555 1_555
H15 N1 1_555 1_555
N2 C16 1_555 1_555
H16 N2 1_555 1_555
H17 N2 1_555 1_555
C20 H18 1_555 1_555
C21 C20 1_555 1_555
C22 C21 1_555 1_555
H19 C22 1_555 1_555
C23 C22 1_555 1_555
H20 C23 1_555 1_555
C24 C23 1_555 1_555
H21 C24 1_555 1_555
N3 C20 1_555 1_555
H22 N3 1_555 1_555
N4 C21 1_555 1_555
H23 N4 1_555 1_555
H24 N4 1_555 1_555
C5 C6 1_555 1_555
C12 C13 1_555 1_555
C19 N1 1_555 1_555
C24 N3 1_555 1_555

#END
