
#######################################################################
#
#                 Cambridge Crystallographic Data Centre
#                                CCDC 
#
#######################################################################
#
# If this CIF has been generated from an entry in the Cambridge 
# Structural Database, then it will include bibliographic, chemical, 
# crystal, experimental, refinement or atomic coordinate data resulting 
# from the CCDC's data processing and validation procedures.
#
#######################################################################

data_GINBUC
_chemical_formula_moiety         'C35 H27 Cl1'
_chemical_name_systematic        
1-Chloro-3-(1,1,5,5-tetraphenylpenta-1,4-dien-3-yl)benzene
_symmetry_cell_setting           triclinic
_symmetry_space_group_name_H-M   'P -1'
_symmetry_Int_Tables_number      2
_space_group_name_Hall           '-P 1'
loop_
_symmetry_equiv_pos_site_id
_symmetry_equiv_pos_as_xyz
1 x,y,z
2 -x,-y,-z
_cell_length_a                   9.9726(12)
_cell_length_b                   11.8001(9)
_cell_length_c                   12.7945(18)
_cell_angle_alpha                88.880(9)
_cell_angle_beta                 71.972(12)
_cell_angle_gamma                65.771(10)
_cell_volume                     1295.53
_exptl_crystal_colour            'light colorless'
_exptl_crystal_description       block
_cell_formula_units_Z            2
loop_
_atom_site_label
_atom_site_type_symbol
_atom_site_fract_x
_atom_site_fract_y
_atom_site_fract_z
Cl1 Cl 0.80318(7) 0.67434(5) 0.47888(6)
C1 C 0.9395(2) 0.43772(17) 0.37550(17)
H1 H 1.0199 0.4580 0.3348
C2 C 0.8123(2) 0.52550(18) 0.45556(18)
C3 C 0.6912(3) 0.4987(2) 0.5177(2)
H2 H 0.6057 0.5585 0.5719
C4 C 0.6998(2) 0.3817(2) 0.4977(2)
H3 H 0.6190 0.3623 0.5390
C5 C 0.8268(2) 0.29190(19) 0.41715(18)
H4 H 0.8303 0.2132 0.4047
C6 C 0.9489(2) 0.31907(17) 0.35493(16)
C7 C 1.0951(2) 0.22246(16) 0.26856(16)
H5 H 1.1810 0.1961 0.2986
C8 C 1.0790(2) 0.10743(17) 0.23661(16)
H6 H 1.0136 0.1183 0.1952
C9 C 1.1483(2) -0.00827(17) 0.26111(15)
C10 C 1.1395(2) -0.11658(17) 0.20997(17)
C11 C 1.1328(2) -0.21471(18) 0.2694(2)
H7 H 1.1328 -0.2128 0.3420
C12 C 1.1262(3) -0.3161(2) 0.2211(3)
H8 H 1.1207 -0.3812 0.2618
C13 C 1.1275(3) -0.3205(2) 0.1138(3)
H9 H 1.1237 -0.3886 0.0816
C14 C 1.1345(3) -0.2243(3) 0.0541(2)
H10 H 1.1350 -0.2271 -0.0186
C15 C 1.1409(3) -0.1234(2) 0.1013(2)
H11 H 1.1463 -0.0588 0.0598
C16 C 1.2384(2) -0.03580(16) 0.33928(16)
C17 C 1.3898(2) -0.12868(18) 0.30824(18)
H12 H 1.4351 -0.1739 0.2381
C18 C 1.4741(3) -0.1546(2) 0.3805(2)
H13 H 1.5759 -0.2163 0.3582
C19 C 1.4083(3) -0.0900(2) 0.48497(19)
H14 H 1.4650 -0.1083 0.5335
C20 C 1.2583(3) 0.00174(19) 0.51735(18)
H15 H 1.2134 0.0460 0.5879
C21 C 1.1741(2) 0.02839(17) 0.44516(17)
H16 H 1.0725 0.0905 0.4680
C22 C 1.1381(2) 0.27943(17) 0.16405(16)
H17 H 1.0582 0.3225 0.1357
C23 C 1.2773(2) 0.27539(16) 0.10746(16)
C24 C 1.3027(2) 0.33293(16) 0.00201(16)
C25 C 1.4220(2) 0.37062(18) -0.03717(18)
H18 H 1.4935 0.3548 0.0000
C26 C 1.4362(3) 0.4314(2) -0.1308(2)
H19 H 1.5159 0.4573 -0.1549
C27 C 1.3344(3) 0.4540(2) -0.1886(2)
H20 H 1.3431 0.4964 -0.2506
C28 C 1.2196(3) 0.4129(2) -0.15330(19)
H21 H 1.1515 0.4255 -0.1928
C29 C 1.2041(2) 0.3531(2) -0.05987(18)
H22 H 1.1257 0.3255 -0.0376
C30 C 1.4146(2) 0.21163(18) 0.14636(16)
C31 C 1.4963(3) 0.0832(2) 0.1277(2)
H23 H 1.4631 0.0355 0.0939
C32 C 1.6279(3) 0.0240(3) 0.1590(2)
H24 H 1.6828 -0.0627 0.1450
C33 C 1.5940(3) 0.2186(3) 0.2327(2)
H25 H 1.6252 0.2652 0.2697
C34 C 1.6768(3) 0.0924(3) 0.2102(2)
H26 H 1.7663 0.0528 0.2295
C35 C 1.4637(3) 0.2785(2) 0.20106(19)
H27 H 1.4084 0.3650 0.2169
loop_
_geom_bond_atom_site_label_1
_geom_bond_atom_site_label_2
_geom_bond_site_symmetry_1
_geom_bond_site_symmetry_2
Cl1 C2 1_555 1_555
C1 H1 1_555 1_555
C2 C1 1_555 1_555
C3 C2 1_555 1_555
H2 C3 1_555 1_555
C4 C3 1_555 1_555
H3 C4 1_555 1_555
C5 C4 1_555 1_555
H4 C5 1_555 1_555
C6 C1 1_555 1_555
C7 C6 1_555 1_555
H5 C7 1_555 1_555
C8 C7 1_555 1_555
H6 C8 1_555 1_555
C9 C8 1_555 1_555
C10 C9 1_555 1_555
C11 C10 1_555 1_555
H7 C11 1_555 1_555
C12 C11 1_555 1_555
H8 C12 1_555 1_555
C13 C12 1_555 1_555
H9 C13 1_555 1_555
C14 C13 1_555 1_555
H10 C14 1_555 1_555
C15 C10 1_555 1_555
H11 C15 1_555 1_555
C16 C9 1_555 1_555
C17 C16 1_555 1_555
H12 C17 1_555 1_555
C18 C17 1_555 1_555
H13 C18 1_555 1_555
C19 C18 1_555 1_555
H14 C19 1_555 1_555
C20 C19 1_555 1_555
H15 C20 1_555 1_555
C21 C16 1_555 1_555
H16 C21 1_555 1_555
C22 C7 1_555 1_555
H17 C22 1_555 1_555
C23 C22 1_555 1_555
C24 C23 1_555 1_555
C25 C24 1_555 1_555
H18 C25 1_555 1_555
C26 C25 1_555 1_555
H19 C26 1_555 1_555
C27 C26 1_555 1_555
H20 C27 1_555 1_555
C28 C27 1_555 1_555
H21 C28 1_555 1_555
C29 C24 1_555 1_555
H22 C29 1_555 1_555
C30 C23 1_555 1_555
C31 C30 1_555 1_555
H23 C31 1_555 1_555
C32 C31 1_555 1_555
H24 C32 1_555 1_555
C33 H25 1_555 1_555
C34 C32 1_555 1_555
H26 C34 1_555 1_555
C35 C30 1_555 1_555
H27 C35 1_555 1_555
C5 C6 1_555 1_555
C14 C15 1_555 1_555
C20 C21 1_555 1_555
C28 C29 1_555 1_555
C33 C34 1_555 1_555
C33 C35 1_555 1_555

#END
