
#######################################################################
#
#                 Cambridge Crystallographic Data Centre
#                                CCDC 
#
#######################################################################
#
# If this CIF has been generated from an entry in the Cambridge 
# Structural Database, then it will include bibliographic, chemical, 
# crystal, experimental, refinement or atomic coordinate data resulting 
# from the CCDC's data processing and validation procedures.
#
#######################################################################

data_GINBAH
_chemical_formula_moiety         'C23 H20 N2 O2'
_chemical_name_systematic        
12-(4-Methoxyphenyl)-9,10-dihydrobenzo(b)(4,7)phenanthrolin-11(7H,8H,12H)-one
_chemical_properties_biological  'possible pharmacological activity'
_symmetry_cell_setting           monoclinic
_symmetry_space_group_name_H-M   'C 2/c'
_symmetry_Int_Tables_number      15
_space_group_name_Hall           '-C 2yn'
loop_
_symmetry_equiv_pos_site_id
_symmetry_equiv_pos_as_xyz
1 x,y,z
2 1/2+x,1/2+y,z
3 -x,y,1/2-z
4 1/2-x,1/2+y,1/2-z
5 -x,-y,-z
6 1/2-x,1/2-y,-z
7 x,-y,1/2+z
8 1/2+x,1/2-y,1/2+z
_cell_length_a                   25.072(3)
_cell_length_b                   7.3183(16)
_cell_length_c                   23.335(2)
_cell_angle_alpha                90
_cell_angle_beta                 107.922(2)
_cell_angle_gamma                90
_cell_volume                     4073.85
_exptl_crystal_colour            yellow
_exptl_crystal_description       block
_chemical_melting_point          'above 573 K'
_cell_formula_units_Z            8
_exptl_crystal_recrystallization_method ethanol
loop_
_atom_site_label
_atom_site_type_symbol
_atom_site_fract_x
_atom_site_fract_y
_atom_site_fract_z
N1 N 0.25058(12) 0.2112(4) 0.12759(13)
H1 H 0.2592 0.1025 0.1196
N2 N 0.12094(15) 0.2715(6) 0.27923(16)
O1 O 0.26478(10) 0.8398(4) 0.09987(12)
O2 O 0.00632(15) 0.7318(7) -0.06119(19)
C1 C 0.27071(14) 0.3551(5) 0.10386(16)
C2 C 0.31553(15) 0.3166(6) 0.07644(17)
H2 H 0.3072 0.2023 0.0544
H3 H 0.3508 0.3016 0.1083
C3 C 0.32208(18) 0.4638(6) 0.0345(2)
H4 H 0.2910 0.4590 -0.0025
H5 H 0.3564 0.4443 0.0245
C4 C 0.32379(16) 0.6511(5) 0.06386(18)
H6 H 0.3596 0.6649 0.0949
H7 H 0.3216 0.7445 0.0337
C5 C 0.27826(15) 0.6826(6) 0.09107(16)
C6 C 0.25135(14) 0.5270(5) 0.10778(15)
C7 C 0.20182(14) 0.5607(5) 0.13040(15)
H8 H 0.2102 0.6688 0.1564
C8 C 0.19323(14) 0.4004(5) 0.16820(15)
C9 C 0.16183(14) 0.4200(5) 0.20860(15)
C10 C 0.15200(16) 0.2680(6) 0.24086(17)
C11 C 0.17668(16) 0.0988(6) 0.23468(17)
H9 H 0.1712 -0.0021 0.2564
C12 C 0.20816(15) 0.0827(6) 0.19748(17)
H10 H 0.2243 -0.0294 0.1940
C13 C 0.21689(14) 0.2323(5) 0.16396(15)
C14 C 0.13782(15) 0.5875(6) 0.21876(17)
H11 H 0.1423 0.6927 0.1983
C15 C 0.10836(18) 0.5925(7) 0.2585(2)
H12 H 0.0934 0.7023 0.2666
C16 C 0.1004(2) 0.4308(9) 0.2875(2)
H13 H 0.0793 0.4372 0.3141
C17 C 0.14855(15) 0.6003(6) 0.07851(17)
C18 C 0.12516(18) 0.4690(7) 0.03605(18)
H14 H 0.1413 0.3534 0.0398
C19 C 0.07762(19) 0.5063(9) -0.0126(2)
H15 H 0.0624 0.4180 -0.0417
C20 C 0.05397(19) 0.6772(10) -0.0163(2)
C21 C 0.07634(19) 0.8092(8) 0.0256(2)
H16 H 0.0597 0.9239 0.0223
C22 C 0.12300(17) 0.7715(6) 0.07178(19)
H17 H 0.1385 0.8624 0.0998
C23 C -0.0179(3) 0.6087(10) -0.1060(3)
H18 H 0.0081 0.5787 -0.1274
H19 H -0.0511 0.6614 -0.1335
H20 H -0.0277 0.4998 -0.0887
loop_
_geom_bond_atom_site_label_1
_geom_bond_atom_site_label_2
_geom_bond_site_symmetry_1
_geom_bond_site_symmetry_2
N1 H1 1_555 1_555
N2 C10 1_555 1_555
O1 C5 1_555 1_555
O2 C20 1_555 1_555
C1 N1 1_555 1_555
C2 C1 1_555 1_555
H2 C2 1_555 1_555
H3 C2 1_555 1_555
C3 C2 1_555 1_555
H4 C3 1_555 1_555
H5 C3 1_555 1_555
C4 C3 1_555 1_555
H6 C4 1_555 1_555
H7 C4 1_555 1_555
C5 C4 1_555 1_555
C6 C1 1_555 1_555
C7 C6 1_555 1_555
H8 C7 1_555 1_555
C8 C7 1_555 1_555
C9 C8 1_555 1_555
C10 C9 1_555 1_555
C11 C10 1_555 1_555
H9 C11 1_555 1_555
C12 C11 1_555 1_555
H10 C12 1_555 1_555
C13 N1 1_555 1_555
C14 C9 1_555 1_555
H11 C14 1_555 1_555
C15 C14 1_555 1_555
H12 C15 1_555 1_555
C16 N2 1_555 1_555
H13 C16 1_555 1_555
C17 C7 1_555 1_555
C18 C17 1_555 1_555
H14 C18 1_555 1_555
C19 C18 1_555 1_555
H15 C19 1_555 1_555
C20 C19 1_555 1_555
C21 C20 1_555 1_555
H16 C21 1_555 1_555
C22 C17 1_555 1_555
H17 C22 1_555 1_555
C23 O2 1_555 1_555
H18 C23 1_555 1_555
H19 C23 1_555 1_555
H20 C23 1_555 1_555
C5 C6 1_555 1_555
C8 C13 1_555 1_555
C12 C13 1_555 1_555
C15 C16 1_555 1_555
C21 C22 1_555 1_555

#END
