
#######################################################################
#
#                 Cambridge Crystallographic Data Centre
#                                CCDC 
#
#######################################################################
#
# If this CIF has been generated from an entry in the Cambridge 
# Structural Database, then it will include bibliographic, chemical, 
# crystal, experimental, refinement or atomic coordinate data resulting 
# from the CCDC's data processing and validation procedures.
#
#######################################################################

data_GINMUM
_chemical_formula_moiety         'C12 H9 Cl1 N4 O1 S2'
_chemical_name_systematic        
2-((3-(4-Chlorophenyl)-1,2,4-oxadiazol-5-yl)methylsulfanyl)-5-methyl-1,3,4-thiadiazole
_symmetry_cell_setting           monoclinic
_symmetry_space_group_name_H-M   'P 21/n'
_symmetry_Int_Tables_number      14
_space_group_name_Hall           '-P 2yn'
loop_
_symmetry_equiv_pos_site_id
_symmetry_equiv_pos_as_xyz
1 x,y,z
2 1/2-x,1/2+y,1/2-z
3 -x,-y,-z
4 1/2+x,1/2-y,1/2+z
_cell_length_a                   5.8570(10)
_cell_length_b                   27.104(5)
_cell_length_c                   9.026(2)
_cell_angle_alpha                90
_cell_angle_beta                 102.85(3)
_cell_angle_gamma                90
_cell_volume                     1396.98
_exptl_crystal_colour            colorless
_exptl_crystal_description       block
_cell_formula_units_Z            4
_exptl_crystal_recrystallization_method ethanol
loop_
_atom_site_label
_atom_site_type_symbol
_atom_site_fract_x
_atom_site_fract_y
_atom_site_fract_z
Cl1 Cl 1.1111(2) -0.13088(5) 1.04622(16)
O1 O 0.5610(6) 0.09306(13) 0.4953(4)
S1 S 0.6416(2) 0.25547(5) 0.78126(12)
N1 N 0.7360(6) 0.23958(14) 0.5242(4)
C1 C 0.9769(8) 0.30697(17) 0.6594(5)
H1 H 1.0282 0.3101 0.5660
H2 H 1.1078 0.2985 0.7400
H3 H 0.9114 0.3377 0.6826
S2 S 0.2753(2) 0.17581(4) 0.71433(13)
N2 N 0.5640(6) 0.20583(15) 0.5361(4)
C2 C 0.7962(7) 0.26766(16) 0.6434(4)
C3 C 0.4946(7) 0.21095(16) 0.6626(4)
N3 N 0.4483(6) 0.05758(13) 0.6854(4)
N4 N 0.7201(7) 0.05395(15) 0.5459(5)
C4 C 0.2231(8) 0.13062(17) 0.5637(5)
H4 H 0.0729 0.1149 0.5593
H5 H 0.2159 0.1471 0.4673
C5 C 0.4090(8) 0.09241(16) 0.5865(5)
C6 C 0.6443(7) 0.03463(16) 0.6587(4)
C7 C 0.7599(7) -0.00683(16) 0.7487(4)
C8 C 0.9555(8) -0.02945(18) 0.7194(5)
H6 H 1.0164 -0.0187 0.6383
C9 C 1.0614(8) -0.06754(19) 0.8081(6)
H7 H 1.1929 -0.0827 0.7865
C10 C 0.9735(8) -0.08369(17) 0.9301(5)
C11 C 0.7767(8) -0.06139(18) 0.9601(5)
H8 H 0.7159 -0.0720 1.0414
C12 C 0.6719(8) -0.02366(18) 0.8695(5)
H9 H 0.5385 -0.0090 0.8895
loop_
_geom_bond_atom_site_label_1
_geom_bond_atom_site_label_2
_geom_bond_site_symmetry_1
_geom_bond_site_symmetry_2
Cl1 C10 1_555 1_555
O1 N4 1_555 1_555
S1 C2 1_555 1_555
N1 N2 1_555 1_555
C1 H1 1_555 1_555
H2 C1 1_555 1_555
H3 C1 1_555 1_555
S2 C3 1_555 1_555
N2 C3 1_555 1_555
C2 N1 1_555 1_555
C3 S1 1_555 1_555
N3 C5 1_555 1_555
N4 C6 1_555 1_555
C4 S2 1_555 1_555
H4 C4 1_555 1_555
H5 C4 1_555 1_555
C5 O1 1_555 1_555
C6 N3 1_555 1_555
C7 C6 1_555 1_555
C8 C7 1_555 1_555
H6 C8 1_555 1_555
C9 C8 1_555 1_555
H7 C9 1_555 1_555
C10 C9 1_555 1_555
C11 C10 1_555 1_555
H8 C11 1_555 1_555
C12 C7 1_555 1_555
H9 C12 1_555 1_555
C1 C2 1_555 1_555
C4 C5 1_555 1_555
C11 C12 1_555 1_555

#END
