
#######################################################################
#
#                 Cambridge Crystallographic Data Centre
#                                CCDC 
#
#######################################################################
#
# If this CIF has been generated from an entry in the Cambridge 
# Structural Database, then it will include bibliographic, chemical, 
# crystal, experimental, refinement or atomic coordinate data resulting 
# from the CCDC's data processing and validation procedures.
#
#######################################################################

data_GINXAE
_chemical_formula_moiety         'C33 H23 O1 1+,Cl1 O4 1-'
_chemical_name_systematic        
'2-(4-(1-naphthyl)phenyl)-4,5-diphenylpyrylium perchlorate'
_symmetry_cell_setting           orthorhombic
_symmetry_space_group_name_H-M   'P n a 21'
_symmetry_Int_Tables_number      33
_space_group_name_Hall           'P 2c -2n'
loop_
_symmetry_equiv_pos_site_id
_symmetry_equiv_pos_as_xyz
1 x,y,z
2 -x,-y,1/2+z
3 1/2+x,1/2-y,z
4 1/2-x,1/2+y,1/2+z
_cell_length_a                   15.048(8)
_cell_length_b                   17.265(9)
_cell_length_c                   10.409(6)
_cell_angle_alpha                90
_cell_angle_beta                 90
_cell_angle_gamma                90
_cell_volume                     2704.3
_exptl_crystal_colour            colorless
_exptl_crystal_description       block
_cell_formula_units_Z            4
loop_
_atom_site_label
_atom_site_type_symbol
_atom_site_fract_x
_atom_site_fract_y
_atom_site_fract_z
Cl1 Cl 0.58075(8) 0.08902(7) 0.51794(13)
O1 O 0.5607(5) 0.0356(4) 0.6137(6)
O2 O 0.6319(6) 0.0519(6) 0.4221(7)
O3 O 0.5008(7) 0.1085(10) 0.4659(8)
O4 O 0.6185(8) 0.1482(4) 0.5807(10)
O5 O 0.5549(2) 0.1096(2) 1.1404(3)
C1 C 0.4281(3) 0.1409(3) 0.9600(5)
C2 C 0.5772(3) 0.1008(2) 1.0160(6)
C3 C 0.3610(3) 0.1143(3) 0.7446(5)
H1 H 0.3959 0.0699 0.7400
C4 C 0.4063(3) 0.1472(3) 1.0916(5)
C5 C 0.9432(3) -0.0976(3) 1.0137(8)
H2 H 0.8829 -0.0920 1.0313
C6 C 0.5131(3) 0.1163(3) 0.9250(5)
H3 H 0.5267 0.1101 0.8385
C7 C 0.6688(3) 0.0798(2) 0.9955(5)
C8 C 0.3637(3) 0.1599(2) 0.8537(4)
C9 C 0.7292(3) 0.0783(3) 1.0968(5)
H4 H 0.7101 0.0876 1.1803
C10 C 0.3087(3) 0.2248(3) 0.8614(5)
H5 H 0.3083 0.2550 0.9354
C11 C 0.3077(3) 0.1337(3) 0.6433(5)
H6 H 0.3071 0.1032 0.5698
C12 C 1.0828(4) -0.0408(5) 0.9384(7)
C13 C 0.8182(3) 0.0627(4) 1.0720(6)
H7 H 0.8583 0.0621 1.1399
C14 C 0.9891(3) -0.0346(4) 0.9590(5)
C15 C 0.6997(3) 0.0619(4) 0.8731(5)
H8 H 0.6598 0.0604 0.8049
C16 C 0.4730(3) 0.1303(3) 1.1758(5)
H9 H 0.4607 0.1333 1.2632
C17 C 0.3171(3) 0.1675(3) 1.1465(5)
C18 C 0.8485(3) 0.0482(3) 0.9501(5)
C19 C 1.1245(6) -0.1117(7) 0.9751(12)
H10 H 1.1859 -0.1167 0.9685
C20 C 0.2548(3) 0.1988(3) 0.6504(5)
H11 H 0.2188 0.2123 0.5814
C21 C 0.9460(3) 0.0364(3) 0.9243(5)
C22 C 0.3078(4) 0.2282(4) 1.2332(6)
H12 H 0.3565 0.2581 1.2569
C23 C 0.7875(3) 0.0463(3) 0.8508(5)
H13 H 0.8064 0.0344 0.7680
C24 C 0.2552(4) 0.2439(3) 0.7591(6)
H14 H 0.2192 0.2875 0.7635
C25 C 0.2443(4) 0.1215(4) 1.1150(7)
H15 H 0.2515 0.0788 1.0614
C26 C 0.9957(5) 0.0937(5) 0.8659(8)
H16 H 0.9676 0.1384 0.8371
C27 C 0.1532(5) 0.2013(5) 1.2499(7)
H17 H 0.0979 0.2136 1.2842
C28 C 0.2248(6) 0.2429(4) 1.2832(7)
H18 H 0.2181 0.2831 1.3420
C29 C 1.1274(5) 0.0180(8) 0.8829(9)
H19 H 1.1879 0.0121 0.8669
C30 C 1.0870(6) 0.0858(8) 0.8493(10)
H20 H 1.1203 0.1265 0.8157
C31 C 0.1613(4) 0.1394(5) 1.1634(7)
H21 H 0.1116 0.1108 1.1392
C32 C 1.0773(7) -0.1693(8) 1.0179(14)
H22 H 1.1066 -0.2158 1.0339
C33 C 0.9834(5) -0.1667(4) 1.0424(10)
H23 H 0.9522 -0.2088 1.0752
loop_
_geom_bond_atom_site_label_1
_geom_bond_atom_site_label_2
_geom_bond_site_symmetry_1
_geom_bond_site_symmetry_2
Cl1 O1 1_555 1_555
O2 Cl1 1_555 1_555
O3 Cl1 1_555 1_555
O4 Cl1 1_555 1_555
O5 C2 1_555 1_555
C1 C4 1_555 1_555
C2 C6 1_555 1_555
C3 H1 1_555 1_555
C4 C16 1_555 1_555
C5 H2 1_555 1_555
C6 C1 1_555 1_555
H3 C6 1_555 1_555
C7 C2 1_555 1_555
C8 C1 1_555 1_555
C9 C7 1_555 1_555
H4 C9 1_555 1_555
C10 C8 1_555 1_555
H5 C10 1_555 1_555
C11 C3 1_555 1_555
H6 C11 1_555 1_555
C12 C14 1_555 1_555
C13 C9 1_555 1_555
H7 C13 1_555 1_555
C14 C5 1_555 1_555
C15 C7 1_555 1_555
H8 C15 1_555 1_555
C16 O5 1_555 1_555
H9 C16 1_555 1_555
C17 C4 1_555 1_555
C18 C13 1_555 1_555
C19 C12 1_555 1_555
H10 C19 1_555 1_555
C20 C11 1_555 1_555
H11 C20 1_555 1_555
C21 C14 1_555 1_555
C22 C17 1_555 1_555
H12 C22 1_555 1_555
C23 C15 1_555 1_555
H13 C23 1_555 1_555
C24 C10 1_555 1_555
H14 C24 1_555 1_555
C25 C17 1_555 1_555
H15 C25 1_555 1_555
C26 C21 1_555 1_555
H16 C26 1_555 1_555
C27 H17 1_555 1_555
C28 C22 1_555 1_555
H18 C28 1_555 1_555
C29 C12 1_555 1_555
H19 C29 1_555 1_555
C30 C26 1_555 1_555
H20 C30 1_555 1_555
C31 C25 1_555 1_555
H21 C31 1_555 1_555
C32 C19 1_555 1_555
H22 C32 1_555 1_555
C33 C5 1_555 1_555
H23 C33 1_555 1_555
C3 C8 1_555 1_555
C18 C21 1_555 1_555
C18 C23 1_555 1_555
C20 C24 1_555 1_555
C27 C28 1_555 1_555
C27 C31 1_555 1_555
C29 C30 1_555 1_555
C32 C33 1_555 1_555

#END
