
#######################################################################
#
#                 Cambridge Crystallographic Data Centre
#                                CCDC 
#
#######################################################################
#
# If this CIF has been generated from an entry in the Cambridge 
# Structural Database, then it will include bibliographic, chemical, 
# crystal, experimental, refinement or atomic coordinate data resulting 
# from the CCDC's data processing and validation procedures.
#
#######################################################################

data_GINZUZ
_chemical_formula_moiety         'C16 H27 N1 O7 P2'
_chemical_name_systematic        
2-(1-(N-diethoxyphosphorylamino)(2-hydroxyphenyl)methyl)-5,5-dimethyl-1,3,2\l^5^-dioxaphosphorinane-2-oxide
_symmetry_cell_setting           triclinic
_symmetry_space_group_name_H-M   'P -1'
_symmetry_Int_Tables_number      2
_space_group_name_Hall           '-P 1'
loop_
_symmetry_equiv_pos_site_id
_symmetry_equiv_pos_as_xyz
1 x,y,z
2 -x,-y,-z
_cell_length_a                   9.955(9)
_cell_length_b                   10.404(9)
_cell_length_c                   10.839(9)
_cell_angle_alpha                97.689(9)
_cell_angle_beta                 98.771(7)
_cell_angle_gamma                111.382(16)
_cell_volume                     1011.01
_exptl_crystal_colour            colorless
_exptl_crystal_description       prism
_chemical_melting_point          '223-225 deg.C'
_cell_formula_units_Z            2
loop_
_atom_site_label
_atom_site_type_symbol
_atom_site_fract_x
_atom_site_fract_y
_atom_site_fract_z
P1 P 0.32939(9) 0.40280(8) 0.15140(7)
P2 P 0.71709(9) 0.38095(8) 0.25502(7)
O1 O 0.3172(2) 0.4513(2) 0.03069(19)
O2 O 0.2109(2) 0.4188(2) 0.22605(18)
O3 O 0.3018(2) 0.2404(2) 0.12769(19)
O4 O 0.6432(2) 0.2840(2) 0.33408(18)
O5 O 0.8708(2) 0.4905(2) 0.33767(19)
O6 O 0.7647(2) 0.3160(2) 0.13907(19)
O7 O 0.4363(2) 0.6199(2) 0.4651(2)
H1 H 0.410(4) 0.660(4) 0.531(3)
N1 N 0.6169(3) 0.4596(3) 0.1943(2)
H2 H 0.633(3) 0.483(3) 0.1233(17)
C1 C 0.1680(3) 0.3334(3) 0.3214(3)
H3 H 0.0836 0.3469 0.3506
H4 H 0.2515 0.3653 0.3962
C2 C 0.1245(3) 0.1772(3) 0.2672(3)
C3 C 0.2568(4) 0.1598(3) 0.2254(3)
H5 H 0.3404 0.1920 0.3002
H6 H 0.2314 0.0587 0.1914
C4 C -0.0083(3) 0.1232(3) 0.1539(3)
H7 H 0.0200 0.1705 0.0839
H8 H -0.0898 0.1434 0.1801
H9 H -0.0401 0.0212 0.1252
C5 C 0.0871(4) 0.0955(4) 0.3735(3)
H10 H 0.0674 -0.0039 0.3425
H11 H -0.0007 0.1030 0.3987
H12 H 0.1707 0.1352 0.4473
C6 C 0.5107(3) 0.4962(3) 0.2565(3)
H13 H 0.5092 0.4603 0.3376
C7 C 0.5487(3) 0.6543(3) 0.2891(3)
C8 C 0.5075(3) 0.7106(3) 0.3945(3)
C9 C 0.5409(3) 0.8550(3) 0.4259(3)
H14 H 0.5132 0.8924 0.4981
C10 C 0.6148(3) 0.9446(3) 0.3512(3)
H15 H 0.6377 1.0429 0.3723
C11 C 0.6545(3) 0.8891(3) 0.2463(3)
H16 H 0.7038 0.9495 0.1946
C12 C 0.6228(3) 0.7452(3) 0.2159(3)
H17 H 0.6521 0.7086 0.1444
C13 C 0.9665(4) 0.6004(4) 0.2836(4)
H18 H 0.9124 0.6564 0.2509
H19 H 0.9966 0.5572 0.2114
C14 C 1.0977(4) 0.6926(4) 0.3815(3)
H20 H 1.0675 0.7354 0.4526
H21 H 1.1616 0.7670 0.3449
H22 H 1.1520 0.6372 0.4124
C15 C 0.6591(4) 0.2161(4) 0.0276(3)
H23 H 0.5696 0.2374 0.0102
H24 H 0.6291 0.1188 0.0427
C16 C 0.7334(5) 0.2299(5) -0.0839(3)
H25 H 0.7665 0.3276 -0.0955
H26 H 0.6632 0.1670 -0.1613
H27 H 0.8188 0.2040 -0.0674
loop_
_geom_bond_atom_site_label_1
_geom_bond_atom_site_label_2
_geom_bond_site_symmetry_1
_geom_bond_site_symmetry_2
P1 O1 1_555 1_555
P2 O4 1_555 1_555
O2 P1 1_555 1_555
O3 P1 1_555 1_555
O5 P2 1_555 1_555
O6 P2 1_555 1_555
O7 H1 1_555 1_555
N1 P2 1_555 1_555
H2 N1 1_555 1_555
C1 O2 1_555 1_555
H3 C1 1_555 1_555
H4 C1 1_555 1_555
C2 C1 1_555 1_555
C3 O3 1_555 1_555
H5 C3 1_555 1_555
H6 C3 1_555 1_555
C4 C2 1_555 1_555
H7 C4 1_555 1_555
H8 C4 1_555 1_555
H9 C4 1_555 1_555
C5 C2 1_555 1_555
H10 C5 1_555 1_555
H11 C5 1_555 1_555
H12 C5 1_555 1_555
C6 P1 1_555 1_555
H13 C6 1_555 1_555
C7 C6 1_555 1_555
C8 O7 1_555 1_555
C9 C8 1_555 1_555
H14 C9 1_555 1_555
C10 C9 1_555 1_555
H15 C10 1_555 1_555
C11 C10 1_555 1_555
H16 C11 1_555 1_555
C12 C7 1_555 1_555
H17 C12 1_555 1_555
C13 O5 1_555 1_555
H18 C13 1_555 1_555
H19 C13 1_555 1_555
C14 C13 1_555 1_555
H20 C14 1_555 1_555
H21 C14 1_555 1_555
H22 C14 1_555 1_555
C15 O6 1_555 1_555
H23 C15 1_555 1_555
H24 C15 1_555 1_555
C16 C15 1_555 1_555
H25 C16 1_555 1_555
H26 C16 1_555 1_555
H27 C16 1_555 1_555
N1 C6 1_555 1_555
C2 C3 1_555 1_555
C7 C8 1_555 1_555
C11 C12 1_555 1_555

#END
