
#######################################################################
#
#                 Cambridge Crystallographic Data Centre
#                                CCDC 
#
#######################################################################
#
# If this CIF has been generated from an entry in the Cambridge 
# Structural Database, then it will include bibliographic, chemical, 
# crystal, experimental, refinement or atomic coordinate data resulting 
# from the CCDC's data processing and validation procedures.
#
#######################################################################

data_GIPDIU
_chemical_formula_moiety         
'C16 H36 N1 1+,C12 H10 N5 O2 S1 1-,0.25(C2 H6 O1)'
_chemical_name_systematic        
'tetrabutylammonium 1-((4-nitrophenyl)carbamothioyl)-2-(pyridin-2-yl)diazanide ethanol solvate'
_symmetry_cell_setting           triclinic
_symmetry_space_group_name_H-M   'P -1'
_symmetry_Int_Tables_number      2
_space_group_name_Hall           '-P 1'
loop_
_symmetry_equiv_pos_site_id
_symmetry_equiv_pos_as_xyz
1 x,y,z
2 -x,-y,-z
_cell_length_a                   8.0214(16)
_cell_length_b                   26.689(5)
_cell_length_c                   29.282(6)
_cell_angle_alpha                90.87(3)
_cell_angle_beta                 91.52(3)
_cell_angle_gamma                92.14(3)
_cell_volume                     6261.39
_exptl_crystal_colour            red
_exptl_crystal_description       Rod
_cell_formula_units_Z            8
loop_
_atom_site_label
_atom_site_type_symbol
_atom_site_fract_x
_atom_site_fract_y
_atom_site_fract_z
S1 S -0.03648(9) 1.05300(2) 0.55741(2)
O1 O 0.0877(3) 0.73738(7) 0.63659(7)
O2 O 0.0386(3) 0.72006(7) 0.56472(7)
N1 N 0.0002(3) 1.08470(8) 0.72151(8)
N2 N -0.0195(3) 1.03781(8) 0.65558(8)
H1 H -0.0181 1.0675 0.6380
N3 N -0.0176(3) 0.99247(8) 0.63121(7)
N4 N -0.0285(3) 0.95346(8) 0.56007(7)
H2 H -0.0336 0.9588 0.5280
N5 N 0.0523(3) 0.75041(8) 0.59728(8)
C1 C 0.0231(3) 1.08717(11) 0.76718(10)
H3 H 0.0217 1.1193 0.7816
C2 C 0.0486(3) 1.04643(11) 0.79474(10)
H4 H 0.0646 1.0504 0.8269
C3 C 0.0500(3) 0.99933(11) 0.77369(10)
H5 H 0.0659 0.9704 0.7915
C4 C 0.0285(3) 0.99474(10) 0.72716(9)
H6 H 0.0303 0.9629 0.7123
C5 C 0.0036(3) 1.03856(10) 0.70182(9)
C6 C -0.0253(3) 0.99747(9) 0.58714(9)
C7 C -0.0118(3) 0.90420(9) 0.57211(9)
C8 C -0.0304(3) 0.86789(10) 0.53635(9)
H7 H -0.0574 0.8783 0.5063
C9 C -0.0100(3) 0.81775(10) 0.54444(9)
H8 H -0.0219 0.7937 0.5202
C10 C 0.0281(3) 0.80288(9) 0.58861(9)
C11 C 0.0411(4) 0.83724(10) 0.62470(10)
H9 H 0.0638 0.8262 0.6548
C12 C 0.0209(3) 0.88732(10) 0.61677(9)
H10 H 0.0292 0.9108 0.6416
N6 N 0.5926(3) 0.83302(8) 0.89028(7)
C13 C 0.6977(4) 0.88125(11) 1.03665(11)
H11 H 0.7642 0.8854 1.0651
H12 H 0.5836 0.8916 1.0417
H13 H 0.7478 0.9020 1.0130
C14 C 0.6940(4) 0.82644(11) 1.02131(10)
H14 H 0.6448 0.8058 1.0457
H15 H 0.8101 0.8161 1.0175
C15 C 0.5945(4) 0.81552(11) 0.97646(10)
H16 H 0.5774 0.7788 0.9720
H17 H 0.4836 0.8304 0.9782
C16 C 0.6868(3) 0.83725(10) 0.93612(9)
H18 H 0.7934 0.8201 0.9334
H19 H 0.7143 0.8731 0.9428
C17 C 0.7075(3) 0.85577(10) 0.85482(9)
H20 H 0.7381 0.8907 0.8644
H21 H 0.8114 0.8369 0.8548
C18 C 0.6362(4) 0.85625(11) 0.80613(10)
H22 H 0.5292 0.8736 0.8056
H23 H 0.6142 0.8214 0.7949
C19 C 0.7594(4) 0.88324(11) 0.77491(10)
H24 H 0.7793 0.9182 0.7860
H25 H 0.8672 0.8664 0.7763
C20 C 0.6951(5) 0.88355(14) 0.72556(11)
H26 H 0.7773 0.9010 0.7067
H27 H 0.5895 0.9009 0.7239
H28 H 0.6769 0.8490 0.7143
C21 C 0.5451(3) 0.77862(9) 0.87796(10)
H29 H 0.4760 0.7780 0.8494
H30 H 0.4749 0.7647 0.9024
C22 C 0.6905(3) 0.74437(9) 0.87132(10)
H31 H 0.7661 0.7465 0.8986
H32 H 0.7546 0.7553 0.8446
C23 C 0.6252(4) 0.69021(10) 0.86384(11)
H33 H 0.5676 0.6788 0.8915
H34 H 0.5427 0.6888 0.8381
C24 C 0.7652(4) 0.65494(11) 0.85357(11)
H35 H 0.7186 0.6207 0.8492
H36 H 0.8465 0.6559 0.8792
H37 H 0.8206 0.6656 0.8257
C25 C 0.4298(3) 0.86069(10) 0.89193(10)
H38 H 0.3760 0.8590 0.8611
H39 H 0.3542 0.8428 0.9129
C26 C 0.4469(3) 0.91545(10) 0.90725(10)
H40 H 0.5340 0.9329 0.8894
H41 H 0.4821 0.9175 0.9399
C27 C 0.2819(4) 0.94130(11) 0.90055(11)
H42 H 0.2479 0.9397 0.8678
H43 H 0.1945 0.9233 0.9179
C28 C 0.2953(4) 0.99588(11) 0.91650(12)
H44 H 0.1876 1.0113 0.9116
H45 H 0.3808 1.0139 0.8991
H46 H 0.3263 0.9976 0.9491
S2 S 0.08298(8) 0.45998(3) 0.44380(2)
O3 O -0.0878(5) 0.77725(9) 0.38197(9)
O4 O -0.1932(3) 0.78146(8) 0.44953(8)
N7 N 0.2458(3) 0.45095(9) 0.28612(8)
N8 N 0.1319(3) 0.48553(9) 0.34945(8)
H47 H 0.1478 0.4548 0.3654
N9 N 0.0713(3) 0.52561(8) 0.37383(8)
N10 N -0.0160(3) 0.55412(8) 0.44432(8)
H48 H -0.0233 0.5432 0.4760
N11 N -0.1305(4) 0.75748(10) 0.41784(10)
C29 C 0.2990(4) 0.45558(12) 0.24314(11)
H49 H 0.3438 0.4270 0.2289
C30 C 0.2928(4) 0.49906(13) 0.21839(11)
H50 H 0.3318 0.5004 0.1881
C31 C 0.2275(4) 0.54093(13) 0.23935(11)
H51 H 0.2218 0.5716 0.2234
C32 C 0.1716(4) 0.53770(11) 0.28309(10)
H52 H 0.1258 0.5658 0.2978
C33 C 0.1834(4) 0.49197(10) 0.30573(10)
C34 C 0.0465(3) 0.51609(10) 0.41656(9)
C35 C -0.0502(3) 0.60312(10) 0.43502(10)
C36 C -0.0934(3) 0.63390(10) 0.47235(10)
H53 H -0.1033 0.6197 0.5017
C37 C -0.1213(3) 0.68390(10) 0.46686(10)
H54 H -0.1509 0.7041 0.4922
C38 C -0.1056(4) 0.70468(10) 0.42375(10)
C39 C -0.0681(4) 0.67515(11) 0.38634(10)
H55 H -0.0605 0.6897 0.3570
C40 C -0.0418(3) 0.62485(10) 0.39136(10)
H56 H -0.0179 0.6047 0.3655
N12 N 0.5937(3) 0.37848(8) 0.42123(8)
C41 C 0.7765(5) 0.41099(17) 0.25838(13)
H57 H 0.8697 0.4051 0.2382
H58 H 0.7579 0.4470 0.2604
H59 H 0.6754 0.3934 0.2460
C42 C 0.8173(4) 0.39158(13) 0.30539(11)
H60 H 0.9207 0.4091 0.3174
H61 H 0.8391 0.3554 0.3029
C43 C 0.6790(4) 0.39886(11) 0.33909(10)
H62 H 0.6532 0.4348 0.3409
H63 H 0.5768 0.3798 0.3283
C44 C 0.7312(3) 0.38099(10) 0.38604(9)
H64 H 0.8229 0.4036 0.3982
H65 H 0.7764 0.3472 0.3827
C45 C 0.5077(3) 0.42848(10) 0.42496(10)
H66 H 0.4600 0.4364 0.3945
H67 H 0.4136 0.4244 0.4460
C46 C 0.6177(4) 0.47278(10) 0.44169(11)
H68 H 0.7265 0.4721 0.4266
H69 H 0.6386 0.4703 0.4750
C47 C 0.5346(4) 0.52248(10) 0.43132(10)
H70 H 0.4160 0.5197 0.4398
H71 H 0.5896 0.5496 0.4504
C48 C 0.5442(4) 0.53664(12) 0.38127(12)
H72 H 0.4893 0.5684 0.3765
H73 H 0.4881 0.5103 0.3622
H74 H 0.6614 0.5404 0.3729
C49 C 0.4584(3) 0.33944(10) 0.40682(10)
H75 H 0.3722 0.3386 0.4304
H76 H 0.4045 0.3503 0.3780
C50 C 0.5185(3) 0.28653(10) 0.39969(10)
H77 H 0.6009 0.2789 0.4241
H78 H 0.5741 0.2841 0.3700
C51 C 0.3714(3) 0.24853(10) 0.40045(11)
H79 H 0.2840 0.2586 0.3783
H80 H 0.3232 0.2489 0.4312
C52 C 0.4220(4) 0.19529(11) 0.38864(11)
H81 H 0.3239 0.1723 0.3896
H82 H 0.5069 0.1849 0.4109
H83 H 0.4676 0.1946 0.3579
C53 C 0.6758(3) 0.36562(10) 0.46673(9)
H84 H 0.7471 0.3948 0.4774
H85 H 0.7498 0.3373 0.4617
C54 C 0.5562(3) 0.35161(10) 0.50444(10)
H86 H 0.4981 0.3191 0.4967
H87 H 0.4712 0.3774 0.5070
C55 C 0.6517(4) 0.34767(11) 0.55022(10)
H88 H 0.7471 0.3257 0.5462
H89 H 0.6970 0.3813 0.5597
C56 C 0.5417(4) 0.32673(12) 0.58783(11)
H90 H 0.6076 0.3251 0.6164
H91 H 0.4990 0.2930 0.5790
H92 H 0.4479 0.3486 0.5922
S3 S 0.90867(9) 0.21844(2) 0.05008(2)
O5 O 0.5672(3) 0.53343(7) 0.05874(8)
O6 O 0.5740(3) 0.51800(7) 0.13153(7)
N13 N 0.8421(3) 0.17812(10) 0.20577(8)
N14 N 0.8869(3) 0.23287(8) 0.14778(8)
H93 H 0.9047 0.2033 0.1297
N15 N 0.8429(3) 0.27590(8) 0.12456(8)
N16 N 0.8099(3) 0.31218(8) 0.05318(8)
H94 H 0.7935 0.3040 0.0217
N17 N 0.5957(3) 0.50519(8) 0.09124(9)
C57 C 0.7871(4) 0.16884(14) 0.24782(11)
H95 H 0.7977 0.1359 0.2592
C58 C 0.7166(4) 0.20368(15) 0.27548(11)
H96 H 0.6763 0.1948 0.3046
C59 C 0.7059(4) 0.25242(14) 0.25981(11)
H97 H 0.6597 0.2775 0.2784
C60 C 0.7625(4) 0.26406(12) 0.21715(10)
H98 H 0.7568 0.2971 0.2058
C61 C 0.8294(3) 0.22530(11) 0.19082(10)
C62 C 0.8517(3) 0.27128(10) 0.08059(9)
C63 C 0.7627(3) 0.35976(10) 0.06493(9)
C64 C 0.7594(3) 0.37871(10) 0.11015(9)
H99 H 0.7948 0.3588 0.1350
C65 C 0.7042(3) 0.42645(10) 0.11811(10)
H100 H 0.6990 0.4390 0.1485
C66 C 0.6563(3) 0.45603(9) 0.08186(10)
C67 C 0.6637(3) 0.43874(10) 0.03689(10)
H101 H 0.6332 0.4595 0.0122
C68 C 0.7159(4) 0.39119(10) 0.02881(10)
H102 H 0.7206 0.3791 -0.0018
N18 N 0.4839(3) 0.09620(8) 0.64470(8)
C69 C 0.5146(5) -0.06385(13) 0.54732(15)
H103 H 0.4421 -0.0886 0.5306
H104 H 0.5798 -0.0808 0.5708
H105 H 0.5904 -0.0473 0.5261
C70 C 0.4084(4) -0.02488(11) 0.56979(12)
H106 H 0.3309 -0.0419 0.5909
H107 H 0.3405 -0.0086 0.5460
C71 C 0.5134(3) 0.01512(10) 0.59632(11)
H108 H 0.5770 -0.0006 0.6214
H109 H 0.5940 0.0316 0.5758
C72 C 0.3995(3) 0.05391(10) 0.61597(10)
H110 H 0.3166 0.0363 0.6350
H111 H 0.3375 0.0690 0.5903
C73 C 0.3461(3) 0.12993(10) 0.66001(10)
H112 H 0.2788 0.1389 0.6327
H113 H 0.2719 0.1105 0.6803
C74 C 0.4045(3) 0.17809(11) 0.68506(10)
H114 H 0.4996 0.1712 0.7060
H115 H 0.4428 0.2032 0.6627
C75 C 0.2628(4) 0.19884(11) 0.71221(10)
H116 H 0.1600 0.1981 0.6927
H117 H 0.2416 0.1770 0.7386
C76 C 0.3003(4) 0.25217(12) 0.72938(12)
H118 H 0.2052 0.2639 0.7463
H119 H 0.3202 0.2740 0.7033
H120 H 0.3999 0.2530 0.7496
C77 C 0.6139(3) 0.12533(10) 0.61761(9)
H121 H 0.6654 0.1521 0.6377
H122 H 0.7029 0.1023 0.6096
C78 C 0.5504(4) 0.14914(10) 0.57415(10)
H123 H 0.4495 0.1680 0.5805
H124 H 0.5198 0.1227 0.5510
C79 C 0.6860(4) 0.18460(11) 0.55569(11)
H125 H 0.7133 0.2115 0.5786
H126 H 0.7883 0.1658 0.5508
C80 C 0.6316(5) 0.20790(12) 0.51114(11)
H127 H 0.7214 0.2303 0.5005
H128 H 0.5315 0.2270 0.5159
H129 H 0.6068 0.1814 0.4882
C81 C 0.5777(3) 0.07546(10) 0.68585(9)
H130 H 0.6652 0.0537 0.6744
H131 H 0.6347 0.1039 0.7027
C82 C 0.4744(4) 0.04577(11) 0.71938(10)
H132 H 0.4168 0.0168 0.7034
H133 H 0.3887 0.0672 0.7323
C83 C 0.5882(4) 0.02734(13) 0.75766(11)
H134 H 0.6724 0.0057 0.7443
H135 H 0.6482 0.0566 0.7725
C84 C 0.4946(4) -0.00195(13) 0.79379(11)
H136 H 0.5739 -0.0127 0.8174
H137 H 0.4369 -0.0314 0.7795
H138 H 0.4127 0.0195 0.8078
S4 S 0.67504(8) 0.29099(2) 0.94077(2)
O7 O 0.8709(3) -0.03634(7) 0.95015(7)
O8 O 0.8455(3) -0.02712(7) 0.87673(7)
N19 N 0.7248(3) 0.30897(9) 0.77607(9)
N20 N 0.7039(3) 0.26760(8) 0.84346(8)
H139 H 0.6794 0.3004 0.8573
N21 N 0.7397(3) 0.22684(8) 0.87052(8)
N22 N 0.7620(3) 0.19572(8) 0.94387(7)
H140 H 0.7899 0.2088 0.9737
N23 N 0.8486(3) -0.00973(8) 0.91635(8)
C85 C 0.7541(5) 0.30778(13) 0.73086(12)
H141 H 0.7424 0.3380 0.7145
C86 C 0.7999(4) 0.26601(14) 0.70666(11)
H142 H 0.8180 0.2674 0.6748
C87 C 0.8185(4) 0.22187(13) 0.73035(10)
H143 H 0.8524 0.1925 0.7149
C88 C 0.7876(3) 0.22083(11) 0.77649(9)
H144 H 0.7979 0.1908 0.7932
C89 C 0.7401(3) 0.26551(10) 0.79819(9)
C90 C 0.7279(3) 0.23548(9) 0.91419(9)
C91 C 0.7835(3) 0.14582(9) 0.93467(9)
C92 C 0.7607(3) 0.12274(9) 0.89112(9)
H145 H 0.7314 0.1422 0.8654
C93 C 0.7812(3) 0.07190(10) 0.88606(9)
H146 H 0.7654 0.0565 0.8567
C94 C 0.8243(3) 0.04313(9) 0.92303(9)
C95 C 0.8477(3) 0.06484(10) 0.96659(10)
H147 H 0.8775 0.0449 0.9919
C96 C 0.8270(3) 0.11535(10) 0.97215(10)
H148 H 0.8420 0.1302 1.0017
N24 N 0.1688(3) 0.34096(8) 0.88091(7)
C97 C 0.3059(6) 0.40644(18) 0.72259(13)
H149 H 0.4016 0.4197 0.7058
H150 H 0.2192 0.4313 0.7231
H151 H 0.2613 0.3756 0.7075
C98 C 0.3611(4) 0.39515(13) 0.77101(11)
H152 H 0.4088 0.4263 0.7857
H153 H 0.4506 0.3706 0.7701
C99 C 0.2217(4) 0.37442(11) 0.80001(10)
H154 H 0.1756 0.3425 0.7864
H155 H 0.1308 0.3985 0.8011
C100 C 0.2893(3) 0.36557(10) 0.84803(9)
H156 H 0.3289 0.3983 0.8615
H157 H 0.3875 0.3444 0.8458
C101 C 0.2584(3) 0.34250(10) 0.92740(9)
H158 H 0.2837 0.3780 0.9361
H159 H 0.3662 0.3260 0.9244
C102 C 0.1637(4) 0.31764(10) 0.96608(10)
H160 H 0.1569 0.2809 0.9610
H161 H 0.0487 0.3298 0.9665
C103 C 0.2536(4) 0.33002(10) 1.01199(10)
H162 H 0.2074 0.3076 1.0355
H163 H 0.3734 0.3232 1.0093
C104 C 0.2372(4) 0.38435(11) 1.02764(11)
H164 H 0.2974 0.3900 1.0569
H165 H 0.1191 0.3912 1.0313
H166 H 0.2846 0.4068 1.0048
C105 C 0.0067(3) 0.36864(10) 0.88213(10)
H167 H -0.0694 0.3508 0.9030
H168 H -0.0464 0.3668 0.8512
C106 C 0.0225(3) 0.42355(10) 0.89719(11)
H169 H 0.0787 0.4263 0.9277
H170 H 0.0917 0.4425 0.8754
C107 C -0.1487(4) 0.44598(10) 0.89927(11)
H171 H -0.2045 0.4430 0.8687
H172 H -0.2176 0.4267 0.9210
C108 C -0.1383(4) 0.50081(12) 0.91425(14)
H173 H -0.2509 0.5138 0.9149
H174 H -0.0715 0.5201 0.8926
H175 H -0.0858 0.5039 0.9448
C109 C 0.1218(3) 0.28720(9) 0.86597(10)
H176 H 0.0438 0.2727 0.8883
H177 H 0.0613 0.2880 0.8361
C110 C 0.2669(3) 0.25250(9) 0.86151(10)
H178 H 0.3324 0.2525 0.8906
H179 H 0.3413 0.2648 0.8373
C111 C 0.2024(3) 0.19907(10) 0.84961(11)
H180 H 0.1323 0.1864 0.8746
H181 H 0.1315 0.1995 0.8214
C112 C 0.3443(4) 0.16376(10) 0.84245(11)
H182 H 0.2981 0.1300 0.8351
H183 H 0.4138 0.1628 0.8704
H184 H 0.4123 0.1757 0.8172
O9 O 0.3051(3) 0.34681(9) 0.29858(9)
H185 H 0.2675 0.3802 0.3008
C113 C 0.1750(4) 0.31537(13) 0.28194(13)
H186 H 0.1197 0.3313 0.2556
H187 H 0.0915 0.3109 0.3060
C114 C 0.2325(5) 0.26548(14) 0.26742(14)
H188 H 0.1368 0.2446 0.2560
H189 H 0.2855 0.2492 0.2936
H190 H 0.3133 0.2697 0.2431
loop_
_geom_bond_atom_site_label_1
_geom_bond_atom_site_label_2
_geom_bond_site_symmetry_1
_geom_bond_site_symmetry_2
S1 C6 1_555 1_555
O1 N5 1_555 1_555
O2 N5 1_555 1_555
N1 C1 1_555 1_555
N2 H1 1_555 1_555
N3 N2 1_555 1_555
N4 H2 1_555 1_555
N5 C10 1_555 1_555
C1 H3 1_555 1_555
C2 C1 1_555 1_555
H4 C2 1_555 1_555
C3 C2 1_555 1_555
H5 C3 1_555 1_555
C4 C3 1_555 1_555
H6 C4 1_555 1_555
C5 N1 1_555 1_555
C6 N3 1_555 1_555
C7 N4 1_555 1_555
C8 C7 1_555 1_555
H7 C8 1_555 1_555
C9 C8 1_555 1_555
H8 C9 1_555 1_555
C10 C9 1_555 1_555
C11 C10 1_555 1_555
H9 C11 1_555 1_555
C12 C7 1_555 1_555
H10 C12 1_555 1_555
N6 C16 1_555 1_555
C13 H11 1_555 1_555
H12 C13 1_555 1_555
H13 C13 1_555 1_555
C14 C13 1_555 1_555
H14 C14 1_555 1_555
H15 C14 1_555 1_555
C15 C14 1_555 1_555
H16 C15 1_555 1_555
H17 C15 1_555 1_555
C16 C15 1_555 1_555
H18 C16 1_555 1_555
H19 C16 1_555 1_555
C17 N6 1_555 1_555
H20 C17 1_555 1_555
H21 C17 1_555 1_555
C18 C17 1_555 1_555
H22 C18 1_555 1_555
H23 C18 1_555 1_555
C19 C18 1_555 1_555
H24 C19 1_555 1_555
H25 C19 1_555 1_555
C20 C19 1_555 1_555
H26 C20 1_555 1_555
H27 C20 1_555 1_555
H28 C20 1_555 1_555
C21 N6 1_555 1_555
H29 C21 1_555 1_555
H30 C21 1_555 1_555
C22 C21 1_555 1_555
H31 C22 1_555 1_555
H32 C22 1_555 1_555
C23 C22 1_555 1_555
H33 C23 1_555 1_555
H34 C23 1_555 1_555
C24 C23 1_555 1_555
H35 C24 1_555 1_555
H36 C24 1_555 1_555
H37 C24 1_555 1_555
C25 N6 1_555 1_555
H38 C25 1_555 1_555
H39 C25 1_555 1_555
C26 C25 1_555 1_555
H40 C26 1_555 1_555
H41 C26 1_555 1_555
C27 C26 1_555 1_555
H42 C27 1_555 1_555
H43 C27 1_555 1_555
C28 C27 1_555 1_555
H44 C28 1_555 1_555
H45 C28 1_555 1_555
H46 C28 1_555 1_555
S2 C34 1_555 1_555
O3 N11 1_555 1_555
O4 N11 1_555 1_555
N7 C29 1_555 1_555
N8 H47 1_555 1_555
N9 N8 1_555 1_555
N10 H48 1_555 1_555
N11 C38 1_555 1_555
C29 H49 1_555 1_555
C30 C29 1_555 1_555
H50 C30 1_555 1_555
C31 C30 1_555 1_555
H51 C31 1_555 1_555
C32 C31 1_555 1_555
H52 C32 1_555 1_555
C33 N7 1_555 1_555
C34 N9 1_555 1_555
C35 N10 1_555 1_555
C36 C35 1_555 1_555
H53 C36 1_555 1_555
C37 C36 1_555 1_555
H54 C37 1_555 1_555
C38 C37 1_555 1_555
C39 C38 1_555 1_555
H55 C39 1_555 1_555
C40 C35 1_555 1_555
H56 C40 1_555 1_555
N12 C44 1_555 1_555
C41 H57 1_555 1_555
H58 C41 1_555 1_555
H59 C41 1_555 1_555
C42 C41 1_555 1_555
H60 C42 1_555 1_555
H61 C42 1_555 1_555
C43 C42 1_555 1_555
H62 C43 1_555 1_555
H63 C43 1_555 1_555
C44 C43 1_555 1_555
H64 C44 1_555 1_555
H65 C44 1_555 1_555
C45 N12 1_555 1_555
H66 C45 1_555 1_555
H67 C45 1_555 1_555
C46 C45 1_555 1_555
H68 C46 1_555 1_555
H69 C46 1_555 1_555
C47 C46 1_555 1_555
H70 C47 1_555 1_555
H71 C47 1_555 1_555
C48 C47 1_555 1_555
H72 C48 1_555 1_555
H73 C48 1_555 1_555
H74 C48 1_555 1_555
C49 N12 1_555 1_555
H75 C49 1_555 1_555
H76 C49 1_555 1_555
C50 C49 1_555 1_555
H77 C50 1_555 1_555
H78 C50 1_555 1_555
C51 C50 1_555 1_555
H79 C51 1_555 1_555
H80 C51 1_555 1_555
C52 C51 1_555 1_555
H81 C52 1_555 1_555
H82 C52 1_555 1_555
H83 C52 1_555 1_555
C53 N12 1_555 1_555
H84 C53 1_555 1_555
H85 C53 1_555 1_555
C54 C53 1_555 1_555
H86 C54 1_555 1_555
H87 C54 1_555 1_555
C55 C54 1_555 1_555
H88 C55 1_555 1_555
H89 C55 1_555 1_555
C56 C55 1_555 1_555
H90 C56 1_555 1_555
H91 C56 1_555 1_555
H92 C56 1_555 1_555
S3 C62 1_555 1_555
O5 N17 1_555 1_555
O6 N17 1_555 1_555
N13 C57 1_555 1_555
N14 H93 1_555 1_555
N15 N14 1_555 1_555
N16 H94 1_555 1_555
N17 C66 1_555 1_555
C57 H95 1_555 1_555
C58 C57 1_555 1_555
H96 C58 1_555 1_555
C59 C58 1_555 1_555
H97 C59 1_555 1_555
C60 C59 1_555 1_555
H98 C60 1_555 1_555
C61 N13 1_555 1_555
C62 N15 1_555 1_555
C63 N16 1_555 1_555
C64 C63 1_555 1_555
H99 C64 1_555 1_555
C65 C64 1_555 1_555
H100 C65 1_555 1_555
C66 C65 1_555 1_555
C67 C66 1_555 1_555
H101 C67 1_555 1_555
C68 C63 1_555 1_555
H102 C68 1_555 1_555
N18 C72 1_555 1_555
C69 H103 1_555 1_555
H104 C69 1_555 1_555
H105 C69 1_555 1_555
C70 C69 1_555 1_555
H106 C70 1_555 1_555
H107 C70 1_555 1_555
C71 C70 1_555 1_555
H108 C71 1_555 1_555
H109 C71 1_555 1_555
C72 C71 1_555 1_555
H110 C72 1_555 1_555
H111 C72 1_555 1_555
C73 N18 1_555 1_555
H112 C73 1_555 1_555
H113 C73 1_555 1_555
C74 C73 1_555 1_555
H114 C74 1_555 1_555
H115 C74 1_555 1_555
C75 C74 1_555 1_555
H116 C75 1_555 1_555
H117 C75 1_555 1_555
C76 C75 1_555 1_555
H118 C76 1_555 1_555
H119 C76 1_555 1_555
H120 C76 1_555 1_555
C77 N18 1_555 1_555
H121 C77 1_555 1_555
H122 C77 1_555 1_555
C78 C77 1_555 1_555
H123 C78 1_555 1_555
H124 C78 1_555 1_555
C79 C78 1_555 1_555
H125 C79 1_555 1_555
H126 C79 1_555 1_555
C80 C79 1_555 1_555
H127 C80 1_555 1_555
H128 C80 1_555 1_555
H129 C80 1_555 1_555
C81 N18 1_555 1_555
H130 C81 1_555 1_555
H131 C81 1_555 1_555
C82 C81 1_555 1_555
H132 C82 1_555 1_555
H133 C82 1_555 1_555
C83 C82 1_555 1_555
H134 C83 1_555 1_555
H135 C83 1_555 1_555
C84 C83 1_555 1_555
H136 C84 1_555 1_555
H137 C84 1_555 1_555
H138 C84 1_555 1_555
S4 C90 1_555 1_555
O7 N23 1_555 1_555
O8 N23 1_555 1_555
N19 C85 1_555 1_555
N20 H139 1_555 1_555
N21 N20 1_555 1_555
N22 H140 1_555 1_555
N23 C94 1_555 1_555
C85 H141 1_555 1_555
C86 C85 1_555 1_555
H142 C86 1_555 1_555
C87 C86 1_555 1_555
H143 C87 1_555 1_555
C88 C87 1_555 1_555
H144 C88 1_555 1_555
C89 N19 1_555 1_555
C90 N21 1_555 1_555
C91 N22 1_555 1_555
C92 C91 1_555 1_555
H145 C92 1_555 1_555
C93 C92 1_555 1_555
H146 C93 1_555 1_555
C94 C93 1_555 1_555
C95 C94 1_555 1_555
H147 C95 1_555 1_555
C96 C91 1_555 1_555
H148 C96 1_555 1_555
N24 C100 1_555 1_555
C97 H149 1_555 1_555
H150 C97 1_555 1_555
H151 C97 1_555 1_555
C98 C97 1_555 1_555
H152 C98 1_555 1_555
H153 C98 1_555 1_555
C99 C98 1_555 1_555
H154 C99 1_555 1_555
H155 C99 1_555 1_555
C100 C99 1_555 1_555
H156 C100 1_555 1_555
H157 C100 1_555 1_555
C101 N24 1_555 1_555
H158 C101 1_555 1_555
H159 C101 1_555 1_555
C102 C101 1_555 1_555
H160 C102 1_555 1_555
H161 C102 1_555 1_555
C103 C102 1_555 1_555
H162 C103 1_555 1_555
H163 C103 1_555 1_555
C104 C103 1_555 1_555
H164 C104 1_555 1_555
H165 C104 1_555 1_555
H166 C104 1_555 1_555
C105 N24 1_555 1_555
H167 C105 1_555 1_555
H168 C105 1_555 1_555
C106 C105 1_555 1_555
H169 C106 1_555 1_555
H170 C106 1_555 1_555
C107 C106 1_555 1_555
H171 C107 1_555 1_555
H172 C107 1_555 1_555
C108 C107 1_555 1_555
H173 C108 1_555 1_555
H174 C108 1_555 1_555
H175 C108 1_555 1_555
C109 N24 1_555 1_555
H176 C109 1_555 1_555
H177 C109 1_555 1_555
C110 C109 1_555 1_555
H178 C110 1_555 1_555
H179 C110 1_555 1_555
C111 C110 1_555 1_555
H180 C111 1_555 1_555
H181 C111 1_555 1_555
C112 C111 1_555 1_555
H182 C112 1_555 1_555
H183 C112 1_555 1_555
H184 C112 1_555 1_555
O9 H185 1_555 1_555
C113 O9 1_555 1_555
H186 C113 1_555 1_555
H187 C113 1_555 1_555
C114 C113 1_555 1_555
H188 C114 1_555 1_555
H189 C114 1_555 1_555
H190 C114 1_555 1_555
N2 C5 1_555 1_555
N4 C6 1_555 1_555
C4 C5 1_555 1_555
C11 C12 1_555 1_555
N8 C33 1_555 1_555
N10 C34 1_555 1_555
C32 C33 1_555 1_555
C39 C40 1_555 1_555
N14 C61 1_555 1_555
N16 C62 1_555 1_555
C60 C61 1_555 1_555
C67 C68 1_555 1_555
N20 C89 1_555 1_555
N22 C90 1_555 1_555
C88 C89 1_555 1_555
C95 C96 1_555 1_555

#END
