
#######################################################################
#
#                 Cambridge Crystallographic Data Centre
#                                CCDC 
#
#######################################################################
#
# If this CIF has been generated from an entry in the Cambridge 
# Structural Database, then it will include bibliographic, chemical, 
# crystal, experimental, refinement or atomic coordinate data resulting 
# from the CCDC's data processing and validation procedures.
#
#######################################################################

data_GIPKOI
_chemical_formula_moiety         'C27 H22 N4 O2'
_chemical_name_systematic        
2-(4-aminophenyl)-3-{3,4-bis[(pyridin-2-yl)methoxy]phenyl}prop-2-enenitrile
_symmetry_cell_setting           monoclinic
_symmetry_space_group_name_H-M   'P 21/c'
_symmetry_Int_Tables_number      14
_space_group_name_Hall           '-P 2ybc'
loop_
_symmetry_equiv_pos_site_id
_symmetry_equiv_pos_as_xyz
1 x,y,z
2 -x,1/2+y,1/2-z
3 -x,-y,-z
4 x,1/2-y,1/2+z
_cell_length_a                   8.0233(15)
_cell_length_b                   16.877(3)
_cell_length_c                   17.013(3)
_cell_angle_alpha                90
_cell_angle_beta                 101.021(2)
_cell_angle_gamma                90
_cell_volume                     2261.23
_exptl_crystal_colour            yellow
_exptl_crystal_description       block
_cell_formula_units_Z            4
loop_
_atom_site_label
_atom_site_type_symbol
_atom_site_fract_x
_atom_site_fract_y
_atom_site_fract_z
O1 O 0.49999(13) 0.35393(6) 0.60726(6)
O2 O 0.64442(13) 0.43936(6) 0.72240(6)
N1 N 0.5073(2) 0.18016(8) 0.49938(9)
N2 N 0.9308(2) 0.45055(9) 0.90889(9)
N3 N 0.08360(19) 0.41255(8) 0.36157(8)
N4 N -0.3243(2) 0.75632(11) 0.17390(10)
H1 H -0.383(3) 0.7318(13) 0.1266(14)
H2 H -0.276(3) 0.8029(14) 0.1678(13)
C1 C 0.44974(17) 0.43157(8) 0.60235(8)
C2 C 0.53138(17) 0.47891(8) 0.66594(8)
C3 C 0.49239(19) 0.55817(9) 0.66679(9)
H3 H 0.545197 0.590099 0.708799
C4 C 0.37400(19) 0.59051(9) 0.60481(8)
H4 H 0.349164 0.644269 0.605985
C5 C 0.29154(17) 0.54486(8) 0.54107(8)
C6 C 0.33223(17) 0.46381(8) 0.54156(8)
H5 H 0.278638 0.431542 0.500006
C7 C 0.4137(2) 0.30045(9) 0.55064(9)
H6 H 0.415632 0.318992 0.496858
H7 H 0.296336 0.295468 0.556604
C8 C 0.50242(19) 0.22186(9) 0.56499(9)
C9 C 0.5746(3) 0.19608(10) 0.64029(11)
H8 H 0.564635 0.226012 0.685047
C10 C 0.6619(3) 0.12559(12) 0.64889(13)
H9 H 0.713511 0.107670 0.699380
C11 C 0.6716(3) 0.08249(12) 0.58249(15)
H10 H 0.731751 0.035105 0.586148
C12 C 0.5897(3) 0.11113(13) 0.50989(14)
H11 H 0.591819 0.080287 0.464790
C13 C 0.7269(2) 0.47956(9) 0.79186(9)
H12 H 0.643897 0.504435 0.818532
H13 H 0.801109 0.520361 0.777763
C14 C 0.82829(19) 0.41938(9) 0.84601(8)
C15 C 0.8152(2) 0.33945(10) 0.83217(10)
H14 H 0.742020 0.319653 0.787431
C16 C 0.9128(3) 0.28889(11) 0.88595(12)
H15 H 0.908267 0.234429 0.877454
C17 C 1.0158(3) 0.31990(13) 0.95159(12)
H16 H 1.080498 0.287013 0.989461
C18 C 1.0221(3) 0.39952(14) 0.96067(12)
H17 H 1.093962 0.420198 1.005379
C19 C 0.17363(17) 0.58435(8) 0.47739(8)
H18 H 0.157669 0.637714 0.487389
C20 C 0.08303(17) 0.55909(8) 0.40689(8)
C21 C 0.08525(18) 0.47669(9) 0.38329(9)
C22 C -0.02236(17) 0.61078(8) 0.34649(8)
C23 C -0.0004(2) 0.69284(9) 0.34669(9)
H19 H 0.082626 0.715972 0.385550
C24 C -0.0996(2) 0.74018(9) 0.29030(10)
H20 H -0.083483 0.794767 0.292461
C25 C -0.2235(2) 0.70805(9) 0.23018(9)
C26 C -0.24557(19) 0.62686(9) 0.22986(9)
H21 H -0.328422 0.603694 0.190933
C27 C -0.14660(19) 0.57983(9) 0.28634(9)
H22 H -0.163616 0.525305 0.284117
loop_
_geom_bond_atom_site_label_1
_geom_bond_atom_site_label_2
_geom_bond_site_symmetry_1
_geom_bond_site_symmetry_2
O1 C1 1_555 1_555
O2 C2 1_555 1_555
N1 C8 1_555 1_555
N2 C14 1_555 1_555
N3 C21 1_555 1_555
N4 H1 1_555 1_555
H2 N4 1_555 1_555
C1 C2 1_555 1_555
C2 C3 1_555 1_555
C3 H3 1_555 1_555
C4 C3 1_555 1_555
H4 C4 1_555 1_555
C5 C4 1_555 1_555
C6 C1 1_555 1_555
H5 C6 1_555 1_555
C7 O1 1_555 1_555
H6 C7 1_555 1_555
H7 C7 1_555 1_555
C8 C7 1_555 1_555
C9 C8 1_555 1_555
H8 C9 1_555 1_555
C10 C9 1_555 1_555
H9 C10 1_555 1_555
C11 C10 1_555 1_555
H10 C11 1_555 1_555
C12 N1 1_555 1_555
H11 C12 1_555 1_555
C13 O2 1_555 1_555
H12 C13 1_555 1_555
H13 C13 1_555 1_555
C14 C13 1_555 1_555
C15 C14 1_555 1_555
H14 C15 1_555 1_555
C16 C15 1_555 1_555
H15 C16 1_555 1_555
C17 C16 1_555 1_555
H16 C17 1_555 1_555
C18 N2 1_555 1_555
H17 C18 1_555 1_555
C19 C5 1_555 1_555
H18 C19 1_555 1_555
C20 C19 1_555 1_555
C21 C20 1_555 1_555
C22 C20 1_555 1_555
C23 C22 1_555 1_555
H19 C23 1_555 1_555
C24 C23 1_555 1_555
H20 C24 1_555 1_555
C25 N4 1_555 1_555
C26 C25 1_555 1_555
H21 C26 1_555 1_555
C27 C22 1_555 1_555
H22 C27 1_555 1_555
C5 C6 1_555 1_555
C11 C12 1_555 1_555
C17 C18 1_555 1_555
C24 C25 1_555 1_555
C26 C27 1_555 1_555

#END
