
#######################################################################
#
#                 Cambridge Crystallographic Data Centre
#                                CCDC 
#
#######################################################################
#
# If this CIF has been generated from an entry in the Cambridge 
# Structural Database, then it will include bibliographic, chemical, 
# crystal, experimental, refinement or atomic coordinate data resulting 
# from the CCDC's data processing and validation procedures.
#
#######################################################################

data_GIPVAD
_chemical_formula_moiety         'C23 H20 F1 N3 O2'
_chemical_name_systematic        
(11a'R)-2-(2-fluorophenyl)-11',11a'-dihydrospiro(cyclopentane-1,5'-imidazo[1',5':1,6]pyrido[3,4-b]indole)-1',3'-(2'H,6'H)-dione
_symmetry_cell_setting           monoclinic
_symmetry_space_group_name_H-M   'P 21'
_symmetry_Int_Tables_number      4
_space_group_name_Hall           'P 2yb'
loop_
_symmetry_equiv_pos_site_id
_symmetry_equiv_pos_as_xyz
1 x,y,z
2 -x,1/2+y,-z
_cell_length_a                   10.3035(2)
_cell_length_b                   9.8392(3)
_cell_length_c                   10.6431(3)
_cell_angle_alpha                90
_cell_angle_beta                 118.5560(15)
_cell_angle_gamma                90
_cell_volume                     947.721
_cell_formula_units_Z            2
loop_
_atom_site_label
_atom_site_type_symbol
_atom_site_fract_x
_atom_site_fract_y
_atom_site_fract_z
F1 F 0.2924(2) -0.2414(2) -0.0613(2)
O1 O 0.5078(2) -0.0011(2) 0.0190(2)
O2 O 0.0162(2) 0.1046(2) -0.1973(2)
N1 N 0.2563(2) 0.0307(2) -0.1154(2)
N2 N 0.2152(2) 0.1899(2) 0.0098(2)
N3 N 0.1868(2) 0.3484(2) 0.3103(2)
C1 C 0.3945(2) 0.0546(2) -0.0021(2)
C2 C 0.1463(2) 0.1122(2) -0.1086(2)
C3 C 0.3746(2) 0.1604(2) 0.0902(2)
C4 C 0.4170(2) 0.1073(3) 0.2399(2)
C5 C 0.3442(2) 0.1953(2) 0.3023(2)
C6 C 0.3770(2) 0.2106(3) 0.4485(2)
C7 C 0.4809(3) 0.1536(3) 0.5782(3)
C8 C 0.4827(3) 0.1940(4) 0.7028(3)
C9 C 0.3819(4) 0.2883(3) 0.7009(3)
C10 C 0.2766(3) 0.3458(3) 0.5753(3)
C11 C 0.2764(3) 0.3072(2) 0.4494(2)
C12 C 0.2289(2) 0.2789(2) 0.2227(2)
C13 C 0.1549(2) 0.2994(2) 0.0633(2)
C14 C 0.1864(2) 0.4382(2) 0.0178(2)
C15 C 0.0672(3) 0.4513(3) -0.1368(3)
C16 C -0.0714(3) 0.3904(3) -0.1401(3)
C17 C -0.0153(2) 0.2981(3) -0.0081(2)
C18 C 0.2242(2) -0.0641(3) -0.2273(2)
C19 C 0.2440(3) -0.2012(3) -0.1973(3)
C20 C 0.2154(3) -0.2968(3) -0.3017(3)
C21 C 0.1666(4) -0.2540(4) -0.4388(4)
C22 C 0.1461(4) -0.1162(4) -0.4721(3)
C23 C 0.1747(3) -0.0206(3) -0.3659(3)
loop_
_geom_bond_atom_site_label_1
_geom_bond_atom_site_label_2
_geom_bond_site_symmetry_1
_geom_bond_site_symmetry_2
F1 C19 1_555 1_555
O1 C1 1_555 1_555
O2 C2 1_555 1_555
N1 C1 1_555 1_555
N2 C2 1_555 1_555
N3 C11 1_555 1_555
C1 C3 1_555 1_555
C2 N1 1_555 1_555
C3 N2 1_555 1_555
C4 C3 1_555 1_555
C5 C4 1_555 1_555
C6 C5 1_555 1_555
C7 C6 1_555 1_555
C8 C7 1_555 1_555
C9 C8 1_555 1_555
C10 C9 1_555 1_555
C11 C6 1_555 1_555
C12 N3 1_555 1_555
C13 N2 1_555 1_555
C14 C13 1_555 1_555
C15 C14 1_555 1_555
C16 C15 1_555 1_555
C17 C13 1_555 1_555
C18 N1 1_555 1_555
C19 C18 1_555 1_555
C20 C19 1_555 1_555
C21 C20 1_555 1_555
C22 C21 1_555 1_555
C23 C18 1_555 1_555
C5 C12 1_555 1_555
C10 C11 1_555 1_555
C12 C13 1_555 1_555
C16 C17 1_555 1_555
C22 C23 1_555 1_555

#END
