
#######################################################################
#
#                 Cambridge Crystallographic Data Centre
#                                CCDC 
#
#######################################################################
#
# If this CIF has been generated from an entry in the Cambridge 
# Structural Database, then it will include bibliographic, chemical, 
# crystal, experimental, refinement or atomic coordinate data resulting 
# from the CCDC's data processing and validation procedures.
#
#######################################################################

data_GIPYAG
_chemical_formula_moiety         'C16 H14 N6 O1 S1'
_chemical_name_systematic        
N'-(phenylmethylidene)-2-((1-phenyl-1H-tetrazol-5-yl)thio)acetohydrazide
_chemical_properties_biological  'relatively low antibacterial activity'
_symmetry_cell_setting           triclinic
_symmetry_space_group_name_H-M   'P -1'
_symmetry_Int_Tables_number      2
_space_group_name_Hall           '-P 1'
loop_
_symmetry_equiv_pos_site_id
_symmetry_equiv_pos_as_xyz
1 x,y,z
2 -x,-y,-z
_cell_length_a                   7.382(1)
_cell_length_b                   9.992(2)
_cell_length_c                   11.535(2)
_cell_angle_alpha                81.41(2)
_cell_angle_beta                 85.72(2)
_cell_angle_gamma                72.21(2)
_cell_volume                     800.68
_cell_formula_units_Z            2
loop_
_atom_site_label
_atom_site_type_symbol
_atom_site_fract_x
_atom_site_fract_y
_atom_site_fract_z
S1 S 0.2357(1) 0.4022 0.3600(1)
O1 O 0.4304(2) 0.4087(1) 0.1361(1)
N1 N 0.2870(2) 0.3616(2) 0.5937(1)
N2 N 0.3013(3) 0.4348(2) 0.6816(1)
N3 N 0.2810(3) 0.5636(2) 0.6343(2)
N4 N 0.2533(2) 0.5795(2) 0.5166(1)
N5 N 0.3653(2) 0.6435(1) 0.0812(1)
N6 N 0.2772(2) 0.7784(1) 0.1078(1)
C1 C 0.4771(3) 0.1225(2) 0.6642(2)
C2 C 0.5005(3) -0.0211(2) 0.6831(2)
C3 C 0.3647(3) -0.0750(2) 0.6515(2)
C4 C 0.2013(3) 0.0160(2) 0.6010(2)
C5 C 0.1741(3) 0.1603(2) 0.5818(2)
C6 C 0.3122(3) 0.2120(2) 0.6136(2)
C7 C 0.2575(3) 0.4535(2) 0.4935(2)
C8 C 0.2350(3) 0.5644(2) 0.2668(2)
C9 C 0.3530(3) 0.5306(2) 0.1567(1)
C10 C 0.2898(3) 0.8789(2) 0.0288(2)
C11 C 0.2027(3) 1.0270(2) 0.0467(2)
C12 C 0.0839(3) 1.0649(2) 0.1433(2)
C13 C 0.0064(3) 1.2049(2) 0.1581(2)
C14 C 0.0452(3) 1.3087(2) 0.0778(2)
C15 C 0.1600(3) 1.2738(2) -0.0195(2)
C16 C 0.2377(3) 1.1335(2) -0.0349(2)
loop_
_geom_bond_atom_site_label_1
_geom_bond_atom_site_label_2
_geom_bond_site_symmetry_1
_geom_bond_site_symmetry_2
S1 C7 1_555 1_555
O1 C9 1_555 1_555
N1 N2 1_555 1_555
N2 N3 1_555 1_555
N3 N4 1_555 1_555
N4 C7 1_555 1_555
N5 N6 1_555 1_555
N6 C10 1_555 1_555
C1 C2 1_555 1_555
C2 C3 1_555 1_555
C3 C4 1_555 1_555
C4 C5 1_555 1_555
C5 C6 1_555 1_555
C6 N1 1_555 1_555
C7 N1 1_555 1_555
C8 S1 1_555 1_555
C9 N5 1_555 1_555
C10 C11 1_555 1_555
C11 C12 1_555 1_555
C12 C13 1_555 1_555
C13 C14 1_555 1_555
C14 C15 1_555 1_555
C15 C16 1_555 1_555
C16 C11 1_555 1_555
C1 C6 1_555 1_555
C8 C9 1_555 1_555

#END
