
#######################################################################
#
#                 Cambridge Crystallographic Data Centre
#                                CCDC 
#
#######################################################################
#
# If this CIF has been generated from an entry in the Cambridge 
# Structural Database, then it will include bibliographic, chemical, 
# crystal, experimental, refinement or atomic coordinate data resulting 
# from the CCDC's data processing and validation procedures.
#
#######################################################################

data_GIQJOF01
_chemical_formula_moiety         'C19 H14 N2'
_chemical_name_systematic        N-phenylacridin-9-amine
_symmetry_cell_setting           monoclinic
_symmetry_space_group_name_H-M   'P 21/c'
_symmetry_Int_Tables_number      14
_space_group_name_Hall           '-P 2ybc'
loop_
_symmetry_equiv_pos_site_id
_symmetry_equiv_pos_as_xyz
1 x,y,z
2 -x,1/2+y,1/2-z
3 -x,-y,-z
4 x,1/2-y,1/2+z
_cell_length_a                   13.144(6)
_cell_length_b                   8.737(4)
_cell_length_c                   12.237(4)
_cell_angle_alpha                90
_cell_angle_beta                 92.09(3)
_cell_angle_gamma                90
_cell_volume                     1404.35
_exptl_crystal_colour            orange
_exptl_crystal_description       prism
_cell_formula_units_Z            4
loop_
_atom_site_label
_atom_site_type_symbol
_atom_site_fract_x
_atom_site_fract_y
_atom_site_fract_z
N1 N 0.27249(16) 0.5382(2) 0.46781(15)
H1 H 0.2894(17) 0.575(3) 0.5356(19)
N2 N 0.28982(14) 0.8220(2) 0.19032(15)
C1 C 0.27756(18) 0.6321(3) 0.37625(17)
C2 C 0.36236(17) 0.7274(3) 0.36331(18)
C3 C 0.44526(18) 0.7346(3) 0.4403(2)
H2 H 0.4457 0.6722 0.5019
C4 C 0.52361(19) 0.8310(3) 0.4253(2)
H3 H 0.5769 0.8360 0.4773
C5 C 0.52541(19) 0.9236(3) 0.3321(2)
H4 H 0.5798 0.9898 0.3227
C6 C 0.44905(18) 0.9175(3) 0.2558(2)
H5 H 0.4519 0.9787 0.1938
C7 C 0.36474(17) 0.8197(3) 0.26846(18)
C8 C 0.19542(17) 0.6405(3) 0.29945(18)
C9 C 0.20597(17) 0.7371(3) 0.20668(18)
C10 C 0.12341(19) 0.7483(3) 0.1299(2)
H6 H 0.1303 0.8086 0.0680
C11 C 0.03497(19) 0.6741(3) 0.1440(2)
H7 H -0.0183 0.6834 0.0923
C12 C 0.02351(19) 0.5824(3) 0.2374(2)
H8 H -0.0380 0.5328 0.2477
C13 C 0.10087(17) 0.5655(3) 0.3123(2)
H9 H 0.0920 0.5037 0.3731
C14 C 0.25017(17) 0.3815(3) 0.46511(18)
C15 C 0.26533(18) 0.2935(3) 0.37394(19)
H10 H 0.2887 0.3386 0.3108
C16 C 0.24594(19) 0.1392(3) 0.3762(2)
H11 H 0.2553 0.0807 0.3138
C17 C 0.2131(2) 0.0705(3) 0.4687(2)
H12 H 0.2011 -0.0344 0.4701
C18 C 0.1982(2) 0.1577(3) 0.5593(2)
H13 H 0.1757 0.1116 0.6225
C19 C 0.21590(19) 0.3127(3) 0.55833(19)
H14 H 0.2048 0.3710 0.6204
loop_
_geom_bond_atom_site_label_1
_geom_bond_atom_site_label_2
_geom_bond_site_symmetry_1
_geom_bond_site_symmetry_2
N1 H1 1_555 1_555
N2 C7 1_555 1_555
C1 N1 1_555 1_555
C2 C1 1_555 1_555
C3 C2 1_555 1_555
H2 C3 1_555 1_555
C4 C3 1_555 1_555
H3 C4 1_555 1_555
C5 C4 1_555 1_555
H4 C5 1_555 1_555
C6 C5 1_555 1_555
H5 C6 1_555 1_555
C7 C2 1_555 1_555
C8 C1 1_555 1_555
C9 N2 1_555 1_555
C10 C9 1_555 1_555
H6 C10 1_555 1_555
C11 C10 1_555 1_555
H7 C11 1_555 1_555
C12 C11 1_555 1_555
H8 C12 1_555 1_555
C13 C8 1_555 1_555
H9 C13 1_555 1_555
C14 N1 1_555 1_555
C15 C14 1_555 1_555
H10 C15 1_555 1_555
C16 C15 1_555 1_555
H11 C16 1_555 1_555
C17 C16 1_555 1_555
H12 C17 1_555 1_555
C18 C17 1_555 1_555
H13 C18 1_555 1_555
C19 C14 1_555 1_555
H14 C19 1_555 1_555
C6 C7 1_555 1_555
C8 C9 1_555 1_555
C12 C13 1_555 1_555
C18 C19 1_555 1_555

#END
