
#######################################################################
#
#                 Cambridge Crystallographic Data Centre
#                                CCDC 
#
#######################################################################
#
# If this CIF has been generated from an entry in the Cambridge 
# Structural Database, then it will include bibliographic, chemical, 
# crystal, experimental, refinement or atomic coordinate data resulting 
# from the CCDC's data processing and validation procedures.
#
#######################################################################

data_GIQNOJ
_chemical_formula_moiety         'C17 H23 N3 O6 S2'
_chemical_name_systematic        
21-Methoxy-19-nitro-9-oxa-6,12-dithia-3,15-diazabicyclo(15.3.1)henicosa-1(21),17,19-triene-4,14-dione
_symmetry_cell_setting           triclinic
_symmetry_space_group_name_H-M   'P -1'
_symmetry_Int_Tables_number      2
_space_group_name_Hall           '-P 1'
loop_
_symmetry_equiv_pos_site_id
_symmetry_equiv_pos_as_xyz
1 x,y,z
2 -x,-y,-z
_cell_length_a                   8.172(3)
_cell_length_b                   11.593(3)
_cell_length_c                   12.110(3)
_cell_angle_alpha                64.85(2)
_cell_angle_beta                 70.83(3)
_cell_angle_gamma                87.62(2)
_cell_volume                     974.458
_exptl_crystal_colour            white
_chemical_melting_point          196-197deg.C.(dec.)
_cell_formula_units_Z            2
_exptl_crystal_recrystallization_method ethanol
loop_
_atom_site_label
_atom_site_type_symbol
_atom_site_fract_x
_atom_site_fract_y
_atom_site_fract_z
C1 C 1.1188(5) 0.0027(3) -0.1489(3)
O1 O 1.0431(3) 0.1182(2) -0.2055(2)
C2 C 0.9951(3) 0.1262(2) -0.3074(2)
C3 C 1.1199(3) 0.1750(3) -0.4327(3)
C4 C 1.0683(3) 0.1807(3) -0.5336(3)
C5 C 0.8968(3) 0.1391(3) -0.5072(3)
N1 N 0.8461(3) 0.1440(3) -0.6143(3)
O2 O 0.6964(3) 0.1056(3) -0.5903(2)
O3 O 0.9558(3) 0.1868(3) -0.7224(2)
C6 C 0.7722(3) 0.0964(2) -0.3843(3)
C7 C 0.8205(3) 0.0915(2) -0.2827(2)
C8 C 0.6877(4) 0.0547(3) -0.1487(3)
N2 N 0.6527(3) 0.1661(2) -0.1207(2)
C9 C 0.5245(3) 0.2368(3) -0.1488(3)
O4 O 0.4302(3) 0.2127(2) -0.1988(3)
C10 C 0.5026(4) 0.3477(3) -0.1121(3)
S1 S 0.3853(1) 0.2985(1) 0.0595(1)
C11 C 0.5504(5) 0.2483(4) 0.1343(3)
C12 C 0.7195(5) 0.3345(3) 0.0722(3)
O5 O 0.8283(3) 0.3038(3) -0.0262(2)
C13 C 1.0115(7) 0.3571(5) -0.0975(5)
C15 C 1.0151(8) 0.4721(7) -0.2192(6)
S2 S 1.2412(1) 0.5381(1) -0.3223(1)
C17 C 1.2418(4) 0.5641(3) -0.4790(3)
C18 C 1.2579(3) 0.4505(3) -0.5127(3)
O6 O 1.2320(3) 0.4625(3) -0.6112(2)
N3 N 1.3014(3) 0.3403(2) -0.4343(2)
C19 C 1.3032(3) 0.2272(3) -0.4581(3)
H1 H 1.1493 0.0024 -0.0787
H2 H 1.0355 -0.0701 -0.1166
H3 H 1.2214 -0.0015 -0.2140
H4 H 1.1504 0.2134 -0.6207
H5 H 0.6540 0.0707 -0.3696
H6 H 0.7287 -0.0085 -0.0844
H7 H 0.5810 0.0175 -0.1433
H8 H 0.7395 0.1979 -0.1083
H9 H 0.4407 0.4083 -0.1616
H10 H 0.6154 0.3901 -0.1352
H11 H 0.5787 0.1664 0.1363
H12 H 0.4998 0.2359 0.2228
H13 H 0.7739 0.3216 0.1351
H14 H 0.6973 0.4225 0.0365
H15 H 1.3367 0.6286 -0.5431
H16 H 1.1361 0.5988 -0.4885
H17 H 1.3242 0.3327 -0.3532
H18 H 1.3742 0.2491 -0.5466
H19 H 1.3540 0.1620 -0.4026
C14? C 0.9578(11) 0.4234(9) -0.0992(8)
C16? C 1.0408(11) 0.4168(9) -0.2281(8)
loop_
_geom_bond_atom_site_label_1
_geom_bond_atom_site_label_2
_geom_bond_site_symmetry_1
_geom_bond_site_symmetry_2
C1 O1 1_555 1_555
O1 C2 1_555 1_555
C2 C3 1_555 1_555
C3 C4 1_555 1_555
C4 C5 1_555 1_555
C5 N1 1_555 1_555
N1 O2 1_555 1_555
O3 N1 1_555 1_555
C6 C5 1_555 1_555
C7 C2 1_555 1_555
C8 C7 1_555 1_555
N2 C8 1_555 1_555
C9 N2 1_555 1_555
O4 C9 1_555 1_555
C10 C9 1_555 1_555
S1 C10 1_555 1_555
C11 S1 1_555 1_555
C12 C11 1_555 1_555
O5 C12 1_555 1_555
C13 O5 1_555 1_555
C15 C13 1_555 1_555
S2 C15 1_555 1_555
C17 S2 1_555 1_555
C18 C17 1_555 1_555
O6 C18 1_555 1_555
N3 C18 1_555 1_555
C19 C3 1_555 1_555
H1 C1 1_555 1_555
H2 C1 1_555 1_555
H3 C1 1_555 1_555
H4 C4 1_555 1_555
H5 C6 1_555 1_555
H6 C8 1_555 1_555
H7 C8 1_555 1_555
H8 N2 1_555 1_555
H9 C10 1_555 1_555
H10 C10 1_555 1_555
H11 C11 1_555 1_555
H12 C11 1_555 1_555
H13 C12 1_555 1_555
H14 C12 1_555 1_555
H15 C17 1_555 1_555
H16 C17 1_555 1_555
H17 N3 1_555 1_555
H18 C19 1_555 1_555
H19 C19 1_555 1_555
C6 C7 1_555 1_555
N3 C19 1_555 1_555

#END
