
#######################################################################
#
#                 Cambridge Crystallographic Data Centre
#                                CCDC 
#
#######################################################################
#
# If this CIF has been generated from an entry in the Cambridge 
# Structural Database, then it will include bibliographic, chemical, 
# crystal, experimental, refinement or atomic coordinate data resulting 
# from the CCDC's data processing and validation procedures.
#
#######################################################################

data_GIRKIE
_chemical_formula_moiety         'C20 H19 Br1 N2 O6 S1'
_chemical_name_systematic        
'ethyl 6-(4-bromophenyl)-1-((4-nitrophenyl)sulfonyl)-1,2,5,6-tetrahydropyridine-3-carboxylate'
_symmetry_cell_setting           orthorhombic
_symmetry_space_group_name_H-M   'P 21 21 21'
_symmetry_Int_Tables_number      19
_space_group_name_Hall           'P 2ac 2ab'
loop_
_symmetry_equiv_pos_site_id
_symmetry_equiv_pos_as_xyz
1 x,y,z
2 1/2-x,-y,1/2+z
3 -x,1/2+y,1/2-z
4 1/2+x,1/2-y,-z
_cell_length_a                   6.3961(7)
_cell_length_b                   17.3163(19)
_cell_length_c                   18.213(2)
_cell_angle_alpha                90
_cell_angle_beta                 90
_cell_angle_gamma                90
_cell_volume                     2017.21
_exptl_crystal_colour            colorless
_exptl_crystal_description       block
_cell_formula_units_Z            4
loop_
_atom_site_label
_atom_site_type_symbol
_atom_site_fract_x
_atom_site_fract_y
_atom_site_fract_z
Br1 Br -0.25930(3) 0.588034(8) 0.924445(8)
S1 S -0.06838(6) 1.03494(2) 0.81873(2)
O1 O -0.15112(16) 1.05447(6) 0.74795(6)
O2 O -0.20012(16) 1.03726(6) 0.88259(6)
O3 O 0.31524(16) 0.90529(6) 0.60817(6)
O4 O 0.62074(16) 0.87774(6) 0.66387(6)
O5 O 0.7488(2) 1.23068(6) 0.94279(6)
O6 O 0.80886(17) 1.23801(6) 0.82590(7)
N1 N 0.02420(18) 0.94760(7) 0.81253(7)
N2 N 0.7004(2) 1.21869(7) 0.87855(7)
C1 C -0.1518(2) 0.82458(8) 0.92839(8)
H1 H -0.2195 0.8692 0.9472
C2 C -0.2410(3) 0.75229(8) 0.93930(7)
H2 H -0.3688 0.7471 0.9654
C3 C -0.1403(2) 0.68812(9) 0.91145(8)
C4 C 0.0476(3) 0.69395(9) 0.87370(8)
H3 H 0.1156 0.6491 0.8555
C5 C 0.1340(3) 0.76668(9) 0.86311(9)
H4 H 0.2619 0.7715 0.8370
C6 C 0.0365(2) 0.83240(8) 0.89001(8)
C7 C 0.1229(2) 0.91349(10) 0.87879(8)
H5 H 0.0780 0.9452 0.9219
C8 C 0.3626(2) 0.91809(10) 0.87456(8)
H6 H 0.4081 0.9691 0.8931
H7 H 0.4229 0.8782 0.9072
C9 C 0.4480(2) 0.90696(9) 0.79865(8)
H8 H 0.5945 0.9000 0.7932
C10 C 0.3304(2) 0.90633(9) 0.73864(8)
C11 C 0.0962(2) 0.91730(10) 0.74137(8)
H9 H 0.0539 0.9535 0.7020
H10 H 0.0270 0.8671 0.7319
C12 C 0.1474(2) 1.09613(8) 0.83722(8)
C13 C 0.1941(2) 1.11779(9) 0.90898(8)
H11 H 0.1031 1.1041 0.9481
C14 C 0.3749(2) 1.15957(8) 0.92284(9)
H12 H 0.4107 1.1747 0.9714
C15 C 0.5016(2) 1.17861(8) 0.86388(8)
C16 C 0.4548(3) 1.15920(9) 0.79204(8)
H13 H 0.5440 1.1742 0.7529
C17 C 0.2751(2) 1.11739(8) 0.77885(8)
H14 H 0.2387 1.1032 0.7301
C18 C 0.4176(2) 0.89681(8) 0.66329(8)
C19 C 0.7228(3) 0.87270(9) 0.59220(8)
H15 H 0.6301 0.8451 0.5574
H16 H 0.8539 0.8427 0.5969
C20 C 0.7721(3) 0.95185(10) 0.56227(8)
H17 H 0.6417 0.9784 0.5495
H18 H 0.8594 0.9468 0.5183
H19 H 0.8473 0.9818 0.5995
loop_
_geom_bond_atom_site_label_1
_geom_bond_atom_site_label_2
_geom_bond_site_symmetry_1
_geom_bond_site_symmetry_2
Br1 C3 1_555 1_555
S1 O1 1_555 1_555
O2 S1 1_555 1_555
O3 C18 1_555 1_555
O4 C18 1_555 1_555
O5 N2 1_555 1_555
O6 N2 1_555 1_555
N1 S1 1_555 1_555
N2 C15 1_555 1_555
C1 H1 1_555 1_555
C2 C1 1_555 1_555
H2 C2 1_555 1_555
C3 C2 1_555 1_555
C4 C3 1_555 1_555
H3 C4 1_555 1_555
C5 C4 1_555 1_555
H4 C5 1_555 1_555
C6 C1 1_555 1_555
C7 N1 1_555 1_555
H5 C7 1_555 1_555
C8 C7 1_555 1_555
H6 C8 1_555 1_555
H7 C8 1_555 1_555
C9 C8 1_555 1_555
H8 C9 1_555 1_555
C10 C9 1_555 1_555
C11 N1 1_555 1_555
H9 C11 1_555 1_555
H10 C11 1_555 1_555
C12 S1 1_555 1_555
C13 C12 1_555 1_555
H11 C13 1_555 1_555
C14 C13 1_555 1_555
H12 C14 1_555 1_555
C15 C14 1_555 1_555
C16 C15 1_555 1_555
H13 C16 1_555 1_555
C17 C12 1_555 1_555
H14 C17 1_555 1_555
C18 C10 1_555 1_555
C19 O4 1_555 1_555
H15 C19 1_555 1_555
H16 C19 1_555 1_555
C20 C19 1_555 1_555
H17 C20 1_555 1_555
H18 C20 1_555 1_555
H19 C20 1_555 1_555
C5 C6 1_555 1_555
C6 C7 1_555 1_555
C10 C11 1_555 1_555
C16 C17 1_555 1_555

#END
