
#######################################################################
#
#                 Cambridge Crystallographic Data Centre
#                                CCDC 
#
#######################################################################
#
# If this CIF has been generated from an entry in the Cambridge 
# Structural Database, then it will include bibliographic, chemical, 
# crystal, experimental, refinement or atomic coordinate data resulting 
# from the CCDC's data processing and validation procedures.
#
#######################################################################

data_GIRQIK
_chemical_formula_moiety         'C14 H24 O2'
_chemical_name_systematic        
5-(hydroxymethyl)-3,5-dimethyl-7-(prop-1-en-2-yl)bicyclo[2.2.2]octan-2-ol
_symmetry_cell_setting           monoclinic
_symmetry_space_group_name_H-M   'C 2'
_symmetry_Int_Tables_number      5
_space_group_name_Hall           'C 2y'
loop_
_symmetry_equiv_pos_site_id
_symmetry_equiv_pos_as_xyz
1 x,y,z
2 -x,y,-z
3 1/2+x,1/2+y,z
4 1/2-x,1/2+y,-z
_cell_length_a                   14.536(2)
_cell_length_b                   6.2971(10)
_cell_length_c                   14.391(2)
_cell_angle_alpha                90
_cell_angle_beta                 100.851(10)
_cell_angle_gamma                90
_cell_volume                     1293.72
_exptl_crystal_colour            colorless
_exptl_crystal_description       needle
_cell_formula_units_Z            4
_exptl_crystal_recrystallization_method dichloromethane
loop_
_atom_site_label
_atom_site_type_symbol
_atom_site_fract_x
_atom_site_fract_y
_atom_site_fract_z
O1 O 0.62265(6) 0.77842(16) 0.59042(7)
H1 H 0.6139(12) 0.784(3) 0.5344(13)
O2 O 0.93811(7) 0.28466(19) 0.60670(6)
H2 H 0.9938(14) 0.279(4) 0.6136(12)
C1 C 0.72920(9) 0.6957(2) 0.73650(9)
H3 H 0.7154 0.8429 0.7561
C2 C 0.71149(9) 0.6807(2) 0.62798(9)
H4 H 0.7616 0.7630 0.6050
C3 C 0.71882(9) 0.4428(2) 0.59773(9)
H5 H 0.7603 0.4375 0.5497
C4 C 0.76763(9) 0.3165(2) 0.68575(9)
H6 H 0.7811 0.1690 0.6663
C5 C 0.86085(9) 0.4259(2) 0.73253(9)
C6 C 0.83387(9) 0.6420(2) 0.77406(9)
H7 H 0.8454 0.6333 0.8440
H8 H 0.8737 0.7567 0.7561
C7 C 0.66563(9) 0.5352(2) 0.77564(9)
H9 H 0.6018 0.5489 0.7356
C8 C 0.70128(9) 0.3071(2) 0.75838(9)
H10 H 0.7351 0.2469 0.8188
H11 H 0.6473 0.2138 0.7341
C9 C 0.62389(9) 0.3449(2) 0.55275(10)
H12 H 0.5783 0.3714 0.5937
H13 H 0.6312 0.1915 0.5453
H14 H 0.6016 0.4094 0.4906
C10 C 0.92400(9) 0.4719(2) 0.65961(10)
H15 H 0.8947 0.5839 0.6155
H16 H 0.9854 0.5255 0.6930
C11 C 0.91808(9) 0.2836(3) 0.80986(9)
H17 H 0.9750 0.3588 0.8399
H18 H 0.9353 0.1519 0.7812
H19 H 0.8803 0.2499 0.8576
C12 C 0.65449(9) 0.5695(3) 0.87818(9)
C13 C 0.68915(10) 0.7347(3) 0.93048(10)
H20 H 0.6782 0.7491 0.9932
H21 H 0.7250 0.8386 0.9052
C14 C 0.59711(10) 0.4014(3) 0.91685(10)
H22 H 0.5868 0.4446 0.9795
H23 H 0.6308 0.2659 0.9220
H24 H 0.5366 0.3851 0.8740
loop_
_geom_bond_atom_site_label_1
_geom_bond_atom_site_label_2
_geom_bond_site_symmetry_1
_geom_bond_site_symmetry_2
O1 H1 1_555 1_555
O2 H2 1_555 1_555
C1 H3 1_555 1_555
C2 O1 1_555 1_555
H4 C2 1_555 1_555
C3 C2 1_555 1_555
H5 C3 1_555 1_555
C4 C3 1_555 1_555
H6 C4 1_555 1_555
C5 C4 1_555 1_555
C6 C1 1_555 1_555
H7 C6 1_555 1_555
H8 C6 1_555 1_555
C7 C1 1_555 1_555
H9 C7 1_555 1_555
C8 C4 1_555 1_555
H10 C8 1_555 1_555
H11 C8 1_555 1_555
C9 C3 1_555 1_555
H12 C9 1_555 1_555
H13 C9 1_555 1_555
H14 C9 1_555 1_555
C10 O2 1_555 1_555
H15 C10 1_555 1_555
H16 C10 1_555 1_555
C11 C5 1_555 1_555
H17 C11 1_555 1_555
H18 C11 1_555 1_555
H19 C11 1_555 1_555
C12 C7 1_555 1_555
C13 C12 1_555 1_555
H20 C13 1_555 1_555
H21 C13 1_555 1_555
C14 C12 1_555 1_555
H22 C14 1_555 1_555
H23 C14 1_555 1_555
H24 C14 1_555 1_555
C1 C2 1_555 1_555
C5 C6 1_555 1_555
C5 C10 1_555 1_555
C7 C8 1_555 1_555

#END
