
#######################################################################
#
#                 Cambridge Crystallographic Data Centre
#                                CCDC 
#
#######################################################################
#
# If this CIF has been generated from an entry in the Cambridge 
# Structural Database, then it will include bibliographic, chemical, 
# crystal, experimental, refinement or atomic coordinate data resulting 
# from the CCDC's data processing and validation procedures.
#
#######################################################################

data_GIRTUX
_chemical_formula_moiety         'C15 H17 N3 O4 S1'
_chemical_name_systematic        
'4-Nitrophenyl N-(2-isopropylthiazol-4-ylmethyl)-N-methylcarbamate'
_symmetry_cell_setting           orthorhombic
_symmetry_space_group_name_H-M   'P b c a'
_symmetry_Int_Tables_number      61
_space_group_name_Hall           '-P 2ac 2ab'
loop_
_symmetry_equiv_pos_site_id
_symmetry_equiv_pos_as_xyz
1 x,y,z
2 1/2-x,-y,1/2+z
3 -x,1/2+y,1/2-z
4 1/2+x,1/2-y,-z
5 -x,-y,-z
6 1/2+x,y,1/2-z
7 x,1/2-y,1/2+z
8 1/2-x,1/2+y,z
_cell_length_a                   12.250(3)
_cell_length_b                   10.876(2)
_cell_length_c                   24.845(5)
_cell_angle_alpha                90
_cell_angle_beta                 90
_cell_angle_gamma                90
_cell_volume                     3310.12
_exptl_crystal_colour            colorless
_exptl_crystal_description       block
_chemical_melting_point          '330 K'
_cell_formula_units_Z            8
_exptl_crystal_recrystallization_method ethanol
loop_
_atom_site_label
_atom_site_type_symbol
_atom_site_fract_x
_atom_site_fract_y
_atom_site_fract_z
S1 S 0.33658(15) 0.04646(16) 0.50156(7)
N1 N 0.2887(3) -0.0166(3) 0.68311(16)
O1 O 0.1531(3) -0.1308(3) 0.71949(15)
C1 C 0.5582(5) 0.2987(6) 0.4986(2)
H1 H 0.5915 0.2283 0.5152
H2 H 0.5618 0.3675 0.5227
H3 H 0.5963 0.3182 0.4659
O2 O 0.1198(2) 0.0537(3) 0.68088(16)
N2 N -0.3347(4) 0.0160(5) 0.6666(2)
C2 C 0.3731(4) 0.3175(5) 0.4459(2)
H4 H 0.4102 0.3809 0.4262
H5 H 0.3087 0.3510 0.4623
H6 H 0.3529 0.2523 0.4218
O3 O -0.3851(3) 0.1042(4) 0.6861(2)
C3 C 0.4429(5) 0.2710(6) 0.4862(3)
H7 H 0.4661 0.2049 0.4619
O4 O -0.3738(3) -0.0692(5) 0.6433(2)
C4 C 0.3950(5) 0.1777(6) 0.5238(3)
N3 N 0.3889(4) 0.1941(5) 0.5758(2)
C5 C 0.3383(4) 0.0953(4) 0.6001(2)
C6 C 0.3035(5) 0.0073(6) 0.5665(2)
H8 H 0.2670 -0.0640 0.5767
C7 C 0.3260(4) 0.0983(4) 0.6607(2)
H9 H 0.3959 0.1191 0.6767
H10 H 0.2746 0.1625 0.6703
C8 C 0.3718(3) -0.1137(4) 0.6951(2)
H11 H 0.3359 -0.1851 0.7094
H12 H 0.4231 -0.0830 0.7210
H13 H 0.4096 -0.1353 0.6626
C9 C 0.1861(4) -0.0440(5) 0.69588(18)
C10 C 0.0078(3) 0.0370(4) 0.6816(2)
C11 C -0.0386(4) -0.0625(4) 0.6552(2)
H14 H 0.0058 -0.1238 0.6409
C12 C -0.1534(4) -0.0707(5) 0.6500(2)
H15 H -0.1871 -0.1356 0.6322
C13 C -0.2133(3) 0.0258(5) 0.67368(19)
C14 C -0.1691(4) 0.1211(4) 0.6979(2)
H16 H -0.2127 0.1839 0.7113
C15 C -0.0556(3) 0.1265(4) 0.70306(18)
H17 H -0.0235 0.1918 0.7213
loop_
_geom_bond_atom_site_label_1
_geom_bond_atom_site_label_2
_geom_bond_site_symmetry_1
_geom_bond_site_symmetry_2
S1 C4 1_555 1_555
N1 C7 1_555 1_555
O1 C9 1_555 1_555
C1 H1 1_555 1_555
H2 C1 1_555 1_555
H3 C1 1_555 1_555
O2 C9 1_555 1_555
N2 O3 1_555 1_555
C2 H4 1_555 1_555
H5 C2 1_555 1_555
H6 C2 1_555 1_555
C3 C1 1_555 1_555
H7 C3 1_555 1_555
O4 N2 1_555 1_555
C4 C3 1_555 1_555
N3 C4 1_555 1_555
C5 N3 1_555 1_555
C6 S1 1_555 1_555
H8 C6 1_555 1_555
C7 C5 1_555 1_555
H9 C7 1_555 1_555
H10 C7 1_555 1_555
C8 N1 1_555 1_555
H11 C8 1_555 1_555
H12 C8 1_555 1_555
H13 C8 1_555 1_555
C9 N1 1_555 1_555
C10 O2 1_555 1_555
C11 C10 1_555 1_555
H14 C11 1_555 1_555
C12 C11 1_555 1_555
H15 C12 1_555 1_555
C13 N2 1_555 1_555
C14 C13 1_555 1_555
H16 C14 1_555 1_555
C15 C10 1_555 1_555
H17 C15 1_555 1_555
C2 C3 1_555 1_555
C5 C6 1_555 1_555
C12 C13 1_555 1_555
C14 C15 1_555 1_555

#END
