
#######################################################################
#
#                 Cambridge Crystallographic Data Centre
#                                CCDC 
#
#######################################################################
#
# If this CIF has been generated from an entry in the Cambridge 
# Structural Database, then it will include bibliographic, chemical, 
# crystal, experimental, refinement or atomic coordinate data resulting 
# from the CCDC's data processing and validation procedures.
#
#######################################################################

data_GIRYUC
_chemical_formula_moiety         'C18 H18 O3'
_chemical_name_systematic        6,6'-Oxydichroman
_symmetry_cell_setting           orthorhombic
_symmetry_space_group_name_H-M   'F d d 2'
_symmetry_Int_Tables_number      43
_space_group_name_Hall           'F 2 -2d'
loop_
_symmetry_equiv_pos_site_id
_symmetry_equiv_pos_as_xyz
1 x,y,z
2 -x,-y,z
3 1/4+x,1/4-y,1/4+z
4 1/4-x,1/4+y,1/4+z
5 x,1/2+y,1/2+z
6 -x,1/2-y,1/2+z
7 1/4+x,3/4-y,3/4+z
8 1/4-x,3/4+y,3/4+z
9 1/2+x,y,1/2+z
10 1/2-x,-y,1/2+z
11 3/4+x,1/4-y,3/4+z
12 3/4-x,1/4+y,3/4+z
13 1/2+x,1/2+y,z
14 1/2-x,1/2-y,z
15 3/4+x,3/4-y,1/4+z
16 3/4-x,3/4+y,1/4+z
_cell_length_a                   17.515(4)
_cell_length_b                   29.660(6)
_cell_length_c                   5.7680(12)
_cell_angle_alpha                90
_cell_angle_beta                 90
_cell_angle_gamma                90
_cell_volume                     2996.45
_exptl_crystal_colour            colorless
_exptl_crystal_description       prism
_cell_formula_units_Z            8
loop_
_atom_site_label
_atom_site_type_symbol
_atom_site_fract_x
_atom_site_fract_y
_atom_site_fract_z
O1 O 0.5000 0.5000 0.0623(13)
O2 O 0.7616(2) 0.44456(13) 0.5838(9)
C1 C 0.6782(2) 0.43486(12) 0.2525(7)
C2 C 0.6140(2) 0.44952(12) 0.1313(7)
H1 H 0.6008 0.4345 -0.0045
C3 C 0.5687(2) 0.48541(13) 0.2029(8)
C4 C 0.5900(2) 0.50701(12) 0.4073(8)
H2 H 0.5609 0.5310 0.4615
C5 C 0.6539(2) 0.49345(13) 0.5317(8)
H3 H 0.6670 0.5087 0.6669
C6 C 0.69851(19) 0.45734(12) 0.4570(7)
C7 C 0.7245(3) 0.39470(15) 0.1747(9)
H4 H 0.7590 0.4039 0.0521
H5 H 0.6904 0.3719 0.1122
C8 C 0.7703(3) 0.37452(17) 0.3725(12)
H6 H 0.7361 0.3583 0.4754
H7 H 0.8067 0.3531 0.3104
C9 C 0.8113(3) 0.40910(16) 0.5053(11)
H8 H 0.8355 0.3951 0.6384
H9 H 0.8511 0.4220 0.4091
O2A O 0.2384(2) 0.55544(13) 0.5838(9)
C1A C 0.3218(2) 0.56514(12) 0.2525(7)
C2A C 0.3860(2) 0.55048(12) 0.1313(7)
H1A H 0.3992 0.5655 -0.0045
C3A C 0.4313(2) 0.51459(13) 0.2029(8)
C4A C 0.4100(2) 0.49299(12) 0.4073(8)
H2A H 0.4391 0.4690 0.4615
C5A C 0.3461(2) 0.50655(13) 0.5317(8)
H3A H 0.3330 0.4913 0.6669
C6A C 0.30149(19) 0.54266(12) 0.4570(7)
C7A C 0.2755(3) 0.60530(15) 0.1747(9)
H4A H 0.2410 0.5961 0.0521
H5A H 0.3096 0.6281 0.1122
C8A C 0.2297(3) 0.62548(17) 0.3725(12)
H6A H 0.2639 0.6417 0.4754
H7A H 0.1933 0.6469 0.3104
C9A C 0.1887(3) 0.59090(16) 0.5053(11)
H8A H 0.1645 0.6049 0.6384
H9A H 0.1489 0.5780 0.4091
loop_
_geom_bond_atom_site_label_1
_geom_bond_atom_site_label_2
_geom_bond_site_symmetry_1
_geom_bond_site_symmetry_2
O1 C3 1_555 1_555
O2 C6 1_555 1_555
C1 C2 1_555 1_555
C2 H1 1_555 1_555
C3 C2 1_555 1_555
C4 C3 1_555 1_555
H2 C4 1_555 1_555
C5 C4 1_555 1_555
H3 C5 1_555 1_555
C6 C1 1_555 1_555
C7 C1 1_555 1_555
H4 C7 1_555 1_555
H5 C7 1_555 1_555
C8 C7 1_555 1_555
H6 C8 1_555 1_555
H7 C8 1_555 1_555
C9 O2 1_555 1_555
H8 C9 1_555 1_555
H9 C9 1_555 1_555
O2A C6A 1_555 1_555
C1A C2A 1_555 1_555
C2A H1A 1_555 1_555
C3A O1 1_555 1_555
C4A C3A 1_555 1_555
H2A C4A 1_555 1_555
C5A C4A 1_555 1_555
H3A C5A 1_555 1_555
C6A C1A 1_555 1_555
C7A C1A 1_555 1_555
H4A C7A 1_555 1_555
H5A C7A 1_555 1_555
C8A C7A 1_555 1_555
H6A C8A 1_555 1_555
H7A C8A 1_555 1_555
C9A O2A 1_555 1_555
H8A C9A 1_555 1_555
H9A C9A 1_555 1_555
C5 C6 1_555 1_555
C8 C9 1_555 1_555
C2A C3A 1_555 1_555
C5A C6A 1_555 1_555
C8A C9A 1_555 1_555

#END
