
#######################################################################
#
#                 Cambridge Crystallographic Data Centre
#                                CCDC 
#
#######################################################################
#
# If this CIF has been generated from an entry in the Cambridge 
# Structural Database, then it will include bibliographic, chemical, 
# crystal, experimental, refinement or atomic coordinate data resulting 
# from the CCDC's data processing and validation procedures.
#
#######################################################################

data_GISLOL
_chemical_formula_moiety         'C14 H21 N1 O1'
_chemical_name_systematic        
N-Ethyl-2,2-dimethyl-N-(3-methylphenyl)propanamide
_symmetry_cell_setting           monoclinic
_symmetry_space_group_name_H-M   'P 21'
_symmetry_Int_Tables_number      4
_space_group_name_Hall           'P 2yb'
loop_
_symmetry_equiv_pos_site_id
_symmetry_equiv_pos_as_xyz
1 x,y,z
2 -x,1/2+y,-z
_cell_length_a                   7.631(4)
_cell_length_b                   10.878(7)
_cell_length_c                   8.350(3)
_cell_angle_alpha                90
_cell_angle_beta                 105.60(2)
_cell_angle_gamma                90
_cell_volume                     667.6
_exptl_crystal_colour            yellow
_exptl_crystal_description       Prism
_chemical_melting_point          '492 K'
_cell_formula_units_Z            2
loop_
_atom_site_label
_atom_site_type_symbol
_atom_site_fract_x
_atom_site_fract_y
_atom_site_fract_z
O1 O 0.2284(2) 0.7636(3) 0.6964(2)
N1 N 0.4145(3) 0.7530(3) 0.9461(2)
C1 C 0.5373(3) 0.7418(3) 0.6942(3)
C2 C 0.8300(4) 0.8185(3) 1.2843(3)
C3 C 0.3855(3) 0.7522(3) 0.7806(3)
C4 C 0.5820(3) 0.7342(3) 1.0730(3)
C5 C 0.6765(4) 0.8340(3) 1.1519(3)
H1 H 0.6374 0.9128 1.1164
C6 C 0.6371(4) 0.6191(3) 1.1298(3)
H2 H 0.5716 0.5510 1.0789
C7 C 0.7875(4) 0.6028(3) 1.2607(4)
H3 H 0.8249 0.5239 1.2975
C8 C 0.8829(4) 0.7029(3) 1.3376(3)
H4 H 0.9848 0.6916 1.4271
C9 C 0.9325(5) 0.9283(4) 1.3690(5)
H5 H 0.9820 0.9109 1.4851
H6 H 0.8515 0.9974 1.3563
H7 H 1.0295 0.9472 1.3200
C10 C 0.4518(6) 0.7552(8) 0.5111(5)
H8 H 0.5454 0.7608 0.4542
H9 H 0.3787 0.8283 0.4908
H10 H 0.3766 0.6849 0.4710
C11 C 0.6307(11) 0.6209(5) 0.7262(9)
H11 H 0.5417 0.5564 0.7079
H12 H 0.7044 0.6178 0.8392
H13 H 0.7066 0.6103 0.6523
C12 C 0.6785(8) 0.8393(6) 0.7487(7)
H14 H 0.7324 0.8325 0.8663
H15 H 0.6230 0.9187 0.7237
H16 H 0.7708 0.8293 0.6910
C13 C 0.2598(9) 0.7879(9) 1.0135(7)
H17 H 0.1744 0.8395 0.9348
H18 H 0.3035 0.8329 1.1169
C14 C 0.1691(10) 0.6700(7) 1.0428(8)
H19 H 0.1289 0.6256 0.9400
H20 H 0.0664 0.6887 1.0843
H21 H 0.2542 0.6207 1.1226
C15? C 0.2459(15) 0.7104(19) 1.0046(14)
H22? H 0.1529 0.6742 0.9142
H23? H 0.2801 0.6522 1.0958
C16? C 0.1877(19) 0.8243(14) 1.0567(15)
H24? H 0.2883 0.8636 1.1337
H25? H 0.0925 0.8096 1.1096
H26? H 0.1429 0.8765 0.9617
loop_
_geom_bond_atom_site_label_1
_geom_bond_atom_site_label_2
_geom_bond_site_symmetry_1
_geom_bond_site_symmetry_2
O1 C3 1_555 1_555
N1 C3 1_555 1_555
C1 C3 1_555 1_555
C2 C5 1_555 1_555
C4 N1 1_555 1_555
C5 C4 1_555 1_555
H1 C5 1_555 1_555
C6 C4 1_555 1_555
H2 C6 1_555 1_555
C7 C6 1_555 1_555
H3 C7 1_555 1_555
C8 C2 1_555 1_555
H4 C8 1_555 1_555
C9 C2 1_555 1_555
H5 C9 1_555 1_555
H6 C9 1_555 1_555
H7 C9 1_555 1_555
C10 C1 1_555 1_555
H8 C10 1_555 1_555
H9 C10 1_555 1_555
H10 C10 1_555 1_555
C11 C1 1_555 1_555
H11 C11 1_555 1_555
H12 C11 1_555 1_555
H13 C11 1_555 1_555
C12 C1 1_555 1_555
H14 C12 1_555 1_555
H15 C12 1_555 1_555
H16 C12 1_555 1_555
C13 N1 1_555 1_555
H17 C13 1_555 1_555
H18 C13 1_555 1_555
C14 C13 1_555 1_555
H19 C14 1_555 1_555
H20 C14 1_555 1_555
H21 C14 1_555 1_555
C7 C8 1_555 1_555

#END
