
#######################################################################
#
#                 Cambridge Crystallographic Data Centre
#                                CCDC 
#
#######################################################################
#
# If this CIF has been generated from an entry in the Cambridge 
# Structural Database, then it will include bibliographic, chemical, 
# crystal, experimental, refinement or atomic coordinate data resulting 
# from the CCDC's data processing and validation procedures.
#
#######################################################################

data_GISQIJ
_chemical_formula_moiety         'C31 H16 F6 N2 O4'
_chemical_name_systematic        
N,N'-((bis(Trifluoromethyl)methylene)di-p-phenylene)diphthalimide
_symmetry_cell_setting           orthorhombic
_symmetry_space_group_name_H-M   'P c c a'
_symmetry_Int_Tables_number      54
_space_group_name_Hall           '-P 2a 2ac'
loop_
_symmetry_equiv_pos_site_id
_symmetry_equiv_pos_as_xyz
1 x,y,z
2 1/2-x,-y,z
3 -x,y,1/2-z
4 1/2+x,-y,1/2-z
5 -x,-y,-z
6 1/2+x,y,-z
7 x,-y,1/2+z
8 1/2-x,y,1/2+z
_cell_length_a                   13.3588(19)
_cell_length_b                   12.5340(18)
_cell_length_c                   15.792(2)
_cell_angle_alpha                90
_cell_angle_beta                 90
_cell_angle_gamma                90
_cell_volume                     2644.2
_exptl_crystal_colour            colorless
_exptl_crystal_description       block
_cell_formula_units_Z            4
_exptl_crystal_recrystallization_method dimethylformamide
loop_
_atom_site_label
_atom_site_type_symbol
_atom_site_fract_x
_atom_site_fract_y
_atom_site_fract_z
C1 C 0.1413(6) 0.5169(6) 0.0925(5)
F1 F 0.1409(5) 0.5845(3) 0.0233(3)
F2 F 0.0992(5) 0.4244(3) 0.0577(3)
F3 F 0.0585(4) 0.5547(4) 0.1406(4)
C3 C 0.2500 0.5000 0.1377(3)
C4 C 0.2705(3) 0.6000(2) 0.1916(2)
C5 C 0.2369(3) 0.7005(3) 0.1690(2)
H1 H 0.1967 0.7089 0.1214
C6 C 0.3309(3) 0.5905(3) 0.2625(2)
H2 H 0.3531 0.5233 0.2788
C7 C 0.2630(3) 0.7884(2) 0.21707(19)
H3 H 0.2388 0.8554 0.2022
C8 C 0.3592(3) 0.6783(3) 0.3097(2)
H4 H 0.4011 0.6706 0.3564
C9 C 0.3240(2) 0.7780(2) 0.28632(19)
C10 C 0.3798(2) 0.9679(2) 0.29929(19)
C11 C 0.3466(2) 0.8763(3) 0.42443(19)
C12 C 0.3948(2) 1.0421(2) 0.37121(19)
C13 C 0.4248(3) 1.1469(3) 0.3716(2)
H5 H 0.4403 1.1826 0.3217
C14 C 0.4310(3) 1.1972(3) 0.4497(2)
H6 H 0.4506 1.2683 0.4522
C15 C 0.4084(3) 1.1434(3) 0.5240(2)
H7 H 0.4129 1.1791 0.5755
C16 C 0.3795(2) 1.0383(3) 0.5228(2)
H8 H 0.3648 1.0021 0.5726
C17 C 0.3731(2) 0.9880(2) 0.44536(18)
N1 N 0.35108(19) 0.86997(19) 0.33529(15)
O1 O 0.38753(18) 0.98510(18) 0.22441(13)
O2 O 0.32502(19) 0.80458(19) 0.47064(14)
C1A C 0.3587(6) 0.4831(6) 0.0925(5)
F1A F 0.3591(5) 0.4155(3) 0.0233(3)
F2A F 0.4008(5) 0.5756(3) 0.0577(3)
F3A F 0.4415(4) 0.4453(4) 0.1406(4)
C4A C 0.2295(3) 0.4000(2) 0.1916(2)
C5A C 0.2631(3) 0.2995(3) 0.1690(2)
H1A H 0.3033 0.2911 0.1214
C6A C 0.1691(3) 0.4095(3) 0.2625(2)
H2A H 0.1469 0.4767 0.2788
C7A C 0.2370(3) 0.2116(2) 0.21707(19)
H3A H 0.2612 0.1446 0.2022
C8A C 0.1408(3) 0.3217(3) 0.3097(2)
H4A H 0.0989 0.3294 0.3564
C9A C 0.1760(2) 0.2220(2) 0.28632(19)
C10A C 0.1202(2) 0.0321(2) 0.29929(19)
C11A C 0.1534(2) 0.1237(3) 0.42443(19)
C12A C 0.1052(2) -0.0421(2) 0.37121(19)
C13A C 0.0752(3) -0.1469(3) 0.3716(2)
H5A H 0.0597 -0.1826 0.3217
C14A C 0.0690(3) -0.1972(3) 0.4497(2)
H6A H 0.0494 -0.2683 0.4522
C15A C 0.0916(3) -0.1434(3) 0.5240(2)
H7A H 0.0871 -0.1791 0.5755
C16A C 0.1205(2) -0.0383(3) 0.5228(2)
H8A H 0.1352 -0.0021 0.5726
C17A C 0.1269(2) 0.0120(2) 0.44536(18)
N1A N 0.14892(19) 0.13003(19) 0.33529(15)
O1A O 0.11247(18) 0.01490(18) 0.22441(13)
O2A O 0.17498(19) 0.19542(19) 0.47064(14)
C2? C 0.1891(7) 0.5093(6) 0.0641(4)
F4? F 0.2253(6) 0.5779(5) 0.0078(4)
F5? F 0.1774(6) 0.4132(4) 0.0295(4)
F6? F 0.1045(5) 0.5408(7) 0.1022(6)
loop_
_geom_bond_atom_site_label_1
_geom_bond_atom_site_label_2
_geom_bond_site_symmetry_1
_geom_bond_site_symmetry_2
C1 F1 1_555 1_555
F2 C1 1_555 1_555
F3 C1 1_555 1_555
C3 C1 1_555 1_555
C4 C3 1_555 1_555
C5 C4 1_555 1_555
H1 C5 1_555 1_555
C6 C4 1_555 1_555
H2 C6 1_555 1_555
C7 C5 1_555 1_555
H3 C7 1_555 1_555
C8 C6 1_555 1_555
H4 C8 1_555 1_555
C9 C7 1_555 1_555
C10 C12 1_555 1_555
C11 C17 1_555 1_555
C12 C13 1_555 1_555
C13 H5 1_555 1_555
C14 C13 1_555 1_555
H6 C14 1_555 1_555
C15 C14 1_555 1_555
H7 C15 1_555 1_555
C16 C15 1_555 1_555
H8 C16 1_555 1_555
C17 C12 1_555 1_555
N1 C9 1_555 1_555
O1 C10 1_555 1_555
O2 C11 1_555 1_555
C1A C3 1_555 1_555
F1A C1A 1_555 1_555
F2A C1A 1_555 1_555
F3A C1A 1_555 1_555
C4A C3 1_555 1_555
C5A C4A 1_555 1_555
H1A C5A 1_555 1_555
C6A C4A 1_555 1_555
H2A C6A 1_555 1_555
C7A C5A 1_555 1_555
H3A C7A 1_555 1_555
C8A C6A 1_555 1_555
H4A C8A 1_555 1_555
C9A C7A 1_555 1_555
C10A C12A 1_555 1_555
C11A C17A 1_555 1_555
C12A C13A 1_555 1_555
C13A H5A 1_555 1_555
C14A C13A 1_555 1_555
H6A C14A 1_555 1_555
C15A C14A 1_555 1_555
H7A C15A 1_555 1_555
C16A C15A 1_555 1_555
H8A C16A 1_555 1_555
C17A C12A 1_555 1_555
N1A C9A 1_555 1_555
O1A C10A 1_555 1_555
O2A C11A 1_555 1_555
C8 C9 1_555 1_555
C10 N1 1_555 1_555
C11 N1 1_555 1_555
C16 C17 1_555 1_555
C8A C9A 1_555 1_555
C10A N1A 1_555 1_555
C11A N1A 1_555 1_555
C16A C17A 1_555 1_555

#END
