
#######################################################################
#
#                 Cambridge Crystallographic Data Centre
#                                CCDC 
#
#######################################################################
#
# If this CIF has been generated from an entry in the Cambridge 
# Structural Database, then it will include bibliographic, chemical, 
# crystal, experimental, refinement or atomic coordinate data resulting 
# from the CCDC's data processing and validation procedures.
#
#######################################################################

data_GITBIV
_chemical_formula_moiety         'C10 H17 N3 2+,2(Br1 1-)'
_chemical_name_systematic        
'(S)-2-Amino-1-(pyrrolidinium-2-ylmethyl)pyridinium dibromide'
_symmetry_cell_setting           monoclinic
_symmetry_space_group_name_H-M   'P 21'
_symmetry_Int_Tables_number      4
_space_group_name_Hall           'P 2yb'
loop_
_symmetry_equiv_pos_site_id
_symmetry_equiv_pos_as_xyz
1 x,y,z
2 -x,1/2+y,-z
_cell_length_a                   10.5509(5)
_cell_length_b                   6.1755(3)
_cell_length_c                   10.8474(6)
_cell_angle_alpha                90
_cell_angle_beta                 107.4830(14)
_cell_angle_gamma                90
_cell_volume                     674.136
_exptl_crystal_colour            colorless
_exptl_crystal_description       platelet
_cell_formula_units_Z            2
_exptl_crystal_recrystallization_method ethanol
loop_
_atom_site_label
_atom_site_type_symbol
_atom_site_fract_x
_atom_site_fract_y
_atom_site_fract_z
Br1 Br 0.12426(6) 0.7373(2) 0.07481(6)
Br2 Br 0.36075(6) 0.4571(2) 0.62553(6)
N1 N 0.2124(4) 0.2325(8) 0.0528(4)
N2 N 0.2014(4) 0.1711(7) 0.3238(4)
N3 N 0.3461(4) -0.1049(8) 0.4252(5)
C1 C 0.3320(5) 0.2156(10) 0.1669(5)
C2 C 0.4356(6) 0.3574(10) 0.1293(7)
C3 C 0.3902(8) 0.3654(13) -0.0157(8)
C4 C 0.2652(7) 0.2334(12) -0.0600(6)
C5 C 0.3056(6) 0.2905(8) 0.2915(6)
C6 C 0.0744(6) 0.2588(11) 0.2846(6)
C7 C -0.0286(6) 0.1613(11) 0.3117(7)
C8 C -0.0044(5) -0.0355(14) 0.3828(6)
C9 C 0.1193(6) -0.1204(10) 0.4205(6)
C10 C 0.2260(5) -0.0171(10) 0.3902(5)
H1 H 0.3628 0.0650 0.1770
H2 H 0.0599 0.3881 0.2384
H3 H -0.1133 0.2214 0.2845
H4 H -0.0734 -0.1056 0.4033
H5 H 0.1347 -0.2491 0.4671
H6 H 0.4378 0.5019 0.1650
H7 H 0.5232 0.2927 0.1605
H8 H 0.3725 0.5138 -0.0450
H9 H 0.4578 0.3046 -0.0494
H10 H 0.2847 0.0872 -0.0817
H11 H 0.2022 0.2998 -0.1346
H12 H 0.3871 0.2743 0.3622
H13 H 0.2804 0.4420 0.2820
H14 H 0.1698 0.3502 0.0555
H15 H 0.1607 0.1234 0.0491
H16 H 0.4104 -0.0412 0.4065
H17 H 0.3597 -0.2257 0.4666
loop_
_geom_bond_atom_site_label_1
_geom_bond_atom_site_label_2
_geom_bond_site_symmetry_1
_geom_bond_site_symmetry_2
N1 C1 1_555 1_555
N2 C5 1_555 1_555
N3 C10 1_555 1_555
C1 C2 1_555 1_555
C2 C3 1_555 1_555
C3 C4 1_555 1_555
C4 N1 1_555 1_555
C5 C1 1_555 1_555
C6 N2 1_555 1_555
C7 C6 1_555 1_555
C8 C7 1_555 1_555
C9 C8 1_555 1_555
C10 N2 1_555 1_555
H1 C1 1_555 1_555
H2 C6 1_555 1_555
H3 C7 1_555 1_555
H4 C8 1_555 1_555
H5 C9 1_555 1_555
H6 C2 1_555 1_555
H7 C2 1_555 1_555
H8 C3 1_555 1_555
H9 C3 1_555 1_555
H10 C4 1_555 1_555
H11 C4 1_555 1_555
H12 C5 1_555 1_555
H13 C5 1_555 1_555
H14 N1 1_555 1_555
H15 N1 1_555 1_555
H16 N3 1_555 1_555
H17 N3 1_555 1_555
C9 C10 1_555 1_555

#END
