
#######################################################################
#
#                 Cambridge Crystallographic Data Centre
#                                CCDC 
#
#######################################################################
#
# If this CIF has been generated from an entry in the Cambridge 
# Structural Database, then it will include bibliographic, chemical, 
# crystal, experimental, refinement or atomic coordinate data resulting 
# from the CCDC's data processing and validation procedures.
#
#######################################################################

data_GITLEB01
_chemical_formula_moiety         'C15 H14 N2 O1'
_chemical_name_systematic        
2-methyl-2-phenyl-2,3-dihydroquinazolin-4(1H)-one
_symmetry_cell_setting           monoclinic
_symmetry_space_group_name_H-M   'P 21/n'
_symmetry_Int_Tables_number      14
_space_group_name_Hall           '-P 2yn'
loop_
_symmetry_equiv_pos_site_id
_symmetry_equiv_pos_as_xyz
1 x,y,z
2 1/2-x,1/2+y,1/2-z
3 -x,-y,-z
4 1/2+x,1/2-y,1/2+z
_cell_length_a                   8.4986(17)
_cell_length_b                   8.7617(18)
_cell_length_c                   16.155(3)
_cell_angle_alpha                90
_cell_angle_beta                 93.52(3)
_cell_angle_gamma                90
_cell_volume                     1200.67
_exptl_crystal_colour            colorless
_exptl_crystal_description       block
_cell_formula_units_Z            4
loop_
_atom_site_label
_atom_site_type_symbol
_atom_site_fract_x
_atom_site_fract_y
_atom_site_fract_z
O1 O 0.41063(16) 0.63164(14) -0.08193(7)
N1 N 0.44684(16) 0.65974(15) 0.05745(8)
H1 H 0.5203 0.5889 0.0605
N2 N 0.38610(18) 0.88896(16) 0.12277(9)
H2 H 0.4292 0.9513 0.1604
C1 C 0.30128(19) 0.85135(18) -0.01978(10)
C2 C 0.2234(2) 0.9024(2) -0.09281(11)
H3 H 0.2171 0.8383 -0.1404
C3 C 0.1551(2) 1.0455(2) -0.09672(12)
H4 H 0.1002 1.0796 -0.1463
C4 C 0.1680(3) 1.1390(2) -0.02691(13)
H5 H 0.1233 1.2383 -0.0297
C5 C 0.2440(2) 1.0907(2) 0.04589(12)
H6 H 0.2521 1.1567 0.0926
C6 C 0.30954(19) 0.94361(18) 0.05114(10)
C7 C 0.38814(19) 0.70510(18) -0.01775(10)
C8 C 0.39304(19) 0.72383(18) 0.13396(10)
C9 C 0.5129(2) 0.6844(2) 0.20460(11)
H7 H 0.5229 0.5732 0.2092
H8 H 0.4776 0.7258 0.2567
H9 H 0.6154 0.7286 0.1934
C10 C 0.2299(2) 0.65948(19) 0.15244(10)
C11 C 0.1600(2) 0.5393(2) 0.10802(11)
H10 H 0.2132 0.4940 0.0642
C12 C 0.0133(2) 0.4843(2) 0.12679(13)
H11 H -0.0337 0.4026 0.0955
C13 C -0.0647(2) 0.5482(3) 0.19122(14)
H12 H -0.1652 0.5107 0.2040
C14 C 0.0045(3) 0.6668(2) 0.23679(13)
H13 H -0.0481 0.7104 0.2813
C15 C 0.1504(2) 0.7221(2) 0.21750(11)
H14 H 0.1971 0.8038 0.2489
loop_
_geom_bond_atom_site_label_1
_geom_bond_atom_site_label_2
_geom_bond_site_symmetry_1
_geom_bond_site_symmetry_2
O1 C7 1_555 1_555
N1 H1 1_555 1_555
N2 H2 1_555 1_555
C1 C2 1_555 1_555
C2 H3 1_555 1_555
C3 C2 1_555 1_555
H4 C3 1_555 1_555
C4 C3 1_555 1_555
H5 C4 1_555 1_555
C5 C4 1_555 1_555
H6 C5 1_555 1_555
C6 N2 1_555 1_555
C7 N1 1_555 1_555
C8 N1 1_555 1_555
C9 C8 1_555 1_555
H7 C9 1_555 1_555
H8 C9 1_555 1_555
H9 C9 1_555 1_555
C10 C8 1_555 1_555
C11 C10 1_555 1_555
H10 C11 1_555 1_555
C12 C11 1_555 1_555
H11 C12 1_555 1_555
C13 C12 1_555 1_555
H12 C13 1_555 1_555
C14 C13 1_555 1_555
H13 C14 1_555 1_555
C15 C10 1_555 1_555
H14 C15 1_555 1_555
N2 C8 1_555 1_555
C1 C6 1_555 1_555
C1 C7 1_555 1_555
C5 C6 1_555 1_555
C14 C15 1_555 1_555

#END
