
#######################################################################
#
#                 Cambridge Crystallographic Data Centre
#                                CCDC 
#
#######################################################################
#
# If this CIF has been generated from an entry in the Cambridge 
# Structural Database, then it will include bibliographic, chemical, 
# crystal, experimental, refinement or atomic coordinate data resulting 
# from the CCDC's data processing and validation procedures.
#
#######################################################################

data_GITMAY
_chemical_formula_moiety         'C27 H44 O4 Si1'
_chemical_name_systematic        
4-Butyl-3-(3,5-dimethoxyphenyl)-4-methoxy-2-(triisopropylsilyl)cyclopent-2-enone
_symmetry_cell_setting           monoclinic
_symmetry_space_group_name_H-M   'C 2/c'
_symmetry_Int_Tables_number      15
_space_group_name_Hall           '-C 2yn'
loop_
_symmetry_equiv_pos_site_id
_symmetry_equiv_pos_as_xyz
1 x,y,z
2 1/2+x,1/2+y,z
3 -x,y,1/2-z
4 1/2-x,1/2+y,1/2-z
5 -x,-y,-z
6 1/2-x,1/2-y,-z
7 x,-y,1/2+z
8 1/2+x,1/2-y,1/2+z
_cell_length_a                   39.294(4)
_cell_length_b                   8.3327(10)
_cell_length_c                   29.274(3)
_cell_angle_alpha                90
_cell_angle_beta                 146.207(8)
_cell_angle_gamma                90
_cell_volume                     5331.14
_exptl_crystal_colour            colorless
_exptl_crystal_description       block
_chemical_melting_point          '332-333 K'
_cell_formula_units_Z            8
loop_
_atom_site_label
_atom_site_type_symbol
_atom_site_fract_x
_atom_site_fract_y
_atom_site_fract_z
Si1 Si 0.060076(17) 0.46916(5) 0.45150(2)
O1 O 0.14533(5) 0.38982(14) 0.63443(6)
O2 O 0.22955(5) 0.04752(12) 0.61756(6)
O3 O 0.13563(5) 0.06140(13) 0.35883(7)
O4 O 0.21072(5) 0.59302(13) 0.45866(7)
C1 C 0.16047(6) 0.32410(18) 0.61599(8)
C2 C 0.13558(6) 0.35913(17) 0.54188(8)
C3 C 0.17437(6) 0.29104(16) 0.55487(8)
C4 C 0.22794(6) 0.20168(17) 0.63719(8)
C5 C 0.20858(6) 0.19464(18) 0.66571(8)
H1 H 0.1914 0.0881 0.6542
H2 H 0.2437 0.2170 0.7253
C6 C 0.17257(6) 0.30081(16) 0.50223(8)
C7 C 0.15364(6) 0.16823(17) 0.45500(8)
H3 H 0.1411 0.0716 0.4555
C8 C 0.15356(6) 0.18095(17) 0.40790(8)
C9 C 0.17267(6) 0.32121(18) 0.40742(8)
H4 H 0.1727 0.3280 0.3751
C10 C 0.19146(6) 0.44980(17) 0.45446(9)
C11 C 0.19134(6) 0.44033(17) 0.50188(8)
H5 H 0.2042 0.5297 0.5339
C12 C 0.11224(8) -0.08178(19) 0.35246(11)
H6 H 0.1013 -0.1574 0.3159
H7 H 0.0758 -0.0566 0.3300
H8 H 0.1435 -0.1301 0.4070
C13 C 0.21186(7) 0.6089(2) 0.41147(10)
H9 H 0.2264 0.7164 0.4195
H10 H 0.1705 0.5931 0.3532
H11 H 0.2394 0.5282 0.4292
C14 C 0.27015(7) -0.06577(18) 0.68287(9)
H12 H 0.2682 -0.1668 0.6636
H13 H 0.2582 -0.0848 0.7014
H14 H 0.3120 -0.0237 0.7286
C15 C 0.28884(6) 0.29106(17) 0.69819(8)
H15 H 0.3219 0.2273 0.7494
H16 H 0.2975 0.2968 0.6746
C16 C 0.29095(7) 0.46110(18) 0.72010(9)
H17 H 0.2767 0.4582 0.7364
H18 H 0.2623 0.5297 0.6707
C17 C 0.35466(7) 0.53686(19) 0.78964(9)
H19 H 0.3534 0.6409 0.8046
H20 H 0.3837 0.4662 0.8384
C18 C 0.37830(8) 0.5645(2) 0.76797(11)
H21 H 0.4193 0.6120 0.8151
H22 H 0.3506 0.6374 0.7209
H23 H 0.3803 0.4618 0.7539
C19 C 0.07163(7) 0.69311(19) 0.47085(10)
H24 H 0.0304 0.7438 0.4214
C20 C 0.11217(9) 0.7634(2) 0.47859(13)
H25 H 0.0967 0.7301 0.4313
H26 H 0.1542 0.7244 0.5293
H27 H 0.1117 0.8808 0.4801
C21 C 0.09602(12) 0.7453(2) 0.54452(14)
H28 H 0.0701 0.7004 0.5398
H29 H 0.0956 0.8627 0.5460
H30 H 0.1380 0.7064 0.5951
C22 C 0.01096(6) 0.39689(19) 0.44564(9)
H31 H 0.0294 0.4441 0.4944
C23 C 0.01070(8) 0.2140(2) 0.45283(11)
H32 H 0.0529 0.1748 0.5017
H33 H -0.0103 0.1617 0.4038
H34 H -0.0107 0.1890 0.4576
C24 C -0.05484(7) 0.4611(2) 0.37011(10)
H35 H -0.0540 0.5777 0.3666
H36 H -0.0760 0.4359 0.3751
H37 H -0.0765 0.4107 0.3204
C25 C 0.02599(7) 0.4266(2) 0.35538(9)
H38 H 0.0600 0.4375 0.3707
C26 C 0.00158(8) 0.2545(2) 0.32357(10)
H39 H 0.0334 0.1784 0.3684
H40 H -0.0097 0.2341 0.2791
H41 H -0.0345 0.2413 0.3029
C27 C -0.02368(8) 0.5469(3) 0.28563(10)
H42 H -0.0078 0.6564 0.3063
H43 H -0.0596 0.5339 0.2653
H44 H -0.0353 0.5271 0.2408
loop_
_geom_bond_atom_site_label_1
_geom_bond_atom_site_label_2
_geom_bond_site_symmetry_1
_geom_bond_site_symmetry_2
Si1 C2 1_555 1_555
O1 C1 1_555 1_555
O2 C4 1_555 1_555
O3 C8 1_555 1_555
O4 C10 1_555 1_555
C1 C2 1_555 1_555
C2 C3 1_555 1_555
C3 C4 1_555 1_555
C4 C5 1_555 1_555
C5 C1 1_555 1_555
H1 C5 1_555 1_555
H2 C5 1_555 1_555
C6 C3 1_555 1_555
C7 C6 1_555 1_555
H3 C7 1_555 1_555
C8 C7 1_555 1_555
C9 C8 1_555 1_555
H4 C9 1_555 1_555
C10 C9 1_555 1_555
C11 C6 1_555 1_555
H5 C11 1_555 1_555
C12 O3 1_555 1_555
H6 C12 1_555 1_555
H7 C12 1_555 1_555
H8 C12 1_555 1_555
C13 O4 1_555 1_555
H9 C13 1_555 1_555
H10 C13 1_555 1_555
H11 C13 1_555 1_555
C14 O2 1_555 1_555
H12 C14 1_555 1_555
H13 C14 1_555 1_555
H14 C14 1_555 1_555
C15 C4 1_555 1_555
H15 C15 1_555 1_555
H16 C15 1_555 1_555
C16 C15 1_555 1_555
H17 C16 1_555 1_555
H18 C16 1_555 1_555
C17 C16 1_555 1_555
H19 C17 1_555 1_555
H20 C17 1_555 1_555
C18 C17 1_555 1_555
H21 C18 1_555 1_555
H22 C18 1_555 1_555
H23 C18 1_555 1_555
C19 Si1 1_555 1_555
H24 C19 1_555 1_555
C20 C19 1_555 1_555
H25 C20 1_555 1_555
H26 C20 1_555 1_555
H27 C20 1_555 1_555
C21 C19 1_555 1_555
H28 C21 1_555 1_555
H29 C21 1_555 1_555
H30 C21 1_555 1_555
C22 Si1 1_555 1_555
H31 C22 1_555 1_555
C23 C22 1_555 1_555
H32 C23 1_555 1_555
H33 C23 1_555 1_555
H34 C23 1_555 1_555
C24 C22 1_555 1_555
H35 C24 1_555 1_555
H36 C24 1_555 1_555
H37 C24 1_555 1_555
C25 Si1 1_555 1_555
H38 C25 1_555 1_555
C26 C25 1_555 1_555
H39 C26 1_555 1_555
H40 C26 1_555 1_555
H41 C26 1_555 1_555
C27 C25 1_555 1_555
H42 C27 1_555 1_555
H43 C27 1_555 1_555
H44 C27 1_555 1_555
C10 C11 1_555 1_555

#END
