
#######################################################################
#
#                 Cambridge Crystallographic Data Centre
#                                CCDC 
#
#######################################################################
#
# If this CIF has been generated from an entry in the Cambridge 
# Structural Database, then it will include bibliographic, chemical, 
# crystal, experimental, refinement or atomic coordinate data resulting 
# from the CCDC's data processing and validation procedures.
#
#######################################################################

data_GITNUV
_chemical_formula_moiety         'C14 H18 Cl1 N3 O1'
_chemical_name_systematic        
6-chloro-3-(propan-2-yl)-2-[(propan-2-yl)amino]quinazolin-4(3H)-one
_symmetry_cell_setting           monoclinic
_symmetry_space_group_name_H-M   'P 21/n'
_symmetry_Int_Tables_number      14
_space_group_name_Hall           '-P 2yn'
loop_
_symmetry_equiv_pos_site_id
_symmetry_equiv_pos_as_xyz
1 x,y,z
2 1/2-x,1/2+y,1/2-z
3 -x,-y,-z
4 1/2+x,1/2-y,1/2+z
_cell_length_a                   9.1264(5)
_cell_length_b                   15.3834(8)
_cell_length_c                   11.2882(5)
_cell_angle_alpha                90
_cell_angle_beta                 111.447(5)
_cell_angle_gamma                90
_cell_volume                     1475.07
_exptl_crystal_colour            colorless
_exptl_crystal_description       block
_cell_formula_units_Z            4
loop_
_atom_site_label
_atom_site_type_symbol
_atom_site_fract_x
_atom_site_fract_y
_atom_site_fract_z
Cl1 Cl 0.63360(10) 0.18039(6) 0.57860(5)
O1 O 0.69086(17) 0.26266(10) 0.13714(13)
N1 N 0.52145(17) 0.17391(10) -0.01224(13)
N2 N 0.35389(18) 0.07424(11) 0.04045(15)
N3 N 0.32301(18) 0.09579(11) -0.16831(15)
C1 C 0.7658(3) 0.17318(18) -0.0612(2)
H1 H 0.824866 0.208032 0.011017
H2 H 0.805330 0.182127 -0.128267
H3 H 0.776132 0.112948 -0.037318
C2 C 0.5935(2) 0.19915(13) -0.10723(17)
H4 H 0.539641 0.164801 -0.183991
C3 C 0.5639(3) 0.29355(16) -0.1460(2)
H5 H 0.453661 0.306026 -0.170580
H6 H 0.596323 0.304615 -0.216487
H7 H 0.622824 0.329936 -0.075617
C4 C 0.5895(2) 0.20570(13) 0.11136(17)
C5 C 0.5348(2) 0.16549(12) 0.20434(17)
C6 C 0.5995(3) 0.19180(14) 0.33203(18)
H8 H 0.674100 0.236017 0.357068
C7 C 0.5508(3) 0.15107(17) 0.41924(19)
C8 C 0.4377(3) 0.08570(18) 0.3825(2)
H9 H 0.403784 0.059974 0.442521
C9 C 0.3760(3) 0.05903(16) 0.2578(2)
H10 H 0.302342 0.014326 0.234073
C10 C 0.4241(2) 0.09926(13) 0.16548(18)
C11 C 0.3983(2) 0.11337(12) -0.04265(17)
C12 C 0.1991(2) 0.03025(14) -0.2127(2)
H11 H 0.235798 -0.022400 -0.161459
C13 C 0.0467(3) 0.0592(2) -0.1999(3)
H12 H 0.066242 0.074012 -0.112864
H13 H -0.028753 0.012813 -0.225924
H14 H 0.006173 0.109053 -0.252945
C14 C 0.1776(3) 0.00937(16) -0.3491(2)
H15 H 0.140783 0.060168 -0.400926
H16 H 0.101929 -0.036565 -0.379948
H17 H 0.276402 -0.008710 -0.353032
H18 H 0.323(3) 0.1375(16) -0.219(2)
loop_
_geom_bond_atom_site_label_1
_geom_bond_atom_site_label_2
_geom_bond_site_symmetry_1
_geom_bond_site_symmetry_2
Cl1 C7 1_555 1_555
O1 C4 1_555 1_555
N1 C2 1_555 1_555
N2 C10 1_555 1_555
N3 C11 1_555 1_555
C1 H1 1_555 1_555
H2 C1 1_555 1_555
H3 C1 1_555 1_555
C2 C1 1_555 1_555
H4 C2 1_555 1_555
C3 C2 1_555 1_555
H5 C3 1_555 1_555
H6 C3 1_555 1_555
H7 C3 1_555 1_555
C4 N1 1_555 1_555
C5 C4 1_555 1_555
C6 C5 1_555 1_555
H8 C6 1_555 1_555
C7 C6 1_555 1_555
C8 C7 1_555 1_555
H9 C8 1_555 1_555
C9 C8 1_555 1_555
H10 C9 1_555 1_555
C10 C5 1_555 1_555
C11 N1 1_555 1_555
C12 N3 1_555 1_555
H11 C12 1_555 1_555
C13 C12 1_555 1_555
H12 C13 1_555 1_555
H13 C13 1_555 1_555
H14 C13 1_555 1_555
C14 C12 1_555 1_555
H15 C14 1_555 1_555
H16 C14 1_555 1_555
H17 C14 1_555 1_555
H18 N3 1_555 1_555
N2 C11 1_555 1_555
C9 C10 1_555 1_555

#END
