
#######################################################################
#
#                 Cambridge Crystallographic Data Centre
#                                CCDC 
#
#######################################################################
#
# If this CIF has been generated from an entry in the Cambridge 
# Structural Database, then it will include bibliographic, chemical, 
# crystal, experimental, refinement or atomic coordinate data resulting 
# from the CCDC's data processing and validation procedures.
#
#######################################################################

data_GIVSUC
_chemical_formula_moiety         'C20 H21 B1 F2 N2'
_chemical_name_systematic        
5,5-difluoro-1,3,7,9-tetramethyl-10-(2-methylphenyl)-5H-dipyrrolo[1,2-c:2',1'-f][1,3,2]diazaborinine
_symmetry_cell_setting           orthorhombic
_symmetry_space_group_name_H-M   'P 21 21 21'
_symmetry_Int_Tables_number      19
_space_group_name_Hall           'P 2ac 2ab'
loop_
_symmetry_equiv_pos_site_id
_symmetry_equiv_pos_as_xyz
1 x,y,z
2 1/2-x,-y,1/2+z
3 -x,1/2+y,1/2-z
4 1/2+x,1/2-y,-z
_cell_length_a                   14.031(3)
_cell_length_b                   15.207(3)
_cell_length_c                   26.212(6)
_cell_angle_alpha                90
_cell_angle_beta                 90
_cell_angle_gamma                90
_cell_volume                     5592.84
_exptl_crystal_colour            red
_exptl_crystal_description       prismatic
_cell_formula_units_Z            12
loop_
_atom_site_label
_atom_site_type_symbol
_atom_site_fract_x
_atom_site_fract_y
_atom_site_fract_z
F1 F 0.5082(12) 0.8061(5) 0.2890(3)
F2 F 0.5338(8) 0.7000(4) 0.2317(3)
N1 N 0.4303(16) 0.8166(8) 0.2101(5)
N2 N 0.6014(11) 0.8458(6) 0.2118(4)
B1 B 0.526(2) 0.7905(11) 0.2354(5)
C1 C 0.343(2) 0.7792(11) 0.2188(5)
C2 C 0.2687(15) 0.8186(10) 0.1890(5)
H1 H 0.2041 0.8050 0.1875
C3 C 0.3207(17) 0.8840(9) 0.1625(5)
C4 C 0.4163(17) 0.8825(9) 0.1752(4)
C5 C 0.5008(13) 0.9321(7) 0.1595(4)
C6 C 0.594(2) 0.9134(9) 0.1740(6)
C7 C 0.676(2) 0.9530(10) 0.1660(8)
C8 C 0.7489(13) 0.9066(8) 0.1925(6)
H2 H 0.8146 0.9143 0.1907
C9 C 0.6973(18) 0.8469(10) 0.2216(7)
C10 C 0.3148(19) 0.7034(10) 0.2565(6)
H3 H 0.2985 0.6517 0.2374
H4 H 0.2611 0.7215 0.2766
H5 H 0.3677 0.6907 0.2785
C11 C 0.2710(15) 0.9486(9) 0.1272(6)
H6 H 0.2846 1.0076 0.1380
H7 H 0.2034 0.9387 0.1283
H8 H 0.2935 0.9403 0.0929
C12 C 0.7067(16) 1.0251(9) 0.1267(6)
H9 H 0.6931 1.0052 0.0928
H10 H 0.7738 1.0359 0.1300
H11 H 0.6723 1.0784 0.1334
C13 C 0.7358(19) 0.7723(9) 0.2594(7)
H12 H 0.6875 0.7283 0.2640
H13 H 0.7510 0.7982 0.2918
H14 H 0.7919 0.7458 0.2452
C14 C 0.4869(11) 1.0133(8) 0.1240(4)
C15 C 0.4654(14) 1.0942(7) 0.1468(5)
H15 H 0.4637 1.1005 0.1821
C16 C 0.4468(18) 1.1651(9) 0.1144(6)
H16 H 0.4348 1.2205 0.1279
C17 C 0.4461(11) 1.1529(9) 0.0633(5)
H17 H 0.4344 1.2009 0.0422
C18 C 0.4616(10) 1.0747(8) 0.0422(5)
H18 H 0.4545 1.0685 0.0071
C19 C 0.4884(10) 1.0014(7) 0.0712(4)
C20 C 0.5054(10) 0.9159(7) 0.0476(4)
H19 H 0.4903 0.9191 0.0119
H20 H 0.4659 0.8724 0.0636
H21 H 0.5712 0.9001 0.0517
F3 F 0.5757(8) 0.8097(5) 0.6252(2)
F4 F 0.5367(11) 0.7006(4) 0.5681(3)
N3 N 0.4713(9) 0.8451(6) 0.5534(3)
N4 N 0.6450(9) 0.8193(7) 0.5419(3)
B2 B 0.5565(18) 0.7941(9) 0.5718(6)
C21 C 0.3843(14) 0.8378(8) 0.5676(4)
C22 C 0.3256(10) 0.8978(7) 0.5406(5)
H22 H 0.2598 0.9039 0.5430
C23 C 0.3852(10) 0.9437(7) 0.5109(4)
C24 C 0.4730(8) 0.9117(6) 0.5167(4)
C25 C 0.5593(9) 0.9317(7) 0.4966(4)
C26 C 0.6488(9) 0.8877(7) 0.5077(4)
C27 C 0.7390(12) 0.8912(9) 0.4899(5)
C28 C 0.7911(13) 0.8282(12) 0.5145(6)
H23 H 0.8556 0.8172 0.5097
C29 C 0.7326(13) 0.7843(12) 0.5473(5)
C30 C 0.3497(15) 0.7739(9) 0.6087(5)
H24 H 0.3970 0.7293 0.6141
H25 H 0.2912 0.7470 0.5978
H26 H 0.3391 0.8053 0.6399
C31 C 0.3455(8) 1.0210(7) 0.4766(5)
H27 H 0.3885 1.0700 0.4781
H28 H 0.2841 1.0387 0.4890
H29 H 0.3398 1.0011 0.4420
C32 C 0.7844(10) 0.9562(12) 0.4542(5)
H30 H 0.7509 0.9561 0.4223
H31 H 0.8497 0.9401 0.4486
H32 H 0.7816 1.0139 0.4690
C33 C 0.7594(17) 0.7139(12) 0.5828(5)
H33 H 0.8126 0.6819 0.5693
H34 H 0.7064 0.6746 0.5873
H35 H 0.7765 0.7390 0.6151
C34 C 0.5702(8) 1.0145(8) 0.4608(4)
C35 C 0.5837(10) 1.0979(6) 0.4861(6)
H36 H 0.5922 1.1022 0.5212
C36 C 0.5831(14) 1.1702(8) 0.4550(6)
H37 H 0.5881 1.2265 0.4686
C37 C 0.5753(9) 1.1581(9) 0.4047(6)
H38 H 0.5821 1.2087 0.3851
C38 C 0.5597(7) 1.0874(9) 0.3794(5)
H39 H 0.5500 1.0864 0.3443
C39 C 0.5587(9) 1.0056(9) 0.4123(5)
C40 C 0.5362(11) 0.9246(8) 0.3881(4)
H40 H 0.5812 0.8805 0.3985
H41 H 0.5392 0.9318 0.3518
H42 H 0.4731 0.9067 0.3978
F5 F 0.5954(5) 0.3160(4) 0.5476(2)
F6 F 0.5861(5) 0.2117(3) 0.6075(3)
N5 N 0.4883(6) 0.3394(5) 0.6175(3)
N6 N 0.6638(6) 0.3478(5) 0.6279(3)
B3 B 0.5854(8) 0.2995(7) 0.5985(4)
C41 C 0.4041(10) 0.3136(8) 0.6010(5)
C42 C 0.3373(10) 0.3668(9) 0.6262(5)
H43 H 0.2718 0.3618 0.6218
C43 C 0.3799(9) 0.4277(8) 0.6583(5)
C44 C 0.4806(7) 0.4087(7) 0.6529(4)
C45 C 0.5591(7) 0.4463(6) 0.6750(3)
C46 C 0.6494(6) 0.4188(6) 0.6631(3)
C47 C 0.7442(10) 0.4442(9) 0.6793(4)
C48 C 0.8072(11) 0.3917(11) 0.6558(5)
H44 H 0.8731 0.3940 0.6596
C49 C 0.7593(7) 0.3350(7) 0.6257(4)
C50 C 0.3872(10) 0.2428(9) 0.5625(5)
H45 H 0.3855 0.2681 0.5290
H46 H 0.3275 0.2144 0.5695
H47 H 0.4378 0.2004 0.5644
C51 C 0.3335(9) 0.4939(11) 0.6927(6)
H48 H 0.2656 0.4909 0.6886
H49 H 0.3553 0.5518 0.6839
H50 H 0.3499 0.4814 0.7275
C52 C 0.7713(15) 0.5155(12) 0.7190(6)
H51 H 0.7625 0.4926 0.7528
H52 H 0.7313 0.5661 0.7143
H53 H 0.8368 0.5320 0.7144
C53 C 0.7997(9) 0.2651(8) 0.5911(5)
H54 H 0.7717 0.2093 0.5994
H55 H 0.8675 0.2619 0.5957
H56 H 0.7858 0.2795 0.5563
C54 C 0.5456(10) 0.5245(7) 0.7110(4)
C55 C 0.5479(16) 0.6090(7) 0.6898(4)
H57 H 0.5643 0.6171 0.6557
C56 C 0.526(2) 0.6793(8) 0.7199(5)
H58 H 0.5160 0.7347 0.7058
C57 C 0.5175(16) 0.6659(10) 0.7731(5)
H59 H 0.5100 0.7140 0.7947
C58 C 0.5204(8) 0.5855(7) 0.7926(5)
H60 H 0.5142 0.5779 0.8277
C59 C 0.5327(7) 0.5119(6) 0.7611(4)
C60 C 0.5379(11) 0.4245(7) 0.7842(4)
H61 H 0.4768 0.3963 0.7817
H62 H 0.5556 0.4299 0.8194
H63 H 0.5846 0.3899 0.7665
loop_
_geom_bond_atom_site_label_1
_geom_bond_atom_site_label_2
_geom_bond_site_symmetry_1
_geom_bond_site_symmetry_2
F1 B1 1_555 1_555
F2 B1 1_555 1_555
N1 B1 1_555 1_555
N2 B1 1_555 1_555
C1 N1 1_555 1_555
C2 C1 1_555 1_555
H1 C2 1_555 1_555
C3 C2 1_555 1_555
C4 N1 1_555 1_555
C5 C4 1_555 1_555
C6 N2 1_555 1_555
C7 C6 1_555 1_555
C8 C7 1_555 1_555
H2 C8 1_555 1_555
C9 N2 1_555 1_555
C10 C1 1_555 1_555
H3 C10 1_555 1_555
H4 C10 1_555 1_555
H5 C10 1_555 1_555
C11 C3 1_555 1_555
H6 C11 1_555 1_555
H7 C11 1_555 1_555
H8 C11 1_555 1_555
C12 C7 1_555 1_555
H9 C12 1_555 1_555
H10 C12 1_555 1_555
H11 C12 1_555 1_555
C13 C9 1_555 1_555
H12 C13 1_555 1_555
H13 C13 1_555 1_555
H14 C13 1_555 1_555
C14 C5 1_555 1_555
C15 C14 1_555 1_555
H15 C15 1_555 1_555
C16 C15 1_555 1_555
H16 C16 1_555 1_555
C17 C16 1_555 1_555
H17 C17 1_555 1_555
C18 C17 1_555 1_555
H18 C18 1_555 1_555
C19 C14 1_555 1_555
C20 C19 1_555 1_555
H19 C20 1_555 1_555
H20 C20 1_555 1_555
H21 C20 1_555 1_555
F3 B2 1_555 1_555
F4 B2 1_555 1_555
N3 B2 1_555 1_555
N4 B2 1_555 1_555
C21 N3 1_555 1_555
C22 C21 1_555 1_555
H22 C22 1_555 1_555
C23 C22 1_555 1_555
C24 N3 1_555 1_555
C25 C24 1_555 1_555
C26 N4 1_555 1_555
C27 C26 1_555 1_555
C28 C27 1_555 1_555
H23 C28 1_555 1_555
C29 N4 1_555 1_555
C30 C21 1_555 1_555
H24 C30 1_555 1_555
H25 C30 1_555 1_555
H26 C30 1_555 1_555
C31 C23 1_555 1_555
H27 C31 1_555 1_555
H28 C31 1_555 1_555
H29 C31 1_555 1_555
C32 C27 1_555 1_555
H30 C32 1_555 1_555
H31 C32 1_555 1_555
H32 C32 1_555 1_555
C33 C29 1_555 1_555
H33 C33 1_555 1_555
H34 C33 1_555 1_555
H35 C33 1_555 1_555
C34 C25 1_555 1_555
C35 C34 1_555 1_555
H36 C35 1_555 1_555
C36 C35 1_555 1_555
H37 C36 1_555 1_555
C37 C36 1_555 1_555
H38 C37 1_555 1_555
C38 C37 1_555 1_555
H39 C38 1_555 1_555
C39 C34 1_555 1_555
C40 C39 1_555 1_555
H40 C40 1_555 1_555
H41 C40 1_555 1_555
H42 C40 1_555 1_555
F5 B3 1_555 1_555
F6 B3 1_555 1_555
N5 B3 1_555 1_555
N6 B3 1_555 1_555
C41 N5 1_555 1_555
C42 C41 1_555 1_555
H43 C42 1_555 1_555
C43 C42 1_555 1_555
C44 N5 1_555 1_555
C45 C44 1_555 1_555
C46 N6 1_555 1_555
C47 C46 1_555 1_555
C48 C47 1_555 1_555
H44 C48 1_555 1_555
C49 N6 1_555 1_555
C50 C41 1_555 1_555
H45 C50 1_555 1_555
H46 C50 1_555 1_555
H47 C50 1_555 1_555
C51 C43 1_555 1_555
H48 C51 1_555 1_555
H49 C51 1_555 1_555
H50 C51 1_555 1_555
C52 C47 1_555 1_555
H51 C52 1_555 1_555
H52 C52 1_555 1_555
H53 C52 1_555 1_555
C53 C49 1_555 1_555
H54 C53 1_555 1_555
H55 C53 1_555 1_555
H56 C53 1_555 1_555
C54 C45 1_555 1_555
C55 C54 1_555 1_555
H57 C55 1_555 1_555
C56 C55 1_555 1_555
H58 C56 1_555 1_555
C57 C56 1_555 1_555
H59 C57 1_555 1_555
C58 C57 1_555 1_555
H60 C58 1_555 1_555
C59 C54 1_555 1_555
C60 C59 1_555 1_555
H61 C60 1_555 1_555
H62 C60 1_555 1_555
H63 C60 1_555 1_555
C3 C4 1_555 1_555
C5 C6 1_555 1_555
C8 C9 1_555 1_555
C18 C19 1_555 1_555
C23 C24 1_555 1_555
C25 C26 1_555 1_555
C28 C29 1_555 1_555
C38 C39 1_555 1_555
C43 C44 1_555 1_555
C45 C46 1_555 1_555
C48 C49 1_555 1_555
C58 C59 1_555 1_555

#END
