
#######################################################################
#
#                 Cambridge Crystallographic Data Centre
#                                CCDC 
#
#######################################################################
#
# If this CIF has been generated from an entry in the Cambridge 
# Structural Database, then it will include bibliographic, chemical, 
# crystal, experimental, refinement or atomic coordinate data resulting 
# from the CCDC's data processing and validation procedures.
#
#######################################################################

data_GIWBIX
_chemical_formula_moiety         '2(C11 H13 N1 S5),C16 H5 N5 O6'
_chemical_name_systematic        
"bis(4-(N-Methylthiocarbamoyl)-4',5,5'-trimethyltetrathiafulvalene) 2,4,7-trinitro-9-(dicyanomethylene)fluorene"
_symmetry_cell_setting           monoclinic
_symmetry_space_group_name_H-M   'C 2/c'
_symmetry_Int_Tables_number      15
_space_group_name_Hall           '-C 2yn'
loop_
_symmetry_equiv_pos_site_id
_symmetry_equiv_pos_as_xyz
1 x,y,z
2 -x,y,1/2-z
3 1/2+x,1/2+y,z
4 1/2-x,1/2+y,1/2-z
5 -x,-y,-z
6 x,-y,1/2+z
7 1/2-x,1/2-y,-z
8 1/2+x,1/2-y,1/2+z
_cell_length_a                   18.060(1)
_cell_length_b                   13.566(1)
_cell_length_c                   18.697(1)
_cell_angle_alpha                90
_cell_angle_beta                 109.25(1)
_cell_angle_gamma                90
_cell_volume                     4324.68
_exptl_crystal_colour            black
_cell_formula_units_Z            4
loop_
_atom_site_label
_atom_site_type_symbol
_atom_site_fract_x
_atom_site_fract_y
_atom_site_fract_z
C12 C 0.3894(2) 0.1546(3) 0.3054(2)
C13 C 0.3503(2) 0.2341(3) 0.3237(2)
C14 C 0.3685(2) 0.3318(3) 0.3154(3)
C15 C 0.4278(2) 0.3514(3) 0.2865(2)
C16 C 0.4680(2) 0.2750(3) 0.2662(2)
C17 C 0.4486(2) 0.1757(3) 0.2761(2)
C18 C 0.5000 0.1099(4) 0.2500
C19 C 0.5000 0.0093(4) 0.2500
C20 C 0.4490(2) -0.0492(3) 0.2780(2)
N2 N 0.2857(2) 0.2150(3) 0.3531(2)
N3 N 0.4507(5) 0.4568(5) 0.2702(5)
N4 N 0.4113(2) -0.1005(3) 0.3000(2)
O1 O 0.2717(2) 0.1286(2) 0.3640(2)
O2 O 0.2476(2) 0.2849(3) 0.3635(2)
O3 O 0.4053(6) 0.4994(5) 0.2136(4)
O4 O 0.5063(5) 0.4932(5) 0.3111(7)
H14 H 0.3711(21) 0.0931(30) 0.3096(20)
H15 H 0.3414(22) 0.3777(29) 0.3300(21)
H16 H 0.4416 0.4185 0.2804
C16A C 0.5320(2) 0.2750(3) 0.2338(2)
C15A C 0.5722(2) 0.3514(3) 0.2135(2)
C14A C 0.6315(2) 0.3318(3) 0.1846(3)
C13A C 0.6497(2) 0.2341(3) 0.1763(2)
C12A C 0.6106(2) 0.1546(3) 0.1946(2)
C17A C 0.5514(2) 0.1757(3) 0.2239(2)
C20A C 0.5510(2) -0.0492(3) 0.2220(2)
N4A N 0.5887(2) -0.1005(3) 0.2000(2)
H14A H 0.6289(21) 0.0931(30) 0.1904(20)
N2A N 0.7143(2) 0.2150(3) 0.1469(2)
O1A O 0.7283(2) 0.1286(2) 0.1360(2)
O2A O 0.7524(2) 0.2849(3) 0.1365(2)
H15A H 0.6586(22) 0.3777(29) 0.1700(21)
N3A N 0.5493(5) 0.4568(5) 0.2298(5)
O3A O 0.5947(6) 0.4994(5) 0.2864(4)
O4A O 0.4937(5) 0.4932(5) 0.1889(7)
H16A H 0.5584 0.4185 0.2196
S1 S 0.64921(5) 0.15152(7) 0.41745(6)
S2 S 0.64709(6) 0.36814(7) 0.43198(7)
S3 S 0.50826(6) 0.13575(7) 0.49023(6)
S4 S 0.49920(6) 0.35273(8) 0.49386(7)
S5 S 0.75089(7) 0.03782(9) 0.35021(7)
N1 N 0.8236(2) 0.2018(4) 0.3370(3)
C1 C 0.6060(2) 0.2553(3) 0.4439(2)
C2 C 0.7174(2) 0.2208(3) 0.3878(2)
C3 C 0.7155(2) 0.3203(3) 0.3945(2)
C4 C 0.5462(2) 0.2490(3) 0.4722(2)
C5 C 0.4345(2) 0.1869(3) 0.5208(2)
C6 C 0.4302(2) 0.2864(3) 0.5223(2)
C7 C 0.7677(2) 0.1594(3) 0.3575(2)
C8 C 0.8773(4) 0.1481(7) 0.3073(5)
C9 C 0.7648(3) 0.3984(5) 0.3748(4)
C10 C 0.3836(3) 0.1144(4) 0.5436(3)
C11 C 0.3726(3) 0.3478(5) 0.5444(4)
H1 H 0.8321(34) 0.2596(39) 0.3401(33)
H2 H 0.9054(42) 0.0892(58) 0.3421(42)
H3 H 0.9109(44) 0.1944(57) 0.2953(41)
H4 H 0.8523(43) 0.1111(56) 0.2601(45)
H5 H 0.7500(32) 0.4582(42) 0.3740(30)
H6 H 0.7611(28) 0.3939(36) 0.3238(29)
H7 H 0.8244(36) 0.3910(43) 0.4059(32)
H8 H 0.4112(34) 0.0738(45) 0.5819(34)
H9 H 0.3482(34) 0.0701(46) 0.4975(35)
H10 H 0.3451(36) 0.1400(46) 0.5544(34)
H11 H 0.3416(34) 0.3917(44) 0.5043(34)
H12 H 0.3986(31) 0.3860(41) 0.5855(32)
H13 H 0.3314(39) 0.3115(51) 0.5570(37)
loop_
_geom_bond_atom_site_label_1
_geom_bond_atom_site_label_2
_geom_bond_site_symmetry_1
_geom_bond_site_symmetry_2
S1 C1 1_555 1_555
S2 C1 1_555 1_555
S3 C4 1_555 1_555
S4 C4 1_555 1_555
S5 C7 1_555 1_555
N1 C7 1_555 1_555
C1 C4 1_555 1_555
C2 S1 1_555 1_555
C3 S2 1_555 1_555
C5 S3 1_555 1_555
C6 S4 1_555 1_555
C7 C2 1_555 1_555
C8 N1 1_555 1_555
C9 C3 1_555 1_555
C10 C5 1_555 1_555
C11 C6 1_555 1_555
C12 C13 1_555 1_555
C13 C14 1_555 1_555
C14 C15 1_555 1_555
C15 C16 1_555 1_555
C16 C17 1_555 1_555
C17 C12 1_555 1_555
C18 C17 1_555 1_555
C19 C18 1_555 1_555
C20 C19 1_555 1_555
N2 C13 1_555 1_555
N3 C15 1_555 1_555
N4 C20 1_555 1_555
O1 N2 1_555 1_555
O2 N2 1_555 1_555
O3 N3 1_555 1_555
O4 N3 1_555 1_555
H1 N1 1_555 1_555
H2 C8 1_555 1_555
H3 C8 1_555 1_555
H4 C8 1_555 1_555
H5 C9 1_555 1_555
H6 C9 1_555 1_555
H7 C9 1_555 1_555
H8 C10 1_555 1_555
H9 C10 1_555 1_555
H10 C10 1_555 1_555
H11 C11 1_555 1_555
H12 C11 1_555 1_555
H13 C11 1_555 1_555
H14 C12 1_555 1_555
H15 C14 1_555 1_555
H16 C15 1_555 1_555
C16A C16 1_555 1_555
C15A C16A 1_555 1_555
C14A C15A 1_555 1_555
C13A C14A 1_555 1_555
C12A C13A 1_555 1_555
C17A C18 1_555 1_555
C20A C19 1_555 1_555
N4A C20A 1_555 1_555
H14A C12A 1_555 1_555
N2A C13A 1_555 1_555
O1A N2A 1_555 1_555
O2A N2A 1_555 1_555
H15A C14A 1_555 1_555
N3A C15A 1_555 1_555
O3A N3A 1_555 1_555
O4A N3A 1_555 1_555
H16A C15A 1_555 1_555
C2 C3 1_555 1_555
C5 C6 1_555 1_555
N3 H16 1_555 1_555
C16A C17A 1_555 1_555
C12A C17A 1_555 1_555
N3A H16A 1_555 1_555

#END
