
#######################################################################
#
#                 Cambridge Crystallographic Data Centre
#                                CCDC 
#
#######################################################################
#
# If this CIF has been generated from an entry in the Cambridge 
# Structural Database, then it will include bibliographic, chemical, 
# crystal, experimental, refinement or atomic coordinate data resulting 
# from the CCDC's data processing and validation procedures.
#
#######################################################################

data_GIWBAS
_chemical_formula_moiety         'C36 H20 Br2'
_chemical_name_systematic        
11,12-dibromo-9,14-diphenyldibenzo[de,qr]tetracene
_symmetry_cell_setting           monoclinic
_symmetry_space_group_name_H-M   'C 2/c'
_symmetry_Int_Tables_number      15
_space_group_name_Hall           '-C 2yn'
loop_
_symmetry_equiv_pos_site_id
_symmetry_equiv_pos_as_xyz
1 x,y,z
2 -x,y,1/2-z
3 1/2+x,1/2+y,z
4 1/2-x,1/2+y,1/2-z
5 -x,-y,-z
6 x,-y,1/2+z
7 1/2-x,1/2-y,-z
8 1/2+x,1/2-y,1/2+z
_cell_length_a                   20.5262(8)
_cell_length_b                   12.7112(5)
_cell_length_c                   20.2096(8)
_cell_angle_alpha                90
_cell_angle_beta                 100.7760(10)
_cell_angle_gamma                90
_cell_volume                     5179.96
_exptl_crystal_colour            yellow
_exptl_crystal_description       Block
_cell_formula_units_Z            8
loop_
_atom_site_label
_atom_site_type_symbol
_atom_site_fract_x
_atom_site_fract_y
_atom_site_fract_z
Br1 Br 0.45446(2) 0.63050(3) 0.00827(2)
Br2 Br 0.47319(2) 0.46125(2) 0.13889(2)
C1 C 0.32540(15) 0.5271(2) 0.40631(17)
H1 H 0.315106 0.478086 0.436967
C2 C 0.36488(15) 0.6122(2) 0.42852(15)
H2 H 0.381871 0.620202 0.474232
C3 C 0.37936(14) 0.6860(2) 0.38310(15)
H3 H 0.406462 0.742950 0.398419
C4 C 0.35377(13) 0.6757(2) 0.31483(14)
C5 C 0.36562(13) 0.7592(2) 0.26686(14)
C6 C 0.39694(13) 0.7319(2) 0.21237(14)
C7 C 0.40422(13) 0.8083(2) 0.16378(14)
C8 C 0.39485(13) 0.9172(2) 0.17743(14)
C9 C 0.41086(15) 0.9927(2) 0.12659(15)
C10 C 0.36143(16) 1.0485(2) 0.08530(17)
H4 H 0.317466 1.040129 0.089835
C11 C 0.37715(19) 1.1171(3) 0.03706(19)
H5 H 0.343605 1.153072 0.008683
C12 C 0.4418(2) 1.1316(3) 0.03123(19)
H6 H 0.452164 1.179565 0.000013
C13 C 0.30128(15) 0.5147(2) 0.33865(17)
H7 H 0.275035 0.456785 0.323491
C14 C 0.31568(14) 0.5874(2) 0.29331(16)
H8 H 0.299737 0.577496 0.247558
C15 C 0.34743(13) 0.8643(2) 0.27437(14)
C16 C 0.37172(13) 0.9456(2) 0.23561(14)
C17 C 0.37337(13) 1.0560(2) 0.26280(15)
C18 C 0.41023(14) 1.1355(2) 0.24119(16)
H9 H 0.433756 1.121714 0.207048
C19 C 0.41303(16) 1.2356(2) 0.26916(17)
H10 H 0.438132 1.287549 0.253360
C20 C 0.37960(16) 1.2585(2) 0.31921(18)
H11 H 0.381813 1.325983 0.337257
C21 C 0.34188(15) 1.1815(2) 0.34386(16)
C22 C 0.34025(13) 1.0781(2) 0.31671(15)
C23 C 0.30129(14) 0.9991(2) 0.34256(15)
C24 C 0.26039(16) 1.0277(3) 0.38877(16)
C25 C 0.21628(16) 0.9547(3) 0.40638(17)
H12 H 0.189981 0.972679 0.437458
C26 C 0.21133(16) 0.8565(3) 0.37826(17)
H13 H 0.179680 0.809599 0.388080
C27 C 0.25307(14) 0.8265(2) 0.33535(16)
H14 H 0.248943 0.759334 0.316785
C28 C 0.30122(14) 0.8941(2) 0.31911(14)
C29 C 0.26422(19) 1.1332(3) 0.41452(18)
H15 H 0.238467 1.152194 0.445882
C30 C 0.30406(18) 1.2046(3) 0.39433(19)
H16 H 0.307169 1.271143 0.413769
C31 C 0.42121(13) 0.7746(2) 0.10229(14)
H17 H 0.421018 0.822833 0.067653
C32 C 0.43791(13) 0.6720(2) 0.09320(15)
C33 C 0.44014(14) 0.5997(2) 0.14623(16)
C34 C 0.41964(13) 0.6276(2) 0.20331(15)
H18 H 0.420282 0.578202 0.237360
C35 C 0.49145(18) 1.0760(3) 0.07114(17)
H19 H 0.535343 1.085310 0.066596
C36 C 0.47591(15) 1.0066(2) 0.11780(15)
H20 H 0.509612 0.968026 0.144133
loop_
_geom_bond_atom_site_label_1
_geom_bond_atom_site_label_2
_geom_bond_site_symmetry_1
_geom_bond_site_symmetry_2
Br1 C32 1_555 1_555
Br2 C33 1_555 1_555
C1 H1 1_555 1_555
C2 C1 1_555 1_555
H2 C2 1_555 1_555
C3 C2 1_555 1_555
H3 C3 1_555 1_555
C4 C3 1_555 1_555
C5 C4 1_555 1_555
C6 C5 1_555 1_555
C7 C6 1_555 1_555
C8 C7 1_555 1_555
C9 C8 1_555 1_555
C10 C9 1_555 1_555
H4 C10 1_555 1_555
C11 C10 1_555 1_555
H5 C11 1_555 1_555
C12 C11 1_555 1_555
H6 C12 1_555 1_555
C13 C1 1_555 1_555
H7 C13 1_555 1_555
C14 C4 1_555 1_555
H8 C14 1_555 1_555
C15 C5 1_555 1_555
C16 C8 1_555 1_555
C17 C16 1_555 1_555
C18 C17 1_555 1_555
H9 C18 1_555 1_555
C19 C18 1_555 1_555
H10 C19 1_555 1_555
C20 C19 1_555 1_555
H11 C20 1_555 1_555
C21 C20 1_555 1_555
C22 C17 1_555 1_555
C23 C22 1_555 1_555
C24 C23 1_555 1_555
C25 C24 1_555 1_555
H12 C25 1_555 1_555
C26 C25 1_555 1_555
H13 C26 1_555 1_555
C27 C26 1_555 1_555
H14 C27 1_555 1_555
C28 C15 1_555 1_555
C29 C24 1_555 1_555
H15 C29 1_555 1_555
C30 C21 1_555 1_555
H16 C30 1_555 1_555
C31 C7 1_555 1_555
H17 C31 1_555 1_555
C32 C31 1_555 1_555
C33 C32 1_555 1_555
C34 C6 1_555 1_555
H18 C34 1_555 1_555
C35 C12 1_555 1_555
H19 C35 1_555 1_555
C36 C9 1_555 1_555
H20 C36 1_555 1_555
C13 C14 1_555 1_555
C15 C16 1_555 1_555
C21 C22 1_555 1_555
C23 C28 1_555 1_555
C27 C28 1_555 1_555
C29 C30 1_555 1_555
C33 C34 1_555 1_555
C35 C36 1_555 1_555

#END
