
#######################################################################
#
#                 Cambridge Crystallographic Data Centre
#                                CCDC 
#
#######################################################################
#
# If this CIF has been generated from an entry in the Cambridge 
# Structural Database, then it will include bibliographic, chemical, 
# crystal, experimental, refinement or atomic coordinate data resulting 
# from the CCDC's data processing and validation procedures.
#
#######################################################################

data_GIWKUV
_chemical_formula_moiety         'C42 H62 N8 O4,H2 O1'
_chemical_name_systematic        
"N',N''-[(1,2-diphenylethane-1,2-diyl)bis(carbamoylazanediylcyclohexane-2,1-diyl)]bis(N'-cyclohexylurea) monohydrate unknown solvate"
_symmetry_cell_setting           trigonal
_symmetry_space_group_name_H-M   'P 31 2 1'
_symmetry_Int_Tables_number      152
_space_group_name_Hall           'P 31 2"'
loop_
_symmetry_equiv_pos_site_id
_symmetry_equiv_pos_as_xyz
1 x,y,z
2 -y,x-y,1/3+z
3 -x+y,-x,2/3+z
4 y,x,-z
5 x-y,-y,2/3-z
6 -x,-x+y,1/3-z
_cell_length_a                   16.7015(6)
_cell_length_b                   16.7015(6)
_cell_length_c                   14.7826(6)
_cell_angle_alpha                90
_cell_angle_beta                 90
_cell_angle_gamma                120
_cell_volume                     3571.02
_exptl_crystal_colour            colorless
_exptl_crystal_description       block
_cell_formula_units_Z            3
loop_
_atom_site_label
_atom_site_type_symbol
_atom_site_fract_x
_atom_site_fract_y
_atom_site_fract_z
C1 C 1.03836(14) 0.44303(15) 0.04112(14)
C2 C 1.09643(15) 0.53203(16) 0.00968(15)
H1 H 1.098479 0.583141 0.040072
C3 C 1.15137(17) 0.54691(18) -0.06555(16)
H2 H 1.191356 0.608098 -0.086360
C4 C 1.14809(19) 0.4731(2) -0.11021(17)
H3 H 1.185264 0.483242 -0.162320
C5 C 1.09084(19) 0.3844(2) -0.07934(17)
H4 H 1.088541 0.333473 -0.110336
C6 C 1.03690(17) 0.36940(17) -0.00363(16)
H5 H 0.998508 0.308204 0.017994
C7 C 0.97423(14) 0.42393(14) 0.12082(14)
H6 H 0.929705 0.355876 0.121858
N1 N 0.92052(12) 0.46972(12) 0.11068(13)
H7 H 0.950088 0.530390 0.106357
O1 O 0.78086(10) 0.33875(11) 0.10664(10)
C8 C 0.82734(15) 0.42375(15) 0.10756(13)
N2 N 0.78811(14) 0.47725(14) 0.10282(14)
H8 H 0.823285 0.537274 0.095014
C9 C 0.68894(16) 0.43734(18) 0.11041(15)
H9 H 0.662820 0.375171 0.139455
C10 C 0.6431(2) 0.4253(2) 0.01870(16)
H10 H 0.670185 0.486028 -0.011881
H11 H 0.655789 0.383998 -0.019269
C11 C 0.5393(2) 0.3846(2) 0.02732(18)
H12 H 0.512656 0.382842 -0.032969
H13 H 0.510941 0.320465 0.050214
C12 C 0.5173(2) 0.4420(2) 0.09137(18)
H14 H 0.538424 0.503521 0.064237
H15 H 0.449545 0.411425 0.099885
C13 C 0.56346(17) 0.4539(2) 0.18253(16)
H16 H 0.539004 0.392882 0.212074
H17 H 0.549344 0.493237 0.221872
C14 C 0.66747(16) 0.49838(18) 0.17084(14)
H18 H 0.690234 0.559105 0.139651
N3 N 0.71349(13) 0.51583(15) 0.25780(12)
H19 H 0.689090 0.472655 0.299626
O2 O 0.83797(13) 0.65230(13) 0.21744(12)
C15 C 0.79190(15) 0.59509(17) 0.27761(16)
N4 N 0.81706(14) 0.60725(14) 0.36476(15)
H20 H 0.783744 0.561398 0.402095
C16 C 0.8945(4) 0.6895(4) 0.4029(6)
H21 H 0.912198 0.741914 0.359765
C17 C 0.8673(3) 0.7138(3) 0.4914(4)
H22 H 0.845349 0.660729 0.533405
H23 H 0.815740 0.725884 0.481066
C18 C 0.9490(4) 0.7994(5) 0.5346(6)
H24 H 0.967794 0.853923 0.495186
H25 H 0.930043 0.812142 0.593864
C19 C 1.0294(5) 0.7830(7) 0.5473(6)
H26 H 1.011622 0.731006 0.589819
H27 H 1.082324 0.838853 0.573797
C20 C 1.0585(4) 0.7606(6) 0.4569(7)
H28 H 1.079753 0.813947 0.415349
H29 H 1.110388 0.748918 0.466654
C21 C 0.9770(3) 0.6757(3) 0.4150(5)
H30 H 0.995564 0.662996 0.355460
H31 H 0.959416 0.621401 0.454384
C1E C 0.96164(14) 0.40467(21) 0.29221(14)
C2E C 0.90357(15) 0.43560(22) 0.32365(15)
H1E H 0.901521 0.484662 0.293261
C3E C 0.84863(17) 0.39554(25) 0.39888(16)
H2E H 0.808644 0.416742 0.419693
C4E C 0.85191(19) 0.32501(28) 0.44354(17)
H3E H 0.814736 0.297978 0.495653
C5E C 0.90916(19) 0.29356(28) 0.41267(17)
H4E H 0.911459 0.244932 0.443669
C6E C 0.96310(17) 0.33250(24) 0.33696(16)
H5E H 1.001492 0.309696 0.315339
C7E C 1.02577(14) 0.44970(20) 0.21251(14)
H6E H 1.070295 0.426171 0.211475
N1E N 1.07948(12) 0.54920(17) 0.22265(13)
H7E H 1.049912 0.580302 0.226976
O1E O 1.21914(10) 0.55789(15) 0.22669(10)
C8E C 1.17266(15) 0.59641(21) 0.22577(13)
N2E N 1.21189(14) 0.68914(20) 0.23051(14)
H8E H 1.176715 0.713989 0.238319
C9E C 1.31106(16) 0.74840(24) 0.22292(15)
H9E H 1.337180 0.712351 0.193878
C10E C 1.3569(2) 0.7822(3) 0.31463(16)
H10E H 1.329815 0.815843 0.345214
H11E H 1.344211 0.728209 0.352602
C11E C 1.4607(2) 0.8453(3) 0.30601(18)
H12E H 1.487344 0.870186 0.366302
H13E H 1.489059 0.809524 0.283119
C12E C 1.4827(2) 0.9247(3) 0.24196(18)
H14E H 1.461576 0.965097 0.269096
H15E H 1.550455 0.961880 0.233448
C13E C 1.43654(17) 0.89044(26) 0.15080(16)
H16E H 1.460996 0.853878 0.121259
H17E H 1.450656 0.943893 0.111461
C14E C 1.33253(16) 0.83091(24) 0.16249(14)
H18E H 1.309766 0.868871 0.193682
N3E N 1.28651(13) 0.80234(20) 0.07553(12)
H19E H 1.310910 0.783565 0.033707
O2E O 1.16203(13) 0.81433(18) 0.11589(12)
C15E C 1.20810(15) 0.80319(23) 0.05572(16)
N4E N 1.18294(14) 0.79019(20) -0.03143(15)
H20E H 1.216256 0.777654 -0.068762
C16E C 1.1055(4) 0.7950(6) -0.0696(6)
H21E H 1.087802 0.829716 -0.026432
C17E C 1.1327(3) 0.8465(4) -0.1581(4)
H22E H 1.154651 0.815380 -0.200072
H23E H 1.184260 0.910144 -0.147733
C18E C 1.0510(4) 0.8504(6) -0.2013(6)
H24E H 1.032206 0.886129 -0.161853
H25E H 1.069957 0.882099 -0.260531
C19E C 0.9706(5) 0.7536(9) -0.2140(6)
H26E H 0.988378 0.719384 -0.256486
H27E H 0.917676 0.756529 -0.240464
C20E C 0.9415(4) 0.7021(7) -0.1236(7)
H28E H 0.920247 0.734194 -0.082016
H29E H 0.889612 0.638530 -0.133321
C21E C 1.0230(3) 0.6987(4) -0.0817(5)
H30E H 1.004436 0.667432 -0.022127
H31E H 1.040584 0.661985 -0.121051
O3 O 1.000000 0.66445(15) 0.166667
H43 H 1.043(2) 0.715(2) 0.149(3)
H43E H 0.957(2) 0.672(3) 0.184(3)
C22? C 0.9017(11) 0.6888(10) 0.3940(15)
H32? H 0.947064 0.709924 0.343011
C23? C 0.8839(8) 0.7660(8) 0.4182(10)
H33? H 0.835065 0.743963 0.465042
H34? H 0.861026 0.783236 0.364098
C24? C 0.9706(11) 0.8517(10) 0.4537(14)
H35? H 1.016402 0.879363 0.404158
H36? H 0.954162 0.898152 0.473831
C25? C 1.0134(15) 0.8274(14) 0.5319(12)
H37? H 0.970319 0.805933 0.583991
H38? H 1.071343 0.883076 0.550985
C26? C 1.0339(14) 0.7518(13) 0.504(2)
H39? H 1.078592 0.773659 0.452902
H40? H 1.061363 0.735653 0.554935
C27? C 0.9437(16) 0.6673(10) 0.4746(16)
H41? H 0.955475 0.616536 0.458817
H42? H 0.899427 0.646305 0.525673
loop_
_geom_bond_atom_site_label_1
_geom_bond_atom_site_label_2
_geom_bond_site_symmetry_1
_geom_bond_site_symmetry_2
C1 C2 1_555 1_555
C2 H1 1_555 1_555
C3 C2 1_555 1_555
H2 C3 1_555 1_555
C4 C3 1_555 1_555
H3 C4 1_555 1_555
C5 C4 1_555 1_555
H4 C5 1_555 1_555
C6 C1 1_555 1_555
H5 C6 1_555 1_555
C7 C1 1_555 1_555
H6 C7 1_555 1_555
N1 C7 1_555 1_555
H7 N1 1_555 1_555
O1 C8 1_555 1_555
C8 N1 1_555 1_555
N2 C8 1_555 1_555
H8 N2 1_555 1_555
C9 N2 1_555 1_555
H9 C9 1_555 1_555
C10 C9 1_555 1_555
H10 C10 1_555 1_555
H11 C10 1_555 1_555
C11 C10 1_555 1_555
H12 C11 1_555 1_555
H13 C11 1_555 1_555
C12 C11 1_555 1_555
H14 C12 1_555 1_555
H15 C12 1_555 1_555
C13 C12 1_555 1_555
H16 C13 1_555 1_555
H17 C13 1_555 1_555
C14 C9 1_555 1_555
H18 C14 1_555 1_555
N3 C14 1_555 1_555
H19 N3 1_555 1_555
O2 C15 1_555 1_555
C15 N3 1_555 1_555
N4 C15 1_555 1_555
H20 N4 1_555 1_555
C16 N4 1_555 1_555
H21 C16 1_555 1_555
C17 C16 1_555 1_555
H22 C17 1_555 1_555
H23 C17 1_555 1_555
C18 C17 1_555 1_555
H24 C18 1_555 1_555
H25 C18 1_555 1_555
C19 C18 1_555 1_555
H26 C19 1_555 1_555
H27 C19 1_555 1_555
C20 C19 1_555 1_555
H28 C20 1_555 1_555
H29 C20 1_555 1_555
C21 C16 1_555 1_555
H30 C21 1_555 1_555
H31 C21 1_555 1_555
O3 H43 1_555 1_555
C1E C2E 1_555 1_555
C2E H1E 1_555 1_555
C3E C2E 1_555 1_555
H2E C3E 1_555 1_555
C4E C3E 1_555 1_555
H3E C4E 1_555 1_555
C5E C4E 1_555 1_555
H4E C5E 1_555 1_555
C6E C1E 1_555 1_555
H5E C6E 1_555 1_555
C7E C7 1_555 1_555
H6E C7E 1_555 1_555
N1E C7E 1_555 1_555
H7E N1E 1_555 1_555
O1E C8E 1_555 1_555
C8E N1E 1_555 1_555
N2E C8E 1_555 1_555
H8E N2E 1_555 1_555
C9E N2E 1_555 1_555
H9E C9E 1_555 1_555
C10E C9E 1_555 1_555
H10E C10E 1_555 1_555
H11E C10E 1_555 1_555
C11E C10E 1_555 1_555
H12E C11E 1_555 1_555
H13E C11E 1_555 1_555
C12E C11E 1_555 1_555
H14E C12E 1_555 1_555
H15E C12E 1_555 1_555
C13E C12E 1_555 1_555
H16E C13E 1_555 1_555
H17E C13E 1_555 1_555
C14E C9E 1_555 1_555
H18E C14E 1_555 1_555
N3E C14E 1_555 1_555
H19E N3E 1_555 1_555
O2E C15E 1_555 1_555
C15E N3E 1_555 1_555
N4E C15E 1_555 1_555
H20E N4E 1_555 1_555
C16E N4E 1_555 1_555
H21E C16E 1_555 1_555
C17E C16E 1_555 1_555
H22E C17E 1_555 1_555
H23E C17E 1_555 1_555
C18E C17E 1_555 1_555
H24E C18E 1_555 1_555
H25E C18E 1_555 1_555
C19E C18E 1_555 1_555
H26E C19E 1_555 1_555
H27E C19E 1_555 1_555
C20E C19E 1_555 1_555
H28E C20E 1_555 1_555
H29E C20E 1_555 1_555
C21E C16E 1_555 1_555
H30E C21E 1_555 1_555
H31E C21E 1_555 1_555
H43E O3 1_555 1_555
C5 C6 1_555 1_555
C13 C14 1_555 1_555
C20 C21 1_555 1_555
C1E C7E 1_555 1_555
C5E C6E 1_555 1_555
C13E C14E 1_555 1_555
C20E C21E 1_555 1_555

#END
