
#######################################################################
#
#                 Cambridge Crystallographic Data Centre
#                                CCDC 
#
#######################################################################
#
# If this CIF has been generated from an entry in the Cambridge 
# Structural Database, then it will include bibliographic, chemical, 
# crystal, experimental, refinement or atomic coordinate data resulting 
# from the CCDC's data processing and validation procedures.
#
#######################################################################

data_GIWWAL
_chemical_formula_moiety         'C48 H54 N24 O12,C3 H6 O1,19(H2 O1)'
_chemical_name_systematic        
'm-Tricyclohexyl cucurbit[6]uril acetone clathrate nonadecahydrate'
_symmetry_cell_setting           monoclinic
_symmetry_space_group_name_H-M   'P 21'
_symmetry_Int_Tables_number      4
_space_group_name_Hall           'P 2yb'
loop_
_symmetry_equiv_pos_site_id
_symmetry_equiv_pos_as_xyz
1 x,y,z
2 -x,1/2+y,-z
_cell_length_a                   12.2011(19)
_cell_length_b                   17.0892(19)
_cell_length_c                   16.870(2)
_cell_angle_alpha                90.00
_cell_angle_beta                 99.079(2)
_cell_angle_gamma                90.00
_cell_volume                     3473.45
_exptl_crystal_colour            colorless
_cell_formula_units_Z            2
loop_
_atom_site_label
_atom_site_type_symbol
_atom_site_fract_x
_atom_site_fract_y
_atom_site_fract_z
C1 C -0.3458(3) 0.5238(3) 0.2797(3)
C2 C -0.2937(3) 0.4807(3) 0.4135(2)
C3 C -0.3083(3) 0.5721(2) 0.4111(2)
C4 C -0.1260(4) 0.5407(3) 0.4696(2)
C5 C -0.3685(4) 0.4411(3) 0.4639(3)
H1 H -0.3502 0.3859 0.4689
H2 H -0.4451 0.4458 0.4381
C6 C -0.3546(5) 0.4786(3) 0.5476(3)
H3 H -0.4045 0.4533 0.5790
H4 H -0.2793 0.4702 0.5745
C7 C -0.3789(4) 0.5663(3) 0.5434(3)
H5 H -0.4438 0.5766 0.5684
H6 H -0.3168 0.5940 0.5739
C8 C -0.3992(4) 0.5981(3) 0.4578(3)
H7 H -0.4705 0.5796 0.4306
H8 H -0.4015 0.6548 0.4593
C9 C -0.3678(3) 0.6651(3) 0.2929(3)
H9 H -0.4165 0.6573 0.2423
H10 H -0.4103 0.6915 0.3290
C10 C -0.1692(4) 0.6810(2) 0.4660(2)
H11 H -0.1085 0.6826 0.5107
H12 H -0.2319 0.7078 0.4826
C11 C -0.2454(3) 0.7256(3) 0.2071(2)
C12 C -0.2156(3) 0.7644(2) 0.3410(2)
H13 H -0.2644 0.7977 0.3673
C13 C -0.1412(3) 0.8128(2) 0.2937(2)
H14 H -0.1627 0.8682 0.2911
C14 C -0.0315(3) 0.7506(2) 0.4019(2)
C15 C -0.1222(3) 0.8133(3) 0.1462(2)
H15 H -0.1708 0.7965 0.0980
H16 H -0.1295 0.8696 0.1504
C16 C 0.0648(3) 0.8467(3) 0.3263(2)
H17 H 0.0426 0.9006 0.3149
H18 H 0.1178 0.8464 0.3756
C17 C 0.0156(4) 0.7454(3) 0.0809(2)
C18 C 0.0872(3) 0.8383(2) 0.1772(2)
C19 C 0.1838(3) 0.8023(2) 0.1386(2)
C20 C 0.2177(3) 0.7797(2) 0.2767(2)
C21 C 0.0770(4) 0.9257(3) 0.1641(3)
H19 H 0.0220 0.9464 0.1942
H20 H 0.0519 0.9362 0.1077
C22 C 0.1875(4) 0.9669(3) 0.1907(3)
H21 H 0.1802 1.0213 0.1743
H22 H 0.2042 0.9657 0.2488
C23 C 0.2836(4) 0.9310(3) 0.1567(3)
H23 H 0.3383 0.9121 0.2005
H24 H 0.3186 0.9710 0.1284
C24 C 0.2479(4) 0.8639(3) 0.0997(3)
H25 H 0.3129 0.8401 0.0833
H26 H 0.2016 0.8839 0.0519
C25 C 0.1766(4) 0.7052(3) 0.0214(2)
H27 H 0.2336 0.7380 0.0045
H28 H 0.1203 0.6962 -0.0250
C26 C 0.3573(3) 0.7261(3) 0.2043(3)
H29 H 0.4004 0.7269 0.2577
H30 H 0.3982 0.7555 0.1694
C27 C 0.1844(4) 0.5632(3) 0.0175(2)
C28 C 0.3367(3) 0.6231(3) 0.0941(2)
H31 H 0.3929 0.6479 0.0669
C29 C 0.3505(4) 0.5324(3) 0.0985(2)
H32 H 0.4187 0.5158 0.0795
C30 C 0.3632(3) 0.5826(3) 0.2283(3)
C31 C 0.2345(5) 0.4241(3) 0.0252(3)
H33 H 0.3032 0.4017 0.0137
H34 H 0.1809 0.4219 -0.0238
C32 C 0.3949(3) 0.4418(3) 0.2167(3)
H35 H 0.4316 0.4501 0.2714
H36 H 0.4494 0.4210 0.1863
C33 C 0.0824(4) 0.3647(3) 0.0862(3)
C34 C 0.2618(4) 0.3346(2) 0.1493(3)
C35 C 0.1763(3) 0.2839(3) 0.1869(2)
C36 C 0.2736(3) 0.3631(3) 0.2867(2)
C37 C 0.3523(5) 0.2853(3) 0.1198(3)
H37 H 0.3218 0.2587 0.0704
H38 H 0.4122 0.3189 0.1089
C38 C 0.3962(4) 0.2259(3) 0.1829(4)
H39 H 0.4268 0.2529 0.2320
H40 H 0.4556 0.1964 0.1649
C39 C 0.3048(5) 0.1687(3) 0.2006(4)
H41 H 0.3158 0.1187 0.1757
H42 H 0.3131 0.1603 0.2581
C40 C 0.1893(4) 0.1959(3) 0.1714(3)
H43 H 0.1379 0.1667 0.1984
H44 H 0.1708 0.1857 0.1143
C41 C -0.0362(4) 0.2830(3) 0.1545(3)
H45 H -0.0301 0.2265 0.1570
H46 H -0.0878 0.2963 0.1065
C42 C 0.1543(3) 0.2639(3) 0.3354(2)
H47 H 0.1460 0.2088 0.3223
H48 H 0.2068 0.2682 0.3848
C43 C -0.1809(4) 0.3487(3) 0.2136(3)
C44 C -0.0574(3) 0.2731(3) 0.3017(3)
H49 H -0.0668 0.2163 0.2973
C45 C -0.1425(3) 0.3098(3) 0.3477(3)
H50 H -0.1811 0.2700 0.3748
C46 C 0.0352(4) 0.3429(2) 0.4103(3)
C47 C -0.3242(3) 0.3811(3) 0.2969(3)
H51 H -0.3719 0.3807 0.2452
H52 H -0.3573 0.3469 0.3324
C48 C -0.1211(4) 0.3979(3) 0.4684(2)
H53 H -0.0613 0.4070 0.5127
H54 H -0.1738 0.3628 0.4873
N1 N -0.3211(3) 0.4594(2) 0.3288(2)
N2 N -0.3335(3) 0.5895(2) 0.3265(2)
N3 N -0.1756(3) 0.4713(2) 0.4461(2)
N4 N -0.1993(3) 0.60013(19) 0.4487(2)
N5 N -0.2783(3) 0.7152(2) 0.2794(2)
N6 N -0.1589(3) 0.7770(2) 0.21524(19)
N7 N -0.1363(3) 0.7226(2) 0.3987(2)
N8 N -0.0320(3) 0.8019(2) 0.3388(2)
N9 N -0.0093(3) 0.7950(2) 0.1379(2)
N10 N 0.1272(3) 0.7465(2) 0.08093(19)
N11 N 0.1191(3) 0.8179(2) 0.26177(19)
N12 N 0.2536(3) 0.7648(2) 0.2067(2)
N13 N 0.2254(3) 0.6313(2) 0.0486(2)
N14 N 0.2538(3) 0.5041(2) 0.0467(2)
N15 N 0.3476(3) 0.6455(2) 0.1764(2)
N16 N 0.3555(3) 0.5162(2) 0.1825(2)
N17 N 0.1940(3) 0.3761(2) 0.0859(2)
N18 N 0.0710(3) 0.3155(2) 0.1480(2)
N19 N 0.3066(3) 0.3848(2) 0.2170(2)
N20 N 0.2011(3) 0.3029(2) 0.2720(2)
N21 N -0.0805(3) 0.3105(2) 0.2240(2)
N22 N -0.2170(3) 0.3497(2) 0.2871(2)
N23 N 0.0481(3) 0.2937(2) 0.3499(2)
N24 N -0.0763(3) 0.3604(2) 0.4044(2)
O1 O -0.3769(2) 0.52210(19) 0.20823(17)
O2 O -0.2879(3) 0.6948(2) 0.14426(18)
O3 O -0.0512(3) 0.70855(19) 0.03341(19)
O4 O 0.0992(3) 0.5543(2) -0.03161(17)
O5 O 0.0079(3) 0.3936(2) 0.03840(18)
O6 O -0.2287(3) 0.3743(3) 0.15131(19)
O7 O -0.0310(2) 0.5478(2) 0.50472(18)
O8 O 0.0496(2) 0.73465(18) 0.45222(17)
O9 O 0.2673(2) 0.76426(19) 0.34478(17)
O10 O 0.3817(3) 0.5866(2) 0.30109(17)
O11 O 0.3076(3) 0.39104(19) 0.35308(17)
O12 O 0.1090(2) 0.3666(2) 0.46236(17)
C49 C -0.0743(11) 0.5435(11) 0.2260(9)
H55 H -0.0951 0.5586 0.1709
H56 H -0.1179 0.5722 0.2588
H57 H -0.0870 0.4885 0.2314
C50 C 0.0388(8) 0.5599(9) 0.2509(7)
C51 C 0.1038(8) 0.5536(10) 0.3216(6)
H58 H 0.1781 0.5686 0.3164
H59 H 0.1036 0.5004 0.3398
H60 H 0.0766 0.5872 0.3598
O13 O 0.0878(13) 0.585(2) 0.2015(9)
O14 O 0.4967(3) 0.8119(2) 0.3781(2)
O15 O 0.3984(3) 0.2869(2) 0.4692(2)
O16 O 0.3546(4) 0.5084(3) 0.4687(3)
O17 O 0.1649(3) 0.6245(3) 0.5737(3)
O18 O 0.3955(4) 0.4328(3) 0.6852(3)
O19 O 0.2038(4) 0.4632(3) 0.5826(3)
O20 O 0.3154(4) 0.6637(3) 0.4748(3)
O21 O -0.1364(4) 0.5477(3) 0.0048(3)
O22 O -0.0586(5) 0.5721(3) 0.6715(3)
O23 O 0.4410(5) 0.7249(3) 0.6111(3)
O24 O -0.3533(4) 0.5362(5) 0.0365(3)
O25 O -0.4679(5) 0.7946(5) 0.0767(3)
O26 O -0.3595(5) 0.9272(4) 0.1539(4)
O27 O -0.4315(4) 0.3847(7) 0.0531(3)
O28 O -0.2540(5) 0.1429(5) 0.2668(4)
O29 O 0.4622(6) 0.5640(5) -0.0848(4)
O30 O 0.4630(5) 0.5825(4) 0.7269(4)
O31 O 0.0980(7) 0.5740(6) -0.1934(3)
O32 O -0.3423(9) 0.2051(8) 0.1129(8)
loop_
_geom_bond_atom_site_label_1
_geom_bond_atom_site_label_2
_geom_bond_site_symmetry_1
_geom_bond_site_symmetry_2
C1 N1 1_555 1_555
C2 C3 1_555 1_555
C3 C8 1_555 1_555
C4 N3 1_555 1_555
C5 C2 1_555 1_555
H1 C5 1_555 1_555
H2 C5 1_555 1_555
C6 C5 1_555 1_555
H3 C6 1_555 1_555
H4 C6 1_555 1_555
C7 C6 1_555 1_555
H5 C7 1_555 1_555
H6 C7 1_555 1_555
C8 C7 1_555 1_555
H7 C8 1_555 1_555
H8 C8 1_555 1_555
C9 H9 1_555 1_555
H10 C9 1_555 1_555
C10 H11 1_555 1_555
H12 C10 1_555 1_555
C11 N5 1_555 1_555
C12 H13 1_555 1_555
C13 C12 1_555 1_555
H14 C13 1_555 1_555
C14 N7 1_555 1_555
C15 H15 1_555 1_555
H16 C15 1_555 1_555
C16 H17 1_555 1_555
H18 C16 1_555 1_555
C17 N9 1_555 1_555
C18 C19 1_555 1_555
C19 C24 1_555 1_555
C20 N11 1_555 1_555
C21 C18 1_555 1_555
H19 C21 1_555 1_555
H20 C21 1_555 1_555
C22 C21 1_555 1_555
H21 C22 1_555 1_555
H22 C22 1_555 1_555
C23 C22 1_555 1_555
H23 C23 1_555 1_555
H24 C23 1_555 1_555
C24 C23 1_555 1_555
H25 C24 1_555 1_555
H26 C24 1_555 1_555
C25 H27 1_555 1_555
H28 C25 1_555 1_555
C26 H29 1_555 1_555
H30 C26 1_555 1_555
C27 N13 1_555 1_555
C28 H31 1_555 1_555
C29 C28 1_555 1_555
H32 C29 1_555 1_555
C30 N15 1_555 1_555
C31 H33 1_555 1_555
H34 C31 1_555 1_555
C32 H35 1_555 1_555
H36 C32 1_555 1_555
C33 N17 1_555 1_555
C34 C35 1_555 1_555
C35 C40 1_555 1_555
C36 N19 1_555 1_555
C37 C34 1_555 1_555
H37 C37 1_555 1_555
H38 C37 1_555 1_555
C38 C37 1_555 1_555
H39 C38 1_555 1_555
H40 C38 1_555 1_555
C39 C38 1_555 1_555
H41 C39 1_555 1_555
H42 C39 1_555 1_555
C40 C39 1_555 1_555
H43 C40 1_555 1_555
H44 C40 1_555 1_555
C41 H45 1_555 1_555
H46 C41 1_555 1_555
C42 H47 1_555 1_555
H48 C42 1_555 1_555
C43 N21 1_555 1_555
C44 H49 1_555 1_555
C45 C44 1_555 1_555
H50 C45 1_555 1_555
C46 N23 1_555 1_555
C47 H51 1_555 1_555
H52 C47 1_555 1_555
C48 H53 1_555 1_555
H54 C48 1_555 1_555
N1 C2 1_555 1_555
N2 C1 1_555 1_555
N3 C2 1_555 1_555
N4 C3 1_555 1_555
N5 C9 1_555 1_555
N6 C11 1_555 1_555
N7 C10 1_555 1_555
N8 C13 1_555 1_555
N9 C15 1_555 1_555
N10 C17 1_555 1_555
N11 C16 1_555 1_555
N12 C19 1_555 1_555
N13 C25 1_555 1_555
N14 C27 1_555 1_555
N15 C26 1_555 1_555
N16 C29 1_555 1_555
N17 C31 1_555 1_555
N18 C33 1_555 1_555
N19 C32 1_555 1_555
N20 C35 1_555 1_555
N21 C41 1_555 1_555
N22 C43 1_555 1_555
N23 C42 1_555 1_555
N24 C45 1_555 1_555
O1 C1 1_555 1_555
O2 C11 1_555 1_555
O3 C17 1_555 1_555
O4 C27 1_555 1_555
O5 C33 1_555 1_555
O6 C43 1_555 1_555
O7 C4 1_555 1_555
O8 C14 1_555 1_555
O9 C20 1_555 1_555
O10 C30 1_555 1_555
O11 C36 1_555 1_555
O12 C46 1_555 1_555
C49 H55 1_555 1_555
H56 C49 1_555 1_555
H57 C49 1_555 1_555
C50 C49 1_555 1_555
C51 C50 1_555 1_555
H58 C51 1_555 1_555
H59 C51 1_555 1_555
H60 C51 1_555 1_555
O13 C50 1_555 1_555
C3 N2 1_555 1_555
C4 N4 1_555 1_555
C9 N2 1_555 1_555
C10 N4 1_555 1_555
C12 N5 1_555 1_555
C12 N7 1_555 1_555
C13 N6 1_555 1_555
C14 N8 1_555 1_555
C15 N6 1_555 1_555
C16 N8 1_555 1_555
C18 N9 1_555 1_555
C18 N11 1_555 1_555
C19 N10 1_555 1_555
C20 N12 1_555 1_555
C25 N10 1_555 1_555
C26 N12 1_555 1_555
C28 N13 1_555 1_555
C28 N15 1_555 1_555
C29 N14 1_555 1_555
C30 N16 1_555 1_555
C31 N14 1_555 1_555
C32 N16 1_555 1_555
C34 N17 1_555 1_555
C34 N19 1_555 1_555
C35 N18 1_555 1_555
C36 N20 1_555 1_555
C41 N18 1_555 1_555
C42 N20 1_555 1_555
C44 N21 1_555 1_555
C44 N23 1_555 1_555
C45 N22 1_555 1_555
C46 N24 1_555 1_555
C47 N1 1_555 1_555
C47 N22 1_555 1_555
C48 N3 1_555 1_555
C48 N24 1_555 1_555

#END
