
#######################################################################
#
#                 Cambridge Crystallographic Data Centre
#                                CCDC 
#
#######################################################################
#
# If this CIF has been generated from an entry in the Cambridge 
# Structural Database, then it will include bibliographic, chemical, 
# crystal, experimental, refinement or atomic coordinate data resulting 
# from the CCDC's data processing and validation procedures.
#
#######################################################################

data_GIXBUN
_chemical_formula_moiety         'C13 H15 Br1 N4 O3'
_chemical_name_systematic        
'methyl [(3-azido-2-bromobutanoyl)amino](phenyl)acetate'
_symmetry_cell_setting           monoclinic
_symmetry_space_group_name_H-M   'P 21'
_symmetry_Int_Tables_number      4
_space_group_name_Hall           'P 2yb'
loop_
_symmetry_equiv_pos_site_id
_symmetry_equiv_pos_as_xyz
1 x,y,z
2 -x,1/2+y,-z
_cell_length_a                   11.419(5)
_cell_length_b                   4.970(2)
_cell_length_c                   13.463(7)
_cell_angle_alpha                90
_cell_angle_beta                 94.723(16)
_cell_angle_gamma                90
_cell_volume                     761.464
_exptl_crystal_colour            colorless
_exptl_crystal_description       needle
_cell_formula_units_Z            2
loop_
_atom_site_label
_atom_site_type_symbol
_atom_site_fract_x
_atom_site_fract_y
_atom_site_fract_z
Br1 Br 0.92166(5) 0.37127(18) 0.91408(4)
O1 O 0.7202(5) 0.1480(10) 0.7683(4)
N1 N 0.8551(6) 0.6478(18) 0.6251(5)
C1 C 1.0408(7) 0.6713(19) 0.7317(6)
H1 H 1.083897 0.669202 0.673402
H2 H 1.086765 0.587363 0.786035
H3 H 1.024174 0.854033 0.748953
N2 N 0.8960(6) 0.6565(14) 0.5461(5)
O2 O 0.5077(5) 0.8475(15) 0.6091(4)
C2 C 0.9268(6) 0.5193(16) 0.7107(5)
H4 H 0.942541 0.330371 0.695784
N3 N 0.9225(9) 0.676(2) 0.4667(7)
C3 C 0.8442(5) 0.5393(13) 0.7948(4)
H5 H 0.829209 0.729261 0.808635
O3 O 0.3666(4) 0.5379(12) 0.5922(4)
N4 N 0.6364(4) 0.5592(11) 0.7488(4)
H6 H 0.646484 0.730187 0.754362
C4 C 0.7272(5) 0.3950(17) 0.7700(4)
C5 C 0.5205(5) 0.4548(11) 0.7162(5)
H7 H 0.529954 0.274766 0.688307
C6 C 0.4661(5) 0.6389(13) 0.6332(5)
C7 C 0.4499(7) 0.6034(16) 0.8811(5)
H8 H 0.509201 0.732098 0.885715
C8 C 0.4387(5) 0.4337(11) 0.8008(4)
C9 C 0.3059(7) 0.698(2) 0.5133(6)
H9 H 0.310899 0.609298 0.450442
H10 H 0.341862 0.872217 0.511384
H11 H 0.224852 0.717717 0.526083
C10 C 0.3725(8) 0.5846(19) 0.9566(6)
H12 H 0.378668 0.704618 1.009789
C11 C 0.2867(6) 0.386(2) 0.9514(5)
H13 H 0.237264 0.367636 1.002594
C12 C 0.2751(7) 0.220(2) 0.8721(7)
H14 H 0.215959 0.090590 0.867671
C13 C 0.3517(7) 0.2397(16) 0.7961(6)
H15 H 0.343842 0.121862 0.742323
loop_
_geom_bond_atom_site_label_1
_geom_bond_atom_site_label_2
_geom_bond_site_symmetry_1
_geom_bond_site_symmetry_2
Br1 C3 1_555 1_555
O1 C4 1_555 1_555
N1 N2 1_555 1_555
C1 H1 1_555 1_555
H2 C1 1_555 1_555
H3 C1 1_555 1_555
N2 N3 1_555 1_555
O2 C6 1_555 1_555
C2 N1 1_555 1_555
H4 C2 1_555 1_555
C3 C2 1_555 1_555
H5 C3 1_555 1_555
O3 C6 1_555 1_555
N4 H6 1_555 1_555
C4 C3 1_555 1_555
C5 N4 1_555 1_555
H7 C5 1_555 1_555
C6 C5 1_555 1_555
C7 H8 1_555 1_555
C8 C5 1_555 1_555
C9 O3 1_555 1_555
H9 C9 1_555 1_555
H10 C9 1_555 1_555
H11 C9 1_555 1_555
C10 C7 1_555 1_555
H12 C10 1_555 1_555
C11 C10 1_555 1_555
H13 C11 1_555 1_555
C12 C11 1_555 1_555
H14 C12 1_555 1_555
C13 C8 1_555 1_555
H15 C13 1_555 1_555
C1 C2 1_555 1_555
N4 C4 1_555 1_555
C7 C8 1_555 1_555
C12 C13 1_555 1_555

#END
