
#######################################################################
#
#                 Cambridge Crystallographic Data Centre
#                                CCDC 
#
#######################################################################
#
# If this CIF has been generated from an entry in the Cambridge 
# Structural Database, then it will include bibliographic, chemical, 
# crystal, experimental, refinement or atomic coordinate data resulting 
# from the CCDC's data processing and validation procedures.
#
#######################################################################

data_GIXCIC
_chemical_formula_moiety         'C8 H13 Br1 N4 O3'
_chemical_name_systematic        'methyl N-(3-azido-2-bromobutanoyl)alaninate'
_symmetry_cell_setting           orthorhombic
_symmetry_space_group_name_H-M   'P 21 21 21'
_symmetry_Int_Tables_number      19
_space_group_name_Hall           'P 2ac 2ab'
loop_
_symmetry_equiv_pos_site_id
_symmetry_equiv_pos_as_xyz
1 x,y,z
2 1/2-x,-y,1/2+z
3 -x,1/2+y,1/2-z
4 1/2+x,1/2-y,-z
_cell_length_a                   4.7281(5)
_cell_length_b                   8.6984(13)
_cell_length_c                   31.025(4)
_cell_angle_alpha                90
_cell_angle_beta                 90
_cell_angle_gamma                90
_cell_volume                     1275.96
_exptl_crystal_colour            colorless
_exptl_crystal_description       block
_cell_formula_units_Z            4
loop_
_atom_site_label
_atom_site_type_symbol
_atom_site_fract_x
_atom_site_fract_y
_atom_site_fract_z
Br1 Br 0.81322(18) 0.14586(9) 0.32924(2)
H1 H 0.498(11) 0.421(6) 0.4055(15)
N1 N 0.6917(19) 0.6123(9) 0.3062(2)
O1 O 0.7091(8) 0.4913(4) 0.52507(10)
N2 N 0.844(3) 0.6930(9) 0.3228(3)
O2 O 0.3890(7) 0.3674(5) 0.48462(11)
N3 N 1.000(3) 0.7842(10) 0.3389(3)
O3 O 1.0916(6) 0.4365(5) 0.37881(11)
N4 N 0.6632(9) 0.4412(5) 0.41068(12)
C1 C 0.8348(11) 0.4158(6) 0.37771(14)
C2 C 0.5970(10) 0.4446(6) 0.48789(16)
C3 C 0.7680(11) 0.5071(6) 0.45080(14)
H2 H 0.968756 0.473646 0.454707
C4 C 0.6951(11) 0.3591(7) 0.33653(14)
H3 H 0.484803 0.364040 0.339628
C5 C 0.7868(13) 0.4534(8) 0.29785(16)
H4 H 0.997623 0.451031 0.295264
C6 C 0.5726(15) 0.4348(8) 0.56359(16)
H5 H 0.367353 0.447332 0.560868
H6 H 0.640074 0.493076 0.588596
H7 H 0.617624 0.325711 0.567449
C7 C 0.7621(15) 0.6811(7) 0.44915(18)
H8 H 0.881063 0.717007 0.425317
H9 H 0.834140 0.722703 0.476376
H10 H 0.567356 0.716208 0.444684
C8 C 0.6537(15) 0.4008(11) 0.25569(17)
H11 H 0.712074 0.469838 0.232374
H12 H 0.447187 0.402721 0.258395
H13 H 0.715990 0.295881 0.249157
loop_
_geom_bond_atom_site_label_1
_geom_bond_atom_site_label_2
_geom_bond_site_symmetry_1
_geom_bond_site_symmetry_2
Br1 C4 1_555 1_555
H1 N4 1_555 1_555
N1 N2 1_555 1_555
O1 C2 1_555 1_555
N2 N3 1_555 1_555
O2 C2 1_555 1_555
O3 C1 1_555 1_555
N4 C1 1_555 1_555
C1 C4 1_555 1_555
C2 C3 1_555 1_555
C3 N4 1_555 1_555
H2 C3 1_555 1_555
C4 H3 1_555 1_555
C5 N1 1_555 1_555
H4 C5 1_555 1_555
C6 O1 1_555 1_555
H5 C6 1_555 1_555
H6 C6 1_555 1_555
H7 C6 1_555 1_555
C7 C3 1_555 1_555
H8 C7 1_555 1_555
H9 C7 1_555 1_555
H10 C7 1_555 1_555
C8 C5 1_555 1_555
H11 C8 1_555 1_555
H12 C8 1_555 1_555
H13 C8 1_555 1_555
C4 C5 1_555 1_555

#END
