
#######################################################################
#
#                 Cambridge Crystallographic Data Centre
#                                CCDC 
#
#######################################################################
#
# If this CIF has been generated from an entry in the Cambridge 
# Structural Database, then it will include bibliographic, chemical, 
# crystal, experimental, refinement or atomic coordinate data resulting 
# from the CCDC's data processing and validation procedures.
#
#######################################################################

data_GIXCEY
_chemical_formula_moiety         'C13 H15 Br1 N4 O2'
_chemical_name_systematic        
3-azido-2-bromo-1-(morpholin-4-yl)-3-phenylpropan-1-one
_symmetry_cell_setting           orthorhombic
_symmetry_space_group_name_H-M   'P 21 21 21'
_symmetry_Int_Tables_number      19
_space_group_name_Hall           'P 2ac 2ab'
loop_
_symmetry_equiv_pos_site_id
_symmetry_equiv_pos_as_xyz
1 x,y,z
2 1/2-x,-y,1/2+z
3 -x,1/2+y,1/2-z
4 1/2+x,1/2-y,-z
_cell_length_a                   9.4721(3)
_cell_length_b                   15.3833(6)
_cell_length_c                   41.3845(15)
_cell_angle_alpha                90
_cell_angle_beta                 90
_cell_angle_gamma                90
_cell_volume                     6030.22
_exptl_crystal_colour            colorless
_exptl_crystal_description       block
_cell_formula_units_Z            16
loop_
_atom_site_label
_atom_site_type_symbol
_atom_site_fract_x
_atom_site_fract_y
_atom_site_fract_z
Br1 Br 0.07886(8) 0.36542(6) 0.70087(2)
O1 O 0.3424(5) 0.4246(4) 0.64873(11)
O2 O 0.7059(6) 0.3599(7) 0.72607(15)
N1 N 0.4465(6) 0.3802(5) 0.69433(14)
C1 C 0.3436(7) 0.4191(6) 0.67841(16)
C2 C 0.5721(7) 0.3476(7) 0.67725(19)
H1 H 0.568565 0.365018 0.654732
H2 H 0.574428 0.284629 0.678158
N2 N 0.2779(8) 0.6005(5) 0.6803(2)
N3 N 0.2868(10) 0.6404(7) 0.6544(2)
N4 N 0.3051(16) 0.6847(9) 0.6323(3)
C3 C -0.0793(9) 0.5990(6) 0.6738(2)
H3 H -0.074542 0.586645 0.651790
C4 C 0.2195(7) 0.4570(5) 0.69712(16)
H4 H 0.250763 0.474779 0.718707
C5 C 0.4525(8) 0.3609(8) 0.72864(18)
H5 H 0.445102 0.298681 0.731923
H6 H 0.373711 0.388537 0.739540
C6 C 0.1594(8) 0.5348(6) 0.67930(18)
H7 H 0.140665 0.518546 0.656802
C7 C 0.0285(8) 0.5750(6) 0.69360(18)
C8 C -0.1969(11) 0.6421(7) 0.6863(3)
H8 H -0.267585 0.661245 0.672382
C9 C 0.0142(10) 0.5917(7) 0.7259(2)
H9 H 0.085764 0.575174 0.740028
C10 C 0.7005(9) 0.3839(9) 0.6927(2)
H10 H 0.783757 0.362160 0.681751
H11 H 0.699798 0.446708 0.690869
C11 C -0.2092(11) 0.6563(8) 0.7185(3)
H12 H -0.289565 0.682380 0.727005
C12 C 0.5859(10) 0.3927(10) 0.7425(2)
H13 H 0.587176 0.455650 0.741525
H14 H 0.590841 0.375722 0.765009
C13 C -0.1021(12) 0.6318(8) 0.7378(2)
H15 H -0.108070 0.642633 0.759833
C14 C 0.6670(10) 0.7084(6) 0.8613(3)
H16 H 0.724324 0.752268 0.869477
C15 C 0.5568(9) 0.6768(6) 0.8796(2)
H17 H 0.538098 0.700190 0.899861
Br2 Br 0.21013(10) 0.63655(7) 0.80391(3)
O3 O 0.2331(5) 0.4209(5) 0.78218(14)
O4 O -0.2421(6) 0.3869(5) 0.82603(18)
C16 C 0.4977(7) 0.5775(5) 0.83759(17)
C17 C 0.4077(7) 0.5050(5) 0.82427(17)
H18 H 0.438417 0.490648 0.802290
C18 C -0.0567(8) 0.4912(6) 0.8318(2)
H19 H -0.103691 0.536055 0.819310
H20 H 0.001561 0.519755 0.847884
C19 C 0.4755(8) 0.6110(5) 0.86769(19)
H21 H 0.403233 0.588502 0.880384
C20 C 0.6070(8) 0.6114(6) 0.8196(2)
H22 H 0.622926 0.589789 0.798912
C21 C 0.1687(7) 0.4559(5) 0.80403(17)
C22 C 0.6924(9) 0.6755(6) 0.8311(3)
H23 H 0.766826 0.696487 0.818736
N5 N 0.0332(6) 0.4410(5) 0.81049(14)
N6 N 0.4251(7) 0.4278(5) 0.84558(16)
N7 N 0.4446(7) 0.3589(6) 0.8311(2)
N8 N 0.4690(10) 0.2918(7) 0.8216(3)
C23 C 0.2484(7) 0.5235(5) 0.82443(17)
H24 H 0.212665 0.523302 0.846655
C24 C -0.1650(9) 0.4379(8) 0.8485(2)
H25 H -0.119379 0.400100 0.864068
H26 H -0.229280 0.475751 0.860103
C25 C -0.1502(9) 0.3301(7) 0.8093(3)
H27 H -0.204705 0.292696 0.795175
H28 H -0.100609 0.293661 0.824713
C26 C -0.0442(8) 0.3815(6) 0.7895(2)
H29 H 0.021306 0.341960 0.779076
H30 H -0.092995 0.414088 0.772856
O5 O 1.2279(6) 1.1168(6) 0.52371(15)
N9 N 0.8189(9) 0.8313(5) 0.5983(2)
Br3 Br 0.61299(9) 1.08303(6) 0.53912(2)
N10 N 0.9767(7) 1.0640(7) 0.55393(15)
O6 O 0.8583(6) 1.0303(4) 0.59909(11)
C27 C 1.1209(10) 1.0770(11) 0.5071(2)
H31 H 1.143397 1.015681 0.505515
H32 H 1.119921 1.100270 0.485362
N11 N 0.7879(8) 0.8497(5) 0.57103(17)
C28 C 0.9843(10) 1.0843(11) 0.5197(2)
H33 H 0.922128 1.045407 0.507995
H34 H 0.950631 1.143210 0.516358
N12 N 0.8571(14) 0.8071(8) 0.6228(2)
C29 C 1.2242(10) 1.0904(12) 0.5567(3)
H35 H 1.247177 1.029014 0.557708
H36 H 1.297445 1.121581 0.568260
C30 C 1.0943(8) 1.1037(10) 0.5730(2)
H37 H 1.077543 1.165495 0.575614
H38 H 1.098360 1.077417 0.594253
C31 C 0.8673(7) 1.0299(6) 0.56952(17)
C32 C 0.7465(8) 0.9899(5) 0.54950(17)
H39 H 0.784712 0.965417 0.529468
C33 C 0.4244(9) 0.8676(6) 0.5733(2)
H40 H 0.428199 0.884096 0.594904
C34 C 0.5370(9) 0.8569(6) 0.5219(2)
H41 H 0.613918 0.865852 0.508334
C35 C 0.6754(7) 0.9195(5) 0.56862(17)
H42 H 0.653846 0.941335 0.590312
C36 C 0.5429(8) 0.8819(5) 0.55387(19)
C37 C 0.2988(10) 0.8062(7) 0.5299(2)
H43 H 0.216442 0.781809 0.521655
C38 C 0.3055(10) 0.8310(7) 0.5621(3)
H44 H 0.228666 0.822355 0.575720
C39 C 0.4133(12) 0.8177(7) 0.5101(2)
H45 H 0.409177 0.799454 0.488720
Br4 Br 0.30598(10) 0.33841(6) 0.55026(2)
O7 O 0.7326(8) 0.5902(6) 0.5952(2)
O8 O 0.2998(6) 0.5597(4) 0.53297(12)
N13 N 0.0792(7) 0.5424(5) 0.59157(16)
N14 N 0.4771(6) 0.5367(5) 0.56773(16)
C40 C 0.5592(11) 0.6071(8) 0.5539(3)
H46 H 0.615872 0.584878 0.536241
H47 H 0.495685 0.650736 0.545242
N15 N 0.0274(10) 0.6807(7) 0.5712(3)
C41 C 0.6458(16) 0.6449(10) 0.5763(4)
H48 H 0.587129 0.678348 0.590982
H49 H 0.706465 0.685728 0.565119
N16 N 0.0531(7) 0.6099(6) 0.57892(18)
C42 C 0.5558(10) 0.4791(9) 0.5896(3)
H50 H 0.489381 0.445962 0.602514
H51 H 0.610722 0.438365 0.576906
C43 C 0.1039(7) 0.4679(5) 0.56810(17)
H52 H 0.085413 0.487538 0.545974
C44 C -0.0861(11) 0.2939(7) 0.6140(2)
H53 H -0.084590 0.269192 0.634490
C45 C 0.3483(8) 0.5197(5) 0.55598(18)
C46 C 0.6444(13) 0.5238(8) 0.6098(3)
H54 H 0.705703 0.482054 0.620383
H55 H 0.587635 0.551075 0.626449
C47 C -0.1806(11) 0.2611(7) 0.5908(3)
H56 H -0.244032 0.217093 0.595887
C48 C -0.0845(8) 0.3626(6) 0.5530(2)
H57 H -0.082763 0.385291 0.532223
C49 C 0.0029(9) 0.3606(6) 0.60719(19)
H58 H 0.062050 0.382379 0.623192
C50 C 0.0057(7) 0.3962(5) 0.57649(18)
C51 C 0.2597(8) 0.4483(5) 0.57206(18)
H59 H 0.283420 0.444297 0.595059
C52 C -0.1761(10) 0.2963(7) 0.5604(3)
H60 H -0.235975 0.274856 0.544442
loop_
_geom_bond_atom_site_label_1
_geom_bond_atom_site_label_2
_geom_bond_site_symmetry_1
_geom_bond_site_symmetry_2
Br1 C4 1_555 1_555
O1 C1 1_555 1_555
O2 C10 1_555 1_555
N1 C1 1_555 1_555
C1 C4 1_555 1_555
C2 N1 1_555 1_555
H1 C2 1_555 1_555
H2 C2 1_555 1_555
N2 N3 1_555 1_555
N3 N4 1_555 1_555
C3 H3 1_555 1_555
C4 H4 1_555 1_555
C5 N1 1_555 1_555
H5 C5 1_555 1_555
H6 C5 1_555 1_555
C6 N2 1_555 1_555
H7 C6 1_555 1_555
C7 C3 1_555 1_555
C8 C3 1_555 1_555
H8 C8 1_555 1_555
C9 C7 1_555 1_555
H9 C9 1_555 1_555
C10 C2 1_555 1_555
H10 C10 1_555 1_555
H11 C10 1_555 1_555
C11 C8 1_555 1_555
H12 C11 1_555 1_555
C12 O2 1_555 1_555
H13 C12 1_555 1_555
H14 C12 1_555 1_555
C13 C9 1_555 1_555
H15 C13 1_555 1_555
C14 H16 1_555 1_555
C15 C14 1_555 1_555
H17 C15 1_555 1_555
Br2 C23 1_555 1_555
O3 C21 1_555 1_555
O4 C24 1_555 1_555
C16 C17 1_555 1_555
C17 H18 1_555 1_555
C18 H19 1_555 1_555
H20 C18 1_555 1_555
C19 C15 1_555 1_555
H21 C19 1_555 1_555
C20 C16 1_555 1_555
H22 C20 1_555 1_555
C21 N5 1_555 1_555
C22 C14 1_555 1_555
H23 C22 1_555 1_555
N5 C18 1_555 1_555
N6 C17 1_555 1_555
N7 N6 1_555 1_555
N8 N7 1_555 1_555
C23 C17 1_555 1_555
H24 C23 1_555 1_555
C24 C18 1_555 1_555
H25 C24 1_555 1_555
H26 C24 1_555 1_555
C25 O4 1_555 1_555
H27 C25 1_555 1_555
H28 C25 1_555 1_555
C26 N5 1_555 1_555
H29 C26 1_555 1_555
H30 C26 1_555 1_555
O5 C27 1_555 1_555
N9 N11 1_555 1_555
Br3 C32 1_555 1_555
N10 C28 1_555 1_555
O6 C31 1_555 1_555
C27 H31 1_555 1_555
H32 C27 1_555 1_555
N11 C35 1_555 1_555
C28 C27 1_555 1_555
H33 C28 1_555 1_555
H34 C28 1_555 1_555
N12 N9 1_555 1_555
C29 O5 1_555 1_555
H35 C29 1_555 1_555
H36 C29 1_555 1_555
C30 N10 1_555 1_555
H37 C30 1_555 1_555
H38 C30 1_555 1_555
C31 N10 1_555 1_555
C32 C31 1_555 1_555
H39 C32 1_555 1_555
C33 H40 1_555 1_555
C34 H41 1_555 1_555
C35 C32 1_555 1_555
H42 C35 1_555 1_555
C36 C33 1_555 1_555
C37 H43 1_555 1_555
C38 C33 1_555 1_555
H44 C38 1_555 1_555
C39 C34 1_555 1_555
H45 C39 1_555 1_555
Br4 C51 1_555 1_555
O7 C41 1_555 1_555
O8 C45 1_555 1_555
N13 N16 1_555 1_555
N14 C40 1_555 1_555
C40 H46 1_555 1_555
H47 C40 1_555 1_555
N15 N16 1_555 1_555
C41 C40 1_555 1_555
H48 C41 1_555 1_555
H49 C41 1_555 1_555
C42 N14 1_555 1_555
H50 C42 1_555 1_555
H51 C42 1_555 1_555
C43 N13 1_555 1_555
H52 C43 1_555 1_555
C44 H53 1_555 1_555
C45 N14 1_555 1_555
C46 O7 1_555 1_555
H54 C46 1_555 1_555
H55 C46 1_555 1_555
C47 C44 1_555 1_555
H56 C47 1_555 1_555
C48 H57 1_555 1_555
C49 C44 1_555 1_555
H58 C49 1_555 1_555
C50 C43 1_555 1_555
C51 C43 1_555 1_555
H59 C51 1_555 1_555
C52 C47 1_555 1_555
H60 C52 1_555 1_555
C4 C6 1_555 1_555
C5 C12 1_555 1_555
C6 C7 1_555 1_555
C11 C13 1_555 1_555
C16 C19 1_555 1_555
C20 C22 1_555 1_555
C21 C23 1_555 1_555
C25 C26 1_555 1_555
C29 C30 1_555 1_555
C34 C36 1_555 1_555
C35 C36 1_555 1_555
C37 C38 1_555 1_555
C37 C39 1_555 1_555
C42 C46 1_555 1_555
C45 C51 1_555 1_555
C48 C50 1_555 1_555
C48 C52 1_555 1_555
C49 C50 1_555 1_555

#END
