
#######################################################################
#
#                 Cambridge Crystallographic Data Centre
#                                CCDC 
#
#######################################################################
#
# If this CIF has been generated from an entry in the Cambridge 
# Structural Database, then it will include bibliographic, chemical, 
# crystal, experimental, refinement or atomic coordinate data resulting 
# from the CCDC's data processing and validation procedures.
#
#######################################################################

data_GIXFOK
_chemical_formula_moiety         'C21 H20 F5 N3 O3'
_chemical_name_systematic        
N-(4-((4-anilino-4-oxobutyl)amino)-4-oxobutyl)-2,3,4,5,6-pentafluorobenzamide
_symmetry_cell_setting           monoclinic
_symmetry_space_group_name_H-M   'P 21/c'
_symmetry_Int_Tables_number      14
_space_group_name_Hall           '-P 2ybc'
loop_
_symmetry_equiv_pos_site_id
_symmetry_equiv_pos_as_xyz
1 x,y,z
2 -x,1/2+y,1/2-z
3 -x,-y,-z
4 x,1/2-y,1/2+z
_cell_length_a                   10.4352(16)
_cell_length_b                   9.1374(13)
_cell_length_c                   42.862(7)
_cell_angle_alpha                90
_cell_angle_beta                 90.359(3)
_cell_angle_gamma                90
_cell_volume                     4086.84
_exptl_crystal_colour            colorless
_exptl_crystal_description       prismatic
_cell_formula_units_Z            8
loop_
_atom_site_label
_atom_site_type_symbol
_atom_site_fract_x
_atom_site_fract_y
_atom_site_fract_z
N1 N 0.6950(2) 0.1180(2) 0.15035(5)
N2 N 0.9953(3) -0.0057(3) 0.27073(6)
N3 N 1.2586(2) 0.1227(3) 0.38103(5)
O1 O 0.6204(2) -0.0707(2) 0.12199(4)
O2 O 0.9287(3) 0.2130(2) 0.25450(5)
O3 O 1.2120(2) -0.0872(2) 0.35572(4)
F1 F 0.65718(18) 0.0257(2) 0.06025(4)
F2 F 0.56001(19) 0.2110(2) 0.01845(4)
F3 F 0.43426(18) 0.4531(2) 0.03692(4)
F4 F 0.41350(18) 0.5137(2) 0.09849(4)
F5 F 0.50434(16) 0.32837(18) 0.14082(3)
C1 C 0.5965(3) 0.1444(3) 0.07068(6)
C2 C 0.5474(3) 0.2393(3) 0.04882(6)
C3 C 0.4847(3) 0.3625(3) 0.05794(6)
C4 C 0.4732(3) 0.3918(3) 0.08924(6)
C5 C 0.5230(3) 0.2958(3) 0.11062(6)
C6 C 0.5865(2) 0.1695(3) 0.10242(6)
C7 C 0.6360(3) 0.0613(3) 0.12576(6)
C8 C 0.7491(3) 0.0237(3) 0.17410(6)
H1 H 0.8121 -0.0402 0.1647
H2 H 0.6818 -0.0372 0.1827
C9 C 0.8119(3) 0.1087(3) 0.20018(6)
H3 H 0.7475 0.1644 0.2113
H4 H 0.8734 0.1771 0.1916
C10 C 0.8792(3) 0.0063(3) 0.22256(6)
H5 H 0.8182 -0.0663 0.2297
H6 H 0.9463 -0.0449 0.2114
C11 C 0.9374(3) 0.0813(3) 0.25052(6)
C12 C 1.0566(3) 0.0466(4) 0.29910(6)
H7 H 1.0332 -0.0170 0.3163
H8 H 1.0248 0.1439 0.3038
C13 C 1.1986(3) 0.0520(4) 0.29679(6)
H9 H 1.2221 0.1065 0.2783
H10 H 1.2314 -0.0468 0.2946
C14 C 1.2602(3) 0.1234(4) 0.32529(6)
H11 H 1.3515 0.1329 0.3217
H12 H 1.2254 0.2212 0.3276
C15 C 1.2410(3) 0.0418(3) 0.35521(6)
C16 C 1.2463(3) 0.0793(3) 0.41242(6)
C17 C 1.3077(3) 0.1640(3) 0.43476(6)
H13 H 1.3562 0.2445 0.4287
C18 C 1.2970(3) 0.1294(4) 0.46580(7)
H14 H 1.3385 0.1867 0.4807
C19 C 1.2261(4) 0.0118(4) 0.47506(7)
H15 H 1.2197 -0.0115 0.4961
C20 C 1.1641(3) -0.0722(4) 0.45293(7)
H16 H 1.1154 -0.1521 0.4592
C21 C 1.1732(3) -0.0393(3) 0.42154(6)
H17 H 1.1308 -0.0962 0.4067
H18 H 0.713(3) 0.206(2) 0.1506(6)
H19 H 1.005(3) -0.093(2) 0.2660(6)
H20 H 1.290(2) 0.206(2) 0.3772(6)
N4 N 0.2227(2) 0.6666(3) 0.14762(5)
N5 N 0.5321(3) 0.5893(3) 0.26780(5)
N6 N 0.7834(2) 0.6663(3) 0.37960(5)
O4 O 0.1267(2) 0.4717(2) 0.12595(4)
O5 O 0.5444(3) 0.7914(2) 0.23803(5)
O6 O 0.7198(2) 0.4700(2) 0.35158(4)
F6 F 0.16177(18) 0.56038(19) 0.06142(4)
F7 F 0.05311(19) 0.7363(2) 0.01944(4)
F8 F -0.07775(18) 0.9753(2) 0.03755(4)
F9 F -0.09570(17) 1.0399(2) 0.09921(4)
F10 F 0.00630(16) 0.86040(19) 0.14172(3)
C22 C 0.0958(3) 0.6764(3) 0.07152(6)
C23 C 0.0409(3) 0.7662(3) 0.04963(6)
C24 C -0.0248(3) 0.8876(3) 0.05883(6)
C25 C -0.0342(3) 0.9196(3) 0.09001(7)
C26 C 0.0207(3) 0.8272(3) 0.11149(6)
C27 C 0.0884(2) 0.7040(3) 0.10322(6)
C28 C 0.1484(3) 0.6032(3) 0.12664(6)
C29 C 0.2873(3) 0.5839(3) 0.17174(6)
H21 H 0.3453 0.5146 0.1621
H22 H 0.2243 0.5286 0.1834
C30 C 0.3620(3) 0.6791(3) 0.19397(6)
H23 H 0.3046 0.7466 0.2043
H24 H 0.4249 0.7358 0.1826
C31 C 0.4287(3) 0.5840(3) 0.21786(6)
H25 H 0.3646 0.5254 0.2284
H26 H 0.4854 0.5173 0.2070
C32 C 0.5055(3) 0.6650(3) 0.24212(6)
C33 C 0.6008(3) 0.6487(3) 0.29459(6)
H27 H 0.5650 0.6072 0.3135
H28 H 0.5871 0.7537 0.2953
C34 C 0.7413(3) 0.6196(3) 0.29426(6)
H29 H 0.7790 0.6685 0.2764
H30 H 0.7556 0.5153 0.2919
C35 C 0.8075(3) 0.6723(3) 0.32394(6)
H31 H 0.8993 0.6600 0.3217
H32 H 0.7907 0.7760 0.3265
C36 C 0.7652(3) 0.5929(3) 0.35295(6)
C37 C 0.7645(3) 0.6161(3) 0.41040(6)
C38 C 0.8222(3) 0.6979(3) 0.43409(6)
H33 H 0.8707 0.7800 0.4291
C39 C 0.8076(3) 0.6577(4) 0.46460(7)
H34 H 0.8466 0.7126 0.4803
C40 C 0.7364(4) 0.5378(4) 0.47230(7)
H35 H 0.7269 0.5109 0.4931
C41 C 0.6787(3) 0.4570(4) 0.44900(7)
H36 H 0.6305 0.3751 0.4542
C42 C 0.6911(3) 0.4956(3) 0.41801(6)
H37 H 0.6506 0.4412 0.4025
H38 H 0.238(3) 0.754(2) 0.1468(6)
H39 H 0.513(3) 0.499(2) 0.2681(7)
H40 H 0.815(3) 0.749(2) 0.3781(7)
loop_
_geom_bond_atom_site_label_1
_geom_bond_atom_site_label_2
_geom_bond_site_symmetry_1
_geom_bond_site_symmetry_2
N1 C7 1_555 1_555
N2 C11 1_555 1_555
N3 C15 1_555 1_555
O1 C7 1_555 1_555
O2 C11 1_555 1_555
O3 C15 1_555 1_555
F1 C1 1_555 1_555
F2 C2 1_555 1_555
F3 C3 1_555 1_555
F4 C4 1_555 1_555
F5 C5 1_555 1_555
C1 C2 1_555 1_555
C2 C3 1_555 1_555
C3 C4 1_555 1_555
C4 C5 1_555 1_555
C5 C6 1_555 1_555
C6 C1 1_555 1_555
C7 C6 1_555 1_555
C8 N1 1_555 1_555
H1 C8 1_555 1_555
H2 C8 1_555 1_555
C9 C8 1_555 1_555
H3 C9 1_555 1_555
H4 C9 1_555 1_555
C10 C9 1_555 1_555
H5 C10 1_555 1_555
H6 C10 1_555 1_555
C11 C10 1_555 1_555
C12 N2 1_555 1_555
H7 C12 1_555 1_555
H8 C12 1_555 1_555
C13 C12 1_555 1_555
H9 C13 1_555 1_555
H10 C13 1_555 1_555
C14 C13 1_555 1_555
H11 C14 1_555 1_555
H12 C14 1_555 1_555
C15 C14 1_555 1_555
C16 N3 1_555 1_555
C17 C16 1_555 1_555
H13 C17 1_555 1_555
C18 C17 1_555 1_555
H14 C18 1_555 1_555
C19 C18 1_555 1_555
H15 C19 1_555 1_555
C20 C19 1_555 1_555
H16 C20 1_555 1_555
C21 C16 1_555 1_555
H17 C21 1_555 1_555
H18 N1 1_555 1_555
H19 N2 1_555 1_555
H20 N3 1_555 1_555
N4 C28 1_555 1_555
N5 C32 1_555 1_555
N6 C36 1_555 1_555
O4 C28 1_555 1_555
O5 C32 1_555 1_555
O6 C36 1_555 1_555
F6 C22 1_555 1_555
F7 C23 1_555 1_555
F8 C24 1_555 1_555
F9 C25 1_555 1_555
F10 C26 1_555 1_555
C22 C23 1_555 1_555
C23 C24 1_555 1_555
C24 C25 1_555 1_555
C25 C26 1_555 1_555
C26 C27 1_555 1_555
C27 C22 1_555 1_555
C28 C27 1_555 1_555
C29 N4 1_555 1_555
H21 C29 1_555 1_555
H22 C29 1_555 1_555
C30 C29 1_555 1_555
H23 C30 1_555 1_555
H24 C30 1_555 1_555
C31 C30 1_555 1_555
H25 C31 1_555 1_555
H26 C31 1_555 1_555
C32 C31 1_555 1_555
C33 N5 1_555 1_555
H27 C33 1_555 1_555
H28 C33 1_555 1_555
C34 C33 1_555 1_555
H29 C34 1_555 1_555
H30 C34 1_555 1_555
C35 C34 1_555 1_555
H31 C35 1_555 1_555
H32 C35 1_555 1_555
C36 C35 1_555 1_555
C37 N6 1_555 1_555
C38 C37 1_555 1_555
H33 C38 1_555 1_555
C39 C38 1_555 1_555
H34 C39 1_555 1_555
C40 C39 1_555 1_555
H35 C40 1_555 1_555
C41 C40 1_555 1_555
H36 C41 1_555 1_555
C42 C37 1_555 1_555
H37 C42 1_555 1_555
H38 N4 1_555 1_555
H39 N5 1_555 1_555
H40 N6 1_555 1_555
C20 C21 1_555 1_555
C41 C42 1_555 1_555

#END
