
#######################################################################
#
#                 Cambridge Crystallographic Data Centre
#                                CCDC 
#
#######################################################################
#
# If this CIF has been generated from an entry in the Cambridge 
# Structural Database, then it will include bibliographic, chemical, 
# crystal, experimental, refinement or atomic coordinate data resulting 
# from the CCDC's data processing and validation procedures.
#
#######################################################################

data_GIXHUT
_chemical_formula_moiety         'C27 H24 O3'
_chemical_name_systematic        
'methyl 4-[2a-methyl-5-(4-methylphenyl)-2a,3-dihydro-2H-naphtho[1,8-bc]furan-4-yl]benzoate'
_symmetry_cell_setting           monoclinic
_symmetry_space_group_name_H-M   'P 21/c'
_symmetry_Int_Tables_number      14
_space_group_name_Hall           '-P 2ybc'
loop_
_symmetry_equiv_pos_site_id
_symmetry_equiv_pos_as_xyz
1 x,y,z
2 -x,1/2+y,1/2-z
3 -x,-y,-z
4 x,1/2-y,1/2+z
_cell_length_a                   10.8090(7)
_cell_length_b                   13.8911(10)
_cell_length_c                   14.2102(9)
_cell_angle_alpha                90
_cell_angle_beta                 104.001(2)
_cell_angle_gamma                90
_cell_volume                     2070.26
_exptl_crystal_colour            colorless
_exptl_crystal_description       block
_cell_formula_units_Z            4
loop_
_atom_site_label
_atom_site_type_symbol
_atom_site_fract_x
_atom_site_fract_y
_atom_site_fract_z
O1 O 0.6330(2) 0.47894(17) 0.94473(16)
O2 O 0.1638(2) 0.26823(17) 0.20856(17)
O3 O 0.1489(2) 0.12346(17) 0.27459(18)
C1 C 0.4460(3) 0.3121(2) 0.5387(2)
C2 C 0.6513(3) 0.3849(2) 0.6320(2)
C3 C 0.7243(3) 0.4290(2) 0.7238(2)
C4 C 0.3459(3) 0.3286(2) 0.3680(2)
H1 H 0.335681 0.363489 0.309176
C5 C 0.6581(3) 0.4495(2) 0.7932(2)
C6 C 0.2761(3) 0.2452(2) 0.3704(2)
C7 C 0.7174(3) 0.3744(2) 0.5526(2)
C8 C 0.5326(3) 0.3503(2) 0.6291(2)
C9 C 0.1896(3) 0.2048(2) 0.2816(3)
C10 C 0.7159(3) 0.4785(2) 0.8850(2)
C11 C 0.3722(3) 0.2302(2) 0.5403(2)
H2 H 0.379003 0.196884 0.599725
C12 C 0.4301(3) 0.3608(2) 0.4512(2)
H3 H 0.478230 0.417558 0.448551
C13 C 0.7278(3) 0.2846(2) 0.5114(2)
H4 H 0.690490 0.229965 0.533739
C14 C 0.5185(3) 0.4344(2) 0.7839(2)
C15 C 0.7766(3) 0.4515(2) 0.5193(2)
H5 H 0.773658 0.513338 0.547281
C16 C 0.8553(3) 0.4469(2) 0.7495(2)
H6 H 0.905463 0.434247 0.704496
C17 C 0.8453(3) 0.4982(2) 0.9117(2)
H7 H 0.885903 0.520737 0.974672
C18 C 0.2894(3) 0.1965(2) 0.4572(2)
H8 H 0.241461 0.139620 0.459543
C19 C 0.5211(3) 0.4240(3) 0.8919(2)
H9 H 0.442070 0.450385 0.905403
H10 H 0.528987 0.355483 0.911502
C20 C 0.4794(3) 0.3463(2) 0.7196(2)
H11 H 0.385238 0.342470 0.699623
H12 H 0.511146 0.287447 0.757024
C21 C 0.8482(3) 0.3512(3) 0.4045(2)
C22 C 0.9124(3) 0.4831(2) 0.8407(2)
H13 H 1.000733 0.498138 0.855364
C23 C 0.8400(3) 0.4401(3) 0.4463(2)
H14 H 0.878606 0.494466 0.424403
C24 C 0.7917(3) 0.2737(3) 0.4383(3)
H15 H 0.796590 0.211716 0.411138
C25 C 0.4385(3) 0.5229(3) 0.7421(3)
H16 H 0.471880 0.579853 0.780690
H17 H 0.349575 0.512434 0.744349
H18 H 0.443029 0.532855 0.674789
C26 C 0.0780(3) 0.2350(3) 0.1201(3)
H19 H 0.059302 0.288020 0.073347
H20 H -0.001499 0.212458 0.134360
H21 H 0.117841 0.181998 0.092773
C27 C 0.9165(4) 0.3395(3) 0.3241(3)
H22 H 0.876090 0.380650 0.269227
H23 H 0.911579 0.272132 0.303028
H24 H 1.006069 0.358120 0.347874
loop_
_geom_bond_atom_site_label_1
_geom_bond_atom_site_label_2
_geom_bond_site_symmetry_1
_geom_bond_site_symmetry_2
O1 C10 1_555 1_555
O2 C9 1_555 1_555
O3 C9 1_555 1_555
C1 C8 1_555 1_555
C2 C3 1_555 1_555
C3 C5 1_555 1_555
C4 H1 1_555 1_555
C5 C10 1_555 1_555
C6 C4 1_555 1_555
C7 C2 1_555 1_555
C8 C2 1_555 1_555
C9 C6 1_555 1_555
C10 C17 1_555 1_555
C11 C1 1_555 1_555
H2 C11 1_555 1_555
C12 C1 1_555 1_555
H3 C12 1_555 1_555
C13 C7 1_555 1_555
H4 C13 1_555 1_555
C14 C5 1_555 1_555
C15 C7 1_555 1_555
H5 C15 1_555 1_555
C16 C3 1_555 1_555
H6 C16 1_555 1_555
C17 H7 1_555 1_555
C18 C6 1_555 1_555
H8 C18 1_555 1_555
C19 O1 1_555 1_555
H9 C19 1_555 1_555
H10 C19 1_555 1_555
C20 C8 1_555 1_555
H11 C20 1_555 1_555
H12 C20 1_555 1_555
C21 C23 1_555 1_555
C22 C16 1_555 1_555
H13 C22 1_555 1_555
C23 C15 1_555 1_555
H14 C23 1_555 1_555
C24 C13 1_555 1_555
H15 C24 1_555 1_555
C25 C14 1_555 1_555
H16 C25 1_555 1_555
H17 C25 1_555 1_555
H18 C25 1_555 1_555
C26 O2 1_555 1_555
H19 C26 1_555 1_555
H20 C26 1_555 1_555
H21 C26 1_555 1_555
C27 C21 1_555 1_555
H22 C27 1_555 1_555
H23 C27 1_555 1_555
H24 C27 1_555 1_555
C4 C12 1_555 1_555
C11 C18 1_555 1_555
C14 C19 1_555 1_555
C14 C20 1_555 1_555
C17 C22 1_555 1_555
C21 C24 1_555 1_555

#END
