
#######################################################################
#
#                 Cambridge Crystallographic Data Centre
#                                CCDC 
#
#######################################################################
#
# If this CIF has been generated from an entry in the Cambridge 
# Structural Database, then it will include bibliographic, chemical, 
# crystal, experimental, refinement or atomic coordinate data resulting 
# from the CCDC's data processing and validation procedures.
#
#######################################################################

data_GIXMAE
_chemical_formula_moiety         'C11 H13 Br1 N4 O1'
_chemical_name_systematic        
3-azido-2-bromo-N,N-dimethyl-3-phenylpropanamide
_symmetry_cell_setting           orthorhombic
_symmetry_space_group_name_H-M   'P 21 21 21'
_symmetry_Int_Tables_number      19
_space_group_name_Hall           'P 2ac 2ab'
loop_
_symmetry_equiv_pos_site_id
_symmetry_equiv_pos_as_xyz
1 x,y,z
2 1/2+x,1/2-y,-z
3 -x,1/2+y,1/2-z
4 1/2-x,-y,1/2+z
_cell_length_a                   10.839(9)
_cell_length_b                   13.747(9)
_cell_length_c                   17.079(13)
_cell_angle_alpha                90
_cell_angle_beta                 90
_cell_angle_gamma                90
_cell_volume                     2544.83
_exptl_crystal_colour            colorless
_exptl_crystal_description       block
_cell_formula_units_Z            8
loop_
_atom_site_label
_atom_site_type_symbol
_atom_site_fract_x
_atom_site_fract_y
_atom_site_fract_z
Br1 Br 0.56193(8) 0.34339(4) 0.49518(4)
O1 O 0.7270(3) 0.5331(3) 0.5296(2)
C1 C 0.5594(6) 0.4415(4) 0.2648(3)
H1 H 0.642261 0.458300 0.260599
C2 C 0.5637(5) 0.5129(4) 0.3993(3)
H2 H 0.652545 0.502714 0.392504
C3 C 0.4975(5) 0.4588(4) 0.3349(3)
C4 C 0.5302(5) 0.4843(4) 0.4823(3)
H3 H 0.443558 0.499474 0.493212
C5 C 0.3158(5) 0.3876(4) 0.2771(3)
H4 H 0.233690 0.368674 0.281241
N1 N 0.5387(6) 0.6243(3) 0.3974(3)
C6 C 0.6450(5) 0.6233(5) 0.6617(3)
H5 H 0.729167 0.617717 0.644793
H6 H 0.634997 0.590648 0.710970
H7 H 0.624136 0.690807 0.667629
C7 C 0.4339(5) 0.5893(4) 0.6210(4)
H8 H 0.386501 0.552320 0.583990
H9 H 0.410995 0.656627 0.617676
H10 H 0.417890 0.565737 0.672940
C8 C 0.3743(5) 0.4304(4) 0.3406(3)
H11 H 0.331204 0.440190 0.387026
N2 N 0.4564(5) 0.6460(3) 0.3782(3)
N3 N 0.5640(4) 0.5790(3) 0.6035(2)
C9 C 0.6153(5) 0.5356(4) 0.5411(3)
N4 N 0.3583(5) 0.6808(4) 0.3499(4)
C10 C 0.3792(5) 0.3728(4) 0.2074(3)
H12 H 0.339372 0.344593 0.164884
C11 C 0.5009(5) 0.4001(4) 0.2015(3)
H13 H 0.543529 0.390601 0.154905
C12 C 0.0564(5) 0.6113(4) 0.2782(3)
H14 H 0.140484 0.597926 0.276378
N5 N 0.0585(5) 0.6573(4) 0.4821(3)
Br2 Br -0.01155(5) 0.37733(4) 0.39007(3)
C13 C -0.0047(5) 0.6391(4) 0.2105(3)
H15 H 0.038223 0.644120 0.163572
N6 N 0.1530(5) 0.6922(3) 0.4947(3)
O2 O 0.2125(3) 0.4691(3) 0.5196(2)
N7 N 0.2404(6) 0.7333(4) 0.5122(4)
C14 C 0.1456(6) 0.3602(5) 0.6449(3)
H16 H 0.223978 0.348262 0.620474
H17 H 0.115545 0.301001 0.667835
H18 H 0.155112 0.408610 0.684942
C15 C -0.1302(5) 0.6594(4) 0.2130(3)
H19 H -0.171570 0.678707 0.167855
C16 C -0.1931(5) 0.6508(4) 0.2830(3)
H20 H -0.277490 0.663054 0.284479
C17 C -0.0715(5) 0.3706(4) 0.5992(3)
H21 H -0.100809 0.404307 0.644810
H22 H -0.079554 0.301734 0.607037
H23 H -0.119200 0.389874 0.554508
C18 C -0.1326(4) 0.6241(4) 0.3505(3)
H24 H -0.175760 0.620119 0.397412
C19 C -0.0063(4) 0.6031(3) 0.3487(3)
C20 C 0.0625(5) 0.5736(3) 0.4213(3)
H25 H 0.148722 0.560547 0.407525
N8 N 0.0577(4) 0.3947(4) 0.5861(2)
C21 C 0.0099(5) 0.4851(3) 0.4643(3)
H26 H -0.069170 0.501658 0.488715
C22 C 0.1011(5) 0.4490(4) 0.5263(3)
loop_
_geom_bond_atom_site_label_1
_geom_bond_atom_site_label_2
_geom_bond_site_symmetry_1
_geom_bond_site_symmetry_2
Br1 C4 1_555 1_555
O1 C9 1_555 1_555
C1 H1 1_555 1_555
C2 H2 1_555 1_555
C3 C1 1_555 1_555
C4 C2 1_555 1_555
H3 C4 1_555 1_555
C5 H4 1_555 1_555
N1 C2 1_555 1_555
C6 H5 1_555 1_555
H6 C6 1_555 1_555
H7 C6 1_555 1_555
C7 H8 1_555 1_555
H9 C7 1_555 1_555
H10 C7 1_555 1_555
C8 C3 1_555 1_555
H11 C8 1_555 1_555
N2 N1 1_555 1_555
N3 C6 1_555 1_555
C9 C4 1_555 1_555
N4 N2 1_555 1_555
C10 C5 1_555 1_555
H12 C10 1_555 1_555
C11 C1 1_555 1_555
H13 C11 1_555 1_555
C12 H14 1_555 1_555
N5 N6 1_555 1_555
Br2 C21 1_555 1_555
C13 C12 1_555 1_555
H15 C13 1_555 1_555
N6 N7 1_555 1_555
O2 C22 1_555 1_555
C14 H16 1_555 1_555
H17 C14 1_555 1_555
H18 C14 1_555 1_555
C15 C13 1_555 1_555
H19 C15 1_555 1_555
C16 C15 1_555 1_555
H20 C16 1_555 1_555
C17 H21 1_555 1_555
H22 C17 1_555 1_555
H23 C17 1_555 1_555
C18 C16 1_555 1_555
H24 C18 1_555 1_555
C19 C12 1_555 1_555
C20 N5 1_555 1_555
H25 C20 1_555 1_555
N8 C14 1_555 1_555
C21 C20 1_555 1_555
H26 C21 1_555 1_555
C22 N8 1_555 1_555
C2 C3 1_555 1_555
C5 C8 1_555 1_555
C7 N3 1_555 1_555
N3 C9 1_555 1_555
C10 C11 1_555 1_555
C17 N8 1_555 1_555
C18 C19 1_555 1_555
C19 C20 1_555 1_555
C21 C22 1_555 1_555

#END
