
#######################################################################
#
#                 Cambridge Crystallographic Data Centre
#                                CCDC 
#
#######################################################################
#
# If this CIF has been generated from an entry in the Cambridge 
# Structural Database, then it will include bibliographic, chemical, 
# crystal, experimental, refinement or atomic coordinate data resulting 
# from the CCDC's data processing and validation procedures.
#
#######################################################################

data_GIXZOF
_chemical_formula_moiety         'C18 H17 F1 O3'
_chemical_name_systematic        
"ethyl 3-(4-fluoro-4'-methoxy[1,1'-biphenyl]-3-yl)prop-2-enoate"
_symmetry_cell_setting           monoclinic
_symmetry_space_group_name_H-M   'P 21/c'
_symmetry_Int_Tables_number      14
_space_group_name_Hall           '-P 2ybc'
loop_
_symmetry_equiv_pos_site_id
_symmetry_equiv_pos_as_xyz
1 x,y,z
2 -x,1/2+y,1/2-z
3 -x,-y,-z
4 x,1/2-y,1/2+z
_cell_length_a                   16.296(3)
_cell_length_b                   12.490(3)
_cell_length_c                   7.3775(15)
_cell_angle_alpha                90
_cell_angle_beta                 96.78(3)
_cell_angle_gamma                90
_cell_volume                     1491.09
_cell_formula_units_Z            4
loop_
_atom_site_label
_atom_site_type_symbol
_atom_site_fract_x
_atom_site_fract_y
_atom_site_fract_z
F1 F 0.23171(8) 0.13927(11) 0.3426(2)
O1 O -0.02662(9) 0.21065(12) 0.5299(2)
O2 O -0.07321(10) 0.37695(14) 0.5743(3)
O3 O 0.43714(9) 0.87979(13) 0.3688(2)
C1 C 0.25547(14) 0.24382(19) 0.3407(3)
C2 C 0.33169(15) 0.26655(19) 0.2871(4)
H1 H 0.3657 0.2107 0.2502
C3 C 0.35808(14) 0.37198(19) 0.2877(3)
H2 H 0.4105 0.3879 0.2500
C4 C 0.30906(13) 0.45613(18) 0.3428(3)
C5 C 0.23117(13) 0.42843(18) 0.3945(3)
H3 H 0.1968 0.4837 0.4319
C6 C 0.20236(13) 0.32217(18) 0.3929(3)
C7 C 0.12119(14) 0.29054(19) 0.4456(3)
H4 H 0.1097 0.2160 0.4460
C8 C 0.06272(13) 0.35507(19) 0.4924(3)
H5 H 0.0736 0.4298 0.4974
C9 C -0.01832(14) 0.31748(19) 0.5374(3)
C10 C -0.10667(14) 0.1694(2) 0.5659(4)
H6 H -0.1511 0.1999 0.4778
H7 H -0.1176 0.1891 0.6908
C11 C -0.10410(17) 0.0494(2) 0.5463(5)
H8 H -0.0915 0.0310 0.4235
H9 H -0.1579 0.0192 0.5656
H10 H -0.0613 0.0200 0.6371
C12 C 0.33913(12) 0.56844(18) 0.3473(3)
C13 C 0.28655(14) 0.65671(18) 0.3388(3)
H11 H 0.2286 0.6449 0.3294
C14 C 0.31577(15) 0.76160(19) 0.3434(3)
H12 H 0.2781 0.8199 0.3352
C15 C 0.40069(14) 0.78063(18) 0.3603(3)
C16 C 0.45435(14) 0.6938(2) 0.3699(4)
H13 H 0.5123 0.7059 0.3821
C17 C 0.42450(14) 0.5907(2) 0.3618(3)
H14 H 0.4625 0.5328 0.3662
C18 C 0.38434(15) 0.9714(2) 0.3621(4)
H15 H 0.3506 0.9743 0.2431
H16 H 0.4180 1.0364 0.3795
H17 H 0.3482 0.9663 0.4589
loop_
_geom_bond_atom_site_label_1
_geom_bond_atom_site_label_2
_geom_bond_site_symmetry_1
_geom_bond_site_symmetry_2
F1 C1 1_555 1_555
O1 C9 1_555 1_555
O2 C9 1_555 1_555
O3 C15 1_555 1_555
C1 C2 1_555 1_555
C2 H1 1_555 1_555
C3 C2 1_555 1_555
H2 C3 1_555 1_555
C4 C3 1_555 1_555
C5 C4 1_555 1_555
H3 C5 1_555 1_555
C6 C1 1_555 1_555
C7 C6 1_555 1_555
H4 C7 1_555 1_555
C8 C7 1_555 1_555
H5 C8 1_555 1_555
C9 C8 1_555 1_555
C10 O1 1_555 1_555
H6 C10 1_555 1_555
H7 C10 1_555 1_555
C11 C10 1_555 1_555
H8 C11 1_555 1_555
H9 C11 1_555 1_555
H10 C11 1_555 1_555
C12 C4 1_555 1_555
C13 C12 1_555 1_555
H11 C13 1_555 1_555
C14 C13 1_555 1_555
H12 C14 1_555 1_555
C15 C14 1_555 1_555
C16 C15 1_555 1_555
H13 C16 1_555 1_555
C17 C12 1_555 1_555
H14 C17 1_555 1_555
C18 O3 1_555 1_555
H15 C18 1_555 1_555
H16 C18 1_555 1_555
H17 C18 1_555 1_555
C5 C6 1_555 1_555
C16 C17 1_555 1_555

#END
