
#######################################################################
#
#                 Cambridge Crystallographic Data Centre
#                                CCDC 
#
#######################################################################
#
# If this CIF has been generated from an entry in the Cambridge 
# Structural Database, then it will include bibliographic, chemical, 
# crystal, experimental, refinement or atomic coordinate data resulting 
# from the CCDC's data processing and validation procedures.
#
#######################################################################

data_GIYCIC
_chemical_formula_moiety         'C26 H44 N2 P2'
_chemical_name_systematic        
2,3-bis((di-t-butylphosphino)methyl)quinoxaline
_symmetry_cell_setting           triclinic
_symmetry_space_group_name_H-M   'P -1'
_symmetry_Int_Tables_number      2
_space_group_name_Hall           '-P 1'
loop_
_symmetry_equiv_pos_site_id
_symmetry_equiv_pos_as_xyz
1 x,y,z
2 -x,-y,-z
_cell_length_a                   12.3690(2)
_cell_length_b                   15.1086(3)
_cell_length_c                   15.8064(3)
_cell_angle_alpha                92.094(1)
_cell_angle_beta                 99.194(1)
_cell_angle_gamma                112.064(1)
_cell_volume                     2687.28
_exptl_crystal_colour            'light yellow'
_exptl_crystal_description       prism
_cell_formula_units_Z            4
loop_
_atom_site_label
_atom_site_type_symbol
_atom_site_fract_x
_atom_site_fract_y
_atom_site_fract_z
C1 C 0.35294(12) 0.25664(10) 0.02580(8)
C2 C 0.23215(13) 0.23769(12) -0.00568(10)
H1 H 0.2075 0.2891 -0.0174
C3 C 0.15083(13) 0.14514(13) -0.01918(10)
H2 H 0.0696 0.1327 -0.0404
C4 C 0.18556(14) 0.06846(12) -0.00216(10)
H3 H 0.1277 0.0046 -0.0116
C5 C 0.30191(13) 0.08469(10) 0.02796(9)
H4 H 0.3249 0.0323 0.0395
C6 C 0.38785(12) 0.17961(9) 0.04182(8)
C7 C 0.58126(11) 0.28439(9) 0.08733(8)
C8 C 0.54333(12) 0.36374(9) 0.07815(8)
C9 C 0.62613(12) 0.46493(9) 0.11029(8)
H5 H 0.5898 0.5095 0.0874
H6 H 0.7010 0.4794 0.0884
C10 C 0.51236(13) 0.46919(11) 0.26058(9)
C11 C 0.43160(14) 0.50453(12) 0.19942(10)
H7 H 0.4166 0.4726 0.1412
H8 H 0.4704 0.5742 0.1987
H9 H 0.3561 0.4894 0.2192
C12 C 0.53257(16) 0.51742(14) 0.35214(10)
H10 H 0.5633 0.5873 0.3514
H11 H 0.5901 0.4999 0.3905
H12 H 0.4572 0.4959 0.3729
C13 C 0.44977(15) 0.36046(12) 0.26366(11)
H13 H 0.3740 0.3469 0.2827
H14 H 0.5003 0.3381 0.3042
H15 H 0.4351 0.3270 0.2061
C14 C 0.76189(13) 0.61698(10) 0.24722(10)
C15 C 0.86282(14) 0.62688(11) 0.19872(12)
H16 H 0.8326 0.6187 0.1365
H17 H 0.8942 0.5776 0.2135
H18 H 0.9262 0.6907 0.2150
C16 C 0.70470(16) 0.68668(11) 0.21629(13)
H19 H 0.7663 0.7514 0.2204
H20 H 0.6474 0.6872 0.2524
H21 H 0.6637 0.6662 0.1563
C17 C 0.81780(16) 0.64321(13) 0.34354(11)
H22 H 0.8815 0.7073 0.3521
H23 H 0.8505 0.5961 0.3634
H24 H 0.7570 0.6429 0.3765
C18 C 0.70865(11) 0.29854(9) 0.11754(8)
H25 H 0.7112 0.2352 0.1283
H26 H 0.7378 0.3392 0.1734
C19 C 0.95257(12) 0.34335(10) 0.10607(9)
C20 C 0.97862(16) 0.39996(16) 0.19432(11)
H27 H 0.9185 0.3652 0.2278
H28 H 0.9767 0.4634 0.1866
H29 H 1.0574 0.4075 0.2251
C21 C 0.94865(16) 0.24287(13) 0.11853(15)
H30 H 1.0228 0.2474 0.1551
H31 H 0.9391 0.2084 0.0624
H32 H 0.8815 0.2081 0.1461
C22 C 1.05758(14) 0.39650(13) 0.06224(12)
H33 H 1.1317 0.4009 0.0988
H34 H 1.0606 0.4612 0.0536
H35 H 1.0475 0.3612 0.0063
C23 C 0.75379(13) 0.26595(10) -0.05617(9)
C24 C 0.70233(15) 0.15957(11) -0.04241(10)
H36 H 0.6708 0.1207 -0.0984
H37 H 0.6383 0.1476 -0.0095
H38 H 0.7649 0.1422 -0.0104
C25 C 0.84971(15) 0.28337(13) -0.11107(10)
H39 H 0.9099 0.2607 -0.0835
H40 H 0.8871 0.3522 -0.1164
H41 H 0.8136 0.2483 -0.1685
C26 C 0.65468(15) 0.29181(13) -0.10701(10)
H42 H 0.6220 0.2511 -0.1620
H43 H 0.6874 0.3594 -0.1179
H44 H 0.5916 0.2814 -0.0735
N1 N 0.43317(10) 0.34945(8) 0.04429(7)
N2 N 0.50431(10) 0.19510(8) 0.07057(7)
P1 P 0.66063(3) 0.48551(2) 0.23120(2)
P2 P 0.81472(3) 0.35408(2) 0.04399(2)
C27 C 0.45055(11) 0.07918(9) 0.69011(8)
C28 C 0.36491(13) 0.10473(10) 0.72224(9)
H45 H 0.3366 0.1488 0.6948
C29 C 0.32296(13) 0.06590(11) 0.79288(9)
H46 H 0.2662 0.0838 0.8150
C30 C 0.36328(13) -0.00048(10) 0.83324(9)
H47 H 0.3330 -0.0273 0.8821
C31 C 0.44559(12) -0.02689(10) 0.80289(8)
H48 H 0.4720 -0.0719 0.8304
C32 C 0.49087(11) 0.01299(9) 0.73066(8)
C33 C 0.61305(10) 0.02423(8) 0.63278(8)
C34 C 0.57515(10) 0.09515(8) 0.59304(8)
C35 C 0.62251(11) 0.14256(9) 0.51746(8)
H49 H 0.5709 0.1752 0.4921
H50 H 0.6166 0.0920 0.4732
C36 C 0.76548(12) 0.34846(9) 0.57408(9)
C37 C 0.70020(17) 0.33077(12) 0.65012(11)
H51 H 0.7051 0.3922 0.6766
H52 H 0.7370 0.3001 0.6928
H53 H 0.6167 0.2887 0.6296
C38 C 0.89104(15) 0.42318(12) 0.60688(12)
H54 H 0.8867 0.4825 0.6300
H55 H 0.9348 0.4364 0.5592
H56 H 0.9321 0.3985 0.6524
C39 C 0.70070(16) 0.38896(11) 0.50528(11)
H57 H 0.6223 0.3397 0.4809
H58 H 0.7470 0.4083 0.4594
H59 H 0.6913 0.4449 0.5314
C40 C 0.81235(12) 0.23280(9) 0.42903(8)
C41 C 0.83234(14) 0.13963(10) 0.41347(10)
H60 H 0.7592 0.0843 0.4153
H61 H 0.8964 0.1387 0.4583
H62 H 0.8543 0.1365 0.3569
C42 C 0.92928(13) 0.31720(10) 0.42721(10)
H63 H 0.9575 0.3086 0.3742
H64 H 0.9888 0.3197 0.4772
H65 H 0.9163 0.3773 0.4290
C43 C 0.71632(13) 0.23512(11) 0.35574(9)
H66 H 0.7370 0.2236 0.3002
H67 H 0.7109 0.2981 0.3601
H68 H 0.6397 0.1851 0.3601
C44 C 0.69627(11) -0.01062(9) 0.59450(8)
H69 H 0.7673 0.0459 0.5883
H70 H 0.6562 -0.0433 0.5360
C45 C 0.89224(12) -0.00767(10) 0.72323(9)
C46 C 0.86284(15) 0.06766(12) 0.77204(10)
H71 H 0.9326 0.1079 0.8148
H72 H 0.7966 0.0352 0.8013
H73 H 0.8405 0.1079 0.7312
C47 C 0.93746(16) -0.06274(13) 0.79032(10)
H74 H 0.9600 -0.1097 0.7611
H75 H 0.8745 -0.0961 0.8221
H76 H 1.0067 -0.0175 0.8306
C48 C 0.99053(13) 0.04440(11) 0.67402(11)
H77 H 1.0571 0.0934 0.7136
H78 H 0.9598 0.0751 0.6279
H79 H 1.0178 -0.0019 0.6490
C49 C 0.77423(11) -0.16464(9) 0.56887(8)
C50 C 0.84359(13) -0.22250(10) 0.60976(10)
H80 H 0.8417 -0.2712 0.5662
H81 H 0.8073 -0.2540 0.6571
H82 H 0.9261 -0.1793 0.6321
C51 C 0.83514(13) -0.11001(11) 0.49892(9)
H83 H 0.9160 -0.0657 0.5246
H84 H 0.7901 -0.0736 0.4725
H85 H 0.8384 -0.1557 0.4548
C52 C 0.65036(12) -0.23679(10) 0.52560(9)
H86 H 0.6583 -0.2826 0.4840
H87 H 0.6051 -0.2024 0.4957
H88 H 0.6086 -0.2714 0.5695
N3 N 0.49397(9) 0.11929(8) 0.62027(7)
N4 N 0.57205(9) -0.01447(7) 0.69972(7)
P3 P 0.77964(3) 0.23227(2) 0.54177(2)
P4 P 0.74585(3) -0.09441(2) 0.65816(2)
loop_
_geom_bond_atom_site_label_1
_geom_bond_atom_site_label_2
_geom_bond_site_symmetry_1
_geom_bond_site_symmetry_2
C1 C2 1_555 1_555
C2 H1 1_555 1_555
C3 C2 1_555 1_555
H2 C3 1_555 1_555
C4 C3 1_555 1_555
H3 C4 1_555 1_555
C5 C4 1_555 1_555
H4 C5 1_555 1_555
C6 C1 1_555 1_555
C7 C8 1_555 1_555
C8 C9 1_555 1_555
C9 H5 1_555 1_555
H6 C9 1_555 1_555
C10 C11 1_555 1_555
C11 H7 1_555 1_555
H8 C11 1_555 1_555
H9 C11 1_555 1_555
C12 C10 1_555 1_555
H10 C12 1_555 1_555
H11 C12 1_555 1_555
H12 C12 1_555 1_555
C13 C10 1_555 1_555
H13 C13 1_555 1_555
H14 C13 1_555 1_555
H15 C13 1_555 1_555
C14 C15 1_555 1_555
C15 H16 1_555 1_555
H17 C15 1_555 1_555
H18 C15 1_555 1_555
C16 C14 1_555 1_555
H19 C16 1_555 1_555
H20 C16 1_555 1_555
H21 C16 1_555 1_555
C17 C14 1_555 1_555
H22 C17 1_555 1_555
H23 C17 1_555 1_555
H24 C17 1_555 1_555
C18 C7 1_555 1_555
H25 C18 1_555 1_555
H26 C18 1_555 1_555
C19 C20 1_555 1_555
C20 H27 1_555 1_555
H28 C20 1_555 1_555
H29 C20 1_555 1_555
C21 C19 1_555 1_555
H30 C21 1_555 1_555
H31 C21 1_555 1_555
H32 C21 1_555 1_555
C22 C19 1_555 1_555
H33 C22 1_555 1_555
H34 C22 1_555 1_555
H35 C22 1_555 1_555
C23 C24 1_555 1_555
C24 H36 1_555 1_555
H37 C24 1_555 1_555
H38 C24 1_555 1_555
C25 C23 1_555 1_555
H39 C25 1_555 1_555
H40 C25 1_555 1_555
H41 C25 1_555 1_555
C26 C23 1_555 1_555
H42 C26 1_555 1_555
H43 C26 1_555 1_555
H44 C26 1_555 1_555
N1 C1 1_555 1_555
N2 C6 1_555 1_555
P1 C9 1_555 1_555
P2 C18 1_555 1_555
C27 C28 1_555 1_555
C28 H45 1_555 1_555
C29 C28 1_555 1_555
H46 C29 1_555 1_555
C30 C29 1_555 1_555
H47 C30 1_555 1_555
C31 C30 1_555 1_555
H48 C31 1_555 1_555
C32 C27 1_555 1_555
C33 C34 1_555 1_555
C34 C35 1_555 1_555
C35 H49 1_555 1_555
H50 C35 1_555 1_555
C36 C37 1_555 1_555
C37 H51 1_555 1_555
H52 C37 1_555 1_555
H53 C37 1_555 1_555
C38 C36 1_555 1_555
H54 C38 1_555 1_555
H55 C38 1_555 1_555
H56 C38 1_555 1_555
C39 C36 1_555 1_555
H57 C39 1_555 1_555
H58 C39 1_555 1_555
H59 C39 1_555 1_555
C40 C41 1_555 1_555
C41 H60 1_555 1_555
H61 C41 1_555 1_555
H62 C41 1_555 1_555
C42 C40 1_555 1_555
H63 C42 1_555 1_555
H64 C42 1_555 1_555
H65 C42 1_555 1_555
C43 C40 1_555 1_555
H66 C43 1_555 1_555
H67 C43 1_555 1_555
H68 C43 1_555 1_555
C44 C33 1_555 1_555
H69 C44 1_555 1_555
H70 C44 1_555 1_555
C45 C46 1_555 1_555
C46 H71 1_555 1_555
H72 C46 1_555 1_555
H73 C46 1_555 1_555
C47 C45 1_555 1_555
H74 C47 1_555 1_555
H75 C47 1_555 1_555
H76 C47 1_555 1_555
C48 C45 1_555 1_555
H77 C48 1_555 1_555
H78 C48 1_555 1_555
H79 C48 1_555 1_555
C49 C50 1_555 1_555
C50 H80 1_555 1_555
H81 C50 1_555 1_555
H82 C50 1_555 1_555
C51 C49 1_555 1_555
H83 C51 1_555 1_555
H84 C51 1_555 1_555
H85 C51 1_555 1_555
C52 C49 1_555 1_555
H86 C52 1_555 1_555
H87 C52 1_555 1_555
H88 C52 1_555 1_555
N3 C27 1_555 1_555
N4 C32 1_555 1_555
P3 C35 1_555 1_555
P4 C44 1_555 1_555
C5 C6 1_555 1_555
C7 N2 1_555 1_555
C8 N1 1_555 1_555
C10 P1 1_555 1_555
C14 P1 1_555 1_555
C19 P2 1_555 1_555
C23 P2 1_555 1_555
C31 C32 1_555 1_555
C33 N4 1_555 1_555
C34 N3 1_555 1_555
C36 P3 1_555 1_555
C40 P3 1_555 1_555
C45 P4 1_555 1_555
C49 P4 1_555 1_555

#END
