
#######################################################################
#
#                 Cambridge Crystallographic Data Centre
#                                CCDC 
#
#######################################################################
#
# If this CIF has been generated from an entry in the Cambridge 
# Structural Database, then it will include bibliographic, chemical, 
# crystal, experimental, refinement or atomic coordinate data resulting 
# from the CCDC's data processing and validation procedures.
#
#######################################################################

data_GIYFOK
_chemical_formula_moiety         'C21 H18 O3'
_chemical_name_systematic        
cis-(E)-3-((Biphenyl-4-yl)methylene)tetrahydro-1-benzofuran-2,5(3H,4H)-dione
_symmetry_cell_setting           monoclinic
_symmetry_space_group_name_H-M   'P 21/n'
_symmetry_Int_Tables_number      14
_space_group_name_Hall           '-P 2yn'
loop_
_symmetry_equiv_pos_site_id
_symmetry_equiv_pos_as_xyz
1 x,y,z
2 1/2-x,1/2+y,1/2-z
3 -x,-y,-z
4 1/2+x,1/2-y,1/2+z
_cell_length_a                   10.045(2)
_cell_length_b                   5.4460(13)
_cell_length_c                   28.647(6)
_cell_angle_alpha                90
_cell_angle_beta                 94.448(5)
_cell_angle_gamma                90
_cell_volume                     1562.42
_exptl_crystal_colour            colorless
_exptl_crystal_description       plate
_chemical_melting_point          '146-148 deg.C'
_cell_formula_units_Z            4
loop_
_atom_site_label
_atom_site_type_symbol
_atom_site_fract_x
_atom_site_fract_y
_atom_site_fract_z
C1 C 0.9418(2) 0.5974(5) 0.41809(7)
C2 C 0.81387(18) 0.6477(4) 0.39071(6)
C3 C 0.73605(19) 0.8233(4) 0.41789(6)
H1 H 0.7156 0.9711 0.3992
C4 C 0.60666(18) 0.7101(4) 0.43278(6)
H2 H 0.5534 0.8368 0.4461
H3 H 0.5557 0.6443 0.4055
C5 C 0.6336(2) 0.5103(4) 0.46781(6)
C6 C 0.7309(2) 0.5718(4) 0.50837(7)
H4 H 0.8061 0.4599 0.5086
H5 H 0.6881 0.5477 0.5372
C7 C 0.7816(2) 0.8322(4) 0.50675(7)
H6 H 0.7095 0.9449 0.5121
H7 H 0.8519 0.8562 0.5315
C8 C 0.8346(2) 0.8879(4) 0.46037(7)
H8 H 0.8586 1.0621 0.4591
C9 C 0.7883(2) 0.5327(4) 0.34996(6)
H9 H 0.8527 0.4180 0.3432
C10 C 0.67782(19) 0.5540(3) 0.31400(6)
C11 C 0.5873(2) 0.7463(4) 0.31035(6)
H10 H 0.5927 0.8694 0.3329
C12 C 0.49001(19) 0.7590(4) 0.27420(6)
H11 H 0.4314 0.8914 0.2728
C13 C 0.47581(19) 0.5805(3) 0.23943(6)
C14 C 0.5667(2) 0.3890(4) 0.24356(6)
H12 H 0.5606 0.2643 0.2213
C15 C 0.6653(2) 0.3773(4) 0.27930(7)
H13 H 0.7254 0.2471 0.2802
C16 C 0.37051(19) 0.5929(3) 0.20035(6)
C17 C 0.2769(2) 0.7759(4) 0.19706(7)
H14 H 0.2800 0.8970 0.2200
C18 C 0.1786(2) 0.7869(4) 0.16101(8)
H15 H 0.1164 0.9135 0.1601
C19 C 0.1715(2) 0.6153(4) 0.12682(7)
H16 H 0.1060 0.6241 0.1021
C20 C 0.2618(3) 0.4302(5) 0.12934(8)
H17 H 0.2575 0.3092 0.1064
C21 C 0.3593(2) 0.4197(4) 0.16546(7)
H18 H 0.4201 0.2907 0.1664
O1 O 1.02739(16) 0.4557(3) 0.40941(5)
O2 O 0.95234(14) 0.7390(3) 0.45645(5)
O3 O 0.58078(15) 0.3113(3) 0.46370(5)
loop_
_geom_bond_atom_site_label_1
_geom_bond_atom_site_label_2
_geom_bond_site_symmetry_1
_geom_bond_site_symmetry_2
C1 C2 1_555 1_555
C2 C3 1_555 1_555
C3 H1 1_555 1_555
C4 C3 1_555 1_555
H2 C4 1_555 1_555
H3 C4 1_555 1_555
C5 C4 1_555 1_555
C6 C5 1_555 1_555
H4 C6 1_555 1_555
H5 C6 1_555 1_555
C7 C6 1_555 1_555
H6 C7 1_555 1_555
H7 C7 1_555 1_555
C8 C3 1_555 1_555
H8 C8 1_555 1_555
C9 C2 1_555 1_555
H9 C9 1_555 1_555
C10 C9 1_555 1_555
C11 C10 1_555 1_555
H10 C11 1_555 1_555
C12 C11 1_555 1_555
H11 C12 1_555 1_555
C13 C12 1_555 1_555
C14 C13 1_555 1_555
H12 C14 1_555 1_555
C15 C10 1_555 1_555
H13 C15 1_555 1_555
C16 C13 1_555 1_555
C17 C16 1_555 1_555
H14 C17 1_555 1_555
C18 C17 1_555 1_555
H15 C18 1_555 1_555
C19 C18 1_555 1_555
H16 C19 1_555 1_555
C20 C19 1_555 1_555
H17 C20 1_555 1_555
C21 C16 1_555 1_555
H18 C21 1_555 1_555
O1 C1 1_555 1_555
O2 C1 1_555 1_555
O3 C5 1_555 1_555
C7 C8 1_555 1_555
C8 O2 1_555 1_555
C14 C15 1_555 1_555
C20 C21 1_555 1_555

#END
