
#######################################################################
#
#                 Cambridge Crystallographic Data Centre
#                                CCDC 
#
#######################################################################
#
# If this CIF has been generated from an entry in the Cambridge 
# Structural Database, then it will include bibliographic, chemical, 
# crystal, experimental, refinement or atomic coordinate data resulting 
# from the CCDC's data processing and validation procedures.
#
#######################################################################

data_GIYYOD
_chemical_formula_moiety         'C25 H22 Cl2 O4'
_chemical_name_systematic        
2\b,5\b-bis(2-Chlorophenyl)-4\b-ethoxycarbonyl-4\a-benzyl-1,3-dioxolane
_symmetry_cell_setting           orthorhombic
_symmetry_space_group_name_H-M   'P b c a'
_symmetry_Int_Tables_number      61
_space_group_name_Hall           '-P 2ac 2ab'
loop_
_symmetry_equiv_pos_site_id
_symmetry_equiv_pos_as_xyz
1 x,y,z
2 1/2-x,-y,1/2+z
3 -x,1/2+y,1/2-z
4 1/2+x,1/2-y,-z
5 -x,-y,-z
6 1/2+x,y,1/2-z
7 x,1/2-y,1/2+z
8 1/2-x,1/2+y,z
_cell_length_a                   7.9089(15)
_cell_length_b                   19.010(4)
_cell_length_c                   28.786(6)
_cell_angle_alpha                90
_cell_angle_beta                 90
_cell_angle_gamma                90
_cell_volume                     4327.92
_exptl_crystal_colour            colorless
_exptl_crystal_description       block
_cell_formula_units_Z            8
loop_
_atom_site_label
_atom_site_type_symbol
_atom_site_fract_x
_atom_site_fract_y
_atom_site_fract_z
Cl1 Cl 0.62890(7) -0.14598(3) 0.552553(16)
Cl2 Cl 1.19923(6) 0.16660(3) 0.567012(16)
O1 O 0.97300(15) -0.00745(6) 0.62974(4)
O2 O 0.79171(14) 0.08336(6) 0.63427(4)
O3 O 0.62422(18) 0.02026(7) 0.70475(4)
O4 O 0.45481(16) -0.03508(7) 0.65395(4)
C1 C 0.8187(2) -0.03552(9) 0.61165(6)
H1 H 0.8296 -0.0409 0.5772
C2 C 0.9595(2) 0.06544(9) 0.62028(6)
H2 H 0.9743 0.0744 0.5863
C3 C 0.6870(2) 0.02465(9) 0.62237(6)
C4 C 0.7857(2) -0.10660(9) 0.63290(6)
C5 C 0.8371(2) -0.12164(10) 0.67831(6)
H3 H 0.8923 -0.0862 0.6960
C6 C 0.8094(2) -0.18681(11) 0.69803(7)
H4 H 0.8458 -0.1958 0.7289
C7 C 0.7289(2) -0.23920(10) 0.67301(7)
H5 H 0.7107 -0.2841 0.6866
C8 C 0.6749(2) -0.22585(10) 0.62813(7)
H6 H 0.6185 -0.2614 0.6109
C9 C 0.7037(2) -0.16031(10) 0.60850(6)
C10 C 1.0877(2) 0.10632(9) 0.64756(6)
C11 C 1.2029(2) 0.15179(10) 0.62691(6)
C12 C 1.3238(2) 0.18715(10) 0.65273(7)
H7 H 1.4010 0.2182 0.6379
C13 C 1.3309(2) 0.17688(10) 0.70021(7)
H8 H 1.4143 0.2006 0.7181
C14 C 1.2164(2) 0.13193(10) 0.72203(7)
H9 H 1.2211 0.1251 0.7547
C15 C 1.0955(2) 0.09721(9) 0.69571(6)
H10 H 1.0170 0.0668 0.7106
C16 C 0.5707(2) 0.04205(10) 0.58068(6)
H11 H 0.5134 -0.0016 0.5705
H12 H 0.4823 0.0754 0.5911
C17 C 0.6630(2) 0.07359(10) 0.53975(6)
C18 C 0.6964(2) 0.14565(10) 0.53829(6)
H13 H 0.6565 0.1751 0.5626
C19 C 0.7869(3) 0.17483(11) 0.50184(7)
H14 H 0.8099 0.2239 0.5015
C20 C 0.8436(3) 0.13262(12) 0.46596(7)
H15 H 0.9070 0.1525 0.4412
C21 C 0.8078(2) 0.06173(12) 0.46623(7)
H16 H 0.8443 0.0329 0.4412
C22 C 0.7187(2) 0.03234(10) 0.50293(6)
H17 H 0.6953 -0.0167 0.5029
C23 C 0.5857(2) 0.00515(9) 0.66567(6)
C24 C 0.3624(3) -0.06807(12) 0.69204(7)
H18 H 0.2784 -0.0349 0.7051
H19 H 0.4412 -0.0822 0.7171
C25 C 0.2761(3) -0.13093(12) 0.67234(8)
H20 H 0.2064 -0.1531 0.6964
H21 H 0.3610 -0.1646 0.6613
H22 H 0.2041 -0.1165 0.6463
loop_
_geom_bond_atom_site_label_1
_geom_bond_atom_site_label_2
_geom_bond_site_symmetry_1
_geom_bond_site_symmetry_2
Cl1 C9 1_555 1_555
Cl2 C11 1_555 1_555
O1 C1 1_555 1_555
O2 C2 1_555 1_555
O3 C23 1_555 1_555
O4 C23 1_555 1_555
C1 H1 1_555 1_555
C2 O1 1_555 1_555
H2 C2 1_555 1_555
C3 O2 1_555 1_555
C4 C1 1_555 1_555
C5 C4 1_555 1_555
H3 C5 1_555 1_555
C6 C5 1_555 1_555
H4 C6 1_555 1_555
C7 C6 1_555 1_555
H5 C7 1_555 1_555
C8 C7 1_555 1_555
H6 C8 1_555 1_555
C9 C4 1_555 1_555
C10 C2 1_555 1_555
C11 C10 1_555 1_555
C12 C11 1_555 1_555
H7 C12 1_555 1_555
C13 C12 1_555 1_555
H8 C13 1_555 1_555
C14 C13 1_555 1_555
H9 C14 1_555 1_555
C15 C10 1_555 1_555
H10 C15 1_555 1_555
C16 C3 1_555 1_555
H11 C16 1_555 1_555
H12 C16 1_555 1_555
C17 C16 1_555 1_555
C18 C17 1_555 1_555
H13 C18 1_555 1_555
C19 C18 1_555 1_555
H14 C19 1_555 1_555
C20 C19 1_555 1_555
H15 C20 1_555 1_555
C21 C20 1_555 1_555
H16 C21 1_555 1_555
C22 C17 1_555 1_555
H17 C22 1_555 1_555
C23 C3 1_555 1_555
C24 O4 1_555 1_555
H18 C24 1_555 1_555
H19 C24 1_555 1_555
C25 C24 1_555 1_555
H20 C25 1_555 1_555
H21 C25 1_555 1_555
H22 C25 1_555 1_555
C1 C3 1_555 1_555
C8 C9 1_555 1_555
C14 C15 1_555 1_555
C21 C22 1_555 1_555

#END
