
#######################################################################
#
#                 Cambridge Crystallographic Data Centre
#                                CCDC 
#
#######################################################################
#
# If this CIF has been generated from an entry in the Cambridge 
# Structural Database, then it will include bibliographic, chemical, 
# crystal, experimental, refinement or atomic coordinate data resulting 
# from the CCDC's data processing and validation procedures.
#
#######################################################################

data_GIZHIH01
_chemical_formula_moiety         'C7 H4 Br2 O2'
_chemical_name_systematic        3,5-dibromo-2-hydroxybenzaldehyde
_symmetry_cell_setting           monoclinic
_symmetry_space_group_name_H-M   'P 21/c'
_symmetry_Int_Tables_number      14
_space_group_name_Hall           '-P 2ybc'
loop_
_symmetry_equiv_pos_site_id
_symmetry_equiv_pos_as_xyz
1 x,y,z
2 -x,1/2+y,1/2-z
3 -x,-y,-z
4 x,1/2-y,1/2+z
_cell_length_a                   16.404(5)
_cell_length_b                   13.973(5)
_cell_length_c                   7.466(5)
_cell_angle_alpha                90
_cell_angle_beta                 103.044(5)
_cell_angle_gamma                90
_cell_volume                     1667.15
_exptl_crystal_colour            white
_exptl_crystal_description       needle
_cell_formula_units_Z            8
loop_
_atom_site_label
_atom_site_type_symbol
_atom_site_fract_x
_atom_site_fract_y
_atom_site_fract_z
Br1 Br 0.82479(4) -0.00146(5) 0.34529(10)
Br2 Br 0.83362(4) 0.40371(5) 0.34459(10)
O1 O 1.1347(2) 0.2603(3) 0.2557(6)
O2 O 1.0109(3) 0.3676(3) 0.3076(7)
H1 H 1.0591 0.3571 0.2988
C1 C 1.0098(3) 0.1952(4) 0.3049(8)
C2 C 0.9709(4) 0.2835(4) 0.3155(8)
C3 C 1.0950(4) 0.1912(5) 0.2724(9)
H2 H 1.1190 0.1314 0.2646
C4 C 0.8894(4) 0.2853(4) 0.3387(8)
C5 C 0.9664(4) 0.1098(4) 0.3150(8)
H3 H 0.9919 0.0512 0.3056
C6 C 0.8857(4) 0.1134(4) 0.3391(8)
C7 C 0.8475(4) 0.2012(4) 0.3493(8)
H4 H 0.7926 0.2031 0.3636
Br3 Br 0.39711(5) 0.03213(4) 0.60950(12)
Br4 Br 0.62560(4) 0.32598(5) 0.53555(11)
O3 O 0.2857(2) 0.1981(3) 0.6360(6)
H5 H 0.2558 0.2439 0.6464
C8 C 0.4212(4) 0.1637(4) 0.5938(8)
O4 O 0.2482(3) 0.3862(3) 0.6348(7)
C9 C 0.4992(4) 0.1917(4) 0.5716(8)
H6 H 0.5393 0.1460 0.5623
C10 C 0.5170(4) 0.2878(4) 0.5632(8)
C11 C 0.3784(4) 0.3270(4) 0.5994(8)
C12 C 0.4576(4) 0.3547(4) 0.5758(8)
H7 H 0.4698 0.4194 0.5686
C13 C 0.3599(4) 0.2300(4) 0.6100(8)
C14 C 0.3141(4) 0.4020(4) 0.6134(9)
H8 H 0.3288 0.4658 0.6041
loop_
_geom_bond_atom_site_label_1
_geom_bond_atom_site_label_2
_geom_bond_site_symmetry_1
_geom_bond_site_symmetry_2
Br1 C6 1_555 1_555
Br2 C4 1_555 1_555
O1 C3 1_555 1_555
O2 H1 1_555 1_555
C1 C2 1_555 1_555
C2 O2 1_555 1_555
C3 C1 1_555 1_555
H2 C3 1_555 1_555
C4 C2 1_555 1_555
C5 C1 1_555 1_555
H3 C5 1_555 1_555
C6 C5 1_555 1_555
C7 C4 1_555 1_555
H4 C7 1_555 1_555
Br3 C8 1_555 1_555
Br4 C10 1_555 1_555
O3 H5 1_555 1_555
C8 C9 1_555 1_555
O4 C14 1_555 1_555
C9 H6 1_555 1_555
C10 C9 1_555 1_555
C11 C12 1_555 1_555
C12 C10 1_555 1_555
H7 C12 1_555 1_555
C13 O3 1_555 1_555
C14 C11 1_555 1_555
H8 C14 1_555 1_555
C6 C7 1_555 1_555
C8 C13 1_555 1_555
C11 C13 1_555 1_555

#END
