
#######################################################################
#
#                 Cambridge Crystallographic Data Centre
#                                CCDC 
#
#######################################################################
#
# If this CIF has been generated from an entry in the Cambridge 
# Structural Database, then it will include bibliographic, chemical, 
# crystal, experimental, refinement or atomic coordinate data resulting 
# from the CCDC's data processing and validation procedures.
#
#######################################################################

data_GIZQIQ
_chemical_compound_source        
'leaf extract of Rutaceae Clausena lansium (Lour.) Skeels'
_chemical_formula_moiety         'C18 H19 N1 O3'
_chemical_name_systematic        6-Epi-neoclausenamide
_chemical_properties_biological  
'parent plant used in folk medicine as a treatment of influenza, gastrointestinal disorder, viral hepatitis and dermatological diseases'
_symmetry_cell_setting           monoclinic
_symmetry_space_group_name_H-M   'P 21/c'
_symmetry_Int_Tables_number      14
_space_group_name_Hall           '-P 2ybc'
loop_
_symmetry_equiv_pos_site_id
_symmetry_equiv_pos_as_xyz
1 x,y,z
2 -x,1/2+y,1/2-z
3 -x,-y,-z
4 x,1/2-y,1/2+z
_cell_length_a                   14.400(3)
_cell_length_b                   7.7917(16)
_cell_length_c                   13.790(3)
_cell_angle_alpha                90
_cell_angle_beta                 98.05(3)
_cell_angle_gamma                90
_cell_volume                     1532
_exptl_crystal_colour            colorless
_exptl_crystal_description       prism
_chemical_melting_point          '203-205 deg.C'
_cell_formula_units_Z            4
_exptl_crystal_recrystallization_method 'ethyl acetate/tetrahydrofuran'
loop_
_atom_site_label
_atom_site_type_symbol
_atom_site_fract_x
_atom_site_fract_y
_atom_site_fract_z
O1 O 0.95521(14) 0.0879(2) 0.38205(14)
H1 H 0.9599 0.1303 0.4369
N1 N 0.90214(15) -0.3316(3) 0.31945(15)
O2 O 0.83118(16) -0.4685(3) 0.12331(16)
H2 H 0.8839 -0.5016 0.1164
C1 C 0.83074(17) -0.0624(3) 0.27681(17)
H3 H 0.8646 -0.0070 0.2284
C2 C 0.82434(17) -0.2574(3) 0.25237(18)
H4 H 0.7645 -0.3035 0.2671
O3 O 1.01488(14) -0.2548(3) 0.44488(15)
C3 C 0.73708(18) 0.0287(3) 0.27411(18)
C4 C 0.75705(18) -0.2026(3) 0.07622(18)
C5 C 0.89341(18) -0.0526(3) 0.37664(18)
H5 H 0.8541 -0.0440 0.4289
C6 C 0.83377(18) -0.2896(3) 0.14414(19)
H6 H 0.8943 -0.2440 0.1313
C7 C 0.7770(2) -0.0680(4) 0.0170(2)
H7 H 0.8384 -0.0291 0.0195
C8 C 0.9221(2) -0.5157(3) 0.3251(2)
H8 H 0.9751 -0.5364 0.3741
H9 H 0.9358 -0.5556 0.2627
H10 H 0.8685 -0.5759 0.3421
C9 C 0.6734(2) -0.0228(4) 0.3353(2)
H11 H 0.6884 -0.1136 0.3785
C10 C 0.94488(18) -0.2221(4) 0.38463(19)
C11 C 0.66491(19) -0.2567(4) 0.0713(2)
H12 H 0.6503 -0.3459 0.1114
C12 C 0.7136(2) 0.1650(4) 0.2116(2)
H13 H 0.7554 0.2029 0.1706
C13 C 0.5943(2) -0.1799(5) 0.0078(2)
H14 H 0.5328 -0.2184 0.0049
C14 C 0.5640(2) 0.1923(4) 0.2702(3)
H15 H 0.5061 0.2461 0.2682
C15 C 0.6146(3) -0.0470(5) -0.0511(2)
H16 H 0.5670 0.0045 -0.0938
C16 C 0.5882(2) 0.0589(4) 0.3329(3)
H17 H 0.5466 0.0226 0.3745
C17 C 0.7048(3) 0.0095(5) -0.0467(2)
H18 H 0.7184 0.1002 -0.0862
C18 C 0.6268(3) 0.2458(4) 0.2099(3)
H19 H 0.6112 0.3373 0.1674
loop_
_geom_bond_atom_site_label_1
_geom_bond_atom_site_label_2
_geom_bond_site_symmetry_1
_geom_bond_site_symmetry_2
O1 H1 1_555 1_555
N1 C2 1_555 1_555
O2 H2 1_555 1_555
C1 H3 1_555 1_555
C2 C1 1_555 1_555
H4 C2 1_555 1_555
O3 C10 1_555 1_555
C3 C1 1_555 1_555
C4 C6 1_555 1_555
C5 O1 1_555 1_555
H5 C5 1_555 1_555
C6 O2 1_555 1_555
H6 C6 1_555 1_555
C7 C4 1_555 1_555
H7 C7 1_555 1_555
C8 N1 1_555 1_555
H8 C8 1_555 1_555
H9 C8 1_555 1_555
H10 C8 1_555 1_555
C9 C3 1_555 1_555
H11 C9 1_555 1_555
C10 N1 1_555 1_555
C11 C4 1_555 1_555
H12 C11 1_555 1_555
C12 C3 1_555 1_555
H13 C12 1_555 1_555
C13 C11 1_555 1_555
H14 C13 1_555 1_555
C14 H15 1_555 1_555
C15 C13 1_555 1_555
H16 C15 1_555 1_555
C16 C9 1_555 1_555
H17 C16 1_555 1_555
C17 C7 1_555 1_555
H18 C17 1_555 1_555
C18 C12 1_555 1_555
H19 C18 1_555 1_555
C1 C5 1_555 1_555
C2 C6 1_555 1_555
C5 C10 1_555 1_555
C14 C16 1_555 1_555
C14 C18 1_555 1_555
C15 C17 1_555 1_555

#END
