
#######################################################################
#
#                 Cambridge Crystallographic Data Centre
#                                CCDC 
#
#######################################################################
#
# If this CIF has been generated from an entry in the Cambridge 
# Structural Database, then it will include bibliographic, chemical, 
# crystal, experimental, refinement or atomic coordinate data resulting 
# from the CCDC's data processing and validation procedures.
#
#######################################################################

data_GOBMER
_chemical_formula_moiety         'C13 H9 Br1 Cl1 N1 O1'
_chemical_name_systematic        
2-(((4-Bromophenyl)imino)methyl)-4-chlorophenol
_symmetry_cell_setting           orthorhombic
_symmetry_space_group_name_H-M   'P c c n'
_symmetry_Int_Tables_number      56
_space_group_name_Hall           '-P 2ab 2ac'
loop_
_symmetry_equiv_pos_site_id
_symmetry_equiv_pos_as_xyz
1 x,y,z
2 1/2-x,1/2-y,z
3 1/2+x,-y,1/2-z
4 -x,1/2+y,1/2-z
5 -x,-y,-z
6 1/2+x,1/2+y,-z
7 1/2-x,y,1/2+z
8 x,1/2-y,1/2+z
_cell_length_a                   6.9964(15)
_cell_length_b                   55.786(12)
_cell_length_c                   6.1443(14)
_cell_angle_alpha                90
_cell_angle_beta                 90
_cell_angle_gamma                90
_cell_volume                     2398.13
_exptl_crystal_colour            colorless
_exptl_crystal_description       block
_cell_formula_units_Z            8
loop_
_atom_site_label
_atom_site_type_symbol
_atom_site_fract_x
_atom_site_fract_y
_atom_site_fract_z
Br1 Br -0.03618(9) 0.228348(8) -0.07815(11)
C1 C -0.0360(6) 0.08714(7) 0.5859(7)
C2 C -0.0711(6) 0.06455(8) 0.6715(7)
H1 H -0.1186 0.0631 0.8123
C3 C -0.0364(6) 0.04435(7) 0.5506(8)
H2 H -0.0609 0.0293 0.6092
C4 C 0.0346(6) 0.04637(7) 0.3425(7)
C5 C 0.0691(6) 0.06843(7) 0.2537(7)
H3 H 0.1169 0.0695 0.1129
C6 C 0.0332(6) 0.08932(7) 0.3722(6)
C7 C 0.0538(6) 0.11247(7) 0.2675(7)
H4 H 0.0897 0.1132 0.1219
C8 C 0.0157(5) 0.15412(7) 0.2599(7)
C9 C -0.0626(6) 0.15603(7) 0.0518(7)
H5 H -0.1044 0.1424 -0.0209
C10 C -0.0780(6) 0.17821(7) -0.0459(7)
H6 H -0.1315 0.1795 -0.1839
C11 C -0.0140(6) 0.19838(7) 0.0610(8)
C12 C 0.0610(6) 0.19682(7) 0.2681(8)
H7 H 0.1013 0.2106 0.3402
C13 C 0.0759(6) 0.17470(7) 0.3676(7)
H8 H 0.1265 0.1736 0.5072
Cl1 Cl 0.0736(2) 0.02081(2) 0.1879(2)
N1 N 0.0235(5) 0.13186(6) 0.3721(5)
O1 O -0.0721(5) 0.10666(5) 0.7096(5)
H9 H -0.0470 0.1188 0.6401
loop_
_geom_bond_atom_site_label_1
_geom_bond_atom_site_label_2
_geom_bond_site_symmetry_1
_geom_bond_site_symmetry_2
Br1 C11 1_555 1_555
C1 C2 1_555 1_555
C2 H1 1_555 1_555
C3 C2 1_555 1_555
H2 C3 1_555 1_555
C4 C3 1_555 1_555
C5 C4 1_555 1_555
H3 C5 1_555 1_555
C6 C1 1_555 1_555
C7 C6 1_555 1_555
H4 C7 1_555 1_555
C8 C9 1_555 1_555
C9 H5 1_555 1_555
C10 C9 1_555 1_555
H6 C10 1_555 1_555
C11 C10 1_555 1_555
C12 C11 1_555 1_555
H7 C12 1_555 1_555
C13 C8 1_555 1_555
H8 C13 1_555 1_555
Cl1 C4 1_555 1_555
N1 C7 1_555 1_555
O1 C1 1_555 1_555
H9 O1 1_555 1_555
C5 C6 1_555 1_555
C8 N1 1_555 1_555
C12 C13 1_555 1_555

#END
