
#######################################################################
#
#                 Cambridge Crystallographic Data Centre
#                                CCDC 
#
#######################################################################
#
# If this CIF has been generated from an entry in the Cambridge 
# Structural Database, then it will include bibliographic, chemical, 
# crystal, experimental, refinement or atomic coordinate data resulting 
# from the CCDC's data processing and validation procedures.
#
#######################################################################

data_GOBRUM
_chemical_formula_moiety         'C29 H23 O4 P1,H2 O1'
_chemical_name_systematic        
"3,7-Diphenyl-10,11,12,13-tetrahydrodiindeno[7,1-de:1',7'-fg][1,3,2]dioxaphosphocin-5-ol 5-oxide monohydrate"
_symmetry_cell_setting           monoclinic
_symmetry_space_group_name_H-M   'C 2'
_symmetry_Int_Tables_number      5
_space_group_name_Hall           'C 2y'
loop_
_symmetry_equiv_pos_site_id
_symmetry_equiv_pos_as_xyz
1 x,y,z
2 -x,y,-z
3 1/2+x,1/2+y,z
4 1/2-x,1/2+y,-z
_cell_length_a                   25.330(4)
_cell_length_b                   6.6640(8)
_cell_length_c                   16.090(2)
_cell_angle_alpha                90
_cell_angle_beta                 121.291(16)
_cell_angle_gamma                90
_cell_volume                     2320.91
_exptl_crystal_colour            colorless
_exptl_crystal_description       prism
_cell_formula_units_Z            4
loop_
_atom_site_label
_atom_site_type_symbol
_atom_site_fract_x
_atom_site_fract_y
_atom_site_fract_z
P1 P 0.78282(5) 0.42323(18) 0.69212(8)
O1 O 0.75939(14) 0.5352(5) 0.7545(2)
O2 O 0.85617(13) 0.4154(5) 0.75994(19)
O3 O 0.76339(16) 0.2077(5) 0.6826(2)
H1 H 0.7692 0.1504 0.6415
O4 O 0.76203(15) 0.5448(5) 0.6041(2)
C1 C 0.8805(2) 0.6470(7) 0.9393(3)
C2 C 0.8315(2) 0.4980(6) 0.9249(3)
C3 C 0.7742(2) 0.4554(7) 0.8454(3)
C4 C 0.7312(2) 0.3385(7) 0.8524(3)
C5 C 0.7507(2) 0.2488(7) 0.9427(3)
H2 H 0.7225 0.1676 0.9499
C6 C 0.8098(2) 0.2754(7) 1.0213(3)
H3 H 0.8226 0.2075 1.0808
C7 C 0.8503(2) 0.4017(7) 1.0130(3)
C8 C 0.9158(2) 0.4543(7) 1.0882(3)
H4 H 0.9401 0.3331 1.1221
H5 H 0.9176 0.5498 1.1367
C9 C 0.9389(2) 0.5510(7) 1.0266(3)
H6 H 0.9570 0.4489 1.0039
H7 H 0.9705 0.6545 1.0643
C10 C 0.8927(2) 0.7097(7) 0.8603(3)
C11 C 0.8868(2) 0.6014(6) 0.7823(3)
C12 C 0.9086(2) 0.6777(7) 0.7247(3)
C13 C 0.9346(2) 0.8686(7) 0.7472(3)
H8 H 0.9512 0.9220 0.7107
C14 C 0.9373(2) 0.9827(7) 0.8206(3)
H9 H 0.9540 1.1144 0.8328
C15 C 0.9152(2) 0.9032(7) 0.8761(3)
C16 C 0.9100(2) 1.0005(7) 0.9553(3)
H10 H 0.8910 1.1352 0.9354
H11 H 0.9510 1.0129 1.0156
C17 C 0.8684(2) 0.8561(7) 0.9691(3)
H12 H 0.8245 0.8947 0.9272
H13 H 0.8792 0.8553 1.0377
C18 C 0.6665(2) 0.3119(8) 0.7713(3)
C19 C 0.6382(2) 0.1265(9) 0.7568(3)
H14 H 0.6616 0.0143 0.7943
C20 C 0.5756(3) 0.1038(10) 0.6876(4)
H15 H 0.5564 -0.0234 0.6784
C21 C 0.5417(3) 0.2653(11) 0.6327(4)
H16 H 0.4990 0.2501 0.5858
C22 C 0.5697(2) 0.4486(11) 0.6457(4)
H17 H 0.5463 0.5598 0.6071
C23 C 0.6320(2) 0.4724(8) 0.7150(4)
H18 H 0.6509 0.5999 0.7237
C24 C 0.9018(2) 0.5700(7) 0.6394(3)
C25 C 0.9197(3) 0.3723(7) 0.6443(3)
H19 H 0.9360 0.3009 0.7038
C26 C 0.9142(3) 0.2767(8) 0.5637(4)
H20 H 0.9263 0.1404 0.5678
C27 C 0.8910(3) 0.3806(8) 0.4777(3)
H21 H 0.8870 0.3157 0.4221
C28 C 0.8738(2) 0.5772(8) 0.4722(3)
H22 H 0.8587 0.6488 0.4130
C29 C 0.8783(2) 0.6726(8) 0.5518(3)
H23 H 0.8654 0.8082 0.5468
O5 O 0.77446(17) 0.9539(6) 0.5836(2)
H24 H 0.759(3) 0.819(12) 0.585(5)
H25 H 0.761(3) 0.982(10) 0.529(4)
loop_
_geom_bond_atom_site_label_1
_geom_bond_atom_site_label_2
_geom_bond_site_symmetry_1
_geom_bond_site_symmetry_2
P1 O1 1_555 1_555
O1 C3 1_555 1_555
O2 P1 1_555 1_555
O3 P1 1_555 1_555
H1 O3 1_555 1_555
O4 P1 1_555 1_555
C1 C2 1_555 1_555
C2 C3 1_555 1_555
C3 C4 1_555 1_555
C4 C5 1_555 1_555
C5 H2 1_555 1_555
C6 C5 1_555 1_555
H3 C6 1_555 1_555
C7 C2 1_555 1_555
C8 C7 1_555 1_555
H4 C8 1_555 1_555
H5 C8 1_555 1_555
C9 C1 1_555 1_555
H6 C9 1_555 1_555
H7 C9 1_555 1_555
C10 C1 1_555 1_555
C11 O2 1_555 1_555
C12 C11 1_555 1_555
C13 C12 1_555 1_555
H8 C13 1_555 1_555
C14 C13 1_555 1_555
H9 C14 1_555 1_555
C15 C10 1_555 1_555
C16 C15 1_555 1_555
H10 C16 1_555 1_555
H11 C16 1_555 1_555
C17 C1 1_555 1_555
H12 C17 1_555 1_555
H13 C17 1_555 1_555
C18 C4 1_555 1_555
C19 C18 1_555 1_555
H14 C19 1_555 1_555
C20 C19 1_555 1_555
H15 C20 1_555 1_555
C21 C20 1_555 1_555
H16 C21 1_555 1_555
C22 C21 1_555 1_555
H17 C22 1_555 1_555
C23 C18 1_555 1_555
H18 C23 1_555 1_555
C24 C12 1_555 1_555
C25 C24 1_555 1_555
H19 C25 1_555 1_555
C26 C25 1_555 1_555
H20 C26 1_555 1_555
C27 C26 1_555 1_555
H21 C27 1_555 1_555
C28 C27 1_555 1_555
H22 C28 1_555 1_555
C29 C24 1_555 1_555
H23 C29 1_555 1_555
O5 H24 1_555 1_555
H25 O5 1_555 1_555
C6 C7 1_555 1_555
C8 C9 1_555 1_555
C10 C11 1_555 1_555
C14 C15 1_555 1_555
C16 C17 1_555 1_555
C22 C23 1_555 1_555
C28 C29 1_555 1_555

#END
