
#######################################################################
#
#                 Cambridge Crystallographic Data Centre
#                                CCDC 
#
#######################################################################
#
# If this CIF has been generated from an entry in the Cambridge 
# Structural Database, then it will include bibliographic, chemical, 
# crystal, experimental, refinement or atomic coordinate data resulting 
# from the CCDC's data processing and validation procedures.
#
#######################################################################

data_GOBYUR
_chemical_formula_moiety         'C12 H26 N2 O4,2(C6 H5 N3 O4)'
_chemical_name_systematic        
'1,4,10,13-Tetraoxa-7,16-diazacyclo-octadecane bis(2,4-dinitroaniline) clathrate'
_symmetry_cell_setting           monoclinic
_symmetry_space_group_name_H-M   'P 21/n'
_symmetry_Int_Tables_number      14
_space_group_name_Hall           '-P 2yn'
loop_
_symmetry_equiv_pos_site_id
_symmetry_equiv_pos_as_xyz
1 x,y,z
2 1/2-x,1/2+y,1/2-z
3 -x,-y,-z
4 1/2+x,1/2-y,1/2+z
_cell_length_a                   11.533(2)
_cell_length_b                   7.654(2)
_cell_length_c                   17.755(3)
_cell_angle_alpha                90
_cell_angle_beta                 103.76(1)
_cell_angle_gamma                90
_cell_volume                     1522.32
_chemical_melting_point          131-134deg.C
_cell_formula_units_Z            2
loop_
_atom_site_label
_atom_site_type_symbol
_atom_site_fract_x
_atom_site_fract_y
_atom_site_fract_z
N1 N 0.0345(1) -0.0204(2) 0.6582(1)
C1 C 0.1319(2) 0.0874(3) 0.7020(1)
C2 C 0.1317(2) 0.2639(3) 0.6673(1)
O1 O 0.1597(1) 0.2481(2) 0.5942(1)
C3 C 0.1646(2) 0.4135(3) 0.5582(1)
C4 C 0.1776(2) 0.3874(3) 0.4781(1)
O2 O 0.0739(1) 0.3065(2) 0.4334(1)
C5 C 0.0726(2) 0.2955(3) 0.3531(1)
C6 C 0.0377(2) -0.1994(3) 0.6866(1)
H1 H 0.0456(14) -0.0238(22) 0.6115(9)
H2 H 0.1235 0.0992 0.7542
H3 H 0.2061 0.0311 0.7022
H4 H 0.1899 0.3361 0.7007
H5 H 0.0544 0.3158 0.6608
H6 H 0.0927 0.4772 0.5570
H7 H 0.2315 0.4784 0.5872
H8 H 0.2452 0.3142 0.4789
H9 H 0.1886 0.4984 0.4556
H10 H 0.0723 0.4106 0.3316
H11 H 0.1415 0.2330 0.3465
H12 H 0.0435 -0.1978 0.7415
H13 H 0.1058 -0.2582 0.6765
C6B C -0.0377(2) 0.1994(3) 0.3134(1)
C5B C -0.0726(2) -0.2955(3) 0.6469(1)
N1B N -0.0345(1) 0.0204(2) 0.3418(1)
H12B H -0.0435 0.1978 0.2585
H13B H -0.1058 0.2582 0.3235
O2B O -0.0739(1) -0.3065(2) 0.5666(1)
H10B H -0.0723 -0.4106 0.6684
H11B H -0.1415 -0.2330 0.6535
C1B C -0.1319(2) -0.0874(3) 0.2980(1)
H1B H -0.0456(14) 0.0238(22) 0.3885(9)
C4B C -0.1776(2) -0.3874(3) 0.5219(1)
C2B C -0.1317(2) -0.2639(3) 0.3327(1)
H2B H -0.1235 -0.0992 0.2458
H3B H -0.2061 -0.0311 0.2978
C3B C -0.1646(2) -0.4135(3) 0.4418(1)
H8B H -0.2452 -0.3142 0.5211
H9B H -0.1886 -0.4984 0.5444
O1B O -0.1597(1) -0.2481(2) 0.4058(1)
H4B H -0.1899 -0.3361 0.2993
H5B H -0.0544 -0.3158 0.3392
H6B H -0.0927 -0.4772 0.4430
H7B H -0.2315 -0.4784 0.4128
C7 C 0.2750(1) -0.1683(2) 0.4125(1)
C8 C 0.2499(2) -0.0762(2) 0.4760(1)
C9 C 0.3267(2) -0.0695(3) 0.5469(1)
C10 C 0.4352(2) -0.1574(2) 0.5593(1)
C11 C 0.4657(1) -0.2482(2) 0.5005(1)
C12 C 0.3871(1) -0.2539(2) 0.4281(1)
N2 N 0.1949(1) -0.1680(2) 0.3453(1)
N3 N 0.4257(1) -0.3522(2) 0.3686(1)
O3 O 0.5266(1) -0.4130(2) 0.3836(1)
O4 O 0.3561(1) -0.3733(2) 0.3053(1)
N4 N 0.5176(2) -0.1511(2) 0.6352(1)
O5 O 0.6142(1) -0.2240(2) 0.6445(1)
O6 O 0.4869(2) -0.0721(3) 0.6869(1)
H14 H 0.1754 -0.0157 0.4686
H15 H 0.3065 -0.0047 0.5882
H16 H 0.5409 -0.3073 0.5093
H17 H 0.2095(16) -0.2144(26) 0.3109(10)
H18 H 0.1309(15) -0.1053(23) 0.3424(10)
loop_
_geom_bond_atom_site_label_1
_geom_bond_atom_site_label_2
_geom_bond_site_symmetry_1
_geom_bond_site_symmetry_2
N1 C1 1_555 1_555
C1 C2 1_555 1_555
C2 O1 1_555 1_555
O1 C3 1_555 1_555
C3 C4 1_555 1_555
C4 O2 1_555 1_555
O2 C5 1_555 1_555
C5 H10 1_555 1_555
C6 N1 1_555 1_555
C7 C8 1_555 1_555
C8 C9 1_555 1_555
C9 C10 1_555 1_555
C10 C11 1_555 1_555
C11 C12 1_555 1_555
C12 C7 1_555 1_555
N2 C7 1_555 1_555
N3 C12 1_555 1_555
O3 N3 1_555 1_555
O4 N3 1_555 1_555
N4 C10 1_555 1_555
O5 N4 1_555 1_555
O6 N4 1_555 1_555
H1 N1 1_555 1_555
H2 C1 1_555 1_555
H3 C1 1_555 1_555
H4 C2 1_555 1_555
H5 C2 1_555 1_555
H6 C3 1_555 1_555
H7 C3 1_555 1_555
H8 C4 1_555 1_555
H9 C4 1_555 1_555
H11 C5 1_555 1_555
H12 C6 1_555 1_555
H13 C6 1_555 1_555
H14 C8 1_555 1_555
H15 C9 1_555 1_555
H16 C11 1_555 1_555
H17 N2 1_555 1_555
H18 N2 1_555 1_555
C6B C5 1_555 1_555
C5B C6 1_555 1_555
N1B C6B 1_555 1_555
H12B C6B 1_555 1_555
H13B C6B 1_555 1_555
O2B C5B 1_555 1_555
H10B C5B 1_555 1_555
H11B C5B 1_555 1_555
C1B N1B 1_555 1_555
H1B N1B 1_555 1_555
C4B O2B 1_555 1_555
C2B C1B 1_555 1_555
H2B C1B 1_555 1_555
H3B C1B 1_555 1_555
C3B C4B 1_555 1_555
H8B C4B 1_555 1_555
H9B C4B 1_555 1_555
O1B C2B 1_555 1_555
H4B C2B 1_555 1_555
H5B C2B 1_555 1_555
H6B C3B 1_555 1_555
H7B C3B 1_555 1_555
C3B O1B 1_555 1_555

#END
