
#######################################################################
#
#                 Cambridge Crystallographic Data Centre
#                                CCDC 
#
#######################################################################
#
# If this CIF has been generated from an entry in the Cambridge 
# Structural Database, then it will include bibliographic, chemical, 
# crystal, experimental, refinement or atomic coordinate data resulting 
# from the CCDC's data processing and validation procedures.
#
#######################################################################

data_GOCQIA
_chemical_formula_moiety         'C41 H48 Si2'
_chemical_name_systematic        
Triethyl((13-((triisopropylsilyl)ethynyl)pentacen-6-yl)ethynyl)silane
_symmetry_cell_setting           triclinic
_symmetry_space_group_name_H-M   'P -1'
_symmetry_Int_Tables_number      2
_space_group_name_Hall           '-P 1'
loop_
_symmetry_equiv_pos_site_id
_symmetry_equiv_pos_as_xyz
1 x,y,z
2 -x,-y,-z
_cell_length_a                   12.6975(8)
_cell_length_b                   12.8100(8)
_cell_length_c                   13.5887(7)
_cell_angle_alpha                74.690(5)
_cell_angle_beta                 62.252(6)
_cell_angle_gamma                66.142(6)
_cell_volume                     1781.1
_exptl_crystal_colour            'dark blue'
_exptl_crystal_description       needles
_cell_formula_units_Z            2
loop_
_atom_site_label
_atom_site_type_symbol
_atom_site_fract_x
_atom_site_fract_y
_atom_site_fract_z
Si1 Si 0.10218(7) 1.18557(6) 0.45963(6)
Si2 Si 0.81630(7) 0.36364(5) -0.00722(6)
C1 C 0.3848(2) 0.88335(19) 0.2688(2)
C2 C 0.4503(2) 0.79154(19) 0.3248(2)
C3 C 0.4255(2) 0.7916(2) 0.4370(2)
H1 H 0.3627 0.8561 0.4758
C4 C 0.4884(2) 0.7018(2) 0.4929(2)
C5 C 0.4625(3) 0.7013(2) 0.6077(2)
H2 H 0.4002 0.7657 0.6471
C6 C 0.5239(3) 0.6123(3) 0.6610(3)
H3 H 0.5048 0.6141 0.7371
C7 C 0.6179(3) 0.5152(3) 0.6033(3)
H4 H 0.6608 0.4524 0.6415
C8 C 0.6470(3) 0.5111(2) 0.4942(2)
H5 H 0.7101 0.4454 0.4575
C9 C 0.5846(2) 0.6034(2) 0.4343(2)
C10 C 0.6099(2) 0.6026(2) 0.3231(2)
H6 H 0.6731 0.5380 0.2847
C11 C 0.5466(2) 0.69262(19) 0.2658(2)
C12 C 0.5712(2) 0.69041(19) 0.1525(2)
C13 C 0.5051(2) 0.78344(19) 0.09659(19)
C14 C 0.5273(2) 0.7838(2) -0.0150(2)
H7 H 0.5899 0.7198 -0.0548
C15 C 0.4618(2) 0.8735(2) -0.0689(2)
C16 C 0.4822(3) 0.8740(2) -0.1823(2)
H8 H 0.5431 0.8099 -0.2227
C17 C 0.4165(3) 0.9639(3) -0.2325(3)
H9 H 0.4312 0.9619 -0.3073
C18 C 0.3260(3) 1.0610(3) -0.1749(3)
H10 H 0.2816 1.1240 -0.2118
C19 C 0.3019(3) 1.0650(2) -0.0671(2)
H11 H 0.2407 1.1309 -0.0296
C20 C 0.3668(2) 0.9724(2) -0.0099(2)
C21 C 0.3448(2) 0.9727(2) 0.0999(2)
H12 H 0.2826 1.0374 0.1387
C22 C 0.4100(2) 0.88208(19) 0.1563(2)
C23 C 0.2902(2) 0.9802(2) 0.3283(2)
C24 C 0.2119(2) 1.0604(2) 0.3809(2)
C25 C 0.0374(4) 1.2981(3) 0.3603(3)
H13 H -0.0169 1.3699 0.3989
C26 C 0.1447(6) 1.3261(4) 0.2532(4)
H14 H 0.1087 1.3864 0.2049
H15 H 0.1994 1.2571 0.2135
H16 H 0.1941 1.3527 0.2730
C27 C -0.0455(5) 1.2597(4) 0.3329(5)
H17 H -0.0765 1.3182 0.2807
H18 H -0.1172 1.2494 0.4018
H19 H 0.0044 1.1870 0.2989
C28 C -0.0258(4) 1.1430(3) 0.5829(3)
H20 H -0.0581 1.1032 0.5544
C29 C -0.1379(4) 1.2455(4) 0.6392(4)
H21 H -0.2041 1.2182 0.7010
H22 H -0.1709 1.2961 0.5846
H23 H -0.1106 1.2880 0.6680
C30 C 0.0182(5) 1.0581(5) 0.6690(4)
H24 H -0.0534 1.0378 0.7305
H25 H 0.0529 1.0928 0.6980
H26 H 0.0834 0.9888 0.6340
C31 C 0.2032(4) 1.2365(4) 0.4912(4)
H27 H 0.2608 1.2628 0.4168
C32 C 0.1265(6) 1.3420(5) 0.5556(6)
H28 H 0.1811 1.3622 0.5747
H29 H 0.0579 1.3258 0.6242
H30 H 0.0913 1.4061 0.5094
C33 C 0.2893(6) 1.1433(6) 0.5414(5)
H31 H 0.3359 1.1770 0.5575
H32 H 0.3490 1.0855 0.4884
H33 H 0.2389 1.1071 0.6107
C34 C 0.6601(2) 0.5900(2) 0.0967(2)
C35 C 0.7316(2) 0.5033(2) 0.0520(2)
C36 C 0.8469(4) 0.2504(3) 0.1049(3)
H34 H 0.9047 0.2642 0.1259
H35 H 0.7664 0.2576 0.1716
C37 C 0.9037(6) 0.1287(3) 0.0718(4)
H36 H 0.9231 0.0749 0.1322
H37 H 0.9813 0.1216 0.0036
H38 H 0.8433 0.1112 0.0585
C38 C 0.9633(3) 0.3610(3) -0.1320(3)
H39 H 1.0032 0.2838 -0.1589
H40 H 0.9415 0.4166 -0.1914
C39 C 1.0591(4) 0.3883(4) -0.1157(5)
H41 H 1.1330 0.3858 -0.1867
H42 H 1.0848 0.3317 -0.0597
H43 H 1.0216 0.4650 -0.0903
C40 C 0.7021(3) 0.3397(3) -0.0451(3)
H44 H 0.7445 0.2668 -0.0804
H45 H 0.6293 0.3305 0.0247
C41 C 0.6544(4) 0.4309(3) -0.1206(3)
H46 H 0.5958 0.4113 -0.1345
H47 H 0.7251 0.4388 -0.1915
H48 H 0.6106 0.5035 -0.0863
C42? C -0.0037(15) 1.2737(14) 0.3847(15)
H49? H -0.0615 1.3435 0.4256
C43? C 0.070(3) 1.316(3) 0.2654(18)
H50? H 0.0118 1.3651 0.2308
H51? H 0.1294 1.2502 0.2221
H52? H 0.1173 1.3599 0.2669
C44? C -0.088(2) 1.212(2) 0.390(3)
H53? H -0.1370 1.2590 0.3466
H54? H -0.1450 1.2003 0.4683
H55? H -0.0351 1.1379 0.3599
C45? C 0.0030(16) 1.1182(16) 0.6002(10)
H56? H -0.0319 1.0740 0.5795
C46? C -0.1103(18) 1.203(2) 0.6758(15)
H57? H -0.1581 1.1619 0.7424
H58? H -0.1639 1.2515 0.6362
H59? H -0.0829 1.2510 0.6980
C47? C 0.084(3) 1.029(2) 0.6578(18)
H60? H 0.0307 0.9971 0.7282
H61? H 0.1293 1.0654 0.6732
H62? H 0.1454 0.9678 0.6093
C48? C 0.187(2) 1.2616(15) 0.477(2)
H63? H 0.2567 1.2691 0.4023
C49? C 0.104(3) 1.3852(16) 0.511(4)
H64? H 0.1532 1.4214 0.5195
H65? H 0.0309 1.3821 0.5813
H66? H 0.0742 1.4300 0.4522
C50? C 0.250(4) 1.195(3) 0.559(3)
H67? H 0.2945 1.2393 0.5640
H68? H 0.3097 1.1207 0.5322
H69? H 0.1850 1.1834 0.6330
C51? C 0.777(2) 0.2462(13) 0.0934(17)
H70? H 0.7922 0.2461 0.1586
H71? H 0.6859 0.2603 0.1197
C52? C 0.850(4) 0.1278(14) 0.051(4)
H72? H 0.8411 0.0690 0.1144
H73? H 0.9389 0.1202 0.0073
H74? H 0.8157 0.1181 0.0035
C53? C 0.9924(11) 0.3442(19) -0.0557(19)
H75? H 1.0442 0.2651 -0.0767
H76? H 1.0176 0.3975 -0.1230
C54? C 1.019(3) 0.366(4) 0.031(3)
H77? H 1.1068 0.3621 0.0003
H78? H 1.0037 0.3071 0.0948
H79? H 0.9631 0.4416 0.0568
C55? C 0.791(2) 0.3793(19) -0.1357(14)
H80? H 0.8601 0.4028 -0.2002
H81? H 0.7986 0.3033 -0.1477
C56? C 0.668(3) 0.464(4) -0.135(3)
H82? H 0.6361 0.4330 -0.1706
H83? H 0.6797 0.5362 -0.1760
H84? H 0.6070 0.4765 -0.0577
loop_
_geom_bond_atom_site_label_1
_geom_bond_atom_site_label_2
_geom_bond_site_symmetry_1
_geom_bond_site_symmetry_2
Si1 C24 1_555 1_555
Si2 C35 1_555 1_555
C1 C2 1_555 1_555
C2 C3 1_555 1_555
C3 H1 1_555 1_555
C4 C3 1_555 1_555
C5 C4 1_555 1_555
H2 C5 1_555 1_555
C6 C5 1_555 1_555
H3 C6 1_555 1_555
C7 C6 1_555 1_555
H4 C7 1_555 1_555
C8 C7 1_555 1_555
H5 C8 1_555 1_555
C9 C4 1_555 1_555
C10 C9 1_555 1_555
H6 C10 1_555 1_555
C11 C2 1_555 1_555
C12 C11 1_555 1_555
C13 C12 1_555 1_555
C14 C13 1_555 1_555
H7 C14 1_555 1_555
C15 C14 1_555 1_555
C16 C15 1_555 1_555
H8 C16 1_555 1_555
C17 C16 1_555 1_555
H9 C17 1_555 1_555
C18 C17 1_555 1_555
H10 C18 1_555 1_555
C19 C18 1_555 1_555
H11 C19 1_555 1_555
C20 C15 1_555 1_555
C21 C20 1_555 1_555
H12 C21 1_555 1_555
C22 C1 1_555 1_555
C23 C1 1_555 1_555
C24 C23 1_555 1_555
C25 Si1 1_555 1_555
H13 C25 1_555 1_555
C26 C25 1_555 1_555
H14 C26 1_555 1_555
H15 C26 1_555 1_555
H16 C26 1_555 1_555
C27 C25 1_555 1_555
H17 C27 1_555 1_555
H18 C27 1_555 1_555
H19 C27 1_555 1_555
C28 Si1 1_555 1_555
H20 C28 1_555 1_555
C29 C28 1_555 1_555
H21 C29 1_555 1_555
H22 C29 1_555 1_555
H23 C29 1_555 1_555
C30 C28 1_555 1_555
H24 C30 1_555 1_555
H25 C30 1_555 1_555
H26 C30 1_555 1_555
C31 Si1 1_555 1_555
H27 C31 1_555 1_555
C32 C31 1_555 1_555
H28 C32 1_555 1_555
H29 C32 1_555 1_555
H30 C32 1_555 1_555
C33 C31 1_555 1_555
H31 C33 1_555 1_555
H32 C33 1_555 1_555
H33 C33 1_555 1_555
C34 C12 1_555 1_555
C35 C34 1_555 1_555
C36 Si2 1_555 1_555
H34 C36 1_555 1_555
H35 C36 1_555 1_555
C37 C36 1_555 1_555
H36 C37 1_555 1_555
H37 C37 1_555 1_555
H38 C37 1_555 1_555
C38 Si2 1_555 1_555
H39 C38 1_555 1_555
H40 C38 1_555 1_555
C39 C38 1_555 1_555
H41 C39 1_555 1_555
H42 C39 1_555 1_555
H43 C39 1_555 1_555
C40 Si2 1_555 1_555
H44 C40 1_555 1_555
H45 C40 1_555 1_555
C41 C40 1_555 1_555
H46 C41 1_555 1_555
H47 C41 1_555 1_555
H48 C41 1_555 1_555
C8 C9 1_555 1_555
C10 C11 1_555 1_555
C13 C22 1_555 1_555
C19 C20 1_555 1_555
C21 C22 1_555 1_555

#END
