
#######################################################################
#
#                 Cambridge Crystallographic Data Centre
#                                CCDC 
#
#######################################################################
#
# If this CIF has been generated from an entry in the Cambridge 
# Structural Database, then it will include bibliographic, chemical, 
# crystal, experimental, refinement or atomic coordinate data resulting 
# from the CCDC's data processing and validation procedures.
#
#######################################################################

data_GODCEI
_chemical_formula_moiety         'C96 H74 I4 N4 O8,2(C6 H12)'
_chemical_name_systematic        
"6,6',7,7'-Tetraiodo-1,2':11,12':12,1'-biperylene-3,4;3',4';9',10';9,10-tetrakis(N-(2,6-di-isopropylphenyl)imide) cyclohexane solvate"
_symmetry_cell_setting           monoclinic
_symmetry_space_group_name_H-M   'C 2/c'
_symmetry_Int_Tables_number      15
_space_group_name_Hall           '-C 2yn'
loop_
_symmetry_equiv_pos_site_id
_symmetry_equiv_pos_as_xyz
1 x,y,z
2 1/2+x,1/2+y,z
3 -x,y,1/2-z
4 1/2-x,1/2+y,1/2-z
5 -x,-y,-z
6 1/2-x,1/2-y,-z
7 x,-y,1/2+z
8 1/2+x,1/2-y,1/2+z
_cell_length_a                   35.341(5)
_cell_length_b                   14.3173(14)
_cell_length_c                   29.323(3)
_cell_angle_alpha                90
_cell_angle_beta                 120.923(3)
_cell_angle_gamma                90
_cell_volume                     12728.1
_exptl_crystal_colour            'blue black'
_exptl_crystal_description       block
_cell_formula_units_Z            4
loop_
_atom_site_label
_atom_site_type_symbol
_atom_site_fract_x
_atom_site_fract_y
_atom_site_fract_z
I1 I 0.42828(2) 0.42147(8) 0.42867(3)
I2 I 0.42371(2) 0.67502(8) 0.43088(2)
O1 O 0.27153(18) 0.3749(5) 0.2397(2)
O2 O 0.28357(16) 0.4720(3) 0.10060(19)
O3 O 0.59908(18) 0.7444(4) 0.51001(18)
O4 O 0.63566(15) 0.6898(3) 0.38537(17)
N1 N 0.27535(19) 0.4373(4) 0.1713(2)
N2 N 0.61887(19) 0.7077(4) 0.4493(2)
C1 C 0.2928(3) 0.4182(6) 0.2251(3)
C2 C 0.3374(2) 0.4556(6) 0.2618(3)
C3 C 0.3565(3) 0.4408(7) 0.3158(3)
H1 H 0.3410 0.4065 0.3288
C4 C 0.3980(3) 0.4757(7) 0.3510(3)
C5 C 0.4208(2) 0.5315(6) 0.3336(3)
C6 C 0.4615(2) 0.5844(6) 0.3675(3)
C7 C 0.4714(3) 0.6343(7) 0.4128(3)
C8 C 0.5131(3) 0.6745(6) 0.4445(3)
H2 H 0.5194 0.7066 0.4760
C9 C 0.5454(2) 0.6686(5) 0.4313(3)
C10 C 0.5892(3) 0.7101(5) 0.4678(3)
C11 C 0.6095(2) 0.6746(5) 0.3997(2)
C12 C 0.5666(2) 0.6252(4) 0.3657(2)
C13 C 0.5350(2) 0.6274(5) 0.3823(2)
C14 C 0.4924(2) 0.5922(5) 0.3495(3)
C15 C 0.4780(2) 0.5759(4) 0.2956(2)
C16 C 0.4321(2) 0.5596(5) 0.2578(3)
C17 C 0.4045(2) 0.5322(5) 0.2781(3)
C18 C 0.3620(2) 0.4973(5) 0.2423(3)
C19 C 0.3456(2) 0.5000(4) 0.1868(3)
C20 C 0.2997(2) 0.4693(5) 0.1483(3)
C21 C 0.3717(2) 0.5317(4) 0.1676(3)
H3 H 0.3603 0.5327 0.1304
C22 C 0.4152(2) 0.5624(4) 0.2026(2)
C23 C 0.5084(2) 0.5780(4) 0.2780(2)
C24 C 0.5544(2) 0.5890(4) 0.3157(2)
C25 C 0.2289(3) 0.4160(6) 0.1347(3)
C26 C 0.1970(2) 0.4817(6) 0.1275(3)
C27 C 0.1534(3) 0.4588(7) 0.0931(3)
H4 H 0.1310 0.5015 0.0882
C28 C 0.1413(3) 0.3751(7) 0.0655(3)
H5 H 0.1111 0.3619 0.0413
C29 C 0.1731(3) 0.3111(7) 0.0731(3)
H6 H 0.1646 0.2536 0.0543
C30 C 0.2177(3) 0.3299(6) 0.1082(3)
C31 C 0.2096(2) 0.5740(6) 0.1568(3)
H7 H 0.2408 0.5876 0.1676
C32 C 0.1812(3) 0.6558(6) 0.1228(4)
H8 H 0.1948 0.7148 0.1408
H9 H 0.1517 0.6509 0.1178
H10 H 0.1791 0.6542 0.0882
C33 C 0.2073(4) 0.5694(7) 0.2061(4)
H11 H 0.2181 0.6282 0.2257
H12 H 0.2256 0.5177 0.2284
H13 H 0.1767 0.5594 0.1966
C34 C 0.2520(4) 0.2585(6) 0.1155(4)
H14 H 0.2814 0.2846 0.1423
C35 C 0.2531(5) 0.2406(8) 0.0643(5)
H15 H 0.2537 0.3004 0.0485
H16 H 0.2267 0.2055 0.0390
H17 H 0.2795 0.2044 0.0730
C36 C 0.2461(5) 0.1660(7) 0.1392(5)
H18 H 0.2490 0.1789 0.1736
H19 H 0.2688 0.1212 0.1439
H20 H 0.2169 0.1398 0.1149
C37 C 0.6626(2) 0.7472(5) 0.4843(2)
C38 C 0.6942(2) 0.6898(5) 0.5247(3)
C39 C 0.7360(3) 0.7260(5) 0.5569(3)
H21 H 0.7586 0.6878 0.5834
C40 C 0.7450(3) 0.8176(5) 0.5510(3)
H22 H 0.7739 0.8416 0.5738
C41 C 0.7130(3) 0.8753(6) 0.5124(3)
H23 H 0.7196 0.9388 0.5100
C42 C 0.6710(3) 0.8399(5) 0.4773(3)
C43 C 0.6839(3) 0.5888(5) 0.5334(3)
H24 H 0.6517 0.5774 0.5084
C44 C 0.7094(3) 0.5174(5) 0.5211(4)
H25 H 0.7030 0.4544 0.5285
H26 H 0.7411 0.5298 0.5434
H27 H 0.7005 0.5220 0.4836
C45 C 0.6931(3) 0.5776(5) 0.5902(3)
H28 H 0.6780 0.6274 0.5977
H29 H 0.7249 0.5814 0.6154
H30 H 0.6821 0.5167 0.5937
C46 C 0.6356(3) 0.9006(5) 0.4337(3)
H31 H 0.6110 0.8594 0.4078
C47 C 0.6174(5) 0.9681(8) 0.4588(5)
H32 H 0.6041 0.9322 0.4754
H33 H 0.5951 1.0087 0.4311
H34 H 0.6415 1.0064 0.4857
C48 C 0.6525(4) 0.9572(7) 0.4036(4)
H35 H 0.6281 0.9924 0.3750
H36 H 0.6649 0.9147 0.3884
H37 H 0.6754 1.0006 0.4281
I1B I 0.57172(2) 0.42147(8) 0.07133(3)
I2B I 0.57629(2) 0.67502(8) 0.06912(2)
O1B O 0.72847(18) 0.3749(5) 0.2603(2)
O2B O 0.71643(16) 0.4720(3) 0.39940(19)
O3B O 0.40092(18) 0.7444(4) -0.01001(18)
O4B O 0.36434(15) 0.6898(3) 0.11463(17)
N1B N 0.72465(19) 0.4373(4) 0.3287(2)
N2B N 0.38113(19) 0.7077(4) 0.0507(2)
C1B C 0.7072(3) 0.4182(6) 0.2749(3)
C2B C 0.6626(2) 0.4556(6) 0.2382(3)
C3B C 0.6435(3) 0.4408(7) 0.1842(3)
H1B H 0.6590 0.4065 0.1712
C4B C 0.6020(3) 0.4757(7) 0.1490(3)
C5B C 0.5792(2) 0.5315(6) 0.1664(3)
C6B C 0.5385(2) 0.5844(6) 0.1325(3)
C7B C 0.5286(3) 0.6343(7) 0.0872(3)
C8B C 0.4869(3) 0.6745(6) 0.0555(3)
H2B H 0.4806 0.7066 0.0240
C9B C 0.4546(2) 0.6686(5) 0.0687(3)
C10B C 0.4108(3) 0.7101(5) 0.0322(3)
C11B C 0.3905(2) 0.6746(5) 0.1003(2)
C12B C 0.4334(2) 0.6252(4) 0.1343(2)
C13B C 0.4650(2) 0.6274(5) 0.1177(2)
C14B C 0.5076(2) 0.5922(5) 0.1505(3)
C15B C 0.5220(2) 0.5759(4) 0.2044(2)
C16B C 0.5679(2) 0.5596(5) 0.2422(3)
C17B C 0.5955(2) 0.5322(5) 0.2219(3)
C18B C 0.6380(2) 0.4973(5) 0.2577(3)
C19B C 0.6544(2) 0.5000(4) 0.3132(3)
C20B C 0.7003(2) 0.4693(5) 0.3517(3)
C21B C 0.6283(2) 0.5317(4) 0.3324(3)
H3B H 0.6397 0.5327 0.3696
C22B C 0.5848(2) 0.5624(4) 0.2974(2)
C23B C 0.4916(2) 0.5780(4) 0.2220(2)
C24B C 0.4456(2) 0.5890(4) 0.1843(2)
C25B C 0.7711(3) 0.4160(6) 0.3653(3)
C26B C 0.8030(2) 0.4817(6) 0.3725(3)
C27B C 0.8466(3) 0.4588(7) 0.4069(3)
H4B H 0.8690 0.5015 0.4118
C28B C 0.8587(3) 0.3751(7) 0.4345(3)
H5B H 0.8889 0.3619 0.4587
C29B C 0.8269(3) 0.3111(7) 0.4269(3)
H6B H 0.8354 0.2536 0.4457
C30B C 0.7823(3) 0.3299(6) 0.3918(3)
C31B C 0.7904(2) 0.5740(6) 0.3432(3)
H7B H 0.7592 0.5876 0.3324
C32B C 0.8188(3) 0.6558(6) 0.3772(4)
H8B H 0.8052 0.7148 0.3592
H9B H 0.8483 0.6509 0.3822
H10B H 0.8209 0.6542 0.4118
C33B C 0.7927(4) 0.5694(7) 0.2939(4)
H11B H 0.7819 0.6282 0.2743
H12B H 0.7744 0.5177 0.2716
H13B H 0.8233 0.5594 0.3034
C34B C 0.7480(4) 0.2585(6) 0.3845(4)
H14B H 0.7186 0.2846 0.3577
C35B C 0.7469(5) 0.2406(8) 0.4357(5)
H15B H 0.7463 0.3004 0.4515
H16B H 0.7733 0.2055 0.4610
H17B H 0.7205 0.2044 0.4270
C36B C 0.7539(5) 0.1660(7) 0.3608(5)
H18B H 0.7510 0.1789 0.3264
H19B H 0.7312 0.1212 0.3561
H20B H 0.7831 0.1398 0.3851
C37B C 0.3374(2) 0.7472(5) 0.0157(2)
C38B C 0.3058(2) 0.6898(5) -0.0247(3)
C39B C 0.2640(3) 0.7260(5) -0.0569(3)
H21B H 0.2414 0.6878 -0.0834
C40B C 0.2550(3) 0.8176(5) -0.0510(3)
H22B H 0.2261 0.8416 -0.0738
C41B C 0.2870(3) 0.8753(6) -0.0124(3)
H23B H 0.2804 0.9388 -0.0100
C42B C 0.3290(3) 0.8399(5) 0.0227(3)
C43B C 0.3161(3) 0.5888(5) -0.0334(3)
H24B H 0.3483 0.5774 -0.0084
C44B C 0.2906(3) 0.5174(5) -0.0211(4)
H25B H 0.2970 0.4544 -0.0285
H26B H 0.2589 0.5298 -0.0434
H27B H 0.2995 0.5220 0.0164
C45B C 0.3069(3) 0.5776(5) -0.0902(3)
H28B H 0.3220 0.6274 -0.0977
H29B H 0.2751 0.5814 -0.1154
H30B H 0.3179 0.5167 -0.0937
C46B C 0.3644(3) 0.9006(5) 0.0663(3)
H31B H 0.3890 0.8594 0.0922
C47B C 0.3826(5) 0.9681(8) 0.0412(5)
H32B H 0.3959 0.9322 0.0246
H33B H 0.4049 1.0087 0.0689
H34B H 0.3585 1.0064 0.0143
C48B C 0.3475(4) 0.9572(7) 0.0964(4)
H35B H 0.3719 0.9924 0.1250
H36B H 0.3351 0.9147 0.1116
H37B H 0.3246 1.0006 0.0719
C49 C 0.5628(4) 0.2176(6) 0.3915(4)
H38 H 0.5458 0.2335 0.3532
H39 H 0.5586 0.1501 0.3950
C50 C 0.6115(4) 0.2372(7) 0.4135(4)
H40 H 0.6215 0.2018 0.3926
H41 H 0.6287 0.2152 0.4508
C51 C 0.6206(4) 0.3409(7) 0.4117(4)
H42 H 0.6065 0.3622 0.3743
H43 H 0.6527 0.3520 0.4292
C52 C 0.6016(3) 0.3946(6) 0.4406(4)
H44 H 0.6181 0.3768 0.4787
H45 H 0.6062 0.4623 0.4384
C53 C 0.5527(3) 0.3770(6) 0.4183(4)
H46 H 0.5354 0.4000 0.3813
H47 H 0.5427 0.4108 0.4398
C54 C 0.5454(4) 0.2725(6) 0.4198(4)
H48 H 0.5602 0.2517 0.4573
H49 H 0.5134 0.2602 0.4034
loop_
_geom_bond_atom_site_label_1
_geom_bond_atom_site_label_2
_geom_bond_site_symmetry_1
_geom_bond_site_symmetry_2
I1 C4 1_555 1_555
I2 C7 1_555 1_555
O1 C1 1_555 1_555
O2 C20 1_555 1_555
O3 C10 1_555 1_555
O4 C11 1_555 1_555
N1 C1 1_555 1_555
N2 C10 1_555 1_555
C1 C2 1_555 1_555
C2 C3 1_555 1_555
C3 H1 1_555 1_555
C4 C3 1_555 1_555
C5 C4 1_555 1_555
C6 C5 1_555 1_555
C7 C6 1_555 1_555
C8 C7 1_555 1_555
H2 C8 1_555 1_555
C9 C8 1_555 1_555
C10 C9 1_555 1_555
C11 N2 1_555 1_555
C12 C11 1_555 1_555
C13 C9 1_555 1_555
C14 C6 1_555 1_555
C15 C14 1_555 1_555
C16 C15 1_555 1_555
C17 C5 1_555 1_555
C18 C2 1_555 1_555
C19 C18 1_555 1_555
C20 N1 1_555 1_555
C21 C19 1_555 1_555
H3 C21 1_555 1_555
C22 C16 1_555 1_555
C23 C15 1_555 1_555
C24 C12 1_555 1_555
C25 N1 1_555 1_555
C26 C25 1_555 1_555
C27 C26 1_555 1_555
H4 C27 1_555 1_555
C28 C27 1_555 1_555
H5 C28 1_555 1_555
C29 C28 1_555 1_555
H6 C29 1_555 1_555
C30 C25 1_555 1_555
C31 C26 1_555 1_555
H7 C31 1_555 1_555
C32 C31 1_555 1_555
H8 C32 1_555 1_555
H9 C32 1_555 1_555
H10 C32 1_555 1_555
C33 C31 1_555 1_555
H11 C33 1_555 1_555
H12 C33 1_555 1_555
H13 C33 1_555 1_555
C34 C30 1_555 1_555
H14 C34 1_555 1_555
C35 C34 1_555 1_555
H15 C35 1_555 1_555
H16 C35 1_555 1_555
H17 C35 1_555 1_555
C36 C34 1_555 1_555
H18 C36 1_555 1_555
H19 C36 1_555 1_555
H20 C36 1_555 1_555
C37 N2 1_555 1_555
C38 C37 1_555 1_555
C39 C38 1_555 1_555
H21 C39 1_555 1_555
C40 C39 1_555 1_555
H22 C40 1_555 1_555
C41 C40 1_555 1_555
H23 C41 1_555 1_555
C42 C37 1_555 1_555
C43 C38 1_555 1_555
H24 C43 1_555 1_555
C44 C43 1_555 1_555
H25 C44 1_555 1_555
H26 C44 1_555 1_555
H27 C44 1_555 1_555
C45 C43 1_555 1_555
H28 C45 1_555 1_555
H29 C45 1_555 1_555
H30 C45 1_555 1_555
C46 C42 1_555 1_555
H31 C46 1_555 1_555
C47 C46 1_555 1_555
H32 C47 1_555 1_555
H33 C47 1_555 1_555
H34 C47 1_555 1_555
C48 C46 1_555 1_555
H35 C48 1_555 1_555
H36 C48 1_555 1_555
H37 C48 1_555 1_555
C49 H38 1_555 1_555
H39 C49 1_555 1_555
C50 C49 1_555 1_555
H40 C50 1_555 1_555
H41 C50 1_555 1_555
C51 C50 1_555 1_555
H42 C51 1_555 1_555
H43 C51 1_555 1_555
C52 C51 1_555 1_555
H44 C52 1_555 1_555
H45 C52 1_555 1_555
C53 C52 1_555 1_555
H46 C53 1_555 1_555
H47 C53 1_555 1_555
C54 C49 1_555 1_555
H48 C54 1_555 1_555
H49 C54 1_555 1_555
I1B C4B 1_555 1_555
I2B C7B 1_555 1_555
O1B C1B 1_555 1_555
O2B C20B 1_555 1_555
O3B C10B 1_555 1_555
O4B C11B 1_555 1_555
N1B C1B 1_555 1_555
N2B C10B 1_555 1_555
C1B C2B 1_555 1_555
C2B C3B 1_555 1_555
C3B H1B 1_555 1_555
C4B C3B 1_555 1_555
C5B C4B 1_555 1_555
C6B C5B 1_555 1_555
C7B C6B 1_555 1_555
C8B C7B 1_555 1_555
H2B C8B 1_555 1_555
C9B C8B 1_555 1_555
C10B C9B 1_555 1_555
C11B N2B 1_555 1_555
C12B C11B 1_555 1_555
C13B C9B 1_555 1_555
C14B C6B 1_555 1_555
C15B C14B 1_555 1_555
C16B C15B 1_555 1_555
C17B C5B 1_555 1_555
C18B C2B 1_555 1_555
C19B C18B 1_555 1_555
C20B N1B 1_555 1_555
C21B C19B 1_555 1_555
H3B C21B 1_555 1_555
C22B C24 1_555 1_555
C23B C23 1_555 1_555
C24B C22 1_555 1_555
C25B N1B 1_555 1_555
C26B C25B 1_555 1_555
C27B C26B 1_555 1_555
H4B C27B 1_555 1_555
C28B C27B 1_555 1_555
H5B C28B 1_555 1_555
C29B C28B 1_555 1_555
H6B C29B 1_555 1_555
C30B C25B 1_555 1_555
C31B C26B 1_555 1_555
H7B C31B 1_555 1_555
C32B C31B 1_555 1_555
H8B C32B 1_555 1_555
H9B C32B 1_555 1_555
H10B C32B 1_555 1_555
C33B C31B 1_555 1_555
H11B C33B 1_555 1_555
H12B C33B 1_555 1_555
H13B C33B 1_555 1_555
C34B C30B 1_555 1_555
H14B C34B 1_555 1_555
C35B C34B 1_555 1_555
H15B C35B 1_555 1_555
H16B C35B 1_555 1_555
H17B C35B 1_555 1_555
C36B C34B 1_555 1_555
H18B C36B 1_555 1_555
H19B C36B 1_555 1_555
H20B C36B 1_555 1_555
C37B N2B 1_555 1_555
C38B C37B 1_555 1_555
C39B C38B 1_555 1_555
H21B C39B 1_555 1_555
C40B C39B 1_555 1_555
H22B C40B 1_555 1_555
C41B C40B 1_555 1_555
H23B C41B 1_555 1_555
C42B C37B 1_555 1_555
C43B C38B 1_555 1_555
H24B C43B 1_555 1_555
C44B C43B 1_555 1_555
H25B C44B 1_555 1_555
H26B C44B 1_555 1_555
H27B C44B 1_555 1_555
C45B C43B 1_555 1_555
H28B C45B 1_555 1_555
H29B C45B 1_555 1_555
H30B C45B 1_555 1_555
C46B C42B 1_555 1_555
H31B C46B 1_555 1_555
C47B C46B 1_555 1_555
H32B C47B 1_555 1_555
H33B C47B 1_555 1_555
H34B C47B 1_555 1_555
C48B C46B 1_555 1_555
H35B C48B 1_555 1_555
H36B C48B 1_555 1_555
H37B C48B 1_555 1_555
C12 C13 1_555 1_555
C13 C14 1_555 1_555
C16 C17 1_555 1_555
C17 C18 1_555 1_555
C19 C20 1_555 1_555
C21 C22 1_555 1_555
C23 C24 1_555 1_555
C29 C30 1_555 1_555
C41 C42 1_555 1_555
C53 C54 1_555 1_555
C12B C13B 1_555 1_555
C12B C24B 1_555 1_555
C13B C14B 1_555 1_555
C15B C23B 1_555 1_555
C16B C17B 1_555 1_555
C16B C22B 1_555 1_555
C17B C18B 1_555 1_555
C19B C20B 1_555 1_555
C21B C22B 1_555 1_555
C23B C24B 1_555 1_555
C29B C30B 1_555 1_555
C41B C42B 1_555 1_555

#END
