
#######################################################################
#
#                 Cambridge Crystallographic Data Centre
#                                CCDC 
#
#######################################################################
#
# If this CIF has been generated from an entry in the Cambridge 
# Structural Database, then it will include bibliographic, chemical, 
# crystal, experimental, refinement or atomic coordinate data resulting 
# from the CCDC's data processing and validation procedures.
#
#######################################################################

data_GODTOK
_chemical_formula_moiety         'C15 H15 Cl4 N1 O4'
_chemical_name_systematic        
'2,2,2-trichloroethyl 2-(6-chloro-2-oxo-6,7-dihydro-1-benzofuran-7a(2H)-yl)pyrrolidine-1-carboxylate'
_symmetry_cell_setting           orthorhombic
_symmetry_space_group_name_H-M   'P 21 21 21'
_symmetry_Int_Tables_number      19
_space_group_name_Hall           'P 2ac 2ab'
loop_
_symmetry_equiv_pos_site_id
_symmetry_equiv_pos_as_xyz
1 x,y,z
2 1/2+x,1/2-y,-z
3 -x,1/2+y,1/2-z
4 1/2-x,-y,1/2+z
_cell_length_a                   10.26770(14)
_cell_length_b                   22.1493(3)
_cell_length_c                   23.3892(4)
_cell_angle_alpha                90
_cell_angle_beta                 90
_cell_angle_gamma                90
_cell_volume                     5319.23
_cell_formula_units_Z            12
loop_
_atom_site_label
_atom_site_type_symbol
_atom_site_fract_x
_atom_site_fract_y
_atom_site_fract_z
Cl1 Cl 0.97620(8) 0.32661(3) 0.36500(4)
Cl2 Cl 0.56343(8) -0.01439(3) 0.28433(3)
Cl3 Cl 1.12319(8) 0.21591(4) 0.37399(4)
Cl4 Cl 1.11245(8) 0.27943(4) 0.26626(4)
O1 O 0.50150(19) 0.09814(9) 0.47223(9)
O2 O 0.6831(2) 0.16693(9) 0.30385(9)
O3 O 0.8315(2) 0.21274(9) 0.36067(9)
O4 O 0.3872(2) 0.08104(10) 0.55258(9)
N1 N 0.6405(2) 0.18578(11) 0.39844(11)
C1 C 0.5531(3) 0.05795(13) 0.37761(12)
C2 C 0.4378(3) 0.21801(14) 0.43365(13)
C3 C 0.2818(3) 0.08129(14) 0.45943(13)
C4 C 0.2797(3) 0.07478(14) 0.35098(13)
C5 C 0.9049(3) 0.22471(15) 0.30995(13)
C6 C 0.7141(3) 0.18672(13) 0.35057(14)
C7 C 0.5009(3) 0.17080(13) 0.39442(13)
C8 C 0.4739(3) 0.10438(13) 0.41189(12)
C9 C 0.5046(3) 0.05574(13) 0.31591(13)
C10 C 0.6710(3) 0.22394(15) 0.44846(13)
C11 C 0.3872(3) 0.08664(13) 0.50144(13)
C12 C 0.5415(3) 0.23256(14) 0.47911(13)
C13 C 0.3324(3) 0.08769(13) 0.40714(13)
C14 C 0.3604(3) 0.05790(13) 0.30860(13)
C15 C 1.0237(3) 0.26021(14) 0.32836(14)
H1 H 0.6445(3) 0.06897(13) 0.37818(12)
H2 H 0.5443(3) 0.01840(13) 0.39499(12)
H3 H 0.4149(3) 0.25397(14) 0.41223(13)
H4 H 0.3598(3) 0.20190(14) 0.45138(13)
H5 H 0.1945(3) 0.07458(14) 0.46778(13)
H6 H 0.1907(3) 0.07813(14) 0.34429(13)
H7 H 0.9308(3) 0.18721(15) 0.29180(13)
H8 H 0.8534(3) 0.24793(15) 0.28303(13)
H9 H 0.4711(3) 0.17727(13) 0.35508(13)
H10 H 0.5430(3) 0.08966(13) 0.29493(13)
H11 H 0.7336(3) 0.20409(15) 0.47321(13)
H12 H 0.7066(3) 0.26248(15) 0.43645(13)
H13 H 0.5324(3) 0.27375(14) 0.49262(13)
H14 H 0.5343(3) 0.20533(14) 0.51143(13)
H15 H 0.3250(3) 0.04719(13) 0.27344(13)
Cl5 Cl 0.58878(8) 0.30812(3) 0.30697(4)
Cl6 Cl 1.18478(7) 0.54318(4) 0.29436(4)
Cl7 Cl 0.93068(8) 0.58598(4) 0.26195(4)
Cl8 Cl 1.05161(10) 0.63364(4) 0.36274(4)
O5 O 0.8579(2) 0.53656(9) 0.38397(9)
O6 O 0.7385(2) 0.47874(10) 0.32255(10)
O7 O 0.4946(2) 0.44962(9) 0.47636(8)
N2 N 0.6464(2) 0.52340(10) 0.40050(11)
O8 O 0.3663(3) 0.44482(12) 0.55444(10)
C16 C 0.9748(3) 0.51716(14) 0.35642(14)
C17 C 0.4333(3) 0.55970(14) 0.40948(13)
C18 C 0.7448(3) 0.51023(13) 0.36507(14)
C19 C 0.3369(3) 0.42625(13) 0.40853(14)
C20 C 0.5606(3) 0.39153(13) 0.39207(13)
C21 C 0.2779(3) 0.42789(15) 0.45937(14)
C22 C 0.4785(3) 0.44376(13) 0.41528(13)
C23 C 0.5111(3) 0.58433(14) 0.46000(14)
C24 C 0.6539(3) 0.57001(14) 0.44544(13)
C25 C 0.5119(3) 0.50556(13) 0.38731(13)
C26 C 0.2957(3) 0.40399(14) 0.35330(14)
C27 C 1.0319(3) 0.56843(13) 0.32104(13)
C28 C 0.3753(3) 0.44171(14) 0.50336(14)
C29 C 0.3833(3) 0.38242(13) 0.31624(14)
C30 C 0.5264(3) 0.38139(13) 0.32911(13)
H16 H 1.0375(3) 0.50436(14) 0.38494(14)
H17 H 0.9560(3) 0.48299(14) 0.33182(14)
H18 H 0.3472(3) 0.54707(14) 0.42164(13)
H19 H 0.4243(3) 0.59015(14) 0.37994(13)
H20 H 0.6525(3) 0.40104(13) 0.39574(13)
H21 H 0.5432(3) 0.35513(13) 0.41382(13)
H22 H 0.1897(3) 0.42136(15) 0.46582(14)
H23 H 0.4981(3) 0.62750(14) 0.46400(14)
H24 H 0.4853(3) 0.56465(14) 0.49528(14)
H25 H 0.6997(3) 0.55485(14) 0.47876(13)
H26 H 0.6984(3) 0.60571(14) 0.43150(13)
H27 H 0.5013(3) 0.50248(13) 0.34577(13)
H28 H 0.2080(3) 0.40468(14) 0.34352(14)
H29 H 0.3544(3) 0.36754(13) 0.28127(14)
H30 H 0.5691(3) 0.41273(13) 0.30625(13)
Cl9 Cl 0.61004(8) 0.54519(4) 0.60080(4)
Cl10 Cl 0.14057(10) 0.83591(4) 0.70115(4)
Cl11 Cl 0.54386(10) 0.66734(4) 0.63017(4)
Cl12 Cl 0.65958(9) 0.58745(5) 0.71535(4)
O9 O 0.3280(2) 0.57858(9) 0.63134(10)
O10 O 0.0483(2) 0.71353(9) 0.52079(9)
O11 O 0.2154(2) 0.64611(9) 0.68655(9)
O12 O -0.0565(3) 0.73025(11) 0.43813(10)
N3 N 0.1479(2) 0.62167(11) 0.59680(11)
C31 C 0.0166(3) 0.71543(13) 0.58116(12)
C32 C 0.2285(3) 0.61805(14) 0.64204(14)
C33 C -0.0687(3) 0.60572(14) 0.57020(14)
C34 C -0.1659(3) 0.76443(14) 0.63723(16)
C35 C 0.1111(3) 0.75743(14) 0.61276(13)
C36 C 0.0185(3) 0.64929(13) 0.60321(13)
C37 C 0.0615(3) 0.76845(14) 0.67375(14)
C38 C -0.0591(4) 0.73109(14) 0.48935(15)
C39 C -0.0828(3) 0.77701(14) 0.67910(15)
C40 C 0.4203(3) 0.57161(15) 0.67682(14)
C41 C 0.0182(3) 0.57989(14) 0.52240(14)
C42 C -0.1165(3) 0.74340(13) 0.58223(14)
C43 C 0.5526(3) 0.59272(15) 0.65640(14)
C44 C -0.1611(4) 0.74947(15) 0.52944(16)
C45 C 0.1575(3) 0.58345(15) 0.54493(13)
H31 H -0.1000(3) 0.57372(14) 0.59498(14)
H32 H -0.1431(3) 0.62676(14) 0.55416(14)
H33 H -0.2550(3) 0.76899(14) 0.64294(16)
H34 H 0.1970(3) 0.73921(14) 0.61409(13)
H35 H 0.1179(3) 0.79554(14) 0.59255(13)
H36 H -0.0063(3) 0.64877(13) 0.64367(13)
H37 H 0.0872(3) 0.73410(14) 0.69763(14)
H38 H -0.1157(3) 0.79184(14) 0.71338(15)
H39 H 0.3933(3) 0.59524(15) 0.70965(14)
H40 H 0.4249(3) 0.52956(15) 0.68824(14)
H41 H -0.0054(3) 0.53838(14) 0.51416(14)
H42 H 0.0091(3) 0.60350(14) 0.48770(14)
H43 H -0.2436(4) 0.76317(15) 0.51947(16)
H44 H 0.2148(3) 0.60172(15) 0.51686(13)
H45 H 0.1902(3) 0.54359(15) 0.55439(13)
loop_
_geom_bond_atom_site_label_1
_geom_bond_atom_site_label_2
_geom_bond_site_symmetry_1
_geom_bond_site_symmetry_2
Cl1 C15 1_555 1_555
Cl2 C9 1_555 1_555
Cl3 C15 1_555 1_555
Cl4 C15 1_555 1_555
O1 C8 1_555 1_555
O2 C6 1_555 1_555
O3 C5 1_555 1_555
O4 C11 1_555 1_555
N1 C6 1_555 1_555
C1 C8 1_555 1_555
C2 C7 1_555 1_555
C3 C11 1_555 1_555
C4 C13 1_555 1_555
C5 C15 1_555 1_555
C6 O3 1_555 1_555
C7 N1 1_555 1_555
C8 C7 1_555 1_555
C9 C1 1_555 1_555
C10 N1 1_555 1_555
C11 O1 1_555 1_555
C12 C2 1_555 1_555
C13 C3 1_555 1_555
C14 C4 1_555 1_555
H1 C1 1_555 1_555
H2 C1 1_555 1_555
H3 C2 1_555 1_555
H4 C2 1_555 1_555
H5 C3 1_555 1_555
H6 C4 1_555 1_555
H7 C5 1_555 1_555
H8 C5 1_555 1_555
H9 C7 1_555 1_555
H10 C9 1_555 1_555
H11 C10 1_555 1_555
H12 C10 1_555 1_555
H13 C12 1_555 1_555
H14 C12 1_555 1_555
H15 C14 1_555 1_555
Cl5 C30 1_555 1_555
Cl6 C27 1_555 1_555
Cl7 C27 1_555 1_555
Cl8 C27 1_555 1_555
O5 C16 1_555 1_555
O6 C18 1_555 1_555
O7 C22 1_555 1_555
N2 C18 1_555 1_555
O8 C28 1_555 1_555
C16 C27 1_555 1_555
C17 C23 1_555 1_555
C18 O5 1_555 1_555
C19 C21 1_555 1_555
C20 C22 1_555 1_555
C21 C28 1_555 1_555
C22 C19 1_555 1_555
C23 C24 1_555 1_555
C24 N2 1_555 1_555
C25 N2 1_555 1_555
C26 C19 1_555 1_555
C28 O7 1_555 1_555
C29 C26 1_555 1_555
C30 C20 1_555 1_555
H16 C16 1_555 1_555
H17 C16 1_555 1_555
H18 C17 1_555 1_555
H19 C17 1_555 1_555
H20 C20 1_555 1_555
H21 C20 1_555 1_555
H22 C21 1_555 1_555
H23 C23 1_555 1_555
H24 C23 1_555 1_555
H25 C24 1_555 1_555
H26 C24 1_555 1_555
H27 C25 1_555 1_555
H28 C26 1_555 1_555
H29 C29 1_555 1_555
H30 C30 1_555 1_555
Cl9 C43 1_555 1_555
Cl10 C37 1_555 1_555
Cl11 C43 1_555 1_555
Cl12 C43 1_555 1_555
O9 C32 1_555 1_555
O10 C31 1_555 1_555
O11 C32 1_555 1_555
O12 C38 1_555 1_555
N3 C32 1_555 1_555
C31 C35 1_555 1_555
C33 C36 1_555 1_555
C34 C39 1_555 1_555
C35 C37 1_555 1_555
C36 N3 1_555 1_555
C37 C39 1_555 1_555
C38 O10 1_555 1_555
C39 H38 1_555 1_555
C40 O9 1_555 1_555
C41 C33 1_555 1_555
C42 C31 1_555 1_555
C43 C40 1_555 1_555
C44 C38 1_555 1_555
C45 N3 1_555 1_555
H31 C33 1_555 1_555
H32 C33 1_555 1_555
H33 C34 1_555 1_555
H34 C35 1_555 1_555
H35 C35 1_555 1_555
H36 C36 1_555 1_555
H37 C37 1_555 1_555
H39 C40 1_555 1_555
H40 C40 1_555 1_555
H41 C41 1_555 1_555
H42 C41 1_555 1_555
H43 C44 1_555 1_555
H44 C45 1_555 1_555
H45 C45 1_555 1_555
C8 C13 1_555 1_555
C9 C14 1_555 1_555
C10 C12 1_555 1_555
C17 C25 1_555 1_555
C22 C25 1_555 1_555
C29 C30 1_555 1_555
C31 C36 1_555 1_555
C34 C42 1_555 1_555
C41 C45 1_555 1_555
C42 C44 1_555 1_555

#END
