
#######################################################################
#
#                 Cambridge Crystallographic Data Centre
#                                CCDC 
#
#######################################################################
#
# If this CIF has been generated from an entry in the Cambridge 
# Structural Database, then it will include bibliographic, chemical, 
# crystal, experimental, refinement or atomic coordinate data resulting 
# from the CCDC's data processing and validation procedures.
#
#######################################################################

data_GODWAZ
_chemical_compound_source        'Isolated from Rhododendron principis'
_chemical_name_common            'principinol C'
_chemical_formula_moiety         'C20 H32 O5'
_chemical_name_systematic        3,10,14,16-tetrahydroxygrayanotoxan-6-one
_symmetry_cell_setting           monoclinic
_symmetry_space_group_name_H-M   'P 21'
_symmetry_Int_Tables_number      4
_space_group_name_Hall           'P 2yb'
loop_
_symmetry_equiv_pos_site_id
_symmetry_equiv_pos_as_xyz
1 x,y,z
2 -x,1/2+y,-z
_cell_length_a                   6.20240(10)
_cell_length_b                   12.6296(2)
_cell_length_c                   11.9088(2)
_cell_angle_alpha                90
_cell_angle_beta                 100.6540(10)
_cell_angle_gamma                90
_cell_volume                     916.781
_exptl_crystal_colour            colorless
_exptl_crystal_description       block
_cell_formula_units_Z            2
loop_
_atom_site_label
_atom_site_type_symbol
_atom_site_fract_x
_atom_site_fract_y
_atom_site_fract_z
O1 O 0.78169(14) 0.06272(7) 1.18574(7)
H1 H 0.6945 0.0130 1.1630
O2 O 0.41772(15) 0.36994(7) 0.87072(7)
O3 O 0.87801(15) 0.50517(7) 0.64636(7)
H2 H 0.9760 0.5316 0.6967
O4 O 0.52824(15) 0.48025(7) 0.47737(7)
H3 H 0.6106 0.5184 0.5248
O5 O 0.56375(12) 0.09693(6) 0.72657(6)
H4 H 0.5485 0.0592 0.6675
C1 C 0.81589(16) 0.15029(8) 0.89328(9)
H5 H 0.9504 0.1951 0.9137
C2 C 0.82997(18) 0.06089(9) 0.98237(9)
H6 H 0.7056 0.0109 0.9634
H7 H 0.9697 0.0214 0.9896
C3 C 0.81803(16) 0.12362(9) 1.09035(9)
H8 H 0.9632 0.1594 1.1138
C4 C 0.64494(17) 0.21274(9) 1.05392(9)
C5 C 0.62053(17) 0.21389(8) 0.92036(9)
H9 H 0.4856 0.1722 0.8894
C6 C 0.58772(19) 0.32195(9) 0.86802(9)
C7 C 0.76565(18) 0.36906(9) 0.81278(8)
H10 H 0.9091 0.3574 0.8636
H11 H 0.7421 0.4464 0.8051
C8 C 0.77465(16) 0.32199(9) 0.69325(8)
C9 C 0.87800(16) 0.20846(9) 0.69408(9)
H12 H 1.0374 0.2171 0.7270
C10 C 0.79209(16) 0.11869(8) 0.76589(9)
C11 C 0.86678(19) 0.17136(9) 0.57004(9)
H13 H 0.9612 0.1081 0.5704
H14 H 0.7142 0.1498 0.5384
C12 C 0.93796(18) 0.25469(10) 0.49116(9)
H15 H 1.1002 0.2577 0.5049
H16 H 0.8868 0.2329 0.4108
C13 C 0.84906(18) 0.36488(10) 0.50836(9)
H17 H 0.9036 0.4174 0.4573
C14 C 0.92263(17) 0.39532(9) 0.63355(9)
H18 H 1.0817 0.3793 0.6605
C15 C 0.54904(16) 0.32978(9) 0.61044(8)
H19 H 0.4772 0.2595 0.6010
H20 H 0.4511 0.3797 0.6410
C16 C 0.59601(17) 0.37023(9) 0.49380(8)
C17 C 0.47172(18) 0.31359(11) 0.38958(9)
H21 H 0.3137 0.3230 0.3858
H22 H 0.5074 0.2380 0.3948
H23 H 0.5136 0.3432 0.3206
C18 C 0.73417(19) 0.31691(10) 1.10956(9)
H24 H 0.6209 0.3717 1.0933
H25 H 0.8632 0.3386 1.0786
H26 H 0.7756 0.3071 1.1924
C19 C 0.42405(19) 0.18772(11) 1.08735(10)
H27 H 0.4411 0.1865 1.1708
H28 H 0.3724 0.1184 1.0565
H29 H 0.3170 0.2422 1.0562
C20 C 0.9261(2) 0.01751(10) 0.75722(10)
H30 H 0.8808 -0.0377 0.8059
H31 H 1.0825 0.0327 0.7825
H32 H 0.9004 -0.0070 0.6778
loop_
_geom_bond_atom_site_label_1
_geom_bond_atom_site_label_2
_geom_bond_site_symmetry_1
_geom_bond_site_symmetry_2
O1 H1 1_555 1_555
O2 C6 1_555 1_555
O3 H2 1_555 1_555
O4 H3 1_555 1_555
O5 H4 1_555 1_555
C1 H5 1_555 1_555
C2 C1 1_555 1_555
H6 C2 1_555 1_555
H7 C2 1_555 1_555
C3 O1 1_555 1_555
H8 C3 1_555 1_555
C4 C3 1_555 1_555
C5 C1 1_555 1_555
H9 C5 1_555 1_555
C6 C5 1_555 1_555
C7 C6 1_555 1_555
H10 C7 1_555 1_555
H11 C7 1_555 1_555
C8 C7 1_555 1_555
C9 C8 1_555 1_555
H12 C9 1_555 1_555
C10 O5 1_555 1_555
C11 C9 1_555 1_555
H13 C11 1_555 1_555
H14 C11 1_555 1_555
C12 C11 1_555 1_555
H15 C12 1_555 1_555
H16 C12 1_555 1_555
C13 C12 1_555 1_555
H17 C13 1_555 1_555
C14 O3 1_555 1_555
H18 C14 1_555 1_555
C15 C8 1_555 1_555
H19 C15 1_555 1_555
H20 C15 1_555 1_555
C16 O4 1_555 1_555
C17 C16 1_555 1_555
H21 C17 1_555 1_555
H22 C17 1_555 1_555
H23 C17 1_555 1_555
C18 C4 1_555 1_555
H24 C18 1_555 1_555
H25 C18 1_555 1_555
H26 C18 1_555 1_555
C19 C4 1_555 1_555
H27 C19 1_555 1_555
H28 C19 1_555 1_555
H29 C19 1_555 1_555
C20 C10 1_555 1_555
H30 C20 1_555 1_555
H31 C20 1_555 1_555
H32 C20 1_555 1_555
C1 C10 1_555 1_555
C2 C3 1_555 1_555
C4 C5 1_555 1_555
C8 C14 1_555 1_555
C9 C10 1_555 1_555
C13 C14 1_555 1_555
C13 C16 1_555 1_555
C15 C16 1_555 1_555

#END
