
#######################################################################
#
#                 Cambridge Crystallographic Data Centre
#                                CCDC 
#
#######################################################################
#
# If this CIF has been generated from an entry in the Cambridge 
# Structural Database, then it will include bibliographic, chemical, 
# crystal, experimental, refinement or atomic coordinate data resulting 
# from the CCDC's data processing and validation procedures.
#
#######################################################################

data_GOFSOK
_chemical_formula_moiety         'C12 H14 N2 O2'
_chemical_name_systematic        
'Ethyl 2-(2-methyl-1H-benzimidazol-1-yl)acetate'
_symmetry_cell_setting           monoclinic
_symmetry_space_group_name_H-M   'P n'
_symmetry_Int_Tables_number      7
_space_group_name_Hall           'P -2yac'
loop_
_symmetry_equiv_pos_site_id
_symmetry_equiv_pos_as_xyz
1 x,y,z
2 1/2+x,-y,1/2+z
_cell_length_a                   10.854(2)
_cell_length_b                   4.7959(10)
_cell_length_c                   11.842(2)
_cell_angle_alpha                90
_cell_angle_beta                 111.42(3)
_cell_angle_gamma                90
_cell_volume                     573.854
_exptl_crystal_colour            colorless
_exptl_crystal_description       Prism
_cell_formula_units_Z            2
_exptl_crystal_recrystallization_method ethanol
loop_
_atom_site_label
_atom_site_type_symbol
_atom_site_fract_x
_atom_site_fract_y
_atom_site_fract_z
O1 O 0.14135(17) 0.1457(4) 0.20123(14)
C1 C 0.1006(3) -0.1654(5) -0.2701(2)
C2 C 0.3029(2) -0.2567(6) -0.0948(2)
H1 H 0.3572 -0.2219 -0.0148
N1 N 0.12080(19) 0.0836(4) -0.10788(17)
C3 C 0.1019(2) 0.0363(5) 0.0906(2)
C4 C 0.1639(2) 0.1907(6) 0.0146(2)
H2 H 0.1409 0.3867 0.0121
H3 H 0.2594 0.1753 0.0518
N2 N -0.0107(2) 0.0004(5) -0.30007(18)
O2 O 0.0293(2) -0.1587(4) 0.05777(18)
C5 C 0.1383(3) -0.3615(6) -0.3381(2)
H4 H 0.0850 -0.3960 -0.4184
C6 C 0.1845(2) -0.1163(5) -0.1499(2)
C7 C 0.0038(2) 0.1447(5) -0.2017(2)
C8 C 0.3361(3) -0.4510(7) -0.1649(2)
H5 H 0.4147 -0.5501 -0.1311
C9 C 0.2550(3) -0.5027(7) -0.2850(3)
H6 H 0.2805 -0.6350 -0.3296
C10 C 0.1640(3) 0.1400(8) 0.4080(3)
H7 H 0.1322 0.0602 0.4666
H8 H 0.1510 0.3383 0.4051
H9 H 0.2565 0.0999 0.4306
C11 C -0.0919(3) 0.3503(6) -0.1883(3)
H10 H -0.1666 0.3635 -0.2632
H11 H -0.0500 0.5293 -0.1683
H12 H -0.1212 0.2914 -0.1248
C12 C 0.0894(3) 0.0179(7) 0.2857(3)
H13 H 0.1016 -0.1826 0.2873
H14 H -0.0044 0.0568 0.2617
loop_
_geom_bond_atom_site_label_1
_geom_bond_atom_site_label_2
_geom_bond_site_symmetry_1
_geom_bond_site_symmetry_2
O1 C3 1_555 1_555
C1 N2 1_555 1_555
C2 H1 1_555 1_555
N1 C4 1_555 1_555
C3 C4 1_555 1_555
C4 H2 1_555 1_555
H3 C4 1_555 1_555
N2 C7 1_555 1_555
O2 C3 1_555 1_555
C5 C1 1_555 1_555
H4 C5 1_555 1_555
C6 C1 1_555 1_555
C7 N1 1_555 1_555
C8 C2 1_555 1_555
H5 C8 1_555 1_555
C9 C5 1_555 1_555
H6 C9 1_555 1_555
C10 H7 1_555 1_555
H8 C10 1_555 1_555
H9 C10 1_555 1_555
C11 C7 1_555 1_555
H10 C11 1_555 1_555
H11 C11 1_555 1_555
H12 C11 1_555 1_555
C12 O1 1_555 1_555
H13 C12 1_555 1_555
H14 C12 1_555 1_555
C2 C6 1_555 1_555
N1 C6 1_555 1_555
C8 C9 1_555 1_555
C10 C12 1_555 1_555

#END
