
#######################################################################
#
#                 Cambridge Crystallographic Data Centre
#                                CCDC 
#
#######################################################################
#
# If this CIF has been generated from an entry in the Cambridge 
# Structural Database, then it will include bibliographic, chemical, 
# crystal, experimental, refinement or atomic coordinate data resulting 
# from the CCDC's data processing and validation procedures.
#
#######################################################################

data_GOGMAS
_chemical_formula_moiety         'C16 H15 F1 O3 S1'
_chemical_name_systematic        
'2-Fluoro-1-phenylprop-1-en-1-yl 4-methylbenzenesulfonate'
_symmetry_cell_setting           monoclinic
_symmetry_space_group_name_H-M   'P 21/c'
_symmetry_Int_Tables_number      14
_space_group_name_Hall           '-P 2ybc'
loop_
_symmetry_equiv_pos_site_id
_symmetry_equiv_pos_as_xyz
1 x,y,z
2 -x,1/2+y,1/2-z
3 -x,-y,-z
4 x,1/2-y,1/2+z
_cell_length_a                   9.4436(15)
_cell_length_b                   9.3132(16)
_cell_length_c                   17.109(3)
_cell_angle_alpha                90
_cell_angle_beta                 93.774(4)
_cell_angle_gamma                90
_cell_volume                     1501.48
_exptl_crystal_colour            colorless
_exptl_crystal_description       prismatic
_cell_formula_units_Z            4
loop_
_atom_site_label
_atom_site_type_symbol
_atom_site_fract_x
_atom_site_fract_y
_atom_site_fract_z
S1 S 0.68997(6) 0.24945(7) 1.02728(3)
F1 F 1.04837(13) 0.36041(16) 1.08951(7)
O1 O 0.81436(14) 0.35083(15) 1.00213(8)
O2 O 0.74784(16) 0.11548(19) 1.05186(8)
O3 O 0.61749(17) 0.3350(2) 1.07987(8)
C1 C 0.9374(2) 0.2868(2) 0.97364(11)
C2 C 1.0548(2) 0.2991(2) 1.01827(12)
C3 C 1.2012(2) 0.2619(3) 1.00173(16)
H1 H 1.2043 0.2363 0.9475
H2 H 1.2329 0.1822 1.0339
H3 H 1.2619 0.3430 1.0130
C4 C 0.9197(2) 0.2192(2) 0.89597(11)
C5 C 0.9657(2) 0.0810(3) 0.88404(13)
H4 H 1.0117 0.0305 0.9252
C6 C 0.9441(3) 0.0174(3) 0.81170(16)
H5 H 0.9756 -0.0759 0.8042
C7 C 0.8768(3) 0.0903(4) 0.75089(15)
H6 H 0.8624 0.0469 0.7021
C8 C 0.8308(3) 0.2268(3) 0.76201(13)
H7 H 0.7842 0.2762 0.7206
C9 C 0.8524(2) 0.2925(3) 0.83394(12)
H8 H 0.8218 0.3863 0.8407
C10 C 0.5831(2) 0.2281(2) 0.94090(11)
C11 C 0.5615(2) 0.0946(3) 0.90840(13)
H9 H 0.6036 0.0140 0.9321
C12 C 0.4768(3) 0.0814(3) 0.84033(14)
H10 H 0.4619 -0.0091 0.8183
C13 C 0.4137(2) 0.1986(3) 0.80404(14)
C14 C 0.4364(2) 0.3318(3) 0.83820(13)
H11 H 0.3942 0.4124 0.8144
C15 C 0.5199(2) 0.3478(2) 0.90651(12)
H12 H 0.5335 0.4379 0.9292
C16 C 0.3218(3) 0.1844(4) 0.72885(17)
H13 H 0.3746 0.1378 0.6900
H14 H 0.2931 0.2781 0.7105
H15 H 0.2393 0.1284 0.7382
loop_
_geom_bond_atom_site_label_1
_geom_bond_atom_site_label_2
_geom_bond_site_symmetry_1
_geom_bond_site_symmetry_2
S1 O1 1_555 1_555
F1 C2 1_555 1_555
O1 C1 1_555 1_555
O2 S1 1_555 1_555
O3 S1 1_555 1_555
C1 C2 1_555 1_555
C2 C3 1_555 1_555
C3 H1 1_555 1_555
H2 C3 1_555 1_555
H3 C3 1_555 1_555
C4 C1 1_555 1_555
C5 C4 1_555 1_555
H4 C5 1_555 1_555
C6 C5 1_555 1_555
H5 C6 1_555 1_555
C7 C6 1_555 1_555
H6 C7 1_555 1_555
C8 C7 1_555 1_555
H7 C8 1_555 1_555
C9 C4 1_555 1_555
H8 C9 1_555 1_555
C10 S1 1_555 1_555
C11 C10 1_555 1_555
H9 C11 1_555 1_555
C12 C11 1_555 1_555
H10 C12 1_555 1_555
C13 C12 1_555 1_555
C14 C13 1_555 1_555
H11 C14 1_555 1_555
C15 C10 1_555 1_555
H12 C15 1_555 1_555
C16 C13 1_555 1_555
H13 C16 1_555 1_555
H14 C16 1_555 1_555
H15 C16 1_555 1_555
C8 C9 1_555 1_555
C14 C15 1_555 1_555

#END
