
#######################################################################
#
#                 Cambridge Crystallographic Data Centre
#                                CCDC 
#
#######################################################################
#
# If this CIF has been generated from an entry in the Cambridge 
# Structural Database, then it will include bibliographic, chemical, 
# crystal, experimental, refinement or atomic coordinate data resulting 
# from the CCDC's data processing and validation procedures.
#
#######################################################################

data_GOGXOQ
_chemical_formula_moiety         'C31 H28 Cl2 O5'
_chemical_name_systematic        
'diethyl 1,1-bis(4-chlorophenyl)-8-methoxy-1,5-dihydroacenaphthylene-4,4(3H)-dicarboxylate'
_symmetry_cell_setting           monoclinic
_symmetry_space_group_name_H-M   'P 21/c'
_symmetry_Int_Tables_number      14
_space_group_name_Hall           '-P 2ybc'
loop_
_symmetry_equiv_pos_site_id
_symmetry_equiv_pos_as_xyz
1 x,y,z
2 -x,1/2+y,1/2-z
3 -x,-y,-z
4 x,1/2-y,1/2+z
_cell_length_a                   10.960(4)
_cell_length_b                   10.590(4)
_cell_length_c                   24.175(9)
_cell_angle_alpha                90
_cell_angle_beta                 92.622(5)
_cell_angle_gamma                90
_cell_volume                     2802.97
_exptl_crystal_colour            colorless
_exptl_crystal_description       column
_cell_formula_units_Z            4
loop_
_atom_site_label
_atom_site_type_symbol
_atom_site_fract_x
_atom_site_fract_y
_atom_site_fract_z
Cl1 Cl 0.30049(9) 0.70500(11) 0.22025(4)
Cl2 Cl 0.76511(12) -0.11390(11) 0.16029(6)
O1 O 0.8749(2) 0.5082(3) 0.19019(8)
O2 O 0.6159(2) 0.7647(2) -0.01141(10)
O3 O 0.7706(3) 0.8885(3) -0.03249(10)
O4 O 0.8801(2) 0.6994(4) -0.14635(11)
O5 O 0.6873(2) 0.7550(2) -0.13944(9)
C1 C 0.6919(2) 0.4334(3) 0.09692(12)
C2 C 0.8077(3) 0.5136(3) 0.09650(12)
C3 C 0.8921(3) 0.5511(4) 0.13805(13)
C4 C 0.9872(3) 0.6292(4) 0.12366(14)
H1 H 1.0448 0.6545 0.1509
C5 C 0.9985(3) 0.6705(4) 0.06986(15)
H2 H 1.0629 0.7235 0.0617
C6 C 0.9155(3) 0.6342(3) 0.02780(13)
C7 C 0.9186(3) 0.6724(3) -0.03216(13)
H3 H 0.9671 0.6123 -0.0520
H4 H 0.9565 0.7548 -0.0349
C8 C 0.7873(3) 0.6771(3) -0.05865(12)
C9 C 0.7230(3) 0.5493(3) -0.05325(12)
H5 H 0.6393 0.5562 -0.0677
H6 H 0.7640 0.4865 -0.0749
C10 C 0.7245(3) 0.5082(3) 0.00638(11)
C11 C 0.6505(3) 0.4384(3) 0.03538(12)
H7 H 0.5817 0.3973 0.0203
C12 C 0.8227(3) 0.5561(3) 0.04312(12)
C13 C 0.5952(3) 0.5012(3) 0.13083(12)
C14 C 0.5487(3) 0.4527(3) 0.17780(13)
H8 H 0.5780 0.3757 0.1913
C15 C 0.4591(3) 0.5149(4) 0.20585(14)
H9 H 0.4284 0.4795 0.2376
C16 C 0.4163(3) 0.6281(4) 0.18671(14)
C17 C 0.4637(3) 0.6811(3) 0.14076(15)
H10 H 0.4361 0.7595 0.1282
C18 C 0.5527(3) 0.6178(4) 0.11300(14)
H11 H 0.5846 0.6543 0.0818
C19 C 0.7124(3) 0.2966(3) 0.11402(11)
C20 C 0.6154(3) 0.2119(4) 0.11234(13)
H12 H 0.5379 0.2406 0.1012
C21 C 0.6303(3) 0.0881(4) 0.12647(14)
H13 H 0.5636 0.0337 0.1253
C22 C 0.7455(4) 0.0437(4) 0.14258(14)
C23 C 0.8424(3) 0.1232(4) 0.14336(14)
H14 H 0.9202 0.0928 0.1529
C24 C 0.8263(3) 0.2495(4) 0.13009(12)
H15 H 0.8932 0.3036 0.1320
C25 C 0.9749(4) 0.5202(5) 0.22950(15)
H16 H 1.0481 0.4904 0.2135
H17 H 0.9593 0.4709 0.2618
H18 H 0.9848 0.6072 0.2398
C26 C 0.7127(3) 0.7786(4) -0.03099(13)
C27 C 0.7071(6) 0.9950(5) -0.0100(3)
H19 H 0.6203 0.9839 -0.0181
H20 H 0.7203 0.9943 0.0299
C28 C 0.7382(11) 1.1027(7) -0.0279(4)
H21 H 0.8050 1.1350 -0.0051
H22 H 0.6701 1.1596 -0.0268
H23 H 0.7627 1.0948 -0.0654
C29 C 0.7931(3) 0.7121(4) -0.11932(13)
C30 C 0.6820(4) 0.8065(5) -0.19545(15)
H24 H 0.6012 0.7934 -0.2126
H25 H 0.7408 0.7637 -0.2177
C31 C 0.7095(5) 0.9418(5) -0.1927(2)
H26 H 0.6504 0.9837 -0.1711
H27 H 0.7064 0.9764 -0.2295
H28 H 0.7896 0.9541 -0.1759
loop_
_geom_bond_atom_site_label_1
_geom_bond_atom_site_label_2
_geom_bond_site_symmetry_1
_geom_bond_site_symmetry_2
Cl1 C16 1_555 1_555
Cl2 C22 1_555 1_555
O1 C3 1_555 1_555
O2 C26 1_555 1_555
O3 C26 1_555 1_555
O4 C29 1_555 1_555
O5 C29 1_555 1_555
C1 C2 1_555 1_555
C2 C3 1_555 1_555
C3 C4 1_555 1_555
C4 H1 1_555 1_555
C5 C4 1_555 1_555
H2 C5 1_555 1_555
C6 C5 1_555 1_555
C7 C6 1_555 1_555
H3 C7 1_555 1_555
H4 C7 1_555 1_555
C8 C7 1_555 1_555
C9 C8 1_555 1_555
H5 C9 1_555 1_555
H6 C9 1_555 1_555
C10 C9 1_555 1_555
C11 C1 1_555 1_555
H7 C11 1_555 1_555
C12 C2 1_555 1_555
C13 C1 1_555 1_555
C14 C13 1_555 1_555
H8 C14 1_555 1_555
C15 C14 1_555 1_555
H9 C15 1_555 1_555
C16 C15 1_555 1_555
C17 C16 1_555 1_555
H10 C17 1_555 1_555
C18 C13 1_555 1_555
H11 C18 1_555 1_555
C19 C1 1_555 1_555
C20 C19 1_555 1_555
H12 C20 1_555 1_555
C21 C20 1_555 1_555
H13 C21 1_555 1_555
C22 C21 1_555 1_555
C23 C22 1_555 1_555
H14 C23 1_555 1_555
C24 C19 1_555 1_555
H15 C24 1_555 1_555
C25 O1 1_555 1_555
H16 C25 1_555 1_555
H17 C25 1_555 1_555
H18 C25 1_555 1_555
C26 C8 1_555 1_555
C27 O3 1_555 1_555
H19 C27 1_555 1_555
H20 C27 1_555 1_555
C28 C27 1_555 1_555
H21 C28 1_555 1_555
H22 C28 1_555 1_555
H23 C28 1_555 1_555
C29 C8 1_555 1_555
C30 O5 1_555 1_555
H24 C30 1_555 1_555
H25 C30 1_555 1_555
C31 C30 1_555 1_555
H26 C31 1_555 1_555
H27 C31 1_555 1_555
H28 C31 1_555 1_555
C6 C12 1_555 1_555
C10 C11 1_555 1_555
C10 C12 1_555 1_555
C17 C18 1_555 1_555
C23 C24 1_555 1_555

#END
