
#######################################################################
#
#                 Cambridge Crystallographic Data Centre
#                                CCDC 
#
#######################################################################
#
# If this CIF has been generated from an entry in the Cambridge 
# Structural Database, then it will include bibliographic, chemical, 
# crystal, experimental, refinement or atomic coordinate data resulting 
# from the CCDC's data processing and validation procedures.
#
#######################################################################

data_GOGYIM
_chemical_formula_moiety         'C30 H23 Br1 P1 1+,Br1 1-'
_chemical_name_systematic        
"(4'-bromobiphenyl-4-yl)(triphenyl)phosphonium bromide"
_symmetry_cell_setting           triclinic
_symmetry_space_group_name_H-M   'P -1'
_symmetry_Int_Tables_number      2
_space_group_name_Hall           '-P 1'
loop_
_symmetry_equiv_pos_site_id
_symmetry_equiv_pos_as_xyz
1 x,y,z
2 -x,-y,-z
_cell_length_a                   9.8351(2)
_cell_length_b                   10.1157(3)
_cell_length_c                   13.5910(4)
_cell_angle_alpha                105.7395(16)
_cell_angle_beta                 98.1206(17)
_cell_angle_gamma                99.4597(17)
_cell_volume                     1258.92
_exptl_crystal_colour            colorless
_exptl_crystal_description       needle
_cell_formula_units_Z            2
loop_
_atom_site_label
_atom_site_type_symbol
_atom_site_fract_x
_atom_site_fract_y
_atom_site_fract_z
P1 P 1.13750(7) 0.48501(6) 0.30162(5)
C1 C 0.2608(3) 0.0004(3) 0.1154(2)
C2 C 0.2902(3) 0.1152(3) 0.0784(2)
C3 C 0.4292(3) 0.1881(3) 0.0977(2)
C4 C 0.5375(3) 0.1447(3) 0.1503(2)
C5 C 0.5049(3) 0.0236(3) 0.1808(3)
C6 C 0.3656(3) -0.0484(3) 0.1637(3)
C7 C 0.6842(3) 0.2297(3) 0.1826(2)
C8 C 0.7103(3) 0.3758(3) 0.2182(2)
C9 C 0.8464(3) 0.4556(3) 0.2557(2)
C10 C 0.9589(3) 0.3880(2) 0.25916(19)
C11 C 0.9343(3) 0.2410(3) 0.2225(2)
C12 C 0.7986(3) 0.1623(3) 0.1839(2)
C13 C 1.1485(3) 0.6604(3) 0.3832(2)
C14 C 1.1939(3) 0.6999(3) 0.4910(2)
C15 C 1.1999(3) 0.8363(3) 0.5499(2)
C16 C 1.1605(3) 0.9331(3) 0.5027(2)
C17 C 1.1151(3) 0.8951(3) 0.3960(2)
C18 C 1.1098(3) 0.7583(3) 0.3352(2)
C19 C 1.2085(3) 0.4983(3) 0.18979(19)
C20 C 1.3422(3) 0.5822(3) 0.2035(2)
C21 C 1.3987(3) 0.5922(3) 0.1167(2)
C22 C 1.3210(3) 0.5194(3) 0.0177(2)
C23 C 1.1878(3) 0.4379(3) 0.0037(2)
C24 C 1.1303(3) 0.4275(3) 0.0897(2)
C25 C 1.2346(3) 0.3931(3) 0.3727(2)
C26 C 1.3588(3) 0.3578(3) 0.3474(2)
C27 C 1.4332(4) 0.2901(4) 0.4069(3)
C28 C 1.3854(4) 0.2612(4) 0.4903(3)
C29 C 1.2619(4) 0.2955(3) 0.5159(2)
C30 C 1.1841(3) 0.3594(3) 0.4562(2)
Br1 Br 0.07139(3) -0.09051(3) 0.10428(3)
H1 H 0.2170 0.1436 0.0410
H2 H 0.4509 0.2677 0.0740
H3 H 0.5779 -0.0102 0.2134
H4 H 0.3434 -0.1304 0.1847
H5 H 0.6335 0.4216 0.2161
H6 H 0.8626 0.5553 0.2789
H7 H 1.0113 0.1953 0.2241
H8 H 0.7827 0.0628 0.1578
H9 H 1.2207 0.6334 0.5235
H10 H 1.2318 0.8638 0.6233
H11 H 1.1639 1.0262 0.5443
H12 H 1.0878 0.9620 0.3642
H13 H 1.0803 0.7317 0.2617
H14 H 1.3935 0.6326 0.2718
H15 H 1.4899 0.6476 0.1252
H16 H 1.3597 0.5259 -0.0415
H17 H 1.1361 0.3890 -0.0648
H18 H 1.0384 0.3733 0.0807
H19 H 1.3928 0.3805 0.2907
H20 H 1.5172 0.2640 0.3892
H21 H 1.4366 0.2156 0.5307
H22 H 1.2311 0.2773 0.5751
H23 H 1.0968 0.3790 0.4713
Br2 Br -0.24270(3) -0.20139(3) 0.23471(2)
loop_
_geom_bond_atom_site_label_1
_geom_bond_atom_site_label_2
_geom_bond_site_symmetry_1
_geom_bond_site_symmetry_2
P1 C10 1_555 1_555
C1 C2 1_555 1_555
C2 C3 1_555 1_555
C3 C4 1_555 1_555
C4 C5 1_555 1_555
C5 C6 1_555 1_555
C6 C1 1_555 1_555
C7 C4 1_555 1_555
C8 C7 1_555 1_555
C9 C8 1_555 1_555
C10 C9 1_555 1_555
C11 C10 1_555 1_555
C12 C7 1_555 1_555
C13 P1 1_555 1_555
C14 C13 1_555 1_555
C15 C14 1_555 1_555
C16 C15 1_555 1_555
C17 C16 1_555 1_555
C18 C13 1_555 1_555
C19 P1 1_555 1_555
C20 C19 1_555 1_555
C21 C20 1_555 1_555
C22 C21 1_555 1_555
C23 C22 1_555 1_555
C24 C19 1_555 1_555
C25 P1 1_555 1_555
C26 C25 1_555 1_555
C27 C26 1_555 1_555
C28 C27 1_555 1_555
C29 C28 1_555 1_555
C30 C25 1_555 1_555
Br1 C1 1_555 1_555
H1 C2 1_555 1_555
H2 C3 1_555 1_555
H3 C5 1_555 1_555
H4 C6 1_555 1_555
H5 C8 1_555 1_555
H6 C9 1_555 1_555
H7 C11 1_555 1_555
H8 C12 1_555 1_555
H9 C14 1_555 1_555
H10 C15 1_555 1_555
H11 C16 1_555 1_555
H12 C17 1_555 1_555
H13 C18 1_555 1_555
H14 C20 1_555 1_555
H15 C21 1_555 1_555
H16 C22 1_555 1_555
H17 C23 1_555 1_555
H18 C24 1_555 1_555
H19 C26 1_555 1_555
H20 C27 1_555 1_555
H21 C28 1_555 1_555
H22 C29 1_555 1_555
H23 C30 1_555 1_555
C11 C12 1_555 1_555
C17 C18 1_555 1_555
C23 C24 1_555 1_555
C29 C30 1_555 1_555

#END
