
#######################################################################
#
#                 Cambridge Crystallographic Data Centre
#                                CCDC 
#
#######################################################################
#
# If this CIF has been generated from an entry in the Cambridge 
# Structural Database, then it will include bibliographic, chemical, 
# crystal, experimental, refinement or atomic coordinate data resulting 
# from the CCDC's data processing and validation procedures.
#
#######################################################################

data_GOGZAF
_chemical_formula_moiety         'C48 H38 P2 2+,2(C24 B1 F20 1-),C1 H2 Cl2'
_chemical_name_systematic        
"biphenyl-4,4'-diylbis(triphenylphosphonium) bis(tetrakis(pentafluorophenyl)borate) dichloromethane solvate"
_symmetry_cell_setting           triclinic
_symmetry_space_group_name_H-M   'P -1'
_symmetry_Int_Tables_number      2
_space_group_name_Hall           '-P 1'
loop_
_symmetry_equiv_pos_site_id
_symmetry_equiv_pos_as_xyz
1 x,y,z
2 -x,-y,-z
_cell_length_a                   16.6502(4)
_cell_length_b                   17.1925(6)
_cell_length_c                   17.9515(5)
_cell_angle_alpha                67.4032(13)
_cell_angle_beta                 78.0100(16)
_cell_angle_gamma                84.1003(16)
_cell_volume                     4639.27
_exptl_crystal_colour            colorless
_exptl_crystal_description       prism
_cell_formula_units_Z            2
loop_
_atom_site_label
_atom_site_type_symbol
_atom_site_fract_x
_atom_site_fract_y
_atom_site_fract_z
B1 B 0.07439(5) 0.26695(6) 0.21026(5)
F1 F -0.00261(4) 0.38409(4) 0.08261(3)
F2 F -0.09515(4) 0.52030(4) 0.08187(4)
F3 F -0.13078(4) 0.56110(4) 0.21844(4)
F4 F -0.06221(4) 0.46668(4) 0.35229(4)
F5 F 0.03319(4) 0.33424(3) 0.35248(3)
F6 F -0.11178(4) 0.26351(4) 0.21172(4)
F7 F -0.18336(5) 0.15433(6) 0.18065(6)
F8 F -0.09491(6) 0.02814(6) 0.14236(6)
F9 F 0.07183(5) 0.01849(5) 0.13196(5)
F10 F 0.14603(4) 0.12988(4) 0.16355(4)
F11 F -0.04246(3) 0.19456(4) 0.35946(3)
F12 F -0.01717(4) 0.08349(4) 0.50397(3)
F13 F 0.13811(5) 0.02014(4) 0.52553(4)
F14 F 0.26569(4) 0.07293(4) 0.39737(4)
F15 F 0.24293(3) 0.18737(4) 0.25359(3)
F16 F 0.19566(4) 0.35892(4) 0.23230(3)
F17 F 0.31949(4) 0.44591(5) 0.12016(4)
F18 F 0.34406(4) 0.45343(5) -0.03768(4)
F19 F 0.24511(4) 0.36415(4) -0.07791(3)
F20 F 0.12310(4) 0.27726(4) 0.03161(3)
C1 C 0.01863(5) 0.34946(5) 0.21869(5)
C2 C -0.01507(5) 0.40279(6) 0.15073(5)
C3 C -0.06390(6) 0.47346(6) 0.14941(6)
C4 C -0.08076(5) 0.49430(6) 0.21693(6)
C5 C -0.04692(5) 0.44691(6) 0.28513(6)
C6 C 0.00212(5) 0.37603(5) 0.28318(5)
C7 C 0.02257(5) 0.20483(5) 0.18693(5)
C8 C -0.06117(6) 0.20549(7) 0.19080(6)
C9 C -0.10180(7) 0.14730(8) 0.17618(7)
C10 C -0.05774(8) 0.08407(8) 0.15742(7)
C11 C 0.02634(8) 0.07962(7) 0.15241(6)
C12 C 0.06355(6) 0.13868(6) 0.16799(5)
C13 C 0.09919(5) 0.19968(5) 0.29891(5)
C14 C 0.03629(5) 0.16808(6) 0.36562(5)
C15 C 0.04690(6) 0.10896(6) 0.44140(5)
C16 C 0.12609(6) 0.07730(5) 0.45144(5)
C17 C 0.18968(6) 0.10474(6) 0.38774(6)
C18 C 0.17537(5) 0.16538(5) 0.31266(5)
C19 C 0.15361(5) 0.31018(5) 0.13960(5)
C20 C 0.20677(5) 0.35693(5) 0.15601(5)
C21 C 0.27130(6) 0.40274(6) 0.09914(6)
C22 C 0.28312(6) 0.40699(6) 0.01945(6)
C23 C 0.23357(6) 0.36216(6) -0.00108(5)
C24 C 0.17071(5) 0.31604(5) 0.05821(5)
B2 B 0.55536(5) 0.73968(6) 0.26885(6)
F21 F 0.56169(4) 0.80062(4) 0.40968(4)
F22 F 0.49878(4) 0.94396(4) 0.41932(4)
F23 F 0.41435(5) 1.05169(4) 0.30371(5)
F24 F 0.38803(5) 1.00714(5) 0.18135(5)
F25 F 0.45024(4) 0.86168(4) 0.16965(4)
F26 F 0.36707(3) 0.73549(4) 0.31526(4)
F27 F 0.27387(4) 0.63013(4) 0.29997(5)
F28 F 0.34037(5) 0.50973(4) 0.23941(5)
F29 F 0.50604(4) 0.50120(4) 0.19112(4)
F30 F 0.60350(4) 0.60679(4) 0.20634(4)
F31 F 0.47519(3) 0.65483(4) 0.43676(4)
F32 F 0.53884(4) 0.53972(5) 0.56023(4)
F33 F 0.70079(5) 0.49415(5) 0.53838(4)
F34 F 0.79699(4) 0.56440(5) 0.38704(4)
F35 F 0.73538(3) 0.67395(4) 0.26231(3)
F36 F 0.69045(3) 0.83593(4) 0.26053(3)
F37 F 0.79387(4) 0.92893(5) 0.12995(5)
F38 F 0.78527(6) 0.93569(6) -0.02361(5)
F39 F 0.66864(5) 0.84679(6) -0.03986(4)
F40 F 0.56100(4) 0.75764(4) 0.08902(4)
C25 C 0.50969(5) 0.82189(6) 0.28851(6)
C26 C 0.51723(5) 0.84785(6) 0.35106(6)
C27 C 0.48604(6) 0.92372(6) 0.35713(6)
C28 C 0.44349(6) 0.97717(6) 0.29997(7)
C29 C 0.43118(6) 0.95438(7) 0.23827(7)
C30 C 0.46349(6) 0.87894(6) 0.23291(6)
C31 C 0.49109(5) 0.67976(6) 0.25833(5)
C32 C 0.40748(6) 0.67964(6) 0.28219(6)
C33 C 0.35619(6) 0.62395(7) 0.27627(7)
C34 C 0.38932(7) 0.56402(6) 0.24591(6)
C35 C 0.47252(7) 0.55940(6) 0.22263(6)
C36 C 0.52145(6) 0.61594(6) 0.22972(5)
C37 C 0.60132(5) 0.67325(5) 0.34286(5)
C38 C 0.55571(5) 0.63420(6) 0.42058(6)
C39 C 0.58689(7) 0.57402(7) 0.48614(6)
C40 C 0.66918(6) 0.55146(7) 0.47495(6)
C41 C 0.71690(6) 0.58622(6) 0.39928(6)
C42 C 0.68233(5) 0.64507(6) 0.33517(5)
C43 C 0.62050(5) 0.78902(5) 0.18349(5)
C44 C 0.68160(5) 0.83675(6) 0.18672(6)
C45 C 0.73658(6) 0.88522(7) 0.12007(7)
C46 C 0.73234(7) 0.88899(7) 0.04246(6)
C47 C 0.67400(7) 0.84403(7) 0.03403(6)
C48 C 0.61836(6) 0.79665(6) 0.10426(6)
P1 P -0.009060(13) 0.250340(14) 0.684704(13)
P2 P 0.549851(13) 0.250659(14) 0.268438(13)
C49 C 0.22666(5) 0.24069(5) 0.50104(5)
C50 C 0.15045(5) 0.25764(5) 0.47644(5)
C51 C 0.07884(5) 0.25812(6) 0.53279(5)
C52 C 0.08315(5) 0.24468(5) 0.61356(5)
C53 C 0.15990(6) 0.22763(6) 0.63798(5)
C54 C 0.22996(5) 0.22552(6) 0.58310(5)
C55 C -0.05558(5) 0.35587(6) 0.65434(6)
C56 C -0.06527(8) 0.39992(8) 0.57380(7)
C57 C -0.10486(8) 0.47872(8) 0.55378(8)
C58 C -0.13304(7) 0.51095(7) 0.61013(9)
C59 C -0.12335(7) 0.46797(7) 0.69086(9)
C60 C -0.08436(7) 0.38916(8) 0.71337(7)
C61 C -0.07986(5) 0.17708(6) 0.68860(5)
C62 C -0.16382(6) 0.18807(7) 0.71669(9)
C63 C -0.21877(7) 0.12727(8) 0.72616(11)
C64 C -0.19079(7) 0.05619(7) 0.70998(7)
C65 C -0.10714(6) 0.04501(6) 0.68168(6)
C66 C -0.05147(6) 0.10467(6) 0.67187(5)
C67 C 0.01402(5) 0.22439(5) 0.78456(5)
C68 C -0.02517(7) 0.15726(7) 0.85116(6)
C69 C -0.00457(11) 0.13712(8) 0.92742(7)
C70 C 0.05302(10) 0.18456(8) 0.93822(7)
C71 C 0.08805(7) 0.25263(7) 0.87283(6)
C72 C 0.06896(6) 0.27241(6) 0.79586(5)
C73 C 0.30349(5) 0.23975(5) 0.44158(5)
C74 C 0.36349(5) 0.17634(6) 0.46441(5)
C75 C 0.43632(5) 0.17624(6) 0.41185(5)
C76 C 0.45184(5) 0.24143(5) 0.33503(5)
C77 C 0.39221(6) 0.30462(6) 0.31137(5)
C78 C 0.31921(5) 0.30371(6) 0.36401(5)
C79 C 0.53177(5) 0.29124(5) 0.16553(5)
C80 C 0.57324(7) 0.35985(7) 0.10474(6)
C81 C 0.55718(9) 0.38777(8) 0.02537(7)
C82 C 0.50094(10) 0.34724(8) 0.00685(6)
C83 C 0.45844(8) 0.27868(8) 0.06813(7)
C84 C 0.47346(6) 0.25042(6) 0.14762(6)
C85 C 0.61245(5) 0.31878(6) 0.28542(6)
C86 C 0.57949(6) 0.36512(7) 0.33392(7)
C87 C 0.63039(7) 0.41687(8) 0.34693(9)
C88 C 0.71248(7) 0.42147(10) 0.31136(12)
C89 C 0.74477(8) 0.37540(12) 0.26288(14)
C90 C 0.69561(7) 0.32371(8) 0.25033(9)
C91 C 0.60481(5) 0.15009(5) 0.28929(6)
C92 C 0.64214(6) 0.11975(6) 0.35835(7)
C93 C 0.68927(7) 0.04501(7) 0.37249(8)
C94 C 0.69845(7) 0.00327(7) 0.32008(9)
C95 C 0.66173(7) 0.03365(7) 0.25256(8)
C96 C 0.61336(7) 0.10881(6) 0.23614(6)
H1 H 0.1478 0.2686 0.4209
H2 H 0.0270 0.2672 0.5161
H3 H 0.1631 0.2168 0.6933
H4 H 0.2814 0.2122 0.6008
H5 H -0.0441 0.3769 0.5330
H6 H -0.1128 0.5090 0.4990
H7 H -0.1590 0.5652 0.5951
H8 H -0.1444 0.4924 0.7305
H9 H -0.0778 0.3587 0.7686
H10 H -0.1828 0.2381 0.7262
H11 H -0.2757 0.1344 0.7451
H12 H -0.2279 0.0139 0.7184
H13 H -0.0882 -0.0029 0.6683
H14 H 0.0054 0.0974 0.6530
H15 H -0.0623 0.1240 0.8432
H16 H -0.0316 0.0924 0.9733
H17 H 0.0660 0.1705 0.9910
H18 H 0.1273 0.2844 0.8799
H19 H 0.0924 0.3199 0.7507
H20 H 0.3532 0.1319 0.5167
H21 H 0.4764 0.1326 0.4280
H22 H 0.4025 0.3488 0.2590
H23 H 0.2782 0.3461 0.3472
H24 H 0.6118 0.3880 0.1171
H25 H 0.5853 0.4346 -0.0168
H26 H 0.4918 0.3660 -0.0479
H27 H 0.4196 0.2513 0.0552
H28 H 0.4442 0.2045 0.1900
H29 H 0.5229 0.3610 0.3583
H30 H 0.6082 0.4489 0.3797
H31 H 0.7469 0.4563 0.3208
H32 H 0.8012 0.3800 0.2379
H33 H 0.7180 0.2911 0.2182
H34 H 0.6356 0.1494 0.3944
H35 H 0.7144 0.0222 0.4196
H36 H 0.7314 -0.0469 0.3298
H37 H 0.6687 0.0035 0.2169
H38 H 0.5872 0.1300 0.1897
C97 C 0.2116(2) 0.7996(3) 0.5213(2)
Cl1 Cl 0.30674(4) 0.81898(6) 0.47306(4)
Cl2 Cl 0.17154(5) 0.70693(5) 0.51928(5)
H39 H 0.2083 0.7925 0.5770
H40 H 0.1779 0.8464 0.4959
loop_
_geom_bond_atom_site_label_1
_geom_bond_atom_site_label_2
_geom_bond_site_symmetry_1
_geom_bond_site_symmetry_2
B1 C1 1_555 1_555
F1 C2 1_555 1_555
F2 C3 1_555 1_555
F3 C4 1_555 1_555
F4 C5 1_555 1_555
F5 C6 1_555 1_555
F6 C8 1_555 1_555
F7 C9 1_555 1_555
F8 C10 1_555 1_555
F9 C11 1_555 1_555
F10 C12 1_555 1_555
F11 C14 1_555 1_555
F12 C15 1_555 1_555
F13 C16 1_555 1_555
F14 C17 1_555 1_555
F15 C18 1_555 1_555
F16 C20 1_555 1_555
F17 C21 1_555 1_555
F18 C22 1_555 1_555
F19 C23 1_555 1_555
F20 C24 1_555 1_555
C1 C2 1_555 1_555
C2 C3 1_555 1_555
C3 C4 1_555 1_555
C4 C5 1_555 1_555
C5 C6 1_555 1_555
C6 C1 1_555 1_555
C7 B1 1_555 1_555
C8 C7 1_555 1_555
C9 C8 1_555 1_555
C10 C9 1_555 1_555
C11 C10 1_555 1_555
C12 C7 1_555 1_555
C13 B1 1_555 1_555
C14 C13 1_555 1_555
C15 C14 1_555 1_555
C16 C15 1_555 1_555
C17 C16 1_555 1_555
C18 C13 1_555 1_555
C19 B1 1_555 1_555
C20 C19 1_555 1_555
C21 C20 1_555 1_555
C22 C21 1_555 1_555
C23 C22 1_555 1_555
C24 C19 1_555 1_555
B2 C25 1_555 1_555
F21 C26 1_555 1_555
F22 C27 1_555 1_555
F23 C28 1_555 1_555
F24 C29 1_555 1_555
F25 C30 1_555 1_555
F26 C32 1_555 1_555
F27 C33 1_555 1_555
F28 C34 1_555 1_555
F29 C35 1_555 1_555
F30 C36 1_555 1_555
F31 C38 1_555 1_555
F32 C39 1_555 1_555
F33 C40 1_555 1_555
F34 C41 1_555 1_555
F35 C42 1_555 1_555
F36 C44 1_555 1_555
F37 C45 1_555 1_555
F38 C46 1_555 1_555
F39 C47 1_555 1_555
F40 C48 1_555 1_555
C25 C26 1_555 1_555
C26 C27 1_555 1_555
C27 C28 1_555 1_555
C28 C29 1_555 1_555
C29 C30 1_555 1_555
C30 C25 1_555 1_555
C31 B2 1_555 1_555
C32 C31 1_555 1_555
C33 C32 1_555 1_555
C34 C33 1_555 1_555
C35 C34 1_555 1_555
C36 C31 1_555 1_555
C37 B2 1_555 1_555
C38 C37 1_555 1_555
C39 C38 1_555 1_555
C40 C39 1_555 1_555
C41 C40 1_555 1_555
C42 C37 1_555 1_555
C43 B2 1_555 1_555
C44 C43 1_555 1_555
C45 C44 1_555 1_555
C46 C45 1_555 1_555
C47 C46 1_555 1_555
C48 C43 1_555 1_555
P1 C52 1_555 1_555
P2 C76 1_555 1_555
C49 C50 1_555 1_555
C50 C51 1_555 1_555
C51 C52 1_555 1_555
C52 C53 1_555 1_555
C53 C54 1_555 1_555
C54 C49 1_555 1_555
C55 P1 1_555 1_555
C56 C55 1_555 1_555
C57 C56 1_555 1_555
C58 C57 1_555 1_555
C59 C58 1_555 1_555
C60 C55 1_555 1_555
C61 P1 1_555 1_555
C62 C61 1_555 1_555
C63 C62 1_555 1_555
C64 C63 1_555 1_555
C65 C64 1_555 1_555
C66 C61 1_555 1_555
C67 P1 1_555 1_555
C68 C67 1_555 1_555
C69 C68 1_555 1_555
C70 C69 1_555 1_555
C71 C70 1_555 1_555
C72 C67 1_555 1_555
C73 C49 1_555 1_555
C74 C73 1_555 1_555
C75 C74 1_555 1_555
C76 C75 1_555 1_555
C77 C76 1_555 1_555
C78 C73 1_555 1_555
C79 P2 1_555 1_555
C80 C79 1_555 1_555
C81 C80 1_555 1_555
C82 C81 1_555 1_555
C83 C82 1_555 1_555
C84 C79 1_555 1_555
C85 P2 1_555 1_555
C86 C85 1_555 1_555
C87 C86 1_555 1_555
C88 C87 1_555 1_555
C89 C88 1_555 1_555
C90 C85 1_555 1_555
C91 P2 1_555 1_555
C92 C91 1_555 1_555
C93 C92 1_555 1_555
C94 C93 1_555 1_555
C95 C94 1_555 1_555
C96 C91 1_555 1_555
H1 C50 1_555 1_555
H2 C51 1_555 1_555
H3 C53 1_555 1_555
H4 C54 1_555 1_555
H5 C56 1_555 1_555
H6 C57 1_555 1_555
H7 C58 1_555 1_555
H8 C59 1_555 1_555
H9 C60 1_555 1_555
H10 C62 1_555 1_555
H11 C63 1_555 1_555
H12 C64 1_555 1_555
H13 C65 1_555 1_555
H14 C66 1_555 1_555
H15 C68 1_555 1_555
H16 C69 1_555 1_555
H17 C70 1_555 1_555
H18 C71 1_555 1_555
H19 C72 1_555 1_555
H20 C74 1_555 1_555
H21 C75 1_555 1_555
H22 C77 1_555 1_555
H23 C78 1_555 1_555
H24 C80 1_555 1_555
H25 C81 1_555 1_555
H26 C82 1_555 1_555
H27 C83 1_555 1_555
H28 C84 1_555 1_555
H29 C86 1_555 1_555
H30 C87 1_555 1_555
H31 C88 1_555 1_555
H32 C89 1_555 1_555
H33 C90 1_555 1_555
H34 C92 1_555 1_555
H35 C93 1_555 1_555
H36 C94 1_555 1_555
H37 C95 1_555 1_555
H38 C96 1_555 1_555
C97 Cl1 1_555 1_555
Cl2 C97 1_555 1_555
H39 C97 1_555 1_555
H40 C97 1_555 1_555
C11 C12 1_555 1_555
C17 C18 1_555 1_555
C23 C24 1_555 1_555
C35 C36 1_555 1_555
C41 C42 1_555 1_555
C47 C48 1_555 1_555
C59 C60 1_555 1_555
C65 C66 1_555 1_555
C71 C72 1_555 1_555
C77 C78 1_555 1_555
C83 C84 1_555 1_555
C89 C90 1_555 1_555
C95 C96 1_555 1_555

#END
