
#######################################################################
#
#                 Cambridge Crystallographic Data Centre
#                                CCDC 
#
#######################################################################
#
# If this CIF has been generated from an entry in the Cambridge 
# Structural Database, then it will include bibliographic, chemical, 
# crystal, experimental, refinement or atomic coordinate data resulting 
# from the CCDC's data processing and validation procedures.
#
#######################################################################

data_GOHMOG
_chemical_compound_source        'rhizomes of Cyperus rotundas L'
_chemical_name_common            Norcyperone
_chemical_formula_moiety         'C14 H22 O2'
_chemical_name_systematic        
8,11,11-Trimethylbicyclo(5.3.1)undecane-5\a,8\a-epoxy-3-one
_chemical_properties_biological  
'rhizomes used as estrogenic and anti-inflammatory agent'
_symmetry_cell_setting           orthorhombic
_symmetry_space_group_name_H-M   'P 21 21 21'
_symmetry_Int_Tables_number      19
_space_group_name_Hall           'P 2ac 2ab'
loop_
_symmetry_equiv_pos_site_id
_symmetry_equiv_pos_as_xyz
1 x,y,z
2 1/2-x,-y,1/2+z
3 -x,1/2+y,1/2-z
4 1/2+x,1/2-y,-z
_cell_length_a                   7.4495(15)
_cell_length_b                   8.6905(17)
_cell_length_c                   18.981(4)
_cell_angle_alpha                90
_cell_angle_beta                 90
_cell_angle_gamma                90
_cell_volume                     1228.83
_exptl_crystal_colour            colorless
_exptl_crystal_description       block
_chemical_melting_point          146-148deg.C
_cell_formula_units_Z            4
_exptl_crystal_recrystallization_method dichloromethane
loop_
_atom_site_label
_atom_site_type_symbol
_atom_site_fract_x
_atom_site_fract_y
_atom_site_fract_z
O1 O 0.33018(15) -0.06435(14) 0.24419(7)
O2 O 0.71505(16) -0.17243(11) 0.20433(5)
C1 C 0.5255(2) 0.04809(19) 0.09181(8)
H1 H 0.4572 0.0995 0.0545
C2 C 0.4860(2) -0.1246(2) 0.08137(9)
H2 H 0.3975 -0.1557 0.1161
H3 H 0.4323 -0.1382 0.0352
C3 C 0.6474(2) -0.23318(19) 0.08717(9)
H4 H 0.6062 -0.3320 0.1046
H5 H 0.6969 -0.2493 0.0405
C4 C 0.7955(2) -0.17484(18) 0.13520(8)
C5 C 0.85556(19) -0.00749(18) 0.12129(8)
H6 H 0.9705 -0.0117 0.0962
C6 C 0.7241(2) 0.08731(18) 0.07564(8)
C7 C 0.4456(2) 0.11272(19) 0.16153(9)
H7 H 0.5052 0.2097 0.1711
H8 H 0.3203 0.1361 0.1527
C8 C 0.4538(2) 0.01849(16) 0.22810(8)
C9 C 0.6134(2) 0.03270(18) 0.27659(8)
H9 H 0.5852 -0.0145 0.3216
H10 H 0.6389 0.1407 0.2848
C10 C 0.7786(2) -0.04485(18) 0.24514(8)
H11 H 0.8543 -0.0835 0.2835
C11 C 0.8929(2) 0.0524(2) 0.19566(9)
H12 H 1.0192 0.0416 0.2071
H13 H 0.8603 0.1601 0.1994
C12 C 0.9545(3) -0.2846(2) 0.13620(10)
H14 H 0.9129 -0.3872 0.1452
H15 H 1.0368 -0.2541 0.1726
H16 H 1.0143 -0.2816 0.0914
C13 C 0.7595(3) 0.0506(3) -0.00293(8)
H17 H 0.6785 0.1089 -0.0318
H18 H 0.7411 -0.0573 -0.0111
H19 H 0.8810 0.0772 -0.0146
C14 C 0.7587(3) 0.2613(2) 0.08326(11)
H20 H 0.6748 0.3170 0.0546
H21 H 0.8788 0.2843 0.0683
H22 H 0.7441 0.2908 0.1317
loop_
_geom_bond_atom_site_label_1
_geom_bond_atom_site_label_2
_geom_bond_site_symmetry_1
_geom_bond_site_symmetry_2
O1 C8 1_555 1_555
O2 C4 1_555 1_555
C1 H1 1_555 1_555
C2 C1 1_555 1_555
H2 C2 1_555 1_555
H3 C2 1_555 1_555
C3 C2 1_555 1_555
H4 C3 1_555 1_555
H5 C3 1_555 1_555
C4 C3 1_555 1_555
C5 C4 1_555 1_555
H6 C5 1_555 1_555
C6 C1 1_555 1_555
C7 C1 1_555 1_555
H7 C7 1_555 1_555
H8 C7 1_555 1_555
C8 C7 1_555 1_555
C9 C8 1_555 1_555
H9 C9 1_555 1_555
H10 C9 1_555 1_555
C10 O2 1_555 1_555
H11 C10 1_555 1_555
C11 C5 1_555 1_555
H12 C11 1_555 1_555
H13 C11 1_555 1_555
C12 C4 1_555 1_555
H14 C12 1_555 1_555
H15 C12 1_555 1_555
H16 C12 1_555 1_555
C13 C6 1_555 1_555
H17 C13 1_555 1_555
H18 C13 1_555 1_555
H19 C13 1_555 1_555
C14 C6 1_555 1_555
H20 C14 1_555 1_555
H21 C14 1_555 1_555
H22 C14 1_555 1_555
C5 C6 1_555 1_555
C9 C10 1_555 1_555
C10 C11 1_555 1_555

#END
