
#######################################################################
#
#                 Cambridge Crystallographic Data Centre
#                                CCDC 
#
#######################################################################
#
# If this CIF has been generated from an entry in the Cambridge 
# Structural Database, then it will include bibliographic, chemical, 
# crystal, experimental, refinement or atomic coordinate data resulting 
# from the CCDC's data processing and validation procedures.
#
#######################################################################

data_GOHPAV
_chemical_formula_moiety         'C36 H48 O3'
_chemical_name_systematic        
1,1,10,10,19,19-Hexamethyl-5,14,23-trimethoxy(3.3.3)metacyclophane
_symmetry_cell_setting           orthorhombic
_symmetry_space_group_name_H-M   'P c a 21'
_symmetry_Int_Tables_number      29
_space_group_name_Hall           'P 2c -2ac'
loop_
_symmetry_equiv_pos_site_id
_symmetry_equiv_pos_as_xyz
1 x,y,z
2 -x,-y,1/2+z
3 1/2+x,-y,z
4 1/2-x,y,1/2+z
_cell_length_a                   24.763(4)
_cell_length_b                   11.0549(17)
_cell_length_c                   11.5301(18)
_cell_angle_alpha                90
_cell_angle_beta                 90
_cell_angle_gamma                90
_cell_volume                     3156.39
_exptl_crystal_colour            colorless
_exptl_crystal_description       prismatic
_chemical_melting_point          144-146deg.C
_cell_formula_units_Z            4
_exptl_crystal_recrystallization_method 'ethyl acetate'
loop_
_atom_site_label
_atom_site_type_symbol
_atom_site_fract_x
_atom_site_fract_y
_atom_site_fract_z
O1 O 0.6713(2) 0.2020(5) 0.7172(5)
O2 O 1.0199(2) 0.3064(6) 1.0210(6)
O3 O 0.8526(3) -0.4266(7) 1.2232(9)
C1 C 0.6811(3) 0.1047(6) 0.7878(6)
C2 C 0.6527(2) -0.0022(6) 0.7821(6)
H1 H 0.6265 -0.0134 0.7254
C3 C 0.6637(2) -0.0934(6) 0.8620(6)
H2 H 0.6437 -0.1645 0.8587
C4 C 0.7025(2) -0.0824(5) 0.9442(6)
C5 C 0.7314(2) 0.0275(6) 0.9453(7)
H3 H 0.7582 0.0382 1.0009
C6 C 0.7218(2) 0.1186(6) 0.8690(6)
C7 C 0.7570(3) 0.2329(5) 0.8656(7)
H4 H 0.7338 0.3034 0.8714
H5 H 0.7807 0.2329 0.9326
C8 C 0.7909(3) 0.2436(6) 0.7567(7)
H6 H 0.7666 0.2435 0.6907
H7 H 0.8130 0.1714 0.7509
C9 C 0.8282(3) 0.3533(6) 0.7453(6)
C10 C 0.8467(3) 0.3581(9) 0.6215(8)
H8 H 0.8745 0.4181 0.6137
H9 H 0.8168 0.3788 0.5723
H10 H 0.8607 0.2806 0.5992
C11 C 0.7959(3) 0.4686(6) 0.7733(8)
H11 H 0.8179 0.5384 0.7584
H12 H 0.7854 0.4677 0.8534
H13 H 0.7642 0.4716 0.7254
C12 C 0.6312(3) 0.1913(8) 0.6313(8)
H14 H 0.6407 0.1271 0.5789
H15 H 0.6285 0.2659 0.5891
H16 H 0.5972 0.1734 0.6672
C13 C 0.9725(3) 0.3233(8) 0.9559(8)
C14 C 0.9428(3) 0.4304(6) 0.9570(7)
H17 H 0.9543 0.4965 1.0003
C15 C 0.8962(3) 0.4362(6) 0.8925(7)
H18 H 0.8759 0.5068 0.8963
C16 C 0.8777(2) 0.3443(6) 0.8227(6)
C17 C 0.9098(2) 0.2404(6) 0.8212(7)
H19 H 0.8989 0.1761 0.7746
C18 C 0.9570(3) 0.2272(6) 0.8854(7)
C19 C 0.9891(3) 0.1086(7) 0.8812(9)
H20 H 0.9904 0.0792 0.8020
H21 H 1.0258 0.1231 0.9069
C20 C 0.9628(2) 0.0134(6) 0.9585(7)
H22 H 0.9246 0.0109 0.9405
H23 H 0.9663 0.0398 1.0384
C21 C 0.9853(3) -0.1169(7) 0.9499(7)
C22 C 1.0452(3) -0.1175(8) 0.9864(9)
H24 H 1.0663 -0.0761 0.9289
H25 H 1.0576 -0.1995 0.9933
H26 H 1.0490 -0.0772 1.0597
C23 C 0.9816(4) -0.1642(9) 0.8236(10)
H27 H 0.9456 -0.1527 0.7950
H28 H 0.9905 -0.2487 0.8220
H29 H 1.0066 -0.1204 0.7757
C24 C 1.0335(4) 0.4009(10) 1.0994(9)
H30 H 1.0411 0.4735 1.0567
H31 H 1.0648 0.3781 1.1434
H32 H 1.0038 0.4150 1.1512
C25 C 0.8860(5) -0.3491(10) 1.1612(12)
C26 C 0.9386(4) -0.3378(7) 1.1872(8)
H33 H 0.9528 -0.3783 1.2510
C27 C 0.9726(3) -0.2644(6) 1.1178(7)
H34 H 1.0094 -0.2612 1.1339
C28 C 0.9521(3) -0.1976(7) 1.0270(7)
C29 C 0.8955(3) -0.2102(7) 1.0091(8)
H35 H 0.8800 -0.1663 0.9488
C30 C 0.8633(3) -0.2794(9) 1.0716(13)
C31 C 0.8060(5) -0.2949(11) 1.0745(13)
H36 H 0.7971 -0.3664 1.0296
H37 H 0.7954 -0.3105 1.1540
C32 C 0.7752(5) -0.1994(12) 1.0331(14)
H38 H 0.7846 -0.1932 0.9516
H39 H 0.7904 -0.1281 1.0698
C33 C 0.7134(3) -0.1795(7) 1.0369(9)
C34 C 0.6920(6) -0.1362(11) 1.1468(10)
H40 H 0.7068 -0.1833 1.2091
H41 H 0.6534 -0.1441 1.1467
H42 H 0.7016 -0.0528 1.1571
C35 C 0.6861(4) -0.2970(8) 1.0030(11)
H43 H 0.6941 -0.3151 0.9234
H44 H 0.6478 -0.2891 1.0127
H45 H 0.6992 -0.3613 1.0515
C36 C 0.8744(6) -0.5101(11) 1.2990(18)
H46 H 0.8913 -0.5739 1.2558
H47 H 0.8462 -0.5433 1.3465
H48 H 0.9007 -0.4712 1.3474
loop_
_geom_bond_atom_site_label_1
_geom_bond_atom_site_label_2
_geom_bond_site_symmetry_1
_geom_bond_site_symmetry_2
O1 C1 1_555 1_555
O2 C13 1_555 1_555
O3 C25 1_555 1_555
C1 C2 1_555 1_555
C2 H1 1_555 1_555
C3 C2 1_555 1_555
H2 C3 1_555 1_555
C4 C3 1_555 1_555
C5 C4 1_555 1_555
H3 C5 1_555 1_555
C6 C1 1_555 1_555
C7 C6 1_555 1_555
H4 C7 1_555 1_555
H5 C7 1_555 1_555
C8 C7 1_555 1_555
H6 C8 1_555 1_555
H7 C8 1_555 1_555
C9 C8 1_555 1_555
C10 C9 1_555 1_555
H8 C10 1_555 1_555
H9 C10 1_555 1_555
H10 C10 1_555 1_555
C11 C9 1_555 1_555
H11 C11 1_555 1_555
H12 C11 1_555 1_555
H13 C11 1_555 1_555
C12 O1 1_555 1_555
H14 C12 1_555 1_555
H15 C12 1_555 1_555
H16 C12 1_555 1_555
C13 C14 1_555 1_555
C14 H17 1_555 1_555
C15 C14 1_555 1_555
H18 C15 1_555 1_555
C16 C9 1_555 1_555
C17 C16 1_555 1_555
H19 C17 1_555 1_555
C18 C13 1_555 1_555
C19 C18 1_555 1_555
H20 C19 1_555 1_555
H21 C19 1_555 1_555
C20 C19 1_555 1_555
H22 C20 1_555 1_555
H23 C20 1_555 1_555
C21 C20 1_555 1_555
C22 C21 1_555 1_555
H24 C22 1_555 1_555
H25 C22 1_555 1_555
H26 C22 1_555 1_555
C23 C21 1_555 1_555
H27 C23 1_555 1_555
H28 C23 1_555 1_555
H29 C23 1_555 1_555
C24 O2 1_555 1_555
H30 C24 1_555 1_555
H31 C24 1_555 1_555
H32 C24 1_555 1_555
C25 C26 1_555 1_555
C26 H33 1_555 1_555
C27 C26 1_555 1_555
H34 C27 1_555 1_555
C28 C21 1_555 1_555
C29 C28 1_555 1_555
H35 C29 1_555 1_555
C30 C25 1_555 1_555
C31 C30 1_555 1_555
H36 C31 1_555 1_555
H37 C31 1_555 1_555
C32 C31 1_555 1_555
H38 C32 1_555 1_555
H39 C32 1_555 1_555
C33 C4 1_555 1_555
C34 C33 1_555 1_555
H40 C34 1_555 1_555
H41 C34 1_555 1_555
H42 C34 1_555 1_555
C35 C33 1_555 1_555
H43 C35 1_555 1_555
H44 C35 1_555 1_555
H45 C35 1_555 1_555
C36 O3 1_555 1_555
H46 C36 1_555 1_555
H47 C36 1_555 1_555
H48 C36 1_555 1_555
C5 C6 1_555 1_555
C15 C16 1_555 1_555
C17 C18 1_555 1_555
C27 C28 1_555 1_555
C29 C30 1_555 1_555
C32 C33 1_555 1_555

#END
