
#######################################################################
#
#                 Cambridge Crystallographic Data Centre
#                                CCDC 
#
#######################################################################
#
# If this CIF has been generated from an entry in the Cambridge 
# Structural Database, then it will include bibliographic, chemical, 
# crystal, experimental, refinement or atomic coordinate data resulting 
# from the CCDC's data processing and validation procedures.
#
#######################################################################

data_GOJXUZ
_chemical_formula_moiety         'C12 H16 O3'
_chemical_name_systematic        
syn-1,1-Dimethyl-4-methylenetetrahydro-1H-isochromene-3,6(4H,5H)-dione
_symmetry_cell_setting           monoclinic
_symmetry_space_group_name_H-M   'P 21/c'
_symmetry_Int_Tables_number      14
_space_group_name_Hall           '-P 2ybc'
loop_
_symmetry_equiv_pos_site_id
_symmetry_equiv_pos_as_xyz
1 x,y,z
2 -x,1/2+y,1/2-z
3 -x,-y,-z
4 x,1/2-y,1/2+z
_cell_length_a                   15.4518(4)
_cell_length_b                   9.5008(3)
_cell_length_c                   7.2795(2)
_cell_angle_alpha                90
_cell_angle_beta                 99.627(2)
_cell_angle_gamma                90
_cell_volume                     1053.61
_exptl_crystal_colour            colorless
_exptl_crystal_description       slab
_chemical_melting_point          '126-127 deg.C'
_cell_formula_units_Z            4
loop_
_atom_site_label
_atom_site_type_symbol
_atom_site_fract_x
_atom_site_fract_y
_atom_site_fract_z
C1 C 0.31493(9) -0.01389(14) 1.08740(18)
C2 C 0.22540(9) -0.05686(14) 0.99030(18)
C3 C 0.21508(8) -0.09398(14) 0.78590(18)
H1 H 0.2413 -0.1893 0.7754
C4 C 0.11862(9) -0.09926(15) 0.6886(2)
H2 H 0.1157 -0.1384 0.5617
H3 H 0.0852 -0.1627 0.7590
C5 C 0.07695(9) 0.04488(16) 0.67572(18)
C6 C 0.12856(9) 0.15811(15) 0.59810(19)
H4 H 0.1023 0.2508 0.6177
H5 H 0.1243 0.1438 0.4622
C7 C 0.22597(8) 0.15914(14) 0.68902(18)
H6 H 0.2584 0.2253 0.6204
H7 H 0.2311 0.1933 0.8189
C8 C 0.26776(8) 0.01259(14) 0.68960(17)
H8 H 0.2640 -0.0176 0.5569
C9 C 0.36499(8) 0.00835(14) 0.78004(17)
C10 C 0.16129(10) -0.05400(16) 1.0907(2)
H9 H 0.1732 -0.0257 1.2176
H10 H 0.1034 -0.0802 1.0357
C11 C 0.41813(9) 0.12881(16) 0.7194(2)
H11 H 0.3967 0.2181 0.7622
H12 H 0.4119 0.1296 0.5832
H13 H 0.4801 0.1166 0.7737
C12 C 0.40850(9) -0.13104(16) 0.7465(2)
H14 H 0.4695 -0.1304 0.8108
H15 H 0.4072 -0.1440 0.6125
H16 H 0.3767 -0.2083 0.7946
O1 O 0.33438(7) -0.00749(12) 1.25562(13)
O2 O 0.37511(6) 0.02545(11) 0.98532(13)
O3 O 0.00564(7) 0.06703(12) 0.72025(15)
loop_
_geom_bond_atom_site_label_1
_geom_bond_atom_site_label_2
_geom_bond_site_symmetry_1
_geom_bond_site_symmetry_2
C1 C2 1_555 1_555
C2 C3 1_555 1_555
C3 H1 1_555 1_555
C4 C3 1_555 1_555
H2 C4 1_555 1_555
H3 C4 1_555 1_555
C5 C4 1_555 1_555
C6 C5 1_555 1_555
H4 C6 1_555 1_555
H5 C6 1_555 1_555
C7 C6 1_555 1_555
H6 C7 1_555 1_555
H7 C7 1_555 1_555
C8 C3 1_555 1_555
H8 C8 1_555 1_555
C9 C8 1_555 1_555
C10 C2 1_555 1_555
H9 C10 1_555 1_555
H10 C10 1_555 1_555
C11 C9 1_555 1_555
H11 C11 1_555 1_555
H12 C11 1_555 1_555
H13 C11 1_555 1_555
C12 C9 1_555 1_555
H14 C12 1_555 1_555
H15 C12 1_555 1_555
H16 C12 1_555 1_555
O1 C1 1_555 1_555
O2 C1 1_555 1_555
O3 C5 1_555 1_555
C7 C8 1_555 1_555
C9 O2 1_555 1_555

#END
