
#######################################################################
#
#                 Cambridge Crystallographic Data Centre
#                                CCDC 
#
#######################################################################
#
# If this CIF has been generated from an entry in the Cambridge 
# Structural Database, then it will include bibliographic, chemical, 
# crystal, experimental, refinement or atomic coordinate data resulting 
# from the CCDC's data processing and validation procedures.
#
#######################################################################

data_GOJXOT
_chemical_formula_moiety         'C12 H16 N4 2+,2(C24 H20 B1 1-)'
_chemical_name_systematic        
'trans-1,4-bis(3-Methylimidazolium-1-yl)but-2-yne bis(tetraphenylborate)'
_symmetry_cell_setting           monoclinic
_symmetry_space_group_name_H-M   'P 21/n'
_symmetry_Int_Tables_number      14
_space_group_name_Hall           '-P 2yn'
loop_
_symmetry_equiv_pos_site_id
_symmetry_equiv_pos_as_xyz
1 x,y,z
2 1/2-x,1/2+y,1/2-z
3 -x,-y,-z
4 1/2+x,1/2-y,1/2+z
_cell_length_a                   10.007(4)
_cell_length_b                   17.619(6)
_cell_length_c                   13.498(5)
_cell_angle_alpha                90
_cell_angle_beta                 96.404(6)
_cell_angle_gamma                90
_cell_volume                     2365.03
_exptl_crystal_colour            colorless
_exptl_crystal_description       block
_cell_formula_units_Z            2
_exptl_crystal_preparation       luminescent
loop_
_atom_site_label
_atom_site_type_symbol
_atom_site_fract_x
_atom_site_fract_y
_atom_site_fract_z
N1 N 0.8209(2) 0.43672(14) 0.33324(17)
N2 N 0.8929(2) 0.38353(15) 0.20728(18)
C1 C 0.9288(3) 0.41777(18) 0.2926(2)
H1 H 1.0168 0.4270 0.3198
C2 C 0.7562(3) 0.3817(2) 0.1921(2)
H2 H 0.7041 0.3613 0.1372
C3 C 0.7110(3) 0.4147(2) 0.2706(3)
H3 H 0.6214 0.4214 0.2809
C4 C 0.8142(3) 0.4740(2) 0.4293(2)
H4 H 0.7618 0.5201 0.4191
H5 H 0.7686 0.4408 0.4720
C5 C 0.9469(3) 0.49257(19) 0.4789(2)
C6 C 0.9850(3) 0.3516(3) 0.1415(3)
H6 H 0.9343 0.3306 0.0834
H7 H 1.0380 0.3124 0.1761
H8 H 1.0432 0.3908 0.1219
N1B N 1.1791(2) 0.56328(14) 0.66676(17)
N2B N 1.1071(2) 0.61647(15) 0.79272(18)
C1B C 1.0712(3) 0.58223(18) 0.7074(2)
H1B H 0.9832 0.5730 0.6802
C2B C 1.2438(3) 0.6183(2) 0.8079(2)
H2B H 1.2959 0.6387 0.8628
C3B C 1.2890(3) 0.5853(2) 0.7294(3)
H3B H 1.3786 0.5786 0.7191
C4B C 1.1858(3) 0.5260(2) 0.5707(2)
H4B H 1.2382 0.4799 0.5809
H5B H 1.2314 0.5592 0.5280
C5B C 1.0531(3) 0.50743(19) 0.5211(2)
C6B C 1.0150(3) 0.6484(3) 0.8585(3)
H6B H 1.0657 0.6694 0.9166
H7B H 0.9620 0.6876 0.8239
H8B H 0.9568 0.6092 0.8781
B1 B 0.2279(3) 0.10262(18) 0.2657(2)
C7 C 0.1703(3) 0.16684(15) 0.33808(19)
C8 C 0.2481(3) 0.21028(16) 0.4084(2)
H9 H 0.3408 0.2036 0.4158
C9 C 0.1930(4) 0.26325(18) 0.4679(2)
H10 H 0.2487 0.2913 0.5140
C10 C 0.0572(4) 0.27430(19) 0.4591(2)
H11 H 0.0199 0.3093 0.4996
C11 C -0.0236(3) 0.2334(2) 0.3901(3)
H12 H -0.1162 0.2407 0.3833
C12 C 0.0324(3) 0.18169(17) 0.3310(2)
H13 H -0.0242 0.1552 0.2839
C13 C 0.1679(2) 0.12709(15) 0.15243(19)
C14 C 0.2084(3) 0.19503(16) 0.1120(2)
H14 H 0.2730 0.2241 0.1497
C15 C 0.1581(3) 0.22154(18) 0.0192(2)
H15 H 0.1898 0.2669 -0.0047
C16 C 0.0609(3) 0.18084(19) -0.0379(2)
H16 H 0.0273 0.1976 -0.1011
C17 C 0.0142(3) 0.11479(19) 0.0003(2)
H17 H -0.0536 0.0874 -0.0364
C18 C 0.0675(3) 0.08896(16) 0.0930(2)
H18 H 0.0345 0.0439 0.1167
C19 C 0.1778(2) 0.01805(15) 0.29435(19)
C20 C 0.1206(3) 0.00144(17) 0.3810(2)
H19 H 0.1045 0.0412 0.4235
C21 C 0.0864(3) -0.07127(19) 0.4071(2)
H20 H 0.0496 -0.0796 0.4665
C22 C 0.1065(3) -0.13076(18) 0.3463(2)
H21 H 0.0815 -0.1796 0.3629
C23 C 0.1639(3) -0.11787(17) 0.2602(2)
H22 H 0.1794 -0.1582 0.2184
C24 C 0.1986(3) -0.04502(16) 0.2356(2)
H23 H 0.2378 -0.0376 0.1770
C25 C 0.3939(3) 0.10025(14) 0.28261(19)
C26 C 0.4585(3) 0.07048(18) 0.3705(2)
H24 H 0.4054 0.0511 0.4168
C27 C 0.5961(3) 0.06775(19) 0.3937(2)
H25 H 0.6328 0.0473 0.4542
C28 C 0.6780(3) 0.0948(2) 0.3283(3)
H26 H 0.7710 0.0934 0.3432
C29 C 0.6204(3) 0.1242(2) 0.2400(3)
H27 H 0.6747 0.1433 0.1943
C30 C 0.4820(3) 0.12563(19) 0.2181(2)
H28 H 0.4464 0.1448 0.1566
loop_
_geom_bond_atom_site_label_1
_geom_bond_atom_site_label_2
_geom_bond_site_symmetry_1
_geom_bond_site_symmetry_2
N1 C1 1_555 1_555
N2 C1 1_555 1_555
C1 H1 1_555 1_555
C2 N2 1_555 1_555
H2 C2 1_555 1_555
C3 N1 1_555 1_555
H3 C3 1_555 1_555
C4 N1 1_555 1_555
H4 C4 1_555 1_555
H5 C4 1_555 1_555
C5 C4 1_555 1_555
C6 N2 1_555 1_555
H6 C6 1_555 1_555
H7 C6 1_555 1_555
H8 C6 1_555 1_555
B1 C7 1_555 1_555
C7 C8 1_555 1_555
C8 H9 1_555 1_555
C9 C8 1_555 1_555
H10 C9 1_555 1_555
C10 C9 1_555 1_555
H11 C10 1_555 1_555
C11 C10 1_555 1_555
H12 C11 1_555 1_555
C12 C7 1_555 1_555
H13 C12 1_555 1_555
C13 B1 1_555 1_555
C14 C13 1_555 1_555
H14 C14 1_555 1_555
C15 C14 1_555 1_555
H15 C15 1_555 1_555
C16 C15 1_555 1_555
H16 C16 1_555 1_555
C17 C16 1_555 1_555
H17 C17 1_555 1_555
C18 C13 1_555 1_555
H18 C18 1_555 1_555
C19 B1 1_555 1_555
C20 C19 1_555 1_555
H19 C20 1_555 1_555
C21 C20 1_555 1_555
H20 C21 1_555 1_555
C22 C21 1_555 1_555
H21 C22 1_555 1_555
C23 C22 1_555 1_555
H22 C23 1_555 1_555
C24 C19 1_555 1_555
H23 C24 1_555 1_555
C25 B1 1_555 1_555
C26 C25 1_555 1_555
H24 C26 1_555 1_555
C27 C26 1_555 1_555
H25 C27 1_555 1_555
C28 C27 1_555 1_555
H26 C28 1_555 1_555
C29 C28 1_555 1_555
H27 C29 1_555 1_555
C30 C25 1_555 1_555
H28 C30 1_555 1_555
N1B C1B 1_555 1_555
N2B C1B 1_555 1_555
C1B H1B 1_555 1_555
C2B N2B 1_555 1_555
H2B C2B 1_555 1_555
C3B N1B 1_555 1_555
H3B C3B 1_555 1_555
C4B N1B 1_555 1_555
H4B C4B 1_555 1_555
H5B C4B 1_555 1_555
C5B C5 1_555 1_555
C6B N2B 1_555 1_555
H6B C6B 1_555 1_555
H7B C6B 1_555 1_555
H8B C6B 1_555 1_555
C2 C3 1_555 1_555
C11 C12 1_555 1_555
C17 C18 1_555 1_555
C23 C24 1_555 1_555
C29 C30 1_555 1_555
C2B C3B 1_555 1_555
C4B C5B 1_555 1_555

#END
