
#######################################################################
#
#                 Cambridge Crystallographic Data Centre
#                                CCDC 
#
#######################################################################
#
# If this CIF has been generated from an entry in the Cambridge 
# Structural Database, then it will include bibliographic, chemical, 
# crystal, experimental, refinement or atomic coordinate data resulting 
# from the CCDC's data processing and validation procedures.
#
#######################################################################

data_GOKMUP
_chemical_formula_moiety         'C12 H14 O2'
_chemical_name_systematic        3,3,6-Trimethyl-3,4-dihydroisocoumarin
_symmetry_cell_setting           monoclinic
_symmetry_space_group_name_H-M   'P 21/c'
_symmetry_Int_Tables_number      14
_space_group_name_Hall           '-P 2ybc'
loop_
_symmetry_equiv_pos_site_id
_symmetry_equiv_pos_as_xyz
1 x,y,z
2 -x,1/2+y,1/2-z
3 -x,-y,-z
4 x,1/2-y,1/2+z
_cell_length_a                   22.303(4)
_cell_length_b                   7.0439(11)
_cell_length_c                   22.589(4)
_cell_angle_alpha                90
_cell_angle_beta                 118.624(2)
_cell_angle_gamma                90
_cell_volume                     3115.02
_exptl_crystal_description       irregular
_chemical_melting_point          '55 deg.C'
_cell_formula_units_Z            12
loop_
_atom_site_label
_atom_site_type_symbol
_atom_site_fract_x
_atom_site_fract_y
_atom_site_fract_z
O1 O 0.43306(8) 0.7622(2) 0.36806(9)
C1 C 0.42512(11) 0.5911(3) 0.35915(13)
O2 O 0.41966(8) 0.4883(2) 0.40624(8)
C2 C 0.42257(12) 0.2766(3) 0.40501(12)
C3 C 0.37879(11) 0.2102(3) 0.33346(12)
H1 H 0.3840 0.0741 0.3313
H2 H 0.3312 0.2359 0.3199
C4 C 0.39765(11) 0.3069(3) 0.28533(12)
C5 C 0.39349(11) 0.2185(3) 0.22874(12)
H3 H 0.3803 0.0919 0.2205
C6 C 0.40878(12) 0.3162(4) 0.18365(13)
C7 C 0.42970(12) 0.5041(4) 0.19785(14)
H4 H 0.4403 0.5712 0.1686
C8 C 0.43489(12) 0.5914(4) 0.25390(13)
H5 H 0.4491 0.7173 0.2624
C9 C 0.41942(12) 0.4959(3) 0.29836(12)
C10 C 0.39426(14) 0.2150(4) 0.45040(13)
H6 H 0.3471 0.2511 0.4307
H7 H 0.4195 0.2750 0.4936
H8 H 0.3981 0.0797 0.4559
C11 C 0.49734(12) 0.2231(3) 0.43359(12)
H9 H 0.5227 0.2698 0.4789
H10 H 0.5151 0.2782 0.4063
H11 H 0.5015 0.0874 0.4336
C12 C 0.40376(13) 0.2170(4) 0.12197(13)
H12 H 0.4160 0.3040 0.0968
H13 H 0.3578 0.1737 0.0942
H14 H 0.4343 0.1104 0.1358
O3 O 0.10773(8) 0.7955(2) 0.35446(9)
C13 C 0.09912(11) 0.6235(3) 0.35154(13)
O4 O 0.09843(7) 0.5288(2) 0.30023(8)
C14 C 0.09978(11) 0.3184(3) 0.30062(12)
C15 C 0.04848(11) 0.2484(3) 0.32210(11)
H15 H 0.0027 0.2826 0.2880
H16 H 0.0508 0.1111 0.3258
C16 C 0.06255(11) 0.3326(3) 0.38820(12)
C17 C 0.05353(11) 0.2337(3) 0.43645(12)
H17 H 0.0370 0.1100 0.4275
C18 C 0.06865(12) 0.3155(4) 0.49760(13)
C19 C 0.09388(12) 0.5008(4) 0.51076(13)
H18 H 0.1044 0.5572 0.5518
C20 C 0.10339(12) 0.6013(4) 0.46337(13)
H19 H 0.1198 0.7252 0.4724
C21 C 0.08842(11) 0.5167(3) 0.40222(12)
C22 C 0.07813(12) 0.2651(3) 0.22806(12)
H20 H 0.0320 0.3061 0.1996
H21 H 0.0808 0.1298 0.2246
H22 H 0.1079 0.3255 0.2141
C23 C 0.17186(11) 0.2557(3) 0.34784(12)
H23 H 0.1837 0.2910 0.3932
H24 H 0.2027 0.3157 0.3352
H25 H 0.1751 0.1203 0.3452
C24 C 0.05957(13) 0.2067(4) 0.55031(13)
H26 H 0.0726 0.2855 0.5892
H27 H 0.0878 0.0953 0.5630
H28 H 0.0126 0.1701 0.5323
O5 O 0.22056(8) 0.2446(2) 0.19002(9)
C25 C 0.22937(11) 0.4158(3) 0.18971(13)
O6 O 0.23115(8) 0.5180(2) 0.24078(8)
C26 C 0.22301(11) 0.7272(3) 0.23447(12)
C27 C 0.26991(11) 0.8052(3) 0.20840(12)
H29 H 0.2605 0.9392 0.1983
H30 H 0.3170 0.7929 0.2433
C28 C 0.26051(11) 0.7030(3) 0.14622(12)
C29 C 0.27300(12) 0.7894(4) 0.09791(12)
H31 H 0.2858 0.9166 0.1030
C30 C 0.26678(13) 0.6899(4) 0.04208(13)
C31 C 0.24479(13) 0.5032(4) 0.03370(14)
H32 H 0.2387 0.4365 -0.0043
C32 C 0.23171(12) 0.4139(4) 0.08115(13)
H33 H 0.2175 0.2880 0.0751
C33 C 0.23999(11) 0.5137(3) 0.13763(13)
C34 C 0.14830(11) 0.7696(3) 0.18831(12)
H34 H 0.1357 0.7262 0.1436
H35 H 0.1407 0.9039 0.1875
H36 H 0.1211 0.7055 0.2046
C35 C 0.24503(12) 0.7950(3) 0.30518(12)
H37 H 0.2148 0.7443 0.3204
H38 H 0.2435 0.9311 0.3057
H39 H 0.2908 0.7526 0.3346
C36 C 0.28136(14) 0.7870(4) -0.00918(14)
H40 H 0.2744 0.6989 -0.0443
H41 H 0.3278 0.8306 0.0124
H42 H 0.2511 0.8932 -0.0282
loop_
_geom_bond_atom_site_label_1
_geom_bond_atom_site_label_2
_geom_bond_site_symmetry_1
_geom_bond_site_symmetry_2
O1 C1 1_555 1_555
C1 O2 1_555 1_555
O2 C2 1_555 1_555
C2 C3 1_555 1_555
C3 H1 1_555 1_555
H2 C3 1_555 1_555
C4 C3 1_555 1_555
C5 C4 1_555 1_555
H3 C5 1_555 1_555
C6 C5 1_555 1_555
C7 C6 1_555 1_555
H4 C7 1_555 1_555
C8 C7 1_555 1_555
H5 C8 1_555 1_555
C9 C1 1_555 1_555
C10 C2 1_555 1_555
H6 C10 1_555 1_555
H7 C10 1_555 1_555
H8 C10 1_555 1_555
C11 C2 1_555 1_555
H9 C11 1_555 1_555
H10 C11 1_555 1_555
H11 C11 1_555 1_555
C12 C6 1_555 1_555
H12 C12 1_555 1_555
H13 C12 1_555 1_555
H14 C12 1_555 1_555
O3 C13 1_555 1_555
C13 O4 1_555 1_555
O4 C14 1_555 1_555
C14 C15 1_555 1_555
C15 H15 1_555 1_555
H16 C15 1_555 1_555
C16 C15 1_555 1_555
C17 C16 1_555 1_555
H17 C17 1_555 1_555
C18 C17 1_555 1_555
C19 C18 1_555 1_555
H18 C19 1_555 1_555
C20 C19 1_555 1_555
H19 C20 1_555 1_555
C21 C13 1_555 1_555
C22 C14 1_555 1_555
H20 C22 1_555 1_555
H21 C22 1_555 1_555
H22 C22 1_555 1_555
C23 C14 1_555 1_555
H23 C23 1_555 1_555
H24 C23 1_555 1_555
H25 C23 1_555 1_555
C24 C18 1_555 1_555
H26 C24 1_555 1_555
H27 C24 1_555 1_555
H28 C24 1_555 1_555
O5 C25 1_555 1_555
C25 O6 1_555 1_555
O6 C26 1_555 1_555
C26 C27 1_555 1_555
C27 H29 1_555 1_555
H30 C27 1_555 1_555
C28 C27 1_555 1_555
C29 C28 1_555 1_555
H31 C29 1_555 1_555
C30 C29 1_555 1_555
C31 C30 1_555 1_555
H32 C31 1_555 1_555
C32 C31 1_555 1_555
H33 C32 1_555 1_555
C33 C25 1_555 1_555
C34 C26 1_555 1_555
H34 C34 1_555 1_555
H35 C34 1_555 1_555
H36 C34 1_555 1_555
C35 C26 1_555 1_555
H37 C35 1_555 1_555
H38 C35 1_555 1_555
H39 C35 1_555 1_555
C36 C30 1_555 1_555
H40 C36 1_555 1_555
H41 C36 1_555 1_555
H42 C36 1_555 1_555
C4 C9 1_555 1_555
C8 C9 1_555 1_555
C16 C21 1_555 1_555
C20 C21 1_555 1_555
C28 C33 1_555 1_555
C32 C33 1_555 1_555

#END
