
#######################################################################
#
#                 Cambridge Crystallographic Data Centre
#                                CCDC 
#
#######################################################################
#
# If this CIF has been generated from an entry in the Cambridge 
# Structural Database, then it will include bibliographic, chemical, 
# crystal, experimental, refinement or atomic coordinate data resulting 
# from the CCDC's data processing and validation procedures.
#
#######################################################################

data_GOKVAD
_chemical_name_common            
6-Chloromethyl-7-(2,2,2-trichloroethyl)breksane
_chemical_formula_moiety         'C12 H16 Cl4'
_chemical_name_systematic        
6-Chloromethyl-7-(2,2,2-trichloroethyl)-tricyclo(5.2.0^1,6^.0^3,7^)nonane
_symmetry_cell_setting           orthorhombic
_symmetry_space_group_name_H-M   'P c a 21'
_symmetry_Int_Tables_number      29
_space_group_name_Hall           'P 2c -2ac'
loop_
_symmetry_equiv_pos_site_id
_symmetry_equiv_pos_as_xyz
1 x,y,z
2 -x,-y,1/2+z
3 1/2-x,y,1/2+z
4 1/2+x,-y,z
_cell_length_a                   9.3563(3)
_cell_length_b                   10.8761(7)
_cell_length_c                   13.3541(9)
_cell_angle_alpha                90
_cell_angle_beta                 90
_cell_angle_gamma                90
_cell_volume                     1358.91
_cell_formula_units_Z            4
loop_
_atom_site_label
_atom_site_type_symbol
_atom_site_fract_x
_atom_site_fract_y
_atom_site_fract_z
Cl1 Cl -0.3991(1) 0.6281(2) 0.5385(1)
Cl2 Cl 0.1640(2) 0.8048(1) 0.1970(1)
Cl3 Cl 0.3156(1) 0.7029(1) 0.3649(1)
Cl4 Cl 0.1975(2) 0.5423(1) 0.2162(1)
C1 C -0.1693(4) 0.8563(4) 0.5295(3)
C2 C -0.1088(5) 0.9652(4) 0.4693(4)
C3 C -0.0436(5) 0.9011(4) 0.3765(4)
C4 C -0.1658(5) 0.8866(4) 0.3008(3)
C5 C -0.2690(5) 0.8008(4) 0.3568(4)
C6 C -0.1805(4) 0.7552(4) 0.4481(3)
C7 C -0.0209(4) 0.7687(3) 0.4155(3)
C8 C 0.0617(5) 0.7672(4) 0.5168(3)
C9 C -0.0479(5) 0.8112(5) 0.5952(3)
C10 C -0.2225(5) 0.6280(4) 0.4822(4)
C11 C 0.0254(4) 0.6687(3) 0.3418(3)
C12 C 0.1659(4) 0.6826(4) 0.2848(3)
loop_
_geom_bond_atom_site_label_1
_geom_bond_atom_site_label_2
_geom_bond_site_symmetry_1
_geom_bond_site_symmetry_2
Cl1 C10 1_555 1_555
Cl2 C12 1_555 1_555
Cl3 C12 1_555 1_555
Cl4 C12 1_555 1_555
C1 C2 1_555 1_555
C2 C3 1_555 1_555
C3 C4 1_555 1_555
C4 C5 1_555 1_555
C5 C6 1_555 1_555
C6 C1 1_555 1_555
C7 C3 1_555 1_555
C8 C7 1_555 1_555
C9 C1 1_555 1_555
C10 C6 1_555 1_555
C11 C7 1_555 1_555
C12 C11 1_555 1_555
C6 C7 1_555 1_555
C8 C9 1_555 1_555

#END
