
#######################################################################
#
#                 Cambridge Crystallographic Data Centre
#                                CCDC 
#
#######################################################################
#
# If this CIF has been generated from an entry in the Cambridge 
# Structural Database, then it will include bibliographic, chemical, 
# crystal, experimental, refinement or atomic coordinate data resulting 
# from the CCDC's data processing and validation procedures.
#
#######################################################################

data_GOLBUG
_chemical_formula_moiety         'C8 H8 O4 S1'
_chemical_name_systematic        'Dimethyl thiophene-2,5-dicarboxylate'
_symmetry_cell_setting           monoclinic
_symmetry_space_group_name_H-M   'C 2/c'
_symmetry_Int_Tables_number      15
_space_group_name_Hall           '-C 2yn'
loop_
_symmetry_equiv_pos_site_id
_symmetry_equiv_pos_as_xyz
1 x,y,z
2 -x,y,1/2-z
3 1/2+x,1/2+y,z
4 1/2-x,1/2+y,1/2-z
5 -x,-y,-z
6 x,-y,1/2+z
7 1/2-x,1/2-y,-z
8 1/2+x,1/2-y,1/2+z
_cell_length_a                   20.4246(19)
_cell_length_b                   6.0483(6)
_cell_length_c                   7.5282(7)
_cell_angle_alpha                90
_cell_angle_beta                 105.985(10)
_cell_angle_gamma                90
_cell_volume                     894.03
_cell_formula_units_Z            4
loop_
_atom_site_label
_atom_site_type_symbol
_atom_site_fract_x
_atom_site_fract_y
_atom_site_fract_z
S1 S 1.0000 0.25900(10) 0.2500
O1 O 1.12829(6) 0.3359(2) 0.51916(16)
O2 O 1.16539(6) -0.0140(3) 0.5610(2)
C1 C 1.03288(8) -0.1482(3) 0.3124(2)
H1 H 1.0570 -0.2759 0.3581
C2 C 1.12272(8) 0.1176(3) 0.4898(2)
C3 C 1.05696(7) 0.0608(3) 0.3583(2)
C4 C 1.18932(10) 0.4107(4) 0.6538(3)
H2 H 1.2282 0.3815 0.6092
H3 H 1.1942 0.3337 0.7682
H4 H 1.1861 0.5667 0.6735
O1A O 0.87171(6) 0.3359(2) -0.01916(16)
O2A O 0.83461(6) -0.0140(3) -0.0610(2)
C1A C 0.96712(8) -0.1482(3) 0.1876(2)
H1A H 0.9430 -0.2759 0.1419
C2A C 0.87728(8) 0.1176(3) 0.0102(2)
C3A C 0.94304(7) 0.0608(3) 0.1417(2)
C4A C 0.81068(10) 0.4107(4) -0.1538(3)
H2A H 0.7718 0.3815 -0.1092
H3A H 0.8058 0.3337 -0.2682
H4A H 0.8139 0.5667 -0.1735
loop_
_geom_bond_atom_site_label_1
_geom_bond_atom_site_label_2
_geom_bond_site_symmetry_1
_geom_bond_site_symmetry_2
S1 C3 1_555 1_555
O1 C2 1_555 1_555
O2 C2 1_555 1_555
C1 H1 1_555 1_555
C2 C3 1_555 1_555
C3 C1 1_555 1_555
C4 O1 1_555 1_555
H2 C4 1_555 1_555
H3 C4 1_555 1_555
H4 C4 1_555 1_555
O1A C2A 1_555 1_555
O2A C2A 1_555 1_555
C1A C1 1_555 1_555
H1A C1A 1_555 1_555
C2A C3A 1_555 1_555
C3A S1 1_555 1_555
C4A O1A 1_555 1_555
H2A C4A 1_555 1_555
H3A C4A 1_555 1_555
H4A C4A 1_555 1_555
C1A C3A 1_555 1_555

#END
