
#######################################################################
#
#                 Cambridge Crystallographic Data Centre
#                                CCDC 
#
#######################################################################
#
# If this CIF has been generated from an entry in the Cambridge 
# Structural Database, then it will include bibliographic, chemical, 
# crystal, experimental, refinement or atomic coordinate data resulting 
# from the CCDC's data processing and validation procedures.
#
#######################################################################

data_GOLHEU
_chemical_formula_moiety         'C16 H22 O5'
_chemical_name_systematic        
(3aR*,6aR*,9aR*,9bR*)-Spiro[(1',3'-dioxolane)-2',6-(decahydro-8,8-dimethyl-9-oxoazuleno[4,5-c]furan-1(3H)-one)]
_symmetry_cell_setting           monoclinic
_symmetry_space_group_name_H-M   'P 21/n'
_symmetry_Int_Tables_number      14
_space_group_name_Hall           '-P 2yn'
loop_
_symmetry_equiv_pos_site_id
_symmetry_equiv_pos_as_xyz
1 x,y,z
2 1/2-x,1/2+y,1/2-z
3 -x,-y,-z
4 1/2+x,1/2-y,1/2+z
_cell_length_a                   10.715(1)
_cell_length_b                   9.426(1)
_cell_length_c                   29.529(1)
_cell_angle_alpha                90
_cell_angle_beta                 93.82(1)
_cell_angle_gamma                90
_cell_volume                     2975.79
_exptl_crystal_colour            colorless
_exptl_crystal_description       prism
_cell_formula_units_Z            8
loop_
_atom_site_label
_atom_site_type_symbol
_atom_site_fract_x
_atom_site_fract_y
_atom_site_fract_z
O1 O -0.81199(19) -0.46499(20) -0.00948(6)
C1 C -0.74990(24) -0.36942(26) -0.02204(7)
O2 O -0.76433(18) -0.23450(19) -0.00668(6)
C2 C -0.68112(25) -0.14090(25) -0.02984(8)
H1 H -0.72158(25) -0.05171(25) -0.03645(8)
H2 H -0.60566(25) -0.12516(25) -0.01112(8)
C3 C -0.75709(19) -0.19389(21) -0.11104(7)
H3 H -0.82865(19) -0.24871(21) -0.10385(7)
H4 H -0.77816(19) -0.09489(21) -0.11121(7)
C4 C -0.72225(20) -0.23533(21) -0.15845(7)
H5 H -0.64066(20) -0.19743(21) -0.16262(7)
H6 H -0.78200(20) -0.19326(21) -0.18011(7)
C5 C -0.71881(17) -0.39382(21) -0.16780(6)
C6 C -0.59906(18) -0.62626(20) -0.15303(6)
H7 H -0.54712(18) -0.62678(20) -0.17829(6)
H8 H -0.67709(18) -0.67214(20) -0.16158(6)
C7 C -0.53292(17) -0.70093(20) -0.11192(6)
C8 C -0.58545(17) -0.62456(19) -0.07204(6)
O3 O -0.56667(16) -0.65945(17) -0.03279(5)
C9 C -0.66079(16) -0.49587(18) -0.08840(5)
H9 H -0.74990(16) -0.50818(18) -0.08970(5)
C10 C -0.62203(16) -0.47335(19) -0.13722(5)
H10 H -0.54984(16) -0.41333(19) -0.13806(5)
C11 C -0.64816(18) -0.37116(20) -0.05509(6)
H11 H -0.56538(18) -0.39201(20) -0.04239(6)
C12 C -0.65348(19) -0.21874(20) -0.07329(7)
H12 H -0.58019(19) -0.19015(20) -0.08793(7)
O4 O -0.83831(12) -0.45563(15) -0.16325(5)
C13 C -0.90533(22) -0.44320(29) -0.20622(8)
H13 H -0.96377(22) -0.51976(29) -0.21112(8)
H14 H -0.94911(22) -0.35440(29) -0.20874(8)
C14 C -0.80534(27) -0.44757(43) -0.23889(9)
H15 H -0.82227(27) -0.38123(43) -0.26320(9)
H16 H -0.80007(27) -0.54160(43) -0.25111(9)
O5 O -0.69280(14) -0.41437(18) -0.21423(4)
C15 C -0.39211(19) -0.67121(25) -0.10885(8)
H17 H -0.35395(19) -0.71795(25) -0.13329(8)
H18 H -0.35478(19) -0.70479(25) -0.08040(8)
H19 H -0.37961(19) -0.57067(25) -0.11107(8)
C16 C -0.55776(24) -0.86025(23) -0.11049(9)
H20 H -0.52302(24) -0.90591(23) -0.13584(9)
H21 H -0.64644(24) -0.87599(23) -0.11180(9)
H22 H -0.52021(24) -0.89887(23) -0.08275(9)
O6 O 0.40178(15) 0.88412(23) 0.21336(5)
C17 C 0.30926(20) 0.93059(26) 0.22824(7)
O7 O 0.28022(15) 0.90018(19) 0.27113(5)
C18 C 0.15771(22) 0.96031(28) 0.27832(7)
H23 H 0.11134(22) 0.89838(28) 0.29680(7)
H24 H 0.16638(22) 1.05156(28) 0.29262(7)
C19 C 0.03700(19) 0.83431(23) 0.21393(7)
H25 H 0.10484(19) 0.77343(23) 0.20685(7)
H26 H -0.00637(19) 0.79341(23) 0.23818(7)
C20 C -0.05354(18) 0.84185(23) 0.17157(7)
H27 H -0.11248(18) 0.91600(23) 0.17657(7)
H28 H -0.09685(18) 0.75294(23) 0.16817(7)
C21 C 0.00578(16) 0.87325(19) 0.12714(6)
C22 C 0.10759(18) 1.06262(21) 0.07961(6)
H29 H 0.14258(18) 0.98456(21) 0.06386(6)
H30 H 0.03506(18) 1.09760(21) 0.06228(6)
C23 C 0.20512(18) 1.18077(22) 0.08794(7)
C24 C 0.27271(18) 1.13595(21) 0.13276(7)
O8 O 0.36667(14) 1.19018(18) 0.14959(5)
C25 C 0.20231(16) 1.01498(19) 0.15350(6)
H31 H 0.23906(16) 0.92281(19) 0.15061(6)
C26 C 0.07424(16) 1.01507(19) 0.12688(6)
H32 H 0.01610(16) 1.07786(19) 0.14004(6)
C27 C 0.20711(18) 1.02167(22) 0.20541(6)
H33 H 0.21800(18) 1.12244(22) 0.20827(6)
C28 C 0.09365(19) 0.97475(23) 0.23071(6)
H34 H 0.02249(19) 1.03650(23) 0.22684(6)
O9 O 0.08945(12) 0.76414(14) 0.11611(5)
C29 C 0.02485(21) 0.67135(22) 0.08428(8)
H35 H 0.08170(21) 0.62623(22) 0.06503(8)
H36 H -0.02059(21) 0.60031(22) 0.09968(8)
C30 C -0.06515(22) 0.76961(23) 0.05879(7)
H37 H -0.13878(22) 0.72109(23) 0.04670(7)
H38 H -0.02463(22) 0.81441(23) 0.03453(7)
O10 O -0.09434(12) 0.87227(15) 0.09232(5)
C31 C 0.14141(25) 1.32316(25) 0.09582(11)
H39 H 0.09699(25) 1.35485(25) 0.06837(11)
H40 H 0.20394(25) 1.39187(25) 0.10529(11)
H41 H 0.08387(25) 1.31210(25) 0.11913(11)
C32 C 0.29682(23) 1.19462(32) 0.05070(8)
H42 H 0.25293(23) 1.22247(32) 0.02271(8)
H43 H 0.33585(23) 1.10414(32) 0.04685(8)
H44 H 0.35962(23) 1.26405(32) 0.05920(8)
loop_
_geom_bond_atom_site_label_1
_geom_bond_atom_site_label_2
_geom_bond_site_symmetry_1
_geom_bond_site_symmetry_2
O1 C1 1_555 1_555
C1 O2 1_555 1_555
O2 C2 1_555 1_555
C2 H1 1_555 1_555
H2 C2 1_555 1_555
C3 H3 1_555 1_555
H4 C3 1_555 1_555
C4 C3 1_555 1_555
H5 C4 1_555 1_555
H6 C4 1_555 1_555
C5 C4 1_555 1_555
C6 H7 1_555 1_555
H8 C6 1_555 1_555
C7 C6 1_555 1_555
C8 C7 1_555 1_555
O3 C8 1_555 1_555
C9 C8 1_555 1_555
H9 C9 1_555 1_555
C10 C5 1_555 1_555
H10 C10 1_555 1_555
C11 C1 1_555 1_555
H11 C11 1_555 1_555
C12 C2 1_555 1_555
H12 C12 1_555 1_555
O4 C5 1_555 1_555
C13 O4 1_555 1_555
H13 C13 1_555 1_555
H14 C13 1_555 1_555
C14 C13 1_555 1_555
H15 C14 1_555 1_555
H16 C14 1_555 1_555
O5 C5 1_555 1_555
C15 C7 1_555 1_555
H17 C15 1_555 1_555
H18 C15 1_555 1_555
H19 C15 1_555 1_555
C16 C7 1_555 1_555
H20 C16 1_555 1_555
H21 C16 1_555 1_555
H22 C16 1_555 1_555
O6 C17 1_555 1_555
C17 O7 1_555 1_555
O7 C18 1_555 1_555
C18 H23 1_555 1_555
H24 C18 1_555 1_555
C19 H25 1_555 1_555
H26 C19 1_555 1_555
C20 C19 1_555 1_555
H27 C20 1_555 1_555
H28 C20 1_555 1_555
C21 C20 1_555 1_555
C22 H29 1_555 1_555
H30 C22 1_555 1_555
C23 C22 1_555 1_555
C24 C23 1_555 1_555
O8 C24 1_555 1_555
C25 C24 1_555 1_555
H31 C25 1_555 1_555
C26 C21 1_555 1_555
H32 C26 1_555 1_555
C27 C17 1_555 1_555
H33 C27 1_555 1_555
C28 C18 1_555 1_555
H34 C28 1_555 1_555
O9 C21 1_555 1_555
C29 O9 1_555 1_555
H35 C29 1_555 1_555
H36 C29 1_555 1_555
C30 C29 1_555 1_555
H37 C30 1_555 1_555
H38 C30 1_555 1_555
O10 C21 1_555 1_555
C31 C23 1_555 1_555
H39 C31 1_555 1_555
H40 C31 1_555 1_555
H41 C31 1_555 1_555
C32 C23 1_555 1_555
H42 C32 1_555 1_555
H43 C32 1_555 1_555
H44 C32 1_555 1_555
C3 C12 1_555 1_555
C6 C10 1_555 1_555
C9 C10 1_555 1_555
C9 C11 1_555 1_555
C11 C12 1_555 1_555
C14 O5 1_555 1_555
C19 C28 1_555 1_555
C22 C26 1_555 1_555
C25 C26 1_555 1_555
C25 C27 1_555 1_555
C27 C28 1_555 1_555
C30 O10 1_555 1_555

#END
