
#######################################################################
#
#                 Cambridge Crystallographic Data Centre
#                                CCDC 
#
#######################################################################
#
# If this CIF has been generated from an entry in the Cambridge 
# Structural Database, then it will include bibliographic, chemical, 
# crystal, experimental, refinement or atomic coordinate data resulting 
# from the CCDC's data processing and validation procedures.
#
#######################################################################

data_GOLJEX
_chemical_formula_moiety         'C13 H23 N3 O4'
_chemical_name_systematic        
't-Butyl 3-carbamoyl-4-methoxyimino-3-methylpiperidine-1-carboxylate'
_symmetry_cell_setting           triclinic
_symmetry_space_group_name_H-M   'P -1'
_symmetry_Int_Tables_number      2
_space_group_name_Hall           '-P 1'
loop_
_symmetry_equiv_pos_site_id
_symmetry_equiv_pos_as_xyz
1 x,y,z
2 -x,-y,-z
_cell_length_a                   7.3750(14)
_cell_length_b                   10.0132(16)
_cell_length_c                   11.3383(18)
_cell_angle_alpha                79.5710(10)
_cell_angle_beta                 73.0340(10)
_cell_angle_gamma                84.973(2)
_cell_volume                     787.093
_exptl_crystal_colour            colorless
_exptl_crystal_description       block
_chemical_melting_point          126-127deg.C
_cell_formula_units_Z            2
_exptl_crystal_recrystallization_method 'ethyl acetate'
loop_
_atom_site_label
_atom_site_type_symbol
_atom_site_fract_x
_atom_site_fract_y
_atom_site_fract_z
N1 N 0.3951(3) 0.3430(2) 0.4995(2)
N2 N 0.0625(3) 0.1810(2) 0.4744(2)
H1 H 0.0302 0.1251 0.4355
H2 H 0.0918 0.2623 0.4374
N3 N 0.1916(3) 0.1524(2) 0.8514(2)
O1 O 0.6155(3) 0.3495(2) 0.31633(18)
O2 O 0.3110(3) 0.4119(2) 0.32090(19)
O3 O 0.0266(4) 0.0264(2) 0.6479(2)
O4 O 0.3333(3) 0.0907(2) 0.90663(17)
C1 C 0.4323(4) 0.3706(3) 0.3737(3)
C2 C 0.2080(4) 0.3727(3) 0.5782(3)
H3 H 0.1290 0.4149 0.5257
H4 H 0.2180 0.4373 0.6301
C3 C 0.1121(4) 0.2457(3) 0.6625(2)
C4 C 0.2516(4) 0.1757(3) 0.7326(2)
C5 C 0.4480(4) 0.1488(3) 0.6534(3)
H5 H 0.4454 0.0802 0.6036
H6 H 0.5289 0.1142 0.7067
C6 C 0.5292(4) 0.2785(3) 0.5672(3)
H7 H 0.5545 0.3409 0.6163
H8 H 0.6480 0.2567 0.5082
C7 C 0.0673(4) 0.1420(3) 0.5911(3)
C8 C -0.0772(4) 0.2898(3) 0.7492(3)
H9 H -0.1396 0.2111 0.8017
H10 H -0.1565 0.3366 0.6999
H11 H -0.0538 0.3494 0.8003
C9 C 0.2502(5) 0.0608(4) 1.0379(3)
H12 H 0.2237 0.1438 1.0719
H13 H 0.3364 0.0036 1.0756
H14 H 0.1342 0.0148 1.0548
C10 C 0.6835(5) 0.3554(3) 0.1795(3)
C11 C 0.5789(7) 0.2537(4) 0.1411(4)
H15 H 0.5946 0.1648 0.1865
H16 H 0.6297 0.2525 0.0530
H17 H 0.4464 0.2796 0.1594
C12 C 0.6609(5) 0.4976(3) 0.1139(3)
H18 H 0.5286 0.5235 0.1307
H19 H 0.7158 0.5015 0.0255
H20 H 0.7241 0.5588 0.1436
C13 C 0.8911(6) 0.3152(5) 0.1616(4)
H21 H 0.9503 0.3801 0.1898
H22 H 0.9521 0.3132 0.0746
H23 H 0.9025 0.2267 0.2090
loop_
_geom_bond_atom_site_label_1
_geom_bond_atom_site_label_2
_geom_bond_site_symmetry_1
_geom_bond_site_symmetry_2
N1 C1 1_555 1_555
N2 H1 1_555 1_555
H2 N2 1_555 1_555
N3 O4 1_555 1_555
O1 C1 1_555 1_555
O2 C1 1_555 1_555
O3 C7 1_555 1_555
O4 C9 1_555 1_555
C2 N1 1_555 1_555
H3 C2 1_555 1_555
H4 C2 1_555 1_555
C3 C2 1_555 1_555
C4 N3 1_555 1_555
C5 C4 1_555 1_555
H5 C5 1_555 1_555
H6 C5 1_555 1_555
C6 N1 1_555 1_555
H7 C6 1_555 1_555
H8 C6 1_555 1_555
C7 N2 1_555 1_555
C8 C3 1_555 1_555
H9 C8 1_555 1_555
H10 C8 1_555 1_555
H11 C8 1_555 1_555
C9 H12 1_555 1_555
H13 C9 1_555 1_555
H14 C9 1_555 1_555
C10 O1 1_555 1_555
C11 C10 1_555 1_555
H15 C11 1_555 1_555
H16 C11 1_555 1_555
H17 C11 1_555 1_555
C12 C10 1_555 1_555
H18 C12 1_555 1_555
H19 C12 1_555 1_555
H20 C12 1_555 1_555
C13 C10 1_555 1_555
H21 C13 1_555 1_555
H22 C13 1_555 1_555
H23 C13 1_555 1_555
C3 C4 1_555 1_555
C3 C7 1_555 1_555
C5 C6 1_555 1_555

#END
