
#######################################################################
#
#                 Cambridge Crystallographic Data Centre
#                                CCDC 
#
#######################################################################
#
# If this CIF has been generated from an entry in the Cambridge 
# Structural Database, then it will include bibliographic, chemical, 
# crystal, experimental, refinement or atomic coordinate data resulting 
# from the CCDC's data processing and validation procedures.
#
#######################################################################

data_GOMGOF
_chemical_formula_moiety         'C32 H26 N5 1+,Br1 1-,H2 O1'
_chemical_name_systematic        
'1,3-bis(1-Benzylpyridinium-2-ylimino)isoindolinide bromide monohydrate'
_symmetry_cell_setting           triclinic
_symmetry_space_group_name_H-M   'P -1'
_symmetry_Int_Tables_number      2
_space_group_name_Hall           '-P 1'
loop_
_symmetry_equiv_pos_site_id
_symmetry_equiv_pos_as_xyz
1 x,y,z
2 -x,-y,-z
_cell_length_a                   4.9090(2)
_cell_length_b                   15.840(1)
_cell_length_c                   18.193(1)
_cell_angle_alpha                79.119(3)
_cell_angle_beta                 87.749(5)
_cell_angle_gamma                86.756(5)
_cell_volume                     1386.41
_exptl_crystal_colour            orange
_exptl_crystal_description       prism
_cell_formula_units_Z            2
_exptl_crystal_recrystallization_method dimethylsulfoxide
loop_
_atom_site_label
_atom_site_type_symbol
_atom_site_fract_x
_atom_site_fract_y
_atom_site_fract_z
Br1 Br 0.49724(10) 0.18445(3) 0.10987(3)
O1 O 0.9914(8) 0.3137(2) 0.0274(2)
N1 N -0.1063(6) 0.94762(17) 0.17586(16)
N2 N -0.2800(6) 0.81616(18) 0.22279(16)
N3 N -0.0780(6) 0.67656(17) 0.21077(15)
N4 N -0.0014(6) 0.52229(17) 0.24209(15)
N5 N 0.2764(6) 0.43182(17) 0.18279(15)
C1 C -0.1153(8) 0.8629(2) 0.16993(19)
C2 C 0.0372(9) 0.8365(2) 0.1104(2)
H1 H 0.0245 0.7770 0.1041
C3 C 0.2001(10) 0.8923(3) 0.0645(2)
H2 H 0.2969 0.8657 0.0291
C4 C 0.2109(10) 0.9760(3) 0.0753(2)
H3 H 0.3028 1.0228 0.0422
C5 C 0.0519(9) 1.0024(2) 0.1300(2)
H4 H 0.0452 1.0613 0.1389
C6 C -0.2689(8) 0.9813(2) 0.2363(2)
H5 H -0.4430 0.9446 0.2498
H6 H -0.3127 1.0379 0.2196
C7 C -0.1098(8) 0.9726(2) 0.3065(2)
C8 C 0.0760(9) 1.0324(3) 0.3152(3)
H7 H 0.1093 1.0820 0.2754
C9 C 0.2218(10) 1.0230(3) 0.3806(3)
H8 H 0.3134 1.0710 0.3892
C10 C 0.1791(10) 0.9549(3) 0.4379(3)
H9 H 0.3121 0.9539 0.4788
C11 C -0.0047(10) 0.8965(3) 0.4309(2)
H10 H -0.0341 0.8447 0.4782
C12 C -0.1481(8) 0.9046(2) 0.3653(2)
H11 H -0.2904 0.8613 0.3637
C13 C -0.2557(7) 0.7320(2) 0.23946(19)
C14 C -0.4297(7) 0.6855(2) 0.30053(19)
C15 C -0.6364(8) 0.7129(3) 0.3451(2)
H12 H -0.6770 0.7812 0.3407
C16 C -0.7504(9) 0.6503(3) 0.3999(2)
H13 H -0.9091 0.6686 0.4322
C17 C -0.6600(9) 0.5648(3) 0.4086(2)
H14 H -0.7716 0.5214 0.4447
C18 C -0.4527(8) 0.5376(3) 0.3632(2)
H15 H -0.3976 0.4717 0.3628
C19 C -0.3398(7) 0.5996(2) 0.30856(18)
C20 C -0.1203(7) 0.5963(2) 0.25022(18)
C21 C 0.2013(7) 0.5152(2) 0.18974(18)
C22 C 0.3468(8) 0.5803(2) 0.14485(19)
H16 H 0.3090 0.6411 0.1492
C23 C 0.5528(8) 0.5616(2) 0.0965(2)
H17 H 0.6540 0.6100 0.0668
C24 C 0.6213(8) 0.4764(2) 0.0916(2)
H18 H 0.7720 0.4621 0.0620
C25 C 0.4780(8) 0.4138(2) 0.1343(2)
H19 H 0.5279 0.3593 0.1315
C26 C 0.1345(8) 0.3575(2) 0.2282(2)
H20 H 0.1300 0.3117 0.1959
H21 H -0.0549 0.3736 0.2429
C27 C 0.2765(7) 0.3221(2) 0.3007(2)
C28 C 0.4841(9) 0.2590(2) 0.3042(2)
H22 H 0.5171 0.2449 0.2599
C29 C 0.6124(9) 0.2269(3) 0.3704(3)
H23 H 0.7702 0.1824 0.3749
C30 C 0.5323(10) 0.2567(3) 0.4345(3)
H24 H 0.6440 0.2344 0.4829
C31 C 0.3274(9) 0.3189(3) 0.4324(2)
H25 H 0.2601 0.3446 0.4809
C32 C 0.1971(9) 0.3517(2) 0.3656(2)
H26 H 0.0445 0.3994 0.3703
loop_
_geom_bond_atom_site_label_1
_geom_bond_atom_site_label_2
_geom_bond_site_symmetry_1
_geom_bond_site_symmetry_2
N1 C1 1_555 1_555
N2 C1 1_555 1_555
N3 C13 1_555 1_555
N4 C20 1_555 1_555
N5 C21 1_555 1_555
C1 C2 1_555 1_555
C2 H1 1_555 1_555
C3 C2 1_555 1_555
H2 C3 1_555 1_555
C4 C3 1_555 1_555
H3 C4 1_555 1_555
C5 N1 1_555 1_555
H4 C5 1_555 1_555
C6 N1 1_555 1_555
H5 C6 1_555 1_555
H6 C6 1_555 1_555
C7 C6 1_555 1_555
C8 C7 1_555 1_555
H7 C8 1_555 1_555
C9 C8 1_555 1_555
H8 C9 1_555 1_555
C10 C9 1_555 1_555
H9 C10 1_555 1_555
C11 C10 1_555 1_555
H10 C11 1_555 1_555
C12 C7 1_555 1_555
H11 C12 1_555 1_555
C13 N2 1_555 1_555
C14 C13 1_555 1_555
C15 C14 1_555 1_555
H12 C15 1_555 1_555
C16 C15 1_555 1_555
H13 C16 1_555 1_555
C17 C16 1_555 1_555
H14 C17 1_555 1_555
C18 C17 1_555 1_555
H15 C18 1_555 1_555
C19 C14 1_555 1_555
C20 N3 1_555 1_555
C21 N4 1_555 1_555
C22 C21 1_555 1_555
H16 C22 1_555 1_555
C23 C22 1_555 1_555
H17 C23 1_555 1_555
C24 C23 1_555 1_555
H18 C24 1_555 1_555
C25 N5 1_555 1_555
H19 C25 1_555 1_555
C26 N5 1_555 1_555
H20 C26 1_555 1_555
H21 C26 1_555 1_555
C27 C26 1_555 1_555
C28 C27 1_555 1_555
H22 C28 1_555 1_555
C29 C28 1_555 1_555
H23 C29 1_555 1_555
C30 C29 1_555 1_555
H24 C30 1_555 1_555
C31 C30 1_555 1_555
H25 C31 1_555 1_555
C32 C27 1_555 1_555
H26 C32 1_555 1_555
C4 C5 1_555 1_555
C11 C12 1_555 1_555
C18 C19 1_555 1_555
C19 C20 1_555 1_555
C24 C25 1_555 1_555
C31 C32 1_555 1_555

#END
