
#######################################################################
#
#                 Cambridge Crystallographic Data Centre
#                                CCDC 
#
#######################################################################
#
# If this CIF has been generated from an entry in the Cambridge 
# Structural Database, then it will include bibliographic, chemical, 
# crystal, experimental, refinement or atomic coordinate data resulting 
# from the CCDC's data processing and validation procedures.
#
#######################################################################

data_GOMKOI
_chemical_formula_moiety         'C19 H22 N6,C4 H8 O1'
_chemical_name_systematic        
'bis(2-Aminopyrimidin-5-yl)-(adamantan-2-ylidene)methane butan-2-one solvate'
_symmetry_cell_setting           orthorhombic
_symmetry_space_group_name_H-M   'P n m a'
_symmetry_Int_Tables_number      62
_space_group_name_Hall           '-P 2ac 2n'
loop_
_symmetry_equiv_pos_site_id
_symmetry_equiv_pos_as_xyz
1 x,y,z
2 1/2+x,y,1/2-z
3 x,1/2-y,z
4 1/2-x,1/2+y,1/2+z
5 -x,-y,-z
6 1/2-x,-y,1/2+z
7 -x,1/2+y,-z
8 1/2+x,1/2-y,1/2-z
_cell_length_a                   16.0685(5)
_cell_length_b                   18.3670(5)
_cell_length_c                   7.543(1)
_cell_angle_alpha                90
_cell_angle_beta                 90
_cell_angle_gamma                90
_cell_volume                     2226.17
_exptl_crystal_colour            colorless
_exptl_crystal_description       prism
_chemical_melting_point          '289-290 deg.C'
_cell_formula_units_Z            4
loop_
_atom_site_label
_atom_site_type_symbol
_atom_site_fract_x
_atom_site_fract_y
_atom_site_fract_z
C13 C 0.5104(2) 0.0302(2) 0.0629(5)
O1 O 0.5331(3) 0.0902(2) 0.0154(6)
C14 C 0.5100(2) 0.0076(2) 0.2556(5)
H13 H 0.4903 -0.0410 0.2652
H14 H 0.5650 0.0104 0.3016
H15 H 0.4746 0.0391 0.3209
C13D C 0.4896(2) -0.0302(2) -0.0629(5)
O1D O 0.4669(3) -0.0902(2) -0.0154(6)
C14D C 0.4900(2) -0.0076(2) -0.2556(5)
H13D H 0.5097 0.0410 -0.2652
H14D H 0.4350 -0.0104 -0.3016
H15D H 0.5254 -0.0391 -0.3209
C1 C 0.5797(2) 0.2500 0.5183(5)
C2 C 0.6295(1) 0.1811(1) 0.5167(3)
C3 C 0.6618(2) 0.1503(1) 0.3639(3)
N1 N 0.7070(1) 0.0894(1) 0.3594(3)
C4 C 0.7207(2) 0.0569(1) 0.5166(3)
N2 N 0.6922(1) 0.0812(1) 0.6738(3)
C5 C 0.6474(2) 0.1426(1) 0.6694(3)
N3 N 0.7657(2) -0.0047(1) 0.5173(3)
C6 C 0.4963(2) 0.2500 0.5240(5)
C7 C 0.4434(2) 0.3183(1) 0.5231(4)
C8 C 0.3855(2) 0.3178(2) 0.6851(4)
C9 C 0.3307(2) 0.2500 0.6813(6)
C10 C 0.2782(3) 0.2500 0.5114(6)
C11 C 0.3358(3) 0.2500 0.3491(6)
C12 C 0.3903(2) 0.3181(2) 0.3533(4)
H1 H 0.6511 0.1743 0.2546
H2 H 0.6266 0.1609 0.7784
H3 H 0.7766 -0.0291 0.6259
H4 H 0.7867 -0.0239 0.4092
H5 H 0.4778 0.3603 0.5271
H6 H 0.3514 0.3600 0.6830
H7 H 0.4180 0.3178 0.7903
H8 H 0.2949 0.2500 0.7817
H9 H 0.2441 0.2078 0.5091
H10 H 0.3036 0.2500 0.2435
H11 H 0.4258 0.3184 0.2526
H12 H 0.3559 0.3602 0.3514
C2B C 0.6295(1) 0.3189(1) 0.5167(3)
C3B C 0.6618(2) 0.3497(1) 0.3639(3)
N1B N 0.7070(1) 0.4106(1) 0.3594(3)
C4B C 0.7207(2) 0.4431(1) 0.5166(3)
N2B N 0.6922(1) 0.4188(1) 0.6738(3)
C5B C 0.6474(2) 0.3574(1) 0.6694(3)
H2B H 0.6266 0.3391 0.7784
N3B N 0.7657(2) 0.5047(1) 0.5173(3)
H3B H 0.7766 0.5291 0.6259
H4B H 0.7867 0.5239 0.4092
H1B H 0.6511 0.3257 0.2546
C8B C 0.3855(2) 0.1822(2) 0.6851(4)
C7B C 0.4434(2) 0.1817(1) 0.5231(4)
C12B C 0.3903(2) 0.1819(2) 0.3533(4)
H9B H 0.2441 0.2922 0.5091
H11B H 0.4258 0.1816 0.2526
H12B H 0.3559 0.1398 0.3514
H5B H 0.4778 0.1397 0.5271
H6B H 0.3514 0.1400 0.6830
H7B H 0.4180 0.1822 0.7903
loop_
_geom_bond_atom_site_label_1
_geom_bond_atom_site_label_2
_geom_bond_site_symmetry_1
_geom_bond_site_symmetry_2
C1 C2 1_555 1_555
C2 C3 1_555 1_555
C3 N1 1_555 1_555
N1 C4 1_555 1_555
C4 N2 1_555 1_555
N2 C5 1_555 1_555
C5 C2 1_555 1_555
N3 C4 1_555 1_555
C6 C1 1_555 1_555
C7 C6 1_555 1_555
C8 C7 1_555 1_555
C9 C8 1_555 1_555
C10 C9 1_555 1_555
C11 C10 1_555 1_555
C12 C7 1_555 1_555
C13 O1 1_555 1_555
C14 C13 1_555 1_555
H1 C3 1_555 1_555
H2 C5 1_555 1_555
H3 N3 1_555 1_555
H4 N3 1_555 1_555
H5 C7 1_555 1_555
H6 C8 1_555 1_555
H7 C8 1_555 1_555
H8 C9 1_555 1_555
H9 C10 1_555 1_555
H10 C11 1_555 1_555
H11 C12 1_555 1_555
H12 C12 1_555 1_555
H13 C14 1_555 1_555
H14 C14 1_555 1_555
H15 C14 1_555 1_555
C2B C1 1_555 1_555
C3B C2B 1_555 1_555
N1B C3B 1_555 1_555
C4B N1B 1_555 1_555
N2B C4B 1_555 1_555
C5B C2B 1_555 1_555
H2B C5B 1_555 1_555
N3B C4B 1_555 1_555
H3B N3B 1_555 1_555
H4B N3B 1_555 1_555
H1B C3B 1_555 1_555
C8B C9 1_555 1_555
C7B C6 1_555 1_555
C12B C11 1_555 1_555
H9B C10 1_555 1_555
H11B C12B 1_555 1_555
H12B C12B 1_555 1_555
H5B C7B 1_555 1_555
H6B C8B 1_555 1_555
H7B C8B 1_555 1_555
C13D C13 1_555 1_555
O1D C13D 1_555 1_555
C14D C13D 1_555 1_555
H13D C14D 1_555 1_555
H14D C14D 1_555 1_555
H15D C14D 1_555 1_555
C11 C12 1_555 1_555
N2B C5B 1_555 1_555
C8B C7B 1_555 1_555
C7B C12B 1_555 1_555

#END
