
#######################################################################
#
#                 Cambridge Crystallographic Data Centre
#                                CCDC 
#
#######################################################################
#
# If this CIF has been generated from an entry in the Cambridge 
# Structural Database, then it will include bibliographic, chemical, 
# crystal, experimental, refinement or atomic coordinate data resulting 
# from the CCDC's data processing and validation procedures.
#
#######################################################################

data_GOMNAY
_chemical_formula_moiety         'C5 H4 Br1 N1 O3'
_chemical_name_systematic        2-bromomethyl-5-nitrofuran
_symmetry_cell_setting           orthorhombic
_symmetry_space_group_name_H-M   'P n a 21'
_symmetry_Int_Tables_number      33
_space_group_name_Hall           'P 2c -2n'
loop_
_symmetry_equiv_pos_site_id
_symmetry_equiv_pos_as_xyz
1 x,y,z
2 -x,-y,1/2+z
3 1/2+x,1/2-y,z
4 1/2-x,1/2+y,1/2+z
_cell_length_a                   7.637(3)
_cell_length_b                   15.950(3)
_cell_length_c                   5.5450(10)
_cell_angle_alpha                90
_cell_angle_beta                 90
_cell_angle_gamma                90
_cell_volume                     675.437
_exptl_crystal_colour            yellow
_exptl_crystal_description       prism
_cell_formula_units_Z            4
_exptl_crystal_recrystallization_method 'petroleum ether/ethyl acetate'
loop_
_atom_site_label
_atom_site_type_symbol
_atom_site_fract_x
_atom_site_fract_y
_atom_site_fract_z
Br1 Br 0.1789(2) 0.45558(8) 0.3727(5)
O1 O 0.4175(13) 0.6167(5) 0.4941(16)
O2 O 0.5836(17) 0.7223(7) 0.221(2)
O3 O 0.4849(16) 0.8289(5) 0.423(3)
N1 N 0.4986(16) 0.7541(6) 0.389(4)
C1 C 0.308(2) 0.4869(8) 0.664(3)
H1 H 0.2470 0.4655 0.8049
H2 H 0.4235 0.4619 0.6601
C2 C 0.324(2) 0.5785(8) 0.684(2)
C3 C 0.2786(19) 0.6343(7) 0.852(5)
H3 H 0.2245 0.6229 0.9988
C4 C 0.329(2) 0.7152(8) 0.764(2)
H4 H 0.3065 0.7670 0.8341
C5 C 0.417(2) 0.7001(8) 0.554(3)
loop_
_geom_bond_atom_site_label_1
_geom_bond_atom_site_label_2
_geom_bond_site_symmetry_1
_geom_bond_site_symmetry_2
Br1 C1 1_555 1_555
O1 C2 1_555 1_555
O2 N1 1_555 1_555
O3 N1 1_555 1_555
N1 C5 1_555 1_555
C1 H1 1_555 1_555
H2 C1 1_555 1_555
C2 C1 1_555 1_555
C3 C2 1_555 1_555
H3 C3 1_555 1_555
C4 C3 1_555 1_555
H4 C4 1_555 1_555
C5 O1 1_555 1_555
C4 C5 1_555 1_555

#END
