
#######################################################################
#
#                 Cambridge Crystallographic Data Centre
#                                CCDC 
#
#######################################################################
#
# If this CIF has been generated from an entry in the Cambridge 
# Structural Database, then it will include bibliographic, chemical, 
# crystal, experimental, refinement or atomic coordinate data resulting 
# from the CCDC's data processing and validation procedures.
#
#######################################################################

data_GONFIY
_chemical_name_common            'Monoxaisomaragdyrin hydrochloride'
_chemical_formula_moiety         'C39 H49 N4 O1 1+,Cl1 1-'
_chemical_name_systematic        
'16,20-Di-n-butyl-2,3,6,7,10,11,15,21-octamethyl-5-oxa-(22)pentaphyrin-(1.1.1.0.0) chloride'
_symmetry_cell_setting           monoclinic
_symmetry_space_group_name_H-M   'P 21/c'
_symmetry_Int_Tables_number      14
_space_group_name_Hall           '-P 2ybc'
loop_
_symmetry_equiv_pos_site_id
_symmetry_equiv_pos_as_xyz
1 x,y,z
2 -x,1/2+y,1/2-z
3 -x,-y,-z
4 x,1/2-y,1/2+z
_cell_length_a                   14.013(1)
_cell_length_b                   17.094(1)
_cell_length_c                   15.584(1)
_cell_angle_alpha                90
_cell_angle_beta                 114.382(4)
_cell_angle_gamma                90
_cell_volume                     3400.03
_exptl_crystal_colour            black
_exptl_crystal_description       prisms
_cell_formula_units_Z            4
loop_
_atom_site_label
_atom_site_type_symbol
_atom_site_fract_x
_atom_site_fract_y
_atom_site_fract_z
Cl1 Cl 0.17391(8) 0.49125(6) 0.34366(7)
N1 N 0.3605(3) 0.4179(2) 0.3050(2)
O1 O 0.1783(2) 0.3650(2) 0.1806(2)
N2 N 0.0192(3) 0.4604(2) 0.1262(3)
N3 N 0.0967(3) 0.6347(2) 0.2047(2)
N4 N 0.3479(3) 0.6020(2) 0.3339(2)
C1 C 0.4640(3) 0.4370(2) 0.3595(3)
C2 C 0.5223(3) 0.3678(2) 0.3680(3)
C3 C 0.4546(3) 0.3083(2) 0.3200(3)
C4 C 0.3529(3) 0.3395(2) 0.2821(3)
C5 C 0.2505(3) 0.3084(2) 0.2288(3)
C6 C 0.2020(3) 0.2377(2) 0.2186(3)
C7 C 0.0941(3) 0.2498(2) 0.1603(3)
C8 C 0.0821(3) 0.3288(2) 0.1401(3)
C9 C -0.0010(3) 0.3841(2) 0.0977(3)
C10 C -0.1051(3) 0.3802(2) 0.0281(3)
C11 C -0.1453(3) 0.4552(3) 0.0169(3)
C12 C -0.0676(3) 0.5058(2) 0.0788(3)
C13 C -0.0759(3) 0.5868(2) 0.0885(3)
C14 C -0.0074(3) 0.6438(2) 0.1404(3)
C15 C -0.0285(3) 0.7258(2) 0.1361(3)
C16 C 0.0584(3) 0.7643(2) 0.1975(3)
C17 C 0.1388(3) 0.7063(2) 0.2422(3)
C18 C 0.2403(3) 0.7233(2) 0.3065(3)
C19 C 0.3329(3) 0.6802(2) 0.3455(3)
C20 C 0.4335(3) 0.7134(2) 0.4021(3)
C21 C 0.5065(3) 0.6552(2) 0.4231(3)
C22 C 0.4542(3) 0.5832(2) 0.3833(3)
C23 C 0.5017(3) 0.5120(2) 0.3945(3)
C24 C 0.6395(3) 0.3615(3) 0.4183(3)
C25 C 0.4882(3) 0.2280(2) 0.3028(3)
C26 C 0.2495(4) 0.1631(2) 0.2695(3)
C27 C 0.0097(3) 0.1885(2) 0.1338(3)
C28 C -0.1608(3) 0.3089(3) -0.0257(3)
C29 C -0.2519(3) 0.4799(3) -0.0539(3)
C30 C -0.1304(3) 0.7631(3) 0.0728(3)
C31 C 0.0721(3) 0.8505(2) 0.2127(3)
C32 C 0.1094(4) 0.8898(2) 0.1452(3)
C33 C 0.1200(4) 0.9781(2) 0.1557(3)
C34 C 0.1532(4) 1.0158(3) 0.0840(3)
C35 C 0.4514(3) 0.7967(2) 0.4330(3)
C36 C 0.4540(4) 0.8551(2) 0.3609(3)
C37 C 0.4602(4) 0.9387(2) 0.3951(3)
C38 C 0.4601(4) 0.9993(3) 0.3260(4)
C39 C 0.6225(3) 0.6635(2) 0.4767(3)
H1 H -0.1448 0.6066 0.0510
H2 H 0.2482 0.7761 0.3295
H3 H 0.5753 0.5133 0.4346
H4 H 0.6609 0.3087 0.4148
H5 H 0.6713 0.3960 0.3891
H6 H 0.6611 0.3761 0.4832
H7 H 0.4345 0.2055 0.2476
H8 H 0.4982 0.1946 0.3554
H9 H 0.5523 0.2316 0.2947
H10 H 0.3237 0.1701 0.3042
H11 H 0.2184 0.1501 0.3121
H12 H 0.2369 0.1216 0.2246
H13 H -0.0566 0.2113 0.0943
H14 H 0.0260 0.1474 0.1001
H15 H 0.0061 0.1675 0.1895
H16 H -0.2305 0.3224 -0.0694
H17 H -0.1225 0.2884 -0.0595
H18 H -0.1641 0.2702 0.0176
H19 H -0.2904 0.4350 -0.0877
H20 H -0.2893 0.5046 -0.0218
H21 H -0.2437 0.5162 -0.0974
H22 H -0.1257 0.8187 0.0823
H23 H -0.1451 0.7517 0.0082
H24 H -0.1856 0.7427 0.0877
H25 H 0.1215 0.8606 0.2762
H26 H 0.0062 0.8733 0.2043
H27 H 0.0617 0.8772 0.0819
H28 H 0.1767 0.8684 0.1557
H29 H 0.1694 0.9907 0.2184
H30 H 0.0532 0.9994 0.1472
H31 H 0.1582 1.0715 0.0926
H32 H 0.2205 0.9951 0.0932
H33 H 0.1032 1.0038 0.0213
H34 H 0.5155 0.8006 0.4887
H35 H 0.3951 0.8122 0.4493
H36 H 0.3934 0.8482 0.3026
H37 H 0.5154 0.8447 0.3499
H38 H 0.5216 0.9451 0.4527
H39 H 0.3999 0.9476 0.4082
H40 H 0.4622 1.0511 0.3505
H41 H 0.5209 0.9910 0.3135
H42 H 0.3982 0.9935 0.2686
H43 H 0.6393 0.7165 0.4977
H44 H 0.6477 0.6290 0.5300
H45 H 0.6550 0.6503 0.4351
H46 H 0.306(4) 0.445(3) 0.303(3)
H47 H 0.071(3) 0.472(2) 0.178(3)
H48 H 0.121(3) 0.590(2) 0.235(3)
H49 H 0.297(3) 0.566(3) 0.323(3)
loop_
_geom_bond_atom_site_label_1
_geom_bond_atom_site_label_2
_geom_bond_site_symmetry_1
_geom_bond_site_symmetry_2
N1 C1 1_555 1_555
O1 C5 1_555 1_555
N2 C9 1_555 1_555
N3 C14 1_555 1_555
N4 C19 1_555 1_555
C1 C2 1_555 1_555
C2 C3 1_555 1_555
C3 C4 1_555 1_555
C4 N1 1_555 1_555
C5 C4 1_555 1_555
C6 C5 1_555 1_555
C7 C6 1_555 1_555
C8 O1 1_555 1_555
C9 C8 1_555 1_555
C10 C9 1_555 1_555
C11 C10 1_555 1_555
C12 N2 1_555 1_555
C13 C12 1_555 1_555
C14 C13 1_555 1_555
C15 C14 1_555 1_555
C16 C15 1_555 1_555
C17 N3 1_555 1_555
C18 C17 1_555 1_555
C19 C18 1_555 1_555
C20 C19 1_555 1_555
C21 C20 1_555 1_555
C22 N4 1_555 1_555
C23 C1 1_555 1_555
C24 C2 1_555 1_555
C25 C3 1_555 1_555
C26 C6 1_555 1_555
C27 C7 1_555 1_555
C28 C10 1_555 1_555
C29 C11 1_555 1_555
C30 C15 1_555 1_555
C31 C16 1_555 1_555
C32 C31 1_555 1_555
C33 C32 1_555 1_555
C34 C33 1_555 1_555
C35 C20 1_555 1_555
C36 C35 1_555 1_555
C37 C36 1_555 1_555
C38 C37 1_555 1_555
C39 C21 1_555 1_555
H1 C13 1_555 1_555
H2 C18 1_555 1_555
H3 C23 1_555 1_555
H4 C24 1_555 1_555
H5 C24 1_555 1_555
H6 C24 1_555 1_555
H7 C25 1_555 1_555
H8 C25 1_555 1_555
H9 C25 1_555 1_555
H10 C26 1_555 1_555
H11 C26 1_555 1_555
H12 C26 1_555 1_555
H13 C27 1_555 1_555
H14 C27 1_555 1_555
H15 C27 1_555 1_555
H16 C28 1_555 1_555
H17 C28 1_555 1_555
H18 C28 1_555 1_555
H19 C29 1_555 1_555
H20 C29 1_555 1_555
H21 C29 1_555 1_555
H22 C30 1_555 1_555
H23 C30 1_555 1_555
H24 C30 1_555 1_555
H25 C31 1_555 1_555
H26 C31 1_555 1_555
H27 C32 1_555 1_555
H28 C32 1_555 1_555
H29 C33 1_555 1_555
H30 C33 1_555 1_555
H31 C34 1_555 1_555
H32 C34 1_555 1_555
H33 C34 1_555 1_555
H34 C35 1_555 1_555
H35 C35 1_555 1_555
H36 C36 1_555 1_555
H37 C36 1_555 1_555
H38 C37 1_555 1_555
H39 C37 1_555 1_555
H40 C38 1_555 1_555
H41 C38 1_555 1_555
H42 C38 1_555 1_555
H43 C39 1_555 1_555
H44 C39 1_555 1_555
H45 C39 1_555 1_555
H46 N1 1_555 1_555
H47 N2 1_555 1_555
H48 N3 1_555 1_555
H49 N4 1_555 1_555
C7 C8 1_555 1_555
C11 C12 1_555 1_555
C16 C17 1_555 1_555
C21 C22 1_555 1_555
C22 C23 1_555 1_555

#END
