
#######################################################################
#
#                 Cambridge Crystallographic Data Centre
#                                CCDC 
#
#######################################################################
#
# If this CIF has been generated from an entry in the Cambridge 
# Structural Database, then it will include bibliographic, chemical, 
# crystal, experimental, refinement or atomic coordinate data resulting 
# from the CCDC's data processing and validation procedures.
#
#######################################################################

data_GOPYAN
_chemical_formula_moiety         'C17 H11 F1 N2'
_chemical_name_systematic        9-(4-fluorophenyl)-9H-pyrido[2,3-b]indole
_symmetry_cell_setting           triclinic
_symmetry_space_group_name_H-M   'P -1'
_symmetry_Int_Tables_number      2
_space_group_name_Hall           '-P 1'
loop_
_symmetry_equiv_pos_site_id
_symmetry_equiv_pos_as_xyz
1 x,y,z
2 -x,-y,-z
_cell_length_a                   6.2637(4)
_cell_length_b                   9.6026(6)
_cell_length_c                   11.1057(8)
_cell_angle_alpha                78.235(4)
_cell_angle_beta                 81.016(4)
_cell_angle_gamma                74.565(4)
_cell_volume                     626.679
_exptl_crystal_colour            colorless
_exptl_crystal_description       block
_cell_formula_units_Z            2
loop_
_atom_site_label
_atom_site_type_symbol
_atom_site_fract_x
_atom_site_fract_y
_atom_site_fract_z
N1 N 0.9839(3) 0.7354(2) 0.09385(16)
C1 C 0.7975(10) 0.7898(10) 0.1723(6)
N2 N 0.6020(10) 0.8720(8) 0.1286(5)
C2 C 0.4362(9) 0.9086(7) 0.2194(6)
H1 H 0.2943 0.9629 0.1956
C3 C 0.4609(9) 0.8716(6) 0.3452(6)
H2 H 0.3382 0.9032 0.4035
C4 C 0.6598(11) 0.7900(8) 0.3864(5)
H3 H 0.6769 0.7657 0.4723
C5 C 0.8358(9) 0.7439(9) 0.2987(6)
C6 C 1.0628(9) 0.6589(9) 0.2937(7)
C7 C 1.2002(10) 0.5794(8) 0.3839(6)
H4 H 1.1483 0.5758 0.4692
C8 C 1.4116(10) 0.5065(7) 0.3467(6)
H5 H 1.5081 0.4512 0.4068
C9 C 1.4868(10) 0.5127(8) 0.2208(6)
H6 H 1.6361 0.4627 0.1988
C10 C 1.3617(14) 0.5848(14) 0.1288(6)
H7 H 1.4148 0.5857 0.0438
C11 C 1.1547(11) 0.6555(12) 0.1683(6)
C12 C 1.0009(4) 0.7580(3) -0.03863(19)
C13 C 0.8715(4) 0.6998(3) -0.0960(2)
H8 H 0.7717 0.6456 -0.0479
C14 C 0.8888(4) 0.7211(3) -0.2237(2)
H9 H 0.8002 0.6830 -0.2646
C15 C 1.0367(4) 0.7985(3) -0.2901(2)
F1 F 1.0524(3) 0.81921(18) -0.41541(12)
C16 C 1.1668(4) 0.8563(3) -0.2356(2)
H10 H 1.2674 0.9093 -0.2845
C17 C 1.1486(4) 0.8357(3) -0.1074(2)
H11 H 1.2370 0.8748 -0.0672
C18? C 1.1463(14) 0.6576(17) 0.1613(8)
N3? N 1.3602(16) 0.5882(17) 0.1172(7)
C19? C 1.5148(12) 0.5129(12) 0.1996(9)
H12? H 1.6610 0.4655 0.1694
C20? C 1.4555(12) 0.5071(9) 0.3261(9)
H13? H 1.5612 0.4557 0.3824
C21? C 1.2417(14) 0.5765(11) 0.3703(7)
H14? H 1.2012 0.5725 0.4567
C22? C 1.0870(11) 0.6518(13) 0.2879(9)
C23? C 0.8573(11) 0.7381(12) 0.2911(8)
C24? C 0.7064(14) 0.7807(11) 0.3905(7)
H15? H 0.7482 0.7511 0.4722
C25? C 0.4942(12) 0.8667(9) 0.3703(7)
H16? H 0.3910 0.8959 0.4382
C26? C 0.4329(11) 0.9101(9) 0.2507(9)
H17? H 0.2879 0.9689 0.2369
C27? C 0.5839(16) 0.8675(13) 0.1513(7)
H18? H 0.5421 0.8972 0.0696
C28? C 0.7961(14) 0.7815(14) 0.1715(7)
loop_
_geom_bond_atom_site_label_1
_geom_bond_atom_site_label_2
_geom_bond_site_symmetry_1
_geom_bond_site_symmetry_2
N1 C1 1_555 1_555
C1 N2 1_555 1_555
N2 C2 1_555 1_555
C2 H1 1_555 1_555
C3 C2 1_555 1_555
H2 C3 1_555 1_555
C4 C3 1_555 1_555
H3 C4 1_555 1_555
C5 C1 1_555 1_555
C6 C5 1_555 1_555
C7 C6 1_555 1_555
H4 C7 1_555 1_555
C8 C7 1_555 1_555
H5 C8 1_555 1_555
C9 C8 1_555 1_555
H6 C9 1_555 1_555
C10 C9 1_555 1_555
H7 C10 1_555 1_555
C11 N1 1_555 1_555
C12 N1 1_555 1_555
C13 C12 1_555 1_555
H8 C13 1_555 1_555
C14 C13 1_555 1_555
H9 C14 1_555 1_555
C15 C14 1_555 1_555
F1 C15 1_555 1_555
C16 C15 1_555 1_555
H10 C16 1_555 1_555
C17 C12 1_555 1_555
H11 C17 1_555 1_555
C4 C5 1_555 1_555
C6 C11 1_555 1_555
C10 C11 1_555 1_555
C16 C17 1_555 1_555

#END
