
#######################################################################
#
#                 Cambridge Crystallographic Data Centre
#                                CCDC 
#
#######################################################################
#
# If this CIF has been generated from an entry in the Cambridge 
# Structural Database, then it will include bibliographic, chemical, 
# crystal, experimental, refinement or atomic coordinate data resulting 
# from the CCDC's data processing and validation procedures.
#
#######################################################################

data_GOQMII
_chemical_formula_moiety         'C14 H14 N2 O4 S1'
_chemical_name_systematic        
3-(4-Nitrobenzenesulfonyl)-3-azatricyclo(4.2.1.0^2,5^)non-7-ene
_symmetry_cell_setting           monoclinic
_symmetry_space_group_name_H-M   'C c'
_symmetry_Int_Tables_number      9
_space_group_name_Hall           'C -2yc'
loop_
_symmetry_equiv_pos_site_id
_symmetry_equiv_pos_as_xyz
1 x,y,z
2 x,-y,1/2+z
3 1/2+x,1/2+y,z
4 1/2+x,1/2-y,1/2+z
_cell_length_a                   6.341(3)
_cell_length_b                   10.333(4)
_cell_length_c                   21.542(8)
_cell_angle_alpha                90
_cell_angle_beta                 93.95(6)
_cell_angle_gamma                90
_cell_volume                     1408.11
_exptl_crystal_colour            colorless
_exptl_crystal_description       'thick plate'
_chemical_melting_point          409-411K
_cell_formula_units_Z            4
loop_
_atom_site_label
_atom_site_type_symbol
_atom_site_fract_x
_atom_site_fract_y
_atom_site_fract_z
S1 S 0.2942(4) 0.3772(3) 0.45583(14)
O1 O 0.0704(14) 0.3796(10) 0.4477(5)
C1 C 0.512(2) 0.6004(11) 0.5705(5)
H1 H 0.5853 0.6737 0.5528
O2 O 0.4066(16) 0.2565(7) 0.4555(4)
N1 N 0.670(2) 0.7421(13) 0.2804(5)
C2 C 0.571(2) 0.6467(11) 0.3195(5)
N2 N 0.3564(15) 0.4402(8) 0.5218(4)
C3 C 0.3979(16) 0.4790(11) 0.3995(4)
C4 C 0.6012(18) 0.4578(12) 0.3819(5)
H2 H 0.6782 0.3868 0.3973
C5 C 0.289(2) 0.5751(14) 0.5393(6)
H3 H 0.1779 0.5762 0.5681
H4 H 0.2530 0.6304 0.5038
C6 C 0.364(2) 0.6639(11) 0.3342(5)
H5 H 0.2837 0.7313 0.3164
C7 C 0.6898(19) 0.5435(14) 0.3411(5)
H6 H 0.8261 0.5310 0.3288
C8 C 0.2807(19) 0.5825(13) 0.3744(5)
H7 H 0.1432 0.5955 0.3856
C9 C 0.5775(18) 0.4691(12) 0.5460(5)
H8 H 0.6798 0.4732 0.5140
O3 O 0.8529(19) 0.7227(13) 0.2689(6)
C10 C 0.465(3) 0.3788(16) 0.6443(8)
H9 H 0.3970 0.3009 0.6510
O4 O 0.566(2) 0.8340(13) 0.2627(5)
C11 C 0.759(2) 0.5107(15) 0.6436(7)
H10 H 0.8112 0.4862 0.6853
H11 H 0.8682 0.5542 0.6222
C12 C 0.659(3) 0.3980(13) 0.6064(7)
H12 H 0.7481 0.3220 0.6014
C13 C 0.554(2) 0.5866(12) 0.6423(6)
H13 H 0.5610 0.6681 0.6657
C14 C 0.415(3) 0.490(2) 0.6648(7)
H14 H 0.3053 0.5054 0.6902
loop_
_geom_bond_atom_site_label_1
_geom_bond_atom_site_label_2
_geom_bond_site_symmetry_1
_geom_bond_site_symmetry_2
S1 O1 1_555 1_555
C1 H1 1_555 1_555
O2 S1 1_555 1_555
N1 C2 1_555 1_555
C2 C6 1_555 1_555
N2 S1 1_555 1_555
C3 S1 1_555 1_555
C4 C3 1_555 1_555
H2 C4 1_555 1_555
C5 C1 1_555 1_555
H3 C5 1_555 1_555
H4 C5 1_555 1_555
C6 H5 1_555 1_555
C7 C2 1_555 1_555
H6 C7 1_555 1_555
C8 C3 1_555 1_555
H7 C8 1_555 1_555
C9 C1 1_555 1_555
H8 C9 1_555 1_555
O3 N1 1_555 1_555
C10 H9 1_555 1_555
O4 N1 1_555 1_555
C11 H10 1_555 1_555
H11 C11 1_555 1_555
C12 C9 1_555 1_555
H12 C12 1_555 1_555
C13 C1 1_555 1_555
H13 C13 1_555 1_555
C14 C10 1_555 1_555
H14 C14 1_555 1_555
N2 C5 1_555 1_555
N2 C9 1_555 1_555
C4 C7 1_555 1_555
C6 C8 1_555 1_555
C10 C12 1_555 1_555
C11 C13 1_555 1_555
C11 C12 1_555 1_555
C13 C14 1_555 1_555

#END
