
#######################################################################
#
#                 Cambridge Crystallographic Data Centre
#                                CCDC 
#
#######################################################################
#
# If this CIF has been generated from an entry in the Cambridge 
# Structural Database, then it will include bibliographic, chemical, 
# crystal, experimental, refinement or atomic coordinate data resulting 
# from the CCDC's data processing and validation procedures.
#
#######################################################################

data_GORMUX
_chemical_formula_moiety         'C36 H24 N2 O2 S2,0.5(C1 H1 Cl3)'
_chemical_name_systematic        
'10-(4-((4-(9H-carbazol-9-yl)phenyl)sulfonyl)phenyl)-10H-phenothiazine chloroform solvate'
_symmetry_cell_setting           orthorhombic
_symmetry_space_group_name_H-M   'P n a 21'
_symmetry_Int_Tables_number      33
_space_group_name_Hall           'P 2c -2n'
loop_
_symmetry_equiv_pos_site_id
_symmetry_equiv_pos_as_xyz
1 x,y,z
2 -x,-y,1/2+z
3 1/2+x,1/2-y,z
4 1/2-x,1/2+y,1/2+z
_cell_length_a                   26.2612(2)
_cell_length_b                   9.66390(10)
_cell_length_c                   23.6550(2)
_cell_angle_alpha                90
_cell_angle_beta                 90
_cell_angle_gamma                90
_cell_volume                     6003.3
_exptl_crystal_colour            yellow
_exptl_crystal_description       block
_cell_formula_units_Z            8
loop_
_atom_site_label
_atom_site_type_symbol
_atom_site_fract_x
_atom_site_fract_y
_atom_site_fract_z
C1 C 0.22978(16) 0.2427(5) 0.8079(2)
C2 C 0.23152(19) 0.2447(6) 0.8657(3)
H1 H 0.2629 0.2458 0.8857
C3 C 0.1851(2) 0.2450(6) 0.8934(3)
H2 H 0.1846 0.2460 0.9335
C4 C 0.13889(17) 0.2439(5) 0.8637(3)
H3 H 0.1077 0.2425 0.8840
C5 C 0.13804(17) 0.2448(5) 0.8062(3)
H4 H 0.1065 0.2461 0.7865
C6 C 0.18339(15) 0.2439(4) 0.7767(2)
C7 C 0.19716(16) 0.2445(4) 0.7177(2)
C8 C 0.16945(18) 0.2433(5) 0.6673(3)
H5 H 0.1333 0.2417 0.6681
C9 C 0.1950(2) 0.2443(5) 0.6166(3)
H6 H 0.1758 0.2433 0.5825
C10 C 0.2474(2) 0.2466(5) 0.6134(3)
H7 H 0.2636 0.2462 0.5775
C11 C 0.27729(18) 0.2498(4) 0.6634(2)
H8 H 0.3134 0.2533 0.6619
C12 C 0.25154(16) 0.2476(4) 0.7147(2)
C13 C 0.32315(16) 0.2517(4) 0.7842(2)
C14 C 0.34751(17) 0.3774(5) 0.7877(3)
H9 H 0.3297 0.4608 0.7799
C15 C 0.39877(17) 0.3805(5) 0.8027(3)
H10 H 0.4160 0.4665 0.8061
C16 C 0.42425(16) 0.2594(4) 0.8126(2)
C17 C 0.40004(16) 0.1331(5) 0.8086(2)
H11 H 0.4183 0.0498 0.8153
C18 C 0.34898(18) 0.1293(5) 0.7948(2)
H12 H 0.3316 0.0432 0.7925
C19 C 0.50140(19) 0.0666(5) 1.1103(2)
C20 C 0.46986(19) -0.0082(5) 1.1461(2)
C21 C 0.4876(3) -0.1195(5) 1.1756(2)
H13 H 0.4660 -0.1679 1.2010
C22 C 0.5384(3) -0.1616(6) 1.1677(3)
H14 H 0.5510 -0.2411 1.1868
C23 C 0.5701(2) -0.0870(7) 1.1321(3)
H15 H 0.6044 -0.1151 1.1271
C24 C 0.5520(2) 0.0278(6) 1.1038(3)
H16 H 0.5740 0.0799 1.0800
C25 C 0.45719(16) 0.2822(5) 1.1223(2)
C26 C 0.4727(2) 0.4176(5) 1.1295(2)
H17 H 0.5001 0.4531 1.1078
C27 C 0.4479(2) 0.5022(5) 1.1685(3)
H18 H 0.4583 0.5956 1.1733
C28 C 0.4078(2) 0.4485(5) 1.2003(2)
H19 H 0.3897 0.5073 1.2254
C29 C 0.39437(18) 0.3128(6) 1.1958(2)
H20 H 0.3682 0.2761 1.2191
C30 C 0.41920(17) 0.2283(4) 1.1570(2)
C31 C 0.48176(16) 0.2078(5) 1.0256(2)
C32 C 0.49523(17) 0.0971(5) 0.9899(2)
H21 H 0.5034 0.0096 1.0058
C33 C 0.49665(16) 0.1150(4) 0.9320(2)
H22 H 0.5048 0.0387 0.9084
C34 C 0.48624(15) 0.2431(4) 0.9078(2)
C35 C 0.47073(17) 0.3528(5) 0.9430(2)
H23 H 0.4619 0.4398 0.9270
C36 C 0.46836(18) 0.3336(5) 1.0009(2)
H24 H 0.4574 0.4077 1.0243
N1 N 0.27031(13) 0.2476(4) 0.76897(19)
N2 N 0.48196(15) 0.1878(4) 1.08386(17)
O1 O 0.51475(11) 0.1474(4) 0.81134(15)
O2 O 0.50827(11) 0.4039(4) 0.82315(16)
S1 S 0.48908(3) 0.26560(11) 0.83468(5)
S2 S 0.40571(5) 0.04923(13) 1.15396(6)
C37 C 0.49874(17) 0.2647(4) 0.4245(2)
C38 C 0.47275(17) 0.2747(5) 0.4743(2)
H25 H 0.4366 0.2712 0.4752
C39 C 0.5012(2) 0.2902(5) 0.5241(2)
H26 H 0.4845 0.3003 0.5594
C40 C 0.5553(2) 0.2907(6) 0.5211(3)
H27 H 0.5745 0.2990 0.5550
C41 C 0.57994(18) 0.2798(5) 0.4720(2)
H28 H 0.6161 0.2816 0.4714
C42 C 0.55255(17) 0.2659(4) 0.4213(2)
C43 C 0.56641(17) 0.2512(4) 0.3619(2)
C44 C 0.61281(17) 0.2475(4) 0.3322(3)
H29 H 0.6443 0.2564 0.3516
C45 C 0.61161(18) 0.2310(5) 0.2755(3)
H30 H 0.6427 0.2282 0.2551
C46 C 0.5651(2) 0.2177(6) 0.2458(3)
H31 H 0.5656 0.2058 0.2060
C47 C 0.51868(17) 0.2220(6) 0.2742(2)
H32 H 0.4872 0.2140 0.2547
C48 C 0.52051(16) 0.2383(4) 0.3314(2)
C49 C 0.42685(16) 0.2451(4) 0.3556(2)
C50 C 0.39842(16) 0.3667(5) 0.3598(2)
H33 H 0.4140 0.4503 0.3720
C51 C 0.34677(16) 0.3637(5) 0.3458(2)
H34 H 0.3269 0.4456 0.3476
C52 C 0.32510(15) 0.2410(4) 0.3294(2)
C53 C 0.35312(17) 0.1189(4) 0.3257(2)
H35 H 0.3372 0.0348 0.3148
C54 C 0.40513(16) 0.1226(5) 0.3384(2)
H36 H 0.4253 0.0413 0.3352
C55 C 0.28660(17) 0.1834(5) 0.0231(2)
C56 C 0.32498(18) 0.2416(5) -0.0100(2)
C57 C 0.35348(18) 0.1577(6) -0.0463(3)
H37 H 0.3806 0.1971 -0.0675
C58 C 0.3429(2) 0.0199(6) -0.0517(3)
H38 H 0.3621 -0.0358 -0.0770
C59 C 0.3040(2) -0.0380(6) -0.0198(3)
H39 H 0.2966 -0.1340 -0.0229
C60 C 0.2757(2) 0.0450(5) 0.0167(3)
H40 H 0.2485 0.0054 0.0376
C61 C 0.23854(19) 0.3935(5) 0.0327(2)
C62 C 0.1873(2) 0.4305(5) 0.0376(3)
H41 H 0.1654 0.3789 0.0616
C63 C 0.1686(2) 0.5423(7) 0.0077(3)
H42 H 0.1337 0.5674 0.0109
C64 C 0.2004(3) 0.6165(6) -0.0267(2)
H43 H 0.1876 0.6945 -0.0466
C65 C 0.2508(3) 0.5798(6) -0.0328(2)
H44 H 0.2722 0.6304 -0.0578
C66 C 0.2703(2) 0.4684(5) -0.0025(2)
C67 C 0.25947(16) 0.2612(5) 0.1186(2)
C68 C 0.25059(17) 0.3796(4) 0.1517(2)
H45 H 0.2441 0.4656 0.1336
C69 C 0.25108(16) 0.3733(4) 0.2095(2)
H46 H 0.2455 0.4547 0.2312
C70 C 0.25988(16) 0.2461(4) 0.2370(2)
C71 C 0.26981(17) 0.1294(5) 0.2041(2)
H47 H 0.2763 0.0433 0.2221
C72 C 0.27036(18) 0.1369(5) 0.1462(2)
H48 H 0.2782 0.0568 0.1246
N3 N 0.47961(14) 0.2488(4) 0.37018(19)
N4 N 0.25732(16) 0.2708(4) 0.0593(2)
O3 O 0.24011(11) 0.1025(4) 0.32588(16)
O4 O 0.23581(11) 0.3595(4) 0.33257(16)
S3 S 0.25974(4) 0.23678(11) 0.31042(5)
S4 S 0.33522(5) 0.42140(13) -0.00813(7)
C73 C 0.1387(3) 0.0642(8) 0.0626(5)
H49 H 0.1719 0.1103 0.0542
Cl1 Cl 0.09183(7) 0.1358(2) 0.01968(13)
Cl2 Cl 0.14420(8) -0.11443(19) 0.04786(12)
Cl3 Cl 0.12329(12) 0.0917(5) 0.13329(15)
loop_
_geom_bond_atom_site_label_1
_geom_bond_atom_site_label_2
_geom_bond_site_symmetry_1
_geom_bond_site_symmetry_2
C1 C2 1_555 1_555
C2 H1 1_555 1_555
C3 C2 1_555 1_555
H2 C3 1_555 1_555
C4 C3 1_555 1_555
H3 C4 1_555 1_555
C5 C4 1_555 1_555
H4 C5 1_555 1_555
C6 C1 1_555 1_555
C7 C6 1_555 1_555
C8 C7 1_555 1_555
H5 C8 1_555 1_555
C9 C8 1_555 1_555
H6 C9 1_555 1_555
C10 C9 1_555 1_555
H7 C10 1_555 1_555
C11 C10 1_555 1_555
H8 C11 1_555 1_555
C12 C7 1_555 1_555
C13 C14 1_555 1_555
C14 H9 1_555 1_555
C15 C14 1_555 1_555
H10 C15 1_555 1_555
C16 C15 1_555 1_555
C17 C16 1_555 1_555
H11 C17 1_555 1_555
C18 C13 1_555 1_555
H12 C18 1_555 1_555
C19 C20 1_555 1_555
C20 C21 1_555 1_555
C21 H13 1_555 1_555
C22 C21 1_555 1_555
H14 C22 1_555 1_555
C23 C22 1_555 1_555
H15 C23 1_555 1_555
C24 C19 1_555 1_555
H16 C24 1_555 1_555
C25 C26 1_555 1_555
C26 H17 1_555 1_555
C27 C26 1_555 1_555
H18 C27 1_555 1_555
C28 C27 1_555 1_555
H19 C28 1_555 1_555
C29 C28 1_555 1_555
H20 C29 1_555 1_555
C30 C25 1_555 1_555
C31 C32 1_555 1_555
C32 H21 1_555 1_555
C33 C32 1_555 1_555
H22 C33 1_555 1_555
C34 C33 1_555 1_555
C35 C34 1_555 1_555
H23 C35 1_555 1_555
C36 C31 1_555 1_555
H24 C36 1_555 1_555
N1 C1 1_555 1_555
N2 C19 1_555 1_555
O1 S1 1_555 1_555
O2 S1 1_555 1_555
S1 C16 1_555 1_555
S2 C20 1_555 1_555
C37 C38 1_555 1_555
C38 H25 1_555 1_555
C39 C38 1_555 1_555
H26 C39 1_555 1_555
C40 C39 1_555 1_555
H27 C40 1_555 1_555
C41 C40 1_555 1_555
H28 C41 1_555 1_555
C42 C37 1_555 1_555
C43 C42 1_555 1_555
C44 C43 1_555 1_555
H29 C44 1_555 1_555
C45 C44 1_555 1_555
H30 C45 1_555 1_555
C46 C45 1_555 1_555
H31 C46 1_555 1_555
C47 C46 1_555 1_555
H32 C47 1_555 1_555
C48 C43 1_555 1_555
C49 C50 1_555 1_555
C50 H33 1_555 1_555
C51 C50 1_555 1_555
H34 C51 1_555 1_555
C52 C51 1_555 1_555
C53 C52 1_555 1_555
H35 C53 1_555 1_555
C54 C49 1_555 1_555
H36 C54 1_555 1_555
C55 C56 1_555 1_555
C56 C57 1_555 1_555
C57 H37 1_555 1_555
C58 C57 1_555 1_555
H38 C58 1_555 1_555
C59 C58 1_555 1_555
H39 C59 1_555 1_555
C60 C55 1_555 1_555
H40 C60 1_555 1_555
C61 C62 1_555 1_555
C62 H41 1_555 1_555
C63 C62 1_555 1_555
H42 C63 1_555 1_555
C64 C63 1_555 1_555
H43 C64 1_555 1_555
C65 C64 1_555 1_555
H44 C65 1_555 1_555
C66 C61 1_555 1_555
C67 C68 1_555 1_555
C68 H45 1_555 1_555
C69 C68 1_555 1_555
H46 C69 1_555 1_555
C70 C69 1_555 1_555
C71 C70 1_555 1_555
H47 C71 1_555 1_555
C72 C67 1_555 1_555
H48 C72 1_555 1_555
N3 C37 1_555 1_555
N4 C55 1_555 1_555
O3 S3 1_555 1_555
O4 S3 1_555 1_555
S3 C52 1_555 1_555
S4 C56 1_555 1_555
C73 H49 1_555 1_555
Cl1 C73 1_555 1_555
Cl2 C73 1_555 1_555
Cl3 C73 1_555 1_555
C5 C6 1_555 1_555
C11 C12 1_555 1_555
C12 N1 1_555 1_555
C13 N1 1_555 1_555
C17 C18 1_555 1_555
C23 C24 1_555 1_555
C25 N2 1_555 1_555
C29 C30 1_555 1_555
C30 S2 1_555 1_555
C31 N2 1_555 1_555
C34 S1 1_555 1_555
C35 C36 1_555 1_555
C41 C42 1_555 1_555
C47 C48 1_555 1_555
C48 N3 1_555 1_555
C49 N3 1_555 1_555
C53 C54 1_555 1_555
C59 C60 1_555 1_555
C61 N4 1_555 1_555
C65 C66 1_555 1_555
C66 S4 1_555 1_555
C67 N4 1_555 1_555
C70 S3 1_555 1_555
C71 C72 1_555 1_555

#END
