
#######################################################################
#
#                 Cambridge Crystallographic Data Centre
#                                CCDC 
#
#######################################################################
#
# If this CIF has been generated from an entry in the Cambridge 
# Structural Database, then it will include bibliographic, chemical, 
# crystal, experimental, refinement or atomic coordinate data resulting 
# from the CCDC's data processing and validation procedures.
#
#######################################################################

data_GOWBAX
_chemical_formula_moiety         'C10 H11 Br1 N6 O1'
_chemical_name_systematic        
1-((4-bromophenyl)amino)-5-methyl-1H-1,2,3-triazole-4-carbohydrazide
_symmetry_cell_setting           orthorhombic
_symmetry_space_group_name_H-M   'P b c a'
_symmetry_Int_Tables_number      61
_space_group_name_Hall           '-P 2ac 2ab'
loop_
_symmetry_equiv_pos_site_id
_symmetry_equiv_pos_as_xyz
1 x,y,z
2 1/2+x,1/2-y,-z
3 -x,1/2+y,1/2-z
4 1/2-x,-y,1/2+z
5 -x,-y,-z
6 1/2-x,1/2+y,z
7 x,1/2-y,1/2+z
8 1/2+x,y,1/2-z
_cell_length_a                   11.3672(4)
_cell_length_b                   7.2817(2)
_cell_length_c                   30.1714(11)
_cell_angle_alpha                90
_cell_angle_beta                 90
_cell_angle_gamma                90
_cell_volume                     2497.36
_exptl_crystal_colour            colorless
_exptl_crystal_description       block
_cell_formula_units_Z            8
loop_
_atom_site_label
_atom_site_type_symbol
_atom_site_fract_x
_atom_site_fract_y
_atom_site_fract_z
Br1 Br 0.89309(3) 0.81774(4) 0.837804(8)
O1 O 1.17419(15) 1.0628(2) 0.52449(6)
N1 N 1.12186(18) 1.3962(3) 0.48636(7)
H1 H 1.154(2) 1.306(3) 0.4707(8)
H2 H 1.1877(15) 1.437(3) 0.4982(8)
N2 N 1.05369(18) 1.3061(3) 0.51928(6)
H3 H 0.9875(14) 1.360(3) 0.5265(8)
N3 N 0.89750(16) 1.1430(3) 0.57893(6)
N4 N 0.84167(16) 1.0360(3) 0.60654(6)
N5 N 0.90903(16) 0.8823(3) 0.61141(6)
N6 N 0.87344(16) 0.7365(3) 0.63788(6)
H4 H 0.8083(13) 0.687(3) 0.6285(7)
C1 C 1.0836(2) 1.1423(3) 0.53513(7)
C2 C 0.99944(19) 1.0588(3) 0.56653(6)
C3 C 1.00893(19) 0.8908(3) 0.58712(7)
C4 C 1.0977(2) 0.7420(3) 0.58642(8)
H5 H 1.0578 0.6227 0.5867
H6 H 1.1484 0.7522 0.6126
H7 H 1.1456 0.7525 0.5596
C5 C 0.87567(18) 0.7658(3) 0.68405(7)
C6 C 0.78522(19) 0.6960(3) 0.71012(7)
H8 H 0.7197 0.6378 0.6965
C7 C 0.79006(19) 0.7107(3) 0.75576(8)
H9 H 0.7290 0.6612 0.7736
C8 C 0.8849(2) 0.7985(3) 0.77517(7)
C9 C 0.9744(2) 0.8715(3) 0.74985(8)
H10 H 1.0382 0.9332 0.7637
C10 C 0.97065(19) 0.8542(3) 0.70415(7)
H11 H 1.0327 0.9023 0.6865
loop_
_geom_bond_atom_site_label_1
_geom_bond_atom_site_label_2
_geom_bond_site_symmetry_1
_geom_bond_site_symmetry_2
Br1 C8 1_555 1_555
O1 C1 1_555 1_555
N1 H1 1_555 1_555
H2 N1 1_555 1_555
N2 N1 1_555 1_555
H3 N2 1_555 1_555
N3 N4 1_555 1_555
N4 N5 1_555 1_555
N5 N6 1_555 1_555
N6 H4 1_555 1_555
C1 N2 1_555 1_555
C2 N3 1_555 1_555
C3 N5 1_555 1_555
C4 C3 1_555 1_555
H5 C4 1_555 1_555
H6 C4 1_555 1_555
H7 C4 1_555 1_555
C5 N6 1_555 1_555
C6 C5 1_555 1_555
H8 C6 1_555 1_555
C7 C6 1_555 1_555
H9 C7 1_555 1_555
C8 C7 1_555 1_555
C9 C8 1_555 1_555
H10 C9 1_555 1_555
C10 C5 1_555 1_555
H11 C10 1_555 1_555
C1 C2 1_555 1_555
C2 C3 1_555 1_555
C9 C10 1_555 1_555

#END
