
#######################################################################
#
#                 Cambridge Crystallographic Data Centre
#                                CCDC 
#
#######################################################################
#
# If this CIF has been generated from an entry in the Cambridge 
# Structural Database, then it will include bibliographic, chemical, 
# crystal, experimental, refinement or atomic coordinate data resulting 
# from the CCDC's data processing and validation procedures.
#
#######################################################################

data_GOWHIL
_chemical_formula_moiety         'C6 H6 N12 O12,2(C5 H9 N1 O1),H2 O1'
_chemical_name_systematic        
'2,4,6,8,10,12-hexanitro-2,4,6,8,10,12-hexaazatetracyclo[5.5.0.0^3,11^.0^5,9^]dodecane 1-methylpyrrolidin-2-one solvate monohydrate'
_symmetry_cell_setting           monoclinic
_symmetry_space_group_name_H-M   'P 21/c'
_symmetry_Int_Tables_number      14
_space_group_name_Hall           '-P 2ybc'
loop_
_symmetry_equiv_pos_site_id
_symmetry_equiv_pos_as_xyz
1 x,y,z
2 -x,1/2+y,1/2-z
3 -x,-y,-z
4 x,1/2-y,1/2+z
_cell_length_a                   11.904(4)
_cell_length_b                   15.824(5)
_cell_length_c                   14.504(5)
_cell_angle_alpha                90
_cell_angle_beta                 96.671(7)
_cell_angle_gamma                90
_cell_volume                     2713.6
_exptl_crystal_colour            colorless
_exptl_crystal_description       prismatic
_cell_formula_units_Z            4
loop_
_atom_site_label
_atom_site_type_symbol
_atom_site_fract_x
_atom_site_fract_y
_atom_site_fract_z
N1 N 1.03903(13) 0.23767(10) 0.77937(10)
N2 N 1.13784(15) 0.27847(11) 0.82361(13)
N3 N 0.88618(14) 0.30903(10) 0.80615(11)
N4 N 0.80070(17) 0.33655(12) 0.85266(13)
N5 N 0.92167(13) 0.10485(9) 0.73501(10)
N6 N 0.92296(15) 0.01611(10) 0.73791(13)
N7 N 0.76406(13) 0.17777(10) 0.76333(11)
N8 N 0.66516(16) 0.14209(12) 0.78861(14)
N9 N 0.96390(13) 0.20723(10) 0.62164(10)
N10 N 1.05675(17) 0.17126(12) 0.58352(12)
N11 N 0.78862(14) 0.28295(9) 0.65145(11)
N12 N 0.70355(15) 0.33048(11) 0.60436(13)
O1 O 1.15312(15) 0.27385(12) 0.90717(12)
O2 O 1.20050(14) 0.30868(11) 0.77278(13)
O3 O 0.79402(16) 0.30544(12) 0.92894(12)
O4 O 0.73940(17) 0.39044(12) 0.81458(14)
O5 O 0.90360(15) -0.01700(9) 0.80969(11)
O6 O 0.94989(16) -0.01903(9) 0.67013(12)
O7 O 0.67307(15) 0.10192(13) 0.85998(13)
O8 O 0.57969(14) 0.15919(13) 0.73868(14)
O9 O 1.14576(15) 0.20848(13) 0.59791(12)
O10 O 1.03733(18) 0.10874(12) 0.53740(14)
O11 O 0.71739(15) 0.40592(9) 0.60235(13)
O12 O 0.62424(16) 0.29174(12) 0.56687(16)
C1 C 0.94632(17) 0.23138(11) 0.83484(13)
H1 H 0.9733 0.2322 0.9013
C2 C 0.99349(16) 0.27375(11) 0.68845(12)
H2 H 1.0482 0.3126 0.6658
C3 C 0.88360(16) 0.32159(11) 0.70546(13)
H3 H 0.8890 0.3817 0.6903
C4 C 0.87270(16) 0.14962(11) 0.80761(13)
H4 H 0.8653 0.1135 0.8615
C5 C 0.88252(16) 0.14590(11) 0.64623(12)
H5 H 0.8659 0.1040 0.5968
C6 C 0.77305(16) 0.19410(11) 0.66531(13)
H6 H 0.7066 0.1729 0.6258
N13 N 0.29362(18) 0.09515(12) 0.87858(15)
O13 O 0.11369(14) 0.06623(13) 0.90501(12)
C7 C 0.2134(2) 0.08241(14) 0.93151(17)
C8 C 0.2646(2) 0.08925(18) 1.03116(18)
H7 H 0.2262 0.1324 1.0632
H8 H 0.2584 0.0358 1.0630
C9 C 0.3831(3) 0.1117(3) 1.0289(3)
H9 H 0.4319 0.0733 1.0673
H10 H 0.3973 0.1689 1.0514
C10 C 0.4047(2) 0.1046(2) 0.9279(2)
H11 H 0.4414 0.1551 0.9080
H12 H 0.4515 0.0559 0.9185
C11 C 0.2751(3) 0.0873(2) 0.7783(2)
H13 H 0.1965 0.0763 0.7592
H14 H 0.3197 0.0416 0.7588
H15 H 0.2967 0.1390 0.7503
O14 O 0.703(3) 1.0232(19) 0.6305(16)
N14 N 0.5819(3) 0.9141(2) 0.6213(3)
C12 C 0.6556(4) 0.9688(3) 0.5950(4)
C13 C 0.6758(10) 0.9482(6) 0.4980(7)
H16 H 0.7530 0.9293 0.4957
H17 H 0.6618 0.9971 0.4579
C14 C 0.5926(4) 0.8780(3) 0.4690(3)
H18 H 0.6308 0.8311 0.4429
H19 H 0.5335 0.8983 0.4226
C15 C 0.5437(11) 0.8508(6) 0.5542(7)
H20 H 0.4617 0.8493 0.5436
H21 H 0.5713 0.7954 0.5742
C16 C 0.5571(9) 0.9085(5) 0.7173(6)
H22 H 0.6047 0.9471 0.7551
H23 H 0.5709 0.8520 0.7397
H24 H 0.4792 0.9229 0.7204
O16 O 0.95022(16) 0.10452(11) 0.01990(11)
H34 H 1.003(2) 0.089(2) -0.009(2)
H35 H 0.932(3) 0.0593(14) 0.0451(19)
O15? O 0.698(3) 1.0274(16) 0.6539(15)
N15? N 0.6201(9) 0.9285(7) 0.5540(8)
C17? C 0.6406(19) 0.9665(14) 0.6331(10)
C18? C 0.564(2) 0.9257(14) 0.6934(19)
H25? H 0.6037 0.9167 0.7547
H26? H 0.5000 0.9627 0.6996
C19? C 0.5222(16) 0.8450(12) 0.6546(14)
H27? H 0.4418 0.8381 0.6576
H28? H 0.5628 0.7976 0.6853
C20? C 0.549(2) 0.8556(14) 0.5569(14)
H29? H 0.5871 0.8058 0.5373
H30? H 0.4795 0.8633 0.5154
C21? C 0.657(2) 0.948(2) 0.4719(19)
H31? H 0.6065 0.9884 0.4394
H32? H 0.6602 0.8983 0.4350
H33? H 0.7315 0.9727 0.4831
loop_
_geom_bond_atom_site_label_1
_geom_bond_atom_site_label_2
_geom_bond_site_symmetry_1
_geom_bond_site_symmetry_2
N1 N2 1_555 1_555
N2 O1 1_555 1_555
N3 N4 1_555 1_555
N4 O3 1_555 1_555
N5 N6 1_555 1_555
N6 O5 1_555 1_555
N7 N8 1_555 1_555
N8 O7 1_555 1_555
N9 N10 1_555 1_555
N10 O9 1_555 1_555
N11 N12 1_555 1_555
N12 O11 1_555 1_555
O2 N2 1_555 1_555
O4 N4 1_555 1_555
O6 N6 1_555 1_555
O8 N8 1_555 1_555
O10 N10 1_555 1_555
O12 N12 1_555 1_555
C1 N1 1_555 1_555
H1 C1 1_555 1_555
C2 N1 1_555 1_555
H2 C2 1_555 1_555
C3 N3 1_555 1_555
H3 C3 1_555 1_555
C4 N5 1_555 1_555
H4 C4 1_555 1_555
C5 N5 1_555 1_555
H5 C5 1_555 1_555
C6 N7 1_555 1_555
H6 C6 1_555 1_555
N13 C7 1_555 1_555
O13 C7 1_555 1_555
C7 C8 1_555 1_555
C8 H7 1_555 1_555
H8 C8 1_555 1_555
C9 C8 1_555 1_555
H9 C9 1_555 1_555
H10 C9 1_555 1_555
C10 N13 1_555 1_555
H11 C10 1_555 1_555
H12 C10 1_555 1_555
C11 N13 1_555 1_555
H13 C11 1_555 1_555
H14 C11 1_555 1_555
H15 C11 1_555 1_555
O14 C12 1_555 1_555
N14 C12 1_555 1_555
C12 C13 1_555 1_555
C13 H16 1_555 1_555
H17 C13 1_555 1_555
C14 C13 1_555 1_555
H18 C14 1_555 1_555
H19 C14 1_555 1_555
C15 N14 1_555 1_555
H20 C15 1_555 1_555
H21 C15 1_555 1_555
C16 N14 1_555 1_555
H22 C16 1_555 1_555
H23 C16 1_555 1_555
H24 C16 1_555 1_555
O16 H34 1_555 1_555
H35 O16 1_555 1_555
N3 C1 1_555 1_555
N7 C4 1_555 1_555
N9 C2 1_555 1_555
N9 C5 1_555 1_555
N11 C3 1_555 1_555
N11 C6 1_555 1_555
C1 C4 1_555 1_555
C2 C3 1_555 1_555
C5 C6 1_555 1_555
C9 C10 1_555 1_555
C14 C15 1_555 1_555

#END
