
#######################################################################
#
#                 Cambridge Crystallographic Data Centre
#                                CCDC 
#
#######################################################################
#
# If this CIF has been generated from an entry in the Cambridge 
# Structural Database, then it will include bibliographic, chemical, 
# crystal, experimental, refinement or atomic coordinate data resulting 
# from the CCDC's data processing and validation procedures.
#
#######################################################################

data_GOYNAL
_chemical_formula_moiety         'C28 H44 Li2 N6'
_chemical_name_systematic        
bis(\m~2~-2,5-bis(pyrrolidin-1-ylmethyl)-1H-pyrrol-1-yl)-di-lithium
_symmetry_cell_setting           monoclinic
_symmetry_space_group_name_H-M   'P 21/n'
_symmetry_Int_Tables_number      14
_space_group_name_Hall           '-P 2yn'
loop_
_symmetry_equiv_pos_site_id
_symmetry_equiv_pos_as_xyz
1 x,y,z
2 1/2-x,1/2+y,1/2-z
3 -x,-y,-z
4 1/2+x,1/2-y,1/2+z
_cell_length_a                   9.831(11)
_cell_length_b                   25.481(17)
_cell_length_c                   11.506(10)
_cell_angle_alpha                90
_cell_angle_beta                 105.00
_cell_angle_gamma                90
_cell_volume                     2784.08
_cell_formula_units_Z            4
loop_
_atom_site_label
_atom_site_type_symbol
_atom_site_fract_x
_atom_site_fract_y
_atom_site_fract_z
Li1 Li 0.1698(4) 0.16578(16) 0.3307(4)
Li2 Li 0.0747(4) 0.07260(16) 0.2913(4)
N1 N 0.1463(2) 0.10889(8) 0.45319(18)
N2 N 0.0385(2) 0.21809(8) 0.40159(19)
N3 N 0.2069(2) 0.00948(8) 0.36116(19)
N4 N 0.1234(2) 0.12588(8) 0.17223(18)
N5 N 0.3707(2) 0.18201(9) 0.3035(2)
N6 N -0.1286(2) 0.06614(9) 0.1790(2)
C1 C 0.0992(3) 0.14001(10) 0.5315(2)
C2 C 0.1642(3) 0.12685(12) 0.6484(2)
H1 H 0.1509 0.1429 0.7182
C3 C 0.2549(3) 0.08461(12) 0.6430(2)
H2 H 0.3133 0.0666 0.7086
C4 C 0.2411(3) 0.07482(10) 0.5223(2)
C5 C -0.0098(3) 0.18000(11) 0.4796(3)
H3 H -0.0946 0.1622 0.4325
H4 H -0.0348 0.1990 0.5452
C6 C 0.3105(3) 0.03524(11) 0.4612(2)
H5 H 0.3827 0.0526 0.4299
H6 H 0.3570 0.0087 0.5196
C7 C -0.0777(3) 0.24605(13) 0.3189(3)
H7 H -0.1468 0.2584 0.3606
H8 H -0.1252 0.2235 0.2515
C8 C -0.0044(4) 0.29184(14) 0.2758(3)
H9 H 0.0403 0.2808 0.2129
H10 H -0.0707 0.3204 0.2449
C9 C 0.1036(4) 0.30814(13) 0.3883(4)
H11 H 0.0699 0.3383 0.4258
H12 H 0.1922 0.3178 0.3698
C10 C 0.1248(4) 0.26093(12) 0.4715(3)
H13 H 0.2244 0.2509 0.4958
H14 H 0.0936 0.2688 0.5439
C11 C 0.1358(3) -0.03413(11) 0.4066(3)
H15 H 0.0423 -0.0403 0.3525
H16 H 0.1248 -0.0258 0.4868
C12 C 0.2277(4) -0.08194(13) 0.4119(4)
H17 H 0.2894 -0.0866 0.4930
H18 H 0.1700 -0.1135 0.3897
C13 C 0.3130(4) -0.07171(14) 0.3229(4)
H19 H 0.4140 -0.0733 0.3624
H20 H 0.2911 -0.0976 0.2577
C14 C 0.2718(4) -0.01749(13) 0.2752(3)
H21 H 0.3550 0.0019 0.2672
H22 H 0.2047 -0.0195 0.1959
C15 C 0.2406(3) 0.13134(10) 0.1301(3)
C16 C 0.2053(5) 0.12601(13) 0.0063(3)
H23 H 0.2665 0.1286 -0.0441
C17 C 0.0631(5) 0.11613(13) -0.0286(3)
H24 H 0.0090 0.1100 -0.1076
C18 C 0.0146(3) 0.11695(10) 0.0733(2)
C19 C 0.3787(3) 0.13999(12) 0.2183(3)
H25 H 0.4089 0.1074 0.2627
H26 H 0.4492 0.1492 0.1751
C20 C -0.1287(3) 0.10910(12) 0.0914(3)
H27 H -0.1604 0.1417 0.1210
H28 H -0.1948 0.1005 0.0142
C21 C 0.4937(4) 0.18189(19) 0.4121(4)
H29 H 0.4658 0.1675 0.4815
H30 H 0.5698 0.1601 0.3973
C22 C 0.5396(7) 0.2340(3) 0.4349(4)
H31 H 0.6414 0.2354 0.4709
H32 H 0.4914 0.2512 0.4892
C23 C 0.5015(8) 0.2600(3) 0.3120(4)
H33 H 0.4863 0.2977 0.3192
H34 H 0.5763 0.2548 0.2709
C24 C 0.3722(4) 0.23414(12) 0.2469(4)
H35 H 0.3702 0.2302 0.1617
H36 H 0.2900 0.2547 0.2526
C25 C -0.1479(3) 0.01509(12) 0.1150(3)
H37 H -0.1121 -0.0136 0.1713
H38 H -0.0973 0.0148 0.0520
C26 C -0.3061(3) 0.00878(14) 0.0598(3)
H39 H -0.3317 0.0197 -0.0247
H40 H -0.3350 -0.0278 0.0647
C27 C -0.3742(3) 0.04403(16) 0.1342(3)
H41 H -0.4300 0.0715 0.0840
H42 H -0.4357 0.0238 0.1721
C28 C -0.2533(3) 0.06765(16) 0.2281(3)
H43 H -0.2751 0.1039 0.2451
H44 H -0.2357 0.0474 0.3029
loop_
_geom_bond_atom_site_label_1
_geom_bond_atom_site_label_2
_geom_bond_site_symmetry_1
_geom_bond_site_symmetry_2
Li1 N1 1_555 1_555
Li2 N1 1_555 1_555
N1 C1 1_555 1_555
N2 Li1 1_555 1_555
N3 Li2 1_555 1_555
N4 Li1 1_555 1_555
N5 Li1 1_555 1_555
N6 Li2 1_555 1_555
C1 C2 1_555 1_555
C2 H1 1_555 1_555
C3 C2 1_555 1_555
H2 C3 1_555 1_555
C4 N1 1_555 1_555
C5 N2 1_555 1_555
H3 C5 1_555 1_555
H4 C5 1_555 1_555
C6 N3 1_555 1_555
H5 C6 1_555 1_555
H6 C6 1_555 1_555
C7 N2 1_555 1_555
H7 C7 1_555 1_555
H8 C7 1_555 1_555
C8 C7 1_555 1_555
H9 C8 1_555 1_555
H10 C8 1_555 1_555
C9 C8 1_555 1_555
H11 C9 1_555 1_555
H12 C9 1_555 1_555
C10 N2 1_555 1_555
H13 C10 1_555 1_555
H14 C10 1_555 1_555
C11 N3 1_555 1_555
H15 C11 1_555 1_555
H16 C11 1_555 1_555
C12 C11 1_555 1_555
H17 C12 1_555 1_555
H18 C12 1_555 1_555
C13 C12 1_555 1_555
H19 C13 1_555 1_555
H20 C13 1_555 1_555
C14 N3 1_555 1_555
H21 C14 1_555 1_555
H22 C14 1_555 1_555
C15 N4 1_555 1_555
C16 C15 1_555 1_555
H23 C16 1_555 1_555
C17 C16 1_555 1_555
H24 C17 1_555 1_555
C18 N4 1_555 1_555
C19 N5 1_555 1_555
H25 C19 1_555 1_555
H26 C19 1_555 1_555
C20 N6 1_555 1_555
H27 C20 1_555 1_555
H28 C20 1_555 1_555
C21 N5 1_555 1_555
H29 C21 1_555 1_555
H30 C21 1_555 1_555
C22 C21 1_555 1_555
H31 C22 1_555 1_555
H32 C22 1_555 1_555
C23 C22 1_555 1_555
H33 C23 1_555 1_555
H34 C23 1_555 1_555
C24 N5 1_555 1_555
H35 C24 1_555 1_555
H36 C24 1_555 1_555
C25 N6 1_555 1_555
H37 C25 1_555 1_555
H38 C25 1_555 1_555
C26 C25 1_555 1_555
H39 C26 1_555 1_555
H40 C26 1_555 1_555
C27 C26 1_555 1_555
H41 C27 1_555 1_555
H42 C27 1_555 1_555
C28 N6 1_555 1_555
H43 C28 1_555 1_555
H44 C28 1_555 1_555
Li2 N4 1_555 1_555
C1 C5 1_555 1_555
C3 C4 1_555 1_555
C4 C6 1_555 1_555
C9 C10 1_555 1_555
C13 C14 1_555 1_555
C15 C19 1_555 1_555
C17 C18 1_555 1_555
C18 C20 1_555 1_555
C23 C24 1_555 1_555
C27 C28 1_555 1_555

#END
