
#######################################################################
#
#                 Cambridge Crystallographic Data Centre
#                                CCDC 
#
#######################################################################
#
# If this CIF has been generated from an entry in the Cambridge 
# Structural Database, then it will include bibliographic, chemical, 
# crystal, experimental, refinement or atomic coordinate data resulting 
# from the CCDC's data processing and validation procedures.
#
#######################################################################

data_GOZBII
_chemical_formula_moiety         'C9 H7 N5 P2'
_chemical_name_systematic        2,6-bis(1H-1,2,4-diazaphosphol-1-yl)pyridine
_symmetry_cell_setting           monoclinic
_symmetry_space_group_name_H-M   'C 2/c'
_symmetry_Int_Tables_number      15
_space_group_name_Hall           '-C 2yn'
loop_
_symmetry_equiv_pos_site_id
_symmetry_equiv_pos_as_xyz
1 x,y,z
2 -x,y,1/2-z
3 1/2+x,1/2+y,z
4 1/2-x,1/2+y,1/2-z
5 -x,-y,-z
6 x,-y,1/2+z
7 1/2-x,1/2-y,-z
8 1/2+x,1/2-y,1/2+z
_cell_length_a                   26.270(6)
_cell_length_b                   10.768(2)
_cell_length_c                   7.9147(18)
_cell_angle_alpha                90
_cell_angle_beta                 94.929(3)
_cell_angle_gamma                90
_cell_volume                     2230.59
_exptl_crystal_colour            colorless
_exptl_crystal_description       bar
_cell_formula_units_Z            8
loop_
_atom_site_label
_atom_site_type_symbol
_atom_site_fract_x
_atom_site_fract_y
_atom_site_fract_z
P1 P 0.29117(3) 0.43179(7) 0.04455(10)
P2 P 0.06438(4) 0.07077(10) 0.41264(18)
N1 N 0.14012(7) 0.41477(18) 0.2623(3)
N2 N 0.20904(7) 0.51110(18) 0.1559(3)
C1 C 0.16152(9) 0.5219(2) 0.2274(3)
N3 N 0.23131(8) 0.61810(19) 0.1079(3)
C2 C 0.09563(9) 0.4207(2) 0.3282(3)
N4 N 0.07524(8) 0.3027(2) 0.3669(3)
C3 C 0.23496(10) 0.4071(2) 0.1317(3)
H1 H 0.2235 0.3286 0.1597
C4 C 0.14065(11) 0.6366(2) 0.2581(4)
H2 H 0.1572 0.7098 0.2331
C5 C 0.07069(11) 0.5291(3) 0.3628(4)
H3 H 0.0392 0.5285 0.4083
C6 C 0.27435(11) 0.5888(2) 0.0476(3)
H4 H 0.2954 0.6495 0.0074
N5 N 0.03237(9) 0.2993(3) 0.4508(4)
C7 C 0.09604(12) 0.1934(3) 0.3363(5)
H5 H 0.1252 0.1848 0.2785
C8 C 0.09466(12) 0.6381(3) 0.3267(4)
H6 H 0.0795 0.7136 0.3492
C9 C 0.02323(14) 0.1834(4) 0.4814(5)
H7 H -0.0048 0.1609 0.5390
loop_
_geom_bond_atom_site_label_1
_geom_bond_atom_site_label_2
_geom_bond_site_symmetry_1
_geom_bond_site_symmetry_2
P1 C3 1_555 1_555
P2 C7 1_555 1_555
N1 C1 1_555 1_555
N2 C1 1_555 1_555
C1 C4 1_555 1_555
N3 N2 1_555 1_555
C2 N1 1_555 1_555
N4 C2 1_555 1_555
C3 N2 1_555 1_555
H1 C3 1_555 1_555
C4 H2 1_555 1_555
C5 C2 1_555 1_555
H3 C5 1_555 1_555
C6 P1 1_555 1_555
H4 C6 1_555 1_555
N5 N4 1_555 1_555
C7 N4 1_555 1_555
H5 C7 1_555 1_555
C8 C4 1_555 1_555
H6 C8 1_555 1_555
C9 P2 1_555 1_555
H7 C9 1_555 1_555
N3 C6 1_555 1_555
C5 C8 1_555 1_555
N5 C9 1_555 1_555

#END
