
#######################################################################
#
#                 Cambridge Crystallographic Data Centre
#                                CCDC 
#
#######################################################################
#
# If this CIF has been generated from an entry in the Cambridge 
# Structural Database, then it will include bibliographic, chemical, 
# crystal, experimental, refinement or atomic coordinate data resulting 
# from the CCDC's data processing and validation procedures.
#
#######################################################################

data_GOZBOO
_chemical_formula_moiety         'C21 H31 N5 P2'
_chemical_name_systematic        
2,6-bis(3,5-diisopropyl-1H-1,2,4-diazaphosphol-1-yl)pyridine
_symmetry_cell_setting           monoclinic
_symmetry_space_group_name_H-M   'C 2/c'
_symmetry_Int_Tables_number      15
_space_group_name_Hall           '-C 2yn'
loop_
_symmetry_equiv_pos_site_id
_symmetry_equiv_pos_as_xyz
1 x,y,z
2 -x,y,1/2-z
3 1/2+x,1/2+y,z
4 1/2-x,1/2+y,1/2-z
5 -x,-y,-z
6 x,-y,1/2+z
7 1/2-x,1/2-y,-z
8 1/2+x,1/2-y,1/2+z
_cell_length_a                   27.150(5)
_cell_length_b                   9.4574(19)
_cell_length_c                   18.201(4)
_cell_angle_alpha                90
_cell_angle_beta                 101.42(3)
_cell_angle_gamma                90
_cell_volume                     4580.92
_exptl_crystal_colour            colorless
_exptl_crystal_description       plate
_cell_formula_units_Z            8
loop_
_atom_site_label
_atom_site_type_symbol
_atom_site_fract_x
_atom_site_fract_y
_atom_site_fract_z
P1 P 0.70768(2) 0.47822(7) 0.50469(4)
P2 P 0.61827(3) 1.16848(7) 0.73575(4)
N1 N 0.60941(6) 0.48916(18) 0.48020(9)
N2 N 0.62773(6) 0.56013(18) 0.54560(9)
N3 N 0.60175(6) 0.74312(17) 0.61559(9)
N4 N 0.58141(7) 0.92955(18) 0.68871(9)
N5 N 0.56974(7) 0.9376(2) 0.75841(10)
C1 C 0.67787(10) 0.2650(3) 0.36752(15)
H1 H 0.7074 0.3227 0.3644
H2 H 0.6677 0.2112 0.3209
H3 H 0.6862 0.1993 0.4098
C2 C 0.63502(8) 0.3603(2) 0.37895(12)
H4 H 0.6054 0.2987 0.3808
C3 C 0.62034(11) 0.4603(3) 0.31280(13)
H5 H 0.6491 0.5205 0.3088
H6 H 0.5921 0.5195 0.3204
H7 H 0.6104 0.4052 0.2666
C4 C 0.64720(8) 0.4413(2) 0.45207(11)
C5 C 0.67854(8) 0.5639(2) 0.56810(12)
C6 C 0.7039(2) 0.6215(5) 0.6444(2)
H8 H 0.6772 0.6423 0.6735
C7 C 0.7402(2) 0.5157(5) 0.6888(3)
H9 H 0.7221 0.4284 0.6955
H10 H 0.7547 0.5557 0.7380
H11 H 0.7670 0.4947 0.6616
C8 C 0.73023(19) 0.7602(4) 0.6332(2)
H12 H 0.7455 0.7999 0.6822
H13 H 0.7057 0.8272 0.6060
H14 H 0.7564 0.7424 0.6043
C9 C 0.59045(7) 0.6195(2) 0.58168(11)
C10 C 0.54551(8) 0.5493(2) 0.57974(12)
H15 H 0.5391 0.4603 0.5556
C11 C 0.51020(8) 0.6127(3) 0.61405(13)
H16 H 0.4787 0.5682 0.6130
C12 C 0.52081(8) 0.7412(2) 0.65001(12)
H17 H 0.4972 0.7870 0.6741
C13 C 0.56720(7) 0.8000(2) 0.64938(10)
C14 C 0.60650(8) 1.0411(2) 0.66693(11)
C15 C 0.61820(16) 1.0549(6) 0.58997(18)
H18 H 0.6258 0.9590 0.5719
C16 C 0.66347(15) 1.1504(5) 0.5909(2)
H19 H 0.6554 1.2466 0.6047
H20 H 0.6719 1.1516 0.5410
H21 H 0.6922 1.1146 0.6275
C17 C 0.57220(17) 1.1136(6) 0.53751(19)
H22 H 0.5627 1.2040 0.5571
H23 H 0.5443 1.0466 0.5339
H24 H 0.5799 1.1282 0.4877
C18 C 0.58683(11) 1.0580(3) 0.78939(13)
C19 C 0.5691(4) 1.1011(9) 0.8609(5)
H25 H 0.5557 1.0151 0.8822
C20 C 0.6162(5) 1.1491(14) 0.9152(6)
H26 H 0.6417 1.0743 0.9205
H27 H 0.6080 1.1690 0.9642
H28 H 0.6294 1.2350 0.8959
C21 C 0.5285(4) 1.2165(11) 0.8517(7)
H29 H 0.5399 1.2992 0.8272
H30 H 0.5224 1.2436 0.9011
H31 H 0.4973 1.1803 0.8209
C22? C 0.7079(7) 0.645(2) 0.6339(7)
H32? H 0.6870 0.7216 0.6503
C23? C 0.7177(7) 0.525(2) 0.6915(9)
H33? H 0.7382 0.4516 0.6740
H34? H 0.6856 0.4839 0.6977
H35? H 0.7355 0.5621 0.7397
C24? C 0.7589(6) 0.7020(19) 0.6229(8)
H36? H 0.7741 0.7591 0.6664
H37? H 0.7541 0.7605 0.5776
H38? H 0.7811 0.6226 0.6176
C25? C 0.6154(7) 1.052(3) 0.5878(7)
H39? H 0.6013 0.9664 0.5594
C26? C 0.6727(6) 1.055(2) 0.5925(9)
H40? H 0.6879 1.1277 0.6281
H41? H 0.6798 1.0754 0.5429
H42? H 0.6868 0.9622 0.6095
C27? C 0.5905(8) 1.184(2) 0.5466(10)
H43? H 0.6066 1.2691 0.5708
H44? H 0.5547 1.1846 0.5486
H45? H 0.5943 1.1811 0.4942
C28? C 0.5885(4) 1.0789(11) 0.8731(4)
H46? H 0.5844 0.9845 0.8959
C29? C 0.6355(4) 1.1493(15) 0.9183(7)
H47? H 0.6646 1.0877 0.9189
H48? H 0.6310 1.1652 0.9698
H49? H 0.6411 1.2400 0.8952
C30? C 0.5416(4) 1.1663(14) 0.8747(6)
H50? H 0.5441 1.2572 0.8498
H51? H 0.5387 1.1830 0.9268
H52? H 0.5119 1.1152 0.8486
loop_
_geom_bond_atom_site_label_1
_geom_bond_atom_site_label_2
_geom_bond_site_symmetry_1
_geom_bond_site_symmetry_2
P1 C4 1_555 1_555
P2 C14 1_555 1_555
N1 N2 1_555 1_555
N2 C5 1_555 1_555
N3 C9 1_555 1_555
N4 N5 1_555 1_555
N5 C18 1_555 1_555
C1 H1 1_555 1_555
H2 C1 1_555 1_555
H3 C1 1_555 1_555
C2 C1 1_555 1_555
H4 C2 1_555 1_555
C3 C2 1_555 1_555
H5 C3 1_555 1_555
H6 C3 1_555 1_555
H7 C3 1_555 1_555
C4 N1 1_555 1_555
C5 P1 1_555 1_555
C6 C5 1_555 1_555
H8 C6 1_555 1_555
C7 C6 1_555 1_555
H9 C7 1_555 1_555
H10 C7 1_555 1_555
H11 C7 1_555 1_555
C8 C6 1_555 1_555
H12 C8 1_555 1_555
H13 C8 1_555 1_555
H14 C8 1_555 1_555
C9 N2 1_555 1_555
C10 C9 1_555 1_555
H15 C10 1_555 1_555
C11 C10 1_555 1_555
H16 C11 1_555 1_555
C12 C11 1_555 1_555
H17 C12 1_555 1_555
C13 N3 1_555 1_555
C14 N4 1_555 1_555
C15 C14 1_555 1_555
H18 C15 1_555 1_555
C16 C15 1_555 1_555
H19 C16 1_555 1_555
H20 C16 1_555 1_555
H21 C16 1_555 1_555
C17 C15 1_555 1_555
H22 C17 1_555 1_555
H23 C17 1_555 1_555
H24 C17 1_555 1_555
C18 P2 1_555 1_555
C19 C18 1_555 1_555
H25 C19 1_555 1_555
C20 C19 1_555 1_555
H26 C20 1_555 1_555
H27 C20 1_555 1_555
H28 C20 1_555 1_555
C21 C19 1_555 1_555
H29 C21 1_555 1_555
H30 C21 1_555 1_555
H31 C21 1_555 1_555
N4 C13 1_555 1_555
C2 C4 1_555 1_555
C12 C13 1_555 1_555

#END
