
#######################################################################
#
#                 Cambridge Crystallographic Data Centre
#                                CCDC 
#
#######################################################################
#
# If this CIF has been generated from an entry in the Cambridge 
# Structural Database, then it will include bibliographic, chemical, 
# crystal, experimental, refinement or atomic coordinate data resulting 
# from the CCDC's data processing and validation procedures.
#
#######################################################################

data_GOZVEY01
_chemical_formula_moiety         'C16 H20 N2 O4 S1'
_chemical_name_systematic        
'ethyl 4-(3,4-dimethoxyphenyl)-6-methyl-2-sulfanylidene-1,2,3,4-tetrahydropyrimidine-5-carboxylate'
_symmetry_cell_setting           monoclinic
_symmetry_space_group_name_H-M   'P 21/c'
_symmetry_Int_Tables_number      14
_space_group_name_Hall           '-P 2ybc'
loop_
_symmetry_equiv_pos_site_id
_symmetry_equiv_pos_as_xyz
1 x,y,z
2 -x,1/2+y,1/2-z
3 -x,-y,-z
4 x,1/2-y,1/2+z
_cell_length_a                   7.2060(7)
_cell_length_b                   24.577(3)
_cell_length_c                   10.0897(11)
_cell_angle_alpha                90
_cell_angle_beta                 107.813(5)
_cell_angle_gamma                90
_cell_volume                     1701.24
_cell_formula_units_Z            4
loop_
_atom_site_label
_atom_site_type_symbol
_atom_site_fract_x
_atom_site_fract_y
_atom_site_fract_z
S1 S 1.32142(9) 0.01047(3) 0.61258(6)
O1 O 1.0624(3) 0.25578(8) 0.6814(2)
O2 O 0.7126(3) 0.27473(9) 0.4921(2)
O3 O 0.7076(2) 0.07699(9) 0.9570(2)
O4 O 0.9825(2) 0.09665(8) 1.12380(18)
N1 N 1.0011(3) 0.03558(8) 0.6783(2)
H1 H 0.9380 0.0159 0.6085
N2 N 1.2879(3) 0.05574(9) 0.8423(2)
H2 H 1.4106 0.0623 0.8623
C1 C 0.9263(4) 0.21460(11) 0.6462(3)
C2 C 0.7439(4) 0.22361(11) 0.5479(3)
C3 C 0.6106(4) 0.18125(12) 0.5162(3)
H3 H 0.4900 0.1863 0.4496
C4 C 0.6554(3) 0.13146(11) 0.5831(3)
H4 H 0.5638 0.1036 0.5612
C5 C 0.8349(3) 0.12250(10) 0.6823(2)
C6 C 0.9683(3) 0.16528(10) 0.7116(2)
H5 H 1.0894 0.1602 0.7776
C7 C 1.1455(5) 0.27027(16) 0.5747(4)
H6 H 1.0440 0.2816 0.4932
H7 H 1.2120 0.2394 0.5525
H8 H 1.2364 0.2996 0.6067
C8 C 0.5500(5) 0.28349(15) 0.3741(4)
H9 H 0.4325 0.2779 0.3983
H10 H 0.5539 0.2584 0.3020
H11 H 0.5530 0.3201 0.3415
C9 C 0.8875(3) 0.06694(10) 0.7505(2)
H12 H 0.7663 0.0472 0.7417
C10 C 1.1943(3) 0.03552(10) 0.7132(2)
C11 C 1.1987(3) 0.06648(10) 0.9439(2)
C12 C 1.0016(3) 0.07056(10) 0.9038(2)
C13 C 1.3401(3) 0.07104(13) 1.0870(3)
H13 H 1.2786 0.0594 1.1541
H14 H 1.3812 0.1082 1.1050
H15 H 1.4514 0.0485 1.0938
C14 C 0.8834(3) 0.08090(10) 0.9956(2)
C15 C 0.8746(4) 0.11081(12) 1.2185(3)
H16 H 0.7953 0.0803 1.2299
H17 H 0.7896 0.1415 1.1828
C16 C 1.0206(5) 0.12503(14) 1.3545(3)
H18 H 1.0959 0.1558 1.3422
H19 H 1.1056 0.0946 1.3877
H20 H 0.9543 0.1339 1.4209
loop_
_geom_bond_atom_site_label_1
_geom_bond_atom_site_label_2
_geom_bond_site_symmetry_1
_geom_bond_site_symmetry_2
S1 C10 1_555 1_555
O1 C1 1_555 1_555
O2 C2 1_555 1_555
O3 C14 1_555 1_555
O4 C14 1_555 1_555
N1 H1 1_555 1_555
N2 H2 1_555 1_555
C1 C2 1_555 1_555
C2 C3 1_555 1_555
C3 H3 1_555 1_555
C4 C3 1_555 1_555
H4 C4 1_555 1_555
C5 C4 1_555 1_555
C6 C1 1_555 1_555
H5 C6 1_555 1_555
C7 O1 1_555 1_555
H6 C7 1_555 1_555
H7 C7 1_555 1_555
H8 C7 1_555 1_555
C8 O2 1_555 1_555
H9 C8 1_555 1_555
H10 C8 1_555 1_555
H11 C8 1_555 1_555
C9 N1 1_555 1_555
H12 C9 1_555 1_555
C10 N1 1_555 1_555
C11 N2 1_555 1_555
C12 C9 1_555 1_555
C13 C11 1_555 1_555
H13 C13 1_555 1_555
H14 C13 1_555 1_555
H15 C13 1_555 1_555
C14 C12 1_555 1_555
C15 O4 1_555 1_555
H16 C15 1_555 1_555
H17 C15 1_555 1_555
C16 C15 1_555 1_555
H18 C16 1_555 1_555
H19 C16 1_555 1_555
H20 C16 1_555 1_555
N2 C10 1_555 1_555
C5 C6 1_555 1_555
C5 C9 1_555 1_555
C11 C12 1_555 1_555

#END
