
#######################################################################
#
#                 Cambridge Crystallographic Data Centre
#                                CCDC 
#
#######################################################################
#
# If this CIF has been generated from an entry in the Cambridge 
# Structural Database, then it will include bibliographic, chemical, 
# crystal, experimental, refinement or atomic coordinate data resulting 
# from the CCDC's data processing and validation procedures.
#
#######################################################################

data_GOZZOM
_chemical_formula_moiety         'C20 H22 O6'
_chemical_name_systematic        
17-methyl-6,7,9,10-tetrahydro-17H-dibenzo[b,k][1,4,7,10,13]pentaoxacyclohexadecin-18(19H)-one
_symmetry_cell_setting           triclinic
_symmetry_space_group_name_H-M   'P -1'
_symmetry_Int_Tables_number      2
_space_group_name_Hall           '-P 1'
loop_
_symmetry_equiv_pos_site_id
_symmetry_equiv_pos_as_xyz
1 x,y,z
2 -x,-y,-z
_cell_length_a                   9.026(4)
_cell_length_b                   9.406(6)
_cell_length_c                   11.529(7)
_cell_angle_alpha                80.09(5)
_cell_angle_beta                 83.27(5)
_cell_angle_gamma                71.88(4)
_cell_volume                     914.253
_exptl_crystal_colour            colorless
_exptl_crystal_description       block
_cell_formula_units_Z            2
loop_
_atom_site_label
_atom_site_type_symbol
_atom_site_fract_x
_atom_site_fract_y
_atom_site_fract_z
C1 C 0.1320(2) 0.1741(2) 0.06256(12)
C2 C 0.0033(2) 0.2966(2) 0.0404(2)
H1 H -0.0344(2) 0.3636(2) 0.0951(2)
C3 C -0.0707(2) 0.3211(2) -0.0626(2)
H2 H -0.1581(2) 0.4043(2) -0.0773(2)
C4 C -0.0146(2) 0.2221(2) -0.1431(2)
H3 H -0.0651(2) 0.2378(2) -0.2121(2)
C5 C 0.1166(2) 0.0990(2) -0.12269(14)
H4 H 0.1544(2) 0.0332(2) -0.17830(14)
C6 C 0.1913(2) 0.0738(2) -0.01998(13)
O1 O 0.32227(13) -0.04114(12) 0.00985(9)
C7 C 0.3874(2) -0.1537(2) -0.06623(14)
H5 H 0.4289(2) -0.1100(2) -0.14047(14)
H6 H 0.3083(2) -0.1963(2) -0.08241(14)
C8 C 0.5144(2) -0.2722(2) -0.00303(15)
H7 H 0.5755(2) -0.3414(2) -0.05637(15)
H8 H 0.5833(2) -0.2259(2) 0.02463(15)
O2 O 0.44857(12) -0.35248(12) 0.09420(9)
C9 C 0.5562(2) -0.4347(2) 0.1778(2)
H9 H 0.6031(2) -0.3675(2) 0.2048(2)
H10 H 0.6387(2) -0.5113(2) 0.1420(2)
C10 C 0.4758(2) -0.5078(2) 0.27985(15)
H11 H 0.4219(2) -0.5693(2) 0.25277(15)
H12 H 0.5513(2) -0.5725(2) 0.33439(15)
O3 O 0.36691(13) -0.39121(11) 0.33679(9)
C11 C 0.2832(2) -0.4334(2) 0.43653(13)
C12 C 0.2930(2) -0.5809(2) 0.4862(2)
H13 H 0.3613(2) -0.6612(2) 0.4517(2)
C13 C 0.2013(2) -0.6083(2) 0.5870(2)
H14 H 0.2093(2) -0.7075(2) 0.6204(2)
C14 C 0.0989(2) -0.4922(2) 0.6385(2)
H15 H 0.0371(2) -0.5120(2) 0.7061(2)
C15 C 0.0881(2) -0.3449(2) 0.58904(14)
H16 H 0.0186(2) -0.2654(2) 0.62372(14)
C16 C 0.1788(2) -0.3147(2) 0.48932(12)
O4 O 0.16033(11) -0.16640(10) 0.43666(8)
C17 C 0.2850(2) -0.1076(2) 0.45222(12)
H17 H 0.3840(2) -0.1888(2) 0.44934(12)
C18 C 0.2898(2) 0.0168(2) 0.34980(13)
O5 O 0.3661(2) 0.10136(14) 0.35294(11)
C19 C 0.2009(2) 0.0268(2) 0.24616(12)
H18 H 0.2449(2) -0.0636(2) 0.20895(12)
H19 H 0.0928(2) 0.0344(2) 0.27180(12)
O6 O 0.20853(12) 0.15604(11) 0.16403(9)
C20 C 0.2623(2) -0.0517(2) 0.57030(14)
H20 H 0.2626(15) -0.1326(12) 0.6338(10)
H21 H 0.3458(11) -0.0112(14) 0.5769(14)
H22 H 0.1643(8) 0.0264(10) 0.5743(14)
loop_
_geom_bond_atom_site_label_1
_geom_bond_atom_site_label_2
_geom_bond_site_symmetry_1
_geom_bond_site_symmetry_2
C1 C2 1_555 1_555
C2 H1 1_555 1_555
C3 C2 1_555 1_555
H2 C3 1_555 1_555
C4 C3 1_555 1_555
H3 C4 1_555 1_555
C5 C4 1_555 1_555
H4 C5 1_555 1_555
C6 C1 1_555 1_555
O1 C6 1_555 1_555
C7 O1 1_555 1_555
H5 C7 1_555 1_555
H6 C7 1_555 1_555
C8 C7 1_555 1_555
H7 C8 1_555 1_555
H8 C8 1_555 1_555
O2 C8 1_555 1_555
C9 O2 1_555 1_555
H9 C9 1_555 1_555
H10 C9 1_555 1_555
C10 C9 1_555 1_555
H11 C10 1_555 1_555
H12 C10 1_555 1_555
O3 C10 1_555 1_555
C11 O3 1_555 1_555
C12 C11 1_555 1_555
H13 C12 1_555 1_555
C13 C12 1_555 1_555
H14 C13 1_555 1_555
C14 C13 1_555 1_555
H15 C14 1_555 1_555
C15 C14 1_555 1_555
H16 C15 1_555 1_555
C16 C11 1_555 1_555
O4 C16 1_555 1_555
C17 O4 1_555 1_555
H17 C17 1_555 1_555
C18 C17 1_555 1_555
O5 C18 1_555 1_555
C19 C18 1_555 1_555
H18 C19 1_555 1_555
H19 C19 1_555 1_555
O6 C1 1_555 1_555
C20 C17 1_555 1_555
H20 C20 1_555 1_555
H21 C20 1_555 1_555
H22 C20 1_555 1_555
C5 C6 1_555 1_555
C15 C16 1_555 1_555
C19 O6 1_555 1_555

#END
