
#######################################################################
#
#                 Cambridge Crystallographic Data Centre
#                                CCDC 
#
#######################################################################
#
# If this CIF has been generated from an entry in the Cambridge 
# Structural Database, then it will include bibliographic, chemical, 
# crystal, experimental, refinement or atomic coordinate data resulting 
# from the CCDC's data processing and validation procedures.
#
#######################################################################

data_GUBCOX
_chemical_formula_moiety         'C28 H34 N4 S1'
_chemical_name_systematic        
(4-t-butyl-5-(2-(1-hexyl-3,3-dimethyl-1,3-dihydro-2H-indol-2-ylidene)ethylidene)-1,3-thiazol-2(5H)-ylidene)malononitrile
_symmetry_cell_setting           triclinic
_symmetry_space_group_name_H-M   'P -1'
_symmetry_Int_Tables_number      2
_space_group_name_Hall           '-P 1'
loop_
_symmetry_equiv_pos_site_id
_symmetry_equiv_pos_as_xyz
1 x,y,z
2 -x,-y,-z
_cell_length_a                   7.0840(5)
_cell_length_b                   17.5050(17)
_cell_length_c                   23.0478(17)
_cell_angle_alpha                111.082(5)
_cell_angle_beta                 92.440(3)
_cell_angle_gamma                97.604(2)
_cell_volume                     2630.71
_exptl_crystal_colour            violet
_exptl_crystal_description       needle
_cell_formula_units_Z            4
loop_
_atom_site_label
_atom_site_type_symbol
_atom_site_fract_x
_atom_site_fract_y
_atom_site_fract_z
S1 S 0.25613(8) 0.01361(3) 0.02621(2)
N1 N 0.1454(4) -0.16113(14) 0.08542(11)
N2 N 0.0842(4) -0.29484(13) -0.11701(11)
N3 N 0.2119(2) -0.08032(10) -0.09111(8)
N4 N 0.4644(3) 0.32809(11) 0.13754(8)
C1 C 0.1498(3) -0.15866(13) 0.03642(11)
C2 C 0.1159(3) -0.23248(14) -0.07566(11)
C3 C 0.1560(3) -0.15635(12) -0.02390(10)
C4 C 0.2043(3) -0.08237(12) -0.03374(9)
C5 C 0.2565(3) -0.00258(12) -0.08982(9)
C6 C 0.2874(3) 0.06046(12) -0.02946(9)
C7 C 0.3370(3) 0.14624(12) -0.00903(10)
H1 H 0.3456 0.1702 -0.0391
C8 C 0.3743(3) 0.19810(13) 0.05292(10)
H2 H 0.3683 0.1729 0.0823
C9 C 0.4200(3) 0.28411(13) 0.07600(10)
C10 C 0.4305(3) 0.34347(12) 0.04068(11)
C11 C 0.4815(3) 0.42640(13) 0.09446(12)
C12 C 0.4996(3) 0.41442(14) 0.14974(11)
C13 C 0.5452(4) 0.47913(16) 0.20703(13)
H3 H 0.5564 0.4698 0.2442
C14 C 0.5732(4) 0.55875(17) 0.20594(17)
H4 H 0.6042 0.6039 0.2434
C15 C 0.5564(4) 0.57212(16) 0.15125(18)
H5 H 0.5761 0.6261 0.1521
C16 C 0.5102(4) 0.50609(14) 0.09432(15)
H6 H 0.4989 0.5153 0.0571
C17 C 0.2654(3) 0.00351(14) -0.15407(10)
C18 C 0.0669(4) -0.03087(19) -0.18927(13)
H7 H 0.0295 -0.0866 -0.1912
H8 H 0.0696 -0.0308 -0.2309
H9 H -0.0233 0.0031 -0.1679
C19 C 0.4113(5) -0.0489(2) -0.18768(14)
H10 H 0.5366 -0.0248 -0.1664
H11 H 0.4095 -0.0509 -0.2299
H12 H 0.3798 -0.1041 -0.1879
C20 C 0.3208(4) 0.09108(15) -0.15384(12)
H13 H 0.4440 0.1151 -0.1308
H14 H 0.2272 0.1245 -0.1345
H15 H 0.3261 0.0886 -0.1960
C21 C 0.2387(4) 0.33788(14) 0.00418(12)
H16 H 0.1390 0.3441 0.0317
H17 H 0.2098 0.2849 -0.0295
H18 H 0.2479 0.3811 -0.0124
C22 C 0.5930(4) 0.33048(14) -0.00255(12)
H19 H 0.7109 0.3343 0.0212
H20 H 0.6056 0.3724 -0.0205
H21 H 0.5638 0.2767 -0.0353
C23 C 0.4932(4) 0.29179(17) 0.18483(11)
H22 H 0.5772 0.3323 0.2197
H23 H 0.5581 0.2444 0.1671
C24 C 0.3117(4) 0.26387(19) 0.20967(13)
H24 H 0.2195 0.2304 0.1744
H25 H 0.3419 0.2288 0.2320
C25 C 0.2207(5) 0.3319(2) 0.25186(15)
H26 H 0.1820 0.3655 0.2293
H27 H 0.3127 0.3672 0.2866
C26 C 0.0426(6) 0.2969(3) 0.27723(18)
H28 H -0.0514 0.2648 0.2422
H29 H 0.0812 0.2592 0.2960
C27 C -0.0460(7) 0.3566(3) 0.3215(2)
H30 H -0.0928 0.3923 0.3023
H31 H 0.0483 0.3907 0.3560
C28 C -0.2127(7) 0.3176(3) 0.3471(2)
H32 H -0.2753 0.3605 0.3740
H33 H -0.1651 0.2871 0.3702
H34 H -0.3024 0.2808 0.3130
S2 S 0.23909(8) 0.96433(3) 0.49981(2)
N5 N 0.3235(4) 1.26031(15) 0.66687(12)
N6 N 0.2604(4) 1.00876(16) 0.67015(11)
N7 N 0.2908(3) 1.11695(11) 0.50757(8)
N8 N 0.1159(3) 0.68957(11) 0.30443(9)
C29 C 0.3077(4) 1.19029(16) 0.63989(11)
C30 C 0.2718(4) 1.05148(16) 0.64241(11)
C31 C 0.2859(3) 1.10304(14) 0.60756(10)
C32 C 0.2752(3) 1.07003(13) 0.54233(10)
C33 C 0.2739(3) 1.07137(13) 0.44603(10)
C34 C 0.2438(3) 0.98461(13) 0.43048(9)
C35 C 0.2174(3) 0.91812(13) 0.37324(10)
H35 H 0.2226 0.9305 0.3373
C36 C 0.1842(3) 0.83558(13) 0.36567(10)
H36 H 0.1822 0.8234 0.4017
C37 C 0.1533(3) 0.76861(13) 0.30854(10)
C38 C 0.1517(3) 0.77060(12) 0.24291(9)
C39 C 0.1092(3) 0.67943(14) 0.20328(11)
C40 C 0.0911(3) 0.63395(14) 0.24102(12)
C41 C 0.0532(4) 0.54801(15) 0.21741(15)
H37 H 0.0430 0.5179 0.2435
C42 C 0.0314(4) 0.50932(17) 0.15295(17)
H38 H 0.0057 0.4517 0.1353
C43 C 0.0466(4) 0.55340(19) 0.11449(15)
H39 H 0.0298 0.5253 0.0714
C44 C 0.0869(4) 0.63956(16) 0.13880(12)
H40 H 0.0985 0.6695 0.1126
C45 C 0.2901(4) 1.12218(14) 0.40426(11)
C46 C 0.2687(5) 1.07236(17) 0.33387(12)
H41 H 0.1458 1.0377 0.3220
H42 H 0.3675 1.0384 0.3236
H43 H 0.2793 1.1097 0.3118
C47 C 0.1336(5) 1.17697(19) 0.41902(16)
H44 H 0.0103 1.1426 0.4078
H45 H 0.1452 1.2127 0.3956
H46 H 0.1473 1.2099 0.4629
C48 C 0.4885(5) 1.17612(19) 0.42150(15)
H47 H 0.5854 1.1411 0.4121
H48 H 0.5035 1.2094 0.4653
H49 H 0.5006 1.2115 0.3978
C49 C -0.0094(4) 0.81433(15) 0.22932(11)
H50 H -0.1291 0.7895 0.2377
H51 H -0.0159 0.8087 0.1863
H52 H 0.0161 0.8720 0.2555
C50 C 0.3469(4) 0.80878(15) 0.23056(11)
H53 H 0.4447 0.7805 0.2396
H54 H 0.3742 0.8665 0.2568
H55 H 0.3437 0.8032 0.1875
C51 C 0.0894(4) 0.66314(18) 0.35745(14)
H56 H 0.0282 0.6056 0.3405
H57 H -0.0016 0.6948 0.3819
C52 C 0.2556(9) 0.6689(4) 0.4023(3)
H58 H 0.3415 0.7205 0.4110
H59 H 0.2095 0.6689 0.4413
C53 C 0.3602(9) 0.5985(4) 0.3761(5)
H60 H 0.4170 0.5999 0.3388
H61 H 0.2762 0.5461 0.3658
C54 C 0.527(2) 0.6123(10) 0.4329(8)
H62 H 0.6134 0.6640 0.4420
H63 H 0.4697 0.6139 0.4707
C55 C 0.6277(14) 0.5446(6) 0.4116(5)
H64 H 0.6696 0.5394 0.3710
H65 H 0.5428 0.4940 0.4067
C56 C 0.800(2) 0.5552(13) 0.4566(7)
H66 H 0.8796 0.5147 0.4372
H67 H 0.7578 0.5479 0.4936
H68 H 0.8714 0.6099 0.4677
H69? H -0.0121 0.6161 0.3473
H70? H 0.0625 0.7080 0.3941
C57? C 0.2994(17) 0.6379(9) 0.3673(6)
H71? H 0.3271 0.5978 0.3281
H72? H 0.3961 0.6868 0.3782
C58? C 0.312(2) 0.6010(9) 0.4184(8)
H73? H 0.2260 0.5492 0.4085
H74? H 0.2949 0.6398 0.4595
C59? C 0.541(3) 0.5877(19) 0.4099(12)
H75? H 0.5565 0.5420 0.3722
H76? H 0.6248 0.6378 0.4131
C60? C 0.556(3) 0.5676(12) 0.4678(12)
H77? H 0.4761 0.5150 0.4606
H78? H 0.5101 0.6100 0.5018
C61? C 0.767(4) 0.562(3) 0.4870(14)
H79? H 0.7917 0.5854 0.5317
H80? H 0.8536 0.5927 0.4692
H81? H 0.7856 0.5052 0.4719
loop_
_geom_bond_atom_site_label_1
_geom_bond_atom_site_label_2
_geom_bond_site_symmetry_1
_geom_bond_site_symmetry_2
S1 C4 1_555 1_555
N1 C1 1_555 1_555
N2 C2 1_555 1_555
N3 C4 1_555 1_555
N4 C9 1_555 1_555
C1 C3 1_555 1_555
C2 C3 1_555 1_555
C3 C4 1_555 1_555
C5 N3 1_555 1_555
C6 S1 1_555 1_555
C7 C6 1_555 1_555
H1 C7 1_555 1_555
C8 C7 1_555 1_555
H2 C8 1_555 1_555
C9 C8 1_555 1_555
C10 C9 1_555 1_555
C11 C10 1_555 1_555
C12 N4 1_555 1_555
C13 C12 1_555 1_555
H3 C13 1_555 1_555
C14 C13 1_555 1_555
H4 C14 1_555 1_555
C15 C14 1_555 1_555
H5 C15 1_555 1_555
C16 C11 1_555 1_555
H6 C16 1_555 1_555
C17 C5 1_555 1_555
C18 C17 1_555 1_555
H7 C18 1_555 1_555
H8 C18 1_555 1_555
H9 C18 1_555 1_555
C19 C17 1_555 1_555
H10 C19 1_555 1_555
H11 C19 1_555 1_555
H12 C19 1_555 1_555
C20 C17 1_555 1_555
H13 C20 1_555 1_555
H14 C20 1_555 1_555
H15 C20 1_555 1_555
C21 C10 1_555 1_555
H16 C21 1_555 1_555
H17 C21 1_555 1_555
H18 C21 1_555 1_555
C22 C10 1_555 1_555
H19 C22 1_555 1_555
H20 C22 1_555 1_555
H21 C22 1_555 1_555
C23 N4 1_555 1_555
H22 C23 1_555 1_555
H23 C23 1_555 1_555
C24 C23 1_555 1_555
H24 C24 1_555 1_555
H25 C24 1_555 1_555
C25 C24 1_555 1_555
H26 C25 1_555 1_555
H27 C25 1_555 1_555
C26 C25 1_555 1_555
H28 C26 1_555 1_555
H29 C26 1_555 1_555
C27 C26 1_555 1_555
H30 C27 1_555 1_555
H31 C27 1_555 1_555
C28 C27 1_555 1_555
H32 C28 1_555 1_555
H33 C28 1_555 1_555
H34 C28 1_555 1_555
S2 C32 1_555 1_555
N5 C29 1_555 1_555
N6 C30 1_555 1_555
N7 C32 1_555 1_555
N8 C37 1_555 1_555
C29 C31 1_555 1_555
C30 C31 1_555 1_555
C31 C32 1_555 1_555
C33 N7 1_555 1_555
C34 S2 1_555 1_555
C35 C34 1_555 1_555
H35 C35 1_555 1_555
C36 C35 1_555 1_555
H36 C36 1_555 1_555
C37 C36 1_555 1_555
C38 C37 1_555 1_555
C39 C38 1_555 1_555
C40 N8 1_555 1_555
C41 C40 1_555 1_555
H37 C41 1_555 1_555
C42 C41 1_555 1_555
H38 C42 1_555 1_555
C43 C42 1_555 1_555
H39 C43 1_555 1_555
C44 C39 1_555 1_555
H40 C44 1_555 1_555
C45 C33 1_555 1_555
C46 C45 1_555 1_555
H41 C46 1_555 1_555
H42 C46 1_555 1_555
H43 C46 1_555 1_555
C47 C45 1_555 1_555
H44 C47 1_555 1_555
H45 C47 1_555 1_555
H46 C47 1_555 1_555
C48 C45 1_555 1_555
H47 C48 1_555 1_555
H48 C48 1_555 1_555
H49 C48 1_555 1_555
C49 C38 1_555 1_555
H50 C49 1_555 1_555
H51 C49 1_555 1_555
H52 C49 1_555 1_555
C50 C38 1_555 1_555
H53 C50 1_555 1_555
H54 C50 1_555 1_555
H55 C50 1_555 1_555
C51 N8 1_555 1_555
H56 C51 1_555 1_555
H57 C51 1_555 1_555
C52 C51 1_555 1_555
H58 C52 1_555 1_555
H59 C52 1_555 1_555
C53 C52 1_555 1_555
H60 C53 1_555 1_555
H61 C53 1_555 1_555
C54 C53 1_555 1_555
H62 C54 1_555 1_555
H63 C54 1_555 1_555
C55 C54 1_555 1_555
H64 C55 1_555 1_555
H65 C55 1_555 1_555
C56 C55 1_555 1_555
H66 C56 1_555 1_555
H67 C56 1_555 1_555
H68 C56 1_555 1_555
C5 C6 1_555 1_555
C11 C12 1_555 1_555
C15 C16 1_555 1_555
C33 C34 1_555 1_555
C39 C40 1_555 1_555
C43 C44 1_555 1_555

#END
