
#######################################################################
#
#                 Cambridge Crystallographic Data Centre
#                                CCDC 
#
#######################################################################
#
# If this CIF has been generated from an entry in the Cambridge 
# Structural Database, then it will include bibliographic, chemical, 
# crystal, experimental, refinement or atomic coordinate data resulting 
# from the CCDC's data processing and validation procedures.
#
#######################################################################

data_GUCJEV
_chemical_formula_moiety         'C24 H16 N4 O3,C2 H6 O1 S1'
_chemical_name_systematic        
"5'-nitro-1H,1''H-[3,3':3',3''-terindol]-2'(1'H)-one dimethyl sulfoxide solvate"
_symmetry_cell_setting           monoclinic
_symmetry_space_group_name_H-M   'P 21'
_symmetry_Int_Tables_number      4
_space_group_name_Hall           'P 2yb'
loop_
_symmetry_equiv_pos_site_id
_symmetry_equiv_pos_as_xyz
1 x,y,z
2 -x,1/2+y,-z
_cell_length_a                   10.3163(7)
_cell_length_b                   9.0532(7)
_cell_length_c                   13.2020(11)
_cell_angle_alpha                90
_cell_angle_beta                 104.427(8)
_cell_angle_gamma                90
_cell_volume                     1194.13
_cell_formula_units_Z            2
loop_
_atom_site_label
_atom_site_type_symbol
_atom_site_fract_x
_atom_site_fract_y
_atom_site_fract_z
N1 N -0.0923(2) -0.0808(3) 1.00844(19)
H1 H -0.1252 -0.1141 1.0577
C1 C 0.0365(2) -0.0997(3) 1.00165(19)
H2 H 0.1016 -0.1524 1.0494
C2 C 0.0561(3) -0.0308(3) 0.9155(2)
C3 C -0.1141(2) 0.1187(2) 0.77359(19)
H3 H -0.0556 0.1454 0.7333
C4 C -0.2467(2) 0.1635(2) 0.74494(19)
H4 H -0.2771 0.2201 0.6849
C5 C -0.3351(2) 0.1247(2) 0.80506(19)
H5 H -0.4242 0.1540 0.7834
C6 C -0.2939(2) 0.0450(2) 0.89465(19)
H6 H -0.3529 0.0213 0.9352
C7 C -0.1610(3) 0.0001(4) 0.9238(3)
C8 C -0.0699(3) 0.0345(3) 0.8622(3)
N2 N 0.2287(3) 0.0691(3) 0.7263(2)
H7 H 0.2565 0.1301 0.6865
C9 C 0.2121(3) 0.1041(4) 0.8225(3)
C10 C 0.1794(3) -0.0408(4) 0.8737(2)
C11 C 0.1610(3) -0.1466(4) 0.7834(2)
C12 C 0.1153(3) -0.2895(4) 0.7731(3)
H8 H 0.0903 -0.3375 0.8276
C13 C 0.1079(4) -0.3598(5) 0.6786(3)
C14 C 0.1448(3) -0.2926(5) 0.5971(2)
H9 H 0.1400 -0.3448 0.5356
C15 C 0.1889(3) -0.1490(5) 0.6052(2)
H10 H 0.2132 -0.1016 0.5502
C16 C 0.1954(3) -0.0773(4) 0.7000(3)
N3 N 0.0536(4) -0.5089(5) 0.6649(4)
O1 O 0.0649(4) -0.5811(5) 0.5895(3)
O2 O -0.0042(5) -0.5564(4) 0.7270(3)
O3 O 0.2273(2) 0.2265(3) 0.86192(19)
N4 N 0.5026(2) -0.1742(2) 1.03789(18)
H11 H 0.5719 -0.2304 1.0498
C17 C 0.3981(2) -0.1802(2) 0.95081(18)
H12 H 0.3914 -0.2454 0.8953
C18 C 0.3048(3) -0.0756(4) 0.9577(3)
C19 C 0.3559(3) 0.0007(4) 1.0552(3)
C20 C 0.3107(2) 0.1167(2) 1.10696(15)
H13 H 0.2289 0.1618 1.0779
C21 C 0.3882(2) 0.1629(2) 1.20067(15)
H14 H 0.3595 0.2420 1.2344
C22 C 0.5107(2) 0.0940(2) 1.24789(15)
H15 H 0.5604 0.1269 1.3127
C23 C 0.5571(2) -0.0205(2) 1.19958(15)
H16 H 0.6377 -0.0669 1.2304
C24 C 0.4799(3) -0.0649(4) 1.1033(3)
O4 O 0.3524(3) 0.2061(4) 0.5881(2)
C25 C 0.2190(4) 0.3048(7) 0.4074(3)
H17 H 0.1315 0.2913 0.4189
H18 H 0.2466 0.2154 0.3796
H19 H 0.2166 0.3839 0.3585
C26 C 0.4794(5) 0.3672(7) 0.4827(4)
H20 H 0.5535 0.3921 0.5401
H21 H 0.4666 0.4440 0.4310
H22 H 0.4977 0.2757 0.4522
S1 S 0.33440(13) 0.34861(16) 0.52776(10)
S2? S 0.3731(9) 0.2352(10) 0.4756(7)
H23? H 0.2650 0.3025 0.3525
H24? H 0.1499 0.3783 0.3918
H25? H 0.1799 0.2098 0.4128
H26? H 0.4583 0.3491 0.4087
H27? H 0.5452 0.2972 0.5179
H28? H 0.5142 0.4655 0.4967
loop_
_geom_bond_atom_site_label_1
_geom_bond_atom_site_label_2
_geom_bond_site_symmetry_1
_geom_bond_site_symmetry_2
N1 H1 1_555 1_555
C1 N1 1_555 1_555
H2 C1 1_555 1_555
C2 C1 1_555 1_555
C3 H3 1_555 1_555
C4 C3 1_555 1_555
H4 C4 1_555 1_555
C5 C4 1_555 1_555
H5 C5 1_555 1_555
C6 C5 1_555 1_555
H6 C6 1_555 1_555
C7 N1 1_555 1_555
C8 C2 1_555 1_555
N2 H7 1_555 1_555
C9 N2 1_555 1_555
C10 C2 1_555 1_555
C11 C10 1_555 1_555
C12 C11 1_555 1_555
H8 C12 1_555 1_555
C13 C12 1_555 1_555
C14 C13 1_555 1_555
H9 C14 1_555 1_555
C15 C14 1_555 1_555
H10 C15 1_555 1_555
C16 N2 1_555 1_555
N3 C13 1_555 1_555
O1 N3 1_555 1_555
O2 N3 1_555 1_555
O3 C9 1_555 1_555
N4 H11 1_555 1_555
C17 N4 1_555 1_555
H12 C17 1_555 1_555
C18 C10 1_555 1_555
C19 C18 1_555 1_555
C20 C19 1_555 1_555
H13 C20 1_555 1_555
C21 C20 1_555 1_555
H14 C21 1_555 1_555
C22 C21 1_555 1_555
H15 C22 1_555 1_555
C23 C22 1_555 1_555
H16 C23 1_555 1_555
C24 N4 1_555 1_555
O4 S1 1_555 1_555
C25 H17 1_555 1_555
H18 C25 1_555 1_555
H19 C25 1_555 1_555
C26 H20 1_555 1_555
H21 C26 1_555 1_555
H22 C26 1_555 1_555
S1 C25 1_555 1_555
C3 C8 1_555 1_555
C6 C7 1_555 1_555
C7 C8 1_555 1_555
C9 C10 1_555 1_555
C11 C16 1_555 1_555
C15 C16 1_555 1_555
C17 C18 1_555 1_555
C19 C24 1_555 1_555
C23 C24 1_555 1_555
C26 S1 1_555 1_555

#END
