
#######################################################################
#
#                 Cambridge Crystallographic Data Centre
#                                CCDC 
#
#######################################################################
#
# If this CIF has been generated from an entry in the Cambridge 
# Structural Database, then it will include bibliographic, chemical, 
# crystal, experimental, refinement or atomic coordinate data resulting 
# from the CCDC's data processing and validation procedures.
#
#######################################################################

data_GUCNID
_chemical_formula_moiety         'C16 H13 F1 O2'
_chemical_name_systematic        
1-(6-fluoro-2-methyl-5-(phenylethynyl)-4H-pyran-3-yl)ethanone
_symmetry_cell_setting           monoclinic
_symmetry_space_group_name_H-M   'C 2/c'
_symmetry_Int_Tables_number      15
_space_group_name_Hall           '-C 2yn'
loop_
_symmetry_equiv_pos_site_id
_symmetry_equiv_pos_as_xyz
1 x,y,z
2 -x,y,1/2-z
3 1/2+x,1/2+y,z
4 1/2-x,1/2+y,1/2-z
5 -x,-y,-z
6 x,-y,1/2+z
7 1/2-x,1/2-y,-z
8 1/2+x,1/2-y,1/2+z
_cell_length_a                   25.8977(9)
_cell_length_b                   8.7711(3)
_cell_length_c                   11.9279(4)
_cell_angle_alpha                90
_cell_angle_beta                 111.1810(10)
_cell_angle_gamma                90
_cell_volume                     2526.4
_exptl_crystal_colour            colorless
_exptl_crystal_description       block
_cell_formula_units_Z            8
_exptl_crystal_recrystallization_method dichloromethane/hexane
loop_
_atom_site_label
_atom_site_type_symbol
_atom_site_fract_x
_atom_site_fract_y
_atom_site_fract_z
F1 F 0.02869(3) 0.13666(11) 0.64767(8)
O1 O -0.05717(4) 0.06582(11) 0.57481(9)
O2 O -0.20404(5) 0.00788(14) 0.27035(10)
C1 C 0.15383(6) 0.48356(16) 0.50889(13)
H1 H 0.1613 0.4228 0.5789
C2 C 0.19603(6) 0.56565(16) 0.49233(14)
H2 H 0.2324 0.5608 0.5510
C3 C 0.18568(6) 0.65483(16) 0.39100(14)
H3 H 0.2150 0.7101 0.3796
C4 C 0.13250(6) 0.66352(16) 0.30608(14)
H4 H 0.1252 0.7263 0.2372
C5 C 0.09000(6) 0.58096(16) 0.32146(13)
H5 H 0.0537 0.5866 0.2626
C6 C 0.10015(5) 0.48941(15) 0.42296(13)
C7 C 0.05654(6) 0.40099(16) 0.43806(13)
C8 C 0.02067(6) 0.32446(16) 0.45113(13)
C9 C -0.02427(5) 0.23817(15) 0.45991(13)
C10 C -0.08006(6) 0.24579(17) 0.35948(13)
H6 H -0.0759 0.2190 0.2826
H7 H -0.0944 0.3513 0.3526
C11 C -0.12109(5) 0.13805(15) 0.38155(12)
C12 C -0.10910(5) 0.05886(15) 0.48347(12)
C13 C -0.01848(5) 0.15180(16) 0.55431(13)
C14 C -0.17708(6) 0.12491(16) 0.28614(13)
C15 C -0.19940(6) 0.26132(18) 0.20785(14)
H8 H -0.2362 0.2377 0.1491
H9 H -0.1745 0.2878 0.1655
H10 H -0.2020 0.3475 0.2578
C16 C -0.14462(6) -0.04188(17) 0.52500(14)
H11 H -0.1815 -0.0489 0.4622
H12 H -0.1477 0.0004 0.5983
H13 H -0.1280 -0.1437 0.5419
loop_
_geom_bond_atom_site_label_1
_geom_bond_atom_site_label_2
_geom_bond_site_symmetry_1
_geom_bond_site_symmetry_2
F1 C13 1_555 1_555
O1 C12 1_555 1_555
O2 C14 1_555 1_555
C1 H1 1_555 1_555
C2 C1 1_555 1_555
H2 C2 1_555 1_555
C3 C2 1_555 1_555
H3 C3 1_555 1_555
C4 C3 1_555 1_555
H4 C4 1_555 1_555
C5 C4 1_555 1_555
H5 C5 1_555 1_555
C6 C1 1_555 1_555
C7 C6 1_555 1_555
C8 C7 1_555 1_555
C9 C8 1_555 1_555
C10 C9 1_555 1_555
H6 C10 1_555 1_555
H7 C10 1_555 1_555
C11 C10 1_555 1_555
C12 C11 1_555 1_555
C13 O1 1_555 1_555
C14 C11 1_555 1_555
C15 C14 1_555 1_555
H8 C15 1_555 1_555
H9 C15 1_555 1_555
H10 C15 1_555 1_555
C16 C12 1_555 1_555
H11 C16 1_555 1_555
H12 C16 1_555 1_555
H13 C16 1_555 1_555
C5 C6 1_555 1_555
C9 C13 1_555 1_555

#END
