
#######################################################################
#
#                 Cambridge Crystallographic Data Centre
#                                CCDC 
#
#######################################################################
#
# If this CIF has been generated from an entry in the Cambridge 
# Structural Database, then it will include bibliographic, chemical, 
# crystal, experimental, refinement or atomic coordinate data resulting 
# from the CCDC's data processing and validation procedures.
#
#######################################################################

data_GUDRUU
_chemical_formula_moiety         'C16 H16 O2 S1'
_chemical_name_systematic        
1-Methyl-4-(2-((4-methylphenyl)sulfonyl)vinyl)benzene
_symmetry_cell_setting           orthorhombic
_symmetry_space_group_name_H-M   'P 21 21 21'
_symmetry_Int_Tables_number      19
_space_group_name_Hall           'P 2ac 2ab'
loop_
_symmetry_equiv_pos_site_id
_symmetry_equiv_pos_as_xyz
1 x,y,z
2 1/2-x,-y,1/2+z
3 -x,1/2+y,1/2-z
4 1/2+x,1/2-y,-z
_cell_length_a                   5.7471(8)
_cell_length_b                   8.0541(11)
_cell_length_c                   31.351(4)
_cell_angle_alpha                90
_cell_angle_beta                 90
_cell_angle_gamma                90
_cell_volume                     1451.17
_exptl_crystal_colour            colorless
_exptl_crystal_description       block
_cell_formula_units_Z            4
loop_
_atom_site_label
_atom_site_type_symbol
_atom_site_fract_x
_atom_site_fract_y
_atom_site_fract_z
S1 S -0.07335(17) 0.49365(12) 0.88320(3)
O1 O -0.0197(6) 0.6440(3) 0.90532(8)
O2 O -0.3070(4) 0.4617(4) 0.87086(8)
C1 C 0.2922(9) -0.0895(5) 0.98379(12)
H1 H 0.2211 -0.0962 1.0115
H2 H 0.4573 -0.0765 0.9870
H3 H 0.2603 -0.1894 0.9681
C2 C 0.1948(7) 0.0570(4) 0.96003(10)
C3 C 0.3111(6) 0.2064(4) 0.96005(10)
H4 H 0.4479 0.2171 0.9757
C4 C 0.2281(6) 0.3407(4) 0.93730(10)
H5 H 0.3088 0.4407 0.9375
C5 C 0.0252(6) 0.3257(4) 0.91424(9)
C6 C -0.0925(6) 0.1785(4) 0.91413(10)
H6 H -0.2300 0.1683 0.8987
C7 C -0.0081(6) 0.0453(4) 0.93679(11)
H7 H -0.0895 -0.0546 0.9364
C8 C 0.1126(7) 0.4937(5) 0.83920(11)
H8 H 0.2686 0.5193 0.8435
C9 C 0.0459(7) 0.4609(4) 0.80204(12)
H9 H -0.1082 0.4281 0.7989
C10 C 0.1901(6) 0.4693(4) 0.76209(10)
C11 C 0.1088(7) 0.3934(4) 0.72602(11)
H10 H -0.0346 0.3399 0.7266
C12 C 0.2352(7) 0.3950(5) 0.68912(11)
H11 H 0.1763 0.3407 0.6653
C13 C 0.4449(6) 0.4735(4) 0.68604(10)
C14 C 0.5236(6) 0.5559(4) 0.72178(12)
H12 H 0.6624 0.6150 0.7204
C15 C 0.4006(7) 0.5523(4) 0.75960(12)
H13 H 0.4594 0.6061 0.7835
C16 C 0.5862(7) 0.4706(6) 0.64517(11)
H14 H 0.6264 0.5821 0.6372
H15 H 0.4959 0.4206 0.6228
H16 H 0.7256 0.4073 0.6496
loop_
_geom_bond_atom_site_label_1
_geom_bond_atom_site_label_2
_geom_bond_site_symmetry_1
_geom_bond_site_symmetry_2
S1 O1 1_555 1_555
O2 S1 1_555 1_555
C1 H1 1_555 1_555
H2 C1 1_555 1_555
H3 C1 1_555 1_555
C2 C1 1_555 1_555
C3 C2 1_555 1_555
H4 C3 1_555 1_555
C4 C3 1_555 1_555
H5 C4 1_555 1_555
C5 S1 1_555 1_555
C6 C5 1_555 1_555
H6 C6 1_555 1_555
C7 C2 1_555 1_555
H7 C7 1_555 1_555
C8 S1 1_555 1_555
H8 C8 1_555 1_555
C9 C8 1_555 1_555
H9 C9 1_555 1_555
C10 C9 1_555 1_555
C11 C10 1_555 1_555
H10 C11 1_555 1_555
C12 C11 1_555 1_555
H11 C12 1_555 1_555
C13 C12 1_555 1_555
C14 C13 1_555 1_555
H12 C14 1_555 1_555
C15 C10 1_555 1_555
H13 C15 1_555 1_555
C16 C13 1_555 1_555
H14 C16 1_555 1_555
H15 C16 1_555 1_555
H16 C16 1_555 1_555
C4 C5 1_555 1_555
C6 C7 1_555 1_555
C14 C15 1_555 1_555

#END
