
#######################################################################
#
#                 Cambridge Crystallographic Data Centre
#                                CCDC 
#
#######################################################################
#
# If this CIF has been generated from an entry in the Cambridge 
# Structural Database, then it will include bibliographic, chemical, 
# crystal, experimental, refinement or atomic coordinate data resulting 
# from the CCDC's data processing and validation procedures.
#
#######################################################################

data_GUGDOD
_chemical_formula_moiety         'C18 H19 N1 O5'
_chemical_name_systematic        
(+)-5-methoxy-1-methyl-2,3,3a,4,5,12c-hexahydro[1,3]dioxolo[6,7]isochromeno[3,4-g]indol-7(1H)-one
_symmetry_cell_setting           tetragonal
_symmetry_space_group_name_H-M   'P 41 21 2'
_symmetry_Int_Tables_number      92
_space_group_name_Hall           'P 4abw 2nw'
loop_
_symmetry_equiv_pos_site_id
_symmetry_equiv_pos_as_xyz
1 x,y,z
2 1/2-y,1/2+x,1/4+z
3 -x,-y,1/2+z
4 1/2+y,1/2-x,3/4+z
5 1/2-x,1/2+y,1/4-z
6 y,x,-z
7 1/2+x,1/2-y,3/4-z
8 -y,-x,1/2-z
_cell_length_a                   9.0508(2)
_cell_length_b                   9.0508(2)
_cell_length_c                   38.9156(17)
_cell_angle_alpha                90
_cell_angle_beta                 90
_cell_angle_gamma                90
_cell_volume                     3187.85
_exptl_crystal_colour            colorless
_exptl_crystal_description       plate
_cell_formula_units_Z            8
_exptl_crystal_recrystallization_method 'acetone/ dichloromethane'
loop_
_atom_site_label
_atom_site_type_symbol
_atom_site_fract_x
_atom_site_fract_y
_atom_site_fract_z
N1 N 0.4858(5) 0.8725(4) 0.46581(8)
O1 O 0.6392(3) 1.3047(3) 0.43107(8)
O2 O 0.5745(3) 1.1529(3) 0.37098(6)
O3 O 0.6717(4) 1.0995(4) 0.32038(7)
O4 O 0.4593(4) 0.5716(3) 0.29714(7)
O5 O 0.3423(4) 0.5026(3) 0.34724(8)
C1 C 0.3982(7) 0.8720(6) 0.49781(12)
C2 C 0.2960(5) 1.0064(6) 0.49549(11)
C3 C 0.3259(5) 1.0728(5) 0.45956(10)
C4 C 0.4431(5) 1.1911(5) 0.46087(10)
C5 C 0.4988(4) 1.2380(4) 0.42567(10)
C6 C 0.6784(6) 1.4180(5) 0.40753(12)
C7 C 0.5094(4) 1.1087(4) 0.40144(9)
C8 C 0.5983(4) 1.0546(5) 0.34457(9)
C9 C 0.5321(4) 0.9104(4) 0.34741(9)
C10 C 0.5375(4) 0.8163(4) 0.31826(9)
C11 C 0.4704(4) 0.6852(4) 0.32088(10)
C12 C 0.3680(6) 0.4613(6) 0.31199(12)
C13 C 0.3988(4) 0.6389(4) 0.35107(10)
C14 C 0.3928(4) 0.7284(4) 0.37963(9)
C15 C 0.4601(4) 0.8662(4) 0.37800(9)
C16 C 0.4563(4) 0.9734(4) 0.40632(9)
C17 C 0.3835(4) 0.9359(4) 0.44020(9)
C18 C 0.5488(7) 0.7305(6) 0.45730(12)
H1 H 0.4635 0.8794 0.5177
H2 H 0.3408 0.7806 0.4995
H3 H 0.3194 1.0780 0.5133
H4 H 0.1916 0.9755 0.4976
H5 H 0.2350 1.1107 0.4487
H6 H 0.5275 1.1541 0.4737
H7 H 0.4051 1.2785 0.4725
H8 H 0.4285 1.3122 0.4160
H9 H 0.7574 1.4781 0.4173
H10 H 0.5907 1.4794 0.4034
H11 H 0.7105 1.3737 0.3861
H12 H 0.5856 0.8451 0.2978
H13 H 0.2749 0.4567 0.2996
H14 H 0.4170 0.3660 0.3112
H15 H 0.3443 0.6977 0.3998
H16 H 0.2984 0.8657 0.4364
H17 H 0.6207 0.7027 0.4743
H18 H 0.5969 0.7332 0.4351
H19 H 0.4705 0.6554 0.4566
loop_
_geom_bond_atom_site_label_1
_geom_bond_atom_site_label_2
_geom_bond_site_symmetry_1
_geom_bond_site_symmetry_2
N1 C1 1_555 1_555
O1 C5 1_555 1_555
O2 C7 1_555 1_555
O3 C8 1_555 1_555
O4 C11 1_555 1_555
O5 C12 1_555 1_555
C1 C2 1_555 1_555
C2 C3 1_555 1_555
C3 C4 1_555 1_555
C4 C5 1_555 1_555
C5 C7 1_555 1_555
C6 O1 1_555 1_555
C7 C16 1_555 1_555
C8 O2 1_555 1_555
C9 C8 1_555 1_555
C10 C9 1_555 1_555
C11 C10 1_555 1_555
C12 O4 1_555 1_555
C13 O5 1_555 1_555
C14 C13 1_555 1_555
C15 C9 1_555 1_555
C16 C15 1_555 1_555
C17 N1 1_555 1_555
C18 N1 1_555 1_555
H1 C1 1_555 1_555
H2 C1 1_555 1_555
H3 C2 1_555 1_555
H4 C2 1_555 1_555
H5 C3 1_555 1_555
H6 C4 1_555 1_555
H7 C4 1_555 1_555
H8 C5 1_555 1_555
H9 C6 1_555 1_555
H10 C6 1_555 1_555
H11 C6 1_555 1_555
H12 C10 1_555 1_555
H13 C12 1_555 1_555
H14 C12 1_555 1_555
H15 C14 1_555 1_555
H16 C17 1_555 1_555
H17 C18 1_555 1_555
H18 C18 1_555 1_555
H19 C18 1_555 1_555
C3 C17 1_555 1_555
C11 C13 1_555 1_555
C14 C15 1_555 1_555
C16 C17 1_555 1_555

#END
