
#######################################################################
#
#                 Cambridge Crystallographic Data Centre
#                                CCDC 
#
#######################################################################
#
# If this CIF has been generated from an entry in the Cambridge 
# Structural Database, then it will include bibliographic, chemical, 
# crystal, experimental, refinement or atomic coordinate data resulting 
# from the CCDC's data processing and validation procedures.
#
#######################################################################

data_GUGJEY
_chemical_formula_moiety         'C17 H13 Br2 N1 O2'
_chemical_name_systematic        
(S)-5-((R)-(4-Bromophenyl)((4-bromophenyl)amino)methyl)furan-2(5H)-one
_symmetry_cell_setting           orthorhombic
_symmetry_space_group_name_H-M   'P 21 21 21'
_symmetry_Int_Tables_number      19
_space_group_name_Hall           'P 2ac 2ab'
loop_
_symmetry_equiv_pos_site_id
_symmetry_equiv_pos_as_xyz
1 x,y,z
2 1/2-x,-y,1/2+z
3 -x,1/2+y,1/2-z
4 1/2+x,1/2-y,-z
_cell_length_a                   8.781(2)
_cell_length_b                   13.481(4)
_cell_length_c                   13.712(4)
_cell_angle_alpha                90
_cell_angle_beta                 90
_cell_angle_gamma                90
_cell_volume                     1623.18
_exptl_crystal_colour            colorless
_exptl_crystal_description       prismatic
_chemical_melting_point          '147-152 deg.C'
_cell_formula_units_Z            4
loop_
_atom_site_label
_atom_site_type_symbol
_atom_site_fract_x
_atom_site_fract_y
_atom_site_fract_z
Br1 Br 1.12926(16) 0.36095(10) 0.98777(10)
Br2 Br 0.5895(2) 0.82118(11) 0.70274(10)
O1 O 0.4233(16) 0.2397(7) 1.2225(8)
O2 O 0.4008(10) 0.3995(6) 1.1786(5)
N1 N 0.4179(12) 0.5677(7) 1.0528(8)
C1 C 0.4562(17) 0.3276(11) 1.2353(9)
C2 C 0.552(2) 0.3742(15) 1.3092(9)
H1 H 0.6073 0.3415 1.3575
C3 C 0.548(2) 0.4692(14) 1.2951(9)
H2 H 0.5982 0.5159 1.3331
C4 C 0.4520(16) 0.4926(9) 1.2115(9)
H3 H 0.3639 0.5307 1.2344
C5 C 0.5295(13) 0.5505(8) 1.1304(7)
H4 H 0.5578 0.6154 1.1570
C6 C 0.6753(13) 0.5005(7) 1.0957(7)
C7 C 0.8124(14) 0.5336(8) 1.1299(8)
H5 H 0.8148 0.5856 1.1745
C8 C 0.9467(16) 0.4915(8) 1.0994(9)
H6 H 1.0385 0.5148 1.1243
C9 C 0.9472(14) 0.4158(7) 1.0330(7)
C10 C 0.8092(14) 0.3816(7) 0.9986(7)
H7 H 0.8068 0.3300 0.9537
C11 C 0.6748(13) 0.4236(7) 1.0306(7)
H8 H 0.5825 0.3993 1.0075
C12 C 0.4582(13) 0.6258(7) 0.9724(8)
C13 C 0.3889(16) 0.6126(9) 0.8832(8)
H9 H 0.3168 0.5626 0.8763
C14 C 0.4234(16) 0.6715(9) 0.8037(8)
H10 H 0.3718 0.6640 0.7449
C15 C 0.5367(13) 0.7421(8) 0.8140(8)
C16 C 0.6086(15) 0.7573(7) 0.8999(9)
H11 H 0.6819 0.8068 0.9053
C17 C 0.5733(15) 0.6999(7) 0.9785(9)
H12 H 0.6250 0.7093 1.0369
H13 H 0.384(11) 0.515(4) 1.025(6)
loop_
_geom_bond_atom_site_label_1
_geom_bond_atom_site_label_2
_geom_bond_site_symmetry_1
_geom_bond_site_symmetry_2
Br1 C9 1_555 1_555
Br2 C15 1_555 1_555
O1 C1 1_555 1_555
O2 C1 1_555 1_555
N1 C5 1_555 1_555
C1 C2 1_555 1_555
C2 H1 1_555 1_555
C3 C2 1_555 1_555
H2 C3 1_555 1_555
C4 O2 1_555 1_555
H3 C4 1_555 1_555
C5 C4 1_555 1_555
H4 C5 1_555 1_555
C6 C5 1_555 1_555
C7 C6 1_555 1_555
H5 C7 1_555 1_555
C8 C7 1_555 1_555
H6 C8 1_555 1_555
C9 C8 1_555 1_555
C10 C9 1_555 1_555
H7 C10 1_555 1_555
C11 C6 1_555 1_555
H8 C11 1_555 1_555
C12 N1 1_555 1_555
C13 C12 1_555 1_555
H9 C13 1_555 1_555
C14 C13 1_555 1_555
H10 C14 1_555 1_555
C15 C14 1_555 1_555
C16 C15 1_555 1_555
H11 C16 1_555 1_555
C17 C12 1_555 1_555
H12 C17 1_555 1_555
H13 N1 1_555 1_555
C3 C4 1_555 1_555
C10 C11 1_555 1_555
C16 C17 1_555 1_555

#END
