
#######################################################################
#
#                 Cambridge Crystallographic Data Centre
#                                CCDC 
#
#######################################################################
#
# If this CIF has been generated from an entry in the Cambridge 
# Structural Database, then it will include bibliographic, chemical, 
# crystal, experimental, refinement or atomic coordinate data resulting 
# from the CCDC's data processing and validation procedures.
#
#######################################################################

data_GUGMIG
_chemical_formula_moiety         'C8 H9 N3 O1'
_chemical_name_systematic        3-Amino-1-(pyrazin-2-yl)but-2-en-1-one
_symmetry_cell_setting           monoclinic
_symmetry_space_group_name_H-M   'P 21'
_symmetry_Int_Tables_number      4
_space_group_name_Hall           'P 2yb'
loop_
_symmetry_equiv_pos_site_id
_symmetry_equiv_pos_as_xyz
1 x,y,z
2 -x,1/2+y,-z
_cell_length_a                   3.8781(3)
_cell_length_b                   9.3987(6)
_cell_length_c                   10.9937(6)
_cell_angle_alpha                90
_cell_angle_beta                 93.937(6)
_cell_angle_gamma                90
_cell_volume                     399.765
_exptl_crystal_colour            colorless
_exptl_crystal_description       platelet
_cell_formula_units_Z            2
loop_
_atom_site_label
_atom_site_type_symbol
_atom_site_fract_x
_atom_site_fract_y
_atom_site_fract_z
O1 O 0.7781(6) 0.1923(3) 0.8936(2)
N1 N 0.3277(8) 0.2042(3) 0.6015(3)
N2 N 0.2851(9) -0.0873(4) 0.6493(3)
N3 N 0.9052(8) 0.4608(4) 0.9666(3)
H1 H 0.985(10) 0.529(4) 1.019(4)
H2 H 0.925(10) 0.361(4) 0.978(4)
C1 C 0.1822(10) 0.1129(4) 0.5213(3)
H3 H 0.0882 0.1475 0.4470
C2 C 0.1650(9) -0.0313(4) 0.5440(4)
H4 H 0.0665 -0.0910 0.4837
C3 C 0.4326(10) 0.0047(4) 0.7297(3)
H5 H 0.5247 -0.0300 0.8042
C4 C 0.4546(8) 0.1495(4) 0.7071(3)
C5 C 0.6228(8) 0.2490(4) 0.8012(3)
C6 C 0.5963(9) 0.3951(4) 0.7815(3)
H6 H 0.4814 0.4268 0.7096
C7 C 0.7320(8) 0.4954(4) 0.8636(3)
C8 C 0.6888(10) 0.6507(4) 0.8381(3)
H7 H 0.5948 0.6963 0.9067
H8 H 0.5345 0.6638 0.7670
H9 H 0.9094 0.6919 0.8245
loop_
_geom_bond_atom_site_label_1
_geom_bond_atom_site_label_2
_geom_bond_site_symmetry_1
_geom_bond_site_symmetry_2
O1 C5 1_555 1_555
N1 C1 1_555 1_555
N2 C2 1_555 1_555
N3 H1 1_555 1_555
H2 N3 1_555 1_555
C1 H3 1_555 1_555
C2 C1 1_555 1_555
H4 C2 1_555 1_555
C3 N2 1_555 1_555
H5 C3 1_555 1_555
C4 N1 1_555 1_555
C5 C4 1_555 1_555
C6 C5 1_555 1_555
H6 C6 1_555 1_555
C7 N3 1_555 1_555
C8 C7 1_555 1_555
H7 C8 1_555 1_555
H8 C8 1_555 1_555
H9 C8 1_555 1_555
C3 C4 1_555 1_555
C6 C7 1_555 1_555

#END
