
#######################################################################
#
#                 Cambridge Crystallographic Data Centre
#                                CCDC 
#
#######################################################################
#
# If this CIF has been generated from an entry in the Cambridge 
# Structural Database, then it will include bibliographic, chemical, 
# crystal, experimental, refinement or atomic coordinate data resulting 
# from the CCDC's data processing and validation procedures.
#
#######################################################################

data_GUGNED
_chemical_formula_moiety         'C14 H18 N4'
_chemical_name_systematic        
N,N,N',N'-Tetramethyl-2,2'-bipyridine-4,6-diamine
_symmetry_cell_setting           monoclinic
_symmetry_space_group_name_H-M   'P 21/c'
_symmetry_Int_Tables_number      14
_space_group_name_Hall           '-P 2ybc'
loop_
_symmetry_equiv_pos_site_id
_symmetry_equiv_pos_as_xyz
1 x,y,z
2 -x,1/2+y,1/2-z
3 -x,-y,-z
4 x,1/2-y,1/2+z
_cell_length_a                   6.1248(2)
_cell_length_b                   28.0478(11)
_cell_length_c                   7.9067(3)
_cell_angle_alpha                90
_cell_angle_beta                 107.795(4)
_cell_angle_gamma                90
_cell_volume                     1293.28
_exptl_crystal_colour            brown
_exptl_crystal_description       prism
_cell_formula_units_Z            4
loop_
_atom_site_label
_atom_site_type_symbol
_atom_site_fract_x
_atom_site_fract_y
_atom_site_fract_z
N1 N -0.0347(2) 0.05813(4) 0.13193(15)
N2 N 0.11959(19) 0.16639(4) 0.38745(14)
N3 N 0.2632(2) 0.23070(5) 0.57096(16)
N4 N 0.7444(2) 0.09376(5) 0.58014(16)
C1 C -0.2201(2) 0.03987(5) 0.01030(19)
H1 H -0.2068 0.0093 -0.0376
C2 C -0.4286(3) 0.06296(6) -0.0489(2)
H2 H -0.5547 0.0488 -0.1357
C3 C -0.4494(2) 0.10725(6) 0.0211(2)
H3 H -0.5907 0.1241 -0.0163
C4 C -0.2612(2) 0.12669(5) 0.14642(19)
H4 H -0.2717 0.1571 0.1964
C5 C -0.0569(2) 0.10140(5) 0.19857(17)
C6 C 0.1483(2) 0.12192(5) 0.33407(16)
C7 C 0.3474(2) 0.09589(5) 0.39475(17)
H5 H 0.3561 0.0644 0.3530
C8 C 0.5390(2) 0.11702(5) 0.52074(17)
C9 C 0.5108(2) 0.16288(5) 0.57993(17)
H6 H 0.6340 0.1782 0.6657
C10 C 0.2991(2) 0.18602(5) 0.51181(17)
C11 C 0.0566(3) 0.25679(6) 0.4795(2)
H7 H 0.0687 0.2690 0.3665
H8 H 0.0376 0.2835 0.5535
H9 H -0.0762 0.2355 0.4565
C12 C 0.4561(3) 0.25777(6) 0.6793(2)
H10 H 0.5237 0.2413 0.7925
H11 H 0.4043 0.2895 0.7018
H12 H 0.5714 0.2609 0.6171
C13 C 0.9386(2) 0.11624(6) 0.7099(2)
H13 H 0.9710 0.1470 0.6637
H14 H 1.0734 0.0955 0.7324
H15 H 0.9021 0.1213 0.8209
C14 C 0.7714(3) 0.04490(6) 0.5314(2)
H16 H 0.6900 0.0237 0.5900
H17 H 0.9347 0.0366 0.5687
H18 H 0.7079 0.0413 0.4023
loop_
_geom_bond_atom_site_label_1
_geom_bond_atom_site_label_2
_geom_bond_site_symmetry_1
_geom_bond_site_symmetry_2
N1 C1 1_555 1_555
N2 C6 1_555 1_555
N3 C10 1_555 1_555
N4 C8 1_555 1_555
C1 H1 1_555 1_555
C2 C1 1_555 1_555
H2 C2 1_555 1_555
C3 C2 1_555 1_555
H3 C3 1_555 1_555
C4 C3 1_555 1_555
H4 C4 1_555 1_555
C5 N1 1_555 1_555
C6 C5 1_555 1_555
C7 C6 1_555 1_555
H5 C7 1_555 1_555
C8 C7 1_555 1_555
C9 C8 1_555 1_555
H6 C9 1_555 1_555
C10 N2 1_555 1_555
C11 N3 1_555 1_555
H7 C11 1_555 1_555
H8 C11 1_555 1_555
H9 C11 1_555 1_555
C12 N3 1_555 1_555
H10 C12 1_555 1_555
H11 C12 1_555 1_555
H12 C12 1_555 1_555
C13 N4 1_555 1_555
H13 C13 1_555 1_555
H14 C13 1_555 1_555
H15 C13 1_555 1_555
C14 N4 1_555 1_555
H16 C14 1_555 1_555
H17 C14 1_555 1_555
H18 C14 1_555 1_555
C4 C5 1_555 1_555
C9 C10 1_555 1_555

#END
