
#######################################################################
#
#                 Cambridge Crystallographic Data Centre
#                                CCDC 
#
#######################################################################
#
# If this CIF has been generated from an entry in the Cambridge 
# Structural Database, then it will include bibliographic, chemical, 
# crystal, experimental, refinement or atomic coordinate data resulting 
# from the CCDC's data processing and validation procedures.
#
#######################################################################

data_GUGYUD
_chemical_formula_moiety         'C17 H26 O4'
_chemical_name_systematic        
3a-(Adamantan-1-yl)-2,2-dimethyltetrahydrofuro[3,4-d][1,3]dioxol-4-ol
_symmetry_cell_setting           orthorhombic
_symmetry_space_group_name_H-M   'P b c a'
_symmetry_Int_Tables_number      61
_space_group_name_Hall           '-P 2ac 2ab'
loop_
_symmetry_equiv_pos_site_id
_symmetry_equiv_pos_as_xyz
1 x,y,z
2 1/2+x,1/2-y,-z
3 -x,1/2+y,1/2-z
4 1/2-x,-y,1/2+z
5 -x,-y,-z
6 1/2-x,1/2+y,z
7 x,1/2-y,1/2+z
8 1/2+x,y,1/2-z
_cell_length_a                   12.370(3)
_cell_length_b                   11.328(2)
_cell_length_c                   21.465(4)
_cell_angle_alpha                90
_cell_angle_beta                 90
_cell_angle_gamma                90
_cell_volume                     3007.83
_exptl_crystal_colour            colorless
_exptl_crystal_description       block
_cell_formula_units_Z            8
loop_
_atom_site_label
_atom_site_type_symbol
_atom_site_fract_x
_atom_site_fract_y
_atom_site_fract_z
O1 O 0.51780(8) -0.01905(8) 0.73560(4)
O2 O 0.57628(8) -0.11997(8) 0.82190(5)
H1 H 0.5174 -0.1324 0.8403
O3 O 0.41031(6) -0.00274(7) 0.86588(4)
O4 O 0.31076(7) 0.08481(8) 0.78879(4)
C1 C 0.56444(10) -0.00830(11) 0.79654(6)
H2 H 0.6367 0.0307 0.7934
C2 C 0.48522(9) 0.07266(9) 0.83380(5)
C3 C 0.41672(9) 0.13189(10) 0.78244(5)
H3 H 0.4168 0.2198 0.7868
C4 C 0.47071(12) 0.09323(12) 0.72249(6)
H4 H 0.4169 0.0866 0.6885
H5 H 0.5270 0.1506 0.7099
C5 C 0.30727(9) -0.00601(10) 0.83447(6)
C6 C 0.54043(9) 0.15561(10) 0.88094(5)
C7 C 0.61162(11) 0.08513(11) 0.92648(6)
H6 H 0.5667 0.0265 0.9489
H7 H 0.6680 0.0419 0.9030
C8 C 0.66525(14) 0.16857(13) 0.97353(7)
H8 H 0.7112 0.1216 1.0027
C9 C 0.57773(15) 0.23326(14) 1.01067(7)
H9 H 0.5320 0.1754 1.0330
H10 H 0.6118 0.2858 1.0419
C10 C 0.50815(12) 0.30605(12) 0.96606(6)
H11 H 0.4511 0.3488 0.9902
C11 C 0.45453(10) 0.22288(11) 0.91885(6)
H12 H 0.4083 0.2692 0.8903
H13 H 0.4079 0.1658 0.9412
C12 C 0.61186(9) 0.24723(11) 0.84727(6)
H14 H 0.6681 0.2060 0.8227
H15 H 0.5670 0.2940 0.8181
C13 C 0.66580(11) 0.32995(11) 0.89459(7)
H16 H 0.7118 0.3885 0.8719
C14 C 0.73635(12) 0.25828(13) 0.93876(8)
H17 H 0.7721 0.3115 0.9690
H18 H 0.7931 0.2164 0.9149
C15 C 0.57910(12) 0.39554(12) 0.93158(7)
H19 H 0.5340 0.4433 0.9030
H20 H 0.6137 0.4495 0.9619
C16 C 0.21922(10) 0.02303(13) 0.88057(6)
H21 H 0.2158 -0.0389 0.9124
H22 H 0.1497 0.0278 0.8588
H23 H 0.2350 0.0990 0.9004
C17 C 0.29155(11) -0.12498(11) 0.80397(7)
H24 H 0.2893 -0.1865 0.8361
H25 H 0.3517 -0.1405 0.7754
H26 H 0.2234 -0.1251 0.7807
loop_
_geom_bond_atom_site_label_1
_geom_bond_atom_site_label_2
_geom_bond_site_symmetry_1
_geom_bond_site_symmetry_2
O1 C1 1_555 1_555
O2 H1 1_555 1_555
O3 C2 1_555 1_555
O4 C3 1_555 1_555
C1 O2 1_555 1_555
H2 C1 1_555 1_555
C2 C1 1_555 1_555
C3 C2 1_555 1_555
H3 C3 1_555 1_555
C4 O1 1_555 1_555
H4 C4 1_555 1_555
H5 C4 1_555 1_555
C5 O3 1_555 1_555
C6 C2 1_555 1_555
C7 C6 1_555 1_555
H6 C7 1_555 1_555
H7 C7 1_555 1_555
C8 C7 1_555 1_555
H8 C8 1_555 1_555
C9 C8 1_555 1_555
H9 C9 1_555 1_555
H10 C9 1_555 1_555
C10 C9 1_555 1_555
H11 C10 1_555 1_555
C11 C6 1_555 1_555
H12 C11 1_555 1_555
H13 C11 1_555 1_555
C12 C6 1_555 1_555
H14 C12 1_555 1_555
H15 C12 1_555 1_555
C13 C12 1_555 1_555
H16 C13 1_555 1_555
C14 C8 1_555 1_555
H17 C14 1_555 1_555
H18 C14 1_555 1_555
C15 C10 1_555 1_555
H19 C15 1_555 1_555
H20 C15 1_555 1_555
C16 C5 1_555 1_555
H21 C16 1_555 1_555
H22 C16 1_555 1_555
H23 C16 1_555 1_555
C17 C5 1_555 1_555
H24 C17 1_555 1_555
H25 C17 1_555 1_555
H26 C17 1_555 1_555
O4 C5 1_555 1_555
C3 C4 1_555 1_555
C10 C11 1_555 1_555
C13 C14 1_555 1_555
C13 C15 1_555 1_555

#END
