
#######################################################################
#
#                 Cambridge Crystallographic Data Centre
#                                CCDC 
#
#######################################################################
#
# If this CIF has been generated from an entry in the Cambridge 
# Structural Database, then it will include bibliographic, chemical, 
# crystal, experimental, refinement or atomic coordinate data resulting 
# from the CCDC's data processing and validation procedures.
#
#######################################################################

data_GUHMEB02
_chemical_formula_moiety         'C33 H39 N6 3+,3(Br1 1-),2(H2 O1)'
_chemical_name_systematic        
'2,11,13,22,29,31-Hexamethyl-5,19,24-triaza-8,16,27-triazonia-heptacyclo[10.10.6.1^3,21^.1^5,8^.1^10,14^.1^16,19^.1^24,27^]tritriaconta-1,3(29),6,8(30),10,12,14(31),16(32),17,21,25,27(33)-dodecene tribromide dihydrate'
_symmetry_cell_setting           monoclinic
_symmetry_space_group_name_H-M   'P 21/m'
_symmetry_Int_Tables_number      11
_space_group_name_Hall           '-P 2yb'
loop_
_symmetry_equiv_pos_site_id
_symmetry_equiv_pos_as_xyz
1 x,y,z
2 -x,1/2+y,-z
3 -x,-y,-z
4 x,1/2-y,z
_cell_length_a                   9.855(2)
_cell_length_b                   17.306(3)
_cell_length_c                   10.607(2)
_cell_angle_alpha                90
_cell_angle_beta                 114.290(10)
_cell_angle_gamma                90
_cell_volume                     1648.89
_exptl_crystal_colour            colorless
_exptl_crystal_description       flake
_chemical_melting_point          'above 300deg.C'
_cell_formula_units_Z            2
loop_
_atom_site_label
_atom_site_type_symbol
_atom_site_fract_x
_atom_site_fract_y
_atom_site_fract_z
Br1 Br 0.60411(4) -0.04704(2) 0.27542(4)
Br2 Br 0.68478(8) 0.2500 0.34559(7)
N1 N 0.3727(3) 0.18781(15) 0.0343(3)
N2 N 0.0796(3) 0.18738(16) 0.4093(3)
N3 N -0.2540(3) 0.18748(15) -0.2009(3)
C1 C 0.4272(3) 0.21116(18) -0.0585(3)
H1 H 0.4585 0.1793 -0.1119
C2 C 0.3421(5) 0.2500 0.0904(5)
H2 H 0.3052 0.2500 0.1582
C3 C 0.3499(4) 0.10763(18) 0.0691(4)
H3 H 0.4301 0.0928 0.1561
H4 H 0.3507 0.0728 -0.0022
C4 C 0.1563(4) 0.2112(2) 0.5422(4)
H5 H 0.2007 0.1795 0.6192
C5 C 0.0334(6) 0.2500 0.3306(5)
H6 H -0.0224 0.2500 0.2354
C6 C 0.0517(4) 0.10673(18) 0.3586(4)
H7 H -0.0453 0.0902 0.3513
H8 H 0.1262 0.0730 0.4238
C7 C -0.3782(4) 0.2114(2) -0.3113(3)
H9 H -0.4500 0.1797 -0.3751
C8 C -0.1814(6) 0.2500 -0.1362(5)
H10 H -0.0928 0.2500 -0.0571
C9 C -0.2092(4) 0.10568(18) -0.1630(4)
H11 H -0.1926 0.0807 -0.2373
H12 H -0.2885 0.0783 -0.1502
C10 C 0.2014(4) 0.10158(17) 0.0810(4)
C11 C 0.1973(4) 0.10027(18) 0.2113(4)
C12 C 0.0575(4) 0.10082(17) 0.2187(4)
C13 C -0.0758(4) 0.10057(17) 0.0980(4)
C14 C -0.0678(4) 0.10195(17) -0.0305(4)
C15 C 0.0699(4) 0.10317(17) -0.0407(3)
C16 C 0.0764(4) 0.1110(2) -0.1794(4)
H13 H 0.0599 0.1639 -0.2088
H14 H 0.0009 0.0791 -0.2457
H15 H 0.1725 0.0948 -0.1722
C17 C 0.3393(4) 0.1013(2) 0.3419(4)
H16 H 0.3919 0.0536 0.3499
H17 H 0.3157 0.1075 0.4206
H18 H 0.4007 0.1436 0.3382
C18 C -0.2246(4) 0.1027(2) 0.1085(4)
H19 H -0.2336 0.0582 0.1585
H20 H -0.3035 0.1026 0.0173
H21 H -0.2308 0.1488 0.1563
C1C C 0.4272(3) 0.28884(18) -0.0585(3)
N1C N 0.3727(3) 0.31219(15) 0.0343(3)
C4C C 0.1563(4) 0.2888(2) 0.5422(4)
N2C N 0.0796(3) 0.31262(16) 0.4093(3)
C6C C 0.0517(4) 0.39327(18) 0.3586(4)
H7C H -0.0453 0.4098 0.3513
H8C H 0.1262 0.4270 0.4238
C12C C 0.0575(4) 0.39918(17) 0.2187(4)
C11C C 0.1973(4) 0.39973(18) 0.2113(4)
C10C C 0.2014(4) 0.39842(17) 0.0810(4)
C3C C 0.3499(4) 0.39237(18) 0.0691(4)
H3C H 0.4301 0.4072 0.1561
H4C H 0.3507 0.4272 -0.0022
C15C C 0.0699(4) 0.39683(17) -0.0407(3)
C14C C -0.0678(4) 0.39805(17) -0.0305(4)
C9C C -0.2092(4) 0.39432(18) -0.1630(4)
N3C N -0.2540(3) 0.31252(15) -0.2009(3)
C7C C -0.3782(4) 0.2886(2) -0.3113(3)
H9C H -0.4500 0.3203 -0.3751
H11C H -0.1926 0.4193 -0.2373
H12C H -0.2885 0.4217 -0.1502
C13C C -0.0758(4) 0.39943(17) 0.0980(4)
C18C C -0.2246(4) 0.3973(2) 0.1085(4)
H19C H -0.2336 0.4418 0.1585
H20C H -0.3035 0.3974 0.0173
H21C H -0.2308 0.3512 0.1563
C16C C 0.0764(4) 0.3890(2) -0.1794(4)
H13C H 0.0599 0.3361 -0.2088
H14C H 0.0009 0.4209 -0.2457
H15C H 0.1725 0.4052 -0.1722
C17C C 0.3393(4) 0.3987(2) 0.3419(4)
H16C H 0.3919 0.4464 0.3499
H17C H 0.3157 0.3925 0.4206
H18C H 0.4007 0.3564 0.3382
H5C H 0.2007 0.3205 0.6192
H1C H 0.4585 0.3207 -0.1119
O1 O 0.7795(5) 0.0838(3) 0.5175(4)
H22 H 0.727(6) 0.050(2) 0.456(5)
H23 H 0.749(6) 0.1280(15) 0.490(5)
loop_
_geom_bond_atom_site_label_1
_geom_bond_atom_site_label_2
_geom_bond_site_symmetry_1
_geom_bond_site_symmetry_2
N1 C1 1_555 1_555
N2 C4 1_555 1_555
N3 C7 1_555 1_555
C1 H1 1_555 1_555
C2 N1 1_555 1_555
H2 C2 1_555 1_555
C3 N1 1_555 1_555
H3 C3 1_555 1_555
H4 C3 1_555 1_555
C4 H5 1_555 1_555
C5 N2 1_555 1_555
H6 C5 1_555 1_555
C6 N2 1_555 1_555
H7 C6 1_555 1_555
H8 C6 1_555 1_555
C7 H9 1_555 1_555
C8 N3 1_555 1_555
H10 C8 1_555 1_555
C9 N3 1_555 1_555
H11 C9 1_555 1_555
H12 C9 1_555 1_555
C10 C3 1_555 1_555
C11 C10 1_555 1_555
C12 C6 1_555 1_555
C13 C12 1_555 1_555
C14 C9 1_555 1_555
C15 C10 1_555 1_555
C16 C15 1_555 1_555
H13 C16 1_555 1_555
H14 C16 1_555 1_555
H15 C16 1_555 1_555
C17 C11 1_555 1_555
H16 C17 1_555 1_555
H17 C17 1_555 1_555
H18 C17 1_555 1_555
C18 C13 1_555 1_555
H19 C18 1_555 1_555
H20 C18 1_555 1_555
H21 C18 1_555 1_555
O1 H22 1_555 1_555
H23 O1 1_555 1_555
C1C C1 1_555 1_555
N1C C2 1_555 1_555
C4C C4 1_555 1_555
N2C C5 1_555 1_555
C6C N2C 1_555 1_555
H7C C6C 1_555 1_555
H8C C6C 1_555 1_555
C12C C6C 1_555 1_555
C11C C12C 1_555 1_555
C10C C11C 1_555 1_555
C3C N1C 1_555 1_555
H3C C3C 1_555 1_555
H4C C3C 1_555 1_555
C15C C10C 1_555 1_555
C14C C15C 1_555 1_555
C9C C14C 1_555 1_555
N3C C8 1_555 1_555
C7C C7 1_555 1_555
H9C C7C 1_555 1_555
H11C C9C 1_555 1_555
H12C C9C 1_555 1_555
C13C C12C 1_555 1_555
C18C C13C 1_555 1_555
H19C C18C 1_555 1_555
H20C C18C 1_555 1_555
H21C C18C 1_555 1_555
C16C C15C 1_555 1_555
H13C C16C 1_555 1_555
H14C C16C 1_555 1_555
H15C C16C 1_555 1_555
C17C C11C 1_555 1_555
H16C C17C 1_555 1_555
H17C C17C 1_555 1_555
H18C C17C 1_555 1_555
H5C C4C 1_555 1_555
H1C C1C 1_555 1_555
C11 C12 1_555 1_555
C13 C14 1_555 1_555
C14 C15 1_555 1_555
C1C N1C 1_555 1_555
C4C N2C 1_555 1_555
C10C C3C 1_555 1_555
C14C C13C 1_555 1_555
C9C N3C 1_555 1_555
N3C C7C 1_555 1_555

#END
