
#######################################################################
#
#                 Cambridge Crystallographic Data Centre
#                                CCDC 
#
#######################################################################
#
# If this CIF has been generated from an entry in the Cambridge 
# Structural Database, then it will include bibliographic, chemical, 
# crystal, experimental, refinement or atomic coordinate data resulting 
# from the CCDC's data processing and validation procedures.
#
#######################################################################

data_GUHMIG
_chemical_formula_moiety         
'C48 H48 N32 O16,2(C6 H14 N1 O2 1+),2(Cl1 1-),32(H2 O1)'
_chemical_name_systematic        
'Cucurbit(8)uril bis(L-leucinium) clathrate dichloride dotriacontahydrate'
_symmetry_cell_setting           monoclinic
_symmetry_space_group_name_H-M   'P 21'
_symmetry_Int_Tables_number      4
_space_group_name_Hall           'P 2yb'
loop_
_symmetry_equiv_pos_site_id
_symmetry_equiv_pos_as_xyz
1 x,y,z
2 -x,1/2+y,-z
_cell_length_a                   13.4461(8)
_cell_length_b                   22.1558(14)
_cell_length_c                   17.0556(10)
_cell_angle_alpha                90
_cell_angle_beta                 92.422(2)
_cell_angle_gamma                90
_cell_volume                     5076.48
_cell_formula_units_Z            2
loop_
_atom_site_label
_atom_site_type_symbol
_atom_site_fract_x
_atom_site_fract_y
_atom_site_fract_z
O1 O 0.5041(3) 0.26603(18) -0.1143(2)
H1 H 0.4899 0.2719 -0.1601
H2 H 0.4461 0.2649 -0.1041
O2 O 1.1028(3) 0.38713(19) 0.3849(2)
H3 H 1.1299 0.3841 0.3454
H4 H 1.1392 0.3653 0.4263
O3 O 0.4958(3) 0.43022(17) 0.6176(2)
H5 H 0.5057 0.4213 0.6689
H6 H 0.5534 0.4287 0.5982
O4 O 0.8804(3) 0.2890(2) 0.1101(2)
H7 H 0.8703 0.3126 0.1584
H8 H 0.8778 0.2400 0.1139
O5 O 0.8248(3) 0.36379(19) -0.0117(2)
O6 O 0.2153(3) 0.1741(2) 0.6328(2)
O7 O 0.1980(3) 0.31376(18) 0.5052(2)
H9 H 0.1927 0.2849 0.4741
H10 H 0.1510 0.3164 0.5375
O8 O 0.5270(3) 0.4173(2) -0.2247(2)
H11 H 0.4759 0.4061 -0.1857
H12 H 0.5974 0.3957 -0.2183
O9 O 0.6719(3) 0.04315(17) 0.66410(19)
H13 H 0.6617 0.0653 0.7121
H14 H 0.7444 0.0349 0.6760
O10 O 0.4656(4) 0.2792(3) 0.7232(3)
H15 H 0.4988 0.2802 0.6717
H16 H 0.4875 0.3203 0.7400
O11 O 0.2946(4) 0.6530(2) -0.1842(3)
O12 O -0.0455(3) 0.3689(2) -0.1373(2)
H17 H -0.0617 0.3279 -0.1514
H18 H -0.0788 0.4036 -0.1620
O13 O 0.9619(3) 0.5767(3) 0.1403(3)
O14 O 0.1596(3) 0.4474(2) 0.5823(3)
O15 O 0.7481(3) -0.02877(19) 0.2716(3)
H19 H 0.6979 0.0007 0.2682
H20 H 0.7938 -0.0082 0.2690
O16 O -0.0362(3) 0.5385(2) -0.0173(3)
O17 O 0.2886(4) 0.3455(2) -0.2894(4)
H21 H 0.2886 0.3818 -0.2629
H22 H 0.2213 0.3495 -0.3264
O18 O 1.0629(5) 0.3337(3) 0.6188(3)
O19 O 0.9754(4) 0.2819(3) 0.7490(3)
O20 O 1.1492(3) 0.49147(19) 0.3095(2)
O21 O 0.2705(3) 0.7477(2) 0.1383(3)
O22 O 0.0750(4) 0.5123(3) -0.2140(3)
H23 H 0.0669 0.5351 -0.2517
H24 H 0.0570 0.4725 -0.2208
O23 O 0.7934(3) 0.5136(2) -0.1155(2)
H25 H 0.8109 0.4895 -0.1595
H26 H 0.7406 0.4993 -0.0967
O24 O 0.9101(4) 0.6943(3) 0.1048(3)
O25 O -0.0952(4) 0.2218(2) -0.0534(3)
O26 O 0.9600(5) 0.4921(3) 0.5697(4)
O27 O 0.8180(5) 0.1976(3) 0.7227(3)
O28 O 1.0341(5) 0.1546(3) 0.5518(4)
H27 H 0.9997 0.1170 0.5675
H28 H 1.0801 0.1487 0.5645
O29 O 0.1941(5) 0.2412(3) -0.2363(3)
O30 O 0.0247(4) 0.1133(3) 0.3903(4)
O31 O 1.0549(5) 0.6038(3) 0.3245(5)
O32 O 0.7017(4) 0.3597(4) -0.2065(5)
Cl1 Cl 0.08231(11) 0.63983(7) -0.10606(9)
Cl2 Cl 0.13273(14) -0.04564(9) 0.27106(10)
C1 C 0.5626(3) 0.1652(2) 0.5813(2)
H29 H 0.5832 0.1311 0.6138
H30 H 0.5202 0.1907 0.6118
C2 C 0.6579(3) 0.2604(2) 0.5723(2)
C3 C 0.7926(3) 0.3360(2) 0.5783(2)
H31 H 0.7482 0.3553 0.6139
H32 H 0.8566 0.3310 0.6059
C4 C 0.7481(3) 0.4252(2) 0.4961(2)
C5 C 0.7634(3) 0.5184(2) 0.4183(2)
H33 H 0.8218 0.5427 0.4312
H34 H 0.7115 0.5309 0.4527
C6 C 0.6458(3) 0.5633(2) 0.3217(2)
C7 C 0.5819(3) 0.6312(2) 0.2160(2)
H35 H 0.5375 0.6426 0.2569
H36 H 0.6192 0.6668 0.2020
C8 C 0.4208(3) 0.60883(19) 0.1486(2)
C9 C 0.2782(3) 0.6019(2) 0.0514(3)
H37 H 0.2645 0.6280 0.0066
H38 H 0.2408 0.6171 0.0946
C10 C 0.1837(3) 0.5088(2) 0.0796(3)
C11 C 0.0698(3) 0.4218(2) 0.0679(3)
H39 H 0.0429 0.4410 0.1135
H40 H 0.0169 0.4195 0.0275
C12 C 0.1030(3) 0.3396(2) 0.1644(2)
C13 C 0.0813(3) 0.2407(2) 0.2261(2)
H41 H 0.0593 0.2662 0.2681
H42 H 0.0248 0.2168 0.2070
C14 C 0.1847(3) 0.1987(2) 0.3344(2)
C15 C 0.2593(3) 0.1224(2) 0.4268(2)
H43 H 0.2249 0.1471 0.4640
H44 H 0.2313 0.0821 0.4287
C16 C 0.4089(3) 0.1605(2) 0.4995(2)
C17 C 0.7069(3) 0.0838(2) 0.4488(3)
H45 H 0.7184 0.0584 0.4946
H46 H 0.7448 0.0670 0.4069
C18 C 0.8039(3) 0.1737(2) 0.4170(3)
C19 C 0.9177(3) 0.2617(2) 0.4234(3)
H47 H 0.9736 0.2638 0.4613
H48 H 0.9411 0.2429 0.3762
C20 C 0.8802(3) 0.3423(2) 0.3281(2)
C21 C 0.8989(3) 0.4403(2) 0.2635(2)
H49 H 0.9587 0.4629 0.2779
H50 H 0.9146 0.4134 0.2208
C22 C 0.7952(3) 0.4860(2) 0.1572(2)
C23 C 0.7266(3) 0.5629(2) 0.0681(2)
H51 H 0.7587 0.5371 0.0308
H52 H 0.7573 0.6025 0.0657
C24 C 0.5756(3) 0.5289(2) -0.0064(2)
C25 C 0.4220(3) 0.5266(2) -0.0894(2)
H53 H 0.3992 0.5615 -0.1196
H54 H 0.4651 0.5031 -0.1219
C26 C 0.3312(3) 0.4298(2) -0.0809(2)
C27 C 0.2030(4) 0.3496(2) -0.0831(2)
H55 H 0.1394 0.3520 -0.1120
H56 H 0.2498 0.3301 -0.1167
C28 C 0.2502(3) 0.2625(2) 0.0011(2)
C29 C 0.2365(4) 0.1694(2) 0.0768(2)
H57 H 0.2922 0.1585 0.0452
H58 H 0.1804 0.1443 0.0601
C30 C 0.3475(3) 0.1232(2) 0.1778(2)
C31 C 0.4055(3) 0.0525(2) 0.2826(2)
H59 H 0.4499 0.0395 0.2425
H60 H 0.3676 0.0176 0.2982
C32 C 0.5656(3) 0.0750(2) 0.3506(3)
C33 C 0.7437(3) 0.1714(2) 0.5437(2)
H61 H 0.7660 0.1435 0.5854
C34 C 0.8150(3) 0.2255(2) 0.5376(2)
H62 H 0.8739 0.2217 0.5732
C35 C 0.8900(3) 0.3709(2) 0.4609(2)
H63 H 0.9533 0.3709 0.4915
C36 C 0.8778(3) 0.4288(2) 0.4089(2)
H64 H 0.9347 0.4561 0.4165
C37 C 0.8028(3) 0.5372(2) 0.2779(2)
H65 H 0.8641 0.5569 0.2979
C38 C 0.7463(3) 0.5763(2) 0.2141(2)
H66 H 0.7809 0.6145 0.2054
C39 C 0.5566(3) 0.6168(2) 0.0673(2)
H67 H 0.5852 0.6566 0.0573
C40 C 0.4617(3) 0.6056(2) 0.0170(2)
H68 H 0.4505 0.6372 -0.0226
C41 C 0.2417(3) 0.5166(2) -0.0472(2)
H69 H 0.2153 0.5457 -0.0861
C42 C 0.1739(3) 0.4597(2) -0.0414(2)
H70 H 0.1143 0.4630 -0.0762
C43 C 0.1044(3) 0.3125(2) 0.0307(2)
H71 H 0.0436 0.3110 -0.0030
C44 C 0.1153(3) 0.2562(2) 0.0827(2)
H72 H 0.0613 0.2273 0.0716
C45 C 0.1870(3) 0.1460(2) 0.2156(2)
H73 H 0.1290 0.1253 0.1916
C46 C 0.2402(3) 0.1071(2) 0.2795(2)
H74 H 0.2048 0.0691 0.2883
C47 C 0.4291(3) 0.0709(2) 0.4289(2)
H75 H 0.4007 0.0312 0.4398
C48 C 0.5234(3) 0.0833(2) 0.4814(2)
H76 H 0.5326 0.0531 0.5232
N1 N 0.7450(3) 0.14302(17) 0.4669(2)
N2 N 0.8402(3) 0.22359(18) 0.4554(2)
N3 N 0.8847(3) 0.32223(17) 0.4049(2)
N4 N 0.8715(3) 0.40424(17) 0.3301(2)
N5 N 0.8233(3) 0.48184(17) 0.2357(2)
N6 N 0.7449(3) 0.53881(17) 0.14541(19)
N7 N 0.6217(3) 0.56852(18) 0.0443(2)
N8 N 0.4790(3) 0.54716(18) -0.01892(19)
N9 N 0.3365(3) 0.49007(18) -0.0699(2)
N10 N 0.2381(3) 0.41086(18) -0.0651(2)
N11 N 0.1916(3) 0.31296(17) -0.0143(2)
N12 N 0.2114(3) 0.23145(17) 0.0626(2)
N13 N 0.2629(3) 0.15652(17) 0.15933(19)
N14 N 0.3376(3) 0.09703(17) 0.2494(2)
N15 N 0.4649(3) 0.07402(17) 0.35010(19)
N16 N 0.6025(3) 0.08073(18) 0.4255(2)
N17 N 0.6504(3) 0.19927(18) 0.5606(2)
N18 N 0.7531(3) 0.27654(16) 0.5576(2)
N19 N 0.8050(3) 0.37550(17) 0.51110(19)
N20 N 0.7870(3) 0.45590(18) 0.43398(19)
N21 N 0.7308(3) 0.53085(18) 0.33820(19)
N22 N 0.6506(3) 0.58619(17) 0.2468(2)
N23 N 0.5229(3) 0.61157(18) 0.1482(2)
N24 N 0.3842(3) 0.60490(17) 0.0731(2)
N25 N 0.2436(3) 0.54091(18) 0.0319(2)
N26 N 0.1489(3) 0.45900(17) 0.0397(2)
N27 N 0.1003(3) 0.36135(17) 0.0888(2)
N28 N 0.1146(3) 0.27831(17) 0.1629(2)
N29 N 0.1585(3) 0.20054(17) 0.25689(19)
N30 N 0.2403(3) 0.14689(18) 0.34857(19)
N31 N 0.3625(3) 0.11942(17) 0.4509(2)
N32 N 0.5062(3) 0.14335(18) 0.5126(2)
O33 O 0.5923(2) 0.29443(16) 0.5927(2)
O34 O 0.6756(2) 0.44082(15) 0.53168(17)
O35 O 0.5781(2) 0.57112(15) 0.36575(17)
O36 O 0.3717(2) 0.61085(16) 0.20718(18)
O37 O 0.1653(2) 0.52261(15) 0.14755(18)
O38 O 0.0942(2) 0.37111(15) 0.22339(17)
O39 O 0.1633(2) 0.23569(16) 0.38329(17)
O40 O 0.3696(2) 0.20566(15) 0.52771(18)
O41 O 0.8223(2) 0.15803(16) 0.34994(18)
O42 O 0.8828(2) 0.31058(15) 0.27057(17)
O43 O 0.8135(2) 0.44855(16) 0.10722(17)
O44 O 0.6143(2) 0.48428(15) -0.03608(18)
O45 O 0.3992(2) 0.39715(16) -0.1028(2)
O46 O 0.3244(2) 0.24849(15) -0.03413(19)
O47 O 0.4198(2) 0.11798(16) 0.13591(18)
O48 O 0.6172(2) 0.06890(15) 0.29168(17)
C49 C 0.5271(7) 0.4396(4) 0.1766(5)
H77 H 0.4862 0.4609 0.2121
H78 H 0.5491 0.4670 0.1372
H79 H 0.5838 0.4230 0.2050
C50 C 0.3613(5) 0.3959(6) 0.1560(5)
H80 H 0.3529 0.4257 0.1961
H81 H 0.3375 0.3576 0.1738
H82 H 0.3242 0.4076 0.1092
C51 C 0.4695(5) 0.3908(6) 0.1390(8)
H83 H 0.4834 0.3627 0.1824
C52 C 0.4941(5) 0.3511(4) 0.0851(5)
H84 H 0.4562 0.3616 0.0374
H85 H 0.4692 0.3123 0.1018
C53 C 0.6014(4) 0.3408(3) 0.0618(3)
H86 H 0.6451 0.3682 0.0923
C54 C 0.6360(4) 0.2750(3) 0.0778(3)
N33 N 0.6128(3) 0.3530(2) -0.0240(3)
H90 H 0.6757 0.3465 -0.0361
H91 H 0.5967 0.3913 -0.0345
H92 H 0.5729 0.3286 -0.0523
O49 O 0.6566(3) 0.24048(18) 0.0262(2)
O50 O 0.6389(3) 0.2635(2) 0.1524(2)
H93 H 0.6575 0.2287 0.1598
C55 C 0.4859(5) 0.2288(3) 0.3153(4)
H87 H 0.4231 0.2111 0.3269
H88 H 0.5355 0.1977 0.3133
H89 H 0.4802 0.2490 0.2655
C56 C 0.6138(4) 0.3052(3) 0.3629(4)
H94 H 0.6653 0.2753 0.3602
H95 H 0.6308 0.3334 0.4041
H96 H 0.6071 0.3262 0.3138
C57 C 0.5166(4) 0.2748(2) 0.3798(3)
H97 H 0.5243 0.2535 0.4301
C58 C 0.4308(4) 0.3206(3) 0.3846(3)
H98 H 0.4265 0.3437 0.3362
H99 H 0.3688 0.2986 0.3884
C59 C 0.4414(4) 0.3648(2) 0.4540(3)
H100 H 0.5125 0.3729 0.4640
C60 C 0.3903(4) 0.4239(2) 0.4353(3)
N34 N 0.4013(3) 0.33970(19) 0.5269(2)
H101 H 0.4310 0.3047 0.5383
H102 H 0.3360 0.3338 0.5199
H103 H 0.4127 0.3655 0.5662
O51 O 0.3174(3) 0.44091(18) 0.4681(2)
O52 O 0.4331(3) 0.45384(19) 0.3805(2)
H104 H 0.4220 0.4371 0.3382
O53? O -0.0009(12) 0.1006(8) 0.3016(13)
loop_
_geom_bond_atom_site_label_1
_geom_bond_atom_site_label_2
_geom_bond_site_symmetry_1
_geom_bond_site_symmetry_2
O1 H1 1_555 1_555
H2 O1 1_555 1_555
O2 H3 1_555 1_555
H4 O2 1_555 1_555
O3 H5 1_555 1_555
H6 O3 1_555 1_555
O4 H7 1_555 1_555
H8 O4 1_555 1_555
O7 H9 1_555 1_555
H10 O7 1_555 1_555
O8 H11 1_555 1_555
H12 O8 1_555 1_555
O9 H13 1_555 1_555
H14 O9 1_555 1_555
O10 H15 1_555 1_555
H16 O10 1_555 1_555
O12 H17 1_555 1_555
H18 O12 1_555 1_555
O15 H19 1_555 1_555
H20 O15 1_555 1_555
O17 H21 1_555 1_555
H22 O17 1_555 1_555
O22 H23 1_555 1_555
H24 O22 1_555 1_555
O23 H25 1_555 1_555
H26 O23 1_555 1_555
O28 H27 1_555 1_555
H28 O28 1_555 1_555
C1 H29 1_555 1_555
H30 C1 1_555 1_555
C2 N17 1_555 1_555
C3 H31 1_555 1_555
H32 C3 1_555 1_555
C4 N19 1_555 1_555
C5 H33 1_555 1_555
H34 C5 1_555 1_555
C6 N21 1_555 1_555
C7 H35 1_555 1_555
H36 C7 1_555 1_555
C8 N23 1_555 1_555
C9 H37 1_555 1_555
H38 C9 1_555 1_555
C10 N25 1_555 1_555
C11 H39 1_555 1_555
H40 C11 1_555 1_555
C12 N27 1_555 1_555
C13 H41 1_555 1_555
H42 C13 1_555 1_555
C14 N29 1_555 1_555
C15 H43 1_555 1_555
H44 C15 1_555 1_555
C16 N31 1_555 1_555
C17 H45 1_555 1_555
H46 C17 1_555 1_555
C18 N1 1_555 1_555
C19 H47 1_555 1_555
H48 C19 1_555 1_555
C20 N3 1_555 1_555
C21 H49 1_555 1_555
H50 C21 1_555 1_555
C22 N5 1_555 1_555
C23 H51 1_555 1_555
H52 C23 1_555 1_555
C24 N7 1_555 1_555
C25 H53 1_555 1_555
H54 C25 1_555 1_555
C26 N9 1_555 1_555
C27 H55 1_555 1_555
H56 C27 1_555 1_555
C28 N11 1_555 1_555
C29 H57 1_555 1_555
H58 C29 1_555 1_555
C30 N13 1_555 1_555
C31 H59 1_555 1_555
H60 C31 1_555 1_555
C32 N15 1_555 1_555
C33 H61 1_555 1_555
C34 C33 1_555 1_555
H62 C34 1_555 1_555
C35 H63 1_555 1_555
C36 C35 1_555 1_555
H64 C36 1_555 1_555
C37 H65 1_555 1_555
C38 C37 1_555 1_555
H66 C38 1_555 1_555
C39 H67 1_555 1_555
C40 C39 1_555 1_555
H68 C40 1_555 1_555
C41 H69 1_555 1_555
C42 C41 1_555 1_555
H70 C42 1_555 1_555
C43 H71 1_555 1_555
C44 C43 1_555 1_555
H72 C44 1_555 1_555
C45 H73 1_555 1_555
C46 C45 1_555 1_555
H74 C46 1_555 1_555
C47 H75 1_555 1_555
C48 C47 1_555 1_555
H76 C48 1_555 1_555
N1 C17 1_555 1_555
N2 C18 1_555 1_555
N3 C19 1_555 1_555
N4 C20 1_555 1_555
N5 C21 1_555 1_555
N6 C22 1_555 1_555
N7 C23 1_555 1_555
N8 C24 1_555 1_555
N9 C25 1_555 1_555
N10 C26 1_555 1_555
N11 C27 1_555 1_555
N12 C28 1_555 1_555
N13 C29 1_555 1_555
N14 C30 1_555 1_555
N15 C31 1_555 1_555
N16 C17 1_555 1_555
N17 C1 1_555 1_555
N18 C2 1_555 1_555
N19 C3 1_555 1_555
N20 C4 1_555 1_555
N21 C5 1_555 1_555
N22 C6 1_555 1_555
N23 C7 1_555 1_555
N24 C8 1_555 1_555
N25 C9 1_555 1_555
N26 C10 1_555 1_555
N27 C11 1_555 1_555
N28 C12 1_555 1_555
N29 C13 1_555 1_555
N30 C14 1_555 1_555
N31 C15 1_555 1_555
N32 C1 1_555 1_555
O33 C2 1_555 1_555
O34 C4 1_555 1_555
O35 C6 1_555 1_555
O36 C8 1_555 1_555
O37 C10 1_555 1_555
O38 C12 1_555 1_555
O39 C14 1_555 1_555
O40 C16 1_555 1_555
O41 C18 1_555 1_555
O42 C20 1_555 1_555
O43 C22 1_555 1_555
O44 C24 1_555 1_555
O45 C26 1_555 1_555
O46 C28 1_555 1_555
O47 C30 1_555 1_555
O48 C32 1_555 1_555
C49 H77 1_555 1_555
H78 C49 1_555 1_555
H79 C49 1_555 1_555
C50 H80 1_555 1_555
H81 C50 1_555 1_555
H82 C50 1_555 1_555
C51 C49 1_555 1_555
H83 C51 1_555 1_555
C52 C51 1_555 1_555
H84 C52 1_555 1_555
H85 C52 1_555 1_555
C53 C52 1_555 1_555
H86 C53 1_555 1_555
C54 C53 1_555 1_555
C55 H87 1_555 1_555
H88 C55 1_555 1_555
H89 C55 1_555 1_555
N33 C53 1_555 1_555
H90 N33 1_555 1_555
H91 N33 1_555 1_555
H92 N33 1_555 1_555
O49 C54 1_555 1_555
O50 C54 1_555 1_555
H93 O50 1_555 1_555
C56 H94 1_555 1_555
H95 C56 1_555 1_555
H96 C56 1_555 1_555
C57 C55 1_555 1_555
H97 C57 1_555 1_555
C58 C57 1_555 1_555
H98 C58 1_555 1_555
H99 C58 1_555 1_555
C59 C58 1_555 1_555
H100 C59 1_555 1_555
C60 C59 1_555 1_555
N34 C59 1_555 1_555
H101 N34 1_555 1_555
H102 N34 1_555 1_555
H103 N34 1_555 1_555
O51 C60 1_555 1_555
O52 C60 1_555 1_555
H104 O52 1_555 1_555
C3 N18 1_555 1_555
C5 N20 1_555 1_555
C7 N22 1_555 1_555
C9 N24 1_555 1_555
C11 N26 1_555 1_555
C13 N28 1_555 1_555
C15 N30 1_555 1_555
C16 N32 1_555 1_555
C19 N2 1_555 1_555
C21 N4 1_555 1_555
C23 N6 1_555 1_555
C25 N8 1_555 1_555
C27 N10 1_555 1_555
C29 N12 1_555 1_555
C31 N14 1_555 1_555
C32 N16 1_555 1_555
C33 N1 1_555 1_555
C33 N17 1_555 1_555
C34 N2 1_555 1_555
C34 N18 1_555 1_555
C35 N3 1_555 1_555
C35 N19 1_555 1_555
C36 N4 1_555 1_555
C36 N20 1_555 1_555
C37 N5 1_555 1_555
C37 N21 1_555 1_555
C38 N6 1_555 1_555
C38 N22 1_555 1_555
C39 N7 1_555 1_555
C39 N23 1_555 1_555
C40 N8 1_555 1_555
C40 N24 1_555 1_555
C41 N9 1_555 1_555
C41 N25 1_555 1_555
C42 N10 1_555 1_555
C42 N26 1_555 1_555
C43 N11 1_555 1_555
C43 N27 1_555 1_555
C44 N12 1_555 1_555
C44 N28 1_555 1_555
C45 N13 1_555 1_555
C45 N29 1_555 1_555
C46 N14 1_555 1_555
C46 N30 1_555 1_555
C47 N15 1_555 1_555
C47 N31 1_555 1_555
C48 N16 1_555 1_555
C48 N32 1_555 1_555
C50 C51 1_555 1_555
C56 C57 1_555 1_555

#END
