
#######################################################################
#
#                 Cambridge Crystallographic Data Centre
#                                CCDC 
#
#######################################################################
#
# If this CIF has been generated from an entry in the Cambridge 
# Structural Database, then it will include bibliographic, chemical, 
# crystal, experimental, refinement or atomic coordinate data resulting 
# from the CCDC's data processing and validation procedures.
#
#######################################################################

data_GUHMEC
_chemical_formula_moiety         'C48 H48 N32 O16,2(C6 H9 N3 O2),27(H2 O1)'
_chemical_name_systematic        
'Cucurbit(8)uril bis(L-histidine) clathrate heptacosahydrate'
_symmetry_cell_setting           monoclinic
_symmetry_space_group_name_H-M   'P 21'
_symmetry_Int_Tables_number      4
_space_group_name_Hall           'P 2yb'
loop_
_symmetry_equiv_pos_site_id
_symmetry_equiv_pos_as_xyz
1 x,y,z
2 -x,1/2+y,-z
_cell_length_a                   13.6704(12)
_cell_length_b                   13.6881(13)
_cell_length_c                   26.189(2)
_cell_angle_alpha                90
_cell_angle_beta                 92.641(2)
_cell_angle_gamma                90
_cell_volume                     4895.33
_cell_formula_units_Z            2
loop_
_atom_site_label
_atom_site_type_symbol
_atom_site_fract_x
_atom_site_fract_y
_atom_site_fract_z
O1 O 0.1491(2) 0.12130(17) 0.45412(10)
O2 O 0.8504(2) 0.1236(2) 0.05563(12)
H1 H 0.8540 0.0638 0.0634
H2 H 0.8435 0.1376 0.0223
O3 O 0.83183(18) 0.21941(18) 0.28244(10)
O4 O 0.1366(3) 0.7522(4) 0.05842(15)
O5 O 0.93692(19) 0.2882(2) 0.36851(13)
O6 O 0.0738(3) 0.9103(5) 0.1138(2)
O7 O 0.7896(4) 0.5755(4) 0.91236(18)
O8 O 0.7454(2) 0.5872(2) 0.39996(11)
O9 O 0.4094(3) 0.7942(7) 0.01949(18)
O10 O 0.3363(3) 0.9135(3) 0.27274(13)
O11 O 0.5831(3) 0.7806(6) 0.44066(18)
O12 O 0.89466(19) 0.4574(2) 0.42308(10)
O13 O 0.3923(5) 0.0020(4) 0.1178(4)
O14 O 0.6140(4) 0.2369(5) 0.3957(3)
O15 O 0.3896(3) 0.5197(5) 0.06194(17)
O16 O 0.6017(4) 0.2675(4) 0.1746(2)
O17 O 0.3492(4) 0.1362(10) 0.4557(5)
O18 O 0.6259(3) 0.4486(4) 0.45876(19)
O19 O 0.7948(3) 0.1647(3) 0.41478(13)
O20 O 0.1805(3) 0.9901(4) 0.2065(2)
O21 O 0.6451(4) 0.1389(6) 0.0754(3)
O22 O 0.4888(8) 0.4987(10) 0.9763(3)
O23 O 0.5162(5) 0.9517(6) 0.4700(2)
O24 O 0.4863(11) 0.7259(12) 0.5306(7)
O25 O 0.5012(7) 0.1186(6) 0.2889(4)
O26 O 0.4733(6) 0.1030(7) 0.1881(3)
O27 O 0.4671(6) 0.9982(9) 0.3535(5)
C1 C 0.1253(3) 0.9407(2) 0.36938(12)
C2 C -0.0159(2) 0.9462(2) 0.41661(12)
H3 H -0.0354 1.0075 0.4326
C3 C 0.0671(3) 0.8923(3) 0.44983(14)
H4 H 0.0854 0.9269 0.4816
C4 C -0.0678(2) 0.7913(2) 0.44199(11)
C5 C 0.2469(2) 0.8748(2) 0.42922(14)
H5 H 0.2588 0.9056 0.4623
H6 H 0.2888 0.9065 0.4053
C6 C 0.0699(2) 0.7304(3) 0.49404(12)
H7 H 0.0204 0.6848 0.5046
H8 H 0.0945 0.7654 0.5242
C7 C 0.3356(2) 0.7292(2) 0.40059(12)
C8 C 0.2512(2) 0.7128(3) 0.47552(13)
H9 H 0.2693 0.7434 0.5085
C9 C 0.3105(2) 0.6175(2) 0.46617(12)
H10 H 0.3599 0.6065 0.4939
C10 C 0.1478(2) 0.5743(2) 0.47113(10)
C11 C 0.4334(2) 0.5793(3) 0.39914(12)
H11 H 0.4724 0.6199 0.3776
H12 H 0.4756 0.5574 0.4277
C12 C 0.2590(2) 0.4360(3) 0.46337(11)
H13 H 0.2026 0.4015 0.4755
H14 H 0.3139 0.4231 0.4872
C13 C 0.41048(18) 0.4885(2) 0.31943(13)
C14 C 0.3766(2) 0.4037(2) 0.39415(11)
H15 H 0.4274 0.3835 0.4196
C15 C 0.3706(2) 0.3327(2) 0.34710(12)
H16 H 0.4207 0.2816 0.3503
C16 C 0.2249(2) 0.3284(2) 0.38987(11)
C17 C 0.4098(2) 0.3580(3) 0.25413(13)
H17 H 0.4518 0.3015 0.2595
H18 H 0.4474 0.4074 0.2371
C18 C 0.2436(3) 0.2103(2) 0.31901(13)
H19 H 0.2977 0.1645 0.3187
H20 H 0.1901 0.1776 0.3352
C19 C 0.3029(2) 0.3750(3) 0.17690(12)
C20 C 0.2792(2) 0.2388(2) 0.22737(12)
H21 H 0.3257 0.1843 0.2286
C21 C 0.2097(2) 0.2333(3) 0.17861(12)
H22 H 0.2230 0.1745 0.1587
C22 C 0.1178(3) 0.2265(2) 0.25030(13)
C23 C 0.2079(3) 0.3359(3) 0.09668(12)
H23 H 0.2488 0.3874 0.0838
H24 H 0.2222 0.2766 0.0782
C24 C 0.0303(3) 0.1995(3) 0.16538(15)
H25 H 0.0493 0.1450 0.1443
H26 H -0.0188 0.1758 0.1879
C25 C 0.0811(3) 0.4455(3) 0.06023(13)
C26 C 0.0277(3) 0.2892(3) 0.08367(13)
H27 H 0.0452 0.2291 0.0659
C27 C -0.0586(2) 0.3449(3) 0.05587(11)
H28 H -0.0789 0.3115 0.0240
C28 C -0.1087(3) 0.2946(3) 0.13412(14)
C29 C -0.0627(2) 0.5068(3) 0.00871(13)
H29 H -0.0146 0.5536 -0.0021
H30 H -0.0854 0.4702 -0.0212
C30 C -0.2341(3) 0.3575(3) 0.07332(16)
H31 H -0.2755 0.3249 0.0971
H32 H -0.2447 0.3266 0.0402
C31 C -0.1408(3) 0.6599(3) 0.03146(13)
C32 C -0.2424(2) 0.5233(3) 0.02710(13)
H33 H -0.2604 0.4922 -0.0057
C33 C -0.3064(3) 0.6124(3) 0.03567(13)
H34 H -0.3573 0.6206 0.0084
C34 C -0.3263(2) 0.5016(3) 0.10198(13)
C35 C -0.2599(2) 0.7974(3) 0.03602(12)
H35 H -0.2071 0.8342 0.0217
H36 H -0.3182 0.8074 0.0141
C36 C -0.4236(2) 0.6499(3) 0.10671(15)
H37 H -0.4593 0.6088 0.1296
H38 H -0.4691 0.6706 0.0793
C37 C -0.2154(2) 0.9020(3) 0.10914(13)
C38 C -0.3720(2) 0.8280(3) 0.10920(13)
H39 H -0.4270 0.8448 0.0855
C39 C -0.3605(2) 0.9011(3) 0.15505(13)
H40 H -0.4096 0.9533 0.1524
C40 C -0.39680(19) 0.7489(3) 0.18487(11)
C41 C -0.2219(3) 1.0204(2) 0.18031(12)
H41 H -0.2703 1.0721 0.1805
H42 H -0.1650 1.0454 0.1638
C42 C -0.4003(2) 0.8792(3) 0.24740(13)
H43 H -0.4427 0.9354 0.2419
H44 H -0.4366 0.8301 0.2654
C43 C -0.1001(2) 1.0015(2) 0.25122(12)
C44 C -0.2612(2) 0.9989(2) 0.27415(13)
H45 H -0.3050 1.0555 0.2712
C45 C -0.1940(2) 1.0036(2) 0.32223(12)
H46 H -0.2048 1.0629 0.3422
C46 C -0.2919(2) 0.8621(2) 0.32651(12)
C47 C -0.0155(2) 1.0363(2) 0.33156(13)
H47 H -0.0352 1.0936 0.3502
H48 H 0.0344 1.0563 0.3085
C48 C -0.1969(2) 0.9036(3) 0.40372(13)
H49 H -0.2394 0.8541 0.4172
H50 H -0.2104 0.9646 0.4208
N1 N 0.27388(19) 0.29258(18) 0.35063(10)
N2 N 0.28163(17) 0.3975(2) 0.41350(9)
N3 N 0.38478(17) 0.3947(2) 0.30246(10)
N4 N 0.40046(16) 0.4965(2) 0.37061(9)
N5 N 0.23888(17) 0.5383(2) 0.46353(10)
N6 N 0.14940(19) 0.6763(2) 0.47288(9)
N7 N 0.35612(17) 0.6375(2) 0.41849(10)
N8 N 0.27504(18) 0.7717(2) 0.43342(11)
N9 N 0.0256(2) 0.7991(2) 0.45830(9)
N10 N -0.09320(19) 0.87566(19) 0.41586(10)
N11 N 0.1470(2) 0.8912(2) 0.41274(11)
N12 N 0.02777(19) 0.9633(2) 0.36861(11)
N13 N -0.2200(2) 0.91481(19) 0.35010(9)
N14 N -0.31482(18) 0.9082(2) 0.27913(10)
N15 N -0.09627(19) 1.00041(18) 0.30281(11)
N16 N -0.19394(19) 0.99458(19) 0.23225(10)
N17 N -0.37444(17) 0.8401(2) 0.19788(10)
N18 N -0.38726(18) 0.7381(2) 0.13539(10)
N19 N -0.26138(18) 0.9395(2) 0.15127(10)
N20 N -0.27692(18) 0.8347(2) 0.08529(9)
N21 N -0.34761(19) 0.5934(2) 0.08543(11)
N22 N -0.2631(2) 0.4591(2) 0.06925(12)
N23 N -0.2338(2) 0.6903(2) 0.03583(11)
N24 N -0.1434(2) 0.5591(2) 0.02763(11)
N25 N -0.1353(2) 0.3447(2) 0.08996(10)
N26 N -0.0120(2) 0.2703(2) 0.13390(10)
N27 N -0.0149(2) 0.4396(2) 0.04486(11)
N28 N 0.10809(19) 0.3611(2) 0.08617(9)
N29 N 0.1159(2) 0.2307(2) 0.19665(11)
N30 N 0.2124(2) 0.2312(2) 0.26656(11)
N31 N 0.2337(2) 0.3210(2) 0.15047(11)
N32 N 0.32868(19) 0.3306(2) 0.22101(10)
O28 O 0.14207(15) 0.30375(16) 0.40229(8)
O29 O 0.07238(15) 0.52472(17) 0.47331(8)
O30 O -0.12582(17) 0.72496(17) 0.44988(8)
O31 O -0.32892(15) 0.78797(16) 0.34171(8)
O32 O -0.42286(14) 0.68488(18) 0.21547(9)
O33 O -0.35811(16) 0.4633(2) 0.13933(10)
O34 O -0.16438(18) 0.2766(2) 0.16907(9)
O35 O 0.04501(17) 0.22081(17) 0.27621(9)
O36 O 0.43962(14) 0.55304(16) 0.29097(8)
O37 O 0.36888(15) 0.76636(18) 0.36248(9)
O38 O 0.18004(18) 0.95939(19) 0.33529(11)
O39 O -0.02795(16) 1.00777(17) 0.22344(9)
O40 O -0.13453(16) 0.92616(17) 0.09583(9)
O41 O -0.06950(15) 0.7111(2) 0.02797(9)
O42 O 0.13603(19) 0.5153(2) 0.05306(11)
O43 O 0.34205(16) 0.45120(18) 0.16044(10)
C49 C 0.8934(3) 0.6806(4) 0.17728(16)
H51 H 0.9058 0.7007 0.1443
C50 C 0.8708(2) 0.6561(3) 0.27619(16)
H52 H 0.8693 0.6622 0.3115
C51 C 0.84190(19) 0.5779(2) 0.24847(11)
C52 C 0.7987(2) 0.4883(3) 0.27338(15)
H53 H 0.8260 0.4835 0.3081
H54 H 0.8192 0.4307 0.2551
C53 C 0.6873(2) 0.4874(2) 0.27484(14)
H55 H 0.6597 0.4878 0.2396
C54 C 0.6476(2) 0.3993(3) 0.30209(16)
N33 N 0.65264(17) 0.57762(18) 0.30170(11)
H56 H 0.6749 0.6305 0.2863
H57 H 0.6751 0.5768 0.3341
H58 H 0.5875 0.5787 0.3005
N34 N 0.9115(2) 0.7439(3) 0.2340(3)
H59 H 0.9341 0.8017 0.2397
N35 N 0.8505(3) 0.5809(4) 0.19534(15)
O44 O 0.60892(19) 0.4124(2) 0.34421(11)
O45 O 0.6578(2) 0.3195(2) 0.28031(15)
C55 C 0.1193(3) 0.6031(8) 0.33119(15)
H60 H 0.1056 0.6084 0.3655
C56 C 0.1464(3) 0.5484(3) 0.2376(2)
H61 H 0.1526 0.5133 0.2075
C57 C 0.1697(2) 0.6455(3) 0.24257(15)
C58 C 0.2046(2) 0.7076(3) 0.20129(13)
H62 H 0.1928 0.7756 0.2094
H63 H 0.1678 0.6924 0.1697
C59 C 0.3149(2) 0.6926(3) 0.19354(14)
H64 H 0.3265 0.6235 0.1859
C60 C 0.3490(2) 0.7557(3) 0.14810(14)
N36 N 0.37164(19) 0.7186(2) 0.23892(11)
H65 H 0.4349 0.7096 0.2338
H66 H 0.3540 0.6814 0.2648
H67 H 0.3612 0.7811 0.2463
N37 N 0.1080(3) 0.5023(3) 0.2884(3)
H68 H 0.0872 0.4441 0.2939
N38 N 0.1610(3) 0.6830(5) 0.29183(16)
O46 O 0.40485(18) 0.8250(2) 0.15909(10)
O47 O 0.3197(3) 0.7309(3) 0.10401(11)
loop_
_geom_bond_atom_site_label_1
_geom_bond_atom_site_label_2
_geom_bond_site_symmetry_1
_geom_bond_site_symmetry_2
O2 H1 1_555 1_555
H2 O2 1_555 1_555
C1 N11 1_555 1_555
C2 H3 1_555 1_555
C3 C2 1_555 1_555
H4 C3 1_555 1_555
C4 N9 1_555 1_555
C5 H5 1_555 1_555
H6 C5 1_555 1_555
C6 H7 1_555 1_555
H8 C6 1_555 1_555
C7 N7 1_555 1_555
C8 H9 1_555 1_555
C9 C8 1_555 1_555
H10 C9 1_555 1_555
C10 N5 1_555 1_555
C11 H11 1_555 1_555
H12 C11 1_555 1_555
C12 H13 1_555 1_555
H14 C12 1_555 1_555
C13 N3 1_555 1_555
C14 H15 1_555 1_555
C15 C14 1_555 1_555
H16 C15 1_555 1_555
C16 N1 1_555 1_555
C17 H17 1_555 1_555
H18 C17 1_555 1_555
C18 H19 1_555 1_555
H20 C18 1_555 1_555
C19 N31 1_555 1_555
C20 H21 1_555 1_555
C21 C20 1_555 1_555
H22 C21 1_555 1_555
C22 N29 1_555 1_555
C23 H23 1_555 1_555
H24 C23 1_555 1_555
C24 H25 1_555 1_555
H26 C24 1_555 1_555
C25 N27 1_555 1_555
C26 H27 1_555 1_555
C27 C26 1_555 1_555
H28 C27 1_555 1_555
C28 N25 1_555 1_555
C29 H29 1_555 1_555
H30 C29 1_555 1_555
C30 H31 1_555 1_555
H32 C30 1_555 1_555
C31 N23 1_555 1_555
C32 H33 1_555 1_555
C33 C32 1_555 1_555
H34 C33 1_555 1_555
C34 N21 1_555 1_555
C35 H35 1_555 1_555
H36 C35 1_555 1_555
C36 H37 1_555 1_555
H38 C36 1_555 1_555
C37 N19 1_555 1_555
C38 H39 1_555 1_555
C39 C38 1_555 1_555
H40 C39 1_555 1_555
C40 N17 1_555 1_555
C41 H41 1_555 1_555
H42 C41 1_555 1_555
C42 H43 1_555 1_555
H44 C42 1_555 1_555
C43 N15 1_555 1_555
C44 H45 1_555 1_555
C45 C44 1_555 1_555
H46 C45 1_555 1_555
C46 N13 1_555 1_555
C47 H47 1_555 1_555
H48 C47 1_555 1_555
C48 H49 1_555 1_555
H50 C48 1_555 1_555
N1 C15 1_555 1_555
N2 C12 1_555 1_555
N3 C15 1_555 1_555
N4 C11 1_555 1_555
N5 C9 1_555 1_555
N6 C6 1_555 1_555
N7 C9 1_555 1_555
N8 C5 1_555 1_555
N9 C3 1_555 1_555
N10 C2 1_555 1_555
N11 C3 1_555 1_555
N12 C1 1_555 1_555
N13 C45 1_555 1_555
N14 C42 1_555 1_555
N15 C45 1_555 1_555
N16 C41 1_555 1_555
N17 C39 1_555 1_555
N18 C36 1_555 1_555
N19 C39 1_555 1_555
N20 C35 1_555 1_555
N21 C33 1_555 1_555
N22 C30 1_555 1_555
N23 C33 1_555 1_555
N24 C29 1_555 1_555
N25 C27 1_555 1_555
N26 C24 1_555 1_555
N27 C27 1_555 1_555
N28 C23 1_555 1_555
N29 C21 1_555 1_555
N30 C18 1_555 1_555
N31 C21 1_555 1_555
N32 C17 1_555 1_555
O28 C16 1_555 1_555
O29 C10 1_555 1_555
O30 C4 1_555 1_555
O31 C46 1_555 1_555
O32 C40 1_555 1_555
O33 C34 1_555 1_555
O34 C28 1_555 1_555
O35 C22 1_555 1_555
O36 C13 1_555 1_555
O37 C7 1_555 1_555
O38 C1 1_555 1_555
O39 C43 1_555 1_555
O40 C37 1_555 1_555
O41 C31 1_555 1_555
O42 C25 1_555 1_555
O43 C19 1_555 1_555
C49 H51 1_555 1_555
C50 H52 1_555 1_555
C51 C50 1_555 1_555
C52 C51 1_555 1_555
H53 C52 1_555 1_555
H54 C52 1_555 1_555
C53 C52 1_555 1_555
H55 C53 1_555 1_555
C54 C53 1_555 1_555
N33 C53 1_555 1_555
H56 N33 1_555 1_555
H57 N33 1_555 1_555
H58 N33 1_555 1_555
N34 C49 1_555 1_555
H59 N34 1_555 1_555
N35 C49 1_555 1_555
O44 C54 1_555 1_555
O45 C54 1_555 1_555
C55 H60 1_555 1_555
C56 H61 1_555 1_555
C57 C56 1_555 1_555
C58 C57 1_555 1_555
H62 C58 1_555 1_555
H63 C58 1_555 1_555
C59 C58 1_555 1_555
H64 C59 1_555 1_555
C60 C59 1_555 1_555
N36 C59 1_555 1_555
H65 N36 1_555 1_555
H66 N36 1_555 1_555
H67 N36 1_555 1_555
N37 C55 1_555 1_555
H68 N37 1_555 1_555
N38 C55 1_555 1_555
O46 C60 1_555 1_555
O47 C60 1_555 1_555
C2 N12 1_555 1_555
C4 N10 1_555 1_555
C5 N11 1_555 1_555
C6 N9 1_555 1_555
C7 N8 1_555 1_555
C8 N6 1_555 1_555
C8 N8 1_555 1_555
C10 N6 1_555 1_555
C11 N7 1_555 1_555
C12 N5 1_555 1_555
C13 N4 1_555 1_555
C14 N2 1_555 1_555
C14 N4 1_555 1_555
C16 N2 1_555 1_555
C17 N3 1_555 1_555
C18 N1 1_555 1_555
C19 N32 1_555 1_555
C20 N30 1_555 1_555
C20 N32 1_555 1_555
C22 N30 1_555 1_555
C23 N31 1_555 1_555
C24 N29 1_555 1_555
C25 N28 1_555 1_555
C26 N26 1_555 1_555
C26 N28 1_555 1_555
C28 N26 1_555 1_555
C29 N27 1_555 1_555
C30 N25 1_555 1_555
C31 N24 1_555 1_555
C32 N22 1_555 1_555
C32 N24 1_555 1_555
C34 N22 1_555 1_555
C35 N23 1_555 1_555
C36 N21 1_555 1_555
C37 N20 1_555 1_555
C38 N18 1_555 1_555
C38 N20 1_555 1_555
C40 N18 1_555 1_555
C41 N19 1_555 1_555
C42 N17 1_555 1_555
C43 N16 1_555 1_555
C44 N14 1_555 1_555
C44 N16 1_555 1_555
C46 N14 1_555 1_555
C47 N12 1_555 1_555
C47 N15 1_555 1_555
C48 N10 1_555 1_555
C48 N13 1_555 1_555
C50 N34 1_555 1_555
C51 N35 1_555 1_555
C56 N37 1_555 1_555
C57 N38 1_555 1_555

#END
