
#######################################################################
#
#                 Cambridge Crystallographic Data Centre
#                                CCDC 
#
#######################################################################
#
# If this CIF has been generated from an entry in the Cambridge 
# Structural Database, then it will include bibliographic, chemical, 
# crystal, experimental, refinement or atomic coordinate data resulting 
# from the CCDC's data processing and validation procedures.
#
#######################################################################

data_GUJLED
_chemical_formula_moiety         'C13 H9 F2 N1 S1'
_chemical_name_systematic        
4-(Difluoromethyl)-2-methyl[1]benzothieno[2,3-b]pyridine
_symmetry_cell_setting           monoclinic
_symmetry_space_group_name_H-M   'C 2/c'
_symmetry_Int_Tables_number      15
_space_group_name_Hall           '-C 2yn'
loop_
_symmetry_equiv_pos_site_id
_symmetry_equiv_pos_as_xyz
1 x,y,z
2 -x,y,1/2-z
3 1/2+x,1/2+y,z
4 1/2-x,1/2+y,1/2-z
5 -x,-y,-z
6 x,-y,1/2+z
7 1/2-x,1/2-y,-z
8 1/2+x,1/2-y,1/2+z
_cell_length_a                   18.056(8)
_cell_length_b                   13.388(9)
_cell_length_c                   11.900(6)
_cell_angle_alpha                90
_cell_angle_beta                 129.53(6)
_cell_angle_gamma                90
_cell_volume                     2218.72
_exptl_crystal_colour            'pale yellow'
_exptl_crystal_description       cuboid
_chemical_melting_point          '112-114 deg.C'
_cell_formula_units_Z            8
loop_
_atom_site_label
_atom_site_type_symbol
_atom_site_fract_x
_atom_site_fract_y
_atom_site_fract_z
S1 S 0.38811(3) 0.06583(3) 0.04658(4)
F1 F 0.43679(8) 0.47754(8) 0.05655(13)
F2 F 0.33429(9) 0.52458(8) 0.08550(15)
N1 N 0.37546(9) 0.16823(11) 0.22736(14)
C1 C 0.36624(13) 0.24984(18) 0.40024(19)
H1 H 0.3705 0.1814 0.4277
H2 H 0.3071 0.2781 0.3699
H3 H 0.4194 0.2866 0.4820
C2 C 0.36895(10) 0.25519(14) 0.27640(17)
C3 C 0.36641(10) 0.35192(12) 0.10159(16)
C4 C 0.37629(9) 0.26228(11) 0.05058(15)
C5 C 0.38109(10) 0.23999(11) -0.06499(15)
C6 C 0.35383(13) 0.45028(13) 0.0306(2)
H4 H 0.3015 0.4450 -0.0746
C7 C 0.36356(11) 0.34683(13) 0.21554(17)
H5 H 0.3580 0.4054 0.2517
C8 C 0.38191(11) 0.30302(12) -0.15844(17)
H6 H 0.3798 0.3719 -0.1511
C9 C 0.38591(12) 0.26246(13) -0.26167(19)
H7 H 0.3861 0.3046 -0.3235
C10 C 0.38959(12) 0.15950(13) -0.27410(17)
H8 H 0.3915 0.1340 -0.3449
C11 C 0.39041(11) 0.09469(12) -0.18299(17)
H9 H 0.3935 0.0260 -0.1907
C12 C 0.38642(10) 0.13564(11) -0.07880(15)
C13 C 0.37979(9) 0.17441(12) 0.11926(15)
loop_
_geom_bond_atom_site_label_1
_geom_bond_atom_site_label_2
_geom_bond_site_symmetry_1
_geom_bond_site_symmetry_2
S1 C12 1_555 1_555
F1 C6 1_555 1_555
F2 C6 1_555 1_555
N1 C2 1_555 1_555
C1 H1 1_555 1_555
H2 C1 1_555 1_555
H3 C1 1_555 1_555
C2 C1 1_555 1_555
C3 C4 1_555 1_555
C4 C5 1_555 1_555
C5 C8 1_555 1_555
C6 C3 1_555 1_555
H4 C6 1_555 1_555
C7 C2 1_555 1_555
H5 C7 1_555 1_555
C8 H6 1_555 1_555
C9 C8 1_555 1_555
H7 C9 1_555 1_555
C10 C9 1_555 1_555
H8 C10 1_555 1_555
C11 C10 1_555 1_555
H9 C11 1_555 1_555
C12 C5 1_555 1_555
C13 S1 1_555 1_555
N1 C13 1_555 1_555
C3 C7 1_555 1_555
C4 C13 1_555 1_555
C11 C12 1_555 1_555

#END
