
#######################################################################
#
#                 Cambridge Crystallographic Data Centre
#                                CCDC 
#
#######################################################################
#
# If this CIF has been generated from an entry in the Cambridge 
# Structural Database, then it will include bibliographic, chemical, 
# crystal, experimental, refinement or atomic coordinate data resulting 
# from the CCDC's data processing and validation procedures.
#
#######################################################################

data_GUJSAH
_chemical_formula_moiety         'C12 H12 N1 O1 1+,H2 O1,Cl1 1-'
_chemical_name_systematic        
'4-Hydroxy-3,5-dihydro-2H-indeno[1,2-b]pyridinium chloride monohydrate'
_symmetry_cell_setting           monoclinic
_symmetry_space_group_name_H-M   'P 21/c'
_symmetry_Int_Tables_number      14
_space_group_name_Hall           '-P 2ybc'
loop_
_symmetry_equiv_pos_site_id
_symmetry_equiv_pos_as_xyz
1 x,y,z
2 -x,1/2+y,1/2-z
3 -x,-y,-z
4 x,1/2-y,1/2+z
_cell_length_a                   6.8720(2)
_cell_length_b                   22.4177(4)
_cell_length_c                   7.7044(2)
_cell_angle_alpha                90
_cell_angle_beta                 90.798(2)
_cell_angle_gamma                90
_cell_volume                     1186.78
_exptl_crystal_colour            brown
_exptl_crystal_description       prism
_chemical_melting_point          '463 K'
_cell_formula_units_Z            4
loop_
_atom_site_label
_atom_site_type_symbol
_atom_site_fract_x
_atom_site_fract_y
_atom_site_fract_z
Cl1 Cl 1.41109(12) 0.82590(3) 1.48581(11)
O1 O 0.4973(3) 0.88793(10) 1.0250(3)
N1 N 1.0272(4) 0.86090(10) 1.2712(3)
C1 C 0.8998(5) 0.80975(14) 1.2514(5)
H1 H 0.8337 0.8029 1.3600
H2 H 0.9780 0.7748 1.2273
C2 C 0.7512(5) 0.81713(15) 1.1096(5)
C3 C 0.6655(4) 0.87844(12) 1.1020(3)
C4 C 0.7376(4) 0.99062(12) 1.1487(4)
C5 C 0.9771(4) 1.07529(12) 1.2421(4)
C6 C 1.1566(5) 1.08803(15) 1.3171(4)
C7 C 1.2814(4) 1.04318(14) 1.3708(3)
C8 C 1.2326(4) 0.98406(14) 1.3507(3)
C9 C 1.0512(4) 0.97088(11) 1.2750(3)
C10 C 0.9230(4) 1.01611(11) 1.2222(3)
C11 C 0.9586(4) 0.91393(11) 1.2406(3)
C12 C 0.7713(4) 0.92463(12) 1.1642(3)
H3 H 1.133(5) 0.8535(17) 1.329(4)
H4 H 0.659(5) 0.7858(18) 1.112(4)
H5 H 0.796(5) 0.8115(13) 0.996(4)
H6 H 0.714(4) 1.0057(12) 1.022(4)
H7 H 0.889(4) 1.1025(13) 1.202(3)
H8 H 1.183(4) 1.1272(14) 1.333(3)
H9 H 1.407(4) 1.0523(13) 1.420(4)
H10 H 1.313(5) 0.9520(14) 1.395(4)
H11 H 0.435(6) 0.855(2) 0.974(5)
H12 H 0.629(5) 1.0028(13) 1.223(4)
O2 O 0.3166(4) 0.80209(11) 0.8736(3)
H13 H 0.338(6) 0.759(2) 0.900(5)
H14 H 0.355(7) 0.804(3) 0.732(7)
loop_
_geom_bond_atom_site_label_1
_geom_bond_atom_site_label_2
_geom_bond_site_symmetry_1
_geom_bond_site_symmetry_2
O1 C3 1_555 1_555
N1 C1 1_555 1_555
C1 H1 1_555 1_555
H2 C1 1_555 1_555
C2 C1 1_555 1_555
C3 C2 1_555 1_555
C4 C10 1_555 1_555
C5 C6 1_555 1_555
C6 C7 1_555 1_555
C7 C8 1_555 1_555
C8 C9 1_555 1_555
C9 C10 1_555 1_555
C10 C5 1_555 1_555
C11 N1 1_555 1_555
C12 C3 1_555 1_555
H3 N1 1_555 1_555
H4 C2 1_555 1_555
H5 C2 1_555 1_555
H6 C4 1_555 1_555
H7 C5 1_555 1_555
H8 C6 1_555 1_555
H9 C7 1_555 1_555
H10 C8 1_555 1_555
H11 O1 1_555 1_555
H12 C4 1_555 1_555
O2 H13 1_555 1_555
H14 O2 1_555 1_555
C4 C12 1_555 1_555
C9 C11 1_555 1_555
C11 C12 1_555 1_555

#END
