
#######################################################################
#
#                 Cambridge Crystallographic Data Centre
#                                CCDC 
#
#######################################################################
#
# If this CIF has been generated from an entry in the Cambridge 
# Structural Database, then it will include bibliographic, chemical, 
# crystal, experimental, refinement or atomic coordinate data resulting 
# from the CCDC's data processing and validation procedures.
#
#######################################################################

data_GUKBAQ
_chemical_formula_moiety         'C34 H26 N8 O4,2(C1 H1 Cl3)'
_chemical_name_systematic        
"15b,15c-Diphenyl-15b,15c-dihydro-5H,9H-5a,6a,7a,8a,13b,14a,15a,16a-octaazabenzo[a]benzo[1',2']azuleno[5',6',7':3,4]pentaleno[1,6-fg]azulene-5,7,9,15-tetrone chloroform solvate"
_symmetry_cell_setting           triclinic
_symmetry_space_group_name_H-M   'P -1'
_symmetry_Int_Tables_number      2
_space_group_name_Hall           '-P 1'
loop_
_symmetry_equiv_pos_site_id
_symmetry_equiv_pos_as_xyz
1 x,y,z
2 -x,-y,-z
_cell_length_a                   9.6598(9)
_cell_length_b                   13.2119(12)
_cell_length_c                   15.3667(14)
_cell_angle_alpha                97.875(2)
_cell_angle_beta                 97.643(2)
_cell_angle_gamma                104.726(2)
_cell_volume                     1849.8
_exptl_crystal_colour            colorless
_exptl_crystal_description       block
_chemical_melting_point          'above 300 deg.C(dec.)'
_cell_formula_units_Z            2
loop_
_atom_site_label
_atom_site_type_symbol
_atom_site_fract_x
_atom_site_fract_y
_atom_site_fract_z
C1 C 0.7147(4) 0.9856(2) 0.0889(2)
C2 C 0.7767(5) 0.9797(3) 0.0120(3)
H1 H 0.8287 0.9310 -0.0015
C3 C 0.7555(5) 1.0513(3) -0.0428(3)
H2 H 0.7939 1.0497 -0.0952
C4 C 0.6808(5) 1.1243(3) -0.0236(3)
H3 H 0.6702 1.1707 -0.0628
C5 C 0.6218(4) 1.1302(3) 0.0517(2)
H4 H 0.5716 1.1802 0.0647
C6 C 0.6384(4) 1.0592(2) 0.1092(2)
C7 C 0.5847(4) 1.0427(2) 0.1909(2)
C8 C 0.6064(4) 0.9107(2) 0.29252(19)
H5 H 0.5592 0.9525 0.3292
H6 H 0.6997 0.9142 0.3270
C9 C 0.7532(3) 0.8265(2) 0.1537(2)
H7 H 0.8263 0.8325 0.2054
H8 H 0.7951 0.8126 0.1009
C10 C 0.3696(3) 0.7774(2) 0.24612(18)
C11 C 0.5464(3) 0.6719(2) 0.07712(18)
C12 C 0.5755(3) 0.7159(2) 0.23412(18)
C13 C 0.6876(3) 0.6919(2) 0.30169(18)
C14 C 0.6928(4) 0.7207(3) 0.39265(19)
H9 H 0.6290 0.7568 0.4131
C15 C 0.7935(4) 0.6954(3) 0.4530(2)
H10 H 0.7982 0.7159 0.5139
C16 C 0.8857(4) 0.6407(3) 0.4235(2)
H11 H 0.9518 0.6230 0.4644
C17 C 0.8810(4) 0.6118(3) 0.3339(2)
H12 H 0.9438 0.5745 0.3139
C18 C 0.7827(3) 0.6381(2) 0.2728(2)
H13 H 0.7809 0.6192 0.2120
C19 C 0.4324(3) 0.6202(2) 0.19665(17)
C20 C 0.4139(3) 0.5243(2) 0.24351(19)
C21 C 0.3741(4) 0.5327(3) 0.3271(2)
H14 H 0.3555 0.5950 0.3524
C22 C 0.3620(4) 0.4490(3) 0.3730(2)
H15 H 0.3372 0.4553 0.4295
C23 C 0.3864(4) 0.3565(3) 0.3351(3)
H16 H 0.3767 0.2999 0.3660
C24 C 0.4249(4) 0.3463(3) 0.2525(3)
H17 H 0.4413 0.2832 0.2272
C25 C 0.4393(3) 0.4315(2) 0.2065(2)
H18 H 0.4661 0.4253 0.1505
C26 C 0.1666(3) 0.6197(2) 0.17707(19)
H19 H 0.1099 0.6564 0.2105
H20 H 0.1465 0.5476 0.1890
C27 C 0.3134(3) 0.5373(2) 0.03802(19)
H21 H 0.2623 0.4750 0.0595
H22 H 0.3410 0.5131 -0.0179
C28 C 0.0122(3) 0.6535(2) 0.0459(2)
C29 C 0.0313(3) 0.6542(2) -0.0460(2)
C30 C 0.1533(3) 0.6203(2) -0.0577(2)
C31 C 0.1998(4) 0.6121(3) -0.1399(2)
H23 H 0.2796 0.5871 -0.1482
C32 C 0.1214(4) 0.6431(3) -0.2081(2)
H24 H 0.1502 0.6394 -0.2636
C33 C 0.0000(4) 0.6799(3) -0.1968(3)
H25 H -0.0499 0.7002 -0.2444
C34 C -0.0461(4) 0.6863(3) -0.1152(3)
H26 H -0.1261 0.7111 -0.1068
N1 N 0.6304(3) 0.95716(19) 0.21397(17)
N2 N 0.7177(3) 0.9264(2) 0.15585(19)
N3 N 0.5180(3) 0.80087(17) 0.27213(15)
N4 N 0.6294(3) 0.73686(18) 0.15305(15)
N5 N 0.3187(3) 0.67257(17) 0.20718(15)
N6 N 0.4437(2) 0.59337(17) 0.10243(14)
N7 N 0.1219(3) 0.6163(2) 0.08260(16)
N8 N 0.2163(3) 0.6032(2) 0.02229(16)
O1 O 0.5169(3) 1.08983(19) 0.23627(16)
O2 O 0.2947(2) 0.83841(17) 0.25764(15)
O3 O 0.5622(2) 0.67917(16) 0.00129(13)
O4 O -0.0785(3) 0.6779(2) 0.08696(16)
C35 C 0.1589(4) 0.0014(3) 0.3326(3)
H27 H 0.1982 -0.0463 0.2948
Cl1 Cl 0.08724(17) 0.07855(12) 0.26465(11)
Cl2 Cl 0.02408(16) -0.07613(15) 0.37641(13)
Cl3 Cl 0.30100(16) 0.07878(10) 0.41631(10)
C36 C 0.7000(4) 0.2236(3) 0.4236(2)
H28 H 0.6125 0.1931 0.3779
Cl4 Cl 0.66397(17) 0.18575(12) 0.52429(9)
Cl5 Cl 0.84186(12) 0.17801(9) 0.38966(7)
Cl6 Cl 0.74541(14) 0.36365(9) 0.43643(8)
loop_
_geom_bond_atom_site_label_1
_geom_bond_atom_site_label_2
_geom_bond_site_symmetry_1
_geom_bond_site_symmetry_2
C1 C2 1_555 1_555
C2 H1 1_555 1_555
C3 C2 1_555 1_555
H2 C3 1_555 1_555
C4 C3 1_555 1_555
H3 C4 1_555 1_555
C5 C4 1_555 1_555
H4 C5 1_555 1_555
C6 C1 1_555 1_555
C7 C6 1_555 1_555
C8 H5 1_555 1_555
H6 C8 1_555 1_555
C9 H7 1_555 1_555
H8 C9 1_555 1_555
C10 N3 1_555 1_555
C11 N4 1_555 1_555
C12 C13 1_555 1_555
C13 C14 1_555 1_555
C14 H9 1_555 1_555
C15 C14 1_555 1_555
H10 C15 1_555 1_555
C16 C15 1_555 1_555
H11 C16 1_555 1_555
C17 C16 1_555 1_555
H12 C17 1_555 1_555
C18 C13 1_555 1_555
H13 C18 1_555 1_555
C19 C12 1_555 1_555
C20 C19 1_555 1_555
C21 C20 1_555 1_555
H14 C21 1_555 1_555
C22 C21 1_555 1_555
H15 C22 1_555 1_555
C23 C22 1_555 1_555
H16 C23 1_555 1_555
C24 C23 1_555 1_555
H17 C24 1_555 1_555
C25 C20 1_555 1_555
H18 C25 1_555 1_555
C26 H19 1_555 1_555
H20 C26 1_555 1_555
C27 H21 1_555 1_555
H22 C27 1_555 1_555
C28 C29 1_555 1_555
C29 C30 1_555 1_555
C30 C31 1_555 1_555
C31 H23 1_555 1_555
C32 C31 1_555 1_555
H24 C32 1_555 1_555
C33 C32 1_555 1_555
H25 C33 1_555 1_555
C34 C29 1_555 1_555
H26 C34 1_555 1_555
C35 H27 1_555 1_555
C36 H28 1_555 1_555
Cl1 C35 1_555 1_555
Cl2 C35 1_555 1_555
Cl3 C35 1_555 1_555
Cl4 C36 1_555 1_555
Cl5 C36 1_555 1_555
Cl6 C36 1_555 1_555
N1 C7 1_555 1_555
N2 C1 1_555 1_555
N3 C8 1_555 1_555
N4 C9 1_555 1_555
N5 C10 1_555 1_555
N6 C11 1_555 1_555
N7 C26 1_555 1_555
N8 C27 1_555 1_555
O1 C7 1_555 1_555
O2 C10 1_555 1_555
O3 C11 1_555 1_555
O4 C28 1_555 1_555
C5 C6 1_555 1_555
C8 N1 1_555 1_555
C9 N2 1_555 1_555
C12 N3 1_555 1_555
C12 N4 1_555 1_555
C17 C18 1_555 1_555
C19 N5 1_555 1_555
C19 N6 1_555 1_555
C24 C25 1_555 1_555
C26 N5 1_555 1_555
C27 N6 1_555 1_555
C28 N7 1_555 1_555
C30 N8 1_555 1_555
C33 C34 1_555 1_555
N1 N2 1_555 1_555
N7 N8 1_555 1_555

#END
