
#######################################################################
#
#                 Cambridge Crystallographic Data Centre
#                                CCDC 
#
#######################################################################
#
# If this CIF has been generated from an entry in the Cambridge 
# Structural Database, then it will include bibliographic, chemical, 
# crystal, experimental, refinement or atomic coordinate data resulting 
# from the CCDC's data processing and validation procedures.
#
#######################################################################

data_GULQAG
_chemical_formula_moiety         'C48 H44 N4 2+,2(Br1 1-),2(C1 H4 O1)'
_chemical_name_systematic        
'(1,4-bis(1-(1-naphthylmethyl)-1-benzoimidazolium)-2,3,5,6-tetramethylbenzene) dibromide methanol solvate'
_symmetry_cell_setting           monoclinic
_symmetry_space_group_name_H-M   'P 21/c'
_symmetry_Int_Tables_number      14
_space_group_name_Hall           '-P 2ybc'
loop_
_symmetry_equiv_pos_site_id
_symmetry_equiv_pos_as_xyz
1 x,y,z
2 -x,1/2+y,1/2-z
3 -x,-y,-z
4 x,1/2-y,1/2+z
_cell_length_a                   10.8056(9)
_cell_length_b                   12.5425(11)
_cell_length_c                   16.8485(14)
_cell_angle_alpha                90
_cell_angle_beta                 96.964(2)
_cell_angle_gamma                90
_cell_volume                     2266.62
_exptl_crystal_colour            colorless
_exptl_crystal_description       block
_cell_formula_units_Z            2
loop_
_atom_site_label
_atom_site_type_symbol
_atom_site_fract_x
_atom_site_fract_y
_atom_site_fract_z
N1 N 0.0910(4) 0.8576(4) 0.9067(3)
C1 C -0.2441(6) 0.6012(6) 0.9666(4)
H1 H -0.2552 0.6521 1.0076
H2 H -0.3081 0.5479 0.9647
H3 H -0.2491 0.6368 0.9158
C2 C -0.1150(6) 0.5476(6) 0.9850(4)
C3 C -0.0194(8) 0.5996(5) 1.0302(4)
C4 C 0.0952(7) 0.5514(6) 1.0464(4)
C5 C 0.2040(7) 0.6085(6) 1.0960(4)
H4 H 0.2723 0.6155 1.0648
H5 H 0.2303 0.5678 1.1433
H6 H 0.1775 0.6780 1.1109
C6 C -0.0365(6) 0.7125(5) 1.0610(4)
H7 H -0.1246 0.7289 1.0585
H8 H 0.0004 0.7181 1.1163
C7 C 0.0249(6) 0.7800(5) 0.9330(4)
H9 H -0.0155 0.7268 0.9013
C8 C 0.0913(6) 0.8773(5) 1.0367(4)
C9 C 0.1153(6) 0.9225(5) 1.1118(4)
H10 H 0.0844 0.8931 1.1562
C10 C 0.1876(6) 1.0136(7) 1.1174(4)
H11 H 0.2072 1.0462 1.1669
C11 C 0.2325(6) 1.0584(5) 1.0493(5)
H12 H 0.2812 1.1197 1.0551
C12 C 0.2060(6) 1.0135(6) 0.9748(4)
H13 H 0.2346 1.0435 0.9300
C13 C 0.1349(6) 0.9218(5) 0.9697(4)
C14 C 0.1211(6) 0.8674(5) 0.8242(4)
H14 H 0.1114 0.9410 0.8070
H15 H 0.0636 0.8243 0.7890
C15 C 0.2530(6) 0.8314(6) 0.8186(3)
C16 C 0.3423(7) 0.9058(6) 0.8117(4)
H16 H 0.3197 0.9773 0.8077
C17 C 0.4673(7) 0.8778(7) 0.8106(4)
H17 H 0.5265 0.9305 0.8060
C18 C 0.5023(7) 0.7750(8) 0.8163(4)
H18 H 0.5857 0.7570 0.8158
C19 C 0.4131(7) 0.6942(7) 0.8229(4)
C20 C 0.4452(8) 0.5857(9) 0.8302(5)
H19 H 0.5286 0.5667 0.8310
C21 C 0.3609(11) 0.5082(7) 0.8360(5)
H20 H 0.3860 0.4374 0.8409
C22 C 0.2351(9) 0.5349(7) 0.8346(4)
H21 H 0.1764 0.4818 0.8393
C23 C 0.1985(7) 0.6385(6) 0.8263(4)
H22 H 0.1140 0.6548 0.8225
C24 C 0.2859(6) 0.7217(6) 0.8232(3)
N2 N 0.0243(5) 0.7888(4) 1.0112(3)
N1B N -0.0910(4) 0.1424(4) 1.0933(3)
C1B C 0.2441(6) 0.3988(6) 1.0334(4)
H1B H 0.2552 0.3479 0.9924
H2B H 0.3081 0.4521 1.0353
H3B H 0.2491 0.3632 1.0842
C2B C 0.1150(6) 0.4524(6) 1.0150(4)
C3B C 0.0194(8) 0.4004(5) 0.9698(4)
C4B C -0.0952(7) 0.4486(6) 0.9536(4)
C5B C -0.2040(7) 0.3915(6) 0.9040(4)
H4B H -0.2723 0.3845 0.9352
H5B H -0.2303 0.4322 0.8567
H6B H -0.1775 0.3220 0.8891
C6B C 0.0365(6) 0.2875(5) 0.9390(4)
H7B H 0.1246 0.2711 0.9415
H8B H -0.0004 0.2819 0.8837
C7B C -0.0249(6) 0.2200(5) 1.0670(4)
H9B H 0.0155 0.2732 1.0987
C8B C -0.0913(6) 0.1227(5) 0.9633(4)
C9B C -0.1153(6) 0.0775(5) 0.8882(4)
H10B H -0.0844 0.1069 0.8438
C10B C -0.1876(6) -0.0136(7) 0.8826(4)
H11B H -0.2072 -0.0462 0.8331
C11B C -0.2325(6) -0.0584(5) 0.9507(5)
H12B H -0.2812 -0.1197 0.9449
C12B C -0.2060(6) -0.0135(6) 1.0252(4)
H13B H -0.2346 -0.0435 1.0700
C13B C -0.1349(6) 0.0782(5) 1.0303(4)
C14B C -0.1211(6) 0.1326(5) 1.1758(4)
H14B H -0.1114 0.0590 1.1930
H15B H -0.0636 0.1757 1.2110
C15B C -0.2530(6) 0.1686(6) 1.1814(3)
C16B C -0.3423(7) 0.0942(6) 1.1883(4)
H16B H -0.3197 0.0227 1.1923
C17B C -0.4673(7) 0.1222(7) 1.1894(4)
H17B H -0.5265 0.0695 1.1940
C18B C -0.5023(7) 0.2250(8) 1.1837(4)
H18B H -0.5857 0.2430 1.1842
C19B C -0.4131(7) 0.3058(7) 1.1771(4)
C20B C -0.4452(8) 0.4143(9) 1.1698(5)
H19B H -0.5286 0.4333 1.1690
C21B C -0.3609(11) 0.4918(7) 1.1640(5)
H20B H -0.3860 0.5626 1.1591
C22B C -0.2351(9) 0.4651(7) 1.1654(4)
H21B H -0.1764 0.5182 1.1607
C23B C -0.1985(7) 0.3615(6) 1.1737(4)
H22B H -0.1140 0.3452 1.1775
C24B C -0.2859(6) 0.2783(6) 1.1768(3)
N2B N -0.0243(5) 0.2112(4) 0.9888(3)
Br1 Br -0.15315(7) 0.67904(7) 0.75413(5)
O1 O -0.3615(6) 0.7208(5) 0.5974(3)
H23 H -0.3353 0.6911 0.6395
C25 C -0.5081(8) 0.6958(7) 0.5757(8)
H24 H -0.5366 0.7238 0.5236
H25 H -0.5537 0.7286 0.6146
H26 H -0.5213 0.6201 0.5759
loop_
_geom_bond_atom_site_label_1
_geom_bond_atom_site_label_2
_geom_bond_site_symmetry_1
_geom_bond_site_symmetry_2
N1 C7 1_555 1_555
C1 H1 1_555 1_555
H2 C1 1_555 1_555
H3 C1 1_555 1_555
C2 C1 1_555 1_555
C3 C2 1_555 1_555
C4 C3 1_555 1_555
C5 C4 1_555 1_555
H4 C5 1_555 1_555
H5 C5 1_555 1_555
H6 C5 1_555 1_555
C6 C3 1_555 1_555
H7 C6 1_555 1_555
H8 C6 1_555 1_555
C7 H9 1_555 1_555
C8 C9 1_555 1_555
C9 H10 1_555 1_555
C10 C9 1_555 1_555
H11 C10 1_555 1_555
C11 C10 1_555 1_555
H12 C11 1_555 1_555
C12 C11 1_555 1_555
H13 C12 1_555 1_555
C13 N1 1_555 1_555
C14 N1 1_555 1_555
H14 C14 1_555 1_555
H15 C14 1_555 1_555
C15 C14 1_555 1_555
C16 C15 1_555 1_555
H16 C16 1_555 1_555
C17 C16 1_555 1_555
H17 C17 1_555 1_555
C18 C17 1_555 1_555
H18 C18 1_555 1_555
C19 C18 1_555 1_555
C20 C19 1_555 1_555
H19 C20 1_555 1_555
C21 C20 1_555 1_555
H20 C21 1_555 1_555
C22 C21 1_555 1_555
H21 C22 1_555 1_555
C23 C22 1_555 1_555
H22 C23 1_555 1_555
C24 C15 1_555 1_555
N2 C6 1_555 1_555
O1 H23 1_555 1_555
C25 O1 1_555 1_555
H24 C25 1_555 1_555
H25 C25 1_555 1_555
H26 C25 1_555 1_555
N1B C7B 1_555 1_555
C1B H1B 1_555 1_555
H2B C1B 1_555 1_555
H3B C1B 1_555 1_555
C2B C4 1_555 1_555
C3B C2B 1_555 1_555
C4B C2 1_555 1_555
C5B C4B 1_555 1_555
H4B C5B 1_555 1_555
H5B C5B 1_555 1_555
H6B C5B 1_555 1_555
C6B C3B 1_555 1_555
H7B C6B 1_555 1_555
H8B C6B 1_555 1_555
C7B H9B 1_555 1_555
C8B C9B 1_555 1_555
C9B H10B 1_555 1_555
C10B C9B 1_555 1_555
H11B C10B 1_555 1_555
C11B C10B 1_555 1_555
H12B C11B 1_555 1_555
C12B C11B 1_555 1_555
H13B C12B 1_555 1_555
C13B N1B 1_555 1_555
C14B N1B 1_555 1_555
H14B C14B 1_555 1_555
H15B C14B 1_555 1_555
C15B C14B 1_555 1_555
C16B C15B 1_555 1_555
H16B C16B 1_555 1_555
C17B C16B 1_555 1_555
H17B C17B 1_555 1_555
C18B C17B 1_555 1_555
H18B C18B 1_555 1_555
C19B C18B 1_555 1_555
C20B C19B 1_555 1_555
H19B C20B 1_555 1_555
C21B C20B 1_555 1_555
H20B C21B 1_555 1_555
C22B C21B 1_555 1_555
H21B C22B 1_555 1_555
C23B C22B 1_555 1_555
H22B C23B 1_555 1_555
C24B C15B 1_555 1_555
N2B C6B 1_555 1_555
C7 N2 1_555 1_555
C8 C13 1_555 1_555
C8 N2 1_555 1_555
C12 C13 1_555 1_555
C19 C24 1_555 1_555
C23 C24 1_555 1_555
C1B C2B 1_555 1_555
C3B C4B 1_555 1_555
C7B N2B 1_555 1_555
C8B C13B 1_555 1_555
C8B N2B 1_555 1_555
C12B C13B 1_555 1_555
C19B C24B 1_555 1_555
C23B C24B 1_555 1_555

#END
