
#######################################################################
#
#                 Cambridge Crystallographic Data Centre
#                                CCDC 
#
#######################################################################
#
# If this CIF has been generated from an entry in the Cambridge 
# Structural Database, then it will include bibliographic, chemical, 
# crystal, experimental, refinement or atomic coordinate data resulting 
# from the CCDC's data processing and validation procedures.
#
#######################################################################

data_GUMMAE
_chemical_formula_moiety         'C26 H32 Br1 Cl1 O3'
_chemical_name_systematic        
'2-isopropyl-5-methylcyclohexyl (5-bromo-2-chlorophenyl)(4-ethoxyphenyl)acetate'
_symmetry_cell_setting           orthorhombic
_symmetry_space_group_name_H-M   'P 21 21 21'
_symmetry_Int_Tables_number      19
_space_group_name_Hall           'P 2ac 2ab'
loop_
_symmetry_equiv_pos_site_id
_symmetry_equiv_pos_as_xyz
1 x,y,z
2 1/2-x,-y,1/2+z
3 -x,1/2+y,1/2-z
4 1/2+x,1/2-y,-z
_cell_length_a                   6.7363(13)
_cell_length_b                   14.422(3)
_cell_length_c                   24.745(5)
_cell_angle_alpha                90
_cell_angle_beta                 90
_cell_angle_gamma                90
_cell_volume                     2404
_cell_formula_units_Z            4
loop_
_atom_site_label
_atom_site_type_symbol
_atom_site_fract_x
_atom_site_fract_y
_atom_site_fract_z
Br1 Br 0.30364(4) -0.054727(18) 1.124272(9)
Cl1 Cl 0.39982(11) -0.23672(4) 0.89136(2)
O1 O 0.0860(2) -0.05378(12) 0.82991(6)
O2 O -0.0604(2) -0.08074(11) 0.91047(6)
O3 O 0.3911(3) 0.35120(11) 0.94330(7)
C1 C 0.2840(4) -0.03465(15) 0.90780(9)
H1 H 0.3871 -0.0523 0.8806
C2 C 0.3213(4) -0.09230(16) 0.95814(9)
C3 C 0.3738(4) -0.18486(17) 0.95444(9)
C4 C 0.4028(4) -0.24000(17) 0.99994(10)
H2 H 0.4382 -0.3034 0.9961
C5 C 0.3793(4) -0.20111(17) 1.05119(10)
H3 H 0.3981 -0.2374 1.0828
C6 C 0.3285(4) -0.10940(16) 1.05479(9)
C7 C 0.2990(4) -0.05434(17) 1.00957(8)
H4 H 0.2638 0.0091 1.0136
C8 C 0.3018(4) 0.06930(15) 0.91708(8)
C9 C 0.1402(4) 0.12781(17) 0.92065(10)
H5 H 0.0104 0.1027 0.9171
C10 C 0.1624(4) 0.22284(17) 0.92929(10)
H6 H 0.0491 0.2619 0.9314
C11 C 0.3508(4) 0.25972(16) 0.93470(9)
C12 C 0.5152(4) 0.20187(17) 0.93200(10)
H7 H 0.6445 0.2270 0.9363
C13 C 0.4919(4) 0.10809(18) 0.92307(10)
H8 H 0.6056 0.0693 0.9210
C14 C 0.2269(4) 0.41546(16) 0.94149(10)
H9 H 0.1265 0.3989 0.9691
H10 H 0.1630 0.4141 0.9055
C15 C 0.3107(4) 0.51021(16) 0.95271(11)
H11 H 0.3696 0.5112 0.9889
H12 H 0.2042 0.5564 0.9507
H13 H 0.4128 0.5248 0.9258
C16 C 0.0834(4) -0.05957(16) 0.88404(8)
C17 C -0.1001(4) -0.07761(16) 0.80182(9)
H14 H -0.1711 -0.1268 0.8227
C18 C -0.2308(4) 0.00672(16) 0.79780(9)
H15 H -0.1584 0.0568 0.7788
H16 H -0.2635 0.0291 0.8346
C19 C -0.4228(4) -0.01533(17) 0.76728(10)
H17 H -0.4961 -0.0635 0.7884
C20 C -0.3744(4) -0.05635(18) 0.71237(9)
H18 H -0.3095 -0.0086 0.6897
H19 H -0.4990 -0.0751 0.6942
C21 C -0.2368(4) -0.14085(17) 0.71725(9)
H20 H -0.2059 -0.1648 0.6807
H21 H -0.3057 -0.1905 0.7375
C22 C -0.0427(4) -0.11601(17) 0.74632(9)
H22 H 0.0198 -0.0641 0.7257
C23 C 0.1101(4) -0.19475(16) 0.74900(9)
H23 H 0.2310 -0.1692 0.7671
C24 C 0.1732(4) -0.22605(17) 0.69235(9)
H24 H 0.0667 -0.2629 0.6760
H25 H 0.2938 -0.2638 0.6949
H26 H 0.1994 -0.1715 0.6698
C25 C 0.0401(4) -0.27729(18) 0.78276(10)
H27 H -0.0754 -0.3059 0.7654
H28 H 0.0035 -0.2559 0.8190
H29 H 0.1475 -0.3229 0.7855
C26 C -0.5573(4) 0.06962(18) 0.76275(10)
H30 H -0.4932 0.1165 0.7400
H31 H -0.5809 0.0954 0.7988
H32 H -0.6842 0.0515 0.7465
loop_
_geom_bond_atom_site_label_1
_geom_bond_atom_site_label_2
_geom_bond_site_symmetry_1
_geom_bond_site_symmetry_2
Br1 C6 1_555 1_555
Cl1 C3 1_555 1_555
O1 C16 1_555 1_555
O2 C16 1_555 1_555
O3 C11 1_555 1_555
C1 H1 1_555 1_555
C2 C1 1_555 1_555
C3 C2 1_555 1_555
C4 C3 1_555 1_555
H2 C4 1_555 1_555
C5 C4 1_555 1_555
H3 C5 1_555 1_555
C6 C5 1_555 1_555
C7 C2 1_555 1_555
H4 C7 1_555 1_555
C8 C1 1_555 1_555
C9 C8 1_555 1_555
H5 C9 1_555 1_555
C10 C9 1_555 1_555
H6 C10 1_555 1_555
C11 C10 1_555 1_555
C12 C11 1_555 1_555
H7 C12 1_555 1_555
C13 C8 1_555 1_555
H8 C13 1_555 1_555
C14 O3 1_555 1_555
H9 C14 1_555 1_555
H10 C14 1_555 1_555
C15 C14 1_555 1_555
H11 C15 1_555 1_555
H12 C15 1_555 1_555
H13 C15 1_555 1_555
C16 C1 1_555 1_555
C17 O1 1_555 1_555
H14 C17 1_555 1_555
C18 C17 1_555 1_555
H15 C18 1_555 1_555
H16 C18 1_555 1_555
C19 C18 1_555 1_555
H17 C19 1_555 1_555
C20 C19 1_555 1_555
H18 C20 1_555 1_555
H19 C20 1_555 1_555
C21 C20 1_555 1_555
H20 C21 1_555 1_555
H21 C21 1_555 1_555
C22 C17 1_555 1_555
H22 C22 1_555 1_555
C23 C22 1_555 1_555
H23 C23 1_555 1_555
C24 C23 1_555 1_555
H24 C24 1_555 1_555
H25 C24 1_555 1_555
H26 C24 1_555 1_555
C25 C23 1_555 1_555
H27 C25 1_555 1_555
H28 C25 1_555 1_555
H29 C25 1_555 1_555
C26 C19 1_555 1_555
H30 C26 1_555 1_555
H31 C26 1_555 1_555
H32 C26 1_555 1_555
C6 C7 1_555 1_555
C12 C13 1_555 1_555
C21 C22 1_555 1_555

#END
