
#######################################################################
#
#                 Cambridge Crystallographic Data Centre
#                                CCDC 
#
#######################################################################
#
# If this CIF has been generated from an entry in the Cambridge 
# Structural Database, then it will include bibliographic, chemical, 
# crystal, experimental, refinement or atomic coordinate data resulting 
# from the CCDC's data processing and validation procedures.
#
#######################################################################

data_GUMXAO02
_chemical_formula_moiety         'C8 H7 Cl1 O3'
_chemical_name_systematic        '(2-Chlorophenyl)-hydroxyacetic acid'
_symmetry_cell_setting           triclinic
_symmetry_space_group_name_H-M   'P -1'
_symmetry_Int_Tables_number      2
_space_group_name_Hall           '-P 1'
loop_
_symmetry_equiv_pos_site_id
_symmetry_equiv_pos_as_xyz
1 x,y,z
2 -x,-y,-z
_cell_length_a                   9.0874(19)
_cell_length_b                   9.805(2)
_cell_length_c                   10.830(2)
_cell_angle_alpha                66.066(14)
_cell_angle_beta                 74.371(14)
_cell_angle_gamma                85.606(14)
_cell_volume                     848.803
_exptl_crystal_colour            colorless
_exptl_crystal_description       plate
_cell_formula_units_Z            4
_exptl_crystal_recrystallization_method toluene
loop_
_atom_site_label
_atom_site_type_symbol
_atom_site_fract_x
_atom_site_fract_y
_atom_site_fract_z
Cl1 Cl 0.37636(7) 0.60104(6) 0.20718(7)
O2 O 0.43958(15) 0.20294(16) 0.32425(16)
O3 O 0.19110(16) 0.01304(15) 0.45156(15)
O5 O 0.03035(17) 0.20021(16) 0.42224(17)
C3 C 0.2793(2) 0.3595(2) 0.18412(19)
C4 C 0.3109(2) 0.5121(2) 0.1208(2)
C5 C 0.2939(2) 0.2662(2) 0.32998(19)
C8 C 0.1661(2) 0.1456(2) 0.40760(18)
C9 C 0.2316(3) 0.2947(3) 0.1079(2)
C11 C 0.2915(3) 0.5979(3) -0.0112(3)
C14 C 0.2116(4) 0.3796(3) -0.0228(3)
C15 C 0.2406(4) 0.5302(3) -0.0807(3)
H1 H 0.2254 0.5873 -0.1686
H3 H 0.273(3) 0.323(3) 0.383(2)
H4 H 0.211(3) 0.187(3) 0.151(3)
H7 H 0.459(3) 0.187(3) 0.398(3)
H8 H 0.305(4) 0.695(4) -0.043(4)
H10 H 0.182(4) 0.335(4) -0.071(3)
H12 H -0.036(4) 0.139(4) 0.460(3)
Cl2 Cl 0.94439(7) 1.02027(8) 0.19107(8)
O1 O 0.47674(17) 0.86483(18) 0.42368(14)
O4 O 0.41753(17) 0.94682(18) 0.17246(15)
O6 O 0.66510(18) 0.9999(2) 0.05821(17)
C1 C 0.7211(2) 0.8004(2) 0.31637(18)
C2 C 0.5513(2) 0.9560(2) 0.1709(2)
C6 C 0.6018(2) 0.9186(2) 0.30319(19)
C7 C 0.8772(2) 0.8353(3) 0.2673(2)
C10 C 0.6748(3) 0.6511(2) 0.3770(2)
C12 C 0.7819(4) 0.5402(3) 0.3898(2)
C13 C 0.9831(3) 0.7243(4) 0.2798(3)
C16 C 0.9348(4) 0.5785(4) 0.3411(3)
H2 H 0.647(2) 1.010(3) 0.289(2)
H5 H 0.411(3) 0.920(3) 0.413(3)
H6 H 0.573(3) 0.630(3) 0.410(2)
H9 H 0.748(4) 0.438(4) 0.437(4)
H11 H 1.004(4) 0.511(4) 0.344(3)
H13 H 1.087(4) 0.747(4) 0.255(3)
H14 H 0.635(4) 1.010(4) -0.018(4)
loop_
_geom_bond_atom_site_label_1
_geom_bond_atom_site_label_2
_geom_bond_site_symmetry_1
_geom_bond_site_symmetry_2
Cl1 C4 1_555 1_555
Cl2 C7 1_555 1_555
O1 C6 1_555 1_555
O2 C5 1_555 1_555
O3 C8 1_555 1_555
O4 C2 1_555 1_555
O5 C8 1_555 1_555
O6 C2 1_555 1_555
C1 C6 1_555 1_555
C2 C6 1_555 1_555
C3 C4 1_555 1_555
C4 C11 1_555 1_555
C5 C3 1_555 1_555
C6 H2 1_555 1_555
C7 C1 1_555 1_555
C8 C5 1_555 1_555
C9 C3 1_555 1_555
C10 C1 1_555 1_555
C11 C15 1_555 1_555
C12 C10 1_555 1_555
C13 C7 1_555 1_555
C14 C9 1_555 1_555
C15 C14 1_555 1_555
H1 C15 1_555 1_555
C16 C12 1_555 1_555
H3 C5 1_555 1_555
H4 C9 1_555 1_555
H5 O1 1_555 1_555
H6 C10 1_555 1_555
H7 O2 1_555 1_555
H8 C11 1_555 1_555
H9 C12 1_555 1_555
H10 C14 1_555 1_555
H11 C16 1_555 1_555
H12 O5 1_555 1_555
H13 C13 1_555 1_555
H14 O6 1_555 1_555
C13 C16 1_555 1_555

#END
