
#######################################################################
#
#                 Cambridge Crystallographic Data Centre
#                                CCDC 
#
#######################################################################
#
# If this CIF has been generated from an entry in the Cambridge 
# Structural Database, then it will include bibliographic, chemical, 
# crystal, experimental, refinement or atomic coordinate data resulting 
# from the CCDC's data processing and validation procedures.
#
#######################################################################

data_GUPLEI
_chemical_formula_moiety         'C24 H20 O1 S4'
_chemical_name_systematic        
9-(4-(Hydroxymethyl)-5-methyl-1,3-dithiol-2-ylidene)-10-(4,5-dimethyl-1,3-dithiol-2-ylidene)-9,10-dihydroanthracene
_symmetry_cell_setting           monoclinic
_symmetry_space_group_name_H-M   'P 21/n'
_symmetry_Int_Tables_number      14
_space_group_name_Hall           '-P 2yn'
loop_
_symmetry_equiv_pos_site_id
_symmetry_equiv_pos_as_xyz
1 x,y,z
2 1/2+x,1/2-y,1/2+z
3 -x,-y,-z
4 1/2-x,1/2+y,1/2-z
_cell_length_a                   11.036(3)
_cell_length_b                   12.871(4)
_cell_length_c                   15.266(5)
_cell_angle_alpha                90
_cell_angle_beta                 101.48(1)
_cell_angle_gamma                90
_cell_volume                     2125.07
_exptl_crystal_colour            yellow
_exptl_crystal_description       block
_chemical_melting_point          'above 250 deg.C'
_cell_formula_units_Z            4
_exptl_crystal_recrystallization_method dichloromethane/hexane
loop_
_atom_site_label
_atom_site_type_symbol
_atom_site_fract_x
_atom_site_fract_y
_atom_site_fract_z
S1 S 0.31615(4) 0.07889(3) 0.15634(3)
S2 S 0.55242(4) 0.11746(3) 0.27816(3)
S3 S 0.32263(3) 0.58628(3) 0.03116(3)
S4 S 0.56142(3) 0.60106(3) 0.15397(3)
C1 C 0.13991(14) 0.25812(12) 0.17585(11)
H1 H 0.1365 0.1890 0.1970
C2 C 0.03334(14) 0.30334(13) 0.12598(11)
H2 H -0.0407 0.2640 0.1108
C3 C 0.03653(14) 0.40583(13) 0.09822(11)
H3 H -0.0358 0.4373 0.0645
C4 C 0.14591(13) 0.46290(12) 0.12008(10)
H4 H 0.1463 0.5338 0.1028
C5 C 0.52785(14) 0.51359(12) 0.33441(10)
H5 H 0.5337 0.5836 0.3160
C6 C 0.59332(15) 0.48259(14) 0.41753(11)
H6 H 0.6450 0.5308 0.4546
C7 C 0.58384(16) 0.38097(14) 0.44648(11)
H7 H 0.6268 0.3606 0.5041
C8 C 0.51079(15) 0.30976(13) 0.39085(10)
H8 H 0.5046 0.2404 0.4108
C9 C 0.36731(13) 0.26620(12) 0.24545(9)
C10 C 0.37455(13) 0.47410(11) 0.19027(10)
C11 C 0.45306(13) 0.44345(12) 0.27716(10)
C12 C 0.44664(13) 0.33907(12) 0.30585(10)
C13 C 0.25141(13) 0.31262(12) 0.19540(9)
C14 C 0.25522(13) 0.41779(11) 0.16723(10)
C15 C 0.40415(14) 0.16729(12) 0.23125(10)
C16 C 0.43285(16) -0.01461(13) 0.15876(12)
C17 C 0.54092(16) 0.00285(13) 0.21430(12)
C18 C 0.3977(2) -0.10663(16) 0.09835(15)
H9 H 0.4007 -0.0871 0.0381
H10 H 0.4556 -0.1649 0.1171
H11 H 0.3131 -0.1301 0.1010
C19 C 0.65342(18) -0.06624(16) 0.23134(16)
H12 H 0.6277 -0.1389 0.2215
H13 H 0.6975 -0.0572 0.2932
H14 H 0.7081 -0.0475 0.1906
C20 C 0.41209(13) 0.54491(11) 0.13443(10)
C21 C 0.44226(14) 0.64999(12) -0.00861(11)
C22 C 0.55174(14) 0.65603(12) 0.04731(11)
C23 C 0.40783(16) 0.69526(14) -0.10081(11)
H16 H 0.4791 0.7344 -0.1143
H17 H 0.3891 0.6380 -0.1447
O2 O 0.3046(4) 0.7607(3) -0.1105(2)
C24 C 0.66784(16) 0.70784(14) 0.03187(12)
H18 H 0.6510 0.7434 -0.0260
H19 H 0.7321 0.6552 0.0321
H20 H 0.6961 0.7585 0.0795
O1? O 0.4030(5) -0.0741(4) 0.0081(3)
H15? H 0.3374 0.7401 -0.1048
O3? O 0.652(3) 0.815(2) 0.055(2)
loop_
_geom_bond_atom_site_label_1
_geom_bond_atom_site_label_2
_geom_bond_site_symmetry_1
_geom_bond_site_symmetry_2
S1 C15 1_555 1_555
S2 C15 1_555 1_555
S3 C20 1_555 1_555
S4 C20 1_555 1_555
C1 H1 1_555 1_555
C2 C1 1_555 1_555
H2 C2 1_555 1_555
C3 C2 1_555 1_555
H3 C3 1_555 1_555
C4 C3 1_555 1_555
H4 C4 1_555 1_555
C5 H5 1_555 1_555
C6 C5 1_555 1_555
H6 C6 1_555 1_555
C7 C6 1_555 1_555
H7 C7 1_555 1_555
C8 C7 1_555 1_555
H8 C8 1_555 1_555
C9 C12 1_555 1_555
C10 C11 1_555 1_555
C11 C5 1_555 1_555
C12 C8 1_555 1_555
C13 C1 1_555 1_555
C14 C4 1_555 1_555
C15 C9 1_555 1_555
C16 S1 1_555 1_555
C17 S2 1_555 1_555
C18 C16 1_555 1_555
H9 C18 1_555 1_555
H10 C18 1_555 1_555
H11 C18 1_555 1_555
C19 C17 1_555 1_555
H12 C19 1_555 1_555
H13 C19 1_555 1_555
H14 C19 1_555 1_555
C20 C10 1_555 1_555
C21 S3 1_555 1_555
C22 S4 1_555 1_555
C23 C21 1_555 1_555
H16 C23 1_555 1_555
H17 C23 1_555 1_555
O2 C23 1_555 1_555
C24 C22 1_555 1_555
H18 C24 1_555 1_555
H19 C24 1_555 1_555
H20 C24 1_555 1_555
C9 C13 1_555 1_555
C10 C14 1_555 1_555
C11 C12 1_555 1_555
C13 C14 1_555 1_555
C16 C17 1_555 1_555
C21 C22 1_555 1_555

#END
