
#######################################################################
#
#                 Cambridge Crystallographic Data Centre
#                                CCDC 
#
#######################################################################
#
# If this CIF has been generated from an entry in the Cambridge 
# Structural Database, then it will include bibliographic, chemical, 
# crystal, experimental, refinement or atomic coordinate data resulting 
# from the CCDC's data processing and validation procedures.
#
#######################################################################

data_GUPLOS
_chemical_formula_moiety         'C35 H26 O2 S4,C1 H2 Cl2'
_chemical_name_systematic        
'9-(4-(Naphth-2-ylcarbonyloxymethyl)-5-methyl-1,3-dithiol-2-ylidene)-10-(4,5-dimethyl-1,3-dithiol-2-ylidene)-9,10-dihydroanthracene dichloromethane solvate'
_symmetry_cell_setting           monoclinic
_symmetry_space_group_name_H-M   'P 21/n'
_symmetry_Int_Tables_number      14
_space_group_name_Hall           '-P 2yn'
loop_
_symmetry_equiv_pos_site_id
_symmetry_equiv_pos_as_xyz
1 x,y,z
2 1/2+x,1/2-y,1/2+z
3 -x,-y,-z
4 1/2-x,1/2+y,1/2-z
_cell_length_a                   13.842(5)
_cell_length_b                   26.390(10)
_cell_length_c                   19.064(7)
_cell_angle_alpha                90
_cell_angle_beta                 110.04(1)
_cell_angle_gamma                90
_cell_volume                     6542.26
_exptl_crystal_colour            yellow
_exptl_crystal_description       block
_chemical_melting_point          '177 deg.C'
_cell_formula_units_Z            8
_exptl_crystal_recrystallization_method dichloromethane/hexane
loop_
_atom_site_label
_atom_site_type_symbol
_atom_site_fract_x
_atom_site_fract_y
_atom_site_fract_z
S1 S 0.63384(8) 0.28969(4) 0.21697(6)
S2 S 0.76856(9) 0.29315(4) 0.37349(6)
S3 S 0.62209(12) 0.52650(6) 0.19612(12)
S4 S 0.73490(15) 0.52819(6) 0.35669(12)
O1 O 0.4070(3) 0.26581(14) 0.2311(2)
O2 O 0.4126(3) 0.26811(17) 0.3514(3)
C1 C 0.7445(4) 0.3534(2) 0.1275(3)
H1 H 0.7473 0.3175 0.1301
C2 C 0.7191(4) 0.3775(3) 0.0587(3)
H2 H 0.7047 0.3580 0.0144
C3 C 0.7155(5) 0.4300(3) 0.0549(3)
H3 H 0.6983 0.4462 0.0077
C4 C 0.7371(4) 0.4583(2) 0.1193(4)
H4 H 0.7344 0.4942 0.1162
C5 C 0.9438(4) 0.4676(2) 0.3811(3)
H5 H 0.9419 0.5035 0.3798
C6 C 1.0205(4) 0.4431(2) 0.4373(3)
H6 H 1.0696 0.4625 0.4749
C7 C 1.0266(4) 0.3909(2) 0.4395(3)
H7 H 1.0791 0.3743 0.4786
C8 C 0.9543(3) 0.36259(18) 0.3842(3)
H8 H 0.9596 0.3267 0.3850
C9 C 0.7937(3) 0.35833(17) 0.2683(3)
C10 C 0.7855(4) 0.46251(19) 0.2618(3)
C11 C 0.8685(4) 0.43955(18) 0.3249(3)
C12 C 0.8745(3) 0.38606(18) 0.3277(3)
C13 C 0.7651(3) 0.38186(19) 0.1932(3)
C14 C 0.7627(4) 0.4349(2) 0.1895(3)
C15 C 0.7417(3) 0.31857(16) 0.2832(2)
C16 C 0.5930(4) 0.25612(17) 0.2825(3)
C17 C 0.6550(4) 0.25761(17) 0.3537(3)
C18 C 0.4918(4) 0.22932(19) 0.2514(3)
H9 H 0.4898 0.2100 0.2064
H10 H 0.4842 0.2050 0.2887
C19 C 0.6408(4) 0.2328(2) 0.4201(3)
H11 H 0.6266 0.2588 0.4519
H12 H 0.7036 0.2145 0.4485
H13 H 0.5830 0.2091 0.4035
C20 C 0.7264(4) 0.5015(2) 0.2699(4)
C21 C 0.5690(5) 0.5635(2) 0.2506(6)
C22 C 0.6199(6) 0.5637(2) 0.3241(6)
C23 C 0.4722(5) 0.5912(2) 0.2069(7)
H14 H 0.4427 0.6071 0.2415
H15 H 0.4222 0.5676 0.1742
H16 H 0.4892 0.6174 0.1766
C24 C 0.5922(9) 0.5926(3) 0.3837(7)
H17 H 0.5317 0.6139 0.3602
H18 H 0.6507 0.6141 0.4113
H19 H 0.5776 0.5688 0.4182
C25 C 0.3778(4) 0.2824(2) 0.2899(4)
C26 C 0.2938(4) 0.3227(2) 0.2637(4)
C27 C 0.2524(5) 0.3411(2) 0.3171(4)
H20 H 0.2791 0.3299 0.3675
C28 C 0.1718(5) 0.3750(2) 0.2954(4)
H21 H 0.1445 0.3879 0.3312
C29 C 0.1319(4) 0.3907(2) 0.2207(4)
C30 C 0.0418(5) 0.4259(3) 0.1964(5)
H22 H 0.0121 0.4382 0.2313
C31 C 0.0031(4) 0.4404(2) 0.1235(4)
H23 H -0.0550 0.4622 0.1069
C32 C 0.0502(4) 0.4231(2) 0.0729(4)
H24 H 0.0231 0.4336 0.0222
C33 C 0.1340(5) 0.3909(2) 0.0944(4)
H25 H 0.1650 0.3803 0.0595
C34 C 0.1731(5) 0.3742(2) 0.1674(4)
C35 C 0.2584(4) 0.3379(2) 0.1924(3)
H26 H 0.2887 0.3251 0.1582
S5 S 0.35839(9) 0.71245(4) 0.24459(7)
S6 S 0.35962(9) 0.71463(4) 0.39838(7)
S7 S 0.38908(9) 0.46564(4) 0.26512(7)
S8 S 0.38226(9) 0.46773(4) 0.41639(7)
O3 O 0.6151(3) 0.74203(15) 0.2865(2)
O4 O 0.5366(3) 0.72058(18) 0.1670(2)
C36 C 0.1907(3) 0.63524(17) 0.1569(3)
H27 H 0.1830 0.6710 0.1536
C37 C 0.1671(4) 0.60649(19) 0.0922(3)
H28 H 0.1442 0.6226 0.0448
C38 C 0.1760(4) 0.55378(18) 0.0969(3)
H29 H 0.1604 0.5340 0.0527
C39 C 0.2088(3) 0.53012(17) 0.1661(2)
H30 H 0.2126 0.4942 0.1688
C40 C 0.2037(3) 0.53689(17) 0.4162(2)
H31 H 0.2071 0.5010 0.4195
C41 C 0.1699(4) 0.56433(18) 0.4659(3)
H32 H 0.1514 0.5469 0.5031
C42 C 0.1633(4) 0.61683(18) 0.4616(3)
H33 H 0.1404 0.6353 0.4957
C43 C 0.1903(3) 0.64204(16) 0.4071(2)
H34 H 0.1846 0.6779 0.4037
C44 C 0.2557(3) 0.64055(15) 0.2980(2)
C45 C 0.2693(3) 0.53507(15) 0.3075(2)
C46 C 0.2329(3) 0.56179(16) 0.3617(2)
C47 C 0.2257(3) 0.61548(16) 0.3571(2)
C48 C 0.2266(3) 0.61183(16) 0.2274(2)
C49 C 0.2355(3) 0.55853(16) 0.2320(2)
C50 C 0.3128(3) 0.68377(16) 0.3106(2)
C51 C 0.4541(3) 0.74954(16) 0.3094(3)
C52 C 0.4551(4) 0.75038(17) 0.3796(3)
C53 C 0.5285(4) 0.77618(18) 0.2808(3)
H35 H 0.4934 0.7861 0.2281
H36 H 0.5544 0.8073 0.3102
C54 C 0.5279(4) 0.7789(2) 0.4462(3)
H37 H 0.5783 0.7977 0.4307
H38 H 0.5638 0.7546 0.4854
H39 H 0.4887 0.8026 0.4656
C55 C 0.3346(3) 0.49483(16) 0.3261(2)
C56 C 0.4807(4) 0.42832(17) 0.3325(3)
C57 C 0.4768(4) 0.42875(18) 0.4014(3)
C58 C 0.5516(4) 0.39815(19) 0.3037(3)
H40 H 0.5935 0.3754 0.3431
H41 H 0.5967 0.4215 0.2893
H42 H 0.5113 0.3782 0.2602
C59 C 0.5409(4) 0.3981(2) 0.4679(3)
H43 H 0.5942 0.3798 0.4552
H44 H 0.4966 0.3738 0.4814
H45 H 0.5732 0.4208 0.5102
C60 C 0.6075(4) 0.7167(2) 0.2265(3)
C61 C 0.6976(4) 0.68074(19) 0.2374(3)
C62 C 0.7685(5) 0.6715(2) 0.3083(3)
H46 H 0.7594 0.6872 0.3505
C63 C 0.8527(5) 0.6400(2) 0.3182(3)
H47 H 0.8998 0.6336 0.3669
C64 C 0.8671(4) 0.61787(19) 0.2549(3)
C65 C 0.9541(4) 0.5864(2) 0.2614(4)
H48 H 1.0038 0.5793 0.3089
C66 C 0.9644(4) 0.5666(2) 0.1976(4)
H49 H 1.0220 0.5458 0.2015
C67 C 0.8935(6) 0.5761(3) 0.1282(4)
H50 H 0.9027 0.5618 0.0852
C68 C 0.8113(5) 0.6053(3) 0.1204(4)
H51 H 0.7635 0.6120 0.0719
C69 C 0.7951(4) 0.62681(19) 0.1821(3)
C70 C 0.7087(4) 0.6589(2) 0.1758(3)
H52 H 0.6588 0.6653 0.1281
Cl1 Cl -0.0113(2) 0.27488(9) 0.54412(12)
Cl2 Cl 0.1651(2) 0.26309(11) 0.49781(17)
C71 C 0.0549(8) 0.2333(4) 0.5061(6)
Cl7 Cl -0.1422(3) 0.04087(16) 0.5657(2)
Cl9 Cl -0.0417(4) 0.0725(2) 0.4708(3)
C73 C -0.0294(11) 0.0791(5) 0.5757(8)
Cl3? Cl 0.2084(12) 0.2166(6) 0.4606(9)
Cl4? Cl 0.2803(14) 0.3203(7) 0.4913(10)
C72? C 0.1651(2) 0.26309(11) 0.49781(17)
Cl5? Cl 0.0410(17) 0.2734(8) 0.5355(12)
Cl6? Cl -0.0846(3) 0.14471(13) 0.56240(19)
Cl8? Cl -0.0588(7) 0.0459(3) 0.5083(5)
Cl10? Cl -0.1294(7) 0.0671(4) 0.5861(5)
Cl11? Cl -0.1064(9) 0.1942(5) 0.5478(7)
Cl12? Cl -0.0861(13) 0.0397(6) 0.5295(10)
C74? C -0.0563(11) 0.1374(6) 0.5388(8)
loop_
_geom_bond_atom_site_label_1
_geom_bond_atom_site_label_2
_geom_bond_site_symmetry_1
_geom_bond_site_symmetry_2
S1 C15 1_555 1_555
S2 C15 1_555 1_555
S3 C20 1_555 1_555
S4 C20 1_555 1_555
O1 C18 1_555 1_555
O2 C25 1_555 1_555
C1 H1 1_555 1_555
C2 C1 1_555 1_555
H2 C2 1_555 1_555
C3 C2 1_555 1_555
H3 C3 1_555 1_555
C4 C3 1_555 1_555
H4 C4 1_555 1_555
C5 H5 1_555 1_555
C6 C5 1_555 1_555
H6 C6 1_555 1_555
C7 C6 1_555 1_555
H7 C7 1_555 1_555
C8 C7 1_555 1_555
H8 C8 1_555 1_555
C9 C12 1_555 1_555
C10 C11 1_555 1_555
C11 C5 1_555 1_555
C12 C8 1_555 1_555
C13 C1 1_555 1_555
C14 C4 1_555 1_555
C15 C9 1_555 1_555
C16 S1 1_555 1_555
C17 S2 1_555 1_555
C18 C16 1_555 1_555
H9 C18 1_555 1_555
H10 C18 1_555 1_555
C19 C17 1_555 1_555
H11 C19 1_555 1_555
H12 C19 1_555 1_555
H13 C19 1_555 1_555
C20 C10 1_555 1_555
C21 S3 1_555 1_555
C22 S4 1_555 1_555
C23 C21 1_555 1_555
H14 C23 1_555 1_555
H15 C23 1_555 1_555
H16 C23 1_555 1_555
C24 C22 1_555 1_555
H17 C24 1_555 1_555
H18 C24 1_555 1_555
H19 C24 1_555 1_555
C25 O1 1_555 1_555
C26 C25 1_555 1_555
C27 C26 1_555 1_555
H20 C27 1_555 1_555
C28 C27 1_555 1_555
H21 C28 1_555 1_555
C29 C28 1_555 1_555
C30 C29 1_555 1_555
H22 C30 1_555 1_555
C31 C30 1_555 1_555
H23 C31 1_555 1_555
C32 C31 1_555 1_555
H24 C32 1_555 1_555
C33 C32 1_555 1_555
H25 C33 1_555 1_555
C34 C29 1_555 1_555
C35 C26 1_555 1_555
H26 C35 1_555 1_555
S5 C50 1_555 1_555
S6 C50 1_555 1_555
S7 C55 1_555 1_555
S8 C55 1_555 1_555
O3 C53 1_555 1_555
O4 C60 1_555 1_555
C36 H27 1_555 1_555
C37 C36 1_555 1_555
H28 C37 1_555 1_555
C38 C37 1_555 1_555
H29 C38 1_555 1_555
C39 C38 1_555 1_555
H30 C39 1_555 1_555
C40 H31 1_555 1_555
C41 C40 1_555 1_555
H32 C41 1_555 1_555
C42 C41 1_555 1_555
H33 C42 1_555 1_555
C43 C42 1_555 1_555
H34 C43 1_555 1_555
C44 C47 1_555 1_555
C45 C46 1_555 1_555
C46 C40 1_555 1_555
C47 C43 1_555 1_555
C48 C36 1_555 1_555
C49 C39 1_555 1_555
C50 C44 1_555 1_555
C51 S5 1_555 1_555
C52 S6 1_555 1_555
C53 C51 1_555 1_555
H35 C53 1_555 1_555
H36 C53 1_555 1_555
C54 C52 1_555 1_555
H37 C54 1_555 1_555
H38 C54 1_555 1_555
H39 C54 1_555 1_555
C55 C45 1_555 1_555
C56 S7 1_555 1_555
C57 S8 1_555 1_555
C58 C56 1_555 1_555
H40 C58 1_555 1_555
H41 C58 1_555 1_555
H42 C58 1_555 1_555
C59 C57 1_555 1_555
H43 C59 1_555 1_555
H44 C59 1_555 1_555
H45 C59 1_555 1_555
C60 O3 1_555 1_555
C61 C60 1_555 1_555
C62 C61 1_555 1_555
H46 C62 1_555 1_555
C63 C62 1_555 1_555
H47 C63 1_555 1_555
C64 C63 1_555 1_555
C65 C64 1_555 1_555
H48 C65 1_555 1_555
C66 C65 1_555 1_555
H49 C66 1_555 1_555
C67 C66 1_555 1_555
H50 C67 1_555 1_555
C68 C67 1_555 1_555
H51 C68 1_555 1_555
C69 C64 1_555 1_555
C70 C61 1_555 1_555
H52 C70 1_555 1_555
Cl1 C71 1_555 1_555
Cl2 C71 1_555 1_555
Cl7 C73 1_555 1_555
Cl9 C73 1_555 1_555
C9 C13 1_555 1_555
C10 C14 1_555 1_555
C11 C12 1_555 1_555
C13 C14 1_555 1_555
C16 C17 1_555 1_555
C21 C22 1_555 1_555
C33 C34 1_555 1_555
C34 C35 1_555 1_555
C44 C48 1_555 1_555
C45 C49 1_555 1_555
C46 C47 1_555 1_555
C48 C49 1_555 1_555
C51 C52 1_555 1_555
C56 C57 1_555 1_555
C68 C69 1_555 1_555
C69 C70 1_555 1_555

#END
