
#######################################################################
#
#                 Cambridge Crystallographic Data Centre
#                                CCDC 
#
#######################################################################
#
# If this CIF has been generated from an entry in the Cambridge 
# Structural Database, then it will include bibliographic, chemical, 
# crystal, experimental, refinement or atomic coordinate data resulting 
# from the CCDC's data processing and validation procedures.
#
#######################################################################

data_GUPPIR
_chemical_formula_moiety         'C35 H53 I1 Mg1 N2'
_chemical_name_systematic        
(N,N'-bis(2,6-Di-isopropylphenyl)-2,2,6,6-tetramethylheptane-3,5-di-iminato-N,N')-iodo-magnesium
_symmetry_cell_setting           monoclinic
_symmetry_space_group_name_H-M   'P 21/n'
_symmetry_Int_Tables_number      14
_space_group_name_Hall           '-P 2yn'
loop_
_symmetry_equiv_pos_site_id
_symmetry_equiv_pos_as_xyz
1 x,y,z
2 1/2-x,1/2+y,1/2-z
3 -x,-y,-z
4 1/2+x,1/2-y,1/2+z
_cell_length_a                   13.410(3)
_cell_length_b                   17.958(4)
_cell_length_c                   15.318(3)
_cell_angle_alpha                90
_cell_angle_beta                 110.15(3)
_cell_angle_gamma                90
_cell_volume                     3463.05
_exptl_crystal_colour            colorless
_exptl_crystal_description       block
_chemical_melting_point          '176-178 deg.C'
_cell_formula_units_Z            4
loop_
_atom_site_label
_atom_site_type_symbol
_atom_site_fract_x
_atom_site_fract_y
_atom_site_fract_z
I1 I 0.000528(9) 0.026987(7) 0.254947(9)
Mg1 Mg 0.03955(5) -0.11500(3) 0.26777(4)
N1 N 0.15615(10) -0.18037(8) 0.26020(9)
C1 C 0.24086(13) -0.30926(10) 0.25868(12)
N2 N -0.05420(11) -0.19548(8) 0.28489(9)
C2 C 0.15205(13) -0.25482(10) 0.26436(11)
C3 C 0.06429(13) -0.29187(10) 0.27488(11)
H1 H 0.0707 -0.3446 0.2749
C4 C -0.03143(13) -0.26763(10) 0.28540(11)
C5 C -0.10356(14) -0.33323(10) 0.29638(12)
C6 C 0.34449(14) -0.27445(11) 0.25586(14)
H2 H 0.3749 -0.2421 0.3101
H3 H 0.3294 -0.2450 0.1989
H4 H 0.3952 -0.3140 0.2568
C7 C 0.19601(15) -0.35759(11) 0.17078(13)
H5 H 0.2510 -0.3920 0.1669
H6 H 0.1736 -0.3255 0.1157
H7 H 0.1349 -0.3860 0.1738
C8 C 0.27391(15) -0.36022(12) 0.34477(13)
H8 H 0.2120 -0.3883 0.3466
H9 H 0.3020 -0.3298 0.4011
H10 H 0.3288 -0.3950 0.3414
C9 C -0.12654(15) -0.38521(11) 0.21148(13)
H11 H -0.0596 -0.4059 0.2097
H12 H -0.1615 -0.3569 0.1544
H13 H -0.1731 -0.4259 0.2164
C10 C -0.04341(16) -0.37757(11) 0.38511(13)
H14 H -0.0856 -0.4210 0.3895
H15 H -0.0316 -0.3457 0.4397
H16 H 0.0251 -0.3941 0.3825
C11 C -0.21237(14) -0.31298(11) 0.30244(14)
H17 H -0.2527 -0.2834 0.2479
H18 H -0.2022 -0.2839 0.3590
H19 H -0.2516 -0.3587 0.3042
C12 C 0.23665(13) -0.13761(10) 0.24049(12)
C13 C 0.31787(13) -0.10353(10) 0.31430(12)
C14 C 0.39054(14) -0.05846(11) 0.29213(14)
H20 H 0.4459 -0.0350 0.3407
C15 C 0.38359(15) -0.04730(12) 0.20098(15)
H21 H 0.4353 -0.0178 0.1876
C16 C 0.30178(15) -0.07891(11) 0.12945(14)
H22 H 0.2969 -0.0701 0.0670
C17 C 0.22596(13) -0.12373(10) 0.14743(12)
C18 C 0.32868(14) -0.11510(11) 0.41555(12)
H23 H 0.2759 -0.1538 0.4176
C19 C 0.43899(18) -0.14273(15) 0.47496(15)
H24 H 0.4919 -0.1044 0.4772
H25 H 0.4557 -0.1883 0.4476
H26 H 0.4402 -0.1531 0.5381
C20 C 0.30239(18) -0.04332(12) 0.45674(14)
H27 H 0.3554 -0.0052 0.4587
H28 H 0.3031 -0.0530 0.5199
H29 H 0.2318 -0.0258 0.4180
C21 C 0.13224(14) -0.15427(12) 0.06746(12)
H30 H 0.1005 -0.1962 0.0920
C22 C 0.04788(18) -0.09342(16) 0.03264(16)
H31 H 0.0268 -0.0758 0.0843
H32 H -0.0143 -0.1137 -0.0164
H33 H 0.0771 -0.0518 0.0077
C23 C 0.16137(18) -0.18377(14) -0.01398(14)
H34 H 0.1885 -0.1429 -0.0418
H35 H 0.0982 -0.2052 -0.0607
H36 H 0.2162 -0.2222 0.0082
C24 C -0.14152(13) -0.16295(10) 0.30549(12)
C25 C -0.13306(14) -0.15345(10) 0.39918(12)
C26 C -0.21762(16) -0.11945(12) 0.41729(14)
H37 H -0.2143 -0.1132 0.4798
C27 C -0.30614(16) -0.09481(13) 0.34562(16)
H38 H -0.3644 -0.0741 0.3590
C28 C -0.31000(15) -0.10022(12) 0.25463(14)
H39 H -0.3702 -0.0816 0.2062
C29 C -0.22715(13) -0.13255(10) 0.23246(12)
C30 C -0.03286(14) -0.17625(11) 0.47803(12)
H40 H 0.0020 -0.2169 0.4543
C31 C -0.05387(17) -0.20594(13) 0.56367(13)
H41 H -0.0867 -0.1668 0.5892
H42 H 0.0134 -0.2212 0.6107
H43 H -0.1018 -0.2489 0.5459
C32 C 0.04501(17) -0.11074(13) 0.50598(14)
H44 H 0.0591 -0.0923 0.4511
H45 H 0.1117 -0.1273 0.5528
H46 H 0.0140 -0.0707 0.5318
C33 C -0.22999(14) -0.13375(11) 0.13191(12)
H47 H -0.1548 -0.1374 0.1340
C34 C -0.2888(2) -0.20107(13) 0.07834(14)
H48 H -0.2508 -0.2466 0.1062
H49 H -0.2926 -0.1976 0.0134
H50 H -0.3608 -0.2024 0.0809
C35 C -0.27637(19) -0.06237(13) 0.07902(15)
H51 H -0.3525 -0.0598 0.0691
H52 H -0.2659 -0.0625 0.0188
H53 H -0.2404 -0.0191 0.1153
loop_
_geom_bond_atom_site_label_1
_geom_bond_atom_site_label_2
_geom_bond_site_symmetry_1
_geom_bond_site_symmetry_2
I1 Mg1 1_555 1_555
Mg1 N1 1_555 1_555
N1 C2 1_555 1_555
C1 C2 1_555 1_555
N2 Mg1 1_555 1_555
C2 C3 1_555 1_555
C3 H1 1_555 1_555
C4 N2 1_555 1_555
C5 C4 1_555 1_555
C6 C1 1_555 1_555
H2 C6 1_555 1_555
H3 C6 1_555 1_555
H4 C6 1_555 1_555
C7 C1 1_555 1_555
H5 C7 1_555 1_555
H6 C7 1_555 1_555
H7 C7 1_555 1_555
C8 C1 1_555 1_555
H8 C8 1_555 1_555
H9 C8 1_555 1_555
H10 C8 1_555 1_555
C9 C5 1_555 1_555
H11 C9 1_555 1_555
H12 C9 1_555 1_555
H13 C9 1_555 1_555
C10 C5 1_555 1_555
H14 C10 1_555 1_555
H15 C10 1_555 1_555
H16 C10 1_555 1_555
C11 C5 1_555 1_555
H17 C11 1_555 1_555
H18 C11 1_555 1_555
H19 C11 1_555 1_555
C12 N1 1_555 1_555
C13 C12 1_555 1_555
C14 C13 1_555 1_555
H20 C14 1_555 1_555
C15 C14 1_555 1_555
H21 C15 1_555 1_555
C16 C15 1_555 1_555
H22 C16 1_555 1_555
C17 C12 1_555 1_555
C18 C13 1_555 1_555
H23 C18 1_555 1_555
C19 C18 1_555 1_555
H24 C19 1_555 1_555
H25 C19 1_555 1_555
H26 C19 1_555 1_555
C20 C18 1_555 1_555
H27 C20 1_555 1_555
H28 C20 1_555 1_555
H29 C20 1_555 1_555
C21 C17 1_555 1_555
H30 C21 1_555 1_555
C22 C21 1_555 1_555
H31 C22 1_555 1_555
H32 C22 1_555 1_555
H33 C22 1_555 1_555
C23 C21 1_555 1_555
H34 C23 1_555 1_555
H35 C23 1_555 1_555
H36 C23 1_555 1_555
C24 N2 1_555 1_555
C25 C24 1_555 1_555
C26 C25 1_555 1_555
H37 C26 1_555 1_555
C27 C26 1_555 1_555
H38 C27 1_555 1_555
C28 C27 1_555 1_555
H39 C28 1_555 1_555
C29 C24 1_555 1_555
C30 C25 1_555 1_555
H40 C30 1_555 1_555
C31 C30 1_555 1_555
H41 C31 1_555 1_555
H42 C31 1_555 1_555
H43 C31 1_555 1_555
C32 C30 1_555 1_555
H44 C32 1_555 1_555
H45 C32 1_555 1_555
H46 C32 1_555 1_555
C33 C29 1_555 1_555
H47 C33 1_555 1_555
C34 C33 1_555 1_555
H48 C34 1_555 1_555
H49 C34 1_555 1_555
H50 C34 1_555 1_555
C35 C33 1_555 1_555
H51 C35 1_555 1_555
H52 C35 1_555 1_555
H53 C35 1_555 1_555
C3 C4 1_555 1_555
C16 C17 1_555 1_555
C28 C29 1_555 1_555

#END
