
#######################################################################
#
#                 Cambridge Crystallographic Data Centre
#                                CCDC 
#
#######################################################################
#
# If this CIF has been generated from an entry in the Cambridge 
# Structural Database, then it will include bibliographic, chemical, 
# crystal, experimental, refinement or atomic coordinate data resulting 
# from the CCDC's data processing and validation procedures.
#
#######################################################################

data_GUPQIS
_chemical_formula_moiety         'C66 H102 Ca2 I2 N4 O2'
_chemical_name_systematic        
"bis(\m~2~-Iodo)-bis(N,N'-bis(2,6-di-isopropylphenyl)pentane-2,4-di-iminato-N,N')-bis(diethyl ether)-di-calcium"
_symmetry_cell_setting           monoclinic
_symmetry_space_group_name_H-M   'P 21/n'
_symmetry_Int_Tables_number      14
_space_group_name_Hall           '-P 2yn'
loop_
_symmetry_equiv_pos_site_id
_symmetry_equiv_pos_as_xyz
1 x,y,z
2 1/2-x,1/2+y,1/2-z
3 -x,-y,-z
4 1/2+x,1/2-y,1/2+z
_cell_length_a                   12.030(2)
_cell_length_b                   15.652(3)
_cell_length_c                   18.171(4)
_cell_angle_alpha                90
_cell_angle_beta                 96.88(3)
_cell_angle_gamma                90
_cell_volume                     3396.84
_exptl_crystal_colour            colorless
_exptl_crystal_description       block
_cell_formula_units_Z            2
loop_
_atom_site_label
_atom_site_type_symbol
_atom_site_fract_x
_atom_site_fract_y
_atom_site_fract_z
I1 I 0.075857(18) 0.090795(12) 0.071482(10)
Ca1 Ca 0.03955(5) -0.10529(3) 0.08934(3)
O1 O 0.22212(16) -0.10244(12) 0.15602(10)
N1 N 0.03624(19) -0.25558(14) 0.07475(11)
C1 C 0.0926(3) -0.39461(18) 0.12897(16)
H1 H 0.0318 -0.4326 0.1087
H2 H 0.1231 -0.4144 0.1784
H3 H 0.1518 -0.3950 0.0963
N2 N -0.06033(18) -0.14047(14) 0.18847(12)
C2 C 0.0478(2) -0.30466(17) 0.13427(15)
C3 C 0.0208(2) -0.28176(17) 0.20488(14)
H4 H 0.0487 -0.3196 0.2436
C4 C -0.0406(2) -0.21216(17) 0.22755(14)
C5 C -0.0860(3) -0.22361(19) 0.30135(15)
H5 H -0.0339 -0.1981 0.3409
H6 H -0.0945 -0.2847 0.3112
H7 H -0.1590 -0.1954 0.2995
C6 C 0.0409(2) -0.29572(17) 0.00427(14)
C7 C 0.1366(2) -0.28819(17) -0.03219(15)
C8 C 0.1390(3) -0.32782(19) -0.10054(15)
H8 H 0.2041 -0.3231 -0.1251
C9 C 0.0486(3) -0.37379(19) -0.13334(16)
H9 H 0.0519 -0.4017 -0.1795
C10 C -0.0467(3) -0.37876(19) -0.09820(15)
H10 H -0.1094 -0.4096 -0.1213
C11 C -0.0538(2) -0.33996(17) -0.02998(15)
C12 C 0.2403(2) -0.23832(19) 0.00080(16)
H11 H 0.2242 -0.2143 0.0494
C13 C 0.2643(3) -0.1635(2) -0.04882(17)
H12 H 0.2758 -0.1849 -0.0980
H13 H 0.3318 -0.1335 -0.0269
H14 H 0.2007 -0.1240 -0.0534
C14 C 0.3432(3) -0.2962(2) 0.01580(19)
H15 H 0.3264 -0.3436 0.0480
H16 H 0.4063 -0.2632 0.0402
H17 H 0.3628 -0.3190 -0.0312
C15 C -0.1628(2) -0.3463(2) 0.00377(17)
H18 H -0.1542 -0.3126 0.0508
C16 C -0.2598(3) -0.3078(2) -0.0473(2)
H19 H -0.2423 -0.2485 -0.0586
H20 H -0.3280 -0.3095 -0.0228
H21 H -0.2715 -0.3408 -0.0934
C17 C -0.1918(3) -0.4386(2) 0.0229(2)
H22 H -0.2079 -0.4718 -0.0228
H23 H -0.2577 -0.4386 0.0499
H24 H -0.1283 -0.4643 0.0540
C18 C -0.1368(2) -0.07810(17) 0.21102(15)
C19 C -0.1047(2) -0.01906(18) 0.26806(16)
C20 C -0.1818(3) 0.0425(2) 0.28420(17)
H25 H -0.1606 0.0830 0.3223
C21 C -0.2881(3) 0.0462(2) 0.24626(18)
H26 H -0.3400 0.0879 0.2588
C22 C -0.3183(3) -0.0112(2) 0.19003(19)
H27 H -0.3912 -0.0079 0.1635
C23 C -0.2450(2) -0.07402(18) 0.17091(16)
C24 C 0.0107(3) -0.0196(2) 0.31341(16)
H28 H 0.0491 -0.0738 0.3021
C25 C 0.0817(3) 0.0547(3) 0.29174(19)
H29 H 0.0918 0.0500 0.2392
H30 H 0.1550 0.0532 0.3218
H31 H 0.0441 0.1087 0.3003
C26 C 0.0040(3) -0.0170(2) 0.39711(17)
H32 H -0.0234 0.0391 0.4107
H33 H 0.0785 -0.0270 0.4238
H34 H -0.0475 -0.0615 0.4103
C27 C -0.2824(2) -0.13874(19) 0.11088(17)
H35 H -0.2144 -0.1578 0.0887
C28 C -0.3655(3) -0.1022(2) 0.04810(18)
H36 H -0.4368 -0.0899 0.0669
H37 H -0.3777 -0.1440 0.0078
H38 H -0.3350 -0.0495 0.0295
C29 C -0.3327(3) -0.2171(2) 0.14403(19)
H39 H -0.2757 -0.2448 0.1791
H40 H -0.3589 -0.2573 0.1043
H41 H -0.3959 -0.1996 0.1700
C30 C 0.3141(2) -0.0604(2) 0.12620(17)
H42 H 0.2876 -0.0391 0.0759
H43 H 0.3739 -0.1028 0.1216
C31 C 0.3627(3) 0.0134(2) 0.17323(19)
H44 H 0.3020 0.0504 0.1857
H45 H 0.4132 0.0463 0.1456
H46 H 0.4045 -0.0086 0.2189
C32 C 0.2508(3) -0.1440(2) 0.22697(16)
H47 H 0.1811 -0.1626 0.2461
H48 H 0.2882 -0.1020 0.2625
C33 C 0.3262(3) -0.2201(2) 0.22347(18)
H49 H 0.2933 -0.2594 0.1849
H50 H 0.3349 -0.2494 0.2715
H51 H 0.3997 -0.2010 0.2117
I1B I -0.075857(18) -0.090795(12) -0.071482(10)
Ca1B Ca -0.03955(5) 0.10529(3) -0.08934(3)
O1B O -0.22212(16) 0.10244(12) -0.15602(10)
N1B N -0.03624(19) 0.25558(14) -0.07475(11)
C1B C -0.0926(3) 0.39461(18) -0.12897(16)
H1B H -0.0318 0.4326 -0.1087
H2B H -0.1231 0.4144 -0.1784
H3B H -0.1518 0.3950 -0.0963
N2B N 0.06033(18) 0.14047(14) -0.18847(12)
C2B C -0.0478(2) 0.30466(17) -0.13427(15)
C3B C -0.0208(2) 0.28176(17) -0.20488(14)
H4B H -0.0487 0.3196 -0.2436
C4B C 0.0406(2) 0.21216(17) -0.22755(14)
C5B C 0.0860(3) 0.22361(19) -0.30135(15)
H5B H 0.0339 0.1981 -0.3409
H6B H 0.0945 0.2847 -0.3112
H7B H 0.1590 0.1954 -0.2995
C6B C -0.0409(2) 0.29572(17) -0.00427(14)
C7B C -0.1366(2) 0.28819(17) 0.03219(15)
C8B C -0.1390(3) 0.32782(19) 0.10054(15)
H8B H -0.2041 0.3231 0.1251
C9B C -0.0486(3) 0.37379(19) 0.13334(16)
H9B H -0.0519 0.4017 0.1795
C10B C 0.0467(3) 0.37876(19) 0.09820(15)
H10B H 0.1094 0.4096 0.1213
C11B C 0.0538(2) 0.33996(17) 0.02998(15)
C12B C -0.2403(2) 0.23832(19) -0.00080(16)
H11B H -0.2242 0.2143 -0.0494
C13B C -0.2643(3) 0.1635(2) 0.04882(17)
H12B H -0.2758 0.1849 0.0980
H13B H -0.3318 0.1335 0.0269
H14B H -0.2007 0.1240 0.0534
C14B C -0.3432(3) 0.2962(2) -0.01580(19)
H15B H -0.3264 0.3436 -0.0480
H16B H -0.4063 0.2632 -0.0402
H17B H -0.3628 0.3190 0.0312
C15B C 0.1628(2) 0.3463(2) -0.00377(17)
H18B H 0.1542 0.3126 -0.0508
C16B C 0.2598(3) 0.3078(2) 0.0473(2)
H19B H 0.2423 0.2485 0.0586
H20B H 0.3280 0.3095 0.0228
H21B H 0.2715 0.3408 0.0934
C17B C 0.1918(3) 0.4386(2) -0.0229(2)
H22B H 0.2079 0.4718 0.0228
H23B H 0.2577 0.4386 -0.0499
H24B H 0.1283 0.4643 -0.0540
C18B C 0.1368(2) 0.07810(17) -0.21102(15)
C19B C 0.1047(2) 0.01906(18) -0.26806(16)
C20B C 0.1818(3) -0.0425(2) -0.28420(17)
H25B H 0.1606 -0.0830 -0.3223
C21B C 0.2881(3) -0.0462(2) -0.24626(18)
H26B H 0.3400 -0.0879 -0.2588
C22B C 0.3183(3) 0.0112(2) -0.19003(19)
H27B H 0.3912 0.0079 -0.1635
C23B C 0.2450(2) 0.07402(18) -0.17091(16)
C24B C -0.0107(3) 0.0196(2) -0.31341(16)
H28B H -0.0491 0.0738 -0.3021
C25B C -0.0817(3) -0.0547(3) -0.29174(19)
H29B H -0.0918 -0.0500 -0.2392
H30B H -0.1550 -0.0532 -0.3218
H31B H -0.0441 -0.1087 -0.3003
C26B C -0.0040(3) 0.0170(2) -0.39711(17)
H32B H 0.0234 -0.0391 -0.4107
H33B H -0.0785 0.0270 -0.4238
H34B H 0.0475 0.0615 -0.4103
C27B C 0.2824(2) 0.13874(19) -0.11088(17)
H35B H 0.2144 0.1578 -0.0887
C28B C 0.3655(3) 0.1022(2) -0.04810(18)
H36B H 0.4368 0.0899 -0.0669
H37B H 0.3777 0.1440 -0.0078
H38B H 0.3350 0.0495 -0.0295
C29B C 0.3327(3) 0.2171(2) -0.14403(19)
H39B H 0.2757 0.2448 -0.1791
H40B H 0.3589 0.2573 -0.1043
H41B H 0.3959 0.1996 -0.1700
C30B C -0.3141(2) 0.0604(2) -0.12620(17)
H42B H -0.2876 0.0391 -0.0759
H43B H -0.3739 0.1028 -0.1216
C31B C -0.3627(3) -0.0134(2) -0.17323(19)
H44B H -0.3020 -0.0504 -0.1857
H45B H -0.4132 -0.0463 -0.1456
H46B H -0.4045 0.0086 -0.2189
C32B C -0.2508(3) 0.1440(2) -0.22697(16)
H47B H -0.1811 0.1626 -0.2461
H48B H -0.2882 0.1020 -0.2625
C33B C -0.3262(3) 0.2201(2) -0.22347(18)
H49B H -0.2933 0.2594 -0.1849
H50B H -0.3349 0.2494 -0.2715
H51B H -0.3997 0.2010 -0.2117
loop_
_geom_bond_atom_site_label_1
_geom_bond_atom_site_label_2
_geom_bond_site_symmetry_1
_geom_bond_site_symmetry_2
I1 Ca1 1_555 1_555
Ca1 O1 1_555 1_555
O1 C30 1_555 1_555
N1 Ca1 1_555 1_555
C1 H1 1_555 1_555
H2 C1 1_555 1_555
H3 C1 1_555 1_555
N2 Ca1 1_555 1_555
C2 N1 1_555 1_555
C3 C2 1_555 1_555
H4 C3 1_555 1_555
C4 N2 1_555 1_555
C5 C4 1_555 1_555
H5 C5 1_555 1_555
H6 C5 1_555 1_555
H7 C5 1_555 1_555
C6 N1 1_555 1_555
C7 C6 1_555 1_555
C8 C7 1_555 1_555
H8 C8 1_555 1_555
C9 C8 1_555 1_555
H9 C9 1_555 1_555
C10 C9 1_555 1_555
H10 C10 1_555 1_555
C11 C6 1_555 1_555
C12 C7 1_555 1_555
H11 C12 1_555 1_555
C13 C12 1_555 1_555
H12 C13 1_555 1_555
H13 C13 1_555 1_555
H14 C13 1_555 1_555
C14 C12 1_555 1_555
H15 C14 1_555 1_555
H16 C14 1_555 1_555
H17 C14 1_555 1_555
C15 C11 1_555 1_555
H18 C15 1_555 1_555
C16 C15 1_555 1_555
H19 C16 1_555 1_555
H20 C16 1_555 1_555
H21 C16 1_555 1_555
C17 C15 1_555 1_555
H22 C17 1_555 1_555
H23 C17 1_555 1_555
H24 C17 1_555 1_555
C18 N2 1_555 1_555
C19 C18 1_555 1_555
C20 C19 1_555 1_555
H25 C20 1_555 1_555
C21 C20 1_555 1_555
H26 C21 1_555 1_555
C22 C21 1_555 1_555
H27 C22 1_555 1_555
C23 C18 1_555 1_555
C24 C19 1_555 1_555
H28 C24 1_555 1_555
C25 C24 1_555 1_555
H29 C25 1_555 1_555
H30 C25 1_555 1_555
H31 C25 1_555 1_555
C26 C24 1_555 1_555
H32 C26 1_555 1_555
H33 C26 1_555 1_555
H34 C26 1_555 1_555
C27 C23 1_555 1_555
H35 C27 1_555 1_555
C28 C27 1_555 1_555
H36 C28 1_555 1_555
H37 C28 1_555 1_555
H38 C28 1_555 1_555
C29 C27 1_555 1_555
H39 C29 1_555 1_555
H40 C29 1_555 1_555
H41 C29 1_555 1_555
C30 H42 1_555 1_555
H43 C30 1_555 1_555
C31 C30 1_555 1_555
H44 C31 1_555 1_555
H45 C31 1_555 1_555
H46 C31 1_555 1_555
C32 O1 1_555 1_555
H47 C32 1_555 1_555
H48 C32 1_555 1_555
C33 C32 1_555 1_555
H49 C33 1_555 1_555
H50 C33 1_555 1_555
H51 C33 1_555 1_555
I1B Ca1 1_555 1_555
Ca1B I1 1_555 1_555
O1B Ca1B 1_555 1_555
N1B Ca1B 1_555 1_555
C1B H1B 1_555 1_555
H2B C1B 1_555 1_555
H3B C1B 1_555 1_555
N2B Ca1B 1_555 1_555
C2B N1B 1_555 1_555
C3B C2B 1_555 1_555
H4B C3B 1_555 1_555
C4B N2B 1_555 1_555
C5B C4B 1_555 1_555
H5B C5B 1_555 1_555
H6B C5B 1_555 1_555
H7B C5B 1_555 1_555
C6B N1B 1_555 1_555
C7B C6B 1_555 1_555
C8B C7B 1_555 1_555
H8B C8B 1_555 1_555
C9B C8B 1_555 1_555
H9B C9B 1_555 1_555
C10B C9B 1_555 1_555
H10B C10B 1_555 1_555
C11B C6B 1_555 1_555
C12B C7B 1_555 1_555
H11B C12B 1_555 1_555
C13B C12B 1_555 1_555
H12B C13B 1_555 1_555
H13B C13B 1_555 1_555
H14B C13B 1_555 1_555
C14B C12B 1_555 1_555
H15B C14B 1_555 1_555
H16B C14B 1_555 1_555
H17B C14B 1_555 1_555
C15B C11B 1_555 1_555
H18B C15B 1_555 1_555
C16B C15B 1_555 1_555
H19B C16B 1_555 1_555
H20B C16B 1_555 1_555
H21B C16B 1_555 1_555
C17B C15B 1_555 1_555
H22B C17B 1_555 1_555
H23B C17B 1_555 1_555
H24B C17B 1_555 1_555
C18B N2B 1_555 1_555
C19B C18B 1_555 1_555
C20B C19B 1_555 1_555
H25B C20B 1_555 1_555
C21B C20B 1_555 1_555
H26B C21B 1_555 1_555
C22B C21B 1_555 1_555
H27B C22B 1_555 1_555
C23B C18B 1_555 1_555
C24B C19B 1_555 1_555
H28B C24B 1_555 1_555
C25B C24B 1_555 1_555
H29B C25B 1_555 1_555
H30B C25B 1_555 1_555
H31B C25B 1_555 1_555
C26B C24B 1_555 1_555
H32B C26B 1_555 1_555
H33B C26B 1_555 1_555
H34B C26B 1_555 1_555
C27B C23B 1_555 1_555
H35B C27B 1_555 1_555
C28B C27B 1_555 1_555
H36B C28B 1_555 1_555
H37B C28B 1_555 1_555
H38B C28B 1_555 1_555
C29B C27B 1_555 1_555
H39B C29B 1_555 1_555
H40B C29B 1_555 1_555
H41B C29B 1_555 1_555
C30B O1B 1_555 1_555
H42B C30B 1_555 1_555
H43B C30B 1_555 1_555
C31B C30B 1_555 1_555
H44B C31B 1_555 1_555
H45B C31B 1_555 1_555
H46B C31B 1_555 1_555
C32B O1B 1_555 1_555
H47B C32B 1_555 1_555
H48B C32B 1_555 1_555
C33B C32B 1_555 1_555
H49B C33B 1_555 1_555
H50B C33B 1_555 1_555
H51B C33B 1_555 1_555
C1 C2 1_555 1_555
C3 C4 1_555 1_555
C10 C11 1_555 1_555
C22 C23 1_555 1_555
I1B Ca1B 1_555 1_555
C1B C2B 1_555 1_555
C3B C4B 1_555 1_555
C10B C11B 1_555 1_555
C22B C23B 1_555 1_555

#END
