
#######################################################################
#
#                 Cambridge Crystallographic Data Centre
#                                CCDC 
#
#######################################################################
#
# If this CIF has been generated from an entry in the Cambridge 
# Structural Database, then it will include bibliographic, chemical, 
# crystal, experimental, refinement or atomic coordinate data resulting 
# from the CCDC's data processing and validation procedures.
#
#######################################################################

data_GUPVAQ
_chemical_formula_moiety         'C32 H31 Cl1 N2 O2'
_chemical_name_systematic        
3-(bis(4-(dimethylamino)phenyl)methyl)-3-(4-chlorobenzyl)-1-benzofuran-2(3H)-one
_symmetry_cell_setting           orthorhombic
_symmetry_space_group_name_H-M   'P 21 21 21'
_symmetry_Int_Tables_number      19
_space_group_name_Hall           'P 2ac 2ab'
loop_
_symmetry_equiv_pos_site_id
_symmetry_equiv_pos_as_xyz
1 x,y,z
2 1/2+x,1/2-y,-z
3 -x,1/2+y,1/2-z
4 1/2-x,-y,1/2+z
_cell_length_a                   10.624(3)
_cell_length_b                   11.483(2)
_cell_length_c                   21.755(4)
_cell_angle_alpha                90
_cell_angle_beta                 90
_cell_angle_gamma                90
_cell_volume                     2654.01
_exptl_crystal_colour            colorless
_exptl_crystal_description       prism
_cell_formula_units_Z            4
loop_
_atom_site_label
_atom_site_type_symbol
_atom_site_fract_x
_atom_site_fract_y
_atom_site_fract_z
Cl1 Cl 0.44977(6) 0.88977(4) 0.14928(3)
O1 O 0.03454(13) 0.42899(13) 0.10120(7)
O2 O 0.20899(12) 0.35272(11) 0.05964(5)
N1 N 0.23230(14) 0.02889(13) 0.42614(6)
N2 N -0.14424(15) -0.08230(13) 0.02975(7)
C1 C 0.13122(16) 0.37808(15) 0.10885(8)
C2 C 0.18757(15) 0.33104(13) 0.16871(7)
C3 C 0.30906(14) 0.27969(12) 0.14545(7)
C4 C 0.31466(15) 0.29488(14) 0.08210(7)
C5 C 0.41222(17) 0.25517(16) 0.04598(8)
C6 C 0.50972(17) 0.19791(16) 0.07617(9)
C7 C 0.50899(16) 0.18380(15) 0.13955(9)
C8 C 0.40858(16) 0.22525(14) 0.17469(8)
C9 C 0.08845(14) 0.24327(14) 0.19696(7)
C10 C 0.13324(14) 0.18662(14) 0.25637(7)
C11 C 0.11010(15) 0.24067(13) 0.31299(7)
C12 C 0.14243(15) 0.18979(14) 0.36837(7)
C13 C 0.20093(14) 0.07989(14) 0.37038(7)
C14 C 0.22603(16) 0.02586(14) 0.31371(8)
C15 C 0.19234(16) 0.07816(14) 0.25850(7)
C16 C 0.16585(18) 0.06579(17) 0.48113(8)
C17 C 0.2787(2) -0.09013(17) 0.42559(9)
C18 C 0.03301(14) 0.15539(13) 0.15176(7)
C19 C -0.09714(15) 0.13812(14) 0.15189(8)
C20 C -0.15652(15) 0.05921(15) 0.11341(8)
C21 C -0.08683(16) -0.00618(13) 0.07057(7)
C22 C 0.04404(17) 0.00840(15) 0.07128(8)
C23 C 0.10219(16) 0.08661(15) 0.11109(8)
C24 C -0.27962(18) -0.09563(16) 0.03016(10)
C25 C -0.0791(2) -0.1158(2) -0.02487(10)
C26 C 0.20770(18) 0.43088(14) 0.21591(8)
C27 C 0.27229(16) 0.54092(14) 0.19377(7)
C28 C 0.19925(17) 0.63727(15) 0.17832(9)
C29 C 0.25316(18) 0.74440(15) 0.16427(9)
C30 C 0.38242(18) 0.75384(15) 0.16507(8)
C31 C 0.45870(17) 0.65955(16) 0.17773(7)
C32 C 0.40280(16) 0.55311(15) 0.19260(8)
H1 H 0.41286 0.26631 0.00271
H2 H 0.57814 0.16789 0.05295
H3 H 0.57739 0.14561 0.15917
H4 H 0.40859 0.21619 0.2181
H5 H 0.01567 0.29315 0.20946
H6 H 0.07078 0.31497 0.31334
H7 H 0.12489 0.22965 0.40566
H8 H 0.26677 -0.04778 0.31314
H9 H 0.2101 0.03887 0.22106
H10 H 0.0751 0.06655 0.47307
H11 H 0.19356 0.1442 0.49269
H12 H 0.18405 0.01154 0.51475
H13 H 0.35359 -0.09495 0.39945
H14 H 0.21324 -0.14191 0.4094
H15 H 0.30039 -0.11382 0.46754
H16 H -0.1471 0.18238 0.17956
H17 H -0.24513 0.04915 0.11596
H18 H 0.09438 -0.03619 0.04391
H19 H 0.19131 0.09332 0.11054
H20 H -0.31925 -0.02114 0.01972
H21 H -0.3072 -0.12015 0.07115
H22 H -0.30415 -0.15462 -0.00011
H23 H -0.0114 -0.17025 -0.01435
H24 H -0.04315 -0.04659 -0.04452
H25 H -0.13801 -0.15358 -0.05322
H26 H 0.12425 0.45304 0.23243
H27 H 0.2574 0.39925 0.25059
H28 H 0.11024 0.62962 0.17734
H29 H 0.20199 0.80959 0.15435
H30 H 0.54772 0.66692 0.17636
H31 H 0.45452 0.48805 0.20207
loop_
_geom_bond_atom_site_label_1
_geom_bond_atom_site_label_2
_geom_bond_site_symmetry_1
_geom_bond_site_symmetry_2
Cl1 C30 1_555 1_555
O1 C1 1_555 1_555
O2 C1 1_555 1_555
N1 C13 1_555 1_555
N2 C21 1_555 1_555
C1 C2 1_555 1_555
C2 C3 1_555 1_555
C3 C4 1_555 1_555
C4 O2 1_555 1_555
C5 C4 1_555 1_555
C6 C5 1_555 1_555
C7 C6 1_555 1_555
C8 C3 1_555 1_555
C9 C2 1_555 1_555
C10 C9 1_555 1_555
C11 C10 1_555 1_555
C12 C11 1_555 1_555
C13 C12 1_555 1_555
C14 C13 1_555 1_555
C15 C10 1_555 1_555
C16 N1 1_555 1_555
C17 N1 1_555 1_555
C18 C9 1_555 1_555
C19 C18 1_555 1_555
C20 C19 1_555 1_555
C21 C20 1_555 1_555
C22 C21 1_555 1_555
C23 C18 1_555 1_555
C24 N2 1_555 1_555
C25 N2 1_555 1_555
C26 C2 1_555 1_555
C27 C26 1_555 1_555
C28 C27 1_555 1_555
C29 C28 1_555 1_555
C30 C29 1_555 1_555
C31 C30 1_555 1_555
C32 C27 1_555 1_555
H1 C5 1_555 1_555
H2 C6 1_555 1_555
H3 C7 1_555 1_555
H4 C8 1_555 1_555
H5 C9 1_555 1_555
H6 C11 1_555 1_555
H7 C12 1_555 1_555
H8 C14 1_555 1_555
H9 C15 1_555 1_555
H10 C16 1_555 1_555
H11 C16 1_555 1_555
H12 C16 1_555 1_555
H13 C17 1_555 1_555
H14 C17 1_555 1_555
H15 C17 1_555 1_555
H16 C19 1_555 1_555
H17 C20 1_555 1_555
H18 C22 1_555 1_555
H19 C23 1_555 1_555
H20 C24 1_555 1_555
H21 C24 1_555 1_555
H22 C24 1_555 1_555
H23 C25 1_555 1_555
H24 C25 1_555 1_555
H25 C25 1_555 1_555
H26 C26 1_555 1_555
H27 C26 1_555 1_555
H28 C28 1_555 1_555
H29 C29 1_555 1_555
H30 C31 1_555 1_555
H31 C32 1_555 1_555
C7 C8 1_555 1_555
C14 C15 1_555 1_555
C22 C23 1_555 1_555
C31 C32 1_555 1_555

#END
