
#######################################################################
#
#                 Cambridge Crystallographic Data Centre
#                                CCDC 
#
#######################################################################
#
# If this CIF has been generated from an entry in the Cambridge 
# Structural Database, then it will include bibliographic, chemical, 
# crystal, experimental, refinement or atomic coordinate data resulting 
# from the CCDC's data processing and validation procedures.
#
#######################################################################

data_GUQJOS
_chemical_formula_moiety         'C29 H36 Br1 N1 O7'
_chemical_name_systematic        
'(2S,3S,5S)-exo-4,4-Di-t-butyl 2-methyl 3-(4-bromophenyl)-5-(4-methoxyphenyl)pyrrolidine-2,4,4-tricarboxylate'
_symmetry_cell_setting           orthorhombic
_symmetry_space_group_name_H-M   'P 21 21 21'
_symmetry_Int_Tables_number      19
_space_group_name_Hall           'P 2ac 2ab'
loop_
_symmetry_equiv_pos_site_id
_symmetry_equiv_pos_as_xyz
1 x,y,z
2 1/2-x,-y,1/2+z
3 -x,1/2+y,1/2-z
4 1/2+x,1/2-y,-z
_cell_length_a                   9.7742(8)
_cell_length_b                   15.7902(13)
_cell_length_c                   18.9829(16)
_cell_angle_alpha                90
_cell_angle_beta                 90
_cell_angle_gamma                90
_cell_volume                     2929.76
_exptl_crystal_description       block
_cell_formula_units_Z            4
loop_
_atom_site_label
_atom_site_type_symbol
_atom_site_fract_x
_atom_site_fract_y
_atom_site_fract_z
Br1 Br 0.57599(6) 0.84707(3) 0.79853(3)
C1 C 0.6335(4) 0.7474(2) 0.75108(19)
C2 C 0.7535(4) 0.7468(2) 0.7130(2)
H1 H 0.8061 0.7957 0.7091
C3 C 0.7948(4) 0.6727(2) 0.68080(18)
H2 H 0.8759 0.6723 0.6552
C4 C 0.7186(3) 0.5986(2) 0.68542(16)
C5 C 0.5979(3) 0.6022(2) 0.72435(18)
H3 H 0.5439 0.5539 0.7284
C6 C 0.5568(4) 0.6760(3) 0.7570(2)
H4 H 0.4764 0.6769 0.7832
C7 C 0.7610(3) 0.5150(2) 0.65323(16)
H5 H 0.6930 0.4720 0.6658
C8 C 0.9025(3) 0.4861(2) 0.68072(16)
H6 H 0.9251 0.5207 0.7220
C9 C 0.9370(3) 0.5319(2) 0.56122(16)
H7 H 0.9485 0.5935 0.5587
C10 C 0.7791(3) 0.51508(19) 0.57162(15)
C11 C 0.9095(4) 0.3938(3) 0.7027(2)
C12 C 0.8061(7) 0.2880(4) 0.7715(5)
H8 H 0.7714 0.2532 0.7341
H9 H 0.7463 0.2841 0.8115
H10 H 0.8959 0.2688 0.7845
C13 C 0.6925(3) 0.5827(2) 0.53565(17)
C14 C 0.4529(3) 0.6283(2) 0.5276(2)
C15 C 0.4402(6) 0.6223(4) 0.4487(3)
H11 H 0.5225 0.6430 0.4272
H12 H 0.3639 0.6557 0.4332
H13 H 0.4261 0.5642 0.4355
C16 C 0.4804(5) 0.7166(3) 0.5531(3)
H14 H 0.5049 0.7150 0.6020
H15 H 0.3997 0.7505 0.5471
H16 H 0.5542 0.7407 0.5264
C17 C 0.3270(4) 0.5911(4) 0.5629(3)
H17 H 0.3160 0.5333 0.5485
H18 H 0.2477 0.6231 0.5494
H19 H 0.3379 0.5936 0.6131
C18 C 0.7394(3) 0.4284(2) 0.54255(15)
C19 C 0.6424(3) 0.3619(2) 0.43635(17)
C20 C 0.5121(4) 0.3337(3) 0.4719(2)
H20 H 0.5335 0.3080 0.5164
H21 H 0.4659 0.2933 0.4425
H22 H 0.4538 0.3818 0.4794
C21 C 0.7470(4) 0.2920(2) 0.4299(2)
H23 H 0.8312 0.3149 0.4121
H24 H 0.7137 0.2495 0.3981
H25 H 0.7627 0.2672 0.4753
C22 C 0.6149(5) 0.4014(3) 0.3652(2)
H26 H 0.5433 0.4427 0.3696
H27 H 0.5873 0.3582 0.3326
H28 H 0.6966 0.4284 0.3484
C23 C 1.0061(3) 0.4957(2) 0.49671(17)
C24 C 1.0571(3) 0.4137(2) 0.49404(19)
H29 H 1.0411 0.3773 0.5317
C25 C 1.1305(3) 0.3849(2) 0.4373(2)
H30 H 1.1640 0.3298 0.4370
C26 C 1.1546(3) 0.4376(2) 0.38080(19)
C27 C 1.1024(4) 0.5178(2) 0.38135(19)
H31 H 1.1167 0.5535 0.3431
C28 C 1.0283(3) 0.5459(2) 0.43884(18)
H32 H 0.9926 0.6005 0.4383
C29 C 1.2763(4) 0.4563(3) 0.27468(19)
H33 H 1.1980 0.4777 0.2499
H34 H 1.3335 0.4253 0.2426
H35 H 1.3271 0.5027 0.2943
N1 N 1.0010(3) 0.5046(2) 0.62668(16)
H36 H 1.0879 0.5000 0.6323
O1 O 0.9955(4) 0.3448(2) 0.6825(2)
O2 O 0.8135(3) 0.3753(2) 0.74796(18)
O3 O 0.7360(3) 0.63851(16) 0.49955(14)
O4 O 0.5615(2) 0.56955(13) 0.55190(12)
O5 O 0.7444(3) 0.36419(15) 0.57658(12)
O6 O 0.7008(2) 0.43471(13) 0.47593(11)
O7 O 1.2340(3) 0.40359(18) 0.32792(14)
loop_
_geom_bond_atom_site_label_1
_geom_bond_atom_site_label_2
_geom_bond_site_symmetry_1
_geom_bond_site_symmetry_2
Br1 C1 1_555 1_555
C1 C2 1_555 1_555
C2 H1 1_555 1_555
C3 C2 1_555 1_555
H2 C3 1_555 1_555
C4 C3 1_555 1_555
C5 C4 1_555 1_555
H3 C5 1_555 1_555
C6 C1 1_555 1_555
H4 C6 1_555 1_555
C7 C4 1_555 1_555
H5 C7 1_555 1_555
C8 C7 1_555 1_555
H6 C8 1_555 1_555
C9 H7 1_555 1_555
C10 C7 1_555 1_555
C11 C8 1_555 1_555
C12 H8 1_555 1_555
H9 C12 1_555 1_555
H10 C12 1_555 1_555
C13 C10 1_555 1_555
C14 C15 1_555 1_555
C15 H11 1_555 1_555
H12 C15 1_555 1_555
H13 C15 1_555 1_555
C16 C14 1_555 1_555
H14 C16 1_555 1_555
H15 C16 1_555 1_555
H16 C16 1_555 1_555
C17 C14 1_555 1_555
H17 C17 1_555 1_555
H18 C17 1_555 1_555
H19 C17 1_555 1_555
C18 C10 1_555 1_555
C19 C20 1_555 1_555
C20 H20 1_555 1_555
H21 C20 1_555 1_555
H22 C20 1_555 1_555
C21 C19 1_555 1_555
H23 C21 1_555 1_555
H24 C21 1_555 1_555
H25 C21 1_555 1_555
C22 C19 1_555 1_555
H26 C22 1_555 1_555
H27 C22 1_555 1_555
H28 C22 1_555 1_555
C23 C9 1_555 1_555
C24 C23 1_555 1_555
H29 C24 1_555 1_555
C25 C24 1_555 1_555
H30 C25 1_555 1_555
C26 C25 1_555 1_555
C27 C26 1_555 1_555
H31 C27 1_555 1_555
C28 C23 1_555 1_555
H32 C28 1_555 1_555
C29 H33 1_555 1_555
H34 C29 1_555 1_555
H35 C29 1_555 1_555
N1 C8 1_555 1_555
H36 N1 1_555 1_555
O1 C11 1_555 1_555
O2 C11 1_555 1_555
O3 C13 1_555 1_555
O4 C13 1_555 1_555
O5 C18 1_555 1_555
O6 C18 1_555 1_555
O7 C26 1_555 1_555
C5 C6 1_555 1_555
C9 C10 1_555 1_555
C9 N1 1_555 1_555
C12 O2 1_555 1_555
C14 O4 1_555 1_555
C19 O6 1_555 1_555
C27 C28 1_555 1_555
C29 O7 1_555 1_555

#END
