
#######################################################################
#
#                 Cambridge Crystallographic Data Centre
#                                CCDC 
#
#######################################################################
#
# If this CIF has been generated from an entry in the Cambridge 
# Structural Database, then it will include bibliographic, chemical, 
# crystal, experimental, refinement or atomic coordinate data resulting 
# from the CCDC's data processing and validation procedures.
#
#######################################################################

data_GUQJUY
_chemical_formula_moiety         'C32 H37 N1 O6'
_chemical_name_systematic        
'rac-exo-4,4-Di-t-butyl 2-methyl 5-(1-naphthyl)-3-phenylpyrrolidine-2,4,4-tricarboxylate'
_symmetry_cell_setting           triclinic
_symmetry_space_group_name_H-M   'P -1'
_symmetry_Int_Tables_number      2
_space_group_name_Hall           '-P 1'
loop_
_symmetry_equiv_pos_site_id
_symmetry_equiv_pos_as_xyz
1 x,y,z
2 -x,-y,-z
_cell_length_a                   10.0784(12)
_cell_length_b                   12.2383(14)
_cell_length_c                   12.8767(15)
_cell_angle_alpha                91.535(2)
_cell_angle_beta                 95.552(2)
_cell_angle_gamma                111.887(2)
_cell_volume                     1463.45
_exptl_crystal_description       block
_cell_formula_units_Z            2
loop_
_atom_site_label
_atom_site_type_symbol
_atom_site_fract_x
_atom_site_fract_y
_atom_site_fract_z
C1 C 0.92473(17) 0.83150(14) 0.42146(12)
C2 C 0.99589(19) 0.81612(17) 0.51192(13)
H1 H 1.0958 0.8428 0.5189
C3 C 0.9218(2) 0.76092(19) 0.59498(15)
H2 H 0.9728 0.7520 0.6561
C4 C 0.7763(2) 0.72076(19) 0.58630(15)
H3 H 0.7281 0.6843 0.6416
C5 C 0.69718(19) 0.73358(17) 0.49463(15)
C6 C 0.5451(2) 0.6907(2) 0.4834(2)
H4 H 0.4960 0.6531 0.5379
C7 C 0.4696(2) 0.7033(3) 0.3950(2)
H5 H 0.3696 0.6736 0.3887
C8 C 0.5422(2) 0.7608(3) 0.3136(2)
H6 H 0.4899 0.7707 0.2535
C9 C 0.6882(2) 0.80258(19) 0.32035(16)
H7 H 0.7340 0.8396 0.2643
C10 C 0.77145(18) 0.79088(15) 0.41057(13)
C11 C 1.00860(17) 0.89307(14) 0.33370(12)
H8 H 0.9585 0.9400 0.3000
C12 C 1.03359(16) 0.81199(13) 0.24541(12)
C13 C 1.19684(16) 0.87714(13) 0.23242(12)
H9 H 1.2493 0.8411 0.2789
C14 C 1.23122(18) 1.00111(14) 0.28150(13)
H10 H 1.1878 1.0437 0.2348
C15 C 1.39037(19) 1.07234(16) 0.30682(14)
C16 C 1.6097(2) 1.0796(2) 0.3955(2)
H11 H 1.6576 1.0902 0.3335
H12 H 1.6446 1.0335 0.4416
H13 H 1.6286 1.1553 0.4300
C17 C 1.24363(17) 0.86981(14) 0.12493(13)
C18 C 1.2583(2) 0.95623(17) 0.05512(15)
H14 H 1.2343 1.0203 0.0723
C19 C 1.3084(3) 0.9485(2) -0.04046(17)
H15 H 1.3175 1.0073 -0.0867
C20 C 1.3445(2) 0.8558(2) -0.06688(18)
H16 H 1.3793 0.8515 -0.1305
C21 C 1.3291(2) 0.7684(2) 0.00089(18)
H17 H 1.3532 0.7046 -0.0171
C22 C 1.27789(19) 0.77458(17) 0.09595(15)
H18 H 1.2664 0.7142 0.1408
C23 C 0.94306(17) 0.81084(14) 0.14234(12)
C24 C 0.8331(2) 0.69385(17) -0.02313(13)
C25 C 0.9143(3) 0.7844(2) -0.09513(15)
H19 H 0.9286 0.8619 -0.0671
H20 H 0.8598 0.7696 -0.1630
H21 H 1.0059 0.7791 -0.1011
C26 C 0.8249(4) 0.5719(2) -0.05742(18)
H22 H 0.9204 0.5721 -0.0558
H23 H 0.7766 0.5504 -0.1273
H24 H 0.7723 0.5159 -0.0109
C27 C 0.6851(2) 0.6953(2) -0.01165(18)
H25 H 0.6405 0.6406 0.0385
H26 H 0.6266 0.6729 -0.0780
H27 H 0.6946 0.7733 0.0118
C28 C 1.00422(17) 0.68725(14) 0.28027(12)
C29 C 0.8033(2) 0.49948(14) 0.29514(14)
C30 C 0.8679(3) 0.42966(19) 0.2318(2)
H28 H 0.8631 0.4490 0.1601
H29 H 0.8150 0.3468 0.2359
H30 H 0.9666 0.4491 0.2592
C31 C 0.6456(2) 0.46650(19) 0.2592(2)
H31 H 0.6096 0.5161 0.2971
H32 H 0.5936 0.3855 0.2719
H33 H 0.6331 0.4769 0.1858
C32 C 0.8291(3) 0.49006(19) 0.41118(16)
H34 H 0.9308 0.5179 0.4326
H35 H 0.7848 0.4091 0.4272
H36 H 0.7883 0.5371 0.4477
N1 N 1.15500(15) 0.97311(12) 0.37364(11)
H37 H 1.1885 0.9980 0.4375
O1 O 1.44990(16) 1.16608(12) 0.27349(12)
O2 O 1.45627(14) 1.01926(14) 0.36740(13)
O3 O 0.90836(14) 0.89179(11) 0.11901(9)
O4 O 0.91839(12) 0.71491(10) 0.08127(8)
O5 O 1.09662(14) 0.65386(11) 0.31390(12)
O6 O 0.86380(11) 0.62523(9) 0.27179(9)
loop_
_geom_bond_atom_site_label_1
_geom_bond_atom_site_label_2
_geom_bond_site_symmetry_1
_geom_bond_site_symmetry_2
C1 C2 1_555 1_555
C2 H1 1_555 1_555
C3 C2 1_555 1_555
H2 C3 1_555 1_555
C4 C3 1_555 1_555
H3 C4 1_555 1_555
C5 C4 1_555 1_555
C6 C5 1_555 1_555
H4 C6 1_555 1_555
C7 C6 1_555 1_555
H5 C7 1_555 1_555
C8 C7 1_555 1_555
H6 C8 1_555 1_555
C9 C8 1_555 1_555
H7 C9 1_555 1_555
C10 C1 1_555 1_555
C11 C1 1_555 1_555
H8 C11 1_555 1_555
C12 C11 1_555 1_555
C13 C12 1_555 1_555
H9 C13 1_555 1_555
C14 C13 1_555 1_555
H10 C14 1_555 1_555
C15 C14 1_555 1_555
C16 H11 1_555 1_555
H12 C16 1_555 1_555
H13 C16 1_555 1_555
C17 C13 1_555 1_555
C18 C17 1_555 1_555
H14 C18 1_555 1_555
C19 C18 1_555 1_555
H15 C19 1_555 1_555
C20 C19 1_555 1_555
H16 C20 1_555 1_555
C21 C20 1_555 1_555
H17 C21 1_555 1_555
C22 C17 1_555 1_555
H18 C22 1_555 1_555
C23 C12 1_555 1_555
C24 C25 1_555 1_555
C25 H19 1_555 1_555
H20 C25 1_555 1_555
H21 C25 1_555 1_555
C26 C24 1_555 1_555
H22 C26 1_555 1_555
H23 C26 1_555 1_555
H24 C26 1_555 1_555
C27 C24 1_555 1_555
H25 C27 1_555 1_555
H26 C27 1_555 1_555
H27 C27 1_555 1_555
C28 C12 1_555 1_555
C29 C30 1_555 1_555
C30 H28 1_555 1_555
H29 C30 1_555 1_555
H30 C30 1_555 1_555
C31 C29 1_555 1_555
H31 C31 1_555 1_555
H32 C31 1_555 1_555
H33 C31 1_555 1_555
C32 C29 1_555 1_555
H34 C32 1_555 1_555
H35 C32 1_555 1_555
H36 C32 1_555 1_555
N1 C11 1_555 1_555
H37 N1 1_555 1_555
O1 C15 1_555 1_555
O2 C15 1_555 1_555
O3 C23 1_555 1_555
O4 C23 1_555 1_555
O5 C28 1_555 1_555
O6 C28 1_555 1_555
C5 C10 1_555 1_555
C9 C10 1_555 1_555
C14 N1 1_555 1_555
C16 O2 1_555 1_555
C21 C22 1_555 1_555
C24 O4 1_555 1_555
C29 O6 1_555 1_555

#END
