
#######################################################################
#
#                 Cambridge Crystallographic Data Centre
#                                CCDC 
#
#######################################################################
#
# If this CIF has been generated from an entry in the Cambridge 
# Structural Database, then it will include bibliographic, chemical, 
# crystal, experimental, refinement or atomic coordinate data resulting 
# from the CCDC's data processing and validation procedures.
#
#######################################################################

data_GURZUQ
_chemical_name_common            HOF-2
_chemical_formula_moiety         'C36 H34 N20 O2,C8 H10 O1'
_chemical_name_systematic        
"6,6',6'',6'''-(2,2'-diethoxy-1,1'-binaphthalene-4,4',6,6'-tetrayl)tetrakis(1,3,5-triazine-2,4-diamine) S-1-phenylethanol unknown solvate"
_symmetry_cell_setting           hexagonal
_symmetry_space_group_name_H-M   'P 65'
_symmetry_Int_Tables_number      170
_space_group_name_Hall           'P 65'
loop_
_symmetry_equiv_pos_site_id
_symmetry_equiv_pos_as_xyz
1 x,y,z
2 -y,x-y,2/3+z
3 -x+y,-x,1/3+z
4 -x,-y,1/2+z
5 y,-x+y,1/6+z
6 x-y,x,5/6+z
_cell_length_a                   11.8925(8)
_cell_length_b                   11.8925(8)
_cell_length_c                   71.857(4)
_cell_angle_alpha                90
_cell_angle_beta                 90
_cell_angle_gamma                120
_cell_volume                     8801.28
_exptl_crystal_colour            yellow
_exptl_crystal_description       block
_cell_formula_units_Z            6
loop_
_atom_site_label
_atom_site_type_symbol
_atom_site_fract_x
_atom_site_fract_y
_atom_site_fract_z
N1 N 0.4133(4) 0.7536(4) 0.99600(5)
N2 N 0.5964(4) 0.9443(4) 1.00731(6)
N3 N 0.4373(5) 0.9554(4) 0.98794(8)
N4 N 0.5624(5) 0.7517(5) 1.01565(8)
H1 H 0.6327 0.7907 1.0221
H2 H 0.5180 0.6682 1.0155
N5 N 0.6211(9) 1.1457(6) 0.99721(12)
H3 H 0.5993 1.1882 0.9898
H4 H 0.6906 1.1862 1.0038
N6 N 0.0733(4) 0.4558(4) 1.03047(7)
N7 N -0.0477(6) 0.2825(6) 1.05079(9)
N8 N -0.1042(6) 0.2729(5) 1.01809(8)
N9 N 0.1303(6) 0.4665(4) 1.06134(7)
H5 H 0.1981 0.5411 1.0595
H6 H 0.1147 0.4323 1.0723
N10 N -0.2107(7) 0.0999(6) 1.03755(12)
H7 H -0.2263 0.0590 1.0480
H8 H -0.2562 0.0610 1.0279
N11 N -0.4136(4) 0.3399(4) 0.88799(6)
N12 N -0.5918(4) 0.3571(5) 0.87594(7)
N13 N -0.4383(5) 0.5152(5) 0.89614(9)
N14 N -0.5634(4) 0.1867(5) 0.86838(7)
H9 H -0.6339 0.1550 0.8620
H10 H -0.5206 0.1460 0.8690
N15 N -0.6106(7) 0.5300(7) 0.88460(11)
H11 H -0.6722 0.5073 0.8766
H12 H -0.5865 0.5980 0.8914
N16 N -0.0768(4) 0.3867(5) 0.85282(6)
N17 N 0.0532(7) 0.3365(10) 0.83327(8)
N18 N 0.1019(5) 0.3729(6) 0.86489(7)
N19 N -0.1227(5) 0.3469(6) 0.82209(7)
H13 H -0.1882 0.3589 0.8227
H14 H -0.1016 0.3272 0.8116
N20 N 0.2251(7) 0.3239(11) 0.84419(13)
H15 H 0.2463 0.3219 0.8328
H16 H 0.2719 0.3207 0.8531
O1 O 0.1653(10) 0.8448(6) 0.93065(12)
O2 O -0.1609(6) 0.6915(7) 0.95307(7)
C1 C 0.0464(6) 0.6564(8) 0.94973(9)
C2 C 0.1503(10) 0.7747(8) 0.94772(11)
C3 C 0.2607(7) 0.8331(7) 0.95963(11)
H17 H 0.3317 0.9143 0.9570
C4 C 0.2577(7) 0.7652(5) 0.97485(9)
C5 C 0.1438(6) 0.6382(5) 0.97859(7)
C6 C 0.1271(5) 0.5736(5) 0.99554(6)
H18 H 0.1920 0.6108 1.0045
C7 C 0.0163(6) 0.4556(5) 0.99936(8)
C8 C -0.0728(8) 0.3958(9) 0.98477(12)
H19 H -0.1375 0.3091 0.9858
C9 C -0.0641(5) 0.4688(6) 0.96817(8)
H20 H -0.1313 0.4360 0.9595
C10 C 0.0477(6) 0.5899(5) 0.96540(8)
C11 C 0.235(2) 0.904(2) 0.9144(3)
H21 H 0.1818 0.8343 0.9059
H22 H 0.3087 0.8931 0.9168
C12 C 0.297(2) 1.008(3) 0.9004(5)
H23 H 0.3438 0.9860 0.8917
H24 H 0.3557 1.0884 0.9065
H25 H 0.2314 1.0179 0.8939
C13 C 0.3759(5) 0.8287(4) 0.98717(7)
C14 C 0.5429(8) 1.0096(5) 0.99864(9)
C15 C 0.5228(6) 0.8194(5) 1.00612(7)
C16 C 0.0004(6) 0.3925(5) 1.01716(10)
C17 C 0.0507(6) 0.4046(5) 1.04751(8)
C18 C -0.1212(8) 0.2169(7) 1.03649(12)
C19 C -0.0610(7) 0.6037(7) 0.93618(8)
C20 C -0.1566(8) 0.6206(7) 0.93777(8)
C21 C -0.2588(7) 0.5716(8) 0.92556(11)
H26 H -0.3293 0.5826 0.9282
C22 C -0.2612(6) 0.5034(6) 0.90880(8)
C23 C -0.1510(6) 0.4917(6) 0.90562(7)
C24 C -0.1250(5) 0.4441(6) 0.88905(7)
H27 H -0.1881 0.4138 0.8798
C25 C -0.0178(5) 0.4394(6) 0.88576(8)
C26 C 0.0757(6) 0.4770(8) 0.89996(9)
H28 H 0.1473 0.4659 0.8985
C27 C 0.0603(6) 0.5285(8) 0.91546(8)
H29 H 0.1250 0.5575 0.9245
C28 C -0.0442(6) 0.5406(6) 0.91874(8)
C29 C -0.257(2) 0.734(2) 0.9541(2)
H30 H -0.3432 0.6598 0.9526
H31 H -0.2421 0.7938 0.9439
C30 C -0.2497(15) 0.8027(15) 0.9728(2)
H32 H -0.1900 0.8941 0.9716
H33 H -0.2204 0.7675 0.9824
H34 H -0.3343 0.7887 0.9759
C31 C -0.3706(6) 0.4548(7) 0.89666(9)
C32 C -0.5529(6) 0.4605(8) 0.88646(12)
C33 C -0.5222(5) 0.2944(6) 0.87706(7)
C34 C 0.0061(6) 0.3957(7) 0.86670(7)
C35 C -0.0534(7) 0.3590(9) 0.83751(10)
C36 C 0.1126(9) 0.3326(10) 0.84834(10)
O3 O 0.3901(7) 1.2423(1) 0.9308(3)
C37 C -0.00268 1.03259 0.94415
C38 C -0.07032 1.10022 0.94415
C39 C -0.00232 1.23564 0.94415
C40 C 0.13285 1.30314 0.94412
C41 C 0.20105 1.23543 0.94404
C42 C 0.13268 1.09980 0.94408
C43 C 0.34659 1.31113 0.94393
C44 C 0.3831(1) 1.4357(5) 0.9334(7)
H35 H -0.04600 0.93992 0.94415
H36 H -0.16259 1.05426 0.94415
H37 H -0.04831 1.28192 0.94415
H38 H 0.17617 1.39581 0.94412
H39 H 0.17867 1.05352 0.94408
H40 H 0.38219 1.32280 0.95654
H41 H 0.35927 1.48844 0.94063
H42 H 0.47505 1.48244 0.93121
H43 H 0.33804 1.41486 0.92171
H44 H 0.48227 1.29024 0.93073
loop_
_geom_bond_atom_site_label_1
_geom_bond_atom_site_label_2
_geom_bond_site_symmetry_1
_geom_bond_site_symmetry_2
N1 C13 1_555 1_555
N2 C14 1_555 1_555
N3 C13 1_555 1_555
N4 H1 1_555 1_555
H2 N4 1_555 1_555
N5 H3 1_555 1_555
H4 N5 1_555 1_555
N6 C16 1_555 1_555
N7 C17 1_555 1_555
N8 C16 1_555 1_555
N9 H5 1_555 1_555
H6 N9 1_555 1_555
N10 H7 1_555 1_555
H8 N10 1_555 1_555
N11 C31 1_555 1_555
N12 C32 1_555 1_555
N13 C31 1_555 1_555
N14 H9 1_555 1_555
H10 N14 1_555 1_555
N15 H11 1_555 1_555
H12 N15 1_555 1_555
N16 C34 1_555 1_555
N17 C35 1_555 1_555
N18 C34 1_555 1_555
N19 H13 1_555 1_555
H14 N19 1_555 1_555
N20 H15 1_555 1_555
H16 N20 1_555 1_555
O1 C2 1_555 1_555
O2 C20 1_555 1_555
C1 C2 1_555 1_555
C2 C3 1_555 1_555
C3 H17 1_555 1_555
C4 C3 1_555 1_555
C5 C4 1_555 1_555
C6 C5 1_555 1_555
H18 C6 1_555 1_555
C7 C6 1_555 1_555
C8 C7 1_555 1_555
H19 C8 1_555 1_555
C9 C8 1_555 1_555
H20 C9 1_555 1_555
C10 C1 1_555 1_555
C11 O1 1_555 1_555
H21 C11 1_555 1_555
H22 C11 1_555 1_555
C12 C11 1_555 1_555
H23 C12 1_555 1_555
H24 C12 1_555 1_555
H25 C12 1_555 1_555
C13 C4 1_555 1_555
C14 N3 1_555 1_555
C15 N1 1_555 1_555
C16 C7 1_555 1_555
C17 N6 1_555 1_555
C18 N7 1_555 1_555
C19 C1 1_555 1_555
C20 C19 1_555 1_555
C21 C20 1_555 1_555
H26 C21 1_555 1_555
C22 C21 1_555 1_555
C23 C22 1_555 1_555
C24 C23 1_555 1_555
H27 C24 1_555 1_555
C25 C24 1_555 1_555
C26 C25 1_555 1_555
H28 C26 1_555 1_555
C27 C26 1_555 1_555
H29 C27 1_555 1_555
C28 C19 1_555 1_555
C29 O2 1_555 1_555
H30 C29 1_555 1_555
H31 C29 1_555 1_555
C30 C29 1_555 1_555
H32 C30 1_555 1_555
H33 C30 1_555 1_555
H34 C30 1_555 1_555
C31 C22 1_555 1_555
C32 N13 1_555 1_555
C33 N11 1_555 1_555
C34 C25 1_555 1_555
C35 N16 1_555 1_555
C36 N17 1_555 1_555
O3 C43 1_555 1_555
C37 C38 1_555 1_555
C38 C39 1_555 1_555
C39 C40 1_555 1_555
C40 C41 1_555 1_555
C41 C42 1_555 1_555
C42 C37 1_555 1_555
C43 C41 1_555 1_555
C44 C43 1_555 1_555
H35 C37 1_555 1_555
H36 C38 1_555 1_555
H37 C39 1_555 1_555
H38 C40 1_555 1_555
H39 C42 1_555 1_555
H40 C43 1_555 1_555
H41 C44 1_555 1_555
H42 C44 1_555 1_555
H43 C44 1_555 1_555
H44 O3 1_555 1_555
N2 C15 1_555 1_555
N4 C15 1_555 1_555
N5 C14 1_555 1_555
N8 C18 1_555 1_555
N9 C17 1_555 1_555
N10 C18 1_555 1_555
N12 C33 1_555 1_555
N14 C33 1_555 1_555
N15 C32 1_555 1_555
N18 C36 1_555 1_555
N19 C35 1_555 1_555
N20 C36 1_555 1_555
C5 C10 1_555 1_555
C9 C10 1_555 1_555
C23 C28 1_555 1_555
C27 C28 1_555 1_555

#END
