
#######################################################################
#
#                 Cambridge Crystallographic Data Centre
#                                CCDC 
#
#######################################################################
#
# If this CIF has been generated from an entry in the Cambridge 
# Structural Database, then it will include bibliographic, chemical, 
# crystal, experimental, refinement or atomic coordinate data resulting 
# from the CCDC's data processing and validation procedures.
#
#######################################################################

data_GUSFIL
_chemical_formula_moiety         'C54 H58 Si2'
_chemical_name_systematic        
(tetraceno[2,1,12-qra]tetracene-8,17-diyldiethyne-2,1-diyl)bis(triisopropylsilane)
_symmetry_cell_setting           triclinic
_symmetry_space_group_name_H-M   'P -1'
_symmetry_Int_Tables_number      2
_space_group_name_Hall           '-P 1'
loop_
_symmetry_equiv_pos_site_id
_symmetry_equiv_pos_as_xyz
1 x,y,z
2 -x,-y,-z
_cell_length_a                   8.9841(11)
_cell_length_b                   9.7368(16)
_cell_length_c                   13.510(2)
_cell_angle_alpha                75.340(14)
_cell_angle_beta                 70.337(13)
_cell_angle_gamma                90.051(14)
_cell_volume                     1071.85
_exptl_crystal_colour            red
_exptl_crystal_description       lath
_cell_formula_units_Z            1
loop_
_atom_site_label
_atom_site_type_symbol
_atom_site_fract_x
_atom_site_fract_y
_atom_site_fract_z
Si1 Si -0.10064(19) 0.76907(18) 0.88271(15)
C1 C 0.1585(6) 0.5212(5) 0.6481(4)
C2 C 0.0782(6) 0.4210(5) 0.6183(4)
C3 C -0.0864(6) 0.3902(6) 0.6628(4)
H1 H -0.1463 0.4359 0.7158
C4 C -0.1660(6) 0.2944(6) 0.6320(4)
C5 C -0.3336(7) 0.2638(7) 0.6753(5)
H2 H -0.3953 0.3093 0.7278
C6 C -0.4071(7) 0.1709(6) 0.6430(5)
H3 H -0.5195 0.1526 0.6726
C7 C -0.3173(7) 0.1011(6) 0.5655(5)
H4 H -0.3697 0.0342 0.5449
C8 C -0.1577(7) 0.1287(6) 0.5205(5)
H5 H -0.0995 0.0833 0.4669
C9 C -0.0758(6) 0.2250(6) 0.5526(5)
C10 C 0.0889(6) 0.2557(5) 0.5079(5)
H6 H 0.1483 0.2096 0.4550
C11 C 0.1702(6) 0.3521(5) 0.5381(4)
C12 C 0.3395(6) 0.3829(5) 0.4933(4)
C13 C 0.4159(5) 0.4832(5) 0.5231(4)
C14 C 0.3222(6) 0.5525(5) 0.6020(4)
C15 C 0.4034(6) 0.6552(6) 0.6298(5)
H7 H 0.3438 0.7031 0.6813
C16 C 0.5622(6) 0.6859(6) 0.5848(5)
H8 H 0.6110 0.7553 0.6055
C17 C 0.0682(6) 0.5936(6) 0.7262(4)
C18 C -0.0038(6) 0.6582(6) 0.7920(5)
C19 C 0.0528(7) 0.9116(6) 0.8675(5)
H9 H -0.0011 0.9746 0.9143
C20 C 0.1243(7) 1.0060(7) 0.7482(5)
H10 H 0.1960 1.0843 0.7447
H11 H 0.0385 1.0450 0.7234
H12 H 0.1835 0.9481 0.7010
C21 C 0.1876(7) 0.8476(8) 0.9078(6)
H13 H 0.2445 0.7873 0.8620
H14 H 0.1415 0.7901 0.9837
H15 H 0.2616 0.9250 0.9029
C22 C -0.1729(7) 0.6503(6) 1.0270(5)
H16 H -0.0817 0.5974 1.0375
C23 C -0.2220(8) 0.7359(7) 1.1125(5)
H17 H -0.3122 0.7887 1.1052
H18 H -0.1326 0.8031 1.1009
H19 H -0.2525 0.6704 1.1858
C24 C -0.3081(8) 0.5384(7) 1.0480(6)
H20 H -0.3271 0.4685 1.1184
H21 H -0.2788 0.4898 0.9898
H22 H -0.4049 0.5853 1.0492
C25 C -0.2576(7) 0.8582(6) 0.8304(5)
H23 H -0.1999 0.9216 0.7557
C26 C -0.3477(8) 0.9541(7) 0.8992(6)
H24 H -0.4218 1.0035 0.8664
H25 H -0.2723 1.0245 0.9020
H26 H -0.4071 0.8960 0.9733
C27 C -0.3717(8) 0.7545(8) 0.8179(6)
H27 H -0.4373 0.6950 0.8901
H28 H -0.3115 0.6937 0.7738
H29 H -0.4402 0.8078 0.7817
Si1A Si 1.10064(19) 0.23093(18) 0.11729(15)
C1A C 0.8415(6) 0.4788(5) 0.3519(4)
C2A C 0.9218(6) 0.5790(5) 0.3817(4)
C3A C 1.0864(6) 0.6098(6) 0.3372(4)
H1A H 1.1463 0.5641 0.2842
C4A C 1.1660(6) 0.7056(6) 0.3680(4)
C5A C 1.3336(7) 0.7362(7) 0.3247(5)
H2A H 1.3953 0.6907 0.2722
C6A C 1.4071(7) 0.8291(6) 0.3570(5)
H3A H 1.5195 0.8474 0.3274
C7A C 1.3173(7) 0.8989(6) 0.4345(5)
H4A H 1.3697 0.9658 0.4551
C8A C 1.1577(7) 0.8713(6) 0.4795(5)
H5A H 1.0995 0.9167 0.5331
C9A C 1.0758(6) 0.7750(6) 0.4474(5)
C10A C 0.9111(6) 0.7443(5) 0.4921(5)
H6A H 0.8517 0.7904 0.5450
C11A C 0.8298(6) 0.6479(5) 0.4619(4)
C12A C 0.6605(6) 0.6171(5) 0.5067(4)
C13A C 0.5841(5) 0.5168(5) 0.4769(4)
C14A C 0.6778(6) 0.4475(5) 0.3980(4)
C15A C 0.5966(6) 0.3448(6) 0.3702(5)
H7A H 0.6562 0.2969 0.3187
C16A C 0.4378(6) 0.3141(6) 0.4152(5)
H8A H 0.3890 0.2447 0.3945
C17A C 0.9318(6) 0.4064(6) 0.2738(4)
C18A C 1.0038(6) 0.3418(6) 0.2080(5)
C19A C 0.9472(7) 0.0884(6) 0.1325(5)
H9A H 1.0011 0.0254 0.0857
C20A C 0.8757(7) -0.0060(7) 0.2518(5)
H10A H 0.8040 -0.0843 0.2553
H11A H 0.9615 -0.0450 0.2766
H12A H 0.8165 0.0519 0.2990
C21A C 0.8124(7) 0.1524(8) 0.0922(6)
H13A H 0.7555 0.2127 0.1380
H14A H 0.8585 0.2099 0.0163
H15A H 0.7384 0.0750 0.0971
C22A C 1.1729(7) 0.3497(6) -0.0270(5)
H16A H 1.0817 0.4026 -0.0375
C23A C 1.2220(8) 0.2641(7) -0.1125(5)
H17A H 1.3122 0.2113 -0.1052
H18A H 1.1326 0.1969 -0.1009
H19A H 1.2525 0.3296 -0.1858
C24A C 1.3081(8) 0.4616(7) -0.0480(6)
H20A H 1.3271 0.5315 -0.1184
H21A H 1.2788 0.5102 0.0102
H22A H 1.4049 0.4147 -0.0492
C25A C 1.2576(7) 0.1418(6) 0.1696(5)
H23A H 1.1999 0.0784 0.2443
C26A C 1.3477(8) 0.0459(7) 0.1008(6)
H24A H 1.4218 -0.0035 0.1336
H25A H 1.2723 -0.0245 0.0980
H26A H 1.4071 0.1040 0.0267
C27A C 1.3717(8) 0.2455(8) 0.1821(6)
H27A H 1.4373 0.3050 0.1099
H28A H 1.3115 0.3063 0.2262
H29A H 1.4402 0.1922 0.2183
loop_
_geom_bond_atom_site_label_1
_geom_bond_atom_site_label_2
_geom_bond_site_symmetry_1
_geom_bond_site_symmetry_2
Si1 C18 1_555 1_555
C1 C2 1_555 1_555
C2 C3 1_555 1_555
C3 H1 1_555 1_555
C4 C3 1_555 1_555
C5 C4 1_555 1_555
H2 C5 1_555 1_555
C6 C5 1_555 1_555
H3 C6 1_555 1_555
C7 C6 1_555 1_555
H4 C7 1_555 1_555
C8 C7 1_555 1_555
H5 C8 1_555 1_555
C9 C4 1_555 1_555
C10 C9 1_555 1_555
H6 C10 1_555 1_555
C11 C2 1_555 1_555
C12 C11 1_555 1_555
C13 C12 1_555 1_555
C14 C1 1_555 1_555
C15 C14 1_555 1_555
H7 C15 1_555 1_555
C16 C15 1_555 1_555
H8 C16 1_555 1_555
C17 C1 1_555 1_555
C18 C17 1_555 1_555
C19 Si1 1_555 1_555
H9 C19 1_555 1_555
C20 C19 1_555 1_555
H10 C20 1_555 1_555
H11 C20 1_555 1_555
H12 C20 1_555 1_555
C21 C19 1_555 1_555
H13 C21 1_555 1_555
H14 C21 1_555 1_555
H15 C21 1_555 1_555
C22 Si1 1_555 1_555
H16 C22 1_555 1_555
C23 C22 1_555 1_555
H17 C23 1_555 1_555
H18 C23 1_555 1_555
H19 C23 1_555 1_555
C24 C22 1_555 1_555
H20 C24 1_555 1_555
H21 C24 1_555 1_555
H22 C24 1_555 1_555
C25 Si1 1_555 1_555
H23 C25 1_555 1_555
C26 C25 1_555 1_555
H24 C26 1_555 1_555
H25 C26 1_555 1_555
H26 C26 1_555 1_555
C27 C25 1_555 1_555
H27 C27 1_555 1_555
H28 C27 1_555 1_555
H29 C27 1_555 1_555
Si1A C18A 1_555 1_555
C1A C2A 1_555 1_555
C2A C3A 1_555 1_555
C3A H1A 1_555 1_555
C4A C3A 1_555 1_555
C5A C4A 1_555 1_555
H2A C5A 1_555 1_555
C6A C5A 1_555 1_555
H3A C6A 1_555 1_555
C7A C6A 1_555 1_555
H4A C7A 1_555 1_555
C8A C7A 1_555 1_555
H5A C8A 1_555 1_555
C9A C4A 1_555 1_555
C10A C9A 1_555 1_555
H6A C10A 1_555 1_555
C11A C2A 1_555 1_555
C12A C16 1_555 1_555
C13A C13 1_555 1_555
C14A C1A 1_555 1_555
C15A C14A 1_555 1_555
H7A C15A 1_555 1_555
C16A C12 1_555 1_555
H8A C16A 1_555 1_555
C17A C1A 1_555 1_555
C18A C17A 1_555 1_555
C19A Si1A 1_555 1_555
H9A C19A 1_555 1_555
C20A C19A 1_555 1_555
H10A C20A 1_555 1_555
H11A C20A 1_555 1_555
H12A C20A 1_555 1_555
C21A C19A 1_555 1_555
H13A C21A 1_555 1_555
H14A C21A 1_555 1_555
H15A C21A 1_555 1_555
C22A Si1A 1_555 1_555
H16A C22A 1_555 1_555
C23A C22A 1_555 1_555
H17A C23A 1_555 1_555
H18A C23A 1_555 1_555
H19A C23A 1_555 1_555
C24A C22A 1_555 1_555
H20A C24A 1_555 1_555
H21A C24A 1_555 1_555
H22A C24A 1_555 1_555
C25A Si1A 1_555 1_555
H23A C25A 1_555 1_555
C26A C25A 1_555 1_555
H24A C26A 1_555 1_555
H25A C26A 1_555 1_555
H26A C26A 1_555 1_555
C27A C25A 1_555 1_555
H27A C27A 1_555 1_555
H28A C27A 1_555 1_555
H29A C27A 1_555 1_555
C8 C9 1_555 1_555
C10 C11 1_555 1_555
C13 C14 1_555 1_555
C8A C9A 1_555 1_555
C10A C11A 1_555 1_555
C11A C12A 1_555 1_555
C12A C13A 1_555 1_555
C13A C14A 1_555 1_555
C15A C16A 1_555 1_555

#END
