
#######################################################################
#
#                 Cambridge Crystallographic Data Centre
#                                CCDC 
#
#######################################################################
#
# If this CIF has been generated from an entry in the Cambridge 
# Structural Database, then it will include bibliographic, chemical, 
# crystal, experimental, refinement or atomic coordinate data resulting 
# from the CCDC's data processing and validation procedures.
#
#######################################################################

data_GUTBEE
_chemical_formula_moiety         
'C30 H18 O12 S4 4-,C4 H8 O2,4(C1 H6 N3 1+),3(C7 H8)'
_chemical_name_systematic        
'tetrakis(guanidinium) 1,2,4,5-tetrakis(4-sulfonatophenyl)benzene 1,4-dioxane toluene solvate'
_symmetry_cell_setting           monoclinic
_symmetry_space_group_name_H-M   'P 21'
_symmetry_Int_Tables_number      4
_space_group_name_Hall           'P 2yb'
loop_
_symmetry_equiv_pos_site_id
_symmetry_equiv_pos_as_xyz
1 x,y,z
2 -x,1/2+y,-z
_cell_length_a                   6.1781(11)
_cell_length_b                   35.439(6)
_cell_length_c                   15.264(3)
_cell_angle_alpha                90
_cell_angle_beta                 100.518(3)
_cell_angle_gamma                90
_cell_volume                     3285.83
_exptl_crystal_colour            white
_exptl_crystal_description       block
_cell_formula_units_Z            2
loop_
_atom_site_label
_atom_site_type_symbol
_atom_site_fract_x
_atom_site_fract_y
_atom_site_fract_z
S1 S 0.5833(3) 0.20330(7) -0.32335(17)
S2 S 1.3052(3) 0.20122(7) 0.19966(17)
S3 S 0.4390(3) 0.50033(7) 0.35226(16)
S4 S -0.2778(3) 0.49874(7) -0.16446(16)
O1 O 0.805(3) 0.2041(7) -0.3389(13)
O2 O 0.424(2) 0.2110(4) -0.4008(10)
O3 O 0.5278(19) 0.1660(4) -0.2724(11)
O4 O 1.5241(10) 0.2039(2) 0.1834(5)
O5 O 1.2971(10) 0.21118(19) 0.2930(5)
O6 O 1.1985(10) 0.16592(19) 0.1770(5)
O7 O 0.2078(8) 0.50166(18) 0.3633(4)
O8 O 0.5817(10) 0.4898(2) 0.4319(5)
O9 O 0.5081(10) 0.53528(18) 0.3140(5)
O10 O -0.5010(8) 0.49568(18) -0.1509(4)
O11 O -0.2572(9) 0.49085(18) -0.2570(4)
O12 O -0.1782(9) 0.53516(18) -0.1354(4)
C1 C 0.5695(8) 0.23717(13) -0.2402(3)
C2 C 0.7447(6) 0.26136(15) -0.2105(3)
H1 H 0.8765 0.2593 -0.2338
C3 C 0.7269(7) 0.28856(14) -0.1466(4)
H2 H 0.8466 0.3051 -0.1263
C4 C 0.5339(8) 0.29157(14) -0.1124(3)
C5 C 0.3588(6) 0.26739(15) -0.1421(3)
H3 H 0.2269 0.2694 -0.1187
C6 C 0.3766(7) 0.24019(13) -0.2060(4)
H4 H 0.2569 0.2237 -0.2263
C7 C 1.1394(7) 0.23607(12) 0.1372(4)
C8 C 0.9259(8) 0.22661(11) 0.0971(4)
H5 H 0.8797 0.2010 0.0951
C9 C 0.7800(6) 0.25461(14) 0.0600(4)
H6 H 0.6341 0.2481 0.0326
C10 C 0.8476(7) 0.29207(12) 0.0629(4)
C11 C 1.0611(8) 0.30153(10) 0.1030(4)
H7 H 1.1073 0.3271 0.1050
C12 C 1.2070(6) 0.27353(13) 0.1402(4)
H8 H 1.3529 0.2800 0.1676
C13 C 0.4596(9) 0.46380(14) 0.2765(4)
C14 C 0.2826(7) 0.43969(16) 0.2494(4)
H9 H 0.1535 0.4420 0.2745
C15 C 0.2946(7) 0.41222(14) 0.1854(4)
H10 H 0.1736 0.3957 0.1669
C16 C 0.4836(8) 0.40886(14) 0.1486(3)
C17 C 0.6606(7) 0.43297(16) 0.1758(4)
H11 H 0.7897 0.4307 0.1506
C18 C 0.6486(7) 0.46044(14) 0.2397(4)
H12 H 0.7696 0.4769 0.2582
C19 C -0.1153(7) 0.46436(12) -0.0993(4)
C20 C -0.1858(6) 0.42706(13) -0.1020(4)
H13 H -0.3334 0.4210 -0.1279
C21 C -0.0405(8) 0.39868(11) -0.0667(4)
H14 H -0.0887 0.3732 -0.0685
C22 C 0.1754(7) 0.40759(12) -0.0287(4)
C23 C 0.2459(6) 0.44488(14) -0.0261(4)
H15 H 0.3935 0.4510 -0.0001
C24 C 0.1006(8) 0.47327(11) -0.0614(4)
H16 H 0.1488 0.4988 -0.0596
C25 C 0.5222(8) 0.32057(13) -0.0406(3)
C26 C 0.6754(7) 0.32278(13) 0.0382(3)
C27 C 0.6636(7) 0.35201(14) 0.0979(3)
H17 H 0.7683 0.3535 0.1517
C28 C 0.4987(8) 0.37903(13) 0.0788(3)
C29 C 0.3455(7) 0.37682(13) 0.0000(3)
C30 C 0.3572(7) 0.34759(14) -0.0597(3)
H18 H 0.2525 0.3461 -0.1135
C31 C 0.1970(17) 0.4917(4) 0.6006(7)
N1 N 0.0431(12) 0.4943(3) 0.5319(6)
H19 H 0.0753 0.4936 0.4781
H20 H -0.0946 0.4968 0.5387
N2 N 0.3991(13) 0.4880(3) 0.5910(6)
H21 H 0.4318 0.4873 0.5373
H22 H 0.5042 0.4862 0.6382
N3 N 0.1544(13) 0.4961(3) 0.6819(5)
H23 H 0.0192 0.5009 0.6894
H24 H 0.2613 0.4942 0.7285
C32 C 0.8207(18) 0.2123(4) 0.4300(7)
N4 N 0.6312(14) 0.2180(3) 0.4390(6)
H25 H 0.5264 0.2201 0.3918
H26 H 0.5994 0.2199 0.4927
N5 N 0.8757(14) 0.2091(3) 0.3469(6)
H27 H 0.7733 0.2112 0.2988
H28 H 1.0134 0.2051 0.3418
N6 N 0.9886(13) 0.2096(3) 0.5035(6)
H29 H 0.9593 0.2120 0.5575
H30 H 1.1247 0.2055 0.4961
C33 C 0.0293(13) 0.6012(4) 0.3066(8)
N7 N 0.2402(10) 0.6005(3) 0.3036(6)
H31 H 0.3113 0.6218 0.2991
H32 H 0.3106 0.5789 0.3062
N8 N -0.0714(13) 0.6330(2) 0.3028(6)
H33 H 0.0010 0.6541 0.2982
H34 H -0.2128 0.6338 0.3047
N9 N -0.0712(13) 0.5683(2) 0.3144(6)
H35 H -0.2122 0.5679 0.3171
H36 H 0.0036 0.5471 0.3168
C34 C 0.3450(13) 0.5996(3) 0.8487(7)
N10 N 0.2390(13) 0.6327(2) 0.8378(6)
H37 H 0.0951 0.6335 0.8338
H38 H 0.3132 0.6537 0.8347
N11 N 0.2456(13) 0.5678(2) 0.8538(6)
H39 H 0.3223 0.5469 0.8646
H40 H 0.1010 0.5671 0.8464
N12 N 0.5610(10) 0.6018(3) 0.8593(5)
H41 H 0.6418 0.5813 0.8702
H42 H 0.6246 0.6238 0.8555
C35 C 0.7334(14) 0.58157(17) 0.0825(6)
C36 C 0.5716(11) 0.6074(2) 0.0942(6)
H43 H 0.4377 0.5988 0.1095
C37 C 0.6058(12) 0.6457(2) 0.0834(6)
H44 H 0.4953 0.6634 0.0913
C38 C 0.8018(13) 0.65827(17) 0.0609(6)
H45 H 0.8252 0.6845 0.0535
C39 C 0.9636(11) 0.6325(2) 0.0493(6)
H46 H 1.0976 0.6410 0.0340
C40 C 0.9294(12) 0.5941(2) 0.0601(6)
H47 H 1.0400 0.5765 0.0522
C41 C 0.681(3) 0.5407(4) 0.0885(10)
H48 H 0.7474 0.5311 0.1475
H49 H 0.7389 0.5267 0.0426
H50 H 0.5205 0.5374 0.0795
C42 C 0.0596(19) 0.3330(2) 0.6398(6)
C43 C -0.0806(13) 0.3629(3) 0.6482(6)
H51 H -0.2332 0.3609 0.6242
C44 C 0.0025(17) 0.3957(3) 0.6919(7)
H52 H -0.0933 0.4161 0.6976
C45 C 0.2258(18) 0.3985(2) 0.7271(6)
H53 H 0.2826 0.4209 0.7569
C46 C 0.3660(13) 0.3686(3) 0.7187(6)
H54 H 0.5187 0.3706 0.7428
C47 C 0.2829(17) 0.3358(3) 0.6751(6)
H55 H 0.3787 0.3154 0.6693
C48 C -0.034(3) 0.2994(4) 0.5846(11)
H56 H -0.1614 0.2895 0.6072
H57 H 0.0787 0.2797 0.5885
H58 H -0.0796 0.3071 0.5223
C49 C 0.146(2) 0.3678(4) 0.4217(7)
C50 C -0.076(3) 0.3764(3) 0.3939(8)
H59 H -0.1311 0.4002 0.4080
C51 C -0.2161(17) 0.3501(4) 0.3456(8)
H60 H -0.3675 0.3559 0.3266
C52 C -0.135(2) 0.3152(4) 0.3250(7)
H61 H -0.2310 0.2972 0.2920
C53 C 0.086(2) 0.3067(3) 0.3528(8)
H62 H 0.1419 0.2829 0.3387
C54 C 0.2269(17) 0.3330(4) 0.4011(8)
H63 H 0.3783 0.3271 0.4201
C55 C 0.309(3) 0.3963(5) 0.4675(12)
H64 H 0.4441 0.3833 0.4959
H65 H 0.2459 0.4098 0.5129
H66 H 0.3446 0.4144 0.4236
O16 O 0.734(4) 0.6369(6) 0.5477(17)
O17 O 0.724(4) 0.5646(6) 0.5915(18)
C56 C 0.583(4) 0.6096(8) 0.504(2)
H67 H 0.6549 0.5954 0.4617
H68 H 0.4550 0.6230 0.4695
C57 C 0.500(4) 0.5816(8) 0.566(2)
H69 H 0.4459 0.5937 0.6162
H70 H 0.3888 0.5638 0.5342
C58 C 0.851(4) 0.5908(8) 0.6518(18)
H71 H 0.9751 0.5779 0.6907
H72 H 0.7589 0.6035 0.6896
C59 C 0.935(4) 0.6190(8) 0.590(2)
H73 H 1.0383 0.6374 0.6243
H74 H 1.0090 0.6060 0.5463
O13? O 0.830(4) 0.1998(10) -0.3237(17)
O14? O 0.449(3) 0.2248(6) -0.4113(13)
O15? O 0.494(3) 0.1711(5) -0.3113(15)
O18? O 0.713(4) 0.6110(8) 0.4922(16)
O19? O 0.789(4) 0.5877(8) 0.6647(16)
C60? C 0.610(5) 0.6272(10) 0.561(2)
H75? H 0.4728 0.6400 0.5327
H76? H 0.7097 0.6465 0.5934
C61? C 0.557(4) 0.5982(12) 0.627(2)
H77? H 0.4796 0.6095 0.6721
H78? H 0.4706 0.5767 0.5974
C62? C 0.871(5) 0.5677(9) 0.597(2)
H79? H 0.7580 0.5499 0.5662
H80? H 1.0035 0.5531 0.6227
C63? C 0.927(4) 0.5968(11) 0.531(2)
H81? H 1.0229 0.6170 0.5613
H82? H 1.0000 0.5849 0.4850
loop_
_geom_bond_atom_site_label_1
_geom_bond_atom_site_label_2
_geom_bond_site_symmetry_1
_geom_bond_site_symmetry_2
S1 O1 1_555 1_555
S2 O4 1_555 1_555
S3 O7 1_555 1_555
S4 O10 1_555 1_555
O2 S1 1_555 1_555
O3 S1 1_555 1_555
O5 S2 1_555 1_555
O6 S2 1_555 1_555
O8 S3 1_555 1_555
O9 S3 1_555 1_555
O11 S4 1_555 1_555
O12 S4 1_555 1_555
C1 S1 1_555 1_555
C2 C1 1_555 1_555
H1 C2 1_555 1_555
C3 C2 1_555 1_555
H2 C3 1_555 1_555
C4 C3 1_555 1_555
C5 C4 1_555 1_555
H3 C5 1_555 1_555
C6 C1 1_555 1_555
H4 C6 1_555 1_555
C7 S2 1_555 1_555
C8 C7 1_555 1_555
H5 C8 1_555 1_555
C9 C8 1_555 1_555
H6 C9 1_555 1_555
C10 C9 1_555 1_555
C11 C10 1_555 1_555
H7 C11 1_555 1_555
C12 C7 1_555 1_555
H8 C12 1_555 1_555
C13 S3 1_555 1_555
C14 C13 1_555 1_555
H9 C14 1_555 1_555
C15 C14 1_555 1_555
H10 C15 1_555 1_555
C16 C15 1_555 1_555
C17 C16 1_555 1_555
H11 C17 1_555 1_555
C18 C13 1_555 1_555
H12 C18 1_555 1_555
C19 S4 1_555 1_555
C20 C19 1_555 1_555
H13 C20 1_555 1_555
C21 C20 1_555 1_555
H14 C21 1_555 1_555
C22 C21 1_555 1_555
C23 C22 1_555 1_555
H15 C23 1_555 1_555
C24 C19 1_555 1_555
H16 C24 1_555 1_555
C25 C4 1_555 1_555
C26 C10 1_555 1_555
C27 C26 1_555 1_555
H17 C27 1_555 1_555
C28 C16 1_555 1_555
C29 C22 1_555 1_555
C30 C25 1_555 1_555
H18 C30 1_555 1_555
C31 N1 1_555 1_555
N1 H19 1_555 1_555
H20 N1 1_555 1_555
N2 C31 1_555 1_555
H21 N2 1_555 1_555
H22 N2 1_555 1_555
N3 C31 1_555 1_555
H23 N3 1_555 1_555
H24 N3 1_555 1_555
C32 N4 1_555 1_555
N4 H25 1_555 1_555
H26 N4 1_555 1_555
N5 C32 1_555 1_555
H27 N5 1_555 1_555
H28 N5 1_555 1_555
N6 C32 1_555 1_555
H29 N6 1_555 1_555
H30 N6 1_555 1_555
C33 N7 1_555 1_555
N7 H31 1_555 1_555
H32 N7 1_555 1_555
N8 C33 1_555 1_555
H33 N8 1_555 1_555
H34 N8 1_555 1_555
N9 C33 1_555 1_555
H35 N9 1_555 1_555
H36 N9 1_555 1_555
C34 N10 1_555 1_555
N10 H37 1_555 1_555
H38 N10 1_555 1_555
N11 C34 1_555 1_555
H39 N11 1_555 1_555
H40 N11 1_555 1_555
N12 C34 1_555 1_555
H41 N12 1_555 1_555
H42 N12 1_555 1_555
C35 C36 1_555 1_555
C36 H43 1_555 1_555
C37 C36 1_555 1_555
H44 C37 1_555 1_555
C38 C37 1_555 1_555
H45 C38 1_555 1_555
C39 C38 1_555 1_555
H46 C39 1_555 1_555
C40 C35 1_555 1_555
H47 C40 1_555 1_555
C41 C35 1_555 1_555
H48 C41 1_555 1_555
H49 C41 1_555 1_555
H50 C41 1_555 1_555
C42 C43 1_555 1_555
C43 H51 1_555 1_555
C44 C43 1_555 1_555
H52 C44 1_555 1_555
C45 C44 1_555 1_555
H53 C45 1_555 1_555
C46 C45 1_555 1_555
H54 C46 1_555 1_555
C47 C42 1_555 1_555
H55 C47 1_555 1_555
C48 C42 1_555 1_555
H56 C48 1_555 1_555
H57 C48 1_555 1_555
H58 C48 1_555 1_555
C49 C50 1_555 1_555
C50 H59 1_555 1_555
C51 C50 1_555 1_555
H60 C51 1_555 1_555
C52 C51 1_555 1_555
H61 C52 1_555 1_555
C53 C52 1_555 1_555
H62 C53 1_555 1_555
C54 C49 1_555 1_555
H63 C54 1_555 1_555
C55 C49 1_555 1_555
H64 C55 1_555 1_555
H65 C55 1_555 1_555
H66 C55 1_555 1_555
O16 C56 1_555 1_555
O17 C57 1_555 1_555
C56 H67 1_555 1_555
H68 C56 1_555 1_555
C57 C56 1_555 1_555
H69 C57 1_555 1_555
H70 C57 1_555 1_555
C58 O17 1_555 1_555
H71 C58 1_555 1_555
H72 C58 1_555 1_555
C59 O16 1_555 1_555
H73 C59 1_555 1_555
H74 C59 1_555 1_555
C5 C6 1_555 1_555
C11 C12 1_555 1_555
C17 C18 1_555 1_555
C23 C24 1_555 1_555
C25 C26 1_555 1_555
C27 C28 1_555 1_555
C28 C29 1_555 1_555
C29 C30 1_555 1_555
C39 C40 1_555 1_555
C46 C47 1_555 1_555
C53 C54 1_555 1_555
C58 C59 1_555 1_555

#END
