
#######################################################################
#
#                 Cambridge Crystallographic Data Centre
#                                CCDC 
#
#######################################################################
#
# If this CIF has been generated from an entry in the Cambridge 
# Structural Database, then it will include bibliographic, chemical, 
# crystal, experimental, refinement or atomic coordinate data resulting 
# from the CCDC's data processing and validation procedures.
#
#######################################################################

data_GUTVIB
_chemical_formula_moiety         'C3 H11 N2 1+,C2 N3 1-'
_chemical_name_systematic        '1,1,1-Trimethylhydrazinium dicyanamide'
_symmetry_cell_setting           orthorhombic
_symmetry_space_group_name_H-M   'P b c a'
_symmetry_Int_Tables_number      61
_space_group_name_Hall           '-P 2ac 2ab'
loop_
_symmetry_equiv_pos_site_id
_symmetry_equiv_pos_as_xyz
1 x,y,z
2 1/2+x,1/2-y,-z
3 -x,1/2+y,1/2-z
4 1/2-x,-y,1/2+z
5 -x,-y,-z
6 1/2-x,1/2+y,z
7 x,1/2-y,1/2+z
8 1/2+x,y,1/2-z
_cell_length_a                   8.4205(19)
_cell_length_b                   12.085(3)
_cell_length_c                   15.666(4)
_cell_angle_alpha                90
_cell_angle_beta                 90
_cell_angle_gamma                90
_cell_volume                     1594.2
_exptl_crystal_colour            colorless
_exptl_crystal_description       prism
_cell_formula_units_Z            8
loop_
_atom_site_label
_atom_site_type_symbol
_atom_site_fract_x
_atom_site_fract_y
_atom_site_fract_z
N1 N 0.15075(11) 0.24677(8) 0.37264(6)
C1 C 0.27589(16) 0.33263(11) 0.38723(8)
H1 H 0.2747 0.3859 0.3401
H2 H 0.3802 0.2969 0.3902
H3 H 0.2546 0.3713 0.4410
N2 N -0.00782(14) 0.29514(11) 0.36829(9)
H4 H -0.029(2) 0.3295(16) 0.4217(10)
H5 H -0.004(2) 0.3502(13) 0.3251(10)
C2 C 0.15015(15) 0.16505(11) 0.44364(8)
H6 H 0.0669 0.1099 0.4336
H7 H 0.1295 0.2033 0.4977
H8 H 0.2536 0.1281 0.4465
C3 C 0.18210(18) 0.18873(12) 0.29056(9)
H9 H 0.1010 0.1318 0.2814
H10 H 0.2872 0.1540 0.2926
H11 H 0.1788 0.2422 0.2436
N3 N 0.24805(19) 0.48907(12) 0.09498(8)
C4 C 0.35920(17) 0.56253(12) 0.09039(8)
N4 N 0.46087(17) 0.62334(13) 0.07680(9)
C5 C 0.16058(15) 0.47539(10) 0.16235(9)
N5 N 0.07493(14) 0.45633(10) 0.21823(8)
loop_
_geom_bond_atom_site_label_1
_geom_bond_atom_site_label_2
_geom_bond_site_symmetry_1
_geom_bond_site_symmetry_2
N1 C1 1_555 1_555
C1 H1 1_555 1_555
H2 C1 1_555 1_555
H3 C1 1_555 1_555
N2 N1 1_555 1_555
H4 N2 1_555 1_555
H5 N2 1_555 1_555
C2 N1 1_555 1_555
H6 C2 1_555 1_555
H7 C2 1_555 1_555
H8 C2 1_555 1_555
C3 N1 1_555 1_555
H9 C3 1_555 1_555
H10 C3 1_555 1_555
H11 C3 1_555 1_555
N3 C4 1_555 1_555
C4 N4 1_555 1_555
C5 N3 1_555 1_555
N5 C5 1_555 1_555

#END
