
#######################################################################
#
#                 Cambridge Crystallographic Data Centre
#                                CCDC 
#
#######################################################################
#
# If this CIF has been generated from an entry in the Cambridge 
# Structural Database, then it will include bibliographic, chemical, 
# crystal, experimental, refinement or atomic coordinate data resulting 
# from the CCDC's data processing and validation procedures.
#
#######################################################################

data_GUVPAQ
_chemical_formula_moiety         'C22 H16 Cl2 N4'
_chemical_name_systematic        
1,1',1'',1'''-(4,6-dichlorobenzene-1,2,3,5-tetrayl)tetrakis(1H-pyrrole)
_symmetry_cell_setting           monoclinic
_symmetry_space_group_name_H-M   'C 2/c'
_symmetry_Int_Tables_number      15
_space_group_name_Hall           '-C 2yn'
loop_
_symmetry_equiv_pos_site_id
_symmetry_equiv_pos_as_xyz
1 x,y,z
2 -x,y,1/2-z
3 1/2+x,1/2+y,z
4 1/2-x,1/2+y,1/2-z
5 -x,-y,-z
6 x,-y,1/2+z
7 1/2-x,1/2-y,-z
8 1/2+x,1/2-y,1/2+z
_cell_length_a                   11.6621(9)
_cell_length_b                   17.9887(15)
_cell_length_c                   10.3344(10)
_cell_angle_alpha                90
_cell_angle_beta                 112.526(7)
_cell_angle_gamma                90
_cell_volume                     2002.61
_exptl_crystal_colour            colorless
_exptl_crystal_description       prism
_cell_formula_units_Z            4
_exptl_crystal_recrystallization_method 
'Re-crystallisation from solvent: hexane'
loop_
_atom_site_label
_atom_site_type_symbol
_atom_site_fract_x
_atom_site_fract_y
_atom_site_fract_z
Cl1 Cl 0.72268(4) 0.34960(3) 0.46254(5)
N1 N 0.5000 0.28037(12) 0.2500
N2 N 0.69654(13) 0.51512(8) 0.45060(14)
N3 N 0.5000 0.59207(11) 0.2500
C1 C 0.5000 0.35877(13) 0.2500
C2 C 0.59944(14) 0.39803(10) 0.34490(17)
C3 C 0.59961(13) 0.47532(9) 0.34768(15)
C4 C 0.5000 0.51400(12) 0.2500
C5 C 0.5459(2) 0.23587(12) 0.1734(3)
H1 H 0.5822 0.2517 0.1123
C6 C 0.5284(2) 0.16448(12) 0.2035(3)
H2 H 0.5515 0.1225 0.1667
C7 C 0.81784(18) 0.51870(15) 0.4654(2)
H3 H 0.8533 0.4934 0.4115
C8 C 0.8774(2) 0.56559(17) 0.5724(3)
H4 H 0.9611 0.5782 0.6049
C9 C 0.7925(2) 0.59166(14) 0.6252(2)
H5 H 0.8089 0.6245 0.6997
C10 C 0.68102(19) 0.56080(11) 0.5486(2)
H6 H 0.6070 0.5692 0.5606
C11 C 0.4108(3) 0.63585(13) 0.2674(3)
H7 H 0.3404 0.6198 0.2809
C12 C 0.4452(4) 0.70677(15) 0.2611(5)
H8 H 0.4024 0.7488 0.2702
Cl1A Cl 0.27732(4) 0.34960(3) 0.03746(5)
N2A N 0.30346(13) 0.51512(8) 0.04940(14)
C2A C 0.40056(14) 0.39803(10) 0.15510(17)
C3A C 0.40039(13) 0.47532(9) 0.15232(15)
C5A C 0.4541(2) 0.23587(12) 0.3266(3)
H1A H 0.4178 0.2517 0.3877
C6A C 0.4716(2) 0.16448(12) 0.2965(3)
H2A H 0.4485 0.1225 0.3333
C7A C 0.18216(18) 0.51870(15) 0.0346(2)
H3A H 0.1467 0.4934 0.0885
C8A C 0.1226(2) 0.56559(17) -0.0724(3)
H4A H 0.0389 0.5782 -0.1049
C9A C 0.2075(2) 0.59166(14) -0.1252(2)
H5A H 0.1911 0.6245 -0.1997
C10A C 0.31898(19) 0.56080(11) -0.0486(2)
H6A H 0.3930 0.5692 -0.0606
C11A C 0.5892(3) 0.63585(13) 0.2326(3)
H7A H 0.6596 0.6198 0.2191
C12A C 0.5548(4) 0.70677(15) 0.2389(5)
H8A H 0.5976 0.7488 0.2298
loop_
_geom_bond_atom_site_label_1
_geom_bond_atom_site_label_2
_geom_bond_site_symmetry_1
_geom_bond_site_symmetry_2
Cl1 C2 1_555 1_555
N1 C1 1_555 1_555
N2 C3 1_555 1_555
N3 C4 1_555 1_555
C1 C2 1_555 1_555
C2 C3 1_555 1_555
C3 C4 1_555 1_555
C4 C3A 1_555 1_555
C5 N1 1_555 1_555
H1 C5 1_555 1_555
C6 C5 1_555 1_555
H2 C6 1_555 1_555
C7 N2 1_555 1_555
H3 C7 1_555 1_555
C8 C7 1_555 1_555
H4 C8 1_555 1_555
C9 C8 1_555 1_555
H5 C9 1_555 1_555
C10 N2 1_555 1_555
H6 C10 1_555 1_555
C11 N3 1_555 1_555
H7 C11 1_555 1_555
C12 C11 1_555 1_555
H8 C12 1_555 1_555
Cl1A C2A 1_555 1_555
N2A C3A 1_555 1_555
C2A C1 1_555 1_555
C3A C2A 1_555 1_555
C5A N1 1_555 1_555
H1A C5A 1_555 1_555
C6A C6 1_555 1_555
H2A C6A 1_555 1_555
C7A N2A 1_555 1_555
H3A C7A 1_555 1_555
C8A C7A 1_555 1_555
H4A C8A 1_555 1_555
C9A C8A 1_555 1_555
H5A C9A 1_555 1_555
C10A N2A 1_555 1_555
H6A C10A 1_555 1_555
C11A N3 1_555 1_555
H7A C11A 1_555 1_555
C12A C12 1_555 1_555
H8A C12A 1_555 1_555
C9 C10 1_555 1_555
C5A C6A 1_555 1_555
C9A C10A 1_555 1_555
C11A C12A 1_555 1_555

#END
