
#######################################################################
#
#                 Cambridge Crystallographic Data Centre
#                                CCDC 
#
#######################################################################
#
# If this CIF has been generated from an entry in the Cambridge 
# Structural Database, then it will include bibliographic, chemical, 
# crystal, experimental, refinement or atomic coordinate data resulting 
# from the CCDC's data processing and validation procedures.
#
#######################################################################

data_GUVTEW
_chemical_compound_source        'roots of Euphorbia fischeriana'
_chemical_formula_moiety         'C40 H50 O10,2(C2 H6 O1)'
_chemical_name_systematic        'Langduin C ethanol solvate'
_symmetry_cell_setting           triclinic
_symmetry_space_group_name_H-M   'P 1'
_symmetry_Int_Tables_number      1
_space_group_name_Hall           'P 1'
loop_
_symmetry_equiv_pos_site_id
_symmetry_equiv_pos_as_xyz
1 x,y,z
_cell_length_a                   6.492(1)
_cell_length_b                   9.536(1)
_cell_length_c                   18.380(2)
_cell_angle_alpha                77.603(4)
_cell_angle_beta                 90.000(5)
_cell_angle_gamma                70.096(5)
_cell_volume                     1041.63
_exptl_crystal_colour            colorless
_exptl_crystal_description       block
_chemical_melting_point          195-196deg.C
_cell_formula_units_Z            1
loop_
_atom_site_label
_atom_site_type_symbol
_atom_site_fract_x
_atom_site_fract_y
_atom_site_fract_z
O1 O 0.4089 0.9802 0.0283
O2 O 0.2373(13) 1.1963(8) -0.0567(4)
O3 O 0.1477(11) 0.8131(7) 0.0491(3)
O4 O -0.0437(11) 0.8341(8) -0.0581(4)
O5 O 0.3713(11) 0.6149(7) -0.0958(3)
C1 C 0.6300(18) 0.3140(10) 0.0460(6)
C2 C 0.8089(20) 0.1632(12) 0.0866(6)
C3 C 0.7787(24) 0.1334(13) 0.1716(6)
C4 C 0.7946(20) 0.2622(12) 0.2073(5)
C5 C 0.6260(17) 0.4166(11) 0.1616(5)
C6 C 0.6189(20) 0.5602(11) 0.1918(5)
C7 C 0.4025(20) 0.6943(12) 0.1623(5)
C8 C 0.3757(15) 0.7279(10) 0.0786(4)
C9 C 0.4214(14) 0.5845(9) 0.0463(4)
C10 C 0.6436(15) 0.4452(10) 0.0760(5)
C11 C 0.3557(14) 0.6871(9) -0.0371(4)
C12 C 0.4936(14) 0.7944(10) -0.0468(4)
C13 C 0.5092(16) 0.8197(10) 0.0327(5)
C14 C 0.3312(18) 1.0606(11) -0.0432(5)
C15 C 0.3900(14) 0.9500(9) -0.0937(4)
C16 C 0.3473(15) 1.0015(10) -0.1691(5)
C17 C 0.1322(15) 0.7801(10) -0.0198(5)
C18 C 0.7240(30) 0.2383(18) 0.2877(7)
C19 C 1.0200(30) 0.2614(17) 0.2171(8)
C20 C 0.8487(17) 0.4838(12) 0.0493(5)
O6 O 0.4380(12) 0.9256(8) -0.4170(3)
O7 O 0.4770(14) 0.7113(8) -0.3309(4)
O8 O 0.0093(12) 1.0902(8) -0.4371(3)
O9 O -0.1669(11) 1.0770(7) -0.3318(4)
O10 O 0.0267(11) 1.2909(7) -0.2939(3)
C21 C -0.0089(20) 1.5928(11) -0.4350(5)
C22 C 0.0200(23) 1.7441(13) -0.4760(6)
C23 C -0.0350(30) 1.7691(14) -0.5601(7)
C24 C 0.1040(23) 1.6418(13) -0.5956(6)
C25 C 0.0943(18) 1.4854(12) -0.5511(4)
C26 C 0.2189(21) 1.3498(15) -0.5811(6)
C27 C 0.1454(20) 1.2136(13) -0.5506(5)
C28 C 0.1507(16) 1.1791(10) -0.4670(4)
C29 C 0.0608(14) 1.3178(9) -0.4347(4)
C30 C 0.1434(16) 1.4539(9) -0.4638(4)
C31 C 0.0878(14) 1.2226(8) -0.3523(4)
C32 C 0.3332(14) 1.1140(9) -0.3421(4)
C33 C 0.3806(16) 1.0874(11) -0.4221(4)
C34 C 0.4366(16) 0.8479(11) -0.3457(5)
C35 C 0.3827(14) 0.9597(10) -0.2961(4)
C36 C 0.3919(15) 0.9078(11) -0.2205(4)
C37 C -0.0437(15) 1.1232(9) -0.3674(5)
C38 C 0.351(3) 1.6405(20) -0.6037(8)
C39 C -0.022(3) 1.6798(15) -0.6763(6)
C40 C 0.3815(8) 1.4254(12) -0.4395(5)
H1 H 0.221 0.623 -0.102
H2 H 0.478 0.269 0.053
H3 H 0.669 0.347 -0.009
H4 H 0.968 0.204 0.075
H5 H 0.784 0.063 0.069
H6 H 0.633 0.079 0.182
H7 H 0.900 0.051 0.194
H8 H 0.468 0.370 0.172
H9 H 0.612 0.525 0.249
H10 H 0.761 0.623 0.179
H11 H 0.424 0.801 0.179
H12 H 0.257 0.644 0.187
H13 H 0.292 0.510 0.062
H14 H 0.644 0.770 -0.068
H15 H 0.670 0.816 0.051
H16 H 0.274 1.114 -0.187
H17 H 0.728 0.121 0.309
H18 H 0.557 0.275 0.283
H19 H 0.817 0.313 0.312
H20 H 1.110 0.313 0.172
H21 H 1.089 0.151 0.241
H22 H 1.042 0.333 0.256
H23 H 0.940 0.379 0.055
H24 H 0.923 0.560 0.076
H25 H 0.829 0.535 -0.006
H26 H 0.063 1.230 -0.256
H27 H 0.016 1.594 -0.380
H28 H -0.178 1.568 -0.440
H29 H -0.077 1.823 -0.452
H30 H 0.177 1.773 -0.469
H31 H -0.203 1.751 -0.568
H32 H -0.004 1.887 -0.588
H33 H -0.071 1.450 -0.553
H34 H 0.386 1.353 -0.567
H35 H 0.212 1.368 -0.637
H36 H -0.016 1.213 -0.567
H37 H 0.226 1.125 -0.568
H38 H -0.104 1.321 -0.445
H39 H 0.281 1.215 -0.326
H40 H 0.374 1.177 -0.470
H41 H 0.444 0.786 -0.201
H42 H 0.402 1.595 -0.553
H43 H 0.388 1.760 -0.621
H44 H 0.380 1.573 -0.643
H45 H -0.165 1.614 -0.672
H46 H 0.072 1.650 -0.717
H47 H -0.055 1.801 -0.686
H48 H 0.466 1.529 -0.458
H49 H 0.444 1.335 -0.462
H50 H 0.376 1.393 -0.382
O11 O 0.6112(12) 0.3930(8) 0.7311(4)
C41 C 0.7329(25) 0.1980(16) 0.8455(6)
C42 C 0.5491(20) 0.3390(13) 0.8037(6)
H51 H 0.763 0.136 0.806
H52 H 0.652 0.129 0.890
H53 H 0.859 0.254 0.861
H54 H 0.549 0.431 0.829
H55 H 0.400 0.287 0.804
O12 O 0.0493(14) 0.5113(8) -0.1194(4)
C43 C -0.0144(23) 0.6998(15) -0.2306(7)
C44 C -0.0662(19) 0.5676(12) -0.1942(6)
H56 H 0.099 0.757 -0.206
H57 H -0.147 0.775 -0.246
H58 H 0.048 0.663 -0.277
H59 H -0.232 0.566 -0.186
H60 H -0.032 0.485 -0.227
loop_
_geom_bond_atom_site_label_1
_geom_bond_atom_site_label_2
_geom_bond_site_symmetry_1
_geom_bond_site_symmetry_2
O1 C13 1_555 1_555
O2 C14 1_555 1_555
O3 C8 1_555 1_555
O4 C17 1_555 1_555
O5 C11 1_555 1_555
C1 C2 1_555 1_555
C2 C3 1_555 1_555
C3 C4 1_555 1_555
C4 C5 1_555 1_555
C5 C6 1_555 1_555
C6 C7 1_555 1_555
C7 C8 1_555 1_555
C8 C9 1_555 1_555
C9 C10 1_555 1_555
C10 C1 1_555 1_555
C11 C9 1_555 1_555
C12 C11 1_555 1_555
C13 C8 1_555 1_555
C14 O1 1_555 1_555
C15 C12 1_555 1_555
C16 C15 1_555 1_555
C17 O3 1_555 1_555
C18 C4 1_555 1_555
C19 C4 1_555 1_555
C20 C10 1_555 1_555
O6 C33 1_555 1_555
O7 C34 1_555 1_555
O8 C28 1_555 1_555
O9 C37 1_555 1_555
O10 C31 1_555 1_555
C21 C22 1_555 1_555
C22 C23 1_555 1_555
C23 C24 1_555 1_555
C24 C25 1_555 1_555
C25 C26 1_555 1_555
C26 C27 1_555 1_555
C27 C28 1_555 1_555
C28 C29 1_555 1_555
C29 C30 1_555 1_555
C30 C21 1_555 1_555
C31 C29 1_555 1_555
C32 C31 1_555 1_555
C33 C28 1_555 1_555
C34 O6 1_555 1_555
C35 C32 1_555 1_555
C36 C16 1_555 1_555
C37 O8 1_555 1_555
C38 C24 1_555 1_555
C39 C24 1_555 1_555
C40 C30 1_555 1_555
O11 C42 1_555 1_555
C41 C42 1_555 1_555
C42 H54 1_555 1_555
O12 C44 1_555 1_555
C43 C44 1_555 1_555
C44 H59 1_555 1_555
H1 O5 1_555 1_555
H2 C1 1_555 1_555
H3 C1 1_555 1_555
H4 C2 1_555 1_555
H5 C2 1_555 1_555
H6 C3 1_555 1_555
H7 C3 1_555 1_555
H8 C5 1_555 1_555
H9 C6 1_555 1_555
H10 C6 1_555 1_555
H11 C7 1_555 1_555
H12 C7 1_555 1_555
H13 C9 1_555 1_555
H14 C12 1_555 1_555
H15 C13 1_555 1_555
H16 C16 1_555 1_555
H17 C18 1_555 1_555
H18 C18 1_555 1_555
H19 C18 1_555 1_555
H20 C19 1_555 1_555
H21 C19 1_555 1_555
H22 C19 1_555 1_555
H23 C20 1_555 1_555
H24 C20 1_555 1_555
H25 C20 1_555 1_555
H26 O10 1_555 1_555
H27 C21 1_555 1_555
H28 C21 1_555 1_555
H29 C22 1_555 1_555
H30 C22 1_555 1_555
H31 C23 1_555 1_555
H32 C23 1_555 1_555
H33 C25 1_555 1_555
H34 C26 1_555 1_555
H35 C26 1_555 1_555
H36 C27 1_555 1_555
H37 C27 1_555 1_555
H38 C29 1_555 1_555
H39 C32 1_555 1_555
H40 C33 1_555 1_555
H41 C36 1_555 1_555
H42 C38 1_555 1_555
H43 C38 1_555 1_555
H44 C38 1_555 1_555
H45 C39 1_555 1_555
H46 C39 1_555 1_555
H47 C39 1_555 1_555
H48 C40 1_555 1_555
H49 C40 1_555 1_555
H50 C40 1_555 1_555
H51 C41 1_555 1_555
H52 C41 1_555 1_555
H53 C41 1_555 1_555
H55 C42 1_555 1_555
H56 C43 1_555 1_555
H57 C43 1_555 1_555
H58 C43 1_555 1_555
H60 C44 1_555 1_555
C5 C10 1_555 1_555
C11 C17 1_555 1_555
C12 C13 1_555 1_555
C14 C15 1_555 1_555
C25 C30 1_555 1_555
C31 C37 1_555 1_555
C32 C33 1_555 1_555
C34 C35 1_555 1_555
C35 C36 1_555 1_555

#END
