
#######################################################################
#
#                 Cambridge Crystallographic Data Centre
#                                CCDC 
#
#######################################################################
#
# If this CIF has been generated from an entry in the Cambridge 
# Structural Database, then it will include bibliographic, chemical, 
# crystal, experimental, refinement or atomic coordinate data resulting 
# from the CCDC's data processing and validation procedures.
#
#######################################################################

data_GUWPOD01
_chemical_formula_moiety         'C38 H28 O2 P2'
_chemical_name_systematic        
'Anthracene-9,10-diylbis(diphenylphosphine) dioxide'
_symmetry_cell_setting           monoclinic
_symmetry_space_group_name_H-M   'P 21/n'
_symmetry_Int_Tables_number      14
_space_group_name_Hall           '-P 2yn'
loop_
_symmetry_equiv_pos_site_id
_symmetry_equiv_pos_as_xyz
1 x,y,z
2 1/2-x,1/2+y,1/2-z
3 -x,-y,-z
4 1/2+x,1/2-y,1/2+z
_cell_length_a                   7.874
_cell_length_b                   12.000
_cell_length_c                   14.805
_cell_angle_alpha                90
_cell_angle_beta                 94.70
_cell_angle_gamma                90
_cell_volume                     1394.19
_exptl_crystal_colour            yellow
_exptl_crystal_description       block
_cell_formula_units_Z            2
loop_
_atom_site_label
_atom_site_type_symbol
_atom_site_fract_x
_atom_site_fract_y
_atom_site_fract_z
P1 P 0.03165(5) 0.79956(3) 0.85323(3)
O1 O 0.12123(16) 0.83711(10) 0.77425(8)
C1 C 0.1295(2) 0.67996(14) 0.90983(11)
C2 C 0.0192(2) 0.90729(13) 0.94119(11)
C3 C 0.1853(2) 0.59283(15) 0.85691(12)
H1 H 0.1676 0.5969 0.7927
C4 C 0.4068(2) 1.07503(16) 0.90275(12)
H2 H 0.5096 1.0680 0.8738
C5 C -0.1843(2) 0.76376(14) 0.81244(11)
C6 C 0.2325(2) 1.18168(14) 0.99588(11)
H3 H 0.2107 1.2493 1.0263
C7 C 0.1592(2) 0.67387(15) 1.00378(12)
H4 H 0.1232 0.7328 1.0406
C8 C 0.1173(2) 1.08989(13) 1.00236(11)
C9 C -0.5097(2) 0.71783(17) 0.73293(12)
H5 H -0.6205 0.7023 0.7055
C10 C 0.2947(2) 0.98873(15) 0.90055(11)
H6 H 0.3185 0.9233 0.8678
C11 C 0.1414(2) 0.99399(13) 0.94641(11)
C12 C 0.3715(2) 1.17500(15) 0.94773(12)
H7 H 0.4448 1.2375 0.9443
C13 C -0.2378(2) 0.65407(15) 0.79874(12)
H8 H -0.1627 0.5945 0.8161
C14 C -0.4570(2) 0.82694(17) 0.74611(12)
H9 H -0.5319 0.8863 0.7279
C15 C 0.2929(2) 0.49529(15) 0.99065(13)
H10 H 0.3470 0.4318 1.0185
C16 C -0.4011(2) 0.63142(17) 0.75963(13)
H11 H -0.4378 0.5564 0.7513
C17 C 0.2659(2) 0.50080(15) 0.89702(13)
H12 H 0.3025 0.4417 0.8606
C18 C -0.2959(2) 0.84993(15) 0.78571(12)
H13 H -0.2608 0.9251 0.7948
C19 C 0.2413(3) 0.58181(16) 1.04360(12)
H14 H 0.2622 0.5782 1.1076
P1B P -0.03165(5) 1.20044(3) 1.14677(3)
O1B O -0.12123(16) 1.16289(10) 1.22575(8)
C1B C -0.1295(2) 1.32004(14) 1.09017(11)
C2B C -0.0192(2) 1.09271(13) 1.05881(11)
C3B C -0.1853(2) 1.40717(15) 1.14309(12)
H1B H -0.1676 1.4031 1.2073
C4B C -0.4068(2) 0.92497(16) 1.09725(12)
H2B H -0.5096 0.9320 1.1262
C5B C 0.1843(2) 1.23624(14) 1.18756(11)
C6B C -0.2325(2) 0.81832(14) 1.00412(11)
H3B H -0.2107 0.7507 0.9737
C7B C -0.1592(2) 1.32613(15) 0.99622(12)
H4B H -0.1232 1.2672 0.9594
C8B C -0.1173(2) 0.91011(13) 0.99764(11)
C9B C 0.5097(2) 1.28217(17) 1.26707(12)
H5B H 0.6205 1.2977 1.2945
C10B C -0.2947(2) 1.01127(15) 1.09945(11)
H6B H -0.3185 1.0767 1.1322
C11B C -0.1414(2) 1.00601(13) 1.05359(11)
C12B C -0.3715(2) 0.82500(15) 1.05227(12)
H7B H -0.4448 0.7625 1.0557
C13B C 0.2378(2) 1.34593(15) 1.20126(12)
H8B H 0.1627 1.4055 1.1839
C14B C 0.4570(2) 1.17306(17) 1.25389(12)
H9B H 0.5319 1.1137 1.2721
C15B C -0.2929(2) 1.50471(15) 1.00935(13)
H10B H -0.3470 1.5682 0.9815
C16B C 0.4011(2) 1.36858(17) 1.24037(13)
H11B H 0.4378 1.4436 1.2487
C17B C -0.2659(2) 1.49920(15) 1.10298(13)
H12B H -0.3025 1.5583 1.1394
C18B C 0.2959(2) 1.15007(15) 1.21429(12)
H13B H 0.2608 1.0749 1.2052
C19B C -0.2413(3) 1.41819(16) 0.95640(12)
H14B H -0.2622 1.4218 0.8924
loop_
_geom_bond_atom_site_label_1
_geom_bond_atom_site_label_2
_geom_bond_site_symmetry_1
_geom_bond_site_symmetry_2
P1 O1 1_555 1_555
C1 P1 1_555 1_555
C2 P1 1_555 1_555
C3 C1 1_555 1_555
H1 C3 1_555 1_555
C4 H2 1_555 1_555
C5 P1 1_555 1_555
C6 H3 1_555 1_555
C7 C1 1_555 1_555
H4 C7 1_555 1_555
C8 C6 1_555 1_555
C9 H5 1_555 1_555
C10 C4 1_555 1_555
H6 C10 1_555 1_555
C11 C2 1_555 1_555
C12 C4 1_555 1_555
H7 C12 1_555 1_555
C13 C5 1_555 1_555
H8 C13 1_555 1_555
C14 C9 1_555 1_555
H9 C14 1_555 1_555
C15 H10 1_555 1_555
C16 C9 1_555 1_555
H11 C16 1_555 1_555
C17 C3 1_555 1_555
H12 C17 1_555 1_555
C18 C5 1_555 1_555
H13 C18 1_555 1_555
C19 C7 1_555 1_555
H14 C19 1_555 1_555
P1B O1B 1_555 1_555
C1B P1B 1_555 1_555
C2B C8 1_555 1_555
C3B C1B 1_555 1_555
H1B C3B 1_555 1_555
C4B H2B 1_555 1_555
C5B P1B 1_555 1_555
C6B H3B 1_555 1_555
C7B C1B 1_555 1_555
H4B C7B 1_555 1_555
C8B C2 1_555 1_555
C9B H5B 1_555 1_555
C10B C4B 1_555 1_555
H6B C10B 1_555 1_555
C11B C2B 1_555 1_555
C12B C4B 1_555 1_555
H7B C12B 1_555 1_555
C13B C5B 1_555 1_555
H8B C13B 1_555 1_555
C14B C9B 1_555 1_555
H9B C14B 1_555 1_555
C15B H10B 1_555 1_555
C16B C9B 1_555 1_555
H11B C16B 1_555 1_555
C17B C3B 1_555 1_555
H12B C17B 1_555 1_555
C18B C5B 1_555 1_555
H13B C18B 1_555 1_555
C19B C7B 1_555 1_555
H14B C19B 1_555 1_555
C6 C12 1_555 1_555
C8 C11 1_555 1_555
C10 C11 1_555 1_555
C13 C16 1_555 1_555
C14 C18 1_555 1_555
C15 C17 1_555 1_555
C15 C19 1_555 1_555
P1B C2B 1_555 1_555
C6B C8B 1_555 1_555
C6B C12B 1_555 1_555
C8B C11B 1_555 1_555
C10B C11B 1_555 1_555
C13B C16B 1_555 1_555
C14B C18B 1_555 1_555
C15B C17B 1_555 1_555
C15B C19B 1_555 1_555

#END
