
#######################################################################
#
#                 Cambridge Crystallographic Data Centre
#                                CCDC 
#
#######################################################################
#
# If this CIF has been generated from an entry in the Cambridge 
# Structural Database, then it will include bibliographic, chemical, 
# crystal, experimental, refinement or atomic coordinate data resulting 
# from the CCDC's data processing and validation procedures.
#
#######################################################################

data_GUYRUO
_chemical_formula_moiety         'C12 H24 S2 Se2 4+,4(C18 H1 B1 F15 O1 1-)'
_chemical_name_systematic        
"1,1'-bis(5-Thio-1-selenocanium) tetrakis(B-hydroxy-tris(pentafluorophenyl)boron)"
_symmetry_cell_setting           triclinic
_symmetry_space_group_name_H-M   'P -1'
_symmetry_Int_Tables_number      2
_space_group_name_Hall           '-P 1'
loop_
_symmetry_equiv_pos_site_id
_symmetry_equiv_pos_as_xyz
1 x,y,z
2 -x,-y,-z
_cell_length_a                   12.5471(7)
_cell_length_b                   12.9889(7)
_cell_length_c                   14.0208(7)
_cell_angle_alpha                104.8930(10)
_cell_angle_beta                 93.1830(10)
_cell_angle_gamma                93.9430(10)
_cell_volume                     2196.67
_exptl_crystal_colour            orange
_exptl_crystal_description       block
_chemical_melting_point          158-159deg.C(dec)
_cell_formula_units_Z            1
loop_
_atom_site_label
_atom_site_type_symbol
_atom_site_fract_x
_atom_site_fract_y
_atom_site_fract_z
Se1 Se 0.00979(3) 0.05548(2) 0.43343(2)
S1 S 0.03244(8) 0.14343(6) 0.27006(7)
C1 C 0.1438(3) -0.0065(3) 0.3882(2)
H4 H 0.2052 0.0407 0.4268
H5 H 0.1457 -0.0766 0.4036
C2 C 0.1590(3) -0.0221(3) 0.2797(2)
H6 H 0.1014 -0.0745 0.2407
H7 H 0.2282 -0.0527 0.2652
C3 C 0.1575(3) 0.0801(3) 0.2464(3)
H8 H 0.1674 0.0637 0.1746
H9 H 0.2182 0.1308 0.2816
C4 C -0.0672(3) 0.0413(3) 0.1979(2)
H10 H -0.1038 0.0683 0.1459
H11 H -0.0317 -0.0227 0.1649
C5 C -0.1492(3) 0.0109(3) 0.2641(2)
H12 H -0.1831 0.0759 0.2978
H13 H -0.2061 -0.0400 0.2223
C6 C -0.1025(2) -0.0392(2) 0.3418(2)
H14 H -0.0718 -0.1060 0.3082
H15 H -0.1608 -0.0583 0.3805
Se1A Se -0.00979(3) -0.05548(2) 0.56657(2)
S1A S -0.03244(8) -0.14343(6) 0.72994(7)
C1A C -0.1438(3) 0.0065(3) 0.6118(2)
H4A H -0.2052 -0.0407 0.5732
H5A H -0.1457 0.0766 0.5964
C2A C -0.1590(3) 0.0221(3) 0.7203(2)
H6A H -0.1014 0.0745 0.7593
H7A H -0.2282 0.0527 0.7348
C3A C -0.1575(3) -0.0801(3) 0.7536(3)
H8A H -0.1674 -0.0637 0.8254
H9A H -0.2182 -0.1308 0.7184
C4A C 0.0672(3) -0.0413(3) 0.8021(2)
H10A H 0.1038 -0.0683 0.8541
H11A H 0.0317 0.0227 0.8351
C5A C 0.1492(3) -0.0109(3) 0.7359(2)
H12A H 0.1831 -0.0759 0.7022
H13A H 0.2061 0.0400 0.7777
C6A C 0.1025(2) 0.0392(2) 0.6582(2)
H14A H 0.0718 0.1060 0.6918
H15A H 0.1608 0.0583 0.6195
O1 O 0.51383(15) 0.36124(15) 0.19070(14)
H1 H 0.490(3) 0.3071(17) 0.1474(19)
B2 B 0.6170(2) 0.3540(2) 0.2480(2)
C7 C 0.6480(2) 0.4781(2) 0.3127(2)
C8 C 0.6826(2) 0.5553(2) 0.2666(2)
C9 C 0.7105(2) 0.6612(2) 0.3153(2)
C10 C 0.7007(2) 0.6948(2) 0.4150(2)
C11 C 0.6632(3) 0.6231(2) 0.4649(2)
C12 C 0.6378(2) 0.5171(2) 0.4136(2)
C13 C 0.6058(2) 0.2684(2) 0.31630(19)
C14 C 0.5175(2) 0.1987(2) 0.3174(2)
C15 C 0.5153(2) 0.1242(2) 0.3721(2)
C16 C 0.6047(2) 0.1166(2) 0.4300(2)
C17 C 0.6941(2) 0.1845(2) 0.4324(2)
C18 C 0.6934(2) 0.2573(2) 0.3768(2)
C19 C 0.7040(2) 0.3041(2) 0.1675(2)
C20 C 0.6730(2) 0.2137(2) 0.0915(2)
C21 C 0.7397(3) 0.1641(3) 0.0219(2)
C22 C 0.8454(3) 0.2035(3) 0.0298(2)
C23 C 0.8820(2) 0.2909(3) 0.1048(2)
C24 C 0.8114(2) 0.3395(2) 0.1709(2)
F1 F 0.69119(14) 0.52829(13) 0.16788(12)
F2 F 0.74781(16) 0.73135(14) 0.26634(15)
F3 F 0.72972(18) 0.79756(15) 0.46431(15)
F4 F 0.65169(17) 0.65684(15) 0.56270(13)
F5 F 0.60299(15) 0.45266(14) 0.46888(12)
F6 F 0.42564(13) 0.20006(15) 0.26210(13)
F7 F 0.42584(16) 0.05955(17) 0.36866(16)
F8 F 0.60718(16) 0.04474(15) 0.48321(14)
F9 F 0.78399(14) 0.17776(14) 0.48852(13)
F10 F 0.78485(13) 0.32115(14) 0.38267(13)
F11 F 0.57080(14) 0.16825(14) 0.08223(14)
F12 F 0.70341(19) 0.07725(17) -0.05166(16)
F13 F 0.91292(18) 0.15390(18) -0.03547(16)
F14 F 0.98566(14) 0.32793(16) 0.11471(15)
F15 F 0.85345(13) 0.42558(14) 0.24191(12)
O2 O 0.36692(15) 0.45032(15) 0.26875(14)
H2 H 0.4192(18) 0.419(2) 0.243(2)
B1 B 0.2966(2) 0.5088(2) 0.2113(2)
C25 C 0.3798(2) 0.6070(2) 0.1993(2)
C26 C 0.4240(2) 0.6167(2) 0.1135(2)
C27 C 0.4977(3) 0.7001(3) 0.1099(2)
C28 C 0.5297(3) 0.7784(3) 0.1937(3)
C29 C 0.4915(3) 0.7712(2) 0.2821(3)
C30 C 0.4188(2) 0.6866(2) 0.2831(2)
C31 C 0.1949(2) 0.5462(2) 0.27717(19)
C32 C 0.1377(2) 0.4725(2) 0.3157(2)
C33 C 0.0472(2) 0.4912(3) 0.3663(2)
C34 C 0.0077(2) 0.5888(3) 0.3794(2)
C35 C 0.0593(2) 0.6647(2) 0.3430(2)
C36 C 0.1506(2) 0.6436(2) 0.2931(2)
C37 C 0.2409(2) 0.4303(2) 0.10622(19)
C38 C 0.1798(2) 0.4728(2) 0.0424(2)
C39 C 0.1230(2) 0.4131(2) -0.0435(2)
C40 C 0.1258(2) 0.3037(3) -0.0693(2)
C41 C 0.1845(2) 0.2572(2) -0.0094(2)
C42 C 0.2398(2) 0.3200(2) 0.0763(2)
F16 F 0.39695(15) 0.54379(16) 0.02688(12)
F17 F 0.53906(16) 0.70372(19) 0.02411(15)
F18 F 0.60029(18) 0.86035(17) 0.19136(19)
F19 F 0.52564(18) 0.84480(16) 0.36645(17)
F20 F 0.38573(15) 0.68418(15) 0.37267(13)
F21 F 0.17151(13) 0.37246(13) 0.30241(13)
F22 F -0.00311(14) 0.41394(16) 0.39896(14)
F23 F -0.08248(15) 0.61011(19) 0.42591(15)
F24 F 0.02080(15) 0.76216(15) 0.35658(14)
F25 F 0.19551(15) 0.72440(13) 0.26028(14)
F26 F 0.17353(14) 0.57977(13) 0.06448(13)
F27 F 0.06543(15) 0.45988(16) -0.10111(13)
F28 F 0.06954(15) 0.24345(15) -0.15168(13)
F29 F 0.18605(16) 0.14987(14) -0.03294(14)
F30 F 0.29477(14) 0.26566(13) 0.13088(13)
H3? H 0.338(2) 0.409(2) 0.297(2)
loop_
_geom_bond_atom_site_label_1
_geom_bond_atom_site_label_2
_geom_bond_site_symmetry_1
_geom_bond_site_symmetry_2
Se1 C1 1_555 1_555
S1 C3 1_555 1_555
O1 H1 1_555 1_555
O2 H2 1_555 1_555
B1 O2 1_555 1_555
B2 O1 1_555 1_555
C1 H4 1_555 1_555
H5 C1 1_555 1_555
C2 C1 1_555 1_555
H6 C2 1_555 1_555
H7 C2 1_555 1_555
C3 C2 1_555 1_555
H8 C3 1_555 1_555
H9 C3 1_555 1_555
C4 S1 1_555 1_555
H10 C4 1_555 1_555
H11 C4 1_555 1_555
C5 C4 1_555 1_555
H12 C5 1_555 1_555
H13 C5 1_555 1_555
C6 Se1 1_555 1_555
H14 C6 1_555 1_555
H15 C6 1_555 1_555
C7 B2 1_555 1_555
C8 C7 1_555 1_555
C9 C8 1_555 1_555
C10 C9 1_555 1_555
C11 C10 1_555 1_555
C12 C7 1_555 1_555
C13 B2 1_555 1_555
C14 C13 1_555 1_555
C15 C14 1_555 1_555
C16 C15 1_555 1_555
C17 C16 1_555 1_555
C18 C13 1_555 1_555
C19 B2 1_555 1_555
C20 C19 1_555 1_555
C21 C20 1_555 1_555
C22 C21 1_555 1_555
C23 C22 1_555 1_555
C24 C19 1_555 1_555
C25 B1 1_555 1_555
C26 C25 1_555 1_555
C27 C26 1_555 1_555
C28 C27 1_555 1_555
C29 C28 1_555 1_555
C30 C25 1_555 1_555
C31 B1 1_555 1_555
C32 C31 1_555 1_555
C33 C32 1_555 1_555
C34 C33 1_555 1_555
C35 C34 1_555 1_555
C36 C31 1_555 1_555
C37 B1 1_555 1_555
C38 C37 1_555 1_555
C39 C38 1_555 1_555
C40 C39 1_555 1_555
C41 C40 1_555 1_555
C42 C37 1_555 1_555
F1 C8 1_555 1_555
F2 C9 1_555 1_555
F3 C10 1_555 1_555
F4 C11 1_555 1_555
F5 C12 1_555 1_555
F6 C14 1_555 1_555
F7 C15 1_555 1_555
F8 C16 1_555 1_555
F9 C17 1_555 1_555
F10 C18 1_555 1_555
F11 C20 1_555 1_555
F12 C21 1_555 1_555
F13 C22 1_555 1_555
F14 C23 1_555 1_555
F15 C24 1_555 1_555
F16 C26 1_555 1_555
F17 C27 1_555 1_555
F18 C28 1_555 1_555
F19 C29 1_555 1_555
F20 C30 1_555 1_555
F21 C32 1_555 1_555
F22 C33 1_555 1_555
F23 C34 1_555 1_555
F24 C35 1_555 1_555
F25 C36 1_555 1_555
F26 C38 1_555 1_555
F27 C39 1_555 1_555
F28 C40 1_555 1_555
F29 C41 1_555 1_555
F30 C42 1_555 1_555
Se1A Se1 1_555 1_555
S1A C3A 1_555 1_555
C1A Se1A 1_555 1_555
H4A C1A 1_555 1_555
H5A C1A 1_555 1_555
C2A C1A 1_555 1_555
H6A C2A 1_555 1_555
H7A C2A 1_555 1_555
C3A C2A 1_555 1_555
H8A C3A 1_555 1_555
H9A C3A 1_555 1_555
C4A S1A 1_555 1_555
H10A C4A 1_555 1_555
H11A C4A 1_555 1_555
C5A C4A 1_555 1_555
H12A C5A 1_555 1_555
H13A C5A 1_555 1_555
C6A Se1A 1_555 1_555
H14A C6A 1_555 1_555
H15A C6A 1_555 1_555
C5 C6 1_555 1_555
C11 C12 1_555 1_555
C17 C18 1_555 1_555
C23 C24 1_555 1_555
C29 C30 1_555 1_555
C35 C36 1_555 1_555
C41 C42 1_555 1_555
C5A C6A 1_555 1_555

#END
