
#######################################################################
#
#                 Cambridge Crystallographic Data Centre
#                                CCDC 
#
#######################################################################
#
# If this CIF has been generated from an entry in the Cambridge 
# Structural Database, then it will include bibliographic, chemical, 
# crystal, experimental, refinement or atomic coordinate data resulting 
# from the CCDC's data processing and validation procedures.
#
#######################################################################

data_GUYSEZ
_chemical_formula_moiety         'C12 H24 O1 S2 Te2 2+,2(B1 F4 1-)'
_chemical_name_systematic        
'5,5-Oxy-bis(5-thiatellurocane) bis(tetrafluoroborate)'
_symmetry_cell_setting           monoclinic
_symmetry_space_group_name_H-M   'P 21'
_symmetry_Int_Tables_number      4
_space_group_name_Hall           'P 2yb'
loop_
_symmetry_equiv_pos_site_id
_symmetry_equiv_pos_as_xyz
1 x,y,z
2 -x,1/2+y,-z
_cell_length_a                   9.5331(8)
_cell_length_b                   9.0124(8)
_cell_length_c                   13.0975(11)
_cell_angle_alpha                90
_cell_angle_beta                 109.4920(10)
_cell_angle_gamma                90
_cell_volume                     1060.79
_exptl_crystal_colour            'light yellow'
_exptl_crystal_description       block
_cell_formula_units_Z            2
loop_
_atom_site_label
_atom_site_type_symbol
_atom_site_fract_x
_atom_site_fract_y
_atom_site_fract_z
Te1 Te 0.82667(4) 0.65589(6) 0.14174(3)
Te2 Te 0.70815(4) 0.66047(6) 0.37780(3)
S1 S 0.8305(2) 0.6762(3) -0.07178(14)
S2 S 0.6367(2) 0.7023(2) 0.56688(15)
O1 O 0.7989(7) 0.5776(6) 0.2745(4)
C1 C 0.8715(9) 0.4304(8) 0.1125(6)
H1 H 0.9803 0.4139 0.1421
H2 H 0.8247 0.3649 0.1526
C2 C 0.8167(9) 0.3849(9) -0.0057(6)
H3 H 0.8460 0.2806 -0.0114
H4 H 0.7067 0.3896 -0.0333
C3 C 0.8765(9) 0.4805(9) -0.0762(6)
H5 H 0.8355 0.4450 -0.1520
H6 H 0.9861 0.4696 -0.0525
C4 C 0.6288(8) 0.6791(11) -0.1324(6)
H7 H 0.6000 0.7384 -0.1998
H8 H 0.5914 0.5767 -0.1512
C5 C 0.5592(9) 0.7461(10) -0.0535(6)
H9 H 0.5955 0.8492 -0.0365
H10 H 0.4499 0.7501 -0.0888
C6 C 0.5952(6) 0.6589(13) 0.0511(5)
H11 H 0.5598 0.5556 0.0340
H12 H 0.5407 0.7030 0.0962
C7 C 0.6842(9) 0.4364(8) 0.4218(6)
H13 H 0.5812 0.4037 0.3824
H14 H 0.7519 0.3732 0.3975
C8 C 0.7166(9) 0.4103(8) 0.5425(6)
H15 H 0.8222 0.4340 0.5821
H16 H 0.7006 0.3042 0.5548
C9 C 0.6174(10) 0.5051(9) 0.5874(7)
H17 H 0.6433 0.4854 0.6659
H18 H 0.5123 0.4759 0.5516
C10 C 0.8276(9) 0.7428(10) 0.6502(6)
H19 H 0.8281 0.8119 0.7090
H20 H 0.8780 0.6501 0.6835
C11 C 0.9102(10) 0.8119(10) 0.5813(7)
H21 H 1.0114 0.8405 0.6284
H22 H 0.8577 0.9032 0.5469
C12 C 0.9224(8) 0.7074(9) 0.4938(6)
H23 H 0.9696 0.6135 0.5275
H24 H 0.9866 0.7528 0.4565
B1 B 0.7804(15) 0.0307(15) 0.2396(11)
F1 F 0.7366(10) 0.1585(15) 0.2774(7)
F2 F 0.8663(12) -0.0557(11) 0.3263(8)
F3 F 0.6574(12) -0.0603(13) 0.1933(10)
F4 F 0.8507(14) 0.0756(14) 0.1697(10)
B2 B 0.7034(10) 0.1133(9) 0.7582(7)
F5 F 0.6266(15) 0.2357(13) 0.7804(12)
F6 F 0.6409(13) 0.0755(12) 0.6516(7)
F7 F 0.8434(11) 0.1648(19) 0.7586(10)
F8 F 0.732(2) 0.0085(17) 0.8336(12)
B3? B 0.762(2) 0.025(2) 0.2637(15)
F9? F 0.7871(16) 0.1716(17) 0.2407(11)
F10? F 0.9021(16) -0.0436(17) 0.3015(13)
F11? F 0.6707(17) -0.0411(17) 0.1690(12)
F12? F 0.700(2) 0.044(3) 0.3432(16)
F13? F 0.6526(15) 0.2571(12) 0.7562(12)
F14? F 0.696(3) 0.057(3) 0.6634(15)
F15? F 0.8408(14) 0.0955(18) 0.8266(13)
F16? F 0.6046(15) 0.0239(14) 0.7946(10)
loop_
_geom_bond_atom_site_label_1
_geom_bond_atom_site_label_2
_geom_bond_site_symmetry_1
_geom_bond_site_symmetry_2
Te1 O1 1_555 1_555
Te2 O1 1_555 1_555
S1 C3 1_555 1_555
S2 C9 1_555 1_555
C1 Te1 1_555 1_555
H1 C1 1_555 1_555
H2 C1 1_555 1_555
C2 C1 1_555 1_555
H3 C2 1_555 1_555
H4 C2 1_555 1_555
C3 C2 1_555 1_555
H5 C3 1_555 1_555
H6 C3 1_555 1_555
C4 S1 1_555 1_555
H7 C4 1_555 1_555
H8 C4 1_555 1_555
C5 C4 1_555 1_555
H9 C5 1_555 1_555
H10 C5 1_555 1_555
C6 Te1 1_555 1_555
H11 C6 1_555 1_555
H12 C6 1_555 1_555
C7 Te2 1_555 1_555
H13 C7 1_555 1_555
H14 C7 1_555 1_555
C8 C7 1_555 1_555
H15 C8 1_555 1_555
H16 C8 1_555 1_555
C9 C8 1_555 1_555
H17 C9 1_555 1_555
H18 C9 1_555 1_555
C10 S2 1_555 1_555
H19 C10 1_555 1_555
H20 C10 1_555 1_555
C11 C10 1_555 1_555
H21 C11 1_555 1_555
H22 C11 1_555 1_555
C12 Te2 1_555 1_555
H23 C12 1_555 1_555
H24 C12 1_555 1_555
B1 F1 1_555 1_555
F2 B1 1_555 1_555
F3 B1 1_555 1_555
F4 B1 1_555 1_555
B2 F5 1_555 1_555
F6 B2 1_555 1_555
F7 B2 1_555 1_555
F8 B2 1_555 1_555
C5 C6 1_555 1_555
C11 C12 1_555 1_555

#END
