
#######################################################################
#
#                 Cambridge Crystallographic Data Centre
#                                CCDC 
#
#######################################################################
#
# If this CIF has been generated from an entry in the Cambridge 
# Structural Database, then it will include bibliographic, chemical, 
# crystal, experimental, refinement or atomic coordinate data resulting 
# from the CCDC's data processing and validation procedures.
#
#######################################################################

data_GUZBIM
_chemical_formula_moiety         'C20 H19 N3 O6'
_chemical_name_systematic        
'2-Azido-4,6-O-benzylidene-2-deoxy-\b-D-allopyranosyl benzoate'
_symmetry_cell_setting           monoclinic
_symmetry_space_group_name_H-M   'P 21'
_symmetry_Int_Tables_number      4
_space_group_name_Hall           'P 2yb'
loop_
_symmetry_equiv_pos_site_id
_symmetry_equiv_pos_as_xyz
1 x,y,z
2 -x,1/2+y,-z
_cell_length_a                   6.1725(7)
_cell_length_b                   8.6279(17)
_cell_length_c                   18.2294(22)
_cell_angle_alpha                90
_cell_angle_beta                 95.813(9)
_cell_angle_gamma                90
_cell_volume                     965.827
_cell_formula_units_Z            2
loop_
_atom_site_label
_atom_site_type_symbol
_atom_site_fract_x
_atom_site_fract_y
_atom_site_fract_z
O1 O 0.3312(4) 0.4330(5) 0.7646(1)
O2 O -0.2197(4) 0.3359(6) 0.6184(2)
O3 O -0.1042(4) 0.4631 0.4873(1)
O4 O 0.3297(4) 0.4298(5) 0.6381(1)
O5 O 0.2072(4) 0.3661(5) 0.4401(1)
O6 O 0.5185(5) 0.2146(6) 0.7470(2)
N1 N -0.1255(6) 0.4951(6) 0.7516(2)
N2 N -0.0794(7) 0.5738(7) 0.8066(2)
N3 N -0.0552(10) 0.6361(8) 0.8608(3)
C1 C 0.2015(7) 0.4046(8) 0.6972(2)
C2 C 0.0126(7) 0.5174(7) 0.6909(2)
C3 C -0.1307(7) 0.4870(8) 0.6187(2)
C4 C 0.0153(6) 0.4985(7) 0.5563(2)
C5 C 0.2064(7) 0.3879(8) 0.5693(2)
C6 C 0.3459(7) 0.3980(8) 0.5067(2)
C7 C 0.0359(7) 0.4766(8) 0.4306(2)
C8 C -0.0937(7) 0.4422(8) 0.3573(2)
C9 C -0.0021(8) 0.4766(8) 0.2933(2)
C10 C -0.1149(9) 0.4439(9) 0.2252(2)
C11 C -0.3179(9) 0.3764(8) 0.2211(2)
C12 C -0.4106(7) 0.3434(9) 0.2843(3)
C13 C -0.2996(7) 0.3768(8) 0.3529(2)
C14 C 0.4759(7) 0.3193(8) 0.7868(2)
C15 C 0.5718(7) 0.3404(9) 0.8639(2)
C16 C 0.4959(9) 0.4471(10) 0.9110(3)
C17 C 0.5920(11) 0.4579(12) 0.9828(3)
C18 C 0.7629(12) 0.3672(12) 1.0070(3)
C19 C 0.8415(10) 0.2625(11) 0.9606(3)
C20 C 0.7455(9) 0.2482(10) 0.8889(3)
H1 H -0.338 0.344 0.639
H2 H 0.153 0.294 0.698
H3 H 0.082 0.621 0.687
H4 H -0.255 0.562 0.611
H5 H 0.083 0.604 0.556
H6 H 0.137 0.284 0.572
H7 H 0.467 0.321 0.514
H8 H 0.416 0.502 0.506
H9 H 0.082 0.587 0.425
H10 H 0.145 0.526 0.296
H11 H -0.047 0.469 0.179
H12 H -0.398 0.348 0.172
H13 H -0.558 0.295 0.282
H14 H -0.368 0.353 0.399
H15 H 0.368 0.515 0.895
H16 H 0.541 0.538 1.017
H17 H 0.835 0.375 1.059
H18 H 0.967 0.195 0.979
H19 H 0.801 0.168 0.856
loop_
_geom_bond_atom_site_label_1
_geom_bond_atom_site_label_2
_geom_bond_site_symmetry_1
_geom_bond_site_symmetry_2
O1 C1 1_555 1_555
O2 C3 1_555 1_555
O3 C4 1_555 1_555
O4 C1 1_555 1_555
O5 C6 1_555 1_555
O6 C14 1_555 1_555
N1 N2 1_555 1_555
N2 N3 1_555 1_555
C1 C2 1_555 1_555
C2 N1 1_555 1_555
C3 C2 1_555 1_555
C4 C3 1_555 1_555
C5 O4 1_555 1_555
C6 C5 1_555 1_555
C7 O3 1_555 1_555
C8 C7 1_555 1_555
C9 C8 1_555 1_555
C10 C9 1_555 1_555
C11 C10 1_555 1_555
C12 C11 1_555 1_555
C13 C8 1_555 1_555
C14 O1 1_555 1_555
C15 C14 1_555 1_555
C16 C15 1_555 1_555
C17 C16 1_555 1_555
C18 C17 1_555 1_555
C19 C18 1_555 1_555
C20 C15 1_555 1_555
H1 O2 1_555 1_555
H2 C1 1_555 1_555
H3 C2 1_555 1_555
H4 C3 1_555 1_555
H5 C4 1_555 1_555
H6 C5 1_555 1_555
H7 C6 1_555 1_555
H8 C6 1_555 1_555
H9 C7 1_555 1_555
H10 C9 1_555 1_555
H11 C10 1_555 1_555
H12 C11 1_555 1_555
H13 C12 1_555 1_555
H14 C13 1_555 1_555
H15 C16 1_555 1_555
H16 C17 1_555 1_555
H17 C18 1_555 1_555
H18 C19 1_555 1_555
H19 C20 1_555 1_555
O5 C7 1_555 1_555
C4 C5 1_555 1_555
C12 C13 1_555 1_555
C19 C20 1_555 1_555

#END
