
#######################################################################
#
#                 Cambridge Crystallographic Data Centre
#                                CCDC 
#
#######################################################################
#
# If this CIF has been generated from an entry in the Cambridge 
# Structural Database, then it will include bibliographic, chemical, 
# crystal, experimental, refinement or atomic coordinate data resulting 
# from the CCDC's data processing and validation procedures.
#
#######################################################################

data_HACHEA
_chemical_name_common            Dioxa-aza-tricyclo-tetradecane
_chemical_formula_moiety         'C21 H18 N2 O2'
_chemical_name_systematic        
12,18-Dioxa-7,14-diazahexacyclo-[11.10.1.1^14,19^.0^2,11^.0^5,10^.0^23,25^]pentacosa-2(11),3,5,7,9,19(25),20,22-octaene
_symmetry_cell_setting           monoclinic
_symmetry_space_group_name_H-M   'P 21/n'
_symmetry_Int_Tables_number      14
_space_group_name_Hall           '-P 2yn'
loop_
_symmetry_equiv_pos_site_id
_symmetry_equiv_pos_as_xyz
1 x,y,z
2 1/2-x,1/2+y,1/2-z
3 -x,-y,-z
4 1/2+x,1/2-y,1/2+z
_cell_length_a                   12.180(4)
_cell_length_b                   6.869(2)
_cell_length_c                   19.708(6)
_cell_angle_alpha                90
_cell_angle_beta                 103.849(7)
_cell_angle_gamma                90
_cell_volume                     1600.93
_exptl_crystal_colour            colorless
_exptl_crystal_description       rhombohedral
_chemical_melting_point          190-192deg.C
_cell_formula_units_Z            4
loop_
_atom_site_label
_atom_site_type_symbol
_atom_site_fract_x
_atom_site_fract_y
_atom_site_fract_z
C1 C 0.32259(15) -0.1317(2) 0.04403(8)
H1 H 0.3760 -0.1968 0.0257
C2 C 0.21551(17) -0.2067(2) 0.03425(9)
H2 H 0.1972 -0.3248 0.0113
C3 C 0.13538(15) -0.1053(2) 0.05879(9)
H3 H 0.0622 -0.1541 0.0512
C4 C 0.16236(13) 0.0680(2) 0.09452(8)
C5 C 0.27288(12) 0.1416(2) 0.10824(8)
C6 C 0.35221(13) 0.0402(2) 0.08092(8)
C7 C 0.46846(13) 0.1297(2) 0.09420(8)
H4 H 0.5084 0.0792 0.0602
C8 C 0.45328(14) 0.3498(2) 0.08519(9)
H5 H 0.5253 0.4125 0.0872
H6 H 0.4020 0.3801 0.0407
C9 C 0.40485(13) 0.4171(2) 0.14476(8)
H7 H 0.3857 0.5555 0.1380
C10 C 0.54228(12) 0.2178(2) 0.21992(8)
C11 C 0.53536(12) 0.0833(2) 0.16752(8)
C12 C 0.58931(13) -0.0992(2) 0.18360(9)
H8 H 0.5835 -0.1913 0.1483
C13 C 0.64948(13) -0.1435(2) 0.24937(9)
H9 H 0.6828 -0.2654 0.2590
C14 C 0.66079(12) -0.0036(2) 0.30254(8)
C15 C 0.72603(14) -0.0366(3) 0.37114(10)
H10 H 0.7619 -0.1565 0.3806
C16 C 0.68426(16) 0.2611(3) 0.40838(9)
H11 H 0.6916 0.3506 0.4446
C17 C 0.61826(13) 0.3116(2) 0.34458(8)
H12 H 0.5818 0.4315 0.3381
C18 C 0.60635(12) 0.1790(2) 0.28877(8)
C19 C 0.07052(15) 0.3671(3) 0.10869(10)
H13 H -0.0077 0.4095 0.0984
H14 H 0.1019 0.4047 0.0698
C20 C 0.13532(15) 0.4654(3) 0.17401(10)
H15 H 0.0915 0.4622 0.2091
H16 H 0.1484 0.6005 0.1641
C21 C 0.24769(14) 0.3636(2) 0.20174(8)
H17 H 0.2967 0.4480 0.2353
H18 H 0.2350 0.2461 0.2261
N1 N 0.73969(13) 0.0895(2) 0.42238(8)
N2 N 0.30456(10) 0.31233(19) 0.14686(7)
O1 O 0.07506(10) 0.15905(18) 0.11605(7)
O2 O 0.49042(9) 0.39541(15) 0.21019(5)
loop_
_geom_bond_atom_site_label_1
_geom_bond_atom_site_label_2
_geom_bond_site_symmetry_1
_geom_bond_site_symmetry_2
C1 H1 1_555 1_555
C2 C1 1_555 1_555
H2 C2 1_555 1_555
C3 C2 1_555 1_555
H3 C3 1_555 1_555
C4 C3 1_555 1_555
C5 C4 1_555 1_555
C6 C1 1_555 1_555
C7 C6 1_555 1_555
H4 C7 1_555 1_555
C8 C7 1_555 1_555
H5 C8 1_555 1_555
H6 C8 1_555 1_555
C9 C8 1_555 1_555
H7 C9 1_555 1_555
C10 C11 1_555 1_555
C11 C7 1_555 1_555
C12 C11 1_555 1_555
H8 C12 1_555 1_555
C13 C12 1_555 1_555
H9 C13 1_555 1_555
C14 C13 1_555 1_555
C15 C14 1_555 1_555
H10 C15 1_555 1_555
C16 H11 1_555 1_555
C17 C16 1_555 1_555
H12 C17 1_555 1_555
C18 C10 1_555 1_555
C19 H13 1_555 1_555
H14 C19 1_555 1_555
C20 C19 1_555 1_555
H15 C20 1_555 1_555
H16 C20 1_555 1_555
C21 C20 1_555 1_555
H17 C21 1_555 1_555
H18 C21 1_555 1_555
N1 C15 1_555 1_555
N2 C5 1_555 1_555
O1 C4 1_555 1_555
O2 C9 1_555 1_555
C5 C6 1_555 1_555
C9 N2 1_555 1_555
C10 O2 1_555 1_555
C14 C18 1_555 1_555
C16 N1 1_555 1_555
C17 C18 1_555 1_555
C19 O1 1_555 1_555
C21 N2 1_555 1_555

#END
