
#######################################################################
#
#                 Cambridge Crystallographic Data Centre
#                                CCDC 
#
#######################################################################
#
# If this CIF has been generated from an entry in the Cambridge 
# Structural Database, then it will include bibliographic, chemical, 
# crystal, experimental, refinement or atomic coordinate data resulting 
# from the CCDC's data processing and validation procedures.
#
#######################################################################

data_HACMEF
_chemical_formula_moiety         'C15 H22 N2 O1'
_chemical_name_systematic        
3-(1,8-Dimethyl-2,3,8,8a-tetrahydropyrrolo[2,3-b]indol-3a(1H)-yl)propan-1-ol
_symmetry_cell_setting           monoclinic
_symmetry_space_group_name_H-M   'P 21'
_symmetry_Int_Tables_number      4
_space_group_name_Hall           'P 2yb'
loop_
_symmetry_equiv_pos_site_id
_symmetry_equiv_pos_as_xyz
1 x,y,z
2 -x,1/2+y,-z
_cell_length_a                   8.116(3)
_cell_length_b                   10.335(3)
_cell_length_c                   8.472(3)
_cell_angle_alpha                90
_cell_angle_beta                 102.775(4)
_cell_angle_gamma                90
_cell_volume                     693.031
_exptl_crystal_colour            colorless
_exptl_crystal_description       chunk
_cell_formula_units_Z            2
loop_
_atom_site_label
_atom_site_type_symbol
_atom_site_fract_x
_atom_site_fract_y
_atom_site_fract_z
O1 O 0.12128(15) 0.43683(13) 0.74045(15)
N1 N 0.65923(18) 0.53785(14) 0.56828(16)
N2 N 0.79104(17) 0.36099(13) 0.74776(18)
C1 C 0.69777(19) 0.66282(16) 0.7961(2)
C2 C 0.7366(2) 0.77500(17) 0.8835(2)
H1 H 0.7289 0.7785 0.9937
C3 C 0.7872(2) 0.88326(18) 0.8092(2)
H2 H 0.8125 0.9616 0.8683
C4 C 0.8006(2) 0.87712(17) 0.6495(2)
H3 H 0.8369 0.9515 0.6006
C5 C 0.7623(2) 0.76478(17) 0.5589(2)
H4 H 0.7720 0.7612 0.4493
C6 C 0.70956(19) 0.65802(16) 0.6335(2)
C7 C 0.6711(2) 0.4990(2) 0.4079(2)
H5 H 0.7881 0.4752 0.4083
H6 H 0.6362 0.5710 0.3325
H7 H 0.5971 0.4245 0.3736
C8 C 0.6437(2) 0.44764(17) 0.69391(19)
H8 H 0.5372 0.3962 0.6616
C9 C 0.63996(19) 0.53308(17) 0.84516(19)
C10 C 0.7672(2) 0.46675(18) 0.9851(2)
H9 H 0.8750 0.5152 1.0123
H10 H 0.7202 0.4597 1.0832
C11 C 0.7921(2) 0.33440(18) 0.9176(2)
H11 H 0.9011 0.2960 0.9739
H12 H 0.6992 0.2750 0.9274
C12 C 0.7837(3) 0.24262(18) 0.6526(3)
H13 H 0.6764 0.1982 0.6499
H14 H 0.8777 0.1858 0.7021
H15 H 0.7920 0.2643 0.5421
C13 C 0.46238(19) 0.53799(18) 0.8816(2)
H16 H 0.4263 0.4487 0.8996
H17 H 0.4684 0.5871 0.9830
C14 C 0.3295(2) 0.59990(17) 0.7479(2)
H18 H 0.3470 0.6948 0.7507
H19 H 0.3449 0.5681 0.6419
C15 C 0.1508(2) 0.57151(17) 0.7623(2)
H20 H 0.1352 0.5982 0.8703
H21 H 0.0697 0.6204 0.6791
H22 H 0.018(3) 0.421(3) 0.746(3)
loop_
_geom_bond_atom_site_label_1
_geom_bond_atom_site_label_2
_geom_bond_site_symmetry_1
_geom_bond_site_symmetry_2
O1 C15 1_555 1_555
N1 C6 1_555 1_555
N2 C8 1_555 1_555
C1 C2 1_555 1_555
C2 H1 1_555 1_555
C3 C2 1_555 1_555
H2 C3 1_555 1_555
C4 C3 1_555 1_555
H3 C4 1_555 1_555
C5 C4 1_555 1_555
H4 C5 1_555 1_555
C6 C1 1_555 1_555
C7 N1 1_555 1_555
H5 C7 1_555 1_555
H6 C7 1_555 1_555
H7 C7 1_555 1_555
C8 N1 1_555 1_555
H8 C8 1_555 1_555
C9 C1 1_555 1_555
C10 C9 1_555 1_555
H9 C10 1_555 1_555
H10 C10 1_555 1_555
C11 N2 1_555 1_555
H11 C11 1_555 1_555
H12 C11 1_555 1_555
C12 N2 1_555 1_555
H13 C12 1_555 1_555
H14 C12 1_555 1_555
H15 C12 1_555 1_555
C13 C9 1_555 1_555
H16 C13 1_555 1_555
H17 C13 1_555 1_555
C14 C13 1_555 1_555
H18 C14 1_555 1_555
H19 C14 1_555 1_555
C15 C14 1_555 1_555
H20 C15 1_555 1_555
H21 C15 1_555 1_555
H22 O1 1_555 1_555
C5 C6 1_555 1_555
C8 C9 1_555 1_555
C10 C11 1_555 1_555

#END
