
#######################################################################
#
#                 Cambridge Crystallographic Data Centre
#                                CCDC 
#
#######################################################################
#
# If this CIF has been generated from an entry in the Cambridge 
# Structural Database, then it will include bibliographic, chemical, 
# crystal, experimental, refinement or atomic coordinate data resulting 
# from the CCDC's data processing and validation procedures.
#
#######################################################################

data_HADJEC
_chemical_compound_source        
'seeds of Pseudolarix kaempferi Gord. (Pinaceae)'
_chemical_name_common            'Pseudolarolide P'
_chemical_formula_moiety         'C30 H40 O6'
_chemical_name_systematic        
(9S,16R,23S,25R)-1,9:16,23-Diepoxy-8,9:9,10-disecocycloartan-1(2),5(6),10(19)-triene-3(4),26(23)-diolide
_chemical_properties_biological  'no bioactivity found'
_symmetry_cell_setting           orthorhombic
_symmetry_space_group_name_H-M   'P 21 21 21'
_symmetry_Int_Tables_number      19
_space_group_name_Hall           'P 2ac 2ab'
loop_
_symmetry_equiv_pos_site_id
_symmetry_equiv_pos_as_xyz
1 x,y,z
2 1/2-x,-y,1/2+z
3 1/2+x,1/2-y,-z
4 -x,1/2+y,1/2-z
_cell_length_a                   11.986(6)
_cell_length_b                   21.854(6)
_cell_length_c                   10.312(4)
_cell_angle_alpha                90
_cell_angle_beta                 90
_cell_angle_gamma                90
_cell_volume                     2701.15
_exptl_crystal_colour            colorless
_exptl_crystal_description       prismatic
_chemical_melting_point          '235-237 deg.C'
_cell_formula_units_Z            4
_exptl_crystal_recrystallization_method 'petroleum ether/diethyl ether'
loop_
_atom_site_label
_atom_site_type_symbol
_atom_site_fract_x
_atom_site_fract_y
_atom_site_fract_z
O1 O 0.9594(3) 0.7360(1) 0.1902(3)
O2 O 1.0988(2) 0.6821(1) 0.1217(3)
O3 O 0.6245(2) 0.3357(1) 0.1370(2)
O4 O 0.4755(2) 0.3822(1) 0.2455(3)
O5 O 0.3074(2) 0.4074(1) 0.1729(3)
O6 O 1.0005(2) 0.5630(1) 0.4479(2)
C1 C 1.0340(3) 0.5942(2) 0.3413(3)
C2 C 0.9916(3) 0.6493(2) 0.3164(3)
C3 C 1.0147(3) 0.6906(2) 0.2096(4)
C4 C 1.1949(3) 0.6402(2) 0.1306(4)
C5 C 1.1552(3) 0.5737(2) 0.1407(4)
C6 C 1.1039(5) 0.5449(2) 0.0434(4)
C7 C 1.0719(3) 0.4781(2) 0.0478(4)
C8 C 0.9480(3) 0.4640(2) 0.0263(4)
C9 C 1.0652(3) 0.5066(2) 0.4598(4)
C10 C 1.1189(3) 0.5581(2) 0.2740(3)
C11 C 0.9865(3) 0.4504(2) 0.4673(4)
C12 C 0.9706(3) 0.4118(2) 0.3437(3)
C13 C 0.8693(3) 0.4234(1) 0.2520(3)
C14 C 0.8966(3) 0.4103(2) 0.1020(3)
C15 C 0.7789(3) 0.3952(2) 0.0435(4)
C16 C 0.7004(3) 0.3862(2) 0.1564(4)
C17 C 0.7738(3) 0.3766(2) 0.2745(3)
C18 C 0.8242(3) 0.4885(2) 0.2683(4)
C19 C 1.1397(3) 0.5094(2) 0.3467(4)
C20 C 0.6997(3) 0.3744(2) 0.3951(3)
C21 C 0.7589(4) 0.3580(2) 0.5236(4)
C22 C 0.6100(3) 0.3259(2) 0.3704(4)
C23 C 0.5509(3) 0.3290(2) 0.2417(4)
C24 C 0.4719(3) 0.2766(2) 0.2110(4)
C25 C 0.3820(3) 0.3052(2) 0.1310(4)
C26 C 0.3799(3) 0.3693(2) 0.1801(4)
C27 C 0.2671(3) 0.2757(2) 0.1358(6)
C28 C 0.9711(4) 0.3542(2) 0.0839(4)
C29 C 1.2680(3) 0.6588(2) 0.2439(5)
C30 C 1.2526(4) 0.6528(2) 0.0033(4)
H1 H 0.9430 0.6704 0.3908
H2 H 1.0878 0.5672 -0.0340
H3 H 1.1131 0.4572 -0.0170
H4 H 1.0917 0.4628 0.1308
H5 H 0.9070 0.4998 0.0481
H6 H 0.9383 0.4555 -0.0637
H7 H 1.1088 0.5084 0.5370
H8 H 1.0143 0.4240 0.5323
H9 H 0.9147 0.4651 0.4916
H10 H 1.0358 0.4171 0.2928
H11 H 0.9655 0.3703 0.3709
H12 H 0.7540 0.4280 -0.0092
H13 H 0.7828 0.3588 -0.0064
H14 H 0.6586 0.4229 0.1685
H15 H 0.8058 0.3370 0.2652
H16 H 0.7938 0.4931 0.3527
H17 H 0.8833 0.5170 0.2566
H18 H 0.7678 0.4958 0.2054
H19 H 1.1886 0.4766 0.3204
H20 H 0.6641 0.4131 0.4053
H21 H 0.8116 0.3892 0.5438
H22 H 0.7056 0.3549 0.5907
H23 H 0.7967 0.3201 0.5134
H24 H 0.5559 0.3295 0.4369
H25 H 0.6454 0.2870 0.3759
H26 H 0.4418 0.2595 0.2884
H27 H 0.5093 0.2454 0.1635
H28 H 0.4060 0.3061 0.0431
H29 H 0.2515 0.2631 0.2218
H30 H 0.2659 0.2413 0.0796
H31 H 0.2127 0.3046 0.1083
H32 H 0.9336 0.3189 0.1133
H33 H 0.9887 0.3499 -0.0059
H34 H 1.0383 0.3598 0.1314
H35 H 1.2912 0.7002 0.2329
H36 H 1.2266 0.6555 0.3224
H37 H 1.3314 0.6331 0.2479
H38 H 1.2878 0.6918 0.0065
H39 H 1.3071 0.6222 -0.0127
H40 H 1.1992 0.6526 -0.0652
loop_
_geom_bond_atom_site_label_1
_geom_bond_atom_site_label_2
_geom_bond_site_symmetry_1
_geom_bond_site_symmetry_2
O1 C3 1_555 1_555
O2 C3 1_555 1_555
O3 C16 1_555 1_555
O4 C23 1_555 1_555
O5 C26 1_555 1_555
O6 C1 1_555 1_555
C1 C2 1_555 1_555
C2 C3 1_555 1_555
C4 O2 1_555 1_555
C5 C4 1_555 1_555
C6 C5 1_555 1_555
C7 C6 1_555 1_555
C8 C7 1_555 1_555
C9 O6 1_555 1_555
C10 C1 1_555 1_555
C11 C9 1_555 1_555
C12 C11 1_555 1_555
C13 C12 1_555 1_555
C14 C8 1_555 1_555
C15 C14 1_555 1_555
C16 C15 1_555 1_555
C17 C13 1_555 1_555
C18 C13 1_555 1_555
C19 C9 1_555 1_555
C20 C17 1_555 1_555
C21 C20 1_555 1_555
C22 C20 1_555 1_555
C23 O3 1_555 1_555
C24 C23 1_555 1_555
C25 C24 1_555 1_555
C26 O4 1_555 1_555
C27 C25 1_555 1_555
C28 C14 1_555 1_555
C29 C4 1_555 1_555
C30 C4 1_555 1_555
H1 C2 1_555 1_555
H2 C6 1_555 1_555
H3 C7 1_555 1_555
H4 C7 1_555 1_555
H5 C8 1_555 1_555
H6 C8 1_555 1_555
H7 C9 1_555 1_555
H8 C11 1_555 1_555
H9 C11 1_555 1_555
H10 C12 1_555 1_555
H11 C12 1_555 1_555
H12 C15 1_555 1_555
H13 C15 1_555 1_555
H14 C16 1_555 1_555
H15 C17 1_555 1_555
H16 C18 1_555 1_555
H17 C18 1_555 1_555
H18 C18 1_555 1_555
H19 C19 1_555 1_555
H20 C20 1_555 1_555
H21 C21 1_555 1_555
H22 C21 1_555 1_555
H23 C21 1_555 1_555
H24 C22 1_555 1_555
H25 C22 1_555 1_555
H26 C24 1_555 1_555
H27 C24 1_555 1_555
H28 C25 1_555 1_555
H29 C27 1_555 1_555
H30 C27 1_555 1_555
H31 C27 1_555 1_555
H32 C28 1_555 1_555
H33 C28 1_555 1_555
H34 C28 1_555 1_555
H35 C29 1_555 1_555
H36 C29 1_555 1_555
H37 C29 1_555 1_555
H38 C30 1_555 1_555
H39 C30 1_555 1_555
H40 C30 1_555 1_555
C5 C10 1_555 1_555
C10 C19 1_555 1_555
C13 C14 1_555 1_555
C16 C17 1_555 1_555
C22 C23 1_555 1_555
C25 C26 1_555 1_555

#END
