
#######################################################################
#
#                 Cambridge Crystallographic Data Centre
#                                CCDC 
#
#######################################################################
#
# If this CIF has been generated from an entry in the Cambridge 
# Structural Database, then it will include bibliographic, chemical, 
# crystal, experimental, refinement or atomic coordinate data resulting 
# from the CCDC's data processing and validation procedures.
#
#######################################################################

data_HADNOQ01
_chemical_formula_moiety         'C16 H32 P2 S2'
_chemical_name_systematic        
"(R,R,R,R)-1,1'-Di-t-butyl-2,2'-biphospholyl 1,1'-disulfide"
_symmetry_cell_setting           orthorhombic
_symmetry_space_group_name_H-M   'P 21 21 21'
_symmetry_Int_Tables_number      19
_space_group_name_Hall           'P 2ac 2ab'
loop_
_symmetry_equiv_pos_site_id
_symmetry_equiv_pos_as_xyz
1 x,y,z
2 1/2-x,-y,1/2+z
3 -x,1/2+y,1/2-z
4 1/2+x,1/2-y,-z
_cell_length_a                   8.7293(12)
_cell_length_b                   10.4282(14)
_cell_length_c                   21.602(3)
_cell_angle_alpha                90
_cell_angle_beta                 90
_cell_angle_gamma                90
_cell_volume                     1966.45
_exptl_crystal_description       plate
_cell_formula_units_Z            4
loop_
_atom_site_label
_atom_site_type_symbol
_atom_site_fract_x
_atom_site_fract_y
_atom_site_fract_z
P1 P 0.44503(4) 1.03684(3) 0.840910(17)
P2 P 0.31847(4) 0.92716(3) 1.034784(17)
S1 S 0.36583(5) 0.74364(3) 1.032128(19)
S2 S 0.41841(5) 1.22180(4) 0.854667(18)
C1 C 0.30453(16) 1.00735(13) 0.95837(6)
H1 H 0.3586 1.0916 0.9619
C2 C 0.64430(18) 0.99293(16) 0.82110(7)
C3 C 0.06889(18) 1.07221(15) 1.01522(7)
H2 H -0.0445 1.0750 1.0144
H3 H 0.1076 1.1574 1.0280
C4 C 0.13185(17) 1.03623(15) 0.95122(7)
H4 H 0.1164 1.1079 0.9218
H5 H 0.0777 0.9598 0.9350
C5 C 0.61288(18) 1.01981(16) 1.04980(8)
H6 H 0.6886 1.0618 1.0764
H7 H 0.6039 1.0672 1.0108
H8 H 0.6457 0.9317 1.0412
C6 C 0.45673(18) 1.01772(14) 1.08270(7)
C7 C 0.4713(2) 0.95006(17) 1.14523(7)
H9 H 0.5428 0.9976 1.1716
H10 H 0.5096 0.8627 1.1389
H11 H 0.3706 0.9465 1.1653
C8 C 0.38230(15) 0.93194(13) 0.90565(6)
H12 H 0.4750 0.8886 0.9230
C9 C 0.28221(19) 0.82869(15) 0.87365(8)
H13 H 0.3473 0.7564 0.8599
H14 H 0.2053 0.7952 0.9032
C10 C 0.3204(2) 0.96768(17) 0.78164(7)
H15 H 0.2702 1.0360 0.7571
H16 H 0.3797 0.9119 0.7533
C11 C 0.20117(19) 0.88921(17) 0.81761(8)
H17 H 0.1576 0.8214 0.7908
H18 H 0.1167 0.9455 0.8317
C12 C 0.12464(17) 0.96819(14) 1.06027(7)
H19 H 0.0570 0.8921 1.0585
H20 H 0.1260 1.0012 1.1032
C13 C 0.74814(18) 1.03913(17) 0.87392(9)
H21 H 0.7281 0.9880 0.9111
H22 H 0.7270 1.1296 0.8826
H23 H 0.8557 1.0292 0.8618
C14 C 0.6635(2) 0.84763(17) 0.81288(8)
H24 H 0.7703 0.8283 0.8024
H25 H 0.5964 0.8178 0.7795
H26 H 0.6361 0.8040 0.8515
C15 C 0.4019(2) 1.15587(14) 1.09365(8)
H27 H 0.3019 1.1545 1.1142
H28 H 0.3929 1.2003 1.0538
H29 H 0.4761 1.2010 1.1199
C16 C 0.6845(2) 1.0623(2) 0.76046(10)
H30 H 0.6657 1.1544 0.7652
H31 H 0.6207 1.0287 0.7268
H32 H 0.7928 1.0480 0.7506
loop_
_geom_bond_atom_site_label_1
_geom_bond_atom_site_label_2
_geom_bond_site_symmetry_1
_geom_bond_site_symmetry_2
P1 S2 1_555 1_555
P2 S1 1_555 1_555
C1 P2 1_555 1_555
H1 C1 1_555 1_555
C2 P1 1_555 1_555
C3 H2 1_555 1_555
H3 C3 1_555 1_555
C4 C1 1_555 1_555
H4 C4 1_555 1_555
H5 C4 1_555 1_555
C5 H6 1_555 1_555
H7 C5 1_555 1_555
H8 C5 1_555 1_555
C6 P2 1_555 1_555
C7 C6 1_555 1_555
H9 C7 1_555 1_555
H10 C7 1_555 1_555
H11 C7 1_555 1_555
C8 P1 1_555 1_555
H12 C8 1_555 1_555
C9 C8 1_555 1_555
H13 C9 1_555 1_555
H14 C9 1_555 1_555
C10 P1 1_555 1_555
H15 C10 1_555 1_555
H16 C10 1_555 1_555
C11 C9 1_555 1_555
H17 C11 1_555 1_555
H18 C11 1_555 1_555
C12 P2 1_555 1_555
H19 C12 1_555 1_555
H20 C12 1_555 1_555
C13 C2 1_555 1_555
H21 C13 1_555 1_555
H22 C13 1_555 1_555
H23 C13 1_555 1_555
C14 C2 1_555 1_555
H24 C14 1_555 1_555
H25 C14 1_555 1_555
H26 C14 1_555 1_555
C15 C6 1_555 1_555
H27 C15 1_555 1_555
H28 C15 1_555 1_555
H29 C15 1_555 1_555
C16 C2 1_555 1_555
H30 C16 1_555 1_555
H31 C16 1_555 1_555
H32 C16 1_555 1_555
C1 C8 1_555 1_555
C3 C12 1_555 1_555
C3 C4 1_555 1_555
C5 C6 1_555 1_555
C10 C11 1_555 1_555

#END
