
#######################################################################
#
#                 Cambridge Crystallographic Data Centre
#                                CCDC 
#
#######################################################################
#
# If this CIF has been generated from an entry in the Cambridge 
# Structural Database, then it will include bibliographic, chemical, 
# crystal, experimental, refinement or atomic coordinate data resulting 
# from the CCDC's data processing and validation procedures.
#
#######################################################################

data_HAFTUF
_chemical_formula_moiety         'C14 H10 N4 O2'
_chemical_name_systematic        
2-(Imidazo[1,2-a]pyridin-2-yl)-2-oxo-N-(pyridin-2-yl)acetamide
_symmetry_cell_setting           orthorhombic
_symmetry_space_group_name_H-M   'P c a 21'
_symmetry_Int_Tables_number      29
_space_group_name_Hall           'P 2c -2ac'
loop_
_symmetry_equiv_pos_site_id
_symmetry_equiv_pos_as_xyz
1 x,y,z
2 -x,-y,1/2+z
3 1/2-x,y,1/2+z
4 1/2+x,-y,z
_cell_length_a                   27.0027(16)
_cell_length_b                   3.8705(2)
_cell_length_c                   11.6121(7)
_cell_angle_alpha                90
_cell_angle_beta                 90
_cell_angle_gamma                90
_cell_volume                     1213.63
_exptl_crystal_colour            yellow
_exptl_crystal_description       block
_cell_formula_units_Z            4
loop_
_atom_site_label
_atom_site_type_symbol
_atom_site_fract_x
_atom_site_fract_y
_atom_site_fract_z
O1 O 0.85630(10) 0.7766(10) 0.1347(2)
N1 N 0.72535(10) 0.3685(8) 0.3347(2)
N2 N 0.76365(11) 0.4581(9) 0.1658(3)
N3 N 0.91219(12) 1.0348(10) 0.2974(3)
O2 O 0.86073(10) 0.8039(9) 0.4337(3)
C1 C 0.68842(13) 0.2527(11) 0.4068(3)
H1 H 0.6906 0.2829 0.4861
C2 C 0.68159(14) 0.1627(12) 0.1683(4)
H2 H 0.6788 0.1308 0.0892
C3 C 0.79187(12) 0.5824(10) 0.2551(3)
C4 C 0.72363(14) 0.3300(11) 0.2153(3)
C5 C 1.03376(17) 1.4070(13) 0.4706(4)
H3 H 1.0625 1.4905 0.5049
C6 C 0.95241(13) 1.1602(10) 0.3631(4)
C7 C 0.76889(12) 0.5319(10) 0.3594(4)
H4 H 0.7806 0.5957 0.4317
C8 C 0.95406(16) 1.1559(13) 0.4823(4)
H5 H 0.9275 1.0723 0.5250
N4 N 0.98848(11) 1.2886(9) 0.2979(3)
C9 C 0.83960(13) 0.7413(11) 0.2312(3)
C10 C 0.64914(13) 0.0949(12) 0.3593(4)
H6 H 0.6239 0.0139 0.4065
C11 C 0.87164(13) 0.8658(10) 0.3333(3)
C12 C 0.99569(18) 1.2778(14) 0.5358(4)
H7 H 0.9981 1.2730 0.6156
C13 C 0.64555(15) 0.0501(12) 0.2395(4)
H8 H 0.6179 -0.0591 0.2088
C14 C 1.02817(15) 1.4091(13) 0.3541(5)
H9 H 1.0538 1.5012 0.3104
H10 H 0.9182(17) 1.040(13) 0.2212(18)
loop_
_geom_bond_atom_site_label_1
_geom_bond_atom_site_label_2
_geom_bond_site_symmetry_1
_geom_bond_site_symmetry_2
O1 C9 1_555 1_555
N1 C1 1_555 1_555
N2 C3 1_555 1_555
N3 C6 1_555 1_555
O2 C11 1_555 1_555
C1 H1 1_555 1_555
C2 H2 1_555 1_555
C3 C7 1_555 1_555
C4 N1 1_555 1_555
C5 H3 1_555 1_555
C6 C8 1_555 1_555
C7 N1 1_555 1_555
H4 C7 1_555 1_555
C8 H5 1_555 1_555
N4 C6 1_555 1_555
C9 C3 1_555 1_555
C10 C1 1_555 1_555
H6 C10 1_555 1_555
C11 N3 1_555 1_555
C12 C5 1_555 1_555
H7 C12 1_555 1_555
C13 C2 1_555 1_555
H8 C13 1_555 1_555
C14 C5 1_555 1_555
H9 C14 1_555 1_555
H10 N3 1_555 1_555
N2 C4 1_555 1_555
C2 C4 1_555 1_555
C8 C12 1_555 1_555
N4 C14 1_555 1_555
C9 C11 1_555 1_555
C10 C13 1_555 1_555

#END
