
#######################################################################
#
#                 Cambridge Crystallographic Data Centre
#                                CCDC 
#
#######################################################################
#
# If this CIF has been generated from an entry in the Cambridge 
# Structural Database, then it will include bibliographic, chemical, 
# crystal, experimental, refinement or atomic coordinate data resulting 
# from the CCDC's data processing and validation procedures.
#
#######################################################################

data_HAGLAC
_chemical_formula_moiety         'C40 H67 N1 P2'
_chemical_name_systematic        
N',P'-bis(2,4,6-Tri-t-butylphenyl)-P-t-butyl-iminophosphinylidenephosphoranene
_symmetry_cell_setting           monoclinic
_symmetry_space_group_name_H-M   'P 21/n'
_symmetry_Int_Tables_number      14
_space_group_name_Hall           '-P 2yn'
loop_
_symmetry_equiv_pos_site_id
_symmetry_equiv_pos_as_xyz
1 x,y,z
2 1/2-x,1/2+y,1/2-z
3 -x,-y,-z
4 1/2+x,1/2-y,1/2+z
_cell_length_a                   15.099(2)
_cell_length_b                   10.025(1)
_cell_length_c                   25.911(2)
_cell_angle_alpha                90
_cell_angle_beta                 92.50(1)
_cell_angle_gamma                90
_cell_volume                     3918.35
_exptl_crystal_colour            yellow
_chemical_melting_point          179-181deg.C
_cell_formula_units_Z            4
loop_
_atom_site_label
_atom_site_type_symbol
_atom_site_fract_x
_atom_site_fract_y
_atom_site_fract_z
P1 P 0.1844(1) 0.2029(2) 0.0864(1)
P2 P 0.1727(1) 0.1652(2) 0.1630(1)
N1 N 0.2649(3) 0.1562(6) 0.0560(2)
C1 C 0.3422(4) 0.0815(9) 0.0729(3)
C2 C 0.3416(5) -0.0584(9) 0.0658(3)
C3 C 0.4160(6) -0.1279(10) 0.0850(3)
C4 C 0.4897(6) -0.0728(11) 0.1080(3)
C5 C 0.4902(5) 0.0654(11) 0.1098(3)
C6 C 0.4190(5) 0.1480(9) 0.0921(3)
C7 C 0.2686(5) -0.1370(8) 0.0363(3)
C8 C 0.1861(7) -0.1493(10) 0.0663(4)
C9 C 0.2949(8) -0.2811(10) 0.0237(4)
C10 C 0.2450(7) -0.0807(10) -0.0168(4)
C11 C 0.5685(6) -0.1543(12) 0.1276(3)
C12 C 0.6060(6) -0.2299(10) 0.0819(3)
C13 C 0.5383(6) -0.2568(12) 0.1670(4)
C14 C 0.6418(7) -0.0739(12) 0.1532(4)
C15 C 0.4339(4) 0.2997(10) 0.0943(3)
C16 C 0.3714(9) 0.3877(17) 0.1303(6)
C17 C 0.5286(8) 0.3705(17) 0.1104(7)
C18 C 0.4197(11) 0.3714(15) 0.0372(6)
C22 C 0.1085(4) 0.2968(7) 0.0408(2)
C23 C 0.0829(11) 0.4251(17) 0.0642(5)
C24 C 0.1467(10) 0.3146(20) -0.0103(6)
C25 C 0.0208(9) 0.2064(20) 0.0319(7)
C29 C 0.0644(4) 0.2355(8) 0.1795(2)
C30 C 0.0560(5) 0.3671(7) 0.1981(2)
C31 C -0.0269(5) 0.4266(9) 0.1950(3)
C32 C -0.1027(5) 0.3615(9) 0.1776(3)
C33 C -0.0964(5) 0.2251(9) 0.1694(2)
C34 C -0.0144(4) 0.1587(8) 0.1727(2)
C35 C 0.1339(5) 0.4491(8) 0.2233(3)
C36 C 0.0994(5) 0.5578(8) 0.2594(3)
C37 C 0.1937(5) 0.3618(8) 0.2590(3)
C38 C 0.1882(6) 0.5220(8) 0.1828(3)
C39 C -0.1914(6) 0.4310(10) 0.1684(3)
C40 C -0.2141(6) 0.4338(11) 0.1118(3)
C41 C -0.2631(7) 0.3551(13) 0.1949(4)
C42 C -0.1916(7) 0.5692(12) 0.1909(5)
C43 C -0.0195(4) 0.0045(9) 0.1704(4)
C44 C 0.0552(6) -0.0675(9) 0.1986(4)
C45 C -0.0264(7) -0.0466(9) 0.1163(5)
C46 C -0.1033(7) -0.0413(11) 0.1967(7)
H1 H 0.4158 -0.2231 0.0809
H2 H 0.5428 0.1071 0.1243
H3 H 0.1680 -0.0611 0.0757
H4 H 0.1402 -0.1903 0.0450
H5 H 0.1968 -0.2016 0.0970
H6 H 0.3103 -0.3287 0.0550
H7 H 0.2446 -0.3229 0.0065
H8 H 0.3442 -0.2824 0.0016
H9 H 0.2290 0.0117 -0.0145
H10 H 0.2959 -0.0894 -0.0374
H11 H 0.1964 -0.1299 -0.0325
H12 H 0.6273 -0.1681 0.0570
H13 H 0.6532 -0.2886 0.0931
H14 H 0.5582 -0.2812 0.0664
H15 H 0.5169 -0.2126 0.1969
H16 H 0.4911 -0.3078 0.1507
H17 H 0.5862 -0.3152 0.1774
H18 H 0.6176 -0.0279 0.1818
H19 H 0.6887 -0.1318 0.1655
H20 H 0.6646 -0.0101 0.1295
H21 H 0.3765 0.3525 0.1647
H22 H 0.3900 0.4793 0.1305
H23 H 0.3108 0.3820 0.1176
H24 H 0.5482 0.3362 0.1436
H25 H 0.5715 0.3493 0.0854
H26 H 0.5220 0.4656 0.1125
H27 H 0.3644 0.3413 0.0216
H28 H 0.4175 0.4662 0.0422
H29 H 0.4669 0.3499 0.0150
H39 H 0.0436 0.4745 0.0412
H40 H 0.0540 0.4073 0.0957
H41 H 0.1357 0.4763 0.0716
H42 H 0.1064 0.3632 -0.0330
H43 H 0.2015 0.3627 -0.0062
H44 H 0.1576 0.2284 -0.0248
H45 H -0.0204 0.2517 0.0087
H46 H 0.0350 0.1209 0.0177
H47 H -0.0054 0.1944 0.0647
H57 H -0.0319 0.5179 0.2058
H58 H -0.1499 0.1770 0.1606
H59 H 0.0621 0.6190 0.2400
H60 H 0.0659 0.5166 0.2857
H61 H 0.1487 0.6052 0.2752
H62 H 0.1570 0.3195 0.2835
H63 H 0.2223 0.2949 0.2391
H64 H 0.2377 0.4155 0.2769
H65 H 0.1500 0.5764 0.1609
H66 H 0.2322 0.5771 0.2000
H67 H 0.2168 0.4566 0.1622
H68 H -0.1692 0.4824 0.0946
H69 H -0.2166 0.3440 0.0990
H70 H -0.2705 0.4762 0.1053
H71 H -0.2662 0.2659 0.1815
H72 H -0.2492 0.3523 0.2314
H73 H -0.3193 0.3985 0.1887
H74 H -0.1465 0.6182 0.1741
H75 H -0.2478 0.6124 0.1846
H76 H -0.1778 0.5662 0.2274
H77 H 0.1100 -0.0488 0.1826
H78 H 0.0581 -0.0347 0.2334
H79 H 0.0452 -0.1621 0.1988
H80 H -0.0746 -0.0022 0.0981
H81 H 0.0281 -0.0266 0.1001
H82 H -0.0363 -0.1411 0.1156
H83 H -0.1540 -0.0010 0.1794
H84 H -0.1105 -0.1365 0.1969
H85 H -0.0976 -0.0091 0.2316
C19? C 0.4398(10) 0.3195(14) 0.1516(5)
C20? C 0.5225(8) 0.3043(17) 0.0689(7)
C21? C 0.3708(10) 0.3754(13) 0.0659(6)
C26? C 0.1580(10) 0.4408(17) 0.0321(7)
C27? C 0.1028(15) 0.2297(24) -0.0107(8)
C28? C 0.0223(9) 0.3283(20) 0.0609(6)
H30? H 0.4504 0.2354 0.1684
H31? H 0.4888 0.3783 0.1593
H32? H 0.3864 0.3583 0.1636
H33? H 0.5665 0.2627 0.0915
H34? H 0.5179 0.2565 0.0368
H35? H 0.5394 0.3949 0.0626
H36? H 0.3191 0.3905 0.0854
H37? H 0.3969 0.4595 0.0574
H38? H 0.3543 0.3282 0.0347
H48? H 0.1228 0.4962 0.0090
H49? H 0.1664 0.4849 0.0649
H50? H 0.2147 0.4249 0.0178
H51? H 0.0634 0.2790 -0.0336
H52? H 0.1608 0.2273 -0.0244
H53? H 0.0810 0.1403 -0.0072
H54? H -0.0116 0.3761 0.0347
H55? H -0.0092 0.2492 0.0701
H56? H 0.0311 0.3840 0.0908
loop_
_geom_bond_atom_site_label_1
_geom_bond_atom_site_label_2
_geom_bond_site_symmetry_1
_geom_bond_site_symmetry_2
P1 P2 1_555 1_555
P2 C29 1_555 1_555
N1 P1 1_555 1_555
C1 N1 1_555 1_555
C2 C1 1_555 1_555
C3 C2 1_555 1_555
C4 C3 1_555 1_555
C5 C4 1_555 1_555
C6 C1 1_555 1_555
C7 C2 1_555 1_555
C8 C7 1_555 1_555
C9 C7 1_555 1_555
C10 C7 1_555 1_555
C11 C4 1_555 1_555
C12 C11 1_555 1_555
C13 C11 1_555 1_555
C14 C11 1_555 1_555
C15 C6 1_555 1_555
C16 C15 1_555 1_555
C17 C15 1_555 1_555
C18 C15 1_555 1_555
C22 P1 1_555 1_555
C23 C22 1_555 1_555
C24 C22 1_555 1_555
C25 C22 1_555 1_555
C29 C30 1_555 1_555
C30 C31 1_555 1_555
C31 C32 1_555 1_555
C32 C33 1_555 1_555
C33 C34 1_555 1_555
C34 C29 1_555 1_555
C35 C30 1_555 1_555
C36 C35 1_555 1_555
C37 C35 1_555 1_555
C38 C35 1_555 1_555
C39 C32 1_555 1_555
C40 C39 1_555 1_555
C41 C39 1_555 1_555
C42 C39 1_555 1_555
C43 C34 1_555 1_555
C44 C43 1_555 1_555
C45 C43 1_555 1_555
C46 C43 1_555 1_555
H1 C3 1_555 1_555
H2 C5 1_555 1_555
H3 C8 1_555 1_555
H4 C8 1_555 1_555
H5 C8 1_555 1_555
H6 C9 1_555 1_555
H7 C9 1_555 1_555
H8 C9 1_555 1_555
H9 C10 1_555 1_555
H10 C10 1_555 1_555
H11 C10 1_555 1_555
H12 C12 1_555 1_555
H13 C12 1_555 1_555
H14 C12 1_555 1_555
H15 C13 1_555 1_555
H16 C13 1_555 1_555
H17 C13 1_555 1_555
H18 C14 1_555 1_555
H19 C14 1_555 1_555
H20 C14 1_555 1_555
H21 C16 1_555 1_555
H22 C16 1_555 1_555
H23 C16 1_555 1_555
H24 C17 1_555 1_555
H25 C17 1_555 1_555
H26 C17 1_555 1_555
H27 C18 1_555 1_555
H28 C18 1_555 1_555
H29 C18 1_555 1_555
H39 C23 1_555 1_555
H40 C23 1_555 1_555
H41 C23 1_555 1_555
H42 C24 1_555 1_555
H43 C24 1_555 1_555
H44 C24 1_555 1_555
H45 C25 1_555 1_555
H46 C25 1_555 1_555
H47 C25 1_555 1_555
H57 C31 1_555 1_555
H58 C33 1_555 1_555
H59 C36 1_555 1_555
H60 C36 1_555 1_555
H61 C36 1_555 1_555
H62 C37 1_555 1_555
H63 C37 1_555 1_555
H64 C37 1_555 1_555
H65 C38 1_555 1_555
H66 C38 1_555 1_555
H67 C38 1_555 1_555
H68 C40 1_555 1_555
H69 C40 1_555 1_555
H70 C40 1_555 1_555
H71 C41 1_555 1_555
H72 C41 1_555 1_555
H73 C41 1_555 1_555
H74 C42 1_555 1_555
H75 C42 1_555 1_555
H76 C42 1_555 1_555
H77 C44 1_555 1_555
H78 C44 1_555 1_555
H79 C44 1_555 1_555
H80 C45 1_555 1_555
H81 C45 1_555 1_555
H82 C45 1_555 1_555
H83 C46 1_555 1_555
H84 C46 1_555 1_555
H85 C46 1_555 1_555
C5 C6 1_555 1_555

#END
