
#######################################################################
#
#                 Cambridge Crystallographic Data Centre
#                                CCDC 
#
#######################################################################
#
# If this CIF has been generated from an entry in the Cambridge 
# Structural Database, then it will include bibliographic, chemical, 
# crystal, experimental, refinement or atomic coordinate data resulting 
# from the CCDC's data processing and validation procedures.
#
#######################################################################

data_HAGPIO
_chemical_formula_moiety         'C23 H16 Br2 N2 O1 S1'
_chemical_name_systematic        
2-(1-Benzoyl)ethylidene-3-(2,4-dibromophenyl)-5-phenyl-2,3-dihydro-1,3,4-thiadiazole
_symmetry_cell_setting           monoclinic
_symmetry_space_group_name_H-M   'P 21/c'
_symmetry_Int_Tables_number      14
_space_group_name_Hall           '-P 2ybc'
loop_
_symmetry_equiv_pos_site_id
_symmetry_equiv_pos_as_xyz
1 x,y,z
2 -x,1/2+y,1/2-z
3 -x,-y,-z
4 x,1/2-y,1/2+z
_cell_length_a                   17.492(4)
_cell_length_b                   16.979(1)
_cell_length_c                   14.962(1)
_cell_angle_alpha                90
_cell_angle_beta                 106.46(1)
_cell_angle_gamma                90
_cell_volume                     4261.55
_exptl_crystal_colour            'light brown'
_chemical_melting_point          199-201deg.C
_cell_formula_units_Z            8
loop_
_atom_site_label
_atom_site_type_symbol
_atom_site_fract_x
_atom_site_fract_y
_atom_site_fract_z
Br1 Br 0.19227(7) 0.48704(7) 0.37576(10)
Br2 Br 0.19769(8) 0.16801(7) 0.27568(9)
S1 S 0.4161(1) 0.5841(1) 0.5586(2)
O1 O 0.4439(3) 0.6619(3) 0.4308(3)
N1 N 0.3662(4) 0.4508(3) 0.4955(4)
N2 N 0.3647(4) 0.4462(4) 0.5882(4)
C1 C 0.3971(4) 0.5275(4) 0.7269(5)
C2 C 0.4149(5) 0.6018(6) 0.7633(8)
C3 C 0.4217(6) 0.6166(6) 0.8579(8)
C4 C 0.4146(6) 0.5573(6) 0.9146(9)
C5 C 0.3941(8) 0.4821(8) 0.8770(10)
C6 C 0.3885(6) 0.4668(6) 0.7848(8)
C7 C 0.3903(4) 0.5132(5) 0.6272(5)
C8 C 0.3261(4) 0.3858(4) 0.4395(5)
C9 C 0.2481(5) 0.3913(4) 0.3842(5)
C10 C 0.2104(5) 0.3266(5) 0.3335(6)
C11 C 0.2500(5) 0.2572(5) 0.3395(5)
C12 C 0.3285(5) 0.2496(5) 0.3948(5)
C13 C 0.3658(5) 0.3152(4) 0.4446(5)
C14 C 0.3910(4) 0.5189(4) 0.4635(6)
C15 C 0.3981(5) 0.5364(5) 0.3773(5)
C16 C 0.4232(4) 0.6149(5) 0.3640(5)
C17 C 0.4252(4) 0.6437(4) 0.2710(5)
C18 C 0.4894(5) 0.6880(4) 0.2662(6)
C19 C 0.4923(5) 0.7203(5) 0.1816(6)
C20 C 0.4311(5) 0.7068(5) 0.1023(6)
C21 C 0.3670(5) 0.6639(5) 0.1057(6)
C22 C 0.3636(5) 0.6300(5) 0.1892(6)
C23 C 0.3851(5) 0.4750(5) 0.3014(6)
H1 H 0.4237 0.6492 0.7191
H2 H 0.4327 0.6758 0.8850
H3 H 0.4246 0.5675 0.9883
H4 H 0.3827 0.4356 0.9207
H5 H 0.3773 0.4076 0.7579
H6 H 0.1499 0.3316 0.2895
H7 H 0.3597 0.1942 0.3989
H8 H 0.4267 0.3105 0.4878
H9 H 0.5380 0.6979 0.3283
H10 H 0.5426 0.7560 0.1784
H11 H 0.4343 0.7308 0.0365
H12 H 0.3182 0.6558 0.0434
H13 H 0.3136 0.5934 0.1911
H14 H 0.4136 0.4945 0.2501
H15 H 0.3220 0.4677 0.2687
H16 H 0.4105 0.4195 0.3304
Br3 Br 0.08038(9) 0.33024(7) 0.48870(11)
Br4 Br 0.36453(7) 0.15489(9) 0.61649(10)
S2 S -0.1416(2) 0.1348(2) 0.3945(2)
O2 O -0.1824(3) 0.0902(3) 0.5319(4)
N3 N 0.0052(4) 0.1648(4) 0.4468(5)
N4 N -0.0150(4) 0.1811(4) 0.3529(5)
C24 C -0.1301(5) 0.1792(5) 0.2169(6)
C25 C -0.2108(5) 0.1950(5) 0.1867(6)
C26 C -0.2471(6) 0.2048(5) 0.0910(6)
C27 C -0.2037(6) 0.1993(5) 0.0307(8)
C28 C -0.1240(6) 0.1832(5) 0.0579(8)
C29 C -0.0862(6) 0.1728(5) 0.1535(6)
C30 C -0.0894(5) 0.1681(5) 0.3177(6)
C31 C 0.0899(5) 0.1633(5) 0.4912(6)
C32 C 0.1331(5) 0.2325(5) 0.5123(6)
C33 C 0.2153(5) 0.2306(5) 0.5518(6)
C34 C 0.2520(5) 0.1588(5) 0.5674(6)
C35 C 0.2113(6) 0.0893(6) 0.5463(6)
C36 C 0.1286(5) 0.0919(6) 0.5088(6)
C37 C -0.0523(5) 0.1410(5) 0.4862(6)
C38 C -0.0477(5) 0.1240(5) 0.5762(6)
C39 C -0.1178(6) 0.0959(5) 0.5968(8)
C40 C -0.1182(5) 0.0720(5) 0.6902(6)
C41 C -0.1820(6) 0.0922(6) 0.7235(8)
C42 C -0.1855(8) 0.0699(8) 0.8112(9)
C43 C -0.1270(8) 0.0248(6) 0.8666(9)
C44 C -0.0630(6) 0.0013(6) 0.8364(8)
C45 C -0.0593(6) 0.0244(6) 0.7482(8)
C46 C 0.0252(6) 0.1471(6) 0.6559(8)
H17 H -0.2454 0.1995 0.2359
H18 H -0.3102 0.2168 0.0660
H19 H -0.2329 0.2080 -0.0425
H20 H -0.0908 0.1785 0.0073
H21 H -0.0232 0.1600 0.1774
H22 H 0.2493 0.2843 0.5697
H23 H 0.2424 0.0336 0.5588
H24 H 0.0950 0.0378 0.4934
H25 H -0.2304 0.1263 0.6796
H26 H -0.2350 0.0885 0.8357
H27 H -0.1307 0.0071 0.9345
H28 H -0.0162 -0.0343 0.8805
H29 H -0.0100 0.0049 0.7238
H30 H 0.0073 0.1503 0.7191
H31 H 0.0474 0.2038 0.6420
H32 H 0.0716 0.1034 0.6639
loop_
_geom_bond_atom_site_label_1
_geom_bond_atom_site_label_2
_geom_bond_site_symmetry_1
_geom_bond_site_symmetry_2
Br1 C9 1_555 1_555
Br2 C11 1_555 1_555
S1 C7 1_555 1_555
O1 C16 1_555 1_555
N1 N2 1_555 1_555
N2 C7 1_555 1_555
C1 C2 1_555 1_555
C2 C3 1_555 1_555
C3 C4 1_555 1_555
C4 C5 1_555 1_555
C5 C6 1_555 1_555
C6 C1 1_555 1_555
C7 C1 1_555 1_555
C8 N1 1_555 1_555
C9 C8 1_555 1_555
C10 C9 1_555 1_555
C11 C10 1_555 1_555
C12 C11 1_555 1_555
C13 C8 1_555 1_555
C14 S1 1_555 1_555
C15 C14 1_555 1_555
C16 C15 1_555 1_555
C17 C16 1_555 1_555
C18 C17 1_555 1_555
C19 C18 1_555 1_555
C20 C19 1_555 1_555
C21 C20 1_555 1_555
C22 C17 1_555 1_555
C23 C15 1_555 1_555
H1 C2 1_555 1_555
H2 C3 1_555 1_555
H3 C4 1_555 1_555
H4 C5 1_555 1_555
H5 C6 1_555 1_555
H6 C10 1_555 1_555
H7 C12 1_555 1_555
H8 C13 1_555 1_555
H9 C18 1_555 1_555
H10 C19 1_555 1_555
H11 C20 1_555 1_555
H12 C21 1_555 1_555
H13 C22 1_555 1_555
H14 C23 1_555 1_555
H15 C23 1_555 1_555
H16 C23 1_555 1_555
Br3 C32 1_555 1_555
Br4 C34 1_555 1_555
S2 C30 1_555 1_555
O2 C39 1_555 1_555
N3 N4 1_555 1_555
N4 C30 1_555 1_555
C24 C25 1_555 1_555
C25 C26 1_555 1_555
C26 C27 1_555 1_555
C27 C28 1_555 1_555
C28 C29 1_555 1_555
C29 C24 1_555 1_555
C30 C24 1_555 1_555
C31 N3 1_555 1_555
C32 C31 1_555 1_555
C33 C32 1_555 1_555
C34 C33 1_555 1_555
C35 C34 1_555 1_555
C36 C31 1_555 1_555
C37 S2 1_555 1_555
C38 C37 1_555 1_555
C39 C38 1_555 1_555
C40 C39 1_555 1_555
C41 C40 1_555 1_555
C42 C41 1_555 1_555
C43 C42 1_555 1_555
C44 C43 1_555 1_555
C45 C40 1_555 1_555
C46 C38 1_555 1_555
H17 C25 1_555 1_555
H18 C26 1_555 1_555
H19 C27 1_555 1_555
H20 C28 1_555 1_555
H21 C29 1_555 1_555
H22 C33 1_555 1_555
H23 C35 1_555 1_555
H24 C36 1_555 1_555
H25 C41 1_555 1_555
H26 C42 1_555 1_555
H27 C43 1_555 1_555
H28 C44 1_555 1_555
H29 C45 1_555 1_555
H30 C46 1_555 1_555
H31 C46 1_555 1_555
H32 C46 1_555 1_555
N1 C14 1_555 1_555
C12 C13 1_555 1_555
C21 C22 1_555 1_555
N3 C37 1_555 1_555
C35 C36 1_555 1_555
C44 C45 1_555 1_555

#END
