
#######################################################################
#
#                 Cambridge Crystallographic Data Centre
#                                CCDC 
#
#######################################################################
#
# If this CIF has been generated from an entry in the Cambridge 
# Structural Database, then it will include bibliographic, chemical, 
# crystal, experimental, refinement or atomic coordinate data resulting 
# from the CCDC's data processing and validation procedures.
#
#######################################################################

data_HAGXIW
_chemical_formula_moiety         'C12 H28 N1 1+,H4 B5 O10 1-,2(H3 B1 O3)'
_chemical_name_systematic        
'Tri-n-butylammonium tetrahydroxypentaborate diboric acid'
_symmetry_cell_setting           monoclinic
_symmetry_space_group_name_H-M   'P 21/c'
_symmetry_Int_Tables_number      14
_space_group_name_Hall           '-P 2ybc'
loop_
_symmetry_equiv_pos_site_id
_symmetry_equiv_pos_as_xyz
1 x,y,z
2 -x,1/2+y,1/2-z
3 -x,-y,-z
4 x,1/2-y,1/2+z
_cell_length_a                   13.943(3)
_cell_length_b                   12.179(1)
_cell_length_c                   16.985(2)
_cell_angle_alpha                90
_cell_angle_beta                 105.68(1)
_cell_angle_gamma                90
_cell_volume                     2776.92
_cell_formula_units_Z            4
loop_
_atom_site_label
_atom_site_type_symbol
_atom_site_fract_x
_atom_site_fract_y
_atom_site_fract_z
O1 O 0.1771(2) -0.0055(2) 0.1957(1)
O2 O 0.2827(2) 0.1531(2) 0.2050(1)
O3 O 0.3316(2) 0.0063(2) 0.2998(1)
O4 O 0.1928(2) 0.1213(2) 0.3046(1)
O5 O 0.0514(2) -0.0371(3) 0.0752(2)
O6 O 0.2711(2) 0.2616(3) 0.0890(2)
O7 O 0.1553(2) 0.1173(2) 0.0828(1)
O8 O 0.4593(2) -0.0214(3) 0.4196(2)
O9 O 0.1813(3) 0.1904(4) 0.4302(2)
O10 O 0.3215(2) 0.0856(2) 0.4257(1)
B1 B 0.2453(2) 0.0694(3) 0.2510(2)
B2 B 0.1277(3) 0.0254(4) 0.1192(2)
B3 B 0.2363(3) 0.1768(4) 0.1260(3)
B4 B 0.3701(3) 0.0243(4) 0.3804(2)
B5 B 0.2316(3) 0.1330(4) 0.3858(2)
H1 H 0.033(4) 0.035(5) 0.038(3)
H2 H 0.248(5) 0.278(6) 0.044(4)
B6 B 0.4931(4) -0.1966(4) 0.2611(3)
O11 O 0.5277(3) -0.2783(3) 0.2235(2)
O12 O 0.3988(2) -0.1627(3) 0.2248(2)
O13 O 0.5479(2) -0.1514(3) 0.3322(2)
H5 H 0.580(4) -0.297(5) 0.242(3)
H6 H 0.376(3) -0.110(4) 0.241(3)
H7 H 0.574(5) -0.170(7) 0.359(5)
B7 B 0.0409(4) -0.2407(5) 0.2307(3)
O14 O 0.0080(3) -0.3245(3) 0.2678(2)
O15 O -0.0109(3) -0.2046(3) 0.1548(2)
O16 O 0.1297(2) -0.1947(3) 0.2700(2)
H8 H -0.055(5) -0.340(6) 0.249(4)
H9 H -0.045(5) -0.225(7) 0.132(5)
H10 H 0.146(5) -0.136(6) 0.255(4)
N1 N 0.7064(3) 0.1928(3) 0.3997(2)
C1 C 0.6911(4) 0.0850(4) 0.3537(3)
C2 C 0.7462(4) 0.0794(5) 0.2884(3)
C3 C 0.7153(5) -0.0217(5) 0.2344(4)
C4 C 0.7755(7) -0.0346(9) 0.1731(5)
C5 C 0.8138(4) 0.2187(5) 0.4410(3)
C6 C 0.8619(4) 0.1416(5) 0.5094(3)
C7 C 0.9699(4) 0.1733(7) 0.5456(4)
C8 C 1.0248(6) 0.0904(9) 0.6096(5)
C9 C 0.6400(4) 0.1994(5) 0.4553(3)
C10 C 0.6440(6) 0.3121(7) 0.4969(5)
C11 C 0.5685(7) 0.3255(8) 0.5433(6)
C12 C 0.4672(8) 0.3341(11) 0.4911(9)
H11 H 0.682(3) 0.240(4) 0.362(2)
H12 H 0.610(4) 0.082(4) 0.329(3)
H13 H 0.716(4) 0.015(4) 0.405(3)
H14 H 0.830(3) 0.079(4) 0.320(3)
H15 H 0.725(3) 0.137(4) 0.248(3)
H16 H 0.634(4) -0.019(4) 0.198(3)
H17 H 0.725(4) -0.079(5) 0.274(3)
H18 H 0.734(9) -0.077(10) 0.132(8)
H19 H 0.766(6) 0.026(7) 0.134(6)
H20 H 0.844(6) -0.036(6) 0.197(5)
H21 H 0.815(3) 0.303(4) 0.461(2)
H22 H 0.845(3) 0.225(4) 0.400(3)
H23 H 0.857(3) 0.073(4) 0.490(3)
H24 H 0.825(3) 0.152(4) 0.558(3)
H25 H 0.974(6) 0.261(7) 0.586(5)
H26 H 1.003(5) 0.159(5) 0.497(4)
H27 H 1.102(5) 0.095(5) 0.627(4)
H28 H 1.003(6) 0.109(7) 0.660(5)
H29 H 1.020(5) 0.008(6) 0.601(4)
H30 H 0.661(3) 0.140(4) 0.498(3)
H31 H 0.578(3) 0.183(4) 0.422(3)
H32 H 0.638(4) 0.373(4) 0.455(3)
H33 H 0.714(5) 0.317(5) 0.544(4)
H35 H 0.579(6) 0.246(8) 0.591(6)
H37 H 0.419(14) 0.266(17) 0.470(12)
H38 H 0.477(6) 0.390(7) 0.439(5)
H3? H 0.475(6) -0.031(7) 0.447(4)
H4? H 0.184(6) 0.216(6) 0.447(5)
H34? H 0.562(8) 0.418(10) 0.592(6)
H36? H 0.466(8) 0.394(9) 0.555(7)
loop_
_geom_bond_atom_site_label_1
_geom_bond_atom_site_label_2
_geom_bond_site_symmetry_1
_geom_bond_site_symmetry_2
O1 B1 1_555 1_555
O2 B1 1_555 1_555
O3 B1 1_555 1_555
O4 B1 1_555 1_555
O5 B2 1_555 1_555
O6 B3 1_555 1_555
O7 B2 1_555 1_555
O8 B4 1_555 1_555
O9 B5 1_555 1_555
O10 B4 1_555 1_555
B2 O1 1_555 1_555
B3 O2 1_555 1_555
B4 O3 1_555 1_555
B5 O4 1_555 1_555
B6 O11 1_555 1_555
O11 H5 1_555 1_555
O12 B6 1_555 1_555
O13 B6 1_555 1_555
B7 O14 1_555 1_555
O14 H8 1_555 1_555
O15 B7 1_555 1_555
O16 B7 1_555 1_555
N1 C1 1_555 1_555
C1 C2 1_555 1_555
C2 C3 1_555 1_555
C3 C4 1_555 1_555
C4 H18 1_555 1_555
C5 N1 1_555 1_555
C6 C5 1_555 1_555
C7 C6 1_555 1_555
C8 C7 1_555 1_555
C9 N1 1_555 1_555
C10 C9 1_555 1_555
C11 C10 1_555 1_555
C12 C11 1_555 1_555
H1 O5 1_555 1_555
H2 O6 1_555 1_555
H6 O12 1_555 1_555
H7 O13 1_555 1_555
H9 O15 1_555 1_555
H10 O16 1_555 1_555
H11 N1 1_555 1_555
H12 C1 1_555 1_555
H13 C1 1_555 1_555
H14 C2 1_555 1_555
H15 C2 1_555 1_555
H16 C3 1_555 1_555
H17 C3 1_555 1_555
H19 C4 1_555 1_555
H20 C4 1_555 1_555
H21 C5 1_555 1_555
H22 C5 1_555 1_555
H23 C6 1_555 1_555
H24 C6 1_555 1_555
H25 C7 1_555 1_555
H26 C7 1_555 1_555
H27 C8 1_555 1_555
H28 C8 1_555 1_555
H29 C8 1_555 1_555
H30 C9 1_555 1_555
H31 C9 1_555 1_555
H32 C10 1_555 1_555
H33 C10 1_555 1_555
H35 C11 1_555 1_555
H37 C12 1_555 1_555
H38 C12 1_555 1_555
O7 B3 1_555 1_555
O10 B5 1_555 1_555

#END
