
#######################################################################
#
#                 Cambridge Crystallographic Data Centre
#                                CCDC 
#
#######################################################################
#
# If this CIF has been generated from an entry in the Cambridge 
# Structural Database, then it will include bibliographic, chemical, 
# crystal, experimental, refinement or atomic coordinate data resulting 
# from the CCDC's data processing and validation procedures.
#
#######################################################################

data_HAHDAV
_chemical_formula_moiety         'C24 H27 N3 O3'
_chemical_name_systematic        5,13,21-Trimethoxy(2~3~)(2,6)pyridinophane
_symmetry_cell_setting           orthorhombic
_symmetry_space_group_name_H-M   'P c a 21'
_symmetry_Int_Tables_number      29
_space_group_name_Hall           'P 2c -2ac'
loop_
_symmetry_equiv_pos_site_id
_symmetry_equiv_pos_as_xyz
1 x,y,z
2 1/2-x,y,1/2+z
3 1/2+x,-y,z
4 -x,-y,1/2+z
_cell_length_a                   28.544(2)
_cell_length_b                   8.158(1)
_cell_length_c                   9.157(1)
_cell_angle_alpha                90
_cell_angle_beta                 90
_cell_angle_gamma                90
_cell_volume                     2132.32
_exptl_crystal_colour            colorless
_chemical_melting_point          171deg.C
_cell_formula_units_Z            4
loop_
_atom_site_label
_atom_site_type_symbol
_atom_site_fract_x
_atom_site_fract_y
_atom_site_fract_z
C1 C 0.50078(8) 0.3341(3) 0.0485(3)
C2 C 0.52280(7) 0.3406(3) -0.1050(3)
C3 C 0.57266(7) 0.4018(2) -0.1021(2)
C4 C 0.58236(7) 0.5639(2) -0.1383(2)
C5 C 0.62830(8) 0.6152(2) -0.1301(3)
C6 C 0.66290(7) 0.5051(3) -0.0857(3)
C7 C 0.64984(7) 0.3462(2) -0.0500(2)
N1 N 0.60541(6) 0.2935(2) -0.0595(2)
C8 C 0.68493(8) 0.2193(3) 0.0013(3)
C9 C 0.72420(7) 0.2861(3) 0.0974(3)
C10 C 0.70595(6) 0.3699(2) 0.2327(2)
C11 C 0.71574(7) 0.5348(3) 0.2597(3)
C12 C 0.69657(8) 0.6065(2) 0.3831(3)
C13 C 0.66924(8) 0.5115(3) 0.4773(3)
C14 C 0.66197(7) 0.3475(2) 0.4425(2)
N2 N 0.68005(5) 0.2772(2) 0.3225(2)
C15 C 0.63332(8) 0.2391(3) 0.5413(2)
C16 C 0.58047(8) 0.2487(3) 0.5101(3)
C17 C 0.56497(6) 0.1777(2) 0.3654(2)
C18 C 0.57360(7) 0.0134(2) 0.3324(2)
C19 C 0.55487(7) -0.0502(2) 0.2045(2)
C20 C 0.52867(7) 0.0512(2) 0.1143(2)
C21 C 0.52456(7) 0.2155(2) 0.1515(3)
N3 N 0.54141(6) 0.2788(2) 0.2763(2)
O1 O 0.64374(7) 0.7696(2) -0.1617(3)
C22 C 0.6097(1) 0.8881(3) -0.2025(4)
O2 O 0.70244(8) 0.7659(2) 0.4241(3)
C23 C 0.7278(1) 0.8708(3) 0.3261(6)
O3 O 0.55979(5) -0.2075(2) 0.1578(2)
C24 C 0.59314(9) -0.3089(3) 0.2322(3)
H1 H 0.5027 0.4462 0.0942
H2 H 0.4672 0.3019 0.0395
H3 H 0.5228 0.2289 -0.1490
H4 H 0.5040 0.4167 -0.1683
H5 H 0.5565 0.6400 -0.1692
H6 H 0.6968 0.5396 -0.0810
H7 H 0.6992 0.1661 -0.0863
H8 H 0.6676 0.1342 0.0597
H9 H 0.7428 0.3673 0.0377
H10 H 0.7452 0.1938 0.1264
H11 H 0.7359 0.5993 0.1907
H12 H 0.6550 0.5597 0.5683
H13 H 0.6393 0.2719 0.6445
H14 H 0.6438 0.127 0.5264
H15 H 0.5710 0.3665 0.5134
H16 H 0.5638 0.1879 0.5906
H17 H 0.5932 -0.0571 0.3984
H18 H 0.5130 0.0051 0.0244
H19 H 0.6249 0.9969 -0.2239
H20 H 0.5924 0.8513 -0.2925
H21 H 0.5863 0.9039 -0.1215
H22 H 0.7296 0.9859 0.3696
H23 H 0.7602 0.8295 0.3118
H24 H 0.7111 0.8781 0.2308
H25 H 0.5938 -0.4211 0.1861
H26 H 0.6258 -0.2597 0.2206
H27 H 0.5857 -0.3178 0.3368
loop_
_geom_bond_atom_site_label_1
_geom_bond_atom_site_label_2
_geom_bond_site_symmetry_1
_geom_bond_site_symmetry_2
C1 C2 1_555 1_555
C2 C3 1_555 1_555
C3 C4 1_555 1_555
C4 C5 1_555 1_555
C5 C6 1_555 1_555
C6 C7 1_555 1_555
C7 N1 1_555 1_555
N1 C3 1_555 1_555
C8 C7 1_555 1_555
C9 C8 1_555 1_555
C10 C9 1_555 1_555
C11 C10 1_555 1_555
C12 C11 1_555 1_555
C13 C12 1_555 1_555
C14 C13 1_555 1_555
N2 C10 1_555 1_555
C15 C14 1_555 1_555
C16 C15 1_555 1_555
C17 C16 1_555 1_555
C18 C17 1_555 1_555
C19 C18 1_555 1_555
C20 C19 1_555 1_555
C21 C1 1_555 1_555
N3 C17 1_555 1_555
O1 C5 1_555 1_555
C22 O1 1_555 1_555
O2 C12 1_555 1_555
C23 O2 1_555 1_555
O3 C19 1_555 1_555
C24 O3 1_555 1_555
H1 C1 1_555 1_555
H2 C1 1_555 1_555
H3 C2 1_555 1_555
H4 C2 1_555 1_555
H5 C4 1_555 1_555
H6 C6 1_555 1_555
H7 C8 1_555 1_555
H8 C8 1_555 1_555
H9 C9 1_555 1_555
H10 C9 1_555 1_555
H11 C11 1_555 1_555
H12 C13 1_555 1_555
H13 C15 1_555 1_555
H14 C15 1_555 1_555
H15 C16 1_555 1_555
H16 C16 1_555 1_555
H17 C18 1_555 1_555
H18 C20 1_555 1_555
H19 C22 1_555 1_555
H20 C22 1_555 1_555
H21 C22 1_555 1_555
H22 C23 1_555 1_555
H23 C23 1_555 1_555
H24 C23 1_555 1_555
H25 C24 1_555 1_555
H26 C24 1_555 1_555
H27 C24 1_555 1_555
C14 N2 1_555 1_555
C20 C21 1_555 1_555
C21 N3 1_555 1_555

#END
