
#######################################################################
#
#                 Cambridge Crystallographic Data Centre
#                                CCDC 
#
#######################################################################
#
# If this CIF has been generated from an entry in the Cambridge 
# Structural Database, then it will include bibliographic, chemical, 
# crystal, experimental, refinement or atomic coordinate data resulting 
# from the CCDC's data processing and validation procedures.
#
#######################################################################

data_HAHSUH
_chemical_formula_moiety         'C26 H21 O3 P1'
_chemical_name_systematic        
'3-phenyl-10,17-dioxa-3-phosphatricyclo[16.3.1.1^5,9^]tricosa-1(22),5(23),6,8,18,20-hexaene-12,14-diyne 3-oxide'
_symmetry_cell_setting           triclinic
_symmetry_space_group_name_H-M   'P -1'
_symmetry_Int_Tables_number      2
_space_group_name_Hall           '-P 1'
loop_
_symmetry_equiv_pos_site_id
_symmetry_equiv_pos_as_xyz
1 x,y,z
2 -x,-y,-z
_cell_length_a                   5.3288(5)
_cell_length_b                   9.1460(9)
_cell_length_c                   21.938(2)
_cell_angle_alpha                79.7870(10)
_cell_angle_beta                 89.3260(10)
_cell_angle_gamma                86.9800(10)
_cell_volume                     1050.79
_exptl_crystal_colour            pink
_exptl_crystal_description       block
_cell_formula_units_Z            2
loop_
_atom_site_label
_atom_site_type_symbol
_atom_site_fract_x
_atom_site_fract_y
_atom_site_fract_z
C1 C 0.5207(3) 0.8596(2) 0.15964(9)
H1 H 0.3870 0.8077 0.1786
C2 C 0.6792(3) 0.9283(2) 0.19457(9)
C3 C 0.8726(4) 1.0087(2) 0.16512(10)
H2 H 0.9799 1.0552 0.1879
C4 C 0.9063(4) 1.0199(3) 0.10198(11)
H3 H 1.0346 1.0757 0.0824
C5 C 0.7512(4) 0.9491(3) 0.06743(10)
H4 H 0.7757 0.9562 0.0250
C6 C 0.5613(4) 0.8684(2) 0.09679(9)
C7 C 0.8394(4) 0.4473(2) 0.29941(9)
C8 C 0.7700(5) 0.3396(3) 0.34809(11)
H5 H 0.6383 0.3597 0.3740
C9 C 0.8970(6) 0.2012(3) 0.35826(11)
H6 H 0.8519 0.1299 0.3917
C10 C 1.0874(5) 0.1679(2) 0.31990(11)
H7 H 1.1690 0.0741 0.3266
C11 C 1.1570(4) 0.2752(2) 0.27102(10)
C12 C 1.0389(4) 0.4156(2) 0.26175(9)
H8 H 1.0931 0.4890 0.2302
C13 C 0.4998(4) 0.7164(3) 0.02023(10)
H9 H 0.5646 0.7870 -0.0138
H10 H 0.3695 0.6638 0.0041
C14 C 0.7028(4) 0.6100(3) 0.04601(10)
C15 C 0.8688(4) 0.5310(2) 0.07121(10)
C16 C 1.0628(4) 0.4480(2) 0.10349(10)
C17 C 1.2284(4) 0.3868(2) 0.13611(11)
C18 C 1.4242(4) 0.3285(3) 0.18143(11)
H11 H 1.5571 0.2789 0.1609
H12 H 1.4956 0.4113 0.1961
C19 C 0.6932(3) 0.5941(2) 0.28309(9)
H13 H 0.5303 0.5850 0.3032
H14 H 0.6643 0.6138 0.2387
C20 C 0.6467(4) 0.9097(2) 0.26365(9)
H15 H 0.4713 0.8951 0.2741
H16 H 0.6929 0.9997 0.2774
C21 C 0.769(2) 0.7540(15) 0.3817(7)
C22 C 0.5499(10) 0.7288(13) 0.4126(3)
H17 H 0.4096 0.7128 0.3903
C23 C 0.5229(15) 0.7256(15) 0.4773(4)
H18 H 0.3668 0.7075 0.4957
C24 C 0.712(2) 0.7476(17) 0.5120(6)
H19 H 0.6973 0.7358 0.5549
C25 C 0.9273(15) 0.7874(11) 0.4831(3)
H20 H 1.0546 0.8206 0.5050
C26 C 0.9625(10) 0.7801(9) 0.4217(2)
H21 H 1.1231 0.7930 0.4053
O1 O 1.1097(2) 0.75679(16) 0.28922(7)
O2 O 0.3945(3) 0.79460(18) 0.06611(7)
O3 O 1.3398(3) 0.22754(17) 0.23313(7)
P1 P 0.83761(8) 0.75281(5) 0.30389(2)
C27? C 0.790(2) 0.7428(16) 0.3884(6)
C28? C 0.6187(12) 0.8361(8) 0.4085(3)
H22? H 0.5207 0.9022 0.3802
C29? C 0.5876(18) 0.8344(10) 0.4707(4)
H23? H 0.4689 0.8989 0.4848
C30? C 0.726(3) 0.741(2) 0.5100(7)
H24? H 0.7102 0.7424 0.5522
C31? C 0.898(2) 0.6398(13) 0.4898(4)
H25? H 0.9889 0.5696 0.5181
C32? C 0.9309(15) 0.6456(10) 0.4264(3)
H26? H 1.0493 0.5824 0.4113
loop_
_geom_bond_atom_site_label_1
_geom_bond_atom_site_label_2
_geom_bond_site_symmetry_1
_geom_bond_site_symmetry_2
C1 H1 1_555 1_555
C2 C1 1_555 1_555
C3 C2 1_555 1_555
H2 C3 1_555 1_555
C4 C3 1_555 1_555
H3 C4 1_555 1_555
C5 C4 1_555 1_555
H4 C5 1_555 1_555
C6 C1 1_555 1_555
C7 C8 1_555 1_555
C8 H5 1_555 1_555
C9 C8 1_555 1_555
H6 C9 1_555 1_555
C10 C9 1_555 1_555
H7 C10 1_555 1_555
C11 C10 1_555 1_555
C12 C7 1_555 1_555
H8 C12 1_555 1_555
C13 H9 1_555 1_555
H10 C13 1_555 1_555
C14 C13 1_555 1_555
C15 C14 1_555 1_555
C16 C15 1_555 1_555
C17 C16 1_555 1_555
C18 C17 1_555 1_555
H11 C18 1_555 1_555
H12 C18 1_555 1_555
C19 C7 1_555 1_555
H13 C19 1_555 1_555
H14 C19 1_555 1_555
C20 C2 1_555 1_555
H15 C20 1_555 1_555
H16 C20 1_555 1_555
C21 C22 1_555 1_555
C22 H17 1_555 1_555
C23 C22 1_555 1_555
H18 C23 1_555 1_555
C24 C23 1_555 1_555
H19 C24 1_555 1_555
C25 C24 1_555 1_555
H20 C25 1_555 1_555
C26 C21 1_555 1_555
H21 C26 1_555 1_555
O1 P1 1_555 1_555
O2 C6 1_555 1_555
O3 C11 1_555 1_555
P1 C19 1_555 1_555
C5 C6 1_555 1_555
C11 C12 1_555 1_555
C13 O2 1_555 1_555
C18 O3 1_555 1_555
C20 P1 1_555 1_555
C21 P1 1_555 1_555
C25 C26 1_555 1_555

#END
