
#######################################################################
#
#                 Cambridge Crystallographic Data Centre
#                                CCDC 
#
#######################################################################
#
# If this CIF has been generated from an entry in the Cambridge 
# Structural Database, then it will include bibliographic, chemical, 
# crystal, experimental, refinement or atomic coordinate data resulting 
# from the CCDC's data processing and validation procedures.
#
#######################################################################

data_HAJFUV
_chemical_formula_moiety         'C9 H9 N2 1+,H1 O4 S1 1-'
_chemical_name_systematic        '2-Phenylimidazolium hydrogen sulfate'
_symmetry_cell_setting           triclinic
_symmetry_space_group_name_H-M   'P -1'
_symmetry_Int_Tables_number      2
_space_group_name_Hall           '-P 1'
loop_
_symmetry_equiv_pos_site_id
_symmetry_equiv_pos_as_xyz
1 x,y,z
2 -x,-y,-z
_cell_length_a                   4.481(5)
_cell_length_b                   9.300(5)
_cell_length_c                   13.014(5)
_cell_angle_alpha                93.829(5)
_cell_angle_beta                 99.633(5)
_cell_angle_gamma                102.739(5)
_cell_volume                     518.488
_exptl_crystal_colour            colorless
_exptl_crystal_description       sheet
_cell_formula_units_Z            2
loop_
_atom_site_label
_atom_site_type_symbol
_atom_site_fract_x
_atom_site_fract_y
_atom_site_fract_z
C1 C 0.5613(6) 0.2783(2) 0.06308(17)
H1 H 0.4846 0.3285 0.0090
C2 C 0.4376(6) 0.1397(2) 0.08124(18)
H2 H 0.2593 0.0753 0.0425
C3 C 0.8588(5) 0.2298(2) 0.20287(16)
C4 C 1.1028(5) 0.2445(2) 0.29444(16)
C5 C 1.0912(6) 0.1350(3) 0.3620(2)
H3 H 0.9312 0.0495 0.3471
C6 C 1.3148(7) 0.1525(3) 0.4506(2)
H4 H 1.3042 0.0795 0.4962
C7 C 1.5565(7) 0.2781(4) 0.4724(2)
H5 H 1.7082 0.2895 0.5326
C8 C 1.5716(6) 0.3860(3) 0.4051(2)
H6 H 1.7354 0.4699 0.4193
C9 C 1.3471(5) 0.3707(2) 0.31718(18)
H7 H 1.3577 0.4447 0.2724
N1 N 0.6257(4) 0.11178(18) 0.16798(15)
N2 N 0.8195(4) 0.33223(18) 0.13839(14)
H8 H 0.936(5) 0.4194(16) 0.140(2)
H9 H 0.577(7) 0.0283(19) 0.195(2)
O1 O 1.1560(5) 0.61693(17) 0.14179(14)
O2 O 0.9321(4) 0.7087(2) 0.27859(15)
O3 O 1.0100(4) 0.85191(19) 0.13283(14)
O4 O 1.4461(3) 0.82796(17) 0.25806(13)
S1 S 1.14309(12) 0.75412(5) 0.19663(4)
H10 H 0.777(4) 0.741(3) 0.274(2)
loop_
_geom_bond_atom_site_label_1
_geom_bond_atom_site_label_2
_geom_bond_site_symmetry_1
_geom_bond_site_symmetry_2
C1 H1 1_555 1_555
C2 C1 1_555 1_555
H2 C2 1_555 1_555
C3 C4 1_555 1_555
C4 C5 1_555 1_555
C5 H3 1_555 1_555
C6 C5 1_555 1_555
H4 C6 1_555 1_555
C7 C6 1_555 1_555
H5 C7 1_555 1_555
C8 C7 1_555 1_555
H6 C8 1_555 1_555
C9 C4 1_555 1_555
H7 C9 1_555 1_555
N1 C2 1_555 1_555
N2 C1 1_555 1_555
H8 N2 1_555 1_555
H9 N1 1_555 1_555
O1 S1 1_555 1_555
O2 S1 1_555 1_555
O3 S1 1_555 1_555
O4 S1 1_555 1_555
H10 O2 1_555 1_555
C3 N1 1_555 1_555
C3 N2 1_555 1_555
C8 C9 1_555 1_555

#END
