
#######################################################################
#
#                 Cambridge Crystallographic Data Centre
#                                CCDC 
#
#######################################################################
#
# If this CIF has been generated from an entry in the Cambridge 
# Structural Database, then it will include bibliographic, chemical, 
# crystal, experimental, refinement or atomic coordinate data resulting 
# from the CCDC's data processing and validation procedures.
#
#######################################################################

data_HAJGAD
_chemical_formula_moiety         'C19 H27 N1 O3 S1'
_chemical_name_systematic        
6-butyl-2-((4-methylphenyl)sulfonyl)octahydro-5H-isoindol-5-one
_symmetry_cell_setting           monoclinic
_symmetry_space_group_name_H-M   'C 2/c'
_symmetry_Int_Tables_number      15
_space_group_name_Hall           '-C 2yn'
loop_
_symmetry_equiv_pos_site_id
_symmetry_equiv_pos_as_xyz
1 x,y,z
2 -x,y,1/2-z
3 1/2+x,1/2+y,z
4 1/2-x,1/2+y,1/2-z
5 -x,-y,-z
6 x,-y,1/2+z
7 1/2-x,1/2-y,-z
8 1/2+x,1/2-y,1/2+z
_cell_length_a                   28.7207(9)
_cell_length_b                   12.1769(3)
_cell_length_c                   10.4303(3)
_cell_angle_alpha                90
_cell_angle_beta                 97.444(2)
_cell_angle_gamma                90
_cell_volume                     3617.04
_exptl_crystal_colour            colorless
_exptl_crystal_description       plate
_cell_formula_units_Z            8
loop_
_atom_site_label
_atom_site_type_symbol
_atom_site_fract_x
_atom_site_fract_y
_atom_site_fract_z
S1 S 0.84107(2) 0.61628(5) 0.50344(5)
O1 O 0.86029(6) 0.72450(13) 0.49459(15)
O2 O 0.82914(6) 0.55149(13) 0.38912(14)
O3 O 0.67445(6) 0.68579(13) 0.98014(14)
N1 N 0.79305(6) 0.63008(14) 0.56773(17)
C1 C 0.76436(8) 0.53193(18) 0.5863(2)
H1 H 0.7823 0.4771 0.6391
H2 H 0.7516 0.4994 0.5043
C2 C 0.72614(8) 0.58169(18) 0.6555(2)
H3 H 0.7059 0.6265 0.5931
C3 C 0.75428(8) 0.65857(17) 0.7509(2)
H4 H 0.7723 0.6137 0.8177
C4 C 0.78868(8) 0.71290(18) 0.6713(2)
H5 H 0.7764 0.7819 0.6349
H6 H 0.8187 0.7260 0.7231
C5 C 0.69533(9) 0.5068(2) 0.7219(2)
H7 H 0.7141 0.4650 0.7889
H8 H 0.6791 0.4557 0.6602
C6 C 0.65876(10) 0.5803(2) 0.7831(3)
H9 H 0.6398 0.6197 0.7128
C7 C 0.68504(8) 0.66553(19) 0.8732(2)
C8 C 0.72174(8) 0.73270(18) 0.8166(2)
H10 H 0.7400 0.7742 0.8848
H11 H 0.7064 0.7844 0.7541
C9 C 0.62546(11) 0.5129(2) 0.8554(3)
H12 H 0.6437 0.4780 0.9290
H13 H 0.6036 0.5627 0.8887
C10 C 0.59743(11) 0.4245(3) 0.7756(3)
H14 H 0.6193 0.3739 0.7433
H15 H 0.5794 0.3834 0.8319
C11 C 0.56419(13) 0.4671(3) 0.6623(4)
H16 H 0.5818 0.5093 0.6060
H17 H 0.5414 0.5157 0.6938
C12 C 0.53830(16) 0.3735(4) 0.5850(5)
H18 H 0.5160 0.4036 0.5177
H19 H 0.5222 0.3293 0.6415
H20 H 0.5605 0.3289 0.5473
C13 C 0.88022(7) 0.53841(19) 0.6112(2)
C14 C 0.90908(8) 0.5906(2) 0.7106(2)
H21 H 0.9094 0.6668 0.7169
C15 C 0.93729(8) 0.5276(2) 0.8001(2)
H22 H 0.9565 0.5623 0.8665
C16 C 0.93744(8) 0.4133(2) 0.7927(2)
C17 C 0.90900(8) 0.3633(2) 0.6917(2)
H23 H 0.9091 0.2872 0.6844
C18 C 0.88034(8) 0.42493(19) 0.6010(2)
H24 H 0.8614 0.3902 0.5341
C19 C 0.96736(9) 0.3455(3) 0.8924(3)
H25 H 0.9990 0.3726 0.9023
H26 H 0.9670 0.2702 0.8649
H27 H 0.9551 0.3505 0.9736
H28? H 0.7146 0.4449 0.7546
H29? H 0.6716 0.4782 0.6557
C20? C 0.6698(3) 0.5470(7) 0.8324(9)
H30? H 0.6703 0.4953 0.9045
C21? C 0.6215(4) 0.5604(9) 0.7510(11)
H31? H 0.6252 0.6016 0.6733
H32? H 0.6011 0.6023 0.8000
C22? C 0.5980(4) 0.4483(9) 0.7123(13)
H33? H 0.6177 0.4078 0.6599
H34? H 0.5957 0.4057 0.7898
C23? C 0.5248(7) 0.3509(15) 0.598(2)
H35? H 0.5477 0.3001 0.5741
H36? H 0.5007 0.3618 0.5264
H37? H 0.5110 0.3220 0.6703
C24? C 0.5488(5) 0.4620(13) 0.6364(17)
H38? H 0.5513 0.5042 0.5587
H39? H 0.5293 0.5032 0.6886
loop_
_geom_bond_atom_site_label_1
_geom_bond_atom_site_label_2
_geom_bond_site_symmetry_1
_geom_bond_site_symmetry_2
S1 O1 1_555 1_555
O2 S1 1_555 1_555
O3 C7 1_555 1_555
N1 S1 1_555 1_555
C1 N1 1_555 1_555
H1 C1 1_555 1_555
H2 C1 1_555 1_555
C2 C1 1_555 1_555
H3 C2 1_555 1_555
C3 C2 1_555 1_555
H4 C3 1_555 1_555
C4 N1 1_555 1_555
H5 C4 1_555 1_555
H6 C4 1_555 1_555
C5 C2 1_555 1_555
H7 C5 1_555 1_555
H8 C5 1_555 1_555
C6 C5 1_555 1_555
H9 C6 1_555 1_555
C7 C6 1_555 1_555
C8 C3 1_555 1_555
H10 C8 1_555 1_555
H11 C8 1_555 1_555
C9 C6 1_555 1_555
H12 C9 1_555 1_555
H13 C9 1_555 1_555
C10 C9 1_555 1_555
H14 C10 1_555 1_555
H15 C10 1_555 1_555
C11 C10 1_555 1_555
H16 C11 1_555 1_555
H17 C11 1_555 1_555
C12 C11 1_555 1_555
H18 C12 1_555 1_555
H19 C12 1_555 1_555
H20 C12 1_555 1_555
C13 S1 1_555 1_555
C14 C13 1_555 1_555
H21 C14 1_555 1_555
C15 C14 1_555 1_555
H22 C15 1_555 1_555
C16 C15 1_555 1_555
C17 C16 1_555 1_555
H23 C17 1_555 1_555
C18 C13 1_555 1_555
H24 C18 1_555 1_555
C19 C16 1_555 1_555
H25 C19 1_555 1_555
H26 C19 1_555 1_555
H27 C19 1_555 1_555
C3 C4 1_555 1_555
C7 C8 1_555 1_555
C17 C18 1_555 1_555

#END
