
#######################################################################
#
#                 Cambridge Crystallographic Data Centre
#                                CCDC 
#
#######################################################################
#
# If this CIF has been generated from an entry in the Cambridge 
# Structural Database, then it will include bibliographic, chemical, 
# crystal, experimental, refinement or atomic coordinate data resulting 
# from the CCDC's data processing and validation procedures.
#
#######################################################################

data_HAJKEK
_chemical_formula_moiety         'C26 H21 N2 O4 1+,B1 F4 1-,3(H2 O1)'
_chemical_name_systematic        
"4-((1'-(4-Carboxybenzyl)-4,4'-bipyridinium-1-yl)methyl)benzoate tetrafluoroborate trihydrate"
_symmetry_cell_setting           monoclinic
_symmetry_space_group_name_H-M   'P 21/c'
_symmetry_Int_Tables_number      14
_space_group_name_Hall           '-P 2ybc'
loop_
_symmetry_equiv_pos_site_id
_symmetry_equiv_pos_as_xyz
1 x,y,z
2 -x,1/2+y,1/2-z
3 -x,-y,-z
4 x,1/2-y,1/2+z
_cell_length_a                   17.481(7)
_cell_length_b                   12.437(5)
_cell_length_c                   12.329(5)
_cell_angle_alpha                90
_cell_angle_beta                 92.152(7)
_cell_angle_gamma                90
_cell_volume                     2678.57
_exptl_crystal_colour            'pale yellow'
_exptl_crystal_description       needle
_cell_formula_units_Z            4
loop_
_atom_site_label
_atom_site_type_symbol
_atom_site_fract_x
_atom_site_fract_y
_atom_site_fract_z
C1 C 0.56429(13) 0.8401(2) 0.8466(2)
C2 C 0.51368(11) 0.75442(18) 0.89157(18)
C3 C 0.47872(14) 0.7687(2) 0.9889(2)
H1 H 0.4862 0.8321 1.0279
C4 C 0.43232(14) 0.6885(2) 1.0286(2)
H2 H 0.4087 0.6987 1.0941
C5 C 0.42081(10) 0.59405(17) 0.97204(17)
C6 C 0.45578(11) 0.58040(18) 0.87509(17)
H3 H 0.4487 0.5167 0.8364
C7 C 0.50138(11) 0.66048(18) 0.83454(18)
H4 H 0.5240 0.6509 0.7681
C8 C 0.36961(11) 0.50741(19) 1.01505(19)
H5 H 0.3932 0.4377 1.0050
H6 H 0.3637 0.5182 1.0922
C9 C 0.24071(11) 0.58238(17) 0.98569(17)
H7 H 0.2531 0.6317 1.0403
C10 C 0.16967(11) 0.58570(16) 0.93513(16)
H8 H 0.1343 0.6373 0.9551
C11 C 0.15045(10) 0.51203(15) 0.85407(15)
C12 C 0.20548(11) 0.43769(17) 0.82706(18)
H9 H 0.1944 0.3870 0.7733
C13 C 0.27630(11) 0.43831(18) 0.87921(19)
H10 H 0.3132 0.3888 0.8595
C14 C 0.07302(10) 0.50990(15) 0.79997(14)
C15 C 0.00995(10) 0.55161(16) 0.84994(16)
H11 H 0.0163 0.5869 0.9162
C16 C -0.06198(11) 0.54129(16) 0.80238(15)
H12 H -0.1040 0.5701 0.8362
C17 C -0.01192(11) 0.45262(17) 0.65483(16)
H13 H -0.0196 0.4195 0.5877
C18 C 0.06099(11) 0.46253(17) 0.69869(16)
H14 H 0.1024 0.4376 0.6607
C19 C -0.15066(11) 0.46781(17) 0.66372(17)
H15 H -0.1498 0.4575 0.5858
H16 H -0.1831 0.5292 0.6777
C20 C -0.18345(10) 0.36840(15) 0.71596(15)
C21 C -0.26020(11) 0.34385(17) 0.69399(16)
H17 H -0.2895 0.3874 0.6473
C22 C -0.29309(11) 0.25510(16) 0.74109(16)
H18 H -0.3443 0.2391 0.7254
C23 C -0.25029(10) 0.18939(15) 0.81178(15)
C24 C -0.17399(11) 0.21348(16) 0.83286(16)
H19 H -0.1447 0.1700 0.8796
C25 C -0.14071(10) 0.30174(16) 0.78508(16)
H20 H -0.0892 0.3165 0.7995
C26 C -0.28443(12) 0.09166(17) 0.86345(17)
N1 N 0.29264(8) 0.50924(14) 0.95782(14)
N2 N -0.07189(8) 0.48971(13) 0.70707(12)
O1 O 0.57520(12) 0.92102(16) 0.90985(17)
H21 H 0.6020 0.9689 0.8858
O3 O 0.59158(11) 0.83086(16) 0.75755(16)
O5 O -0.24362(10) 0.03156(14) 0.92021(15)
O7 O -0.35537(9) 0.07781(14) 0.84160(15)
O2 O 0.3393(3) 0.1492(5) 0.8461(4)
H22 H 0.3750 0.1921 0.8300
H23 H 0.3169 0.1344 0.9042
O4 O 0.25014(16) 0.3827(2) 0.1683(2)
H24 H 0.2797 0.3720 0.2236
H25 H 0.2542 0.3223 0.1368
O6 O 0.25176(16) 0.3089(2) 0.5413(3)
H26 H 0.2034 0.3099 0.5307
H27 H 0.2645 0.3709 0.5647
B1 B 0.05413(14) 0.2596(2) 0.44220(19)
F1 F 0.08889(10) 0.35425(12) 0.47467(13)
F2 F 0.09293(10) 0.17362(14) 0.48781(14)
F3 F 0.05138(14) 0.25172(16) 0.33126(13)
F4 F -0.02030(8) 0.25861(15) 0.48074(14)
F5? F 0.0977(9) 0.2744(18) 0.5364(10)
F6? F 0.1022(9) 0.2714(12) 0.3543(11)
F7? F 0.0237(11) 0.1584(8) 0.4391(16)
F8? F -0.0025(8) 0.3355(12) 0.4330(12)
H28? H 0.4129 -0.0231 0.8091
H29? H 0.4155 0.0046 0.9207
O8? O 0.4016(8) 0.0181(13) 0.8579(9)
loop_
_geom_bond_atom_site_label_1
_geom_bond_atom_site_label_2
_geom_bond_site_symmetry_1
_geom_bond_site_symmetry_2
C1 C2 1_555 1_555
C2 C3 1_555 1_555
C3 H1 1_555 1_555
C4 C3 1_555 1_555
H2 C4 1_555 1_555
C5 C4 1_555 1_555
C6 C5 1_555 1_555
H3 C6 1_555 1_555
C7 C2 1_555 1_555
H4 C7 1_555 1_555
C8 C5 1_555 1_555
H5 C8 1_555 1_555
H6 C8 1_555 1_555
C9 H7 1_555 1_555
C10 C9 1_555 1_555
H8 C10 1_555 1_555
C11 C10 1_555 1_555
C12 C11 1_555 1_555
H9 C12 1_555 1_555
C13 C12 1_555 1_555
H10 C13 1_555 1_555
C14 C11 1_555 1_555
C15 C14 1_555 1_555
H11 C15 1_555 1_555
C16 C15 1_555 1_555
H12 C16 1_555 1_555
C17 H13 1_555 1_555
C18 C14 1_555 1_555
H14 C18 1_555 1_555
C19 H15 1_555 1_555
H16 C19 1_555 1_555
C20 C19 1_555 1_555
C21 C20 1_555 1_555
H17 C21 1_555 1_555
C22 C21 1_555 1_555
H18 C22 1_555 1_555
C23 C22 1_555 1_555
C24 C23 1_555 1_555
H19 C24 1_555 1_555
C25 C20 1_555 1_555
H20 C25 1_555 1_555
C26 C23 1_555 1_555
N1 C8 1_555 1_555
N2 C16 1_555 1_555
O1 C1 1_555 1_555
H21 O1 1_555 1_555
O2 H22 1_555 1_555
H23 O2 1_555 1_555
O3 C1 1_555 1_555
O4 H24 1_555 1_555
H25 O4 1_555 1_555
O5 C26 1_555 1_555
O6 H26 1_555 1_555
H27 O6 1_555 1_555
O7 C26 1_555 1_555
B1 F1 1_555 1_555
F2 B1 1_555 1_555
F3 B1 1_555 1_555
F4 B1 1_555 1_555
C6 C7 1_555 1_555
C9 N1 1_555 1_555
C13 N1 1_555 1_555
C17 C18 1_555 1_555
C17 N2 1_555 1_555
C19 N2 1_555 1_555
C24 C25 1_555 1_555

#END
