
#######################################################################
#
#                 Cambridge Crystallographic Data Centre
#                                CCDC 
#
#######################################################################
#
# If this CIF has been generated from an entry in the Cambridge 
# Structural Database, then it will include bibliographic, chemical, 
# crystal, experimental, refinement or atomic coordinate data resulting 
# from the CCDC's data processing and validation procedures.
#
#######################################################################

data_HAJSAO
_chemical_name_common            '(+-)-Mefloquinium chloride hemihydrate'
_chemical_formula_moiety         'C17 H17 F6 N2 O1 1+,Cl1 1-,0.5(H2 O1)'
_chemical_name_systematic        
'(+-)-(R*,S*)-2-(Hydroxy(2-methyl-8-(trifluoromethyl)quinolin-4-yl)methyl)piperidinium chloride hemihydrate'
_chemical_properties_biological  
'Mefloquinium chloride is an anti-malarial agent'
_symmetry_cell_setting           triclinic
_symmetry_space_group_name_H-M   'P -1'
_symmetry_Int_Tables_number      2
_space_group_name_Hall           '-P 1'
loop_
_symmetry_equiv_pos_site_id
_symmetry_equiv_pos_as_xyz
1 x,y,z
2 -x,-y,-z
_cell_length_a                   6.0491(5)
_cell_length_b                   17.388(2)
_cell_length_c                   18.112(2)
_cell_angle_alpha                89.300(5)
_cell_angle_beta                 83.838(7)
_cell_angle_gamma                80.732(6)
_cell_volume                     1869.3
_exptl_crystal_colour            colorless
_exptl_crystal_description       block
_cell_formula_units_Z            4
loop_
_atom_site_label
_atom_site_type_symbol
_atom_site_fract_x
_atom_site_fract_y
_atom_site_fract_z
Cl1 Cl 0.61429(6) 0.87815(2) 0.37653(2)
F1 F 0.45009(18) 1.06810(7) -0.04685(6)
F2 F 0.15015(17) 1.11048(8) 0.02313(6)
F3 F 0.2778(3) 1.18400(8) -0.06093(8)
F4 F 0.9269(2) 1.40048(7) -0.03864(7)
F5 F 0.59025(19) 1.37347(7) -0.02846(6)
F6 F 0.8627(2) 1.29473(7) -0.08708(6)
O1 O 0.48928(17) 1.05662(6) 0.25342(6)
H1 H 0.3933 1.0853 0.2822
N1 N 0.5886(2) 1.21636(8) 0.02144(8)
N2 N 0.9109(2) 0.99603(8) 0.29540(8)
H2 H 0.926(3) 1.0356(11) 0.3301(10)
H3 H 0.787(3) 0.9738(10) 0.3115(10)
C1 C 0.4808(3) 1.15944(10) 0.04419(9)
C2 C 1.0395(3) 1.28587(10) 0.15573(11)
H4 H 1.1461 1.3017 0.1848
C3 C 0.6424(2) 1.14075(9) 0.15916(9)
C4 C 0.7661(3) 1.20222(9) 0.13761(9)
C5 C 0.9237(3) 1.22761(10) 0.18083(9)
H5 H 0.9488 1.2040 0.2274
C6 C 0.4975(3) 1.12057(9) 0.11214(9)
H6 H 0.4098 1.0809 0.1254
C7 C 1.0029(3) 1.32268(10) 0.08743(11)
H7 H 1.0843 1.3632 0.0710
C8 C 0.8511(3) 1.30053(10) 0.04449(10)
C9 C 0.7300(3) 1.23898(9) 0.06801(9)
C10 C 0.6729(2) 1.09629(9) 0.23115(9)
H8 H 0.6884 1.1335 0.2712
C11 C 0.8852(2) 1.03395(9) 0.22121(9)
H9 H 1.0184 1.0605 0.2071
C12 C 0.8816(3) 0.97168(10) 0.16317(9)
H10 H 0.8737 0.9962 0.1137
H11 H 0.7455 0.9470 0.1748
C13 C 1.0912(3) 0.90944(11) 0.16102(11)
H12 H 1.2267 0.9332 0.1452
H13 H 1.0818 0.8686 0.1244
C14 C 1.1123(3) 0.87265(10) 0.23749(11)
H14 H 0.9841 0.8445 0.2512
H15 H 1.2531 0.8344 0.2358
C15 C 1.1147(3) 0.93422(10) 0.29543(10)
H16 H 1.1172 0.9098 0.3451
H17 H 1.2525 0.9581 0.2850
C16 C 0.3383(3) 1.13181(12) -0.01039(10)
C17 C 0.8065(3) 1.34194(12) -0.02724(11)
Cl2 Cl 0.08264(6) 0.13469(3) 0.36030(2)
F7 F 0.3056(2) 0.47018(7) 0.60088(10)
F8 F 0.106(3) 0.5610(10) 0.6720(9)
F9 F 0.0199(9) 0.5495(6) 0.5758(9)
F10 F -0.5423(2) 0.58144(7) 0.79416(7)
F11 F -0.2991(2) 0.51854(7) 0.86077(7)
F12 F -0.6533(3) 0.52680(8) 0.89568(7)
O2 O 0.03130(17) 0.23283(6) 0.54611(6)
H18 H 0.1151 0.2029 0.5718
N3 N -0.1981(2) 0.46965(8) 0.70979(8)
N4 N -0.3242(2) 0.19154(8) 0.48655(8)
H19 H -0.341(3) 0.1551(11) 0.5168(10)
H20 H -0.177(3) 0.1822(10) 0.4632(10)
C18 C -0.0520(3) 0.44710(10) 0.65230(10)
C19 C -0.0374(3) 0.37761(9) 0.61219(9)
H21 H 0.0769 0.3645 0.5721
C20 C -0.1910(2) 0.32907(9) 0.63195(9)
C21 C -0.3568(3) 0.35053(9) 0.69331(9)
C22 C -0.5276(3) 0.30574(10) 0.71796(9)
H22 H -0.5359 0.2588 0.6929
C23 C -0.6800(3) 0.33016(11) 0.77781(10)
H23 H -0.7942 0.3001 0.7936
C24 C -0.6699(3) 0.39914(12) 0.81630(11)
H24 H -0.7761 0.4148 0.8580
C25 C -0.5092(3) 0.44368(11) 0.79428(10)
C26 C -0.3494(3) 0.42119(9) 0.73150(9)
C27 C -0.1828(2) 0.25500(9) 0.58715(9)
H25 H -0.2143 0.2119 0.6218
C28 C -0.3569(2) 0.26574(9) 0.53052(8)
H26 H -0.5112 0.2736 0.5581
C29 C -0.3400(3) 0.33314(9) 0.47682(9)
H27 H -0.1862 0.3270 0.4504
H28 H -0.3672 0.3828 0.5050
C30 C -0.5119(3) 0.33599(10) 0.42024(10)
H29 H -0.6663 0.3457 0.4463
H30 H -0.4953 0.3793 0.3852
C31 C -0.4768(3) 0.25946(10) 0.37746(9)
H31 H -0.5943 0.2611 0.3431
H32 H -0.3282 0.2524 0.3474
C32 C -0.4880(3) 0.19140(10) 0.42982(9)
H33 H -0.6426 0.1948 0.4552
H34 H -0.4520 0.1420 0.4012
C33 C 0.1015(3) 0.50470(11) 0.62639(11)
C34 C -0.4989(4) 0.51735(12) 0.83597(11)
H35 H 0.412(6) 0.981(3) 0.4678(15)
H36 H 0.349(8) 1.0249(19) 0.534(2)
O3 O 0.3245(5) 0.98811(16) 0.50757(16)
O4? O 0.1489(5) 0.97467(17) 0.4977(2)
H37? H 0.0056(19) 0.981(3) 0.501(4)
H38? H 0.193(8) 1.011(2) 0.471(3)
F13? F 0.164(3) 0.5390(13) 0.6839(7)
F14? F 0.040(3) 0.5351(12) 0.5589(8)
loop_
_geom_bond_atom_site_label_1
_geom_bond_atom_site_label_2
_geom_bond_site_symmetry_1
_geom_bond_site_symmetry_2
F1 C16 1_555 1_555
F2 C16 1_555 1_555
F3 C16 1_555 1_555
F4 C17 1_555 1_555
F5 C17 1_555 1_555
F6 C17 1_555 1_555
O1 H1 1_555 1_555
N1 C1 1_555 1_555
N2 H2 1_555 1_555
H3 N2 1_555 1_555
C1 C6 1_555 1_555
C2 H4 1_555 1_555
C3 C4 1_555 1_555
C4 C5 1_555 1_555
C5 C2 1_555 1_555
H5 C5 1_555 1_555
C6 C3 1_555 1_555
H6 C6 1_555 1_555
C7 C2 1_555 1_555
H7 C7 1_555 1_555
C8 C7 1_555 1_555
C9 N1 1_555 1_555
C10 O1 1_555 1_555
H8 C10 1_555 1_555
C11 N2 1_555 1_555
H9 C11 1_555 1_555
C12 C11 1_555 1_555
H10 C12 1_555 1_555
H11 C12 1_555 1_555
C13 C12 1_555 1_555
H12 C13 1_555 1_555
H13 C13 1_555 1_555
C14 C13 1_555 1_555
H14 C14 1_555 1_555
H15 C14 1_555 1_555
C15 N2 1_555 1_555
H16 C15 1_555 1_555
H17 C15 1_555 1_555
C16 C1 1_555 1_555
C17 C8 1_555 1_555
F7 C33 1_555 1_555
F8 C33 1_555 1_555
F9 C33 1_555 1_555
F10 C34 1_555 1_555
F11 C34 1_555 1_555
F12 C34 1_555 1_555
O2 H18 1_555 1_555
N3 C18 1_555 1_555
N4 H19 1_555 1_555
H20 N4 1_555 1_555
C18 C19 1_555 1_555
C19 H21 1_555 1_555
C20 C19 1_555 1_555
C21 C20 1_555 1_555
C22 C21 1_555 1_555
H22 C22 1_555 1_555
C23 C22 1_555 1_555
H23 C23 1_555 1_555
C24 C23 1_555 1_555
H24 C24 1_555 1_555
C25 C24 1_555 1_555
C26 N3 1_555 1_555
C27 O2 1_555 1_555
H25 C27 1_555 1_555
C28 N4 1_555 1_555
H26 C28 1_555 1_555
C29 C28 1_555 1_555
H27 C29 1_555 1_555
H28 C29 1_555 1_555
C30 C29 1_555 1_555
H29 C30 1_555 1_555
H30 C30 1_555 1_555
C31 C30 1_555 1_555
H31 C31 1_555 1_555
H32 C31 1_555 1_555
C32 N4 1_555 1_555
H33 C32 1_555 1_555
H34 C32 1_555 1_555
C33 C18 1_555 1_555
C34 C25 1_555 1_555
H35 O3 1_555 1_555
H36 O3 1_555 1_555
C3 C10 1_555 1_555
C4 C9 1_555 1_555
C8 C9 1_555 1_555
C10 C11 1_555 1_555
C14 C15 1_555 1_555
C20 C27 1_555 1_555
C21 C26 1_555 1_555
C25 C26 1_555 1_555
C27 C28 1_555 1_555
C31 C32 1_555 1_555

#END
