
#######################################################################
#
#                 Cambridge Crystallographic Data Centre
#                                CCDC 
#
#######################################################################
#
# If this CIF has been generated from an entry in the Cambridge 
# Structural Database, then it will include bibliographic, chemical, 
# crystal, experimental, refinement or atomic coordinate data resulting 
# from the CCDC's data processing and validation procedures.
#
#######################################################################

data_HAKKEM
_chemical_formula_moiety         'C15 H22 O4'
_chemical_name_systematic        
'methyl 9-allyl-3,5-dihydroxy-7-methylbicyclo[3.3.1]non-2-ene-2-carboxylate'
_symmetry_cell_setting           orthorhombic
_symmetry_space_group_name_H-M   'P c a 21'
_symmetry_Int_Tables_number      29
_space_group_name_Hall           'P 2c -2ac'
loop_
_symmetry_equiv_pos_site_id
_symmetry_equiv_pos_as_xyz
1 x,y,z
2 -x,-y,1/2+z
3 1/2-x,y,1/2+z
4 1/2+x,-y,z
_cell_length_a                   14.1032(15)
_cell_length_b                   7.5384(5)
_cell_length_c                   26.587(3)
_cell_angle_alpha                90
_cell_angle_beta                 90
_cell_angle_gamma                90
_cell_volume                     2826.61
_exptl_crystal_colour            colorless
_cell_formula_units_Z            8
loop_
_atom_site_label
_atom_site_type_symbol
_atom_site_fract_x
_atom_site_fract_y
_atom_site_fract_z
O1 O 0.39680(13) 0.1889(2) 0.52674(7)
O2 O 0.59072(12) -0.2773(3) 0.58592(7)
O3 O 0.52341(12) -0.1619(2) 0.73352(6)
O4 O 0.61217(11) -0.3262(2) 0.68077(6)
C1 C 0.39906(17) 0.0633(4) 0.56717(10)
C2 C 0.48198(17) -0.0615(3) 0.55493(9)
H1 H 0.4595 -0.1521 0.5308
H2 H 0.5322 0.0082 0.5380
C3 C 0.52480(17) -0.1543(3) 0.59883(10)
C4 C 0.50187(16) -0.1177(3) 0.64728(9)
C5 C 0.42343(15) 0.0143(3) 0.65873(9)
H3 H 0.4370 0.0728 0.6917
C6 C 0.32754(15) -0.0845(3) 0.66234(8)
H4 H 0.3317 -0.1765 0.6888
H5 H 0.2774 0.0005 0.6722
C7 C 0.30024(16) -0.1724(3) 0.61233(9)
H6 H 0.3478 -0.2672 0.6049
C8 C 0.30429(15) -0.0351(3) 0.57003(9)
H7 H 0.2529 0.0525 0.5751
H8 H 0.2927 -0.0955 0.5375
C9 C 0.42094(18) 0.1565(3) 0.61721(10)
H9 H 0.4865 0.2058 0.6144
C10 C 0.35506(18) 0.3125(3) 0.63019(10)
H10 H 0.3499 0.3921 0.6007
H11 H 0.2909 0.2664 0.6379
C11 C 0.39100(18) 0.4158(3) 0.67436(10)
H12 H 0.4526 0.4658 0.6715
C12 C 0.34509(19) 0.4440(4) 0.71678(11)
H13 H 0.2832 0.3967 0.7213
H14 H 0.3738 0.5116 0.7428
C13 C 0.20183(17) -0.2592(4) 0.61534(11)
H15 H 0.1844 -0.3062 0.5822
H16 H 0.1550 -0.1706 0.6258
H17 H 0.2033 -0.3562 0.6399
C14 C 0.55055(16) -0.2117(3) 0.68749(9)
H18 H 0.339(2) 0.212(4) 0.5208(11)
H19 H 0.6097(19) -0.327(4) 0.6197(11)
C15 C 0.5715(2) -0.2471(4) 0.77528(10)
H20 H 0.6402 -0.2380 0.7706
H21 H 0.5532 -0.3724 0.7767
H22 H 0.5536 -0.1885 0.8068
O5 O 0.21196(12) 0.2937(2) 0.49907(7)
O6 O 0.40104(12) 0.7717(3) 0.44104(7)
O7 O 0.33275(11) 0.6566(2) 0.29305(6)
O8 O 0.42154(11) 0.8211(2) 0.34566(6)
C16 C 0.21230(17) 0.4266(3) 0.45999(9)
C17 C 0.29422(17) 0.5555(3) 0.47199(9)
H23 H 0.2708 0.6459 0.4960
H24 H 0.3453 0.4883 0.4890
C18 C 0.33614(16) 0.6494(3) 0.42731(9)
C19 C 0.31281(16) 0.6109(3) 0.37932(9)
C20 C 0.23482(15) 0.4765(3) 0.36850(9)
H25 H 0.2481 0.4183 0.3354
C21 C 0.13807(16) 0.5721(3) 0.36539(9)
H26 H 0.1410 0.6644 0.3390
H27 H 0.0886 0.4854 0.3556
C22 C 0.11051(17) 0.6580(3) 0.41525(10)
H28 H 0.1577 0.7536 0.4225
C23 C 0.11607(17) 0.5214(4) 0.45812(9)
H29 H 0.1050 0.5823 0.4906
H30 H 0.0653 0.4322 0.4536
C24 C 0.23349(17) 0.3341(3) 0.40973(10)
H31 H 0.2993 0.2853 0.4121
C25 C 0.16758(17) 0.1770(3) 0.39737(10)
H32 H 0.1643 0.0966 0.4268
H33 H 0.1029 0.2221 0.3907
C26 C 0.20182(17) 0.0763(3) 0.35280(10)
H34 H 0.2639 0.0280 0.3547
C27 C 0.15393(19) 0.0475(4) 0.31056(11)
H35 H 0.0915 0.0931 0.3068
H36 H 0.1821 -0.0188 0.2841
C28 C 0.01254(16) 0.7441(4) 0.41249(10)
H37 H -0.0345 0.6550 0.4026
H38 H 0.0135 0.8400 0.3876
H39 H -0.0042 0.7926 0.4455
C29 C 0.36021(15) 0.7058(3) 0.33935(9)
C30 C 0.3799(2) 0.7434(4) 0.25160(10)
H40 H 0.4487 0.7343 0.2560
H41 H 0.3615 0.8687 0.2507
H42 H 0.3616 0.6862 0.2200
H43 H 0.169(2) 0.332(4) 0.5215(13)
H44 H 0.421(2) 0.811(4) 0.4147(14)
loop_
_geom_bond_atom_site_label_1
_geom_bond_atom_site_label_2
_geom_bond_site_symmetry_1
_geom_bond_site_symmetry_2
O1 C1 1_555 1_555
O2 C3 1_555 1_555
O3 C14 1_555 1_555
O4 C14 1_555 1_555
C1 C2 1_555 1_555
C2 H1 1_555 1_555
H2 C2 1_555 1_555
C3 C2 1_555 1_555
C4 C3 1_555 1_555
C5 C4 1_555 1_555
H3 C5 1_555 1_555
C6 C5 1_555 1_555
H4 C6 1_555 1_555
H5 C6 1_555 1_555
C7 C6 1_555 1_555
H6 C7 1_555 1_555
C8 C1 1_555 1_555
H7 C8 1_555 1_555
H8 C8 1_555 1_555
C9 C1 1_555 1_555
H9 C9 1_555 1_555
C10 C9 1_555 1_555
H10 C10 1_555 1_555
H11 C10 1_555 1_555
C11 C10 1_555 1_555
H12 C11 1_555 1_555
C12 C11 1_555 1_555
H13 C12 1_555 1_555
H14 C12 1_555 1_555
C13 C7 1_555 1_555
H15 C13 1_555 1_555
H16 C13 1_555 1_555
H17 C13 1_555 1_555
C14 C4 1_555 1_555
H18 O1 1_555 1_555
H19 O2 1_555 1_555
C15 O3 1_555 1_555
H20 C15 1_555 1_555
H21 C15 1_555 1_555
H22 C15 1_555 1_555
O5 C16 1_555 1_555
O6 C18 1_555 1_555
O7 C29 1_555 1_555
O8 C29 1_555 1_555
C16 C17 1_555 1_555
C17 H23 1_555 1_555
H24 C17 1_555 1_555
C18 C17 1_555 1_555
C19 C18 1_555 1_555
C20 C19 1_555 1_555
H25 C20 1_555 1_555
C21 C20 1_555 1_555
H26 C21 1_555 1_555
H27 C21 1_555 1_555
C22 C21 1_555 1_555
H28 C22 1_555 1_555
C23 C16 1_555 1_555
H29 C23 1_555 1_555
H30 C23 1_555 1_555
C24 C16 1_555 1_555
H31 C24 1_555 1_555
C25 C24 1_555 1_555
H32 C25 1_555 1_555
H33 C25 1_555 1_555
C26 C25 1_555 1_555
H34 C26 1_555 1_555
C27 C26 1_555 1_555
H35 C27 1_555 1_555
H36 C27 1_555 1_555
C28 C22 1_555 1_555
H37 C28 1_555 1_555
H38 C28 1_555 1_555
H39 C28 1_555 1_555
C29 C19 1_555 1_555
C30 O7 1_555 1_555
H40 C30 1_555 1_555
H41 C30 1_555 1_555
H42 C30 1_555 1_555
H43 O5 1_555 1_555
H44 O6 1_555 1_555
C5 C9 1_555 1_555
C7 C8 1_555 1_555
C20 C24 1_555 1_555
C22 C23 1_555 1_555

#END
