
#######################################################################
#
#                 Cambridge Crystallographic Data Centre
#                                CCDC 
#
#######################################################################
#
# If this CIF has been generated from an entry in the Cambridge 
# Structural Database, then it will include bibliographic, chemical, 
# crystal, experimental, refinement or atomic coordinate data resulting 
# from the CCDC's data processing and validation procedures.
#
#######################################################################

data_HALKAI
_chemical_formula_moiety         'C9 H9 N2 S1 1+,H2 O1,Cl1 1-'
_chemical_name_systematic        
'4-Phenyl-2-amino-1,3-thiazolium chloride monohydrate'
_symmetry_cell_setting           monoclinic
_symmetry_space_group_name_H-M   'P 21/c'
_symmetry_Int_Tables_number      14
_space_group_name_Hall           '-P 2ybc'
loop_
_symmetry_equiv_pos_site_id
_symmetry_equiv_pos_as_xyz
1 x,y,z
2 -x,1/2+y,1/2-z
3 -x,-y,-z
4 x,1/2-y,1/2+z
_cell_length_a                   12.6604(12)
_cell_length_b                   9.1400(8)
_cell_length_c                   10.1263(11)
_cell_angle_alpha                90
_cell_angle_beta                 110.2230(10)
_cell_angle_gamma                90
_cell_volume                     1099.54
_exptl_crystal_colour            colorless
_exptl_crystal_description       block
_cell_formula_units_Z            4
loop_
_atom_site_label
_atom_site_type_symbol
_atom_site_fract_x
_atom_site_fract_y
_atom_site_fract_z
S1 S 0.90997(6) 0.11168(7) -0.14862(7)
N1 N 0.81473(16) 0.3123(2) -0.0585(2)
H3 H 0.7951 0.3971 -0.0384
N2 N 0.94020(18) 0.4000(2) -0.1649(2)
H4 H 0.9269 0.4896 -0.1501
H5 H 0.9872 0.3798 -0.2065
C1 C 0.8889(2) 0.2941(3) -0.1238(2)
C2 C 0.7714(2) 0.1816(3) -0.0252(2)
C3 C 0.8153(2) 0.0656(3) -0.0672(3)
H6 H 0.7967 -0.0305 -0.0540
C4 C 0.6859(2) 0.1839(3) 0.0432(2)
C5 C 0.6238(2) 0.3078(3) 0.0453(3)
H7 H 0.6378 0.3944 0.0059
C6 C 0.5409(3) 0.3041(4) 0.1053(3)
H8 H 0.4993 0.3880 0.1053
C7 C 0.5197(3) 0.1786(4) 0.1644(3)
H9 H 0.4637 0.1767 0.2045
C8 C 0.5814(2) 0.0550(4) 0.1645(3)
H10 H 0.5672 -0.0307 0.2052
C9 C 0.6642(2) 0.0569(3) 0.1047(3)
H11 H 0.7057 -0.0273 0.1056
Cl1 Cl 0.88122(6) 0.74755(7) 0.78290(8)
O1 O 0.76285(15) 0.60370(19) 0.97971(19)
H1 H 0.7868 0.6579 0.9279
H2 H 0.7813 0.6439 1.0602
loop_
_geom_bond_atom_site_label_1
_geom_bond_atom_site_label_2
_geom_bond_site_symmetry_1
_geom_bond_site_symmetry_2
S1 C1 1_555 1_555
O1 H1 1_555 1_555
H2 O1 1_555 1_555
N1 H3 1_555 1_555
N2 H4 1_555 1_555
H5 N2 1_555 1_555
C1 N1 1_555 1_555
C2 N1 1_555 1_555
C3 S1 1_555 1_555
H6 C3 1_555 1_555
C4 C2 1_555 1_555
C5 C4 1_555 1_555
H7 C5 1_555 1_555
C6 C5 1_555 1_555
H8 C6 1_555 1_555
C7 C6 1_555 1_555
H9 C7 1_555 1_555
C8 C7 1_555 1_555
H10 C8 1_555 1_555
C9 C4 1_555 1_555
H11 C9 1_555 1_555
N2 C1 1_555 1_555
C2 C3 1_555 1_555
C8 C9 1_555 1_555

#END
