
#######################################################################
#
#                 Cambridge Crystallographic Data Centre
#                                CCDC 
#
#######################################################################
#
# If this CIF has been generated from an entry in the Cambridge 
# Structural Database, then it will include bibliographic, chemical, 
# crystal, experimental, refinement or atomic coordinate data resulting 
# from the CCDC's data processing and validation procedures.
#
#######################################################################

data_HAMJOV
_chemical_formula_moiety         'C23 H20 O2'
_chemical_name_systematic        
"Methyl 2-((1E)-2'-(4-methylphenyl)-2'-phenylvinyl)benzoate"
_symmetry_cell_setting           monoclinic
_symmetry_space_group_name_H-M   'P 21/n'
_symmetry_Int_Tables_number      14
_space_group_name_Hall           '-P 2yn'
loop_
_symmetry_equiv_pos_site_id
_symmetry_equiv_pos_as_xyz
1 x,y,z
2 1/2+x,1/2-y,1/2+z
3 -x,-y,-z
4 1/2-x,1/2+y,1/2-z
_cell_length_a                   9.7557(6)
_cell_length_b                   11.9347(7)
_cell_length_c                   15.7626(9)
_cell_angle_alpha                90
_cell_angle_beta                 99.370(1)
_cell_angle_gamma                90
_cell_volume                     1810.77
_exptl_crystal_colour            colorless
_exptl_crystal_description       block
_chemical_melting_point          75-76deg.C
_cell_formula_units_Z            4
loop_
_atom_site_label
_atom_site_type_symbol
_atom_site_fract_x
_atom_site_fract_y
_atom_site_fract_z
O1 O 0.68491(12) 0.47394(12) 0.09162(8)
O2 O 0.55617(11) 0.53153(11) 0.18653(8)
C1 C 1.05568(13) 0.35481(12) 0.18676(9)
C2 C 0.96961(14) 0.44135(13) 0.16382(10)
H1 H 0.9302 0.4458 0.1061
C3 C 0.93112(14) 0.53016(12) 0.22065(9)
C4 C 1.03512(15) 0.58114(13) 0.27871(11)
H2 H 1.1264 0.5573 0.2812
C5 C 1.00715(17) 0.66565(14) 0.33258(11)
H3 H 1.0789 0.6978 0.3709
C6 C 0.87292(17) 0.70276(13) 0.32984(10)
H4 H 0.8537 0.7608 0.3655
C7 C 0.76746(16) 0.65327(12) 0.27391(10)
H5 H 0.6765 0.6773 0.2729
C8 C 0.79413(14) 0.56779(11) 0.21869(9)
C9 C 0.67612(15) 0.51907(12) 0.15826(10)
C10 C 0.43311(17) 0.49392(18) 0.13039(15)
H6 H 0.3526 0.5116 0.1556
H7 H 0.4381 0.4144 0.1224
H8 H 0.4268 0.5308 0.0758
C11 C 1.11307(14) 0.32547(12) 0.27738(9)
C12 C 1.25181(16) 0.29661(15) 0.29982(11)
H9 H 1.3087 0.2961 0.2578
C13 C 1.3072(2) 0.26857(17) 0.38332(13)
H10 H 1.4007 0.2498 0.3972
C14 C 1.2253(2) 0.26836(19) 0.44548(13)
H11 H 1.2628 0.2498 0.5018
C15 C 1.0874(2) 0.29551(19) 0.42492(12)
H12 H 1.0313 0.2951 0.4673
C16 C 1.03150(17) 0.32346(15) 0.34137(10)
H13 H 0.9376 0.3412 0.3280
C17 C 1.09622(13) 0.28042(12) 0.11944(9)
C18 C 1.09588(15) 0.16456(13) 0.12847(10)
H14 H 1.0714 0.1333 0.1779
C19 C 1.13118(15) 0.09513(14) 0.06550(10)
H15 H 1.1286 0.0179 0.0729
C20 C 1.17033(15) 0.13798(14) -0.00843(10)
C21 C 1.17327(15) 0.25313(15) -0.01703(10)
H16 H 1.2005 0.2841 -0.0658
C22 C 1.13652(14) 0.32338(13) 0.04533(9)
H17 H 1.1388 0.4006 0.0376
C23 C 1.2084(2) 0.06107(19) -0.07682(14)
H18 H 1.1531 -0.0057 -0.0794
H19 H 1.3050 0.0417 -0.0631
H20 H 1.1915 0.0983 -0.1315
loop_
_geom_bond_atom_site_label_1
_geom_bond_atom_site_label_2
_geom_bond_site_symmetry_1
_geom_bond_site_symmetry_2
O1 C9 1_555 1_555
O2 C9 1_555 1_555
C1 C2 1_555 1_555
C2 H1 1_555 1_555
C3 C2 1_555 1_555
C4 C3 1_555 1_555
H2 C4 1_555 1_555
C5 C4 1_555 1_555
H3 C5 1_555 1_555
C6 C5 1_555 1_555
H4 C6 1_555 1_555
C7 C6 1_555 1_555
H5 C7 1_555 1_555
C8 C3 1_555 1_555
C9 C8 1_555 1_555
C10 O2 1_555 1_555
H6 C10 1_555 1_555
H7 C10 1_555 1_555
H8 C10 1_555 1_555
C11 C1 1_555 1_555
C12 C11 1_555 1_555
H9 C12 1_555 1_555
C13 C12 1_555 1_555
H10 C13 1_555 1_555
C14 C13 1_555 1_555
H11 C14 1_555 1_555
C15 C14 1_555 1_555
H12 C15 1_555 1_555
C16 C11 1_555 1_555
H13 C16 1_555 1_555
C17 C1 1_555 1_555
C18 C17 1_555 1_555
H14 C18 1_555 1_555
C19 C18 1_555 1_555
H15 C19 1_555 1_555
C20 C19 1_555 1_555
C21 C20 1_555 1_555
H16 C21 1_555 1_555
C22 C17 1_555 1_555
H17 C22 1_555 1_555
C23 C20 1_555 1_555
H18 C23 1_555 1_555
H19 C23 1_555 1_555
H20 C23 1_555 1_555
C7 C8 1_555 1_555
C15 C16 1_555 1_555
C21 C22 1_555 1_555

#END
