
#######################################################################
#
#                 Cambridge Crystallographic Data Centre
#                                CCDC 
#
#######################################################################
#
# If this CIF has been generated from an entry in the Cambridge 
# Structural Database, then it will include bibliographic, chemical, 
# crystal, experimental, refinement or atomic coordinate data resulting 
# from the CCDC's data processing and validation procedures.
#
#######################################################################

data_HAMMEP
_chemical_formula_moiety         'C20 H18 Br1 N1 O1'
_chemical_name_systematic        
9-(2-Bromobenzyl)-6-methyl-2,3,4,9-tetrahydro-1H-carbazol-1-one
_symmetry_cell_setting           triclinic
_symmetry_space_group_name_H-M   'P -1'
_symmetry_Int_Tables_number      2
_space_group_name_Hall           '-P 1'
loop_
_symmetry_equiv_pos_site_id
_symmetry_equiv_pos_as_xyz
1 x,y,z
2 -x,-y,-z
_cell_length_a                   8.2775(13)
_cell_length_b                   9.2847(15)
_cell_length_c                   11.970(2)
_cell_angle_alpha                105.357(3)
_cell_angle_beta                 95.592(3)
_cell_angle_gamma                109.688(2)
_cell_volume                     817.395
_exptl_crystal_colour            colorless
_exptl_crystal_description       block
_chemical_melting_point          '265 deg.C'
_cell_formula_units_Z            2
loop_
_atom_site_label
_atom_site_type_symbol
_atom_site_fract_x
_atom_site_fract_y
_atom_site_fract_z
Br1 Br -0.36236(2) -0.04586(2) 0.598709(14)
C1 C 0.2010(2) 0.49283(19) 0.86333(15)
C2 C 0.2058(2) 0.5233(2) 0.75002(15)
C3 C 0.3601(2) 0.6706(2) 0.75352(16)
H1 H 0.3273 0.7133 0.6911
H2 H 0.4588 0.6375 0.7348
C4 C 0.4227(2) 0.8060(2) 0.87260(17)
H3 H 0.3300 0.8494 0.8876
H4 H 0.5282 0.8948 0.8696
C5 C 0.4662(2) 0.7440(2) 0.97386(16)
H5 H 0.5757 0.7236 0.9689
H6 H 0.4852 0.8268 1.0508
C6 C 0.3202(2) 0.59205(19) 0.96666(14)
C7 C 0.2735(2) 0.51990(19) 1.05646(14)
C8 C 0.3394(2) 0.5645(2) 1.17855(14)
H7 H 0.4381 0.6617 1.2168
C9 C 0.1175(2) 0.3192(2) 1.18314(16)
H8 H 0.0669 0.2506 1.2273
C10 C 0.0494(2) 0.2715(2) 1.06360(15)
H9 H -0.0461 0.1719 1.0253
C11 C 0.1257(2) 0.37480(19) 1.00074(14)
C12 C 0.3206(3) 0.5163(3) 1.37487(17)
H10 H 0.4207 0.6197 1.4019
H11 H 0.3556 0.4340 1.3950
H12 H 0.2245 0.5275 1.4137
C13 C -0.0628(2) 0.22827(19) 0.79760(15)
H13 H -0.1158 0.2704 0.7423
H14 H -0.1537 0.1805 0.8395
C14 C -0.0084(2) 0.09738(18) 0.72703(13)
C15 C 0.1617(2) 0.1025(2) 0.75018(15)
H15 H 0.2461 0.1886 0.8136
C16 C 0.2103(2) -0.0164(2) 0.68202(16)
H16 H 0.3268 -0.0114 0.6997
C17 C 0.0896(2) -0.1422(2) 0.58835(15)
H17 H 0.1236 -0.2223 0.5411
C18 C -0.0815(2) -0.1505(2) 0.56399(14)
H18 H -0.1657 -0.2364 0.5003
C19 C -0.1274(2) -0.03176(19) 0.63386(14)
C20 C 0.2604(2) 0.4668(2) 1.24269(15)
N1 N 0.08096(18) 0.36107(16) 0.88333(12)
O1 O 0.09887(19) 0.43654(16) 0.65832(11)
loop_
_geom_bond_atom_site_label_1
_geom_bond_atom_site_label_2
_geom_bond_site_symmetry_1
_geom_bond_site_symmetry_2
Br1 C19 1_555 1_555
C1 C2 1_555 1_555
C2 C3 1_555 1_555
C3 H1 1_555 1_555
H2 C3 1_555 1_555
C4 C3 1_555 1_555
H3 C4 1_555 1_555
H4 C4 1_555 1_555
C5 C4 1_555 1_555
H5 C5 1_555 1_555
H6 C5 1_555 1_555
C6 C1 1_555 1_555
C7 C6 1_555 1_555
C8 C7 1_555 1_555
H7 C8 1_555 1_555
C9 H8 1_555 1_555
C10 C9 1_555 1_555
H9 C10 1_555 1_555
C11 C7 1_555 1_555
C12 H10 1_555 1_555
H11 C12 1_555 1_555
H12 C12 1_555 1_555
C13 H13 1_555 1_555
H14 C13 1_555 1_555
C14 C13 1_555 1_555
C15 C14 1_555 1_555
H15 C15 1_555 1_555
C16 C15 1_555 1_555
H16 C16 1_555 1_555
C17 C16 1_555 1_555
H17 C17 1_555 1_555
C18 C17 1_555 1_555
H18 C18 1_555 1_555
C19 C14 1_555 1_555
C20 C8 1_555 1_555
N1 C1 1_555 1_555
O1 C2 1_555 1_555
C5 C6 1_555 1_555
C9 C20 1_555 1_555
C10 C11 1_555 1_555
C11 N1 1_555 1_555
C12 C20 1_555 1_555
C13 N1 1_555 1_555
C18 C19 1_555 1_555

#END
