
#######################################################################
#
#                 Cambridge Crystallographic Data Centre
#                                CCDC 
#
#######################################################################
#
# If this CIF has been generated from an entry in the Cambridge 
# Structural Database, then it will include bibliographic, chemical, 
# crystal, experimental, refinement or atomic coordinate data resulting 
# from the CCDC's data processing and validation procedures.
#
#######################################################################

data_HAMRIZ
_chemical_formula_moiety         'C31 H25 N2 1+,F6 P1 1-'
_chemical_name_systematic        
'1,3-bis(2-naphthylmethyl)-2-phenyl-1H-imidazol-3-ium hexafluorophosphate'
_chemical_properties_biological  
'extremely potent against a panel of NSCLC cell lines'
_symmetry_cell_setting           monoclinic
_symmetry_space_group_name_H-M   'P 21/c'
_symmetry_Int_Tables_number      14
_space_group_name_Hall           '-P 2ybc'
loop_
_symmetry_equiv_pos_site_id
_symmetry_equiv_pos_as_xyz
1 x,y,z
2 -x,1/2+y,1/2-z
3 -x,-y,-z
4 x,1/2-y,1/2+z
_cell_length_a                   12.0701(5)
_cell_length_b                   8.8644(4)
_cell_length_c                   24.9236(11)
_cell_angle_alpha                90
_cell_angle_beta                 100.317(2)
_cell_angle_gamma                90
_cell_volume                     2623.57
_exptl_crystal_colour            colorless
_exptl_crystal_description       block
_cell_formula_units_Z            4
loop_
_atom_site_label
_atom_site_type_symbol
_atom_site_fract_x
_atom_site_fract_y
_atom_site_fract_z
P1 P 0.65556(5) 0.88349(7) 0.59007(3)
F1 F 0.5869(2) 0.8958(3) 0.53051(8)
F2 F 0.7228(2) 0.8706(3) 0.65044(8)
F3 F 0.59613(16) 0.7284(2) 0.60035(11)
F4 F 0.55616(17) 0.9694(2) 0.61157(9)
F5 F 0.71348(17) 1.0387(2) 0.58104(9)
F6 F 0.75393(18) 0.7952(2) 0.56960(10)
N1 N 0.31393(16) 0.9096(2) 0.88058(8)
N2 N 0.47628(16) 0.8044(2) 0.90718(8)
C1 C 0.40098(19) 0.8434(3) 0.86299(9)
C2 C 0.3349(2) 0.9099(3) 0.93700(10)
H1 H 0.2870 0.9496 0.9599
C3 C 0.4351(2) 0.8442(3) 0.95344(10)
H2 H 0.4711 0.8280 0.9901
C4 C 0.2229(2) 0.9926(3) 0.84634(10)
H3 H 0.2484 1.0215 0.8122
H4 H 0.2094 1.0869 0.8655
C5 C 0.1129(2) 0.9098(3) 0.83169(9)
C6 C 0.0246(2) 0.9906(3) 0.79815(10)
H5 H 0.0371 1.0910 0.7874
C7 C -0.0777(2) 0.9245(3) 0.78143(10)
H6 H -0.1356 0.9789 0.7586
C8 C -0.0987(2) 0.7760(3) 0.79766(10)
C9 C -0.2053(2) 0.7060(3) 0.78220(10)
H7 H -0.2647 0.7591 0.7599
C10 C -0.2233(2) 0.5631(3) 0.79899(11)
H8 H -0.2954 0.5181 0.7887
C11 C -0.1355(2) 0.4816(3) 0.83153(11)
H9 H -0.1485 0.3817 0.8427
C12 C -0.0318(2) 0.5462(3) 0.84707(10)
H10 H 0.0268 0.4906 0.8690
C13 C -0.0111(2) 0.6944(3) 0.83093(9)
C14 C 0.0952(2) 0.7659(3) 0.84737(9)
H11 H 0.1546 0.7125 0.8696
C15 C 0.5886(2) 0.7421(3) 0.90733(10)
H12 H 0.5895 0.6912 0.8721
H13 H 0.6053 0.6654 0.9365
C16 C 0.67953(19) 0.8620(3) 0.91626(9)
C17 C 0.7916(2) 0.8128(3) 0.91665(10)
H14 H 0.8058 0.7093 0.9106
C18 C 0.8789(2) 0.9120(3) 0.92559(10)
H15 H 0.9530 0.8773 0.9247
C19 C 0.8613(2) 1.0662(3) 0.93625(10)
C20 C 0.9515(2) 1.1712(3) 0.94872(10)
H16 H 1.0263 1.1395 0.9477
C21 C 0.9318(2) 1.3165(3) 0.96207(11)
H17 H 0.9931 1.3847 0.9710
C22 C 0.8208(2) 1.3663(3) 0.96269(11)
H18 H 0.8080 1.4674 0.9727
C23 C 0.7318(2) 1.2701(3) 0.94908(10)
H19 H 0.6573 1.3057 0.9484
C24 C 0.7499(2) 1.1172(3) 0.93597(9)
C25 C 0.6598(2) 1.0114(3) 0.92486(9)
H20 H 0.5846 1.0452 0.9234
C26 C 0.40947(19) 0.8152(3) 0.80566(9)
C27 C 0.3289(2) 0.7262(3) 0.77340(10)
H21 H 0.2693 0.6828 0.7884
C28 C 0.3363(2) 0.7014(3) 0.71908(10)
H22 H 0.2818 0.6402 0.6969
C29 C 0.4231(2) 0.7657(3) 0.69729(10)
H23 H 0.4274 0.7493 0.6601
C30 C 0.5037(2) 0.8538(3) 0.72951(10)
H24 H 0.5629 0.8975 0.7143
C31 C 0.4978(2) 0.8781(3) 0.78386(10)
H25 H 0.5535 0.9373 0.8061
loop_
_geom_bond_atom_site_label_1
_geom_bond_atom_site_label_2
_geom_bond_site_symmetry_1
_geom_bond_site_symmetry_2
P1 F1 1_555 1_555
F2 P1 1_555 1_555
F3 P1 1_555 1_555
F4 P1 1_555 1_555
F5 P1 1_555 1_555
F6 P1 1_555 1_555
N1 C1 1_555 1_555
N2 C1 1_555 1_555
C1 C26 1_555 1_555
C2 N1 1_555 1_555
H1 C2 1_555 1_555
C3 N2 1_555 1_555
H2 C3 1_555 1_555
C4 N1 1_555 1_555
H3 C4 1_555 1_555
H4 C4 1_555 1_555
C5 C4 1_555 1_555
C6 C5 1_555 1_555
H5 C6 1_555 1_555
C7 C6 1_555 1_555
H6 C7 1_555 1_555
C8 C7 1_555 1_555
C9 C8 1_555 1_555
H7 C9 1_555 1_555
C10 C9 1_555 1_555
H8 C10 1_555 1_555
C11 C10 1_555 1_555
H9 C11 1_555 1_555
C12 C11 1_555 1_555
H10 C12 1_555 1_555
C13 C8 1_555 1_555
C14 C5 1_555 1_555
H11 C14 1_555 1_555
C15 N2 1_555 1_555
H12 C15 1_555 1_555
H13 C15 1_555 1_555
C16 C15 1_555 1_555
C17 C16 1_555 1_555
H14 C17 1_555 1_555
C18 C17 1_555 1_555
H15 C18 1_555 1_555
C19 C18 1_555 1_555
C20 C19 1_555 1_555
H16 C20 1_555 1_555
C21 C20 1_555 1_555
H17 C21 1_555 1_555
C22 C21 1_555 1_555
H18 C22 1_555 1_555
C23 C22 1_555 1_555
H19 C23 1_555 1_555
C24 C19 1_555 1_555
C25 C16 1_555 1_555
H20 C25 1_555 1_555
C26 C27 1_555 1_555
C27 H21 1_555 1_555
C28 C27 1_555 1_555
H22 C28 1_555 1_555
C29 C28 1_555 1_555
H23 C29 1_555 1_555
C30 C29 1_555 1_555
H24 C30 1_555 1_555
C31 C26 1_555 1_555
H25 C31 1_555 1_555
C2 C3 1_555 1_555
C12 C13 1_555 1_555
C13 C14 1_555 1_555
C23 C24 1_555 1_555
C24 C25 1_555 1_555
C30 C31 1_555 1_555

#END
