
#######################################################################
#
#                 Cambridge Crystallographic Data Centre
#                                CCDC 
#
#######################################################################
#
# If this CIF has been generated from an entry in the Cambridge 
# Structural Database, then it will include bibliographic, chemical, 
# crystal, experimental, refinement or atomic coordinate data resulting 
# from the CCDC's data processing and validation procedures.
#
#######################################################################

data_HAMVUO
_chemical_formula_moiety         'C10 H16 N4 2+,C7 H4 O6 S1 2-'
_chemical_name_systematic        
'1,4-bis(1H-Imidazol-3-ium-1-yl)butane 2-hydroxy-5-sulfonatobenzoate'
_symmetry_cell_setting           orthorhombic
_symmetry_space_group_name_H-M   'P n a 21'
_symmetry_Int_Tables_number      33
_space_group_name_Hall           'P 2c -2n'
loop_
_symmetry_equiv_pos_site_id
_symmetry_equiv_pos_as_xyz
1 x,y,z
2 -x,-y,1/2+z
3 1/2+x,1/2-y,z
4 1/2-x,1/2+y,1/2+z
_cell_length_a                   18.5227(16)
_cell_length_b                   9.6884(8)
_cell_length_c                   10.0139(11)
_cell_angle_alpha                90
_cell_angle_beta                 90
_cell_angle_gamma                90
_cell_volume                     1797.05
_exptl_crystal_colour            colorless
_exptl_crystal_description       block
_chemical_melting_point          '106-108 deg.C'
_cell_formula_units_Z            4
loop_
_atom_site_label
_atom_site_type_symbol
_atom_site_fract_x
_atom_site_fract_y
_atom_site_fract_z
N1 N 0.15271(12) 0.9486(2) 0.4571(3)
N2 N 0.15003(18) 1.0909(3) 0.6191(3)
H1 H 0.1362 1.1338 0.6898
N3 N 0.16560(14) 0.3311(2) 0.2912(3)
N4 N 0.11659(16) 0.1583(3) 0.1948(3)
H2 H 0.0854 0.0966 0.1730
C1 C 0.13402(19) 0.8362(3) 0.3659(4)
H4 H 0.1520 0.8573 0.2773
H5 H 0.0819 0.8277 0.3606
C2 C 0.16594(18) 0.7014(3) 0.4128(4)
H6 H 0.1494 0.6830 0.5030
H7 H 0.2181 0.7099 0.4154
C3 C 0.14587(19) 0.5806(3) 0.3242(3)
H8 H 0.0938 0.5722 0.3196
H9 H 0.1639 0.5962 0.2345
C4 C 0.17775(19) 0.4497(3) 0.3796(4)
H10 H 0.2292 0.4623 0.3923
H11 H 0.1564 0.4308 0.4661
C5 C 0.11572(19) 0.9885(4) 0.5626(4)
H12 H 0.0725 0.9503 0.5919
C6 C 0.21109(19) 1.1193(3) 0.5485(4)
H13 H 0.2448 1.1877 0.5672
C7 C 0.21315(16) 1.0292(3) 0.4468(4)
H14 H 0.2488 1.0228 0.3817
C8 C 0.10679(19) 0.2558(3) 0.2834(4)
H15 H 0.0649 0.2695 0.3329
C9 C 0.1832(2) 0.1701(4) 0.1433(4)
H16 H 0.2038 0.1139 0.0783
C10 C 0.21433(19) 0.2784(4) 0.2034(4)
H17 H 0.2607 0.3115 0.1879
O1 O 0.17262(14) 0.4116(3) 0.7315(2)
O2 O 0.11039(15) 0.2411(2) 0.8252(3)
O3 O 0.01657(12) 0.2850(2) 0.9985(2)
H3 H 0.0409 0.2401 0.9457
O4 O 0.03043(16) 0.9171(2) 0.8377(3)
O5 O 0.15134(12) 0.8975(2) 0.9227(4)
O6 O 0.05244(14) 0.9427(2) 1.0702(2)
S1 S 0.07676(4) 0.87932(8) 0.94749(9)
C11 C 0.1276(2) 0.3685(3) 0.8115(3)
C12 C 0.08676(16) 0.4661(3) 0.9005(3)
C13 C 0.03435(16) 0.4203(3) 0.9888(3)
C14 C -0.00138(18) 0.5137(3) 1.0699(3)
H18 H -0.0353 0.4824 1.1313
C15 C 0.01304(16) 0.6520(3) 1.0601(3)
H19 H -0.0116 0.7141 1.1142
C16 C 0.06346(15) 0.6997(3) 0.9711(3)
C17 C 0.10022(16) 0.6077(3) 0.8919(3)
H20 H 0.1345 0.6401 0.8318
loop_
_geom_bond_atom_site_label_1
_geom_bond_atom_site_label_2
_geom_bond_site_symmetry_1
_geom_bond_site_symmetry_2
N1 C1 1_555 1_555
N2 H1 1_555 1_555
N3 C4 1_555 1_555
N4 H2 1_555 1_555
O1 C11 1_555 1_555
O2 C11 1_555 1_555
O3 H3 1_555 1_555
O4 S1 1_555 1_555
O5 S1 1_555 1_555
O6 S1 1_555 1_555
S1 C16 1_555 1_555
C1 H4 1_555 1_555
H5 C1 1_555 1_555
C2 C1 1_555 1_555
H6 C2 1_555 1_555
H7 C2 1_555 1_555
C3 C2 1_555 1_555
H8 C3 1_555 1_555
H9 C3 1_555 1_555
C4 C3 1_555 1_555
H10 C4 1_555 1_555
H11 C4 1_555 1_555
C5 N1 1_555 1_555
H12 C5 1_555 1_555
C6 N2 1_555 1_555
H13 C6 1_555 1_555
C7 N1 1_555 1_555
H14 C7 1_555 1_555
C8 N3 1_555 1_555
H15 C8 1_555 1_555
C9 N4 1_555 1_555
H16 C9 1_555 1_555
C10 N3 1_555 1_555
H17 C10 1_555 1_555
C11 C12 1_555 1_555
C12 C13 1_555 1_555
C13 O3 1_555 1_555
C14 C13 1_555 1_555
H18 C14 1_555 1_555
C15 C14 1_555 1_555
H19 C15 1_555 1_555
C16 C15 1_555 1_555
C17 C12 1_555 1_555
H20 C17 1_555 1_555
N2 C5 1_555 1_555
N4 C8 1_555 1_555
C6 C7 1_555 1_555
C9 C10 1_555 1_555
C16 C17 1_555 1_555

#END
