
#######################################################################
#
#                 Cambridge Crystallographic Data Centre
#                                CCDC 
#
#######################################################################
#
# If this CIF has been generated from an entry in the Cambridge 
# Structural Database, then it will include bibliographic, chemical, 
# crystal, experimental, refinement or atomic coordinate data resulting 
# from the CCDC's data processing and validation procedures.
#
#######################################################################

data_HAMZAX
_chemical_formula_moiety         'C20 H14 N2 O4,C3 H7 N1 O1'
_chemical_name_systematic        
'2-Amino-4-(4-methoxyphenyl)-5-oxo-4H,5H-pyrano(3,2-c)chromene-3-carbonitrile N,N-dimethylformamide solvate'
_symmetry_cell_setting           triclinic
_symmetry_space_group_name_H-M   'P -1'
_symmetry_Int_Tables_number      2
_space_group_name_Hall           '-P 1'
loop_
_symmetry_equiv_pos_site_id
_symmetry_equiv_pos_as_xyz
1 x,y,z
2 -x,-y,-z
_cell_length_a                   12.472(3)
_cell_length_b                   13.003(3)
_cell_length_c                   13.620(3)
_cell_angle_alpha                99.799(4)
_cell_angle_beta                 95.399(4)
_cell_angle_gamma                104.785(5)
_cell_volume                     2082.47
_exptl_crystal_colour            colorless
_exptl_crystal_description       block
_chemical_melting_point          '507-508 K'
_cell_formula_units_Z            4
_exptl_crystal_recrystallization_method DMF-ethanol
loop_
_atom_site_label
_atom_site_type_symbol
_atom_site_fract_x
_atom_site_fract_y
_atom_site_fract_z
O1 O 0.14762(10) 0.48882(9) 0.36840(9)
O2 O 0.05189(12) 0.37143(11) 0.66709(10)
O3 O 0.12952(11) 0.54572(10) 0.67259(9)
O4 O 0.37998(12) 0.08166(11) 0.60148(11)
N1 N 0.11478(15) 0.39218(16) 0.21213(12)
N2 N -0.00172(17) 0.11149(16) 0.22949(16)
C1 C 0.10962(14) 0.38592(14) 0.30882(13)
C2 C 0.07248(14) 0.29731(14) 0.34877(13)
C3 C 0.07391(14) 0.30022(13) 0.46097(13)
H1 H -0.0028 0.2623 0.4729
C4 C 0.10298(13) 0.41725(13) 0.51436(13)
C5 C 0.13998(13) 0.50097(13) 0.46880(13)
C6 C 0.09160(15) 0.43893(15) 0.62027(14)
C7 C 0.17269(14) 0.63000(14) 0.62555(14)
C8 C 0.21087(16) 0.73315(16) 0.68554(15)
H2 H 0.2078 0.7441 0.7559
C9 C 0.25346(16) 0.81969(16) 0.64090(17)
H3 H 0.2805 0.8908 0.6811
C10 C 0.25716(16) 0.80394(15) 0.53804(17)
H4 H 0.2858 0.8645 0.5084
C11 C 0.21966(14) 0.70128(14) 0.47850(15)
H5 H 0.2228 0.6910 0.4082
C12 C 0.17674(13) 0.61195(14) 0.52252(13)
C13 C 0.03168(15) 0.19503(16) 0.28218(15)
C14 C 0.15704(14) 0.24366(13) 0.50088(13)
C15 C 0.27074(14) 0.28573(13) 0.50077(13)
H6 H 0.2965 0.3514 0.4775
C16 C 0.34805(15) 0.23457(14) 0.53369(13)
H7 H 0.4257 0.2646 0.5327
C17 C 0.31059(15) 0.13912(14) 0.56802(13)
C18 C 0.19724(16) 0.09620(15) 0.57001(15)
H8 H 0.1717 0.0312 0.5942
C19 C 0.12156(15) 0.14839(14) 0.53661(14)
H9 H 0.0439 0.1187 0.5381
C20 C 0.49548(19) 0.1196(2) 0.5921(2)
H10 H 0.5029 0.1256 0.5222
H11 H 0.5350 0.0682 0.6113
H12 H 0.5280 0.1909 0.6363
H39 H 0.1450(18) 0.4613(19) 0.2023(16)
H40 H 0.110(2) 0.330(2) 0.1674(19)
O5 O 0.22769(12) 0.61508(11) 0.20001(11)
N3 N 0.13395(14) 0.67670(14) 0.08311(12)
C21 C 0.22539(17) 0.67052(16) 0.13514(14)
H13 H 0.2951 0.7119 0.1219
C22 C 0.1396(2) 0.7476(3) 0.0103(2)
H14 H 0.2182 0.7843 0.0081
H15 H 0.0997 0.8018 0.0304
H16 H 0.1048 0.7042 -0.0565
C23 C 0.02261(18) 0.6230(2) 0.10248(18)
H17 H 0.0289 0.5747 0.1494
H18 H -0.0231 0.5804 0.0391
H19 H -0.0129 0.6777 0.1320
O6 O 0.37217(10) 0.44134(10) 0.15573(8)
O7 O 0.58637(12) 0.21129(12) 0.02717(10)
O8 O 0.49066(11) 0.27886(11) -0.07718(9)
O9 O 0.25075(12) -0.11340(11) 0.26341(12)
N4 N 0.39254(13) 0.53437(13) 0.31202(12)
N5 N 0.57986(13) 0.42745(13) 0.46251(11)
C24 C 0.42044(14) 0.45440(14) 0.25398(12)
C25 C 0.48696(13) 0.39295(13) 0.27937(12)
C26 C 0.50287(14) 0.29848(14) 0.20592(12)
H20 H 0.5838 0.3001 0.2164
C27 C 0.47483(14) 0.31646(14) 0.10087(12)
C28 C 0.41112(13) 0.38163(14) 0.08196(12)
C29 C 0.52106(15) 0.26488(15) 0.01902(13)
C30 C 0.41951(15) 0.34084(15) -0.09583(13)
C31 C 0.39054(17) 0.34596(17) -0.19534(13)
H21 H 0.4201 0.3086 -0.2477
C32 C 0.31866(17) 0.40571(18) -0.21701(14)
H22 H 0.2982 0.4095 -0.2850
C33 C 0.27536(17) 0.46074(17) -0.14091(14)
H23 H 0.2254 0.5016 -0.1570
C34 C 0.30501(15) 0.45607(15) -0.04158(13)
H24 H 0.2761 0.4943 0.0106
C35 C 0.37736(14) 0.39517(14) -0.01825(12)
C36 C 0.53757(14) 0.41277(13) 0.38072(13)
C37 C 0.43313(14) 0.18834(14) 0.22134(12)
C38 C 0.33663(15) 0.17900(14) 0.26473(13)
H25 H 0.3129 0.2423 0.2849
C39 C 0.27275(16) 0.08010(15) 0.28001(14)
H26 H 0.2069 0.0761 0.3107
C40 C 0.30614(16) -0.01199(15) 0.25006(14)
C41 C 0.40248(18) -0.00487(16) 0.20470(16)
H27 H 0.4249 -0.0686 0.1830
C42 C 0.46548(17) 0.09397(15) 0.19102(15)
H28 H 0.5316 0.0980 0.1607
C43 C 0.14690(19) -0.12423(18) 0.30156(19)
H29 H 0.1599 -0.0803 0.3698
H30 H 0.1132 -0.2006 0.3032
H31 H 0.0962 -0.0992 0.2579
H41 H 0.3479(18) 0.5643(17) 0.2836(16)
H42 H 0.4051(17) 0.5428(16) 0.3793(17)
O10 O 0.12581(15) 0.23867(15) 1.03764(12)
N6 N 0.19487(16) 0.11396(15) 0.94561(14)
C44 C 0.1685(2) 0.1637(2) 1.03095(18)
H32 H 0.1843 0.1386 1.0907
C45 C 0.2470(3) 0.0268(2) 0.9439(3)
H33 H 0.2669 0.0187 1.0129
H34 H 0.3149 0.0434 0.9119
H35 H 0.1947 -0.0410 0.9055
C46 C 0.1669(2) 0.1429(2) 0.85135(17)
H36 H 0.0996 0.0887 0.8135
H37 H 0.2293 0.1454 0.8123
H38 H 0.1527 0.2144 0.8639
loop_
_geom_bond_atom_site_label_1
_geom_bond_atom_site_label_2
_geom_bond_site_symmetry_1
_geom_bond_site_symmetry_2
O1 C1 1_555 1_555
O2 C6 1_555 1_555
O3 C6 1_555 1_555
O4 C17 1_555 1_555
O5 C21 1_555 1_555
O6 C24 1_555 1_555
O7 C29 1_555 1_555
O8 C29 1_555 1_555
O9 C40 1_555 1_555
O10 C44 1_555 1_555
N1 C1 1_555 1_555
N2 C13 1_555 1_555
N3 C21 1_555 1_555
N4 C24 1_555 1_555
N5 C36 1_555 1_555
N6 C44 1_555 1_555
C1 C2 1_555 1_555
C2 C3 1_555 1_555
C3 H1 1_555 1_555
C4 C3 1_555 1_555
C5 O1 1_555 1_555
C6 C4 1_555 1_555
C7 O3 1_555 1_555
C8 C7 1_555 1_555
H2 C8 1_555 1_555
C9 C8 1_555 1_555
H3 C9 1_555 1_555
C10 C9 1_555 1_555
H4 C10 1_555 1_555
C11 C10 1_555 1_555
H5 C11 1_555 1_555
C12 C5 1_555 1_555
C13 C2 1_555 1_555
C14 C3 1_555 1_555
C15 C14 1_555 1_555
H6 C15 1_555 1_555
C16 C15 1_555 1_555
H7 C16 1_555 1_555
C17 C16 1_555 1_555
C18 C17 1_555 1_555
H8 C18 1_555 1_555
C19 C14 1_555 1_555
H9 C19 1_555 1_555
C20 O4 1_555 1_555
H10 C20 1_555 1_555
H11 C20 1_555 1_555
H12 C20 1_555 1_555
C21 H13 1_555 1_555
C22 N3 1_555 1_555
H14 C22 1_555 1_555
H15 C22 1_555 1_555
H16 C22 1_555 1_555
C23 N3 1_555 1_555
H17 C23 1_555 1_555
H18 C23 1_555 1_555
H19 C23 1_555 1_555
C24 C25 1_555 1_555
C25 C26 1_555 1_555
C26 H20 1_555 1_555
C27 C26 1_555 1_555
C28 O6 1_555 1_555
C29 C27 1_555 1_555
C30 O8 1_555 1_555
C31 C30 1_555 1_555
H21 C31 1_555 1_555
C32 C31 1_555 1_555
H22 C32 1_555 1_555
C33 C32 1_555 1_555
H23 C33 1_555 1_555
C34 C33 1_555 1_555
H24 C34 1_555 1_555
C35 C28 1_555 1_555
C36 C25 1_555 1_555
C37 C26 1_555 1_555
C38 C37 1_555 1_555
H25 C38 1_555 1_555
C39 C38 1_555 1_555
H26 C39 1_555 1_555
C40 C39 1_555 1_555
C41 C40 1_555 1_555
H27 C41 1_555 1_555
C42 C37 1_555 1_555
H28 C42 1_555 1_555
C43 O9 1_555 1_555
H29 C43 1_555 1_555
H30 C43 1_555 1_555
H31 C43 1_555 1_555
C44 H32 1_555 1_555
C45 N6 1_555 1_555
H33 C45 1_555 1_555
H34 C45 1_555 1_555
H35 C45 1_555 1_555
C46 N6 1_555 1_555
H36 C46 1_555 1_555
H37 C46 1_555 1_555
H38 C46 1_555 1_555
H39 N1 1_555 1_555
H40 N1 1_555 1_555
H41 N4 1_555 1_555
H42 N4 1_555 1_555
C4 C5 1_555 1_555
C7 C12 1_555 1_555
C11 C12 1_555 1_555
C18 C19 1_555 1_555
C27 C28 1_555 1_555
C30 C35 1_555 1_555
C34 C35 1_555 1_555
C41 C42 1_555 1_555

#END
