
#######################################################################
#
#                 Cambridge Crystallographic Data Centre
#                                CCDC 
#
#######################################################################
#
# If this CIF has been generated from an entry in the Cambridge 
# Structural Database, then it will include bibliographic, chemical, 
# crystal, experimental, refinement or atomic coordinate data resulting 
# from the CCDC's data processing and validation procedures.
#
#######################################################################

data_HANLIU
_chemical_formula_moiety         'C20 H13 N1 O2'
_chemical_name_systematic        1,3-diphenyl-2H-isoindole-4,7-dione
_symmetry_cell_setting           orthorhombic
_symmetry_space_group_name_H-M   'P b c a'
_symmetry_Int_Tables_number      61
_space_group_name_Hall           '-P 2ac 2ab'
loop_
_symmetry_equiv_pos_site_id
_symmetry_equiv_pos_as_xyz
1 x,y,z
2 1/2+x,1/2-y,-z
3 -x,1/2+y,1/2-z
4 1/2-x,-y,1/2+z
5 -x,-y,-z
6 1/2-x,1/2+y,z
7 x,1/2-y,1/2+z
8 1/2+x,y,1/2-z
_cell_length_a                   11.177(4)
_cell_length_b                   15.579(6)
_cell_length_c                   17.077(6)
_cell_angle_alpha                90
_cell_angle_beta                 90
_cell_angle_gamma                90
_cell_volume                     2973.56
_exptl_crystal_colour            'dull orange'
_exptl_crystal_description       block
_cell_formula_units_Z            8
loop_
_atom_site_label
_atom_site_type_symbol
_atom_site_fract_x
_atom_site_fract_y
_atom_site_fract_z
O1 O 0.85313(16) 0.31293(13) 0.49890(11)
N1 N 0.87080(16) 0.51067(14) 0.32023(12)
H1 H 0.82652(16) 0.53564(14) 0.28591(12)
O2 O 1.24239(16) 0.48702(14) 0.39556(12)
C1 C 1.0293(2) 0.47352(16) 0.39002(14)
C2 C 0.8298(2) 0.45032(16) 0.37196(14)
C3 C 0.9273(2) 0.42518(16) 0.41680(14)
C4 C 0.9375(2) 0.35686(17) 0.47565(15)
C5 C 1.0513(2) 0.58803(15) 0.27652(15)
C6 C 1.1497(2) 0.45320(18) 0.41898(15)
C7 C 0.7043(2) 0.42014(15) 0.36819(15)
C8 C 0.9909(2) 0.52672(16) 0.32949(15)
C9 C 1.2086(2) 0.69076(17) 0.24989(18)
H2 H 1.2757(2) 0.72093(17) 0.26653(18)
C10 C 1.0668(3) 0.65745(19) 0.15019(17)
H3 H 1.0370(3) 0.66590(19) 0.09994(17)
C11 C 0.5411(2) 0.36083(17) 0.29179(18)
H4 H 0.5118(2) 0.34010(17) 0.24445(18)
C12 C 1.0608(2) 0.34175(19) 0.50501(17)
H5 H 1.0726(2) 0.30030(19) 0.54344(17)
C13 C 1.1667(3) 0.70174(19) 0.17446(17)
H6 H 1.2058(3) 0.73881(19) 0.14029(17)
C14 C 1.1513(2) 0.63514(17) 0.30105(16)
H7 H 1.1795(2) 0.62908(17) 0.35200(16)
C15 C 0.5151(2) 0.3899(2) 0.42817(17)
H8 H 0.4660(2) 0.3903(2) 0.47212(17)
C16 C 0.6577(2) 0.39322(17) 0.29708(15)
H9 H 0.7045(2) 0.39674(17) 0.25219(15)
C17 C 0.4709(2) 0.36021(19) 0.35751(19)
H10 H 0.3930(2) 0.33963(19) 0.35462(19)
C18 C 0.6310(2) 0.41885(18) 0.43400(16)
H11 H 0.6604(2) 0.43759(18) 0.48199(16)
C19 C 1.1546(2) 0.38488(19) 0.47872(17)
H12 H 1.2292(2) 0.37109(19) 0.49943(17)
C20 C 1.0103(3) 0.60017(18) 0.20047(16)
H13 H 0.9441(3) 0.56950(18) 0.18297(16)
loop_
_geom_bond_atom_site_label_1
_geom_bond_atom_site_label_2
_geom_bond_site_symmetry_1
_geom_bond_site_symmetry_2
O1 C4 1_555 1_555
N1 H1 1_555 1_555
O2 C6 1_555 1_555
C1 C3 1_555 1_555
C2 N1 1_555 1_555
C3 C2 1_555 1_555
C4 C3 1_555 1_555
C5 C8 1_555 1_555
C6 C1 1_555 1_555
C7 C2 1_555 1_555
C8 N1 1_555 1_555
C9 H2 1_555 1_555
C10 H3 1_555 1_555
C11 H4 1_555 1_555
C12 C4 1_555 1_555
H5 C12 1_555 1_555
C13 C9 1_555 1_555
H6 C13 1_555 1_555
C14 C5 1_555 1_555
H7 C14 1_555 1_555
C15 H8 1_555 1_555
C16 C7 1_555 1_555
H9 C16 1_555 1_555
C17 C11 1_555 1_555
H10 C17 1_555 1_555
C18 C7 1_555 1_555
H11 C18 1_555 1_555
C19 C6 1_555 1_555
H12 C19 1_555 1_555
C20 C5 1_555 1_555
H13 C20 1_555 1_555
C1 C8 1_555 1_555
C9 C14 1_555 1_555
C10 C13 1_555 1_555
C10 C20 1_555 1_555
C11 C16 1_555 1_555
C12 C19 1_555 1_555
C15 C17 1_555 1_555
C15 C18 1_555 1_555

#END
