
#######################################################################
#
#                 Cambridge Crystallographic Data Centre
#                                CCDC 
#
#######################################################################
#
# If this CIF has been generated from an entry in the Cambridge 
# Structural Database, then it will include bibliographic, chemical, 
# crystal, experimental, refinement or atomic coordinate data resulting 
# from the CCDC's data processing and validation procedures.
#
#######################################################################

data_HAPBOP
_chemical_formula_moiety         'C24 H56 Li2 N6'
_chemical_name_systematic        
bis(\m~2~-Tetraethyldiethylenetriamine)-di-lithium
_symmetry_cell_setting           monoclinic
_symmetry_space_group_name_H-M   'P 21/a'
_symmetry_Int_Tables_number      14
_space_group_name_Hall           '-P 2yab'
loop_
_symmetry_equiv_pos_site_id
_symmetry_equiv_pos_as_xyz
1 x,y,z
2 1/2-x,1/2+y,-z
3 -x,-y,-z
4 1/2+x,1/2-y,z
_cell_length_a                   13.618(5)
_cell_length_b                   13.240(5)
_cell_length_c                   17.748(7)
_cell_angle_alpha                90
_cell_angle_beta                 107.397(3)
_cell_angle_gamma                90
_cell_volume                     3053.62
_exptl_crystal_colour            colorless
_cell_formula_units_Z            4
loop_
_atom_site_label
_atom_site_type_symbol
_atom_site_fract_x
_atom_site_fract_y
_atom_site_fract_z
N1 N 0.970(1) 0.078(1) 0.840(1)
N2 N 0.848(1) -0.088(1) 0.7580(9)
N3 N 0.647(1) -0.169(1) 0.658(1)
N4 N 0.637(1) -0.065(1) 0.855(1)
N5 N 0.681(1) 0.090(1) 0.747(1)
N6 N 0.802(1) 0.169(1) 0.650(1)
C1 C 0.963(1) -0.017(2) 0.878(1)
C2 C 0.940(2) -0.103(2) 0.822(1)
C3 C 0.838(2) -0.168(2) 0.699(1)
C4 C 0.742(2) -0.160(2) 0.633(1)
C5 C 1.048(2) 0.078(2) 0.799(1)
C6 C 1.160(2) 0.054(2) 0.844(1)
C7 C 0.993(2) 0.166(2) 0.895(1)
C8 C 0.915(2) 0.209(2) 0.917(1)
C9 C 0.642(2) -0.267(2) 0.697(1)
C10 C 0.630(2) -0.360(2) 0.647(2)
C11 C 0.558(2) -0.142(2) 0.591(1)
C12 C 0.473(2) -0.099(2) 0.603(2)
C13 C 0.663(2) 0.043(2) 0.875(1)
C14 C 0.631(2) 0.113(2) 0.805(1)
C15 C 0.639(2) 0.154(2) 0.682(1)
C16 C 0.694(2) 0.151(2) 0.621(1)
C17 C 0.691(2) -0.122(2) 0.927(2)
C18 C 0.720(2) -0.220(2) 0.921(2)
C19 C 0.533(2) -0.086(2) 0.827(1)
C20 C 0.463(2) -0.059(2) 0.879(2)
C21 C 0.827(2) 0.265(2) 0.687(1)
C22 C 0.790(2) 0.362(2) 0.636(2)
C23 C 0.861(2) 0.158(2) 0.591(2)
C24 C 0.885(2) 0.065(3) 0.575(2)
Li1 Li 0.827(3) 0.060(3) 0.750(2)
Li2 Li 0.698(3) -0.066(3) 0.751(2)
H1 H 1.0289 -0.0309 0.9226
H2 H 0.9114 -0.0177 0.9073
H3 H 0.9393 -0.1680 0.8484
H4 H 1.0002 -0.1102 0.8008
H5 H 0.8954 -0.1722 0.6785
H6 H 0.8351 -0.2366 0.7228
H7 H 0.7355 -0.2080 0.5907
H8 H 0.7401 -0.0930 0.6078
H9 H 1.0267 0.0267 0.7534
H10 H 1.0448 0.1417 0.7678
H11 H 1.1654 -0.0079 0.8704
H12 H 1.2064 0.0562 0.8130
H13 H 1.1834 0.1071 0.8847
H14 H 1.0444 0.1514 0.9428
H15 H 1.0185 0.2227 0.8701
H16 H 0.9327 0.2645 0.9500
H17 H 0.8588 0.2279 0.8701
H18 H 0.8852 0.1571 0.9431
H19 H 0.7096 -0.2739 0.7397
H20 H 0.5913 -0.2683 0.7239
H21 H 0.5665 -0.3608 0.6039
H22 H 0.6848 -0.3667 0.6200
H23 H 0.6331 -0.4244 0.6741
H24 H 0.5798 -0.0923 0.5564
H25 H 0.5325 -0.1988 0.5567
H26 H 0.4943 -0.0376 0.6338
H27 H 0.4213 -0.0816 0.5562
H28 H 0.4466 -0.1440 0.6336
H29 H 0.6342 0.0661 0.9179
H30 H 0.7387 0.0530 0.9007
H31 H 0.6393 0.1872 0.8163
H32 H 0.5535 0.1094 0.7785
H33 H 0.5618 0.1416 0.6568
H34 H 0.6367 0.2263 0.6991
H35 H 0.6633 0.1954 0.5756
H36 H 0.6832 0.0821 0.5968
H37 H 0.7607 -0.0912 0.9535
H38 H 0.6570 -0.1229 0.9660
H39 H 0.6543 -0.2616 0.8935
H40 H 0.7583 -0.2300 0.8814
H41 H 0.7533 -0.2585 0.9650
H42 H 0.4980 -0.0394 0.7763
H43 H 0.5126 -0.1520 0.8013
H44 H 0.4702 0.0029 0.9029
H45 H 0.3886 -0.0761 0.8599
H46 H 0.4844 -0.1098 0.9276
H47 H 0.8126 0.2707 0.7374
H48 H 0.9069 0.2731 0.7055
H49 H 0.8055 0.4241 0.6614
H50 H 0.8048 0.3603 0.5879
H51 H 0.7106 0.3580 0.6199
H52 H 0.8336 0.1898 0.5416
H53 H 0.9334 0.1890 0.6124
H54 H 0.8268 0.0233 0.5462
H55 H 0.9298 0.0591 0.5346
H56 H 0.9267 0.0226 0.6169
loop_
_geom_bond_atom_site_label_1
_geom_bond_atom_site_label_2
_geom_bond_site_symmetry_1
_geom_bond_site_symmetry_2
N1 C1 1_555 1_555
N2 C2 1_555 1_555
N3 C4 1_555 1_555
N4 C13 1_555 1_555
N5 C14 1_555 1_555
N6 C16 1_555 1_555
C1 C2 1_555 1_555
C2 H3 1_555 1_555
C3 N2 1_555 1_555
C4 C3 1_555 1_555
C5 N1 1_555 1_555
C6 C5 1_555 1_555
C7 N1 1_555 1_555
C8 C7 1_555 1_555
C9 N3 1_555 1_555
C10 C9 1_555 1_555
C11 N3 1_555 1_555
C12 C11 1_555 1_555
C13 C14 1_555 1_555
C14 H31 1_555 1_555
C15 N5 1_555 1_555
C16 C15 1_555 1_555
C17 N4 1_555 1_555
C18 C17 1_555 1_555
C19 N4 1_555 1_555
C20 C19 1_555 1_555
C21 N6 1_555 1_555
C22 C21 1_555 1_555
C23 N6 1_555 1_555
C24 C23 1_555 1_555
Li1 N1 1_555 1_555
Li2 N2 1_555 1_555
H1 C1 1_555 1_555
H2 C1 1_555 1_555
H4 C2 1_555 1_555
H5 C3 1_555 1_555
H6 C3 1_555 1_555
H7 C4 1_555 1_555
H8 C4 1_555 1_555
H9 C5 1_555 1_555
H10 C5 1_555 1_555
H11 C6 1_555 1_555
H12 C6 1_555 1_555
H13 C6 1_555 1_555
H14 C7 1_555 1_555
H15 C7 1_555 1_555
H16 C8 1_555 1_555
H17 C8 1_555 1_555
H18 C8 1_555 1_555
H19 C9 1_555 1_555
H20 C9 1_555 1_555
H21 C10 1_555 1_555
H22 C10 1_555 1_555
H23 C10 1_555 1_555
H24 C11 1_555 1_555
H25 C11 1_555 1_555
H26 C12 1_555 1_555
H27 C12 1_555 1_555
H28 C12 1_555 1_555
H29 C13 1_555 1_555
H30 C13 1_555 1_555
H32 C14 1_555 1_555
H33 C15 1_555 1_555
H34 C15 1_555 1_555
H35 C16 1_555 1_555
H36 C16 1_555 1_555
H37 C17 1_555 1_555
H38 C17 1_555 1_555
H39 C18 1_555 1_555
H40 C18 1_555 1_555
H41 C18 1_555 1_555
H42 C19 1_555 1_555
H43 C19 1_555 1_555
H44 C20 1_555 1_555
H45 C20 1_555 1_555
H46 C20 1_555 1_555
H47 C21 1_555 1_555
H48 C21 1_555 1_555
H49 C22 1_555 1_555
H50 C22 1_555 1_555
H51 C22 1_555 1_555
H52 C23 1_555 1_555
H53 C23 1_555 1_555
H54 C24 1_555 1_555
H55 C24 1_555 1_555
H56 C24 1_555 1_555
N2 Li1 1_555 1_555
N3 Li2 1_555 1_555
N4 Li2 1_555 1_555
N5 Li1 1_555 1_555
N5 Li2 1_555 1_555
N6 Li1 1_555 1_555

#END
