
#######################################################################
#
#                 Cambridge Crystallographic Data Centre
#                                CCDC 
#
#######################################################################
#
# If this CIF has been generated from an entry in the Cambridge 
# Structural Database, then it will include bibliographic, chemical, 
# crystal, experimental, refinement or atomic coordinate data resulting 
# from the CCDC's data processing and validation procedures.
#
#######################################################################

data_HAPCIN
_chemical_name_common            
N-(2-methoxyphenyl)-2-oxo-2-phenyl-N-tosylacetamide
_chemical_formula_moiety         'C22 H19 N1 O5 S1'
_chemical_name_systematic        
N-(2-methoxyphenyl)-N-((4-methylphenyl)sulfonyl)-2-oxo-2-phenylacetamide
_symmetry_cell_setting           triclinic
_symmetry_space_group_name_H-M   'P -1'
_symmetry_Int_Tables_number      2
_space_group_name_Hall           '-P 1'
loop_
_symmetry_equiv_pos_site_id
_symmetry_equiv_pos_as_xyz
1 x,y,z
2 -x,-y,-z
_cell_length_a                   7.8901(8)
_cell_length_b                   8.3115(8)
_cell_length_c                   15.2796(14)
_cell_angle_alpha                89.604(2)
_cell_angle_beta                 76.025(2)
_cell_angle_gamma                81.341(2)
_cell_volume                     960.82
_exptl_crystal_colour            colorless
_cell_formula_units_Z            2
_exptl_crystal_recrystallization_method ethanol
loop_
_atom_site_label
_atom_site_type_symbol
_atom_site_fract_x
_atom_site_fract_y
_atom_site_fract_z
C1 C 0.71705(17) 0.46019(16) 0.65119(9)
C2 C 0.78570(17) 0.50030(16) 0.56264(9)
H1 H 0.8557 0.5850 0.5498
C3 C 0.75022(18) 0.41449(17) 0.49333(9)
H2 H 0.7974 0.4404 0.4325
C4 C 0.64652(17) 0.29079(16) 0.51144(10)
C5 C 0.57746(17) 0.25479(16) 0.60117(10)
H3 H 0.5051 0.1719 0.6142
C6 C 0.61246(17) 0.33759(16) 0.67143(9)
H4 H 0.5661 0.3114 0.7323
C7 C 0.6112(2) 0.19610(19) 0.43579(11)
H5 H 0.4966 0.2426 0.4249
H6 H 0.6095 0.0821 0.4523
H7 H 0.7046 0.2020 0.3809
C8 C 0.63068(17) 0.87930(16) 0.74449(9)
C9 C 0.78875(17) 0.91340(16) 0.66908(9)
C10 C 0.91384(17) 1.00636(16) 0.69689(9)
C11 C 0.93663(19) 0.99831(18) 0.78441(10)
H8 H 0.8705 0.9340 0.8273
C12 C 1.0566(2) 1.0849(2) 0.80865(11)
H9 H 1.0762 1.0769 0.8676
C13 C 1.1478(2) 1.18322(19) 0.74636(12)
H10 H 1.2278 1.2445 0.7633
C14 C 1.12318(19) 1.19272(18) 0.65988(12)
H11 H 1.1852 1.2614 0.6180
C15 C 1.00857(18) 1.10273(17) 0.63392(10)
H12 H 0.9945 1.1065 0.5739
C16 C 0.45306(17) 0.69852(16) 0.83787(9)
C17 C 0.30860(18) 0.65103(17) 0.81504(10)
H13 H 0.3100 0.6335 0.7535
C18 C 0.16072(19) 0.62883(18) 0.88267(11)
H14 H 0.0607 0.5958 0.8678
C19 C 0.1619(2) 0.65553(18) 0.97166(11)
H15 H 0.0616 0.6398 1.0179
C20 C 0.3059(2) 0.70482(18) 0.99515(10)
H16 H 0.3033 0.7236 1.0568
C21 C 0.45407(18) 0.72653(16) 0.92798(9)
C22 C 0.6107(2) 0.7958(2) 1.03380(11)
H17 H 0.5138 0.8800 1.0641
H18 H 0.7240 0.8290 1.0354
H19 H 0.5995 0.6929 1.0647
N1 N 0.60879(14) 0.72109(13) 0.76896(7)
O1 O 0.75175(13) 0.45729(12) 0.81557(7)
O2 O 0.93058(12) 0.62538(12) 0.70599(6)
O3 O 0.52083(12) 0.99481(11) 0.77643(7)
O4 O 0.78785(13) 0.88379(12) 0.59163(6)
O5 O 0.60302(13) 0.77485(13) 0.94197(7)
S1 S 0.77061(4) 0.55907(4) 0.73949(2)
loop_
_geom_bond_atom_site_label_1
_geom_bond_atom_site_label_2
_geom_bond_site_symmetry_1
_geom_bond_site_symmetry_2
C1 C2 1_555 1_555
C2 H1 1_555 1_555
C3 C2 1_555 1_555
H2 C3 1_555 1_555
C4 C3 1_555 1_555
C5 C4 1_555 1_555
H3 C5 1_555 1_555
C6 C1 1_555 1_555
H4 C6 1_555 1_555
C7 C4 1_555 1_555
H5 C7 1_555 1_555
H6 C7 1_555 1_555
H7 C7 1_555 1_555
C8 C9 1_555 1_555
C9 C10 1_555 1_555
C10 C11 1_555 1_555
C11 H8 1_555 1_555
C12 C11 1_555 1_555
H9 C12 1_555 1_555
C13 C12 1_555 1_555
H10 C13 1_555 1_555
C14 C13 1_555 1_555
H11 C14 1_555 1_555
C15 C10 1_555 1_555
H12 C15 1_555 1_555
C16 C17 1_555 1_555
C17 H13 1_555 1_555
C18 C17 1_555 1_555
H14 C18 1_555 1_555
C19 C18 1_555 1_555
H15 C19 1_555 1_555
C20 C19 1_555 1_555
H16 C20 1_555 1_555
C21 C16 1_555 1_555
C22 H17 1_555 1_555
H18 C22 1_555 1_555
H19 C22 1_555 1_555
N1 C8 1_555 1_555
O1 S1 1_555 1_555
O2 S1 1_555 1_555
O3 C8 1_555 1_555
O4 C9 1_555 1_555
O5 C21 1_555 1_555
S1 C1 1_555 1_555
C5 C6 1_555 1_555
C14 C15 1_555 1_555
C16 N1 1_555 1_555
C20 C21 1_555 1_555
C22 O5 1_555 1_555
N1 S1 1_555 1_555

#END
