
#######################################################################
#
#                 Cambridge Crystallographic Data Centre
#                                CCDC 
#
#######################################################################
#
# If this CIF has been generated from an entry in the Cambridge 
# Structural Database, then it will include bibliographic, chemical, 
# crystal, experimental, refinement or atomic coordinate data resulting 
# from the CCDC's data processing and validation procedures.
#
#######################################################################

data_HAPQAT
_chemical_formula_moiety         'C36 H84 Mg1 O12 S6 2+,2(C4 H8 Cl3 Mg1 O1 1-)'
_chemical_name_systematic        
'hexakis(di-n-propyl sulfone)-magnesium bis(trichloro-tetrahydrofuran-magnesium)'
_symmetry_cell_setting           rhombohedral
_symmetry_space_group_name_H-M   'R -3'
_symmetry_Int_Tables_number      148
_space_group_name_Hall           '-R 3'
loop_
_symmetry_equiv_pos_site_id
_symmetry_equiv_pos_as_xyz
1 x,y,z
2 1/3+x,2/3+y,2/3+z
3 2/3+x,1/3+y,1/3+z
4 -y,x-y,z
5 1/3-y,2/3+x-y,2/3+z
6 2/3-y,1/3+x-y,1/3+z
7 -x+y,-x,z
8 1/3-x+y,2/3-x,2/3+z
9 2/3-x+y,1/3-x,1/3+z
10 -x,-y,-z
11 2/3-x,1/3-y,1/3-z
12 1/3-x,2/3-y,2/3-z
13 y,-x+y,-z
14 2/3+y,1/3-x+y,1/3-z
15 1/3+y,2/3-x+y,2/3-z
16 x-y,x,-z
17 2/3+x-y,1/3+x,1/3-z
18 1/3+x-y,2/3+x,2/3-z
_cell_length_a                   14.3628(4)
_cell_length_b                   14.3628(4)
_cell_length_c                   29.6650(9)
_cell_angle_alpha                90
_cell_angle_beta                 90
_cell_angle_gamma                120
_cell_volume                     5299.72
_exptl_crystal_colour            white
_exptl_crystal_description       sphere
_cell_formula_units_Z            3
loop_
_atom_site_label
_atom_site_type_symbol
_atom_site_fract_x
_atom_site_fract_y
_atom_site_fract_z
Mg2 Mg 0.6667 0.3333 0.62604(4)
Cl1 Cl 0.63158(5) 0.46725(5) 0.64645(2)
O3 O 0.6667 0.3333 0.55823(14)
C7 C 0.6452(5) 0.4115(6) 0.5302(2)
C8 C 0.6616(8) 0.2609(11) 0.4880(5)
H15 H 0.7088 0.4949 0.5262
H16 H 0.5678 0.4081 0.5330
H17 H 0.7324 0.2747 0.4691
H18 H 0.5915 0.1879 0.4759
C7C C 0.5885(6) 0.2337(8) 0.5302(2)
C8C C 0.7391(11) 0.4007(14) 0.4880(5)
H15C H 0.5051 0.2139 0.5262
H16C H 0.5919 0.1597 0.5330
H17C H 0.7253 0.4577 0.4691
H18C H 0.8121 0.4036 0.4759
C7F C 0.7663(8) 0.3548(5) 0.5302(2)
C8F C 0.5993(14) 0.3384(8) 0.4880(5)
H15F H 0.7861 0.2912 0.5262
H16F H 0.8403 0.4322 0.5330
H17F H 0.5423 0.2676 0.4691
H18F H 0.5964 0.4085 0.4759
Cl1C Cl 0.53275(5) 0.16433(7) 0.64645(2)
Cl1F Cl 0.83567(7) 0.36842(5) 0.64645(2)
Mg1 Mg 1.0000 1.0000 0.5000
S1 S 0.85159(4) 0.76468(4) 0.553370(16)
O1 O 0.88989(12) 0.87648(12) 0.54020(5)
O2 O 0.79864(15) 0.68517(13) 0.51862(5)
C1 C 0.76234(19) 0.73676(18) 0.59897(7)
C2 C 0.6551(2) 0.7217(2) 0.58268(9)
C3 C 0.5815(2) 0.7046(2) 0.62266(11)
C4 C 0.9626(2) 0.7572(2) 0.57387(9)
C5 C 0.9361(3) 0.6434(3) 0.58643(15)
C6 C 1.0288(4) 0.6266(3) 0.58214(18)
H1 H 0.7971 0.7949 0.6205
H2 H 0.7525 0.6720 0.6119
H3 H 0.6681 0.7842 0.5659
H4 H 0.6216 0.6614 0.5626
H5 H 0.5153 0.6957 0.6125
H6 H 0.6136 0.7660 0.6421
H7 H 0.5686 0.6424 0.6396
H8 H 0.9908 0.8046 0.5988
H9 H 1.0149 0.7835 0.5498
H10 H 0.9083 0.6268 0.6165
H11 H 0.8816 0.5933 0.5659
H12 H 1.0074 0.5530 0.5916
H13 H 1.0836 0.6788 0.6027
H14 H 1.0508 0.6381 0.5509
S1I S 1.14841(4) 1.23532(4) 0.446630(16)
O1I O 1.11011(12) 1.12352(12) 0.45980(5)
O2I O 1.20136(15) 1.31483(13) 0.48138(5)
C1I C 1.23766(19) 1.26324(18) 0.40103(7)
C2I C 1.3449(2) 1.2783(2) 0.41732(9)
C3I C 1.4185(2) 1.2954(2) 0.37734(11)
C4I C 1.0374(2) 1.2428(2) 0.42613(9)
C5I C 1.0639(3) 1.3566(3) 0.41357(15)
C6I C 0.9712(4) 1.3734(3) 0.41786(18)
H1I H 1.2029 1.2051 0.3795
H2I H 1.2475 1.3280 0.3881
H3I H 1.3319 1.2158 0.4341
H4I H 1.3784 1.3386 0.4374
H5I H 1.4847 1.3043 0.3875
H6I H 1.3864 1.2340 0.3579
H7I H 1.4314 1.3576 0.3604
H8I H 1.0092 1.1954 0.4012
H9I H 0.9851 1.2165 0.4502
H10I H 1.0917 1.3732 0.3835
H11I H 1.1184 1.4067 0.4341
H12I H 0.9926 1.4470 0.4084
H13I H 0.9164 1.3212 0.3973
H14I H 0.9492 1.3619 0.4491
S1C S 1.23532(4) 1.08691(6) 0.553370(16)
O1C O 1.12352(12) 1.01341(17) 0.54020(5)
O2C O 1.31483(13) 1.11347(20) 0.51862(5)
C1C C 1.26324(18) 1.02558(26) 0.59897(7)
C2C C 1.2783(2) 0.9334(3) 0.58268(9)
C3C C 1.2954(2) 0.8769(3) 0.62266(11)
C4C C 1.2428(2) 1.2054(3) 0.57387(9)
C5C C 1.3566(3) 1.2927(4) 0.58643(15)
C6C C 1.3734(3) 1.4022(5) 0.58214(18)
H1C H 1.2051 1.0022 0.6205
H2C H 1.3280 1.0805 0.6119
H3C H 1.2158 0.8839 0.5659
H4C H 1.3386 0.9602 0.5626
H5C H 1.3043 0.8196 0.6125
H6C H 1.2340 0.8476 0.6421
H7C H 1.3576 0.9262 0.6396
H8C H 1.1954 1.1862 0.5988
H9C H 1.2165 1.2314 0.5498
H10C H 1.3732 1.2815 0.6165
H11C H 1.4067 1.2883 0.5659
H12C H 1.4470 1.4544 0.5916
H13C H 1.3212 1.4048 0.6027
H14C H 1.3619 1.4127 0.5509
S1L S 0.76468(4) 0.91309(6) 0.446630(16)
O1L O 0.87648(12) 0.98659(17) 0.45980(5)
O2L O 0.68517(13) 0.88653(20) 0.48138(5)
C1L C 0.73676(18) 0.97442(26) 0.40103(7)
C2L C 0.7217(2) 1.0666(3) 0.41732(9)
C3L C 0.7046(2) 1.1231(3) 0.37734(11)
C4L C 0.7572(2) 0.7946(3) 0.42613(9)
C5L C 0.6434(3) 0.7073(4) 0.41357(15)
C6L C 0.6266(3) 0.5978(5) 0.41786(18)
H1L H 0.7949 0.9978 0.3795
H2L H 0.6720 0.9195 0.3881
H3L H 0.7842 1.1161 0.4341
H4L H 0.6614 1.0398 0.4374
H5L H 0.6957 1.1804 0.3875
H6L H 0.7660 1.1524 0.3579
H7L H 0.6424 1.0738 0.3604
H8L H 0.8046 0.8138 0.4012
H9L H 0.7835 0.7686 0.4502
H10L H 0.6268 0.7185 0.3835
H11L H 0.5933 0.7117 0.4341
H12L H 0.5530 0.5456 0.4084
H13L H 0.6788 0.5952 0.3973
H14L H 0.6381 0.5873 0.4491
S1F S 0.91309(6) 1.14841(4) 0.553370(16)
O1F O 0.98659(17) 1.11011(12) 0.54020(5)
O2F O 0.88653(20) 1.20136(15) 0.51862(5)
C1F C 0.97442(26) 1.23766(19) 0.59897(7)
C2F C 1.0666(3) 1.3449(2) 0.58268(9)
C3F C 1.1231(3) 1.4185(2) 0.62266(11)
C4F C 0.7946(3) 1.0374(2) 0.57387(9)
C5F C 0.7073(4) 1.0639(3) 0.58643(15)
C6F C 0.5978(5) 0.9712(4) 0.58214(18)
H1F H 0.9978 1.2029 0.6205
H2F H 0.9195 1.2475 0.6119
H3F H 1.1161 1.3319 0.5659
H4F H 1.0398 1.3784 0.5626
H5F H 1.1804 1.4847 0.6125
H6F H 1.1524 1.3864 0.6421
H7F H 1.0738 1.4314 0.6396
H8F H 0.8138 1.0092 0.5988
H9F H 0.7686 0.9851 0.5498
H10F H 0.7185 1.0917 0.6165
H11F H 0.7117 1.1184 0.5659
H12F H 0.5456 0.9926 0.5916
H13F H 0.5952 0.9164 0.6027
H14F H 0.5873 0.9492 0.5509
S1O S 1.08691(6) 0.85159(4) 0.446630(16)
O1O O 1.01341(17) 0.88989(12) 0.45980(5)
O2O O 1.11347(20) 0.79864(15) 0.48138(5)
C1O C 1.02558(26) 0.76234(19) 0.40103(7)
C2O C 0.9334(3) 0.6551(2) 0.41732(9)
C3O C 0.8769(3) 0.5815(2) 0.37734(11)
C4O C 1.2054(3) 0.9626(2) 0.42613(9)
C5O C 1.2927(4) 0.9361(3) 0.41357(15)
C6O C 1.4022(5) 1.0288(4) 0.41786(18)
H1O H 1.0022 0.7971 0.3795
H2O H 1.0805 0.7525 0.3881
H3O H 0.8839 0.6681 0.4341
H4O H 0.9602 0.6216 0.4374
H5O H 0.8196 0.5153 0.3875
H6O H 0.8476 0.6136 0.3579
H7O H 0.9262 0.5686 0.3604
H8O H 1.1862 0.9908 0.4012
H9O H 1.2314 1.0149 0.4502
H10O H 1.2815 0.9083 0.3835
H11O H 1.2883 0.8816 0.4341
H12O H 1.4544 1.0074 0.4084
H13O H 1.4048 1.0836 0.3973
H14O H 1.4127 1.0508 0.4491
C9? C 0.7345(15) 0.4124(15) 0.5319(6)
C10? C 0.7153(11) 0.3292(14) 0.4837(4)
loop_
_geom_bond_atom_site_label_1
_geom_bond_atom_site_label_2
_geom_bond_site_symmetry_1
_geom_bond_site_symmetry_2
Mg1 O1 1_555 1_555
S1 O1 1_555 1_555
O2 S1 1_555 1_555
C1 S1 1_555 1_555
C2 C1 1_555 1_555
C3 C2 1_555 1_555
C4 S1 1_555 1_555
C5 C4 1_555 1_555
C6 C5 1_555 1_555
H1 C1 1_555 1_555
H2 C1 1_555 1_555
H3 C2 1_555 1_555
H4 C2 1_555 1_555
H5 C3 1_555 1_555
H6 C3 1_555 1_555
H7 C3 1_555 1_555
H8 C4 1_555 1_555
H9 C4 1_555 1_555
H10 C5 1_555 1_555
H11 C5 1_555 1_555
H12 C6 1_555 1_555
H13 C6 1_555 1_555
H14 C6 1_555 1_555
Mg2 Cl1 1_555 1_555
O3 Mg2 1_555 1_555
C7 O3 1_555 1_555
C8 H17 1_555 1_555
H15 C7 1_555 1_555
H16 C7 1_555 1_555
H18 C8 1_555 1_555
S1I O1I 1_555 1_555
O1I Mg1 1_555 1_555
O2I S1I 1_555 1_555
C1I S1I 1_555 1_555
C2I C1I 1_555 1_555
C3I C2I 1_555 1_555
C4I S1I 1_555 1_555
C5I C4I 1_555 1_555
C6I C5I 1_555 1_555
H1I C1I 1_555 1_555
H2I C1I 1_555 1_555
H3I C2I 1_555 1_555
H4I C2I 1_555 1_555
H5I C3I 1_555 1_555
H6I C3I 1_555 1_555
H7I C3I 1_555 1_555
H8I C4I 1_555 1_555
H9I C4I 1_555 1_555
H10I C5I 1_555 1_555
H11I C5I 1_555 1_555
H12I C6I 1_555 1_555
H13I C6I 1_555 1_555
H14I C6I 1_555 1_555
S1C O1C 1_555 1_555
O1C Mg1 1_555 1_555
O2C S1C 1_555 1_555
C1C S1C 1_555 1_555
C2C C1C 1_555 1_555
C3C C2C 1_555 1_555
C4C S1C 1_555 1_555
C5C C4C 1_555 1_555
C6C C5C 1_555 1_555
H1C C1C 1_555 1_555
H2C C1C 1_555 1_555
H3C C2C 1_555 1_555
H4C C2C 1_555 1_555
H5C C3C 1_555 1_555
H6C C3C 1_555 1_555
H7C C3C 1_555 1_555
H8C C4C 1_555 1_555
H9C C4C 1_555 1_555
H10C C5C 1_555 1_555
H11C C5C 1_555 1_555
H12C C6C 1_555 1_555
H13C C6C 1_555 1_555
H14C C6C 1_555 1_555
S1L O1L 1_555 1_555
O1L Mg1 1_555 1_555
O2L S1L 1_555 1_555
C1L S1L 1_555 1_555
C2L C1L 1_555 1_555
C3L C2L 1_555 1_555
C4L S1L 1_555 1_555
C5L C4L 1_555 1_555
C6L C5L 1_555 1_555
H1L C1L 1_555 1_555
H2L C1L 1_555 1_555
H3L C2L 1_555 1_555
H4L C2L 1_555 1_555
H5L C3L 1_555 1_555
H6L C3L 1_555 1_555
H7L C3L 1_555 1_555
H8L C4L 1_555 1_555
H9L C4L 1_555 1_555
H10L C5L 1_555 1_555
H11L C5L 1_555 1_555
H12L C6L 1_555 1_555
H13L C6L 1_555 1_555
H14L C6L 1_555 1_555
S1F O1F 1_555 1_555
O1F Mg1 1_555 1_555
O2F S1F 1_555 1_555
C1F S1F 1_555 1_555
C2F C1F 1_555 1_555
C3F C2F 1_555 1_555
C4F S1F 1_555 1_555
C5F C4F 1_555 1_555
C6F C5F 1_555 1_555
H1F C1F 1_555 1_555
H2F C1F 1_555 1_555
H3F C2F 1_555 1_555
H4F C2F 1_555 1_555
H5F C3F 1_555 1_555
H6F C3F 1_555 1_555
H7F C3F 1_555 1_555
H8F C4F 1_555 1_555
H9F C4F 1_555 1_555
H10F C5F 1_555 1_555
H11F C5F 1_555 1_555
H12F C6F 1_555 1_555
H13F C6F 1_555 1_555
H14F C6F 1_555 1_555
S1O O1O 1_555 1_555
O1O Mg1 1_555 1_555
O2O S1O 1_555 1_555
C1O S1O 1_555 1_555
C2O C1O 1_555 1_555
C3O C2O 1_555 1_555
C4O S1O 1_555 1_555
C5O C4O 1_555 1_555
C6O C5O 1_555 1_555
H1O C1O 1_555 1_555
H2O C1O 1_555 1_555
H3O C2O 1_555 1_555
H4O C2O 1_555 1_555
H5O C3O 1_555 1_555
H6O C3O 1_555 1_555
H7O C3O 1_555 1_555
H8O C4O 1_555 1_555
H9O C4O 1_555 1_555
H10O C5O 1_555 1_555
H11O C5O 1_555 1_555
H12O C6O 1_555 1_555
H13O C6O 1_555 1_555
H14O C6O 1_555 1_555
C7C O3 1_555 1_555
C8C C8 1_555 1_555
H15C C7C 1_555 1_555
H16C C7C 1_555 1_555
H17C C8C 1_555 1_555
H18C C8C 1_555 1_555
C7F O3 1_555 1_555
C8F C7 1_555 1_555
H15F C7F 1_555 1_555
H16F C7F 1_555 1_555
H17F C8F 1_555 1_555
H18F C8F 1_555 1_555
Cl1C Mg2 1_555 1_555
Cl1F Mg2 1_555 1_555
C8 C7C 1_555 1_555
C8 C8F 1_555 1_555
C8C C7F 1_555 1_555
C8C C8F 1_555 1_555

#END
