
#######################################################################
#
#                 Cambridge Crystallographic Data Centre
#                                CCDC 
#
#######################################################################
#
# If this CIF has been generated from an entry in the Cambridge 
# Structural Database, then it will include bibliographic, chemical, 
# crystal, experimental, refinement or atomic coordinate data resulting 
# from the CCDC's data processing and validation procedures.
#
#######################################################################

data_HAPQEX
_chemical_formula_moiety         'C6 H16 N1 1+,C2 Cl3 O2 1-'
_chemical_name_systematic        'di-n-propylammonium trichloroacetate'
_symmetry_cell_setting           orthorhombic
_symmetry_space_group_name_H-M   'P n m a'
_symmetry_Int_Tables_number      62
_space_group_name_Hall           '-P 2ac 2n'
loop_
_symmetry_equiv_pos_site_id
_symmetry_equiv_pos_as_xyz
1 x,y,z
2 1/2-x,-y,1/2+z
3 1/2+x,1/2-y,1/2-z
4 -x,1/2+y,-z
5 -x,-y,-z
6 1/2+x,y,1/2-z
7 1/2-x,1/2+y,1/2+z
8 x,1/2-y,z
_cell_length_a                   17.9259(7)
_cell_length_b                   8.5845(2)
_cell_length_c                   17.7048(6)
_cell_angle_alpha                90
_cell_angle_beta                 90
_cell_angle_gamma                90
_cell_volume                     2724.5
_exptl_crystal_colour            colorless
_exptl_crystal_description       block
_cell_formula_units_Z            8
loop_
_atom_site_label
_atom_site_type_symbol
_atom_site_fract_x
_atom_site_fract_y
_atom_site_fract_z
Cl3 Cl 0.2383(3) 0.5835(3) 0.4774(4)
Cl4 Cl 0.3093(2) 0.7500 0.3743(3)
O2 O 0.1431(2) 0.6264(5) 0.3428(3)
C3 C 0.1634(3) 0.7500 0.3652(4)
C4 C 0.2253(3) 0.7500 0.4275(3)
Cl3G Cl 0.2383(3) 0.9165(3) 0.4774(4)
O2G O 0.1431(2) 0.8736(5) 0.3428(3)
C5 C 0.4170(3) 0.2500 0.6512(4)
H1 H 0.4453 0.1577 0.6403
H2 H 0.4299 0.3243 0.6128
C6 C 0.5218(4) 0.2500 0.7379(5)
H3 H 0.5550 0.3362 0.7300
H4 H 0.5337 0.1746 0.6997
N1 N 0.4483(3) 0.3068(7) 0.7195(4)
H5 H 0.4172 0.2819 0.7576
H6 H 0.4499 0.4114 0.7164
C7 C 0.3037(6) 0.2500 0.5708(6)
H7 H 0.2532 0.2128 0.5724
H8 H 0.3037 0.3613 0.5658
H9 H 0.3290 0.2045 0.5284
C8 C 0.5481(9) 0.1858(18) 0.8097(7)
H10 H 0.5523 0.0749 0.8041
H11 H 0.5110 0.2070 0.8475
C9 C 0.3413(5) 0.1923(12) 0.6360(4)
H12 H 0.3193 0.2304 0.6815
H13 H 0.3220 0.0888 0.6293
C10 C 0.6261(10) 0.2500 0.8260(14)
H14 H 0.6409 0.2045 0.8732
H15 H 0.6630 0.2278 0.7883
H16 H 0.6214 0.3608 0.8319
H1G H 0.4453 0.3423 0.6403
H2G H 0.4299 0.1757 0.6128
H3G H 0.5550 0.1638 0.7300
H4G H 0.5337 0.3254 0.6997
N1G N 0.4483(3) 0.1932(7) 0.7195(4)
H5G H 0.4172 0.2181 0.7576
H6G H 0.4499 0.0886 0.7164
H7G H 0.2532 0.2872 0.5724
H8G H 0.3037 0.1387 0.5658
H9G H 0.3290 0.2955 0.5284
C8G C 0.5481(9) 0.3142(18) 0.8097(7)
H10G H 0.5523 0.4251 0.8041
H11G H 0.5110 0.2930 0.8475
C9G C 0.3413(5) 0.3077(12) 0.6360(4)
H12G H 0.3193 0.2696 0.6815
H13G H 0.3220 0.4112 0.6293
H14G H 0.6409 0.2955 0.8732
H15G H 0.6630 0.2722 0.7883
H16G H 0.6214 0.1392 0.8319
C11 C 0.6110(6) 0.2500 0.0954(5)
H17 H 0.6079 0.1437 0.0789
H18 H 0.6469 0.3010 0.0636
C12 C 0.7160(5) 0.2500 0.1861(6)
H19 H 0.7382 0.1601 0.1630
C13 C 0.7407(7) 0.2500 0.2615(8)
H20 H 0.7175 0.1604 0.2838
C14 C 0.8161(8) 0.2500 0.2882(9)
H21 H 0.8171 0.2500 0.3424
H22 H 0.8410 0.1587 0.2697
N2 N 0.6426(5) 0.2500 0.1661(4)
H23 H 0.6227 0.1661 0.1889
C15 C 0.5334(14) 0.310(3) 0.0863(15)
H24 H 0.5438 0.4098 0.0642
H25 H 0.5128 0.3306 0.1354
C16 C 0.4842(18) 0.2500 0.029(2)
H26 H 0.4425 0.3202 0.0286
H27 H 0.5009 0.2332 -0.0220
H28 H 0.4693 0.1525 0.0506
H17G H 0.6079 0.3563 0.0789
H18G H 0.6469 0.1990 0.0636
H19G H 0.7382 0.3399 0.1630
H20G H 0.7175 0.3396 0.2838
H22G H 0.8410 0.3413 0.2697
H23G H 0.6227 0.3339 0.1889
C15G C 0.5334(14) 0.190(3) 0.0863(15)
H24G H 0.5438 0.0902 0.0642
H25G H 0.5128 0.1694 0.1354
H26G H 0.4425 0.1798 0.0286
H27G H 0.5009 0.2668 -0.0220
H28G H 0.4693 0.3475 0.0506
Cl1 Cl 0.43915(9) 0.41466(13) 0.40666(9)
Cl2 Cl 0.56790(14) 0.2500 0.45589(12)
O1 O 0.5447(2) 0.3749(4) 0.28342(19)
C1 C 0.5301(3) 0.2500 0.3109(3)
C2 C 0.4948(3) 0.2500 0.3906(3)
Cl1G Cl 0.43915(9) 0.08534(13) 0.40666(9)
O1G O 0.5447(2) 0.1251(4) 0.28342(19)
Cl5? Cl 0.2940(4) 0.8899(11) 0.4089(6)
H29? H 0.7382 0.1601 0.1630
H30? H 0.7175 0.1604 0.2838
H31? H 0.8410 0.1587 0.2697
H32? H 0.6227 0.1661 0.1889
Cl6? Cl 0.1920(14) 0.621(2) 0.4982(4)
loop_
_geom_bond_atom_site_label_1
_geom_bond_atom_site_label_2
_geom_bond_site_symmetry_1
_geom_bond_site_symmetry_2
Cl1 C2 1_555 1_555
Cl2 C2 1_555 1_555
O1 C1 1_555 1_555
C1 C2 1_555 1_555
C2 Cl1G 1_555 1_555
Cl3 C4 1_555 1_555
Cl4 C4 1_555 1_555
O2 C3 1_555 1_555
C3 C4 1_555 1_555
C4 Cl3G 1_555 1_555
C5 H1 1_555 1_555
H2 C5 1_555 1_555
C6 H3 1_555 1_555
H4 C6 1_555 1_555
N1 C5 1_555 1_555
H5 N1 1_555 1_555
H6 N1 1_555 1_555
C7 H7 1_555 1_555
H8 C7 1_555 1_555
H9 C7 1_555 1_555
C8 C6 1_555 1_555
H10 C8 1_555 1_555
H11 C8 1_555 1_555
C9 C5 1_555 1_555
H12 C9 1_555 1_555
H13 C9 1_555 1_555
C10 C8 1_555 1_555
H14 C10 1_555 1_555
H15 C10 1_555 1_555
H16 C10 1_555 1_555
C11 H17 1_555 1_555
H18 C11 1_555 1_555
C12 H19 1_555 1_555
C13 C12 1_555 1_555
H20 C13 1_555 1_555
C14 C13 1_555 1_555
H21 C14 1_555 1_555
H22 C14 1_555 1_555
N2 C11 1_555 1_555
H23 N2 1_555 1_555
C15 C11 1_555 1_555
H24 C15 1_555 1_555
H25 C15 1_555 1_555
C16 C15 1_555 1_555
H26 C16 1_555 1_555
H27 C16 1_555 1_555
H28 C16 1_555 1_555
O1G C1 1_555 1_555
O2G C3 1_555 1_555
H1G C5 1_555 1_555
H2G C5 1_555 1_555
H3G C6 1_555 1_555
H4G C6 1_555 1_555
N1G C5 1_555 1_555
H5G N1 1_555 1_555
H6G N1G 1_555 1_555
H7G C7 1_555 1_555
H8G C7 1_555 1_555
H9G C7 1_555 1_555
C8G C6 1_555 1_555
H10G C8G 1_555 1_555
H11G C8 1_555 1_555
C9G C5 1_555 1_555
H12G C9 1_555 1_555
H13G C9G 1_555 1_555
H14G C10 1_555 1_555
H15G C10 1_555 1_555
H16G C10 1_555 1_555
H17G C11 1_555 1_555
H18G C11 1_555 1_555
H19G C12 1_555 1_555
H20G C13 1_555 1_555
H22G C14 1_555 1_555
H23G N2 1_555 1_555
C15G C11 1_555 1_555
H24G C15G 1_555 1_555
H25G C15G 1_555 1_555
H26G C16 1_555 1_555
H27G C16 1_555 1_555
H28G C15 1_555 1_555
C6 N1 1_555 1_555
C6 N1G 1_555 1_555
N1 N1G 1_555 1_555
H5 N1G 1_555 1_555
C7 C9 1_555 1_555
C7 C9G 1_555 1_555
C8 C8G 1_555 1_555
H11 C8G 1_555 1_555
C9 C9G 1_555 1_555
H12 C9G 1_555 1_555
C10 C8G 1_555 1_555
C12 N2 1_555 1_555
C15 C15G 1_555 1_555
C16 C15G 1_555 1_555
C16 H28G 1_555 1_555
H28 C15G 1_555 1_555
N1G H5G 1_555 1_555
C8G H11G 1_555 1_555
C9G H12G 1_555 1_555

#END
