
#######################################################################
#
#                 Cambridge Crystallographic Data Centre
#                                CCDC 
#
#######################################################################
#
# If this CIF has been generated from an entry in the Cambridge 
# Structural Database, then it will include bibliographic, chemical, 
# crystal, experimental, refinement or atomic coordinate data resulting 
# from the CCDC's data processing and validation procedures.
#
#######################################################################

data_HAPQEX01
_chemical_formula_moiety         'C6 H16 N1 1+,C2 Cl3 O2 1-'
_chemical_name_systematic        'di-n-propylammonium trichloroacetate'
_symmetry_cell_setting           orthorhombic
_symmetry_space_group_name_H-M   'P 21 21 21'
_symmetry_Int_Tables_number      19
_space_group_name_Hall           'P 2ac 2ab'
loop_
_symmetry_equiv_pos_site_id
_symmetry_equiv_pos_as_xyz
1 x,y,z
2 1/2-x,-y,1/2+z
3 1/2+x,1/2-y,-z
4 -x,1/2+y,1/2-z
_cell_length_a                   8.53050(10)
_cell_length_b                   17.1390(3)
_cell_length_c                   17.9709(3)
_cell_angle_alpha                90
_cell_angle_beta                 90
_cell_angle_gamma                90
_cell_volume                     2627.42
_exptl_crystal_colour            colorless
_exptl_crystal_description       block
_cell_formula_units_Z            8
loop_
_atom_site_label
_atom_site_type_symbol
_atom_site_fract_x
_atom_site_fract_y
_atom_site_fract_z
Cl1 Cl 0.40881(13) 0.65761(8) 0.05585(9)
Cl2 Cl 0.07606(13) 0.66526(8) 0.06395(9)
Cl3 Cl 0.2301(2) 0.70291(8) -0.07257(10)
O1 O 0.3453(4) 0.52596(19) -0.0449(2)
O2 O 0.0944(5) 0.5271(3) -0.0261(3)
C1 C 0.2242(6) 0.5549(2) -0.0232(2)
C2 C 0.2350(5) 0.6410(2) 0.0064(2)
C3 C 0.7415(6) 0.5966(3) -0.0811(2)
H1 H 0.8564 0.5892 -0.0842
H2 H 0.7210 0.6429 -0.0497
N1 N 0.6701(5) 0.5278(2) -0.0468(2)
H3 H 0.6881 0.4853 -0.0769
H4 H 0.5634 0.5352 -0.0444
C4 C 0.7286(6) 0.5104(3) 0.0281(3)
H5 H 0.7087 0.5551 0.0617
H6 H 0.8429 0.5006 0.0266
C5 C 0.6764(9) 0.6106(4) -0.1586(3)
H7 H 0.6875 0.5625 -0.1886
H8 H 0.5634 0.6233 -0.1551
C6 C 0.7593(10) 0.6749(4) -0.1953(4)
H9 H 0.7492 0.7223 -0.1653
H10 H 0.7137 0.6838 -0.2446
H11 H 0.8704 0.6614 -0.2006
C7 C 0.6421(11) 0.4375(4) 0.0565(5)
H12 H 0.5287 0.4490 0.0608
H13 H 0.6553 0.3945 0.0203
C8 C 0.7030(12) 0.4129(5) 0.1294(5)
H14 H 0.8145 0.4000 0.1249
H15 H 0.6451 0.3669 0.1466
H16 H 0.6899 0.4555 0.1653
Cl4 Cl 0.4150(7) 0.2410(5) 0.2232(8)
Cl5 Cl 0.0862(11) 0.2393(4) 0.2383(5)
C9 C 0.2565(5) 0.1815(2) 0.2240(2)
Cl6 Cl 0.248(2) 0.1190(4) 0.3040(3)
C10 C 0.2469(6) 0.1216(3) 0.1596(2)
O3 O 0.3669(5) 0.0920(3) 0.1385(3)
O4 O 0.1176(5) 0.1065(3) 0.1375(3)
N2 N -0.3033(5) 0.0959(2) 0.1330(2)
H17 H -0.4111 0.0966 0.1342
H18 H -0.2734 0.0577 0.1000
C11 C -0.2454(7) 0.0747(3) 0.2075(3)
H19 H -0.2789 0.1150 0.2436
H20 H -0.1293 0.0739 0.2068
C12 C -0.2472(7) 0.1723(3) 0.1048(3)
H21 H -0.1314 0.1727 0.1078
H22 H -0.2863 0.2134 0.1387
C13 C -0.2923(16) 0.1933(7) 0.0287(6)
H23 H -0.3094 0.2503 0.0325
H24 H -0.1924 0.1877 0.0011
C14 C -0.2379(15) -0.0250(5) 0.3090(4)
H25 H -0.1233 -0.0222 0.3074
H26 H -0.2701 -0.0782 0.3221
H27 H -0.2777 0.0116 0.3464
C15 C -0.3045(9) -0.0038(4) 0.2329(3)
H28 H -0.2739 -0.0441 0.1962
H29 H -0.4204 -0.0027 0.2357
C16 C -0.393(2) 0.1731(10) -0.0195(10)
H30 H -0.3898 0.2094 -0.0616
H31 H -0.4978 0.1740 0.0029
H32 H -0.3697 0.1202 -0.0370
Cl7? Cl 0.355(5) 0.1408(14) 0.2968(6)
Cl8? Cl 0.4319(18) 0.191(3) 0.267(2)
Cl9? Cl 0.372(3) 0.2580(6) 0.1765(10)
Cl10? Cl 0.096(3) 0.216(6) 0.256(4)
Cl11? Cl 0.176(3) 0.2633(5) 0.1871(11)
Cl12? Cl 0.1233(17) 0.1551(11) 0.2983(5)
loop_
_geom_bond_atom_site_label_1
_geom_bond_atom_site_label_2
_geom_bond_site_symmetry_1
_geom_bond_site_symmetry_2
Cl1 C2 1_555 1_555
Cl2 C2 1_555 1_555
Cl3 C2 1_555 1_555
O1 C1 1_555 1_555
O2 C1 1_555 1_555
C1 C2 1_555 1_555
C3 H1 1_555 1_555
H2 C3 1_555 1_555
N1 C3 1_555 1_555
H3 N1 1_555 1_555
H4 N1 1_555 1_555
C4 N1 1_555 1_555
H5 C4 1_555 1_555
H6 C4 1_555 1_555
C5 C3 1_555 1_555
H7 C5 1_555 1_555
H8 C5 1_555 1_555
C6 C5 1_555 1_555
H9 C6 1_555 1_555
H10 C6 1_555 1_555
H11 C6 1_555 1_555
C7 C4 1_555 1_555
H12 C7 1_555 1_555
H13 C7 1_555 1_555
C8 C7 1_555 1_555
H14 C8 1_555 1_555
H15 C8 1_555 1_555
H16 C8 1_555 1_555
Cl4 C9 1_555 1_555
Cl5 C9 1_555 1_555
C9 Cl6 1_555 1_555
C10 C9 1_555 1_555
O3 C10 1_555 1_555
O4 C10 1_555 1_555
N2 H17 1_555 1_555
H18 N2 1_555 1_555
C11 N2 1_555 1_555
H19 C11 1_555 1_555
H20 C11 1_555 1_555
C12 N2 1_555 1_555
H21 C12 1_555 1_555
H22 C12 1_555 1_555
C13 C12 1_555 1_555
H23 C13 1_555 1_555
H24 C13 1_555 1_555
C14 H25 1_555 1_555
H26 C14 1_555 1_555
H27 C14 1_555 1_555
C15 C11 1_555 1_555
H28 C15 1_555 1_555
H29 C15 1_555 1_555
C16 C13 1_555 1_555
H30 C16 1_555 1_555
H31 C16 1_555 1_555
H32 C16 1_555 1_555
C14 C15 1_555 1_555

#END
