
#######################################################################
#
#                 Cambridge Crystallographic Data Centre
#                                CCDC 
#
#######################################################################
#
# If this CIF has been generated from an entry in the Cambridge 
# Structural Database, then it will include bibliographic, chemical, 
# crystal, experimental, refinement or atomic coordinate data resulting 
# from the CCDC's data processing and validation procedures.
#
#######################################################################

data_HAPXEE
_chemical_formula_moiety         'C16 H11 F1 N2 O1'
_chemical_name_systematic        N-(5-fluoroquinolin-8-yl)benzamide
_symmetry_cell_setting           monoclinic
_symmetry_space_group_name_H-M   'P 21/c'
_symmetry_Int_Tables_number      14
_space_group_name_Hall           '-P 2ybc'
loop_
_symmetry_equiv_pos_site_id
_symmetry_equiv_pos_as_xyz
1 x,y,z
2 -x,1/2+y,1/2-z
3 -x,-y,-z
4 x,1/2-y,1/2+z
_cell_length_a                   21.229(10)
_cell_length_b                   3.9190(19)
_cell_length_c                   15.628(8)
_cell_angle_alpha                90
_cell_angle_beta                 105.861(11)
_cell_angle_gamma                90
_cell_volume                     1250.69
_exptl_crystal_colour            colorless
_exptl_crystal_description       Block
_cell_formula_units_Z            4
loop_
_atom_site_label
_atom_site_type_symbol
_atom_site_fract_x
_atom_site_fract_y
_atom_site_fract_z
F1 F 0.08683(12) 0.4398(8) 0.87403(17)
N1 N 0.27359(14) 0.1157(9) 0.6995(2)
H1 H 0.2615 0.1756 0.6445
C1 C 0.12202(19) 0.4455(10) 0.7430(3)
O1 O 0.35751(14) -0.1245(10) 0.80242(19)
C2 C 0.17103(18) 0.3596(10) 0.7003(2)
N2 N 0.16375(16) 0.4341(9) 0.6128(2)
C3 C 0.23830(19) 0.1125(11) 0.8366(2)
H2 H 0.2764 0.0022 0.8681
C4 C 0.36637(18) -0.0974(10) 0.6536(2)
C5 C 0.22903(18) 0.1934(10) 0.7480(3)
C6 C 0.1892(2) 0.1989(12) 0.8793(3)
H3 H 0.1952 0.1471 0.9391
C7 C 0.33275(19) -0.0390(11) 0.7255(3)
C8 C 0.13453(19) 0.3553(11) 0.8330(3)
C9 C 0.42779(19) -0.2426(12) 0.6784(3)
H4 H 0.4466 -0.3030 0.7374
C10 C 0.3393(2) -0.0151(12) 0.5652(3)
H5 H 0.2977 0.0816 0.5477
C11 C 0.3731(2) -0.0747(12) 0.5025(3)
H6 H 0.3543 -0.0172 0.4433
C12 C 0.0647(2) 0.6076(11) 0.6929(3)
H7 H 0.0318 0.6667 0.7191
C13 C 0.4619(2) -0.2991(13) 0.6148(3)
H8 H 0.5037 -0.3927 0.6319
C14 C 0.1094(2) 0.5874(12) 0.5688(3)
H9 H 0.1046 0.6401 0.5094
C15 C 0.4341(2) -0.2178(12) 0.5275(3)
H10 H 0.4566 -0.2598 0.4853
C16 C 0.0579(2) 0.6772(12) 0.6050(3)
H11 H 0.0203 0.7812 0.5701
loop_
_geom_bond_atom_site_label_1
_geom_bond_atom_site_label_2
_geom_bond_site_symmetry_1
_geom_bond_site_symmetry_2
F1 C8 1_555 1_555
N1 H1 1_555 1_555
C1 C2 1_555 1_555
O1 C7 1_555 1_555
C2 N2 1_555 1_555
N2 C14 1_555 1_555
C3 H2 1_555 1_555
C4 C7 1_555 1_555
C5 N1 1_555 1_555
C6 C3 1_555 1_555
H3 C6 1_555 1_555
C7 N1 1_555 1_555
C8 C1 1_555 1_555
C9 C4 1_555 1_555
H4 C9 1_555 1_555
C10 C4 1_555 1_555
H5 C10 1_555 1_555
C11 C10 1_555 1_555
H6 C11 1_555 1_555
C12 C1 1_555 1_555
H7 C12 1_555 1_555
C13 C9 1_555 1_555
H8 C13 1_555 1_555
C14 H9 1_555 1_555
C15 C11 1_555 1_555
H10 C15 1_555 1_555
C16 C12 1_555 1_555
H11 C16 1_555 1_555
C2 C5 1_555 1_555
C3 C5 1_555 1_555
C6 C8 1_555 1_555
C13 C15 1_555 1_555
C14 C16 1_555 1_555

#END
