
#######################################################################
#
#                 Cambridge Crystallographic Data Centre
#                                CCDC 
#
#######################################################################
#
# If this CIF has been generated from an entry in the Cambridge 
# Structural Database, then it will include bibliographic, chemical, 
# crystal, experimental, refinement or atomic coordinate data resulting 
# from the CCDC's data processing and validation procedures.
#
#######################################################################

data_HAQNOE
_chemical_formula_moiety         'C46 H78 N2 O34,14(H2 O1)'
_chemical_name_systematic        
'mono-(6-Deoxy-6-(1-piperazinyl))-\b-cyclodextrin tetradecahydrate'
_symmetry_cell_setting           orthorhombic
_symmetry_space_group_name_H-M   'P 21 21 21'
_symmetry_Int_Tables_number      19
_space_group_name_Hall           'P 2ac 2ab'
loop_
_symmetry_equiv_pos_site_id
_symmetry_equiv_pos_as_xyz
1 x,y,z
2 1/2+x,1/2-y,-z
3 -x,1/2+y,1/2-z
4 1/2-x,-y,1/2+z
_cell_length_a                   12.966(10)
_cell_length_b                   19.274(14)
_cell_length_c                   28.12(2)
_cell_angle_alpha                90
_cell_angle_beta                 90
_cell_angle_gamma                90
_cell_volume                     7027.38
_exptl_crystal_colour            colorless
_exptl_crystal_description       block
_cell_formula_units_Z            4
loop_
_atom_site_label
_atom_site_type_symbol
_atom_site_fract_x
_atom_site_fract_y
_atom_site_fract_z
N1 N 1.0469(3) 0.1428(2) -0.01777(15)
N2 N 1.2583(4) 0.1662(3) -0.04370(18)
H1 H 1.3078 0.1901 -0.0589
O1 O 0.7469(3) 0.09649(17) 0.05068(13)
O2 O 0.6310(3) -0.00539(18) 0.09431(13)
H2 H 0.5729 -0.0063 0.1075
O3 O 0.5736(3) 0.07037(17) 0.17997(12)
H3 H 0.5313 0.1018 0.1868
O4 O 0.8578(3) 0.1062(2) 0.11549(17)
O5 O 0.9294(6) 0.2583(4) 0.1112(4)
H4 H 0.9307 0.3004 0.1188
O6 O 0.6709(3) 0.20421(17) 0.18792(11)
O7 O 0.5119(5) 0.17401(18) 0.24766(14)
H5 H 0.4494 0.1829 0.2526
O8 O 0.4331(6) 0.3168(2) 0.2553(2)
H6 H 0.3973 0.3405 0.2365
O9 O 0.7449(5) 0.2788(2) 0.24520(14)
O10 O 0.8910(6) 0.3807(4) 0.2151(4)
H7 H 0.8868 0.3768 0.1855
O11 O 0.5635(4) 0.41637(17) 0.20739(11)
O12 O 0.3541(4) 0.4428(2) 0.21598(15)
H8 H 0.2986 0.4585 0.2270
O13 O 0.3386(4) 0.5447(2) 0.14081(15)
H9 H 0.3471 0.5634 0.1141
O14 O 0.6032(4) 0.53363(18) 0.22360(13)
O15 O 0.6586(4) 0.6702(2) 0.19545(19)
H10 H 0.6798 0.7056 0.1809
O16 O 0.5318(4) 0.58153(18) 0.09978(12)
O17 O 0.3543(4) 0.6420(3) 0.06414(17)
H11 H 0.3389 0.6737 0.0834
O18 O 0.3938(4) 0.6144(3) -0.03361(19)
H12 H 0.4063 0.6493 -0.0505
O19 O 0.6346(4) 0.6614(2) 0.05900(15)
O20 O 0.7759(7) 0.6907(4) -0.0176(2)
H13 H 0.7671 0.6858 -0.0470
O21 O 0.5953(4) 0.5679(2) -0.05488(14)
O22 O 0.4534(4) 0.5693(3) -0.1255(2)
H14 H 0.4153 0.5583 -0.1485
O23 O 0.5270(4) 0.4509(4) -0.1829(2)
H15 H 0.4636 0.4505 -0.1768
O24 O 0.7339(3) 0.5744(2) -0.10894(14)
O25 O 0.9129(3) 0.5163(2) -0.15237(12)
H16 H 0.9327 0.5575 -0.1489
O26 O 0.7075(3) 0.3894(2) -0.14585(14)
O27 O 0.6125(5) 0.3217(3) -0.22231(18)
H17 H 0.6124 0.3651 -0.2197
O28 O 0.6221(5) 0.1868(3) -0.1789(2)
H18 H 0.6619 0.1532 -0.1838
O29 O 0.8608(4) 0.3283(3) -0.16034(16)
O30 O 0.9664(5) 0.2664(3) -0.0555(2)
H19 H 0.9777 0.3086 -0.0499
O31 O 0.7524(3) 0.1789(2) -0.09469(14)
O32 O 0.5928(5) 0.0863(4) -0.10362(18)
H20 H 0.6085 0.1171 -0.1235
O33 O 0.5916(3) 0.0343(2) -0.00350(15)
H21 H 0.5373 0.0378 -0.0196
O34 O 0.8674(3) 0.09242(19) -0.06808(13)
C1 C 0.7905(4) 0.0607(3) 0.08987(19)
H22 H 0.8303 0.0197 0.0782
C2 C 0.7015(5) 0.0359(2) 0.12272(18)
H23 H 0.7312 0.0058 0.1482
C3 C 0.6477(4) 0.0966(2) 0.14578(16)
H24 H 0.6100 0.1234 0.1207
C4 C 0.7261(4) 0.1448(2) 0.16978(19)
H25 H 0.7611 0.1198 0.1965
C5 C 0.8069(4) 0.1684(3) 0.1325(3)
H26 H 0.7706 0.1913 0.1054
C6 C 0.8911(7) 0.2171(5) 0.1514(4)
H27 H 0.8623 0.2481 0.1762
H28 H 0.9480 0.1899 0.1656
C7 C 0.6772(6) 0.2206(3) 0.23763(17)
H29 H 0.7063 0.1795 0.2547
C8 C 0.5718(7) 0.2340(3) 0.25633(17)
H30 H 0.5764 0.2415 0.2915
C9 C 0.5286(6) 0.2998(3) 0.23339(19)
H31 H 0.5154 0.2900 0.1990
C10 C 0.6028(6) 0.3617(3) 0.23686(17)
H32 H 0.6055 0.3781 0.2706
C11 C 0.7104(6) 0.3412(3) 0.2211(2)
H33 H 0.7108 0.3332 0.1859
C12 C 0.7924(11) 0.3966(4) 0.2340(4)
H34 H 0.7698 0.4423 0.2216
H35 H 0.7975 0.4002 0.2690
C13 C 0.5301(5) 0.4796(2) 0.23012(16)
H36 H 0.5221 0.4707 0.2650
C14 C 0.4267(6) 0.4988(3) 0.2100(2)
H37 H 0.4003 0.5399 0.2280
C15 C 0.4355(5) 0.5191(3) 0.15799(18)
H38 H 0.4546 0.4769 0.1392
C16 C 0.5192(5) 0.5731(2) 0.15138(17)
H39 H 0.4960 0.6181 0.1655
C17 C 0.6205(5) 0.5521(3) 0.17343(19)
H40 H 0.6478 0.5105 0.1562
C18 C 0.7048(6) 0.6085(3) 0.1746(3)
H41 H 0.7640 0.5928 0.1941
H42 H 0.7296 0.6185 0.1421
C19 C 0.5365(7) 0.6503(3) 0.0810(2)
H43 H 0.5252 0.6850 0.1069
C20 C 0.4519(6) 0.6568(3) 0.0433(2)
H44 H 0.4513 0.7054 0.0309
C21 C 0.4737(5) 0.6069(4) 0.0019(2)
H45 H 0.4717 0.5583 0.0143
C22 C 0.5800(6) 0.6201(3) -0.0194(2)
H46 H 0.5837 0.6675 -0.0337
C23 C 0.6599(6) 0.6124(4) 0.0214(2)
H47 H 0.6558 0.5642 0.0344
C24 C 0.7707(7) 0.6262(5) 0.0045(3)
H48 H 0.8182 0.6252 0.0320
H49 H 0.7921 0.5896 -0.0181
C25 C 0.6291(6) 0.5907(3) -0.1013(2)
H50 H 0.6207 0.6422 -0.1032
C26 C 0.5609(5) 0.5575(4) -0.1383(2)
H51 H 0.5744 0.5805 -0.1696
C27 C 0.5816(6) 0.4793(4) -0.1437(3)
H52 H 0.5567 0.4557 -0.1142
C28 C 0.6957(5) 0.4651(3) -0.1486(2)
H53 H 0.7217 0.4827 -0.1798
C29 C 0.7542(5) 0.5000(3) -0.10744(19)
H54 H 0.7272 0.4812 -0.0767
C30 C 0.8711(5) 0.4911(4) -0.1081(2)
H55 H 0.9020 0.5171 -0.0813
H56 H 0.8887 0.4415 -0.1042
C31 C 0.7683(4) 0.3535(4) -0.18109(19)
H57 H 0.7857 0.3863 -0.2075
C32 C 0.7020(5) 0.2945(4) -0.2007(2)
H58 H 0.7429 0.2699 -0.2257
C33 C 0.6793(5) 0.2435(4) -0.1614(2)
H59 H 0.6359 0.2678 -0.1372
C34 C 0.7773(5) 0.2193(4) -0.13685(19)
H60 H 0.8182 0.1900 -0.1593
C35 C 0.8434(5) 0.2802(4) -0.1204(2)
H61 H 0.8070 0.3052 -0.0941
C36 C 0.9507(5) 0.2572(5) -0.1030(2)
H62 H 0.9602 0.2075 -0.1107
H63 H 1.0037 0.2837 -0.1207
C37 C 0.7785(5) 0.1073(3) -0.0962(2)
H64 H 0.7918 0.0933 -0.1299
C38 C 0.6848(5) 0.0660(4) -0.0767(2)
H65 H 0.6975 0.0153 -0.0816
C39 C 0.6690(5) 0.0798(3) -0.02270(19)
H66 H 0.6444 0.1286 -0.0188
C40 C 0.7693(4) 0.0721(3) 0.0043(2)
H67 H 0.7891 0.0220 0.0057
C41 C 0.8551(4) 0.1135(2) -0.01943(19)
H68 H 0.8361 0.1637 -0.0188
C42 C 0.9614(5) 0.1041(3) 0.0069(2)
H69 H 0.9549 0.1212 0.0400
H70 H 0.9789 0.0542 0.0082
C43 C 1.1019(5) 0.0986(4) -0.0531(3)
H71 H 1.0518 0.0804 -0.0766
H72 H 1.1339 0.0586 -0.0367
C44 C 1.1843(5) 0.1400(5) -0.0785(2)
H73 H 1.2201 0.1101 -0.1020
H74 H 1.1523 0.1792 -0.0958
C45 C 1.2072(5) 0.2123(4) -0.0085(2)
H75 H 1.1760 0.2526 -0.0249
H76 H 1.2584 0.2297 0.0147
C46 C 1.1234(5) 0.1708(4) 0.0172(2)
H77 H 1.1554 0.1320 0.0349
H78 H 1.0877 0.2011 0.0404
O35 O 0.4595(6) 0.8427(3) 0.14330(18)
O36 O 0.4888(4) 0.2185(3) 0.73059(17)
O37 O 0.1257(4) 0.6477(3) 0.9151(2)
O38 O 0.3777(5) 0.2870(4) 0.6598(2)
O39 O 0.2992(5) 0.7599(3) 0.1111(3)
O40 O 0.8671(6) 0.8654(5) 0.1925(3)
O41 O 0.9213(6) 0.3929(5) -0.0124(3)
O42 O 0.5164(9) 0.8318(6) 0.9161(4)
O43 O 0.6683(9) 0.9183(5) 0.8040(4)
O44 O 0.8523(9) 0.7550(5) 0.0684(5)
O45 O 0.6584(7) 0.8858(4) 0.9852(3)
O46 O 0.8235(12) 0.9979(6) 0.2348(4)
O47 O 0.271(2) 0.7190(11) 0.8410(11)
O48 O 0.9572(10) 0.5306(6) 0.1170(4)
O49 O 0.9886(18) 0.5059(10) 0.2173(5)
O50? O 0.6756(10) 0.8135(7) 0.9937(6)
O51? O 0.2075(19) 0.7095(9) 0.8372(8)
O52? O 0.8742(14) 0.4613(9) 0.0183(7)
O53? O 0.9759(14) 0.4866(10) 0.1516(9)
O54? O 0.8292(15) 0.9276(12) 0.2721(8)
O55? O 0.8165(19) 0.9062(12) 0.2237(8)
loop_
_geom_bond_atom_site_label_1
_geom_bond_atom_site_label_2
_geom_bond_site_symmetry_1
_geom_bond_site_symmetry_2
N1 C42 1_555 1_555
N2 H1 1_555 1_555
O1 C1 1_555 1_555
O2 H2 1_555 1_555
O3 H3 1_555 1_555
O4 C1 1_555 1_555
O5 H4 1_555 1_555
O6 C4 1_555 1_555
O7 H5 1_555 1_555
O8 H6 1_555 1_555
O9 C7 1_555 1_555
O10 H7 1_555 1_555
O11 C10 1_555 1_555
O12 H8 1_555 1_555
O13 H9 1_555 1_555
O14 C13 1_555 1_555
O15 H10 1_555 1_555
O16 C16 1_555 1_555
O17 H11 1_555 1_555
O18 H12 1_555 1_555
O19 C19 1_555 1_555
O20 H13 1_555 1_555
O21 C22 1_555 1_555
O22 H14 1_555 1_555
O23 H15 1_555 1_555
O24 C25 1_555 1_555
O25 H16 1_555 1_555
O26 C28 1_555 1_555
O27 H17 1_555 1_555
O28 H18 1_555 1_555
O29 C31 1_555 1_555
O30 H19 1_555 1_555
O31 C34 1_555 1_555
O32 H20 1_555 1_555
O33 H21 1_555 1_555
O34 C37 1_555 1_555
C1 H22 1_555 1_555
C2 O2 1_555 1_555
H23 C2 1_555 1_555
C3 O3 1_555 1_555
H24 C3 1_555 1_555
C4 C3 1_555 1_555
H25 C4 1_555 1_555
C5 O4 1_555 1_555
H26 C5 1_555 1_555
C6 O5 1_555 1_555
H27 C6 1_555 1_555
H28 C6 1_555 1_555
C7 O6 1_555 1_555
H29 C7 1_555 1_555
C8 O7 1_555 1_555
H30 C8 1_555 1_555
C9 O8 1_555 1_555
H31 C9 1_555 1_555
C10 C9 1_555 1_555
H32 C10 1_555 1_555
C11 O9 1_555 1_555
H33 C11 1_555 1_555
C12 O10 1_555 1_555
H34 C12 1_555 1_555
H35 C12 1_555 1_555
C13 O11 1_555 1_555
H36 C13 1_555 1_555
C14 O12 1_555 1_555
H37 C14 1_555 1_555
C15 O13 1_555 1_555
H38 C15 1_555 1_555
C16 C15 1_555 1_555
H39 C16 1_555 1_555
C17 O14 1_555 1_555
H40 C17 1_555 1_555
C18 O15 1_555 1_555
H41 C18 1_555 1_555
H42 C18 1_555 1_555
C19 O16 1_555 1_555
H43 C19 1_555 1_555
C20 O17 1_555 1_555
H44 C20 1_555 1_555
C21 O18 1_555 1_555
H45 C21 1_555 1_555
C22 C21 1_555 1_555
H46 C22 1_555 1_555
C23 O19 1_555 1_555
H47 C23 1_555 1_555
C24 O20 1_555 1_555
H48 C24 1_555 1_555
H49 C24 1_555 1_555
C25 O21 1_555 1_555
H50 C25 1_555 1_555
C26 O22 1_555 1_555
H51 C26 1_555 1_555
C27 O23 1_555 1_555
H52 C27 1_555 1_555
C28 C27 1_555 1_555
H53 C28 1_555 1_555
C29 O24 1_555 1_555
H54 C29 1_555 1_555
C30 O25 1_555 1_555
H55 C30 1_555 1_555
H56 C30 1_555 1_555
C31 O26 1_555 1_555
H57 C31 1_555 1_555
C32 O27 1_555 1_555
H58 C32 1_555 1_555
C33 O28 1_555 1_555
H59 C33 1_555 1_555
C34 C33 1_555 1_555
H60 C34 1_555 1_555
C35 O29 1_555 1_555
H61 C35 1_555 1_555
C36 O30 1_555 1_555
H62 C36 1_555 1_555
H63 C36 1_555 1_555
C37 O31 1_555 1_555
H64 C37 1_555 1_555
C38 O32 1_555 1_555
H65 C38 1_555 1_555
C39 O33 1_555 1_555
H66 C39 1_555 1_555
C40 O1 1_555 1_555
H67 C40 1_555 1_555
C41 O34 1_555 1_555
H68 C41 1_555 1_555
C42 C41 1_555 1_555
H69 C42 1_555 1_555
H70 C42 1_555 1_555
C43 N1 1_555 1_555
H71 C43 1_555 1_555
H72 C43 1_555 1_555
C44 N2 1_555 1_555
H73 C44 1_555 1_555
H74 C44 1_555 1_555
C45 N2 1_555 1_555
H75 C45 1_555 1_555
H76 C45 1_555 1_555
C46 N1 1_555 1_555
H77 C46 1_555 1_555
H78 C46 1_555 1_555
C1 C2 1_555 1_555
C2 C3 1_555 1_555
C4 C5 1_555 1_555
C5 C6 1_555 1_555
C7 C8 1_555 1_555
C8 C9 1_555 1_555
C10 C11 1_555 1_555
C11 C12 1_555 1_555
C13 C14 1_555 1_555
C14 C15 1_555 1_555
C16 C17 1_555 1_555
C17 C18 1_555 1_555
C19 C20 1_555 1_555
C20 C21 1_555 1_555
C22 C23 1_555 1_555
C23 C24 1_555 1_555
C25 C26 1_555 1_555
C26 C27 1_555 1_555
C28 C29 1_555 1_555
C29 C30 1_555 1_555
C31 C32 1_555 1_555
C32 C33 1_555 1_555
C34 C35 1_555 1_555
C35 C36 1_555 1_555
C37 C38 1_555 1_555
C38 C39 1_555 1_555
C39 C40 1_555 1_555
C40 C41 1_555 1_555
C43 C44 1_555 1_555
C45 C46 1_555 1_555

#END
