
#######################################################################
#
#                 Cambridge Crystallographic Data Centre
#                                CCDC 
#
#######################################################################
#
# If this CIF has been generated from an entry in the Cambridge 
# Structural Database, then it will include bibliographic, chemical, 
# crystal, experimental, refinement or atomic coordinate data resulting 
# from the CCDC's data processing and validation procedures.
#
#######################################################################

data_HARLUK
_chemical_name_common            N,N'-didecylpyromelliticdiimide
_chemical_formula_moiety         'C30 H44 N2 O4'
_chemical_name_systematic        
2,6-didecylpyrrolo[3,4-f]isoindole-1,3,5,7(2H,6H)-tetrone
_symmetry_cell_setting           monoclinic
_symmetry_space_group_name_H-M   'P 21/c'
_symmetry_Int_Tables_number      14
_space_group_name_Hall           '-P 2ybc'
loop_
_symmetry_equiv_pos_site_id
_symmetry_equiv_pos_as_xyz
1 x,y,z
2 -x,1/2+y,1/2-z
3 -x,-y,-z
4 x,1/2-y,1/2+z
_cell_length_a                   30.6365(16)
_cell_length_b                   5.0149(3)
_cell_length_c                   8.9393(5)
_cell_angle_alpha                90
_cell_angle_beta                 93.980(3)
_cell_angle_gamma                90
_cell_volume                     1370.11
_exptl_crystal_colour            colorless
_exptl_crystal_description       block
_cell_formula_units_Z            2
loop_
_atom_site_label
_atom_site_type_symbol
_atom_site_fract_x
_atom_site_fract_y
_atom_site_fract_z
C1 C 0.46219(3) 0.6062(2) 1.04594(11)
O1 O 0.40031(3) 0.12036(16) 0.84589(9)
O2 O 0.40323(3) 0.85647(16) 1.14895(9)
N1 N 0.39028(3) 0.47982(19) 1.00209(10)
C2 C 0.46141(3) 0.3850(2) 0.95188(11)
C3 C 0.41601(3) 0.6734(2) 1.07673(11)
C4 C 0.49907(3) 0.2709(2) 0.90256(11)
H1 H 0.4984 0.1198 0.8383
C5 C 0.41477(3) 0.3030(2) 0.92185(12)
C6 C 0.34303(3) 0.4510(2) 1.00787(13)
H2 H 0.3336 0.5442 1.0977
H3 H 0.3358 0.2597 1.0174
C7 C 0.31819(4) 0.5643(3) 0.86860(13)
H4 H 0.3175 0.7612 0.8764
H5 H 0.3340 0.5180 0.7793
C8 C 0.27152(4) 0.4597(3) 0.84738(13)
H6 H 0.2554 0.5098 0.9355
H7 H 0.2722 0.2626 0.8417
C9 C 0.24734(4) 0.5696(3) 0.70588(14)
H8 H 0.2444 0.7651 0.7165
H9 H 0.2652 0.5359 0.6197
C10 C 0.20209(4) 0.4500(3) 0.67147(14)
H10 H 0.1840 0.4845 0.7570
H11 H 0.2049 0.2544 0.6607
C11 C 0.13370(4) 0.4426(3) 0.49163(14)
H12 H 0.1152 0.4744 0.5765
H13 H 0.1367 0.2474 0.4797
C12 C 0.17877(4) 0.5626(3) 0.52925(14)
H14 H 0.1757 0.7579 0.5408
H15 H 0.1972 0.5307 0.4442
C13 C 0.11075(4) 0.5574(3) 0.34923(14)
H16 H 0.1079 0.7527 0.3611
H17 H 0.1292 0.5249 0.2644
C14 C 0.06564(4) 0.4394(3) 0.31123(16)
H18 H 0.0469 0.4755 0.3948
H19 H 0.0683 0.2436 0.3012
C15 C 0.04360(5) 0.5520(4) 0.16677(17)
H20 H 0.0394 0.7445 0.1778
H21 H 0.0151 0.4656 0.1460
H22 H 0.0621 0.5182 0.0836
C1B C 0.53781(3) 0.3938(2) 0.95406(11)
O1B O 0.59969(3) 0.87964(16) 1.15411(9)
O2B O 0.59677(3) 0.14353(16) 0.85105(9)
N1B N 0.60972(3) 0.52018(19) 0.99791(10)
C2B C 0.53859(3) 0.6150(2) 1.04812(11)
C3B C 0.58399(3) 0.3266(2) 0.92327(11)
C4B C 0.50093(3) 0.7291(2) 1.09744(11)
H1B H 0.5016 0.8802 1.1617
C5B C 0.58523(3) 0.6970(2) 1.07815(12)
C6B C 0.65697(3) 0.5490(2) 0.99213(13)
H2B H 0.6664 0.4558 0.9023
H3B H 0.6642 0.7403 0.9826
C7B C 0.68181(4) 0.4357(3) 1.13140(13)
H4B H 0.6825 0.2388 1.1236
H5B H 0.6660 0.4820 1.2207
C8B C 0.72848(4) 0.5403(3) 1.15262(13)
H6B H 0.7446 0.4902 1.0645
H7B H 0.7278 0.7374 1.1583
C9B C 0.75266(4) 0.4304(3) 1.29412(14)
H8B H 0.7556 0.2349 1.2835
H9B H 0.7348 0.4641 1.3803
C10B C 0.79791(4) 0.5500(3) 1.32853(14)
H10B H 0.8160 0.5155 1.2430
H11B H 0.7951 0.7456 1.3393
C11B C 0.86630(4) 0.5574(3) 1.50837(14)
H12B H 0.8848 0.5256 1.4235
H13B H 0.8633 0.7526 1.5203
C12B C 0.82123(4) 0.4374(3) 1.47075(14)
H14B H 0.8243 0.2421 1.4592
H15B H 0.8028 0.4693 1.5558
C13B C 0.88925(4) 0.4426(3) 1.65077(14)
H16B H 0.8921 0.2473 1.6389
H17B H 0.8708 0.4751 1.7356
C14B C 0.93436(4) 0.5606(3) 1.68877(16)
H18B H 0.9531 0.5245 1.6052
H19B H 0.9317 0.7564 1.6988
C15B C 0.95640(5) 0.4480(4) 1.83323(17)
H20B H 0.9606 0.2555 1.8222
H21B H 0.9849 0.5344 1.8540
H22B H 0.9379 0.4818 1.9164
loop_
_geom_bond_atom_site_label_1
_geom_bond_atom_site_label_2
_geom_bond_site_symmetry_1
_geom_bond_site_symmetry_2
C1 C2 1_555 1_555
O1 C5 1_555 1_555
O2 C3 1_555 1_555
N1 C3 1_555 1_555
C2 C4 1_555 1_555
C3 C1 1_555 1_555
C4 H1 1_555 1_555
C5 N1 1_555 1_555
C6 N1 1_555 1_555
H2 C6 1_555 1_555
H3 C6 1_555 1_555
C7 C6 1_555 1_555
H4 C7 1_555 1_555
H5 C7 1_555 1_555
C8 C7 1_555 1_555
H6 C8 1_555 1_555
H7 C8 1_555 1_555
C9 C8 1_555 1_555
H8 C9 1_555 1_555
H9 C9 1_555 1_555
C10 C9 1_555 1_555
H10 C10 1_555 1_555
H11 C10 1_555 1_555
C11 H12 1_555 1_555
H13 C11 1_555 1_555
C12 C10 1_555 1_555
H14 C12 1_555 1_555
H15 C12 1_555 1_555
C13 C11 1_555 1_555
H16 C13 1_555 1_555
H17 C13 1_555 1_555
C14 C13 1_555 1_555
H18 C14 1_555 1_555
H19 C14 1_555 1_555
C15 C14 1_555 1_555
H20 C15 1_555 1_555
H21 C15 1_555 1_555
H22 C15 1_555 1_555
C1B C4 1_555 1_555
O1B C5B 1_555 1_555
O2B C3B 1_555 1_555
N1B C3B 1_555 1_555
C2B C1B 1_555 1_555
C3B C1B 1_555 1_555
C4B C1 1_555 1_555
H1B C4B 1_555 1_555
C5B N1B 1_555 1_555
C6B N1B 1_555 1_555
H2B C6B 1_555 1_555
H3B C6B 1_555 1_555
C7B C6B 1_555 1_555
H4B C7B 1_555 1_555
H5B C7B 1_555 1_555
C8B C7B 1_555 1_555
H6B C8B 1_555 1_555
H7B C8B 1_555 1_555
C9B C8B 1_555 1_555
H8B C9B 1_555 1_555
H9B C9B 1_555 1_555
C10B C9B 1_555 1_555
H10B C10B 1_555 1_555
H11B C10B 1_555 1_555
C11B H12B 1_555 1_555
H13B C11B 1_555 1_555
C12B C10B 1_555 1_555
H14B C12B 1_555 1_555
H15B C12B 1_555 1_555
C13B C11B 1_555 1_555
H16B C13B 1_555 1_555
H17B C13B 1_555 1_555
C14B C13B 1_555 1_555
H18B C14B 1_555 1_555
H19B C14B 1_555 1_555
C15B C14B 1_555 1_555
H20B C15B 1_555 1_555
H21B C15B 1_555 1_555
H22B C15B 1_555 1_555
C2 C5 1_555 1_555
C11 C12 1_555 1_555
C2B C4B 1_555 1_555
C2B C5B 1_555 1_555
C11B C12B 1_555 1_555

#END
