
#######################################################################
#
#                 Cambridge Crystallographic Data Centre
#                                CCDC 
#
#######################################################################
#
# If this CIF has been generated from an entry in the Cambridge 
# Structural Database, then it will include bibliographic, chemical, 
# crystal, experimental, refinement or atomic coordinate data resulting 
# from the CCDC's data processing and validation procedures.
#
#######################################################################

data_HARNEV
_chemical_formula_moiety         'C12 H10 N2 O4'
_chemical_name_systematic        
4,10-Diazatetracyclo[5.5.2.0^2,6^.0^8,12^]tetradec-13-ene-3,5,9,11-tetrone
_symmetry_cell_setting           monoclinic
_symmetry_space_group_name_H-M   'P 21/n'
_symmetry_Int_Tables_number      14
_space_group_name_Hall           '-P 2yn'
loop_
_symmetry_equiv_pos_site_id
_symmetry_equiv_pos_as_xyz
1 x,y,z
2 1/2-x,1/2+y,1/2-z
3 -x,-y,-z
4 1/2+x,1/2-y,1/2+z
_cell_length_a                   7.6395(4)
_cell_length_b                   21.1972(11)
_cell_length_c                   9.8455(5)
_cell_angle_alpha                90
_cell_angle_beta                 97.6830(10)
_cell_angle_gamma                90
_cell_volume                     1580.03
_exptl_crystal_colour            colorless
_exptl_crystal_description       block
_cell_formula_units_Z            6
loop_
_atom_site_label
_atom_site_type_symbol
_atom_site_fract_x
_atom_site_fract_y
_atom_site_fract_z
C10 C 0.3615(4) 1.29015(15) 0.9917(3)
C11 C 0.5193(4) 1.24974(14) 1.0424(3)
H9 H 0.6087 1.2748 1.1034
C12 C 0.6039(4) 1.22089(14) 0.9217(3)
H10 H 0.6460 1.2544 0.8623
C13 C 0.7584(4) 1.18056(15) 0.9917(3)
H11 H 0.8407 1.2077 1.0541
C14 C 0.8594(4) 1.14830(16) 0.8889(3)
C15 C 0.7518(4) 1.06692(16) 1.0110(3)
C16 C 0.6892(4) 1.12686(15) 1.0741(3)
H12 H 0.7424 1.1299 1.1724
C17 C 0.4848(4) 1.13098(15) 1.0630(3)
H13 H 0.4350 1.0955 1.1127
C18 C 0.4439(4) 1.19605(15) 1.1242(3)
H14 H 0.4957 1.1983 1.2229
C19 C 0.2488(4) 1.20909(16) 1.1093(3)
C20 C 0.4707(4) 1.17805(15) 0.8413(3)
H15 H 0.4327 1.1837 0.7462
C21 C 0.4104(4) 1.13169(15) 0.9137(3)
H16 H 0.3269 1.1015 0.8742
N2 N 0.2131(4) 1.26340(13) 1.0346(3)
N3 N 0.8523(4) 1.08438(13) 0.9096(3)
O3 O 0.3575(3) 1.33750(12) 0.9222(3)
O4 O 0.1356(3) 1.17716(12) 1.1537(2)
O5 O 0.7219(4) 1.01303(11) 1.0401(3)
O6 O 0.9326(3) 1.17367(12) 0.8017(3)
H17 H 0.097(6) 1.2817(19) 1.024(4)
H18 H 0.907(5) 1.057(2) 0.857(4)
C1? C 0.3391(5) 1.11645(15) 0.4567(4)
C2? C 0.1722(5) 1.03391(17) 0.3589(4)
C3? C 0.4079(4) 0.95350(15) 0.4426(3)
C4? C 0.7196(8) 0.9976(3) 0.5027(6)
C5? C 0.3731(8) 1.0155(3) 0.3474(6)
C6? C 0.6089(8) 0.9417(3) 0.4372(6)
C7? C 0.4810(9) 1.0705(3) 0.4159(6)
C8? C 0.4744(8) 1.0170(3) 0.6389(6)
C9? C 0.3787(8) 0.9696(3) 0.5795(7)
N1? N 0.1923(4) 1.09412(14) 0.3891(4)
O1? O 0.0524(3) 1.00592(11) 0.2956(3)
O2? O 0.3835(3) 1.16912(10) 0.4881(2)
H1? H 0.327(5) 0.9162(18) 0.395(4)
H2? H 0.801(10) 1.011(4) 0.427(8)
H3? H 0.400(10) 1.009(4) 0.236(8)
H4? H 0.632(10) 0.929(4) 0.332(8)
H5? H 0.561(10) 1.089(4) 0.356(8)
H6? H 0.481(10) 1.033(3) 0.727(3)
H7? H 0.288(7) 0.951(3) 0.620(7)
H8? H 0.099(7) 1.118(3) 0.405(8)
H19? H 0.171(10) 1.116(3) 0.310(4)
loop_
_geom_bond_atom_site_label_1
_geom_bond_atom_site_label_2
_geom_bond_site_symmetry_1
_geom_bond_site_symmetry_2
C10 C11 1_555 1_555
C11 H9 1_555 1_555
C12 C11 1_555 1_555
H10 C12 1_555 1_555
C13 C12 1_555 1_555
H11 C13 1_555 1_555
C14 C13 1_555 1_555
C15 C16 1_555 1_555
C16 C13 1_555 1_555
H12 C16 1_555 1_555
C17 C16 1_555 1_555
H13 C17 1_555 1_555
C18 C11 1_555 1_555
H14 C18 1_555 1_555
C19 C18 1_555 1_555
C20 C12 1_555 1_555
H15 C20 1_555 1_555
C21 C17 1_555 1_555
H16 C21 1_555 1_555
N2 C10 1_555 1_555
N3 C14 1_555 1_555
O3 C10 1_555 1_555
O4 C19 1_555 1_555
O5 C15 1_555 1_555
O6 C14 1_555 1_555
H17 N2 1_555 1_555
H18 N3 1_555 1_555
C15 N3 1_555 1_555
C17 C18 1_555 1_555
C19 N2 1_555 1_555
C20 C21 1_555 1_555

#END
