
#######################################################################
#
#                 Cambridge Crystallographic Data Centre
#                                CCDC 
#
#######################################################################
#
# If this CIF has been generated from an entry in the Cambridge 
# Structural Database, then it will include bibliographic, chemical, 
# crystal, experimental, refinement or atomic coordinate data resulting 
# from the CCDC's data processing and validation procedures.
#
#######################################################################

data_HARRUQ
_chemical_formula_moiety         'C26 H30 N2 O4 S2'
_chemical_name_systematic        
5,8-dibenzyl-3,10-bis(2-hydroxyethyl)-4,9-dimethyl-1,2,5,8-dithiadiazecine-6,7(5H,8H)-dione
_symmetry_cell_setting           triclinic
_symmetry_space_group_name_H-M   'P -1'
_symmetry_Int_Tables_number      2
_space_group_name_Hall           '-P 1'
loop_
_symmetry_equiv_pos_site_id
_symmetry_equiv_pos_as_xyz
1 x,y,z
2 -x,-y,-z
_cell_length_a                   9.832(9)
_cell_length_b                   10.630(10)
_cell_length_c                   12.908(12)
_cell_angle_alpha                79.847(18)
_cell_angle_beta                 82.813(18)
_cell_angle_gamma                78.080(19)
_cell_volume                     1293.79
_exptl_crystal_colour            colorless
_exptl_crystal_description       block
_cell_formula_units_Z            2
loop_
_atom_site_label
_atom_site_type_symbol
_atom_site_fract_x
_atom_site_fract_y
_atom_site_fract_z
S1 S 0.20145(12) 0.94266(11) 0.55557(8)
S2 S 0.27941(12) 1.06607(12) 0.62910(8)
O1 O -0.0586(3) 0.9060(3) 0.8256(2)
O2 O 0.2563(3) 0.7588(3) 0.8910(2)
N1 N 0.1970(3) 0.9799(3) 0.8627(2)
N2 N 0.0791(3) 0.7618(3) 0.7304(2)
C1 C -0.1346(4) 0.6623(4) 0.7715(3)
C2 C 0.0567(4) 0.8500(4) 0.7963(3)
C3 C 0.3953(4) 1.0738(4) 0.8946(3)
C4 C 0.1846(4) 0.8589(4) 0.8510(2)
C5 C 0.2171(4) 0.7092(4) 0.6852(3)
C6 C -0.0431(4) 0.7346(5) 0.6894(3)
H1 H -0.0624 0.7597 0.6192
C7 C 0.1112(4) 1.0950(4) 0.8148(3)
C8 C 0.2886(5) 0.9936(4) 0.9419(3)
H2 H 0.3355 0.9079 0.9721
H3 H 0.2315 1.0337 0.9986
C9 C 0.2701(5) 0.5702(4) 0.7249(4)
H4 H 0.3614 0.5435 0.6906
H5 H 0.2080 0.5183 0.7099
H6 H 0.2752 0.5589 0.7998
C10 C 0.4367(5) 0.7459(5) 0.5719(4)
H7 H 0.4861 0.8152 0.5744
H8 H 0.4794 0.6692 0.6177
C11 C 0.5140(5) 1.0232(5) 0.8382(3)
H9 H 0.5282 0.9379 0.8252
C12 C 0.0031(5) 1.1629(4) 0.8862(4)
H10 H 0.0058 1.1150 0.9565
H11 H -0.0871 1.1694 0.8624
H12 H 0.0203 1.2486 0.8863
C13 C 0.2861(4) 0.7856(4) 0.6140(3)
C14 C 0.6170(5) 1.1012(7) 0.7989(4)
H13 H 0.6997 1.0671 0.7617
C15 C 0.5915(6) 1.2256(7) 0.8169(4)
H14 H 0.6560 1.2781 0.7884
C16 C 0.4762(6) 1.2764(5) 0.8744(5)
H15 H 0.4628 1.3613 0.8883
C17 C 0.1340(5) 1.1375(5) 0.7110(3)
C18 C -0.1737(6) 0.5060(5) 0.9251(4)
H16 H -0.1362 0.4470 0.9811
C19 C -0.0889(5) 0.5759(5) 0.8557(4)
H17 H 0.0048 0.5633 0.8673
C20 C 0.3768(5) 1.1987(5) 0.9129(4)
H18 H 0.2960 1.2331 0.9521
C21 C 0.4541(7) 0.7169(6) 0.4607(4)
H19 H 0.4025 0.7893 0.4158
H20 H 0.5519 0.7072 0.4344
C22 C -0.2809(8) 0.6949(11) 0.7669(7)
H21 H -0.3202 0.7626 0.7171
C23 C -0.3668(8) 0.6215(11) 0.8407(8)
H22 H -0.4633 0.6412 0.8397
C24 C -0.3057(8) 0.5214(7) 0.9133(5)
H23 H -0.3591 0.4647 0.9539
O3 O -0.1249(11) 1.3803(7) 0.5556(6)
H24 H -0.2218 1.3949 0.5815
C25 C 0.0589(10) 1.2753(9) 0.6676(7)
H25 H 0.0215 1.3242 0.7249
H26 H 0.1228 1.3219 0.6200
C26 C -0.0534(10) 1.2569(7) 0.6113(7)
H27 H -0.1203 1.2171 0.6613
H28 H -0.0153 1.1982 0.5608
O4 O 0.4057(6) 0.6019(5) 0.4553(3)
H29 H 0.4514 0.5507 0.4175
C27? C -0.248(3) 0.623(4) 0.742(2)
H30? H -0.2767 0.6546 0.6745
C28? C -0.317(3) 0.538(3) 0.8080(15)
H31? H -0.3715 0.4916 0.7814
C29? C 0.0225(16) 1.2231(10) 0.6450(9)
H32? H 0.0102 1.1815 0.5867
H33? H -0.0658 1.2385 0.6879
H34? H 0.0192 1.5037 0.5162
C30? C 0.0705(14) 1.3473(10) 0.6048(10)
H35? H 0.0778 1.3887 0.6646
H36? H 0.1633 1.3282 0.5687
O5? O -0.0166(15) 1.4360(9) 0.5350(7)
loop_
_geom_bond_atom_site_label_1
_geom_bond_atom_site_label_2
_geom_bond_site_symmetry_1
_geom_bond_site_symmetry_2
S1 S2 1_555 1_555
S2 C17 1_555 1_555
O1 C2 1_555 1_555
O2 C4 1_555 1_555
N1 C4 1_555 1_555
N2 C2 1_555 1_555
C1 C6 1_555 1_555
C2 C4 1_555 1_555
C3 C8 1_555 1_555
C5 N2 1_555 1_555
C6 N2 1_555 1_555
H1 C6 1_555 1_555
C7 N1 1_555 1_555
C8 N1 1_555 1_555
H2 C8 1_555 1_555
H3 C8 1_555 1_555
C9 C5 1_555 1_555
H4 C9 1_555 1_555
H5 C9 1_555 1_555
H6 C9 1_555 1_555
C10 H7 1_555 1_555
H8 C10 1_555 1_555
C11 C3 1_555 1_555
H9 C11 1_555 1_555
C12 C7 1_555 1_555
H10 C12 1_555 1_555
H11 C12 1_555 1_555
H12 C12 1_555 1_555
C13 S1 1_555 1_555
C14 C11 1_555 1_555
H13 C14 1_555 1_555
C15 C14 1_555 1_555
H14 C15 1_555 1_555
C16 C15 1_555 1_555
H15 C16 1_555 1_555
C17 C7 1_555 1_555
C18 H16 1_555 1_555
C19 C1 1_555 1_555
H17 C19 1_555 1_555
C20 C3 1_555 1_555
H18 C20 1_555 1_555
C21 C10 1_555 1_555
H19 C21 1_555 1_555
H20 C21 1_555 1_555
C22 C1 1_555 1_555
H21 C22 1_555 1_555
C23 C22 1_555 1_555
H22 C23 1_555 1_555
C24 C18 1_555 1_555
H23 C24 1_555 1_555
O3 H24 1_555 1_555
C25 C17 1_555 1_555
H25 C25 1_555 1_555
H26 C25 1_555 1_555
C26 O3 1_555 1_555
H27 C26 1_555 1_555
H28 C26 1_555 1_555
O4 C21 1_555 1_555
H29 O4 1_555 1_555
C5 C13 1_555 1_555
C10 C13 1_555 1_555
C16 C20 1_555 1_555
C18 C19 1_555 1_555
C23 C24 1_555 1_555
C25 C26 1_555 1_555

#END
