
#######################################################################
#
#                 Cambridge Crystallographic Data Centre
#                                CCDC 
#
#######################################################################
#
# If this CIF has been generated from an entry in the Cambridge 
# Structural Database, then it will include bibliographic, chemical, 
# crystal, experimental, refinement or atomic coordinate data resulting 
# from the CCDC's data processing and validation procedures.
#
#######################################################################

data_HASXIK
_chemical_formula_moiety         'C35 H34 N6,0.5(C6 H14)'
_chemical_name_systematic        
'1^3^,1^4^,3^3^,3^4^-tetraethyl-1,3,5(2,5)-tripyrrola-2,4,6(2,6)-tripyridinacyclohexaphane hexane solvate'
_symmetry_cell_setting           tetragonal
_symmetry_space_group_name_H-M   'I -4'
_symmetry_Int_Tables_number      82
_space_group_name_Hall           'I -4'
loop_
_symmetry_equiv_pos_site_id
_symmetry_equiv_pos_as_xyz
1 x,y,z
2 -x,-y,z
3 y,-x,-z
4 -y,x,-z
5 1/2+x,1/2+y,1/2+z
6 1/2-x,1/2-y,1/2+z
7 1/2+y,1/2-x,1/2-z
8 1/2-y,1/2+x,1/2-z
_cell_length_a                   33.226(3)
_cell_length_b                   33.226(3)
_cell_length_c                   5.1868(10)
_cell_angle_alpha                90
_cell_angle_beta                 90
_cell_angle_gamma                90
_cell_volume                     5726.06
_exptl_crystal_colour            yellow
_exptl_crystal_description       needles
_cell_formula_units_Z            8
loop_
_atom_site_label
_atom_site_type_symbol
_atom_site_fract_x
_atom_site_fract_y
_atom_site_fract_z
N1 N 0.15895(4) 0.13090(4) 0.5521(3)
H1 H 0.1853 0.1326 0.5599
N2 N 0.20192(4) 0.08149(4) 0.2330(3)
N3 N 0.28359(4) 0.08185(4) 0.3097(3)
H2 H 0.2694 0.0984 0.4062
N4 N 0.32274(4) 0.12275(4) 0.6802(3)
N5 N 0.27241(4) 0.16864(4) 0.9731(3)
H3 H 0.2612 0.1555 0.8446
N6 N 0.19039(4) 0.17486(4) 0.9394(3)
C1 C 0.13328(5) 0.15185(5) 0.7079(3)
C2 C 0.09404(5) 0.14076(5) 0.6371(4)
C3 C 0.09744(5) 0.11263(5) 0.4308(4)
C4 C 0.13860(5) 0.10697(5) 0.3829(3)
C5 C 0.16136(5) 0.08234(5) 0.1989(3)
C6 C 0.14260(6) 0.06143(5) -0.0023(4)
H4 H 0.1141 0.0616 -0.0188
C7 C 0.16617(6) 0.04057(5) -0.1763(4)
H5 H 0.1540 0.0268 -0.3168
C8 C 0.20743(5) 0.03979(5) -0.1453(4)
H6 H 0.2240 0.0258 -0.2648
C9 C 0.22448(5) 0.05992(5) 0.0653(4)
C10 C 0.26779(5) 0.05839(5) 0.1200(3)
C11 C 0.29966(5) 0.03584(5) 0.0144(4)
C12 C 0.33523(5) 0.04759(5) 0.1475(4)
C13 C 0.32430(5) 0.07651(5) 0.3316(4)
C14 C 0.34613(5) 0.09980(5) 0.5266(4)
C15 C 0.38823(5) 0.09920(6) 0.5541(4)
H7 H 0.4044 0.0829 0.4446
C16 C 0.40571(6) 0.12272(6) 0.7434(5)
H8 H 0.4341 0.1227 0.7644
C17 C 0.38196(6) 0.14626(6) 0.9025(4)
H9 H 0.3936 0.1626 1.0330
C18 C 0.34021(5) 0.14530(5) 0.8650(4)
C19 C 0.31275(5) 0.16889(5) 1.0240(4)
C20 C 0.31805(6) 0.19278(5) 1.2421(4)
H10 H 0.3430 0.1986 1.3239
C21 C 0.28002(6) 0.20668(5) 1.3196(4)
H11 H 0.2746 0.2235 1.4636
C22 C 0.25182(6) 0.19144(5) 1.1476(4)
C23 C 0.20823(6) 0.19620(5) 1.1269(4)
C24 C 0.18707(6) 0.22213(5) 1.2910(4)
H12 H 0.2005 0.2363 1.4248
C25 C 0.14626(6) 0.22643(6) 1.2527(4)
H13 H 0.1312 0.2443 1.3582
C26 C 0.12724(6) 0.20460(6) 1.0596(4)
H14 H 0.0992 0.2076 1.0304
C27 C 0.15017(5) 0.17799(5) 0.9078(4)
C28 C 0.05506(5) 0.15688(5) 0.7411(4)
H15 H 0.0582 0.1627 0.9273
H16 H 0.0339 0.1362 0.7220
C29 C 0.04194(6) 0.19538(6) 0.6009(4)
H17 H 0.0618 0.2166 0.6313
H18 H 0.0157 0.2040 0.6663
H19 H 0.0400 0.1900 0.4155
C30 C 0.06225(5) 0.09146(5) 0.3065(4)
H20 H 0.0659 0.0917 0.1171
H21 H 0.0373 0.1065 0.3464
C31 C 0.05750(6) 0.04785(6) 0.3974(5)
H22 H 0.0820 0.0327 0.3560
H23 H 0.0344 0.0355 0.3103
H24 H 0.0531 0.0474 0.5843
C32 C 0.29833(6) 0.00415(5) -0.1943(4)
H25 H 0.3260 -0.0006 -0.2582
H26 H 0.2821 0.0144 -0.3403
C33 C 0.28037(6) -0.03605(6) -0.1025(5)
H27 H 0.2964 -0.0465 0.0411
H28 H 0.2807 -0.0554 -0.2449
H29 H 0.2526 -0.0318 -0.0453
C34 C 0.37624(5) 0.02980(6) 0.0972(4)
H30 H 0.3969 0.0510 0.1209
H31 H 0.3776 0.0206 -0.0841
C35 C 0.38585(6) -0.00566(6) 0.2757(5)
H32 H 0.3866 0.0037 0.4547
H33 H 0.4121 -0.0170 0.2292
H34 H 0.3650 -0.0263 0.2573
loop_
_geom_bond_atom_site_label_1
_geom_bond_atom_site_label_2
_geom_bond_site_symmetry_1
_geom_bond_site_symmetry_2
N1 H1 1_555 1_555
N2 C5 1_555 1_555
N3 H2 1_555 1_555
N4 C14 1_555 1_555
N5 H3 1_555 1_555
N6 C23 1_555 1_555
C1 N1 1_555 1_555
C2 C1 1_555 1_555
C3 C2 1_555 1_555
C4 N1 1_555 1_555
C5 C4 1_555 1_555
C6 C5 1_555 1_555
H4 C6 1_555 1_555
C7 C6 1_555 1_555
H5 C7 1_555 1_555
C8 C7 1_555 1_555
H6 C8 1_555 1_555
C9 N2 1_555 1_555
C10 N3 1_555 1_555
C11 C10 1_555 1_555
C12 C11 1_555 1_555
C13 N3 1_555 1_555
C14 C13 1_555 1_555
C15 C14 1_555 1_555
H7 C15 1_555 1_555
C16 C15 1_555 1_555
H8 C16 1_555 1_555
C17 C16 1_555 1_555
H9 C17 1_555 1_555
C18 N4 1_555 1_555
C19 N5 1_555 1_555
C20 C19 1_555 1_555
H10 C20 1_555 1_555
C21 C20 1_555 1_555
H11 C21 1_555 1_555
C22 N5 1_555 1_555
C23 C22 1_555 1_555
C24 C23 1_555 1_555
H12 C24 1_555 1_555
C25 C24 1_555 1_555
H13 C25 1_555 1_555
C26 C25 1_555 1_555
H14 C26 1_555 1_555
C27 N6 1_555 1_555
C28 C2 1_555 1_555
H15 C28 1_555 1_555
H16 C28 1_555 1_555
C29 C28 1_555 1_555
H17 C29 1_555 1_555
H18 C29 1_555 1_555
H19 C29 1_555 1_555
C30 C3 1_555 1_555
H20 C30 1_555 1_555
H21 C30 1_555 1_555
C31 C30 1_555 1_555
H22 C31 1_555 1_555
H23 C31 1_555 1_555
H24 C31 1_555 1_555
C32 C11 1_555 1_555
H25 C32 1_555 1_555
H26 C32 1_555 1_555
C33 C32 1_555 1_555
H27 C33 1_555 1_555
H28 C33 1_555 1_555
H29 C33 1_555 1_555
C34 C12 1_555 1_555
H30 C34 1_555 1_555
H31 C34 1_555 1_555
C35 C34 1_555 1_555
H32 C35 1_555 1_555
H33 C35 1_555 1_555
H34 C35 1_555 1_555
C1 C27 1_555 1_555
C3 C4 1_555 1_555
C8 C9 1_555 1_555
C9 C10 1_555 1_555
C12 C13 1_555 1_555
C17 C18 1_555 1_555
C18 C19 1_555 1_555
C21 C22 1_555 1_555
C26 C27 1_555 1_555

#END
