
#######################################################################
#
#                 Cambridge Crystallographic Data Centre
#                                CCDC 
#
#######################################################################
#
# If this CIF has been generated from an entry in the Cambridge 
# Structural Database, then it will include bibliographic, chemical, 
# crystal, experimental, refinement or atomic coordinate data resulting 
# from the CCDC's data processing and validation procedures.
#
#######################################################################

data_HASYAD
_chemical_formula_moiety         'C42 H52 N6 2+,2(C2 F3 O2 1-)'
_chemical_name_systematic        
'1^3^,1^4^,2^3^,2^4^,4^3^,4^4^,5^3^,5^4^-octaethyl-1,2,4,5(2,5)-tetrapyrrola-3,6(2,6)-dipyridinacyclohexaphane-3^1^,6^1^-diium bis(trifluoroacetate)'
_symmetry_cell_setting           triclinic
_symmetry_space_group_name_H-M   'P -1'
_symmetry_Int_Tables_number      2
_space_group_name_Hall           '-P 1'
loop_
_symmetry_equiv_pos_site_id
_symmetry_equiv_pos_as_xyz
1 x,y,z
2 -x,-y,-z
_cell_length_a                   10.8650(6)
_cell_length_b                   11.4850(6)
_cell_length_c                   17.7000(10)
_cell_angle_alpha                97.433(2)
_cell_angle_beta                 94.545(2)
_cell_angle_gamma                105.2340(10)
_cell_volume                     2098.31
_exptl_crystal_colour            red
_exptl_crystal_description       block
_cell_formula_units_Z            2
loop_
_atom_site_label
_atom_site_type_symbol
_atom_site_fract_x
_atom_site_fract_y
_atom_site_fract_z
N1 N 0.6918(2) 0.20474(19) 0.32378(11)
H1 H 0.6518 0.2523 0.3030
N2 N 0.6363(2) 0.14095(19) 0.16517(11)
H2 H 0.5694 0.1507 0.1876
N3 N 0.46705(19) 0.22238(18) 0.07762(11)
H3 H 0.4861 0.2466 0.1274
N4 N 0.28840(19) 0.27638(19) 0.16896(11)
H4 H 0.3242 0.2244 0.1880
N5 N 0.3447(2) 0.33589(19) 0.32848(11)
H5 H 0.4094 0.3223 0.3053
N6 N 0.52193(19) 0.26827(18) 0.41859(11)
H6 H 0.4983 0.2368 0.3699
C1 C 0.7512(2) 0.1285(2) 0.28457(14)
C2 C 0.8018(2) 0.0681(2) 0.33732(14)
C3 C 0.7731(2) 0.1111(2) 0.41045(14)
C4 C 0.7043(2) 0.1959(2) 0.40051(14)
C5 C 0.6331(2) 0.2545(2) 0.45154(14)
C6 C 0.6661(2) 0.2963(2) 0.52939(14)
H7 H 0.7427 0.2880 0.5551
C7 C 0.5857(2) 0.3503(2) 0.56907(14)
H8 H 0.6065 0.3761 0.6228
C8 C 0.4757(2) 0.3678(2) 0.53282(14)
H9 H 0.4230 0.4072 0.5609
C9 C 0.4440(2) 0.3266(2) 0.45452(13)
C10 C 0.3376(2) 0.3421(2) 0.40622(13)
C11 C 0.2212(2) 0.3644(2) 0.42020(14)
C12 C 0.1572(2) 0.3705(2) 0.34840(14)
C13 C 0.2365(2) 0.3540(2) 0.29273(14)
C14 C 0.2297(2) 0.3509(2) 0.20992(14)
C15 C 0.1859(2) 0.4193(2) 0.15984(14)
C16 C 0.2179(2) 0.3827(2) 0.08636(13)
C17 C 0.2833(2) 0.2945(2) 0.09362(13)
C18 C 0.3599(2) 0.2430(2) 0.04298(14)
C19 C 0.3365(2) 0.2152(2) -0.03602(14)
H10 H 0.2639 0.2301 -0.0625
C20 C 0.4197(2) 0.1656(2) -0.07633(14)
H11 H 0.4056 0.1496 -0.1308
C21 C 0.5229(2) 0.1389(2) -0.03864(14)
H12 H 0.5770 0.1015 -0.0669
C22 C 0.5467(2) 0.1670(2) 0.04063(13)
C23 C 0.6477(2) 0.1421(2) 0.08841(13)
C24 C 0.7657(2) 0.1221(2) 0.07522(14)
C25 C 0.8269(2) 0.1117(2) 0.14668(14)
C26 C 0.7434(2) 0.1226(2) 0.20163(14)
C27 C 0.8608(3) -0.0345(2) 0.31878(15)
H13 H 0.8440 -0.0626 0.2627
H14 H 0.8171 -0.1034 0.3441
C28 C 1.0059(3) -0.0044(3) 0.34273(16)
H15 H 1.0503 0.0667 0.3205
H16 H 1.0367 -0.0746 0.3242
H17 H 1.0233 0.0140 0.3988
C29 C 0.7973(2) 0.0607(2) 0.48276(14)
H18 H 0.8347 0.1294 0.5251
H19 H 0.8609 0.0135 0.4755
C30 C 0.6761(3) -0.0213(3) 0.50537(16)
H20 H 0.6173 0.0274 0.5194
H21 H 0.6986 -0.0588 0.5493
H22 H 0.6343 -0.0855 0.4620
C31 C 0.1676(2) 0.3746(2) 0.49538(14)
H23 H 0.0858 0.3966 0.4874
H24 H 0.2282 0.4422 0.5314
C32 C 0.1429(3) 0.2601(3) 0.53235(16)
H25 H 0.0804 0.1930 0.4981
H26 H 0.1088 0.2750 0.5812
H27 H 0.2235 0.2382 0.5416
C33 C 0.0227(2) 0.3821(2) 0.33568(15)
H28 H -0.0337 0.3218 0.3621
H29 H -0.0073 0.3601 0.2801
C34 C 0.0064(3) 0.5085(3) 0.36337(16)
H30 H 0.0362 0.5319 0.4183
H31 H -0.0845 0.5061 0.3544
H32 H 0.0570 0.5684 0.3351
C35 C 0.1318(3) 0.5251(2) 0.18116(15)
H33 H 0.1784 0.5946 0.1573
H34 H 0.1495 0.5502 0.2375
C36 C -0.0119(3) 0.5022(3) 0.15807(16)
H35 H -0.0298 0.4869 0.1020
H36 H -0.0386 0.5741 0.1784
H37 H -0.0595 0.4310 0.1790
C37 C 0.2011(2) 0.4424(2) 0.01731(14)
H38 H 0.1358 0.4876 0.0247
H39 H 0.1685 0.3784 -0.0282
C38 C 0.3244(3) 0.5300(3) 0.00211(17)
H40 H 0.3598 0.5911 0.0479
H41 H 0.3064 0.5709 -0.0410
H42 H 0.3867 0.4845 -0.0104
C39 C 0.8247(2) 0.1183(2) 0.00115(14)
H43 H 0.7610 0.0622 -0.0396
H44 H 0.8993 0.0846 0.0073
C40 C 0.8686(3) 0.2416(3) -0.02437(16)
H45 H 0.7940 0.2722 -0.0355
H46 H 0.9113 0.2336 -0.0707
H47 H 0.9288 0.2989 0.0165
C41 C 0.9627(2) 0.1041(2) 0.16065(14)
H48 H 0.9919 0.1280 0.2163
H49 H 1.0180 0.1645 0.1338
C42 C 0.9827(3) -0.0211(3) 0.13469(15)
H50 H 0.9344 -0.0806 0.1641
H51 H 1.0743 -0.0159 0.1434
H52 H 0.9522 -0.0470 0.0799
F1 F 0.3727(2) -0.18140(18) 0.20139(15)
F2 F 0.3155(3) -0.1622(2) 0.31280(12)
F3 F 0.1881(2) -0.16230(19) 0.21756(15)
O1 O 0.3671(2) 0.0563(2) 0.18979(15)
O2 O 0.3941(2) 0.07377(19) 0.31767(12)
C43 C 0.3622(4) 0.0170(4) 0.2533(2)
C44 C 0.3124(3) -0.1222(3) 0.24710(17)
F4 F 0.7217(3) 0.6156(3) 0.2001(2)
F5 F 0.5608(4) 0.6447(3) 0.25348(19)
F6 F 0.5307(3) 0.5188(2) 0.15359(14)
O3 O 0.6641(2) 0.4986(3) 0.33467(14)
O4 O 0.5631(2) 0.35137(19) 0.23669(12)
C45 C 0.6135(3) 0.4595(4) 0.2679(2)
C46 C 0.6066(3) 0.5598(3) 0.2190(2)
C47? C 0.377(4) 0.035(4) 0.233(3)
C48? C 0.391(2) -0.058(2) 0.2817(12)
C49? C 0.6229(19) 0.480(2) 0.2437(12)
C50? C 0.6800(16) 0.6307(14) 0.2493(9)
F7? F 0.4377(17) -0.1470(16) 0.2540(11)
F8? F 0.4706(16) -0.0179(15) 0.3464(9)
F9? F 0.2665(19) -0.1250(19) 0.2997(12)
F10? F 0.6778(13) 0.6544(12) 0.1918(8)
F11? F 0.6175(12) 0.6661(12) 0.2979(8)
F12? F 0.7998(11) 0.6553(10) 0.2826(6)
O5? O 0.4308(13) 0.1428(12) 0.2615(8)
O6? O 0.3318(16) 0.0028(16) 0.1682(10)
O7? O 0.6020(9) 0.4210(8) 0.1781(5)
O8? O 0.6290(12) 0.4442(11) 0.3078(9)
loop_
_geom_bond_atom_site_label_1
_geom_bond_atom_site_label_2
_geom_bond_site_symmetry_1
_geom_bond_site_symmetry_2
N1 H1 1_555 1_555
N2 H2 1_555 1_555
N3 H3 1_555 1_555
N4 H4 1_555 1_555
N5 H5 1_555 1_555
N6 H6 1_555 1_555
C1 N1 1_555 1_555
C2 C1 1_555 1_555
C3 C2 1_555 1_555
C4 N1 1_555 1_555
C5 N6 1_555 1_555
C6 C5 1_555 1_555
H7 C6 1_555 1_555
C7 C6 1_555 1_555
H8 C7 1_555 1_555
C8 C7 1_555 1_555
H9 C8 1_555 1_555
C9 N6 1_555 1_555
C10 N5 1_555 1_555
C11 C10 1_555 1_555
C12 C11 1_555 1_555
C13 N5 1_555 1_555
C14 N4 1_555 1_555
C15 C14 1_555 1_555
C16 C15 1_555 1_555
C17 N4 1_555 1_555
C18 N3 1_555 1_555
C19 C18 1_555 1_555
H10 C19 1_555 1_555
C20 C19 1_555 1_555
H11 C20 1_555 1_555
C21 C20 1_555 1_555
H12 C21 1_555 1_555
C22 N3 1_555 1_555
C23 N2 1_555 1_555
C24 C23 1_555 1_555
C25 C24 1_555 1_555
C26 N2 1_555 1_555
C27 C2 1_555 1_555
H13 C27 1_555 1_555
H14 C27 1_555 1_555
C28 C27 1_555 1_555
H15 C28 1_555 1_555
H16 C28 1_555 1_555
H17 C28 1_555 1_555
C29 C3 1_555 1_555
H18 C29 1_555 1_555
H19 C29 1_555 1_555
C30 C29 1_555 1_555
H20 C30 1_555 1_555
H21 C30 1_555 1_555
H22 C30 1_555 1_555
C31 C11 1_555 1_555
H23 C31 1_555 1_555
H24 C31 1_555 1_555
C32 C31 1_555 1_555
H25 C32 1_555 1_555
H26 C32 1_555 1_555
H27 C32 1_555 1_555
C33 C12 1_555 1_555
H28 C33 1_555 1_555
H29 C33 1_555 1_555
C34 C33 1_555 1_555
H30 C34 1_555 1_555
H31 C34 1_555 1_555
H32 C34 1_555 1_555
C35 C15 1_555 1_555
H33 C35 1_555 1_555
H34 C35 1_555 1_555
C36 C35 1_555 1_555
H35 C36 1_555 1_555
H36 C36 1_555 1_555
H37 C36 1_555 1_555
C37 C16 1_555 1_555
H38 C37 1_555 1_555
H39 C37 1_555 1_555
C38 C37 1_555 1_555
H40 C38 1_555 1_555
H41 C38 1_555 1_555
H42 C38 1_555 1_555
C39 C24 1_555 1_555
H43 C39 1_555 1_555
H44 C39 1_555 1_555
C40 C39 1_555 1_555
H45 C40 1_555 1_555
H46 C40 1_555 1_555
H47 C40 1_555 1_555
C41 C25 1_555 1_555
H48 C41 1_555 1_555
H49 C41 1_555 1_555
C42 C41 1_555 1_555
H50 C42 1_555 1_555
H51 C42 1_555 1_555
H52 C42 1_555 1_555
F1 C44 1_555 1_555
F2 C44 1_555 1_555
F3 C44 1_555 1_555
O1 C43 1_555 1_555
O2 C43 1_555 1_555
C43 C44 1_555 1_555
F4 C46 1_555 1_555
F5 C46 1_555 1_555
F6 C46 1_555 1_555
O3 C45 1_555 1_555
O4 C45 1_555 1_555
C45 C46 1_555 1_555
C1 C26 1_555 1_555
C3 C4 1_555 1_555
C4 C5 1_555 1_555
C8 C9 1_555 1_555
C9 C10 1_555 1_555
C12 C13 1_555 1_555
C13 C14 1_555 1_555
C16 C17 1_555 1_555
C17 C18 1_555 1_555
C21 C22 1_555 1_555
C22 C23 1_555 1_555
C25 C26 1_555 1_555

#END
