
#######################################################################
#
#                 Cambridge Crystallographic Data Centre
#                                CCDC 
#
#######################################################################
#
# If this CIF has been generated from an entry in the Cambridge 
# Structural Database, then it will include bibliographic, chemical, 
# crystal, experimental, refinement or atomic coordinate data resulting 
# from the CCDC's data processing and validation procedures.
#
#######################################################################

data_HATGOY
_chemical_name_common            
'4,5-Dimethoxy-o-quinodimethane-buckminsterfullerene hemibenzene clathrate'
_chemical_formula_moiety         'C70 H12 O2,0.5(C6 H6)'
_chemical_name_systematic        
'Dimethoxy-1,9-(methano(1,2)benzenomethano)C60fullerene hemibenzene clathrate'
_symmetry_cell_setting           monoclinic
_symmetry_space_group_name_H-M   'P 21/n'
_symmetry_Int_Tables_number      14
_space_group_name_Hall           '-P 2yn'
loop_
_symmetry_equiv_pos_site_id
_symmetry_equiv_pos_as_xyz
1 x,y,z
2 1/2-x,1/2+y,1/2-z
3 -x,-y,-z
4 1/2+x,1/2-y,1/2+z
_cell_length_a                   13.201(4)
_cell_length_b                   18.091(4)
_cell_length_c                   16.585(10)
_cell_angle_alpha                90
_cell_angle_beta                 104.29(4)
_cell_angle_gamma                90
_cell_volume                     3838.27
_exptl_crystal_colour            black
_cell_formula_units_Z            4
loop_
_atom_site_label
_atom_site_type_symbol
_atom_site_fract_x
_atom_site_fract_y
_atom_site_fract_z
C1 C 0.1795(3) 0.3284(2) 0.5615(2)
C2 C 0.0648(3) 0.3513(2) 0.5475(2)
C3 C 0.0585(4) 0.4289(2) 0.5657(2)
C4 C 0.1621(4) 0.4540(2) 0.6065(3)
C5 C 0.2313(3) 0.3927(2) 0.6152(3)
C6 C 0.3096(3) 0.3861(3) 0.6860(3)
C7 C 0.3331(3) 0.3136(3) 0.7262(3)
C8 C 0.2763(3) 0.2531(2) 0.6931(2)
C9 C 0.2041(3) 0.2500(2) 0.6055(2)
C10 C 0.1101(3) 0.2123(2) 0.6251(2)
C11 C 0.0087(4) 0.2338(2) 0.5957(2)
C12 C -0.0143(3) 0.3060(2) 0.5552(2)
C13 C -0.1041(3) 0.3359(3) 0.5789(2)
C14 C -0.1124(4) 0.4104(3) 0.5932(3)
C15 C -0.0291(4) 0.4581(3) 0.5870(2)
C16 C -0.0153(5) 0.5147(3) 0.6509(3)
C17 C 0.0841(5) 0.5388(2) 0.6900(3)
C18 C 0.1741(4) 0.5090(2) 0.6675(3)
C19 C 0.2577(4) 0.5008(3) 0.7419(3)
C20 C 0.3223(4) 0.4410(3) 0.7510(3)
C21 C 0.3535(3) 0.4035(3) 0.8308(3)
C22 C 0.3601(3) 0.3256(3) 0.8156(3)
C23 C 0.3300(4) 0.2744(3) 0.8674(3)
C24 C 0.2707(4) 0.2116(3) 0.8334(3)
C25 C 0.2431(4) 0.2020(2) 0.7468(3)
C26 C 0.1398(4) 0.1769(2) 0.7053(3)
C27 C 0.0677(4) 0.1616(2) 0.7503(3)
C28 C -0.0396(4) 0.1841(3) 0.7187(3)
C29 C -0.0679(4) 0.2202(3) 0.6428(3)
C30 C -0.1370(3) 0.2829(3) 0.6326(3)
C31 C -0.1761(3) 0.3071(3) 0.6993(3)
C32 C -0.1827(3) 0.3855(3) 0.7136(3)
C33 C -0.1515(4) 0.4368(3) 0.6629(3)
C34 C -0.0923(4) 0.5002(3) 0.6981(3)
C35 C -0.0654(5) 0.5125(3) 0.7837(3)
C36 C 0.0392(5) 0.5364(2) 0.8260(3)
C37 C 0.1114(5) 0.5498(2) 0.7800(3)
C38 C 0.2197(5) 0.5259(3) 0.8120(3)
C39 C 0.2489(4) 0.4904(3) 0.8881(3)
C40 C 0.3183(4) 0.4285(3) 0.8977(3)
C41 C 0.2850(4) 0.3758(3) 0.9514(3)
C42 C 0.2913(4) 0.3006(3) 0.9364(3)
C43 C 0.2074(5) 0.2530(3) 0.9446(2)
C44 C 0.1942(5) 0.1971(3) 0.8798(3)
C45 C 0.0950(5) 0.1727(2) 0.8405(3)
C46 C 0.0039(4) 0.2021(3) 0.8633(3)
C47 C -0.0794(4) 0.2096(3) 0.7883(3)
C48 C -0.1452(4) 0.2694(3) 0.7785(3)
C49 C -0.1324(4) 0.3242(3) 0.8428(3)
C50 C -0.1548(3) 0.3963(3) 0.8035(3)
C51 C -0.0984(4) 0.4587(3) 0.8374(3)
C52 C -0.0150(4) 0.4512(3) 0.9119(3)
C53 C 0.0693(5) 0.4990(3) 0.9048(3)
C54 C 0.1728(5) 0.4769(3) 0.9349(3)
C55 C 0.1953(4) 0.4058(3) 0.9746(2)
C56 C 0.1145(4) 0.3596(3) 0.9823(2)
C57 C 0.1208(4) 0.2814(3) 0.9668(2)
C58 C 0.0176(5) 0.2555(3) 0.9260(3)
C59 C -0.0525(4) 0.3175(3) 0.9158(3)
C60 C 0.0071(4) 0.3822(3) 0.9503(3)
C61 C 0.2128(4) 0.3306(2) 0.4767(2)
C62 C 0.2542(4) 0.1964(3) 0.5514(2)
C63 C 0.1599(3) 0.1312(2) 0.4176(3)
C64 C 0.1142(3) 0.1359(2) 0.3334(3)
C65 C 0.0992(3) 0.2045(3) 0.2937(2)
C66 C 0.1263(3) 0.2690(2) 0.3386(3)
C67 C 0.1739(3) 0.2645(2) 0.4235(2)
C68 C 0.1921(3) 0.1960(2) 0.4614(2)
O1 O 0.0828(2) 0.0763(2) 0.2822(2)
C69 C 0.0984(5) 0.0046(3) 0.3182(4)
O2 O 0.0583(2) 0.2017(2) 0.2087(2)
C70 C 0.0508(5) 0.2702(3) 0.1648(3)
H1 H 0.2575(27) 0.1460(21) 0.5793(21)
H2 H 0.3326(30) 0.2224(20) 0.5494(22)
H3 H 0.1895(27) 0.3823(20) 0.4489(21)
H4 H 0.3008(29) 0.3352(19) 0.4917(21)
H5 H 0.1214(25) 0.3232(19) 0.3099(20)
H6 H 0.1683(27) 0.0789(21) 0.4442(21)
H7 H 0.1319(32) 0.2972(22) 0.1792(23)
H8 H -0.0083(30) 0.3052(21) 0.1788(23)
H9 H 0.0356(31) 0.2547(22) 0.1066(26)
H10 H 0.0683(29) 0.0021(22) 0.3751(25)
H11 H 0.1724(32) -0.0073(24) 0.3455(25)
H12 H 0.0741(32) -0.0278(24) 0.2659(26)
C71 C 0.0151(10) 0.0410(4) 0.0668(4)
C72 C -0.0623(8) -0.0051(5) 0.0503(7)
C73 C 0.0771(6) 0.0479(5) 0.0180(7)
H13 H 0.0244 0.0711 0.1158
H14 H -0.1120 -0.0096 0.0868
H15 H 0.1336 0.0828 0.0317
C73B C -0.0771(6) -0.0479(5) -0.0180(7)
C72B C 0.0623(8) 0.0051(5) -0.0503(7)
C71B C -0.0151(10) -0.0410(4) -0.0668(4)
H15B H -0.1336 -0.0828 -0.0317
H14B H 0.1120 0.0096 -0.0868
H13B H -0.0244 -0.0711 -0.1158
loop_
_geom_bond_atom_site_label_1
_geom_bond_atom_site_label_2
_geom_bond_site_symmetry_1
_geom_bond_site_symmetry_2
C1 C2 1_555 1_555
C2 C3 1_555 1_555
C3 C4 1_555 1_555
C4 C5 1_555 1_555
C5 C1 1_555 1_555
C6 C5 1_555 1_555
C7 C6 1_555 1_555
C8 C7 1_555 1_555
C9 C1 1_555 1_555
C10 C9 1_555 1_555
C11 C10 1_555 1_555
C12 C2 1_555 1_555
C13 C12 1_555 1_555
C14 C13 1_555 1_555
C15 C3 1_555 1_555
C16 C15 1_555 1_555
C17 C16 1_555 1_555
C18 C4 1_555 1_555
C19 C18 1_555 1_555
C20 C6 1_555 1_555
C21 C20 1_555 1_555
C22 C7 1_555 1_555
C23 C22 1_555 1_555
C24 C23 1_555 1_555
C25 C8 1_555 1_555
C26 C10 1_555 1_555
C27 C26 1_555 1_555
C28 C27 1_555 1_555
C29 C11 1_555 1_555
C30 C13 1_555 1_555
C31 C30 1_555 1_555
C32 C31 1_555 1_555
C33 C14 1_555 1_555
C34 C16 1_555 1_555
C35 C34 1_555 1_555
C36 C35 1_555 1_555
C37 C17 1_555 1_555
C38 C19 1_555 1_555
C39 C38 1_555 1_555
C40 C21 1_555 1_555
C41 C40 1_555 1_555
C42 C23 1_555 1_555
C43 C42 1_555 1_555
C44 C24 1_555 1_555
C45 C27 1_555 1_555
C46 C45 1_555 1_555
C47 C28 1_555 1_555
C48 C31 1_555 1_555
C49 C48 1_555 1_555
C50 C32 1_555 1_555
C51 C35 1_555 1_555
C52 C51 1_555 1_555
C53 C36 1_555 1_555
C54 C39 1_555 1_555
C55 C41 1_555 1_555
C56 C55 1_555 1_555
C57 C43 1_555 1_555
C58 C46 1_555 1_555
C59 C49 1_555 1_555
C60 C52 1_555 1_555
C61 C1 1_555 1_555
C62 C9 1_555 1_555
C63 C64 1_555 1_555
C64 C65 1_555 1_555
C65 C66 1_555 1_555
C66 C67 1_555 1_555
C67 C61 1_555 1_555
C68 C62 1_555 1_555
O1 C64 1_555 1_555
C69 O1 1_555 1_555
O2 C65 1_555 1_555
C70 O2 1_555 1_555
C71 C72 1_555 1_555
C72 H14 1_555 1_555
C73 C71 1_555 1_555
H1 C62 1_555 1_555
H2 C62 1_555 1_555
H3 C61 1_555 1_555
H4 C61 1_555 1_555
H5 C66 1_555 1_555
H6 C63 1_555 1_555
H7 C70 1_555 1_555
H8 C70 1_555 1_555
H9 C70 1_555 1_555
H10 C69 1_555 1_555
H11 C69 1_555 1_555
H12 C69 1_555 1_555
H13 C71 1_555 1_555
H15 C73 1_555 1_555
C73B C72 1_555 1_555
C72B C73 1_555 1_555
C71B C73B 1_555 1_555
H15B C73B 1_555 1_555
H14B C72B 1_555 1_555
H13B C71B 1_555 1_555
C8 C9 1_555 1_555
C11 C12 1_555 1_555
C14 C15 1_555 1_555
C17 C18 1_555 1_555
C19 C20 1_555 1_555
C21 C22 1_555 1_555
C24 C25 1_555 1_555
C25 C26 1_555 1_555
C28 C29 1_555 1_555
C29 C30 1_555 1_555
C32 C33 1_555 1_555
C33 C34 1_555 1_555
C36 C37 1_555 1_555
C37 C38 1_555 1_555
C39 C40 1_555 1_555
C41 C42 1_555 1_555
C43 C44 1_555 1_555
C44 C45 1_555 1_555
C46 C47 1_555 1_555
C47 C48 1_555 1_555
C49 C50 1_555 1_555
C50 C51 1_555 1_555
C52 C53 1_555 1_555
C53 C54 1_555 1_555
C54 C55 1_555 1_555
C56 C57 1_555 1_555
C56 C60 1_555 1_555
C57 C58 1_555 1_555
C58 C59 1_555 1_555
C59 C60 1_555 1_555
C63 C68 1_555 1_555
C67 C68 1_555 1_555
C72B C71B 1_555 1_555

#END
