
#######################################################################
#
#                 Cambridge Crystallographic Data Centre
#                                CCDC 
#
#######################################################################
#
# If this CIF has been generated from an entry in the Cambridge 
# Structural Database, then it will include bibliographic, chemical, 
# crystal, experimental, refinement or atomic coordinate data resulting 
# from the CCDC's data processing and validation procedures.
#
#######################################################################

data_HATHAO
_chemical_formula_moiety         'C21 H23 N1 O6'
_chemical_name_systematic        
N-(1,2,3-trimethoxy-10-oxo-6,7,10,11-tetrahydro-5H-7a,11-epoxybenzo[a]heptalen-7-yl)acetamide
_symmetry_cell_setting           orthorhombic
_symmetry_space_group_name_H-M   'P 21 21 21'
_symmetry_Int_Tables_number      19
_space_group_name_Hall           'P 2ac 2ab'
loop_
_symmetry_equiv_pos_site_id
_symmetry_equiv_pos_as_xyz
1 x,y,z
2 1/2-x,-y,1/2+z
3 -x,1/2+y,1/2-z
4 1/2+x,1/2-y,-z
_cell_length_a                   8.760(3)
_cell_length_b                   13.957(5)
_cell_length_c                   16.322(5)
_cell_angle_alpha                90
_cell_angle_beta                 90
_cell_angle_gamma                90
_cell_volume                     1995.58
_exptl_crystal_colour            colorless
_exptl_crystal_description       Prism
_cell_formula_units_Z            4
loop_
_atom_site_label
_atom_site_type_symbol
_atom_site_fract_x
_atom_site_fract_y
_atom_site_fract_z
O1 O 0.2383(4) 0.3970(3) 0.8364(3)
O2 O -0.4832(5) 0.5978(3) 0.7201(3)
O3 O -0.2122(5) 0.5126(4) 0.6767(2)
N1 N 0.0595(5) 0.2857(3) 0.9583(3)
H1 H 0.1521 0.2818 0.9756
O4 O -0.1637(5) 0.2090(3) 0.9404(3)
O5 O -0.5327(5) 0.6528(4) 0.8750(3)
C1 C -0.3683(7) 0.5862(4) 0.7776(3)
C2 C 0.0264(6) 0.4834(4) 0.7922(3)
C3 C -0.1353(6) 0.5640(3) 0.8932(3)
C4 C -0.0294(6) 0.2097(4) 0.9659(4)
C5 C -0.1158(6) 0.5307(3) 0.8133(3)
C6 C 0.0311(7) 0.3131(5) 0.7774(3)
H2 H -0.0573 0.2782 0.7878
C7 C -0.2745(7) 0.6048(4) 0.9154(3)
H3 H -0.2888 0.6253 0.9691
O6 O 0.3107(8) 0.3539(5) 0.6252(4)
C8 C -0.3917(7) 0.6155(4) 0.8594(3)
C9 C 0.0758(6) 0.3901(4) 0.8360(4)
C10 C -0.2332(7) 0.5429(4) 0.7567(3)
C11 C -0.0029(8) 0.5575(4) 0.9516(4)
H4 H -0.0245 0.5982 0.9984
H5 H 0.0867 0.5832 0.9245
C12 C 0.0092(6) 0.3758(3) 0.9224(3)
H6 H -0.1017 0.3705 0.9156
C13 C 0.0394(8) 0.1226(5) 1.0076(5)
H7 H 0.0363 0.0690 0.9708
H8 H -0.0179 0.1079 1.0560
H9 H 0.1434 0.1360 1.0222
C14 C 0.0355(8) 0.4575(4) 0.9831(4)
H10 H -0.0252 0.4452 1.0317
H11 H 0.1420 0.4567 0.9995
C15 C 0.1469(8) 0.5086(4) 0.7445(4)
H12 H 0.1527 0.5625 0.7112
C16 C 0.1134(10) 0.2921(5) 0.7102(5)
H13 H 0.0926 0.2388 0.6779
C17 C -0.4966(11) 0.6904(5) 0.6882(6)
H14 H -0.3990 0.7115 0.6685
H15 H -0.5314 0.7331 0.7304
H16 H -0.5686 0.6902 0.6439
C18 C 0.2660(8) 0.4359(5) 0.7547(5)
H17 H 0.3688 0.4629 0.7493
C19 C -0.2888(11) 0.4258(6) 0.6572(5)
H18 H -0.2670 0.4085 0.6015
H19 H -0.3968 0.4345 0.6638
H20 H -0.2543 0.3759 0.6931
C20 C -0.5656(10) 0.6746(6) 0.9568(6)
H21 H -0.6665 0.7011 0.9605
H22 H -0.4929 0.7204 0.9769
H23 H -0.5601 0.6173 0.9892
C21 C 0.2352(9) 0.3572(5) 0.6918(5)
loop_
_geom_bond_atom_site_label_1
_geom_bond_atom_site_label_2
_geom_bond_site_symmetry_1
_geom_bond_site_symmetry_2
O1 C9 1_555 1_555
O2 C1 1_555 1_555
O3 C10 1_555 1_555
N1 H1 1_555 1_555
O4 C4 1_555 1_555
O5 C8 1_555 1_555
C1 C8 1_555 1_555
C2 C5 1_555 1_555
C3 C5 1_555 1_555
C4 N1 1_555 1_555
C5 C10 1_555 1_555
C6 H2 1_555 1_555
C7 C3 1_555 1_555
H3 C7 1_555 1_555
O6 C21 1_555 1_555
C8 C7 1_555 1_555
C9 C2 1_555 1_555
C10 C1 1_555 1_555
C11 C3 1_555 1_555
H4 C11 1_555 1_555
H5 C11 1_555 1_555
C12 N1 1_555 1_555
H6 C12 1_555 1_555
C13 C4 1_555 1_555
H7 C13 1_555 1_555
H8 C13 1_555 1_555
H9 C13 1_555 1_555
C14 C11 1_555 1_555
H10 C14 1_555 1_555
H11 C14 1_555 1_555
C15 C2 1_555 1_555
H12 C15 1_555 1_555
C16 C6 1_555 1_555
H13 C16 1_555 1_555
C17 O2 1_555 1_555
H14 C17 1_555 1_555
H15 C17 1_555 1_555
H16 C17 1_555 1_555
C18 O1 1_555 1_555
H17 C18 1_555 1_555
C19 O3 1_555 1_555
H18 C19 1_555 1_555
H19 C19 1_555 1_555
H20 C19 1_555 1_555
C20 O5 1_555 1_555
H21 C20 1_555 1_555
H22 C20 1_555 1_555
H23 C20 1_555 1_555
C21 C16 1_555 1_555
C6 C9 1_555 1_555
C9 C12 1_555 1_555
C12 C14 1_555 1_555
C15 C18 1_555 1_555
C18 C21 1_555 1_555

#END
