
#######################################################################
#
#                 Cambridge Crystallographic Data Centre
#                                CCDC 
#
#######################################################################
#
# If this CIF has been generated from an entry in the Cambridge 
# Structural Database, then it will include bibliographic, chemical, 
# crystal, experimental, refinement or atomic coordinate data resulting 
# from the CCDC's data processing and validation procedures.
#
#######################################################################

data_HATQAX
_chemical_formula_moiety         'C8 H5 O4 1-,C3 H5 N2 1+,H2 O1'
_chemical_name_systematic        
'1H-imidazol-3-ium 3-carboxybenzoate monohydrate'
_symmetry_cell_setting           orthorhombic
_symmetry_space_group_name_H-M   'P 21 21 21'
_symmetry_Int_Tables_number      19
_space_group_name_Hall           'P 2ac 2ab'
loop_
_symmetry_equiv_pos_site_id
_symmetry_equiv_pos_as_xyz
1 x,y,z
2 1/2-x,-y,1/2+z
3 -x,1/2+y,1/2-z
4 1/2+x,1/2-y,-z
_cell_length_a                   3.8062(3)
_cell_length_b                   14.2168(17)
_cell_length_c                   20.9393(18)
_cell_angle_alpha                90
_cell_angle_beta                 90
_cell_angle_gamma                90
_cell_volume                     1133.07
_exptl_crystal_colour            colorless
_exptl_crystal_description       block
_cell_formula_units_Z            4
loop_
_atom_site_label
_atom_site_type_symbol
_atom_site_fract_x
_atom_site_fract_y
_atom_site_fract_z
N1 N 0.5493(10) 0.4711(2) 0.31433(17)
H1 H 0.6408 0.5100 0.2876
N2 N 0.3621(11) 0.3454(2) 0.35584(17)
H2 H 0.3076 0.2872 0.3611
C1 C 0.5102(13) 0.3805(3) 0.3053(2)
H3 H 0.5767 0.3472 0.2690
C2 C 0.3073(14) 0.4143(3) 0.3987(2)
H4 H 0.2076 0.4077 0.4390
C3 C 0.4228(13) 0.4934(3) 0.3724(2)
H5 H 0.4173 0.5530 0.3907
O1 O 0.8449(11) 0.66643(16) 0.13424(14)
O2 O 0.8542(10) 0.59073(16) 0.22509(13)
O3 O 1.0384(10) 0.24845(16) 0.21990(12)
H6 H 1.0957 0.1970 0.2342
O4 O 1.0894(9) 0.17352(16) 0.12736(14)
C4 C 0.8468(13) 0.5930(2) 0.1648(2)
C5 C 1.0275(12) 0.2443(2) 0.1573(2)
C6 C 0.8332(11) 0.5020(2) 0.12920(18)
C7 C 0.9303(11) 0.4186(2) 0.15848(17)
H7 H 1.0019 0.4197 0.2009
C8 C 0.9239(11) 0.3332(2) 0.12620(18)
C9 C 0.8099(12) 0.3335(3) 0.06301(18)
H8 H 0.7979 0.2772 0.0405
C10 C 0.7155(14) 0.4154(3) 0.03363(19)
H9 H 0.6434 0.4144 -0.0088
C11 C 0.7259(14) 0.4984(3) 0.06585(19)
H10 H 0.6603 0.5535 0.0452
O5 O 0.289(3) 0.2796(3) 0.5240(2)
H11 H 0.3725 0.2990 0.5593
H12 H 0.4561 0.2567 0.5022
H13? H 0.1360 0.2373 0.5311
loop_
_geom_bond_atom_site_label_1
_geom_bond_atom_site_label_2
_geom_bond_site_symmetry_1
_geom_bond_site_symmetry_2
N1 H1 1_555 1_555
N2 H2 1_555 1_555
C1 N1 1_555 1_555
H3 C1 1_555 1_555
C2 N2 1_555 1_555
H4 C2 1_555 1_555
C3 N1 1_555 1_555
H5 C3 1_555 1_555
O1 C4 1_555 1_555
O2 C4 1_555 1_555
O3 H6 1_555 1_555
O4 C5 1_555 1_555
C4 C6 1_555 1_555
C5 O3 1_555 1_555
C6 C7 1_555 1_555
C7 H7 1_555 1_555
C8 C5 1_555 1_555
C9 C8 1_555 1_555
H8 C9 1_555 1_555
C10 C9 1_555 1_555
H9 C10 1_555 1_555
C11 C6 1_555 1_555
H10 C11 1_555 1_555
O5 H11 1_555 1_555
H12 O5 1_555 1_555
N2 C1 1_555 1_555
C2 C3 1_555 1_555
C7 C8 1_555 1_555
C10 C11 1_555 1_555

#END
