
#######################################################################
#
#                 Cambridge Crystallographic Data Centre
#                                CCDC 
#
#######################################################################
#
# If this CIF has been generated from an entry in the Cambridge 
# Structural Database, then it will include bibliographic, chemical, 
# crystal, experimental, refinement or atomic coordinate data resulting 
# from the CCDC's data processing and validation procedures.
#
#######################################################################

data_HATQEB
_chemical_formula_moiety         'C8 H9 O8 1-,C7 H7 N2 1+'
_chemical_name_systematic        
'1H-benzimidazol-3-ium 3,4,5-tricarboxypentanoate'
_symmetry_cell_setting           monoclinic
_symmetry_space_group_name_H-M   'P 2/n'
_symmetry_Int_Tables_number      13
_space_group_name_Hall           '-P 2yac'
loop_
_symmetry_equiv_pos_site_id
_symmetry_equiv_pos_as_xyz
1 x,y,z
2 1/2-x,y,1/2-z
3 -x,-y,-z
4 1/2+x,-y,1/2+z
_cell_length_a                   5.1000(5)
_cell_length_b                   10.6779(9)
_cell_length_c                   13.8204(12)
_cell_angle_alpha                90
_cell_angle_beta                 90.1410(10)
_cell_angle_gamma                90
_cell_volume                     752.619
_exptl_crystal_colour            colorless
_exptl_crystal_description       block
_cell_formula_units_Z            2
loop_
_atom_site_label
_atom_site_type_symbol
_atom_site_fract_x
_atom_site_fract_y
_atom_site_fract_z
N1 N 0.9038(4) 1.09851(16) 0.69631(13)
H1 H 1.0192 1.1253 0.6561
C1 C 0.7500 1.1690(3) 0.7500
H2 H 0.7500 1.2561 0.7500
C2 C 0.8485(4) 0.97414(19) 0.71555(14)
C3 C 0.9505(5) 0.8646(2) 0.67902(16)
H3 H 1.0818 0.8644 0.6324
C4 C 0.8479(5) 0.7562(2) 0.71514(18)
H4 H 0.9111 0.6800 0.6924
N1A N 0.5962(4) 1.09851(16) 0.80369(13)
H1A H 0.4808 1.1253 0.8439
C2A C 0.6515(4) 0.97414(19) 0.78445(14)
C3A C 0.5495(5) 0.8646(2) 0.82098(16)
H3A H 0.4182 0.8644 0.8676
C4A C 0.6521(5) 0.7562(2) 0.78486(18)
H4A H 0.5889 0.6800 0.8076
O1 O 0.2811(3) 0.19800(13) 0.57491(11)
O2 O 0.5841(3) 0.10489(12) 0.48414(11)
O3 O 0.1019(3) 0.45946(12) 0.63398(9)
H5 H 0.0764 0.4612 0.6925
O4 O 0.5161(3) 0.43801(13) 0.68176(9)
C5 C 0.4695(4) 0.19992(17) 0.51998(13)
C6 C 0.5947(4) 0.32274(16) 0.49142(13)
H6 H 0.6332 0.3205 0.4227
H7 H 0.7599 0.3312 0.5257
C7 C 0.4259(4) 0.43837(15) 0.51238(12)
H8 H 0.2663 0.4339 0.4729
C8 C 0.3493(4) 0.44322(16) 0.61752(13)
O1B O 0.7189(3) 0.80200(13) 0.42509(11)
O2B O 0.4159(3) 0.89511(12) 0.51586(11)
O3B O 0.8981(3) 0.54054(12) 0.36602(9)
H5B H 0.9236 0.5388 0.3075
O4B O 0.4839(3) 0.56199(13) 0.31824(9)
C5B C 0.5305(4) 0.80008(17) 0.48002(13)
C6B C 0.4053(4) 0.67726(16) 0.50858(13)
H6B H 0.3668 0.6795 0.5773
H7B H 0.2401 0.6688 0.4743
C7B C 0.5741(4) 0.56163(15) 0.48762(12)
H8B H 0.7337 0.5661 0.5271
C8B C 0.6507(4) 0.55678(16) 0.38248(13)
H9? H 0.5090 0.0409 0.5017
loop_
_geom_bond_atom_site_label_1
_geom_bond_atom_site_label_2
_geom_bond_site_symmetry_1
_geom_bond_site_symmetry_2
N1 H1 1_555 1_555
C1 N1 1_555 1_555
H2 C1 1_555 1_555
C2 N1 1_555 1_555
C3 C2 1_555 1_555
H3 C3 1_555 1_555
C4 C3 1_555 1_555
H4 C4 1_555 1_555
O1 C5 1_555 1_555
O2 C5 1_555 1_555
O3 H5 1_555 1_555
O4 C8 1_555 1_555
C5 C6 1_555 1_555
C6 H6 1_555 1_555
H7 C6 1_555 1_555
C7 C6 1_555 1_555
H8 C7 1_555 1_555
C8 O3 1_555 1_555
N1A C1 1_555 1_555
H1A N1A 1_555 1_555
C2A C2 1_555 1_555
C3A C2A 1_555 1_555
H3A C3A 1_555 1_555
C4A C4 1_555 1_555
H4A C4A 1_555 1_555
O1B C5B 1_555 1_555
O2B C5B 1_555 1_555
O3B H5B 1_555 1_555
O4B C8B 1_555 1_555
C5B C6B 1_555 1_555
C6B H6B 1_555 1_555
H7B C6B 1_555 1_555
C7B C7 1_555 1_555
H8B C7B 1_555 1_555
C8B O3B 1_555 1_555
C7 C8 1_555 1_555
N1A C2A 1_555 1_555
C3A C4A 1_555 1_555
C6B C7B 1_555 1_555
C7B C8B 1_555 1_555

#END
