
#######################################################################
#
#                 Cambridge Crystallographic Data Centre
#                                CCDC 
#
#######################################################################
#
# If this CIF has been generated from an entry in the Cambridge 
# Structural Database, then it will include bibliographic, chemical, 
# crystal, experimental, refinement or atomic coordinate data resulting 
# from the CCDC's data processing and validation procedures.
#
#######################################################################

data_HAVBOY
_chemical_formula_moiety         'C20 H32 O4'
_chemical_name_systematic        
14-ethyl-3,5,7,9,13-pentamethyloxacyclotetradec-5-ene-2,4,10-trione
_symmetry_cell_setting           orthorhombic
_symmetry_space_group_name_H-M   'P 21 21 21'
_symmetry_Int_Tables_number      19
_space_group_name_Hall           'P 2ac 2ab'
loop_
_symmetry_equiv_pos_site_id
_symmetry_equiv_pos_as_xyz
1 x,y,z
2 1/2+x,1/2-y,-z
3 -x,1/2+y,1/2-z
4 1/2-x,-y,1/2+z
_cell_length_a                   6.8389(3)
_cell_length_b                   9.3999(5)
_cell_length_c                   30.0314(15)
_cell_angle_alpha                90
_cell_angle_beta                 90
_cell_angle_gamma                90
_cell_volume                     1930.57
_exptl_crystal_colour            colorless
_exptl_crystal_description       plate
_cell_formula_units_Z            4
loop_
_atom_site_label
_atom_site_type_symbol
_atom_site_fract_x
_atom_site_fract_y
_atom_site_fract_z
C1 C 0.0130(3) 1.02518(18) 0.06281(6)
C2 C 0.0821(3) 0.88827(18) 0.04110(5)
H1 H 0.2276 0.8907 0.0378
C3 C 0.0249(2) 0.76769(17) 0.07268(5)
C4 C 0.1319(2) 0.75589(18) 0.11593(5)
C5 C 0.0376(2) 0.72764(18) 0.15383(6)
H2 H 0.1171 0.7210 0.1797
C6 C -0.1772(3) 0.70496(19) 0.16098(6)
H3 H -0.2499 0.7504 0.1358
C7 C -0.2482(3) 0.77094(19) 0.20490(6)
H4 H -0.3821 0.7358 0.2110
H5 H -0.1629 0.7366 0.2292
C8 C -0.2513(3) 0.93301(19) 0.20617(6)
H6 H -0.3181 0.9684 0.1787
C9 C -0.0479(3) 0.99715(18) 0.20809(6)
C10 C -0.0102(3) 1.1268(2) 0.17994(6)
H7 H -0.0506 1.2124 0.1968
H8 H -0.0920 1.1213 0.1528
C11 C 0.2021(3) 1.14309(19) 0.16625(6)
H9 H 0.2467 1.0520 0.1532
H10 H 0.2809 1.1603 0.1934
C12 C 0.2449(3) 1.26222(19) 0.13288(6)
H11 H 0.2134 1.3544 0.1479
C13 C 0.1184(3) 1.25268(17) 0.09110(6)
H12 H -0.0224 1.2554 0.1000
C14 C 0.1554(3) 1.36756(19) 0.05667(6)
H13 H 0.1489 1.4616 0.0714
H14 H 0.2892 1.3558 0.0446
C15 C 0.0109(3) 1.3651(2) 0.01841(7)
H15 H 0.0196 1.2735 0.0029
H16 H 0.0416 1.4422 -0.0024
H17 H -0.1219 1.3780 0.0300
C16 C -0.0115(3) 0.87093(19) -0.00450(6)
H18 H -0.1541 0.8746 -0.0015
H19 H 0.0270 0.7791 -0.0172
H20 H 0.0324 0.9479 -0.0241
C17 C 0.3506(3) 0.7758(2) 0.11516(6)
H21 H 0.4022 0.7673 0.1455
H22 H 0.3817 0.8702 0.1033
H23 H 0.4100 0.7027 0.0962
C18 C -0.2215(3) 0.5452(2) 0.16080(7)
H24 H -0.1809 0.5041 0.1323
H25 H -0.3621 0.5303 0.1650
H26 H -0.1497 0.4989 0.1851
C19 C -0.3649(3) 0.9875(2) 0.24712(7)
H27 H -0.3060 0.9487 0.2743
H28 H -0.5015 0.9569 0.2451
H29 H -0.3592 1.0917 0.2480
C20 C 0.4639(3) 1.2635(2) 0.12220(7)
H30 H 0.5389 1.2667 0.1500
H31 H 0.4948 1.3474 0.1041
H32 H 0.4981 1.1772 0.1056
O1 O 0.16019(17) 1.11508(12) 0.07006(4)
O2 O -0.1548(2) 1.04698(14) 0.07232(5)
O3 O -0.1061(2) 0.68639(13) 0.06273(4)
O4 O 0.0769(2) 0.94804(14) 0.23242(4)
loop_
_geom_bond_atom_site_label_1
_geom_bond_atom_site_label_2
_geom_bond_site_symmetry_1
_geom_bond_site_symmetry_2
C1 C2 1_555 1_555
C2 H1 1_555 1_555
C3 C2 1_555 1_555
C4 C3 1_555 1_555
C5 C4 1_555 1_555
H2 C5 1_555 1_555
C6 C5 1_555 1_555
H3 C6 1_555 1_555
C7 C6 1_555 1_555
H4 C7 1_555 1_555
H5 C7 1_555 1_555
C8 C7 1_555 1_555
H6 C8 1_555 1_555
C9 C8 1_555 1_555
C10 C9 1_555 1_555
H7 C10 1_555 1_555
H8 C10 1_555 1_555
C11 C10 1_555 1_555
H9 C11 1_555 1_555
H10 C11 1_555 1_555
C12 C11 1_555 1_555
H11 C12 1_555 1_555
C13 C12 1_555 1_555
H12 C13 1_555 1_555
C14 C13 1_555 1_555
H13 C14 1_555 1_555
H14 C14 1_555 1_555
C15 C14 1_555 1_555
H15 C15 1_555 1_555
H16 C15 1_555 1_555
H17 C15 1_555 1_555
C16 C2 1_555 1_555
H18 C16 1_555 1_555
H19 C16 1_555 1_555
H20 C16 1_555 1_555
C17 C4 1_555 1_555
H21 C17 1_555 1_555
H22 C17 1_555 1_555
H23 C17 1_555 1_555
C18 C6 1_555 1_555
H24 C18 1_555 1_555
H25 C18 1_555 1_555
H26 C18 1_555 1_555
C19 C8 1_555 1_555
H27 C19 1_555 1_555
H28 C19 1_555 1_555
H29 C19 1_555 1_555
C20 C12 1_555 1_555
H30 C20 1_555 1_555
H31 C20 1_555 1_555
H32 C20 1_555 1_555
O1 C1 1_555 1_555
O2 C1 1_555 1_555
O3 C3 1_555 1_555
O4 C9 1_555 1_555
C13 O1 1_555 1_555

#END
