
#######################################################################
#
#                 Cambridge Crystallographic Data Centre
#                                CCDC 
#
#######################################################################
#
# If this CIF has been generated from an entry in the Cambridge 
# Structural Database, then it will include bibliographic, chemical, 
# crystal, experimental, refinement or atomic coordinate data resulting 
# from the CCDC's data processing and validation procedures.
#
#######################################################################

data_HAVCEN
_chemical_formula_moiety         'C23 H29 Li1 O3'
_chemical_name_systematic        
(\h^5^-((2-Methoxyphenyl)isopropyl)indenyl-O)-(1,2-dimethxoyethane)-lithium
_symmetry_cell_setting           orthorhombic
_symmetry_space_group_name_H-M   'P b c a'
_symmetry_Int_Tables_number      61
_space_group_name_Hall           '-P 2ac 2ab'
loop_
_symmetry_equiv_pos_site_id
_symmetry_equiv_pos_as_xyz
1 x,y,z
2 1/2-x,-y,1/2+z
3 -x,1/2+y,1/2-z
4 1/2+x,1/2-y,-z
5 -x,-y,-z
6 1/2+x,y,1/2-z
7 x,1/2-y,1/2+z
8 1/2-x,1/2+y,z
_cell_length_a                   14.5677(3)
_cell_length_b                   15.54670(10)
_cell_length_c                   18.7498(3)
_cell_angle_alpha                90
_cell_angle_beta                 90
_cell_angle_gamma                90
_cell_volume                     4246.45
_cell_formula_units_Z            8
_chemical_properties_physical    'Air- and moisture-sensitive'
_exptl_crystal_recrystallization_method toluene/dimethoxyethane
loop_
_atom_site_label
_atom_site_type_symbol
_atom_site_fract_x
_atom_site_fract_y
_atom_site_fract_z
Li1 Li 0.2740(3) 0.3028(3) 0.1084(3)
O1 O 0.18709(15) 0.24541(13) 0.18615(14)
O2 O 0.38535(13) 0.22494(13) 0.11672(11)
O3 O 0.24753(16) 0.22589(13) 0.02367(13)
C1 C 0.2161(3) 0.1674(2) 0.2204(3)
H1 H 0.1700 0.1494 0.2539
H2 H 0.2728 0.1773 0.2451
H3 H 0.2247 0.1234 0.1852
C2 C 0.0935(2) 0.2569(2) 0.17590(17)
C3 C 0.0383(3) 0.1872(3) 0.1601(2)
H4 H 0.0634 0.1322 0.1577
C4 C -0.0531(3) 0.1995(4) 0.1480(2)
H5 H -0.0905 0.1526 0.1378
C5 C -0.0898(3) 0.2793(4) 0.1506(2)
H6 H -0.1520 0.2873 0.1416
C6 C -0.0340(2) 0.3500(3) 0.16673(18)
H7 H -0.0600 0.4046 0.1683
C7 C 0.0594(2) 0.34063(19) 0.18048(15)
C8 C 0.1210(2) 0.41642(18) 0.20204(16)
C9 C 0.1526(3) 0.4013(3) 0.27915(19)
H8 H 0.1874 0.3490 0.2816
H9 H 0.0999 0.3969 0.3097
H10 H 0.1902 0.4486 0.2944
C10 C 0.0665(3) 0.5018(2) 0.2017(2)
H11 H 0.0450 0.5134 0.1542
H12 H 0.1056 0.5478 0.2172
H13 H 0.0150 0.4971 0.2334
C11 C 0.2014(2) 0.42664(17) 0.15087(17)
C12 C 0.2947(2) 0.43315(19) 0.1692(2)
H14 H 0.3180 0.4383 0.2181
C13 C 0.3480(2) 0.4437(2) 0.1077(2)
H15 H 0.4143 0.4540 0.1065
C14 C 0.2889(2) 0.44440(19) 0.0482(2)
C15 C 0.1964(2) 0.43397(17) 0.07543(17)
C16 C 0.1231(2) 0.43409(18) 0.02581(18)
H16 H 0.0630 0.4284 0.0418
C17 C 0.1405(3) 0.4425(2) -0.0454(2)
H17 H 0.0918 0.4426 -0.0775
C18 C 0.2300(4) 0.4510(2) -0.0710(2)
H18 H 0.2399 0.4555 -0.1198
C19 C 0.3031(3) 0.4528(2) -0.0259(3)
H19 H 0.3622 0.4596 -0.0438
C20 C 0.4692(2) 0.2486(3) 0.1488(2)
H20 H 0.5112 0.2010 0.1466
H21 H 0.4586 0.2639 0.1977
H22 H 0.4948 0.2969 0.1239
C21 C 0.3975(2) 0.1841(2) 0.0496(2)
H23 H 0.4387 0.1354 0.0546
H24 H 0.4243 0.2241 0.0159
C22 C 0.3077(2) 0.1548(2) 0.0237(2)
H25 H 0.3136 0.1318 -0.0242
H26 H 0.2840 0.1099 0.0545
C23 C 0.1633(3) 0.2082(3) -0.0112(2)
H27 H 0.1738 0.1687 -0.0497
H28 H 0.1380 0.2606 -0.0296
H29 H 0.1210 0.1831 0.0222
loop_
_geom_bond_atom_site_label_1
_geom_bond_atom_site_label_2
_geom_bond_site_symmetry_1
_geom_bond_site_symmetry_2
Li1 O1 1_555 1_555
O1 C1 1_555 1_555
O2 Li1 1_555 1_555
O3 Li1 1_555 1_555
C1 H1 1_555 1_555
H2 C1 1_555 1_555
H3 C1 1_555 1_555
C2 O1 1_555 1_555
C3 C2 1_555 1_555
H4 C3 1_555 1_555
C4 C3 1_555 1_555
H5 C4 1_555 1_555
C5 C4 1_555 1_555
H6 C5 1_555 1_555
C6 C5 1_555 1_555
H7 C6 1_555 1_555
C7 C2 1_555 1_555
C8 C7 1_555 1_555
C9 C8 1_555 1_555
H8 C9 1_555 1_555
H9 C9 1_555 1_555
H10 C9 1_555 1_555
C10 C8 1_555 1_555
H11 C10 1_555 1_555
H12 C10 1_555 1_555
H13 C10 1_555 1_555
C11 Li1 1_555 1_555
C12 Li1 1_555 1_555
H14 C12 1_555 1_555
C13 Li1 1_555 1_555
H15 C13 1_555 1_555
C14 Li1 1_555 1_555
C15 Li1 1_555 1_555
C16 C15 1_555 1_555
H16 C16 1_555 1_555
C17 C16 1_555 1_555
H17 C17 1_555 1_555
C18 C17 1_555 1_555
H18 C18 1_555 1_555
C19 C14 1_555 1_555
H19 C19 1_555 1_555
C20 O2 1_555 1_555
H20 C20 1_555 1_555
H21 C20 1_555 1_555
H22 C20 1_555 1_555
C21 O2 1_555 1_555
H23 C21 1_555 1_555
H24 C21 1_555 1_555
C22 O3 1_555 1_555
H25 C22 1_555 1_555
H26 C22 1_555 1_555
C23 O3 1_555 1_555
H27 C23 1_555 1_555
H28 C23 1_555 1_555
H29 C23 1_555 1_555
C6 C7 1_555 1_555
C8 C11 1_555 1_555
C11 C12 1_555 1_555
C11 C15 1_555 1_555
C12 C13 1_555 1_555
C13 C14 1_555 1_555
C14 C15 1_555 1_555
C18 C19 1_555 1_555
C21 C22 1_555 1_555

#END
