
#######################################################################
#
#                 Cambridge Crystallographic Data Centre
#                                CCDC 
#
#######################################################################
#
# If this CIF has been generated from an entry in the Cambridge 
# Structural Database, then it will include bibliographic, chemical, 
# crystal, experimental, refinement or atomic coordinate data resulting 
# from the CCDC's data processing and validation procedures.
#
#######################################################################

data_HAVWAF
_chemical_formula_moiety         'C32 H22'
_chemical_name_systematic        2,7-bis(2-phenylvinyl)pyrene
_symmetry_cell_setting           orthorhombic
_symmetry_space_group_name_H-M   'P b c a'
_symmetry_Int_Tables_number      61
_space_group_name_Hall           '-P 2ac 2ab'
loop_
_symmetry_equiv_pos_site_id
_symmetry_equiv_pos_as_xyz
1 x,y,z
2 1/2-x,-y,1/2+z
3 -x,1/2+y,1/2-z
4 1/2+x,1/2-y,-z
5 -x,-y,-z
6 1/2+x,y,1/2-z
7 x,1/2-y,1/2+z
8 1/2-x,1/2+y,z
_cell_length_a                   7.683(2)
_cell_length_b                   8.384(2)
_cell_length_c                   33.587(9)
_cell_angle_alpha                90
_cell_angle_beta                 90
_cell_angle_gamma                90
_cell_volume                     2163.48
_exptl_crystal_colour            yellow
_exptl_crystal_description       plate
_cell_formula_units_Z            4
loop_
_atom_site_label
_atom_site_type_symbol
_atom_site_fract_x
_atom_site_fract_y
_atom_site_fract_z
C17 C 0.6011(10) -0.2412(10) 0.4600(2)
H12 H 0.6396 -0.3407 0.4515
C18 C 0.5751(11) -0.1238(9) 0.4330(2)
H13 H 0.5950 -0.1452 0.4062
C19 C 0.5180(14) 0.0325(10) 0.4443(4)
C20 C 0.490(4) 0.064(3) 0.4870(7)
C21 C 0.4300(14) 0.2144(14) 0.4981(2)
C22 C 0.4045(6) 0.3328(6) 0.46915(19)
H14 H 0.3615 0.4317 0.4769
C23 C 0.4417(7) 0.3065(6) 0.4291(2)
C24 C 0.4932(7) 0.1564(8) 0.41678(15)
H15 H 0.5117 0.1371 0.3898
C25 C 0.4287(5) 0.4405(5) 0.40112(13)
H16 H 0.3551 0.5240 0.4080
C26 C 0.5137(6) 0.4525(7) 0.36647(17)
H17 H 0.5832 0.3690 0.3575
C27 C 0.495(3) 0.608(2) 0.3411(7)
C28 C 0.625(3) 0.572(3) 0.3129(4)
H18 H 0.6970 0.4837 0.3164
C29 C 0.6448(18) 0.6687(12) 0.2802(5)
H19 H 0.7269 0.6429 0.2609
C30 C 0.5429(16) 0.8048(15) 0.2756(4)
H20 H 0.5571 0.8688 0.2532
C31 C 0.4223(17) 0.8453(19) 0.3037(3)
H21 H 0.3546 0.9365 0.3007
C32 C 0.403(2) 0.7490(13) 0.3364(4)
H22 H 0.3247 0.7793 0.3561
C17D C 0.3989(10) 0.2412(10) 0.5400(2)
H12D H 0.3604 0.3407 0.5485
C18D C 0.4249(11) 0.1238(9) 0.5670(2)
H13D H 0.4050 0.1452 0.5938
C19D C 0.4820(14) -0.0325(10) 0.5557(4)
C20D C 0.510(4) -0.064(3) 0.5130(7)
C21D C 0.5700(14) -0.2144(14) 0.5019(2)
C22D C 0.5955(6) -0.3328(6) 0.53085(19)
H14D H 0.6385 -0.4317 0.5231
C23D C 0.5583(7) -0.3065(6) 0.5709(2)
C24D C 0.5068(7) -0.1564(8) 0.58322(15)
H15D H 0.4883 -0.1371 0.6102
C25D C 0.5713(5) -0.4405(5) 0.59888(13)
H16D H 0.6449 -0.5240 0.5920
C26D C 0.4863(6) -0.4525(7) 0.63353(17)
H17D H 0.4168 -0.3690 0.6425
C27D C 0.505(3) -0.608(2) 0.6589(7)
C28D C 0.375(3) -0.572(3) 0.6871(4)
H18D H 0.3030 -0.4837 0.6836
C29D C 0.3552(18) -0.6687(12) 0.7198(5)
H19D H 0.2731 -0.6429 0.7391
C30D C 0.4571(16) -0.8048(15) 0.7244(4)
H20D H 0.4429 -0.8688 0.7468
C31D C 0.5777(17) -0.8453(19) 0.6963(3)
H21D H 0.6454 -0.9365 0.6993
C32D C 0.597(2) -0.7490(13) 0.6636(4)
H22D H 0.6753 -0.7793 0.6439
C1? C 0.5993(11) -0.2700(12) 0.4752(2)
H1? H 0.6315 -0.3762 0.4722
C2? C 0.5940(9) -0.1770(10) 0.4426(2)
H2? H 0.6250 -0.2201 0.4180
C3? C 0.4963(7) 0.2523(9) 0.41513(17)
C4? C 0.492(4) 0.048(3) 0.4815(7)
C5? C 0.4424(18) 0.2130(19) 0.4857(3)
C6? C 0.4433(7) 0.3093(7) 0.4523(2)
H3? H 0.4076 0.4149 0.4546
C7? C 0.5416(15) -0.0128(11) 0.4447(4)
C8? C 0.5427(7) 0.0907(7) 0.41220(15)
H4? H 0.5756 0.0509 0.3875
C9? C 0.5165(5) 0.3537(6) 0.37988(13)
H5? H 0.5703 0.3082 0.3578
C10? C 0.4653(7) 0.5045(7) 0.37641(17)
H6? H 0.4062 0.5574 0.3966
C11? C 0.509(3) 0.582(2) 0.3382(8)
C12? C 0.5071(18) 0.8359(17) 0.2821(4)
H7? H 0.5073 0.9203 0.2641
C13? C 0.6173(17) 0.7104(13) 0.2772(5)
H8? H 0.6933 0.7076 0.2557
C14? C 0.615(3) 0.586(3) 0.3049(4)
H9? H 0.6899 0.4998 0.3006
C15? C 0.3940(19) 0.835(2) 0.3145(3)
H10? H 0.3182 0.9208 0.3180
C16? C 0.391(2) 0.7106(14) 0.3419(4)
H11? H 0.3111 0.7119 0.3627
loop_
_geom_bond_atom_site_label_1
_geom_bond_atom_site_label_2
_geom_bond_site_symmetry_1
_geom_bond_site_symmetry_2
C17 H12 1_555 1_555
C18 C17 1_555 1_555
H13 C18 1_555 1_555
C19 C18 1_555 1_555
C20 C19 1_555 1_555
C21 C20 1_555 1_555
C22 C21 1_555 1_555
H14 C22 1_555 1_555
C23 C22 1_555 1_555
C24 C19 1_555 1_555
H15 C24 1_555 1_555
C25 C23 1_555 1_555
H16 C25 1_555 1_555
C26 C25 1_555 1_555
H17 C26 1_555 1_555
C27 C26 1_555 1_555
C28 C27 1_555 1_555
H18 C28 1_555 1_555
C29 C28 1_555 1_555
H19 C29 1_555 1_555
C30 C29 1_555 1_555
H20 C30 1_555 1_555
C31 C30 1_555 1_555
H21 C31 1_555 1_555
C32 C27 1_555 1_555
H22 C32 1_555 1_555
C17D C21 1_555 1_555
H12D C17D 1_555 1_555
C18D C17D 1_555 1_555
H13D C18D 1_555 1_555
C19D C18D 1_555 1_555
C20D C20 1_555 1_555
C21D C17 1_555 1_555
C22D C21D 1_555 1_555
H14D C22D 1_555 1_555
C23D C22D 1_555 1_555
C24D C19D 1_555 1_555
H15D C24D 1_555 1_555
C25D C23D 1_555 1_555
H16D C25D 1_555 1_555
C26D C25D 1_555 1_555
H17D C26D 1_555 1_555
C27D C26D 1_555 1_555
C28D C27D 1_555 1_555
H18D C28D 1_555 1_555
C29D C28D 1_555 1_555
H19D C29D 1_555 1_555
C30D C29D 1_555 1_555
H20D C30D 1_555 1_555
C31D C30D 1_555 1_555
H21D C31D 1_555 1_555
C32D C27D 1_555 1_555
H22D C32D 1_555 1_555
C23 C24 1_555 1_555
C31 C32 1_555 1_555
C19D C20D 1_555 1_555
C20D C21D 1_555 1_555
C23D C24D 1_555 1_555
C31D C32D 1_555 1_555

#END
