
#######################################################################
#
#                 Cambridge Crystallographic Data Centre
#                                CCDC 
#
#######################################################################
#
# If this CIF has been generated from an entry in the Cambridge 
# Structural Database, then it will include bibliographic, chemical, 
# crystal, experimental, refinement or atomic coordinate data resulting 
# from the CCDC's data processing and validation procedures.
#
#######################################################################

data_HAWFAP
_chemical_formula_moiety         'C28 H20 N8 O4 S5'
_chemical_name_systematic        
'diethyl 2,7,12,17,22-pentathia-4,5,14,15,30,31,34,35-octaazahexacyclo[21.2.2.2^3,6^.2^8,11^.2^13,16^.2^18,21^]pentatriaconta-1(25),3,5,8,10,13,15,18,20,23,26,28,30,32,34-pentadecaene-9,32-dicarboxylate'
_symmetry_cell_setting           orthorhombic
_symmetry_space_group_name_H-M   'P 21 21 21'
_symmetry_Int_Tables_number      19
_space_group_name_Hall           'P 2ac 2ab'
loop_
_symmetry_equiv_pos_site_id
_symmetry_equiv_pos_as_xyz
1 x,y,z
2 1/2-x,-y,1/2+z
3 -x,1/2+y,1/2-z
4 1/2+x,1/2-y,-z
_cell_length_a                   10.012(5)
_cell_length_b                   14.406(7)
_cell_length_c                   21.160(10)
_cell_angle_alpha                90
_cell_angle_beta                 90
_cell_angle_gamma                90
_cell_volume                     3051.97
_exptl_crystal_colour            red
_exptl_crystal_description       needle
_cell_formula_units_Z            4
loop_
_atom_site_label
_atom_site_type_symbol
_atom_site_fract_x
_atom_site_fract_y
_atom_site_fract_z
S1 S 0.62190(13) 0.68789(8) 0.11897(6)
S2 S 0.08905(12) 0.48049(9) 0.20423(6)
S3 S 0.13733(14) 0.36046(10) 0.47657(6)
S4 S 0.66293(15) 0.55354(11) 0.58478(6)
S5 S 0.97840(14) 0.71576(11) 0.34738(7)
O1 O 0.3333(5) 0.7976(3) 0.07562(19)
O2 O 0.3375(4) 0.8320(2) 0.17913(17)
O3 O 0.3100(4) 0.3394(2) 0.22910(18)
O4 O 0.4899(4) 0.3469(2) 0.16489(18)
N1 N -0.0024(4) 0.4179(3) 0.3113(2)
N2 N 0.0076(4) 0.3918(3) 0.3710(2)
N3 N 0.2218(4) 0.4642(3) 0.3779(2)
N4 N 0.2119(4) 0.4900(3) 0.31761(19)
N5 N 0.9294(4) 0.7205(3) 0.2258(2)
N6 N 0.8508(4) 0.7152(3) 0.1756(2)
N7 N 0.6962(4) 0.6239(3) 0.2349(2)
N8 N 0.7750(4) 0.6305(3) 0.2858(2)
C1 C 0.4770(5) 0.6282(3) 0.1458(2)
C2 C 0.3545(5) 0.6753(3) 0.1507(2)
C3 C 0.2400(5) 0.6276(3) 0.1711(2)
H1 H 0.1593 0.6592 0.1747
C4 C 0.2461(5) 0.5335(3) 0.1861(2)
C5 C 0.3682(5) 0.4850(3) 0.1796(2)
C6 C 0.4818(5) 0.5330(3) 0.1595(2)
H2 H 0.5622 0.5012 0.1552
C7 C 0.3417(5) 0.7762(3) 0.1299(2)
C8 C 0.3198(5) 0.9318(3) 0.1644(3)
H3 H 0.2819 0.9632 0.2008
H4 H 0.2580 0.9385 0.1294
C9 C 0.4504(5) 0.9761(4) 0.1475(3)
H5 H 0.4838 0.9491 0.1092
H6 H 0.5135 0.9660 0.1810
H7 H 0.4376 1.0416 0.1416
C10 C 0.3835(5) 0.3830(3) 0.1949(2)
C11 C 0.5251(6) 0.2509(3) 0.1818(3)
H8 H 0.4539 0.2088 0.1699
H9 H 0.5396 0.2457 0.2270
C12 C 0.6495(8) 0.2278(5) 0.1470(6)
H10 H 0.6333 0.2319 0.1023
H11 H 0.6770 0.1659 0.1575
H12 H 0.7186 0.2708 0.1585
C13 C 0.1046(4) 0.4607(3) 0.2854(2)
C14 C 0.1249(5) 0.4101(3) 0.4005(2)
C15 C 0.2856(5) 0.4159(4) 0.5053(2)
C16 C 0.4017(6) 0.3640(4) 0.5149(2)
H13 H 0.4021 0.3009 0.5055
C17 C 0.5162(6) 0.4055(4) 0.5382(3)
H14 H 0.5929 0.3703 0.5446
C18 C 0.5166(5) 0.5007(4) 0.5523(2)
C19 C 0.3991(6) 0.5514(4) 0.5435(2)
H15 H 0.3980 0.6143 0.5534
C20 C 0.2845(6) 0.5099(4) 0.5206(3)
H16 H 0.2070 0.5447 0.5153
C21 C 0.7442(5) 0.5970(4) 0.5156(2)
C22 C 0.8702(6) 0.5632(4) 0.4994(3)
H17 H 0.9090 0.5162 0.5233
C23 C 0.9379(6) 0.5996(4) 0.4478(3)
H18 H 1.0222 0.5769 0.4378
C24 C 0.8823(5) 0.6691(3) 0.4110(2)
C25 C 0.7575(6) 0.7048(4) 0.4282(3)
H19 H 0.7198 0.7528 0.4048
C26 C 0.6901(6) 0.6693(4) 0.4797(3)
H20 H 0.6074 0.6939 0.4908
C27 C 0.8811(5) 0.6864(3) 0.2812(3)
C28 C 0.7298(5) 0.6739(3) 0.1843(2)
loop_
_geom_bond_atom_site_label_1
_geom_bond_atom_site_label_2
_geom_bond_site_symmetry_1
_geom_bond_site_symmetry_2
S1 C1 1_555 1_555
S2 C4 1_555 1_555
S3 C14 1_555 1_555
S4 C18 1_555 1_555
S5 C24 1_555 1_555
O1 C7 1_555 1_555
O2 C7 1_555 1_555
O3 C10 1_555 1_555
O4 C10 1_555 1_555
N1 N2 1_555 1_555
N2 C14 1_555 1_555
N3 N4 1_555 1_555
N4 C13 1_555 1_555
N5 N6 1_555 1_555
N6 C28 1_555 1_555
N7 N8 1_555 1_555
N8 C27 1_555 1_555
C1 C2 1_555 1_555
C2 C3 1_555 1_555
C3 H1 1_555 1_555
C4 C3 1_555 1_555
C5 C4 1_555 1_555
C6 C1 1_555 1_555
H2 C6 1_555 1_555
C7 C2 1_555 1_555
C8 O2 1_555 1_555
H3 C8 1_555 1_555
H4 C8 1_555 1_555
C9 C8 1_555 1_555
H5 C9 1_555 1_555
H6 C9 1_555 1_555
H7 C9 1_555 1_555
C10 C5 1_555 1_555
C11 O4 1_555 1_555
H8 C11 1_555 1_555
H9 C11 1_555 1_555
C12 C11 1_555 1_555
H10 C12 1_555 1_555
H11 C12 1_555 1_555
H12 C12 1_555 1_555
C13 S2 1_555 1_555
C14 N3 1_555 1_555
C15 S3 1_555 1_555
C16 C15 1_555 1_555
H13 C16 1_555 1_555
C17 C16 1_555 1_555
H14 C17 1_555 1_555
C18 C17 1_555 1_555
C19 C18 1_555 1_555
H15 C19 1_555 1_555
C20 C15 1_555 1_555
H16 C20 1_555 1_555
C21 S4 1_555 1_555
C22 C21 1_555 1_555
H17 C22 1_555 1_555
C23 C22 1_555 1_555
H18 C23 1_555 1_555
C24 C23 1_555 1_555
C25 C24 1_555 1_555
H19 C25 1_555 1_555
C26 C21 1_555 1_555
H20 C26 1_555 1_555
C27 S5 1_555 1_555
C28 S1 1_555 1_555
N1 C13 1_555 1_555
N5 C27 1_555 1_555
N7 C28 1_555 1_555
C5 C6 1_555 1_555
C19 C20 1_555 1_555
C25 C26 1_555 1_555

#END
