
#######################################################################
#
#                 Cambridge Crystallographic Data Centre
#                                CCDC 
#
#######################################################################
#
# If this CIF has been generated from an entry in the Cambridge 
# Structural Database, then it will include bibliographic, chemical, 
# crystal, experimental, refinement or atomic coordinate data resulting 
# from the CCDC's data processing and validation procedures.
#
#######################################################################

data_HAWNIF
_chemical_formula_moiety         'C23 H24 O1'
_chemical_name_systematic        
5-ethenyl-3a-methyl-6-(2-methylphenyl)-5-phenyl-3,3a,4,5-tetrahydro-1H-cyclopenta[c]furan
_symmetry_cell_setting           triclinic
_symmetry_space_group_name_H-M   'P -1'
_symmetry_Int_Tables_number      2
_space_group_name_Hall           '-P 1'
loop_
_symmetry_equiv_pos_site_id
_symmetry_equiv_pos_as_xyz
1 x,y,z
2 -x,-y,-z
_cell_length_a                   9.968(2)
_cell_length_b                   10.431(3)
_cell_length_c                   10.921(3)
_cell_angle_alpha                62.684(4)
_cell_angle_beta                 78.845(4)
_cell_angle_gamma                62.833(3)
_cell_volume                     897.413
_exptl_crystal_colour            colorless
_exptl_crystal_description       block
_cell_formula_units_Z            2
loop_
_atom_site_label
_atom_site_type_symbol
_atom_site_fract_x
_atom_site_fract_y
_atom_site_fract_z
O1 O 0.44881(19) 0.6571(2) 0.82281(17)
C1 C 0.2901(3) 0.2373(3) 0.9330(2)
H1 H 0.2865 0.1368 0.9925
H2 H 0.1921 0.3219 0.9270
H3 H 0.3616 0.2492 0.9698
C2 C 0.3373(2) 0.2434(2) 0.7916(2)
C3 C 0.4037(2) 0.1031(2) 0.7736(3)
H4 H 0.4207 0.0071 0.8505
C4 C 0.4450(2) 0.1015(3) 0.6467(3)
H5 H 0.4893 0.0059 0.6382
C5 C 0.4202(2) 0.2418(3) 0.5332(3)
H6 H 0.4470 0.2423 0.4466
C6 C 0.3555(2) 0.3824(2) 0.5471(2)
H7 H 0.3386 0.4772 0.4688
C7 C 0.31461(19) 0.3869(2) 0.67502(19)
C8 C 0.24638(19) 0.53905(19) 0.68997(17)
C9 C 0.2996(2) 0.5731(2) 0.76841(17)
C10 C 0.4486(2) 0.5144(3) 0.8316(2)
H8 H 0.4566 0.4370 0.9267
H9 H 0.5311 0.4666 0.7804
C11 C 0.3077(3) 0.7917(3) 0.7673(2)
H10 H 0.3177 0.8570 0.6712
H11 H 0.2746 0.8564 0.8181
C12 C 0.1956(2) 0.7244(2) 0.78172(19)
C13 C 0.0808(2) 0.8081(2) 0.6639(2)
H12 H 0.1031 0.8904 0.5859
H13 H -0.0204 0.8570 0.6940
C14 C 0.09304(19) 0.6783(2) 0.62224(18)
C15 C 0.10052(19) 0.73943(19) 0.46440(18)
C16 C 0.2176(2) 0.7826(2) 0.39660(19)
H14 H 0.2878 0.7744 0.4479
C17 C 0.2315(2) 0.8371(2) 0.2559(2)
H15 H 0.3106 0.8649 0.2135
C18 C 0.1292(3) 0.8506(2) 0.1780(2)
H16 H 0.1388 0.8865 0.0829
C19 C 0.0124(3) 0.8105(3) 0.2422(2)
H17 H -0.0580 0.8201 0.1900
C20 C -0.0022(2) 0.7560(2) 0.3837(2)
H18 H -0.0825 0.7300 0.4251
C21 C 0.1238(3) 0.6895(3) 0.9241(2)
H19 H 0.0674 0.6304 0.9372
H20 H 0.0575 0.7879 0.9303
H21 H 0.2015 0.6283 0.9941
C22 C -0.0304(2) 0.6202(3) 0.6783(2)
H22 H -0.0114 0.5256 0.6755
C23 C -0.1591(3) 0.6845(4) 0.7298(3)
H23 H -0.1853 0.7792 0.7357
H24 H -0.2250 0.6357 0.7607
loop_
_geom_bond_atom_site_label_1
_geom_bond_atom_site_label_2
_geom_bond_site_symmetry_1
_geom_bond_site_symmetry_2
O1 C10 1_555 1_555
C1 H1 1_555 1_555
H2 C1 1_555 1_555
H3 C1 1_555 1_555
C2 C1 1_555 1_555
C3 C2 1_555 1_555
H4 C3 1_555 1_555
C4 C3 1_555 1_555
H5 C4 1_555 1_555
C5 C4 1_555 1_555
H6 C5 1_555 1_555
C6 C5 1_555 1_555
H7 C6 1_555 1_555
C7 C2 1_555 1_555
C8 C7 1_555 1_555
C9 C8 1_555 1_555
C10 C9 1_555 1_555
H8 C10 1_555 1_555
H9 C10 1_555 1_555
C11 O1 1_555 1_555
H10 C11 1_555 1_555
H11 C11 1_555 1_555
C12 C9 1_555 1_555
C13 C12 1_555 1_555
H12 C13 1_555 1_555
H13 C13 1_555 1_555
C14 C8 1_555 1_555
C15 C14 1_555 1_555
C16 C15 1_555 1_555
H14 C16 1_555 1_555
C17 C16 1_555 1_555
H15 C17 1_555 1_555
C18 C17 1_555 1_555
H16 C18 1_555 1_555
C19 C18 1_555 1_555
H17 C19 1_555 1_555
C20 C15 1_555 1_555
H18 C20 1_555 1_555
C21 C12 1_555 1_555
H19 C21 1_555 1_555
H20 C21 1_555 1_555
H21 C21 1_555 1_555
C22 C14 1_555 1_555
H22 C22 1_555 1_555
C23 C22 1_555 1_555
H23 C23 1_555 1_555
H24 C23 1_555 1_555
C6 C7 1_555 1_555
C11 C12 1_555 1_555
C13 C14 1_555 1_555
C19 C20 1_555 1_555

#END
