
#######################################################################
#
#                 Cambridge Crystallographic Data Centre
#                                CCDC 
#
#######################################################################
#
# If this CIF has been generated from an entry in the Cambridge 
# Structural Database, then it will include bibliographic, chemical, 
# crystal, experimental, refinement or atomic coordinate data resulting 
# from the CCDC's data processing and validation procedures.
#
#######################################################################

data_HAWNOL
_chemical_formula_moiety         'C38 H44 Br2 N4 O2,2(C1 H1 Cl3)'
_chemical_name_systematic        
"(3E,3'E)-3,3'-(pyrazine-2,5-diyldimethylylidene)bis(6-bromo-1-octyl-1,3-dihydro-2H-indol-2-one) chloroform solvate"
_symmetry_cell_setting           triclinic
_symmetry_space_group_name_H-M   'P -1'
_symmetry_Int_Tables_number      2
_space_group_name_Hall           '-P 1'
loop_
_symmetry_equiv_pos_site_id
_symmetry_equiv_pos_as_xyz
1 x,y,z
2 -x,-y,-z
_cell_length_a                   4.9228(7)
_cell_length_b                   11.6856(18)
_cell_length_c                   19.2004(19)
_cell_angle_alpha                97.479(11)
_cell_angle_beta                 93.857(10)
_cell_angle_gamma                93.049(12)
_cell_volume                     1090.5
_exptl_crystal_colour            'dark red'
_exptl_crystal_description       needle
_cell_formula_units_Z            1
loop_
_atom_site_label
_atom_site_type_symbol
_atom_site_fract_x
_atom_site_fract_y
_atom_site_fract_z
Br1 Br 0.50548(13) 0.33911(5) 0.35216(3)
O1 O 0.3873(7) 0.8049(3) 0.11704(16)
N1 N -0.3653(8) 0.4632(3) 0.05921(18)
N2 N 0.4969(8) 0.6898(3) 0.20202(19)
C1 C -0.4190(9) 0.5951(4) -0.0246(2)
H1 H -0.3557 0.6625 -0.0408
C2 C -0.2793(9) 0.5622(4) 0.0349(2)
C3 C -0.0473(9) 0.6344(4) 0.0688(2)
H2 H -0.0100 0.7009 0.0485
C4 C 0.1235(9) 0.6224(4) 0.1245(2)
C5 C 0.1679(9) 0.5397(4) 0.1743(2)
C6 C 0.0411(10) 0.4337(4) 0.1828(2)
H3 H -0.1101 0.4029 0.1534
C7 C 0.1459(10) 0.3744(4) 0.2366(2)
H4 H 0.0658 0.3028 0.2427
C8 C 0.3673(10) 0.4220(4) 0.2802(2)
C9 C 0.4984(10) 0.5276(4) 0.2741(2)
H5 H 0.6472 0.5583 0.3044
C10 C 0.3958(9) 0.5849(4) 0.2203(2)
C11 C 0.3468(10) 0.7182(4) 0.1447(2)
C12 C 0.7150(10) 0.7667(4) 0.2400(2)
H6 H 0.7981 0.8127 0.2076
H7 H 0.8540 0.7209 0.2588
C13 C 0.6108(10) 0.8473(4) 0.3005(2)
H8 H 0.4632 0.8890 0.2820
H9 H 0.5377 0.8010 0.3342
C14 C 0.8308(10) 0.9340(4) 0.3385(2)
H10 H 0.9748 0.8924 0.3589
H11 H 0.9095 0.9781 0.3045
C15 C 0.7239(10) 1.0172(4) 0.3965(2)
H12 H 0.5675 1.0526 0.3769
H13 H 0.6614 0.9734 0.4326
C16 C 0.9308(10) 1.1122(4) 0.4307(2)
H14 H 0.9905 1.1573 0.3949
H15 H 1.0888 1.0771 0.4497
C17 C 0.8213(10) 1.1928(4) 0.4894(2)
H16 H 0.7819 1.1491 0.5276
H17 H 0.6508 1.2203 0.4718
C18 C 1.0142(11) 1.2972(4) 0.5188(3)
H18 H 1.1797 1.2704 0.5398
H19 H 1.0639 1.3385 0.4804
C19 C 0.8876(13) 1.3797(4) 0.5737(3)
H20 H 0.7267 1.4084 0.5528
H21 H 1.0165 1.4433 0.5909
H22 H 0.8398 1.3395 0.6121
Br1A Br -1.50548(13) 0.66089(5) -0.35216(3)
O1A O -1.3873(7) 0.1951(3) -0.11704(16)
N1A N -0.6347(8) 0.5368(3) -0.05921(18)
N2A N -1.4969(8) 0.3102(3) -0.20202(19)
C1A C -0.5810(9) 0.4049(4) 0.0246(2)
H1A H -0.6443 0.3375 0.0408
C2A C -0.7207(9) 0.4378(4) -0.0349(2)
C3A C -0.9527(9) 0.3656(4) -0.0688(2)
H2A H -0.9900 0.2991 -0.0485
C4A C -1.1235(9) 0.3776(4) -0.1245(2)
C5A C -1.1679(9) 0.4603(4) -0.1743(2)
C6A C -1.0411(10) 0.5663(4) -0.1828(2)
H3A H -0.8899 0.5971 -0.1534
C7A C -1.1459(10) 0.6256(4) -0.2366(2)
H4A H -1.0658 0.6972 -0.2427
C8A C -1.3673(10) 0.5780(4) -0.2802(2)
C9A C -1.4984(10) 0.4724(4) -0.2741(2)
H5A H -1.6472 0.4417 -0.3044
C10A C -1.3958(9) 0.4151(4) -0.2203(2)
C11A C -1.3468(10) 0.2818(4) -0.1447(2)
C12A C -1.7150(10) 0.2333(4) -0.2400(2)
H6A H -1.7981 0.1873 -0.2076
H7A H -1.8540 0.2791 -0.2588
C13A C -1.6108(10) 0.1527(4) -0.3005(2)
H8A H -1.4632 0.1110 -0.2820
H9A H -1.5377 0.1990 -0.3342
C14A C -1.8308(10) 0.0660(4) -0.3385(2)
H10A H -1.9748 0.1076 -0.3589
H11A H -1.9095 0.0219 -0.3045
C15A C -1.7239(10) -0.0172(4) -0.3965(2)
H12A H -1.5675 -0.0526 -0.3769
H13A H -1.6614 0.0266 -0.4326
C16A C -1.9308(10) -0.1122(4) -0.4307(2)
H14A H -1.9905 -0.1573 -0.3949
H15A H -2.0888 -0.0771 -0.4497
C17A C -1.8213(10) -0.1928(4) -0.4894(2)
H16A H -1.7819 -0.1491 -0.5276
H17A H -1.6508 -0.2203 -0.4718
C18A C -2.0142(11) -0.2972(4) -0.5188(3)
H18A H -2.1797 -0.2704 -0.5398
H19A H -2.0639 -0.3385 -0.4804
C19A C -1.8876(13) -0.3797(4) -0.5737(3)
H20A H -1.7267 -0.4084 -0.5528
H21A H -2.0165 -0.4433 -0.5909
H22A H -1.8398 -0.3395 -0.6121
Cl1 Cl 0.6866(4) 1.13698(14) 0.04404(10)
C20 C 0.6662(11) 1.0525(5) 0.1117(3)
H23 H 0.5077 0.9975 0.0992
Cl2 Cl 0.9605(6) 0.9703(2) 0.11426(16)
Cl3 Cl 0.6262(7) 1.1249(3) 0.19573(16)
H24? H 0.5438 0.9826 0.1005
Cl4? Cl 0.979(2) 1.0306(8) 0.1466(5)
Cl5? Cl 0.528(2) 1.1718(7) 0.1691(5)
loop_
_geom_bond_atom_site_label_1
_geom_bond_atom_site_label_2
_geom_bond_site_symmetry_1
_geom_bond_site_symmetry_2
Br1 C8 1_555 1_555
O1 C11 1_555 1_555
N1 C2 1_555 1_555
N2 C10 1_555 1_555
C1 H1 1_555 1_555
C2 C1 1_555 1_555
C3 C2 1_555 1_555
H2 C3 1_555 1_555
C4 C3 1_555 1_555
C5 C4 1_555 1_555
C6 C5 1_555 1_555
H3 C6 1_555 1_555
C7 C6 1_555 1_555
H4 C7 1_555 1_555
C8 C7 1_555 1_555
C9 C8 1_555 1_555
H5 C9 1_555 1_555
C10 C5 1_555 1_555
C11 N2 1_555 1_555
C12 N2 1_555 1_555
H6 C12 1_555 1_555
H7 C12 1_555 1_555
C13 C12 1_555 1_555
H8 C13 1_555 1_555
H9 C13 1_555 1_555
C14 C13 1_555 1_555
H10 C14 1_555 1_555
H11 C14 1_555 1_555
C15 C14 1_555 1_555
H12 C15 1_555 1_555
H13 C15 1_555 1_555
C16 C15 1_555 1_555
H14 C16 1_555 1_555
H15 C16 1_555 1_555
C17 C16 1_555 1_555
H16 C17 1_555 1_555
H17 C17 1_555 1_555
C18 C17 1_555 1_555
H18 C18 1_555 1_555
H19 C18 1_555 1_555
C19 C18 1_555 1_555
H20 C19 1_555 1_555
H21 C19 1_555 1_555
H22 C19 1_555 1_555
Cl1 C20 1_555 1_555
C20 H23 1_555 1_555
Cl2 C20 1_555 1_555
Cl3 C20 1_555 1_555
Br1A C8A 1_555 1_555
O1A C11A 1_555 1_555
N1A C1 1_555 1_555
N2A C10A 1_555 1_555
C1A N1 1_555 1_555
H1A C1A 1_555 1_555
C2A N1A 1_555 1_555
C3A C2A 1_555 1_555
H2A C3A 1_555 1_555
C4A C3A 1_555 1_555
C5A C4A 1_555 1_555
C6A C5A 1_555 1_555
H3A C6A 1_555 1_555
C7A C6A 1_555 1_555
H4A C7A 1_555 1_555
C8A C7A 1_555 1_555
C9A C8A 1_555 1_555
H5A C9A 1_555 1_555
C10A C5A 1_555 1_555
C11A N2A 1_555 1_555
C12A N2A 1_555 1_555
H6A C12A 1_555 1_555
H7A C12A 1_555 1_555
C13A C12A 1_555 1_555
H8A C13A 1_555 1_555
H9A C13A 1_555 1_555
C14A C13A 1_555 1_555
H10A C14A 1_555 1_555
H11A C14A 1_555 1_555
C15A C14A 1_555 1_555
H12A C15A 1_555 1_555
H13A C15A 1_555 1_555
C16A C15A 1_555 1_555
H14A C16A 1_555 1_555
H15A C16A 1_555 1_555
C17A C16A 1_555 1_555
H16A C17A 1_555 1_555
H17A C17A 1_555 1_555
C18A C17A 1_555 1_555
H18A C18A 1_555 1_555
H19A C18A 1_555 1_555
C19A C18A 1_555 1_555
H20A C19A 1_555 1_555
H21A C19A 1_555 1_555
H22A C19A 1_555 1_555
C4 C11 1_555 1_555
C9 C10 1_555 1_555
C1A C2A 1_555 1_555
C4A C11A 1_555 1_555
C9A C10A 1_555 1_555

#END
