
#######################################################################
#
#                 Cambridge Crystallographic Data Centre
#                                CCDC 
#
#######################################################################
#
# If this CIF has been generated from an entry in the Cambridge 
# Structural Database, then it will include bibliographic, chemical, 
# crystal, experimental, refinement or atomic coordinate data resulting 
# from the CCDC's data processing and validation procedures.
#
#######################################################################

data_HAWPON
_chemical_formula_moiety         'C31 H34 O2'
_chemical_name_systematic        
1-[(3,5-di-t-butyl-4-hydroxyphenyl)(phenyl)methyl]naphthalen-2-ol
_symmetry_cell_setting           orthorhombic
_symmetry_space_group_name_H-M   'P 21 21 21'
_symmetry_Int_Tables_number      19
_space_group_name_Hall           'P 2ac 2ab'
loop_
_symmetry_equiv_pos_site_id
_symmetry_equiv_pos_as_xyz
1 x,y,z
2 1/2-x,-y,1/2+z
3 -x,1/2+y,1/2-z
4 1/2+x,1/2-y,-z
_cell_length_a                   9.6403(5)
_cell_length_b                   16.1153(8)
_cell_length_c                   16.1214(8)
_cell_angle_alpha                90
_cell_angle_beta                 90
_cell_angle_gamma                90
_cell_volume                     2504.56
_exptl_crystal_colour            colorless
_exptl_crystal_description       block
_cell_formula_units_Z            4
loop_
_atom_site_label
_atom_site_type_symbol
_atom_site_fract_x
_atom_site_fract_y
_atom_site_fract_z
C1 C 0.8306(2) 0.41745(12) 0.09374(11)
C2 C 0.9431(2) 0.47269(15) 0.08757(13)
H1 H 0.9271 0.5294 0.0921
C3 C 1.0755(2) 0.44496(17) 0.07502(15)
H2 H 1.1476 0.4830 0.0706
C4 C 1.1037(3) 0.3607(2) 0.06874(16)
H3 H 1.1941 0.3424 0.0604
C5 C 0.9985(3) 0.30570(18) 0.07477(14)
H4 H 1.0179 0.2493 0.0705
C6 C 0.8605(3) 0.33113(14) 0.08739(12)
C7 C 0.7515(3) 0.27433(15) 0.09372(14)
H5 H 0.7704 0.2180 0.0887
C8 C 0.6193(3) 0.29905(14) 0.10702(15)
H6 H 0.5486 0.2600 0.1113
C9 C 0.5887(2) 0.38473(14) 0.11445(13)
C10 C 0.6896(2) 0.44415(12) 0.10658(12)
C11 C 0.6777(2) 0.56904(12) 0.20204(12)
C12 C 0.6413(2) 0.52332(14) 0.27086(14)
H7 H 0.6067 0.4699 0.2642
C13 C 0.6555(3) 0.55608(18) 0.35011(15)
H8 H 0.6298 0.5246 0.3959
C14 C 0.7072(3) 0.63445(18) 0.36120(15)
H9 H 0.7166 0.6565 0.4142
C15 C 0.7447(3) 0.67970(16) 0.29326(16)
H10 H 0.7802 0.7329 0.3002
C16 C 0.7307(3) 0.64764(14) 0.21451(13)
H11 H 0.7573 0.6794 0.1691
C17 C 0.5246(2) 0.56541(12) 0.07171(12)
C18 C 0.4935(2) 0.53755(13) -0.00742(12)
H12 H 0.5502 0.4975 -0.0314
C19 C 0.3809(2) 0.56716(12) -0.05235(12)
C20 C 0.3009(2) 0.62914(13) -0.01465(12)
C21 C 0.3270(2) 0.65890(12) 0.06537(12)
C22 C 0.4396(2) 0.62482(12) 0.10685(12)
H13 H 0.4585 0.6427 0.1605
C23 C 0.3492(2) 0.53416(13) -0.14021(13)
C24 C 0.2057(3) 0.4947(2) -0.14332(18)
H14 H 0.1897 0.4723 -0.1977
H15 H 0.1367 0.5359 -0.1313
H16 H 0.2003 0.4510 -0.1030
C25 C 0.3596(4) 0.60348(18) -0.20392(15)
H17 H 0.3382 0.5820 -0.2579
H18 H 0.4522 0.6255 -0.2039
H19 H 0.2952 0.6467 -0.1901
C26 C 0.4518(3) 0.46642(18) -0.16660(16)
H20 H 0.4285 0.4472 -0.2212
H21 H 0.4469 0.4209 -0.1283
H22 H 0.5442 0.4887 -0.1668
C27 C 0.2401(2) 0.72803(14) 0.10535(13)
C28 C 0.2533(4) 0.80768(16) 0.05468(17)
H23 H 0.3494 0.8228 0.0503
H24 H 0.2031 0.8515 0.0816
H25 H 0.2158 0.7988 0.0002
C29 C 0.2902(3) 0.74861(17) 0.19275(15)
H26 H 0.3857 0.7654 0.1907
H27 H 0.2813 0.7004 0.2274
H28 H 0.2351 0.7929 0.2151
C30 C 0.0880(3) 0.7019(2) 0.1135(2)
H29 H 0.0503 0.6912 0.0594
H30 H 0.0363 0.7455 0.1397
H31 H 0.0821 0.6524 0.1465
C31 C 0.6601(2) 0.53699(11) 0.11374(12)
H32 H 0.7342 0.5638 0.0820
O1 O 0.18973(18) 0.66268(11) -0.05724(10)
H33 H 0.1589 0.6282 -0.0897
O2 O 0.45258(17) 0.40158(11) 0.13137(11)
H34 H 0.4384 0.4515 0.1260
loop_
_geom_bond_atom_site_label_1
_geom_bond_atom_site_label_2
_geom_bond_site_symmetry_1
_geom_bond_site_symmetry_2
C1 C2 1_555 1_555
C2 H1 1_555 1_555
C3 C2 1_555 1_555
H2 C3 1_555 1_555
C4 C3 1_555 1_555
H3 C4 1_555 1_555
C5 C4 1_555 1_555
H4 C5 1_555 1_555
C6 C1 1_555 1_555
C7 C6 1_555 1_555
H5 C7 1_555 1_555
C8 C7 1_555 1_555
H6 C8 1_555 1_555
C9 C8 1_555 1_555
C10 C1 1_555 1_555
C11 C12 1_555 1_555
C12 H7 1_555 1_555
C13 C12 1_555 1_555
H8 C13 1_555 1_555
C14 C13 1_555 1_555
H9 C14 1_555 1_555
C15 C14 1_555 1_555
H10 C15 1_555 1_555
C16 C11 1_555 1_555
H11 C16 1_555 1_555
C17 C18 1_555 1_555
C18 H12 1_555 1_555
C19 C18 1_555 1_555
C20 C19 1_555 1_555
C21 C20 1_555 1_555
C22 C17 1_555 1_555
H13 C22 1_555 1_555
C23 C19 1_555 1_555
C24 C23 1_555 1_555
H14 C24 1_555 1_555
H15 C24 1_555 1_555
H16 C24 1_555 1_555
C25 C23 1_555 1_555
H17 C25 1_555 1_555
H18 C25 1_555 1_555
H19 C25 1_555 1_555
C26 C23 1_555 1_555
H20 C26 1_555 1_555
H21 C26 1_555 1_555
H22 C26 1_555 1_555
C27 C21 1_555 1_555
C28 C27 1_555 1_555
H23 C28 1_555 1_555
H24 C28 1_555 1_555
H25 C28 1_555 1_555
C29 C27 1_555 1_555
H26 C29 1_555 1_555
H27 C29 1_555 1_555
H28 C29 1_555 1_555
C30 C27 1_555 1_555
H29 C30 1_555 1_555
H30 C30 1_555 1_555
H31 C30 1_555 1_555
C31 C10 1_555 1_555
H32 C31 1_555 1_555
O1 C20 1_555 1_555
H33 O1 1_555 1_555
O2 C9 1_555 1_555
H34 O2 1_555 1_555
C5 C6 1_555 1_555
C9 C10 1_555 1_555
C11 C31 1_555 1_555
C15 C16 1_555 1_555
C17 C31 1_555 1_555
C21 C22 1_555 1_555

#END
