
#######################################################################
#
#                 Cambridge Crystallographic Data Centre
#                                CCDC 
#
#######################################################################
#
# If this CIF has been generated from an entry in the Cambridge 
# Structural Database, then it will include bibliographic, chemical, 
# crystal, experimental, refinement or atomic coordinate data resulting 
# from the CCDC's data processing and validation procedures.
#
#######################################################################

data_HAXFOC
_chemical_formula_moiety         'C14 H14 I1 N1 O1'
_chemical_name_systematic        
trans-(1S,2S)-2-(5-Iodo-1H-indol-3-yl)cyclopentanecarboxaldehyde
_symmetry_cell_setting           monoclinic
_symmetry_space_group_name_H-M   'P 21'
_symmetry_Int_Tables_number      4
_space_group_name_Hall           'P 2yb'
loop_
_symmetry_equiv_pos_site_id
_symmetry_equiv_pos_as_xyz
1 x,y,z
2 -x,1/2+y,-z
_cell_length_a                   7.1606(1)
_cell_length_b                   8.5952(1)
_cell_length_c                   11.1713(1)
_cell_angle_alpha                90
_cell_angle_beta                 103.787(1)
_cell_angle_gamma                90
_cell_volume                     667.748
_exptl_crystal_colour            colorless
_exptl_crystal_description       block
_cell_formula_units_Z            2
loop_
_atom_site_label
_atom_site_type_symbol
_atom_site_fract_x
_atom_site_fract_y
_atom_site_fract_z
I1 I -0.51521(9) 0.44758(14) 0.08157(5)
O1 O 0.4639(16) 0.4263(16) 0.7041(12)
N1 N 0.2656(12) 0.1575(12) 0.3429(9)
H1 H 0.3588 0.1152 0.3183
C1 C -0.1924(12) 0.3393(10) 0.2919(8)
H2 H -0.2690 0.3810 0.3404
C2 C -0.2522(16) 0.3421(11) 0.1635(10)
C3 C -0.1405(18) 0.2779(14) 0.0905(11)
H3 H -0.1854 0.2798 0.0052
C4 C 0.0345(18) 0.2116(12) 0.1411(12)
H4 H 0.1076 0.1684 0.0910
C5 C 0.1010(19) 0.2100(13) 0.2693(13)
C6 C -0.0139(14) 0.2722(10) 0.3457(9)
C7 C 0.0949(15) 0.2531(10) 0.4705(9)
C8 C 0.2610(14) 0.1820(12) 0.4614(10)
H5 H 0.3591 0.1539 0.5286
C9 C 0.0268(14) 0.2975(10) 0.5835(8)
H6 H -0.0150 0.4063 0.5741
C10 C 0.1773(15) 0.2835(11) 0.7054(9)
H7 H 0.2518 0.1879 0.7053
C11 C 0.0589(19) 0.2707(15) 0.8038(12)
H8 H 0.1278 0.2104 0.8739
H9 H 0.0325 0.3732 0.8324
C12 C -0.124(2) 0.1912(19) 0.7415(15)
H10 H -0.2320 0.2419 0.7633
H11 H -0.1205 0.0835 0.7680
C13 C -0.1461(15) 0.1987(15) 0.6019(11)
H12 H -0.2670 0.2476 0.5619
H13 H -0.1425 0.0951 0.5680
C14 C 0.3093(14) 0.4197(13) 0.7247(9)
H14 H 0.2659 0.5092 0.7563
loop_
_geom_bond_atom_site_label_1
_geom_bond_atom_site_label_2
_geom_bond_site_symmetry_1
_geom_bond_site_symmetry_2
I1 C2 1_555 1_555
O1 C14 1_555 1_555
N1 H1 1_555 1_555
C1 H2 1_555 1_555
C2 C1 1_555 1_555
C3 C2 1_555 1_555
H3 C3 1_555 1_555
C4 C3 1_555 1_555
H4 C4 1_555 1_555
C5 N1 1_555 1_555
C6 C1 1_555 1_555
C7 C6 1_555 1_555
C8 N1 1_555 1_555
H5 C8 1_555 1_555
C9 C7 1_555 1_555
H6 C9 1_555 1_555
C10 C9 1_555 1_555
H7 C10 1_555 1_555
C11 C10 1_555 1_555
H8 C11 1_555 1_555
H9 C11 1_555 1_555
C12 C11 1_555 1_555
H10 C12 1_555 1_555
H11 C12 1_555 1_555
C13 C9 1_555 1_555
H12 C13 1_555 1_555
H13 C13 1_555 1_555
C14 C10 1_555 1_555
H14 C14 1_555 1_555
C4 C5 1_555 1_555
C5 C6 1_555 1_555
C7 C8 1_555 1_555
C12 C13 1_555 1_555

#END
