
#######################################################################
#
#                 Cambridge Crystallographic Data Centre
#                                CCDC 
#
#######################################################################
#
# If this CIF has been generated from an entry in the Cambridge 
# Structural Database, then it will include bibliographic, chemical, 
# crystal, experimental, refinement or atomic coordinate data resulting 
# from the CCDC's data processing and validation procedures.
#
#######################################################################

data_HAYDIX
_chemical_name_common            
2-((4-methylphenyl)sulfonyl)-1,2,3,4,4a,5,7,7a,8,9,10,11a-dodecahydro-6H-cyclopenta[6,7]cycloocta[1,2-c]pyridin-6-one
_chemical_formula_moiety         'C21 H27 N1 O3 S1'
_chemical_name_systematic        
'(3S*, 8R*,12S*)-N-tosyl-5-azatricyclo[10.3.0.0^3,8^]pentadec-1-ene-10-one'
_symmetry_cell_setting           monoclinic
_symmetry_space_group_name_H-M   'P 21/n'
_symmetry_Int_Tables_number      14
_space_group_name_Hall           '-P 2yn'
loop_
_symmetry_equiv_pos_site_id
_symmetry_equiv_pos_as_xyz
1 x,y,z
2 1/2-x,1/2+y,1/2-z
3 -x,-y,-z
4 1/2+x,1/2-y,1/2+z
_cell_length_a                   15.400(3)
_cell_length_b                   8.0349(16)
_cell_length_c                   15.860(3)
_cell_angle_alpha                90
_cell_angle_beta                 98.04(3)
_cell_angle_gamma                90
_cell_volume                     1943.19
_exptl_crystal_colour            colorless
_exptl_crystal_description       block
_chemical_melting_point          '459 K'
_cell_formula_units_Z            4
_exptl_crystal_recrystallization_method 'petroleum ether/ethyl acetate'
loop_
_atom_site_label
_atom_site_type_symbol
_atom_site_fract_x
_atom_site_fract_y
_atom_site_fract_z
S1 S 0.81176(5) 0.02244(8) 0.56078(4)
O1 O 0.70115(12) -0.4745(3) 0.26047(13)
O2 O 0.72250(14) 0.0687(3) 0.56234(14)
O3 O 0.86953(15) 0.1341(2) 0.52549(13)
N1 N 0.81066(13) -0.1513(3) 0.50633(13)
C1 C 0.77475(17) -0.5323(3) 0.27505(17)
C2 C 0.80776(18) -0.6086(3) 0.36081(17)
H1 H 0.8621 -0.6673 0.3570
H2 H 0.7652 -0.6893 0.3749
C3 C 0.82379(16) -0.4781(3) 0.43288(16)
H3 H 0.8583 -0.5320 0.4820
C4 C 0.87741(14) -0.3288(3) 0.40760(14)
H4 H 0.8418 -0.2703 0.3607
C5 C 0.96209(14) -0.3784(3) 0.37772(16)
H5 H 1.0107 -0.3913 0.4191
C6 C 0.97356(15) -0.4054(3) 0.29767(17)
C7 C 0.90356(15) -0.3856(3) 0.22007(16)
H6 H 0.8730 -0.2797 0.2248
C8 C 0.83516(17) -0.5269(3) 0.20836(17)
H7 H 0.8001 -0.5147 0.1530
H8 H 0.8658 -0.6324 0.2087
C9 C 0.73891(18) -0.4146(3) 0.46171(18)
H9 H 0.7025 -0.3638 0.4137
H10 H 0.7068 -0.5079 0.4810
C10 C 0.75723(18) -0.2880(4) 0.53331(17)
H11 H 0.7023 -0.2443 0.5475
H12 H 0.7882 -0.3412 0.5837
C11 C 0.89517(15) -0.2080(3) 0.48290(15)
H13 H 0.9291 -0.2633 0.5310
H14 H 0.9286 -0.1133 0.4673
C12 C 1.05875(17) -0.4491(4) 0.2668(2)
H15 H 1.0652 -0.5688 0.2627
H16 H 1.1082 -0.4051 0.3050
C13 C 1.0525(2) -0.3683(4) 0.1794(2)
H17 H 1.0730 -0.2541 0.1842
H18 H 1.0872 -0.4292 0.1432
C14 C 0.9559(2) -0.3751(5) 0.1439(2)
H19 H 0.9439 -0.4718 0.1075
H20 H 0.9392 -0.2762 0.1104
C15 C 0.85790(17) -0.0261(3) 0.66576(16)
C16 C 0.80370(18) -0.0684(4) 0.72547(18)
H21 H 0.7431 -0.0650 0.7108
C17 C 0.8397(2) -0.1151(4) 0.80627(18)
H22 H 0.8030 -0.1439 0.8458
C18 C 0.92953(18) -0.1198(3) 0.82943(17)
C19 C 0.98284(17) -0.0759(3) 0.76958(18)
H23 H 1.0434 -0.0776 0.7847
C20 C 0.94809(18) -0.0299(3) 0.68816(17)
H24 H 0.9848 -0.0017 0.6486
C21 C 0.9668(2) -0.1731(4) 0.91826(19)
H25 H 1.0297 -0.1683 0.9246
H26 H 0.9486 -0.2849 0.9279
H27 H 0.9459 -0.0999 0.9589
loop_
_geom_bond_atom_site_label_1
_geom_bond_atom_site_label_2
_geom_bond_site_symmetry_1
_geom_bond_site_symmetry_2
S1 O2 1_555 1_555
O1 C1 1_555 1_555
O3 S1 1_555 1_555
N1 S1 1_555 1_555
C1 C2 1_555 1_555
C2 H1 1_555 1_555
H2 C2 1_555 1_555
C3 C2 1_555 1_555
H3 C3 1_555 1_555
C4 C3 1_555 1_555
H4 C4 1_555 1_555
C5 C4 1_555 1_555
H5 C5 1_555 1_555
C6 C5 1_555 1_555
C7 C6 1_555 1_555
H6 C7 1_555 1_555
C8 C1 1_555 1_555
H7 C8 1_555 1_555
H8 C8 1_555 1_555
C9 C3 1_555 1_555
H9 C9 1_555 1_555
H10 C9 1_555 1_555
C10 N1 1_555 1_555
H11 C10 1_555 1_555
H12 C10 1_555 1_555
C11 N1 1_555 1_555
H13 C11 1_555 1_555
H14 C11 1_555 1_555
C12 C6 1_555 1_555
H15 C12 1_555 1_555
H16 C12 1_555 1_555
C13 C12 1_555 1_555
H17 C13 1_555 1_555
H18 C13 1_555 1_555
C14 C7 1_555 1_555
H19 C14 1_555 1_555
H20 C14 1_555 1_555
C15 S1 1_555 1_555
C16 C15 1_555 1_555
H21 C16 1_555 1_555
C17 C16 1_555 1_555
H22 C17 1_555 1_555
C18 C17 1_555 1_555
C19 C18 1_555 1_555
H23 C19 1_555 1_555
C20 C15 1_555 1_555
H24 C20 1_555 1_555
C21 C18 1_555 1_555
H25 C21 1_555 1_555
H26 C21 1_555 1_555
H27 C21 1_555 1_555
C4 C11 1_555 1_555
C7 C8 1_555 1_555
C9 C10 1_555 1_555
C13 C14 1_555 1_555
C19 C20 1_555 1_555

#END
