
#######################################################################
#
#                 Cambridge Crystallographic Data Centre
#                                CCDC 
#
#######################################################################
#
# If this CIF has been generated from an entry in the Cambridge 
# Structural Database, then it will include bibliographic, chemical, 
# crystal, experimental, refinement or atomic coordinate data resulting 
# from the CCDC's data processing and validation procedures.
#
#######################################################################

data_HAYFUL
_chemical_name_common            
'(S)-(-)-1-(2-hydroxy-3-(1-naphthyloxy)propyl)-4-(2-methoxyphenyl)piperazinediium dichloride'
_chemical_formula_moiety         'C24 H30 N2 O3 2+,2(Cl1 1-)'
_chemical_name_systematic        
'(S)-(-)-4-(2-Methoxyphenyl)-\a-((1-naphthalenyloxy)methyl)-1-piperazineethanol dihydrochloride'
_chemical_properties_biological  
'naftopidil (NAF), is a specific alpha(1D)-adrenoceptor (AR) antagonist for the treatment of benign prostatic hyperplasia'
_symmetry_cell_setting           monoclinic
_symmetry_space_group_name_H-M   'P 21'
_symmetry_Int_Tables_number      4
_space_group_name_Hall           'P 2yb'
loop_
_symmetry_equiv_pos_site_id
_symmetry_equiv_pos_as_xyz
1 x,y,z
2 -x,1/2+y,-z
_cell_length_a                   11.776(2)
_cell_length_b                   5.7561(12)
_cell_length_c                   17.462(4)
_cell_angle_alpha                90
_cell_angle_beta                 95.02(3)
_cell_angle_gamma                90
_cell_volume                     1179.1
_exptl_crystal_colour            colorless
_cell_formula_units_Z            2
_exptl_crystal_recrystallization_method dichloromethane/n-hexane
loop_
_atom_site_label
_atom_site_type_symbol
_atom_site_fract_x
_atom_site_fract_y
_atom_site_fract_z
C1 C -0.1477(6) 0.402(2) 0.0735(5)
H1 H -0.0950 0.5095 0.0527
H2 H -0.1318 0.2476 0.0548
C2 C -0.2954(8) 0.450(2) -0.0384(5)
H3 H -0.2358 0.5245 -0.0646
H4 H -0.3659 0.5339 -0.0520
C3 C -0.1305(9) 0.404(2) 0.1590(5)
H5 H -0.0528 0.3594 0.1753
H6 H -0.1813 0.2925 0.1797
C4 C -0.2718(7) 0.716(2) 0.1603(5)
H7 H -0.3273 0.6148 0.1810
H8 H -0.2849 0.8729 0.1782
C5 C -0.3091(8) 0.201(2) -0.0661(6)
H9 H -0.3584 0.1229 -0.0317
C6 C -0.1293(9) 0.670(2) 0.2742(5)
C7 C -0.2882(8) 0.711(2) 0.0742(5)
H10 H -0.2359 0.8192 0.0529
H11 H -0.3654 0.7580 0.0569
C8 C -0.3581(9) 0.381(2) -0.2675(6)
C9 C -0.3717(9) 0.193(2) -0.1470(5)
H12 H -0.3709 0.0364 -0.1677
H13 H -0.4502 0.2421 -0.1456
C10 C -0.3495(10) 0.602(2) -0.3865(6)
C11 C -0.3067(9) 0.561(2) -0.3069(6)
C12 C -0.1874(11) 0.534(2) 0.3239(7)
C13 C -0.4448(10) 0.239(3) -0.3017(6)
H14 H -0.4768 0.1205 -0.2746
C14 C -0.3000(13) 0.789(3) -0.4238(8)
H15 H -0.3244 0.8190 -0.4749
C15 C -0.0505(10) 0.833(2) 0.3028(7)
H16 H -0.0127 0.9226 0.2688
C16 C -0.2213(9) 0.701(3) -0.2699(7)
H17 H -0.1924 0.6709 -0.2196
C17 C -0.0271(12) 0.865(3) 0.3802(7)
H18 H 0.0262 0.9750 0.3990
C18 C -0.4382(12) 0.461(3) -0.4204(7)
H19 H -0.4669 0.4876 -0.4710
C19 C -0.2183(11) 0.926(3) -0.3883(8)
H20 H -0.1874 1.0462 -0.4153
C20 C -0.1806(10) 0.888(3) -0.3121(8)
H21 H -0.1270 0.9890 -0.2879
C21 C -0.4817(12) 0.287(3) -0.3799(7)
H22 H -0.5383 0.1933 -0.4044
C22 C -0.3250(12) 0.233(3) 0.3418(8)
H23 H -0.3705 0.1237 0.3110
H24 H -0.3736 0.3260 0.3709
H25 H -0.2712 0.1508 0.3763
C23 C -0.1622(12) 0.563(3) 0.4031(8)
H26 H -0.1978 0.4696 0.4374
C24 C -0.0849(13) 0.729(3) 0.4305(7)
H27 H -0.0709 0.7508 0.4832
N1 N -0.1534(6) 0.6400(17) 0.1896(4)
H28 H -0.1049 0.7381 0.1679
N2 N -0.2662(6) 0.4680(16) 0.0470(4)
H29 H -0.3137 0.3706 0.0700
O1 O -0.3120(6) 0.3472(15) -0.1927(4)
O2 O -0.2039(6) 0.0754(15) -0.0610(4)
H30 H -0.2117 -0.0440 -0.0865
O3 O -0.2651(8) 0.3801(18) 0.2929(5)
Cl1 Cl -0.4427(2) 0.2035(6) 0.12559(17)
Cl2 Cl 0.0168(2) 0.9191(6) 0.11353(16)
loop_
_geom_bond_atom_site_label_1
_geom_bond_atom_site_label_2
_geom_bond_site_symmetry_1
_geom_bond_site_symmetry_2
C1 H1 1_555 1_555
H2 C1 1_555 1_555
C2 H3 1_555 1_555
H4 C2 1_555 1_555
C3 C1 1_555 1_555
H5 C3 1_555 1_555
H6 C3 1_555 1_555
C4 H7 1_555 1_555
H8 C4 1_555 1_555
C5 C2 1_555 1_555
H9 C5 1_555 1_555
C6 C12 1_555 1_555
C7 C4 1_555 1_555
H10 C7 1_555 1_555
H11 C7 1_555 1_555
C8 C11 1_555 1_555
C9 C5 1_555 1_555
H12 C9 1_555 1_555
H13 C9 1_555 1_555
C10 C11 1_555 1_555
C11 C16 1_555 1_555
C12 C23 1_555 1_555
C13 C8 1_555 1_555
H14 C13 1_555 1_555
C14 C10 1_555 1_555
H15 C14 1_555 1_555
C15 C6 1_555 1_555
H16 C15 1_555 1_555
C16 H17 1_555 1_555
C17 C15 1_555 1_555
H18 C17 1_555 1_555
C18 C10 1_555 1_555
H19 C18 1_555 1_555
C19 C14 1_555 1_555
H20 C19 1_555 1_555
C20 C16 1_555 1_555
H21 C20 1_555 1_555
C21 C13 1_555 1_555
H22 C21 1_555 1_555
C22 H23 1_555 1_555
H24 C22 1_555 1_555
H25 C22 1_555 1_555
C23 H26 1_555 1_555
C24 C17 1_555 1_555
H27 C24 1_555 1_555
N1 C3 1_555 1_555
H28 N1 1_555 1_555
N2 C1 1_555 1_555
H29 N2 1_555 1_555
O1 C8 1_555 1_555
O2 C5 1_555 1_555
H30 O2 1_555 1_555
O3 C12 1_555 1_555
C2 N2 1_555 1_555
C4 N1 1_555 1_555
C6 N1 1_555 1_555
C7 N2 1_555 1_555
C9 O1 1_555 1_555
C18 C21 1_555 1_555
C19 C20 1_555 1_555
C22 O3 1_555 1_555
C23 C24 1_555 1_555

#END
