
#######################################################################
#
#                 Cambridge Crystallographic Data Centre
#                                CCDC 
#
#######################################################################
#
# If this CIF has been generated from an entry in the Cambridge 
# Structural Database, then it will include bibliographic, chemical, 
# crystal, experimental, refinement or atomic coordinate data resulting 
# from the CCDC's data processing and validation procedures.
#
#######################################################################

data_HAYVEJ
_chemical_formula_moiety         'C18 H16 N2 O1'
_chemical_name_systematic        3-(4-t-Butylphenoxy)phthalonitrile
_symmetry_cell_setting           monoclinic
_symmetry_space_group_name_H-M   'P 21/m'
_symmetry_Int_Tables_number      11
_space_group_name_Hall           '-P 2yb'
loop_
_symmetry_equiv_pos_site_id
_symmetry_equiv_pos_as_xyz
1 x,y,z
2 -x,1/2+y,-z
3 -x,-y,-z
4 x,1/2-y,z
_cell_length_a                   8.7541(10)
_cell_length_b                   6.8132(5)
_cell_length_c                   13.5203(19)
_cell_angle_alpha                90
_cell_angle_beta                 100.280(13)
_cell_angle_gamma                90
_cell_volume                     793.452
_exptl_crystal_colour            colorless
_exptl_crystal_description       prism
_chemical_melting_point          '393-394 K'
_cell_formula_units_Z            2
_exptl_crystal_recrystallization_method toluene
loop_
_atom_site_label
_atom_site_type_symbol
_atom_site_fract_x
_atom_site_fract_y
_atom_site_fract_z
O1 O 0.49659(16) 0.7500 0.74122(10)
N1 N 0.8091(2) 0.7500 0.93367(17)
N2 N 0.6044(3) 0.7500 1.17810(15)
C1 C 0.6772(3) 0.7500 0.92400(16)
C2 C 0.5358(3) 0.7500 1.09817(17)
C3 C 0.5126(2) 0.7500 0.91419(15)
C4 C 0.4433(2) 0.7500 0.99955(15)
C5 C 0.2838(3) 0.7500 0.98960(17)
H1 H 0.2374 0.7500 1.0463
C6 C 0.1934(3) 0.7500 0.89478(16)
H2 H 0.0858 0.7500 0.8881
C7 C 0.2599(2) 0.7500 0.81046(16)
H3 H 0.1977 0.7500 0.7470
C8 C 0.4200(2) 0.7500 0.81993(16)
C9 C 0.4086(2) 0.7500 0.64393(15)
C10 C 0.3686(2) 0.5798(3) 0.59695(12)
H4 H 0.3972 0.4614 0.6293
C11 C 0.2842(2) 0.5811(3) 0.49950(12)
H5 H 0.2577 0.4617 0.4677
C12 C 0.2387(2) 0.7500 0.44853(16)
C13 C 0.1386(3) 0.7500 0.34446(17)
C14 C 0.1654(5) 0.5741(6) 0.2820(2)
H6 H 0.1101 0.5911 0.2146
H7 H 0.1289 0.4580 0.3106
H8 H 0.2744 0.5613 0.2812
C15 C -0.0267(4) 0.7500 0.3544(4)
H9 H -0.0454 0.8612 0.3942
H10 H -0.0931 0.7500 0.2897
C10C C 0.3686(2) 0.9202(3) 0.59695(12)
H4C H 0.3972 1.0386 0.6293
C11C C 0.2842(2) 0.9189(3) 0.49950(12)
H5C H 0.2577 1.0383 0.4677
C14C C 0.1654(5) 0.9259(6) 0.2820(2)
H6C H 0.1101 0.9089 0.2146
H7C H 0.1289 1.0420 0.3106
H8C H 0.2744 0.9387 0.2812
H9C H -0.0454 0.6388 0.3942
C16? C 0.0334(9) 0.5794(14) 0.3348(6)
H11? H -0.0472 0.5964 0.2773
H12? H -0.0120 0.5683 0.3942
H13? H 0.0910 0.4623 0.3268
C17? C 0.2441(9) 0.7500 0.2731(5)
H14? H 0.1831 0.7500 0.2067
H15? H 0.3084 0.8651 0.2821
loop_
_geom_bond_atom_site_label_1
_geom_bond_atom_site_label_2
_geom_bond_site_symmetry_1
_geom_bond_site_symmetry_2
O1 C8 1_555 1_555
N1 C1 1_555 1_555
N2 C2 1_555 1_555
C1 C3 1_555 1_555
C2 C4 1_555 1_555
C3 C4 1_555 1_555
C4 C5 1_555 1_555
C5 H1 1_555 1_555
C6 C5 1_555 1_555
H2 C6 1_555 1_555
C7 C6 1_555 1_555
H3 C7 1_555 1_555
C8 C3 1_555 1_555
C9 O1 1_555 1_555
C10 C9 1_555 1_555
H4 C10 1_555 1_555
C11 C10 1_555 1_555
H5 C11 1_555 1_555
C12 C11 1_555 1_555
C13 C12 1_555 1_555
C14 C13 1_555 1_555
H6 C14 1_555 1_555
H7 C14 1_555 1_555
H8 C14 1_555 1_555
C15 C13 1_555 1_555
H9 C15 1_555 1_555
H10 C15 1_555 1_555
C10C C9 1_555 1_555
H4C C10C 1_555 1_555
C11C C12 1_555 1_555
H5C C11C 1_555 1_555
C14C C13 1_555 1_555
H6C C14C 1_555 1_555
H7C C14C 1_555 1_555
H8C C14C 1_555 1_555
H9C C15 1_555 1_555
C7 C8 1_555 1_555
C10C C11C 1_555 1_555

#END
