
#######################################################################
#
#                 Cambridge Crystallographic Data Centre
#                                CCDC 
#
#######################################################################
#
# If this CIF has been generated from an entry in the Cambridge 
# Structural Database, then it will include bibliographic, chemical, 
# crystal, experimental, refinement or atomic coordinate data resulting 
# from the CCDC's data processing and validation procedures.
#
#######################################################################

data_HAYWOU
_chemical_formula_moiety         'C18 H14 N2'
_chemical_name_systematic        9-(2-Pyridylmethyl)carbazole
_symmetry_cell_setting           triclinic
_symmetry_space_group_name_H-M   'P -1'
_symmetry_Int_Tables_number      2
_space_group_name_Hall           '-P 1'
loop_
_symmetry_equiv_pos_site_id
_symmetry_equiv_pos_as_xyz
1 x,y,z
2 -x,-y,-z
_cell_length_a                   9.8420(16)
_cell_length_b                   12.501(2)
_cell_length_c                   17.696(3)
_cell_angle_alpha                80.269(3)
_cell_angle_beta                 81.207(3)
_cell_angle_gamma                76.412(3)
_cell_volume                     2071.24
_exptl_crystal_colour            colorless
_exptl_crystal_description       block
_chemical_melting_point          '392.0-393.3 K'
_cell_formula_units_Z            6
_exptl_crystal_recrystallization_method chloroform
loop_
_atom_site_label
_atom_site_type_symbol
_atom_site_fract_x
_atom_site_fract_y
_atom_site_fract_z
N1 N 1.02427(18) 0.19600(16) 0.95996(11)
N2 N 1.34245(19) 0.27838(15) 0.99386(10)
C1 C 0.9452(2) 0.14273(17) 1.01929(12)
C2 C 0.9864(3) 0.0763(2) 1.08644(14)
H1 H 1.0787 0.0627 1.0978
C3 C 0.8855(3) 0.0314(2) 1.13569(14)
H2 H 0.9109 -0.0142 1.1808
C4 C 0.7476(3) 0.0520(2) 1.12024(14)
H3 H 0.6819 0.0210 1.1552
C5 C 0.7065(2) 0.11803(17) 1.05345(13)
H4 H 0.6138 0.1314 1.0429
C6 C 0.8055(2) 0.16416(16) 1.00222(11)
C7 C 0.8010(2) 0.23387(16) 0.92870(11)
C8 C 0.6954(2) 0.28168(17) 0.88186(12)
H5 H 0.6043 0.2708 0.8971
C9 C 0.7265(3) 0.3453(2) 0.81276(13)
H6 H 0.6564 0.3772 0.7810
C10 C 0.8616(3) 0.3620(2) 0.79043(14)
H7 H 0.8803 0.4058 0.7437
C11 C 0.9686(3) 0.3162(2) 0.83484(14)
H8 H 1.0592 0.3277 0.8189
C12 C 0.9373(2) 0.25181(18) 0.90464(12)
C13 C 1.1733(2) 0.1935(2) 0.95712(14)
H9 H 1.2131 0.2043 0.9035
H10 H 1.2195 0.1203 0.9799
C14 C 1.2059(2) 0.27943(18) 0.99812(12)
C15 C 1.1043(3) 0.3515(2) 1.03761(14)
H11 H 1.0097 0.3501 1.0396
C16 C 1.1435(4) 0.4258(2) 1.07420(17)
H12 H 1.0760 0.4751 1.1016
C17 C 1.2830(4) 0.4265(2) 1.06986(16)
H13 H 1.3128 0.4761 1.0939
C18 C 1.3773(3) 0.3523(2) 1.02925(14)
H14 H 1.4722 0.3533 1.0260
N3 N 0.15877(19) 0.49046(16) 0.66581(10)
N4 N 0.08656(19) 0.64208(14) 0.47500(10)
C19 C 0.1823(2) 0.5425(2) 0.72423(13)
C20 C 0.1286(3) 0.6508(2) 0.73881(19)
H15 H 0.0690 0.7012 0.7070
C21 C 0.1680(4) 0.6809(3) 0.8034(2)
H16 H 0.1344 0.7529 0.8152
C22 C 0.2563(4) 0.6050(4) 0.8501(2)
H17 H 0.2796 0.6270 0.8933
C23 C 0.3101(3) 0.4998(3) 0.83534(14)
H18 H 0.3701 0.4504 0.8674
C24 C 0.2741(2) 0.4667(2) 0.77114(12)
C25 C 0.3104(2) 0.36477(18) 0.73840(11)
C26 C 0.3953(2) 0.2597(2) 0.75725(13)
H19 H 0.4449 0.2452 0.7999
C27 C 0.4049(3) 0.1784(2) 0.71257(16)
H20 H 0.4622 0.1088 0.7248
C28 C 0.3313(3) 0.1983(2) 0.65002(16)
H21 H 0.3395 0.1415 0.6207
C29 C 0.2459(2) 0.2995(2) 0.62961(13)
H22 H 0.1953 0.3118 0.5875
C30 C 0.2375(2) 0.38279(18) 0.67362(11)
C31 C 0.0789(2) 0.5425(2) 0.60225(12)
H23 H 0.0000 0.5983 0.6207
H24 H 0.0410 0.4868 0.5854
C32 C 0.1617(2) 0.59688(16) 0.53362(11)
C33 C 0.3003(2) 0.60065(19) 0.53101(14)
H25 H 0.3496 0.5689 0.5730
C34 C 0.3652(3) 0.6520(2) 0.46540(16)
H26 H 0.4594 0.6550 0.4622
C35 C 0.2905(3) 0.6984(2) 0.40513(15)
H27 H 0.3324 0.7334 0.3600
C36 C 0.1527(3) 0.69234(19) 0.41257(13)
H28 H 0.1015 0.7253 0.3715
N5 N 0.19810(17) 0.14161(14) 0.37409(9)
N6 N 0.1341(2) 0.02681(17) 0.57677(11)
C37 C 0.2695(2) 0.22739(17) 0.35920(12)
C38 C 0.2739(2) 0.30399(19) 0.40598(14)
H29 H 0.2247 0.3034 0.4552
C39 C 0.3550(3) 0.3820(2) 0.37631(19)
H30 H 0.3599 0.4351 0.4062
C40 C 0.4288(3) 0.3820(2) 0.30314(19)
H31 H 0.4836 0.4344 0.2851
C41 C 0.4223(3) 0.3065(2) 0.25709(15)
H32 H 0.4713 0.3081 0.2078
C42 C 0.3423(2) 0.22744(18) 0.28435(12)
C43 C 0.3141(2) 0.13639(18) 0.25352(11)
C44 C 0.3559(2) 0.0932(2) 0.18360(12)
H33 H 0.4125 0.1268 0.1442
C45 C 0.3117(3) 0.0002(2) 0.17401(15)
H34 H 0.3404 -0.0299 0.1281
C46 C 0.2254(3) -0.0493(2) 0.23167(15)
H35 H 0.1967 -0.1118 0.2236
C47 C 0.1814(2) -0.00806(19) 0.30024(13)
H36 H 0.1230 -0.0414 0.3387
C48 C 0.2267(2) 0.08497(17) 0.31056(11)
C49 C 0.1175(2) 0.11155(18) 0.44667(11)
H37 H 0.0430 0.0790 0.4364
H38 H 0.0731 0.1788 0.4690
C50 C 0.2002(2) 0.03139(16) 0.50548(12)
C51 C 0.3291(3) -0.0339(2) 0.48731(15)
H39 H 0.3728 -0.0287 0.4368
C52 C 0.3933(3) -0.1072(2) 0.5442(2)
H40 H 0.4813 -0.1522 0.5328
C53 C 0.3285(4) -0.1137(3) 0.6168(2)
H41 H 0.3704 -0.1631 0.6564
C54 C 0.2005(4) -0.0465(3) 0.63079(15)
H42 H 0.1558 -0.0515 0.6811
loop_
_geom_bond_atom_site_label_1
_geom_bond_atom_site_label_2
_geom_bond_site_symmetry_1
_geom_bond_site_symmetry_2
N1 C1 1_555 1_555
N2 C14 1_555 1_555
N3 C19 1_555 1_555
N4 C32 1_555 1_555
N5 C37 1_555 1_555
N6 C50 1_555 1_555
C1 C2 1_555 1_555
C2 H1 1_555 1_555
C3 C2 1_555 1_555
H2 C3 1_555 1_555
C4 C3 1_555 1_555
H3 C4 1_555 1_555
C5 C4 1_555 1_555
H4 C5 1_555 1_555
C6 C1 1_555 1_555
C7 C6 1_555 1_555
C8 C7 1_555 1_555
H5 C8 1_555 1_555
C9 C8 1_555 1_555
H6 C9 1_555 1_555
C10 C9 1_555 1_555
H7 C10 1_555 1_555
C11 C10 1_555 1_555
H8 C11 1_555 1_555
C12 N1 1_555 1_555
C13 N1 1_555 1_555
H9 C13 1_555 1_555
H10 C13 1_555 1_555
C14 C13 1_555 1_555
C15 C14 1_555 1_555
H11 C15 1_555 1_555
C16 C15 1_555 1_555
H12 C16 1_555 1_555
C17 C16 1_555 1_555
H13 C17 1_555 1_555
C18 N2 1_555 1_555
H14 C18 1_555 1_555
C19 C20 1_555 1_555
C20 H15 1_555 1_555
C21 C20 1_555 1_555
H16 C21 1_555 1_555
C22 C21 1_555 1_555
H17 C22 1_555 1_555
C23 C22 1_555 1_555
H18 C23 1_555 1_555
C24 C19 1_555 1_555
C25 C24 1_555 1_555
C26 C25 1_555 1_555
H19 C26 1_555 1_555
C27 C26 1_555 1_555
H20 C27 1_555 1_555
C28 C27 1_555 1_555
H21 C28 1_555 1_555
C29 C28 1_555 1_555
H22 C29 1_555 1_555
C30 N3 1_555 1_555
C31 N3 1_555 1_555
H23 C31 1_555 1_555
H24 C31 1_555 1_555
C32 C31 1_555 1_555
C33 C32 1_555 1_555
H25 C33 1_555 1_555
C34 C33 1_555 1_555
H26 C34 1_555 1_555
C35 C34 1_555 1_555
H27 C35 1_555 1_555
C36 N4 1_555 1_555
H28 C36 1_555 1_555
C37 C38 1_555 1_555
C38 H29 1_555 1_555
C39 C38 1_555 1_555
H30 C39 1_555 1_555
C40 C39 1_555 1_555
H31 C40 1_555 1_555
C41 C40 1_555 1_555
H32 C41 1_555 1_555
C42 C37 1_555 1_555
C43 C42 1_555 1_555
C44 C43 1_555 1_555
H33 C44 1_555 1_555
C45 C44 1_555 1_555
H34 C45 1_555 1_555
C46 C45 1_555 1_555
H35 C46 1_555 1_555
C47 C46 1_555 1_555
H36 C47 1_555 1_555
C48 N5 1_555 1_555
C49 N5 1_555 1_555
H37 C49 1_555 1_555
H38 C49 1_555 1_555
C50 C49 1_555 1_555
C51 C50 1_555 1_555
H39 C51 1_555 1_555
C52 C51 1_555 1_555
H40 C52 1_555 1_555
C53 C52 1_555 1_555
H41 C53 1_555 1_555
C54 N6 1_555 1_555
H42 C54 1_555 1_555
C5 C6 1_555 1_555
C7 C12 1_555 1_555
C11 C12 1_555 1_555
C17 C18 1_555 1_555
C23 C24 1_555 1_555
C25 C30 1_555 1_555
C29 C30 1_555 1_555
C35 C36 1_555 1_555
C41 C42 1_555 1_555
C43 C48 1_555 1_555
C47 C48 1_555 1_555
C53 C54 1_555 1_555

#END
