
#######################################################################
#
#                 Cambridge Crystallographic Data Centre
#                                CCDC 
#
#######################################################################
#
# If this CIF has been generated from an entry in the Cambridge 
# Structural Database, then it will include bibliographic, chemical, 
# crystal, experimental, refinement or atomic coordinate data resulting 
# from the CCDC's data processing and validation procedures.
#
#######################################################################

data_HAZFEW
_chemical_formula_moiety         'C18 H19 N5 O3'
_chemical_name_systematic        
'methyl (4-(((2-((pyridin-2-yl)methoxy)phenyl)amino)methyl)-1H-1,2,3-triazol-1-yl)acetate'
_symmetry_cell_setting           orthorhombic
_symmetry_space_group_name_H-M   'P n a 21'
_symmetry_Int_Tables_number      33
_space_group_name_Hall           'P 2c -2n'
loop_
_symmetry_equiv_pos_site_id
_symmetry_equiv_pos_as_xyz
1 x,y,z
2 -x,-y,1/2+z
3 1/2+x,1/2-y,z
4 1/2-x,1/2+y,1/2+z
_cell_length_a                   23.0933(13)
_cell_length_b                   5.3680(3)
_cell_length_c                   13.8595(7)
_cell_angle_alpha                90
_cell_angle_beta                 90
_cell_angle_gamma                90
_cell_volume                     1718.09
_exptl_crystal_colour            colorless
_exptl_crystal_description       stick
_cell_formula_units_Z            4
loop_
_atom_site_label
_atom_site_type_symbol
_atom_site_fract_x
_atom_site_fract_y
_atom_site_fract_z
C1 C 0.86599(12) 0.0177(5) 0.3774(2)
C2 C 0.82951(12) 0.0612(6) 0.3006(2)
H1 H 0.8045 0.2018 0.3008
C3 C 0.82950(14) -0.1013(6) 0.2233(2)
H2 H 0.8041 -0.0761 0.1703
C4 C 0.86695(14) -0.3002(6) 0.2247(3)
H3 H 0.8688 -0.4132 0.172
C5 C 0.90210(14) -0.3320(6) 0.3051(2)
H4 H 0.9275 -0.471 0.3062
C6 C 0.86967(11) 0.1809(5) 0.4659(2)
H5 H 0.868 0.0771 0.5249
H6 H 0.9067 0.2736 0.466
C7 C 0.81749(12) 0.5150(5) 0.5411(2)
C8 C 0.85222(14) 0.5108(6) 0.6212(2)
H7 H 0.8825 0.3918 0.6264
C9 C 0.84277(15) 0.6827(6) 0.6950(2)
H8 H 0.8664 0.68 0.7511
C10 C 0.79910(15) 0.8567(6) 0.6865(2)
H9 H 0.793 0.975 0.7364
C11 C 0.76409(14) 0.8596(6) 0.6053(2)
H10 H 0.7336 0.9776 0.6007
C12 C 0.77313(11) 0.6912(5) 0.5303(2)
C13 C 0.70405(13) 0.8957(6) 0.4193(3)
H11 H 0.7028 0.909 0.3481
H12 H 0.7214 1.0509 0.4449
C14 C 0.64350(12) 0.8690(5) 0.4574(2)
C15 C 0.61476(11) 0.6630(5) 0.4894(2)
H13 H 0.6299 0.5001 0.498
C16 C 0.51104(12) 0.5939(6) 0.5395(2)
H14 H 0.5157 0.4197 0.5173
H15 H 0.4752 0.6609 0.5103
C17 C 0.50498(13) 0.5958(6) 0.6467(2)
C18 C 0.45424(16) 0.4083(8) 0.7767(3)
H16 H 0.4845 0.3076 0.8073
H17 H 0.4165 0.3291 0.7868
H18 H 0.454 0.5752 0.8053
N1 N 0.90221(10) -0.1786(5) 0.38094(19)
N2 N 0.73992(10) 0.6853(5) 0.4464(2)
N3 N 0.60533(10) 1.0629(4) 0.4560(2)
N4 N 0.55414(10) 0.9844(4) 0.48665(19)
N5 N 0.56025(9) 0.7403(4) 0.50620(17)
O1 O 0.82199(7) 0.3519(4) 0.46447(14)
O2 O 0.53146(11) 0.7237(5) 0.70171(17)
O3 O 0.46576(9) 0.4276(5) 0.67332(15)
H19 H 0.7580(15) 0.620(7) 0.3964(18)
loop_
_geom_bond_atom_site_label_1
_geom_bond_atom_site_label_2
_geom_bond_site_symmetry_1
_geom_bond_site_symmetry_2
C1 C2 1_555 1_555
C2 H1 1_555 1_555
C3 C2 1_555 1_555
H2 C3 1_555 1_555
C4 C3 1_555 1_555
H3 C4 1_555 1_555
C5 C4 1_555 1_555
H4 C5 1_555 1_555
C6 C1 1_555 1_555
H5 C6 1_555 1_555
H6 C6 1_555 1_555
C7 C8 1_555 1_555
C8 H7 1_555 1_555
C9 C8 1_555 1_555
H8 C9 1_555 1_555
C10 C9 1_555 1_555
H9 C10 1_555 1_555
C11 C10 1_555 1_555
H10 C11 1_555 1_555
C12 C7 1_555 1_555
C13 H11 1_555 1_555
H12 C13 1_555 1_555
C14 C13 1_555 1_555
C15 C14 1_555 1_555
H13 C15 1_555 1_555
C16 H14 1_555 1_555
H15 C16 1_555 1_555
C17 C16 1_555 1_555
C18 H16 1_555 1_555
H17 C18 1_555 1_555
H18 C18 1_555 1_555
N1 C1 1_555 1_555
N2 C12 1_555 1_555
N3 C14 1_555 1_555
N4 N3 1_555 1_555
N5 C15 1_555 1_555
O1 C6 1_555 1_555
O2 C17 1_555 1_555
O3 C17 1_555 1_555
H19 N2 1_555 1_555
C5 N1 1_555 1_555
C7 O1 1_555 1_555
C11 C12 1_555 1_555
C13 N2 1_555 1_555
C16 N5 1_555 1_555
C18 O3 1_555 1_555
N4 N5 1_555 1_555

#END
