
#######################################################################
#
#                 Cambridge Crystallographic Data Centre
#                                CCDC 
#
#######################################################################
#
# If this CIF has been generated from an entry in the Cambridge 
# Structural Database, then it will include bibliographic, chemical, 
# crystal, experimental, refinement or atomic coordinate data resulting 
# from the CCDC's data processing and validation procedures.
#
#######################################################################

data_HAZXAK
_chemical_formula_moiety         'C26 H18 Cl1 O1 P1 S1'
_chemical_name_systematic        
'diphenyl(6-chloro-3-phenyl-1-benzofuran-2-yl)phosphane sulfide'
_symmetry_cell_setting           monoclinic
_symmetry_space_group_name_H-M   'P 21/n'
_symmetry_Int_Tables_number      14
_space_group_name_Hall           '-P 2yn'
loop_
_symmetry_equiv_pos_site_id
_symmetry_equiv_pos_as_xyz
1 x,y,z
2 1/2-x,1/2+y,1/2-z
3 -x,-y,-z
4 1/2+x,1/2-y,1/2+z
_cell_length_a                   16.615(2)
_cell_length_b                   16.577(2)
_cell_length_c                   16.859(3)
_cell_angle_alpha                90
_cell_angle_beta                 113.608(3)
_cell_angle_gamma                90
_cell_volume                     4254.8
_exptl_crystal_colour            colorless
_exptl_crystal_description       Prism
_cell_formula_units_Z            8
_exptl_crystal_recrystallization_method 'ethyl acetate'
loop_
_atom_site_label
_atom_site_type_symbol
_atom_site_fract_x
_atom_site_fract_y
_atom_site_fract_z
P1 P 0.765115(18) 0.187061(17) 0.747174(18)
S1 S 0.819066(19) 0.193455(18) 0.873503(18)
Cl1 Cl 0.94430(2) 0.570607(19) 0.61176(2)
O1 O 0.83075(5) 0.32306(5) 0.71901(5)
C1 C 0.87077(7) 0.36104(7) 0.67269(7)
C2 C 0.88500(7) 0.44344(7) 0.67278(7)
H1 H 0.8686 0.4800 0.7071
C3 C 0.92501(8) 0.46836(7) 0.61880(8)
C4 C 0.95042(8) 0.41478(7) 0.56887(8)
H2 H 0.9788 0.4347 0.5338
C5 C 0.93452(8) 0.33304(7) 0.57022(7)
H3 H 0.9513 0.2964 0.5362
C6 C 0.89314(7) 0.30551(7) 0.62286(7)
C7 C 0.86300(7) 0.22734(7) 0.63857(7)
C8 C 0.82593(7) 0.24166(7) 0.69655(7)
C9 C 0.86988(7) 0.15314(7) 0.59291(7)
C10 C 0.90918(8) 0.08235(7) 0.63597(8)
H4 H 0.9323 0.0802 0.6974
C11 C 0.91456(9) 0.01503(8) 0.58918(9)
H5 H 0.9407 -0.0332 0.6188
C12 C 0.88195(9) 0.01779(8) 0.49915(9)
H6 H 0.8856 -0.0285 0.4675
C13 C 0.84429(9) 0.08794(8) 0.45608(8)
H7 H 0.8226 0.0902 0.3947
C14 C 0.83810(8) 0.15531(7) 0.50243(8)
H8 H 0.8120 0.2033 0.4724
C15 C 0.75281(7) 0.08589(7) 0.70509(7)
C16 C 0.70296(8) 0.06939(7) 0.61769(8)
H9 H 0.6736 0.1118 0.5790
C17 C 0.69673(9) -0.00941(8) 0.58792(8)
H10 H 0.6632 -0.0210 0.5286
C18 C 0.73948(9) -0.07139(7) 0.64478(9)
H11 H 0.7348 -0.1252 0.6241
C19 C 0.78869(9) -0.05507(7) 0.73125(9)
H12 H 0.8182 -0.0976 0.7697
C20 C 0.79511(8) 0.02334(7) 0.76199(8)
H13 H 0.8282 0.0344 0.8216
C21 C 0.65696(7) 0.23264(6) 0.69995(7)
C22 C 0.62575(8) 0.27273(7) 0.62034(7)
H14 H 0.6617 0.2771 0.5887
C23 C 0.54195(8) 0.30612(7) 0.58752(8)
H15 H 0.5209 0.3338 0.5337
C24 C 0.48903(8) 0.29912(8) 0.63332(9)
H16 H 0.4318 0.3219 0.6107
C25 C 0.51959(8) 0.25883(8) 0.71216(8)
H17 H 0.4831 0.2540 0.7432
C26 C 0.60323(8) 0.22573(7) 0.74559(8)
H18 H 0.6240 0.1983 0.7996
P2 P 0.254842(19) 0.176713(17) 0.776250(18)
S2 S 0.375604(19) 0.213485(18) 0.83688(2)
Cl2 Cl 0.02336(2) 0.555544(17) 0.85792(2)
O2 O 0.17592(6) 0.31317(5) 0.78720(5)
C27 C 0.12232(7) 0.34914(7) 0.82095(7)
C28 C 0.10447(8) 0.43107(7) 0.81765(8)
H19 H 0.1275 0.4686 0.7897
C29 C 0.05035(8) 0.45377(7) 0.85844(8)
C30 C 0.01494(8) 0.39905(7) 0.89899(8)
H20 H -0.0229 0.4178 0.9249
C31 C 0.03487(8) 0.31767(7) 0.90140(7)
H21 H 0.0112 0.2801 0.9288
C32 C 0.09068(7) 0.29220(7) 0.86241(7)
C33 C 0.13075(7) 0.21589(6) 0.85626(7)
C34 C 0.18006(7) 0.23180(6) 0.80986(7)
C35 C 0.12220(7) 0.13938(6) 0.89712(7)
C36 C 0.03919(7) 0.10705(7) 0.87974(7)
H22 H -0.0120 0.1355 0.8435
C37 C 0.03144(8) 0.03339(7) 0.91534(8)
H23 H -0.0251 0.0110 0.9023
C38 C 0.10576(8) -0.00774(7) 0.96985(8)
H24 H 0.1001 -0.0583 0.9937
C39 C 0.18816(8) 0.02510(7) 0.98937(7)
H25 H 0.2391 -0.0026 1.0273
C40 C 0.19655(7) 0.09849(7) 0.95361(7)
H26 H 0.2532 0.1210 0.9677
C41 C 0.21242(9) 0.19141(7) 0.66002(8)
C42 C 0.12350(10) 0.20174(9) 0.60927(9)
H27 H 0.0826 0.2046 0.6356
C43 C 0.09431(13) 0.20798(11) 0.51952(10)
H28 H 0.0334 0.2139 0.4845
C44 C 0.15457(14) 0.20548(9) 0.48162(10)
H29 H 0.1349 0.2109 0.4206
C45 C 0.24292(13) 0.19518(9) 0.53187(10)
H30 H 0.2837 0.1934 0.5053
C46 C 0.27252(10) 0.18737(8) 0.62117(9)
H31 H 0.3332 0.1793 0.6556
C47 C 0.23808(8) 0.07085(7) 0.79055(7)
C48 C 0.15508(8) 0.03583(7) 0.74964(8)
H32 H 0.1067 0.0674 0.7131
C49 C 0.14384(9) -0.04540(8) 0.76274(9)
H33 H 0.0874 -0.0693 0.7357
C50 C 0.21477(9) -0.09171(7) 0.81512(9)
H34 H 0.2067 -0.1472 0.8239
C51 C 0.29718(9) -0.05747(8) 0.85461(9)
H35 H 0.3456 -0.0895 0.8900
C52 C 0.30922(8) 0.02405(7) 0.84252(8)
H36 H 0.3658 0.0476 0.8697
loop_
_geom_bond_atom_site_label_1
_geom_bond_atom_site_label_2
_geom_bond_site_symmetry_1
_geom_bond_site_symmetry_2
P1 S1 1_555 1_555
Cl1 C3 1_555 1_555
O1 C1 1_555 1_555
C1 C2 1_555 1_555
C2 H1 1_555 1_555
C3 C2 1_555 1_555
C4 C3 1_555 1_555
H2 C4 1_555 1_555
C5 C4 1_555 1_555
H3 C5 1_555 1_555
C6 C1 1_555 1_555
C7 C6 1_555 1_555
C8 P1 1_555 1_555
C9 C7 1_555 1_555
C10 C9 1_555 1_555
H4 C10 1_555 1_555
C11 C10 1_555 1_555
H5 C11 1_555 1_555
C12 C11 1_555 1_555
H6 C12 1_555 1_555
C13 C12 1_555 1_555
H7 C13 1_555 1_555
C14 C9 1_555 1_555
H8 C14 1_555 1_555
C15 P1 1_555 1_555
C16 C15 1_555 1_555
H9 C16 1_555 1_555
C17 C16 1_555 1_555
H10 C17 1_555 1_555
C18 C17 1_555 1_555
H11 C18 1_555 1_555
C19 C18 1_555 1_555
H12 C19 1_555 1_555
C20 C15 1_555 1_555
H13 C20 1_555 1_555
C21 P1 1_555 1_555
C22 C21 1_555 1_555
H14 C22 1_555 1_555
C23 C22 1_555 1_555
H15 C23 1_555 1_555
C24 C23 1_555 1_555
H16 C24 1_555 1_555
C25 C24 1_555 1_555
H17 C25 1_555 1_555
C26 C21 1_555 1_555
H18 C26 1_555 1_555
P2 S2 1_555 1_555
Cl2 C29 1_555 1_555
O2 C27 1_555 1_555
C27 C28 1_555 1_555
C28 H19 1_555 1_555
C29 C28 1_555 1_555
C30 C29 1_555 1_555
H20 C30 1_555 1_555
C31 C30 1_555 1_555
H21 C31 1_555 1_555
C32 C27 1_555 1_555
C33 C32 1_555 1_555
C34 P2 1_555 1_555
C35 C33 1_555 1_555
C36 C35 1_555 1_555
H22 C36 1_555 1_555
C37 C36 1_555 1_555
H23 C37 1_555 1_555
C38 C37 1_555 1_555
H24 C38 1_555 1_555
C39 C38 1_555 1_555
H25 C39 1_555 1_555
C40 C35 1_555 1_555
H26 C40 1_555 1_555
C41 P2 1_555 1_555
C42 C41 1_555 1_555
H27 C42 1_555 1_555
C43 C42 1_555 1_555
H28 C43 1_555 1_555
C44 C43 1_555 1_555
H29 C44 1_555 1_555
C45 C44 1_555 1_555
H30 C45 1_555 1_555
C46 C41 1_555 1_555
H31 C46 1_555 1_555
C47 P2 1_555 1_555
C48 C47 1_555 1_555
H32 C48 1_555 1_555
C49 C48 1_555 1_555
H33 C49 1_555 1_555
C50 C49 1_555 1_555
H34 C50 1_555 1_555
C51 C50 1_555 1_555
H35 C51 1_555 1_555
C52 C47 1_555 1_555
H36 C52 1_555 1_555
O1 C8 1_555 1_555
C5 C6 1_555 1_555
C7 C8 1_555 1_555
C13 C14 1_555 1_555
C19 C20 1_555 1_555
C25 C26 1_555 1_555
O2 C34 1_555 1_555
C31 C32 1_555 1_555
C33 C34 1_555 1_555
C39 C40 1_555 1_555
C45 C46 1_555 1_555
C51 C52 1_555 1_555

#END
