
#######################################################################
#
#                 Cambridge Crystallographic Data Centre
#                                CCDC 
#
#######################################################################
#
# If this CIF has been generated from an entry in the Cambridge 
# Structural Database, then it will include bibliographic, chemical, 
# crystal, experimental, refinement or atomic coordinate data resulting 
# from the CCDC's data processing and validation procedures.
#
#######################################################################

data_HEBDOH
_chemical_formula_moiety         'C17 H19 N2 O1 P1 S1'
_chemical_name_systematic        
3,4-Diphenyl-5-ethyl-5-methyl-1,3,4-diazaphospholidin-2-thione-4-oxide
_chemical_properties_biological  'herbicidal activity'
_symmetry_cell_setting           monoclinic
_symmetry_space_group_name_H-M   'P 21/n'
_symmetry_Int_Tables_number      14
_space_group_name_Hall           '-P 2yn'
loop_
_symmetry_equiv_pos_site_id
_symmetry_equiv_pos_as_xyz
1 x,y,z
2 1/2-x,1/2+y,1/2-z
3 -x,-y,-z
4 1/2+x,1/2-y,1/2+z
_cell_length_a                   9.641(2)
_cell_length_b                   12.425(3)
_cell_length_c                   14.412(5)
_cell_angle_alpha                90
_cell_angle_beta                 95.11(2)
_cell_angle_gamma                90
_cell_volume                     1719.54
_exptl_crystal_colour            colorless
_cell_formula_units_Z            4
loop_
_atom_site_label
_atom_site_type_symbol
_atom_site_fract_x
_atom_site_fract_y
_atom_site_fract_z
S1 S 0.4654(2) -0.0437(1) 0.1945(1)
P1 P 0.7098(1) 0.2291(1) 0.1683(1)
O1 O 0.6934(4) 0.3186(3) 0.2332(3)
N1 N 0.5703(4) 0.1479(3) 0.1509(3)
N2 N 0.7235(4) 0.0297(3) 0.2146(3)
C1 C 0.5908(5) 0.0454(4) 0.1855(3)
C2 C 0.8217(5) 0.1176(4) 0.2139(4)
C3 C 0.9398(7) 0.0898(6) 0.1531(6)
C5 C 0.8835(8) 0.1420(6) 0.3133(5)
C6 C 0.9640(2) 0.0590(1) 0.3660(1)
C7 C 0.7518(5) 0.2768(4) 0.0570(4)
C8 C 0.8103(6) 0.3774(4) 0.0507(4)
C9 C 0.8429(7) 0.4152(5) -0.0341(5)
C10 C 0.8193(7) 0.3539(6) -0.1133(4)
C11 C 0.7625(7) 0.2550(6) -0.1071(4)
C12 C 0.7288(6) 0.2134(5) -0.0228(4)
C13 C 0.4371(5) 0.1866(4) 0.1107(3)
C14 C 0.3784(6) 0.1448(5) 0.0282(4)
C15 C 0.2518(6) 0.1820(5) -0.0096(4)
C16 C 0.1827(6) 0.2599(6) 0.0354(5)
C17 C 0.2431(6) 0.3025(5) 0.1175(4)
C18 C 0.3698(5) 0.2656(5) 0.1567(4)
C4? C 1.0360(1) 0.0040(1) 0.1790(1)
loop_
_geom_bond_atom_site_label_1
_geom_bond_atom_site_label_2
_geom_bond_site_symmetry_1
_geom_bond_site_symmetry_2
S1 C1 1_555 1_555
P1 O1 1_555 1_555
N1 P1 1_555 1_555
N2 C1 1_555 1_555
C1 N1 1_555 1_555
C2 P1 1_555 1_555
C3 C2 1_555 1_555
C5 C2 1_555 1_555
C6 C5 1_555 1_555
C7 P1 1_555 1_555
C8 C7 1_555 1_555
C9 C8 1_555 1_555
C10 C9 1_555 1_555
C11 C10 1_555 1_555
C12 C7 1_555 1_555
C13 N1 1_555 1_555
C14 C13 1_555 1_555
C15 C14 1_555 1_555
C16 C15 1_555 1_555
C17 C16 1_555 1_555
C18 C13 1_555 1_555
N2 C2 1_555 1_555
C11 C12 1_555 1_555
C17 C18 1_555 1_555

#END
