
#######################################################################
#
#                 Cambridge Crystallographic Data Centre
#                                CCDC 
#
#######################################################################
#
# If this CIF has been generated from an entry in the Cambridge 
# Structural Database, then it will include bibliographic, chemical, 
# crystal, experimental, refinement or atomic coordinate data resulting 
# from the CCDC's data processing and validation procedures.
#
#######################################################################

data_HEBFAV
_chemical_formula_moiety         'C15 H14 N4 O1 S1,H2 O1'
_chemical_name_systematic        
'\D^6^-4-Amino-5,6-diphenyl-5-hydroxy-1,2,4-triazacyclohex-1(6)-ene-3-thione monohydrate'
_symmetry_cell_setting           monoclinic
_symmetry_space_group_name_H-M   'P 21/a'
_symmetry_Int_Tables_number      14
_space_group_name_Hall           '-P 2yab'
loop_
_symmetry_equiv_pos_site_id
_symmetry_equiv_pos_as_xyz
1 x,y,z
2 1/2-x,1/2+y,-z
3 -x,-y,-z
4 1/2+x,1/2-y,z
_cell_length_a                   8.733(3)
_cell_length_b                   16.731(4)
_cell_length_c                   10.476(4)
_cell_angle_alpha                90
_cell_angle_beta                 95.41(3)
_cell_angle_gamma                90
_cell_volume                     1523.85
_exptl_crystal_colour            red-brown
_cell_formula_units_Z            4
loop_
_atom_site_label
_atom_site_type_symbol
_atom_site_fract_x
_atom_site_fract_y
_atom_site_fract_z
S1 S 0.4516(2) 0.2715(1) -0.0996(1)
O1 O 0.1174(4) 0.0934(2) 0.0771(3)
N1 N 0.2303(5) 0.2660(3) 0.2127(4)
N2 N 0.2963(5) 0.2871(2) 0.1022(4)
N3 N 0.3535(5) 0.1581(3) 0.0531(4)
N4 N 0.4143(6) 0.1010(3) -0.0289(5)
C1 C 0.3615(6) 0.2365(3) 0.0246(5)
C2 C 0.2522(6) 0.1241(3) 0.1439(5)
C3 C 0.2122(6) 0.1914(3) 0.2346(5)
C4 C 0.1507(7) 0.1725(3) 0.3588(5)
C5 C 0.0379(7) 0.1156(4) 0.3703(6)
C6 C -0.0157(8) 0.1012(4) 0.4890(6)
C7 C 0.0438(9) 0.1428(4) 0.5953(6)
C8 C 0.1561(9) 0.1984(4) 0.5854(6)
C9 C 0.2085(8) 0.2142(3) 0.4683(6)
C10 C 0.3354(6) 0.0559(3) 0.2158(5)
C11 C 0.4797(8) 0.0696(4) 0.2792(6)
C12 C 0.5591(8) 0.0069(5) 0.3441(7)
C13 C 0.493(1) -0.0675(5) 0.3443(7)
C14 C 0.353(1) -0.0807(4) 0.2830(7)
C15 C 0.2726(7) -0.0196(4) 0.2186(6)
O2 O 0.2836(6) 0.4585(2) 0.1047(4)
loop_
_geom_bond_atom_site_label_1
_geom_bond_atom_site_label_2
_geom_bond_site_symmetry_1
_geom_bond_site_symmetry_2
S1 C1 1_555 1_555
O1 C2 1_555 1_555
N1 N2 1_555 1_555
N2 C1 1_555 1_555
N3 N4 1_555 1_555
C1 N3 1_555 1_555
C2 N3 1_555 1_555
C3 N1 1_555 1_555
C4 C3 1_555 1_555
C5 C4 1_555 1_555
C6 C5 1_555 1_555
C7 C6 1_555 1_555
C8 C7 1_555 1_555
C9 C4 1_555 1_555
C10 C2 1_555 1_555
C11 C10 1_555 1_555
C12 C11 1_555 1_555
C13 C12 1_555 1_555
C14 C13 1_555 1_555
C15 C10 1_555 1_555
C2 C3 1_555 1_555
C8 C9 1_555 1_555
C14 C15 1_555 1_555

#END
