
#######################################################################
#
#                 Cambridge Crystallographic Data Centre
#                                CCDC 
#
#######################################################################
#
# If this CIF has been generated from an entry in the Cambridge 
# Structural Database, then it will include bibliographic, chemical, 
# crystal, experimental, refinement or atomic coordinate data resulting 
# from the CCDC's data processing and validation procedures.
#
#######################################################################

data_HEBQOV
_chemical_name_common            DBA(TCNQ)2
_chemical_formula_moiety         'C8 H20 N1 1+,C12 H4 N4 1-,C12 H4 N4'
_chemical_name_systematic        
'dibutylammonium bis(7,7,8,8-tetracyanoquinodimethane)'
_symmetry_cell_setting           triclinic
_symmetry_space_group_name_H-M   'P -1'
_symmetry_Int_Tables_number      2
_space_group_name_Hall           '-P 1'
loop_
_symmetry_equiv_pos_site_id
_symmetry_equiv_pos_as_xyz
1 x,y,z
2 -x,-y,-z
_cell_length_a                   6.6650(13)
_cell_length_b                   14.259(3)
_cell_length_c                   15.962(3)
_cell_angle_alpha                83.25(3)
_cell_angle_beta                 79.37(3)
_cell_angle_gamma                89.97(3)
_cell_volume                     1480.25
_exptl_crystal_colour            brown
_exptl_crystal_description       Block
_chemical_melting_point          '474 K'
_cell_formula_units_Z            2
_exptl_crystal_recrystallization_method acetonitrile
loop_
_atom_site_label
_atom_site_type_symbol
_atom_site_fract_x
_atom_site_fract_y
_atom_site_fract_z
N1 N -0.3320(4) 0.98719(14) -0.24196(15)
H1 H -0.439(4) 1.0050(18) -0.1960(17)
H2 H -0.369(4) 0.9223(19) -0.2508(16)
C1 C -0.3420(4) 1.05008(18) -0.32219(17)
H3 H -0.2974 1.1132 -0.3161
H4 H -0.2480 1.0278 -0.3693
C2 C -0.5479(5) 1.05472(18) -0.34388(19)
H5 H -0.6422 1.0765 -0.2966
H6 H -0.5921 0.9917 -0.3506
C3 C -0.5572(5) 1.1186(2) -0.4240(3)
H7 H -0.5142 1.1814 -0.4161
H8 H -0.4585 1.0975 -0.4702
C4 C -0.7439(6) 1.1255(2) -0.4501(3)
H9 H -0.7313 1.1687 -0.5017
H10 H -0.8433 1.1481 -0.4059
H11 H -0.7866 1.0644 -0.4608
C5 C -0.1344(4) 0.98912(18) -0.21474(18)
H12 H -0.1065 1.0528 -0.2036
H13 H -0.0293 0.9741 -0.2616
C6 C -0.1202(5) 0.92356(18) -0.1377(2)
H14 H -0.1617 0.8609 -0.1467
H15 H -0.2159 0.9426 -0.0895
C7 C 0.0893(5) 0.9184(2) -0.1146(3)
H16 H 0.1832 0.9055 -0.1659
H17 H 0.1237 0.9814 -0.1038
C8 C 0.1360(8) 0.8571(3) -0.0480(3)
H18 H 0.2773 0.8652 -0.0450
H19 H 0.1106 0.7933 -0.0575
H20 H 0.0525 0.8701 0.0050
N2 N 0.5294(3) 0.87902(12) 0.12940(12)
N3 N 0.6730(3) 0.69864(13) -0.07569(12)
N4 N 0.3657(3) 0.38820(13) 0.49080(12)
N5 N 0.4622(3) 0.21274(12) 0.28263(13)
C9 C 0.5428(3) 0.62892(12) 0.14737(12)
C10 C 0.5637(3) 0.53718(12) 0.11980(12)
H21 H 0.5969 0.5312 0.0615
C11 C 0.5354(3) 0.45779(12) 0.17835(12)
H22 H 0.5495 0.3988 0.1588
C12 C 0.4854(3) 0.46306(12) 0.26760(12)
C13 C 0.4666(3) 0.55546(12) 0.29522(12)
H23 H 0.4358 0.5614 0.3536
C14 C 0.4932(3) 0.63489(13) 0.23698(12)
H24 H 0.4787 0.6939 0.2564
C15 C 0.5480(3) 0.80354(14) 0.11088(13)
C16 C 0.5707(3) 0.71064(12) 0.08626(12)
C17 C 0.6249(3) 0.70407(13) -0.00298(14)
C18 C 0.4048(3) 0.38543(14) 0.41738(15)
C19 C 0.4542(3) 0.38112(13) 0.32721(12)
C20 C 0.4606(3) 0.28862(14) 0.30130(13)
N6 N -0.0096(4) 0.77676(13) 0.21463(14)
N7 N 0.1227(3) 0.59934(13) 0.00959(12)
N8 N -0.1734(3) 0.30033(13) 0.58224(12)
N9 N -0.0531(4) 0.11827(14) 0.38043(14)
C21 C -0.0090(3) 0.52838(12) 0.23348(12)
C22 C 0.0115(3) 0.43408(12) 0.20807(12)
H25 H 0.0436 0.4262 0.1501
C23 C -0.0156(3) 0.35757(13) 0.26760(12)
H26 H -0.0012 0.2977 0.2499
C24 C -0.0661(3) 0.36665(12) 0.35776(12)
C25 C -0.0888(3) 0.46056(12) 0.38294(12)
H27 H -0.1224 0.4683 0.4409
C26 C -0.0619(3) 0.53743(13) 0.32352(12)
H28 H -0.0780 0.5973 0.3412
C27 C 0.0051(3) 0.70138(14) 0.19717(13)
C28 C 0.0231(3) 0.60690(13) 0.17293(13)
C29 C 0.0775(3) 0.60114(14) 0.08279(15)
C30 C -0.1365(3) 0.29653(14) 0.50932(15)
C31 C -0.0904(3) 0.28854(13) 0.41974(13)
C32 C -0.0694(4) 0.19426(15) 0.39674(14)
loop_
_geom_bond_atom_site_label_1
_geom_bond_atom_site_label_2
_geom_bond_site_symmetry_1
_geom_bond_site_symmetry_2
N1 H1 1_555 1_555
H2 N1 1_555 1_555
N2 C15 1_555 1_555
N3 C17 1_555 1_555
N4 C18 1_555 1_555
N5 C20 1_555 1_555
N6 C27 1_555 1_555
N7 C29 1_555 1_555
N8 C30 1_555 1_555
N9 C32 1_555 1_555
C1 N1 1_555 1_555
H3 C1 1_555 1_555
H4 C1 1_555 1_555
C2 C1 1_555 1_555
H5 C2 1_555 1_555
H6 C2 1_555 1_555
C3 C2 1_555 1_555
H7 C3 1_555 1_555
H8 C3 1_555 1_555
C4 C3 1_555 1_555
H9 C4 1_555 1_555
H10 C4 1_555 1_555
H11 C4 1_555 1_555
C5 N1 1_555 1_555
H12 C5 1_555 1_555
H13 C5 1_555 1_555
C6 C5 1_555 1_555
H14 C6 1_555 1_555
H15 C6 1_555 1_555
C7 C6 1_555 1_555
H16 C7 1_555 1_555
H17 C7 1_555 1_555
C8 C7 1_555 1_555
H18 C8 1_555 1_555
H19 C8 1_555 1_555
H20 C8 1_555 1_555
C9 C10 1_555 1_555
C10 H21 1_555 1_555
C11 C10 1_555 1_555
H22 C11 1_555 1_555
C12 C11 1_555 1_555
C13 C12 1_555 1_555
H23 C13 1_555 1_555
C14 C9 1_555 1_555
H24 C14 1_555 1_555
C15 C16 1_555 1_555
C16 C9 1_555 1_555
C17 C16 1_555 1_555
C18 C19 1_555 1_555
C19 C12 1_555 1_555
C20 C19 1_555 1_555
C21 C22 1_555 1_555
C22 H25 1_555 1_555
C23 C22 1_555 1_555
H26 C23 1_555 1_555
C24 C23 1_555 1_555
C25 C24 1_555 1_555
H27 C25 1_555 1_555
C26 C21 1_555 1_555
H28 C26 1_555 1_555
C27 C28 1_555 1_555
C28 C21 1_555 1_555
C29 C28 1_555 1_555
C30 C31 1_555 1_555
C31 C24 1_555 1_555
C32 C31 1_555 1_555
C13 C14 1_555 1_555
C25 C26 1_555 1_555

#END
