
#######################################################################
#
#                 Cambridge Crystallographic Data Centre
#                                CCDC 
#
#######################################################################
#
# If this CIF has been generated from an entry in the Cambridge 
# Structural Database, then it will include bibliographic, chemical, 
# crystal, experimental, refinement or atomic coordinate data resulting 
# from the CCDC's data processing and validation procedures.
#
#######################################################################

data_HEBROW
_chemical_formula_moiety         'C41 H25 N3'
_chemical_name_systematic        
2-(2-dicyanoethenyl)-7-(N,N-diphenylamino)-9,9'-spiro(bifluorene)
_symmetry_cell_setting           triclinic
_symmetry_space_group_name_H-M   'P -1'
_symmetry_Int_Tables_number      2
_space_group_name_Hall           '-P 1'
loop_
_symmetry_equiv_pos_site_id
_symmetry_equiv_pos_as_xyz
1 x,y,z
2 -x,-y,-z
_cell_length_a                   8.8833(9)
_cell_length_b                   10.637(2)
_cell_length_c                   16.457(4)
_cell_angle_alpha                100.10(2)
_cell_angle_beta                 97.42(1)
_cell_angle_gamma                97.56(1)
_cell_volume                     1499.07
_exptl_crystal_colour            red
_exptl_crystal_description       prism
_cell_formula_units_Z            2
_exptl_crystal_preparation       solvatochromic
loop_
_atom_site_label
_atom_site_type_symbol
_atom_site_fract_x
_atom_site_fract_y
_atom_site_fract_z
N1 N 0.1496(3) 0.52614(19) 0.76657(13)
N2 N 0.6121(5) 1.4564(3) 0.7807(2)
N3 N 0.7148(4) 1.6006(3) 0.56055(19)
C1 C 0.4428(3) 0.9558(2) 0.74955(14)
C2 C 0.4264(3) 1.0184(2) 0.67244(14)
C3 C 0.4979(3) 1.1359(2) 0.66336(15)
H1 H 0.5654 1.1892 0.7076
C4 C 0.4682(3) 1.1753(2) 0.58640(15)
C5 C 0.3677(3) 1.0911(3) 0.52086(17)
H2 H 0.3511 1.1148 0.4691
C6 C 0.2929(3) 0.9743(3) 0.53084(16)
H3 H 0.2248 0.9208 0.4869
C7 C 0.3208(3) 0.9375(2) 0.60776(15)
C8 C 0.2608(3) 0.8215(2) 0.63635(15)
C9 C 0.1523(3) 0.7154(3) 0.59800(16)
H4 H 0.1043 0.7095 0.5435
C10 C 0.1155(3) 0.6185(3) 0.64089(17)
H5 H 0.0413 0.5478 0.6152
C11 C 0.1878(3) 0.6246(2) 0.72266(16)
C12 C 0.2954(3) 0.7324(2) 0.76145(15)
H6 H 0.3434 0.7386 0.8160
C13 C 0.3303(3) 0.8297(2) 0.71856(14)
C14 C 0.6066(3) 0.9354(2) 0.77792(14)
C15 C 0.6994(3) 0.8653(2) 0.73410(16)
H7 H 0.6645 0.8222 0.6793
C16 C 0.8462(3) 0.8595(3) 0.7727(2)
H8 H 0.9105 0.8128 0.7436
C17 C 0.8967(3) 0.9229(3) 0.8542(2)
H9 H 0.9953 0.9185 0.8795
C18 C 0.8043(3) 0.9922(2) 0.89873(17)
H10 H 0.8392 1.0339 0.9538
C19 C 0.6572(3) 0.9994(2) 0.86021(14)
C20 C 0.5339(3) 1.0639(2) 0.89101(14)
C21 C 0.5263(4) 1.1387(2) 0.96793(16)
H11 H 0.6089 1.1543 1.0112
C22 C 0.3936(4) 1.1895(3) 0.9789(2)
H12 H 0.3868 1.2397 1.0302
C23 C 0.2721(4) 1.1672(3) 0.9156(2)
H13 H 0.1844 1.2034 0.9242
C24 C 0.2773(3) 1.0917(3) 0.83905(18)
H14 H 0.1939 1.0761 0.7962
C25 C 0.4094(3) 1.0401(2) 0.82765(14)
C26 C 0.5392(3) 1.2968(3) 0.56955(17)
H15 H 0.5399 1.2977 0.5132
C27 C 0.6043(3) 1.4082(3) 0.62144(18)
C28 C 0.6088(4) 1.4326(3) 0.7103(2)
C29 C 0.6652(4) 1.5158(3) 0.5882(2)
C30 C 0.1670(3) 0.5571(2) 0.85619(16)
C31 C 0.0737(3) 0.6351(3) 0.8948(2)
H16 H 0.0006 0.6688 0.8629
C32 C 0.0897(4) 0.6624(3) 0.9808(3)
H17 H 0.0279 0.7152 1.0074
C33 C 0.1979(5) 0.6110(4) 1.0271(2)
H18 H 0.2094 0.6299 1.0851
C34 C 0.2871(4) 0.5338(3) 0.9893(2)
H19 H 0.3584 0.4986 1.0213
C35 C 0.2736(3) 0.5068(3) 0.90407(18)
H20 H 0.3367 0.4543 0.8784
C36 C 0.0893(3) 0.3960(2) 0.72738(16)
C37 C -0.0144(3) 0.3249(3) 0.76458(18)
H21 H -0.0471 0.3644 0.8128
C38 C -0.0694(3) 0.1975(3) 0.7315(2)
H22 H -0.1376 0.1509 0.7579
C39 C -0.0253(4) 0.1388(3) 0.6606(2)
H23 H -0.0628 0.0522 0.6381
C40 C 0.0752(4) 0.2081(3) 0.6223(2)
H24 H 0.1038 0.1683 0.5730
C41 C 0.1353(3) 0.3368(3) 0.65573(18)
H25 H 0.2057 0.3822 0.6300
loop_
_geom_bond_atom_site_label_1
_geom_bond_atom_site_label_2
_geom_bond_site_symmetry_1
_geom_bond_site_symmetry_2
N1 C11 1_555 1_555
N2 C28 1_555 1_555
N3 C29 1_555 1_555
C1 C2 1_555 1_555
C2 C3 1_555 1_555
C3 H1 1_555 1_555
C4 C3 1_555 1_555
C5 C4 1_555 1_555
H2 C5 1_555 1_555
C6 C5 1_555 1_555
H3 C6 1_555 1_555
C7 C2 1_555 1_555
C8 C7 1_555 1_555
C9 C8 1_555 1_555
H4 C9 1_555 1_555
C10 C9 1_555 1_555
H5 C10 1_555 1_555
C11 C10 1_555 1_555
C12 C11 1_555 1_555
H6 C12 1_555 1_555
C13 C1 1_555 1_555
C14 C1 1_555 1_555
C15 C14 1_555 1_555
H7 C15 1_555 1_555
C16 C15 1_555 1_555
H8 C16 1_555 1_555
C17 C16 1_555 1_555
H9 C17 1_555 1_555
C18 C17 1_555 1_555
H10 C18 1_555 1_555
C19 C14 1_555 1_555
C20 C19 1_555 1_555
C21 C20 1_555 1_555
H11 C21 1_555 1_555
C22 C21 1_555 1_555
H12 C22 1_555 1_555
C23 C22 1_555 1_555
H13 C23 1_555 1_555
C24 C23 1_555 1_555
H14 C24 1_555 1_555
C25 C1 1_555 1_555
C26 C4 1_555 1_555
H15 C26 1_555 1_555
C27 C26 1_555 1_555
C28 C27 1_555 1_555
C29 C27 1_555 1_555
C30 N1 1_555 1_555
C31 C30 1_555 1_555
H16 C31 1_555 1_555
C32 C31 1_555 1_555
H17 C32 1_555 1_555
C33 C32 1_555 1_555
H18 C33 1_555 1_555
C34 C33 1_555 1_555
H19 C34 1_555 1_555
C35 C30 1_555 1_555
H20 C35 1_555 1_555
C36 N1 1_555 1_555
C37 C36 1_555 1_555
H21 C37 1_555 1_555
C38 C37 1_555 1_555
H22 C38 1_555 1_555
C39 C38 1_555 1_555
H23 C39 1_555 1_555
C40 C39 1_555 1_555
H24 C40 1_555 1_555
C41 C36 1_555 1_555
H25 C41 1_555 1_555
C6 C7 1_555 1_555
C8 C13 1_555 1_555
C12 C13 1_555 1_555
C18 C19 1_555 1_555
C20 C25 1_555 1_555
C24 C25 1_555 1_555
C34 C35 1_555 1_555
C40 C41 1_555 1_555

#END
