
#######################################################################
#
#                 Cambridge Crystallographic Data Centre
#                                CCDC 
#
#######################################################################
#
# If this CIF has been generated from an entry in the Cambridge 
# Structural Database, then it will include bibliographic, chemical, 
# crystal, experimental, refinement or atomic coordinate data resulting 
# from the CCDC's data processing and validation procedures.
#
#######################################################################

data_HEBWUJ
_chemical_formula_moiety         'C13 H15 O2 P1 S2 Se1'
_chemical_name_systematic        
"2-(2,2'-bithiophen-5-yl)-5,5-dimethyl-1,3,2-dioxaphosphinane 2-selenide"
_symmetry_cell_setting           monoclinic
_symmetry_space_group_name_H-M   'P 21/c'
_symmetry_Int_Tables_number      14
_space_group_name_Hall           '-P 2ybc'
loop_
_symmetry_equiv_pos_site_id
_symmetry_equiv_pos_as_xyz
1 x,y,z
2 -x,1/2+y,1/2-z
3 -x,-y,-z
4 x,1/2-y,1/2+z
_cell_length_a                   6.0410(12)
_cell_length_b                   7.2750(15)
_cell_length_c                   35.595(7)
_cell_angle_alpha                90
_cell_angle_beta                 92.76(3)
_cell_angle_gamma                90
_cell_volume                     1562.52
_cell_formula_units_Z            4
loop_
_atom_site_label
_atom_site_type_symbol
_atom_site_fract_x
_atom_site_fract_y
_atom_site_fract_z
S1 S 0.4310(4) 0.4269(5) 0.77373(7)
C1 C 0.2623(16) 0.340(2) 0.7376(2)
C2 C 0.074(3) 0.270(4) 0.7513(6)
H1 H -0.0345 0.2097 0.7365
C3 C 0.0590(17) 0.299(2) 0.7897(2)
H2 H -0.0639 0.2646 0.8029
C4 C 0.2393(15) 0.3797(17) 0.8062(2)
H3 H 0.2570 0.4063 0.8317
S2 S 0.2039(2) 0.20689(18) 0.66536(3)
C5 C 0.3943(8) 0.2566(6) 0.63265(13)
C6 C 0.5571(9) 0.3670(8) 0.64746(15)
H4 H 0.6753 0.4086 0.6340
C7 C 0.5285(9) 0.4119(7) 0.68521(15)
H5 H 0.6254 0.4873 0.6992
C8 C 0.3468(8) 0.3350(7) 0.69920(14)
C9 C 0.0331(8) -0.0156(7) 0.55642(14)
H6 H 0.0778 0.0140 0.5313
H7 H -0.1276 -0.0192 0.5558
C10 C 0.1232(8) -0.2018(7) 0.56760(13)
C11 C 0.3756(8) -0.1937(6) 0.56902(15)
H8 H 0.4354 -0.3123 0.5767
H9 H 0.4257 -0.1667 0.5441
C12 C 0.0425(10) -0.2616(8) 0.60567(17)
H10 H 0.0965 -0.1772 0.6247
H11 H 0.0969 -0.3827 0.6115
H12 H -0.1165 -0.2624 0.6047
C13 C 0.0471(9) -0.3384(8) 0.53698(17)
H13 H -0.1119 -0.3432 0.5353
H14 H 0.1050 -0.4581 0.5431
H15 H 0.1003 -0.2995 0.5133
O1 O 0.1124(5) 0.1281(4) 0.58261(9)
O2 O 0.4575(5) -0.0521(4) 0.59548(9)
P1 P 0.37263(19) 0.15211(17) 0.58778(3)
Se1 Se 0.52596(10) 0.28771(8) 0.545197(16)
S3? S 0.029(4) 0.277(5) 0.7471(7)
C14? C 0.291(6) 0.347(10) 0.7345(9)
C15? C 0.411(5) 0.404(8) 0.7662(12)
H16? H 0.5562 0.4462 0.7663
C16? C 0.287(6) 0.390(8) 0.7983(9)
H17? H 0.3438 0.4327 0.8214
C17? C 0.081(7) 0.313(10) 0.7951(7)
H18? H -0.0122 0.2848 0.8144
loop_
_geom_bond_atom_site_label_1
_geom_bond_atom_site_label_2
_geom_bond_site_symmetry_1
_geom_bond_site_symmetry_2
S1 C1 1_555 1_555
C1 C2 1_555 1_555
C2 H1 1_555 1_555
C3 C2 1_555 1_555
H2 C3 1_555 1_555
C4 S1 1_555 1_555
H3 C4 1_555 1_555
S2 C5 1_555 1_555
C5 C6 1_555 1_555
C6 H4 1_555 1_555
C7 C6 1_555 1_555
H5 C7 1_555 1_555
C8 C1 1_555 1_555
C9 H6 1_555 1_555
H7 C9 1_555 1_555
C10 C9 1_555 1_555
C11 C10 1_555 1_555
H8 C11 1_555 1_555
H9 C11 1_555 1_555
C12 C10 1_555 1_555
H10 C12 1_555 1_555
H11 C12 1_555 1_555
H12 C12 1_555 1_555
C13 C10 1_555 1_555
H13 C13 1_555 1_555
H14 C13 1_555 1_555
H15 C13 1_555 1_555
O1 C9 1_555 1_555
O2 C11 1_555 1_555
P1 C5 1_555 1_555
Se1 P1 1_555 1_555
C3 C4 1_555 1_555
S2 C8 1_555 1_555
C7 C8 1_555 1_555
O1 P1 1_555 1_555
O2 P1 1_555 1_555

#END
