
#######################################################################
#
#                 Cambridge Crystallographic Data Centre
#                                CCDC 
#
#######################################################################
#
# If this CIF has been generated from an entry in the Cambridge 
# Structural Database, then it will include bibliographic, chemical, 
# crystal, experimental, refinement or atomic coordinate data resulting 
# from the CCDC's data processing and validation procedures.
#
#######################################################################

data_HEDVAQ
_chemical_formula_moiety         'C13 H16 B1 F2 N1 O2'
_chemical_name_systematic        
(3-(t-butylamino)-3-oxo-1-phenylprop-1-en-1-olato)-difluoro-boron
_symmetry_cell_setting           triclinic
_symmetry_space_group_name_H-M   'P -1'
_symmetry_Int_Tables_number      2
_space_group_name_Hall           '-P 1'
loop_
_symmetry_equiv_pos_site_id
_symmetry_equiv_pos_as_xyz
1 x,y,z
2 -x,-y,-z
_cell_length_a                   6.5324(3)
_cell_length_b                   9.2200(7)
_cell_length_c                   11.8404(8)
_cell_angle_alpha                109.953(2)
_cell_angle_beta                 95.097(2)
_cell_angle_gamma                94.689(2)
_cell_volume                     662.874
_exptl_crystal_colour            colorless
_exptl_crystal_description       parallelepiped
_cell_formula_units_Z            2
loop_
_atom_site_label
_atom_site_type_symbol
_atom_site_fract_x
_atom_site_fract_y
_atom_site_fract_z
F1 F 1.37845(12) 0.12858(10) 0.75396(7)
F2 F 1.37301(11) -0.01280(10) 0.87717(7)
O1 O 1.23162(14) 0.22299(12) 0.93232(9)
O2 O 1.06808(13) -0.00464(11) 0.76227(8)
N1 N 0.73362(17) -0.09142(13) 0.75288(10)
H1 H 0.624(3) -0.081(2) 0.7893(15)
C1 C 1.2249(2) 0.47902(17) 1.13188(13)
H2 H 1.3494 0.4590 1.0965
C2 C 1.2197(2) 0.61569(17) 1.22831(14)
H3 H 1.3404 0.6888 1.2587
C3 C 1.0393(3) 0.64574(17) 1.28018(14)
H4 H 1.0360 0.7393 1.3462
C4 C 0.8631(2) 0.53900(18) 1.23566(14)
H5 H 0.7389 0.5599 1.2712
C5 C 0.8674(2) 0.40230(17) 1.13972(13)
H6 H 0.7463 0.3295 1.1099
C6 C 1.0488(2) 0.37081(16) 1.08648(12)
C7 C 1.05394(19) 0.22956(16) 0.97961(12)
C8 C 0.8906(2) 0.11821(15) 0.92862(12)
H7 H 0.7721 0.1168 0.9694
C9 C 0.89907(19) 0.00359(15) 0.81326(12)
C10 C 0.7044(2) -0.19594(15) 0.62372(12)
C11 C 0.7413(2) -0.09985(18) 0.54383(13)
H8 H 0.6579 -0.0129 0.5650
H9 H 0.7017 -0.1653 0.4587
H10 H 0.8883 -0.0594 0.5564
C12 C 0.8484(2) -0.32185(17) 0.60384(13)
H11 H 0.9926 -0.2738 0.6211
H12 H 0.8215 -0.3931 0.5196
H13 H 0.8239 -0.3797 0.6581
C13 C 0.4788(2) -0.2685(2) 0.59826(15)
H14 H 0.4543 -0.3268 0.6522
H15 H 0.4494 -0.3391 0.5139
H16 H 0.3878 -0.1863 0.6124
B1 B 1.2661(2) 0.08562(19) 0.83263(14)
loop_
_geom_bond_atom_site_label_1
_geom_bond_atom_site_label_2
_geom_bond_site_symmetry_1
_geom_bond_site_symmetry_2
F1 B1 1_555 1_555
F2 B1 1_555 1_555
O1 C7 1_555 1_555
O2 C9 1_555 1_555
N1 H1 1_555 1_555
C1 H2 1_555 1_555
C2 C1 1_555 1_555
H3 C2 1_555 1_555
C3 C2 1_555 1_555
H4 C3 1_555 1_555
C4 C3 1_555 1_555
H5 C4 1_555 1_555
C5 C4 1_555 1_555
H6 C5 1_555 1_555
C6 C1 1_555 1_555
C7 C6 1_555 1_555
C8 C7 1_555 1_555
H7 C8 1_555 1_555
C9 N1 1_555 1_555
C10 N1 1_555 1_555
C11 C10 1_555 1_555
H8 C11 1_555 1_555
H9 C11 1_555 1_555
H10 C11 1_555 1_555
C12 C10 1_555 1_555
H11 C12 1_555 1_555
H12 C12 1_555 1_555
H13 C12 1_555 1_555
C13 C10 1_555 1_555
H14 C13 1_555 1_555
H15 C13 1_555 1_555
H16 C13 1_555 1_555
B1 O1 1_555 1_555
O2 B1 1_555 1_555
C5 C6 1_555 1_555
C8 C9 1_555 1_555

#END
