
#######################################################################
#
#                 Cambridge Crystallographic Data Centre
#                                CCDC 
#
#######################################################################
#
# If this CIF has been generated from an entry in the Cambridge 
# Structural Database, then it will include bibliographic, chemical, 
# crystal, experimental, refinement or atomic coordinate data resulting 
# from the CCDC's data processing and validation procedures.
#
#######################################################################

data_HEFFAA
_chemical_name_common            bis(1-Phenyl-ortho-carboran-2-yl)sulfoxide
_chemical_formula_moiety         'C16 H30 B20 O1 S1'
_chemical_name_systematic        
bis(2-Phenyl-1,2-dicarbadodecaboranyl)sulfoxide
_symmetry_cell_setting           triclinic
_symmetry_space_group_name_H-M   'P -1'
_symmetry_Int_Tables_number      2
_space_group_name_Hall           '-P 1'
loop_
_symmetry_equiv_pos_site_id
_symmetry_equiv_pos_as_xyz
1 x,y,z
2 -x,-y,-z
_cell_length_a                   9.783(1)
_cell_length_b                   10.360(1)
_cell_length_c                   15.167(1)
_cell_angle_alpha                91.94(1)
_cell_angle_beta                 95.61(1)
_cell_angle_gamma                116.10(1)
_cell_volume                     1368.75
_exptl_crystal_colour            colorless
_exptl_crystal_description       plate
_chemical_melting_point          '535 K'
_cell_formula_units_Z            2
_exptl_crystal_recrystallization_method 'ethyl acetate/cyclohexane'
loop_
_atom_site_label
_atom_site_type_symbol
_atom_site_fract_x
_atom_site_fract_y
_atom_site_fract_z
S1 S 0.54318(6) 0.61465(6) 0.20053(3)
O1 O 0.6161(2) 0.6063(2) 0.12298(11)
C1 C 0.6779(2) 0.6180(2) 0.29699(13)
C2 C 0.7315(2) 0.7697(2) 0.36941(13)
B1 B 0.6357(3) 0.5978(3) 0.40384(16)
B2 B 0.7042(3) 0.4866(3) 0.34893(19)
B3 B 0.8322(3) 0.5932(4) 0.2764(2)
B4 B 0.8454(3) 0.7712(3) 0.28789(17)
B5 B 0.7957(3) 0.7383(3) 0.47104(18)
B6 B 0.7810(3) 0.5614(4) 0.45945(19)
B7 B 0.9043(4) 0.5599(4) 0.3808(2)
B8 B 0.9912(3) 0.7355(4) 0.3421(2)
B9 B 0.9254(3) 0.8455(3) 0.39859(18)
B10 B 0.9598(3) 0.7137(4) 0.4557(2)
C3 C 0.6460(3) 0.8598(2) 0.35985(15)
C4 C 0.6985(4) 0.9784(3) 0.3105(2)
H1 H 0.7848 1.0006 0.2817
C5 C 0.6219(5) 1.0635(4) 0.3037(3)
H2 H 0.6585 1.1436 0.2709
C6 C 0.4955(4) 1.0326(4) 0.3450(3)
H3 H 0.4441 1.0895 0.3391
C7 C 0.4437(3) 0.9174(3) 0.3948(2)
H4 H 0.3579 0.8972 0.4237
C8 C 0.5180(3) 0.8302(3) 0.40281(18)
H5 H 0.4814 0.7516 0.4368
C9 C 0.3689(2) 0.4398(2) 0.19741(13)
C10 C 0.2238(2) 0.4605(2) 0.13480(13)
B11 B 0.3064(3) 0.3583(3) 0.09000(17)
B12 B 0.3505(3) 0.2696(3) 0.17908(18)
B13 B 0.2987(3) 0.3249(3) 0.27754(17)
B14 B 0.2256(3) 0.4505(3) 0.24962(17)
B15 B 0.1054(3) 0.3013(3) 0.07516(18)
B16 B 0.1797(4) 0.1781(3) 0.1027(2)
B17 B 0.1742(3) 0.1569(3) 0.2187(2)
B18 B 0.0988(3) 0.2703(3) 0.26285(19)
B19 B 0.0539(3) 0.3581(3) 0.17430(19)
B20 B 0.0248(3) 0.1776(3) 0.1548(2)
C11 C 0.2574(2) 0.6036(3) 0.09864(14)
C12 C 0.3011(3) 0.6300(3) 0.01463(16)
H6 H 0.3123 0.5598 -0.0195
C13 C 0.3284(4) 0.7609(3) -0.0186(2)
H7 H 0.3583 0.7784 -0.0751
C14 C 0.3115(3) 0.8643(3) 0.0308(2)
H8 H 0.3309 0.9523 0.0083
C15 C 0.2658(4) 0.8382(3) 0.1132(2)
H9 H 0.2537 0.9085 0.1466
C16 C 0.2377(4) 0.7087(3) 0.14731(18)
H10 H 0.2050 0.6912 0.2031
H11 H 0.516(3) 0.561(2) 0.4164(14)
H12 H 0.621(3) 0.379(3) 0.3290(16)
H13 H 0.831(3) 0.552(3) 0.2120(17)
H14 H 0.848(3) 0.831(2) 0.2299(15)
H15 H 0.772(3) 0.788(3) 0.5281(17)
H16 H 0.757(3) 0.494(3) 0.5118(18)
H17 H 0.956(3) 0.486(3) 0.3816(18)
H18 H 1.110(3) 0.784(3) 0.3184(17)
H19 H 0.986(3) 0.963(3) 0.4089(16)
H20 H 1.049(3) 0.750(3) 0.5084(18)
H21 H 0.379(3) 0.401(2) 0.0394(15)
H22 H 0.458(3) 0.257(2) 0.1765(15)
H23 H 0.368(3) 0.347(2) 0.3391(15)
H24 H 0.254(3) 0.547(3) 0.2907(17)
H25 H 0.058(3) 0.313(2) 0.0100(16)
H26 H 0.169(3) 0.096(3) 0.0535(18)
H27 H 0.163(3) 0.060(3) 0.2464(16)
H28 H 0.037(3) 0.245(3) 0.3198(18)
H29 H -0.032(3) 0.399(3) 0.1687(16)
H30 H -0.090(3) 0.092(3) 0.1384(17)
loop_
_geom_bond_atom_site_label_1
_geom_bond_atom_site_label_2
_geom_bond_site_symmetry_1
_geom_bond_site_symmetry_2
S1 O1 1_555 1_555
C1 S1 1_555 1_555
C2 C1 1_555 1_555
B1 C1 1_555 1_555
B2 C1 1_555 1_555
B3 C1 1_555 1_555
B4 C1 1_555 1_555
B5 C2 1_555 1_555
B6 B1 1_555 1_555
B7 B2 1_555 1_555
B8 B3 1_555 1_555
B9 C2 1_555 1_555
B10 B5 1_555 1_555
C3 C2 1_555 1_555
C4 C3 1_555 1_555
H1 C4 1_555 1_555
C5 C4 1_555 1_555
H2 C5 1_555 1_555
C6 C5 1_555 1_555
H3 C6 1_555 1_555
C7 C6 1_555 1_555
H4 C7 1_555 1_555
C8 C3 1_555 1_555
H5 C8 1_555 1_555
C9 S1 1_555 1_555
C10 C9 1_555 1_555
B11 C9 1_555 1_555
B12 C9 1_555 1_555
B13 C9 1_555 1_555
B14 C9 1_555 1_555
B15 C10 1_555 1_555
B16 B11 1_555 1_555
B17 B12 1_555 1_555
B18 B13 1_555 1_555
B19 C10 1_555 1_555
B20 B15 1_555 1_555
C11 C10 1_555 1_555
C12 C11 1_555 1_555
H6 C12 1_555 1_555
C13 C12 1_555 1_555
H7 C13 1_555 1_555
C14 C13 1_555 1_555
H8 C14 1_555 1_555
C15 C14 1_555 1_555
H9 C15 1_555 1_555
C16 C11 1_555 1_555
H10 C16 1_555 1_555
H11 B1 1_555 1_555
H12 B2 1_555 1_555
H13 B3 1_555 1_555
H14 B4 1_555 1_555
H15 B5 1_555 1_555
H16 B6 1_555 1_555
H17 B7 1_555 1_555
H18 B8 1_555 1_555
H19 B9 1_555 1_555
H20 B10 1_555 1_555
H21 B11 1_555 1_555
H22 B12 1_555 1_555
H23 B13 1_555 1_555
H24 B14 1_555 1_555
H25 B15 1_555 1_555
H26 B16 1_555 1_555
H27 B17 1_555 1_555
H28 B18 1_555 1_555
H29 B19 1_555 1_555
H30 B20 1_555 1_555
C2 B1 1_555 1_555
C2 B4 1_555 1_555
B1 B2 1_555 1_555
B1 B5 1_555 1_555
B2 B3 1_555 1_555
B2 B6 1_555 1_555
B3 B4 1_555 1_555
B3 B7 1_555 1_555
B4 B8 1_555 1_555
B4 B9 1_555 1_555
B5 B6 1_555 1_555
B5 B9 1_555 1_555
B6 B7 1_555 1_555
B6 B10 1_555 1_555
B7 B8 1_555 1_555
B7 B10 1_555 1_555
B8 B9 1_555 1_555
B8 B10 1_555 1_555
B9 B10 1_555 1_555
C7 C8 1_555 1_555
C10 B11 1_555 1_555
C10 B14 1_555 1_555
B11 B12 1_555 1_555
B11 B15 1_555 1_555
B12 B13 1_555 1_555
B12 B16 1_555 1_555
B13 B14 1_555 1_555
B13 B17 1_555 1_555
B14 B18 1_555 1_555
B14 B19 1_555 1_555
B15 B16 1_555 1_555
B15 B19 1_555 1_555
B16 B17 1_555 1_555
B16 B20 1_555 1_555
B17 B18 1_555 1_555
B17 B20 1_555 1_555
B18 B19 1_555 1_555
B18 B20 1_555 1_555
B19 B20 1_555 1_555
C15 C16 1_555 1_555

#END
