
#######################################################################
#
#                 Cambridge Crystallographic Data Centre
#                                CCDC 
#
#######################################################################
#
# If this CIF has been generated from an entry in the Cambridge 
# Structural Database, then it will include bibliographic, chemical, 
# crystal, experimental, refinement or atomic coordinate data resulting 
# from the CCDC's data processing and validation procedures.
#
#######################################################################

data_HEFZUQ
_chemical_formula_moiety         'C29 H23 Cl1 I1 N1 O2 S1'
_chemical_name_systematic        
2-([1,1'-biphenyl]-4-yl)-4-chloro-3-iodo-1-[(4-methylphenyl)sulfonyl]-2-phenyl-2,5-dihydro-1H-pyrrole
_symmetry_cell_setting           monoclinic
_symmetry_space_group_name_H-M   'P 21/c'
_symmetry_Int_Tables_number      14
_space_group_name_Hall           '-P 2ybc'
loop_
_symmetry_equiv_pos_site_id
_symmetry_equiv_pos_as_xyz
1 x,y,z
2 -x,1/2+y,1/2-z
3 -x,-y,-z
4 x,1/2-y,1/2+z
_cell_length_a                   19.8735(4)
_cell_length_b                   14.9460(3)
_cell_length_c                   18.2366(4)
_cell_angle_alpha                90
_cell_angle_beta                 100.109(2)
_cell_angle_gamma                90
_cell_volume                     5332.71
_exptl_crystal_colour            'light yellow'
_exptl_crystal_description       block
_cell_formula_units_Z            8
loop_
_atom_site_label
_atom_site_type_symbol
_atom_site_fract_x
_atom_site_fract_y
_atom_site_fract_z
I1 I -0.03210(2) 0.59307(2) 0.23010(2)
Cl1 Cl 0.12536(7) 0.54778(8) 0.17625(10)
S1 S 0.17898(5) 0.86940(6) 0.30350(6)
O1 O 0.13399(14) 0.94025(17) 0.31477(17)
O2 O 0.22939(13) 0.8824(2) 0.25696(16)
N1 N 0.13294(14) 0.78637(19) 0.26617(17)
C1 C 0.05884(17) 0.7681(2) 0.2710(2)
C2 C 0.05437(19) 0.6718(2) 0.2406(2)
C3 C 0.1111(2) 0.6470(3) 0.2186(2)
C4 C 0.1654(2) 0.7143(3) 0.2313(3)
H1 H 0.2056 0.6919 0.2642
H2 H 0.1782 0.7336 0.1849
C5 C 0.04770(18) 0.7734(2) 0.3520(2)
C6 C 0.0169(2) 0.8465(3) 0.3789(2)
H3 H 0.0014 0.8937 0.3473
C7 C 0.0093(2) 0.8492(3) 0.4526(3)
H4 H -0.0115 0.8985 0.4701
C8 C 0.0321(3) 0.7803(4) 0.5005(3)
H5 H 0.0262 0.7825 0.5499
C9 C 0.0637(2) 0.7084(3) 0.4744(3)
H6 H 0.0804 0.6622 0.5067
C10 C 0.0709(2) 0.7042(3) 0.4006(2)
H7 H 0.0914 0.6545 0.3832
C11 C 0.01098(17) 0.8256(2) 0.2159(2)
C12 C -0.05903(18) 0.8265(3) 0.2170(2)
H8 H -0.0758 0.7979 0.2553
C13 C -0.1037(2) 0.8696(3) 0.1615(2)
H9 H -0.1501 0.8692 0.1634
C14 C -0.08124(18) 0.9134(2) 0.1033(2)
C15 C -0.01118(19) 0.9138(3) 0.1036(2)
H10 H 0.0057 0.9437 0.0659
C16 C 0.03370(18) 0.8710(2) 0.1584(2)
H11 H 0.0802 0.8724 0.1569
C17 C -0.12914(19) 0.9567(2) 0.0418(2)
C18 C -0.1839(2) 1.0074(3) 0.0558(3)
H12 H -0.1921 1.0129 0.1042
C19 C -0.2264(2) 1.0500(3) -0.0023(3)
H13 H -0.2625 1.0850 0.0075
C20 C -0.2155(3) 1.0406(4) -0.0742(3)
H14 H -0.2443 1.0693 -0.1128
C21 C -0.1630(3) 0.9899(3) -0.0895(3)
H15 H -0.1561 0.9833 -0.1383
C22 C -0.1194(2) 0.9477(3) -0.0315(2)
H16 H -0.0834 0.9130 -0.0419
C23 C 0.22333(19) 0.8352(2) 0.3913(2)
C24 C 0.1984(2) 0.8560(3) 0.4551(2)
H17 H 0.1583 0.8888 0.4524
C25 C 0.2337(2) 0.8277(3) 0.5230(3)
H18 H 0.2168 0.8421 0.5660
C26 C 0.2928(2) 0.7790(3) 0.5290(3)
C27 C 0.3171(2) 0.7588(3) 0.4644(3)
H19 H 0.3570 0.7254 0.4672
C28 C 0.2834(2) 0.7872(3) 0.3959(2)
H20 H 0.3009 0.7742 0.3530
C29 C 0.3300(3) 0.7448(4) 0.6035(3)
H21 H 0.3248 0.6810 0.6058
H22 H 0.3111 0.7722 0.6429
H23 H 0.3777 0.7594 0.6090
I2 I 0.62774(2) 0.44468(2) 0.23296(2)
Cl2 Cl 0.49662(8) 0.50795(11) 0.08455(6)
S2 S 0.36687(6) 0.55000(8) 0.31627(7)
O3 O 0.39227(16) 0.5601(2) 0.39396(17)
O4 O 0.32404(17) 0.6169(2) 0.2761(2)
N2 N 0.43236(16) 0.5435(2) 0.27388(18)
C30 C 0.50233(19) 0.5077(3) 0.3070(2)
C31 C 0.5304(2) 0.4923(3) 0.2347(2)
C32 C 0.4856(2) 0.5140(3) 0.1756(2)
C33 C 0.4199(2) 0.5466(4) 0.1923(2)
H24 H 0.4102 0.6070 0.1741
H25 H 0.3824 0.5076 0.1712
C34 C 0.49726(19) 0.4193(3) 0.3481(2)
C35 C 0.5067(2) 0.4140(3) 0.4250(2)
H26 H 0.5186 0.4653 0.4531
C36 C 0.4990(2) 0.3349(3) 0.4606(2)
H27 H 0.5058 0.3331 0.5124
C37 C 0.4814(3) 0.2586(3) 0.4204(3)
H28 H 0.4764 0.2049 0.4447
C38 C 0.4710(2) 0.2616(3) 0.3434(3)
H29 H 0.4582 0.2103 0.3156
C39 C 0.4798(2) 0.3411(3) 0.3083(2)
H30 H 0.4738 0.3425 0.2566
C40 C 0.5465(2) 0.5791(3) 0.3520(2)
C41 C 0.6081(2) 0.5568(3) 0.3963(2)
H31 H 0.6201 0.4968 0.4025
C42 C 0.6519(2) 0.6206(3) 0.4313(2)
H32 H 0.6924 0.6024 0.4612
C43 C 0.6379(2) 0.7114(3) 0.4235(2)
C44 C 0.5752(2) 0.7336(3) 0.3796(2)
H33 H 0.5629 0.7936 0.3742
C45 C 0.5309(2) 0.6697(3) 0.3440(2)
H34 H 0.4902 0.6874 0.3144
C46 C 0.6866(3) 0.7790(3) 0.4613(3)
C47 C 0.7563(3) 0.7603(4) 0.4778(3)
H35 H 0.7725 0.7061 0.4629
C48 C 0.8019(3) 0.8213(5) 0.5159(4)
H36 H 0.8481 0.8073 0.5273
C49 C 0.7793(4) 0.9018(5) 0.5369(5)
H37 H 0.8101 0.9425 0.5626
C50 C 0.7116(4) 0.9226(4) 0.5201(5)
H38 H 0.6966 0.9782 0.5334
C51 C 0.6646(3) 0.8609(3) 0.4831(3)
H39 H 0.6184 0.8752 0.4732
C52 C 0.3225(2) 0.4482(3) 0.3015(3)
C53 C 0.3296(2) 0.3831(4) 0.3550(3)
H40 H 0.3554 0.3944 0.4017
C54 C 0.2990(3) 0.3011(4) 0.3404(4)
H41 H 0.3038 0.2580 0.3777
C55 C 0.2611(3) 0.2813(4) 0.2709(4)
C56 C 0.2528(3) 0.3479(4) 0.2189(3)
H42 H 0.2261 0.3369 0.1726
C57 C 0.2826(2) 0.4313(4) 0.2326(3)
H43 H 0.2759 0.4755 0.1961
C58 C 0.2306(3) 0.1890(4) 0.2530(5)
H44 H 0.1947 0.1927 0.2104
H45 H 0.2123 0.1669 0.2949
H46 H 0.2654 0.1490 0.2424
loop_
_geom_bond_atom_site_label_1
_geom_bond_atom_site_label_2
_geom_bond_site_symmetry_1
_geom_bond_site_symmetry_2
I1 C2 1_555 1_555
Cl1 C3 1_555 1_555
S1 O1 1_555 1_555
O2 S1 1_555 1_555
N1 S1 1_555 1_555
C1 N1 1_555 1_555
C2 C1 1_555 1_555
C3 C2 1_555 1_555
C4 N1 1_555 1_555
H1 C4 1_555 1_555
H2 C4 1_555 1_555
C5 C1 1_555 1_555
C6 C5 1_555 1_555
H3 C6 1_555 1_555
C7 C6 1_555 1_555
H4 C7 1_555 1_555
C8 C7 1_555 1_555
H5 C8 1_555 1_555
C9 C8 1_555 1_555
H6 C9 1_555 1_555
C10 C5 1_555 1_555
H7 C10 1_555 1_555
C11 C1 1_555 1_555
C12 C11 1_555 1_555
H8 C12 1_555 1_555
C13 C12 1_555 1_555
H9 C13 1_555 1_555
C14 C13 1_555 1_555
C15 C14 1_555 1_555
H10 C15 1_555 1_555
C16 C11 1_555 1_555
H11 C16 1_555 1_555
C17 C14 1_555 1_555
C18 C17 1_555 1_555
H12 C18 1_555 1_555
C19 C18 1_555 1_555
H13 C19 1_555 1_555
C20 C19 1_555 1_555
H14 C20 1_555 1_555
C21 C20 1_555 1_555
H15 C21 1_555 1_555
C22 C17 1_555 1_555
H16 C22 1_555 1_555
C23 S1 1_555 1_555
C24 C23 1_555 1_555
H17 C24 1_555 1_555
C25 C24 1_555 1_555
H18 C25 1_555 1_555
C26 C25 1_555 1_555
C27 C26 1_555 1_555
H19 C27 1_555 1_555
C28 C23 1_555 1_555
H20 C28 1_555 1_555
C29 C26 1_555 1_555
H21 C29 1_555 1_555
H22 C29 1_555 1_555
H23 C29 1_555 1_555
I2 C31 1_555 1_555
Cl2 C32 1_555 1_555
S2 O3 1_555 1_555
O4 S2 1_555 1_555
N2 S2 1_555 1_555
C30 N2 1_555 1_555
C31 C30 1_555 1_555
C32 C31 1_555 1_555
C33 N2 1_555 1_555
H24 C33 1_555 1_555
H25 C33 1_555 1_555
C34 C30 1_555 1_555
C35 C34 1_555 1_555
H26 C35 1_555 1_555
C36 C35 1_555 1_555
H27 C36 1_555 1_555
C37 C36 1_555 1_555
H28 C37 1_555 1_555
C38 C37 1_555 1_555
H29 C38 1_555 1_555
C39 C34 1_555 1_555
H30 C39 1_555 1_555
C40 C30 1_555 1_555
C41 C40 1_555 1_555
H31 C41 1_555 1_555
C42 C41 1_555 1_555
H32 C42 1_555 1_555
C43 C42 1_555 1_555
C44 C43 1_555 1_555
H33 C44 1_555 1_555
C45 C40 1_555 1_555
H34 C45 1_555 1_555
C46 C43 1_555 1_555
C47 C46 1_555 1_555
H35 C47 1_555 1_555
C48 C47 1_555 1_555
H36 C48 1_555 1_555
C49 C48 1_555 1_555
H37 C49 1_555 1_555
C50 C49 1_555 1_555
H38 C50 1_555 1_555
C51 C46 1_555 1_555
H39 C51 1_555 1_555
C52 S2 1_555 1_555
C53 C52 1_555 1_555
H40 C53 1_555 1_555
C54 C53 1_555 1_555
H41 C54 1_555 1_555
C55 C54 1_555 1_555
C56 C55 1_555 1_555
H42 C56 1_555 1_555
C57 C52 1_555 1_555
H43 C57 1_555 1_555
C58 C55 1_555 1_555
H44 C58 1_555 1_555
H45 C58 1_555 1_555
H46 C58 1_555 1_555
C3 C4 1_555 1_555
C9 C10 1_555 1_555
C15 C16 1_555 1_555
C21 C22 1_555 1_555
C27 C28 1_555 1_555
C32 C33 1_555 1_555
C38 C39 1_555 1_555
C44 C45 1_555 1_555
C50 C51 1_555 1_555
C56 C57 1_555 1_555

#END
