
#######################################################################
#
#                 Cambridge Crystallographic Data Centre
#                                CCDC 
#
#######################################################################
#
# If this CIF has been generated from an entry in the Cambridge 
# Structural Database, then it will include bibliographic, chemical, 
# crystal, experimental, refinement or atomic coordinate data resulting 
# from the CCDC's data processing and validation procedures.
#
#######################################################################

data_HEFZAV
_chemical_formula_moiety         'C11 H8 Br1 N3 O3'
_chemical_name_systematic        
2-Amino-6-bromo-4-(nitromethyl)-4H-chromene-3-carbonitrile
_symmetry_cell_setting           monoclinic
_symmetry_space_group_name_H-M   'P 21'
_symmetry_Int_Tables_number      4
_space_group_name_Hall           'P 2yb'
loop_
_symmetry_equiv_pos_site_id
_symmetry_equiv_pos_as_xyz
1 x,y,z
2 -x,1/2+y,-z
_cell_length_a                   9.4259(17)
_cell_length_b                   5.1093(10)
_cell_length_c                   12.799(2)
_cell_angle_alpha                90
_cell_angle_beta                 110.279(3)
_cell_angle_gamma                90
_cell_volume                     578.19
_exptl_crystal_colour            colorless
_exptl_crystal_description       rod
_cell_formula_units_Z            2
loop_
_atom_site_label
_atom_site_type_symbol
_atom_site_fract_x
_atom_site_fract_y
_atom_site_fract_z
Br1 Br -0.17158(4) 0.73117(11) 0.92292(3)
O1 O 0.0984(2) 1.2187(9) 0.60642(19)
O2 O 0.5141(3) 1.2279(10) 0.8334(2)
O3 O 0.3448(3) 1.2508(10) 0.9114(2)
N1 N 0.2411(3) 1.2226(13) 0.4994(2)
H1 H 0.319(3) 1.239(14) 0.478(3)
H2 H 0.184(4) 1.353(6) 0.469(3)
N2 N 0.5152(4) 0.7073(11) 0.5950(3)
N3 N 0.4221(3) 1.1260(6) 0.8690(3)
C1 C 0.2166(4) 1.1032(8) 0.5852(3)
C2 C 0.2928(4) 0.8949(7) 0.6435(3)
C3 C 0.2636(4) 0.7863(6) 0.7434(3)
H3 H 0.2535 0.5922 0.7337
C4 C 0.1155(4) 0.8883(7) 0.7466(3)
C5 C 0.0429(4) 1.0967(7) 0.6827(3)
C6 C -0.0905(4) 1.2015(11) 0.6868(3)
H4 H -0.1366 1.3465 0.6411
C7 C -0.1563(4) 1.0919(8) 0.7585(3)
H5 H -0.2478 1.1600 0.7629
C8 C -0.0846(4) 0.8804(8) 0.8233(3)
C9 C 0.0484(4) 0.7777(7) 0.8179(3)
H6 H 0.0943 0.6316 0.8628
C10 C 0.4158(4) 0.7917(7) 0.6155(3)
C11 C 0.3969(4) 0.8392(7) 0.8538(3)
H7 H 0.3730 0.7657 0.9174
H8 H 0.4898 0.7532 0.8514
loop_
_geom_bond_atom_site_label_1
_geom_bond_atom_site_label_2
_geom_bond_site_symmetry_1
_geom_bond_site_symmetry_2
Br1 C8 1_555 1_555
O1 C1 1_555 1_555
O2 N3 1_555 1_555
O3 N3 1_555 1_555
N1 H1 1_555 1_555
H2 N1 1_555 1_555
N2 C10 1_555 1_555
N3 C11 1_555 1_555
C1 N1 1_555 1_555
C2 C1 1_555 1_555
C3 C2 1_555 1_555
H3 C3 1_555 1_555
C4 C3 1_555 1_555
C5 O1 1_555 1_555
C6 C5 1_555 1_555
H4 C6 1_555 1_555
C7 C6 1_555 1_555
H5 C7 1_555 1_555
C8 C7 1_555 1_555
C9 C4 1_555 1_555
H6 C9 1_555 1_555
C10 C2 1_555 1_555
C11 C3 1_555 1_555
H7 C11 1_555 1_555
H8 C11 1_555 1_555
C4 C5 1_555 1_555
C8 C9 1_555 1_555

#END
