
#######################################################################
#
#                 Cambridge Crystallographic Data Centre
#                                CCDC 
#
#######################################################################
#
# If this CIF has been generated from an entry in the Cambridge 
# Structural Database, then it will include bibliographic, chemical, 
# crystal, experimental, refinement or atomic coordinate data resulting 
# from the CCDC's data processing and validation procedures.
#
#######################################################################

data_HEGHEH
_chemical_formula_moiety         'C18 H21 N3 O4'
_chemical_name_systematic        
2-(N-(2-(2-Hydroxybenzamido)ethylammonioethyl)aminocarbonyl)phenolate
_symmetry_cell_setting           monoclinic
_symmetry_space_group_name_H-M   'P 21/c'
_symmetry_Int_Tables_number      14
_space_group_name_Hall           '-P 2ybc'
loop_
_symmetry_equiv_pos_site_id
_symmetry_equiv_pos_as_xyz
1 x,y,z
2 -x,1/2+y,1/2-z
3 -x,-y,-z
4 x,1/2-y,1/2+z
_cell_length_a                   10.775(2)
_cell_length_b                   11.668(2)
_cell_length_c                   14.290(3)
_cell_angle_alpha                90
_cell_angle_beta                 100.572(3)
_cell_angle_gamma                90
_cell_volume                     1766.08
_exptl_crystal_colour            colorless
_exptl_crystal_description       block
_chemical_melting_point          '424-425 K'
_cell_formula_units_Z            4
_exptl_crystal_recrystallization_method methanol/water(1:1)
loop_
_atom_site_label
_atom_site_type_symbol
_atom_site_fract_x
_atom_site_fract_y
_atom_site_fract_z
O1 O 0.25783(17) 0.84938(17) 0.16143(12)
H1 H 0.163(3) 0.859(2) 0.1689(19)
O2 O 0.02119(13) 0.86542(12) 0.13935(10)
O3 O 0.05542(12) 0.59885(11) 0.09812(10)
O4 O 0.15778(11) 0.26527(11) 0.19007(8)
N1 N -0.10065(14) 0.82938(13) -0.00209(12)
H2 H -0.1077(18) 0.8082(17) -0.0617(15)
N2 N -0.16556(14) 0.66339(13) 0.14445(11)
H3 H -0.1651(19) 0.7140(19) 0.2045(16)
H4 H -0.082(2) 0.6550(16) 0.1283(13)
N3 N -0.01223(13) 0.42939(14) 0.14451(11)
H5 H 0.0162(19) 0.3600(16) 0.1635(14)
C1 C 0.2439(2) 0.85329(18) 0.06505(16)
C2 C 0.3509(2) 0.8554(2) 0.0255(2)
H6 H 0.4301 0.8542 0.0647
C3 C 0.3415(3) 0.8591(2) -0.0718(2)
H7 H 0.4145 0.8604 -0.0979
C4 C 0.2256(3) 0.86092(19) -0.13090(18)
H8 H 0.2196 0.8634 -0.1966
C5 C 0.1186(2) 0.85910(16) -0.09136(14)
H9 H 0.0400 0.8613 -0.1311
C6 C 0.12491(17) 0.85403(14) 0.00666(13)
C7 C 0.01179(18) 0.84974(14) 0.05174(14)
C8 C -0.21575(17) 0.83078(16) 0.03666(14)
H10 H -0.2829 0.8634 -0.0103
H11 H -0.2036 0.8803 0.0921
C9 C -0.25665(16) 0.71342(16) 0.06488(13)
H12 H -0.3386 0.7197 0.0834
H13 H -0.2653 0.6626 0.0104
C10 C -0.19657(17) 0.54503(16) 0.17194(13)
H14 H -0.2876 0.5372 0.1635
H15 H -0.1621 0.5335 0.2389
C11 C -0.14582(15) 0.45342(15) 0.11464(13)
H16 H -0.1928 0.3833 0.1188
H17 H -0.1608 0.4767 0.0484
C12 C 0.07869(15) 0.50023(16) 0.12951(11)
C13 C 0.21071(15) 0.45751(15) 0.15188(11)
C14 C 0.30507(17) 0.53558(18) 0.14225(14)
H18 H 0.2827 0.6099 0.1226
C15 C 0.43006(19) 0.5058(2) 0.16096(18)
H19 H 0.4919 0.5592 0.1541
C16 C 0.4628(2) 0.3956(2) 0.19008(18)
H20 H 0.5475 0.3747 0.2032
C17 C 0.37225(19) 0.3160(2) 0.20002(15)
H21 H 0.3969 0.2421 0.2195
C18 C 0.24289(16) 0.34399(17) 0.18141(12)
loop_
_geom_bond_atom_site_label_1
_geom_bond_atom_site_label_2
_geom_bond_site_symmetry_1
_geom_bond_site_symmetry_2
O1 H1 1_555 1_555
O2 C7 1_555 1_555
O3 C12 1_555 1_555
O4 C18 1_555 1_555
N1 H2 1_555 1_555
N2 H3 1_555 1_555
H4 N2 1_555 1_555
N3 H5 1_555 1_555
C1 O1 1_555 1_555
C2 C1 1_555 1_555
H6 C2 1_555 1_555
C3 C2 1_555 1_555
H7 C3 1_555 1_555
C4 C3 1_555 1_555
H8 C4 1_555 1_555
C5 C4 1_555 1_555
H9 C5 1_555 1_555
C6 C1 1_555 1_555
C7 N1 1_555 1_555
C8 N1 1_555 1_555
H10 C8 1_555 1_555
H11 C8 1_555 1_555
C9 N2 1_555 1_555
H12 C9 1_555 1_555
H13 C9 1_555 1_555
C10 N2 1_555 1_555
H14 C10 1_555 1_555
H15 C10 1_555 1_555
C11 N3 1_555 1_555
H16 C11 1_555 1_555
H17 C11 1_555 1_555
C12 N3 1_555 1_555
C13 C12 1_555 1_555
C14 C13 1_555 1_555
H18 C14 1_555 1_555
C15 C14 1_555 1_555
H19 C15 1_555 1_555
C16 C15 1_555 1_555
H20 C16 1_555 1_555
C17 C16 1_555 1_555
H21 C17 1_555 1_555
C18 C13 1_555 1_555
C5 C6 1_555 1_555
C6 C7 1_555 1_555
C8 C9 1_555 1_555
C10 C11 1_555 1_555
C17 C18 1_555 1_555

#END
