
#######################################################################
#
#                 Cambridge Crystallographic Data Centre
#                                CCDC 
#
#######################################################################
#
# If this CIF has been generated from an entry in the Cambridge 
# Structural Database, then it will include bibliographic, chemical, 
# crystal, experimental, refinement or atomic coordinate data resulting 
# from the CCDC's data processing and validation procedures.
#
#######################################################################

data_HEGWIC
_chemical_formula_moiety         'C39 H34 N4 O2'
_chemical_name_systematic        
'ethyl 6-benzyl-1,3,7,9-tetraphenyl-1,2,7,8-tetraazaspiro[4.4]nona-2,8-diene-6-carboxylate'
_symmetry_cell_setting           monoclinic
_symmetry_space_group_name_H-M   'P 21/c'
_symmetry_Int_Tables_number      14
_space_group_name_Hall           '-P 2ybc'
loop_
_symmetry_equiv_pos_site_id
_symmetry_equiv_pos_as_xyz
1 x,y,z
2 -x,1/2+y,1/2-z
3 -x,-y,-z
4 x,1/2-y,1/2+z
_cell_length_a                   9.704(3)
_cell_length_b                   18.770(5)
_cell_length_c                   17.000(4)
_cell_angle_alpha                90
_cell_angle_beta                 102.647(5)
_cell_angle_gamma                90
_cell_volume                     3021.32
_exptl_crystal_colour            colorless
_exptl_crystal_description       Plate
_cell_formula_units_Z            4
loop_
_atom_site_label
_atom_site_type_symbol
_atom_site_fract_x
_atom_site_fract_y
_atom_site_fract_z
O1 O 0.62898(18) 0.38915(9) 0.79222(10)
O2 O 0.59932(18) 0.40123(8) 0.65759(9)
N1 N 0.55816(18) 0.24140(9) 0.77248(11)
N2 N 0.44928(18) 0.19234(9) 0.75009(10)
N3 N 0.32167(19) 0.34442(9) 0.67745(10)
N4 N 0.24498(19) 0.37832(9) 0.60918(10)
C1 C 0.5671(2) 0.28676(11) 0.70294(13)
C2 C 0.4086(2) 0.28336(11) 0.65428(12)
C3 C 0.3672(2) 0.21208(11) 0.68354(12)
C4 C 0.3826(2) 0.29307(11) 0.56218(12)
H1 H 0.4691 0.3059 0.5459
H2 H 0.3446 0.2499 0.5342
C5 C 0.2769(2) 0.35266(11) 0.54554(12)
C6 C 0.6774(2) 0.25711(11) 0.65675(13)
H3 H 0.6772 0.2884 0.6113
H4 H 0.7700 0.2609 0.6924
C7 C 0.6607(2) 0.18111(11) 0.62494(14)
C8 C 0.6942(2) 0.12302(12) 0.67639(15)
H5 H 0.7207 0.1304 0.7318
C9 C 0.6886(3) 0.05411(13) 0.64590(16)
H6 H 0.7104 0.0157 0.6810
C10 C 0.6507(3) 0.04234(13) 0.56372(16)
H7 H 0.6466 -0.0038 0.5435
C11 C 0.6192(2) 0.09948(13) 0.51208(15)
H8 H 0.5945 0.0919 0.4567
C12 C 0.6242(2) 0.16847(12) 0.54247(14)
H9 H 0.6029 0.2067 0.5071
C13 C 0.6624(2) 0.22373(11) 0.84140(12)
C14 C 0.6295(2) 0.17401(12) 0.89515(13)
H10 H 0.5391 0.1547 0.8859
C15 C 0.7296(3) 0.15305(13) 0.96213(14)
H11 H 0.7065 0.1192 0.9970
C16 C 0.8637(3) 0.18207(13) 0.97764(14)
H12 H 0.9314 0.1676 1.0224
C17 C 0.8954(2) 0.23279(13) 0.92575(14)
H13 H 0.9850 0.2531 0.9363
C18 C 0.7964(2) 0.25412(12) 0.85819(14)
H14 H 0.8195 0.2887 0.8241
C19 C 0.2526(2) 0.16452(11) 0.64339(12)
C20 C 0.1181(2) 0.18969(12) 0.60867(13)
H15 H 0.1005 0.2384 0.6063
C21 C 0.0106(2) 0.14234(13) 0.57759(13)
H16 H -0.0795 0.1594 0.5552
C22 C 0.0364(2) 0.06983(13) 0.57965(13)
H17 H -0.0366 0.0382 0.5597
C23 C 0.1702(3) 0.04448(13) 0.61125(14)
H18 H 0.1881 -0.0042 0.6113
C24 C 0.2780(2) 0.09149(12) 0.64296(14)
H19 H 0.3683 0.0742 0.6642
C25 C 0.2536(2) 0.34766(11) 0.74400(12)
C26 C 0.3290(2) 0.34009(11) 0.82314(13)
H20 H 0.4234 0.3265 0.8337
C27 C 0.2627(3) 0.35291(12) 0.88647(14)
H21 H 0.3137 0.3473 0.9392
C28 C 0.1237(3) 0.37370(12) 0.87303(14)
H22 H 0.0816 0.3832 0.9161
C29 C 0.0475(3) 0.38028(13) 0.79450(15)
H23 H -0.0469 0.3939 0.7845
C30 C 0.1112(2) 0.36668(12) 0.73068(14)
H24 H 0.0583 0.3703 0.6781
C31 C 0.2082(2) 0.37966(12) 0.46506(13)
C32 C 0.1258(3) 0.44154(13) 0.45759(14)
H25 H 0.1227 0.4685 0.5031
C33 C 0.0491(3) 0.46281(16) 0.38303(16)
H26 H -0.0059 0.5038 0.3786
C34 C 0.0537(3) 0.42350(17) 0.31530(15)
H27 H 0.0008 0.4375 0.2653
C35 C 0.1369(3) 0.36340(16) 0.32180(15)
H28 H 0.1409 0.3372 0.2759
C36 C 0.2146(2) 0.34178(13) 0.39614(13)
H29 H 0.2716 0.3015 0.3998
C37 C 0.6024(2) 0.36456(12) 0.72559(14)
C38 C 0.6063(3) 0.47902(13) 0.66522(19)
H30 H 0.6863 0.4918 0.7079
H31 H 0.6216 0.4993 0.6154
C39 C 0.4792(6) 0.5091(2) 0.6828(3)
H32 H 0.4022 0.5028 0.6371
H33 H 0.4932 0.5589 0.6942
H34 H 0.4578 0.4853 0.7287
H35? H 0.7026 0.4957 0.6836
H36? H 0.5489 0.4965 0.7012
C40? C 0.5386(7) 0.5022(3) 0.5683(4)
H37? H 0.5954 0.4821 0.5343
H38? H 0.5382 0.5532 0.5635
H39? H 0.4437 0.4846 0.5522
loop_
_geom_bond_atom_site_label_1
_geom_bond_atom_site_label_2
_geom_bond_site_symmetry_1
_geom_bond_site_symmetry_2
O1 C37 1_555 1_555
O2 C37 1_555 1_555
N1 N2 1_555 1_555
N2 C3 1_555 1_555
N3 N4 1_555 1_555
N4 C5 1_555 1_555
C1 N1 1_555 1_555
C2 N3 1_555 1_555
C3 C2 1_555 1_555
C4 C2 1_555 1_555
H1 C4 1_555 1_555
H2 C4 1_555 1_555
C5 C4 1_555 1_555
C6 C1 1_555 1_555
H3 C6 1_555 1_555
H4 C6 1_555 1_555
C7 C6 1_555 1_555
C8 C7 1_555 1_555
H5 C8 1_555 1_555
C9 C8 1_555 1_555
H6 C9 1_555 1_555
C10 C9 1_555 1_555
H7 C10 1_555 1_555
C11 C10 1_555 1_555
H8 C11 1_555 1_555
C12 C7 1_555 1_555
H9 C12 1_555 1_555
C13 N1 1_555 1_555
C14 C13 1_555 1_555
H10 C14 1_555 1_555
C15 C14 1_555 1_555
H11 C15 1_555 1_555
C16 C15 1_555 1_555
H12 C16 1_555 1_555
C17 C16 1_555 1_555
H13 C17 1_555 1_555
C18 C13 1_555 1_555
H14 C18 1_555 1_555
C19 C3 1_555 1_555
C20 C19 1_555 1_555
H15 C20 1_555 1_555
C21 C20 1_555 1_555
H16 C21 1_555 1_555
C22 C21 1_555 1_555
H17 C22 1_555 1_555
C23 C22 1_555 1_555
H18 C23 1_555 1_555
C24 C19 1_555 1_555
H19 C24 1_555 1_555
C25 N3 1_555 1_555
C26 C25 1_555 1_555
H20 C26 1_555 1_555
C27 C26 1_555 1_555
H21 C27 1_555 1_555
C28 C27 1_555 1_555
H22 C28 1_555 1_555
C29 C28 1_555 1_555
H23 C29 1_555 1_555
C30 C25 1_555 1_555
H24 C30 1_555 1_555
C31 C5 1_555 1_555
C32 C31 1_555 1_555
H25 C32 1_555 1_555
C33 C32 1_555 1_555
H26 C33 1_555 1_555
C34 C33 1_555 1_555
H27 C34 1_555 1_555
C35 C34 1_555 1_555
H28 C35 1_555 1_555
C36 C31 1_555 1_555
H29 C36 1_555 1_555
C37 C1 1_555 1_555
C38 O2 1_555 1_555
H30 C38 1_555 1_555
H31 C38 1_555 1_555
C39 C38 1_555 1_555
H32 C39 1_555 1_555
H33 C39 1_555 1_555
H34 C39 1_555 1_555
C1 C2 1_555 1_555
C11 C12 1_555 1_555
C17 C18 1_555 1_555
C23 C24 1_555 1_555
C29 C30 1_555 1_555
C35 C36 1_555 1_555

#END
