
#######################################################################
#
#                 Cambridge Crystallographic Data Centre
#                                CCDC 
#
#######################################################################
#
# If this CIF has been generated from an entry in the Cambridge 
# Structural Database, then it will include bibliographic, chemical, 
# crystal, experimental, refinement or atomic coordinate data resulting 
# from the CCDC's data processing and validation procedures.
#
#######################################################################

data_HEHDOP01
_chemical_name_common            '4-Ethylanilinium tetrafluoroborate 18-crown-6'
_chemical_formula_moiety         'C12 H24 O6,C8 H12 N1 1+,B1 F4 1-'
_chemical_name_systematic        
'4-Ethylanilinium tetrafluoroborate 1,4,7,10,13,16-hexaoxacyclooctadecane'
_symmetry_cell_setting           orthorhombic
_symmetry_space_group_name_H-M   'P n m a'
_symmetry_Int_Tables_number      62
_space_group_name_Hall           '-P 2ac 2n'
loop_
_symmetry_equiv_pos_site_id
_symmetry_equiv_pos_as_xyz
1 x,y,z
2 1/2-x,-y,1/2+z
3 -x,1/2+y,-z
4 1/2+x,1/2-y,1/2-z
5 -x,-y,-z
6 1/2+x,y,1/2-z
7 x,1/2-y,z
8 1/2-x,1/2+y,1/2+z
_cell_length_a                   16.6456(13)
_cell_length_b                   11.400(2)
_cell_length_c                   12.9202(16)
_cell_angle_alpha                90
_cell_angle_beta                 90
_cell_angle_gamma                90
_cell_volume                     2451.74
_cell_formula_units_Z            4
loop_
_atom_site_label
_atom_site_type_symbol
_atom_site_fract_x
_atom_site_fract_y
_atom_site_fract_z
B1 B 0.3997(4) 0.2500 0.7154(6)
F1 F 0.4791(2) 0.2500 0.6823(5)
F2 F 0.3869(2) 0.3500(3) 0.7718(3)
F3 F 0.3522(2) 0.2500 0.6286(3)
F2F F 0.3869(2) 0.1500(3) 0.7718(3)
C1 C -0.0602(4) 0.2500 0.4552(7)
H1 H -0.1028 0.2500 0.5052
H2 H -0.0643 0.3188 0.4126
C2 C 0.0116(4) 0.2500 0.5005(5)
H3 H 0.0145 0.1813 0.5447
C3 C 0.0865(3) 0.2500 0.4322(4)
C4 C 0.1210(2) 0.3545(5) 0.3988(3)
H4 H 0.0984 0.4257 0.4183
C5 C 0.1894(2) 0.3546(3) 0.3373(3)
H5 H 0.2120 0.4252 0.3160
C6 C 0.2232(2) 0.2500 0.3075(3)
N1 N 0.29482(19) 0.2500 0.2399(3)
H2F H -0.0643 0.1812 0.4126
H3F H 0.0145 0.3187 0.5447
C4F C 0.1210(2) 0.1455(5) 0.3988(3)
H4F H 0.0984 0.0743 0.4183
C5F C 0.1894(2) 0.1454(3) 0.3373(3)
H5F H 0.2120 0.0748 0.3160
C7 C 0.4625(2) 0.3539(3) 0.4054(3)
H6 H 0.4196 0.3634 0.4554
H7 H 0.5130 0.3492 0.4425
C8 C 0.4636(2) 0.4553(3) 0.3330(3)
H8 H 0.5033 0.4423 0.2792
H9 H 0.4780 0.5261 0.3702
C9 C 0.3856(2) 0.5572(3) 0.2090(3)
H10 H 0.4004 0.6321 0.2391
H11 H 0.4247 0.5377 0.1562
C10 C 0.3045(2) 0.5660(3) 0.1616(3)
H12 H 0.3028 0.6312 0.1135
H13 H 0.2646 0.5796 0.2151
C11 C 0.2127(2) 0.4596(4) 0.0539(3)
H14 H 0.1685 0.4579 0.1027
H15 H 0.2084 0.5307 0.0130
C12 C 0.2094(3) 0.3545(4) -0.0151(3)
H16 H 0.2557 0.3536 -0.0606
H17 H 0.1614 0.3583 -0.0577
O1 O 0.45033(19) 0.2500 0.3471(3)
O2 O 0.38547(14) 0.46880(19) 0.28736(17)
O3 O 0.28734(14) 0.4582(2) 0.10810(19)
O4 O 0.2081(2) 0.2500 0.0460(2)
C7F C 0.4625(2) 0.1461(3) 0.4054(3)
H6F H 0.4196 0.1366 0.4554
H7F H 0.5130 0.1508 0.4425
C8F C 0.4636(2) 0.0447(3) 0.3330(3)
H8F H 0.5033 0.0577 0.2792
H9F H 0.4780 -0.0261 0.3702
C9F C 0.3856(2) -0.0572(3) 0.2090(3)
H10F H 0.4004 -0.1321 0.2391
H11F H 0.4247 -0.0377 0.1562
C10F C 0.3045(2) -0.0660(3) 0.1616(3)
H12F H 0.3028 -0.1312 0.1135
H13F H 0.2646 -0.0796 0.2151
C11F C 0.2127(2) 0.0404(4) 0.0539(3)
H14F H 0.1685 0.0421 0.1027
H15F H 0.2084 -0.0307 0.0130
C12F C 0.2094(3) 0.1455(4) -0.0151(3)
H16F H 0.2557 0.1464 -0.0606
H17F H 0.1614 0.1417 -0.0577
O2F O 0.38547(14) 0.03120(19) 0.28736(17)
O3F O 0.28734(14) 0.0418(2) 0.10810(19)
H18? H 0.3371 0.2766 0.2749
H19? H 0.2858 0.2961 0.1855
H20? H 0.3046 0.1773 0.2182
loop_
_geom_bond_atom_site_label_1
_geom_bond_atom_site_label_2
_geom_bond_site_symmetry_1
_geom_bond_site_symmetry_2
B1 F1 1_555 1_555
C1 H1 1_555 1_555
H2 C1 1_555 1_555
C2 C1 1_555 1_555
H3 C2 1_555 1_555
C3 C2 1_555 1_555
C4 C3 1_555 1_555
H4 C4 1_555 1_555
C5 C4 1_555 1_555
H5 C5 1_555 1_555
C6 C5 1_555 1_555
C7 H6 1_555 1_555
H7 C7 1_555 1_555
C8 C7 1_555 1_555
H8 C8 1_555 1_555
H9 C8 1_555 1_555
C9 H10 1_555 1_555
H11 C9 1_555 1_555
C10 C9 1_555 1_555
H12 C10 1_555 1_555
H13 C10 1_555 1_555
C11 H14 1_555 1_555
H15 C11 1_555 1_555
C12 C11 1_555 1_555
H16 C12 1_555 1_555
H17 C12 1_555 1_555
F2 B1 1_555 1_555
F3 B1 1_555 1_555
N1 C6 1_555 1_555
O1 C7 1_555 1_555
O2 C8 1_555 1_555
O3 C10 1_555 1_555
O4 C12 1_555 1_555
H2F C1 1_555 1_555
H3F C2 1_555 1_555
C4F C3 1_555 1_555
H4F C4F 1_555 1_555
C5F C6 1_555 1_555
H5F C5F 1_555 1_555
C7F O1 1_555 1_555
H6F C7F 1_555 1_555
H7F C7F 1_555 1_555
C8F C7F 1_555 1_555
H8F C8F 1_555 1_555
H9F C8F 1_555 1_555
C9F H10F 1_555 1_555
H11F C9F 1_555 1_555
C10F C9F 1_555 1_555
H12F C10F 1_555 1_555
H13F C10F 1_555 1_555
C11F H14F 1_555 1_555
H15F C11F 1_555 1_555
C12F O4 1_555 1_555
H16F C12F 1_555 1_555
H17F C12F 1_555 1_555
F2F B1 1_555 1_555
O2F C8F 1_555 1_555
O3F C10F 1_555 1_555
C9 O2 1_555 1_555
C11 O3 1_555 1_555
C4F C5F 1_555 1_555
C9F O2F 1_555 1_555
C11F C12F 1_555 1_555
C11F O3F 1_555 1_555

#END
