
#######################################################################
#
#                 Cambridge Crystallographic Data Centre
#                                CCDC 
#
#######################################################################
#
# If this CIF has been generated from an entry in the Cambridge 
# Structural Database, then it will include bibliographic, chemical, 
# crystal, experimental, refinement or atomic coordinate data resulting 
# from the CCDC's data processing and validation procedures.
#
#######################################################################

data_HEHNAL
_chemical_formula_moiety         'C9 H8 Br1 N3 O1'
_chemical_name_systematic        
1-(4-bromophenyl)-4-(hydroxylmethyl)-1,2,3-triazole
_symmetry_cell_setting           monoclinic
_symmetry_space_group_name_H-M   'P 21/c'
_symmetry_Int_Tables_number      14
_space_group_name_Hall           '-P 2ybc'
loop_
_symmetry_equiv_pos_site_id
_symmetry_equiv_pos_as_xyz
1 x,y,z
2 -x,1/2+y,1/2-z
3 -x,-y,-z
4 x,1/2-y,1/2+z
_cell_length_a                   10.7857(8)
_cell_length_b                   7.6689(5)
_cell_length_c                   11.4484(9)
_cell_angle_alpha                90
_cell_angle_beta                 94.177(4)
_cell_angle_gamma                90
_cell_volume                     944.433
_exptl_crystal_colour            pink
_exptl_crystal_description       block
_cell_formula_units_Z            4
loop_
_atom_site_label
_atom_site_type_symbol
_atom_site_fract_x
_atom_site_fract_y
_atom_site_fract_z
Br1 Br 0.36948(8) 0.46431(12) 0.72808(8)
O1 O 1.0326(6) 0.1396(8) 0.1738(5)
H1 H 1.0576 0.2321 0.1483
N1 N 0.7911(7) 0.0083(9) 0.4392(7)
N2 N 0.7894(7) 0.1824(10) 0.4594(6)
C1 C 0.6913(8) 0.2547(12) 0.5216(7)
C2 C 0.5716(8) 0.2017(12) 0.4908(8)
H2 H 0.5556 0.1237 0.4294
N3 N 0.8885(7) -0.0224(10) 0.3809(7)
C3 C 0.6208(8) 0.4426(11) 0.6692(8)
H3 H 0.6360 0.5254 0.7278
C4 C 0.9505(8) 0.1282(11) 0.3650(8)
C5 C 0.7182(8) 0.3768(12) 0.6105(8)
H4 H 0.7995 0.4128 0.6297
C6 C 0.4751(8) 0.2649(12) 0.5516(8)
H5 H 0.3940 0.2272 0.5331
C7 C 1.0639(8) 0.1307(12) 0.2968(8)
H6 H 1.1148 0.2305 0.3207
H7 H 1.1124 0.0262 0.3143
C8 C 0.8883(8) 0.2614(12) 0.4140(8)
H8 H 0.9088 0.3792 0.4160
C9 C 0.5008(8) 0.3854(12) 0.6406(7)
loop_
_geom_bond_atom_site_label_1
_geom_bond_atom_site_label_2
_geom_bond_site_symmetry_1
_geom_bond_site_symmetry_2
Br1 C9 1_555 1_555
O1 H1 1_555 1_555
N1 N2 1_555 1_555
N2 C1 1_555 1_555
C1 C2 1_555 1_555
C2 H2 1_555 1_555
N3 N1 1_555 1_555
C3 H3 1_555 1_555
C4 N3 1_555 1_555
C5 C1 1_555 1_555
H4 C5 1_555 1_555
C6 C2 1_555 1_555
H5 C6 1_555 1_555
C7 O1 1_555 1_555
H6 C7 1_555 1_555
H7 C7 1_555 1_555
C8 N2 1_555 1_555
H8 C8 1_555 1_555
C9 C3 1_555 1_555
C3 C5 1_555 1_555
C4 C7 1_555 1_555
C4 C8 1_555 1_555
C6 C9 1_555 1_555

#END
