
#######################################################################
#
#                 Cambridge Crystallographic Data Centre
#                                CCDC 
#
#######################################################################
#
# If this CIF has been generated from an entry in the Cambridge 
# Structural Database, then it will include bibliographic, chemical, 
# crystal, experimental, refinement or atomic coordinate data resulting 
# from the CCDC's data processing and validation procedures.
#
#######################################################################

data_HEHNOZ
_chemical_formula_moiety         'C10 H7 F1 N4'
_chemical_name_systematic        
1-(4-cyanophenyl)-4-(fluoromethyl)-1,2,3-triazole
_symmetry_cell_setting           monoclinic
_symmetry_space_group_name_H-M   'P 21/c'
_symmetry_Int_Tables_number      14
_space_group_name_Hall           '-P 2ybc'
loop_
_symmetry_equiv_pos_site_id
_symmetry_equiv_pos_as_xyz
1 x,y,z
2 -x,1/2+y,1/2-z
3 -x,-y,-z
4 x,1/2-y,1/2+z
_cell_length_a                   10.7105(9)
_cell_length_b                   13.1279(14)
_cell_length_c                   13.2100(16)
_cell_angle_alpha                90
_cell_angle_beta                 91.813(6)
_cell_angle_gamma                90
_cell_volume                     1856.48
_exptl_crystal_colour            colorless
_cell_formula_units_Z            8
loop_
_atom_site_label
_atom_site_type_symbol
_atom_site_fract_x
_atom_site_fract_y
_atom_site_fract_z
F1 F 0.2121(2) 0.19775(17) 0.47729(18)
N1 N 0.1808(2) 0.5073(2) 0.3619(2)
N2 N 0.3010(3) 0.4767(2) 0.3491(2)
N3 N 0.3021(3) 0.3767(2) 0.3548(2)
N4 N 0.0284(3) 1.0075(3) 0.3618(3)
C1 C 0.1833(3) 0.3431(3) 0.3718(3)
C2 C 0.1064(3) 0.4249(3) 0.3769(3)
H1 H 0.018(3) 0.432(3) 0.387(3)
C3 C 0.1490(3) 0.6123(3) 0.3590(3)
C4 C 0.0242(3) 0.6399(3) 0.3568(3)
H2 H -0.0393 0.5893 0.3552
C5 C -0.0071(3) 0.7425(3) 0.3571(3)
H3 H -0.0924 0.7625 0.3561
C6 C 0.0861(3) 0.8159(3) 0.3588(3)
C7 C 0.2109(3) 0.7873(3) 0.3593(3)
H4 H 0.2744 0.8379 0.3594
C8 C 0.2429(3) 0.6849(3) 0.3597(3)
H5 H 0.3281 0.6648 0.3605
C9 C 0.1543(3) 0.2333(3) 0.3859(3)
H6 H 0.0627 0.2239 0.3883
H7 H 0.1850 0.1937 0.3280
C10 C 0.0545(3) 0.9229(3) 0.3599(3)
F2 F 0.71487(18) 0.60811(17) 0.30045(17)
N5 N 0.6838(2) 0.2861(2) 0.3839(2)
N6 N 0.8048(3) 0.3154(2) 0.3933(2)
N7 N 0.8061(3) 0.4153(2) 0.3943(2)
N8 N 0.5250(3) -0.2138(3) 0.3763(3)
C11 C 0.6857(3) 0.4508(3) 0.3847(3)
C12 C 0.6076(3) 0.3687(3) 0.3773(3)
H8 H 0.519(3) 0.366(3) 0.370(3)
C13 C 0.6517(3) 0.1806(3) 0.3826(3)
C14 C 0.5281(3) 0.1523(3) 0.3629(3)
H9 H 0.4657 0.2024 0.3496
C15 C 0.4977(3) 0.0502(3) 0.3629(3)
H10 H 0.4136 0.0300 0.3494
C16 C 0.5882(3) -0.0229(3) 0.3823(3)
C17 C 0.7124(3) 0.0061(3) 0.4012(3)
H11 H 0.7748 -0.0440 0.4144
C18 C 0.7437(3) 0.1085(3) 0.4006(3)
H12 H 0.8279 0.1290 0.4124
C19 C 0.6565(3) 0.5615(3) 0.3834(3)
H13 H 0.5649 0.5715 0.3772
H14 H 0.6868 0.5933 0.4475
C20 C 0.5547(3) -0.1298(3) 0.3795(3)
loop_
_geom_bond_atom_site_label_1
_geom_bond_atom_site_label_2
_geom_bond_site_symmetry_1
_geom_bond_site_symmetry_2
F1 C9 1_555 1_555
N1 N2 1_555 1_555
N2 N3 1_555 1_555
N3 C1 1_555 1_555
N4 C10 1_555 1_555
C1 C2 1_555 1_555
C2 N1 1_555 1_555
H1 C2 1_555 1_555
C3 N1 1_555 1_555
C4 C3 1_555 1_555
H2 C4 1_555 1_555
C5 C4 1_555 1_555
H3 C5 1_555 1_555
C6 C5 1_555 1_555
C7 C6 1_555 1_555
H4 C7 1_555 1_555
C8 C3 1_555 1_555
H5 C8 1_555 1_555
C9 C1 1_555 1_555
H6 C9 1_555 1_555
H7 C9 1_555 1_555
C10 C6 1_555 1_555
F2 C19 1_555 1_555
N5 N6 1_555 1_555
N6 N7 1_555 1_555
N7 C11 1_555 1_555
N8 C20 1_555 1_555
C11 C12 1_555 1_555
C12 N5 1_555 1_555
H8 C12 1_555 1_555
C13 N5 1_555 1_555
C14 C13 1_555 1_555
H9 C14 1_555 1_555
C15 C14 1_555 1_555
H10 C15 1_555 1_555
C16 C15 1_555 1_555
C17 C16 1_555 1_555
H11 C17 1_555 1_555
C18 C13 1_555 1_555
H12 C18 1_555 1_555
C19 C11 1_555 1_555
H13 C19 1_555 1_555
H14 C19 1_555 1_555
C20 C16 1_555 1_555
C7 C8 1_555 1_555
C17 C18 1_555 1_555

#END
