
#######################################################################
#
#                 Cambridge Crystallographic Data Centre
#                                CCDC 
#
#######################################################################
#
# If this CIF has been generated from an entry in the Cambridge 
# Structural Database, then it will include bibliographic, chemical, 
# crystal, experimental, refinement or atomic coordinate data resulting 
# from the CCDC's data processing and validation procedures.
#
#######################################################################

data_HEHNOA02
_chemical_formula_moiety         'C14 H12 N4 O1'
_chemical_name_systematic        
2-{[(2-methyl-2H-benzotriazol-4-yl)imino]methyl}phenol
_symmetry_cell_setting           monoclinic
_symmetry_space_group_name_H-M   'P 21/c'
_symmetry_Int_Tables_number      14
_space_group_name_Hall           '-P 2ybc'
loop_
_symmetry_equiv_pos_site_id
_symmetry_equiv_pos_as_xyz
1 x,y,z
2 -x,1/2+y,1/2-z
3 -x,-y,-z
4 x,1/2-y,1/2+z
_cell_length_a                   4.0020(15)
_cell_length_b                   13.8430(5)
_cell_length_c                   44.722(6)
_cell_angle_alpha                90
_cell_angle_beta                 92.41(4)
_cell_angle_gamma                90
_cell_volume                     2475.39
_exptl_crystal_colour            orange
_exptl_crystal_description       block
_cell_formula_units_Z            8
loop_
_atom_site_label
_atom_site_type_symbol
_atom_site_fract_x
_atom_site_fract_y
_atom_site_fract_z
C1 C 0.1383(6) 0.06339(19) 0.38560(7)
C2 C 0.2599(7) 0.0289(2) 0.35909(8)
H1 H 0.370490 -0.030167 0.358822
C3 C 0.2174(7) 0.0817(3) 0.33317(7)
H2 H 0.299493 0.057748 0.315486
C4 C 0.0547(7) 0.1696(2) 0.33301(7)
H3 H 0.027049 0.205083 0.315411
C5 C -0.0656(6) 0.2039(2) 0.35935(6)
H4 H -0.176230 0.262990 0.359330
C6 C -0.0265(6) 0.15276(18) 0.38592(6)
C7 C -0.1636(5) 0.19103(18) 0.41301(6)
H5 H -0.269649 0.250806 0.412307
C8 C -0.2755(6) 0.18132(18) 0.46424(6)
C9 C -0.2434(7) 0.1255(2) 0.48955(6)
H6 H -0.142110 0.065285 0.488052
C10 C -0.3551(8) 0.1540(2) 0.51770(6)
H7 H -0.325203 0.112543 0.533948
C11 C -0.5049(7) 0.2406(2) 0.52158(6)
H8 H -0.574965 0.260117 0.540199
C12 C -0.5493(6) 0.2993(2) 0.49618(5)
C13 C -0.4388(5) 0.27158(18) 0.46800(5)
C14 C -0.8055(6) 0.49720(18) 0.45256(6)
H9 H -0.624017 0.539301 0.447974
H10 H -0.943040 0.527922 0.466844
H11 H -0.937099 0.483664 0.434605
N1 N -0.1428(5) 0.14487(14) 0.43793(5)
N2 N -0.6995(5) 0.38696(16) 0.49382(4)
N3 N -0.6728(5) 0.40751(14) 0.46504(4)
N4 N -0.5205(5) 0.34289(14) 0.44818(4)
O1 O 0.1853(5) 0.00990(13) 0.41078(5)
H12 H 0.077(7) 0.046(2) 0.4255(6)
C15 C -0.2572(6) 0.7530(2) 0.25586(6)
C16 C -0.4275(7) 0.8065(3) 0.23393(6)
H13 H -0.506409 0.776861 0.216364
C17 C -0.4797(7) 0.9037(3) 0.23819(7)
H14 H -0.593832 0.939198 0.223364
C18 C -0.3662(7) 0.9491(2) 0.26396(7)
H15 H -0.400319 1.014987 0.266617
C19 C -0.2018(6) 0.8953(2) 0.28563(6)
H16 H -0.126258 0.925695 0.303188
C20 C -0.1436(5) 0.79715(19) 0.28236(5)
C21 C 0.0298(5) 0.7449(2) 0.30615(5)
H17 H 0.107412 0.778788 0.323010
C22 C 0.2365(5) 0.60279(18) 0.32915(5)
C23 C 0.2114(6) 0.50437(19) 0.32917(6)
H18 H 0.099785 0.474511 0.313015
C24 C 0.3462(7) 0.4459(2) 0.35245(7)
H19 H 0.318260 0.379355 0.351210
C25 C 0.5150(7) 0.4835(2) 0.37654(6)
H20 H 0.601938 0.444503 0.391906
C26 C 0.5527(6) 0.58439(19) 0.37722(5)
C27 C 0.4166(6) 0.64364(18) 0.35423(5)
C28 C 0.8208(6) 0.81386(19) 0.40097(5)
H21 H 0.958471 0.794665 0.418038
H22 H 0.646313 0.855828 0.407303
H23 H 0.954848 0.847334 0.386995
N5 N 0.0816(5) 0.65351(16) 0.30499(4)
N6 N 0.4975(4) 0.73668(15) 0.36068(4)
N7 N 0.6733(5) 0.72870(16) 0.38671(4)
N8 N 0.7149(5) 0.64072(17) 0.39790(4)
O2 O -0.2051(5) 0.65781(16) 0.25076(4)
H24 H -0.098(7) 0.631(2) 0.2687(7)
loop_
_geom_bond_atom_site_label_1
_geom_bond_atom_site_label_2
_geom_bond_site_symmetry_1
_geom_bond_site_symmetry_2
C1 C2 1_555 1_555
C2 H1 1_555 1_555
C3 C2 1_555 1_555
H2 C3 1_555 1_555
C4 C3 1_555 1_555
H3 C4 1_555 1_555
C5 C4 1_555 1_555
H4 C5 1_555 1_555
C6 C1 1_555 1_555
C7 C6 1_555 1_555
H5 C7 1_555 1_555
C8 C9 1_555 1_555
C9 H6 1_555 1_555
C10 C9 1_555 1_555
H7 C10 1_555 1_555
C11 C10 1_555 1_555
H8 C11 1_555 1_555
C12 C11 1_555 1_555
C13 C8 1_555 1_555
C14 H9 1_555 1_555
H10 C14 1_555 1_555
H11 C14 1_555 1_555
N1 C7 1_555 1_555
N2 C12 1_555 1_555
N3 C14 1_555 1_555
N4 C13 1_555 1_555
O1 C1 1_555 1_555
H12 O1 1_555 1_555
C15 C16 1_555 1_555
C16 H13 1_555 1_555
C17 C16 1_555 1_555
H14 C17 1_555 1_555
C18 C17 1_555 1_555
H15 C18 1_555 1_555
C19 C18 1_555 1_555
H16 C19 1_555 1_555
C20 C15 1_555 1_555
C21 C20 1_555 1_555
H17 C21 1_555 1_555
C22 C23 1_555 1_555
C23 H18 1_555 1_555
C24 C23 1_555 1_555
H19 C24 1_555 1_555
C25 C24 1_555 1_555
H20 C25 1_555 1_555
C26 C25 1_555 1_555
C27 C22 1_555 1_555
C28 H21 1_555 1_555
H22 C28 1_555 1_555
H23 C28 1_555 1_555
N5 C21 1_555 1_555
N6 C27 1_555 1_555
N7 C28 1_555 1_555
N8 C26 1_555 1_555
O2 C15 1_555 1_555
H24 O2 1_555 1_555
C5 C6 1_555 1_555
C8 N1 1_555 1_555
C12 C13 1_555 1_555
N2 N3 1_555 1_555
N3 N4 1_555 1_555
C19 C20 1_555 1_555
C22 N5 1_555 1_555
C26 C27 1_555 1_555
N6 N7 1_555 1_555
N7 N8 1_555 1_555

#END
