
#######################################################################
#
#                 Cambridge Crystallographic Data Centre
#                                CCDC 
#
#######################################################################
#
# If this CIF has been generated from an entry in the Cambridge 
# Structural Database, then it will include bibliographic, chemical, 
# crystal, experimental, refinement or atomic coordinate data resulting 
# from the CCDC's data processing and validation procedures.
#
#######################################################################

data_HEJNOB
_chemical_formula_moiety         'C18 H25 N3 O2'
_chemical_name_systematic        N^2^-(4-Cyanobenzoyl)-N,N-diethylleucinamide
_symmetry_cell_setting           monoclinic
_symmetry_space_group_name_H-M   'P 21/n'
_symmetry_Int_Tables_number      14
_space_group_name_Hall           '-P 2yn'
loop_
_symmetry_equiv_pos_site_id
_symmetry_equiv_pos_as_xyz
1 x,y,z
2 1/2-x,1/2+y,1/2-z
3 -x,-y,-z
4 1/2+x,1/2-y,1/2+z
_cell_length_a                   9.4313(3)
_cell_length_b                   10.4584(4)
_cell_length_c                   18.3036(7)
_cell_angle_alpha                90
_cell_angle_beta                 98.284(4)
_cell_angle_gamma                90
_cell_volume                     1786.56
_exptl_crystal_colour            colorless
_exptl_crystal_description       parallelepiped
_chemical_melting_point          '423 K'
_cell_formula_units_Z            4
_exptl_crystal_recrystallization_method hexane/dichloromethane
loop_
_atom_site_label
_atom_site_type_symbol
_atom_site_fract_x
_atom_site_fract_y
_atom_site_fract_z
O1 O -0.01116(9) 0.05250(8) 0.21593(4)
O2 O 0.20199(8) 0.02054(8) 0.05815(4)
N1 N -0.06664(10) -0.01798(10) 0.09931(5)
H1 H -0.1147(14) -0.0074(13) 0.0521(8)
N2 N 0.30166(10) -0.10108(10) 0.15424(5)
N3 N -0.56152(12) 0.55979(11) 0.10398(6)
C1 C -0.27076(13) 0.19344(12) 0.07220(6)
H2 H -0.2556 0.1436 0.0306
C2 C -0.36861(12) 0.29298(12) 0.06367(6)
H3 H -0.4195 0.3122 0.0163
C3 C -0.39197(12) 0.36454(11) 0.12469(6)
C4 C -0.31975(13) 0.33551(12) 0.19427(7)
H4 H -0.3379 0.3829 0.2362
C5 C -0.22130(12) 0.23693(12) 0.20176(6)
H5 H -0.1710 0.2174 0.2492
C6 C -0.19466(11) 0.16599(11) 0.14110(6)
C7 C -0.08274(11) 0.06289(11) 0.15464(6)
C8 C 0.04246(11) -0.11795(11) 0.11192(6)
H6 H 0.0432 -0.1531 0.1628
C9 C 0.18992(12) -0.05996(11) 0.10659(6)
C10 C 0.44185(12) -0.03911(12) 0.15433(7)
H7 H 0.4939 -0.0387 0.2053
H8 H 0.4267 0.0509 0.1383
C11 C 0.53297(13) -0.10566(13) 0.10404(8)
H9 H 0.6248 -0.0610 0.1060
H10 H 0.4829 -0.1047 0.0533
H11 H 0.5502 -0.1943 0.1203
C12 C 0.29716(13) -0.20804(12) 0.20603(6)
H12 H 0.3882 -0.2563 0.2095
H13 H 0.2186 -0.2667 0.1861
C13 C 0.27477(16) -0.16619(15) 0.28269(7)
H14 H 0.2730 -0.2415 0.3144
H15 H 0.1835 -0.1204 0.2800
H16 H 0.3533 -0.1096 0.3033
C14 C 0.00614(11) -0.22572(11) 0.05643(6)
H17 H 0.0893 -0.2842 0.0590
H18 H -0.0110 -0.1890 0.0061
C15 C -0.12567(13) -0.30248(12) 0.06974(7)
H19 H -0.2006 -0.2405 0.0806
C16 C -0.09176(17) -0.39066(16) 0.13633(8)
H20 H -0.1784 -0.4376 0.1439
H21 H -0.0582 -0.3396 0.1803
H22 H -0.0169 -0.4514 0.1275
C17 C -0.18656(17) -0.37784(16) 0.00210(8)
H23 H -0.2083 -0.3197 -0.0400
H24 H -0.2745 -0.4211 0.0112
H25 H -0.1164 -0.4416 -0.0087
C18 C -0.48821(13) 0.47258(12) 0.11429(6)
loop_
_geom_bond_atom_site_label_1
_geom_bond_atom_site_label_2
_geom_bond_site_symmetry_1
_geom_bond_site_symmetry_2
O1 C7 1_555 1_555
O2 C9 1_555 1_555
N1 H1 1_555 1_555
N2 C9 1_555 1_555
N3 C18 1_555 1_555
C1 H2 1_555 1_555
C2 C1 1_555 1_555
H3 C2 1_555 1_555
C3 C2 1_555 1_555
C4 C3 1_555 1_555
H4 C4 1_555 1_555
C5 C4 1_555 1_555
H5 C5 1_555 1_555
C6 C1 1_555 1_555
C7 N1 1_555 1_555
C8 N1 1_555 1_555
H6 C8 1_555 1_555
C9 C8 1_555 1_555
C10 N2 1_555 1_555
H7 C10 1_555 1_555
H8 C10 1_555 1_555
C11 C10 1_555 1_555
H9 C11 1_555 1_555
H10 C11 1_555 1_555
H11 C11 1_555 1_555
C12 N2 1_555 1_555
H12 C12 1_555 1_555
H13 C12 1_555 1_555
C13 C12 1_555 1_555
H14 C13 1_555 1_555
H15 C13 1_555 1_555
H16 C13 1_555 1_555
C14 C8 1_555 1_555
H17 C14 1_555 1_555
H18 C14 1_555 1_555
C15 C14 1_555 1_555
H19 C15 1_555 1_555
C16 C15 1_555 1_555
H20 C16 1_555 1_555
H21 C16 1_555 1_555
H22 C16 1_555 1_555
C17 C15 1_555 1_555
H23 C17 1_555 1_555
H24 C17 1_555 1_555
H25 C17 1_555 1_555
C18 C3 1_555 1_555
C5 C6 1_555 1_555
C6 C7 1_555 1_555

#END
