
#######################################################################
#
#                 Cambridge Crystallographic Data Centre
#                                CCDC 
#
#######################################################################
#
# If this CIF has been generated from an entry in the Cambridge 
# Structural Database, then it will include bibliographic, chemical, 
# crystal, experimental, refinement or atomic coordinate data resulting 
# from the CCDC's data processing and validation procedures.
#
#######################################################################

data_HEJYAW
_chemical_formula_moiety         'C37 H26 N6,C1 H1 Cl3'
_chemical_name_systematic        
"2,3-(3',6'-bis(2''-Pyridyl)-4',5'-pyridazino):6,7-bis(3''',6'''-diphenyl-4''',5'''-pyridazino)tetracyclo(6.3.0.0^4,11^.0^5,9^)undecane chloroform solvate"
_symmetry_cell_setting           monoclinic
_symmetry_space_group_name_H-M   'P 21/n'
_symmetry_Int_Tables_number      14
_space_group_name_Hall           '-P 2yn'
loop_
_symmetry_equiv_pos_site_id
_symmetry_equiv_pos_as_xyz
1 x,y,z
2 1/2-x,1/2+y,1/2-z
3 -x,-y,-z
4 1/2+x,1/2-y,1/2+z
_cell_length_a                   16.038(2)
_cell_length_b                   11.613(2)
_cell_length_c                   17.199(2)
_cell_angle_alpha                90
_cell_angle_beta                 96.800(9)
_cell_angle_gamma                90
_cell_volume                     3180.77
_exptl_crystal_colour            colorless
_chemical_melting_point          288.5-289.5deg.C
_cell_formula_units_Z            4
loop_
_atom_site_label
_atom_site_type_symbol
_atom_site_fract_x
_atom_site_fract_y
_atom_site_fract_z
C1 C 0.3141(3) 0.5411(4) 0.4839(2)
C2 C 0.2900(3) 0.4303(4) 0.4402(3)
C3 C 0.2743(3) 0.4746(4) 0.3541(3)
C4 C 0.2085(4) 0.3938(5) 0.3139(3)
C5 C 0.1479(3) 0.4077(4) 0.3727(3)
C6 C 0.1996(3) 0.3864(4) 0.4544(3)
C7 C 0.1576(3) 0.4621(4) 0.5077(3)
C8 C 0.1152(3) 0.5508(4) 0.4648(3)
C9 C 0.1346(3) 0.5389(4) 0.3811(3)
C10 C 0.2254(3) 0.5862(4) 0.3686(3)
C11 C 0.2738(3) 0.6322(4) 0.4432(2)
N1 N 0.3672(3) 0.6719(4) 0.5834(2)
N2 N 0.3277(3) 0.7594(3) 0.5449(2)
C12 C 0.3629(3) 0.5646(4) 0.5550(3)
C13 C 0.4142(3) 0.4788(4) 0.6040(3)
C14 C 0.4153(4) 0.4834(5) 0.6850(3)
C15 C 0.4627(5) 0.4056(6) 0.7323(4)
C16 C 0.5118(5) 0.3281(7) 0.6997(4)
C17 C 0.5138(4) 0.3226(5) 0.6192(4)
C18 C 0.4637(3) 0.4001(5) 0.5723(3)
C19 C 0.2831(3) 0.7424(4) 0.4738(3)
C20 C 0.2484(3) 0.8498(4) 0.4351(3)
C21 C 0.2885(4) 0.9546(5) 0.4512(4)
C22 C 0.2586(4) 1.0549(5) 0.4147(4)
C23 C 0.1883(4) 1.0514(5) 0.3614(4)
C24 C 0.1471(4) 0.9497(5) 0.3446(3)
C25 C 0.1773(3) 0.8493(5) 0.3810(3)
N3 N 0.1131(3) 0.5421(4) 0.6231(2)
N4 N 0.0687(3) 0.6218(4) 0.5816(2)
C26 C 0.1577(3) 0.4628(5) 0.5886(3)
C27 C 0.2051(4) 0.3796(5) 0.6426(3)
C28 C 0.1995(5) 0.3840(7) 0.7228(3)
C29 C 0.2455(6) 0.3031(9) 0.7695(4)
C30 C 0.2927(6) 0.2255(8) 0.7374(5)
C31 C 0.2956(4) 0.2267(6) 0.6574(4)
N5 N 0.2532(3) 0.3038(4) 0.6099(3)
C32 C 0.0691(3) 0.6282(5) 0.5027(3)
C33 C 0.0149(3) 0.7239(5) 0.4668(3)
C34 C -0.0182(4) 0.8070(6) 0.5118(4)
C35 C -0.0696(5) 0.8908(6) 0.4751(5)
C36 C -0.0858(4) 0.8895(6) 0.3949(5)
C37 C -0.0514(4) 0.8055(6) 0.3543(4)
N6 N -0.0013(3) 0.7221(4) 0.3885(3)
H1 H 0.333(2) 0.374(3) 0.445(2)
H2 H 0.329(2) 0.488(3) 0.333(2)
H3 H 0.191(3) 0.418(4) 0.264(3)
H4 H 0.234(3) 0.315(4) 0.315(2)
H5 H 0.091(2) 0.370(3) 0.368(2)
H6 H 0.206(3) 0.314(4) 0.469(3)
H7 H 0.091(3) 0.570(4) 0.347(2)
H8 H 0.224(2) 0.636(3) 0.325(2)
H9 H 0.375(3) 0.534(4) 0.707(3)
H10 H 0.456(4) 0.409(5) 0.786(3)
H11 H 0.542(3) 0.285(4) 0.725(3)
H12 H 0.553(3) 0.263(4) 0.593(3)
H13 H 0.466(2) 0.394(3) 0.521(2)
H14 H 0.335(3) 0.964(4) 0.486(3)
H15 H 0.284(3) 1.133(5) 0.432(3)
H16 H 0.165(3) 1.125(4) 0.341(3)
H17 H 0.095(3) 0.945(4) 0.310(3)
H18 H 0.143(2) 0.783(3) 0.373(2)
H19 H 0.157(3) 0.433(5) 0.743(3)
H20 H 0.235(4) 0.303(6) 0.826(4)
H21 H 0.331(4) 0.168(5) 0.763(4)
H22 H 0.341(3) 0.180(4) 0.632(3)
H23 H 0.000(3) 0.810(5) 0.566(3)
H24 H -0.097(4) 0.944(5) 0.503(3)
H25 H -0.120(3) 0.944(5) 0.372(3)
H26 H -0.054(4) 0.795(5) 0.297(3)
Cl1 Cl 0.4743(1) 0.1400(2) 0.45806(9)
Cl2 Cl 0.4196(1) 0.2265(1) 0.30502(9)
Cl3 Cl 0.5007(1) 0.0068(2) 0.3226(1)
C38 C 0.4967(4) 0.1439(5) 0.3615(3)
H27 H 0.552(3) 0.172(4) 0.354(3)
loop_
_geom_bond_atom_site_label_1
_geom_bond_atom_site_label_2
_geom_bond_site_symmetry_1
_geom_bond_site_symmetry_2
C1 C2 1_555 1_555
C2 C3 1_555 1_555
C3 C4 1_555 1_555
C4 C5 1_555 1_555
C5 C6 1_555 1_555
C6 C2 1_555 1_555
C7 C6 1_555 1_555
C8 C7 1_555 1_555
C9 C5 1_555 1_555
C10 C3 1_555 1_555
C11 C1 1_555 1_555
N1 N2 1_555 1_555
N2 C19 1_555 1_555
C12 C1 1_555 1_555
C13 C12 1_555 1_555
C14 C13 1_555 1_555
C15 C14 1_555 1_555
C16 C15 1_555 1_555
C17 C16 1_555 1_555
C18 C13 1_555 1_555
C19 C11 1_555 1_555
C20 C19 1_555 1_555
C21 C20 1_555 1_555
C22 C21 1_555 1_555
C23 C22 1_555 1_555
C24 C23 1_555 1_555
C25 C20 1_555 1_555
N3 N4 1_555 1_555
N4 C32 1_555 1_555
C26 C7 1_555 1_555
C27 C26 1_555 1_555
C28 C27 1_555 1_555
C29 C28 1_555 1_555
C30 C29 1_555 1_555
C31 C30 1_555 1_555
N5 C27 1_555 1_555
C32 C8 1_555 1_555
C33 C32 1_555 1_555
C34 C33 1_555 1_555
C35 C34 1_555 1_555
C36 C35 1_555 1_555
C37 C36 1_555 1_555
N6 C33 1_555 1_555
H1 C2 1_555 1_555
H2 C3 1_555 1_555
H3 C4 1_555 1_555
H4 C4 1_555 1_555
H5 C5 1_555 1_555
H6 C6 1_555 1_555
H7 C9 1_555 1_555
H8 C10 1_555 1_555
H9 C14 1_555 1_555
H10 C15 1_555 1_555
H11 C16 1_555 1_555
H12 C17 1_555 1_555
H13 C18 1_555 1_555
H14 C21 1_555 1_555
H15 C22 1_555 1_555
H16 C23 1_555 1_555
H17 C24 1_555 1_555
H18 C25 1_555 1_555
H19 C28 1_555 1_555
H20 C29 1_555 1_555
H21 C30 1_555 1_555
H22 C31 1_555 1_555
H23 C34 1_555 1_555
H24 C35 1_555 1_555
H25 C36 1_555 1_555
H26 C37 1_555 1_555
Cl1 C38 1_555 1_555
Cl2 C38 1_555 1_555
Cl3 C38 1_555 1_555
C38 H27 1_555 1_555
C8 C9 1_555 1_555
C9 C10 1_555 1_555
C10 C11 1_555 1_555
N1 C12 1_555 1_555
C17 C18 1_555 1_555
C24 C25 1_555 1_555
N3 C26 1_555 1_555
C31 N5 1_555 1_555
C37 N6 1_555 1_555

#END
