
#######################################################################
#
#                 Cambridge Crystallographic Data Centre
#                                CCDC 
#
#######################################################################
#
# If this CIF has been generated from an entry in the Cambridge 
# Structural Database, then it will include bibliographic, chemical, 
# crystal, experimental, refinement or atomic coordinate data resulting 
# from the CCDC's data processing and validation procedures.
#
#######################################################################

data_HEJZAA
_chemical_formula_moiety         'C23 H24 N2 O3'
_chemical_name_systematic        
7a-hydroxy-5'-methyl-2',3-diphenyl-3a,4,5,6,7,7a-hexahydro-3H-spiro[1-benzofuran-2,4'-pyrazol]-3'(2'H)-one
_symmetry_cell_setting           monoclinic
_symmetry_space_group_name_H-M   'P 21/c'
_symmetry_Int_Tables_number      14
_space_group_name_Hall           '-P 2ybc'
loop_
_symmetry_equiv_pos_site_id
_symmetry_equiv_pos_as_xyz
1 x,y,z
2 -x,1/2+y,1/2-z
3 -x,-y,-z
4 x,1/2-y,1/2+z
_cell_length_a                   12.6633(19)
_cell_length_b                   16.796(2)
_cell_length_c                   9.3590(15)
_cell_angle_alpha                90
_cell_angle_beta                 104.449(16)
_cell_angle_gamma                90
_cell_volume                     1927.63
_exptl_crystal_colour            colorless
_exptl_crystal_description       plate
_cell_formula_units_Z            4
loop_
_atom_site_label
_atom_site_type_symbol
_atom_site_fract_x
_atom_site_fract_y
_atom_site_fract_z
O1 O 0.31349(11) 0.39604(8) 0.54188(15)
O2 O 0.44410(11) 0.54433(8) 0.61858(15)
O3 O 0.36104(11) 0.36905(8) 0.32266(17)
H1 H 0.4130 0.3996 0.3475
N1 N 0.35250(13) 0.54154(9) 0.80614(18)
N2 N 0.26928(13) 0.49462(10) 0.84158(19)
C1 C 0.37093(16) 0.52154(11) 0.6728(2)
C2 C 0.18511(15) 0.59733(11) 0.4925(2)
C3 C 0.42279(16) 0.57557(11) 1.0659(2)
H2 H 0.3871 0.5316 1.0921
C4 C 0.22819(16) 0.45013(11) 0.7292(2)
C5 C 0.24204(16) 0.48208(11) 0.3398(2)
H3 H 0.3083 0.5131 0.3438
C6 C 0.41541(15) 0.59201(11) 0.9180(2)
C7 C 0.46698(16) 0.65849(12) 0.8776(2)
H4 H 0.4597 0.6704 0.7785
C8 C 0.27687(15) 0.46548(11) 0.6007(2)
C9 C 0.48367(16) 0.62516(12) 1.1739(2)
H5 H 0.4883 0.6148 1.2729
C10 C 0.27668(16) 0.39519(11) 0.3807(2)
C11 C 0.19599(15) 0.50879(11) 0.4685(2)
H6 H 0.1238 0.4846 0.4557
C12 C 0.24575(17) 0.65418(12) 0.4408(2)
H7 H 0.2930 0.6385 0.3844
C13 C 0.53778(17) 0.69025(12) 1.1347(2)
H8 H 0.5797 0.7228 1.2074
C14 C 0.18470(16) 0.33526(12) 0.3357(2)
H9 H 0.1334 0.3428 0.3961
H10 H 0.2142 0.2818 0.3531
C15 C 0.11443(17) 0.62314(12) 0.5760(2)
H11 H 0.0727 0.5860 0.6112
C16 C 0.52937(17) 0.70679(12) 0.9869(2)
H12 H 0.5658 0.7505 0.9611
C17 C 0.12497(17) 0.34403(12) 0.1730(2)
H13 H 0.1752 0.3344 0.1119
H14 H 0.0668 0.3051 0.1475
C18 C 0.23669(19) 0.73472(12) 0.4725(3)
H15 H 0.2778 0.7722 0.4370
C19 C 0.07753(17) 0.42787(12) 0.1442(2)
H16 H 0.0248 0.4364 0.2022
H17 H 0.0399 0.4331 0.0408
C20 C 0.16731(17) 0.49083(12) 0.1845(2)
H18 H 0.1336 0.5431 0.1760
H19 H 0.2115 0.4882 0.1136
C21 C 0.16665(18) 0.75900(12) 0.5566(3)
H20 H 0.1611 0.8126 0.5784
C22 C 0.10536(18) 0.70316(13) 0.6075(3)
H21 H 0.0577 0.7191 0.6632
C23 C 0.14042(18) 0.39153(13) 0.7305(2)
H22 H 0.1279 0.3893 0.8274
H23 H 0.1621 0.3399 0.7041
H24 H 0.0746 0.4075 0.6607
loop_
_geom_bond_atom_site_label_1
_geom_bond_atom_site_label_2
_geom_bond_site_symmetry_1
_geom_bond_site_symmetry_2
O1 C8 1_555 1_555
O2 C1 1_555 1_555
O3 H1 1_555 1_555
N1 N2 1_555 1_555
N2 C4 1_555 1_555
C1 N1 1_555 1_555
C2 C11 1_555 1_555
C3 H2 1_555 1_555
C4 C8 1_555 1_555
C5 H3 1_555 1_555
C6 N1 1_555 1_555
C7 C6 1_555 1_555
H4 C7 1_555 1_555
C8 C1 1_555 1_555
C9 C3 1_555 1_555
H5 C9 1_555 1_555
C10 O1 1_555 1_555
C11 C5 1_555 1_555
H6 C11 1_555 1_555
C12 C2 1_555 1_555
H7 C12 1_555 1_555
C13 C9 1_555 1_555
H8 C13 1_555 1_555
C14 C10 1_555 1_555
H9 C14 1_555 1_555
H10 C14 1_555 1_555
C15 C2 1_555 1_555
H11 C15 1_555 1_555
C16 C7 1_555 1_555
H12 C16 1_555 1_555
C17 C14 1_555 1_555
H13 C17 1_555 1_555
H14 C17 1_555 1_555
C18 C12 1_555 1_555
H15 C18 1_555 1_555
C19 C17 1_555 1_555
H16 C19 1_555 1_555
H17 C19 1_555 1_555
C20 C5 1_555 1_555
H18 C20 1_555 1_555
H19 C20 1_555 1_555
C21 C18 1_555 1_555
H20 C21 1_555 1_555
C22 C15 1_555 1_555
H21 C22 1_555 1_555
C23 C4 1_555 1_555
H22 C23 1_555 1_555
H23 C23 1_555 1_555
H24 C23 1_555 1_555
O3 C10 1_555 1_555
C3 C6 1_555 1_555
C5 C10 1_555 1_555
C8 C11 1_555 1_555
C13 C16 1_555 1_555
C19 C20 1_555 1_555
C21 C22 1_555 1_555

#END
