
#######################################################################
#
#                 Cambridge Crystallographic Data Centre
#                                CCDC 
#
#######################################################################
#
# If this CIF has been generated from an entry in the Cambridge 
# Structural Database, then it will include bibliographic, chemical, 
# crystal, experimental, refinement or atomic coordinate data resulting 
# from the CCDC's data processing and validation procedures.
#
#######################################################################

data_HEKPAR
_chemical_formula_moiety         'C14 H12 N2 O3 S1'
_chemical_name_systematic        
'(E)-4-(3-oxo-3-(thiazol-2-ylamino)prop-1-en-1-yl)phenyl acetate'
_symmetry_cell_setting           orthorhombic
_symmetry_space_group_name_H-M   'P b c a'
_symmetry_Int_Tables_number      61
_space_group_name_Hall           '-P 2ac 2ab'
loop_
_symmetry_equiv_pos_site_id
_symmetry_equiv_pos_as_xyz
1 x,y,z
2 1/2-x,-y,1/2+z
3 -x,1/2+y,1/2-z
4 1/2+x,1/2-y,-z
5 -x,-y,-z
6 1/2+x,y,1/2-z
7 x,1/2-y,1/2+z
8 1/2-x,1/2+y,z
_cell_length_a                   19.24650(16)
_cell_length_b                   10.27608(8)
_cell_length_c                   26.3581(2)
_cell_angle_alpha                90
_cell_angle_beta                 90
_cell_angle_gamma                90
_cell_volume                     5213.07
_exptl_crystal_colour            colorless
_exptl_crystal_description       block
_cell_formula_units_Z            16
_exptl_crystal_recrystallization_method N,N-dimethylformamide
loop_
_atom_site_label
_atom_site_type_symbol
_atom_site_fract_x
_atom_site_fract_y
_atom_site_fract_z
S1 S 0.53822(2) 0.31269(4) 0.72167(2)
O1 O 0.55510(5) 0.12633(10) 0.65052(4)
O2 O 0.45412(6) -0.41947(12) 0.42094(4)
O3 O 0.55082(6) -0.54412(12) 0.42459(5)
N1 N 0.44562(7) 0.20736(12) 0.65390(5)
H1 H 0.4038 0.2014 0.6426
N2 N 0.41393(7) 0.39105(13) 0.70116(5)
C1 C 0.46030(8) 0.30262(14) 0.68915(6)
C2 C 0.49674(8) -0.14164(14) 0.53269(6)
C3 C 0.47347(8) -0.32950(15) 0.45821(6)
C4 C 0.42926(8) -0.16857(15) 0.51580(6)
H2 H 0.3919 -0.1230 0.5294
C5 C 0.51285(8) -0.04578(14) 0.57199(6)
H3 H 0.5597 -0.0336 0.5792
C6 C 0.49457(8) 0.12151(14) 0.63594(6)
C7 C 0.46812(8) 0.02654(15) 0.59880(6)
H4 H 0.4205 0.0168 0.5940
C8 C 0.41773(8) -0.26227(15) 0.47906(6)
H5 H 0.3727 -0.2802 0.4683
C9 C 0.55186(8) -0.20793(15) 0.50995(6)
H6 H 0.5970 -0.1894 0.5202
C10 C 0.54126(8) -0.30087(15) 0.47240(6)
H7 H 0.5786 -0.3428 0.4572
C11 C 0.44094(8) 0.47186(16) 0.73835(6)
H8 H 0.4157 0.5413 0.7515
C12 C 0.49440(8) -0.52384(15) 0.40790(6)
C13 C 0.50583(8) 0.44423(16) 0.75438(6)
H9 H 0.5296 0.4897 0.7795
C14 C 0.45664(10) -0.60636(16) 0.37017(6)
H10 H 0.4122 -0.6308 0.3837
H11 H 0.4834 -0.6832 0.3632
H12 H 0.4501 -0.5581 0.3394
S2 S 0.16891(2) 0.22457(4) 0.62357(2)
O4 O 0.27671(6) 1.00688(11) 0.90028(4)
O5 O 0.15320(6) 0.42108(12) 0.69108(5)
O6 O 0.19509(6) 0.96308(12) 0.95948(4)
N3 N 0.26565(6) 0.36932(13) 0.67509(5)
H13 H 0.3083 0.3851 0.6826
N4 N 0.30267(7) 0.21555(13) 0.61547(5)
C15 C 0.21510(8) 0.43954(15) 0.69928(6)
C16 C 0.21969(8) 0.71571(14) 0.79772(6)
C17 C 0.16984(8) 0.80352(15) 0.81553(6)
H14 H 0.1244 0.7968 0.8039
C18 C 0.28775(8) 0.72614(15) 0.81650(6)
H15 H 0.3217 0.6686 0.8052
C19 C 0.24356(8) 1.02628(14) 0.94523(6)
C20 C 0.19953(8) 0.61642(15) 0.76069(6)
H16 H 0.1523 0.6078 0.7541
C21 C 0.24205(8) 0.53720(15) 0.73549(6)
H17 H 0.2897 0.5434 0.7408
C22 C 0.25406(8) 0.90699(15) 0.86789(6)
C23 C 0.30501(8) 0.82099(15) 0.85167(6)
H18 H 0.3501 0.8269 0.8642
C24 C 0.18649(8) 0.90055(15) 0.85023(6)
H19 H 0.1531 0.9595 0.8613
C25 C 0.27518(9) 0.12565(16) 0.58189(6)
H20 H 0.3032 0.0746 0.5612
C26 C 0.25193(8) 0.27472(15) 0.63939(6)
C27 C 0.20542(9) 0.11662(16) 0.58105(6)
H21 H 0.1804 0.0601 0.5604
C28 C 0.27769(9) 1.13464(16) 0.97350(7)
H22 H 0.3247 1.1109 0.9814
H23 H 0.2527 1.1510 1.0044
H24 H 0.2777 1.2117 0.9529
loop_
_geom_bond_atom_site_label_1
_geom_bond_atom_site_label_2
_geom_bond_site_symmetry_1
_geom_bond_site_symmetry_2
S1 C1 1_555 1_555
O1 C6 1_555 1_555
O2 C3 1_555 1_555
O3 C12 1_555 1_555
N1 H1 1_555 1_555
N2 C1 1_555 1_555
C1 N1 1_555 1_555
C2 C4 1_555 1_555
C3 C8 1_555 1_555
C4 H2 1_555 1_555
C5 C2 1_555 1_555
H3 C5 1_555 1_555
C6 N1 1_555 1_555
C7 C5 1_555 1_555
H4 C7 1_555 1_555
C8 C4 1_555 1_555
H5 C8 1_555 1_555
C9 C2 1_555 1_555
H6 C9 1_555 1_555
C10 C3 1_555 1_555
H7 C10 1_555 1_555
C11 N2 1_555 1_555
H8 C11 1_555 1_555
C12 O2 1_555 1_555
C13 S1 1_555 1_555
H9 C13 1_555 1_555
C14 C12 1_555 1_555
H10 C14 1_555 1_555
H11 C14 1_555 1_555
H12 C14 1_555 1_555
S2 C26 1_555 1_555
O4 C19 1_555 1_555
O5 C15 1_555 1_555
O6 C19 1_555 1_555
N3 H13 1_555 1_555
N4 C25 1_555 1_555
C15 N3 1_555 1_555
C16 C17 1_555 1_555
C17 H14 1_555 1_555
C18 C16 1_555 1_555
H15 C18 1_555 1_555
C19 C28 1_555 1_555
C20 C16 1_555 1_555
H16 C20 1_555 1_555
C21 C15 1_555 1_555
H17 C21 1_555 1_555
C22 O4 1_555 1_555
C23 C18 1_555 1_555
H18 C23 1_555 1_555
C24 C17 1_555 1_555
H19 C24 1_555 1_555
C25 H20 1_555 1_555
C26 N3 1_555 1_555
C27 S2 1_555 1_555
H21 C27 1_555 1_555
C28 H22 1_555 1_555
H23 C28 1_555 1_555
H24 C28 1_555 1_555
C6 C7 1_555 1_555
C9 C10 1_555 1_555
C11 C13 1_555 1_555
N4 C26 1_555 1_555
C20 C21 1_555 1_555
C22 C23 1_555 1_555
C22 C24 1_555 1_555
C25 C27 1_555 1_555

#END
