
#######################################################################
#
#                 Cambridge Crystallographic Data Centre
#                                CCDC 
#
#######################################################################
#
# If this CIF has been generated from an entry in the Cambridge 
# Structural Database, then it will include bibliographic, chemical, 
# crystal, experimental, refinement or atomic coordinate data resulting 
# from the CCDC's data processing and validation procedures.
#
#######################################################################

data_HEMLIX
_chemical_formula_moiety         'C20 H31 N3 O2'
_chemical_name_systematic        
't-butyl ((1S,4R)-4-(((S)-5,6,7,8-tetrahydroquinolin-8-yl)amino)cyclohexyl)carbamate'
_symmetry_cell_setting           monoclinic
_symmetry_space_group_name_H-M   'P 21'
_symmetry_Int_Tables_number      4
_space_group_name_Hall           'P 2yb'
loop_
_symmetry_equiv_pos_site_id
_symmetry_equiv_pos_as_xyz
1 x,y,z
2 -x,1/2+y,-z
_cell_length_a                   5.16050(10)
_cell_length_b                   9.4308(2)
_cell_length_c                   19.5484(3)
_cell_angle_alpha                90
_cell_angle_beta                 93.375(2)
_cell_angle_gamma                90
_cell_volume                     949.725
_exptl_crystal_colour            colorless
_exptl_crystal_description       'rectangular prism'
_cell_formula_units_Z            2
_exptl_crystal_recrystallization_method 'ethyl acetate'
loop_
_atom_site_label
_atom_site_type_symbol
_atom_site_fract_x
_atom_site_fract_y
_atom_site_fract_z
O1 O 0.8528(2) 0.78749(15) 0.86238(7)
O2 O 0.5452(2) 0.92617(15) 0.90909(7)
N1 N 0.1745(3) 0.30609(17) 0.64884(8)
N2 N 0.3514(3) 0.11774(19) 0.56037(8)
N3 N 0.4193(3) 0.74889(19) 0.84215(9)
C1 C 0.6264(3) 0.8181(2) 0.87029(9)
C2 C 0.1364(3) 0.15725(19) 0.66577(9)
C3 C 0.3526(4) 0.4920(2) 0.82211(9)
C4 C 0.1833(3) 0.4097(2) 0.70439(9)
C5 C 0.1728(3) 0.0689(2) 0.60184(9)
C6 C 0.0298(3) -0.0553(2) 0.58850(10)
C7 C -0.1720(4) -0.0275(2) 0.70305(10)
C8 C -0.1317(3) 0.1313(2) 0.69211(10)
C9 C 0.7322(3) 1.0289(2) 0.94060(10)
C10 C 0.3921(4) 0.0450(2) 0.50332(10)
C11 C 0.4376(3) 0.6338(2) 0.79264(10)
C12 C -0.1741(4) -0.1069(2) 0.63493(10)
C13 C 0.2711(4) 0.6701(2) 0.72771(10)
C14 C 0.0770(4) -0.1277(2) 0.52807(11)
C15 C 0.2593(4) -0.0779(3) 0.48517(11)
C16 C 0.2702(4) 0.5508(2) 0.67498(10)
C17 C 0.3562(4) 0.3733(2) 0.76846(9)
C18 C 0.8732(4) 1.1048(2) 0.88507(10)
H1 H 0.9971 1.0379 0.8646
H2 H 0.9711 1.1875 0.9055
H3 H 0.7442 1.1390 0.8487
C19 C 0.5566(4) 1.1329(2) 0.97523(12)
H4 H 0.4330 1.1767 0.9401
H5 H 0.6645 1.2088 0.9985
H6 H 0.4570 1.0816 1.0099
C20 C 0.9143(4) 0.9561(2) 0.99343(10)
H7 H 0.8116 0.8947 1.0235
H8 H 1.0099 1.0292 1.0220
H9 H 1.0412 0.8965 0.9696
H10 H 0.259(3) 0.780(3) 0.8540(12)
H11 H 0.0904(18) 0.685(3) 0.7420(12)
H12 H 0.6236(14) 0.629(3) 0.7813(12)
H13 H 0.175(2) 0.504(3) 0.8392(12)
H14 H 0.0025(17) 0.420(3) 0.7194(11)
H15 H 0.4492(19) 0.539(3) 0.6590(11)
H16 H 0.469(4) 0.466(3) 0.8627(8)
H17 H 0.304(4) 0.2834(14) 0.7909(11)
H18 H 0.332(4) 0.7601(14) 0.7070(11)
H19 H 0.155(3) 0.570(3) 0.6332(7)
H20 H 0.5403(16) 0.361(3) 0.7565(12)
H21 H -0.336(3) -0.046(3) 0.7262(12)
H22 H 0.270(3) 0.123(3) 0.7010(9)
H23 H -0.029(3) -0.066(3) 0.7344(10)
H24 H -0.274(3) 0.170(3) 0.6606(10)
H25 H -0.148(5) 0.185(3) 0.7357(8)
H26 H -0.350(2) -0.098(3) 0.6111(11)
H27 H -0.153(6) -0.2119(5) 0.6390(15)
H28 H 0.319(3) 0.315(3) 0.6224(11)
H29 H -0.028(5) -0.207(2) 0.5143(14)
H30 H 0.522(4) 0.082(3) 0.4753(12)
H31 H 0.296(5) -0.131(3) 0.4454(10)
loop_
_geom_bond_atom_site_label_1
_geom_bond_atom_site_label_2
_geom_bond_site_symmetry_1
_geom_bond_site_symmetry_2
O1 C1 1_555 1_555
O2 C1 1_555 1_555
N1 C2 1_555 1_555
N2 C5 1_555 1_555
N3 C1 1_555 1_555
C2 C5 1_555 1_555
C3 C11 1_555 1_555
C4 N1 1_555 1_555
C5 C6 1_555 1_555
C6 C12 1_555 1_555
C7 C8 1_555 1_555
C8 C2 1_555 1_555
C9 O2 1_555 1_555
C10 N2 1_555 1_555
C11 N3 1_555 1_555
C12 C7 1_555 1_555
C13 C11 1_555 1_555
C14 C6 1_555 1_555
C15 C10 1_555 1_555
C16 C4 1_555 1_555
C17 C3 1_555 1_555
C18 C9 1_555 1_555
H1 C18 1_555 1_555
H2 C18 1_555 1_555
H3 C18 1_555 1_555
C19 C9 1_555 1_555
H4 C19 1_555 1_555
H5 C19 1_555 1_555
H6 C19 1_555 1_555
C20 C9 1_555 1_555
H7 C20 1_555 1_555
H8 C20 1_555 1_555
H9 C20 1_555 1_555
H10 N3 1_555 1_555
H11 C13 1_555 1_555
H12 C11 1_555 1_555
H13 C3 1_555 1_555
H14 C4 1_555 1_555
H15 C16 1_555 1_555
H16 C3 1_555 1_555
H17 C17 1_555 1_555
H18 C13 1_555 1_555
H19 C16 1_555 1_555
H20 C17 1_555 1_555
H21 C7 1_555 1_555
H22 C2 1_555 1_555
H23 C7 1_555 1_555
H24 C8 1_555 1_555
H25 C8 1_555 1_555
H26 C12 1_555 1_555
H27 C12 1_555 1_555
H28 N1 1_555 1_555
H29 C14 1_555 1_555
H30 C10 1_555 1_555
H31 C15 1_555 1_555
C4 C17 1_555 1_555
C13 C16 1_555 1_555
C14 C15 1_555 1_555

#END
