
#######################################################################
#
#                 Cambridge Crystallographic Data Centre
#                                CCDC 
#
#######################################################################
#
# If this CIF has been generated from an entry in the Cambridge 
# Structural Database, then it will include bibliographic, chemical, 
# crystal, experimental, refinement or atomic coordinate data resulting 
# from the CCDC's data processing and validation procedures.
#
#######################################################################

data_HEMLOD
_chemical_formula_moiety         'C7 H16 N1 O2 1+,Cl1 1-'
_chemical_name_systematic        '6-carboxyhexan-1-aminium chloride'
_symmetry_cell_setting           triclinic
_symmetry_space_group_name_H-M   'P -1'
_symmetry_Int_Tables_number      2
_space_group_name_Hall           '-P 1'
loop_
_symmetry_equiv_pos_site_id
_symmetry_equiv_pos_as_xyz
1 x,y,z
2 -x,-y,-z
_cell_length_a                   4.6490(2)
_cell_length_b                   9.2383(4)
_cell_length_c                   12.4528(5)
_cell_angle_alpha                111.580(3)
_cell_angle_beta                 90.961(2)
_cell_angle_gamma                98.082(2)
_cell_volume                     491.041
_exptl_crystal_colour            colorless
_exptl_crystal_description       plates
_cell_formula_units_Z            2
loop_
_atom_site_label
_atom_site_type_symbol
_atom_site_fract_x
_atom_site_fract_y
_atom_site_fract_z
O1 O 0.08095(19) 0.47063(9) 0.23400(6)
O2 O -0.14316(19) 0.55764(10) 0.11939(6)
H1 H -0.133(3) 0.6364(15) 0.1037(12)
C1 C 0.0624(3) 0.57839(13) 0.20105(9)
C2 C 0.2611(3) 0.73442(13) 0.24865(9)
H2 H 0.1415 0.8201 0.2701
H3 H 0.3850 0.7453 0.1873
C3 C 0.4565(3) 0.75381(14) 0.35436(9)
H4 H 0.6103 0.8464 0.3703
H5 H 0.5532 0.6596 0.3366
C4 C 0.2908(3) 0.77564(14) 0.46285(8)
H6 H 0.2028 0.8730 0.4830
H7 H 0.1304 0.6859 0.4457
C5 C 0.4834(3) 0.78648(14) 0.56668(9)
H8 H 0.6381 0.8794 0.5865
H9 H 0.5788 0.6915 0.5455
C6 C 0.3119(3) 0.80038(14) 0.67305(9)
H10 H 0.2218 0.8973 0.6961
H11 H 0.1533 0.7091 0.6528
C7 C 0.5050(3) 0.80582(14) 0.77438(9)
H12 H 0.6067 0.7129 0.7499
H13 H 0.6543 0.9017 0.7989
N1 N 0.3299(2) 0.80697(12) 0.87375(8)
H14 H 0.443(3) 0.8064(15) 0.9317(10)
H15 H 0.187(3) 0.7228(15) 0.8510(11)
H16 H 0.240(3) 0.8939(14) 0.8995(10)
Cl1 Cl 0.83584(6) 0.84684(3) 1.06273(2)
loop_
_geom_bond_atom_site_label_1
_geom_bond_atom_site_label_2
_geom_bond_site_symmetry_1
_geom_bond_site_symmetry_2
O1 C1 1_555 1_555
O2 H1 1_555 1_555
C1 O2 1_555 1_555
C2 C1 1_555 1_555
H2 C2 1_555 1_555
H3 C2 1_555 1_555
C3 C2 1_555 1_555
H4 C3 1_555 1_555
H5 C3 1_555 1_555
C4 C3 1_555 1_555
H6 C4 1_555 1_555
H7 C4 1_555 1_555
C5 C4 1_555 1_555
H8 C5 1_555 1_555
H9 C5 1_555 1_555
C6 C5 1_555 1_555
H10 C6 1_555 1_555
H11 C6 1_555 1_555
C7 C6 1_555 1_555
H12 C7 1_555 1_555
H13 C7 1_555 1_555
N1 C7 1_555 1_555
H14 N1 1_555 1_555
H15 N1 1_555 1_555
H16 N1 1_555 1_555

#END
