
#######################################################################
#
#                 Cambridge Crystallographic Data Centre
#                                CCDC 
#
#######################################################################
#
# If this CIF has been generated from an entry in the Cambridge 
# Structural Database, then it will include bibliographic, chemical, 
# crystal, experimental, refinement or atomic coordinate data resulting 
# from the CCDC's data processing and validation procedures.
#
#######################################################################

data_HEMXUS
_chemical_formula_moiety         'C13 H20 O5'
_chemical_name_systematic        
(6R,7R,15S)-15-Methyl-1,8,13,16-tetraoxadispiro(5.0.5.4)hexadecan-14-one
_symmetry_cell_setting           orthorhombic
_symmetry_space_group_name_H-M   'P 21 21 21'
_symmetry_Int_Tables_number      19
_space_group_name_Hall           'P 2ac 2ab'
loop_
_symmetry_equiv_pos_site_id
_symmetry_equiv_pos_as_xyz
1 x,y,z
2 1/2+x,1/2-y,-z
3 -x,1/2+y,1/2-z
4 1/2-x,-y,1/2+z
_cell_length_a                   7.982(2)
_cell_length_b                   10.164(2)
_cell_length_c                   16.260(3)
_cell_angle_alpha                90
_cell_angle_beta                 90
_cell_angle_gamma                90
_cell_volume                     1319.16
_chemical_melting_point          84-86deg.C
_cell_formula_units_Z            4
loop_
_atom_site_label
_atom_site_type_symbol
_atom_site_fract_x
_atom_site_fract_y
_atom_site_fract_z
O1 O -0.0299(4) 0.3963(3) 0.4759(2)
O2 O 0.1975(2) 0.3894(2) 0.6646(1)
O3 O 0.0956(3) 0.5583(2) 0.5400(1)
O4 O 0.4203(2) 0.4962(2) 0.5999(1)
O5 O 0.0392(2) 0.6336(2) 0.6717(1)
C1 C 0.0608(4) 0.4304(3) 0.5324(2)
C2 C 0.1403(4) 0.3326(3) 0.5892(2)
C3 C 0.0221(5) 0.2220(4) 0.6109(2)
C4 C 0.2852(3) 0.5097(3) 0.6552(2)
C5 C 0.1694(3) 0.6120(3) 0.6156(2)
C6 C 0.3424(4) 0.5479(3) 0.7413(2)
C7 C 0.4787(4) 0.4550(3) 0.7723(2)
C8 C 0.6192(4) 0.4484(4) 0.7096(2)
C9 C 0.5507(4) 0.4082(4) 0.6272(2)
C10 C 0.2556(3) 0.7377(3) 0.5895(2)
C11 C 0.1327(4) 0.8434(3) 0.5619(2)
C12 C -0.0054(4) 0.8602(3) 0.6247(2)
C13 C -0.0837(3) 0.7301(3) 0.6457(2)
H1 H 0.2373(4) 0.2945(3) 0.5610(2)
H2 H 0.0796(9) 0.1586(11) 0.6444(11)
H3 H -0.0167(21) 0.1804(14) 0.5614(2)
H4 H -0.0719(14) 0.2567(5) 0.6407(12)
H5 H 0.2475(4) 0.5451(3) 0.7785(2)
H6 H 0.3851(4) 0.6372(3) 0.7406(2)
H7 H 0.5220(4) 0.4865(3) 0.8244(2)
H8 H 0.4322(4) 0.3679(3) 0.7808(2)
H9 H 0.6727(4) 0.5338(4) 0.7052(2)
H10 H 0.7027(4) 0.3853(4) 0.7275(2)
H11 H 0.6408(4) 0.4078(4) 0.5872(2)
H12 H 0.5063(4) 0.3196(4) 0.6309(2)
H13 H 0.3321(3) 0.7184(3) 0.5447(2)
H14 H 0.3213(3) 0.7710(3) 0.6352(2)
H15 H 0.1916(4) 0.9262(3) 0.5549(2)
H16 H 0.0845(4) 0.8190(3) 0.5094(2)
H17 H 0.0402(4) 0.8998(3) 0.6742(2)
H18 H -0.0904(4) 0.9188(3) 0.6030(2)
H19 H -0.1648(3) 0.7427(3) 0.6895(2)
H20 H -0.1430(3) 0.6969(3) 0.5980(2)
loop_
_geom_bond_atom_site_label_1
_geom_bond_atom_site_label_2
_geom_bond_site_symmetry_1
_geom_bond_site_symmetry_2
O1 C1 1_555 1_555
O2 C2 1_555 1_555
O3 C1 1_555 1_555
O4 C4 1_555 1_555
O5 C5 1_555 1_555
C1 C2 1_555 1_555
C2 C3 1_555 1_555
C3 H2 1_555 1_555
C4 O2 1_555 1_555
C5 O3 1_555 1_555
C6 C4 1_555 1_555
C7 C6 1_555 1_555
C8 C7 1_555 1_555
C9 O4 1_555 1_555
C10 C5 1_555 1_555
C11 C10 1_555 1_555
C12 C11 1_555 1_555
C13 O5 1_555 1_555
H1 C2 1_555 1_555
H3 C3 1_555 1_555
H4 C3 1_555 1_555
H5 C6 1_555 1_555
H6 C6 1_555 1_555
H7 C7 1_555 1_555
H8 C7 1_555 1_555
H9 C8 1_555 1_555
H10 C8 1_555 1_555
H11 C9 1_555 1_555
H12 C9 1_555 1_555
H13 C10 1_555 1_555
H14 C10 1_555 1_555
H15 C11 1_555 1_555
H16 C11 1_555 1_555
H17 C12 1_555 1_555
H18 C12 1_555 1_555
H19 C13 1_555 1_555
H20 C13 1_555 1_555
C4 C5 1_555 1_555
C8 C9 1_555 1_555
C12 C13 1_555 1_555

#END
