
#######################################################################
#
#                 Cambridge Crystallographic Data Centre
#                                CCDC 
#
#######################################################################
#
# If this CIF has been generated from an entry in the Cambridge 
# Structural Database, then it will include bibliographic, chemical, 
# crystal, experimental, refinement or atomic coordinate data resulting 
# from the CCDC's data processing and validation procedures.
#
#######################################################################

data_HENNEW
_chemical_formula_moiety         'C21 H16 O5'
_chemical_name_systematic        
'methyl 2a-methoxy-2-oxo-2a,11b-dihydrobenzo[2,3]fluoreno[9,1-bc]furan-11c(2H)-carboxylate'
_symmetry_cell_setting           monoclinic
_symmetry_space_group_name_H-M   'P 21/n'
_symmetry_Int_Tables_number      14
_space_group_name_Hall           '-P 2yn'
loop_
_symmetry_equiv_pos_site_id
_symmetry_equiv_pos_as_xyz
1 x,y,z
2 1/2-x,1/2+y,1/2-z
3 -x,-y,-z
4 1/2+x,1/2-y,1/2+z
_cell_length_a                   12.2774(7)
_cell_length_b                   10.4052(7)
_cell_length_c                   13.0395(7)
_cell_angle_alpha                90
_cell_angle_beta                 101.928(5)
_cell_angle_gamma                90
_cell_volume                     1629.81
_exptl_crystal_colour            colorless
_exptl_crystal_description       block
_cell_formula_units_Z            4
loop_
_atom_site_label
_atom_site_type_symbol
_atom_site_fract_x
_atom_site_fract_y
_atom_site_fract_z
O1 O 0.69883(10) 0.59580(12) 0.36291(8)
O2 O 0.79685(10) 0.18980(12) 0.50101(9)
O3 O 0.55318(10) 0.53164(13) 0.24156(9)
O4 O 0.73122(10) 0.31320(12) 0.27597(9)
O5 O 0.93522(10) 0.33317(14) 0.51034(9)
C1 C 0.79032(14) 0.60131(17) 0.54766(12)
C2 C 0.67260(14) 0.42413(17) 0.53660(12)
C3 C 0.57999(14) 0.27393(17) 0.35631(12)
C4 C 0.71962(13) 0.53421(17) 0.60003(12)
C5 C 0.83784(14) 0.30699(18) 0.49212(12)
C6 C 0.57813(14) 0.36013(17) 0.53274(12)
H1 H 0.537340 0.373972 0.584405
C7 C 0.63138(14) 0.50455(18) 0.31027(12)
C8 C 0.53717(13) 0.26820(17) 0.44854(12)
C9 C 0.74514(13) 0.40262(17) 0.45509(12)
C10 C 0.45705(14) 0.17727(18) 0.45735(13)
H2 H 0.428251 0.174137 0.517902
C11 C 0.67195(14) 0.36810(17) 0.34814(12)
C12 C 0.70388(14) 0.57801(18) 0.69741(12)
H3 H 0.653681 0.537492 0.731267
C13 C 0.53928(14) 0.18917(18) 0.27514(13)
H4 H 0.565635 0.193534 0.213304
C14 C 0.78829(14) 0.53863(17) 0.44331(12)
H5 H 0.860949 0.539687 0.423272
C15 C 0.83875(15) 0.74578(19) 0.69106(13)
H6 H 0.880425 0.814567 0.723656
C16 C 0.76470(14) 0.68281(18) 0.74196(13)
H7 H 0.756134 0.712037 0.807229
C17 C 0.45977(15) 0.09816(19) 0.28536(14)
H8 H 0.433431 0.041710 0.230541
C18 C 0.85087(14) 0.70665(18) 0.59192(13)
H9 H 0.898223 0.750055 0.556591
C19 C 0.41940(15) 0.09088(19) 0.37671(13)
H10 H 0.367329 0.028460 0.384034
C20 C 0.81215(16) 0.3900(2) 0.23935(14)
H11 H 0.835262 0.346851 0.182369
H12 H 0.875430 0.403093 0.295402
H13 H 0.780007 0.471648 0.215727
C21 C 0.87831(16) 0.0884(2) 0.52689(15)
H14 H 0.918928 0.079973 0.471744
H15 H 0.841218 0.008909 0.534809
H16 H 0.928919 0.108939 0.591310
loop_
_geom_bond_atom_site_label_1
_geom_bond_atom_site_label_2
_geom_bond_site_symmetry_1
_geom_bond_site_symmetry_2
O1 C7 1_555 1_555
O2 C5 1_555 1_555
O3 C7 1_555 1_555
O4 C11 1_555 1_555
O5 C5 1_555 1_555
C1 C4 1_555 1_555
C2 C4 1_555 1_555
C3 C8 1_555 1_555
C4 C12 1_555 1_555
C5 C9 1_555 1_555
C6 C2 1_555 1_555
H1 C6 1_555 1_555
C7 C11 1_555 1_555
C8 C6 1_555 1_555
C9 C2 1_555 1_555
C10 C8 1_555 1_555
H2 C10 1_555 1_555
C11 C3 1_555 1_555
C12 H3 1_555 1_555
C13 C3 1_555 1_555
H4 C13 1_555 1_555
C14 O1 1_555 1_555
H5 C14 1_555 1_555
C15 H6 1_555 1_555
C16 C12 1_555 1_555
H7 C16 1_555 1_555
C17 C13 1_555 1_555
H8 C17 1_555 1_555
C18 C1 1_555 1_555
H9 C18 1_555 1_555
C19 C10 1_555 1_555
H10 C19 1_555 1_555
C20 O4 1_555 1_555
H11 C20 1_555 1_555
H12 C20 1_555 1_555
H13 C20 1_555 1_555
C21 O2 1_555 1_555
H14 C21 1_555 1_555
H15 C21 1_555 1_555
H16 C21 1_555 1_555
C1 C14 1_555 1_555
C9 C11 1_555 1_555
C9 C14 1_555 1_555
C15 C16 1_555 1_555
C15 C18 1_555 1_555
C17 C19 1_555 1_555

#END
