
#######################################################################
#
#                 Cambridge Crystallographic Data Centre
#                                CCDC 
#
#######################################################################
#
# If this CIF has been generated from an entry in the Cambridge 
# Structural Database, then it will include bibliographic, chemical, 
# crystal, experimental, refinement or atomic coordinate data resulting 
# from the CCDC's data processing and validation procedures.
#
#######################################################################

data_HEPDIS
_chemical_formula_moiety         'C32 H28 N2 O3 S1'
_chemical_name_systematic        
1,3-dimethyl-3-((1-((4-methylphenyl)sulfonyl)-2-phenyl-1H-indol-3-yl)methyl)-1,3-dihydro-2H-indol-2-one
_symmetry_cell_setting           monoclinic
_symmetry_space_group_name_H-M   'P 2/n'
_symmetry_Int_Tables_number      13
_space_group_name_Hall           '-P 2yac'
loop_
_symmetry_equiv_pos_site_id
_symmetry_equiv_pos_as_xyz
1 x,y,z
2 1/2-x,y,1/2-z
3 -x,-y,-z
4 1/2+x,-y,1/2+z
_cell_length_a                   15.452(2)
_cell_length_b                   10.3637(16)
_cell_length_c                   16.552(3)
_cell_angle_alpha                90
_cell_angle_beta                 103.082(4)
_cell_angle_gamma                90
_cell_volume                     2581.84
_exptl_crystal_colour            colorless
_exptl_crystal_description       block
_chemical_melting_point          '152-153 deg.C'
_cell_formula_units_Z            4
loop_
_atom_site_label
_atom_site_type_symbol
_atom_site_fract_x
_atom_site_fract_y
_atom_site_fract_z
S1 S 0.29800(4) 0.49627(6) 0.43635(3)
O1 O 0.28247(11) 0.47039(18) 0.34966(9)
O2 O 0.37321(10) 0.56961(17) 0.47665(9)
O3 O 0.33337(12) -0.14101(18) 0.63063(11)
N1 N 0.30698(12) 0.35147(19) 0.48236(10)
N2 N 0.47014(13) -0.0731(2) 0.61367(11)
C1 C 0.21560(16) 0.0336(2) 0.49378(15)
H1 H 0.2163 -0.0277 0.5366
C2 C 0.17041(17) 0.0082(3) 0.41292(16)
H2 H 0.1389 -0.0707 0.4004
C3 C 0.17072(17) 0.0972(3) 0.34991(15)
H3 H 0.1399 0.0771 0.2949
C4 C 0.21460(17) 0.2140(3) 0.36525(14)
H4 H 0.2150 0.2738 0.3218
C5 C 0.25822(15) 0.2407(2) 0.44682(13)
C6 C 0.26004(15) 0.1512(2) 0.51105(13)
C7 C 0.30869(14) 0.2085(2) 0.58740(12)
C8 C 0.33427(14) 0.3295(2) 0.56994(12)
C9 C 0.37899(15) 0.4289(2) 0.62887(12)
C10 C 0.46652(15) 0.4661(2) 0.63421(13)
H5 H 0.4991 0.4299 0.5974
C11 C 0.50647(17) 0.5557(3) 0.69281(14)
H6 H 0.5669 0.5786 0.6973
C12 C 0.45897(18) 0.6121(3) 0.74480(14)
H7 H 0.4863 0.6755 0.7837
C13 C 0.37218(18) 0.5767(3) 0.74034(14)
H8 H 0.3398 0.6149 0.7765
C14 C 0.33233(16) 0.4854(2) 0.68312(13)
H9 H 0.2726 0.4607 0.6805
C15 C 0.20202(15) 0.5668(2) 0.45711(13)
C16 C 0.11964(17) 0.5354(3) 0.40785(14)
H10 H 0.1151 0.4752 0.3638
C17 C 0.04425(17) 0.5925(3) 0.42340(15)
H11 H -0.0123 0.5702 0.3902
C18 C 0.04991(18) 0.6828(3) 0.48743(15)
C19 C 0.13337(19) 0.7114(3) 0.53577(15)
H12 H 0.1383 0.7716 0.5799
C20 C 0.20970(17) 0.6546(2) 0.52147(14)
H13 H 0.2663 0.6755 0.5552
C21 C -0.0320(2) 0.7489(3) 0.50123(18)
H14 H -0.0262 0.7633 0.5607
H15 H -0.0841 0.6946 0.4798
H16 H -0.0393 0.8320 0.4722
C22 C 0.32394(15) 0.1484(2) 0.67259(13)
H17 H 0.2692 0.1012 0.6761
H18 H 0.3312 0.2194 0.7136
C23 C 0.40309(15) 0.0551(2) 0.70016(13)
C24 C 0.39536(17) -0.0642(3) 0.64387(14)
C25 C 0.52901(15) 0.0289(2) 0.64338(12)
C26 C 0.61159(16) 0.0513(3) 0.62820(14)
H19 H 0.6362 -0.0044 0.5937
C27 C 0.65775(17) 0.1592(3) 0.66557(16)
H20 H 0.7144 0.1785 0.6553
C28 C 0.62292(17) 0.2386(3) 0.71712(16)
H21 H 0.6558 0.3112 0.7423
C29 C 0.53949(17) 0.2124(3) 0.73231(14)
H22 H 0.5158 0.2659 0.7686
C30 C 0.49208(15) 0.1089(2) 0.69452(13)
C31 C 0.40404(18) 0.0060(3) 0.78805(14)
H23 H 0.4553 -0.0510 0.8068
H24 H 0.3492 -0.0418 0.7874
H25 H 0.4083 0.0795 0.8260
C32 C 0.49080(19) -0.1790(3) 0.56365(15)
H26 H 0.5001 -0.1452 0.5110
H27 H 0.4413 -0.2405 0.5527
H28 H 0.5449 -0.2226 0.5935
loop_
_geom_bond_atom_site_label_1
_geom_bond_atom_site_label_2
_geom_bond_site_symmetry_1
_geom_bond_site_symmetry_2
S1 O1 1_555 1_555
O2 S1 1_555 1_555
O3 C24 1_555 1_555
N1 S1 1_555 1_555
N2 C24 1_555 1_555
C1 H1 1_555 1_555
C2 C1 1_555 1_555
H2 C2 1_555 1_555
C3 C2 1_555 1_555
H3 C3 1_555 1_555
C4 C3 1_555 1_555
H4 C4 1_555 1_555
C5 N1 1_555 1_555
C6 C1 1_555 1_555
C7 C6 1_555 1_555
C8 N1 1_555 1_555
C9 C8 1_555 1_555
C10 C9 1_555 1_555
H5 C10 1_555 1_555
C11 C10 1_555 1_555
H6 C11 1_555 1_555
C12 C11 1_555 1_555
H7 C12 1_555 1_555
C13 C12 1_555 1_555
H8 C13 1_555 1_555
C14 C9 1_555 1_555
H9 C14 1_555 1_555
C15 S1 1_555 1_555
C16 C15 1_555 1_555
H10 C16 1_555 1_555
C17 C16 1_555 1_555
H11 C17 1_555 1_555
C18 C17 1_555 1_555
C19 C18 1_555 1_555
H12 C19 1_555 1_555
C20 C15 1_555 1_555
H13 C20 1_555 1_555
C21 C18 1_555 1_555
H14 C21 1_555 1_555
H15 C21 1_555 1_555
H16 C21 1_555 1_555
C22 C7 1_555 1_555
H17 C22 1_555 1_555
H18 C22 1_555 1_555
C23 C22 1_555 1_555
C24 C23 1_555 1_555
C25 N2 1_555 1_555
C26 C25 1_555 1_555
H19 C26 1_555 1_555
C27 C26 1_555 1_555
H20 C27 1_555 1_555
C28 C27 1_555 1_555
H21 C28 1_555 1_555
C29 C28 1_555 1_555
H22 C29 1_555 1_555
C30 C23 1_555 1_555
C31 C23 1_555 1_555
H23 C31 1_555 1_555
H24 C31 1_555 1_555
H25 C31 1_555 1_555
C32 N2 1_555 1_555
H26 C32 1_555 1_555
H27 C32 1_555 1_555
H28 C32 1_555 1_555
C4 C5 1_555 1_555
C5 C6 1_555 1_555
C7 C8 1_555 1_555
C13 C14 1_555 1_555
C19 C20 1_555 1_555
C25 C30 1_555 1_555
C29 C30 1_555 1_555

#END
