
#######################################################################
#
#                 Cambridge Crystallographic Data Centre
#                                CCDC 
#
#######################################################################
#
# If this CIF has been generated from an entry in the Cambridge 
# Structural Database, then it will include bibliographic, chemical, 
# crystal, experimental, refinement or atomic coordinate data resulting 
# from the CCDC's data processing and validation procedures.
#
#######################################################################

data_HEPKES
_chemical_formula_moiety         '2(C10 H12 O2),C10 H14'
_chemical_name_systematic        'bis(Duroquinone) durene'
_symmetry_cell_setting           triclinic
_symmetry_space_group_name_H-M   'P -1'
_symmetry_Int_Tables_number      2
_space_group_name_Hall           '-P 1'
loop_
_symmetry_equiv_pos_site_id
_symmetry_equiv_pos_as_xyz
1 x,y,z
2 -x,-y,-z
_cell_length_a                   16.106(7)
_cell_length_b                   17.580(9)
_cell_length_c                   18.759(7)
_cell_angle_alpha                58.48(3)
_cell_angle_beta                 63.49(3)
_cell_angle_gamma                65.85(3)
_cell_volume                     3942.72
_exptl_crystal_colour            yellow
_cell_formula_units_Z            6
loop_
_atom_site_label
_atom_site_type_symbol
_atom_site_fract_x
_atom_site_fract_y
_atom_site_fract_z
O1 O 0.319(1) 0.931(1) 0.375(1)
O2 O 0.186(1) 1.078(1) 0.112(1)
C1 C 0.2822(8) 0.9573(7) 0.3174(8)
C2 C 0.3423(9) 0.9375(8) 0.2432(9)
C3 C 0.3050(9) 0.984(1) 0.1701(9)
C4 C 0.2155(9) 1.0359(9) 0.1766(7)
C5 C 0.1577(9) 1.0563(8) 0.25327(7)
C6 C 0.1884(8) 1.0214(6) 0.3215(6)
C7 C 0.438(1) 0.871(1) 0.249(1)
C8 C 0.365(1) 0.9690(8) 0.0868(7)
C9 C 0.059(1) 1.1211(8) 0.2532(9)
C10 C 0.129(1) 1.043(1) 0.400(1)
O3 O 0.185(1) 0.348(1) 0.822(1)
O4 O 0.314(1) 0.633(1) 0.683(1)
C11 C 0.2096(8) 0.4243(8) 0.7839(8)
C12 C 0.140(1) 0.4928(8) 0.8141(9)
C13 C 0.1938(9) 0.5756(9) 0.7746(8)
C14 C 0.276(1) 0.573(1) 0.714(1)
C15 C 0.3378(7) 0.4895(8) 0.6980(7)
C16 C 0.310(1) 0.4269(9) 0.7293(9)
C17 C 0.057(1) 0.483(1) 0.878(1)
C18 C 0.124(1) 0.6593(9) 0.790(1)
C19 C 0.451(1) 0.493(1) 0.638(1)
C20 C 0.364(1) 0.343(1) 0.703(1)
O5 O 0.1819(6) 0.4870(6) 1.0188(6)
O6 O 0.4997(7) 0.3182(6) 0.8487(6)
C21 C 0.251(1) 0.450(1) 0.9675(9)
C22 C 0.2716(8) 0.3524(7) 0.9836(7)
C23 C 0.3439(8) 0.3154(8) 0.9460(7)
C24 C 0.4191(9) 0.3522(9) 0.8809(8)
C25 C 0.4116(7) 0.4407(8) 0.8772(8)
C26 C 0.3281(8) 0.4859(8) 0.9176(9)
C27 C 0.1841(8) 0.3093(9) 1.0478(8)
C28 C 0.3559(9) 0.2231(8) 0.9495(8)
C29 C 0.4934(9) 0.5004(9) 0.8012(9)
C30 C 0.321(1) 0.5866(9) 0.913(1)
O7 O 0.6733(7) 0.4930(6) 0.4986(6)
O8 O 0.9911(8) 0.3159(7) 0.3487(7)
C31 C 0.7551(7) 0.4509(7) 0.4724(7)
C32 C 0.8408(9) 0.4992(8) 0.4091(8)
C33 C 0.922(1) 0.4603(8) 0.3644(8)
C34 C 0.9209(9) 0.3596(8) 0.3919(7)
C35 C 0.8373(9) 0.3106(9) 0.4410(8)
C36 C 0.7490(9) 0.362(1) 0.4840(8)
C37 C 0.819(1) 0.5963(9) 0.391(1)
C38 C 1.017(1) 0.481(1) 0.322(1)
C39 C 0.857(1) 0.204(1) 0.462(1)
C40 C 0.659(1) 0.324(1) 0.543(1)
O9 O 0.1473(7) 0.1536(6) 0.9937(6)
O10 O -0.0043(9) 0.2591(8) 0.7551(8)
C41 C 0.1054(8) 0.1907(6) 0.9342(7)
C42 C 0.005(1) 0.2380(9) 0.943(1)
C43 C -0.034(1) 0.266(1) 0.872(1)
C44 C 0.0389(7) 0.2321(7) 0.8137(6)
C45 C 0.1263(9) 0.1820(8) 0.8057(8)
C46 C 0.1698(8) 0.1560(7) 0.8604(7)
C47 C -0.031(1) 0.257(1) 1.024(1)
C48 C -0.128(1) 0.320(1) 0.887(1)
C49 C 0.183(1) 0.1581(9) 0.7237(8)
C50 C 0.267(1) 0.102(1) 0.861(1)
C51 C 0.4794(7) 0.2587(7) 0.3856(7)
C52 C 0.5230(8) 0.2318(8) 0.4412(7)
C53 C 0.614(1) 0.1705(9) 0.434(1)
C54 C 0.663(1) 0.159(1) 0.363(1)
C55 C 0.623(1) 0.1871(9) 0.2952(8)
C56 C 0.516(1) 0.245(1) 0.296(1)
C57 C 0.372(1) 0.315(1) 0.386(1)
C58 C 0.455(1) 0.258(1) 0.5221(9)
C59 C 0.771(1) 0.098(1) 0.353(1)
C60 C 0.677(2) 0.163(1) 0.216(1)
C61 C 0.9687(9) 0.2135(7) 0.5999(7)
C62 C 1.011(1) 0.272(1) 0.566(1)
C63 C 0.9534(8) 0.3607(8) 0.5768(7)
C64 C 0.8568(8) 0.3611(6) 0.6356(6)
C65 C 0.8195(9) 0.2769(7) 0.6854(7)
C66 C 0.872(1) 0.202(1) 0.667(1)
C67 C 1.039(1) 0.110(1) 0.593(1)
C68 C 1.109(1) 0.285(1) 0.495(1)
C69 C 0.779(2) 0.446(1) 0.655(1)
C70 C 0.724(1) 0.265(1) 0.743(1)
O11 O 0.5214(7) 0.5679(7) 0.9519(6)
O12 O 0.6508(9) 0.8533(7) 0.8152(9)
C71 C 0.682(1) 0.706(1) 0.8319(9)
C72 C 0.651(1) 0.643(1) 0.851(1)
C73 C 0.563(1) 0.643(1) 0.914(1)
C74 C 0.4895(8) 0.7071(7) 0.9444(7)
C75 C 0.515(1) 0.798(1) 0.903(1)
C76 C 0.6062(9) 0.7894(7) 0.8477(8)
C77 C 0.784(1) 0.708(1) 0.759(1)
C78 C 0.7019(9) 0.5530(8) 0.8418(8)
C79 C 0.392(1) 0.7013(9) 1.0024(9)
C80 C 0.457(1) 0.8630(9) 0.931(1)
O13 O 0.3295(8) 0.0866(7) 0.5720(6)
C81 C 0.4146(8) 0.0439(7) 0.5456(7)
C82 C 0.4955(8) -0.0025(8) 0.5861(7)
C83 C 0.419(1) 0.0450(8) 0.4594(9)
C84 C 0.468(1) 0.016(1) 0.6595(9)
C85 C 0.337(1) 0.105(1) 0.410(1)
C83A C 0.581(1) -0.0450(8) 0.5406(9)
C82A C 0.5045(8) 0.0025(8) 0.4139(7)
C81A C 0.5854(8) -0.0439(7) 0.4544(7)
C85A C 0.663(1) -0.105(1) 0.590(1)
C84A C 0.532(1) -0.016(1) 0.3405(9)
O13A O 0.6705(8) -0.0866(7) 0.4280(6)
O14 O 0.1565(7) 0.9179(7) 0.9189(6)
C86 C 0.084(1) 0.954(1) 0.970(1)
C87 C 0.0726(9) 0.9555(9) 1.0434(8)
C88 C 0.015(1) 0.9980(8) 0.9283(8)
C89 C 0.159(1) 0.911(1) 1.0687(9)
C90 C 0.018(1) 0.995(1) 0.845(1)
C88A C -0.015(1) 1.0020(8) 1.0717(8)
C87A C -0.0726(9) 1.0445(9) 0.9566(8)
C86A C -0.084(1) 1.046(1) 1.030(1)
C90A C -0.018(1) 1.005(1) 1.155(1)
C89A C -0.159(1) 1.089(1) 0.9313(9)
O14A O -0.1565(7) 1.0821(7) 1.0811(6)
loop_
_geom_bond_atom_site_label_1
_geom_bond_atom_site_label_2
_geom_bond_site_symmetry_1
_geom_bond_site_symmetry_2
O1 C1 1_555 1_555
O2 C4 1_555 1_555
C1 C2 1_555 1_555
C2 C3 1_555 1_555
C3 C4 1_555 1_555
C4 C5 1_555 1_555
C5 C6 1_555 1_555
C6 C1 1_555 1_555
C7 C2 1_555 1_555
C8 C3 1_555 1_555
C9 C5 1_555 1_555
C10 C6 1_555 1_555
O3 C11 1_555 1_555
O4 C14 1_555 1_555
C11 C12 1_555 1_555
C12 C13 1_555 1_555
C13 C14 1_555 1_555
C14 C15 1_555 1_555
C15 C16 1_555 1_555
C16 C11 1_555 1_555
C17 C12 1_555 1_555
C18 C13 1_555 1_555
C19 C15 1_555 1_555
C20 C16 1_555 1_555
O5 C21 1_555 1_555
O6 C24 1_555 1_555
C21 C22 1_555 1_555
C22 C23 1_555 1_555
C23 C24 1_555 1_555
C24 C25 1_555 1_555
C25 C26 1_555 1_555
C26 C21 1_555 1_555
C27 C22 1_555 1_555
C28 C23 1_555 1_555
C29 C25 1_555 1_555
C30 C26 1_555 1_555
O7 C31 1_555 1_555
O8 C34 1_555 1_555
C31 C32 1_555 1_555
C32 C33 1_555 1_555
C33 C34 1_555 1_555
C34 C35 1_555 1_555
C35 C36 1_555 1_555
C36 C31 1_555 1_555
C37 C32 1_555 1_555
C38 C33 1_555 1_555
C39 C35 1_555 1_555
C40 C36 1_555 1_555
O9 C41 1_555 1_555
O10 C44 1_555 1_555
C41 C42 1_555 1_555
C42 C43 1_555 1_555
C43 C44 1_555 1_555
C44 C45 1_555 1_555
C45 C46 1_555 1_555
C46 C41 1_555 1_555
C47 C42 1_555 1_555
C48 C43 1_555 1_555
C49 C45 1_555 1_555
C50 C46 1_555 1_555
C51 C52 1_555 1_555
C52 C53 1_555 1_555
C53 C54 1_555 1_555
C54 C55 1_555 1_555
C55 C56 1_555 1_555
C56 C51 1_555 1_555
C57 C51 1_555 1_555
C58 C52 1_555 1_555
C59 C54 1_555 1_555
C60 C55 1_555 1_555
C61 C62 1_555 1_555
C62 C63 1_555 1_555
C63 C64 1_555 1_555
C64 C65 1_555 1_555
C65 C66 1_555 1_555
C66 C61 1_555 1_555
C67 C61 1_555 1_555
C68 C62 1_555 1_555
C69 C64 1_555 1_555
C70 C65 1_555 1_555
O11 C73 1_555 1_555
O12 C76 1_555 1_555
C71 C72 1_555 1_555
C72 C73 1_555 1_555
C73 C74 1_555 1_555
C74 C75 1_555 1_555
C75 C76 1_555 1_555
C76 C71 1_555 1_555
C77 C71 1_555 1_555
C78 C72 1_555 1_555
C79 C74 1_555 1_555
C80 C75 1_555 1_555
O13 C81 1_555 1_555
C81 C82 1_555 1_555
C82 C84 1_555 1_555
C83 C81 1_555 1_555
C85 C83 1_555 1_555
O14 C86 1_555 1_555
C86 C87 1_555 1_555
C87 C89 1_555 1_555
C88 C86 1_555 1_555
C90 C88 1_555 1_555
C83A C82 1_555 1_555
C82A C83 1_555 1_555
C81A C83A 1_555 1_555
C85A C83A 1_555 1_555
C84A C82A 1_555 1_555
O13A C81A 1_555 1_555
C88A C87 1_555 1_555
C87A C88 1_555 1_555
C86A C88A 1_555 1_555
C90A C88A 1_555 1_555
C89A C87A 1_555 1_555
O14A C86A 1_555 1_555
C82A C81A 1_555 1_555
C87A C86A 1_555 1_555

#END
