
#######################################################################
#
#                 Cambridge Crystallographic Data Centre
#                                CCDC 
#
#######################################################################
#
# If this CIF has been generated from an entry in the Cambridge 
# Structural Database, then it will include bibliographic, chemical, 
# crystal, experimental, refinement or atomic coordinate data resulting 
# from the CCDC's data processing and validation procedures.
#
#######################################################################

data_HEPKAR03
_chemical_name_common            
'pentadeuteroimidazolium deuterium terephthalate'
_chemical_formula_moiety         'C8 H4 D1 O4 1-,C3 D5 N2 1+'
_chemical_name_systematic        
'pentadeuteroimidazolium 4-(deuterocarboxy)benzoate'
_symmetry_cell_setting           orthorhombic
_symmetry_space_group_name_H-M   'P n m a'
_symmetry_Int_Tables_number      62
_space_group_name_Hall           '-P 2ac 2n'
loop_
_symmetry_equiv_pos_site_id
_symmetry_equiv_pos_as_xyz
1 x,y,z
2 1/2-x,-y,1/2+z
3 -x,1/2+y,-z
4 1/2+x,1/2-y,1/2-z
5 -x,-y,-z
6 1/2+x,y,1/2-z
7 x,1/2-y,z
8 1/2-x,1/2+y,1/2+z
_cell_length_a                   9.686(9)
_cell_length_b                   7.083(6)
_cell_length_c                   15.849(15)
_cell_angle_alpha                90
_cell_angle_beta                 90
_cell_angle_gamma                90
_cell_volume                     1087.34
_exptl_crystal_colour            colorless
_exptl_crystal_description       block
_cell_formula_units_Z            4
loop_
_atom_site_label
_atom_site_type_symbol
_atom_site_fract_x
_atom_site_fract_y
_atom_site_fract_z
C1 C 0.2142(2) 0.2500 0.00898(16)
C2 C 0.3652(2) 0.2500 0.03205(14)
C3 C 0.4647(2) 0.2500 -0.03118(15)
H1 H 0.4375 0.2500 -0.0875
C4 C 0.6038(2) 0.2500 -0.01106(16)
H2 H 0.6696 0.2500 -0.0538
C5 C 0.6452(2) 0.2500 0.07281(14)
C6 C 0.7954(2) 0.2500 0.09583(16)
C7 C 0.5457(2) 0.2500 0.13621(15)
H3 H 0.5726 0.2500 0.1925
C8 C 0.4065(2) 0.2500 0.11547(15)
H4 H 0.3405 0.2500 0.1581
O1 O 0.12986(18) 0.2500 0.07019(12)
O2 O 0.1808(2) 0.2500 -0.06648(12)
O3 O 0.87852(19) 0.2500 0.03342(13)
O4 O 0.8327(2) 0.2500 0.16846(13)
D1 D 0.986(6) 0.2500 0.049(3)
C9? C 0.1317(9) 0.8943(15) 0.1839(7)
D2? D 0.1163 1.0101 0.1589
C10? C 0.1900(12) 0.641(3) 0.2532(9)
D3? D 0.2368 0.5689 0.2923
C11? C 0.0951(9) 0.5964(16) 0.1981(6)
D4? D 0.0592 0.4770 0.1905
N1? N 0.0571(3) 0.7500 0.15672(15)
D5? D -0.0075 0.7500 0.1136
N2? N 0.2124(10) 0.835(2) 0.2445(7)
D6? D 0.2802 0.8758 0.2812
loop_
_geom_bond_atom_site_label_1
_geom_bond_atom_site_label_2
_geom_bond_site_symmetry_1
_geom_bond_site_symmetry_2
C1 C2 1_555 1_555
C2 C3 1_555 1_555
C3 H1 1_555 1_555
C4 C3 1_555 1_555
H2 C4 1_555 1_555
C5 C4 1_555 1_555
C6 C5 1_555 1_555
C7 C5 1_555 1_555
H3 C7 1_555 1_555
C8 C2 1_555 1_555
H4 C8 1_555 1_555
O1 C1 1_555 1_555
O2 C1 1_555 1_555
O3 C6 1_555 1_555
O4 C6 1_555 1_555
D1 O3 1_555 1_555
C7 C8 1_555 1_555

#END
