
#######################################################################
#
#                 Cambridge Crystallographic Data Centre
#                                CCDC 
#
#######################################################################
#
# If this CIF has been generated from an entry in the Cambridge 
# Structural Database, then it will include bibliographic, chemical, 
# crystal, experimental, refinement or atomic coordinate data resulting 
# from the CCDC's data processing and validation procedures.
#
#######################################################################

data_HEPSAZ11
_chemical_name_common            'imidazolium hydrogen terephthalate'
_chemical_formula_moiety         'C8 H5 O4 1-,C3 H5 N2 1+'
_chemical_name_systematic        'imidazolium 4-carboxybenzoate'
_symmetry_cell_setting           monoclinic
_symmetry_space_group_name_H-M   'P 21/c'
_symmetry_Int_Tables_number      14
_space_group_name_Hall           '-P 2ybc'
loop_
_symmetry_equiv_pos_site_id
_symmetry_equiv_pos_as_xyz
1 x,y,z
2 -x,1/2+y,1/2-z
3 -x,-y,-z
4 x,1/2-y,1/2+z
_cell_length_a                   7.020(3)
_cell_length_b                   15.944(7)
_cell_length_c                   9.648(4)
_cell_angle_alpha                90
_cell_angle_beta                 95.352(7)
_cell_angle_gamma                90
_cell_volume                     1075.16
_exptl_crystal_colour            colorless
_exptl_crystal_description       block
_cell_formula_units_Z            4
loop_
_atom_site_label
_atom_site_type_symbol
_atom_site_fract_x
_atom_site_fract_y
_atom_site_fract_z
C1 C 0.2505(2) 0.00763(10) 0.21982(15)
C2 C 0.2523(2) 0.03027(10) 0.37184(14)
C3 C 0.2581(2) 0.11353(10) 0.41371(15)
H1 H 0.2641 0.1559 0.3481
C4 C 0.2549(2) 0.13359(10) 0.55335(16)
H2 H 0.2580 0.1895 0.5809
C5 C 0.2473(2) 0.07077(10) 0.65215(15)
C6 C 0.2383(2) 0.09327(10) 0.80255(15)
C7 C 0.2463(2) -0.01262(10) 0.61068(15)
H3 H 0.2447 -0.0551 0.6766
C8 C 0.2476(2) -0.03246(10) 0.47074(15)
H4 H 0.2454 -0.0884 0.4431
O1 O 0.2556(2) 0.06841(7) 0.13569(12)
O2 O 0.2428(2) -0.06724(8) 0.18598(13)
O3 O 0.2726(2) 0.03231(8) 0.88807(12)
O4 O 0.1990(2) 0.16531(8) 0.83761(12)
H5 H 0.262(4) 0.0484(16) 1.001(3)
C9 C 0.9223(3) 0.19415(13) 0.1000(2)
H6 H 1.0441 0.1833 0.0741
C10 C 0.6199(4) 0.18856(15) 0.1136(3)
H7 H 0.4924 0.1722 0.0988
C11 C 0.6904(4) 0.24730(14) 0.2021(3)
H8 H 0.6215 0.2806 0.2589
N1 N 0.7665(2) 0.15713(10) 0.04945(16)
H9 H 0.7584 0.1191 -0.0140
N2 N 0.8810(3) 0.24921(10) 0.19346(17)
H10 H 0.9615 0.2811 0.2410
loop_
_geom_bond_atom_site_label_1
_geom_bond_atom_site_label_2
_geom_bond_site_symmetry_1
_geom_bond_site_symmetry_2
C1 C2 1_555 1_555
C2 C3 1_555 1_555
C3 H1 1_555 1_555
C4 C3 1_555 1_555
H2 C4 1_555 1_555
C5 C4 1_555 1_555
C6 C5 1_555 1_555
C7 C5 1_555 1_555
H3 C7 1_555 1_555
C8 C2 1_555 1_555
H4 C8 1_555 1_555
O1 C1 1_555 1_555
O2 C1 1_555 1_555
O3 C6 1_555 1_555
O4 C6 1_555 1_555
H5 O3 1_555 1_555
C9 H6 1_555 1_555
C10 H7 1_555 1_555
C11 C10 1_555 1_555
H8 C11 1_555 1_555
N1 C9 1_555 1_555
H9 N1 1_555 1_555
N2 C9 1_555 1_555
H10 N2 1_555 1_555
C7 C8 1_555 1_555
C10 N1 1_555 1_555
C11 N2 1_555 1_555

#END
