
#######################################################################
#
#                 Cambridge Crystallographic Data Centre
#                                CCDC 
#
#######################################################################
#
# If this CIF has been generated from an entry in the Cambridge 
# Structural Database, then it will include bibliographic, chemical, 
# crystal, experimental, refinement or atomic coordinate data resulting 
# from the CCDC's data processing and validation procedures.
#
#######################################################################

data_HEPSAZ06
_chemical_name_common            
'1,3-dideuteroimidazolium deuterium terephthalate'
_chemical_formula_moiety         'C8 H4 D1 O4 1-,C3 H3 D2 N2 1+'
_chemical_name_systematic        
'1,3-dideuteroimidazolium 4-(deuterocarboxy)benzoate'
_symmetry_cell_setting           monoclinic
_symmetry_space_group_name_H-M   'P 21/c'
_symmetry_Int_Tables_number      14
_space_group_name_Hall           '-P 2ybc'
loop_
_symmetry_equiv_pos_site_id
_symmetry_equiv_pos_as_xyz
1 x,y,z
2 -x,1/2+y,1/2-z
3 -x,-y,-z
4 x,1/2-y,1/2+z
_cell_length_a                   7.051(6)
_cell_length_b                   15.889(13)
_cell_length_c                   9.677(8)
_cell_angle_alpha                90
_cell_angle_beta                 92.930(17)
_cell_angle_gamma                90
_cell_volume                     1082.73
_exptl_crystal_colour            colorless
_exptl_crystal_description       block
_cell_formula_units_Z            4
loop_
_atom_site_label
_atom_site_type_symbol
_atom_site_fract_x
_atom_site_fract_y
_atom_site_fract_z
C1 C 0.2483(3) 0.00856(13) 0.21662(19)
C2 C 0.2510(3) 0.03137(12) 0.36789(18)
C3 C 0.2538(3) 0.11495(13) 0.40970(19)
H1 H 0.2571 0.1576 0.3440
C4 C 0.2518(3) 0.13522(13) 0.5489(2)
H2 H 0.2531 0.1914 0.5761
C5 C 0.2478(3) 0.07215(12) 0.64799(19)
C6 C 0.2406(3) 0.09496(14) 0.7981(2)
C7 C 0.2479(3) -0.01164(14) 0.60665(19)
H3 H 0.2475 -0.0543 0.6724
C8 C 0.2487(3) -0.03151(13) 0.4673(2)
H4 H 0.2478 -0.0876 0.4400
O1 O 0.2512(3) 0.06943(10) 0.13249(15)
O2 O 0.2430(3) -0.06677(10) 0.18318(17)
O3 O 0.2650(3) 0.03301(11) 0.88213(15)
O4 O 0.2074(4) 0.16728(11) 0.83441(17)
D1 D 0.258(4) 0.049(2) 0.989(4)
C9 C 0.9139(5) 0.19265(19) 0.1045(3)
H5 H 1.0366 0.1805 0.0796
C10 C 0.6125(5) 0.1885(2) 0.1176(4)
H6 H 0.4866 0.1717 0.1037
C11 C 0.6766(5) 0.24780(19) 0.2034(3)
H7 H 0.6045 0.2822 0.2581
N1 N 0.7605(3) 0.15680(13) 0.0543(2)
D2 D 0.7548 0.1189 -0.0092
N2 N 0.8676(4) 0.24881(15) 0.1961(3)
D3 D 0.9451 0.2807 0.2433
loop_
_geom_bond_atom_site_label_1
_geom_bond_atom_site_label_2
_geom_bond_site_symmetry_1
_geom_bond_site_symmetry_2
C1 C2 1_555 1_555
C2 C3 1_555 1_555
C3 H1 1_555 1_555
C4 C3 1_555 1_555
H2 C4 1_555 1_555
C5 C4 1_555 1_555
C6 C5 1_555 1_555
C7 C5 1_555 1_555
H3 C7 1_555 1_555
C8 C2 1_555 1_555
H4 C8 1_555 1_555
O1 C1 1_555 1_555
O2 C1 1_555 1_555
O3 C6 1_555 1_555
O4 C6 1_555 1_555
D1 O3 1_555 1_555
C9 H5 1_555 1_555
C10 H6 1_555 1_555
C11 C10 1_555 1_555
H7 C11 1_555 1_555
N1 C9 1_555 1_555
D2 N1 1_555 1_555
N2 C9 1_555 1_555
D3 N2 1_555 1_555
C7 C8 1_555 1_555
C10 N1 1_555 1_555
C11 N2 1_555 1_555

#END
