
#######################################################################
#
#                 Cambridge Crystallographic Data Centre
#                                CCDC 
#
#######################################################################
#
# If this CIF has been generated from an entry in the Cambridge 
# Structural Database, then it will include bibliographic, chemical, 
# crystal, experimental, refinement or atomic coordinate data resulting 
# from the CCDC's data processing and validation procedures.
#
#######################################################################

data_HEPXOP
_chemical_formula_moiety         'C9 H19 N2 1+,C10 H15 O4 1-'
_chemical_name_systematic        
'(+)-(2S,5R)-4-Allyl-2,5-dimethylpiperazinium (+)-camphorate'
_symmetry_cell_setting           orthorhombic
_symmetry_space_group_name_H-M   'P 21 21 21'
_symmetry_Int_Tables_number      19
_space_group_name_Hall           'P 2ac 2ab'
loop_
_symmetry_equiv_pos_site_id
_symmetry_equiv_pos_as_xyz
1 x,y,z
2 1/2+x,1/2-y,-z
3 -x,1/2+y,1/2-z
4 1/2-x,-y,1/2+z
_cell_length_a                   6.963(1)
_cell_length_b                   12.831(3)
_cell_length_c                   22.954(3)
_cell_angle_alpha                90
_cell_angle_beta                 90
_cell_angle_gamma                90
_cell_volume                     2050.76
_exptl_crystal_colour            colorless
_cell_formula_units_Z            4
loop_
_atom_site_label
_atom_site_type_symbol
_atom_site_fract_x
_atom_site_fract_y
_atom_site_fract_z
N1 N 0.2164(6) 1.0267(3) 0.6040(2)
C1 C 0.0288(8) 0.9749(4) 0.6027(2)
C2 C 0.0520(7) 0.8572(4) 0.5980(2)
N2 N 0.1674(6) 0.8326(3) 0.5453(2)
C3 C 0.3502(7) 0.8899(4) 0.5433(2)
C4 C 0.3185(7) 1.0074(4) 0.5485(2)
C5 C 0.1935(9) 1.1397(4) 0.6197(3)
C6 C 0.0816(10) 1.2026(5) 0.5782(3)
C7 C -0.0864(11) 1.2420(6) 0.5895(4)
C8 C -0.1397(8) 0.8027(4) 0.5945(2)
C9 C 0.5112(8) 1.0638(5) 0.5445(2)
H1 H -0.0416(8) 0.9996(4) 0.5695(2)
H2 H -0.0424(8) 0.9921(4) 0.6371(2)
H3 H 0.1189(7) 0.8332(4) 0.6320(2)
H4 H 0.1929(6) 0.7626(3) 0.5454(2)
H5 H 0.0858(6) 0.8455(3) 0.5138(2)
H6 H 0.4152(7) 0.8744(4) 0.5075(2)
H7 H 0.4310(7) 0.8679(4) 0.5749(2)
H8 H 0.2390(7) 1.0300(4) 0.5167(2)
H9 H 0.3187(9) 1.1699(4) 0.6245(3)
H10 H 0.1284(9) 1.1439(4) 0.6565(3)
H11 H 0.1367(10) 1.2139(5) 0.5404(3)
H12 H -0.1428(11) 1.2311(6) 0.6272(4)
H13 H -0.1543(11) 1.2813(6) 0.5605(4)
H14 H -0.1210(8) 0.7287(4) 0.5920(2)
H15 H -0.2131(8) 0.8188(4) 0.6288(2)
H16 H -0.2075(8) 0.8266(4) 0.5607(2)
H17 H 0.4925(8) 1.1378(5) 0.5472(2)
H18 H 0.5905(8) 1.0408(5) 0.5763(2)
H19 H 0.5728(8) 1.0473(5) 0.5083(2)
C10 C 0.3932(8) 0.4456(4) 0.7213(2)
C11 C 0.3415(9) 0.5439(4) 0.6841(2)
C12 C 0.3410(8) 0.4995(3) 0.6222(2)
C13 C 0.4961(12) 0.4165(5) 0.6196(2)
C14 C 0.5467(11) 0.3922(5) 0.6840(3)
C15 C 0.4603(9) 0.4771(5) 0.7820(2)
O1 O 0.3565(7) 0.5195(5) 0.8165(2)
O2 O 0.6382(6) 0.4545(3) 0.7945(2)
C16 C 0.2231(11) 0.3717(5) 0.7298(3)
C17 C 0.4904(12) 0.6287(5) 0.6915(3)
C18 C 0.1453(11) 0.5918(6) 0.7003(3)
C19 C 0.3559(9) 0.5832(4) 0.5747(2)
O3 O 0.5144(6) 0.6048(4) 0.5551(2)
O4 O 0.2020(6) 0.6280(3) 0.5610(2)
H20 H 0.2197(8) 0.4652(3) 0.6169(2)
H21 H 0.6051(12) 0.4443(5) 0.5992(2)
H22 H 0.4530(12) 0.3548(5) 0.5999(2)
H23 H 0.5467(11) 0.3184(5) 0.6906(3)
H24 H 0.6714(11) 0.4193(5) 0.6934(3)
H25 H 0.6815(6) 0.4878(3) 0.8253(2)
H26 H 0.2610(11) 0.3134(5) 0.7533(3)
H27 H 0.1200(11) 0.4082(5) 0.7486(3)
H28 H 0.1810(11) 0.3473(5) 0.6923(3)
H29 H 0.6144(12) 0.6005(5) 0.6821(3)
H30 H 0.4623(12) 0.6859(5) 0.6660(3)
H31 H 0.4905(12) 0.6527(5) 0.7311(3)
H32 H 0.1209(11) 0.6514(6) 0.6761(3)
H33 H 0.0477(11) 0.5403(6) 0.6938(3)
H34 H 0.1439(11) 0.6125(6) 0.7405(3)
loop_
_geom_bond_atom_site_label_1
_geom_bond_atom_site_label_2
_geom_bond_site_symmetry_1
_geom_bond_site_symmetry_2
N1 C1 1_555 1_555
C1 C2 1_555 1_555
C2 N2 1_555 1_555
N2 C3 1_555 1_555
C3 C4 1_555 1_555
C4 N1 1_555 1_555
C5 N1 1_555 1_555
C6 C5 1_555 1_555
C7 C6 1_555 1_555
C8 C2 1_555 1_555
C9 C4 1_555 1_555
C10 C11 1_555 1_555
C11 C12 1_555 1_555
C12 C13 1_555 1_555
C13 C14 1_555 1_555
C14 C10 1_555 1_555
C15 C10 1_555 1_555
O1 C15 1_555 1_555
O2 C15 1_555 1_555
C16 C10 1_555 1_555
C17 C11 1_555 1_555
C18 C11 1_555 1_555
C19 C12 1_555 1_555
O3 C19 1_555 1_555
O4 C19 1_555 1_555
H1 C1 1_555 1_555
H2 C1 1_555 1_555
H3 C2 1_555 1_555
H4 N2 1_555 1_555
H5 N2 1_555 1_555
H6 C3 1_555 1_555
H7 C3 1_555 1_555
H8 C4 1_555 1_555
H9 C5 1_555 1_555
H10 C5 1_555 1_555
H11 C6 1_555 1_555
H12 C7 1_555 1_555
H13 C7 1_555 1_555
H14 C8 1_555 1_555
H15 C8 1_555 1_555
H16 C8 1_555 1_555
H17 C9 1_555 1_555
H18 C9 1_555 1_555
H19 C9 1_555 1_555
H20 C12 1_555 1_555
H21 C13 1_555 1_555
H22 C13 1_555 1_555
H23 C14 1_555 1_555
H24 C14 1_555 1_555
H25 O2 1_555 1_555
H26 C16 1_555 1_555
H27 C16 1_555 1_555
H28 C16 1_555 1_555
H29 C17 1_555 1_555
H30 C17 1_555 1_555
H31 C17 1_555 1_555
H32 C18 1_555 1_555
H33 C18 1_555 1_555
H34 C18 1_555 1_555

#END
