
#######################################################################
#
#                 Cambridge Crystallographic Data Centre
#                                CCDC 
#
#######################################################################
#
# If this CIF has been generated from an entry in the Cambridge 
# Structural Database, then it will include bibliographic, chemical, 
# crystal, experimental, refinement or atomic coordinate data resulting 
# from the CCDC's data processing and validation procedures.
#
#######################################################################

data_HERJIY
_chemical_formula_moiety         'C17 H15 N3 O2'
_chemical_name_systematic        
(S)-3-(Indolo(2,3-b)quinoxalin-6-yl)propane-1,2-diol
_symmetry_cell_setting           monoclinic
_symmetry_space_group_name_H-M   'P 21'
_symmetry_Int_Tables_number      4
_space_group_name_Hall           'P 2yb'
loop_
_symmetry_equiv_pos_site_id
_symmetry_equiv_pos_as_xyz
1 x,y,z
2 -x,1/2+y,-z
_cell_length_a                   4.804(1)
_cell_length_b                   18.256(5)
_cell_length_c                   15.305(4)
_cell_angle_alpha                90
_cell_angle_beta                 98.54(1)
_cell_angle_gamma                90
_cell_volume                     1327.39
_exptl_crystal_colour            colorless
_exptl_crystal_description       lath
_cell_formula_units_Z            4
_exptl_crystal_recrystallization_method methanol/dichloromethane/hexane
loop_
_atom_site_label
_atom_site_type_symbol
_atom_site_fract_x
_atom_site_fract_y
_atom_site_fract_z
C1 C 1.1236(15) 1.1137(4) 0.4406(5)
H1 H 1.0927 1.1437 0.4889
C2 C 1.2996(16) 1.1377(4) 0.3860(6)
H2 H 1.3884 1.1841 0.3955
C3 C 1.3516(15) 1.0930(4) 0.3139(6)
H3 H 1.4754 1.1098 0.2752
C4 C 1.2261(15) 1.0265(3) 0.2997(5)
H4 H 1.2630 0.9969 0.2517
C5 C 1.0397(13) 1.0014(3) 0.3569(5)
N1 N 0.9164(11) 0.9335(3) 0.3419(4)
C6 C 0.7493(14) 0.9156(4) 0.3963(5)
N2 N 0.6000(12) 0.8518(3) 0.3968(4)
C7 C 0.4537(13) 0.8528(4) 0.4684(5)
C8 C 0.2793(14) 0.7990(4) 0.4961(6)
H5 H 0.2467 0.7540 0.4653
C9 C 0.1581(16) 0.8138(4) 0.5690(6)
H6 H 0.0407 0.7778 0.5897
C10 C 0.2006(16) 0.8794(4) 0.6138(6)
H7 H 0.1101 0.8875 0.6641
C11 C 0.3701(14) 0.9332(4) 0.5878(5)
H8 H 0.3977 0.9783 0.6188
C12 C 0.4979(13) 0.9192(3) 0.5151(5)
C13 C 0.6915(14) 0.9604(3) 0.4693(5)
N3 N 0.8051(12) 1.0238(3) 0.4857(4)
C14 C 0.9845(14) 1.0463(4) 0.4289(5)
C15 C 0.6129(17) 0.7918(4) 0.3370(6)
H9 H 0.5505 0.7465 0.3640
H10 H 0.8106 0.7846 0.3277
C16 C 0.4290(14) 0.8040(4) 0.2469(5)
H11 H 0.4909 0.8497 0.2194
C17 C 0.4629(16) 0.7395(4) 0.1876(5)
H12 H 0.6444 0.7450 0.1650
H13 H 0.4757 0.6945 0.2242
O1 O 0.1424(10) 0.8102(3) 0.2561(4)
H14 H 0.0772 0.8460 0.2808
O2 O 0.2517(11) 0.7291(3) 0.1155(4)
H15 H 0.2806 0.7589 0.0759
C18 C 0.6488(14) 0.7361(4) 0.9371(5)
H16 H 0.6124 0.7059 0.9847
C19 C 0.8197(15) 0.7119(4) 0.8804(6)
H17 H 0.9041 0.6648 0.8891
C20 C 0.8735(15) 0.7546(4) 0.8098(6)
H18 H 0.9922 0.7363 0.7703
C21 C 0.7578(15) 0.8220(4) 0.7967(5)
H19 H 0.7976 0.8508 0.7483
C22 C 0.5819(13) 0.8499(4) 0.8529(5)
N4 N 0.4719(11) 0.9190(3) 0.8384(4)
C23 C 0.3041(12) 0.9392(3) 0.8933(5)
N5 N 0.1701(11) 1.0047(3) 0.8946(4)
C24 C 0.0135(13) 1.0040(4) 0.9652(5)
C25 C -0.1582(14) 1.0588(4) 0.9913(5)
H20 H -0.1841 1.1041 0.9606
C26 C -0.2884(14) 1.0442(4) 1.0635(5)
H21 H -0.4080 1.0805 1.0826
C27 C -0.2522(13) 0.9793(4) 1.1091(5)
H22 H -0.3448 0.9716 1.1590
C28 C -0.0808(14) 0.9247(4) 1.0826(5)
H23 H -0.0564 0.8796 1.1138
C29 C 0.0510(13) 0.9370(3) 1.0115(5)
C30 C 0.2406(13) 0.8950(3) 0.9658(5)
N6 N 0.3476(11) 0.8300(3) 0.9819(4)
C31 C 0.5256(14) 0.8057(4) 0.9256(5)
C32 C 0.1753(16) 1.0628(4) 0.8301(5)
H24 H 0.3376 1.0552 0.7982
H25 H 0.2021 1.1104 0.8614
C33 C -0.0932(15) 1.0659(4) 0.7636(5)
H26 H -0.2498 1.0858 0.7930
C34 C -0.0432(16) 1.1163(4) 0.6892(6)
H27 H 0.0171 1.1649 0.7138
H28 H 0.1105 1.0962 0.6599
O3 O -0.1649(10) 0.9970(3) 0.7305(4)
H29 H -0.2682 0.9748 0.7615
O4 O -0.2901(10) 1.1247(3) 0.6256(4)
H30 H -0.2628 1.0956 0.5852
loop_
_geom_bond_atom_site_label_1
_geom_bond_atom_site_label_2
_geom_bond_site_symmetry_1
_geom_bond_site_symmetry_2
C1 H1 1_555 1_555
C2 C1 1_555 1_555
H2 C2 1_555 1_555
C3 C2 1_555 1_555
H3 C3 1_555 1_555
C4 C3 1_555 1_555
H4 C4 1_555 1_555
C5 C4 1_555 1_555
N1 C5 1_555 1_555
C6 N1 1_555 1_555
N2 C6 1_555 1_555
C7 N2 1_555 1_555
C8 C7 1_555 1_555
H5 C8 1_555 1_555
C9 C8 1_555 1_555
H6 C9 1_555 1_555
C10 C9 1_555 1_555
H7 C10 1_555 1_555
C11 C10 1_555 1_555
H8 C11 1_555 1_555
C12 C7 1_555 1_555
C13 C6 1_555 1_555
N3 C13 1_555 1_555
C14 C1 1_555 1_555
C15 N2 1_555 1_555
H9 C15 1_555 1_555
H10 C15 1_555 1_555
C16 C15 1_555 1_555
H11 C16 1_555 1_555
C17 C16 1_555 1_555
H12 C17 1_555 1_555
H13 C17 1_555 1_555
O1 C16 1_555 1_555
H14 O1 1_555 1_555
O2 C17 1_555 1_555
H15 O2 1_555 1_555
C18 H16 1_555 1_555
C19 C18 1_555 1_555
H17 C19 1_555 1_555
C20 C19 1_555 1_555
H18 C20 1_555 1_555
C21 C20 1_555 1_555
H19 C21 1_555 1_555
C22 C21 1_555 1_555
N4 C22 1_555 1_555
C23 N4 1_555 1_555
N5 C23 1_555 1_555
C24 N5 1_555 1_555
C25 C24 1_555 1_555
H20 C25 1_555 1_555
C26 C25 1_555 1_555
H21 C26 1_555 1_555
C27 C26 1_555 1_555
H22 C27 1_555 1_555
C28 C27 1_555 1_555
H23 C28 1_555 1_555
C29 C24 1_555 1_555
C30 C23 1_555 1_555
N6 C30 1_555 1_555
C31 C18 1_555 1_555
C32 N5 1_555 1_555
H24 C32 1_555 1_555
H25 C32 1_555 1_555
C33 C32 1_555 1_555
H26 C33 1_555 1_555
C34 C33 1_555 1_555
H27 C34 1_555 1_555
H28 C34 1_555 1_555
O3 C33 1_555 1_555
H29 O3 1_555 1_555
O4 C34 1_555 1_555
H30 O4 1_555 1_555
C5 C14 1_555 1_555
C11 C12 1_555 1_555
C12 C13 1_555 1_555
N3 C14 1_555 1_555
C22 C31 1_555 1_555
C28 C29 1_555 1_555
C29 C30 1_555 1_555
N6 C31 1_555 1_555

#END
