
#######################################################################
#
#                 Cambridge Crystallographic Data Centre
#                                CCDC 
#
#######################################################################
#
# If this CIF has been generated from an entry in the Cambridge 
# Structural Database, then it will include bibliographic, chemical, 
# crystal, experimental, refinement or atomic coordinate data resulting 
# from the CCDC's data processing and validation procedures.
#
#######################################################################

data_HERMAS
_chemical_formula_moiety         'C36 H25 F2 I1 O2 P2'
_chemical_name_systematic        
"(RS)-(6,6'-Difluoro-5-iodobiphenyl-2,2'-diyl)bis(diphenylphosphine oxide)"
_symmetry_cell_setting           orthorhombic
_symmetry_space_group_name_H-M   'P 21 21 21'
_symmetry_Int_Tables_number      19
_space_group_name_Hall           'P 2ac 2ab'
loop_
_symmetry_equiv_pos_site_id
_symmetry_equiv_pos_as_xyz
1 x,y,z
2 1/2+x,1/2-y,-z
3 -x,1/2+y,1/2-z
4 1/2-x,-y,1/2+z
_cell_length_a                   10.4620(4)
_cell_length_b                   14.5790(10)
_cell_length_c                   20.467(2)
_cell_angle_alpha                90
_cell_angle_beta                 90
_cell_angle_gamma                90
_cell_volume                     3121.74
_exptl_crystal_colour            colorless
_chemical_melting_point          272-274deg.C
_cell_formula_units_Z            4
loop_
_atom_site_label
_atom_site_type_symbol
_atom_site_fract_x
_atom_site_fract_y
_atom_site_fract_z
C1 C 0.4078(2) 0.1993(2) 0.22514(10)
C2 C 0.3636(2) 0.28796(14) 0.20890(11)
C3 C 0.4513(2) 0.3560(2) 0.19237(12)
C4 C 0.5822(2) 0.3386(2) 0.19282(13)
C5 C 0.6271(2) 0.25232(15) 0.21028(12)
C6 C 0.5395(2) 0.1851(2) 0.22629(11)
C7 C 0.3195(2) 0.12199(14) 0.24203(10)
C8 C 0.2779(2) 0.0564(2) 0.19643(10)
C9 C 0.1884(2) -0.0101(2) 0.21594(13)
C10 C 0.1417(2) -0.0114(2) 0.27939(15)
C11 C 0.1855(3) 0.0505(2) 0.32495(13)
C12 C 0.2740(2) 0.1147(2) 0.30511(12)
C13 C 0.1799(2) 0.36603(15) 0.29641(11)
C14 C 0.2657(3) 0.4303(2) 0.32170(14)
C15 C 0.2506(4) 0.4642(2) 0.38451(15)
C16 C 0.1508(4) 0.4334(2) 0.42242(14)
C17 C 0.0655(3) 0.3697(3) 0.39896(15)
C18 C 0.0798(3) 0.3350(2) 0.33550(14)
C19 C 0.1681(2) 0.4070(2) 0.15613(11)
C20 C 0.1318(3) 0.3784(2) 0.09386(14)
C21 C 0.1047(3) 0.4424(2) 0.04534(15)
C22 C 0.1143(3) 0.5355(2) 0.0590(2)
C23 C 0.1499(3) 0.5640(2) 0.12034(15)
C24 C 0.1757(3) 0.5010(2) 0.16929(13)
C25 C 0.3304(3) -0.0627(2) 0.08757(11)
C26 C 0.2698(3) -0.0918(2) 0.03084(14)
C27 C 0.2792(4) -0.1831(2) 0.0113(2)
C28 C 0.3452(4) -0.2454(2) 0.0485(2)
C29 C 0.4060(4) -0.2172(2) 0.1050(2)
C30 C 0.3995(3) -0.1261(2) 0.1240(2)
C31 C 0.2143(3) 0.1138(2) 0.06354(12)
C32 C 0.0844(3) 0.1110(2) 0.07715(14)
C33 C -0.0023(3) 0.1510(2) 0.0341(2)
C34 C 0.0416(4) 0.1954(2) -0.02163(14)
C35 C 0.1700(4) 0.1996(2) -0.03483(14)
C36 C 0.2574(3) 0.1582(2) 0.00702(14)
F1 F 0.58150(14) 0.10171(10) 0.24399(8)
F2 F 0.3178(2) 0.17627(12) 0.34976(7)
I1 I 0.82426(1) 0.22611(1) 0.20985(1)
O1 O 0.10598(15) 0.23830(11) 0.20562(9)
O2 O 0.4642(2) 0.09709(13) 0.10380(9)
P1 P 0.19438(5) 0.31724(4) 0.21556(3)
P2 P 0.33447(6) 0.05682(4) 0.11232(3)
H1 H 0.4255(31) 0.4197(23) 0.1800(16)
H2 H 0.6407(32) 0.3845(22) 0.1862(15)
H3 H 0.1584(30) -0.0572(20) 0.1853(14)
H4 H 0.0833(34) -0.0492(24) 0.2854(18)
H5 H 0.1684(43) 0.0498(27) 0.3727(20)
H6 H 0.3321(31) 0.4475(21) 0.2991(15)
H7 H 0.3081(39) 0.5027(27) 0.3999(18)
H8 H 0.1459(40) 0.4524(28) 0.4613(20)
H9 H -0.0090(40) 0.3419(29) 0.4264(19)
H10 H 0.0264(33) 0.2904(23) 0.3201(16)
H11 H 0.1193(33) 0.3195(24) 0.0863(15)
H12 H 0.0742(44) 0.4284(33) 0.0027(23)
H13 H 0.0962(38) 0.5737(28) 0.0262(21)
H14 H 0.1566(40) 0.6275(27) 0.1289(18)
H15 H 0.1972(29) 0.5228(21) 0.2147(16)
H16 H 0.2195(32) -0.0480(25) 0.0082(16)
H17 H 0.2478(47) -0.1986(34) -0.0249(26)
H18 H 0.3527(42) -0.3068(29) 0.0331(20)
H19 H 0.4492(47) -0.2647(34) 0.1283(23)
H20 H 0.4380(38) -0.1127(27) 0.1645(19)
H21 H 0.0489(34) 0.0827(24) 0.1171(17)
H22 H -0.0904(38) 0.1443(26) 0.0436(18)
H23 H -0.0167(47) 0.2195(35) -0.0490(24)
H24 H 0.2003(35) 0.2345(25) -0.0722(17)
H25 H 0.3459(36) 0.1590(24) 0.0010(16)
loop_
_geom_bond_atom_site_label_1
_geom_bond_atom_site_label_2
_geom_bond_site_symmetry_1
_geom_bond_site_symmetry_2
C1 C2 1_555 1_555
C2 C3 1_555 1_555
C3 C4 1_555 1_555
C4 C5 1_555 1_555
C5 C6 1_555 1_555
C6 C1 1_555 1_555
C7 C1 1_555 1_555
C8 C7 1_555 1_555
C9 C8 1_555 1_555
C10 C9 1_555 1_555
C11 C10 1_555 1_555
C12 C7 1_555 1_555
C13 C14 1_555 1_555
C14 C15 1_555 1_555
C15 C16 1_555 1_555
C16 C17 1_555 1_555
C17 C18 1_555 1_555
C18 C13 1_555 1_555
C19 C20 1_555 1_555
C20 C21 1_555 1_555
C21 C22 1_555 1_555
C22 C23 1_555 1_555
C23 C24 1_555 1_555
C24 C19 1_555 1_555
C25 C26 1_555 1_555
C26 C27 1_555 1_555
C27 C28 1_555 1_555
C28 C29 1_555 1_555
C29 C30 1_555 1_555
C30 C25 1_555 1_555
C31 C32 1_555 1_555
C32 C33 1_555 1_555
C33 C34 1_555 1_555
C34 C35 1_555 1_555
C35 C36 1_555 1_555
C36 C31 1_555 1_555
F1 C6 1_555 1_555
F2 C12 1_555 1_555
I1 C5 1_555 1_555
O1 P1 1_555 1_555
O2 P2 1_555 1_555
P1 C2 1_555 1_555
P2 C8 1_555 1_555
H1 C3 1_555 1_555
H2 C4 1_555 1_555
H3 C9 1_555 1_555
H4 C10 1_555 1_555
H5 C11 1_555 1_555
H6 C14 1_555 1_555
H7 C15 1_555 1_555
H8 C16 1_555 1_555
H9 C17 1_555 1_555
H10 C18 1_555 1_555
H11 C20 1_555 1_555
H12 C21 1_555 1_555
H13 C22 1_555 1_555
H14 C23 1_555 1_555
H15 C24 1_555 1_555
H16 C26 1_555 1_555
H17 C27 1_555 1_555
H18 C28 1_555 1_555
H19 C29 1_555 1_555
H20 C30 1_555 1_555
H21 C32 1_555 1_555
H22 C33 1_555 1_555
H23 C34 1_555 1_555
H24 C35 1_555 1_555
H25 C36 1_555 1_555
C11 C12 1_555 1_555
C13 P1 1_555 1_555
C19 P1 1_555 1_555
C25 P2 1_555 1_555
C31 P2 1_555 1_555

#END
