
#######################################################################
#
#                 Cambridge Crystallographic Data Centre
#                                CCDC 
#
#######################################################################
#
# If this CIF has been generated from an entry in the Cambridge 
# Structural Database, then it will include bibliographic, chemical, 
# crystal, experimental, refinement or atomic coordinate data resulting 
# from the CCDC's data processing and validation procedures.
#
#######################################################################

data_HESBIT
_chemical_formula_moiety         'C26 H19 Cl1 F1 N2 O2 1-,C4 H10 N1 1+'
_chemical_name_systematic        
'pyrrolidin-1-ium 3-{4-[2-(2-chloro-4-fluorophenyl)-1-(1H-indazol-5-yl)but-1-en-1-yl]phenyl}prop-2-enoate'
_symmetry_cell_setting           monoclinic
_symmetry_space_group_name_H-M   'P 21/c'
_symmetry_Int_Tables_number      14
_space_group_name_Hall           '-P 2ybc'
loop_
_symmetry_equiv_pos_site_id
_symmetry_equiv_pos_as_xyz
1 x,y,z
2 -x,1/2+y,1/2-z
3 -x,-y,-z
4 x,1/2-y,1/2+z
_cell_length_a                   13.5939(5)
_cell_length_b                   23.4743(8)
_cell_length_c                   8.5161(3)
_cell_angle_alpha                90
_cell_angle_beta                 96.3140(10)
_cell_angle_gamma                90
_cell_volume                     2701.07
_exptl_crystal_colour            yellow
_exptl_crystal_description       prism
_cell_formula_units_Z            4
loop_
_atom_site_label
_atom_site_type_symbol
_atom_site_fract_x
_atom_site_fract_y
_atom_site_fract_z
C1 C 0.79845(12) 0.43525(7) 0.34210(19)
C2 C 0.8582(4) 0.4017(3) 0.2658(6)
C3 C 0.90926(19) 0.35107(12) 0.3451(3)
C4 C 0.9848(2) 0.35540(15) 0.4673(4)
C5 C 1.0334(3) 0.3066(2) 0.5360(5)
H1 H 1.085309 0.309697 0.619798
C6 C 1.0022(4) 0.2548(2) 0.4763(8)
C7 C 0.9288(3) 0.24733(14) 0.3570(4)
H2 H 0.908350 0.210589 0.319758
C8 C 0.8860(3) 0.29627(13) 0.2934(4)
H3 H 0.836161 0.292225 0.206756
C9 C 0.8886(4) 0.4104(2) 0.1007(5)
H4 H 0.845783 0.439956 0.045512
H5 H 0.878030 0.374474 0.040265
C10 C 0.9968(4) 0.4284(3) 0.1035(8)
H6 H 1.006866 0.465027 0.158255
H7 H 1.013564 0.432268 -0.005029
H8 H 1.039487 0.399513 0.159115
C11 C 0.74657(11) 0.48464(6) 0.25951(16)
C12 C 0.64136(11) 0.48547(6) 0.24455(17)
H9 H 0.607702 0.457167 0.297861
C13 C 0.58653(11) 0.52553(6) 0.15617(17)
H10 H 0.516235 0.525056 0.146077
C14 C 0.63873(11) 0.56713(6) 0.08152(17)
C15 C 0.76468(13) 0.61855(7) 0.0120(2)
H11 H 0.829779 0.632199 0.004429
C16 C 0.74229(12) 0.57005(6) 0.10282(17)
C17 C 0.79655(11) 0.52789(6) 0.19223(18)
H12 H 0.866817 0.529171 0.206164
C18 C 0.76418(11) 0.42010(6) 0.49801(17)
C19 C 0.73850(11) 0.36414(6) 0.53163(18)
H13 H 0.743808 0.335242 0.454922
C20 C 0.70557(11) 0.35008(6) 0.67416(17)
H14 H 0.690343 0.311494 0.694902
C21 C 0.69416(11) 0.39152(6) 0.78879(17)
C22 C 0.71882(13) 0.44776(7) 0.75467(18)
H15 H 0.711867 0.476818 0.830303
C23 C 0.75336(12) 0.46174(7) 0.61166(19)
H16 H 0.769789 0.500168 0.591183
C24 C 0.65455(11) 0.37734(6) 0.93770(17)
H17 H 0.646122 0.407980 1.007863
C25 C 0.62936(11) 0.32568(6) 0.98366(16)
H18 H 0.639042 0.294251 0.916779
C26 C 0.58657(10) 0.31454(6) 1.13523(16)
N1 N 0.60693(11) 0.61089(6) -0.01645(16)
H19 H 0.544341 0.618167 -0.047788
N2 N 0.68431(12) 0.64196(6) -0.05976(18)
O1 O 0.56077(8) 0.35673(4) 1.21371(11)
O2 O 0.57537(9) 0.26394(4) 1.17516(12)
F1 F 1.0506(2) 0.20858(11) 0.5451(3)
Cl1 Cl 1.02239(7) 0.42250(5) 0.53784(12)
C36 C 0.38817(13) 0.28143(7) 1.4038(2)
H28 H 0.391176 0.241320 1.439863
H29 H 0.380541 0.282056 1.286812
C37 C 0.30354(15) 0.31248(10) 1.4675(2)
H30 H 0.287611 0.295163 1.567597
H31 H 0.243576 0.311915 1.390132
C38 C 0.34227(15) 0.37297(9) 1.4943(2)
H32 H 0.337679 0.394643 1.394054
H33 H 0.305379 0.393537 1.570731
C39 C 0.44849(14) 0.36362(7) 1.55989(19)
H34 H 0.489372 0.397453 1.542377
H35 H 0.453889 0.355250 1.674449
N3 N 0.47972(10) 0.31329(5) 1.46883(14)
H36 H 0.519883 0.290168 1.533300
H37 H 0.513685 0.325162 1.388527
C27? C 0.8854(7) 0.4097(5) 0.3033(11)
C28? C 0.9420(2) 0.36468(14) 0.4004(4)
C29? C 1.0126(3) 0.38116(12) 0.5225(4)
H20? H 1.020246 0.420271 0.549776
C30? C 1.0720(2) 0.34041(16) 0.6046(4)
H21? H 1.120247 0.351668 0.688028
C31? C 1.0608(3) 0.28318(15) 0.5647(5)
C32? C 0.9902(3) 0.26671(12) 0.4426(5)
H22? H 0.982508 0.227595 0.415295
C33? C 0.9308(2) 0.30746(15) 0.3605(4)
C34? C 0.9229(6) 0.4199(4) 0.1434(10)
H23? H 0.923717 0.383312 0.085977
H24? H 0.876657 0.445859 0.080263
C35? C 1.0263(8) 0.4457(5) 0.1586(13)
H25? H 1.024794 0.483546 0.207128
H26? H 1.048868 0.449193 0.053597
H27? H 1.071917 0.421095 0.224909
F2? F 1.1178(2) 0.24437(15) 0.6434(4)
Cl2? Cl 0.8413(2) 0.28446(6) 0.2241(2)
loop_
_geom_bond_atom_site_label_1
_geom_bond_atom_site_label_2
_geom_bond_site_symmetry_1
_geom_bond_site_symmetry_2
C1 C2 1_555 1_555
C2 C3 1_555 1_555
C3 C4 1_555 1_555
C4 C5 1_555 1_555
C5 H1 1_555 1_555
C6 C5 1_555 1_555
C7 C6 1_555 1_555
H2 C7 1_555 1_555
C8 C3 1_555 1_555
H3 C8 1_555 1_555
C9 C2 1_555 1_555
H4 C9 1_555 1_555
H5 C9 1_555 1_555
C10 C9 1_555 1_555
H6 C10 1_555 1_555
H7 C10 1_555 1_555
H8 C10 1_555 1_555
C11 C1 1_555 1_555
C12 C11 1_555 1_555
H9 C12 1_555 1_555
C13 C12 1_555 1_555
H10 C13 1_555 1_555
C14 C13 1_555 1_555
C15 H11 1_555 1_555
C16 C14 1_555 1_555
C17 C11 1_555 1_555
H12 C17 1_555 1_555
C18 C1 1_555 1_555
C19 C18 1_555 1_555
H13 C19 1_555 1_555
C20 C19 1_555 1_555
H14 C20 1_555 1_555
C21 C20 1_555 1_555
C22 C21 1_555 1_555
H15 C22 1_555 1_555
C23 C18 1_555 1_555
H16 C23 1_555 1_555
C24 C21 1_555 1_555
H17 C24 1_555 1_555
C25 C24 1_555 1_555
H18 C25 1_555 1_555
C26 C25 1_555 1_555
N1 C14 1_555 1_555
H19 N1 1_555 1_555
N2 C15 1_555 1_555
O1 C26 1_555 1_555
O2 C26 1_555 1_555
F1 C6 1_555 1_555
Cl1 C4 1_555 1_555
C36 H28 1_555 1_555
H29 C36 1_555 1_555
C37 C36 1_555 1_555
H30 C37 1_555 1_555
H31 C37 1_555 1_555
C38 C37 1_555 1_555
H32 C38 1_555 1_555
H33 C38 1_555 1_555
C39 C38 1_555 1_555
H34 C39 1_555 1_555
H35 C39 1_555 1_555
N3 C36 1_555 1_555
H36 N3 1_555 1_555
H37 N3 1_555 1_555
C7 C8 1_555 1_555
C15 C16 1_555 1_555
C16 C17 1_555 1_555
C22 C23 1_555 1_555
N1 N2 1_555 1_555
C39 N3 1_555 1_555

#END
