
#######################################################################
#
#                 Cambridge Crystallographic Data Centre
#                                CCDC 
#
#######################################################################
#
# If this CIF has been generated from an entry in the Cambridge 
# Structural Database, then it will include bibliographic, chemical, 
# crystal, experimental, refinement or atomic coordinate data resulting 
# from the CCDC's data processing and validation procedures.
#
#######################################################################

data_HESXEL
_chemical_formula_moiety         'C36 H32 N12 4+,4(H2 O1),4(Cl1 1-)'
_chemical_name_systematic        
'2,5,13,16,22,25,33,36,41,43,45,47-dodecaazanonacyclo[35.3.1.1^2,5^.1^7,11^.1^13,16^.1^17,21^.1^22,25^.1^27,31^.1^33,36^]octatetraconta-1(41),3,5(48),7(47),8,10,13(46),14,17(45),18,20,23,25(44),27(43),28,30,33(42),34,37,39-icosaene-5,13,25,33-tetraium tetrakis(chloride) tetrahydrate'
_symmetry_cell_setting           triclinic
_symmetry_space_group_name_H-M   'P -1'
_symmetry_Int_Tables_number      2
_space_group_name_Hall           '-P 1'
loop_
_symmetry_equiv_pos_site_id
_symmetry_equiv_pos_as_xyz
1 x,y,z
2 -x,-y,-z
_cell_length_a                   7.6824(7)
_cell_length_b                   9.6852(9)
_cell_length_c                   13.3830(12)
_cell_angle_alpha                85.655(7)
_cell_angle_beta                 78.535(8)
_cell_angle_gamma                76.887(8)
_cell_volume                     949.963
_exptl_crystal_colour            colorless
_exptl_crystal_description       plate
_cell_formula_units_Z            1
loop_
_atom_site_label
_atom_site_type_symbol
_atom_site_fract_x
_atom_site_fract_y
_atom_site_fract_z
Cl1 Cl 0.68687(6) 0.85248(4) 0.29774(3)
Cl2 Cl 0.82314(6) 0.32377(5) 0.13592(3)
O1 O 0.5482(2) 0.60237(16) 0.22170(12)
H1 H 0.6306 0.5309 0.2002
H2 H 0.5968 0.6661 0.2376
O2 O 0.3832(2) 0.82135(15) 0.67686(12)
N1 N 0.7177(2) 0.57401(16) 0.86464(11)
N2 N 0.8014(2) 0.49441(16) 0.71219(11)
N3 N 0.90235(19) 0.35290(16) 0.57094(11)
N4 N 1.0257(2) 0.20255(15) 0.43624(11)
N5 N 1.1655(2) 0.02787(16) 0.33939(11)
N6 N 1.2916(2) 0.13136(16) 0.14611(11)
C1 C 0.6190(3) 0.66499(19) 0.95030(13)
H3 H 0.6367 0.6143 1.0141
H4 H 0.4899 0.6863 0.9489
C2 C 0.6841(2) 0.59455(18) 0.77098(13)
H5 H 0.5949 0.6659 0.7494
C3 C 0.8603(3) 0.45747(19) 0.86759(14)
H6 H 0.9104 0.4213 0.9244
C4 C 0.9129(2) 0.40625(19) 0.77243(14)
H7 H 1.0049 0.3279 0.7513
C5 C 0.7961(2) 0.47274(18) 0.60881(13)
C6 C 0.6869(2) 0.57281(18) 0.55472(14)
H8 H 0.6146 0.6553 0.5845
C7 C 0.6907(2) 0.54395(19) 0.45455(14)
H9 H 0.6187 0.6075 0.4158
C8 C 0.8014(2) 0.42068(19) 0.41136(13)
H10 H 0.8067 0.3997 0.3440
C9 C 0.9033(2) 0.33077(18) 0.47396(13)
C10 C 1.0379(2) 0.14610(19) 0.34589(13)
H11 H 0.9688 0.1835 0.2965
C11 C 1.1522(2) 0.11650(19) 0.48832(14)
H12 H 1.1726 0.1310 0.5525
C12 C 1.2397(2) 0.00736(19) 0.42679(14)
H13 H 1.3324 -0.0674 0.4408
C13 C 1.2166(3) -0.06883(19) 0.25410(14)
H14 H 1.1238 -0.1233 0.2582
H15 H 1.3299 -0.1348 0.2602
C14 C 1.2394(2) 0.00821(19) 0.15113(13)
C15 C 1.2120(3) -0.0541(2) 0.06703(14)
H16 H 1.1747 -0.1397 0.0739
C16 C 1.2416(3) 0.0148(2) -0.02746(14)
H17 H 1.2264 -0.0248 -0.0855
C17 C 1.2942(3) 0.1437(2) -0.03408(14)
H18 H 1.3141 0.1926 -0.0963
C18 C 1.3162(2) 0.19764(19) 0.05474(13)
N1A N 1.2823(2) 0.42599(16) 0.13536(11)
N2A N 1.1986(2) 0.50559(16) 0.28781(11)
N3A N 1.09765(19) 0.64710(16) 0.42906(11)
N4A N 0.9743(2) 0.79745(15) 0.56376(11)
N5A N 0.8345(2) 0.97213(16) 0.66061(11)
N6A N 0.7084(2) 0.86864(16) 0.85389(11)
C1A C 1.3810(3) 0.33501(19) 0.04970(13)
H3A H 1.3633 0.3857 -0.0141
H4A H 1.5101 0.3137 0.0511
C2A C 1.3159(2) 0.40545(18) 0.22902(13)
H5A H 1.4051 0.3341 0.2506
C3A C 1.1397(3) 0.54253(19) 0.13241(14)
H6A H 1.0896 0.5787 0.0756
C4A C 1.0871(2) 0.59375(19) 0.22757(14)
H7A H 0.9951 0.6721 0.2487
C5A C 1.2039(2) 0.52726(18) 0.39119(13)
C6A C 1.3131(2) 0.42719(18) 0.44528(14)
H8A H 1.3854 0.3447 0.4155
C7A C 1.3093(2) 0.45605(19) 0.54545(14)
H9A H 1.3813 0.3925 0.5842
C8A C 1.1986(2) 0.57932(19) 0.58864(13)
H10A H 1.1933 0.6003 0.6560
C9A C 1.0967(2) 0.66923(18) 0.52604(13)
C10A C 0.9621(2) 0.85390(19) 0.65411(13)
H11A H 1.0312 0.8165 0.7035
C11A C 0.8478(2) 0.88350(19) 0.51168(14)
H12A H 0.8274 0.8690 0.4475
C12A C 0.7603(2) 0.99264(19) 0.57321(14)
H13A H 0.6676 1.0674 0.5592
C13A C 0.7834(3) 1.06883(19) 0.74590(14)
H14A H 0.8762 1.1233 0.7418
H15A H 0.6701 1.1348 0.7398
C14A C 0.7606(2) 0.99179(19) 0.84887(13)
C15A C 0.7880(3) 1.0541(2) 0.93297(14)
H16A H 0.8253 1.1397 0.9261
C16A C 0.7584(3) 0.9852(2) 1.02746(14)
H17A H 0.7736 1.0248 1.0855
C17A C 0.7058(3) 0.8563(2) 1.03408(14)
H18A H 0.6859 0.8074 1.0963
C18A C 0.6838(2) 0.80236(19) 0.94526(13)
loop_
_geom_bond_atom_site_label_1
_geom_bond_atom_site_label_2
_geom_bond_site_symmetry_1
_geom_bond_site_symmetry_2
O1 H1 1_555 1_555
H2 O1 1_555 1_555
N1 C1 1_555 1_555
N2 C2 1_555 1_555
N3 C5 1_555 1_555
N4 C9 1_555 1_555
N5 C10 1_555 1_555
N6 C14 1_555 1_555
C1 H3 1_555 1_555
H4 C1 1_555 1_555
C2 N1 1_555 1_555
H5 C2 1_555 1_555
C3 N1 1_555 1_555
H6 C3 1_555 1_555
C4 N2 1_555 1_555
H7 C4 1_555 1_555
C5 N2 1_555 1_555
C6 C5 1_555 1_555
H8 C6 1_555 1_555
C7 C6 1_555 1_555
H9 C7 1_555 1_555
C8 C7 1_555 1_555
H10 C8 1_555 1_555
C9 N3 1_555 1_555
C10 N4 1_555 1_555
H11 C10 1_555 1_555
C11 N4 1_555 1_555
H12 C11 1_555 1_555
C12 N5 1_555 1_555
H13 C12 1_555 1_555
C13 N5 1_555 1_555
H14 C13 1_555 1_555
H15 C13 1_555 1_555
C14 C13 1_555 1_555
C15 C14 1_555 1_555
H16 C15 1_555 1_555
C16 C15 1_555 1_555
H17 C16 1_555 1_555
C17 C16 1_555 1_555
H18 C17 1_555 1_555
C18 N6 1_555 1_555
N1A C1A 1_555 1_555
N2A C2A 1_555 1_555
N3A C5A 1_555 1_555
N4A C9A 1_555 1_555
N5A C10A 1_555 1_555
N6A C14A 1_555 1_555
C1A C18 1_555 1_555
H3A C1A 1_555 1_555
H4A C1A 1_555 1_555
C2A N1A 1_555 1_555
H5A C2A 1_555 1_555
C3A N1A 1_555 1_555
H6A C3A 1_555 1_555
C4A N2A 1_555 1_555
H7A C4A 1_555 1_555
C5A N2A 1_555 1_555
C6A C5A 1_555 1_555
H8A C6A 1_555 1_555
C7A C6A 1_555 1_555
H9A C7A 1_555 1_555
C8A C7A 1_555 1_555
H10A C8A 1_555 1_555
C9A N3A 1_555 1_555
C10A N4A 1_555 1_555
H11A C10A 1_555 1_555
C11A N4A 1_555 1_555
H12A C11A 1_555 1_555
C12A N5A 1_555 1_555
H13A C12A 1_555 1_555
C13A N5A 1_555 1_555
H14A C13A 1_555 1_555
H15A C13A 1_555 1_555
C14A C13A 1_555 1_555
C15A C14A 1_555 1_555
H16A C15A 1_555 1_555
C16A C15A 1_555 1_555
H17A C16A 1_555 1_555
C17A C16A 1_555 1_555
H18A C17A 1_555 1_555
C18A C1 1_555 1_555
C3 C4 1_555 1_555
C8 C9 1_555 1_555
C11 C12 1_555 1_555
C17 C18 1_555 1_555
N6A C18A 1_555 1_555
C3A C4A 1_555 1_555
C8A C9A 1_555 1_555
C11A C12A 1_555 1_555
C17A C18A 1_555 1_555

#END
