
#######################################################################
#
#                 Cambridge Crystallographic Data Centre
#                                CCDC 
#
#######################################################################
#
# If this CIF has been generated from an entry in the Cambridge 
# Structural Database, then it will include bibliographic, chemical, 
# crystal, experimental, refinement or atomic coordinate data resulting 
# from the CCDC's data processing and validation procedures.
#
#######################################################################

data_HETDEP
_chemical_formula_moiety         'C37 H52 N4 O1 2+,2(Cl1 O4 1-)'
_chemical_name_systematic        
'5,21,23-Trihydro-5,10,15,20-tetra-t-butyl-15-methoxyporphyrin diperchlorate'
_symmetry_cell_setting           monoclinic
_symmetry_space_group_name_H-M   'P 21/c'
_symmetry_Int_Tables_number      14
_space_group_name_Hall           '-P 2ybc'
loop_
_symmetry_equiv_pos_site_id
_symmetry_equiv_pos_as_xyz
1 x,y,z
2 -x,1/2+y,1/2-z
3 -x,-y,-z
4 x,1/2-y,1/2+z
_cell_length_a                   20.130(4)
_cell_length_b                   17.515(3)
_cell_length_c                   11.308(2)
_cell_angle_alpha                90
_cell_angle_beta                 105.19(2)
_cell_angle_gamma                90
_cell_volume                     3847.65
_exptl_crystal_colour            green
_cell_formula_units_Z            4
loop_
_atom_site_label
_atom_site_type_symbol
_atom_site_fract_x
_atom_site_fract_y
_atom_site_fract_z
N1 N -0.3448(3) -0.0361(4) -0.2757(5)
N2 N -0.2397(3) 0.1083(3) -0.1934(5)
N3 N -0.1532(3) 0.0607(4) -0.3425(5)
N4 N -0.2701(3) -0.0978(3) -0.4364(5)
C1 C -0.3839(4) -0.1012(5) -0.3300(7)
C2 C -0.4530(4) -0.0767(5) -0.3502(7)
C3 C -0.4538(4) -0.0019(5) -0.3081(7)
C4 C -0.3866(4) 0.0201(4) -0.2608(6)
C5 C -0.3663(4) 0.0942(4) -0.1863(6)
C6 C -0.3621(3) 0.0829(4) -0.0476(6)
C7 C -0.3492(6) 0.1588(5) 0.0227(8)
C8 C -0.4299(4) 0.0492(5) -0.0322(8)
C9 C -0.3045(4) 0.0258(5) 0.0102(7)
O1 O -0.4228(3) 0.1471(3) -0.2285(4)
C10 C -0.4372(5) 0.1682(6) -0.3543(8)
C11 C -0.3031(4) 0.1362(4) -0.1990(6)
C12 C -0.2955(4) 0.2170(5) -0.1993(7)
C13 C -0.2286(4) 0.2341(5) -0.1851(8)
C14 C -0.1909(3) 0.1660(5) -0.1814(6)
C15 C -0.1207(3) 0.1481(4) -0.1703(6)
C16 C -0.0630(3) 0.1916(4) -0.0795(6)
C17 C -0.0849(5) 0.2677(5) -0.0338(9)
C18 C -0.0020(4) 0.2076(5) -0.1342(8)
C19 C -0.0409(4) 0.1381(5) 0.0327(6)
C20 C -0.1051(4) 0.0865(5) -0.2367(6)
C21 C -0.0499(3) 0.0353(5) -0.2202(7)
C22 C -0.0668(4) -0.0192(5) -0.3138(7)
C23 C -0.1298(3) -0.0001(4) -0.3900(6)
C24 C -0.1749(3) -0.0379(4) -0.5037(6)
C25 C -0.1420(3) -0.0519(4) -0.6112(5)
C26 C -0.1250(5) 0.0263(4) -0.6565(7)
C27 C -0.0768(4) -0.1011(5) -0.5819(8)
C28 C -0.1976(4) -0.0889(5) -0.7128(7)
C29 C -0.2076(4) -0.1044(4) -0.4573(7)
C30 C -0.1843(4) -0.1787(4) -0.4200(7)
C31 C -0.2340(4) -0.2151(4) -0.3802(7)
C32 C -0.2895(4) -0.1648(4) -0.3862(6)
C33 C -0.3514(4) -0.1686(4) -0.3535(6)
C34 C -0.3800(3) -0.2467(4) -0.3274(6)
C35 C -0.4540(4) -0.2448(5) -0.3159(9)
C36 C -0.3761(5) -0.3088(5) -0.4207(8)
C37 C -0.3351(4) -0.2716(5) -0.2004(7)
H1 H -0.2941 -0.0441 -0.2406
H2 H -0.2304 0.0582 -0.1971
H3 H -0.1939 0.0834 -0.3756
H4 H -0.2965 -0.0558 -0.4549
H5 H -0.4924 -0.1074 -0.3876
H6 H -0.4941 0.0283 -0.3120
H7 H -0.3461 0.1501 0.1078
H8 H -0.3073 0.1817 0.0147
H9 H -0.3871 0.1924 -0.0111
H10 H -0.4268 0.0408 0.0530
H11 H -0.4658 0.0854 -0.0650
H12 H -0.4400 0.0019 -0.0759
H13 H -0.3029 0.0188 0.0951
H14 H -0.3130 -0.0224 -0.0315
H15 H -0.2614 0.0460 0.0034
H16 H -0.4757 0.2026 -0.3704
H17 H -0.3981 0.1937 -0.3699
H18 H -0.4486 0.1244 -0.4066
H19 H -0.3325 0.2528 -0.2067
H20 H -0.2096 0.2847 -0.1796
H21 H -0.1002 0.3029 -0.1004
H22 H -0.1217 0.2583 0.0040
H23 H -0.0462 0.2889 0.0256
H24 H -0.0155 0.2394 -0.2057
H25 H 0.0332 0.2329 -0.0728
H26 H 0.0154 0.1600 -0.1556
H27 H -0.0267 0.0893 0.0095
H28 H -0.0032 0.1619 0.0908
H29 H -0.0786 0.1313 0.0691
H30 H -0.0081 0.0378 -0.1554
H31 H -0.0385 -0.0609 -0.3262
H32 H -0.2181 -0.0027 -0.5526
H33 H -0.1053 0.0198 -0.7245
H34 H -0.1662 0.0565 -0.6817
H35 H -0.0926 0.0517 -0.5909
H36 H -0.0605 -0.1076 -0.6536
H37 H -0.0420 -0.0765 -0.5190
H38 H -0.0873 -0.1501 -0.5532
H39 H -0.1796 -0.0987 -0.7820
H40 H -0.2118 -0.1360 -0.6838
H41 H -0.2364 -0.0551 -0.7367
H42 H -0.1398 -0.1991 -0.4179
H43 H -0.2323 -0.2673 -0.3535
H44 H -0.4675 -0.2950 -0.2976
H45 H -0.4581 -0.2102 -0.2524
H46 H -0.4833 -0.2280 -0.3929
H47 H -0.3936 -0.3565 -0.3994
H48 H -0.4039 -0.2921 -0.4989
H49 H -0.3295 -0.3156 -0.4248
H50 H -0.3505 -0.3202 -0.1785
H51 H -0.2880 -0.2756 -0.2036
H52 H -0.3386 -0.2342 -0.1403
Cl1 Cl 0.1653(1) 0.0999(1) 0.0704(2)
O2 O 0.1981(3) 0.0500(3) 0.1739(4)
O3 O 0.1206(3) 0.0542(4) -0.0213(5)
O4 O 0.2183(3) 0.1316(3) 0.0234(5)
O5 O 0.1291(3) 0.1592(3) 0.1134(5)
Cl2 Cl -0.6623(1) -0.0901(1) -0.4133(2)
O6 O -0.6089(3) -0.1426(3) -0.3736(6)
O7 O -0.7098(4) -0.1149(5) -0.5240(6)
O8 O -0.6365(4) -0.0176(4) -0.4361(9)
O9 O -0.7004(4) -0.0845(4) -0.3236(6)
loop_
_geom_bond_atom_site_label_1
_geom_bond_atom_site_label_2
_geom_bond_site_symmetry_1
_geom_bond_site_symmetry_2
N1 C1 1_555 1_555
N2 C11 1_555 1_555
N3 C20 1_555 1_555
N4 C29 1_555 1_555
C1 C2 1_555 1_555
C2 C3 1_555 1_555
C3 C4 1_555 1_555
C4 N1 1_555 1_555
C5 C4 1_555 1_555
C6 C5 1_555 1_555
C7 C6 1_555 1_555
C8 C6 1_555 1_555
C9 C6 1_555 1_555
O1 C5 1_555 1_555
C10 O1 1_555 1_555
C11 C5 1_555 1_555
C12 C11 1_555 1_555
C13 C12 1_555 1_555
C14 N2 1_555 1_555
C15 C14 1_555 1_555
C16 C15 1_555 1_555
C17 C16 1_555 1_555
C18 C16 1_555 1_555
C19 C16 1_555 1_555
C20 C15 1_555 1_555
C21 C20 1_555 1_555
C22 C21 1_555 1_555
C23 N3 1_555 1_555
C24 C23 1_555 1_555
C25 C24 1_555 1_555
C26 C25 1_555 1_555
C27 C25 1_555 1_555
C28 C25 1_555 1_555
C29 C24 1_555 1_555
C30 C29 1_555 1_555
C31 C30 1_555 1_555
C32 N4 1_555 1_555
C33 C1 1_555 1_555
C34 C33 1_555 1_555
C35 C34 1_555 1_555
C36 C34 1_555 1_555
C37 C34 1_555 1_555
Cl1 O2 1_555 1_555
O3 Cl1 1_555 1_555
O4 Cl1 1_555 1_555
O5 Cl1 1_555 1_555
Cl2 O6 1_555 1_555
O7 Cl2 1_555 1_555
O8 Cl2 1_555 1_555
O9 Cl2 1_555 1_555
H1 N1 1_555 1_555
H2 N2 1_555 1_555
H3 N3 1_555 1_555
H4 N4 1_555 1_555
H5 C2 1_555 1_555
H6 C3 1_555 1_555
H7 C7 1_555 1_555
H8 C7 1_555 1_555
H9 C7 1_555 1_555
H10 C8 1_555 1_555
H11 C8 1_555 1_555
H12 C8 1_555 1_555
H13 C9 1_555 1_555
H14 C9 1_555 1_555
H15 C9 1_555 1_555
H16 C10 1_555 1_555
H17 C10 1_555 1_555
H18 C10 1_555 1_555
H19 C12 1_555 1_555
H20 C13 1_555 1_555
H21 C17 1_555 1_555
H22 C17 1_555 1_555
H23 C17 1_555 1_555
H24 C18 1_555 1_555
H25 C18 1_555 1_555
H26 C18 1_555 1_555
H27 C19 1_555 1_555
H28 C19 1_555 1_555
H29 C19 1_555 1_555
H30 C21 1_555 1_555
H31 C22 1_555 1_555
H32 C24 1_555 1_555
H33 C26 1_555 1_555
H34 C26 1_555 1_555
H35 C26 1_555 1_555
H36 C27 1_555 1_555
H37 C27 1_555 1_555
H38 C27 1_555 1_555
H39 C28 1_555 1_555
H40 C28 1_555 1_555
H41 C28 1_555 1_555
H42 C30 1_555 1_555
H43 C31 1_555 1_555
H44 C35 1_555 1_555
H45 C35 1_555 1_555
H46 C35 1_555 1_555
H47 C36 1_555 1_555
H48 C36 1_555 1_555
H49 C36 1_555 1_555
H50 C37 1_555 1_555
H51 C37 1_555 1_555
H52 C37 1_555 1_555
C13 C14 1_555 1_555
C22 C23 1_555 1_555
C31 C32 1_555 1_555
C32 C33 1_555 1_555

#END
