
#######################################################################
#
#                 Cambridge Crystallographic Data Centre
#                                CCDC 
#
#######################################################################
#
# If this CIF has been generated from an entry in the Cambridge 
# Structural Database, then it will include bibliographic, chemical, 
# crystal, experimental, refinement or atomic coordinate data resulting 
# from the CCDC's data processing and validation procedures.
#
#######################################################################

data_HETFIY
_chemical_formula_moiety         'C29 H28'
_chemical_name_systematic        
3'-phenyl-2'-(1-phenylprop-1-en-1-yl)spiro[cyclohexane-1,1'-indene]
_symmetry_cell_setting           monoclinic
_symmetry_space_group_name_H-M   'C 2/c'
_symmetry_Int_Tables_number      15
_space_group_name_Hall           '-C 2yn'
loop_
_symmetry_equiv_pos_site_id
_symmetry_equiv_pos_as_xyz
1 x,y,z
2 -x,y,1/2-z
3 1/2+x,1/2+y,z
4 1/2-x,1/2+y,1/2-z
5 -x,-y,-z
6 x,-y,1/2+z
7 1/2-x,1/2-y,-z
8 1/2+x,1/2-y,1/2+z
_cell_length_a                   15.1865(15)
_cell_length_b                   11.8880(14)
_cell_length_c                   23.645(3)
_cell_angle_alpha                90
_cell_angle_beta                 95.227(10)
_cell_angle_gamma                90
_cell_volume                     4251.05
_exptl_crystal_colour            colorless
_exptl_crystal_description       block
_cell_formula_units_Z            8
loop_
_atom_site_label
_atom_site_type_symbol
_atom_site_fract_x
_atom_site_fract_y
_atom_site_fract_z
C1 C 0.44601(14) 0.42649(19) 0.64777(10)
C2 C 0.60567(14) 0.49977(18) 0.64147(10)
C3 C 0.36003(14) 0.46480(19) 0.63294(10)
C4 C 0.50871(14) 0.51031(19) 0.62924(10)
C5 C 0.46333(14) 0.59540(19) 0.60264(10)
C6 C 0.36325(14) 0.58104(19) 0.60621(10)
C7 C 0.52002(13) 0.7958(2) 0.61275(11)
C8 C 0.46197(15) 0.3226(2) 0.67315(11)
H1 H 0.5194 0.2985 0.6835
C9 C 0.64199(14) 0.48080(19) 0.69743(11)
H2 H 0.6046 0.4728 0.7262
C10 C 0.33156(14) 0.67312(19) 0.64553(11)
H3 H 0.3582 0.6600 0.6838
H4 H 0.3522 0.7456 0.6332
C11 C 0.50237(14) 0.6956(2) 0.57611(11)
C12 C 0.55615(14) 0.7835(2) 0.66871(11)
H5 H 0.5690 0.7118 0.6829
C13 C 0.28870(15) 0.3958(2) 0.64251(11)
H6 H 0.2310 0.4193 0.6323
C14 C 0.66379(15) 0.5115(2) 0.60013(11)
H7 H 0.6415 0.5247 0.5628
C15 C 0.30510(16) 0.2911(2) 0.66752(11)
H8 H 0.2580 0.2444 0.6741
C16 C 0.73241(14) 0.47382(19) 0.71031(12)
H9 H 0.7554 0.4619 0.7476
C17 C 0.75442(15) 0.5040(2) 0.61295(12)
H10 H 0.7921 0.5123 0.5843
C18 C 0.78889(15) 0.48455(19) 0.66794(12)
H11 H 0.8497 0.4786 0.6765
C19 C 0.23116(15) 0.6778(2) 0.64653(11)
H12 H 0.2103 0.6082 0.6620
H13 H 0.2155 0.7391 0.6708
C20 C 0.39047(15) 0.2556(2) 0.68272(11)
H14 H 0.4000 0.1856 0.6997
C21 C 0.57337(14) 0.8755(2) 0.70367(12)
H15 H 0.5985 0.8652 0.7407
C22 C 0.49987(15) 0.9047(2) 0.59370(12)
H16 H 0.4750 0.9155 0.5567
C23 C 0.31200(15) 0.5908(2) 0.54699(11)
H17 H 0.3338 0.6558 0.5278
H18 H 0.3245 0.5248 0.5250
C24 C 0.21175(15) 0.6018(2) 0.54759(11)
H19 H 0.1856 0.6173 0.5094
H20 H 0.1877 0.5312 0.5598
C25 C 0.18724(16) 0.6951(2) 0.58693(12)
H21 H 0.1236 0.6967 0.5880
H22 H 0.2055 0.7669 0.5724
C26 C 0.52309(16) 0.6893(2) 0.52228(12)
H23 H 0.5046 0.6246 0.5026
C27 C 0.51629(16) 0.9969(2) 0.62893(14)
H24 H 0.5023 1.0688 0.6155
C28 C 0.55344(16) 0.9821(2) 0.68399(14)
H25 H 0.5649 1.0439 0.7076
C29 C 0.57211(19) 0.7730(3) 0.48985(13)
H26 H 0.5309 0.8143 0.4646
H27 H 0.6134 0.7344 0.4683
H28 H 0.6035 0.8241 0.5159
loop_
_geom_bond_atom_site_label_1
_geom_bond_atom_site_label_2
_geom_bond_site_symmetry_1
_geom_bond_site_symmetry_2
C1 C3 1_555 1_555
C2 C4 1_555 1_555
C3 C6 1_555 1_555
C4 C1 1_555 1_555
C5 C4 1_555 1_555
C6 C5 1_555 1_555
C7 C11 1_555 1_555
C8 C1 1_555 1_555
H1 C8 1_555 1_555
C9 C2 1_555 1_555
H2 C9 1_555 1_555
C10 C6 1_555 1_555
H3 C10 1_555 1_555
H4 C10 1_555 1_555
C11 C5 1_555 1_555
C12 C7 1_555 1_555
H5 C12 1_555 1_555
C13 C3 1_555 1_555
H6 C13 1_555 1_555
C14 C2 1_555 1_555
H7 C14 1_555 1_555
C15 C13 1_555 1_555
H8 C15 1_555 1_555
C16 C9 1_555 1_555
H9 C16 1_555 1_555
C17 C14 1_555 1_555
H10 C17 1_555 1_555
C18 C16 1_555 1_555
H11 C18 1_555 1_555
C19 C10 1_555 1_555
H12 C19 1_555 1_555
H13 C19 1_555 1_555
C20 C8 1_555 1_555
H14 C20 1_555 1_555
C21 C12 1_555 1_555
H15 C21 1_555 1_555
C22 C7 1_555 1_555
H16 C22 1_555 1_555
C23 C6 1_555 1_555
H17 C23 1_555 1_555
H18 C23 1_555 1_555
C24 C23 1_555 1_555
H19 C24 1_555 1_555
H20 C24 1_555 1_555
C25 C19 1_555 1_555
H21 C25 1_555 1_555
H22 C25 1_555 1_555
C26 C11 1_555 1_555
H23 C26 1_555 1_555
C27 C22 1_555 1_555
H24 C27 1_555 1_555
C28 C21 1_555 1_555
H25 C28 1_555 1_555
C29 C26 1_555 1_555
H26 C29 1_555 1_555
H27 C29 1_555 1_555
H28 C29 1_555 1_555
C15 C20 1_555 1_555
C17 C18 1_555 1_555
C24 C25 1_555 1_555
C27 C28 1_555 1_555

#END
