
#######################################################################
#
#                 Cambridge Crystallographic Data Centre
#                                CCDC 
#
#######################################################################
#
# If this CIF has been generated from an entry in the Cambridge 
# Structural Database, then it will include bibliographic, chemical, 
# crystal, experimental, refinement or atomic coordinate data resulting 
# from the CCDC's data processing and validation procedures.
#
#######################################################################

data_HETXUC
_chemical_formula_moiety         'C33 H24 Br2 N2 O5 S1'
_chemical_name_systematic        
'ethyl 3-[(4-bromophenyl)diazenyl]-1-[(4-bromophenyl)sulfonyl]-4-hydroxy-1-phenyl-1,2-dihydrocyclobuta[a]naphthalene-2-carboxylate'
_symmetry_cell_setting           monoclinic
_symmetry_space_group_name_H-M   'P 21/c'
_symmetry_Int_Tables_number      14
_space_group_name_Hall           '-P 2ybc'
loop_
_symmetry_equiv_pos_site_id
_symmetry_equiv_pos_as_xyz
1 x,y,z
2 -x,1/2+y,1/2-z
3 -x,-y,-z
4 x,1/2-y,1/2+z
_cell_length_a                   13.4876(11)
_cell_length_b                   14.9328(13)
_cell_length_c                   15.7168(16)
_cell_angle_alpha                90
_cell_angle_beta                 107.249(3)
_cell_angle_gamma                90
_cell_volume                     3023.12
_exptl_crystal_colour            red
_exptl_crystal_description       block
_cell_formula_units_Z            4
loop_
_atom_site_label
_atom_site_type_symbol
_atom_site_fract_x
_atom_site_fract_y
_atom_site_fract_z
Br1 Br 0.51648(6) 0.87850(5) 0.95972(5)
Br2 Br 0.67185(5) -0.05830(4) 1.21133(4)
S1 S 0.94722(10) 0.18438(8) 1.03465(9)
N1 N 0.821(2) 0.530(2) 0.9362(15)
N2 N 0.8295(8) 0.6145(13) 0.9226(5)
O1 O 0.6548(3) 0.3533(2) 0.8556(3)
O2 O 0.6404(3) 0.3415(3) 0.9923(3)
O3 O 0.9947(4) 0.5644(2) 0.8473(3)
H1 H 0.9598 0.6019 0.8637
O4 O 0.9980(3) 0.2512(2) 1.0978(2)
O5 O 1.0089(3) 0.1267(2) 0.9980(2)
C1 C 0.6920(4) 0.3412(3) 0.9425(4)
C2 C 0.8078(4) 0.3285(3) 0.9733(3)
H2 H 0.8345 0.3350 1.0382
C3 C 0.8577(4) 0.2425(3) 0.9410(3)
C4 C 0.9198(4) 0.3107(3) 0.9053(3)
C5 C 0.8724(4) 0.3820(3) 0.9285(3)
C6 C 0.8920(4) 0.4709(4) 0.9108(3)
C7 C 0.9700(5) 0.4846(4) 0.8678(3)
C8 C 1.0235(4) 0.4089(3) 0.8447(3)
C9 C 1.0010(4) 0.3193(3) 0.8634(3)
C10 C 1.0566(4) 0.2496(4) 0.8409(3)
H3 H 1.0422 0.1909 0.8530
C11 C 1.1325(5) 0.2662(4) 0.8011(3)
H4 H 1.1697 0.2192 0.7866
C12 C 1.1533(5) 0.3537(5) 0.7828(4)
H5 H 1.2044 0.3646 0.7553
C13 C 1.1023(5) 0.4226(4) 0.8034(4)
H6 H 1.1186 0.4806 0.7904
C14 C 0.7856(4) 0.1787(3) 0.8770(3)
C15 C 0.7034(4) 0.1382(4) 0.8976(4)
H7 H 0.6931 0.1489 0.9527
C16 C 0.6368(5) 0.0824(4) 0.8375(4)
H8 H 0.5826 0.0545 0.8524
C17 C 0.6506(5) 0.0677(4) 0.7556(5)
H9 H 0.6049 0.0307 0.7147
C18 C 0.7306(5) 0.1072(4) 0.7342(4)
H10 H 0.7394 0.0972 0.6784
C19 C 0.7989(4) 0.1621(3) 0.7946(3)
H11 H 0.8543 0.1881 0.7798
C20 C 0.755(5) 0.676(3) 0.935(4)
C21 C 0.7664(13) 0.765(2) 0.9170(11)
H12 H 0.8225 0.7848 0.8993
C22 C 0.690(2) 0.8240(16) 0.927(2)
H13 H 0.6915 0.8847 0.9138
C23 C 0.6120(5) 0.7865(5) 0.9565(4)
C24 C 0.590(7) 0.700(6) 0.962(5)
H14 H 0.5266 0.6785 0.9666
C25 C 0.673(2) 0.645(2) 0.9607(17)
H15 H 0.6723 0.5856 0.9778
C26 C 0.5436(5) 0.3707(5) 0.8199(4)
H16 H 0.5305 0.4077 0.7670
H17 H 0.5195 0.4027 0.8636
C27 C 0.4868(5) 0.2848(6) 0.7972(5)
H18 H 0.5131 0.2520 0.7560
H19 H 0.4142 0.2966 0.7706
H20 H 0.4962 0.2500 0.8504
C28 C 0.8733(4) 0.1173(3) 1.0854(3)
C29 C 0.8631(4) 0.0272(3) 1.0670(3)
H21 H 0.8964 0.0018 1.0288
C30 C 0.8038(4) -0.0253(3) 1.1050(3)
H22 H 0.7973 -0.0865 1.0935
C31 C 0.7547(4) 0.0139(4) 1.1599(3)
C32 C 0.7651(4) 0.1042(4) 1.1799(3)
H23 H 0.7322 0.1292 1.2186
C33 C 0.8242(4) 0.1565(3) 1.1423(3)
H24 H 0.8314 0.2175 1.1546
N3? N 0.8582(18) 0.5562(19) 0.9202(13)
N4? N 0.786(2) 0.542(2) 0.9519(18)
C34? C 0.7316(19) 0.623(2) 0.9560(13)
C35? C 0.638(2) 0.622(2) 0.977(2)
H25? H 0.6086 0.5677 0.9857
C36? C 0.588(8) 0.703(7) 0.985(5)
H26? H 0.5350 0.7002 1.0112
C37? C 0.707(3) 0.7846(19) 0.939(2)
H27? H 0.7352 0.8385 0.9275
C38? C 0.762(6) 0.707(4) 0.938(4)
H28? H 0.8241 0.7122 0.9240
loop_
_geom_bond_atom_site_label_1
_geom_bond_atom_site_label_2
_geom_bond_site_symmetry_1
_geom_bond_site_symmetry_2
Br1 C23 1_555 1_555
Br2 C31 1_555 1_555
S1 O4 1_555 1_555
N1 N2 1_555 1_555
N2 C20 1_555 1_555
O1 C1 1_555 1_555
O2 C1 1_555 1_555
O3 H1 1_555 1_555
O5 S1 1_555 1_555
C1 C2 1_555 1_555
C2 H2 1_555 1_555
C3 S1 1_555 1_555
C4 C3 1_555 1_555
C5 C2 1_555 1_555
C6 N1 1_555 1_555
C7 O3 1_555 1_555
C8 C7 1_555 1_555
C9 C4 1_555 1_555
C10 C9 1_555 1_555
H3 C10 1_555 1_555
C11 C10 1_555 1_555
H4 C11 1_555 1_555
C12 C11 1_555 1_555
H5 C12 1_555 1_555
C13 C8 1_555 1_555
H6 C13 1_555 1_555
C14 C3 1_555 1_555
C15 C14 1_555 1_555
H7 C15 1_555 1_555
C16 C15 1_555 1_555
H8 C16 1_555 1_555
C17 C16 1_555 1_555
H9 C17 1_555 1_555
C18 C17 1_555 1_555
H10 C18 1_555 1_555
C19 C14 1_555 1_555
H11 C19 1_555 1_555
C20 C21 1_555 1_555
C21 H12 1_555 1_555
C22 C21 1_555 1_555
H13 C22 1_555 1_555
C23 C22 1_555 1_555
C24 C23 1_555 1_555
H14 C24 1_555 1_555
C25 C20 1_555 1_555
H15 C25 1_555 1_555
C26 O1 1_555 1_555
H16 C26 1_555 1_555
H17 C26 1_555 1_555
C27 C26 1_555 1_555
H18 C27 1_555 1_555
H19 C27 1_555 1_555
H20 C27 1_555 1_555
C28 S1 1_555 1_555
C29 C28 1_555 1_555
H21 C29 1_555 1_555
C30 C29 1_555 1_555
H22 C30 1_555 1_555
C31 C30 1_555 1_555
C32 C31 1_555 1_555
H23 C32 1_555 1_555
C33 C28 1_555 1_555
H24 C33 1_555 1_555
C2 C3 1_555 1_555
C4 C5 1_555 1_555
C5 C6 1_555 1_555
C6 C7 1_555 1_555
C8 C9 1_555 1_555
C12 C13 1_555 1_555
C18 C19 1_555 1_555
C24 C25 1_555 1_555
C32 C33 1_555 1_555

#END
