
#######################################################################
#
#                 Cambridge Crystallographic Data Centre
#                                CCDC 
#
#######################################################################
#
# If this CIF has been generated from an entry in the Cambridge 
# Structural Database, then it will include bibliographic, chemical, 
# crystal, experimental, refinement or atomic coordinate data resulting 
# from the CCDC's data processing and validation procedures.
#
#######################################################################

data_HETXOW
_chemical_formula_moiety         'C32 H26 N2 O3 S1'
_chemical_name_systematic        
3-[(4-methylphenyl)diazenyl]-1-[(4-methylphenyl)sulfonyl]-1-phenyl-1,2-dihydrocyclobuta[a]naphthalen-4-ol
_symmetry_cell_setting           monoclinic
_symmetry_space_group_name_H-M   'P 21/n'
_symmetry_Int_Tables_number      14
_space_group_name_Hall           '-P 2yn'
loop_
_symmetry_equiv_pos_site_id
_symmetry_equiv_pos_as_xyz
1 x,y,z
2 1/2-x,1/2+y,1/2-z
3 -x,-y,-z
4 1/2+x,1/2-y,1/2+z
_cell_length_a                   7.8894(7)
_cell_length_b                   13.8568(12)
_cell_length_c                   23.766(2)
_cell_angle_alpha                90
_cell_angle_beta                 94.5360(10)
_cell_angle_gamma                90
_cell_volume                     2590.01
_exptl_crystal_colour            red
_exptl_crystal_description       block
_cell_formula_units_Z            4
loop_
_atom_site_label
_atom_site_type_symbol
_atom_site_fract_x
_atom_site_fract_y
_atom_site_fract_z
N1 N 0.3681(3) 0.20832(17) 0.73696(10)
N2 N 0.3122(3) 0.24940(18) 0.78101(11)
O1 O 0.5699(3) 0.36414(17) 0.78852(9)
H1 H 0.4711 0.3369 0.7920
O2 O 0.8397(3) 0.26310(15) 0.52566(8)
O3 O 0.6018(3) 0.15706(15) 0.49275(8)
S1 S 0.67854(11) 0.22049(6) 0.53485(3)
C1 C 0.6180(4) 0.3180(2) 0.74631(13)
C2 C 0.5172(4) 0.2415(2) 0.72008(12)
C3 C 0.5832(4) 0.1999(2) 0.67180(12)
C4 C 0.5337(4) 0.1281(2) 0.62596(12)
H2 H 0.4340 0.1460 0.6017
H3 H 0.5269 0.0619 0.6389
C5 C 0.7078(4) 0.1555(2) 0.60207(11)
C6 C 0.7324(4) 0.2247(2) 0.65216(11)
C7 C 0.8416(4) 0.2983(2) 0.67724(12)
C8 C 0.7820(4) 0.3443(2) 0.72534(12)
C9 C 0.8811(4) 0.4154(2) 0.75287(13)
H4 H 0.8425 0.4453 0.7845
C10 C 1.0345(5) 0.4425(2) 0.73459(15)
H5 H 1.0995 0.4899 0.7538
C11 C 1.0920(4) 0.3985(2) 0.68713(14)
H6 H 1.1956 0.4171 0.6744
C12 C 0.9972(4) 0.3278(2) 0.65877(13)
H7 H 1.0371 0.2994 0.6269
C13 C 0.1559(4) 0.2170(2) 0.80014(13)
C14 C 0.0623(4) 0.1412(2) 0.77593(13)
H8 H 0.1021 0.1065 0.7462
C15 C -0.0912(4) 0.1177(2) 0.79660(14)
H9 H -0.1544 0.0671 0.7800
C16 C -0.1539(4) 0.1667(2) 0.84085(14)
C17 C -0.0576(4) 0.2405(3) 0.86488(13)
H10 H -0.0967 0.2741 0.8951
C18 C 0.0961(4) 0.2659(2) 0.84511(13)
H11 H 0.1594 0.3160 0.8621
C19 C -0.3214(4) 0.1399(3) 0.86329(14)
H12 H -0.3825 0.0970 0.8372
H13 H -0.3874 0.1972 0.8677
H14 H -0.3007 0.1085 0.8992
C20 C 0.8304(4) 0.0741(2) 0.59381(12)
C21 C 0.7776(5) -0.0062(2) 0.56305(14)
H15 H 0.6654 -0.0105 0.5480
C22 C 0.8883(6) -0.0796(3) 0.55433(16)
H16 H 0.8504 -0.1332 0.5334
C23 C 1.0534(6) -0.0752(3) 0.57587(16)
H17 H 1.1289 -0.1247 0.5691
C24 C 1.1062(5) 0.0027(3) 0.60747(16)
H18 H 1.2176 0.0056 0.6234
C25 C 0.9961(4) 0.0772(2) 0.61600(14)
H19 H 1.0346 0.1305 0.6371
C26 C 0.5328(4) 0.3135(2) 0.54485(12)
C27 C 0.3630(5) 0.2994(2) 0.53006(13)
H20 H 0.3256 0.2402 0.5154
C28 C 0.2472(4) 0.3725(3) 0.53686(14)
H21 H 0.1324 0.3618 0.5268
C29 C 0.2987(5) 0.4607(3) 0.55825(14)
C30 C 0.4698(5) 0.4736(2) 0.57289(13)
H22 H 0.5070 0.5328 0.5875
C31 C 0.5868(4) 0.4022(2) 0.56657(13)
H23 H 0.7014 0.4130 0.5768
C32 C 0.1740(5) 0.5406(3) 0.56601(16)
H24 H 0.1945 0.5927 0.5408
H25 H 0.1875 0.5633 0.6043
H26 H 0.0604 0.5168 0.5579
loop_
_geom_bond_atom_site_label_1
_geom_bond_atom_site_label_2
_geom_bond_site_symmetry_1
_geom_bond_site_symmetry_2
N1 N2 1_555 1_555
N2 C13 1_555 1_555
O1 H1 1_555 1_555
O2 S1 1_555 1_555
O3 S1 1_555 1_555
S1 C5 1_555 1_555
C1 O1 1_555 1_555
C2 N1 1_555 1_555
C3 C2 1_555 1_555
C4 C3 1_555 1_555
H2 C4 1_555 1_555
H3 C4 1_555 1_555
C5 C4 1_555 1_555
C6 C3 1_555 1_555
C7 C6 1_555 1_555
C8 C1 1_555 1_555
C9 C8 1_555 1_555
H4 C9 1_555 1_555
C10 C9 1_555 1_555
H5 C10 1_555 1_555
C11 C10 1_555 1_555
H6 C11 1_555 1_555
C12 C7 1_555 1_555
H7 C12 1_555 1_555
C13 C14 1_555 1_555
C14 H8 1_555 1_555
C15 C14 1_555 1_555
H9 C15 1_555 1_555
C16 C15 1_555 1_555
C17 C16 1_555 1_555
H10 C17 1_555 1_555
C18 C13 1_555 1_555
H11 C18 1_555 1_555
C19 C16 1_555 1_555
H12 C19 1_555 1_555
H13 C19 1_555 1_555
H14 C19 1_555 1_555
C20 C5 1_555 1_555
C21 C20 1_555 1_555
H15 C21 1_555 1_555
C22 C21 1_555 1_555
H16 C22 1_555 1_555
C23 C22 1_555 1_555
H17 C23 1_555 1_555
C24 C23 1_555 1_555
H18 C24 1_555 1_555
C25 C20 1_555 1_555
H19 C25 1_555 1_555
C26 S1 1_555 1_555
C27 C26 1_555 1_555
H20 C27 1_555 1_555
C28 C27 1_555 1_555
H21 C28 1_555 1_555
C29 C28 1_555 1_555
C30 C29 1_555 1_555
H22 C30 1_555 1_555
C31 C26 1_555 1_555
H23 C31 1_555 1_555
C32 C29 1_555 1_555
H24 C32 1_555 1_555
H25 C32 1_555 1_555
H26 C32 1_555 1_555
C1 C2 1_555 1_555
C5 C6 1_555 1_555
C7 C8 1_555 1_555
C11 C12 1_555 1_555
C17 C18 1_555 1_555
C24 C25 1_555 1_555
C30 C31 1_555 1_555

#END
