
#######################################################################
#
#                 Cambridge Crystallographic Data Centre
#                                CCDC 
#
#######################################################################
#
# If this CIF has been generated from an entry in the Cambridge 
# Structural Database, then it will include bibliographic, chemical, 
# crystal, experimental, refinement or atomic coordinate data resulting 
# from the CCDC's data processing and validation procedures.
#
#######################################################################

data_HEVKIC
_chemical_formula_moiety         'C26 H21 O1 P1'
_chemical_name_systematic        Benzoylmethylene(triphenyl)phosphorane
_symmetry_cell_setting           monoclinic
_symmetry_space_group_name_H-M   'P 2/n'
_symmetry_Int_Tables_number      13
_space_group_name_Hall           '-P 2yac'
loop_
_symmetry_equiv_pos_site_id
_symmetry_equiv_pos_as_xyz
1 x,y,z
2 1/2-x,y,1/2-z
3 -x,-y,-z
4 1/2+x,-y,1/2+z
_cell_length_a                   18.978(7)
_cell_length_b                   10.921(5)
_cell_length_c                   19.620(11)
_cell_angle_alpha                90
_cell_angle_beta                 105.02(4)
_cell_angle_gamma                90
_cell_volume                     3927.49
_exptl_crystal_colour            white
_chemical_melting_point          451-452K
_cell_formula_units_Z            8
loop_
_atom_site_label
_atom_site_type_symbol
_atom_site_fract_x
_atom_site_fract_y
_atom_site_fract_z
P1 P 0.1535(1) -0.0031(2) 0.0775(1)
O1 O 0.2005(2) 0.0818(4) -0.0419(2)
C1 C 0.1272(3) -0.0647(5) -0.0057(2)
C2 C 0.1568(3) -0.0076(5) -0.0563(3)
C5 C 0.0434(2) -0.1047(3) 0.1269(2)
C6 C 0.0130(2) -0.1878(3) 0.1651(2)
C7 C 0.0577(2) -0.2697(3) 0.2114(2)
C8 C 0.1329(2) -0.2684(3) 0.2195(2)
C9 C 0.1634(2) -0.1852(3) 0.1813(2)
C10 C 0.1186(2) -0.1034(3) 0.1350(2)
C11 C 0.0764(2) -0.1302(3) -0.1571(2)
C12 C 0.0566(2) -0.1648(3) -0.2280(2)
C13 C 0.0963(2) -0.1222(3) -0.2738(2)
C14 C 0.1560(2) -0.0449(3) -0.2487(2)
C15 C 0.1758(2) -0.0103(3) -0.1778(2)
C16 C 0.1360(2) -0.0529(3) -0.1321(2)
C41 C 0.1126(2) 0.1893(3) 0.1538(2)
C42 C 0.0782(2) 0.3002(3) 0.1595(2)
C43 C 0.0476(2) 0.3690(3) 0.0992(2)
C44 C 0.0514(2) 0.3267(3) 0.0331(2)
C45 C 0.0858(2) 0.2158(3) 0.0274(2)
C46 C 0.1165(2) 0.1470(3) 0.0877(2)
C47 C 0.2912(2) -0.1000(3) 0.1047(2)
C48 C 0.3672(2) -0.0985(3) 0.1279(2)
C49 C 0.4033(2) 0.0085(3) 0.1561(2)
C50 C 0.3636(2) 0.1141(3) 0.1610(2)
C51 C 0.2876(2) 0.1126(3) 0.1378(2)
C52 C 0.2514(2) 0.0056(3) 0.1096(2)
H1 H 0.0904(3) -0.1417(5) -0.0184(2)
H3 H 0.0087(2) -0.0413(3) 0.0911(2)
H4 H -0.0453(2) -0.1889(3) 0.1589(2)
H5 H 0.0342(2) -0.3341(3) 0.2410(2)
H6 H 0.1676(2) -0.3317(3) 0.2553(2)
H7 H 0.2216(2) -0.1842(3) 0.1875(2)
H8 H 0.0456(2) -0.1632(3) -0.1217(2)
H9 H 0.0104(2) -0.2246(3) -0.2474(2)
H10 H 0.0810(2) -0.1490(3) -0.3286(2)
H11 H 0.1868(2) -0.0119(3) -0.2842(2)
H12 H 0.2220(2) 0.0495(3) -0.1584(2)
H33 H 0.1363(2) 0.1361(2) 0.2005(2)
H34 H 0.0753(2) 0.3329(3) 0.2106(2)
H35 H 0.0210(2) 0.4549(3) 0.1036(2)
H36 H 0.0277(2) 0.3800(3) -0.0136(2)
H37 H 0.0888(2) 0.1831(3) -0.0237(2)
H38 H 0.2632(2) -0.1828(3) 0.0829(2)
H39 H 0.3980(2) -0.1802(3) 0.1241(2)
H40 H 0.4622(2) 0.0097(3) 0.1740(2)
H41 H 0.3916(2) 0.1969(3) 0.1828(2)
H42 H 0.2568(2) 0.1943(3) 0.1416(2)
P2 P 0.5679(1) 0.5514(1) 0.1474(1)
O2 O 0.4508(2) 0.3905(4) 0.1875(2)
C3 C 0.4739(2) 0.5583(5) 0.1213(3)
C4 C 0.4291(3) 0.4774(5) 0.1462(3)
C17 C 0.3171(2) 0.5699(3) 0.0609(2)
C18 C 0.2423(2) 0.5936(3) 0.0419(2)
C19 C 0.1983(2) 0.5477(3) 0.0830(2)
C20 C 0.2291(2) 0.4782(3) 0.1430(2)
C21 C 0.3039(2) 0.4545(3) 0.1619(2)
C22 C 0.3479(2) 0.5003(3) 0.1208(2)
C23 C 0.6492(2) 0.6723(3) 0.2687(2)
C24 C 0.6772(2) 0.6844(3) 0.3415(2)
C25 C 0.6646(2) 0.5932(3) 0.3867(2)
C26 C 0.6239(2) 0.4899(3) 0.3591(2)
C27 C 0.5959(2) 0.4778(3) 0.2863(2)
C28 C 0.6086(2) 0.5690(3) 0.2411(2)
C29 C 0.5710(2) 0.7937(4) 0.1100(2)
C30 C 0.5885(2) 0.8920(4) 0.0720(2)
C31 C 0.6322(2) 0.8733(4) 0.0257(2)
C32 C 0.6583(2) 0.7564(4) 0.0173(2)
C33 C 0.6407(2) 0.6581(4) 0.0552(2)
C34 C 0.5970(2) 0.6767(4) 0.1015(2)
C35 C 0.5654(1) 0.3355(3) 0.0713(2)
C36 C 0.5973(1) 0.2332(3) 0.0489(2)
C37 C 0.6711(1) 0.2082(3) 0.0778(2)
C38 C 0.7130(1) 0.2854(3) 0.1292(2)
C39 C 0.6811(1) 0.3877(3) 0.1517(2)
C40 C 0.6074(1) 0.4127(3) 0.1227(2)
H2 H 0.4484(2) 0.6282(5) 0.0841(3)
H13 H 0.3512(2) 0.6054(3) 0.0291(2)
H14 H 0.2185(2) 0.6474(3) -0.0045(2)
H15 H 0.1404(2) 0.5661(3) 0.0683(2)
H16 H 0.1950(2) 0.4427(3) 0.1747(2)
H17 H 0.3277(2) 0.4006(3) 0.2083(2)
H18 H 0.6590(2) 0.7430(3) 0.2338(2)
H19 H 0.7087(2) 0.7645(3) 0.3629(2)
H20 H 0.6863(2) 0.6026(3) 0.4430(2)
H21 H 0.6141(2) 0.4192(3) 0.3940(2)
H22 H 0.5644(2) 0.3977(3) 0.2649(2)
H23 H 0.5371(2) 0.8081(4) 0.1458(2)
H24 H 0.5684(2) 0.9825(4) 0.0786(2)
H25 H 0.6458(2) 0.9494(4) -0.0037(2)
H26 H 0.6921(2) 0.7419(4) -0.0186(2)
H27 H 0.6609(2) 0.5675(4) 0.0487(2)
H28 H 0.5083(11) 0.3549(3) 0.0489(2)
H29 H 0.5649(1) 0.1734(3) 0.0091(2)
H30 H 0.6958(1) 0.1290(3) 0.0604(2)
H31 H 0.7701(1) 0.2660(3) 0.1517(2)
H32 H 0.7136(1) 0.4475(3) 0.1915(2)
loop_
_geom_bond_atom_site_label_1
_geom_bond_atom_site_label_2
_geom_bond_site_symmetry_1
_geom_bond_site_symmetry_2
P1 C1 1_555 1_555
P2 C3 1_555 1_555
O1 C2 1_555 1_555
O2 C4 1_555 1_555
C1 C2 1_555 1_555
C2 C16 1_555 1_555
C3 C4 1_555 1_555
C4 C22 1_555 1_555
C5 C6 1_555 1_555
C6 C7 1_555 1_555
C7 C8 1_555 1_555
C8 C9 1_555 1_555
C9 C10 1_555 1_555
C10 P1 1_555 1_555
C11 C12 1_555 1_555
C12 C13 1_555 1_555
C13 C14 1_555 1_555
C14 C15 1_555 1_555
C15 C16 1_555 1_555
C16 C11 1_555 1_555
C17 C18 1_555 1_555
C18 C19 1_555 1_555
C19 C20 1_555 1_555
C20 C21 1_555 1_555
C21 C22 1_555 1_555
C22 C17 1_555 1_555
C23 C24 1_555 1_555
C24 C25 1_555 1_555
C25 C26 1_555 1_555
C26 C27 1_555 1_555
C27 C28 1_555 1_555
C28 P2 1_555 1_555
C29 C30 1_555 1_555
C30 C31 1_555 1_555
C31 C32 1_555 1_555
C32 C33 1_555 1_555
C33 C34 1_555 1_555
C34 P2 1_555 1_555
C35 C36 1_555 1_555
C36 C37 1_555 1_555
C37 C38 1_555 1_555
C38 C39 1_555 1_555
C39 C40 1_555 1_555
C40 P2 1_555 1_555
C41 C42 1_555 1_555
C42 C43 1_555 1_555
C43 C44 1_555 1_555
C44 C45 1_555 1_555
C45 C46 1_555 1_555
C46 P1 1_555 1_555
C47 C48 1_555 1_555
C48 C49 1_555 1_555
C49 C50 1_555 1_555
C50 C51 1_555 1_555
C51 C52 1_555 1_555
C52 P1 1_555 1_555
H1 C1 1_555 1_555
H2 C3 1_555 1_555
H3 C5 1_555 1_555
H4 C6 1_555 1_555
H5 C7 1_555 1_555
H6 C8 1_555 1_555
H7 C9 1_555 1_555
H8 C11 1_555 1_555
H9 C12 1_555 1_555
H10 C13 1_555 1_555
H11 C14 1_555 1_555
H12 C15 1_555 1_555
H13 C17 1_555 1_555
H14 C18 1_555 1_555
H15 C19 1_555 1_555
H16 C20 1_555 1_555
H17 C21 1_555 1_555
H18 C23 1_555 1_555
H19 C24 1_555 1_555
H20 C25 1_555 1_555
H21 C26 1_555 1_555
H22 C27 1_555 1_555
H23 C29 1_555 1_555
H24 C30 1_555 1_555
H25 C31 1_555 1_555
H26 C32 1_555 1_555
H27 C33 1_555 1_555
H28 C35 1_555 1_555
H29 C36 1_555 1_555
H30 C37 1_555 1_555
H31 C38 1_555 1_555
H32 C39 1_555 1_555
H33 C41 1_555 1_555
H34 C42 1_555 1_555
H35 C43 1_555 1_555
H36 C44 1_555 1_555
H37 C45 1_555 1_555
H38 C47 1_555 1_555
H39 C48 1_555 1_555
H40 C49 1_555 1_555
H41 C50 1_555 1_555
H42 C51 1_555 1_555
C5 C10 1_555 1_555
C23 C28 1_555 1_555
C29 C34 1_555 1_555
C35 C40 1_555 1_555
C41 C46 1_555 1_555
C47 C52 1_555 1_555

#END
