
#######################################################################
#
#                 Cambridge Crystallographic Data Centre
#                                CCDC 
#
#######################################################################
#
# If this CIF has been generated from an entry in the Cambridge 
# Structural Database, then it will include bibliographic, chemical, 
# crystal, experimental, refinement or atomic coordinate data resulting 
# from the CCDC's data processing and validation procedures.
#
#######################################################################

data_HEWCAQ
_chemical_formula_moiety         'C19 H30 O5'
_chemical_name_systematic        
6a-(hydroxymethyl)-2,2,4a,9b-tetramethyldodecahydro-2H,8H-furo[3',2':5,6]naphtho[2,1-d][1,3]dioxin-8-one
_symmetry_cell_setting           tetragonal
_symmetry_space_group_name_H-M   'P 41'
_symmetry_Int_Tables_number      76
_space_group_name_Hall           'P 4w'
loop_
_symmetry_equiv_pos_site_id
_symmetry_equiv_pos_as_xyz
1 x,y,z
2 -x,-y,1/2+z
3 -y,x,1/4+z
4 y,-x,3/4+z
_cell_length_a                   13.0961(2)
_cell_length_b                   13.0961(2)
_cell_length_c                   41.7098(11)
_cell_angle_alpha                90
_cell_angle_beta                 90
_cell_angle_gamma                90
_cell_volume                     7153.56
_exptl_crystal_colour            colorless
_exptl_crystal_description       block
_cell_formula_units_Z            16
loop_
_atom_site_label
_atom_site_type_symbol
_atom_site_fract_x
_atom_site_fract_y
_atom_site_fract_z
C1 C 1.1394(5) 0.9923(5) 0.01094(18)
C2 C 1.1163(5) 1.0203(5) 0.04423(17)
H1 H 1.0684 1.0768 0.0449
H2 H 1.1780 1.0399 0.0555
C3 C 1.0697(4) 0.9252(4) 0.05920(14)
H3 H 1.0907 0.9215 0.0817
C4 C 1.1245(4) 0.8412(5) 0.04060(14)
C5 C 1.2318(5) 0.8233(6) 0.05484(17)
H4 H 1.2679 0.8879 0.0559
H5 H 1.2250 0.7976 0.0765
C6 C 1.0712(4) 0.7381(5) 0.03707(17)
H6 H 1.0951 0.7059 0.0175
H7 H 1.0912 0.6949 0.0549
C7 C 0.9543(4) 0.7435(5) 0.03603(16)
H8 H 0.9258 0.6755 0.0382
H9 H 0.9322 0.7715 0.0156
C8 C 0.9169(4) 0.8111(4) 0.06336(14)
H10 H 0.9571 0.7893 0.0820
C9 C 0.9496(4) 0.9236(4) 0.05756(13)
C10 C 0.9112(5) 0.9673(5) 0.02539(16)
H11 H 0.8380 0.9636 0.0247
H12 H 0.9394 0.9284 0.0080
H13 H 0.9323 1.0373 0.0235
C11 C 0.9111(4) 0.9902(5) 0.08523(16)
H14 H 0.9284 1.0610 0.0810
H15 H 0.9449 0.9698 0.1049
C12 C 0.7939(5) 0.9801(4) 0.08941(16)
H16 H 0.7705 1.0252 0.1063
H17 H 0.7594 0.9990 0.0697
C13 C 0.7696(4) 0.8688(4) 0.09797(14)
H18 H 0.8079 0.8536 0.1176
C14 C 0.8025(4) 0.7900(4) 0.07328(14)
C15 C 0.7984(5) 0.6836(5) 0.08907(17)
H19 H 0.7316 0.6723 0.0978
H20 H 0.8483 0.6800 0.1059
H21 H 0.8129 0.6323 0.0733
C16 C 0.7280(4) 0.7929(5) 0.04573(14)
H22 H 0.7283 0.8601 0.0359
H23 H 0.7476 0.7433 0.0296
C17 C 0.5006(5) 0.7859(6) 0.09729(19)
H24 H 0.5263 0.7273 0.1085
H25 H 0.4515 0.7643 0.0816
H26 H 0.4685 0.8315 0.1122
C18 C 0.5894(5) 0.8411(6) 0.08050(15)
C19 C 0.5575(6) 0.9411(6) 0.06511(19)
H27 H 0.5397 0.9893 0.0815
H28 H 0.4996 0.9297 0.0515
H29 H 0.6131 0.9676 0.0526
O1 O 0.6256(3) 0.7694(4) 0.05775(11)
O2 O 0.6615(3) 0.8558(3) 0.10593(9)
O3 O 1.1392(3) 0.8854(3) 0.00872(10)
O4 O 1.1562(4) 1.0395(4) -0.01260(12)
O5 O 1.2906(4) 0.7523(4) 0.03626(14)
H30 H 1.3098 0.7800 0.0197
C20 C 0.5090(5) -0.1610(5) 0.23247(17)
C21 C 0.4871(5) -0.1453(5) 0.19830(16)
H31 H 0.4271 -0.1028 0.1954
H32 H 0.4764 -0.2099 0.1874
C22 C 0.5828(4) -0.0916(4) 0.18569(14)
H33 H 0.5950 -0.1140 0.1636
C23 C 0.6649(5) -0.1383(5) 0.20724(15)
C24 C 0.6929(6) -0.2442(5) 0.19383(17)
H34 H 0.6314 -0.2849 0.1917
H35 H 0.7225 -0.2363 0.1726
C25 C 0.7615(5) -0.0764(5) 0.21357(19)
H36 H 0.7892 -0.0965 0.2342
H37 H 0.8117 -0.0935 0.1974
C26 C 0.7459(5) 0.0389(4) 0.21356(17)
H38 H 0.7089 0.0594 0.2326
H39 H 0.8115 0.0733 0.2136
C27 C 0.6853(4) 0.0688(4) 0.18358(14)
H40 H 0.7159 0.0287 0.1662
C28 C 0.5755(4) 0.0295(4) 0.18613(14)
C29 C 0.5180(5) 0.0688(5) 0.21584(16)
H41 H 0.5138 0.1419 0.2150
H42 H 0.5540 0.0485 0.2349
H43 H 0.4505 0.0404 0.2162
C30 C 0.5170(5) 0.0575(5) 0.15556(16)
H44 H 0.4467 0.0347 0.1573
H45 H 0.5478 0.0238 0.1372
C31 C 0.5199(5) 0.1738(5) 0.15077(17)
H46 H 0.4797 0.1923 0.1321
H47 H 0.4907 0.2076 0.1693
C32 C 0.6299(5) 0.2082(4) 0.14617(15)
H48 H 0.6554 0.1707 0.1275
C33 C 0.7011(5) 0.1827(4) 0.17329(14)
C34 C 0.8122(5) 0.1948(5) 0.16185(17)
H49 H 0.8253 0.1475 0.1447
H50 H 0.8578 0.1810 0.1793
H51 H 0.8228 0.2632 0.1543
C35 C 0.6850(6) 0.2611(5) 0.20022(16)
H52 H 0.6159 0.2553 0.2084
H53 H 0.7318 0.2469 0.2177
C36 C 0.6347(7) 0.3901(5) 0.16296(17)
C37 C 0.6864(7) 0.4842(6) 0.1491(2)
H54 H 0.7516 0.4655 0.1404
H55 H 0.6958 0.5339 0.1658
H56 H 0.6445 0.5125 0.1325
C38 C 0.5289(7) 0.4138(7) 0.1736(2)
H57 H 0.4841 0.4142 0.1553
H58 H 0.5277 0.4797 0.1837
H59 H 0.5065 0.3629 0.1886
O6 O 0.6369(4) 0.3165(3) 0.13781(10)
O7 O 0.7016(4) 0.3632(3) 0.18870(12)
O8 O 0.7657(4) -0.2980(4) 0.21461(16)
H60 H 0.7349 -0.3388 0.2260
O9 O 0.4541(4) -0.1792(3) 0.25519(12)
O10 O 0.6144(3) -0.1554(3) 0.23796(10)
C39 C 0.5205(5) 0.5958(5) 0.25195(16)
C40 C 0.4657(5) 0.5709(5) 0.28224(16)
H61 H 0.4129 0.5203 0.2785
H62 H 0.4348 0.6315 0.2914
C41 C 0.5485(4) 0.5287(4) 0.30433(15)
H63 H 0.5327 0.5489 0.3264
C42 C 0.6414(5) 0.5898(4) 0.29285(14)
C43 C 0.6397(6) 0.6977(5) 0.30736(18)
H64 H 0.5757 0.7309 0.3020
H65 H 0.6443 0.6931 0.3305
C44 C 0.7465(5) 0.5399(4) 0.29752(18)
H66 H 0.7920 0.5649 0.2809
H67 H 0.7738 0.5619 0.3180
C45 C 0.7470(5) 0.4236(5) 0.29661(17)
H68 H 0.8123 0.3984 0.3042
H69 H 0.7376 0.4004 0.2747
C46 C 0.6619(4) 0.3814(4) 0.31761(14)
H70 H 0.6659 0.4209 0.3375
C47 C 0.5572(4) 0.4097(4) 0.30296(13)
C48 C 0.5437(5) 0.3709(5) 0.26835(15)
H71 H 0.5653 0.3010 0.2671
H72 H 0.5842 0.4117 0.2541
H73 H 0.4731 0.3758 0.2623
C49 C 0.4722(5) 0.3649(5) 0.32428(16)
H74 H 0.4062 0.3786 0.3146
H75 H 0.4738 0.3977 0.3451
C50 C 0.4860(4) 0.2480(4) 0.32849(16)
H76 H 0.4293 0.2201 0.3406
H77 H 0.4876 0.2150 0.3077
C51 C 0.5853(5) 0.2289(4) 0.34613(14)
H78 H 0.5816 0.2675 0.3662
C52 C 0.6805(4) 0.2680(4) 0.32806(14)
C53 C 0.7705(5) 0.2674(5) 0.35178(18)
H79 H 0.7787 0.1999 0.3604
H80 H 0.7570 0.3145 0.3689
H81 H 0.8318 0.2872 0.3408
C54 C 0.7030(5) 0.1946(4) 0.30129(15)
H82 H 0.6459 0.1930 0.2865
H83 H 0.7629 0.2172 0.2896
C55 C 0.6372(5) 0.0533(5) 0.33169(16)
C56 C 0.6839(7) -0.0332(6) 0.35132(19)
H84 H 0.7329 -0.0057 0.3661
H85 H 0.7173 -0.0806 0.3372
H86 H 0.6311 -0.0679 0.3630
C57 C 0.5522(6) 0.0138(5) 0.30917(18)
H87 H 0.4941 -0.0065 0.3217
H88 H 0.5770 -0.0437 0.2972
H89 H 0.5326 0.0672 0.2946
O11 O 0.5980(3) 0.1219(3) 0.35488(10)
O12 O 0.7205(3) 0.0931(3) 0.31409(12)
O13 O 0.7244(5) 0.7584(4) 0.29519(15)
H90 H 0.7284 0.7515 0.2757
O14 O 0.4927(4) 0.6088(3) 0.22517(12)
O15 O 0.6255(3) 0.6011(3) 0.25827(10)
C58 C 0.0073(5) 0.3852(5) 0.24078(17)
C59 C -0.0396(5) 0.4107(5) 0.20944(16)
H91 H -0.0939 0.4604 0.2120
H92 H -0.0671 0.3501 0.1992
C60 C 0.0490(4) 0.4552(4) 0.18997(15)
H93 H 0.0401 0.4350 0.1675
C61 C 0.1406(5) 0.3935(4) 0.20414(15)
C62 C 0.1437(6) 0.2872(5) 0.18906(17)
H94 H 0.0786 0.2535 0.1924
H95 H 0.1545 0.2935 0.1661
C63 C 0.2453(5) 0.4440(5) 0.20350(18)
H96 H 0.2845 0.4185 0.2215
H97 H 0.2801 0.4226 0.1841
C64 C 0.2464(4) 0.5601(4) 0.20475(16)
H98 H 0.2288 0.5832 0.2261
H99 H 0.3141 0.5853 0.1996
C65 C 0.1689(4) 0.6008(4) 0.18052(13)
H100 H 0.1800 0.5597 0.1612
C66 C 0.0574(4) 0.5742(4) 0.19139(13)
C67 C 0.0338(5) 0.6138(5) 0.22527(15)
H101 H 0.0508 0.6850 0.2266
H102 H 0.0734 0.5764 0.2407
H103 H -0.0375 0.6049 0.2297
C68 C -0.0183(5) 0.6167(4) 0.16696(15)
H104 H -0.0873 0.6027 0.1741
H105 H -0.0082 0.5828 0.1465
C69 C -0.0045(4) 0.7333(4) 0.16259(15)
H106 H -0.0556 0.7596 0.1480
H107 H -0.0121 0.7678 0.1830
C70 C 0.1020(5) 0.7518(4) 0.14914(15)
H108 H 0.1055 0.7125 0.1292
C71 C 0.1890(4) 0.7137(4) 0.16960(13)
C72 C 0.2044(5) 0.7905(4) 0.19746(14)
H109 H 0.1430 0.7941 0.2104
H110 H 0.2602 0.7682 0.2110
C73 C 0.2893(5) 0.7136(5) 0.14986(16)
H111 H 0.3015 0.7807 0.1415
H112 H 0.2834 0.6659 0.1325
H113 H 0.3452 0.6940 0.1634
C74 C 0.1472(5) 0.9292(5) 0.16423(15)
C75 C 0.0574(6) 0.9678(5) 0.18383(18)
H114 H 0.0006 0.9810 0.1699
H115 H 0.0764 1.0297 0.1946
H116 H 0.0385 0.9171 0.1994
C76 C 0.1973(6) 1.0161(5) 0.14572(19)
H117 H 0.2520 0.9895 0.1329
H118 H 0.2240 1.0655 0.1605
H119 H 0.1476 1.0481 0.1321
O16 O 0.1179(3) 0.8583(3) 0.14001(9)
O17 O 0.2272(3) 0.8900(3) 0.18419(11)
O18 O 0.2239(5) 0.2266(4) 0.20278(16)
H120 H 0.2023 0.1969 0.2187
O19 O -0.0303(4) 0.3701(4) 0.26670(12)
O20 O 0.1127(3) 0.3813(3) 0.23818(10)
loop_
_geom_bond_atom_site_label_1
_geom_bond_atom_site_label_2
_geom_bond_site_symmetry_1
_geom_bond_site_symmetry_2
C1 C2 1_555 1_555
C2 H1 1_555 1_555
H2 C2 1_555 1_555
C3 C2 1_555 1_555
H3 C3 1_555 1_555
C4 C3 1_555 1_555
C5 C4 1_555 1_555
H4 C5 1_555 1_555
H5 C5 1_555 1_555
C6 C4 1_555 1_555
H6 C6 1_555 1_555
H7 C6 1_555 1_555
C7 C6 1_555 1_555
H8 C7 1_555 1_555
H9 C7 1_555 1_555
C8 C7 1_555 1_555
H10 C8 1_555 1_555
C9 C3 1_555 1_555
C10 C9 1_555 1_555
H11 C10 1_555 1_555
H12 C10 1_555 1_555
H13 C10 1_555 1_555
C11 C9 1_555 1_555
H14 C11 1_555 1_555
H15 C11 1_555 1_555
C12 C11 1_555 1_555
H16 C12 1_555 1_555
H17 C12 1_555 1_555
C13 C12 1_555 1_555
H18 C13 1_555 1_555
C14 C8 1_555 1_555
C15 C14 1_555 1_555
H19 C15 1_555 1_555
H20 C15 1_555 1_555
H21 C15 1_555 1_555
C16 C14 1_555 1_555
H22 C16 1_555 1_555
H23 C16 1_555 1_555
C17 H24 1_555 1_555
H25 C17 1_555 1_555
H26 C17 1_555 1_555
C18 C17 1_555 1_555
C19 C18 1_555 1_555
H27 C19 1_555 1_555
H28 C19 1_555 1_555
H29 C19 1_555 1_555
O1 C16 1_555 1_555
O2 C13 1_555 1_555
O3 C1 1_555 1_555
O4 C1 1_555 1_555
O5 C5 1_555 1_555
H30 O5 1_555 1_555
C20 C21 1_555 1_555
C21 H31 1_555 1_555
H32 C21 1_555 1_555
C22 C21 1_555 1_555
H33 C22 1_555 1_555
C23 C22 1_555 1_555
C24 C23 1_555 1_555
H34 C24 1_555 1_555
H35 C24 1_555 1_555
C25 C23 1_555 1_555
H36 C25 1_555 1_555
H37 C25 1_555 1_555
C26 C25 1_555 1_555
H38 C26 1_555 1_555
H39 C26 1_555 1_555
C27 C26 1_555 1_555
H40 C27 1_555 1_555
C28 C22 1_555 1_555
C29 C28 1_555 1_555
H41 C29 1_555 1_555
H42 C29 1_555 1_555
H43 C29 1_555 1_555
C30 C28 1_555 1_555
H44 C30 1_555 1_555
H45 C30 1_555 1_555
C31 C30 1_555 1_555
H46 C31 1_555 1_555
H47 C31 1_555 1_555
C32 C31 1_555 1_555
H48 C32 1_555 1_555
C33 C27 1_555 1_555
C34 C33 1_555 1_555
H49 C34 1_555 1_555
H50 C34 1_555 1_555
H51 C34 1_555 1_555
C35 C33 1_555 1_555
H52 C35 1_555 1_555
H53 C35 1_555 1_555
C36 C37 1_555 1_555
C37 H54 1_555 1_555
H55 C37 1_555 1_555
H56 C37 1_555 1_555
C38 C36 1_555 1_555
H57 C38 1_555 1_555
H58 C38 1_555 1_555
H59 C38 1_555 1_555
O6 C32 1_555 1_555
O7 C35 1_555 1_555
O8 C24 1_555 1_555
H60 O8 1_555 1_555
O9 C20 1_555 1_555
O10 C20 1_555 1_555
C39 C40 1_555 1_555
C40 H61 1_555 1_555
H62 C40 1_555 1_555
C41 C40 1_555 1_555
H63 C41 1_555 1_555
C42 C41 1_555 1_555
C43 C42 1_555 1_555
H64 C43 1_555 1_555
H65 C43 1_555 1_555
C44 C42 1_555 1_555
H66 C44 1_555 1_555
H67 C44 1_555 1_555
C45 C44 1_555 1_555
H68 C45 1_555 1_555
H69 C45 1_555 1_555
C46 C45 1_555 1_555
H70 C46 1_555 1_555
C47 C41 1_555 1_555
C48 C47 1_555 1_555
H71 C48 1_555 1_555
H72 C48 1_555 1_555
H73 C48 1_555 1_555
C49 C47 1_555 1_555
H74 C49 1_555 1_555
H75 C49 1_555 1_555
C50 C49 1_555 1_555
H76 C50 1_555 1_555
H77 C50 1_555 1_555
C51 C50 1_555 1_555
H78 C51 1_555 1_555
C52 C46 1_555 1_555
C53 C52 1_555 1_555
H79 C53 1_555 1_555
H80 C53 1_555 1_555
H81 C53 1_555 1_555
C54 C52 1_555 1_555
H82 C54 1_555 1_555
H83 C54 1_555 1_555
C55 C56 1_555 1_555
C56 H84 1_555 1_555
H85 C56 1_555 1_555
H86 C56 1_555 1_555
C57 C55 1_555 1_555
H87 C57 1_555 1_555
H88 C57 1_555 1_555
H89 C57 1_555 1_555
O11 C51 1_555 1_555
O12 C54 1_555 1_555
O13 C43 1_555 1_555
H90 O13 1_555 1_555
O14 C39 1_555 1_555
O15 C39 1_555 1_555
C58 C59 1_555 1_555
C59 H91 1_555 1_555
H92 C59 1_555 1_555
C60 C59 1_555 1_555
H93 C60 1_555 1_555
C61 C60 1_555 1_555
C62 C61 1_555 1_555
H94 C62 1_555 1_555
H95 C62 1_555 1_555
C63 C61 1_555 1_555
H96 C63 1_555 1_555
H97 C63 1_555 1_555
C64 C63 1_555 1_555
H98 C64 1_555 1_555
H99 C64 1_555 1_555
C65 C64 1_555 1_555
H100 C65 1_555 1_555
C66 C60 1_555 1_555
C67 C66 1_555 1_555
H101 C67 1_555 1_555
H102 C67 1_555 1_555
H103 C67 1_555 1_555
C68 C66 1_555 1_555
H104 C68 1_555 1_555
H105 C68 1_555 1_555
C69 C68 1_555 1_555
H106 C69 1_555 1_555
H107 C69 1_555 1_555
C70 C69 1_555 1_555
H108 C70 1_555 1_555
C71 C65 1_555 1_555
C72 C71 1_555 1_555
H109 C72 1_555 1_555
H110 C72 1_555 1_555
C73 C71 1_555 1_555
H111 C73 1_555 1_555
H112 C73 1_555 1_555
H113 C73 1_555 1_555
C74 C75 1_555 1_555
C75 H114 1_555 1_555
H115 C75 1_555 1_555
H116 C75 1_555 1_555
C76 C74 1_555 1_555
H117 C76 1_555 1_555
H118 C76 1_555 1_555
H119 C76 1_555 1_555
O16 C70 1_555 1_555
O17 C72 1_555 1_555
O18 C62 1_555 1_555
H120 O18 1_555 1_555
O19 C58 1_555 1_555
O20 C58 1_555 1_555
C4 O3 1_555 1_555
C8 C9 1_555 1_555
C13 C14 1_555 1_555
C18 O1 1_555 1_555
C18 O2 1_555 1_555
C23 O10 1_555 1_555
C27 C28 1_555 1_555
C32 C33 1_555 1_555
C36 O6 1_555 1_555
C36 O7 1_555 1_555
C42 O15 1_555 1_555
C46 C47 1_555 1_555
C51 C52 1_555 1_555
C55 O11 1_555 1_555
C55 O12 1_555 1_555
C61 O20 1_555 1_555
C65 C66 1_555 1_555
C70 C71 1_555 1_555
C74 O16 1_555 1_555
C74 O17 1_555 1_555

#END
