
#######################################################################
#
#                 Cambridge Crystallographic Data Centre
#                                CCDC 
#
#######################################################################
#
# If this CIF has been generated from an entry in the Cambridge 
# Structural Database, then it will include bibliographic, chemical, 
# crystal, experimental, refinement or atomic coordinate data resulting 
# from the CCDC's data processing and validation procedures.
#
#######################################################################

data_HEWDET
_chemical_formula_moiety         'C12 H33 B1 Si3'
_chemical_name_systematic        tris(Trimethylsilylmethyl)borane
_symmetry_cell_setting           monoclinic
_symmetry_space_group_name_H-M   'P 21/c'
_symmetry_Int_Tables_number      14
_space_group_name_Hall           '-P 2ybc'
loop_
_symmetry_equiv_pos_site_id
_symmetry_equiv_pos_as_xyz
1 x,y,z
2 -x,1/2+y,1/2-z
3 -x,-y,-z
4 x,1/2-y,1/2+z
_cell_length_a                   6.5339(11)
_cell_length_b                   16.378(3)
_cell_length_c                   18.764(3)
_cell_angle_alpha                90
_cell_angle_beta                 105.097(13)
_cell_angle_gamma                90
_cell_volume                     1938.67
_exptl_crystal_colour            colorless
_exptl_crystal_description       cylinder
_chemical_melting_point          -32deg.C
_cell_formula_units_Z            4
loop_
_atom_site_label
_atom_site_type_symbol
_atom_site_fract_x
_atom_site_fract_y
_atom_site_fract_z
Si1 Si 0.55838(8) 0.27067(3) 0.14065(3)
Si2 Si 1.13158(9) 0.40742(3) 0.37530(3)
Si3 Si 0.73672(10) 0.55169(3) 0.15699(3)
C1 C 0.6568(3) 0.31446(11) 0.23551(11)
H1 H 0.5343 0.3233 0.2556
H2 H 0.7471 0.2735 0.2667
C2 C 1.0315(3) 0.39374(12) 0.27249(10)
H3 H 1.0923 0.4368 0.2480
H4 H 1.0824 0.3412 0.2589
C3 C 0.6633(3) 0.47973(11) 0.22395(11)
H5 H 0.6791 0.5094 0.2704
H6 H 0.5123 0.4670 0.2050
C4 C 0.3496(4) 0.33788(14) 0.08345(14)
H7 H 0.4116 0.3899 0.0757
H8 H 0.2394 0.3468 0.1087
H9 H 0.2888 0.3120 0.0362
C5 C 0.7791(4) 0.25728(14) 0.09570(14)
H10 H 0.8897 0.2241 0.1270
H11 H 0.8365 0.3103 0.0883
H12 H 0.7261 0.2305 0.0484
C6 C 0.4389(4) 0.16858(13) 0.14865(14)
H13 H 0.3916 0.1440 0.1001
H14 H 0.3189 0.1751 0.1696
H15 H 0.5440 0.1336 0.1804
C7 C 1.0620(5) 0.51037(14) 0.40405(14)
H16 H 0.9103 0.5133 0.3984
H17 H 1.1031 0.5517 0.3734
H18 H 1.1363 0.5197 0.4553
C8 C 1.4244(4) 0.3964(2) 0.40138(15)
H19 H 1.4780 0.4021 0.4544
H20 H 1.4861 0.4384 0.3770
H21 H 1.4621 0.3430 0.3864
C9 C 1.0181(4) 0.32860(14) 0.42532(13)
H22 H 1.0544 0.2747 0.4110
H23 H 0.8651 0.3344 0.4130
H24 H 1.0756 0.3356 0.4781
C10 C 0.8126(4) 0.49862(14) 0.08019(13)
H25 H 0.9325 0.4630 0.1002
H26 H 0.8511 0.5387 0.0479
H27 H 0.6938 0.4664 0.0524
C11 C 0.5063(5) 0.62006(17) 0.11872(15)
H28 H 0.3880 0.5879 0.0905
H29 H 0.5451 0.6605 0.0868
H30 H 0.4659 0.6473 0.1589
C12 C 0.9669(5) 0.61617(16) 0.20553(16)
H31 H 0.9313 0.6457 0.2455
H32 H 1.0000 0.6548 0.1709
H33 H 1.0890 0.5816 0.2253
B1 B 0.7847(4) 0.39635(12) 0.24295(11)
loop_
_geom_bond_atom_site_label_1
_geom_bond_atom_site_label_2
_geom_bond_site_symmetry_1
_geom_bond_site_symmetry_2
Si1 C1 1_555 1_555
Si2 C2 1_555 1_555
Si3 C3 1_555 1_555
C1 H1 1_555 1_555
H2 C1 1_555 1_555
C2 H3 1_555 1_555
H4 C2 1_555 1_555
C3 H5 1_555 1_555
H6 C3 1_555 1_555
C4 Si1 1_555 1_555
H7 C4 1_555 1_555
H8 C4 1_555 1_555
H9 C4 1_555 1_555
C5 Si1 1_555 1_555
H10 C5 1_555 1_555
H11 C5 1_555 1_555
H12 C5 1_555 1_555
C6 Si1 1_555 1_555
H13 C6 1_555 1_555
H14 C6 1_555 1_555
H15 C6 1_555 1_555
C7 Si2 1_555 1_555
H16 C7 1_555 1_555
H17 C7 1_555 1_555
H18 C7 1_555 1_555
C8 Si2 1_555 1_555
H19 C8 1_555 1_555
H20 C8 1_555 1_555
H21 C8 1_555 1_555
C9 Si2 1_555 1_555
H22 C9 1_555 1_555
H23 C9 1_555 1_555
H24 C9 1_555 1_555
C10 Si3 1_555 1_555
H25 C10 1_555 1_555
H26 C10 1_555 1_555
H27 C10 1_555 1_555
C11 Si3 1_555 1_555
H28 C11 1_555 1_555
H29 C11 1_555 1_555
H30 C11 1_555 1_555
C12 Si3 1_555 1_555
H31 C12 1_555 1_555
H32 C12 1_555 1_555
H33 C12 1_555 1_555
B1 C1 1_555 1_555
C2 B1 1_555 1_555
C3 B1 1_555 1_555

#END
