
#######################################################################
#
#                 Cambridge Crystallographic Data Centre
#                                CCDC 
#
#######################################################################
#
# If this CIF has been generated from an entry in the Cambridge 
# Structural Database, then it will include bibliographic, chemical, 
# crystal, experimental, refinement or atomic coordinate data resulting 
# from the CCDC's data processing and validation procedures.
#
#######################################################################

data_HEWQEF
_chemical_formula_moiety         'C29 H22 Cl1 N1 O1 S1'
_chemical_name_systematic        
5-(4-Chlorophenyl)-7,8-diphenyl-benzo(b)-4,1-thiazabicyclo(5.2.0)nonan-9-one
_symmetry_cell_setting           monoclinic
_symmetry_space_group_name_H-M   'P 21/c'
_symmetry_Int_Tables_number      14
_space_group_name_Hall           '-P 2ybc'
loop_
_symmetry_equiv_pos_site_id
_symmetry_equiv_pos_as_xyz
1 x,y,z
2 -x,1/2+y,1/2-z
3 -x,-y,-z
4 x,1/2-y,1/2+z
_cell_length_a                   12.864(3)
_cell_length_b                   9.511(2)
_cell_length_c                   19.489(4)
_cell_angle_alpha                90
_cell_angle_beta                 92.41(3)
_cell_angle_gamma                90
_cell_volume                     2382.36
_cell_formula_units_Z            4
loop_
_atom_site_label
_atom_site_type_symbol
_atom_site_fract_x
_atom_site_fract_y
_atom_site_fract_z
S1 S 0.3222(2) 0.1062(2) 0.8546(1)
Cl1 Cl 0.3786(2) 0.7369(3) 1.0079(1)
C1 C 0.0904(5) -0.0074(8) 0.6916(3)
O1 O 0.0528(4) -0.1219(6) 0.6775(2)
C2 C 0.1765(6) 0.2632(8) 0.7788(3)
C3 C 0.0547(5) 0.1416(8) 0.6873(3)
C4 C 0.0059(6) 0.2066(8) 0.6226(3)
C5 C -0.0564(7) 0.3189(10) 0.6237(4)
C6 C -0.0944(8) 0.3851(11) 0.5640(4)
C7 C -0.0643(8) 0.3344(11) 0.5023(4)
C8 C -0.0023(8) 0.2220(10) 0.4993(3)
C9 C 0.0366(6) 0.1507(8) 0.5589(3)
N1 N 0.1860(4) 0.0284(6) 0.7181(2)
C10 C 0.2730(5) -0.0568(7) 0.7368(3)
C11 C 0.3414(6) -0.0241(7) 0.7931(3)
C12 C 0.4218(6) -0.1196(8) 0.8089(3)
C13 C 0.4363(7) -0.2385(9) 0.7707(3)
C14 C 0.3715(7) -0.2660(9) 0.7163(3)
C15 C 0.2922(6) -0.1761(8) 0.6978(3)
C16 C 0.1679(5) 0.1814(8) 0.7113(3)
C17 C 0.2311(5) 0.2534(7) 0.6557(2)
C18 C 0.2266(7) 0.3953(8) 0.6472(3)
C19 C 0.2717(7) 0.4613(8) 0.5934(3)
C20 C 0.3247(6) 0.3835(9) 0.5472(3)
C21 C 0.3296(6) 0.2417(9) 0.5541(3)
C22 C 0.2825(6) 0.1726(8) 0.6086(3)
C23 C 0.2865(5) 0.2663(7) 0.8089(3)
C24 C 0.3079(5) 0.3867(7) 0.8599(2)
C25 C 0.2271(6) 0.4502(8) 0.8932(3)
C26 C 0.2497(7) 0.5608(8) 0.9391(3)
C27 C 0.3490(6) 0.6011(8) 0.9507(3)
C28 C 0.4300(7) 0.5373(8) 0.9186(3)
C29 C 0.4064(6) 0.4284(8) 0.8732(3)
loop_
_geom_bond_atom_site_label_1
_geom_bond_atom_site_label_2
_geom_bond_site_symmetry_1
_geom_bond_site_symmetry_2
S1 C11 1_555 1_555
Cl1 C27 1_555 1_555
C1 O1 1_555 1_555
C2 C16 1_555 1_555
C3 C1 1_555 1_555
C4 C3 1_555 1_555
C5 C4 1_555 1_555
C6 C5 1_555 1_555
C7 C6 1_555 1_555
C8 C7 1_555 1_555
C9 C4 1_555 1_555
N1 C1 1_555 1_555
C10 N1 1_555 1_555
C11 C10 1_555 1_555
C12 C11 1_555 1_555
C13 C12 1_555 1_555
C14 C13 1_555 1_555
C15 C10 1_555 1_555
C16 C3 1_555 1_555
C17 C16 1_555 1_555
C18 C17 1_555 1_555
C19 C18 1_555 1_555
C20 C19 1_555 1_555
C21 C20 1_555 1_555
C22 C17 1_555 1_555
C23 S1 1_555 1_555
C24 C23 1_555 1_555
C25 C24 1_555 1_555
C26 C25 1_555 1_555
C27 C26 1_555 1_555
C28 C27 1_555 1_555
C29 C24 1_555 1_555
C2 C23 1_555 1_555
C8 C9 1_555 1_555
N1 C16 1_555 1_555
C14 C15 1_555 1_555
C21 C22 1_555 1_555
C28 C29 1_555 1_555

#END
