
#######################################################################
#
#                 Cambridge Crystallographic Data Centre
#                                CCDC 
#
#######################################################################
#
# If this CIF has been generated from an entry in the Cambridge 
# Structural Database, then it will include bibliographic, chemical, 
# crystal, experimental, refinement or atomic coordinate data resulting 
# from the CCDC's data processing and validation procedures.
#
#######################################################################

data_HEWSIO
_chemical_formula_moiety         'C15 H13 F3 N2 O4 S1,H2 O1'
_chemical_name_systematic        
'4-(3-methyl-4-nitro-1,2-oxazol-5-yl)-5-phenyl-5-(trifluoromethyl)thiolan-3-ol monohydrate'
_symmetry_cell_setting           monoclinic
_symmetry_space_group_name_H-M   'P 21/c'
_symmetry_Int_Tables_number      14
_space_group_name_Hall           '-P 2ybc'
loop_
_symmetry_equiv_pos_site_id
_symmetry_equiv_pos_as_xyz
1 x,y,z
2 -x,1/2+y,1/2-z
3 -x,-y,-z
4 x,1/2-y,1/2+z
_cell_length_a                   14.0457(7)
_cell_length_b                   7.6784(4)
_cell_length_c                   16.7214(10)
_cell_angle_alpha                90
_cell_angle_beta                 110.977(6)
_cell_angle_gamma                90
_cell_volume                     1683.86
_exptl_crystal_colour            colorless
_exptl_crystal_description       block
_cell_formula_units_Z            4
loop_
_atom_site_label
_atom_site_type_symbol
_atom_site_fract_x
_atom_site_fract_y
_atom_site_fract_z
S1 S 0.06602(3) 0.49340(6) 0.20990(3)
F1 F 0.18820(10) 0.16254(14) 0.26151(8)
F2 F 0.33594(9) 0.26625(16) 0.28481(9)
F3 F 0.22059(10) 0.29125(16) 0.16096(7)
C1 C 0.26638(12) 0.6171(2) 0.24713(10)
C2 C 0.36924(13) 0.6361(3) 0.29679(12)
H1 H 0.3996 0.5603 0.3422
C3 C 0.42648(16) 0.7665(3) 0.27915(14)
H2 H 0.4951 0.7782 0.3127
C4 C 0.38249(19) 0.8793(3) 0.21209(15)
H3 H 0.4209 0.9684 0.2010
C5 C 0.28155(18) 0.8597(3) 0.16151(14)
H4 H 0.2520 0.9347 0.1156
C6 C 0.22354(14) 0.7289(2) 0.17855(12)
H5 H 0.1554 0.7161 0.1437
C7 C 0.20432(12) 0.4738(2) 0.26964(11)
C8 C 0.21717(12) 0.4720(2) 0.36602(10)
H6 H 0.2756 0.3979 0.3971
C9 C 0.11991(13) 0.3916(2) 0.37412(11)
H7 H 0.1220 0.2648 0.3685
C10 C 0.02826(14) 0.4635(3) 0.30146(13)
H8 H 0.0071 0.5737 0.3181
H9 H -0.0284 0.3826 0.2877
C11 C 0.23741(13) 0.2972(2) 0.24469(12)
C12 C 0.23561(12) 0.6504(2) 0.40456(10)
C13 C 0.31194(12) 0.7259(2) 0.46925(10)
C14 C 0.28339(14) 0.9025(2) 0.47364(11)
C15 C 0.33843(19) 1.0448(3) 0.53294(16)
H10 H 0.2986 1.1496 0.5189
H11 H 0.4032 1.0645 0.5272
H12 H 0.3489 1.0119 0.5909
N1 N 0.40500(11) 0.6444(2) 0.52270(9)
N2 N 0.19393(13) 0.9313(2) 0.41559(11)
O1 O 0.47643(11) 0.7393(2) 0.56072(11)
O2 O 0.40756(11) 0.48559(19) 0.52814(9)
O3 O 0.11765(11) 0.4336(2) 0.45584(9)
H13 H 0.0754 0.3723 0.4658
O4 O 0.16372(9) 0.77083(15) 0.37068(8)
O5 O 0.01530(16) 0.7441(3) 0.48751(13)
H14 H -0.020(3) 0.845(4) 0.499(2)
H15 H 0.007(3) 0.787(4) 0.4384(14)
loop_
_geom_bond_atom_site_label_1
_geom_bond_atom_site_label_2
_geom_bond_site_symmetry_1
_geom_bond_site_symmetry_2
S1 C7 1_555 1_555
F1 C11 1_555 1_555
F2 C11 1_555 1_555
F3 C11 1_555 1_555
C1 C2 1_555 1_555
C2 H1 1_555 1_555
C3 C2 1_555 1_555
H2 C3 1_555 1_555
C4 C3 1_555 1_555
H3 C4 1_555 1_555
C5 C4 1_555 1_555
H4 C5 1_555 1_555
C6 C1 1_555 1_555
H5 C6 1_555 1_555
C7 C1 1_555 1_555
C8 C7 1_555 1_555
H6 C8 1_555 1_555
C9 C8 1_555 1_555
H7 C9 1_555 1_555
C10 S1 1_555 1_555
H8 C10 1_555 1_555
H9 C10 1_555 1_555
C11 C7 1_555 1_555
C12 C8 1_555 1_555
C13 C12 1_555 1_555
C14 C13 1_555 1_555
C15 C14 1_555 1_555
H10 C15 1_555 1_555
H11 C15 1_555 1_555
H12 C15 1_555 1_555
N1 C13 1_555 1_555
N2 C14 1_555 1_555
O1 N1 1_555 1_555
O2 N1 1_555 1_555
O3 C9 1_555 1_555
H13 O3 1_555 1_555
O4 C12 1_555 1_555
O5 H14 1_555 1_555
H15 O5 1_555 1_555
C5 C6 1_555 1_555
C9 C10 1_555 1_555
N2 O4 1_555 1_555

#END
