
#######################################################################
#
#                 Cambridge Crystallographic Data Centre
#                                CCDC 
#
#######################################################################
#
# If this CIF has been generated from an entry in the Cambridge 
# Structural Database, then it will include bibliographic, chemical, 
# crystal, experimental, refinement or atomic coordinate data resulting 
# from the CCDC's data processing and validation procedures.
#
#######################################################################

data_HEXQAF
_chemical_formula_moiety         'C17 H18 O4 S1'
_chemical_name_systematic        
2-methyl-3-[(4-methylphenyl)sulfonyl]-3,4-dihydro-2H-1-benzopyran-4-ol
_symmetry_cell_setting           monoclinic
_symmetry_space_group_name_H-M   'P 21/c'
_symmetry_Int_Tables_number      14
_space_group_name_Hall           '-P 2ybc'
loop_
_symmetry_equiv_pos_site_id
_symmetry_equiv_pos_as_xyz
1 x,y,z
2 -x,1/2+y,1/2-z
3 -x,-y,-z
4 x,1/2-y,1/2+z
_cell_length_a                   9.4156(7)
_cell_length_b                   16.2735(13)
_cell_length_c                   10.0456(8)
_cell_angle_alpha                90
_cell_angle_beta                 100.074(2)
_cell_angle_gamma                90
_cell_volume                     1515.5
_exptl_crystal_colour            colorless
_cell_formula_units_Z            4
loop_
_atom_site_label
_atom_site_type_symbol
_atom_site_fract_x
_atom_site_fract_y
_atom_site_fract_z
C1 C 0.88169(16) 0.29647(9) 0.57962(15)
C2 C 0.96596(16) 0.31009(10) 0.48061(16)
H1 H 0.9537 0.2772 0.4013
C3 C 1.06794(16) 0.37246(10) 0.49967(16)
H2 H 1.1245 0.3827 0.4318
C4 C 1.08905(16) 0.42039(9) 0.61658(17)
C5 C 1.00213(17) 0.40628(10) 0.71299(17)
H3 H 1.0146 0.4390 0.7926
C6 C 0.89736(16) 0.34515(9) 0.69475(16)
H4 H 0.8372 0.3368 0.7603
C7 C 1.20559(18) 0.48490(10) 0.63817(19)
H5 H 1.1822 0.5265 0.7015
H6 H 1.2123 0.5111 0.5516
H7 H 1.2981 0.4591 0.6754
C8 C 0.60362(15) 0.24556(9) 0.44774(15)
H8 H 0.6266 0.2406 0.3546
C9 C 0.56281(16) 0.33561(9) 0.46654(16)
H9 H 0.6423 0.3706 0.4431
C10 C 0.42838(16) 0.35421(9) 0.36504(16)
C11 C 0.39286(17) 0.43505(10) 0.32487(17)
H10 H 0.4517 0.4789 0.3654
C12 C 0.27356(17) 0.45238(10) 0.22720(17)
H11 H 0.2511 0.5076 0.2009
C13 C 0.18670(17) 0.38836(11) 0.16785(17)
H12 H 0.1048 0.3999 0.1007
C14 C 0.21917(17) 0.30803(10) 0.20621(17)
H13 H 0.1595 0.2644 0.1660
C15 C 0.33979(16) 0.29126(9) 0.30405(16)
C16 C 0.47133(17) 0.19129(9) 0.45246(16)
H14 H 0.4291 0.2062 0.5339
C17 C 0.49392(18) 0.09945(10) 0.45060(18)
H15 H 0.4006 0.0715 0.4431
H16 H 0.5567 0.0825 0.5344
H17 H 0.5391 0.0847 0.3731
O1 O 0.82469(12) 0.14643(6) 0.49805(11)
O2 O 0.72253(12) 0.19601(7) 0.69393(11)
O3 O 0.36762(12) 0.20940(7) 0.33216(12)
O4 O 0.54818(12) 0.35489(7) 0.60262(11)
H18 H 0.4714 0.3343 0.6194
S1 S 0.76084(4) 0.21233(2) 0.56353(4)
loop_
_geom_bond_atom_site_label_1
_geom_bond_atom_site_label_2
_geom_bond_site_symmetry_1
_geom_bond_site_symmetry_2
C1 C2 1_555 1_555
C2 H1 1_555 1_555
C3 C2 1_555 1_555
H2 C3 1_555 1_555
C4 C3 1_555 1_555
C5 C4 1_555 1_555
H3 C5 1_555 1_555
C6 C1 1_555 1_555
H4 C6 1_555 1_555
C7 C4 1_555 1_555
H5 C7 1_555 1_555
H6 C7 1_555 1_555
H7 C7 1_555 1_555
C8 H8 1_555 1_555
C9 C8 1_555 1_555
H9 C9 1_555 1_555
C10 C9 1_555 1_555
C11 C10 1_555 1_555
H10 C11 1_555 1_555
C12 C11 1_555 1_555
H11 C12 1_555 1_555
C13 C12 1_555 1_555
H12 C13 1_555 1_555
C14 C13 1_555 1_555
H13 C14 1_555 1_555
C15 C10 1_555 1_555
C16 C8 1_555 1_555
H14 C16 1_555 1_555
C17 C16 1_555 1_555
H15 C17 1_555 1_555
H16 C17 1_555 1_555
H17 C17 1_555 1_555
O1 S1 1_555 1_555
O2 S1 1_555 1_555
O3 C15 1_555 1_555
O4 C9 1_555 1_555
H18 O4 1_555 1_555
S1 C1 1_555 1_555
C5 C6 1_555 1_555
C8 S1 1_555 1_555
C14 C15 1_555 1_555
C16 O3 1_555 1_555

#END
