
#######################################################################
#
#                 Cambridge Crystallographic Data Centre
#                                CCDC 
#
#######################################################################
#
# If this CIF has been generated from an entry in the Cambridge 
# Structural Database, then it will include bibliographic, chemical, 
# crystal, experimental, refinement or atomic coordinate data resulting 
# from the CCDC's data processing and validation procedures.
#
#######################################################################

data_HEXSAF
_chemical_formula_moiety         'C20 H16 F6 N2 O2'
_chemical_name_systematic        
6,17-bis(trifluoroacetyl)-6,17-diazanonacyclo[9.7.0.0^1,15^.0^2,9^.0^3,14^.0^4,8^.0^4,12^.0^8,10^.0^13,15^]octadecane
_symmetry_cell_setting           monoclinic
_symmetry_space_group_name_H-M   'P 21/c'
_symmetry_Int_Tables_number      14
_space_group_name_Hall           '-P 2ybc'
loop_
_symmetry_equiv_pos_site_id
_symmetry_equiv_pos_as_xyz
1 x,y,z
2 -x,1/2+y,1/2-z
3 -x,-y,-z
4 x,1/2-y,1/2+z
_cell_length_a                   7.2621(4)
_cell_length_b                   12.6215(9)
_cell_length_c                   10.0493(5)
_cell_angle_alpha                90
_cell_angle_beta                 112.7277(15)
_cell_angle_gamma                90
_cell_volume                     849.582
_exptl_crystal_colour            colorless
_exptl_crystal_description       platelet
_chemical_melting_point          '243-244 deg.C'
_cell_formula_units_Z            2
loop_
_atom_site_label
_atom_site_type_symbol
_atom_site_fract_x
_atom_site_fract_y
_atom_site_fract_z
F1 F -0.01447(16) 0.21920(8) 0.05117(11)
F2 F -0.13739(17) 0.27866(10) -0.16515(10)
F3 F -0.16966(15) 0.36707(9) 0.00660(13)
O1 O 0.19093(19) 0.38530(10) -0.11050(11)
N1 N 0.26912(18) 0.38886(10) 0.13130(12)
C1 C 0.5190(2) 0.48254(11) 0.30980(14)
C2 C 0.5754(2) 0.59297(12) 0.36715(15)
C3 C 0.7202(2) 0.50165(12) 0.42679(14)
C4 C 0.3837(2) 0.43676(11) 0.37966(14)
C5 C 0.4750(2) 0.61192(11) 0.47449(14)
C6 C 0.7037(2) 0.46707(11) 0.56822(14)
C7 C 0.4632(2) 0.44066(13) 0.15955(15)
C8 C 0.2373(2) 0.36379(13) 0.26606(15)
C9 C 0.1525(2) 0.36490(12) -0.00472(15)
C10 C -0.0440(2) 0.30674(12) -0.02817(15)
H1 H 0.593(3) 0.6492(16) 0.3054(19)
H2 H 0.836(3) 0.4973(15) 0.4079(18)
H3 H 0.435(2) 0.6862(14) 0.4826(17)
H4 H 0.831(3) 0.4384(15) 0.6472(19)
H5 H 0.554(3) 0.3881(14) 0.1532(19)
H6 H 0.443(3) 0.4987(15) 0.087(2)
H7 H 0.265(3) 0.2862(15) 0.2944(19)
H8 H 0.100(3) 0.3775(15) 0.2545(19)
F1B F 1.01447(16) 0.78080(8) 0.94883(11)
F2B F 1.13739(17) 0.72134(10) 1.16515(10)
F3B F 1.16966(15) 0.63293(9) 0.99340(13)
O1B O 0.80907(19) 0.61470(10) 1.11050(11)
N1B N 0.73088(18) 0.61114(10) 0.86870(12)
C1B C 0.4810(2) 0.51746(11) 0.69020(14)
C2B C 0.4246(2) 0.40703(12) 0.63285(15)
C3B C 0.2798(2) 0.49835(12) 0.57321(14)
C4B C 0.6163(2) 0.56324(11) 0.62034(14)
C5B C 0.5250(2) 0.38808(11) 0.52551(14)
C6B C 0.2963(2) 0.53293(11) 0.43178(14)
C7B C 0.5368(2) 0.55934(13) 0.84045(15)
C8B C 0.7627(2) 0.63621(13) 0.73394(15)
C9B C 0.8475(2) 0.63510(12) 1.00472(15)
C10B C 1.0440(2) 0.69326(12) 1.02817(15)
H1B H 0.407(3) 0.3508(16) 0.6946(19)
H2B H 0.164(3) 0.5027(15) 0.5921(18)
H3B H 0.565(2) 0.3138(14) 0.5174(17)
H4B H 0.169(3) 0.5616(15) 0.3528(19)
H5B H 0.446(3) 0.6119(14) 0.8468(19)
H6B H 0.557(3) 0.5013(15) 0.913(2)
H7B H 0.735(3) 0.7138(15) 0.7056(19)
H8B H 0.900(3) 0.6225(15) 0.7455(19)
loop_
_geom_bond_atom_site_label_1
_geom_bond_atom_site_label_2
_geom_bond_site_symmetry_1
_geom_bond_site_symmetry_2
F1 C10 1_555 1_555
F2 C10 1_555 1_555
F3 C10 1_555 1_555
O1 C9 1_555 1_555
N1 C7 1_555 1_555
C1 C2 1_555 1_555
C2 C3 1_555 1_555
C3 C1 1_555 1_555
C4 C1 1_555 1_555
C5 C2 1_555 1_555
C6 C3 1_555 1_555
C7 C1 1_555 1_555
C8 N1 1_555 1_555
C9 N1 1_555 1_555
C10 C9 1_555 1_555
H1 C2 1_555 1_555
H2 C3 1_555 1_555
H3 C5 1_555 1_555
H4 C6 1_555 1_555
H5 C7 1_555 1_555
H6 C7 1_555 1_555
H7 C8 1_555 1_555
H8 C8 1_555 1_555
F1B C10B 1_555 1_555
F2B C10B 1_555 1_555
F3B C10B 1_555 1_555
O1B C9B 1_555 1_555
N1B C7B 1_555 1_555
C1B C2B 1_555 1_555
C2B C3B 1_555 1_555
C3B C1B 1_555 1_555
C4B C5 1_555 1_555
C5B C4 1_555 1_555
C6B C4 1_555 1_555
C7B C1B 1_555 1_555
C8B N1B 1_555 1_555
C9B N1B 1_555 1_555
C10B C9B 1_555 1_555
H1B C2B 1_555 1_555
H2B C3B 1_555 1_555
H3B C5B 1_555 1_555
H4B C6B 1_555 1_555
H5B C7B 1_555 1_555
H6B C7B 1_555 1_555
H7B C8B 1_555 1_555
H8B C8B 1_555 1_555
C4 C8 1_555 1_555
C5 C6B 1_555 1_555
C6 C4B 1_555 1_555
C6 C5B 1_555 1_555
C1B C4B 1_555 1_555
C2B C5B 1_555 1_555
C3B C6B 1_555 1_555
C4B C8B 1_555 1_555

#END
