
#######################################################################
#
#                 Cambridge Crystallographic Data Centre
#                                CCDC 
#
#######################################################################
#
# If this CIF has been generated from an entry in the Cambridge 
# Structural Database, then it will include bibliographic, chemical, 
# crystal, experimental, refinement or atomic coordinate data resulting 
# from the CCDC's data processing and validation procedures.
#
#######################################################################

data_HEXVIQ
_chemical_name_common            
'amphetaminium 3,5-bis(ethoxycarbonyl)pyrazol-1-ide'
_chemical_formula_moiety         'C9 H14 N1 1+,C9 H11 N2 O4 1-'
_chemical_name_systematic        
'1-phenylpropan-2-ammonium 3,5-bis(ethoxycarbonyl)pyrazol-1-ide'
_symmetry_cell_setting           monoclinic
_symmetry_space_group_name_H-M   'P 21'
_symmetry_Int_Tables_number      4
_space_group_name_Hall           'P 2yb'
loop_
_symmetry_equiv_pos_site_id
_symmetry_equiv_pos_as_xyz
1 x,y,z
2 -x,1/2+y,-z
_cell_length_a                   11.4180(3)
_cell_length_b                   6.8800(2)
_cell_length_c                   12.6820(3)
_cell_angle_alpha                90
_cell_angle_beta                 108.8690(16)
_cell_angle_gamma                90
_cell_volume                     942.707
_exptl_crystal_colour            colorless
_exptl_crystal_description       prism
_chemical_melting_point          '114-116 deg.C'
_cell_formula_units_Z            2
_exptl_crystal_recrystallization_method ethanol
loop_
_atom_site_label
_atom_site_type_symbol
_atom_site_fract_x
_atom_site_fract_y
_atom_site_fract_z
O1 O -0.07841(14) -1.2178(3) -0.38512(13)
O2 O -0.27959(16) -1.2431(3) -0.48479(13)
O3 O -0.03376(13) -0.5458(3) -0.13750(13)
O4 O -0.21788(16) -0.3974(3) -0.19409(17)
N1 N -0.32101(15) -0.8800(4) -0.40078(14)
N2 N -0.31098(15) -0.7145(3) -0.34193(14)
C1 C -0.19336(17) -0.7038(4) -0.27070(16)
C2 C -0.12576(17) -0.8637(4) -0.28396(16)
H1 H -0.0313 -0.8856 -0.2417
C3 C -0.20924(18) -0.9709(4) -0.36642(16)
C4 C -0.1955(2) -1.1552(4) -0.41821(17)
C5 C -0.15426(19) -0.5350(4) -0.19902(17)
C6 C -0.0564(3) -1.4030(4) -0.4313(2)
H2 H -0.0722 -1.3911 -0.5109
H3 H -0.1106 -1.5023 -0.4186
C7 C 0.0738(3) -1.4554(6) -0.3749(3)
H4 H 0.0922 -1.5773 -0.403
H5 H 0.1255 -1.3556 -0.3893
H6 H 0.0892 -1.4658 -0.2961
C8 C 0.0182(2) -0.3814(5) -0.0676(2)
H7 H -0.0193 -0.3742 -0.01
H8 H 0.0014 -0.2638 -0.1107
C9 C 0.1532(3) -0.4137(6) -0.0182(3)
H9 H 0.1903 -0.3075 0.0301
H10 H 0.168 -0.5327 0.0235
H11 H 0.1887 -0.4223 -0.0771
N3 N -0.47034(15) -0.3736(3) -0.39940(13)
H12 H -0.4278 -0.2817 -0.4206
H13 H -0.5377 -0.4033 -0.456
H14 H -0.4233 -0.479 -0.3785
C10 C -0.5790(2) -0.1102(4) -0.33556(17)
H15 H -0.6647 -0.1345 -0.3954
H16 H -0.5286 -0.0126 -0.3698
C11 C -0.50749(19) -0.3009(3) -0.30370(17)
H17 H -0.4349 -0.2721 -0.2334
C12 C -0.5784(3) -0.4581(4) -0.2703(2)
H18 H -0.5959 -0.4305 -0.208
H19 H -0.5083 -0.567 -0.2322
H20 H -0.647 -0.4761 -0.3218
C13 C -0.6004(2) -0.0145(3) -0.23640(17)
C14 C -0.5014(2) 0.0614(4) -0.15151(19)
H21 H -0.4134 0.0581 -0.1641
C15 C -0.5194(3) 0.1472(4) -0.0588(2)
H22 H -0.4415 0.2073 -0.0022
C16 C -0.7172(2) -0.0008(5) -0.2263(2)
H23 H -0.796 -0.0642 -0.292
C17 C -0.7341(3) 0.0832(6) -0.1332(3)
H24 H -0.8164 0.1047 -0.1187
C18 C -0.6351(3) 0.1557(5) -0.0497(2)
H25 H -0.6468 0.2106 0.0132
loop_
_geom_bond_atom_site_label_1
_geom_bond_atom_site_label_2
_geom_bond_site_symmetry_1
_geom_bond_site_symmetry_2
O1 C4 1_555 1_555
O2 C4 1_555 1_555
O3 C5 1_555 1_555
O4 C5 1_555 1_555
N1 N2 1_555 1_555
N2 C1 1_555 1_555
C1 C2 1_555 1_555
C2 H1 1_555 1_555
C3 N1 1_555 1_555
C4 C3 1_555 1_555
C5 C1 1_555 1_555
C6 O1 1_555 1_555
H2 C6 1_555 1_555
H3 C6 1_555 1_555
C7 C6 1_555 1_555
H4 C7 1_555 1_555
H5 C7 1_555 1_555
H6 C7 1_555 1_555
C8 O3 1_555 1_555
H7 C8 1_555 1_555
H8 C8 1_555 1_555
C9 C8 1_555 1_555
H9 C9 1_555 1_555
H10 C9 1_555 1_555
H11 C9 1_555 1_555
N3 H12 1_555 1_555
H13 N3 1_555 1_555
H14 N3 1_555 1_555
C10 H15 1_555 1_555
H16 C10 1_555 1_555
C11 N3 1_555 1_555
H17 C11 1_555 1_555
C12 C11 1_555 1_555
H18 C12 1_555 1_555
H19 C12 1_555 1_555
H20 C12 1_555 1_555
C13 C10 1_555 1_555
C14 C13 1_555 1_555
H21 C14 1_555 1_555
C15 C14 1_555 1_555
H22 C15 1_555 1_555
C16 C13 1_555 1_555
H23 C16 1_555 1_555
C17 C16 1_555 1_555
H24 C17 1_555 1_555
C18 C15 1_555 1_555
H25 C18 1_555 1_555
C2 C3 1_555 1_555
C10 C11 1_555 1_555
C17 C18 1_555 1_555

#END
