
#######################################################################
#
#                 Cambridge Crystallographic Data Centre
#                                CCDC 
#
#######################################################################
#
# If this CIF has been generated from an entry in the Cambridge 
# Structural Database, then it will include bibliographic, chemical, 
# crystal, experimental, refinement or atomic coordinate data resulting 
# from the CCDC's data processing and validation procedures.
#
#######################################################################

data_HEYHUO03
_chemical_formula_moiety         'C18 H14 O1'
_chemical_name_systematic        4,4-diphenyl-2,5-cyclohexadienone
_symmetry_cell_setting           orthorhombic
_symmetry_space_group_name_H-M   'P b c a'
_symmetry_Int_Tables_number      61
_space_group_name_Hall           '-P 2ac 2ab'
loop_
_symmetry_equiv_pos_site_id
_symmetry_equiv_pos_as_xyz
1 x,y,z
2 1/2-x,-y,1/2+z
3 -x,1/2+y,1/2-z
4 1/2+x,1/2-y,-z
5 -x,-y,-z
6 1/2+x,y,1/2-z
7 x,1/2-y,1/2+z
8 1/2-x,1/2+y,z
_cell_length_a                   10.7921(6)
_cell_length_b                   17.4749(12)
_cell_length_c                   27.9344(19)
_cell_angle_alpha                90
_cell_angle_beta                 90
_cell_angle_gamma                90
_cell_volume                     5268.17
_exptl_crystal_colour            colorless
_exptl_crystal_description       Block
_cell_formula_units_Z            16
_exptl_crystal_recrystallization_method 'dichloromethane/ethyl acetate/hexane'
loop_
_atom_site_label
_atom_site_type_symbol
_atom_site_fract_x
_atom_site_fract_y
_atom_site_fract_z
O1 O 0.67145(13) 0.29634(9) 0.16595(5)
C1 C 0.56881(16) 0.26757(11) 0.17338(7)
C2 C 0.50891(17) 0.21660(11) 0.13827(7)
H1 H 0.5476 0.2085 0.1082
C3 C 0.40154(17) 0.18152(10) 0.14768(6)
H2 H 0.3688 0.1478 0.1242
C4 C 0.32885(16) 0.19230(10) 0.19364(6)
C5 C 0.39026(17) 0.24964(10) 0.22667(6)
H3 H 0.3482 0.2632 0.2553
C6 C 0.49982(17) 0.28222(11) 0.21799(7)
H4 H 0.5343 0.3158 0.2412
C7 C 0.32403(16) 0.11681(10) 0.22278(6)
C8 C 0.24049(18) 0.10861(11) 0.26083(7)
H5 H 0.1833 0.1485 0.2677
C9 C 0.24066(18) 0.04222(12) 0.28879(7)
H6 H 0.1827 0.0369 0.3142
C10 C 0.32535(19) -0.01609(12) 0.27966(7)
H7 H 0.3257 -0.0611 0.2987
C11 C 0.40922(19) -0.00763(12) 0.24241(7)
H8 H 0.4678 -0.0470 0.2362
C12 C 0.40837(18) 0.05806(11) 0.21402(7)
H9 H 0.4659 0.0628 0.1885
C13 C 0.19892(16) 0.22177(10) 0.17862(6)
C14 C 0.09985(17) 0.17153(11) 0.17038(6)
H10 H 0.1110 0.1181 0.1748
C15 C -0.01502(18) 0.19981(12) 0.15572(7)
H11 H -0.0819 0.1654 0.1505
C16 C -0.03245(18) 0.27801(12) 0.14875(7)
H12 H -0.1112 0.2971 0.1393
C17 C 0.06641(18) 0.32790(11) 0.15574(6)
H13 H 0.0557 0.3812 0.1505
C18 C 0.18118(17) 0.29980(11) 0.17050(6)
H14 H 0.2482 0.3343 0.1751
O2 O 0.56942(13) 0.00511(8) 0.10604(5)
C19 C 0.61655(17) 0.04634(10) 0.07529(6)
C20 C 0.54267(17) 0.08094(10) 0.03642(6)
H15 H 0.4555 0.0734 0.0361
C21 C 0.59453(16) 0.12252(10) 0.00170(6)
H16 H 0.5423 0.1410 -0.0231
C22 C 0.73125(16) 0.14223(10) -0.00073(6)
C23 C 0.80163(17) 0.10847(10) 0.04138(6)
H17 H 0.8876 0.1195 0.0439
C24 C 0.75059(17) 0.06437(10) 0.07507(7)
H18 H 0.8018 0.0440 0.0996
C25 C 0.79295(17) 0.10890(10) -0.04635(6)
C26 C 0.73025(17) 0.05831(10) -0.07644(7)
H19 H 0.6464 0.0454 -0.0699
C27 C 0.78996(19) 0.02656(11) -0.11611(7)
H20 H 0.7464 -0.0075 -0.1366
C28 C 0.91284(19) 0.04461(11) -0.12584(7)
H21 H 0.9535 0.0226 -0.1526
C29 C 0.97595(18) 0.09527(11) -0.09600(7)
H22 H 1.0600 0.1077 -0.1025
C30 C 0.91662(17) 0.12766(11) -0.05680(7)
H23 H 0.9600 0.1627 -0.0369
C31 C 0.73637(16) 0.23097(10) -0.00064(6)
C32 C 0.69556(17) 0.27109(11) -0.04090(6)
H24 H 0.6725 0.2439 -0.0690
C33 C 0.68835(18) 0.35071(11) -0.04017(7)
H25 H 0.6598 0.3776 -0.0676
C34 C 0.72308(18) 0.39101(11) 0.00079(7)
H26 H 0.7177 0.4453 0.0014
C35 C 0.76550(18) 0.35163(11) 0.04070(7)
H27 H 0.7908 0.3790 0.0684
C36 C 0.77104(17) 0.27165(11) 0.04019(7)
H28 H 0.7986 0.2449 0.0678
loop_
_geom_bond_atom_site_label_1
_geom_bond_atom_site_label_2
_geom_bond_site_symmetry_1
_geom_bond_site_symmetry_2
O1 C1 1_555 1_555
C1 C2 1_555 1_555
C2 H1 1_555 1_555
C3 C2 1_555 1_555
H2 C3 1_555 1_555
C4 C3 1_555 1_555
C5 C4 1_555 1_555
H3 C5 1_555 1_555
C6 C1 1_555 1_555
H4 C6 1_555 1_555
C7 C4 1_555 1_555
C8 C7 1_555 1_555
H5 C8 1_555 1_555
C9 C8 1_555 1_555
H6 C9 1_555 1_555
C10 C9 1_555 1_555
H7 C10 1_555 1_555
C11 C10 1_555 1_555
H8 C11 1_555 1_555
C12 C7 1_555 1_555
H9 C12 1_555 1_555
C13 C4 1_555 1_555
C14 C13 1_555 1_555
H10 C14 1_555 1_555
C15 C14 1_555 1_555
H11 C15 1_555 1_555
C16 C15 1_555 1_555
H12 C16 1_555 1_555
C17 C16 1_555 1_555
H13 C17 1_555 1_555
C18 C13 1_555 1_555
H14 C18 1_555 1_555
O2 C19 1_555 1_555
C19 C20 1_555 1_555
C20 H15 1_555 1_555
C21 C20 1_555 1_555
H16 C21 1_555 1_555
C22 C21 1_555 1_555
C23 C22 1_555 1_555
H17 C23 1_555 1_555
C24 C19 1_555 1_555
H18 C24 1_555 1_555
C25 C22 1_555 1_555
C26 C25 1_555 1_555
H19 C26 1_555 1_555
C27 C26 1_555 1_555
H20 C27 1_555 1_555
C28 C27 1_555 1_555
H21 C28 1_555 1_555
C29 C28 1_555 1_555
H22 C29 1_555 1_555
C30 C25 1_555 1_555
H23 C30 1_555 1_555
C31 C22 1_555 1_555
C32 C31 1_555 1_555
H24 C32 1_555 1_555
C33 C32 1_555 1_555
H25 C33 1_555 1_555
C34 C33 1_555 1_555
H26 C34 1_555 1_555
C35 C34 1_555 1_555
H27 C35 1_555 1_555
C36 C31 1_555 1_555
H28 C36 1_555 1_555
C5 C6 1_555 1_555
C11 C12 1_555 1_555
C17 C18 1_555 1_555
C23 C24 1_555 1_555
C29 C30 1_555 1_555
C35 C36 1_555 1_555

#END
