
#######################################################################
#
#                 Cambridge Crystallographic Data Centre
#                                CCDC 
#
#######################################################################
#
# If this CIF has been generated from an entry in the Cambridge 
# Structural Database, then it will include bibliographic, chemical, 
# crystal, experimental, refinement or atomic coordinate data resulting 
# from the CCDC's data processing and validation procedures.
#
#######################################################################

data_HEYTEN
_chemical_formula_moiety         'C40 H48 N8 Na1 1+,Br1 1-,2(H2 O1)'
_chemical_name_systematic        
'[1,9,17,25,39,46,47,48-octa-azanonacyclo[15.15.6.6^9,25^.1^3,7^.1^11,15^.1^19,23^.1^27,31^.0^33,38^.0^40,45^]octatetraconta-3(48),4,6,11(47),12,14,19(46),20,22,27(39),28,30-dodecaene]-sodium bromide dihydrate'
_symmetry_cell_setting           triclinic
_symmetry_space_group_name_H-M   'P 1'
_symmetry_Int_Tables_number      1
_space_group_name_Hall           'P 1'
loop_
_symmetry_equiv_pos_site_id
_symmetry_equiv_pos_as_xyz
1 x,y,z
_cell_length_a                   11.966(4)
_cell_length_b                   13.517(5)
_cell_length_c                   19.836(5)
_cell_angle_alpha                95.32(3)
_cell_angle_beta                 104.25(3)
_cell_angle_gamma                106.60(3)
_cell_volume                     2933.77
_exptl_crystal_colour            yellowish
_exptl_crystal_description       plate
_cell_formula_units_Z            3
loop_
_atom_site_label
_atom_site_type_symbol
_atom_site_fract_x
_atom_site_fract_y
_atom_site_fract_z
N1 N 0.0587(10) 0.2971(11) 0.2889(6)
N2 N 0.1850(12) 0.5225(11) 0.3078(6)
N3 N 0.3825(13) 0.5060(10) 0.2517(6)
N4 N 0.5070(10) 0.4167(10) 0.3666(6)
N5 N 0.3782(9) 0.2692(9) 0.4336(6)
N6 N 0.1801(10) 0.1493(9) 0.3126(5)
N7 N 0.2578(10) 0.4411(10) 0.4358(6)
N8 N 0.3016(10) 0.2783(11) 0.2162(5)
C1 C -0.0036(13) 0.2053(14) 0.2992(8)
C2 C -0.1275(15) 0.1791(14) 0.2923(8)
H1 H -0.1704 0.1122 0.3000
C3 C -0.1884(15) 0.2496(16) 0.2745(9)
H2 H -0.2722 0.2343 0.2714
C4 C -0.1214(16) 0.3442(15) 0.2611(8)
H3 H -0.1601 0.3940 0.2463
C5 C 0.0018(13) 0.3657(13) 0.2694(7)
C6 C 0.0736(15) 0.4651(14) 0.2527(8)
H4 H 0.0945 0.4486 0.2086
H5 H 0.0220 0.5108 0.2437
C7 C 0.2626(16) 0.6140(12) 0.2841(9)
H6 H 0.3316 0.6545 0.3264
C8 C 0.1928(19) 0.6895(14) 0.2575(9)
H7 H 0.1240 0.6511 0.2155
H8 H 0.1584 0.7113 0.2947
C9 C 0.268(2) 0.7850(17) 0.2385(11)
H9 H 0.3362 0.8262 0.2801
H10 H 0.2181 0.8297 0.2217
C10 C 0.317(2) 0.7470(17) 0.1790(10)
H11 H 0.2491 0.7059 0.1374
H12 H 0.3684 0.8077 0.1642
C11 C 0.391(2) 0.6806(15) 0.2081(9)
H13 H 0.4575 0.7230 0.2500
H14 H 0.4281 0.6593 0.1723
C12 C 0.3164(17) 0.5810(13) 0.2297(8)
H15 H 0.2470 0.5426 0.1871
C13 C 0.5006(15) 0.5632(15) 0.3042(8)
H16 H 0.4868 0.6061 0.3427
H17 H 0.5528 0.6113 0.2814
C14 C 0.5681(14) 0.4873(14) 0.3364(8)
C15 C 0.6878(17) 0.5030(16) 0.3358(8)
H18 H 0.7266 0.5544 0.3121
C16 C 0.7484(15) 0.4415(14) 0.3705(9)
H19 H 0.8306 0.4504 0.3717
C17 C 0.6895(12) 0.3682(12) 0.4029(8)
H20 H 0.7292 0.3248 0.4271
C18 C 0.5686(13) 0.3582(11) 0.3997(8)
C19 C 0.5030(13) 0.2734(13) 0.4329(7)
H21 H 0.4986 0.2051 0.4076
H22 H 0.5525 0.2817 0.4823
C20 C 0.3040(12) 0.1635(11) 0.4368(7)
H23 H 0.2326 0.1695 0.4525
C21 C 0.3706(13) 0.1060(10) 0.4872(7)
H24 H 0.3974 0.1465 0.5358
H25 H 0.4442 0.1031 0.4739
C22 C 0.2911(14) -0.0074(11) 0.4868(8)
H26 H 0.2147 -0.0068 0.4976
H27 H 0.3356 -0.0394 0.5228
C23 C 0.2627(15) -0.0705(12) 0.4116(7)
H28 H 0.3391 -0.0685 0.4000
H29 H 0.2147 -0.1446 0.4086
C24 C 0.1889(13) -0.0171(11) 0.3601(7)
H30 H 0.1666 -0.0567 0.3116
H31 H 0.1125 -0.0217 0.3724
C25 C 0.2550(12) 0.0971(11) 0.3605(7)
H32 H 0.3272 0.0991 0.3431
C26 C 0.0571(13) 0.1254(13) 0.3213(8)
H33 H 0.0622 0.1216 0.3715
H34 H 0.0061 0.0557 0.2929
C27 C 0.1603(13) 0.5542(13) 0.3760(7)
H35 H 0.2214 0.6226 0.4005
H36 H 0.0790 0.5636 0.3653
C28 C 0.1644(13) 0.4755(13) 0.4241(7)
C29 C 0.0755(13) 0.4487(13) 0.4622(8)
H37 H 0.0107 0.4775 0.4552
C30 C 0.0855(15) 0.3814(15) 0.5085(9)
H38 H 0.0249 0.3590 0.5320
C31 C 0.1866(12) 0.3456(13) 0.5210(7)
H39 H 0.1986 0.3021 0.5552
C32 C 0.2692(13) 0.3756(13) 0.4820(7)
C33 C 0.3842(11) 0.3453(12) 0.4953(7)
H40 H 0.4554 0.4089 0.5032
H41 H 0.3943 0.3132 0.5383
C34 C 0.4017(14) 0.4454(13) 0.1901(7)
H42 H 0.4822 0.4827 0.1845
H43 H 0.3390 0.4439 0.1465
C35 C 0.3958(14) 0.3340(14) 0.1980(8)
C36 C 0.4827(14) 0.2933(16) 0.1847(8)
H44 H 0.5517 0.3349 0.1730
C37 C 0.4639(17) 0.1854(16) 0.1892(8)
H45 H 0.5205 0.1532 0.1795
C38 C 0.3684(13) 0.1296(14) 0.2069(7)
H46 H 0.3562 0.0579 0.2104
C39 C 0.2891(13) 0.1768(14) 0.2196(7)
C40 C 0.1742(12) 0.1169(12) 0.2379(7)
H47 H 0.1029 0.1291 0.2066
H48 H 0.1627 0.0409 0.2290
Na1 Na 0.2830(5) 0.3683(5) 0.3250(3)
Na2 Na 0.6448(5) 0.6582(4) 0.6724(3)
N9 N 0.6357(10) 0.8379(8) 0.6803(5)
N10 N 0.4203(10) 0.6568(9) 0.6691(5)
N11 N 0.5417(10) 0.5346(9) 0.7562(6)
N12 N 0.6704(10) 0.4820(8) 0.6582(5)
N13 N 0.7836(9) 0.6308(8) 0.5788(5)
N14 N 0.8610(10) 0.8203(8) 0.6781(5)
N15 N 0.5186(9) 0.6319(8) 0.5502(5)
N16 N 0.7881(10) 0.6896(9) 0.7881(5)
C41 C 0.7117(12) 0.9172(11) 0.6577(7)
C42 C 0.6756(13) 1.0009(11) 0.6365(7)
H49 H 0.7269 1.0527 0.6185
C43 C 0.5650(14) 1.0095(12) 0.6414(7)
H50 H 0.5415 1.0682 0.6285
C44 C 0.4892(12) 0.9314(13) 0.6655(7)
H51 H 0.4126 0.9347 0.6690
C45 C 0.5291(13) 0.8474(11) 0.6844(7)
C46 C 0.4511(12) 0.7634(10) 0.7110(7)
H52 H 0.3747 0.7787 0.7103
H53 H 0.4933 0.7637 0.7607
C47 C 0.3515(12) 0.5746(11) 0.7004(7)
H54 H 0.3230 0.5080 0.6654
C48 C 0.2377(12) 0.5925(12) 0.7140(8)
H55 H 0.1835 0.5978 0.6688
H56 H 0.2620 0.6600 0.7465
C49 C 0.1657(15) 0.5032(13) 0.7465(9)
H57 H 0.0939 0.5190 0.7549
H58 H 0.1367 0.4358 0.7133
C50 C 0.2469(16) 0.4949(14) 0.8145(9)
H59 H 0.2031 0.4359 0.8340
H60 H 0.2694 0.5601 0.8490
C51 C 0.3657(13) 0.4766(12) 0.8030(8)
H61 H 0.4197 0.4755 0.8494
H62 H 0.3429 0.4069 0.7733
C52 C 0.4338(12) 0.5559(10) 0.7696(7)
H63 H 0.4649 0.6234 0.8039
C53 C 0.5124(15) 0.4272(13) 0.7179(8)
H64 H 0.4346 0.4107 0.6803
H65 H 0.4988 0.3780 0.7512
C54 C 0.6042(11) 0.4062(11) 0.6846(6)
C55 C 0.6149(13) 0.3067(11) 0.6809(8)
H66 H 0.5695 0.2553 0.7020
C56 C 0.6950(15) 0.2839(12) 0.6451(9)
H67 H 0.7030 0.2158 0.6406
C57 C 0.7621(13) 0.3617(11) 0.6166(8)
H68 H 0.8147 0.3472 0.5909
C58 C 0.7508(12) 0.4610(12) 0.6262(7)
C59 C 0.8308(11) 0.5463(10) 0.5994(7)
H69 H 0.9093 0.5777 0.6366
H70 H 0.8481 0.5135 0.5580
C60 C 0.8771(13) 0.7219(10) 0.5721(7)
H71 H 0.8352 0.7650 0.5435
C61 C 0.9644(12) 0.6928(11) 0.5327(7)
H72 H 1.0028 0.6458 0.5581
H73 H 0.9167 0.6542 0.4845
C62 C 1.0639(13) 0.7901(12) 0.5277(7)
H74 H 1.1185 0.7691 0.5032
H75 H 1.0267 0.8362 0.5004
C63 C 1.1355(13) 0.8481(13) 0.6019(7)
H76 H 1.2030 0.9096 0.6001
H77 H 1.1709 0.8013 0.6294
C64 C 1.0505(12) 0.8842(12) 0.6377(7)
H78 H 1.0141 0.9297 0.6094
H79 H 1.0980 0.9259 0.6851
C65 C 0.9487(11) 0.7897(10) 0.6449(7)
H80 H 0.9871 0.7461 0.6751
C66 C 0.8254(13) 0.9081(10) 0.6509(7)
H81 H 0.8906 0.9742 0.6755
H82 H 0.8216 0.9013 0.6002
C67 C 0.3521(12) 0.6521(11) 0.5942(6)
H83 H 0.3022 0.6994 0.5928
H84 H 0.2965 0.5798 0.5744
C68 C 0.4383(12) 0.6839(11) 0.5492(7)
C69 C 0.4312(13) 0.7614(11) 0.5081(7)
H85 H 0.3731 0.7966 0.5088
C70 C 0.5098(12) 0.7875(11) 0.4655(7)
H86 H 0.5074 0.8394 0.4365
C71 C 0.5932(13) 0.7300(12) 0.4694(7)
H87 H 0.6500 0.7455 0.4427
C72 C 0.5952(12) 0.6526(11) 0.5102(7)
C73 C 0.6806(12) 0.5916(11) 0.5138(7)
H88 H 0.6367 0.5170 0.5125
H89 H 0.7120 0.5961 0.4721
C74 C 0.6417(12) 0.5515(12) 0.8220(7)
H90 H 0.6370 0.4831 0.8372
H91 H 0.6291 0.5970 0.8595
C75 C 0.7665(14) 0.6003(12) 0.8149(7)
C76 C 0.8661(16) 0.5633(12) 0.8431(8)
H92 H 0.8535 0.5015 0.8634
C77 C 0.9757(13) 0.6162(14) 0.8403(8)
H93 H 1.0411 0.5902 0.8578
C78 C 0.9992(16) 0.7077(13) 0.8133(7)
H94 H 1.0789 0.7463 0.8127
C79 C 0.8963(13) 0.7408(11) 0.7860(7)
C80 C 0.9097(13) 0.8423(12) 0.7557(7)
H95 H 0.8658 0.8835 0.7761
H96 H 0.9968 0.8849 0.7692
Na3 Na 0.9539(5) 1.0857(5) 0.9763(3)
N17 N 1.0026(11) 1.1558(10) 0.8707(6)
N18 N 1.1799(11) 1.0999(11) 0.9747(6)
N19 N 1.0157(10) 0.9143(10) 1.0040(6)
N20 N 0.8861(10) 1.0219(10) 1.0797(6)
N21 N 0.8264(11) 1.1973(10) 1.0396(6)
N22 N 0.7688(11) 1.1407(10) 0.8863(6)
N23 N 1.0953(11) 1.2532(10) 1.0447(6)
N24 N 0.7962(10) 0.9261(11) 0.9056(6)
C81 C 0.9330(13) 1.1998(13) 0.8275(8)
C82 C 0.9584(15) 1.2287(13) 0.7668(8)
H97 H 0.9081 1.2595 0.7367
C83 C 1.0568(15) 1.2126(13) 0.7503(10)
H98 H 1.0732 1.2288 0.7074
C84 C 1.1311(13) 1.1732(12) 0.7955(8)
H99 H 1.2032 1.1659 0.7868
C85 C 1.0987(13) 1.1448(12) 0.8532(8)
C86 C 1.1746(14) 1.0862(15) 0.9007(8)
H100 H 1.1400 1.0103 0.8810
H101 H 1.2589 1.1101 0.8970
C87 C 1.2247(13) 1.0225(13) 1.0088(7)
H102 H 1.2390 1.0440 1.0606
C88 C 1.3496(15) 1.0206(15) 0.9989(8)
H103 H 1.3422 1.0088 0.9478
H104 H 1.4113 1.0900 1.0203
C89 C 1.3941(14) 0.9357(13) 1.0323(8)
H105 H 1.4701 0.9344 1.0214
H106 H 1.4110 0.9508 1.0843
C90 C 1.2954(15) 0.8299(15) 1.0024(8)
H107 H 1.2790 0.8153 0.9504
H108 H 1.3242 0.7739 1.0221
C91 C 1.1802(14) 0.8288(14) 1.0202(9)
H109 H 1.1965 0.8428 1.0722
H110 H 1.1186 0.7587 1.0019
C92 C 1.1295(13) 0.9130(13) 0.9877(8)
H111 H 1.1091 0.8934 0.9352
C93 C 1.0276(12) 0.9240(13) 1.0819(7)
H112 H 1.0407 0.8599 1.0980
H113 H 1.1005 0.9841 1.1076
C94 C 0.8634(13) 0.8736(14) 1.1408(8)
H114 H 0.8870 0.8147 1.1532
C95 C 0.9193(13) 0.9392(12) 1.1013(8)
C96 C 0.7724(15) 0.8978(12) 1.1610(8)
H115 H 0.7326 0.8554 1.1891
C97 C 0.7353(15) 0.9821(12) 1.1420(8)
H116 H 0.6713 0.9981 1.1563
C98 C 0.7987(13) 1.0441(12) 1.0997(7)
C99 C 0.7487(13) 1.1268(11) 1.0730(7)
H117 H 0.6678 1.0927 1.0384
H118 H 0.7372 1.1686 1.1129
C100 C 0.7553(13) 1.2488(12) 0.9914(7)
H119 H 0.8159 1.3104 0.9822
C101 C 0.6693(13) 1.2928(12) 1.0221(8)
H120 H 0.7187 1.3451 1.0652
H121 H 0.6135 1.2348 1.0367
C102 C 0.5921(14) 1.3448(13) 0.9717(8)
H122 H 0.5363 1.3673 0.9944
H123 H 0.6454 1.4070 0.9595
C103 C 0.5201(14) 1.2629(14) 0.9057(8)
H124 H 0.4678 1.2926 0.8724
H125 H 0.4667 1.2015 0.9187
C104 C 0.6053(14) 1.2276(14) 0.8696(8)
H126 H 0.6575 1.2887 0.8557
H127 H 0.5563 1.1758 0.8262
C105 C 0.6858(14) 1.1781(13) 0.9192(8)
H128 H 0.6292 1.1143 0.9288
C106 C 0.8269(13) 1.2155(14) 0.8463(7)
H129 H 0.8526 1.2869 0.8742
H130 H 0.7649 1.2130 0.8021
C107 C 1.2577(14) 1.2101(13) 1.0084(8)
H131 H 1.3139 1.2366 0.9802
H132 H 1.3076 1.2092 1.0561
C108 C 1.1856(14) 1.2861(14) 1.0152(7)
C109 C 1.2207(14) 1.3819(15) 0.9971(7)
H133 H 1.2841 1.4005 0.9751
C110 C 1.1604(15) 1.4535(14) 1.0118(8)
H134 H 1.1829 1.5220 1.0007
C111 C 1.0661(14) 1.4207(12) 1.0433(7)
H135 H 1.0240 1.4671 1.0544
C112 C 1.0352(12) 1.3195(12) 1.0580(7)
C113 C 0.9345(13) 1.2767(13) 1.0911(8)
H136 H 0.9653 1.2441 1.1314
H137 H 0.9098 1.3351 1.1097
C114 C 0.9108(12) 0.8244(12) 0.9656(8)
H138 H 0.8993 0.7711 0.9965
H139 H 0.9287 0.7931 0.9240
C115 C 0.7920(13) 0.8486(14) 0.9405(8)
C116 C 0.6891(13) 0.7898(13) 0.9562(8)
H140 H 0.6909 0.7356 0.9833
C117 C 0.5827(14) 0.8143(14) 0.9301(9)
H141 H 0.5094 0.7749 0.9385
C118 C 0.5823(14) 0.8938(14) 0.8927(8)
H142 H 0.5102 0.9112 0.8753
C119 C 0.6950(15) 0.9503(13) 0.8807(7)
C120 C 0.7044(13) 1.0379(13) 0.8401(8)
H143 H 0.7481 1.0284 0.8049
H144 H 0.6216 1.0363 0.8142
Br1 Br 0.8856(4) 0.5953(3) 0.1013(2)
Br2 Br 1.3011(3) 0.9379(3) 0.79702(11)
Br3 Br 1.0026(5) 1.0532(5) 0.4997(3)
Br4 Br 0.6470(19) 1.0680(17) 0.4413(11)
O1 O 0.579(4) 0.990(4) 0.278(3)
Br5 Br 1.2868(16) 1.1426(14) 0.6615(10)
O2 O -0.084(3) 0.724(3) 0.303(2)
O3 O 0.563(2) 0.574(2) 1.0114(15)
O4 O 0.801(4) 0.906(3) 0.375(2)
Br6? Br 0.7438(5) 0.5675(5) 0.1643(3)
Br7? Br 1.250(6) 0.896(5) 0.809(3)
Br8? Br 1.340(7) 0.975(5) 0.784(3)
O5? O 0.915(3) 0.995(2) 0.4635(15)
O6? O 0.742(3) 1.1423(19) 0.4896(14)
Br9? Br 0.5997(17) 1.0359(15) 0.3740(12)
O7? O 0.5794(15) 1.0298(13) 0.3431(11)
O8? O 1.3680(14) 1.1420(12) 0.7219(9)
O9? O -0.208(4) 0.733(3) 0.277(2)
O10? O -0.094(2) 0.608(2) 0.2712(15)
O11? O 0.491(3) 0.618(3) 1.0351(18)
O12? O 0.564(4) 0.602(3) 1.077(2)
O13? O 0.686(3) 0.848(3) 0.3313(18)
Br10? Br 0.8518(9) 1.1684(6) 0.5337(6)
loop_
_geom_bond_atom_site_label_1
_geom_bond_atom_site_label_2
_geom_bond_site_symmetry_1
_geom_bond_site_symmetry_2
N1 C1 1_555 1_555
N2 C6 1_555 1_555
N3 C12 1_555 1_555
N4 C14 1_555 1_555
N5 C19 1_555 1_555
N6 C25 1_555 1_555
N7 C28 1_555 1_555
N8 C35 1_555 1_555
C1 C2 1_555 1_555
C2 H1 1_555 1_555
C3 C2 1_555 1_555
H2 C3 1_555 1_555
C4 C3 1_555 1_555
H3 C4 1_555 1_555
C5 N1 1_555 1_555
C6 C5 1_555 1_555
H4 C6 1_555 1_555
H5 C6 1_555 1_555
C7 N2 1_555 1_555
H6 C7 1_555 1_555
C8 C7 1_555 1_555
H7 C8 1_555 1_555
H8 C8 1_555 1_555
C9 C8 1_555 1_555
H9 C9 1_555 1_555
H10 C9 1_555 1_555
C10 C9 1_555 1_555
H11 C10 1_555 1_555
H12 C10 1_555 1_555
C11 C10 1_555 1_555
H13 C11 1_555 1_555
H14 C11 1_555 1_555
C12 C7 1_555 1_555
H15 C12 1_555 1_555
C13 N3 1_555 1_555
H16 C13 1_555 1_555
H17 C13 1_555 1_555
C14 C13 1_555 1_555
C15 C14 1_555 1_555
H18 C15 1_555 1_555
C16 C15 1_555 1_555
H19 C16 1_555 1_555
C17 C16 1_555 1_555
H20 C17 1_555 1_555
C18 N4 1_555 1_555
C19 C18 1_555 1_555
H21 C19 1_555 1_555
H22 C19 1_555 1_555
C20 N5 1_555 1_555
H23 C20 1_555 1_555
C21 C20 1_555 1_555
H24 C21 1_555 1_555
H25 C21 1_555 1_555
C22 C21 1_555 1_555
H26 C22 1_555 1_555
H27 C22 1_555 1_555
C23 C22 1_555 1_555
H28 C23 1_555 1_555
H29 C23 1_555 1_555
C24 C23 1_555 1_555
H30 C24 1_555 1_555
H31 C24 1_555 1_555
C25 C20 1_555 1_555
H32 C25 1_555 1_555
C26 N6 1_555 1_555
H33 C26 1_555 1_555
H34 C26 1_555 1_555
C27 N2 1_555 1_555
H35 C27 1_555 1_555
H36 C27 1_555 1_555
C28 C27 1_555 1_555
C29 C28 1_555 1_555
H37 C29 1_555 1_555
C30 C29 1_555 1_555
H38 C30 1_555 1_555
C31 C30 1_555 1_555
H39 C31 1_555 1_555
C32 N7 1_555 1_555
C33 N5 1_555 1_555
H40 C33 1_555 1_555
H41 C33 1_555 1_555
C34 N3 1_555 1_555
H42 C34 1_555 1_555
H43 C34 1_555 1_555
C35 C34 1_555 1_555
C36 C35 1_555 1_555
H44 C36 1_555 1_555
C37 C36 1_555 1_555
H45 C37 1_555 1_555
C38 C37 1_555 1_555
H46 C38 1_555 1_555
C39 N8 1_555 1_555
C40 N6 1_555 1_555
H47 C40 1_555 1_555
H48 C40 1_555 1_555
Na1 N1 1_555 1_555
Na2 N9 1_555 1_555
N9 C41 1_555 1_555
N10 Na2 1_555 1_555
N11 Na2 1_555 1_555
N12 Na2 1_555 1_555
N13 Na2 1_555 1_555
N14 Na2 1_555 1_555
N15 Na2 1_555 1_555
N16 Na2 1_555 1_555
C41 C42 1_555 1_555
C42 H49 1_555 1_555
C43 C42 1_555 1_555
H50 C43 1_555 1_555
C44 C43 1_555 1_555
H51 C44 1_555 1_555
C45 N9 1_555 1_555
C46 N10 1_555 1_555
H52 C46 1_555 1_555
H53 C46 1_555 1_555
C47 N10 1_555 1_555
H54 C47 1_555 1_555
C48 C47 1_555 1_555
H55 C48 1_555 1_555
H56 C48 1_555 1_555
C49 C48 1_555 1_555
H57 C49 1_555 1_555
H58 C49 1_555 1_555
C50 C49 1_555 1_555
H59 C50 1_555 1_555
H60 C50 1_555 1_555
C51 C50 1_555 1_555
H61 C51 1_555 1_555
H62 C51 1_555 1_555
C52 N11 1_555 1_555
H63 C52 1_555 1_555
C53 N11 1_555 1_555
H64 C53 1_555 1_555
H65 C53 1_555 1_555
C54 N12 1_555 1_555
C55 C54 1_555 1_555
H66 C55 1_555 1_555
C56 C55 1_555 1_555
H67 C56 1_555 1_555
C57 C56 1_555 1_555
H68 C57 1_555 1_555
C58 N12 1_555 1_555
C59 N13 1_555 1_555
H69 C59 1_555 1_555
H70 C59 1_555 1_555
C60 N13 1_555 1_555
H71 C60 1_555 1_555
C61 C60 1_555 1_555
H72 C61 1_555 1_555
H73 C61 1_555 1_555
C62 C61 1_555 1_555
H74 C62 1_555 1_555
H75 C62 1_555 1_555
C63 C62 1_555 1_555
H76 C63 1_555 1_555
H77 C63 1_555 1_555
C64 C63 1_555 1_555
H78 C64 1_555 1_555
H79 C64 1_555 1_555
C65 N14 1_555 1_555
H80 C65 1_555 1_555
C66 N14 1_555 1_555
H81 C66 1_555 1_555
H82 C66 1_555 1_555
C67 N10 1_555 1_555
H83 C67 1_555 1_555
H84 C67 1_555 1_555
C68 N15 1_555 1_555
C69 C68 1_555 1_555
H85 C69 1_555 1_555
C70 C69 1_555 1_555
H86 C70 1_555 1_555
C71 C70 1_555 1_555
H87 C71 1_555 1_555
C72 N15 1_555 1_555
C73 N13 1_555 1_555
H88 C73 1_555 1_555
H89 C73 1_555 1_555
C74 N11 1_555 1_555
H90 C74 1_555 1_555
H91 C74 1_555 1_555
C75 N16 1_555 1_555
C76 C75 1_555 1_555
H92 C76 1_555 1_555
C77 C76 1_555 1_555
H93 C77 1_555 1_555
C78 C77 1_555 1_555
H94 C78 1_555 1_555
C79 N16 1_555 1_555
C80 N14 1_555 1_555
H95 C80 1_555 1_555
H96 C80 1_555 1_555
Na3 N17 1_555 1_555
N17 C81 1_555 1_555
N18 Na3 1_555 1_555
N19 Na3 1_555 1_555
N20 Na3 1_555 1_555
N21 Na3 1_555 1_555
N22 Na3 1_555 1_555
N23 Na3 1_555 1_555
N24 Na3 1_555 1_555
C81 C82 1_555 1_555
C82 H97 1_555 1_555
C83 C82 1_555 1_555
H98 C83 1_555 1_555
C84 C83 1_555 1_555
H99 C84 1_555 1_555
C85 N17 1_555 1_555
C86 N18 1_555 1_555
H100 C86 1_555 1_555
H101 C86 1_555 1_555
C87 N18 1_555 1_555
H102 C87 1_555 1_555
C88 C87 1_555 1_555
H103 C88 1_555 1_555
H104 C88 1_555 1_555
C89 C88 1_555 1_555
H105 C89 1_555 1_555
H106 C89 1_555 1_555
C90 C89 1_555 1_555
H107 C90 1_555 1_555
H108 C90 1_555 1_555
C91 C90 1_555 1_555
H109 C91 1_555 1_555
H110 C91 1_555 1_555
C92 N19 1_555 1_555
H111 C92 1_555 1_555
C93 N19 1_555 1_555
H112 C93 1_555 1_555
H113 C93 1_555 1_555
C94 H114 1_555 1_555
C95 N20 1_555 1_555
C96 C94 1_555 1_555
H115 C96 1_555 1_555
C97 C96 1_555 1_555
H116 C97 1_555 1_555
C98 N20 1_555 1_555
C99 N21 1_555 1_555
H117 C99 1_555 1_555
H118 C99 1_555 1_555
C100 N21 1_555 1_555
H119 C100 1_555 1_555
C101 C100 1_555 1_555
H120 C101 1_555 1_555
H121 C101 1_555 1_555
C102 C101 1_555 1_555
H122 C102 1_555 1_555
H123 C102 1_555 1_555
C103 C102 1_555 1_555
H124 C103 1_555 1_555
H125 C103 1_555 1_555
C104 C103 1_555 1_555
H126 C104 1_555 1_555
H127 C104 1_555 1_555
C105 N22 1_555 1_555
H128 C105 1_555 1_555
C106 N22 1_555 1_555
H129 C106 1_555 1_555
H130 C106 1_555 1_555
C107 N18 1_555 1_555
H131 C107 1_555 1_555
H132 C107 1_555 1_555
C108 N23 1_555 1_555
C109 C108 1_555 1_555
H133 C109 1_555 1_555
C110 C109 1_555 1_555
H134 C110 1_555 1_555
C111 C110 1_555 1_555
H135 C111 1_555 1_555
C112 N23 1_555 1_555
C113 N21 1_555 1_555
H136 C113 1_555 1_555
H137 C113 1_555 1_555
C114 N19 1_555 1_555
H138 C114 1_555 1_555
H139 C114 1_555 1_555
C115 N24 1_555 1_555
C116 C115 1_555 1_555
H140 C116 1_555 1_555
C117 C116 1_555 1_555
H141 C117 1_555 1_555
C118 C117 1_555 1_555
H142 C118 1_555 1_555
C119 N24 1_555 1_555
C120 N22 1_555 1_555
H143 C120 1_555 1_555
H144 C120 1_555 1_555
N2 Na1 1_555 1_555
N3 Na1 1_555 1_555
N4 Na1 1_555 1_555
N5 Na1 1_555 1_555
N6 Na1 1_555 1_555
N7 Na1 1_555 1_555
N8 Na1 1_555 1_555
C1 C26 1_555 1_555
C4 C5 1_555 1_555
C11 C12 1_555 1_555
C17 C18 1_555 1_555
C24 C25 1_555 1_555
C31 C32 1_555 1_555
C32 C33 1_555 1_555
C38 C39 1_555 1_555
C39 C40 1_555 1_555
C41 C66 1_555 1_555
C44 C45 1_555 1_555
C45 C46 1_555 1_555
C47 C52 1_555 1_555
C51 C52 1_555 1_555
C53 C54 1_555 1_555
C57 C58 1_555 1_555
C58 C59 1_555 1_555
C60 C65 1_555 1_555
C64 C65 1_555 1_555
C67 C68 1_555 1_555
C71 C72 1_555 1_555
C72 C73 1_555 1_555
C74 C75 1_555 1_555
C78 C79 1_555 1_555
C79 C80 1_555 1_555
C81 C106 1_555 1_555
C84 C85 1_555 1_555
C85 C86 1_555 1_555
C87 C92 1_555 1_555
C91 C92 1_555 1_555
C93 C95 1_555 1_555
C94 C95 1_555 1_555
C97 C98 1_555 1_555
C98 C99 1_555 1_555
C100 C105 1_555 1_555
C104 C105 1_555 1_555
C107 C108 1_555 1_555
C111 C112 1_555 1_555
C112 C113 1_555 1_555
C114 C115 1_555 1_555
C118 C119 1_555 1_555
C119 C120 1_555 1_555

#END
