
#######################################################################
#
#                 Cambridge Crystallographic Data Centre
#                                CCDC 
#
#######################################################################
#
# If this CIF has been generated from an entry in the Cambridge 
# Structural Database, then it will include bibliographic, chemical, 
# crystal, experimental, refinement or atomic coordinate data resulting 
# from the CCDC's data processing and validation procedures.
#
#######################################################################

data_HEZJON
_chemical_formula_moiety         'C33 H40'
_chemical_name_systematic        
2,7-Di-t-butyl-10,12,13c,13d-tetramethyl-13c,13d-dihydro-11H-cyclohepta[e]pyrene
_symmetry_cell_setting           monoclinic
_symmetry_space_group_name_H-M   'P 21/c'
_symmetry_Int_Tables_number      14
_space_group_name_Hall           '-P 2ybc'
loop_
_symmetry_equiv_pos_site_id
_symmetry_equiv_pos_as_xyz
1 x,y,z
2 -x,1/2+y,1/2-z
3 -x,-y,-z
4 x,1/2-y,1/2+z
_cell_length_a                   15.2931(5)
_cell_length_b                   15.5885(4)
_cell_length_c                   11.6512(3)
_cell_angle_alpha                90
_cell_angle_beta                 110.7400(10)
_cell_angle_gamma                90
_cell_volume                     2597.61
_exptl_crystal_colour            red
_exptl_crystal_description       needle
_cell_formula_units_Z            4
loop_
_atom_site_label
_atom_site_type_symbol
_atom_site_fract_x
_atom_site_fract_y
_atom_site_fract_z
C1 C 0.55072(12) 0.10528(11) 0.92454(15)
H1 H 0.5004 0.0732 0.9327
C2 C 0.54761(11) 0.19518(11) 0.92804(15)
H2 H 0.4976 0.2221 0.9446
C3 C 0.61464(11) 0.24536(11) 0.90831(14)
C4 C 0.61433(12) 0.33499(10) 0.91145(15)
H3 H 0.5637 0.3633 0.9246
C5 C 0.68430(12) 0.38381(11) 0.89632(15)
C6 C 0.76136(11) 0.34087(10) 0.87846(14)
H4 H 0.8099 0.3751 0.8694
C7 C 0.76948(11) 0.25414(10) 0.87369(14)
C8 C 0.84807(11) 0.21091(10) 0.85836(14)
C9 C 0.92381(11) 0.26486(11) 0.84867(15)
H5 H 0.9415 0.3131 0.9018
C10 C 0.97016(11) 0.25237(11) 0.77204(16)
C11 C 0.94831(13) 0.17507(12) 0.68988(17)
H6 H 0.8805 0.1729 0.6413
H7 H 0.9828 0.1780 0.6323
C12 C 0.97697(12) 0.09664(11) 0.76870(17)
C13 C 0.93118(11) 0.07493(11) 0.84262(16)
H8 H 0.9521 0.0251 0.8917
C14 C 0.85117(11) 0.12114(10) 0.85506(14)
C15 C 0.77801(11) 0.06975(10) 0.87204(15)
C16 C 0.77323(12) -0.01694(10) 0.86089(15)
H9 H 0.8211 -0.0455 0.8416
C17 C 0.70011(12) -0.06804(11) 0.87651(16)
C18 C 0.62862(12) -0.02732(11) 0.89987(16)
H10 H 0.5801 -0.0611 0.9098
C19 C 0.62438(12) 0.06234(11) 0.90965(16)
C20 C 0.71229(18) 0.11623(15) 0.9251(3)
C21 C 0.76628(17) 0.1302(2) 1.06522(19)
H11 H 0.8238 0.1624 1.0769
H12 H 0.7821 0.0744 1.1062
H13 H 0.7269 0.1625 1.1004
C22 C 0.68342(19) 0.20100(16) 0.8588(3)
C23 C 0.63074(16) 0.18700(19) 0.71851(19)
H14 H 0.6112 0.2426 0.6784
H15 H 0.5755 0.1511 0.7060
H16 H 0.6724 0.1585 0.6830
C24 C 0.68568(13) 0.48185(11) 0.90258(17)
C25 C 0.59811(15) 0.51793(12) 0.9203(2)
H17 H 0.5423 0.4986 0.8529
H18 H 0.6006 0.5808 0.9208
H19 H 0.5954 0.4975 0.9985
C26 C 0.77148(15) 0.51157(13) 1.01002(19)
H20 H 0.7723 0.5744 1.0139
H21 H 0.8283 0.4911 0.9982
H22 H 0.7688 0.4882 1.0868
C27 C 0.69036(15) 0.51770(12) 0.78203(18)
H23 H 0.6380 0.4950 0.7127
H24 H 0.7495 0.5005 0.7738
H25 H 0.6866 0.5804 0.7827
C28 C 0.70321(13) -0.16523(11) 0.86082(17)
C29 C 0.62299(15) -0.21083(12) 0.8851(2)
H26 H 0.6256 -0.1977 0.9685
H27 H 0.6288 -0.2729 0.8766
H28 H 0.5632 -0.1911 0.8258
C30 C 0.79605(15) -0.20043(13) 0.95010(19)
H29 H 0.7995 -0.1906 1.0347
H30 H 0.8482 -0.1710 0.9364
H31 H 0.7998 -0.2621 0.9362
C31 C 0.69517(14) -0.18438(12) 0.72870(18)
H32 H 0.6981 -0.2465 0.7177
H33 H 0.7468 -0.1565 0.7117
H34 H 0.6355 -0.1624 0.6720
C32 C 1.04456(13) 0.31245(12) 0.7646(2)
H35 H 1.0564 0.3565 0.8284
H36 H 1.0237 0.3399 0.6837
H37 H 1.1022 0.2802 0.7768
C33 C 1.05956(14) 0.04671(13) 0.7637(2)
H38 H 1.0721 -0.0014 0.8214
H39 H 1.1145 0.0843 0.7861
H40 H 1.0460 0.0247 0.6804
C34? C 0.6310(5) 0.1332(6) 0.7101(6)
H41? H 0.5746 0.1667 0.6999
H42? H 0.6135 0.0786 0.6662
H43? H 0.6717 0.1654 0.6769
C35? C 0.6841(5) 0.1153(5) 0.8495(9)
C36? C 0.7608(5) 0.1785(6) 1.0658(6)
H44? H 0.7239 0.1401 1.0975
H45? H 0.7711 0.2329 1.1107
H46? H 0.8212 0.1517 1.0769
C37? C 0.7068(6) 0.1956(5) 0.9257(9)
loop_
_geom_bond_atom_site_label_1
_geom_bond_atom_site_label_2
_geom_bond_site_symmetry_1
_geom_bond_site_symmetry_2
C1 H1 1_555 1_555
C2 C1 1_555 1_555
H2 C2 1_555 1_555
C3 C2 1_555 1_555
C4 C3 1_555 1_555
H3 C4 1_555 1_555
C5 C4 1_555 1_555
C6 C5 1_555 1_555
H4 C6 1_555 1_555
C7 C6 1_555 1_555
C8 C7 1_555 1_555
C9 C8 1_555 1_555
H5 C9 1_555 1_555
C10 C9 1_555 1_555
C11 C10 1_555 1_555
H6 C11 1_555 1_555
H7 C11 1_555 1_555
C12 C11 1_555 1_555
C13 C12 1_555 1_555
H8 C13 1_555 1_555
C14 C8 1_555 1_555
C15 C14 1_555 1_555
C16 C15 1_555 1_555
H9 C16 1_555 1_555
C17 C16 1_555 1_555
C18 C17 1_555 1_555
H10 C18 1_555 1_555
C19 C1 1_555 1_555
C20 C15 1_555 1_555
C21 C20 1_555 1_555
H11 C21 1_555 1_555
H12 C21 1_555 1_555
H13 C21 1_555 1_555
C22 C3 1_555 1_555
C23 C22 1_555 1_555
H14 C23 1_555 1_555
H15 C23 1_555 1_555
H16 C23 1_555 1_555
C24 C5 1_555 1_555
C25 C24 1_555 1_555
H17 C25 1_555 1_555
H18 C25 1_555 1_555
H19 C25 1_555 1_555
C26 C24 1_555 1_555
H20 C26 1_555 1_555
H21 C26 1_555 1_555
H22 C26 1_555 1_555
C27 C24 1_555 1_555
H23 C27 1_555 1_555
H24 C27 1_555 1_555
H25 C27 1_555 1_555
C28 C17 1_555 1_555
C29 C28 1_555 1_555
H26 C29 1_555 1_555
H27 C29 1_555 1_555
H28 C29 1_555 1_555
C30 C28 1_555 1_555
H29 C30 1_555 1_555
H30 C30 1_555 1_555
H31 C30 1_555 1_555
C31 C28 1_555 1_555
H32 C31 1_555 1_555
H33 C31 1_555 1_555
H34 C31 1_555 1_555
C32 C10 1_555 1_555
H35 C32 1_555 1_555
H36 C32 1_555 1_555
H37 C32 1_555 1_555
C33 C12 1_555 1_555
H38 C33 1_555 1_555
H39 C33 1_555 1_555
H40 C33 1_555 1_555
C7 C22 1_555 1_555
C13 C14 1_555 1_555
C18 C19 1_555 1_555
C19 C20 1_555 1_555
C20 C22 1_555 1_555

#END
