
#######################################################################
#
#                 Cambridge Crystallographic Data Centre
#                                CCDC 
#
#######################################################################
#
# If this CIF has been generated from an entry in the Cambridge 
# Structural Database, then it will include bibliographic, chemical, 
# crystal, experimental, refinement or atomic coordinate data resulting 
# from the CCDC's data processing and validation procedures.
#
#######################################################################

data_HIBGOP
_chemical_formula_moiety         'C7 H1 F5 O2,C7 H2 F5 N1 O1'
_chemical_name_systematic        'Pentafluorobenzoic acid pentafluorobenzamide'
_symmetry_cell_setting           orthorhombic
_symmetry_space_group_name_H-M   'P b c a'
_symmetry_Int_Tables_number      61
_space_group_name_Hall           '-P 2ac 2ab'
loop_
_symmetry_equiv_pos_site_id
_symmetry_equiv_pos_as_xyz
1 x,y,z
2 1/2-x,-y,1/2+z
3 -x,1/2+y,1/2-z
4 1/2+x,1/2-y,-z
5 -x,-y,-z
6 1/2+x,y,1/2-z
7 x,1/2-y,1/2+z
8 1/2-x,1/2+y,z
_cell_length_a                   9.8555(12)
_cell_length_b                   9.3305(12)
_cell_length_c                   32.741(4)
_cell_angle_alpha                90
_cell_angle_beta                 90
_cell_angle_gamma                90
_cell_volume                     3010.76
_exptl_crystal_colour            colorless
_exptl_crystal_description       needles
_chemical_melting_point          '91-92 deg.C'
_cell_formula_units_Z            8
_exptl_crystal_recrystallization_method dioxane
loop_
_atom_site_label
_atom_site_type_symbol
_atom_site_fract_x
_atom_site_fract_y
_atom_site_fract_z
F1 F -0.06771(17) 0.16207(17) 0.30780(5)
F2 F -0.05048(17) 0.18843(17) 0.38900(5)
O1 O 0.18602(17) 0.3434(2) 0.23227(5)
F6 F 0.11136(17) 0.3886(2) 0.42246(5)
F7 F 0.23481(16) 0.55018(18) 0.29319(5)
F9 F 0.25495(17) 0.56771(18) 0.37424(5)
N1 N -0.0399(2) 0.3278(4) 0.23453(8)
C3 C 0.0824(2) 0.3552(3) 0.29744(8)
C5 C 0.0789(2) 0.3411(3) 0.25176(8)
C6 C 0.0109(2) 0.2659(3) 0.32337(8)
C8 C 0.0199(3) 0.2772(3) 0.36508(8)
C9 C 0.1639(2) 0.4566(3) 0.31586(8)
C11 C 0.1018(3) 0.3781(3) 0.38206(8)
C12 C 0.1746(2) 0.4688(3) 0.35767(8)
H2 H -0.115(3) 0.335(3) 0.2485(9)
H3 H -0.042(3) 0.317(3) 0.2069(10)
F3 F 0.66258(18) 0.41197(19) 0.53753(5)
F4 F 0.41848(16) 0.2326(2) 0.42769(5)
F5 F 0.81688(15) 0.50507(18) 0.40618(5)
O2 O 0.70754(19) 0.3566(3) 0.34731(6)
F8 F 0.84501(17) 0.53039(19) 0.48627(5)
F10 F 0.44825(17) 0.26660(19) 0.50755(5)
C1 C 0.6169(2) 0.3656(3) 0.41302(8)
C2 C 0.5248(3) 0.3078(3) 0.44067(8)
C4 C 0.7247(3) 0.4405(3) 0.42988(8)
O3 O 0.4862(2) 0.3288(3) 0.35353(6)
C7 C 0.6482(3) 0.3965(3) 0.49731(8)
C10 C 0.5962(3) 0.3483(3) 0.36823(8)
C13 C 0.7407(3) 0.4561(3) 0.47126(9)
C14 C 0.5404(3) 0.3225(3) 0.48208(8)
H1 H 0.689(4) 0.345(4) 0.3204(11)
loop_
_geom_bond_atom_site_label_1
_geom_bond_atom_site_label_2
_geom_bond_site_symmetry_1
_geom_bond_site_symmetry_2
F1 C6 1_555 1_555
F2 C8 1_555 1_555
F3 C7 1_555 1_555
O1 C5 1_555 1_555
F4 C2 1_555 1_555
F5 C4 1_555 1_555
O2 C10 1_555 1_555
F6 C11 1_555 1_555
F7 C9 1_555 1_555
F8 C13 1_555 1_555
F9 C12 1_555 1_555
F10 C14 1_555 1_555
C1 C2 1_555 1_555
C2 C14 1_555 1_555
N1 C5 1_555 1_555
C3 C5 1_555 1_555
C4 C1 1_555 1_555
C6 C3 1_555 1_555
O3 C10 1_555 1_555
C7 C13 1_555 1_555
C8 C6 1_555 1_555
C9 C3 1_555 1_555
C10 C1 1_555 1_555
C11 C8 1_555 1_555
C12 C9 1_555 1_555
C13 C4 1_555 1_555
C14 C7 1_555 1_555
H1 O2 1_555 1_555
H2 N1 1_555 1_555
H3 N1 1_555 1_555
C11 C12 1_555 1_555

#END
