
#######################################################################
#
#                 Cambridge Crystallographic Data Centre
#                                CCDC 
#
#######################################################################
#
# If this CIF has been generated from an entry in the Cambridge 
# Structural Database, then it will include bibliographic, chemical, 
# crystal, experimental, refinement or atomic coordinate data resulting 
# from the CCDC's data processing and validation procedures.
#
#######################################################################

data_HIBHOR
_chemical_formula_moiety         'C29 H26 O9 Si1'
_chemical_name_systematic        
"Trimethyl 5-phenyl-5''-((trimethylsilyl)ethynyl)-2,2':5',2''-terfuran-3,4',4''-tricarboxylate"
_symmetry_cell_setting           triclinic
_symmetry_space_group_name_H-M   'P -1'
_symmetry_Int_Tables_number      2
_space_group_name_Hall           '-P 1'
loop_
_symmetry_equiv_pos_site_id
_symmetry_equiv_pos_as_xyz
1 x,y,z
2 -x,-y,-z
_cell_length_a                   9.7833(4)
_cell_length_b                   10.3659(5)
_cell_length_c                   13.4336(5)
_cell_angle_alpha                94.021(3)
_cell_angle_beta                 98.768(3)
_cell_angle_gamma                90.566(3)
_cell_volume                     1342.81
_exptl_crystal_colour            colorless
_exptl_crystal_description       plate
_cell_formula_units_Z            2
loop_
_atom_site_label
_atom_site_type_symbol
_atom_site_fract_x
_atom_site_fract_y
_atom_site_fract_z
C1 C 1.3430(3) 1.3504(3) 0.8303(3)
H1 H 1.4148 1.3864 0.8806
O1 O 0.9395(2) 1.0982(2) 0.63497(15)
Si1 Si 0.23434(9) 0.82541(9) 0.02194(6)
C2 C 1.2370(3) 1.2784(3) 0.8578(2)
H2 H 1.2358 1.2648 0.9268
O2 O 0.7258(2) 0.7003(2) 0.79573(15)
C3 C 1.1318(3) 1.2257(3) 0.7837(2)
H3 H 1.0587 1.1764 0.8026
O3 O 0.5270(2) 0.6283(2) 0.70237(17)
C4 C 1.3447(3) 1.3703(3) 0.7294(3)
H4 H 1.4178 1.4198 0.7108
O4 O 0.1639(2) 0.4521(2) 0.43742(17)
C5 C 1.2413(3) 1.3187(3) 0.6561(2)
H5 H 1.2430 1.3332 0.5873
O5 O 0.1026(2) 0.5409(2) 0.28993(16)
C6 C 1.1334(3) 1.2449(3) 0.6826(2)
O6 O 0.4394(2) 0.79616(19) 0.39315(14)
C7 C 1.0240(3) 1.1900(3) 0.6046(2)
O7 O 0.6455(2) 0.90991(19) 0.50961(15)
C8 C 0.9821(3) 1.2087(3) 0.5062(2)
H6 H 1.0220 1.2677 0.4672
O8 O 0.6770(2) 1.0461(2) 0.35558(15)
C9 C 0.8666(3) 1.1232(3) 0.4719(2)
O9 O 0.8411(2) 1.1587(2) 0.29721(16)
C10 C 0.7958(3) 1.1132(3) 0.3660(2)
C11 C 0.8445(3) 1.0572(3) 0.5530(2)
C12 C 0.7571(3) 0.9561(3) 0.5777(2)
C13 C 0.6564(3) 0.7965(3) 0.6458(2)
C14 C 0.7677(3) 0.8891(3) 0.6617(2)
H7 H 0.8362 0.9016 0.7199
C15 C 0.6266(3) 0.6999(3) 0.7147(2)
C16 C 0.7049(3) 0.6031(3) 0.8647(2)
H8 H 0.6171 0.6178 0.8899
H9 H 0.7810 0.6087 0.9215
H10 H 0.7026 0.5170 0.8292
C17 C 0.6031(3) 1.0242(3) 0.2548(2)
H11 H 0.5838 1.1074 0.2257
H12 H 0.5157 0.9779 0.2566
H13 H 0.6593 0.9722 0.2133
C18 C 0.5854(3) 0.8125(3) 0.5512(2)
C19 C 0.4696(3) 0.7483(3) 0.4869(2)
C20 C 0.3821(3) 0.6490(3) 0.4947(2)
H14 H 0.3810 0.6002 0.5518
C21 C 0.2922(3) 0.6320(3) 0.4013(2)
C22 C 0.3300(3) 0.7227(3) 0.3409(2)
C23 C 0.1814(3) 0.5320(3) 0.3800(2)
C24 C -0.0102(3) 0.4471(3) 0.2672(3)
H15 H 0.0270 0.3602 0.2593
H16 H -0.0691 0.4664 0.2045
H17 H -0.0651 0.4510 0.3226
C25 C 0.2886(3) 0.7526(3) 0.2396(2)
C26 C 0.2622(3) 0.7794(3) 0.1538(2)
C27 C 0.3324(4) 0.7151(4) -0.0533(3)
H18 H 0.4317 0.7285 -0.0298
H19 H 0.3115 0.7329 -0.1247
H20 H 0.3062 0.6254 -0.0454
C28 C 0.0463(4) 0.8119(4) -0.0288(3)
H21 H 0.0147 0.7218 -0.0295
H22 H 0.0305 0.8399 -0.0978
H23 H -0.0054 0.8669 0.0141
C29 C 0.3007(4) 0.9950(4) 0.0268(3)
H24 H 0.2536 1.0498 0.0729
H25 H 0.2830 1.0267 -0.0409
H26 H 0.4004 0.9979 0.0511
loop_
_geom_bond_atom_site_label_1
_geom_bond_atom_site_label_2
_geom_bond_site_symmetry_1
_geom_bond_site_symmetry_2
C1 H1 1_555 1_555
O1 C7 1_555 1_555
Si1 C26 1_555 1_555
C2 C1 1_555 1_555
H2 C2 1_555 1_555
O2 C15 1_555 1_555
C3 C2 1_555 1_555
H3 C3 1_555 1_555
O3 C15 1_555 1_555
C4 C1 1_555 1_555
H4 C4 1_555 1_555
O4 C23 1_555 1_555
C5 C4 1_555 1_555
H5 C5 1_555 1_555
O5 C23 1_555 1_555
C6 C3 1_555 1_555
O6 C19 1_555 1_555
C7 C6 1_555 1_555
O7 C12 1_555 1_555
C8 C7 1_555 1_555
H6 C8 1_555 1_555
O8 C10 1_555 1_555
C9 C8 1_555 1_555
O9 C10 1_555 1_555
C10 C9 1_555 1_555
C11 O1 1_555 1_555
C12 C11 1_555 1_555
C13 C14 1_555 1_555
C14 C12 1_555 1_555
H7 C14 1_555 1_555
C15 C13 1_555 1_555
C16 O2 1_555 1_555
H8 C16 1_555 1_555
H9 C16 1_555 1_555
H10 C16 1_555 1_555
C17 O8 1_555 1_555
H11 C17 1_555 1_555
H12 C17 1_555 1_555
H13 C17 1_555 1_555
C18 O7 1_555 1_555
C19 C18 1_555 1_555
C20 C19 1_555 1_555
H14 C20 1_555 1_555
C21 C20 1_555 1_555
C22 O6 1_555 1_555
C23 C21 1_555 1_555
C24 O5 1_555 1_555
H15 C24 1_555 1_555
H16 C24 1_555 1_555
H17 C24 1_555 1_555
C25 C22 1_555 1_555
C26 C25 1_555 1_555
C27 Si1 1_555 1_555
H18 C27 1_555 1_555
H19 C27 1_555 1_555
H20 C27 1_555 1_555
C28 Si1 1_555 1_555
H21 C28 1_555 1_555
H22 C28 1_555 1_555
H23 C28 1_555 1_555
C29 Si1 1_555 1_555
H24 C29 1_555 1_555
H25 C29 1_555 1_555
H26 C29 1_555 1_555
C5 C6 1_555 1_555
C9 C11 1_555 1_555
C13 C18 1_555 1_555
C21 C22 1_555 1_555

#END
