
#######################################################################
#
#                 Cambridge Crystallographic Data Centre
#                                CCDC 
#
#######################################################################
#
# If this CIF has been generated from an entry in the Cambridge 
# Structural Database, then it will include bibliographic, chemical, 
# crystal, experimental, refinement or atomic coordinate data resulting 
# from the CCDC's data processing and validation procedures.
#
#######################################################################

data_HIBVAP02
_chemical_formula_moiety         'C24 H27 N3 O3'
_chemical_name_systematic        1,3,5-tris(4-Methoxyphenyl)-1,3,5-triazinane
_symmetry_cell_setting           monoclinic
_symmetry_space_group_name_H-M   'C 2/c'
_symmetry_Int_Tables_number      15
_space_group_name_Hall           '-C 2yn'
loop_
_symmetry_equiv_pos_site_id
_symmetry_equiv_pos_as_xyz
1 x,y,z
2 -x,y,1/2-z
3 1/2+x,1/2+y,z
4 1/2-x,1/2+y,1/2-z
5 -x,-y,-z
6 x,-y,1/2+z
7 1/2-x,1/2-y,-z
8 1/2+x,1/2-y,1/2+z
_cell_length_a                   26.913(4)
_cell_length_b                   11.0868(14)
_cell_length_c                   14.088(2)
_cell_angle_alpha                90
_cell_angle_beta                 100.124(4)
_cell_angle_gamma                90
_cell_volume                     4138.11
_exptl_crystal_colour            colorless
_exptl_crystal_description       block
_cell_formula_units_Z            8
loop_
_atom_site_label
_atom_site_type_symbol
_atom_site_fract_x
_atom_site_fract_y
_atom_site_fract_z
O1 O 0.20870(7) 0.86252(18) 0.95129(14)
O2 O 0.45773(7) 0.65933(17) 1.12955(13)
O3 O 0.36897(7) 0.55102(16) 0.30973(12)
N1 N 0.35098(7) 0.99506(18) 0.72508(14)
N2 N 0.43607(7) 0.92046(17) 0.78457(14)
N3 N 0.38429(7) 0.82370(17) 0.64881(14)
C1 C 0.40226(9) 1.0244(2) 0.77291(19)
H1 H 0.4163 1.0869 0.7348
H2 H 0.4009 1.0589 0.8372
C2 C 0.43568(9) 0.8615(2) 0.69300(17)
H3 H 0.4580 0.7900 0.7026
H4 H 0.4491 0.9175 0.6489
C3 C 0.35226(9) 0.9334(2) 0.63563(17)
H5 H 0.3653 0.9890 0.5909
H6 H 0.3175 0.9103 0.6058
C4 C 0.31624(9) 0.9529(2) 0.78315(17)
C5 C 0.28991(10) 0.8455(2) 0.76659(18)
H7 H 0.2970 0.7933 0.7172
C6 C 0.25333(10) 0.8118(2) 0.82017(19)
H8 H 0.2353 0.7384 0.8064
C7 C 0.24345(9) 0.8857(2) 0.89319(18)
C8 C 0.26990(9) 0.9934(2) 0.91142(18)
H9 H 0.2632 1.0445 0.9618
C9 C 0.30577(9) 1.0271(2) 0.85749(18)
H10 H 0.3234 1.1011 0.8709
C10 C 0.17608(11) 0.7611(3) 0.9266(2)
H11 H 0.1559 0.7733 0.8623
H12 H 0.1536 0.7527 0.9739
H13 H 0.1964 0.6878 0.9265
C11 C 0.43861(8) 0.8484(2) 0.86888(17)
C12 C 0.44972(9) 0.9050(2) 0.95854(17)
H14 H 0.4531 0.9903 0.9616
C13 C 0.45590(9) 0.8391(2) 1.04286(18)
H15 H 0.4635 0.8795 1.1031
C14 C 0.45120(9) 0.7143(2) 1.04064(18)
C15 C 0.44091(9) 0.6570(2) 0.95288(18)
H16 H 0.4382 0.5716 0.9502
C16 C 0.43436(9) 0.7239(2) 0.86778(18)
H17 H 0.4268 0.6832 0.8077
C17 C 0.44593(13) 0.5339(3) 1.1309(2)
H18 H 0.4115 0.5205 1.0961
H19 H 0.4484 0.5069 1.1978
H20 H 0.4698 0.4881 1.0998
C18 C 0.38112(9) 0.7567(2) 0.56040(16)
C19 C 0.41954(9) 0.7518(2) 0.50636(17)
H21 H 0.4499 0.7955 0.5270
C20 C 0.41409(9) 0.6837(2) 0.42258(18)
H22 H 0.4406 0.6813 0.3861
C21 C 0.37006(9) 0.6191(2) 0.39192(17)
C22 C 0.33146(10) 0.6242(2) 0.44433(18)
H23 H 0.3011 0.5809 0.4233
C23 C 0.33710(9) 0.6926(2) 0.52790(18)
H24 H 0.3103 0.6957 0.5637
C24 C 0.33108(10) 0.4591(2) 0.2918(2)
H25 H 0.3336 0.4066 0.3484
H26 H 0.3361 0.4111 0.2358
H27 H 0.2976 0.4966 0.2789
loop_
_geom_bond_atom_site_label_1
_geom_bond_atom_site_label_2
_geom_bond_site_symmetry_1
_geom_bond_site_symmetry_2
O1 C7 1_555 1_555
O2 C14 1_555 1_555
O3 C21 1_555 1_555
N1 C1 1_555 1_555
N2 C1 1_555 1_555
N3 C2 1_555 1_555
C1 H1 1_555 1_555
H2 C1 1_555 1_555
C2 N2 1_555 1_555
H3 C2 1_555 1_555
H4 C2 1_555 1_555
C3 N1 1_555 1_555
H5 C3 1_555 1_555
H6 C3 1_555 1_555
C4 N1 1_555 1_555
C5 C4 1_555 1_555
H7 C5 1_555 1_555
C6 C5 1_555 1_555
H8 C6 1_555 1_555
C7 C6 1_555 1_555
C8 C7 1_555 1_555
H9 C8 1_555 1_555
C9 C4 1_555 1_555
H10 C9 1_555 1_555
C10 O1 1_555 1_555
H11 C10 1_555 1_555
H12 C10 1_555 1_555
H13 C10 1_555 1_555
C11 N2 1_555 1_555
C12 C11 1_555 1_555
H14 C12 1_555 1_555
C13 C12 1_555 1_555
H15 C13 1_555 1_555
C14 C13 1_555 1_555
C15 C14 1_555 1_555
H16 C15 1_555 1_555
C16 C11 1_555 1_555
H17 C16 1_555 1_555
C17 O2 1_555 1_555
H18 C17 1_555 1_555
H19 C17 1_555 1_555
H20 C17 1_555 1_555
C18 N3 1_555 1_555
C19 C18 1_555 1_555
H21 C19 1_555 1_555
C20 C19 1_555 1_555
H22 C20 1_555 1_555
C21 C20 1_555 1_555
C22 C21 1_555 1_555
H23 C22 1_555 1_555
C23 C18 1_555 1_555
H24 C23 1_555 1_555
C24 O3 1_555 1_555
H25 C24 1_555 1_555
H26 C24 1_555 1_555
H27 C24 1_555 1_555
N3 C3 1_555 1_555
C8 C9 1_555 1_555
C15 C16 1_555 1_555
C22 C23 1_555 1_555

#END
