
#######################################################################
#
#                 Cambridge Crystallographic Data Centre
#                                CCDC 
#
#######################################################################
#
# If this CIF has been generated from an entry in the Cambridge 
# Structural Database, then it will include bibliographic, chemical, 
# crystal, experimental, refinement or atomic coordinate data resulting 
# from the CCDC's data processing and validation procedures.
#
#######################################################################

data_HIBXIC
_chemical_formula_moiety         'C21 H15 N3 S1'
_chemical_name_systematic        
N-benzyl-6H-benzimidazo[1,2-c][1,3]benzothiazin-6-imine
_symmetry_cell_setting           monoclinic
_symmetry_space_group_name_H-M   'C 2/c'
_symmetry_Int_Tables_number      15
_space_group_name_Hall           '-C 2yn'
loop_
_symmetry_equiv_pos_site_id
_symmetry_equiv_pos_as_xyz
1 x,y,z
2 -x,y,1/2-z
3 1/2+x,1/2+y,z
4 1/2-x,1/2+y,1/2-z
5 -x,-y,-z
6 x,-y,1/2+z
7 1/2-x,1/2-y,-z
8 1/2+x,1/2-y,1/2+z
_cell_length_a                   23.3793(3)
_cell_length_b                   7.23290(10)
_cell_length_c                   19.5343(3)
_cell_angle_alpha                90
_cell_angle_beta                 92.6530(10)
_cell_angle_gamma                90
_cell_volume                     3299.71
_exptl_crystal_colour            colorless
_exptl_crystal_description       needle
_cell_formula_units_Z            8
loop_
_atom_site_label
_atom_site_type_symbol
_atom_site_fract_x
_atom_site_fract_y
_atom_site_fract_z
S1 S 0.43550(2) 0.33795(7) 0.41781(2)
N1 N 0.47570(6) 0.2154(2) 0.63687(7)
N2 N 0.50286(6) 0.2277(2) 0.52786(7)
N3 N 0.54471(6) 0.2336(2) 0.42341(7)
C1 C 0.53332(7) 0.1722(2) 0.63536(9)
C2 C 0.57149(8) 0.1297(3) 0.69009(10)
H1 H 0.5595 0.1249 0.7348
C3 C 0.62733(8) 0.0953(3) 0.67543(10)
H2 H 0.6537 0.0659 0.7109
C4 C 0.64543(8) 0.1036(3) 0.60843(11)
H3 H 0.6837 0.0800 0.6005
C5 C 0.60842(8) 0.1458(3) 0.55341(10)
H4 H 0.6208 0.1516 0.5089
C6 C 0.55193(7) 0.1788(2) 0.56817(9)
C7 C 0.45883(7) 0.2482(2) 0.57331(8)
C8 C 0.40143(7) 0.3045(2) 0.55161(9)
C9 C 0.35933(8) 0.3192(3) 0.59983(10)
H5 H 0.3680 0.2862 0.6451
C10 C 0.30545(8) 0.3815(3) 0.58131(12)
H6 H 0.2778 0.3898 0.6139
C11 C 0.29213(8) 0.4318(4) 0.51459(12)
H7 H 0.2557 0.4763 0.5024
C12 C 0.33274(8) 0.4164(3) 0.46554(11)
H8 H 0.3234 0.4489 0.4203
C13 C 0.38727(8) 0.3529(2) 0.48367(9)
C14 C 0.50040(7) 0.2598(2) 0.45657(8)
C15 C 0.54247(8) 0.2724(3) 0.35002(9)
H9 H 0.5247 0.3919 0.3417
H10 H 0.5191 0.1796 0.3262
C16 C 0.60153(8) 0.2723(3) 0.32224(9)
C17 C 0.64498(9) 0.1627(3) 0.34998(11)
H11 H 0.6378 0.0843 0.3863
C18 C 0.69915(10) 0.1680(4) 0.32435(13)
H12 H 0.7280 0.0933 0.3435
C19 C 0.71044(10) 0.2830(4) 0.27075(12)
H13 H 0.7470 0.2873 0.2539
C20 C 0.66759(11) 0.3913(4) 0.24222(11)
H14 H 0.6751 0.4685 0.2056
C21 C 0.61305(9) 0.3868(3) 0.26760(9)
H15 H 0.5842 0.4607 0.2479
loop_
_geom_bond_atom_site_label_1
_geom_bond_atom_site_label_2
_geom_bond_site_symmetry_1
_geom_bond_site_symmetry_2
S1 C13 1_555 1_555
N1 C1 1_555 1_555
N2 C6 1_555 1_555
N3 C14 1_555 1_555
C1 C2 1_555 1_555
C2 H1 1_555 1_555
C3 C2 1_555 1_555
H2 C3 1_555 1_555
C4 C3 1_555 1_555
H3 C4 1_555 1_555
C5 C4 1_555 1_555
H4 C5 1_555 1_555
C6 C1 1_555 1_555
C7 N1 1_555 1_555
C8 C7 1_555 1_555
C9 C8 1_555 1_555
H5 C9 1_555 1_555
C10 C9 1_555 1_555
H6 C10 1_555 1_555
C11 C10 1_555 1_555
H7 C11 1_555 1_555
C12 C11 1_555 1_555
H8 C12 1_555 1_555
C13 C8 1_555 1_555
C14 S1 1_555 1_555
C15 N3 1_555 1_555
H9 C15 1_555 1_555
H10 C15 1_555 1_555
C16 C15 1_555 1_555
C17 C16 1_555 1_555
H11 C17 1_555 1_555
C18 C17 1_555 1_555
H12 C18 1_555 1_555
C19 C18 1_555 1_555
H13 C19 1_555 1_555
C20 C19 1_555 1_555
H14 C20 1_555 1_555
C21 C16 1_555 1_555
H15 C21 1_555 1_555
N2 C7 1_555 1_555
N2 C14 1_555 1_555
C5 C6 1_555 1_555
C12 C13 1_555 1_555
C20 C21 1_555 1_555

#END
