
#######################################################################
#
#                 Cambridge Crystallographic Data Centre
#                                CCDC 
#
#######################################################################
#
# If this CIF has been generated from an entry in the Cambridge 
# Structural Database, then it will include bibliographic, chemical, 
# crystal, experimental, refinement or atomic coordinate data resulting 
# from the CCDC's data processing and validation procedures.
#
#######################################################################

data_HIBXIZ
_chemical_formula_moiety         'C17 H13 N1 O4'
_chemical_name_systematic        
4,6-Dimethyl-2-(4-nitrobenzylidene)-3(2H)-benzofuranone
_symmetry_cell_setting           triclinic
_symmetry_space_group_name_H-M   'P -1'
_symmetry_Int_Tables_number      2
_space_group_name_Hall           '-P 1'
loop_
_symmetry_equiv_pos_site_id
_symmetry_equiv_pos_as_xyz
1 x,y,z
2 -x,-y,-z
_cell_length_a                   8.1610(10)
_cell_length_b                   8.2220(10)
_cell_length_c                   23.113(2)
_cell_angle_alpha                93.46(2)
_cell_angle_beta                 96.88(2)
_cell_angle_gamma                113.43(2)
_cell_volume                     1402.79
_exptl_crystal_colour            yellow
_chemical_melting_point          128deg.C
_cell_formula_units_Z            4
loop_
_atom_site_label
_atom_site_type_symbol
_atom_site_fract_x
_atom_site_fract_y
_atom_site_fract_z
C1 C -0.1246(2) 0.6071(3) -0.18484(8)
C2 C -0.1726(3) 0.4342(3) -0.20835(8)
C3 C -0.1143(3) 0.3257(3) -0.17585(9)
C4 C -0.0081(2) 0.3902(3) -0.12047(8)
C5 C 0.0399(3) 0.5681(3) -0.09862(8)
C6 C -0.0175(3) 0.6783(3) -0.13061(8)
C7 C 0.0484(3) 0.2678(3) -0.08903(8)
C8 C 0.1578(2) 0.3002(3) -0.03776(8)
C9 C 0.2212(3) 0.1710(3) -0.00981(8)
C10 C 0.3398(2) 0.2757(2) 0.04380(8)
C11 C 0.4428(3) 0.2374(3) 0.08990(8)
C12 C 0.5384(3) 0.3739(3) 0.13482(8)
C13 C 0.5374(3) 0.5434(3) 0.13519(8)
C14 C 0.4370(3) 0.5810(3) 0.08861(8)
C15 C 0.3412(2) 0.4444(3) 0.04496(7)
C16 C 0.4500(4) 0.0581(3) 0.09021(12)
C17 C 0.6420(4) 0.6862(4) 0.18535(11)
N1 N -0.1931(2) 0.7212(3) -0.21728(7)
O1 O -0.1571(3) 0.8723(2) -0.19518(7)
O2 O -0.2876(3) 0.6565(3) -0.26524(7)
O3 O 0.2342(2) 0.4627(2) -0.00340(5)
O4 O 0.1822(2) 0.0182(2) -0.02998(7)
H1 H -0.2405(32) 0.3951(32) -0.2473(10)
H2 H -0.1433(34) 0.2051(36) -0.1927(11)
H3 H 0.1092(30) 0.6128(29) -0.0612(10)
H4 H 0.0124(33) 0.7996(35) -0.1146(10)
H5 H 0.0103(29) 0.1454(31) -0.1077(9)
H6 H 0.6085(27) 0.3464(26) 0.1666(8)
H7 H 0.4348(29) 0.6992(31) 0.0880(9)
H8 H 0.5137(43) 0.0457(41) 0.1260(14)
H9 H 0.3320(56) -0.0443(51) 0.0726(16)
H10 H 0.4956(71) 0.0033(66) 0.0580(21)
H11 H 0.6727(48) 0.7952(52) 0.1710(15)
H12 H 0.5845(51) 0.6675(51) 0.2195(17)
H13 H 0.7680(58) 0.6977(52) 0.1991(16)
C18 C 0.6165(3) 0.9938(3) 0.31312(8)
C19 C 0.4717(3) 1.0309(3) 0.29125(8)
C20 C 0.3303(3) 0.9921(3) 0.32235(8)
C21 C 0.3318(3) 0.9181(2) 0.37540(8)
C22 C 0.4803(3) 0.8804(3) 0.39568(9)
C23 C 0.6217(3) 0.9174(3) 0.36470(9)
C24 C 0.1792(3) 0.8865(3) 0.40664(8)
C25 C 0.1483(3) 0.8220(3) 0.45776(8)
C26 C -0.0191(3) 0.7845(3) 0.48448(8)
C27 C 0.0117(2) 0.7074(2) 0.53795(8)
C28 C -0.0930(3) 0.6403(3) 0.58150(8)
C29 C -0.0169(3) 0.5748(3) 0.62624(9)
C30 C 0.1535(3) 0.5705(3) 0.62777(8)
C31 C 0.2550(3) 0.6364(3) 0.58373(8)
C32 C 0.1801(3) 0.7036(2) 0.54015(8)
C33 C -0.2793(3) 0.6343(4) 0.57922(12)
C34 C 0.2243(4) 0.4922(4) 0.67680(12)
N2 N 0.7724(2) 1.0423(2) 0.28230(7)
O5 O 0.8930(2) 0.9957(3) 0.29931(8)
O6 O 0.7767(3) 1.1294(3) 0.24088(8)
O7 O 0.2651(2) 0.7714(2) 0.49296(6)
O8 O -0.1491(2) 0.8119(2) 0.46372(6)
H14 H 0.4790(32) 1.0937(32) 0.2555(10)
H15 H 0.2287(29) 1.0171(28) 0.3072(9)
H16 H 0.4836(34) 0.8301(35) 0.4325(11)
H17 H 0.7180(34) 0.8934(33) 0.3765(10)
H18 H 0.0862(29) 0.9151(28) 0.3885(9)
H19 H -0.0837(29) 0.5306(29) 0.6554(9)
H20 H 0.3720(34) 0.6352(32) 0.5839(10)
H21 H -0.2947(45) 0.7234(49) 0.5575(14)
H22 H -0.3740(62) 0.5287(64) 0.5544(19)
H23 H -0.3255(46) 0.6112(46) 0.6126(15)
H24 H 0.2029(71) 0.5079(70) 0.7142(22)
H25 H 0.1768(55) 0.3731(59) 0.6687(17)
H26 H 0.3444(54) 0.5303(48) 0.6798(15)
loop_
_geom_bond_atom_site_label_1
_geom_bond_atom_site_label_2
_geom_bond_site_symmetry_1
_geom_bond_site_symmetry_2
C1 C2 1_555 1_555
C2 C3 1_555 1_555
C3 C4 1_555 1_555
C4 C5 1_555 1_555
C5 C6 1_555 1_555
C6 C1 1_555 1_555
C7 C4 1_555 1_555
C8 C7 1_555 1_555
C9 C8 1_555 1_555
C10 C9 1_555 1_555
C11 C10 1_555 1_555
C12 C11 1_555 1_555
C13 C12 1_555 1_555
C14 C13 1_555 1_555
C15 C10 1_555 1_555
C16 C11 1_555 1_555
C17 C13 1_555 1_555
N1 C1 1_555 1_555
O1 N1 1_555 1_555
O2 N1 1_555 1_555
O3 C8 1_555 1_555
O4 C9 1_555 1_555
H1 C2 1_555 1_555
H2 C3 1_555 1_555
H3 C5 1_555 1_555
H4 C6 1_555 1_555
H5 C7 1_555 1_555
H6 C12 1_555 1_555
H7 C14 1_555 1_555
H8 C16 1_555 1_555
H9 C16 1_555 1_555
H10 C16 1_555 1_555
H11 C17 1_555 1_555
H12 C17 1_555 1_555
H13 C17 1_555 1_555
C18 C19 1_555 1_555
C19 C20 1_555 1_555
C20 C21 1_555 1_555
C21 C22 1_555 1_555
C22 C23 1_555 1_555
C23 C18 1_555 1_555
C24 C21 1_555 1_555
C25 C24 1_555 1_555
C26 C25 1_555 1_555
C27 C26 1_555 1_555
C28 C27 1_555 1_555
C29 C28 1_555 1_555
C30 C29 1_555 1_555
C31 C30 1_555 1_555
C32 C27 1_555 1_555
C33 C28 1_555 1_555
C34 C30 1_555 1_555
N2 C18 1_555 1_555
O5 N2 1_555 1_555
O6 N2 1_555 1_555
O7 C25 1_555 1_555
O8 C26 1_555 1_555
H14 C19 1_555 1_555
H15 C20 1_555 1_555
H16 C22 1_555 1_555
H17 C23 1_555 1_555
H18 C24 1_555 1_555
H19 C29 1_555 1_555
H20 C31 1_555 1_555
H21 C33 1_555 1_555
H22 C33 1_555 1_555
H23 C33 1_555 1_555
H24 C34 1_555 1_555
H25 C34 1_555 1_555
H26 C34 1_555 1_555
C14 C15 1_555 1_555
C15 O3 1_555 1_555
C31 C32 1_555 1_555
C32 O7 1_555 1_555

#END
