
#######################################################################
#
#                 Cambridge Crystallographic Data Centre
#                                CCDC 
#
#######################################################################
#
# If this CIF has been generated from an entry in the Cambridge 
# Structural Database, then it will include bibliographic, chemical, 
# crystal, experimental, refinement or atomic coordinate data resulting 
# from the CCDC's data processing and validation procedures.
#
#######################################################################

data_HIBYAU
_chemical_formula_moiety         'C54 H42 P4'
_chemical_name_systematic        
(Phosphinetriyltri-2,1-phenylene)tris(diphenylphosphine)
_symmetry_cell_setting           triclinic
_symmetry_space_group_name_H-M   'P -1'
_symmetry_Int_Tables_number      2
_space_group_name_Hall           '-P 1'
loop_
_symmetry_equiv_pos_site_id
_symmetry_equiv_pos_as_xyz
1 x,y,z
2 -x,-y,-z
_cell_length_a                   10.4689(3)
_cell_length_b                   13.1486(4)
_cell_length_c                   15.6192(5)
_cell_angle_alpha                102.458(3)
_cell_angle_beta                 90.654(3)
_cell_angle_gamma                92.795(3)
_cell_volume                     2096.35
_exptl_crystal_colour            colorless
_exptl_crystal_description       prism
_cell_formula_units_Z            2
loop_
_atom_site_label
_atom_site_type_symbol
_atom_site_fract_x
_atom_site_fract_y
_atom_site_fract_z
C1 C 0.28824(13) 0.05289(10) 0.18183(8)
C2 C 0.27320(14) 0.08523(11) 0.10297(9)
H1 H 0.3187 0.1465 0.0947
C3 C 0.19285(16) 0.02909(13) 0.03673(10)
H2 H 0.1846 0.0512 -0.0170
C4 C 0.12466(16) -0.05905(13) 0.04878(11)
H3 H 0.0689 -0.0973 0.0035
C5 C 0.13742(15) -0.09165(12) 0.12665(10)
H4 H 0.0900 -0.1521 0.1349
C6 C 0.21916(14) -0.03642(11) 0.19278(9)
H5 H 0.2281 -0.0597 0.2459
C7 C 0.34335(14) 0.10895(9) 0.36727(8)
C8 C 0.21391(15) 0.11307(11) 0.38638(9)
H6 H 0.1535 0.1189 0.3420
C9 C 0.17228(17) 0.10878(13) 0.46950(11)
H7 H 0.0836 0.1107 0.4816
C10 C 0.25939(19) 0.10172(12) 0.53485(10)
H8 H 0.2307 0.0989 0.5918
C11 C 0.38750(18) 0.09886(12) 0.51720(10)
H9 H 0.4475 0.0943 0.5622
C12 C 0.43002(16) 0.10257(11) 0.43366(9)
H10 H 0.5189 0.1007 0.4220
C13 C 0.54448(13) 0.06007(9) 0.24782(8)
C14 C 0.54026(14) -0.04840(10) 0.24001(9)
H11 H 0.4608 -0.0845 0.2451
C15 C 0.64959(15) -0.10336(10) 0.22515(9)
H12 H 0.6452 -0.1768 0.2195
C16 C 0.76556(15) -0.05125(11) 0.21845(9)
H13 H 0.8410 -0.0890 0.2080
C17 C 0.77223(13) 0.05605(10) 0.22692(9)
H14 H 0.8526 0.0913 0.2229
C18 C 0.66225(12) 0.11299(9) 0.24122(7)
C19 C 0.64417(12) 0.25942(9) 0.13330(7)
C20 C 0.60867(13) 0.16941(10) 0.07049(8)
H15 H 0.6014 0.1042 0.0875
C21 C 0.58380(14) 0.17311(10) -0.01611(8)
H16 H 0.5577 0.1111 -0.0574
C22 C 0.59685(14) 0.26645(11) -0.04240(8)
H17 H 0.5824 0.2688 -0.1021
C23 C 0.63119(14) 0.35683(10) 0.01875(8)
H18 H 0.6404 0.4211 0.0004
C24 C 0.65253(12) 0.35545(9) 0.10675(8)
C25 C 0.84039(12) 0.28456(9) 0.26869(8)
C26 C 0.92519(13) 0.29052(10) 0.20167(8)
H19 H 0.8938 0.2786 0.1428
C27 C 1.05442(13) 0.31361(11) 0.21944(9)
H20 H 1.1111 0.3176 0.1731
C28 C 1.10076(13) 0.33087(11) 0.30471(9)
H21 H 1.1894 0.3467 0.3171
C29 C 1.01775(13) 0.32502(11) 0.37244(9)
H22 H 1.0505 0.3365 0.4309
C30 C 0.88764(12) 0.30265(9) 0.35596(8)
C31 C 0.72336(12) 0.42374(10) 0.47873(8)
C32 C 0.64894(14) 0.44438(11) 0.55335(8)
H23 H 0.6290 0.3902 0.5834
C33 C 0.60373(14) 0.54201(12) 0.58433(9)
H24 H 0.5540 0.5552 0.6356
C34 C 0.63144(15) 0.62062(11) 0.54011(10)
H25 H 0.5997 0.6878 0.5607
C35 C 0.70493(15) 0.60182(11) 0.46635(10)
H26 H 0.7243 0.6563 0.4366
C36 C 0.75094(13) 0.50372(10) 0.43525(9)
H27 H 0.8013 0.4912 0.3842
C37 C 0.87060(13) 0.27770(10) 0.53627(8)
C38 C 0.86510(14) 0.18183(10) 0.56096(9)
H28 H 0.8125 0.1255 0.5283
C39 C 0.93609(15) 0.16796(11) 0.63304(9)
H29 H 0.9325 0.1021 0.6489
C40 C 1.01159(14) 0.24945(12) 0.68142(9)
H30 H 1.0602 0.2398 0.7305
C41 C 1.01649(14) 0.34526(12) 0.65843(9)
H31 H 1.0682 0.4015 0.6920
C42 C 0.94631(13) 0.35956(11) 0.58671(8)
H32 H 0.9498 0.4259 0.5717
C43 C 0.77236(13) 0.55824(10) 0.12362(8)
C44 C 0.90431(14) 0.55283(11) 0.11778(9)
H33 H 0.9471 0.5068 0.1462
C45 C 0.97430(16) 0.61396(13) 0.07095(10)
H34 H 1.0644 0.6091 0.0671
C46 C 0.91320(18) 0.68163(12) 0.03011(10)
H35 H 0.9612 0.7238 -0.0016
C47 C 0.78231(18) 0.68810(12) 0.03536(10)
H36 H 0.7401 0.7346 0.0070
C48 C 0.71212(15) 0.62678(11) 0.08198(9)
H37 H 0.6220 0.6317 0.0854
C49 C 0.53267(13) 0.53393(10) 0.20266(8)
C50 C 0.52798(15) 0.63195(11) 0.25922(9)
H38 H 0.6042 0.6652 0.2879
C51 C 0.41388(17) 0.68099(12) 0.27390(10)
H39 H 0.4126 0.7484 0.3112
C52 C 0.30210(17) 0.63239(14) 0.23464(11)
H40 H 0.2237 0.6659 0.2450
C53 C 0.30439(16) 0.53483(13) 0.18020(11)
H41 H 0.2271 0.5009 0.1537
C54 C 0.41914(14) 0.48566(11) 0.16381(10)
H42 H 0.4198 0.4187 0.1258
P1 P 0.66704(3) 0.25593(2) 0.250241(19)
P2 P 0.39903(3) 0.13475(2) 0.26311(2)
P3 P 0.68892(3) 0.47630(2) 0.18962(2)
P4 P 0.77088(3) 0.28997(2) 0.44169(2)
loop_
_geom_bond_atom_site_label_1
_geom_bond_atom_site_label_2
_geom_bond_site_symmetry_1
_geom_bond_site_symmetry_2
C1 C2 1_555 1_555
C2 H1 1_555 1_555
C3 C2 1_555 1_555
H2 C3 1_555 1_555
C4 C3 1_555 1_555
H3 C4 1_555 1_555
C5 C4 1_555 1_555
H4 C5 1_555 1_555
C6 C1 1_555 1_555
H5 C6 1_555 1_555
C7 C8 1_555 1_555
C8 H6 1_555 1_555
C9 C8 1_555 1_555
H7 C9 1_555 1_555
C10 C9 1_555 1_555
H8 C10 1_555 1_555
C11 C10 1_555 1_555
H9 C11 1_555 1_555
C12 C7 1_555 1_555
H10 C12 1_555 1_555
C13 C14 1_555 1_555
C14 H11 1_555 1_555
C15 C14 1_555 1_555
H12 C15 1_555 1_555
C16 C15 1_555 1_555
H13 C16 1_555 1_555
C17 C16 1_555 1_555
H14 C17 1_555 1_555
C18 C13 1_555 1_555
C19 C20 1_555 1_555
C20 H15 1_555 1_555
C21 C20 1_555 1_555
H16 C21 1_555 1_555
C22 C21 1_555 1_555
H17 C22 1_555 1_555
C23 C22 1_555 1_555
H18 C23 1_555 1_555
C24 C19 1_555 1_555
C25 C26 1_555 1_555
C26 H19 1_555 1_555
C27 C26 1_555 1_555
H20 C27 1_555 1_555
C28 C27 1_555 1_555
H21 C28 1_555 1_555
C29 C28 1_555 1_555
H22 C29 1_555 1_555
C30 C25 1_555 1_555
C31 C32 1_555 1_555
C32 H23 1_555 1_555
C33 C32 1_555 1_555
H24 C33 1_555 1_555
C34 C33 1_555 1_555
H25 C34 1_555 1_555
C35 C34 1_555 1_555
H26 C35 1_555 1_555
C36 C31 1_555 1_555
H27 C36 1_555 1_555
C37 C38 1_555 1_555
C38 H28 1_555 1_555
C39 C38 1_555 1_555
H29 C39 1_555 1_555
C40 C39 1_555 1_555
H30 C40 1_555 1_555
C41 C40 1_555 1_555
H31 C41 1_555 1_555
C42 C37 1_555 1_555
H32 C42 1_555 1_555
C43 C44 1_555 1_555
C44 H33 1_555 1_555
C45 C44 1_555 1_555
H34 C45 1_555 1_555
C46 C45 1_555 1_555
H35 C46 1_555 1_555
C47 C46 1_555 1_555
H36 C47 1_555 1_555
C48 C43 1_555 1_555
H37 C48 1_555 1_555
C49 C50 1_555 1_555
C50 H38 1_555 1_555
C51 C50 1_555 1_555
H39 C51 1_555 1_555
C52 C51 1_555 1_555
H40 C52 1_555 1_555
C53 C52 1_555 1_555
H41 C53 1_555 1_555
C54 C49 1_555 1_555
H42 C54 1_555 1_555
P1 C18 1_555 1_555
P2 C1 1_555 1_555
P3 C24 1_555 1_555
P4 C30 1_555 1_555
C5 C6 1_555 1_555
C7 P2 1_555 1_555
C11 C12 1_555 1_555
C13 P2 1_555 1_555
C17 C18 1_555 1_555
C19 P1 1_555 1_555
C23 C24 1_555 1_555
C25 P1 1_555 1_555
C29 C30 1_555 1_555
C31 P4 1_555 1_555
C35 C36 1_555 1_555
C37 P4 1_555 1_555
C41 C42 1_555 1_555
C43 P3 1_555 1_555
C47 C48 1_555 1_555
C49 P3 1_555 1_555
C53 C54 1_555 1_555

#END
