
#######################################################################
#
#                 Cambridge Crystallographic Data Centre
#                                CCDC 
#
#######################################################################
#
# If this CIF has been generated from an entry in the Cambridge 
# Structural Database, then it will include bibliographic, chemical, 
# crystal, experimental, refinement or atomic coordinate data resulting 
# from the CCDC's data processing and validation procedures.
#
#######################################################################

data_HICDEE
_chemical_formula_moiety         'C15 H20 O4'
_chemical_name_systematic        
1-Hydroxy-1,4a-dimethyl-7-methyleneoctahydro-1H-oxireno[8,8a]azuleno[4,5-b]furan-8(4aH)-one
_symmetry_cell_setting           orthorhombic
_symmetry_space_group_name_H-M   'P 21 21 21'
_symmetry_Int_Tables_number      19
_space_group_name_Hall           'P 2ac 2ab'
loop_
_symmetry_equiv_pos_site_id
_symmetry_equiv_pos_as_xyz
1 x,y,z
2 1/2-x,-y,1/2+z
3 -x,1/2+y,1/2-z
4 1/2+x,1/2-y,-z
_cell_length_a                   6.1718(14)
_cell_length_b                   13.887(3)
_cell_length_c                   15.127(3)
_cell_angle_alpha                90
_cell_angle_beta                 90
_cell_angle_gamma                90
_cell_volume                     1296.5
_exptl_crystal_colour            colorless
_exptl_crystal_description       Prism
_cell_formula_units_Z            4
loop_
_atom_site_label
_atom_site_type_symbol
_atom_site_fract_x
_atom_site_fract_y
_atom_site_fract_z
O1 O 1.25028(15) 0.04269(6) 0.09420(6)
O2 O 0.74795(14) 0.16475(7) 0.30768(6)
H1 H 0.7054 0.2199 0.2929
O3 O 0.66344(13) -0.02740(7) 0.22228(6)
O4 O 0.41006(15) -0.14210(6) 0.23344(6)
C1 C 1.1127(2) 0.12439(9) 0.11720(9)
C2 C 1.2279(2) 0.20567(10) 0.16630(9)
H2 H 1.2521 0.2614 0.1267
H3 H 1.3695 0.1836 0.1894
C3 C 1.0763(2) 0.23289(9) 0.24207(9)
H4 H 0.9802 0.2867 0.2246
H5 H 1.1601 0.2524 0.2949
C4 C 0.9441(2) 0.14207(9) 0.26111(9)
C5 C 0.9004(2) 0.10230(9) 0.16656(8)
H6 H 0.7827 0.1419 0.1393
C6 C 0.8363(2) -0.00296(9) 0.15897(8)
H7 H 0.9659 -0.0440 0.1713
C7 C 0.7410(2) -0.03133(9) 0.06890(8)
H8 H 0.6402 0.0212 0.0502
C8 C 0.9056(2) -0.04507(9) -0.00443(9)
H9 H 0.8354 -0.0788 -0.0545
H10 H 1.0247 -0.0864 0.0174
C9 C 1.0006(2) 0.05015(10) -0.03759(9)
H11 H 1.0749 0.0376 -0.0944
H12 H 0.8790 0.0947 -0.0499
C10 C 1.1588(2) 0.10110(9) 0.02325(9)
C11 C 1.3223(2) 0.16068(10) -0.02649(9)
H13 H 1.4181 0.1933 0.0156
H14 H 1.2467 0.2088 -0.0625
H15 H 1.4084 0.1187 -0.0649
C12 C 1.0681(2) 0.07062(10) 0.31779(9)
H16 H 1.1111 0.1016 0.3733
H17 H 1.1977 0.0491 0.2860
H18 H 0.9755 0.0150 0.3307
C13 C 0.5433(2) -0.10049(10) 0.18879(9)
C14 C 0.6051(2) -0.11677(9) 0.09469(9)
C15 C 0.5500(2) -0.19436(10) 0.04945(10)
H19 H 0.4665 -0.2435 0.0768
H20 H 0.5938 -0.2010 -0.0104
loop_
_geom_bond_atom_site_label_1
_geom_bond_atom_site_label_2
_geom_bond_site_symmetry_1
_geom_bond_site_symmetry_2
O1 C1 1_555 1_555
O2 H1 1_555 1_555
O3 C6 1_555 1_555
O4 C13 1_555 1_555
C1 C2 1_555 1_555
C2 H2 1_555 1_555
H3 C2 1_555 1_555
C3 C2 1_555 1_555
H4 C3 1_555 1_555
H5 C3 1_555 1_555
C4 O2 1_555 1_555
C5 C1 1_555 1_555
H6 C5 1_555 1_555
C6 C5 1_555 1_555
H7 C6 1_555 1_555
C7 C6 1_555 1_555
H8 C7 1_555 1_555
C8 C7 1_555 1_555
H9 C8 1_555 1_555
H10 C8 1_555 1_555
C9 C8 1_555 1_555
H11 C9 1_555 1_555
H12 C9 1_555 1_555
C10 O1 1_555 1_555
C11 C10 1_555 1_555
H13 C11 1_555 1_555
H14 C11 1_555 1_555
H15 C11 1_555 1_555
C12 C4 1_555 1_555
H16 C12 1_555 1_555
H17 C12 1_555 1_555
H18 C12 1_555 1_555
C13 O3 1_555 1_555
C14 C7 1_555 1_555
C15 C14 1_555 1_555
H19 C15 1_555 1_555
H20 C15 1_555 1_555
C1 C10 1_555 1_555
C3 C4 1_555 1_555
C4 C5 1_555 1_555
C9 C10 1_555 1_555
C13 C14 1_555 1_555

#END
