
#######################################################################
#
#                 Cambridge Crystallographic Data Centre
#                                CCDC 
#
#######################################################################
#
# If this CIF has been generated from an entry in the Cambridge 
# Structural Database, then it will include bibliographic, chemical, 
# crystal, experimental, refinement or atomic coordinate data resulting 
# from the CCDC's data processing and validation procedures.
#
#######################################################################

data_HICGOR
_chemical_formula_moiety         'C16 H22 N2 O2'
_chemical_name_systematic        
1-(1-(Hydroxymethyl)-2-propyl-1,2a,3,8b-tetrahydroazeto[2,3-c]quinolin-4(2H)-yl)ethanone
_symmetry_cell_setting           orthorhombic
_symmetry_space_group_name_H-M   'P 21 21 21'
_symmetry_Int_Tables_number      19
_space_group_name_Hall           'P 2ac 2ab'
loop_
_symmetry_equiv_pos_site_id
_symmetry_equiv_pos_as_xyz
1 x,y,z
2 1/2-x,-y,1/2+z
3 -x,1/2+y,1/2-z
4 1/2+x,1/2-y,-z
_cell_length_a                   6.9421(2)
_cell_length_b                   13.6050(3)
_cell_length_c                   15.4899(4)
_cell_angle_alpha                90
_cell_angle_beta                 90
_cell_angle_gamma                90
_cell_volume                     1462.98
_exptl_crystal_colour            colorless
_exptl_crystal_description       block
_cell_formula_units_Z            4
loop_
_atom_site_label
_atom_site_type_symbol
_atom_site_fract_x
_atom_site_fract_y
_atom_site_fract_z
N1 N 0.85410(17) -0.07699(8) 0.68530(7)
C1 C 0.8660(2) -0.04998(11) 0.77044(9)
O1 O 0.72102(18) -0.02654(9) 0.81063(7)
C2 C 1.0614(3) -0.04650(13) 0.81237(10)
H1 H 1.0666 0.0088 0.8528
H2 H 1.1605 -0.0381 0.7679
H3 H 1.0843 -0.1080 0.8437
C3 C 1.0053(2) -0.11626(10) 0.63356(8)
C4 C 1.1239(2) -0.19301(11) 0.66065(9)
H4 H 1.1122 -0.2183 0.7176
C5 C 1.2588(2) -0.23239(11) 0.60442(11)
H5 H 1.3398 -0.2845 0.6230
C6 C 1.2762(2) -0.19595(10) 0.52098(11)
H6 H 1.3705 -0.2221 0.4829
C7 C 1.1548(2) -0.12109(10) 0.49366(9)
H7 H 1.1656 -0.0970 0.4363
C8 C 1.01790(19) -0.08070(9) 0.54855(8)
C9 C 0.88086(19) -0.00266(10) 0.51982(8)
H8 H 0.8743 0.0012 0.4554
C10 C 0.90079(18) 0.10109(9) 0.56081(8)
H9 H 0.9703 0.0980 0.6173
C11 C 0.9856(2) 0.17867(9) 0.50273(8)
H10 H 1.1181 0.1597 0.4859
H11 H 0.9072 0.1846 0.4496
O2 O 0.98932(15) 0.27043(7) 0.54688(6)
H12 H 1.0522 0.3114 0.5177
N2 N 0.68784(16) 0.10385(8) 0.57360(7)
C12 C 0.6128(2) 0.14723(10) 0.65322(9)
H13 H 0.6497 0.2175 0.6558
H14 H 0.6710 0.1136 0.7035
C13 C 0.3936(2) 0.13843(10) 0.65811(9)
H15 H 0.3358 0.1689 0.6062
H16 H 0.3572 0.0681 0.6587
C14 C 0.3141(2) 0.18815(13) 0.73834(11)
H17 H 0.3717 0.1584 0.7898
H18 H 0.1739 0.1798 0.7402
H19 H 0.3452 0.2584 0.7368
C15 C 0.67551(19) -0.00517(9) 0.56062(8)
H20 H 0.5748 -0.0231 0.5172
C16 C 0.66821(19) -0.07188(10) 0.63991(9)
H21 H 0.5687 -0.0471 0.6802
H22 H 0.6301 -0.1389 0.6217
loop_
_geom_bond_atom_site_label_1
_geom_bond_atom_site_label_2
_geom_bond_site_symmetry_1
_geom_bond_site_symmetry_2
N1 C1 1_555 1_555
C1 O1 1_555 1_555
C2 C1 1_555 1_555
H1 C2 1_555 1_555
H2 C2 1_555 1_555
H3 C2 1_555 1_555
C3 N1 1_555 1_555
C4 C3 1_555 1_555
H4 C4 1_555 1_555
C5 C4 1_555 1_555
H5 C5 1_555 1_555
C6 C5 1_555 1_555
H6 C6 1_555 1_555
C7 C6 1_555 1_555
H7 C7 1_555 1_555
C8 C3 1_555 1_555
C9 C8 1_555 1_555
H8 C9 1_555 1_555
C10 C9 1_555 1_555
H9 C10 1_555 1_555
C11 C10 1_555 1_555
H10 C11 1_555 1_555
H11 C11 1_555 1_555
O2 C11 1_555 1_555
H12 O2 1_555 1_555
N2 C10 1_555 1_555
C12 N2 1_555 1_555
H13 C12 1_555 1_555
H14 C12 1_555 1_555
C13 C12 1_555 1_555
H15 C13 1_555 1_555
H16 C13 1_555 1_555
C14 C13 1_555 1_555
H17 C14 1_555 1_555
H18 C14 1_555 1_555
H19 C14 1_555 1_555
C15 C9 1_555 1_555
H20 C15 1_555 1_555
C16 N1 1_555 1_555
H21 C16 1_555 1_555
H22 C16 1_555 1_555
C7 C8 1_555 1_555
N2 C15 1_555 1_555
C15 C16 1_555 1_555

#END
