
#######################################################################
#
#                 Cambridge Crystallographic Data Centre
#                                CCDC 
#
#######################################################################
#
# If this CIF has been generated from an entry in the Cambridge 
# Structural Database, then it will include bibliographic, chemical, 
# crystal, experimental, refinement or atomic coordinate data resulting 
# from the CCDC's data processing and validation procedures.
#
#######################################################################

data_HICVAT
_chemical_formula_moiety         'C21 H18 O4'
_chemical_name_systematic        
'ethyl [1-(benzenecarbonyl)-4-hydroxynaphthalen-2-yl]acetate'
_symmetry_cell_setting           monoclinic
_symmetry_space_group_name_H-M   'C 2/c'
_symmetry_Int_Tables_number      15
_space_group_name_Hall           '-C 2yn'
loop_
_symmetry_equiv_pos_site_id
_symmetry_equiv_pos_as_xyz
1 x,y,z
2 -x,y,1/2-z
3 1/2+x,1/2+y,z
4 1/2-x,1/2+y,1/2-z
5 -x,-y,-z
6 x,-y,1/2+z
7 1/2-x,1/2-y,-z
8 1/2+x,1/2-y,1/2+z
_cell_length_a                   17.0463(15)
_cell_length_b                   11.4307(11)
_cell_length_c                   18.4621(16)
_cell_angle_alpha                90
_cell_angle_beta                 107.898(2)
_cell_angle_gamma                90
_cell_volume                     3423.27
_exptl_crystal_colour            yellow
_exptl_crystal_description       block
_cell_formula_units_Z            8
loop_
_atom_site_label
_atom_site_type_symbol
_atom_site_fract_x
_atom_site_fract_y
_atom_site_fract_z
O1 O 0.4283(2) 0.5612(4) 0.6407(2)
O2 O 0.30692(18) 0.6459(3) 0.60590(18)
O3 O 0.34608(15) 0.9046(3) 0.37976(14)
H1 H 0.3011 0.9040 0.3873
O4 O 0.61864(16) 0.8155(2) 0.70005(15)
C1 C 0.3795(3) 0.6548(4) 0.6287(2)
C2 C 0.4266(2) 0.7644(4) 0.6422(2)
H2 H 0.4757 0.7545 0.6854
H3 H 0.3935 0.8257 0.6546
C3 C 0.4514(2) 0.8016(3) 0.57372(19)
C4 C 0.3888(2) 0.8380(3) 0.5086(2)
H4 H 0.3346 0.8406 0.5098
C5 C 0.4054(2) 0.8696(3) 0.4439(2)
C6 C 0.4870(2) 0.8683(3) 0.4408(2)
C7 C 0.5069(2) 0.9040(4) 0.3752(2)
H5 H 0.4651 0.9280 0.3323
C8 C 0.5862(3) 0.9036(4) 0.3742(2)
H6 H 0.5981 0.9257 0.3302
C9 C 0.6498(3) 0.8703(4) 0.4385(3)
H7 H 0.7040 0.8715 0.4375
C10 C 0.6332(2) 0.8357(3) 0.5032(2)
H8 H 0.6764 0.8139 0.5457
C11 C 0.5515(2) 0.8325(3) 0.5065(2)
C12 C 0.5314(2) 0.7974(3) 0.57298(19)
C13 C 0.5991(2) 0.7572(3) 0.6418(2)
C14 C 0.6394(2) 0.6424(3) 0.6390(2)
C15 C 0.7110(2) 0.6132(4) 0.6962(2)
H9 H 0.7352 0.6670 0.7343
C16 C 0.7461(2) 0.5047(4) 0.6967(3)
H10 H 0.7944 0.4857 0.7349
C17 C 0.7104(3) 0.4250(4) 0.6414(3)
H11 H 0.7340 0.3514 0.6426
C18 C 0.6401(3) 0.4524(4) 0.5844(3)
H12 H 0.6164 0.3977 0.5467
C19 C 0.6038(2) 0.5616(4) 0.5825(2)
H13 H 0.5559 0.5803 0.5437
C20 C 0.3944(5) 0.4419(6) 0.6244(4)
H14 H 0.3466 0.4430 0.5793
H15 H 0.4354 0.3908 0.6145
C21 C 0.3714(5) 0.3979(7) 0.6877(5)
H16 H 0.4199 0.3870 0.7305
H17 H 0.3435 0.3244 0.6742
H18 H 0.3353 0.4528 0.7008
loop_
_geom_bond_atom_site_label_1
_geom_bond_atom_site_label_2
_geom_bond_site_symmetry_1
_geom_bond_site_symmetry_2
O1 C1 1_555 1_555
O2 C1 1_555 1_555
O3 H1 1_555 1_555
O4 C13 1_555 1_555
C1 C2 1_555 1_555
C2 H2 1_555 1_555
H3 C2 1_555 1_555
C3 C2 1_555 1_555
C4 C3 1_555 1_555
H4 C4 1_555 1_555
C5 O3 1_555 1_555
C6 C5 1_555 1_555
C7 C6 1_555 1_555
H5 C7 1_555 1_555
C8 C7 1_555 1_555
H6 C8 1_555 1_555
C9 C8 1_555 1_555
H7 C9 1_555 1_555
C10 C9 1_555 1_555
H8 C10 1_555 1_555
C11 C6 1_555 1_555
C12 C3 1_555 1_555
C13 C12 1_555 1_555
C14 C13 1_555 1_555
C15 C14 1_555 1_555
H9 C15 1_555 1_555
C16 C15 1_555 1_555
H10 C16 1_555 1_555
C17 C16 1_555 1_555
H11 C17 1_555 1_555
C18 C17 1_555 1_555
H12 C18 1_555 1_555
C19 C14 1_555 1_555
H13 C19 1_555 1_555
C20 O1 1_555 1_555
H14 C20 1_555 1_555
H15 C20 1_555 1_555
C21 C20 1_555 1_555
H16 C21 1_555 1_555
H17 C21 1_555 1_555
H18 C21 1_555 1_555
C4 C5 1_555 1_555
C10 C11 1_555 1_555
C11 C12 1_555 1_555
C18 C19 1_555 1_555

#END
