
#######################################################################
#
#                 Cambridge Crystallographic Data Centre
#                                CCDC 
#
#######################################################################
#
# If this CIF has been generated from an entry in the Cambridge 
# Structural Database, then it will include bibliographic, chemical, 
# crystal, experimental, refinement or atomic coordinate data resulting 
# from the CCDC's data processing and validation procedures.
#
#######################################################################

data_HIDKAH
_chemical_formula_moiety         'C10 H11 F1 N2 O2 S1'
_chemical_name_systematic        N-Ethoxycarbonyl-N'-(4-fluorophenyl)thiourea
_symmetry_cell_setting           monoclinic
_symmetry_space_group_name_H-M   'P 21/n'
_symmetry_Int_Tables_number      14
_space_group_name_Hall           '-P 2yn'
loop_
_symmetry_equiv_pos_site_id
_symmetry_equiv_pos_as_xyz
1 x,y,z
2 1/2-x,1/2+y,1/2-z
3 -x,-y,-z
4 1/2+x,1/2-y,1/2+z
_cell_length_a                   9.718(2)
_cell_length_b                   25.712(5)
_cell_length_c                   9.878(2)
_cell_angle_alpha                90
_cell_angle_beta                 109.86(3)
_cell_angle_gamma                90
_cell_volume                     2321.41
_exptl_crystal_colour            colorless
_exptl_crystal_description       block
_chemical_melting_point          187-188deg.C
_cell_formula_units_Z            8
loop_
_atom_site_label
_atom_site_type_symbol
_atom_site_fract_x
_atom_site_fract_y
_atom_site_fract_z
S1 S 0.56596(15) 0.07449(5) 0.28600(16)
F1 F 0.5882(9) 0.3149(2) 0.4475(10)
N1 N 0.3720(4) 0.1146(2) 0.3939(5)
H1 H 0.2935 0.1100 0.4213
N2 N 0.3584(5) 0.02654(19) 0.3494(5)
H2 H 0.3970 -0.0014 0.3208
O1 O 0.1961(4) -0.03158(19) 0.3602(5)
O2 O 0.1783(5) 0.0491(2) 0.4421(7)
C1 C 0.3350(7) 0.2066(3) 0.3511(7)
H3 H 0.2329 0.1996 0.3034
C2 C 0.3861(9) 0.2575(3) 0.3658(9)
H4 H 0.3197 0.2858 0.3274
C3 C 0.5354(8) 0.2658(3) 0.4361(8)
C4 C 0.6294(8) 0.2254(3) 0.4917(9)
H5 H 0.7321 0.2317 0.5381
C5 C 0.5757(7) 0.1756(3) 0.4794(7)
H6 H 0.6395 0.1471 0.5220
C6 C 0.4294(6) 0.1662(2) 0.4067(5)
C7 C 0.4249(5) 0.0732(2) 0.3475(5)
C8 C 0.2368(5) 0.0176(2) 0.3885(6)
C9 C 0.0721(7) -0.0485(3) 0.4003(8)
H7 H -0.0073 -0.0244 0.3632
H8 H 0.0981 -0.0500 0.5030
C10 C 0.0282(9) -0.1007(3) 0.3343(11)
H9 H -0.0544 -0.1127 0.3580
H10 H 0.0023 -0.0987 0.2316
H11 H 0.1083 -0.1244 0.3723
S2 S 0.45419(15) -0.08703(5) 0.23447(17)
F2 F 0.4486(9) -0.32514(19) 0.0669(8)
N3 N 0.6192(5) -0.1204(2) 0.0851(5)
H12 H 0.6857 -0.1135 0.0426
N4 N 0.6353(5) -0.03368(18) 0.1429(5)
H13 H 0.6038 -0.0074 0.1850
O3 O 0.7762(5) 0.02807(17) 0.1140(5)
O4 O 0.7881(5) -0.04966(18) 0.0127(5)
C11 C 0.5995(7) -0.2008(2) 0.2076(7)
H14 H 0.6459 -0.1839 0.2984
C12 C 0.5593(9) -0.2527(3) 0.2033(8)
H15 H 0.5798 -0.2726 0.2901
C13 C 0.4929(7) -0.2748(2) 0.0740(8)
C14 C 0.4613(7) -0.2482(3) -0.0546(7)
H16 H 0.4144 -0.2649 -0.1455
C15 C 0.5023(6) -0.1963(2) -0.0477(6)
H17 H 0.4807 -0.1764 -0.1345
C16 C 0.5729(5) -0.1728(2) 0.0826(6)
C17 C 0.5757(5) -0.0817(2) 0.1490(5)
C18 C 0.7394(5) -0.0212(2) 0.0828(5)
C19 C 0.8863(6) 0.0491(2) 0.0594(7)
H18 H 0.8519 0.0478 -0.0439
H19 H 0.9758 0.0297 0.0954
C20 C 0.9106(13) 0.1037(4) 0.1116(14)
H20 H 0.9823 0.1194 0.0775
H21 H 0.8203 0.1226 0.0749
H22 H 0.9448 0.1044 0.2149
loop_
_geom_bond_atom_site_label_1
_geom_bond_atom_site_label_2
_geom_bond_site_symmetry_1
_geom_bond_site_symmetry_2
S1 C7 1_555 1_555
F1 C3 1_555 1_555
N1 H1 1_555 1_555
N2 H2 1_555 1_555
O1 C8 1_555 1_555
O2 C8 1_555 1_555
C1 H3 1_555 1_555
C2 C1 1_555 1_555
H4 C2 1_555 1_555
C3 C2 1_555 1_555
C4 C3 1_555 1_555
H5 C4 1_555 1_555
C5 C4 1_555 1_555
H6 C5 1_555 1_555
C6 N1 1_555 1_555
C7 N1 1_555 1_555
C8 N2 1_555 1_555
C9 O1 1_555 1_555
H7 C9 1_555 1_555
H8 C9 1_555 1_555
C10 C9 1_555 1_555
H9 C10 1_555 1_555
H10 C10 1_555 1_555
H11 C10 1_555 1_555
S2 C17 1_555 1_555
F2 C13 1_555 1_555
N3 H12 1_555 1_555
N4 H13 1_555 1_555
O3 C18 1_555 1_555
O4 C18 1_555 1_555
C11 H14 1_555 1_555
C12 C11 1_555 1_555
H15 C12 1_555 1_555
C13 C12 1_555 1_555
C14 C13 1_555 1_555
H16 C14 1_555 1_555
C15 C14 1_555 1_555
H17 C15 1_555 1_555
C16 N3 1_555 1_555
C17 N3 1_555 1_555
C18 N4 1_555 1_555
C19 O3 1_555 1_555
H18 C19 1_555 1_555
H19 C19 1_555 1_555
C20 C19 1_555 1_555
H20 C20 1_555 1_555
H21 C20 1_555 1_555
H22 C20 1_555 1_555
N2 C7 1_555 1_555
C1 C6 1_555 1_555
C5 C6 1_555 1_555
N4 C17 1_555 1_555
C11 C16 1_555 1_555
C15 C16 1_555 1_555

#END
