
#######################################################################
#
#                 Cambridge Crystallographic Data Centre
#                                CCDC 
#
#######################################################################
#
# If this CIF has been generated from an entry in the Cambridge 
# Structural Database, then it will include bibliographic, chemical, 
# crystal, experimental, refinement or atomic coordinate data resulting 
# from the CCDC's data processing and validation procedures.
#
#######################################################################

data_HIDQOD
_chemical_formula_moiety         'C16 H13 N5 O1,C1 H4 O1'
_chemical_name_systematic        
"N'-{[6-(1H-pyrazol-1-yl)pyridin-2-yl]methylidene}benzohydrazide methanol solvate"
_symmetry_cell_setting           monoclinic
_symmetry_space_group_name_H-M   'P 21/c'
_symmetry_Int_Tables_number      14
_space_group_name_Hall           '-P 2ybc'
loop_
_symmetry_equiv_pos_site_id
_symmetry_equiv_pos_as_xyz
1 x,y,z
2 -x,1/2+y,1/2-z
3 -x,-y,-z
4 x,1/2-y,1/2+z
_cell_length_a                   6.641(2)
_cell_length_b                   29.396(6)
_cell_length_c                   8.657(2)
_cell_angle_alpha                90
_cell_angle_beta                 101.472(3)
_cell_angle_gamma                90
_cell_volume                     1656.25
_exptl_crystal_colour            white
_exptl_crystal_description       rod
_cell_formula_units_Z            4
loop_
_atom_site_label
_atom_site_type_symbol
_atom_site_fract_x
_atom_site_fract_y
_atom_site_fract_z
O1 O 0.9193(3) 0.65525(8) 0.6982(2)
N1 N 0.4983(3) 0.57319(7) 0.0680(2)
C1 C 0.5680(4) 0.55586(8) -0.0528(3)
N2 N 0.4163(3) 0.54745(7) -0.1896(2)
C2 C 0.7722(4) 0.54688(10) -0.0519(3)
H1 H 0.8132 0.5343 -0.1393
C3 C 0.2187(4) 0.56055(10) -0.2194(3)
H2 H 0.1518 0.5761 -0.1508
C4 C 0.9120(4) 0.55716(11) 0.0819(3)
H3 H 1.0508 0.5514 0.0868
N3 N 0.6835(3) 0.61817(7) 0.4476(2)
C5 C 0.8477(4) 0.57598(10) 0.2093(3)
H4 H 0.9414 0.5836 0.3005
N4 N 0.6020(3) 0.63745(7) 0.5658(2)
H5 H 0.4714 0.6380 0.5610
C6 C 0.6394(4) 0.58331(8) 0.1975(3)
N5 N 0.4683(4) 0.52620(8) -0.3150(3)
C7 C 0.2946(5) 0.52593(11) -0.4211(3)
H6 H 0.2811 0.5130 -0.5208
C8 C 0.1349(5) 0.54704(11) -0.3672(3)
H7 H 0.0001 0.5510 -0.4208
C9 C 0.5583(4) 0.60348(9) 0.3276(3)
H8 H 0.4173 0.6055 0.3223
C10 C 0.7331(3) 0.65545(8) 0.6895(3)
C11 C 0.6411(3) 0.67663(8) 0.8162(2)
C12 C 0.4445(4) 0.66923(10) 0.8361(3)
H9 H 0.3577 0.6504 0.7662
C13 C 0.3739(5) 0.68949(12) 0.9596(4)
H10 H 0.2412 0.6837 0.9738
C14 C 0.4986(5) 0.71803(12) 1.0607(4)
H11 H 0.4509 0.7316 1.1435
C15 C 0.6941(5) 0.72648(12) 1.0395(4)
H12 H 0.7786 0.7462 1.1074
C16 C 0.7659(4) 0.70609(10) 0.9186(3)
H13 H 0.8989 0.7120 0.9052
O2 O 0.1645(3) 0.64876(8) 0.4704(2)
H14 H 0.0873 0.6460 0.5329
C17 C 0.1006(8) 0.68470(17) 0.3712(7)
H15 H 0.1246 0.7127 0.4292
H16 H -0.0434 0.6817 0.3277
H17 H 0.1761 0.6849 0.2874
loop_
_geom_bond_atom_site_label_1
_geom_bond_atom_site_label_2
_geom_bond_site_symmetry_1
_geom_bond_site_symmetry_2
O1 C10 1_555 1_555
N1 C1 1_555 1_555
C1 N2 1_555 1_555
N2 C3 1_555 1_555
C2 C1 1_555 1_555
H1 C2 1_555 1_555
C3 H2 1_555 1_555
C4 C2 1_555 1_555
H3 C4 1_555 1_555
N3 N4 1_555 1_555
C5 C4 1_555 1_555
H4 C5 1_555 1_555
N4 H5 1_555 1_555
C6 N1 1_555 1_555
N5 N2 1_555 1_555
C7 N5 1_555 1_555
H6 C7 1_555 1_555
C8 C3 1_555 1_555
H7 C8 1_555 1_555
C9 N3 1_555 1_555
H8 C9 1_555 1_555
C10 N4 1_555 1_555
C11 C10 1_555 1_555
C12 C11 1_555 1_555
H9 C12 1_555 1_555
C13 C12 1_555 1_555
H10 C13 1_555 1_555
C14 C13 1_555 1_555
H11 C14 1_555 1_555
C15 C14 1_555 1_555
H12 C15 1_555 1_555
C16 C11 1_555 1_555
H13 C16 1_555 1_555
O2 H14 1_555 1_555
C17 O2 1_555 1_555
H15 C17 1_555 1_555
H16 C17 1_555 1_555
H17 C17 1_555 1_555
C5 C6 1_555 1_555
C6 C9 1_555 1_555
C7 C8 1_555 1_555
C15 C16 1_555 1_555

#END
