
#######################################################################
#
#                 Cambridge Crystallographic Data Centre
#                                CCDC 
#
#######################################################################
#
# If this CIF has been generated from an entry in the Cambridge 
# Structural Database, then it will include bibliographic, chemical, 
# crystal, experimental, refinement or atomic coordinate data resulting 
# from the CCDC's data processing and validation procedures.
#
#######################################################################

data_HIDXEA
_chemical_formula_moiety         'C19 H22 N4 O5 S1'
_chemical_name_systematic        
'ethyl N-{[5-amino-4-cyano-3-(4-methoxyphenyl)-2,3-dihydrothiophene-2-carbonyl]carbamoyl}alaninate'
_symmetry_cell_setting           monoclinic
_symmetry_space_group_name_H-M   'P 21/c'
_symmetry_Int_Tables_number      14
_space_group_name_Hall           '-P 2ybc'
loop_
_symmetry_equiv_pos_site_id
_symmetry_equiv_pos_as_xyz
1 x,y,z
2 -x,1/2+y,1/2-z
3 -x,-y,-z
4 x,1/2-y,1/2+z
_cell_length_a                   8.1029(9)
_cell_length_b                   31.573(3)
_cell_length_c                   8.6015(8)
_cell_angle_alpha                90
_cell_angle_beta                 101.122(3)
_cell_angle_gamma                90
_cell_volume                     2159.22
_exptl_crystal_colour            colorless
_exptl_crystal_description       block
_cell_formula_units_Z            4
loop_
_atom_site_label
_atom_site_type_symbol
_atom_site_fract_x
_atom_site_fract_y
_atom_site_fract_z
C1 C 0.5910(6) 0.62239(13) 0.4553(5)
H1 H 0.5905 0.6006 0.3825
C2 C 0.6030(8) 0.66327(14) 0.4076(5)
H2 H 0.6090 0.6688 0.3026
C3 C 0.6062(7) 0.69618(13) 0.5106(5)
C4 C 0.6540(12) 0.76928(17) 0.5657(7)
H3 H 0.5566 0.7741 0.6115
H4 H 0.6806 0.7946 0.5139
H5 H 0.7474 0.7616 0.6476
C5 C 0.5861(8) 0.68765(13) 0.6620(5)
H6 H 0.5809 0.7097 0.7327
C6 C 0.5736(6) 0.64628(13) 0.7089(5)
H7 H 0.5605 0.6409 0.8121
C7 C 0.5799(4) 0.61268(10) 0.6085(4)
C8 C 0.7569(4) 0.54967(10) 0.7158(4)
H8 H 0.8365 0.5656 0.6657
C9 C 0.5781(4) 0.56711(10) 0.6603(4)
H9 H 0.5211 0.5501 0.5706
C10 C 0.4912(4) 0.56024(10) 0.7987(4)
C11 C 0.3154(4) 0.56027(12) 0.7787(5)
C12 C 0.5947(4) 0.55577(10) 0.9416(4)
C13 C 0.7719(4) 0.50307(11) 0.6851(4)
C14 C 0.9969(5) 0.45028(12) 0.6730(4)
C15 C 0.9067(9) 0.34866(18) 0.5695(8)
H10 H 0.7871 0.3481 0.5328
H11 H 0.9468 0.3204 0.5941
H12 H 0.9598 0.3602 0.4883
C16 C 0.9476(7) 0.37537(14) 0.7137(7)
H13 H 1.0699 0.3756 0.7495
C17 C 0.8655(9) 0.36013(19) 0.8538(8)
N1 N 0.1722(4) 0.56032(13) 0.7576(5)
N2 N 0.5556(4) 0.55222(11) 1.0850(4)
H14 H 0.4520 0.5526 1.0949
H15 H 0.6340 0.5495 1.1674
N3 N 0.9303(3) 0.49073(9) 0.6720(3)
H16 H 0.9984 0.5110 0.6617
N4 N 0.8914(4) 0.41851(10) 0.6808(4)
H17 H 0.7854 0.4238 0.6657
O1 O 0.6208(7) 0.73623(10) 0.4544(4)
O2 O 0.6550(3) 0.47849(8) 0.6759(3)
O3 O 1.1453(4) 0.44577(9) 0.6680(4)
O4 O 0.7429(7) 0.37519(18) 0.8834(6)
O5 O 0.9388(9) 0.3272(2) 0.9161(9)
C18 C 0.836(2) 0.3009(7) 1.0213(19)
H18 H 0.7245 0.3125 1.0186
H19 H 0.8275 0.2712 0.9924
C19 C 0.934(2) 0.3072(8) 1.1545(17)
H20 H 1.0445 0.2967 1.1498
H21 H 0.8919 0.2926 1.2365
H22 H 0.9408 0.3370 1.1772
S1 S 0.80899(11) 0.55657(3) 0.93088(11)
loop_
_geom_bond_atom_site_label_1
_geom_bond_atom_site_label_2
_geom_bond_site_symmetry_1
_geom_bond_site_symmetry_2
C1 H1 1_555 1_555
C2 C1 1_555 1_555
H2 C2 1_555 1_555
C3 C2 1_555 1_555
C4 H3 1_555 1_555
H4 C4 1_555 1_555
H5 C4 1_555 1_555
C5 C3 1_555 1_555
H6 C5 1_555 1_555
C6 C5 1_555 1_555
H7 C6 1_555 1_555
C7 C1 1_555 1_555
C8 H8 1_555 1_555
C9 C7 1_555 1_555
H9 C9 1_555 1_555
C10 C9 1_555 1_555
C11 C10 1_555 1_555
C12 C10 1_555 1_555
C13 C8 1_555 1_555
C14 N3 1_555 1_555
C15 H10 1_555 1_555
H11 C15 1_555 1_555
H12 C15 1_555 1_555
C16 C15 1_555 1_555
H13 C16 1_555 1_555
C17 C16 1_555 1_555
N1 C11 1_555 1_555
N2 C12 1_555 1_555
H14 N2 1_555 1_555
H15 N2 1_555 1_555
N3 C13 1_555 1_555
H16 N3 1_555 1_555
N4 C14 1_555 1_555
H17 N4 1_555 1_555
O1 C3 1_555 1_555
O2 C13 1_555 1_555
O3 C14 1_555 1_555
O4 C17 1_555 1_555
O5 C17 1_555 1_555
C18 O5 1_555 1_555
H18 C18 1_555 1_555
H19 C18 1_555 1_555
C19 C18 1_555 1_555
H20 C19 1_555 1_555
H21 C19 1_555 1_555
H22 C19 1_555 1_555
S1 C8 1_555 1_555
C4 O1 1_555 1_555
C6 C7 1_555 1_555
C8 C9 1_555 1_555
C12 S1 1_555 1_555
C16 N4 1_555 1_555

#END
