
#######################################################################
#
#                 Cambridge Crystallographic Data Centre
#                                CCDC 
#
#######################################################################
#
# If this CIF has been generated from an entry in the Cambridge 
# Structural Database, then it will include bibliographic, chemical, 
# crystal, experimental, refinement or atomic coordinate data resulting 
# from the CCDC's data processing and validation procedures.
#
#######################################################################

data_HIDYAX
_chemical_formula_moiety         'C18 H18 N4 O4 S1'
_chemical_name_systematic        
'ethyl N-{[5-amino-4-cyano-3-(4-methylphenyl)thiophene-2-carbonyl]carbamoyl}glycinate'
_symmetry_cell_setting           triclinic
_symmetry_space_group_name_H-M   'P -1'
_symmetry_Int_Tables_number      2
_space_group_name_Hall           '-P 1'
loop_
_symmetry_equiv_pos_site_id
_symmetry_equiv_pos_as_xyz
1 x,y,z
2 -x,-y,-z
_cell_length_a                   6.3930(4)
_cell_length_b                   12.5630(6)
_cell_length_c                   13.1829(7)
_cell_angle_alpha                69.1600(15)
_cell_angle_beta                 76.3073(18)
_cell_angle_gamma                84.3478(17)
_cell_volume                     961.278
_exptl_crystal_colour            yellow
_exptl_crystal_description       block
_cell_formula_units_Z            2
loop_
_atom_site_label
_atom_site_type_symbol
_atom_site_fract_x
_atom_site_fract_y
_atom_site_fract_z
C1 C 0.7955(6) 0.9996(3) 0.7771(3)
H1 H 0.6875 0.9779 0.8413
C2 C 0.7548(6) 1.0847(3) 0.6821(3)
H2 H 0.6196 1.1198 0.6840
C3 C 0.9096(6) 1.1183(3) 0.5858(3)
C4 C 0.8590(7) 1.2108(3) 0.4834(3)
H3 H 0.7123 1.2361 0.4998
H4 H 0.9534 1.2736 0.4617
H5 H 0.8792 1.1811 0.4239
C5 C 1.1072(6) 1.0662(3) 0.5868(3)
H6 H 1.2152 1.0887 0.5226
C6 C 1.1521(5) 0.9809(3) 0.6803(2)
H7 H 1.2880 0.9466 0.6781
C7 C 0.9952(5) 0.9470(2) 0.7766(2)
C8 C 1.2071(5) 0.7806(2) 1.0315(2)
C9 C 1.1793(4) 0.8752(2) 0.9395(2)
C10 C 1.2601(4) 0.9834(3) 0.9201(2)
C11 C 1.0388(5) 0.8561(2) 0.8786(2)
C12 C 0.9550(5) 0.7487(2) 0.9271(2)
C13 C 0.7988(5) 0.6899(2) 0.9014(2)
C14 C 0.5868(5) 0.7101(3) 0.7574(2)
C15 C 0.3168(6) 0.5798(3) 0.7809(3)
H8 H 0.2644 0.6441 0.7255
H9 H 0.1959 0.5494 0.8423
C16 C 0.4032(7) 0.4901(3) 0.7308(3)
C17 C 0.3262(11) 0.3719(5) 0.6443(6)
H10 H 0.3184 0.3015 0.7073
H11 H 0.4725 0.3808 0.6004
C18 C 0.1729(14) 0.3708(8) 0.5757(8)
H12 H 0.0309 0.3552 0.6219
H13 H 0.2164 0.3129 0.5429
H14 H 0.1725 0.4437 0.5181
N1 N 1.3287(5) 0.7711(2) 1.1031(2)
H15 H 1.4029 0.8280 1.0956
H16 H 1.3334 0.7081 1.1571
N2 N 1.3241(4) 1.0696(2) 0.9085(2)
N3 N 0.7426(4) 0.7412(2) 0.8016(2)
H17 H 0.8125 0.8018 0.7589
N4 N 0.4753(4) 0.6184(2) 0.8203(2)
H18 H 0.4974 0.5813 0.8857
O1 O 0.7252(4) 0.59864(18) 0.96703(19)
O2 O 0.5629(4) 0.7701(2) 0.66591(19)
O3 O 0.5732(5) 0.4422(2) 0.7357(2)
O4 O 0.2599(5) 0.4704(3) 0.6825(3)
S1 S 1.05294(14) 0.66964(6) 1.04492(7)
H19? H 0.9843 1.2245 0.4238
H20? H 0.7432 1.1870 0.4619
H21? H 0.8175 1.2795 0.4997
loop_
_geom_bond_atom_site_label_1
_geom_bond_atom_site_label_2
_geom_bond_site_symmetry_1
_geom_bond_site_symmetry_2
C1 H1 1_555 1_555
C2 C1 1_555 1_555
H2 C2 1_555 1_555
C3 C2 1_555 1_555
C4 C3 1_555 1_555
H3 C4 1_555 1_555
H4 C4 1_555 1_555
H5 C4 1_555 1_555
C5 C3 1_555 1_555
H6 C5 1_555 1_555
C6 C5 1_555 1_555
H7 C6 1_555 1_555
C7 C1 1_555 1_555
C8 C9 1_555 1_555
C9 C10 1_555 1_555
C10 N2 1_555 1_555
C11 C7 1_555 1_555
C12 C11 1_555 1_555
C13 C12 1_555 1_555
C14 N3 1_555 1_555
C15 H8 1_555 1_555
H9 C15 1_555 1_555
C16 C15 1_555 1_555
C17 H10 1_555 1_555
H11 C17 1_555 1_555
C18 C17 1_555 1_555
H12 C18 1_555 1_555
H13 C18 1_555 1_555
H14 C18 1_555 1_555
N1 C8 1_555 1_555
H15 N1 1_555 1_555
H16 N1 1_555 1_555
N3 C13 1_555 1_555
H17 N3 1_555 1_555
N4 C14 1_555 1_555
H18 N4 1_555 1_555
O1 C13 1_555 1_555
O2 C14 1_555 1_555
O3 C16 1_555 1_555
O4 C16 1_555 1_555
S1 C8 1_555 1_555
C6 C7 1_555 1_555
C9 C11 1_555 1_555
C12 S1 1_555 1_555
C15 N4 1_555 1_555
C17 O4 1_555 1_555

#END
