
#######################################################################
#
#                 Cambridge Crystallographic Data Centre
#                                CCDC 
#
#######################################################################
#
# If this CIF has been generated from an entry in the Cambridge 
# Structural Database, then it will include bibliographic, chemical, 
# crystal, experimental, refinement or atomic coordinate data resulting 
# from the CCDC's data processing and validation procedures.
#
#######################################################################

data_HIFQIY
_chemical_formula_moiety         'C21 H23 N1 O1 S6'
_chemical_name_systematic        
2-(4,5-bis(Propylsulfanyl)-1,3-dithiol-2-ylidene)-5-(4-methoxyphenyl)-5H-[1,3]dithiolo[4,5-c]pyrrole
_symmetry_cell_setting           triclinic
_symmetry_space_group_name_H-M   'P -1'
_symmetry_Int_Tables_number      2
_space_group_name_Hall           '-P 1'
loop_
_symmetry_equiv_pos_site_id
_symmetry_equiv_pos_as_xyz
1 x,y,z
2 -x,-y,-z
_cell_length_a                   10.8196(9)
_cell_length_b                   12.0793(10)
_cell_length_c                   19.0960(16)
_cell_angle_alpha                72.5090(10)
_cell_angle_beta                 89.4700(10)
_cell_angle_gamma                70.3820(10)
_cell_volume                     2230.45
_exptl_crystal_colour            yellow
_exptl_crystal_description       plate
_chemical_melting_point          '432 K'
_cell_formula_units_Z            4
loop_
_atom_site_label
_atom_site_type_symbol
_atom_site_fract_x
_atom_site_fract_y
_atom_site_fract_z
C1 C 0.57657(11) -0.30412(10) 0.29027(6)
C2 C 0.55873(11) -0.22234(10) 0.32776(6)
C3 C 0.38766(11) -0.10744(10) 0.21188(6)
C4 C 0.28969(11) -0.02219(10) 0.16084(6)
C5 C 0.03654(11) 0.15631(10) -0.01745(6)
H1 H 0.0253 0.1227 -0.0550
C6 C 0.12462(11) 0.09673(10) 0.04474(6)
C7 C 0.10847(11) 0.17997(10) 0.08582(6)
C8 C 0.01133(11) 0.28937(10) 0.04802(6)
H2 H -0.0198 0.3618 0.0625
C9 C -0.13300(10) 0.36826(10) -0.07022(6)
C10 C -0.16579(11) 0.34719(11) -0.13454(6)
H3 H -0.1215 0.2698 -0.1420
C11 C -0.26300(12) 0.43938(11) -0.18735(6)
H4 H -0.2853 0.4243 -0.2307
C12 C -0.32859(11) 0.55414(10) -0.17771(6)
C13 C -0.29741(11) 0.57483(10) -0.11335(6)
H5 H -0.3425 0.6519 -0.1056
C14 C -0.19976(11) 0.48209(11) -0.06034(6)
H6 H -0.1784 0.4968 -0.0166
C15 C -0.48557(13) 0.75802(11) -0.22620(7)
H7 H -0.4209 0.7973 -0.2229
H8 H -0.5305 0.7485 -0.1811
H9 H -0.5505 0.8099 -0.2690
C16 C 0.60740(13) -0.55197(11) 0.32503(8)
H10 H 0.5465 -0.5223 0.2796
H11 H 0.6692 -0.6358 0.3288
C17 C 0.52813(13) -0.56171(12) 0.39066(8)
H12 H 0.4749 -0.6135 0.3887
H13 H 0.4663 -0.4780 0.3872
C18 C 0.61255(17) -0.61719(15) 0.46467(9)
H14 H 0.6781 -0.6977 0.4672
H15 H 0.5562 -0.6282 0.5048
H16 H 0.6576 -0.5614 0.4696
C19 C 0.60317(14) -0.11584(13) 0.43236(7)
H17 H 0.5084 -0.0686 0.4161
H18 H 0.6159 -0.1332 0.4864
C20 C 0.68202(14) -0.03543(13) 0.39520(8)
H19 H 0.6657 -0.0128 0.3409
H20 H 0.7773 -0.0825 0.4096
C21 C 0.6428(3) 0.0824(2) 0.41764(10)
H21 H 0.6904 0.1357 0.3908
H22 H 0.6654 0.0601 0.4708
H23 H 0.5476 0.1268 0.4056
N1 N -0.03314(9) 0.27470(8) -0.01530(5)
O1 O -0.41967(8) 0.63900(8) -0.23429(5)
S1 S 0.70141(3) -0.44952(3) 0.315734(19)
S2 S 0.64623(4) -0.26102(3) 0.413599(18)
S3 S 0.47647(3) -0.25563(3) 0.206615(16)
S4 S 0.43956(3) -0.07436(3) 0.288118(16)
S5 S 0.24257(3) -0.05141(3) 0.081663(16)
S6 S 0.20646(3) 0.12588(3) 0.169456(15)
C25 C 0.99339(11) 0.18635(10) 0.32450(6)
C26 C 1.07447(11) 0.25278(10) 0.31224(6)
C27 C 0.88900(11) 0.36684(10) 0.20398(6)
C28 C 0.79809(11) 0.45868(10) 0.15193(6)
C29 C 0.46743(11) 0.66390(10) 0.02345(6)
H31 H 0.3938 0.6387 0.0207
C30 C 0.58436(11) 0.59454(10) 0.06647(6)
C31 C 0.66668(11) 0.66689(10) 0.05443(6)
C32 C 0.59891(11) 0.77975(10) 0.00383(6)
H32 H 0.6300 0.8468 -0.0147
C33 C 0.37498(10) 0.87657(10) -0.06697(6)
C34 C 0.25785(11) 0.86110(10) -0.08454(7)
H33 H 0.2461 0.7841 -0.0622
C35 C 0.15912(11) 0.95702(10) -0.13423(7)
H34 H 0.0801 0.9454 -0.1458
C36 C 0.17439(11) 1.07055(10) -0.16752(6)
C37 C 0.29046(12) 1.08683(11) -0.15046(7)
H35 H 0.3020 1.1638 -0.1731
C38 C 0.38996(12) 0.99027(11) -0.10020(7)
H36 H 0.4688 1.0022 -0.0885
C39 C 0.08740(13) 1.27228(12) -0.25604(7)
H37 H 0.1599 1.2531 -0.2866
H38 H 0.1088 1.3124 -0.2226
H39 H 0.0062 1.3281 -0.2878
C40 C 1.12304(12) -0.06791(11) 0.40063(6)
H40 H 1.2068 -0.0513 0.3954
H41 H 1.1345 -0.1357 0.4475
C41 C 1.09722(13) -0.11128(11) 0.33708(7)
H42 H 1.1022 -0.0509 0.2898
H43 H 1.0071 -0.1148 0.3370
C42 C 1.19707(14) -0.23882(12) 0.34320(8)
H44 H 1.1858 -0.2590 0.2982
H45 H 1.1829 -0.3011 0.3859
H46 H 1.2866 -0.2382 0.3494
C43 C 1.18707(13) 0.36954(12) 0.38307(7)
H47 H 1.2552 0.3593 0.4211
H48 H 1.1991 0.4265 0.3361
C44 C 1.05164(13) 0.42902(12) 0.40572(7)
H49 H 1.0473 0.5085 0.4122
H50 H 0.9842 0.4483 0.3649
C45 C 1.01630(14) 0.35104(14) 0.47602(8)
H51 H 0.9273 0.3957 0.4857
H52 H 1.0797 0.3347 0.5175
H53 H 1.0191 0.2723 0.4702
N2 N 0.47620(9) 0.77782(8) -0.01536(5)
O2 O 0.06889(8) 1.16043(8) -0.21390(5)
S7 S 0.99318(3) 0.07046(3) 0.406438(15)
S8 S 1.21378(3) 0.21917(3) 0.370993(17)
S9 S 0.86946(3) 0.22570(3) 0.252901(15)
S10 S 1.04336(3) 0.37289(3) 0.227197(15)
S11 S 0.64926(3) 0.44367(3) 0.126627(16)
S12 S 0.82471(3) 0.59691(3) 0.101992(15)
C22? C 0.6884(10) -0.1066(10) 0.4002(5)
H24? H 0.7761 -0.1293 0.4265
H25? H 0.6932 -0.0681 0.3470
C23? C 0.5889(10) -0.0138(9) 0.4281(6)
H26? H 0.5650 -0.0567 0.4762
H27? H 0.5080 0.0276 0.3930
C24? C 0.643(2) 0.0830(18) 0.4370(11)
H28? H 0.7254 0.0417 0.4702
H29? H 0.5787 0.1401 0.4578
H30? H 0.6612 0.1294 0.3887
loop_
_geom_bond_atom_site_label_1
_geom_bond_atom_site_label_2
_geom_bond_site_symmetry_1
_geom_bond_site_symmetry_2
C1 C2 1_555 1_555
C2 S2 1_555 1_555
C3 C4 1_555 1_555
C4 S5 1_555 1_555
C5 H1 1_555 1_555
C6 C5 1_555 1_555
C7 C6 1_555 1_555
C8 C7 1_555 1_555
H2 C8 1_555 1_555
C9 C10 1_555 1_555
C10 H3 1_555 1_555
C11 C10 1_555 1_555
H4 C11 1_555 1_555
C12 C11 1_555 1_555
C13 C12 1_555 1_555
H5 C13 1_555 1_555
C14 C9 1_555 1_555
H6 C14 1_555 1_555
C15 H7 1_555 1_555
H8 C15 1_555 1_555
H9 C15 1_555 1_555
C16 H10 1_555 1_555
H11 C16 1_555 1_555
C17 C16 1_555 1_555
H12 C17 1_555 1_555
H13 C17 1_555 1_555
C18 C17 1_555 1_555
H14 C18 1_555 1_555
H15 C18 1_555 1_555
H16 C18 1_555 1_555
C19 H17 1_555 1_555
H18 C19 1_555 1_555
C20 C19 1_555 1_555
H19 C20 1_555 1_555
H20 C20 1_555 1_555
C21 C20 1_555 1_555
H21 C21 1_555 1_555
H22 C21 1_555 1_555
H23 C21 1_555 1_555
N1 C5 1_555 1_555
O1 C12 1_555 1_555
S1 C1 1_555 1_555
S2 C19 1_555 1_555
S3 C1 1_555 1_555
S4 C2 1_555 1_555
S5 C6 1_555 1_555
S6 C4 1_555 1_555
C25 C26 1_555 1_555
C26 S8 1_555 1_555
C27 C28 1_555 1_555
C28 S11 1_555 1_555
C29 H31 1_555 1_555
C30 C29 1_555 1_555
C31 C30 1_555 1_555
C32 C31 1_555 1_555
H32 C32 1_555 1_555
C33 C34 1_555 1_555
C34 H33 1_555 1_555
C35 C34 1_555 1_555
H34 C35 1_555 1_555
C36 C35 1_555 1_555
C37 C36 1_555 1_555
H35 C37 1_555 1_555
C38 C33 1_555 1_555
H36 C38 1_555 1_555
C39 H37 1_555 1_555
H38 C39 1_555 1_555
H39 C39 1_555 1_555
C40 H40 1_555 1_555
H41 C40 1_555 1_555
C41 C40 1_555 1_555
H42 C41 1_555 1_555
H43 C41 1_555 1_555
C42 C41 1_555 1_555
H44 C42 1_555 1_555
H45 C42 1_555 1_555
H46 C42 1_555 1_555
C43 H47 1_555 1_555
H48 C43 1_555 1_555
C44 C43 1_555 1_555
H49 C44 1_555 1_555
H50 C44 1_555 1_555
C45 C44 1_555 1_555
H51 C45 1_555 1_555
H52 C45 1_555 1_555
H53 C45 1_555 1_555
N2 C29 1_555 1_555
O2 C36 1_555 1_555
S7 C25 1_555 1_555
S8 C43 1_555 1_555
S9 C25 1_555 1_555
S10 C26 1_555 1_555
S11 C30 1_555 1_555
S12 C28 1_555 1_555
C3 S3 1_555 1_555
C3 S4 1_555 1_555
C7 S6 1_555 1_555
C8 N1 1_555 1_555
C9 N1 1_555 1_555
C13 C14 1_555 1_555
C15 O1 1_555 1_555
C16 S1 1_555 1_555
C27 S9 1_555 1_555
C27 S10 1_555 1_555
C31 S12 1_555 1_555
C32 N2 1_555 1_555
C33 N2 1_555 1_555
C37 C38 1_555 1_555
C39 O2 1_555 1_555
C40 S7 1_555 1_555

#END
