
#######################################################################
#
#                 Cambridge Crystallographic Data Centre
#                                CCDC 
#
#######################################################################
#
# If this CIF has been generated from an entry in the Cambridge 
# Structural Database, then it will include bibliographic, chemical, 
# crystal, experimental, refinement or atomic coordinate data resulting 
# from the CCDC's data processing and validation procedures.
#
#######################################################################

data_HIFSUM
_chemical_formula_moiety         'C10 H10 N4 O3,H2 O1'
_chemical_name_systematic        
'1-(4,6-Dimethoxy-1,3,5-triazin-2-yl)pyridin-4(1H)-one monohydrate'
_symmetry_cell_setting           orthorhombic
_symmetry_space_group_name_H-M   'P n m a'
_symmetry_Int_Tables_number      62
_space_group_name_Hall           '-P 2ac 2n'
loop_
_symmetry_equiv_pos_site_id
_symmetry_equiv_pos_as_xyz
1 x,y,z
2 1/2-x,-y,1/2+z
3 1/2+x,1/2-y,1/2-z
4 -x,1/2+y,-z
5 -x,-y,-z
6 1/2+x,y,1/2-z
7 1/2-x,1/2+y,1/2+z
8 x,1/2-y,z
_cell_length_a                   8.0550(16)
_cell_length_b                   6.5780(12)
_cell_length_c                   22.091(3)
_cell_angle_alpha                90
_cell_angle_beta                 90
_cell_angle_gamma                90
_cell_volume                     1170.51
_exptl_crystal_colour            colorless
_exptl_crystal_description       prism
_cell_formula_units_Z            4
loop_
_atom_site_label
_atom_site_type_symbol
_atom_site_fract_x
_atom_site_fract_y
_atom_site_fract_z
O1 O 0.44823(15) 0.2500 0.44072(6)
O2 O 0.93796(15) 0.2500 0.33286(6)
O3 O 1.21909(17) 0.2500 0.69788(6)
N1 N 0.69108(19) 0.2500 0.49088(7)
N2 N 0.68477(19) 0.2500 0.38187(6)
N3 N 0.94528(18) 0.2500 0.43433(7)
N4 N 0.94990(16) 0.2500 0.54017(7)
C1 C 0.6138(2) 0.2500 0.43688(8)
C2 C 0.8504(2) 0.2500 0.38406(8)
C3 C 0.8558(2) 0.2500 0.48506(8)
C4 C 1.1214(2) 0.2500 0.53879(9)
H1 H 1.1762 0.2500 0.5007
C5 C 1.2140(2) 0.2500 0.59003(8)
H2 H 1.3317 0.2500 0.5871
C6 C 1.1361(2) 0.2500 0.64929(8)
C7 C 0.9567(2) 0.2500 0.64818(8)
H3 H 0.8979 0.2500 0.6855
C8 C 0.8696(2) 0.2500 0.59568(8)
H4 H 0.7517 0.2500 0.5969
C9 C 0.3579(2) 0.2500 0.38336(8)
H5 H 0.3942 0.3656 0.3587
C10 C 0.8469(2) 0.2500 0.27571(8)
H6 H 0.7878 0.1207 0.2711
H5G H 0.3942 0.1344 0.3587
H6G H 0.7878 0.3793 0.2711
O4 O 0.56567(19) 0.2500 0.68497(7)
H7 H 0.445(3) 0.2500 0.6907(10)
H8 H 0.605(2) 0.2500 0.7238(10)
H9? H 0.3804 0.1231 0.3616
H10? H 0.7668 0.3621 0.2756
H11? H 0.9249 0.2672 0.2421
H12? H 0.2386 0.2613 0.3913
loop_
_geom_bond_atom_site_label_1
_geom_bond_atom_site_label_2
_geom_bond_site_symmetry_1
_geom_bond_site_symmetry_2
O1 C1 1_555 1_555
O2 C2 1_555 1_555
O3 C6 1_555 1_555
N1 C1 1_555 1_555
N2 C1 1_555 1_555
N3 C2 1_555 1_555
N4 C3 1_555 1_555
C2 N2 1_555 1_555
C3 N1 1_555 1_555
C4 N4 1_555 1_555
H1 C4 1_555 1_555
C5 C4 1_555 1_555
H2 C5 1_555 1_555
C6 C5 1_555 1_555
C7 C6 1_555 1_555
H3 C7 1_555 1_555
C8 N4 1_555 1_555
H4 C8 1_555 1_555
C9 O1 1_555 1_555
H5 C9 1_555 1_555
C10 O2 1_555 1_555
H6 C10 1_555 1_555
O4 H7 1_555 1_555
H8 O4 1_555 1_555
H5G C9 1_555 1_555
H6G C10 1_555 1_555
N3 C3 1_555 1_555
C7 C8 1_555 1_555

#END
