
#######################################################################
#
#                 Cambridge Crystallographic Data Centre
#                                CCDC 
#
#######################################################################
#
# If this CIF has been generated from an entry in the Cambridge 
# Structural Database, then it will include bibliographic, chemical, 
# crystal, experimental, refinement or atomic coordinate data resulting 
# from the CCDC's data processing and validation procedures.
#
#######################################################################

data_HIFVUP
_chemical_formula_moiety         'C22 H36 Br1 N1 O3 Si1'
_chemical_name_systematic        
5-Bromo-13-methyl-2-((triisopropylsilyl)oxy)-10-oxa-7-azapentacyclo[7.4.1.0^2,5^.0^3,8^.0^12,14^]tetradecan-6-one
_symmetry_cell_setting           monoclinic
_symmetry_space_group_name_H-M   'P 21/c'
_symmetry_Int_Tables_number      14
_space_group_name_Hall           '-P 2ybc'
loop_
_symmetry_equiv_pos_site_id
_symmetry_equiv_pos_as_xyz
1 x,y,z
2 -x,1/2+y,1/2-z
3 -x,-y,-z
4 x,1/2-y,1/2+z
_cell_length_a                   11.266(1)
_cell_length_b                   10.731(1)
_cell_length_c                   19.674(1)
_cell_angle_alpha                90
_cell_angle_beta                 106.13
_cell_angle_gamma                90
_cell_volume                     2284.86
_cell_formula_units_Z            4
loop_
_atom_site_label
_atom_site_type_symbol
_atom_site_fract_x
_atom_site_fract_y
_atom_site_fract_z
Br1 Br 0.9261(1) 0.4541(1) 0.6142(1)
Si1 Si 1.0639(1) 0.8247(1) 0.6621(1)
N1 N 0.6143(4) 0.6226(3) 0.4936(2)
O1 O 0.9381(2) 0.7393(2) 0.6472(1)
O2 O 0.6498(3) 0.4356(3) 0.5476(2)
O3 O 0.6219(3) 0.9457(2) 0.5550(2)
C1 C 0.7749(5) 0.8113(5) 0.7773(2)
C2 C 0.7402(4) 0.8371(4) 0.6985(2)
C3 C 0.6042(4) 0.8721(4) 0.6630(2)
C4 C 0.5844(5) 0.9846(4) 0.6156(2)
C5 C 0.5758(4) 0.8217(4) 0.5404(2)
C6 C 0.5934(4) 0.7609(4) 0.6120(2)
C7 C 0.7279(4) 0.7222(4) 0.6496(2)
C8 C 0.8188(4) 0.7104(3) 0.6053(2)
C9 C 0.7860(4) 0.7666(4) 0.5295(2)
C10 C 0.6466(4) 0.7554(4) 0.4966(2)
C11 C 0.6857(4) 0.5385(4) 0.5361(2)
C12 C 0.8191(4) 0.5836(4) 0.5658(2)
C13 C 0.8527(4) 0.6568(4) 0.5060(2)
C14 C 1.1121(4) 0.7027(4) 0.7962(2)
C15 C 1.1709(4) 0.7472(4) 0.7411(2)
C16 C 1.2873(5) 0.8226(5) 0.7744(3)
C17 C 1.1937(5) 0.6874(5) 0.5807(3)
C18 C 1.1343(4) 0.8148(4) 0.5857(2)
C19 C 1.2268(5) 0.9184(5) 0.5824(3)
C20 C 1.0175(5) 1.0325(5) 0.7487(3)
C21 C 1.0420(5) 0.9950(4) 0.6784(2)
C22 C 0.9520(5) 1.0601(4) 0.6159(3)
H1 H 0.5460(40) 0.6120(40) 0.4820(20)
H2 H 0.8613 0.7914 0.7937
H3 H 0.7272 0.7423 0.7864
H4 H 0.7582 0.8837 0.8017
H5 H 0.7960(20) 0.8990(20) 0.6875(5)
H6 H 0.5520(20) 0.8677(4) 0.6931(13)
H7 H 0.4950(20) 1.0103(9) 0.6015(4)
H8 H 0.6360(13) 1.0567(19) 0.6399(7)
H9 H 0.4930(40) 0.8237(4) 0.5164(10)
H10 H 0.5370(30) 0.7060(30) 0.6140(2)
H11 H 0.7283(4) 0.6520(30) 0.6746(11)
H12 H 0.8193(14) 0.8450(30) 0.5259(2)
H13 H 0.6251(10) 0.7888(14) 0.4505(19)
H14 H 0.9360(20) 0.6688(5) 0.5129(2)
H15 H 0.8151(10) 0.6279(9) 0.4611(12)
H16 H 1.1735(4) 0.6635(4) 0.8341(3)
H17 H 1.0481(5) 0.6435(5) 0.7754(2)
H18 H 1.0768(4) 0.7724(4) 0.8144(3)
H19 H 1.1992(4) 0.6731(4) 0.7230(2)
H20 H 1.3395(15) 0.7767(13) 0.8140(11)
H21 H 1.2646(7) 0.9020(20) 0.7909(5)
H22 H 1.3319(13) 0.8371(7) 0.7395(10)
H23 H 1.2268(10) 0.6870(5) 0.5411(11)
H24 H 1.1330(17) 0.6238(18) 0.5750(3)
H25 H 1.2582(18) 0.6727(7) 0.6228(12)
H26 H 1.0740(30) 0.8221(5) 0.5477(19)
H27 H 1.2568(10) 0.9060(6) 0.5411(12)
H28 H 1.2960(20) 0.9157(5) 0.6249(12)
H29 H 1.1862(12) 0.9990(20) 0.5791(3)
loop_
_geom_bond_atom_site_label_1
_geom_bond_atom_site_label_2
_geom_bond_site_symmetry_1
_geom_bond_site_symmetry_2
Br1 C12 1_555 1_555
Si1 O1 1_555 1_555
N1 C10 1_555 1_555
O1 C8 1_555 1_555
O2 C11 1_555 1_555
O3 C4 1_555 1_555
C1 C2 1_555 1_555
C2 C3 1_555 1_555
C3 C4 1_555 1_555
C4 H7 1_555 1_555
C5 O3 1_555 1_555
C6 C3 1_555 1_555
C7 C2 1_555 1_555
C8 C7 1_555 1_555
C9 C8 1_555 1_555
C10 C5 1_555 1_555
C11 N1 1_555 1_555
C12 C8 1_555 1_555
C13 C9 1_555 1_555
C14 C15 1_555 1_555
C15 Si1 1_555 1_555
C16 C15 1_555 1_555
C17 C18 1_555 1_555
C18 Si1 1_555 1_555
C19 C18 1_555 1_555
C20 C21 1_555 1_555
C21 Si1 1_555 1_555
C22 C21 1_555 1_555
H1 N1 1_555 1_555
H2 C1 1_555 1_555
H3 C1 1_555 1_555
H4 C1 1_555 1_555
H5 C2 1_555 1_555
H6 C3 1_555 1_555
H8 C4 1_555 1_555
H9 C5 1_555 1_555
H10 C6 1_555 1_555
H11 C7 1_555 1_555
H12 C9 1_555 1_555
H13 C10 1_555 1_555
H14 C13 1_555 1_555
H15 C13 1_555 1_555
H16 C14 1_555 1_555
H17 C14 1_555 1_555
H18 C14 1_555 1_555
H19 C15 1_555 1_555
H20 C16 1_555 1_555
H21 C16 1_555 1_555
H22 C16 1_555 1_555
H23 C17 1_555 1_555
H24 C17 1_555 1_555
H25 C17 1_555 1_555
H26 C18 1_555 1_555
H27 C19 1_555 1_555
H28 C19 1_555 1_555
H29 C19 1_555 1_555
C5 C6 1_555 1_555
C6 C7 1_555 1_555
C9 C10 1_555 1_555
C11 C12 1_555 1_555
C12 C13 1_555 1_555

#END
