
#######################################################################
#
#                 Cambridge Crystallographic Data Centre
#                                CCDC 
#
#######################################################################
#
# If this CIF has been generated from an entry in the Cambridge 
# Structural Database, then it will include bibliographic, chemical, 
# crystal, experimental, refinement or atomic coordinate data resulting 
# from the CCDC's data processing and validation procedures.
#
#######################################################################

data_HIFXOK
_chemical_formula_moiety         'C16 H36 N1 1+,C5 H3 N2 O3 1-'
_chemical_name_systematic        
'tetra-n-butylammonium 4-nitro-5-oxo-2-pentenenitrile'
_symmetry_cell_setting           monoclinic
_symmetry_space_group_name_H-M   'P 21/n'
_symmetry_Int_Tables_number      14
_space_group_name_Hall           '-P 2yn'
loop_
_symmetry_equiv_pos_site_id
_symmetry_equiv_pos_as_xyz
1 x,y,z
2 1/2-x,1/2+y,1/2-z
3 -x,-y,-z
4 1/2+x,1/2-y,1/2+z
_cell_length_a                   9.7894(9)
_cell_length_b                   18.3872(16)
_cell_length_c                   12.2327(11)
_cell_angle_alpha                90
_cell_angle_beta                 95.894(2)
_cell_angle_gamma                90
_cell_volume                     2190.24
_exptl_crystal_colour            yellow
_exptl_crystal_description       plate
_cell_formula_units_Z            4
_exptl_crystal_recrystallization_method hexanes/dichloromethane
loop_
_atom_site_label
_atom_site_type_symbol
_atom_site_fract_x
_atom_site_fract_y
_atom_site_fract_z
C1 C 0.63204(14) 0.54280(8) 0.32202(11)
H1 H 0.6031 0.5820 0.3702
H2 H 0.6666 0.5020 0.3700
C2 C 0.74961(15) 0.57108(8) 0.26236(12)
H3 H 0.7195 0.6144 0.2183
H4 H 0.7786 0.5333 0.2119
C3 C 0.87024(15) 0.59110(8) 0.34724(12)
H5 H 0.8392 0.6276 0.3988
H6 H 0.9001 0.5473 0.3902
C4 C 0.99152(16) 0.62164(9) 0.29370(14)
H7 H 1.0225 0.5857 0.2425
H8 H 1.0667 0.6326 0.3505
H9 H 0.9635 0.6662 0.2536
C5 C 0.44491(15) 0.57737(8) 0.17477(12)
H10 H 0.5166 0.5953 0.1300
H11 H 0.3698 0.5568 0.1237
C6 C 0.38857(15) 0.64184(8) 0.23411(12)
H12 H 0.4632 0.6642 0.2837
H13 H 0.3166 0.6249 0.2794
C7 C 0.32799(17) 0.69845(8) 0.15138(12)
H14 H 0.4032 0.7213 0.1153
H15 H 0.2659 0.6739 0.0939
C8 C 0.24848(16) 0.75733(8) 0.20554(13)
H16 H 0.1708 0.7353 0.2378
H17 H 0.2143 0.7933 0.1503
H18 H 0.3092 0.7813 0.2633
C9 C 0.40544(14) 0.49097(8) 0.32781(11)
H19 H 0.4496 0.4514 0.3736
H20 H 0.3888 0.5318 0.3776
C10 C 0.26728(15) 0.46365(8) 0.27566(12)
H21 H 0.2796 0.4184 0.2338
H22 H 0.2239 0.5006 0.2244
C11 C 0.17640(16) 0.44895(8) 0.36777(13)
H23 H 0.2244 0.4147 0.4211
H24 H 0.1625 0.4950 0.4070
C12 C 0.03667(16) 0.41727(9) 0.32632(15)
H25 H -0.0108 0.4505 0.2724
H26 H -0.0183 0.4109 0.3882
H27 H 0.0493 0.3700 0.2916
C13 C 0.54293(15) 0.45516(8) 0.17377(12)
H28 H 0.4571 0.4361 0.1341
H29 H 0.5991 0.4755 0.1183
C14 C 0.62082(16) 0.39207(8) 0.23095(12)
H30 H 0.5679 0.3725 0.2891
H31 H 0.7104 0.4095 0.2662
C15 C 0.64426(17) 0.33200(8) 0.14898(13)
H32 H 0.5575 0.3049 0.1308
H33 H 0.6704 0.3542 0.0804
C16 C 0.75587(17) 0.27925(9) 0.19360(15)
H34 H 0.8427 0.3055 0.2095
H35 H 0.7668 0.2413 0.1389
H36 H 0.7301 0.2569 0.2612
N1 N 0.50602(12) 0.51662(6) 0.24910(9)
C17 C 0.20257(17) 0.77034(9) 0.50905(13)
H37 H 0.1375 0.7324 0.5134
C18 C 0.34253(16) 0.75045(8) 0.50268(12)
C19 C 0.45254(16) 0.80048(8) 0.49434(12)
H38 H 0.5414 0.7803 0.4912
N2 N 0.37436(14) 0.67619(7) 0.50370(10)
O1 O 0.49752(12) 0.65604(6) 0.50463(9)
O2 O 0.28071(13) 0.62929(6) 0.50371(10)
O3 O 0.16086(12) 0.83358(7) 0.50927(11)
C20 C 0.44254(16) 0.87390(8) 0.49049(13)
H39 H 0.3557 0.8965 0.4936
C21 C 0.56115(17) 0.91752(9) 0.48180(13)
N3 N 0.65593(16) 0.95393(8) 0.47543(13)
loop_
_geom_bond_atom_site_label_1
_geom_bond_atom_site_label_2
_geom_bond_site_symmetry_1
_geom_bond_site_symmetry_2
C1 H1 1_555 1_555
H2 C1 1_555 1_555
C2 C1 1_555 1_555
H3 C2 1_555 1_555
H4 C2 1_555 1_555
C3 C2 1_555 1_555
H5 C3 1_555 1_555
H6 C3 1_555 1_555
C4 C3 1_555 1_555
H7 C4 1_555 1_555
H8 C4 1_555 1_555
H9 C4 1_555 1_555
C5 H10 1_555 1_555
H11 C5 1_555 1_555
C6 C5 1_555 1_555
H12 C6 1_555 1_555
H13 C6 1_555 1_555
C7 C6 1_555 1_555
H14 C7 1_555 1_555
H15 C7 1_555 1_555
C8 C7 1_555 1_555
H16 C8 1_555 1_555
H17 C8 1_555 1_555
H18 C8 1_555 1_555
C9 H19 1_555 1_555
H20 C9 1_555 1_555
C10 C9 1_555 1_555
H21 C10 1_555 1_555
H22 C10 1_555 1_555
C11 C10 1_555 1_555
H23 C11 1_555 1_555
H24 C11 1_555 1_555
C12 C11 1_555 1_555
H25 C12 1_555 1_555
H26 C12 1_555 1_555
H27 C12 1_555 1_555
C13 H28 1_555 1_555
H29 C13 1_555 1_555
C14 C13 1_555 1_555
H30 C14 1_555 1_555
H31 C14 1_555 1_555
C15 C14 1_555 1_555
H32 C15 1_555 1_555
H33 C15 1_555 1_555
C16 C15 1_555 1_555
H34 C16 1_555 1_555
H35 C16 1_555 1_555
H36 C16 1_555 1_555
N1 C1 1_555 1_555
C17 H37 1_555 1_555
C18 C17 1_555 1_555
C19 C18 1_555 1_555
H38 C19 1_555 1_555
N2 C18 1_555 1_555
O1 N2 1_555 1_555
O2 N2 1_555 1_555
O3 C17 1_555 1_555
C20 C19 1_555 1_555
H39 C20 1_555 1_555
C21 C20 1_555 1_555
N3 C21 1_555 1_555
C5 N1 1_555 1_555
C9 N1 1_555 1_555
C13 N1 1_555 1_555

#END
