
#######################################################################
#
#                 Cambridge Crystallographic Data Centre
#                                CCDC 
#
#######################################################################
#
# If this CIF has been generated from an entry in the Cambridge 
# Structural Database, then it will include bibliographic, chemical, 
# crystal, experimental, refinement or atomic coordinate data resulting 
# from the CCDC's data processing and validation procedures.
#
#######################################################################

data_HIGBEH
_chemical_formula_moiety         'C29 H28 F3 N1 O4'
_chemical_name_systematic        
(7-(cyclopentoxy)-6-methoxy-1-phenyl-3,4-dihydroisoquinolin-2(1H)-yl)(4-(trifluoromethoxy)phenyl)methanone
_symmetry_cell_setting           triclinic
_symmetry_space_group_name_H-M   'P -1'
_symmetry_Int_Tables_number      2
_space_group_name_Hall           '-P 1'
loop_
_symmetry_equiv_pos_site_id
_symmetry_equiv_pos_as_xyz
1 x,y,z
2 -x,-y,-z
_cell_length_a                   10.6712(7)
_cell_length_b                   11.5758(10)
_cell_length_c                   11.7266(14)
_cell_angle_alpha                74.791(17)
_cell_angle_beta                 71.569(15)
_cell_angle_gamma                63.081(14)
_cell_volume                     1213.12
_exptl_crystal_colour            colorless
_exptl_crystal_description       Prism
_cell_formula_units_Z            2
loop_
_atom_site_label
_atom_site_type_symbol
_atom_site_fract_x
_atom_site_fract_y
_atom_site_fract_z
F1 F 0.23475(16) -0.38567(10) 1.32071(10)
F2 F 0.44153(13) -0.54211(12) 1.28170(11)
F3 F 0.25444(12) -0.58365(9) 1.35852(8)
O1 O 0.06144(9) 0.24526(9) 0.25815(8)
O2 O -0.18122(9) 0.23297(9) 0.37936(8)
O3 O 0.48418(10) -0.13591(9) 0.70906(9)
O4 O 0.28691(14) -0.49536(11) 1.17221(10)
N1 N 0.24368(11) -0.00606(10) 0.74112(9)
C1 C 0.20009(13) 0.23846(12) 0.18137(11)
H1 H 0.2472 0.2739 0.2168
C2 C 0.29876(13) 0.09747(12) 0.15375(12)
H2 H 0.2626 0.0344 0.2124
H3 H 0.3985 0.0741 0.1587
C3 C 0.29505(15) 0.09570(14) 0.02356(13)
H4 H 0.3853 0.0961 -0.0347
H5 H 0.2830 0.0171 0.0195
C4 C 0.16497(14) 0.22045(13) -0.00471(12)
H6 H 0.1766 0.2499 -0.0932
H7 H 0.0741 0.2072 0.0283
C5 C 0.16781(14) 0.31767(13) 0.05985(12)
H8 H 0.2441 0.3493 0.0131
H9 H 0.0735 0.3937 0.0718
C6 C 0.05426(13) 0.19691(11) 0.37892(11)
C7 C 0.16349(13) 0.15831(12) 0.43854(11)
H10 H 0.2533 0.1623 0.3944
C8 C 0.14189(13) 0.11328(11) 0.56404(11)
C9 C 0.01232(13) 0.10365(11) 0.62858(11)
C10 C -0.09738(13) 0.14278(12) 0.56751(11)
H11 H -0.1861 0.1362 0.6112
C11 C -0.07894(13) 0.19061(11) 0.44531(11)
C12 C -0.32175(14) 0.24191(14) 0.44734(13)
H12 H -0.3161 0.1550 0.4890
H13 H -0.3869 0.2754 0.3922
H14 H -0.3586 0.3015 0.5074
C13 C -0.01231(13) 0.04811(12) 0.76209(11)
H15 H -0.0069 -0.0414 0.7709
H16 H -0.1103 0.1028 0.8047
C14 C 0.09889(13) 0.04340(12) 0.82058(11)
H17 H 0.0743 0.1322 0.8357
H18 H 0.0974 -0.0143 0.8996
C15 C 0.26171(13) 0.08132(12) 0.62561(11)
H19 H 0.3559 0.0327 0.5716
C16 C 0.26816(14) 0.20246(13) 0.64902(11)
C17 C 0.39127(16) 0.18860(15) 0.67923(12)
H20 H 0.4706 0.1058 0.6815
C18 C 0.39844(19) 0.29540(18) 0.70602(14)
H21 H 0.4824 0.2848 0.7270
C19 C 0.2843(2) 0.41678(17) 0.70236(15)
H22 H 0.2898 0.4894 0.7206
C20 C 0.1621(2) 0.43191(15) 0.67207(15)
H23 H 0.0834 0.5151 0.6696
C21 C 0.15384(17) 0.32523(14) 0.64511(13)
H24 H 0.0697 0.3365 0.6240
C22 C 0.35998(13) -0.11301(12) 0.77022(11)
C23 C 0.33362(13) -0.20878(12) 0.88036(12)
C24 C 0.23732(14) -0.26487(13) 0.89485(12)
H25 H 0.1807 -0.2385 0.8370
C25 C 0.22393(15) -0.35936(13) 0.99379(13)
H26 H 0.1586 -0.3979 1.0038
C26 C 0.30674(16) -0.39655(13) 1.07749(12)
C27 C 0.40508(16) -0.34457(14) 1.06410(13)
H27 H 0.4623 -0.3722 1.1217
C28 C 0.41842(14) -0.25075(13) 0.96430(12)
H28 H 0.4864 -0.2148 0.9533
C29 C 0.30313(17) -0.49981(13) 1.28165(13)
loop_
_geom_bond_atom_site_label_1
_geom_bond_atom_site_label_2
_geom_bond_site_symmetry_1
_geom_bond_site_symmetry_2
F1 C29 1_555 1_555
F2 C29 1_555 1_555
F3 C29 1_555 1_555
O1 C1 1_555 1_555
O2 C11 1_555 1_555
O3 C22 1_555 1_555
O4 C26 1_555 1_555
N1 C14 1_555 1_555
C1 H1 1_555 1_555
C2 C1 1_555 1_555
H2 C2 1_555 1_555
H3 C2 1_555 1_555
C3 C2 1_555 1_555
H4 C3 1_555 1_555
H5 C3 1_555 1_555
C4 C3 1_555 1_555
H6 C4 1_555 1_555
H7 C4 1_555 1_555
C5 C1 1_555 1_555
H8 C5 1_555 1_555
H9 C5 1_555 1_555
C6 O1 1_555 1_555
C7 C6 1_555 1_555
H10 C7 1_555 1_555
C8 C7 1_555 1_555
C9 C8 1_555 1_555
C10 C9 1_555 1_555
H11 C10 1_555 1_555
C11 C6 1_555 1_555
C12 O2 1_555 1_555
H12 C12 1_555 1_555
H13 C12 1_555 1_555
H14 C12 1_555 1_555
C13 C9 1_555 1_555
H15 C13 1_555 1_555
H16 C13 1_555 1_555
C14 C13 1_555 1_555
H17 C14 1_555 1_555
H18 C14 1_555 1_555
C15 N1 1_555 1_555
H19 C15 1_555 1_555
C16 C15 1_555 1_555
C17 C16 1_555 1_555
H20 C17 1_555 1_555
C18 C17 1_555 1_555
H21 C18 1_555 1_555
C19 C18 1_555 1_555
H22 C19 1_555 1_555
C20 C19 1_555 1_555
H23 C20 1_555 1_555
C21 C16 1_555 1_555
H24 C21 1_555 1_555
C22 N1 1_555 1_555
C23 C22 1_555 1_555
C24 C23 1_555 1_555
H25 C24 1_555 1_555
C25 C24 1_555 1_555
H26 C25 1_555 1_555
C26 C25 1_555 1_555
C27 C26 1_555 1_555
H27 C27 1_555 1_555
C28 C23 1_555 1_555
H28 C28 1_555 1_555
C29 O4 1_555 1_555
C4 C5 1_555 1_555
C8 C15 1_555 1_555
C10 C11 1_555 1_555
C20 C21 1_555 1_555
C27 C28 1_555 1_555

#END
