
#######################################################################
#
#                 Cambridge Crystallographic Data Centre
#                                CCDC 
#
#######################################################################
#
# If this CIF has been generated from an entry in the Cambridge 
# Structural Database, then it will include bibliographic, chemical, 
# crystal, experimental, refinement or atomic coordinate data resulting 
# from the CCDC's data processing and validation procedures.
#
#######################################################################

data_HIGDAF
_chemical_formula_moiety         'C21 H22 Br1 N1 O1'
_chemical_name_systematic        
5-[(4-bromophenyl)methylidene]-2-t-butyl-1,2,4,5-tetrahydro-1,4-methano-3,2-benzoxazepine
_symmetry_cell_setting           triclinic
_symmetry_space_group_name_H-M   'P -1'
_symmetry_Int_Tables_number      2
_space_group_name_Hall           '-P 1'
loop_
_symmetry_equiv_pos_site_id
_symmetry_equiv_pos_as_xyz
1 x,y,z
2 -x,-y,-z
_cell_length_a                   8.6881(5)
_cell_length_b                   9.8467(5)
_cell_length_c                   11.0731(10)
_cell_angle_alpha                94.586(6)
_cell_angle_beta                 91.580(6)
_cell_angle_gamma                105.361(5)
_cell_volume                     909.356
_exptl_crystal_colour            yellow
_exptl_crystal_description       rod
_cell_formula_units_Z            2
loop_
_atom_site_label
_atom_site_type_symbol
_atom_site_fract_x
_atom_site_fract_y
_atom_site_fract_z
Br1 Br 0.60525(4) 0.68286(3) -0.35717(4)
O1 O 0.1486(2) 0.74232(19) 0.20096(17)
N1 N 0.0395(2) 0.75556(19) 0.2979(2)
C1 C -0.0203(3) 0.8773(2) 0.2690(3)
H1 H -0.0342 0.9345 0.3424
C2 C 0.1026(3) 0.9615(3) 0.1886(3)
H2 H 0.1953 1.0217 0.2309
H3 H 0.0551 1.0183 0.1347
C3 C 0.1316(3) 0.8376(3) 0.1125(3)
H4 H 0.2297 0.8669 0.0685
C4 C -0.0095(3) 0.7663(3) 0.0257(3)
C5 C -0.1682(3) 0.7619(3) 0.0757(3)
C6 C -0.1751(3) 0.8177(2) 0.1946(3)
C7 C -0.3214(3) 0.8133(3) 0.2433(3)
H5 H -0.3252 0.8495 0.3230
C8 C -0.4614(3) 0.7556(3) 0.1742(4)
H6 H -0.5592 0.7532 0.2073
C9 C -0.4564(4) 0.7021(3) 0.0571(4)
H7 H -0.5510 0.6633 0.0106
C10 C -0.3119(3) 0.7054(3) 0.0075(3)
H8 H -0.3100 0.6695 -0.0725
C11 C 0.0078(3) 0.7047(3) -0.0820(3)
H9 H -0.0867 0.6548 -0.1244
C12 C 0.1546(3) 0.7038(3) -0.1438(3)
C13 C 0.1756(3) 0.5763(3) -0.1937(3)
H10 H 0.0968 0.4932 -0.1856
C14 C 0.3089(3) 0.5694(3) -0.2545(3)
H11 H 0.3216 0.4826 -0.2853
C15 C 0.4233(3) 0.6919(3) -0.2694(3)
C16 C 0.4068(3) 0.8209(3) -0.2225(3)
H12 H 0.4851 0.9037 -0.2327
C17 C 0.2729(3) 0.8259(3) -0.1604(3)
H13 H 0.2615 0.9129 -0.1289
C18 C 0.1296(3) 0.7666(3) 0.4158(3)
C19 C 0.2698(4) 0.8981(3) 0.4417(3)
H14 H 0.2314 0.9811 0.4428
H15 H 0.3452 0.9007 0.3796
H16 H 0.3209 0.8954 0.5191
C20 C 0.1884(4) 0.6340(3) 0.4163(3)
H17 H 0.2679 0.6369 0.3573
H18 H 0.1003 0.5520 0.3966
H19 H 0.2341 0.6296 0.4953
C21 C 0.0067(4) 0.7622(3) 0.5127(3)
H20 H -0.0816 0.6799 0.4948
H21 H -0.0309 0.8456 0.5134
H22 H 0.0556 0.7584 0.5908
loop_
_geom_bond_atom_site_label_1
_geom_bond_atom_site_label_2
_geom_bond_site_symmetry_1
_geom_bond_site_symmetry_2
Br1 C15 1_555 1_555
O1 N1 1_555 1_555
N1 C1 1_555 1_555
C1 H1 1_555 1_555
C2 C1 1_555 1_555
H2 C2 1_555 1_555
H3 C2 1_555 1_555
C3 O1 1_555 1_555
H4 C3 1_555 1_555
C4 C3 1_555 1_555
C5 C4 1_555 1_555
C6 C1 1_555 1_555
C7 C6 1_555 1_555
H5 C7 1_555 1_555
C8 C7 1_555 1_555
H6 C8 1_555 1_555
C9 C8 1_555 1_555
H7 C9 1_555 1_555
C10 C5 1_555 1_555
H8 C10 1_555 1_555
C11 C4 1_555 1_555
H9 C11 1_555 1_555
C12 C11 1_555 1_555
C13 C12 1_555 1_555
H10 C13 1_555 1_555
C14 C13 1_555 1_555
H11 C14 1_555 1_555
C15 C14 1_555 1_555
C16 C15 1_555 1_555
H12 C16 1_555 1_555
C17 C12 1_555 1_555
H13 C17 1_555 1_555
C18 N1 1_555 1_555
C19 C18 1_555 1_555
H14 C19 1_555 1_555
H15 C19 1_555 1_555
H16 C19 1_555 1_555
C20 C18 1_555 1_555
H17 C20 1_555 1_555
H18 C20 1_555 1_555
H19 C20 1_555 1_555
C21 C18 1_555 1_555
H20 C21 1_555 1_555
H21 C21 1_555 1_555
H22 C21 1_555 1_555
C2 C3 1_555 1_555
C5 C6 1_555 1_555
C9 C10 1_555 1_555
C16 C17 1_555 1_555

#END
