
#######################################################################
#
#                 Cambridge Crystallographic Data Centre
#                                CCDC 
#
#######################################################################
#
# If this CIF has been generated from an entry in the Cambridge 
# Structural Database, then it will include bibliographic, chemical, 
# crystal, experimental, refinement or atomic coordinate data resulting 
# from the CCDC's data processing and validation procedures.
#
#######################################################################

data_HIGMAN
_chemical_formula_moiety         'C22 H18 Cl1 N1 O1'
_chemical_name_systematic        
3-Chloro-5,7-dimethyl-7-phenyl-5,7-dihydro-6H-dibenzo[b,d]azepin-6-one
_symmetry_cell_setting           orthorhombic
_symmetry_space_group_name_H-M   'P 21 21 2'
_symmetry_Int_Tables_number      18
_space_group_name_Hall           'P 2 2ab'
loop_
_symmetry_equiv_pos_site_id
_symmetry_equiv_pos_as_xyz
1 x,y,z
2 -x,-y,z
3 1/2-x,1/2+y,-z
4 1/2+x,1/2-y,-z
_cell_length_a                   11.5207(3)
_cell_length_b                   13.2258(3)
_cell_length_c                   11.8303(4)
_cell_angle_alpha                90
_cell_angle_beta                 90
_cell_angle_gamma                90
_cell_volume                     1802.59
_exptl_crystal_colour            'pale colorless'
_exptl_crystal_description       prism
_cell_formula_units_Z            4
loop_
_atom_site_label
_atom_site_type_symbol
_atom_site_fract_x
_atom_site_fract_y
_atom_site_fract_z
Cl1 Cl 0.06088(4) 0.12617(5) 0.42775(5)
O1 O 0.45263(13) 0.16915(11) -0.03720(9)
N1 N 0.37634(12) 0.11603(10) 0.12630(10)
C1 C 0.43612(14) 0.18466(12) 0.06282(13)
C2 C 0.34916(12) 0.12871(10) 0.24279(12)
C3 C 0.23412(13) 0.11853(12) 0.27617(13)
H1 H 0.1768 0.1041 0.2232
C4 C 0.20582(13) 0.12999(12) 0.38837(15)
C5 C 0.28903(16) 0.14676(12) 0.46974(13)
H2 H 0.2689 0.1515 0.5457
C6 C 0.40280(14) 0.15638(12) 0.43585(13)
H3 H 0.4598 0.1673 0.4902
C7 C 0.43533(13) 0.15029(10) 0.32214(12)
C8 C 0.55661(13) 0.17181(10) 0.28939(12)
C9 C 0.64667(14) 0.12989(13) 0.35268(15)
H4 H 0.6294 0.0866 0.4123
C10 C 0.76038(16) 0.15167(15) 0.32833(18)
H5 H 0.8195 0.1224 0.3707
C11 C 0.78721(15) 0.21668(16) 0.24154(18)
H6 H 0.8643 0.2321 0.2257
C12 C 0.69849(16) 0.25935(14) 0.17743(16)
H7 H 0.7172 0.3033 0.1188
C13 C 0.58213(14) 0.23759(11) 0.19920(13)
C14 C 0.48500(14) 0.27917(12) 0.12347(13)
C15 C 0.38983(14) 0.33694(10) 0.18684(12)
C16 C 0.41258(16) 0.38694(13) 0.28741(15)
H8 H 0.4864 0.3840 0.3189
C17 C 0.3261(2) 0.44125(16) 0.34114(18)
H9 H 0.3425 0.4745 0.4085
C18 C 0.21597(19) 0.44670(16) 0.29612(18)
H10 H 0.1582 0.4830 0.3331
C19 C 0.19212(17) 0.39767(15) 0.19533(16)
H11 H 0.1180 0.4005 0.1643
C20 C 0.27901(15) 0.34470(13) 0.14136(13)
H12 H 0.2630 0.3133 0.0727
C21 C 0.53107(19) 0.35205(16) 0.03221(16)
H13 H 0.4685 0.3720 -0.0165
H14 H 0.5899 0.3187 -0.0115
H15 H 0.5635 0.4108 0.0678
C22 C 0.33130(17) 0.02542(13) 0.06993(15)
H16 H 0.2619 0.0423 0.0292
H17 H 0.3141 -0.0253 0.1255
H18 H 0.3885 0.0000 0.0182
loop_
_geom_bond_atom_site_label_1
_geom_bond_atom_site_label_2
_geom_bond_site_symmetry_1
_geom_bond_site_symmetry_2
Cl1 C4 1_555 1_555
O1 C1 1_555 1_555
N1 C1 1_555 1_555
C1 C14 1_555 1_555
C2 N1 1_555 1_555
C3 C2 1_555 1_555
H1 C3 1_555 1_555
C4 C3 1_555 1_555
C5 C4 1_555 1_555
H2 C5 1_555 1_555
C6 C5 1_555 1_555
H3 C6 1_555 1_555
C7 C2 1_555 1_555
C8 C7 1_555 1_555
C9 C8 1_555 1_555
H4 C9 1_555 1_555
C10 C9 1_555 1_555
H5 C10 1_555 1_555
C11 C10 1_555 1_555
H6 C11 1_555 1_555
C12 C11 1_555 1_555
H7 C12 1_555 1_555
C13 C8 1_555 1_555
C14 C13 1_555 1_555
C15 C14 1_555 1_555
C16 C15 1_555 1_555
H8 C16 1_555 1_555
C17 C16 1_555 1_555
H9 C17 1_555 1_555
C18 C17 1_555 1_555
H10 C18 1_555 1_555
C19 C18 1_555 1_555
H11 C19 1_555 1_555
C20 C15 1_555 1_555
H12 C20 1_555 1_555
C21 C14 1_555 1_555
H13 C21 1_555 1_555
H14 C21 1_555 1_555
H15 C21 1_555 1_555
C22 N1 1_555 1_555
H16 C22 1_555 1_555
H17 C22 1_555 1_555
H18 C22 1_555 1_555
C6 C7 1_555 1_555
C12 C13 1_555 1_555
C19 C20 1_555 1_555

#END
