
#######################################################################
#
#                 Cambridge Crystallographic Data Centre
#                                CCDC 
#
#######################################################################
#
# If this CIF has been generated from an entry in the Cambridge 
# Structural Database, then it will include bibliographic, chemical, 
# crystal, experimental, refinement or atomic coordinate data resulting 
# from the CCDC's data processing and validation procedures.
#
#######################################################################

data_HIGNIU
_chemical_formula_moiety         'C23 H29 N1 O3,H2 O1'
_chemical_name_systematic        
'(\aS,3R,4R)-4-(3-Hydroxyphenyl)-3,4-dimethyl-\a-(phenylmethyl)-1-piperidine-propanoic acid monohydrate'
_symmetry_cell_setting           monoclinic
_symmetry_space_group_name_H-M   'P 21'
_symmetry_Int_Tables_number      4
_space_group_name_Hall           'P 2yb'
loop_
_symmetry_equiv_pos_site_id
_symmetry_equiv_pos_as_xyz
1 x,y,z
2 -x,1/2+y,-z
_cell_length_a                   7.935
_cell_length_b                   13.091
_cell_length_c                   9.925
_cell_angle_alpha                90
_cell_angle_beta                 94.35
_cell_angle_gamma                90
_cell_volume                     1028.01
_exptl_crystal_colour            white
_chemical_melting_point          178.0-180.0deg.C(dec.)
_cell_formula_units_Z            2
loop_
_atom_site_label
_atom_site_type_symbol
_atom_site_fract_x
_atom_site_fract_y
_atom_site_fract_z
O1 O 0.13715(23) 0.75509 0.68869(21)
H1 H 0.22383(23) 0.79240 0.70478(21)
C1 C 0.03624(30) 0.79783(28) 0.58597(25)
C2 C 0.07887(33) 0.88589(29) 0.52306(27)
H2 H 0.18184(33) 0.92077(29) 0.55098(27)
C3 C -0.02789(37) 0.92295(30) 0.41691(31)
H3 H 0.00193(37) 0.98343(30) 0.36949(31)
C4 C -0.17668(34) 0.87334(30) 0.37653(28)
H4 H -0.25046(34) 0.90076(30) 0.30442(28)
C5 C -0.22219(29) 0.78405(27) 0.44118(24)
C6 C -0.11448(29) 0.74719(28) 0.54670(23)
H5 H -0.14302(29) 0.68586(28) 0.59284(23)
C7 C -0.38864(28) 0.73061(27) 0.39337(23)
C8 C -0.53178(32) 0.80967(30) 0.39900(29)
H6 H -0.53713(32) 0.83281(30) 0.49036(29)
H7 H -0.51020(32) 0.86673(30) 0.34204(29)
H8 H -0.63714(32) 0.77861(30) 0.36830(29)
C9 C -0.37782(31) 0.69127(28) 0.24636(24)
H9 H -0.37392(31) 0.75059(28) 0.18982(24)
C10 C -0.21703(34) 0.62981(30) 0.22672(30)
H10 H -0.21599(34) 0.60783(30) 0.13451(30)
H11 H -0.12006(34) 0.67175(30) 0.24973(30)
H12 H -0.21440(34) 0.57121(30) 0.28499(30)
C11 C -0.53528(32) 0.63089(28) 0.19857(24)
H13 H -0.52412(32) 0.60636(28) 0.10853(24)
H14 H -0.63132(32) 0.67547(28) 0.19599(24)
N1 N -0.56636(25) 0.54279(25) 0.28992(19)
C12 C -0.58451(33) 0.57993(28) 0.43093(24)
H15 H -0.60144(33) 0.52312(28) 0.48956(24)
H16 H -0.68118(33) 0.62381(28) 0.43143(24)
C13 C -0.42764(30) 0.63884(28) 0.48317(24)
H17 H -0.44189(30) 0.66274(28) 0.57304(24)
H18 H -0.33303(30) 0.59310(28) 0.48796(24)
C14 C -0.71785(29) 0.47919(30) 0.24019(26)
H19 H -0.80877(29) 0.52386(30) 0.21005(26)
H20 H -0.75401(29) 0.43854(30) 0.31313(26)
C15 C -0.67549(29) 0.40853(27) 0.12443(25)
H21 H -0.64167(29) 0.45039(27) 0.05181(25)
C16 C -0.52917(34) 0.33548(31) 0.16697(29)
O2 O -0.41718(22) 0.36909(24) 0.25466(19)
O3 O -0.52207(27) 0.25210(26) 0.10959(27)
C17 C -0.83311(34) 0.34979(28) 0.07208(28)
H22 H -0.87608(34) 0.31530(28) 0.14762(28)
H23 H -0.80039(34) 0.29847(28) 0.01012(28)
C18 C -0.97550(33) 0.41235(30) 0.00239(26)
C19 C -1.13751(35) 0.37087(35) -0.01122(29)
H24 H -1.15697(35) 0.30542(35) 0.02836(29)
C20 C -1.26826(40) 0.42291(44) -0.08066(35)
H25 H -1.37882(40) 0.39318(44) -0.09120(35)
C21 C -1.24171(50) 0.51703(44) -0.13493(33)
H26 H -1.33190(50) 0.55319(44) -0.18387(33)
C22 C -1.08434(50) 0.56003(35) -0.12008(31)
H27 H -1.06480(50) 0.62695(35) -0.15525(31)
C23 C -0.95198(35) 0.50742(31) -0.05309(27)
H28 H -0.84092(35) 0.53659(31) -0.04534(27)
O4 O 0.63872(33) 0.08536(29) 0.22417(33)
loop_
_geom_bond_atom_site_label_1
_geom_bond_atom_site_label_2
_geom_bond_site_symmetry_1
_geom_bond_site_symmetry_2
O1 H1 1_555 1_555
C1 O1 1_555 1_555
C2 C1 1_555 1_555
H2 C2 1_555 1_555
C3 C2 1_555 1_555
H3 C3 1_555 1_555
C4 C3 1_555 1_555
H4 C4 1_555 1_555
C5 C4 1_555 1_555
C6 C1 1_555 1_555
H5 C6 1_555 1_555
C7 C5 1_555 1_555
C8 C7 1_555 1_555
H6 C8 1_555 1_555
H7 C8 1_555 1_555
H8 C8 1_555 1_555
C9 C7 1_555 1_555
H9 C9 1_555 1_555
C10 C9 1_555 1_555
H10 C10 1_555 1_555
H11 C10 1_555 1_555
H12 C10 1_555 1_555
C11 C9 1_555 1_555
H13 C11 1_555 1_555
H14 C11 1_555 1_555
N1 C11 1_555 1_555
C12 N1 1_555 1_555
H15 C12 1_555 1_555
H16 C12 1_555 1_555
C13 C7 1_555 1_555
H17 C13 1_555 1_555
H18 C13 1_555 1_555
C14 N1 1_555 1_555
H19 C14 1_555 1_555
H20 C14 1_555 1_555
C15 C14 1_555 1_555
H21 C15 1_555 1_555
C16 C15 1_555 1_555
O2 C16 1_555 1_555
O3 C16 1_555 1_555
C17 C15 1_555 1_555
H22 C17 1_555 1_555
H23 C17 1_555 1_555
C18 C17 1_555 1_555
C19 C18 1_555 1_555
H24 C19 1_555 1_555
C20 C19 1_555 1_555
H25 C20 1_555 1_555
C21 C20 1_555 1_555
H26 C21 1_555 1_555
C22 C21 1_555 1_555
H27 C22 1_555 1_555
C23 C18 1_555 1_555
H28 C23 1_555 1_555
C5 C6 1_555 1_555
C12 C13 1_555 1_555
C22 C23 1_555 1_555

#END
