
#######################################################################
#
#                 Cambridge Crystallographic Data Centre
#                                CCDC 
#
#######################################################################
#
# If this CIF has been generated from an entry in the Cambridge 
# Structural Database, then it will include bibliographic, chemical, 
# crystal, experimental, refinement or atomic coordinate data resulting 
# from the CCDC's data processing and validation procedures.
#
#######################################################################

data_HIHCOT
_chemical_formula_moiety         'C21 H22 N2 O5 S1'
_chemical_name_systematic        
"2-t-butyl 1'-methyl (1R,2R,4R)-4-isothiocyanato-2'-oxospiro[cyclohex-5-ene-1,3'-indole]-1',2(2'H)-dicarboxylate"
_symmetry_cell_setting           orthorhombic
_symmetry_space_group_name_H-M   'P 21 21 21'
_symmetry_Int_Tables_number      19
_space_group_name_Hall           'P 2ac 2ab'
loop_
_symmetry_equiv_pos_site_id
_symmetry_equiv_pos_as_xyz
1 x,y,z
2 1/2-x,-y,1/2+z
3 -x,1/2+y,1/2-z
4 1/2+x,1/2-y,-z
_cell_length_a                   9.5557(4)
_cell_length_b                   14.3923(6)
_cell_length_c                   15.4893(7)
_cell_angle_alpha                90
_cell_angle_beta                 90
_cell_angle_gamma                90
_cell_volume                     2130.22
_exptl_crystal_colour            colorless
_exptl_crystal_description       block
_chemical_melting_point          '190.0-192.0 deg.C'
_cell_formula_units_Z            4
loop_
_atom_site_label
_atom_site_type_symbol
_atom_site_fract_x
_atom_site_fract_y
_atom_site_fract_z
S1 S 0.3041(2) 0.00732(11) 0.54889(13)
O1 O 0.5762(3) 0.3264(2) 0.3316(2)
O2 O 0.3290(3) 0.3231(2) 0.19509(18)
N1 N 0.5196(3) 0.4744(2) 0.2805(2)
O3 O 0.1077(4) 0.2792(3) 0.2220(3)
C1 C 0.4964(4) 0.3890(3) 0.3236(2)
O4 O 0.7279(3) 0.4307(3) 0.2272(3)
O5 O 0.6659(5) 0.5781(3) 0.2158(4)
C2 C 0.3986(4) 0.5312(3) 0.2847(2)
C3 C 0.3488(4) 0.3932(3) 0.3626(2)
C4 C 0.2940(4) 0.4856(2) 0.3297(2)
C5 C 0.1663(5) 0.5263(3) 0.3415(3)
H1 H 0.0959 0.4955 0.3715
C6 C 0.2221(4) 0.3015(3) 0.2452(3)
C7 C 0.3682(6) 0.4005(4) 0.4597(3)
H2 H 0.4309 0.4446 0.4804
C8 C 0.3778(5) 0.6197(3) 0.2514(3)
H3 H 0.4486 0.6507 0.2219
C9 C 0.2664(5) 0.3046(3) 0.3391(3)
H4 H 0.3310 0.2524 0.3474
C10 C 0.6431(4) 0.5008(3) 0.2384(3)
C11 C 0.2483(6) 0.6600(3) 0.2637(3)
H5 H 0.2318 0.7191 0.2416
C12 C 0.1432(6) 0.6155(3) 0.3075(3)
H6 H 0.0569 0.6443 0.3147
N2 N 0.2588(9) 0.1858(4) 0.5025(4)
C13 C 0.1455(7) 0.2887(4) 0.4009(4)
H7 H 0.0817 0.3410 0.3977
H8 H 0.0947 0.2335 0.3836
C14 C 0.3202(6) 0.3199(4) 0.0998(3)
C15 C 0.3021(9) 0.3485(4) 0.5168(3)
H9 H 0.3230 0.3565 0.5749
C16 C 0.1953(9) 0.2774(4) 0.4924(4)
H10 H 0.1151 0.2825 0.5315
C17 C 0.2754(7) 0.1115(4) 0.5229(3)
C18 C 0.8610(6) 0.4517(7) 0.1867(5)
H11 H 0.8459 0.4680 0.1273
H12 H 0.9208 0.3982 0.1898
H13 H 0.9044 0.5028 0.2162
C19 C 0.2991(11) 0.2216(5) 0.0734(4)
H14 H 0.3757 0.1846 0.0941
H15 H 0.2950 0.2179 0.0116
H16 H 0.2131 0.1989 0.0975
C20 C 0.4633(10) 0.3492(10) 0.0732(4)
H17 H 0.4822 0.4102 0.0953
H18 H 0.4693 0.3499 0.0114
H19 H 0.5308 0.3062 0.0959
C21 C 0.2084(12) 0.3845(7) 0.0696(5)
H20 H 0.1201 0.3657 0.0934
H21 H 0.2034 0.3829 0.0077
H22 H 0.2297 0.4465 0.0882
loop_
_geom_bond_atom_site_label_1
_geom_bond_atom_site_label_2
_geom_bond_site_symmetry_1
_geom_bond_site_symmetry_2
S1 C17 1_555 1_555
O1 C1 1_555 1_555
O2 C6 1_555 1_555
N1 C1 1_555 1_555
O3 C6 1_555 1_555
C1 C3 1_555 1_555
O4 C10 1_555 1_555
O5 C10 1_555 1_555
C2 N1 1_555 1_555
C3 C4 1_555 1_555
C4 C2 1_555 1_555
C5 C4 1_555 1_555
H1 C5 1_555 1_555
C6 C9 1_555 1_555
C7 C3 1_555 1_555
H2 C7 1_555 1_555
C8 C2 1_555 1_555
H3 C8 1_555 1_555
C9 C3 1_555 1_555
H4 C9 1_555 1_555
C10 N1 1_555 1_555
C11 C8 1_555 1_555
H5 C11 1_555 1_555
C12 C5 1_555 1_555
H6 C12 1_555 1_555
N2 C16 1_555 1_555
C13 C9 1_555 1_555
H7 C13 1_555 1_555
H8 C13 1_555 1_555
C14 O2 1_555 1_555
C15 C7 1_555 1_555
H9 C15 1_555 1_555
C16 C13 1_555 1_555
H10 C16 1_555 1_555
C17 N2 1_555 1_555
C18 O4 1_555 1_555
H11 C18 1_555 1_555
H12 C18 1_555 1_555
H13 C18 1_555 1_555
C19 C14 1_555 1_555
H14 C19 1_555 1_555
H15 C19 1_555 1_555
H16 C19 1_555 1_555
C20 C14 1_555 1_555
H17 C20 1_555 1_555
H18 C20 1_555 1_555
H19 C20 1_555 1_555
C21 C14 1_555 1_555
H20 C21 1_555 1_555
H21 C21 1_555 1_555
H22 C21 1_555 1_555
C11 C12 1_555 1_555
C15 C16 1_555 1_555

#END
