
#######################################################################
#
#                 Cambridge Crystallographic Data Centre
#                                CCDC 
#
#######################################################################
#
# If this CIF has been generated from an entry in the Cambridge 
# Structural Database, then it will include bibliographic, chemical, 
# crystal, experimental, refinement or atomic coordinate data resulting 
# from the CCDC's data processing and validation procedures.
#
#######################################################################

data_HIJPOI
_chemical_formula_moiety         'C24 H25 F7 N2 O3'
_chemical_name_systematic        
'ethyl 2-(benzenecarbonyl)-4,4,5,5,6,6,6-heptafluoro-3-(1,2,3,4,6,7,8,9-octahydropyrimido[1,2-a]azepin-10-yl)hex-2-enoate'
_symmetry_cell_setting           triclinic
_symmetry_space_group_name_H-M   'P -1'
_symmetry_Int_Tables_number      2
_space_group_name_Hall           '-P 1'
loop_
_symmetry_equiv_pos_site_id
_symmetry_equiv_pos_as_xyz
1 x,y,z
2 -x,-y,-z
_cell_length_a                   9.207(5)
_cell_length_b                   14.125(5)
_cell_length_c                   18.327(5)
_cell_angle_alpha                96.941(5)
_cell_angle_beta                 90.055(5)
_cell_angle_gamma                90.101(5)
_cell_volume                     2365.93
_exptl_crystal_colour            colorless
_exptl_crystal_description       block
_cell_formula_units_Z            4
loop_
_atom_site_label
_atom_site_type_symbol
_atom_site_fract_x
_atom_site_fract_y
_atom_site_fract_z
F1 F 0.4419(4) 0.2130(2) -0.02751(13)
F2 F 0.3399(3) 0.09500(16) 0.01301(13)
F3 F 0.5690(3) 0.1149(2) 0.02399(18)
F4 F 0.2952(2) 0.26696(14) 0.09472(13)
F5 F 0.3973(2) 0.15869(15) 0.15042(11)
F6 F 0.65779(19) 0.23352(14) 0.14065(10)
F7 F 0.5806(2) 0.33722(14) 0.07140(9)
O1 O 0.3097(2) 0.28127(15) 0.29135(11)
O2 O 0.7563(2) 0.32385(18) 0.34855(12)
O3 O 0.7738(2) 0.38681(17) 0.24321(11)
N1 N 0.4842(3) 0.58270(17) 0.28035(14)
N2 N 0.3122(3) 0.47188(18) 0.30678(14)
H1 H 0.2621 0.4221 0.2910
C1 C 0.4448(5) 0.1600(3) 0.0261(2)
C2 C 0.4195(3) 0.2198(2) 0.10085(16)
C3 C 0.5426(3) 0.2895(2) 0.12861(15)
C4 C 0.5075(3) 0.35708(19) 0.19728(14)
C5 C 0.5510(3) 0.32264(19) 0.26844(15)
C6 C 0.6981(3) 0.3408(2) 0.29276(15)
C7 C 0.9241(3) 0.4081(3) 0.25958(18)
H2 H 0.9773 0.3499 0.2640
H3 H 0.9326 0.4497 0.3055
C8 C 0.9834(4) 0.4559(4) 0.1982(2)
H4 H 0.9826 0.4121 0.1539
H5 H 1.0812 0.4763 0.2095
H6 H 0.9246 0.5103 0.1915
C9 C 0.4441(3) 0.2792(2) 0.30774(15)
C10 C 0.4813(3) 0.2298(2) 0.37426(15)
C11 C 0.5843(3) 0.1589(2) 0.37346(18)
H7 H 0.6429 0.1445 0.3323
C12 C 0.6010(4) 0.1089(3) 0.4337(2)
H8 H 0.6695 0.0604 0.4325
C13 C 0.5153(4) 0.1313(3) 0.4957(2)
H9 H 0.5279 0.0990 0.5365
C14 C 0.4119(4) 0.2013(3) 0.49638(17)
H10 H 0.3544 0.2163 0.5378
C15 C 0.3928(4) 0.2497(2) 0.43589(16)
H11 H 0.3206 0.2957 0.4363
C16 C 0.4421(3) 0.4401(2) 0.19275(15)
C17 C 0.3868(3) 0.4842(2) 0.12611(17)
H12 H 0.2931 0.5135 0.1378
H13 H 0.3729 0.4341 0.0856
C18 C 0.4914(4) 0.5603(2) 0.10135(18)
H14 H 0.5845 0.5307 0.0888
H15 H 0.4526 0.5829 0.0574
C19 C 0.5148(4) 0.6451(2) 0.15937(19)
H16 H 0.4217 0.6741 0.1727
H17 H 0.5741 0.6922 0.1389
C20 C 0.5887(3) 0.6174(2) 0.22837(19)
H18 H 0.6596 0.5679 0.2142
H19 H 0.6400 0.6723 0.2528
C21 C 0.4145(3) 0.5011(2) 0.26414(16)
C22 C 0.2814(4) 0.5211(3) 0.37972(19)
H20 H 0.2598 0.4748 0.4132
H21 H 0.1971 0.5618 0.3775
C23 C 0.4115(4) 0.5808(3) 0.40767(19)
H22 H 0.3867 0.6204 0.4529
H23 H 0.4914 0.5396 0.4177
C24 C 0.4554(4) 0.6423(2) 0.35034(19)
H24 H 0.3785 0.6873 0.3436
H25 H 0.5420 0.6782 0.3663
F8 F 1.0558(4) -0.2862(2) -0.02732(13)
F9 F 0.9301(3) -0.3852(2) 0.02384(17)
F10 F 1.1581(3) -0.40385(16) 0.01304(12)
F11 F 1.1009(2) -0.34107(14) 0.15057(11)
F12 F 1.2030(2) -0.23163(14) 0.09532(12)
F13 F 0.84068(19) -0.26666(14) 0.14063(10)
F14 F 0.9170(2) -0.16292(13) 0.07151(9)
O4 O 1.1882(2) -0.21842(14) 0.29165(11)
O5 O 0.7420(2) -0.17689(18) 0.34891(12)
O6 O 0.7240(2) -0.11408(16) 0.24346(11)
N3 N 1.0121(3) 0.08204(17) 0.28106(14)
N4 N 1.1855(3) -0.02693(18) 0.30739(13)
H26 H 1.2361 -0.0762 0.2914
C25 C 1.0528(5) -0.3405(3) 0.02632(19)
C26 C 1.0787(3) -0.2799(2) 0.10114(16)
C27 C 0.9552(3) -0.2104(2) 0.12874(15)
C28 C 0.9911(3) -0.14303(19) 0.19756(14)
C29 C 0.9470(3) -0.17732(19) 0.26836(14)
C30 C 1.0545(3) -0.22034(19) 0.30818(14)
C31 C 1.0193(3) -0.27063(19) 0.37414(14)
C32 C 0.9154(3) -0.3414(2) 0.37363(18)
H27 H 0.8565 -0.3559 0.3325
C33 C 0.8982(4) -0.3909(3) 0.4338(2)
H28 H 0.8283 -0.4387 0.4329
C34 C 0.9849(5) -0.3693(3) 0.49529(19)
H29 H 0.9728 -0.4021 0.5359
C35 C 1.0890(5) -0.2993(3) 0.49629(17)
H30 H 1.1472 -0.2848 0.5376
C36 C 1.1074(4) -0.2505(2) 0.43622(16)
H31 H 1.1790 -0.2038 0.4370
C37 C 0.8002(3) -0.1593(2) 0.29288(15)
C38 C 0.5749(3) -0.0932(2) 0.26010(18)
H32 H 0.5671 -0.0513 0.3060
H33 H 0.5218 -0.1514 0.2649
C39 C 0.5143(4) -0.0455(4) 0.1981(2)
H34 H 0.5172 -0.0890 0.1536
H35 H 0.5711 0.0100 0.1921
H36 H 0.4156 -0.0270 0.2089
C40 C 1.0559(3) -0.05942(19) 0.19312(14)
C41 C 1.1104(3) -0.0154(2) 0.12654(16)
H37 H 1.1227 -0.0655 0.0859
H38 H 1.2048 0.0132 0.1379
C42 C 1.0078(4) 0.0611(2) 0.10218(18)
H39 H 1.0480 0.0843 0.0588
H40 H 0.9149 0.0316 0.0885
C43 C 0.9824(4) 0.1452(2) 0.16001(19)
H41 H 0.9223 0.1916 0.1393
H42 H 1.0749 0.1753 0.1736
C44 C 0.9092(3) 0.1171(2) 0.22881(18)
H43 H 0.8583 0.1721 0.2533
H44 H 0.8378 0.0678 0.2144
C45 C 1.0838(3) 0.00149(19) 0.26463(15)
C46 C 1.2166(4) 0.0215(2) 0.38086(19)
H45 H 1.3010 0.0623 0.3791
H46 H 1.2376 -0.0253 0.4141
C47 C 1.0870(4) 0.0804(3) 0.40835(19)
H47 H 1.0074 0.0387 0.4183
H48 H 1.1117 0.1198 0.4537
C48 C 1.0415(4) 0.1425(2) 0.35137(18)
H49 H 0.9547 0.1778 0.3676
H50 H 1.1179 0.1880 0.3445
loop_
_geom_bond_atom_site_label_1
_geom_bond_atom_site_label_2
_geom_bond_site_symmetry_1
_geom_bond_site_symmetry_2
F1 C1 1_555 1_555
F2 C1 1_555 1_555
F3 C1 1_555 1_555
F4 C2 1_555 1_555
F5 C2 1_555 1_555
F6 C3 1_555 1_555
F7 C3 1_555 1_555
O1 C9 1_555 1_555
O2 C6 1_555 1_555
O3 C6 1_555 1_555
N1 C20 1_555 1_555
N2 H1 1_555 1_555
C1 C2 1_555 1_555
C2 C3 1_555 1_555
C3 C4 1_555 1_555
C4 C5 1_555 1_555
C5 C6 1_555 1_555
C7 O3 1_555 1_555
H2 C7 1_555 1_555
H3 C7 1_555 1_555
C8 C7 1_555 1_555
H4 C8 1_555 1_555
H5 C8 1_555 1_555
H6 C8 1_555 1_555
C9 C5 1_555 1_555
C10 C9 1_555 1_555
C11 C10 1_555 1_555
H7 C11 1_555 1_555
C12 C11 1_555 1_555
H8 C12 1_555 1_555
C13 C12 1_555 1_555
H9 C13 1_555 1_555
C14 C13 1_555 1_555
H10 C14 1_555 1_555
C15 C10 1_555 1_555
H11 C15 1_555 1_555
C16 C4 1_555 1_555
C17 C16 1_555 1_555
H12 C17 1_555 1_555
H13 C17 1_555 1_555
C18 C17 1_555 1_555
H14 C18 1_555 1_555
H15 C18 1_555 1_555
C19 C18 1_555 1_555
H16 C19 1_555 1_555
H17 C19 1_555 1_555
C20 C19 1_555 1_555
H18 C20 1_555 1_555
H19 C20 1_555 1_555
C21 N1 1_555 1_555
C22 N2 1_555 1_555
H20 C22 1_555 1_555
H21 C22 1_555 1_555
C23 C22 1_555 1_555
H22 C23 1_555 1_555
H23 C23 1_555 1_555
C24 N1 1_555 1_555
H24 C24 1_555 1_555
H25 C24 1_555 1_555
F8 C25 1_555 1_555
F9 C25 1_555 1_555
F10 C25 1_555 1_555
F11 C26 1_555 1_555
F12 C26 1_555 1_555
F13 C27 1_555 1_555
F14 C27 1_555 1_555
O4 C30 1_555 1_555
O5 C37 1_555 1_555
O6 C37 1_555 1_555
N3 C44 1_555 1_555
N4 H26 1_555 1_555
C25 C26 1_555 1_555
C26 C27 1_555 1_555
C27 C28 1_555 1_555
C28 C29 1_555 1_555
C29 C30 1_555 1_555
C30 C31 1_555 1_555
C31 C32 1_555 1_555
C32 H27 1_555 1_555
C33 C32 1_555 1_555
H28 C33 1_555 1_555
C34 C33 1_555 1_555
H29 C34 1_555 1_555
C35 C34 1_555 1_555
H30 C35 1_555 1_555
C36 C31 1_555 1_555
H31 C36 1_555 1_555
C37 C29 1_555 1_555
C38 O6 1_555 1_555
H32 C38 1_555 1_555
H33 C38 1_555 1_555
C39 C38 1_555 1_555
H34 C39 1_555 1_555
H35 C39 1_555 1_555
H36 C39 1_555 1_555
C40 C28 1_555 1_555
C41 C40 1_555 1_555
H37 C41 1_555 1_555
H38 C41 1_555 1_555
C42 C41 1_555 1_555
H39 C42 1_555 1_555
H40 C42 1_555 1_555
C43 C42 1_555 1_555
H41 C43 1_555 1_555
H42 C43 1_555 1_555
C44 C43 1_555 1_555
H43 C44 1_555 1_555
H44 C44 1_555 1_555
C45 N3 1_555 1_555
C46 N4 1_555 1_555
H45 C46 1_555 1_555
H46 C46 1_555 1_555
C47 C46 1_555 1_555
H47 C47 1_555 1_555
H48 C47 1_555 1_555
C48 N3 1_555 1_555
H49 C48 1_555 1_555
H50 C48 1_555 1_555
N2 C21 1_555 1_555
C14 C15 1_555 1_555
C16 C21 1_555 1_555
C23 C24 1_555 1_555
N4 C45 1_555 1_555
C35 C36 1_555 1_555
C40 C45 1_555 1_555
C47 C48 1_555 1_555

#END
