
#######################################################################
#
#                 Cambridge Crystallographic Data Centre
#                                CCDC 
#
#######################################################################
#
# If this CIF has been generated from an entry in the Cambridge 
# Structural Database, then it will include bibliographic, chemical, 
# crystal, experimental, refinement or atomic coordinate data resulting 
# from the CCDC's data processing and validation procedures.
#
#######################################################################

data_HIKWEG
_chemical_formula_moiety         'C13 H18 O2'
_chemical_name_systematic        
8-hydroxy-1,6-dimethyl-1,2,3,6,7,7a-hexahydro-3a,6-ethanoinden-9-one
_symmetry_cell_setting           triclinic
_symmetry_space_group_name_H-M   'P -1'
_symmetry_Int_Tables_number      2
_space_group_name_Hall           '-P 1'
loop_
_symmetry_equiv_pos_site_id
_symmetry_equiv_pos_as_xyz
1 x,y,z
2 -x,-y,-z
_cell_length_a                   9.5733(3)
_cell_length_b                   11.0102(5)
_cell_length_c                   12.0302(4)
_cell_angle_alpha                77.447(4)
_cell_angle_beta                 67.451(3)
_cell_angle_gamma                85.529(3)
_cell_volume                     1143.08
_exptl_crystal_colour            colorless
_exptl_crystal_description       plate
_cell_formula_units_Z            4
loop_
_atom_site_label
_atom_site_type_symbol
_atom_site_fract_x
_atom_site_fract_y
_atom_site_fract_z
C1 C 0.18086(14) 0.87905(13) 0.38966(11)
C2 C 0.08059(14) 0.93407(12) 0.34444(12)
C3 C 0.08650(13) 0.90037(11) 0.22706(11)
C4 C 0.24661(13) 0.93208(11) 0.13937(11)
C5 C 0.36365(12) 0.85843(12) 0.18589(11)
C6 C 0.28261(13) 0.78691(11) 0.31914(11)
C7 C 0.39546(16) 0.72398(15) 0.37458(15)
C8 C 0.17508(14) 0.69043(11) 0.31515(13)
C9 C 0.07523(13) 0.75556(12) 0.24676(12)
C10 C -0.09653(14) 0.73586(13) 0.30465(13)
C11 C -0.14805(19) 0.60608(17) 0.3130(2)
C12 C -0.15100(17) 0.83993(17) 0.22278(17)
C13 C -0.04311(15) 0.95088(15) 0.18577(14)
O1 O 0.28281(11) 1.00674(10) 0.04246(9)
O2 O 0.47440(10) 0.93983(10) 0.18046(10)
H1 H 0.540(3) 0.958(2) 0.105(2)
H2 H 0.1868(19) 0.8958(15) 0.4642(16)
H3 H 0.0063(19) 0.9948(16) 0.3796(16)
H4 H 0.4102(18) 0.7988(15) 0.1326(15)
H5 H 0.464(2) 0.669(2) 0.323(2)
H6 H 0.457(2) 0.7863(19) 0.3811(19)
H7 H 0.344(2) 0.675(2) 0.458(2)
H8 H 0.1150(19) 0.6473(15) 0.4012(16)
H9 H 0.2367(18) 0.6240(16) 0.2738(15)
H10 H 0.1095(18) 0.7340(15) 0.1635(15)
H11 H -0.133(2) 0.7531(16) 0.3905(17)
H12 H -0.261(3) 0.600(2) 0.352(2)
H13 H -0.107(3) 0.541(2) 0.366(2)
H14 H -0.109(3) 0.589(2) 0.228(3)
H15 H -0.263(2) 0.8610(19) 0.2682(19)
H16 H -0.141(2) 0.8098(19) 0.150(2)
H17 H -0.094(2) 1.0213(18) 0.2270(17)
H18 H -0.007(2) 0.9859(17) 0.0976(18)
C14 C 0.42390(16) 0.61560(12) 0.73418(13)
C15 C 0.57349(16) 0.61820(12) 0.68063(12)
C16 C 0.65095(13) 0.72745(11) 0.69169(11)
C17 C 0.57810(13) 0.83612(11) 0.63360(11)
C18 C 0.40768(13) 0.84286(11) 0.70817(11)
C19 C 0.35498(13) 0.71885(12) 0.80238(12)
C20 C 0.18334(16) 0.71096(17) 0.86619(17)
C21 C 0.43061(14) 0.71182(13) 0.89697(11)
C22 C 0.59987(13) 0.73602(11) 0.82939(11)
C23 C 0.71206(15) 0.64963(12) 0.86985(12)
C24 C 0.7130(2) 0.65895(15) 0.99365(15)
C25 C 0.86207(15) 0.68984(15) 0.76156(15)
C26 C 0.82416(15) 0.72067(15) 0.64488(14)
O3 O 0.64196(11) 0.90723(9) 0.53692(9)
O4 O 0.32451(11) 0.86481(9) 0.63076(9)
H19 H 0.356(2) 0.935(2) 0.5804(19)
H20 H 0.359(2) 0.5506(17) 0.7321(16)
H21 H 0.6313(19) 0.5615(16) 0.6322(16)
H22 H 0.3943(17) 0.9115(15) 0.7507(15)
H23 H 0.144(3) 0.783(2) 0.909(2)
H24 H 0.154(3) 0.631(2) 0.928(2)
H25 H 0.141(3) 0.715(2) 0.802(2)
H26 H 0.3862(19) 0.7741(16) 0.9456(15)
H27 H 0.4096(18) 0.6282(16) 0.9508(15)
H28 H 0.6248(17) 0.8251(15) 0.8299(14)
H29 H 0.6872(19) 0.5595(16) 0.8730(15)
H30 H 0.793(3) 0.605(2) 1.012(2)
H31 H 0.734(2) 0.745(2) 0.993(2)
H32 H 0.613(3) 0.631(2) 1.064(2)
H33 H 0.902(2) 0.7702(19) 0.7698(18)
H34 H 0.938(2) 0.6259(18) 0.7571(18)
H35 H 0.869(2) 0.8012(18) 0.5932(18)
H36 H 0.862(2) 0.6555(18) 0.5939(17)
loop_
_geom_bond_atom_site_label_1
_geom_bond_atom_site_label_2
_geom_bond_site_symmetry_1
_geom_bond_site_symmetry_2
C1 C2 1_555 1_555
C2 C3 1_555 1_555
C3 C4 1_555 1_555
C4 C5 1_555 1_555
C5 C6 1_555 1_555
C6 C1 1_555 1_555
C7 C6 1_555 1_555
C8 C6 1_555 1_555
C9 C3 1_555 1_555
C10 C9 1_555 1_555
C11 C10 1_555 1_555
C12 C10 1_555 1_555
C13 C3 1_555 1_555
O1 C4 1_555 1_555
O2 C5 1_555 1_555
H1 O2 1_555 1_555
H2 C1 1_555 1_555
H3 C2 1_555 1_555
H4 C5 1_555 1_555
H5 C7 1_555 1_555
H6 C7 1_555 1_555
H7 C7 1_555 1_555
H8 C8 1_555 1_555
H9 C8 1_555 1_555
H10 C9 1_555 1_555
H11 C10 1_555 1_555
H12 C11 1_555 1_555
H13 C11 1_555 1_555
H14 C11 1_555 1_555
H15 C12 1_555 1_555
H16 C12 1_555 1_555
H17 C13 1_555 1_555
H18 C13 1_555 1_555
C14 C15 1_555 1_555
C15 C16 1_555 1_555
C16 C17 1_555 1_555
C17 C18 1_555 1_555
C18 C19 1_555 1_555
C19 C14 1_555 1_555
C20 C19 1_555 1_555
C21 C19 1_555 1_555
C22 C16 1_555 1_555
C23 C22 1_555 1_555
C24 C23 1_555 1_555
C25 C23 1_555 1_555
C26 C16 1_555 1_555
O3 C17 1_555 1_555
O4 C18 1_555 1_555
H19 O4 1_555 1_555
H20 C14 1_555 1_555
H21 C15 1_555 1_555
H22 C18 1_555 1_555
H23 C20 1_555 1_555
H24 C20 1_555 1_555
H25 C20 1_555 1_555
H26 C21 1_555 1_555
H27 C21 1_555 1_555
H28 C22 1_555 1_555
H29 C23 1_555 1_555
H30 C24 1_555 1_555
H31 C24 1_555 1_555
H32 C24 1_555 1_555
H33 C25 1_555 1_555
H34 C25 1_555 1_555
H35 C26 1_555 1_555
H36 C26 1_555 1_555
C8 C9 1_555 1_555
C12 C13 1_555 1_555
C21 C22 1_555 1_555
C25 C26 1_555 1_555

#END
