
#######################################################################
#
#                 Cambridge Crystallographic Data Centre
#                                CCDC 
#
#######################################################################
#
# If this CIF has been generated from an entry in the Cambridge 
# Structural Database, then it will include bibliographic, chemical, 
# crystal, experimental, refinement or atomic coordinate data resulting 
# from the CCDC's data processing and validation procedures.
#
#######################################################################

data_HILCEN
_chemical_formula_moiety         'C25 H35 Cl1 Si2'
_chemical_name_systematic        
{5-chloro-2-[3-(trimethylsilyl)bicyclo[2.2.1]heptan-2-yl][1,1'-biphenyl]-3-yl}(trimethyl)silane
_symmetry_cell_setting           monoclinic
_symmetry_space_group_name_H-M   'P 21/n'
_symmetry_Int_Tables_number      14
_space_group_name_Hall           '-P 2yn'
loop_
_symmetry_equiv_pos_site_id
_symmetry_equiv_pos_as_xyz
1 x,y,z
2 1/2-x,1/2+y,1/2-z
3 -x,-y,-z
4 1/2+x,1/2-y,1/2+z
_cell_length_a                   12.1766(13)
_cell_length_b                   16.6765(18)
_cell_length_c                   12.2162(13)
_cell_angle_alpha                90
_cell_angle_beta                 94.647(2)
_cell_angle_gamma                90
_cell_volume                     2472.5
_exptl_crystal_description       block
_cell_formula_units_Z            4
loop_
_atom_site_label
_atom_site_type_symbol
_atom_site_fract_x
_atom_site_fract_y
_atom_site_fract_z
C1 C 0.4526(2) 0.11522(15) -0.07350(18)
H1 H 0.4910 0.0659 -0.0565
H2 H 0.5000 0.1597 -0.0531
H3 H 0.4314 0.1175 -0.1509
C2 C 0.2393(2) 0.03370(14) -0.04320(17)
H4 H 0.1632 0.0467 -0.0369
H5 H 0.2590 -0.0124 0.0013
H6 H 0.2503 0.0221 -0.1185
Cl1 Cl 0.66744(4) 0.09607(3) 0.32103(5)
Si1 Si 0.15510(4) -0.04905(3) 0.28496(4)
Si2 Si 0.32704(4) 0.12025(3) 0.00425(4)
C3 C 0.30443(17) -0.07228(13) 0.2811(2)
H7 H 0.3471 -0.0345 0.3259
H8 H 0.3244 -0.0688 0.2068
H9 H 0.3187 -0.1255 0.3085
C4 C 0.10865(13) 0.04767(9) 0.21358(14)
H10 H 0.0919 0.0323 0.1366
C5 C 0.17489(12) 0.12985(9) 0.20805(13)
H11 H 0.1708 0.1429 0.1296
C6 C 0.29825(12) 0.12932(8) 0.24327(13)
C7 C 0.34665(13) 0.13792(9) 0.35212(13)
C8 C 0.28848(13) 0.15827(10) 0.45127(13)
C9 C 0.28064(17) 0.10210(12) 0.53380(15)
H12 H 0.3091 0.0509 0.5257
C10 C 0.2306(2) 0.12153(16) 0.62860(18)
H13 H 0.2243 0.0829 0.6827
C11 C 0.19051(18) 0.19755(18) 0.64281(18)
H14 H 0.1553 0.2101 0.7053
C12 C 0.11452(19) -0.05880(12) 0.42813(18)
H15 H 0.1476 -0.1061 0.4613
H16 H 0.0358 -0.0628 0.4270
H17 H 0.1392 -0.0125 0.4699
C13 C 0.09527(13) 0.19058(10) 0.25687(14)
H18 H 0.1312 0.2386 0.2892
C14 C 0.00210(14) 0.20774(11) 0.16705(17)
H19 H 0.0314 0.2203 0.0976
H20 H -0.0439 0.2518 0.1879
C15 C -0.06289(15) 0.12784(12) 0.16032(19)
H21 H -0.1395 0.1363 0.1738
H22 H -0.0594 0.1027 0.0891
C16 C -0.00338(13) 0.07710(11) 0.25162(15)
H23 H -0.0488 0.0345 0.2798
C17 C 0.03420(14) 0.14043(11) 0.33685(15)
H24 H -0.0268 0.1690 0.3654
H25 H 0.0826 0.1189 0.3967
C18 C 0.46072(14) 0.12739(10) 0.37453(14)
H26 H 0.4921 0.1320 0.4462
C19 C 0.52596(13) 0.11040(10) 0.29122(15)
C20 C 0.48217(14) 0.10704(10) 0.18423(14)
H27 H 0.5284 0.0977 0.1286
C21 C 0.36956(13) 0.11733(9) 0.15751(13)
C22 C 0.2584(2) 0.21757(15) -0.03415(19)
H28 H 0.2910 0.2401 -0.0962
H29 H 0.2677 0.2540 0.0267
H30 H 0.1813 0.2086 -0.0527
C23 C 0.20279(16) 0.25436(14) 0.56459(18)
H31 H 0.1781 0.3063 0.5756
C24 C 0.25113(14) 0.23621(11) 0.46950(15)
H32 H 0.2590 0.2759 0.4172
C25 C 0.07348(19) -0.12739(12) 0.2040(2)
H33 H 0.0934 -0.1272 0.1295
H34 H -0.0037 -0.1160 0.2049
H35 H 0.0889 -0.1791 0.2360
loop_
_geom_bond_atom_site_label_1
_geom_bond_atom_site_label_2
_geom_bond_site_symmetry_1
_geom_bond_site_symmetry_2
C1 H1 1_555 1_555
H2 C1 1_555 1_555
H3 C1 1_555 1_555
C2 H4 1_555 1_555
H5 C2 1_555 1_555
H6 C2 1_555 1_555
Cl1 C19 1_555 1_555
Si1 C3 1_555 1_555
Si2 C1 1_555 1_555
C3 H7 1_555 1_555
H8 C3 1_555 1_555
H9 C3 1_555 1_555
C4 Si1 1_555 1_555
H10 C4 1_555 1_555
C5 C4 1_555 1_555
H11 C5 1_555 1_555
C6 C5 1_555 1_555
C7 C6 1_555 1_555
C8 C7 1_555 1_555
C9 C8 1_555 1_555
H12 C9 1_555 1_555
C10 C9 1_555 1_555
H13 C10 1_555 1_555
C11 C10 1_555 1_555
H14 C11 1_555 1_555
C12 Si1 1_555 1_555
H15 C12 1_555 1_555
H16 C12 1_555 1_555
H17 C12 1_555 1_555
C13 C5 1_555 1_555
H18 C13 1_555 1_555
C14 C13 1_555 1_555
H19 C14 1_555 1_555
H20 C14 1_555 1_555
C15 C14 1_555 1_555
H21 C15 1_555 1_555
H22 C15 1_555 1_555
C16 C4 1_555 1_555
H23 C16 1_555 1_555
C17 C13 1_555 1_555
H24 C17 1_555 1_555
H25 C17 1_555 1_555
C18 C7 1_555 1_555
H26 C18 1_555 1_555
C19 C18 1_555 1_555
C20 C19 1_555 1_555
H27 C20 1_555 1_555
C21 Si2 1_555 1_555
C22 Si2 1_555 1_555
H28 C22 1_555 1_555
H29 C22 1_555 1_555
H30 C22 1_555 1_555
C23 C11 1_555 1_555
H31 C23 1_555 1_555
C24 C8 1_555 1_555
H32 C24 1_555 1_555
C25 Si1 1_555 1_555
H33 C25 1_555 1_555
H34 C25 1_555 1_555
H35 C25 1_555 1_555
C2 Si2 1_555 1_555
C6 C21 1_555 1_555
C15 C16 1_555 1_555
C16 C17 1_555 1_555
C20 C21 1_555 1_555
C23 C24 1_555 1_555

#END
