
#######################################################################
#
#                 Cambridge Crystallographic Data Centre
#                                CCDC 
#
#######################################################################
#
# If this CIF has been generated from an entry in the Cambridge 
# Structural Database, then it will include bibliographic, chemical, 
# crystal, experimental, refinement or atomic coordinate data resulting 
# from the CCDC's data processing and validation procedures.
#
#######################################################################

data_HILLOF
_chemical_formula_moiety         'C18 H20 N4 O1'
_chemical_name_systematic        
3-(3-Aminopropyl)-2-((4-methylphenyl)amino)quinazolin-4(3H)-one
_symmetry_cell_setting           orthorhombic
_symmetry_space_group_name_H-M   'P 21 21 21'
_symmetry_Int_Tables_number      19
_space_group_name_Hall           'P 2ac 2ab'
loop_
_symmetry_equiv_pos_site_id
_symmetry_equiv_pos_as_xyz
1 x,y,z
2 1/2-x,-y,1/2+z
3 -x,1/2+y,1/2-z
4 1/2+x,1/2-y,-z
_cell_length_a                   15.7016(12)
_cell_length_b                   17.6118(14)
_cell_length_c                   23.5650(18)
_cell_angle_alpha                90
_cell_angle_beta                 90
_cell_angle_gamma                90
_cell_volume                     6516.51
_exptl_crystal_colour            colorless
_exptl_crystal_description       needle
_cell_formula_units_Z            16
_exptl_crystal_recrystallization_method methanol/dichloromethane
loop_
_atom_site_label
_atom_site_type_symbol
_atom_site_fract_x
_atom_site_fract_y
_atom_site_fract_z
C1 C 0.0838(2) 0.37686(16) 0.84851(12)
C2 C 0.0232(2) 0.35604(19) 0.80833(14)
H1 H 0.0254 0.3766 0.7720
C3 C -0.0392(2) 0.3057(2) 0.82200(15)
H2 H -0.0802 0.2929 0.7951
C4 C -0.0424(2) 0.27333(18) 0.87571(15)
H3 H -0.0842 0.2377 0.8842
C5 C 0.01609(19) 0.29381(17) 0.91630(13)
H4 H 0.0135 0.2723 0.9523
C6 C 0.07954(18) 0.34698(15) 0.90349(12)
C7 C 0.19416(18) 0.41753(15) 0.93325(12)
C8 C 0.15116(19) 0.42951(17) 0.83491(12)
C9 C 0.24627(18) 0.41634(16) 1.03120(12)
C10 C 0.2425(2) 0.34023(16) 1.04498(13)
H5 H 0.2405 0.3040 1.0163
C11 C 0.2416(2) 0.31789(18) 1.10059(14)
H6 H 0.2382 0.2663 1.1088
C12 C 0.2454(2) 0.3689(2) 1.14496(14)
C13 C 0.2514(2) 0.44494(19) 1.13084(14)
H7 H 0.2559 0.4809 1.1596
C14 C 0.2510(2) 0.46865(17) 1.07490(13)
H8 H 0.2540 0.5202 1.0666
C15 C 0.2431(3) 0.3432(3) 1.20643(15)
H9 H 0.3002 0.3383 1.2205
H10 H 0.2147 0.2950 1.2089
H11 H 0.2129 0.3800 1.2288
C16 C 0.2823(2) 0.49314(17) 0.86414(14)
H12 H 0.3037 0.4764 0.8276
H13 H 0.3267 0.4843 0.8920
C17 C 0.2650(2) 0.57732(19) 0.86113(15)
H14 H 0.3163 0.6024 0.8479
H15 H 0.2211 0.5859 0.8329
C18 C 0.2376(2) 0.61441(18) 0.91561(17)
H16 H 0.2326 0.6688 0.9099
H17 H 0.1822 0.5951 0.9267
N1 N 0.13520(16) 0.36945(13) 0.94584(10)
N2 N 0.20749(15) 0.44658(13) 0.87924(10)
N3 N 0.24909(15) 0.44250(13) 0.97429(10)
H18 H 0.2541 0.4910 0.9720
N4 N 0.2990(2) 0.59931(16) 0.96069(12)
H19 H 0.3477 0.6199 0.9520
H20 H 0.2803 0.6189 0.9922
O1 O 0.16197(15) 0.45779(14) 0.78766(9)
C19 C 0.5319(2) 0.33559(17) 0.86679(13)
C20 C 0.4687(3) 0.3152(2) 0.82817(15)
H21 H 0.4796 0.3174 0.7894
C21 C 0.3908(3) 0.2921(2) 0.84729(16)
H22 H 0.3485 0.2783 0.8216
C22 C 0.3751(2) 0.28931(19) 0.90522(15)
H23 H 0.3223 0.2728 0.9181
C23 C 0.43561(19) 0.31037(16) 0.94352(13)
H24 H 0.4233 0.3097 0.9821
C24 C 0.5169(2) 0.33324(15) 0.92477(12)
C25 C 0.6500(2) 0.37970(16) 0.94609(13)
C26 C 0.6153(2) 0.35942(19) 0.84689(15)
C27 C 0.71023(18) 0.39857(16) 1.04219(12)
C28 C 0.68285(19) 0.33296(16) 1.06913(13)
H25 H 0.6605 0.2931 1.0480
C29 C 0.6888(2) 0.32702(16) 1.12714(13)
H26 H 0.6690 0.2830 1.1446
C30 C 0.7229(2) 0.38405(17) 1.16076(13)
C31 C 0.7498(2) 0.44864(17) 1.13291(14)
H27 H 0.7727 0.4883 1.1540
C32 C 0.7438(2) 0.45628(16) 1.07443(14)
H28 H 0.7625 0.5006 1.0570
C33 C 0.7265(3) 0.3771(2) 1.22431(14)
H29 H 0.7690 0.4110 1.2390
H30 H 0.7407 0.3259 1.2345
H31 H 0.6720 0.3900 1.2401
C34 C 0.7605(2) 0.39798(18) 0.86953(14)
H32 H 0.7773 0.3602 0.8417
H33 H 0.7988 0.3934 0.9017
C35 C 0.7712(2) 0.47619(18) 0.84370(15)
H34 H 0.8310 0.4833 0.8348
H35 H 0.7400 0.4775 0.8082
C36 C 0.7426(2) 0.54176(19) 0.87917(15)
H36 H 0.7566 0.5887 0.8599
H37 H 0.6812 0.5397 0.8834
N5 N 0.57672(15) 0.35594(13) 0.96476(10)
N6 N 0.67222(15) 0.38112(13) 0.88881(10)
N7 N 0.71120(15) 0.40628(14) 0.98216(10)
H38 H 0.7337 0.4498 0.9750
N8 N 0.78219(18) 0.54179(15) 0.93544(12)
H39 H 0.8338 0.5595 0.9328
H40 H 0.7526 0.5705 0.9581
O2 O 0.63666(18) 0.35973(17) 0.79692(10)
C37 C 0.2217(2) 0.84350(16) 0.86550(12)
C38 C 0.2855(3) 0.82195(19) 0.82731(14)
H41 H 0.2756 0.8247 0.7885
C39 C 0.3624(2) 0.7969(2) 0.84702(15)
H42 H 0.4046 0.7823 0.8216
C40 C 0.3774(2) 0.79317(18) 0.90494(15)
H43 H 0.4299 0.7761 0.9181
C41 C 0.31590(19) 0.81448(16) 0.94298(13)
H44 H 0.3269 0.8119 0.9817
C42 C 0.23657(19) 0.84016(14) 0.92382(12)
C43 C 0.1042(2) 0.88848(16) 0.94430(12)
C44 C 0.1400(2) 0.86956(17) 0.84512(14)
C45 C 0.04244(18) 0.90603(15) 1.03950(12)
C46 C 0.06970(19) 0.84031(16) 1.06633(12)
H45 H 0.0935 0.8011 1.0452
C47 C 0.0615(2) 0.83292(17) 1.12436(13)
H46 H 0.0798 0.7883 1.1416
C48 C 0.0271(2) 0.88941(19) 1.15764(13)
C49 C 0.0005(2) 0.95521(18) 1.13046(14)
H47 H -0.0226 0.9945 1.1519
C50 C 0.0075(2) 0.96363(16) 1.07291(14)
H48 H -0.0112 1.0082 1.0559
C51 C 0.0180(3) 0.8811(2) 1.22103(14)
H49 H 0.0574 0.8434 1.2345
H50 H -0.0391 0.8657 1.2300
H51 H 0.0300 0.9288 1.2390
C52 C -0.0061(2) 0.90821(17) 0.86680(14)
H52 H -0.0450 0.9037 0.8986
H53 H -0.0224 0.8704 0.8389
C53 C -0.0167(2) 0.98655(18) 0.84057(14)
H54 H 0.0151 0.9880 0.8053
H55 H -0.0764 0.9937 0.8312
C54 C 0.0115(2) 1.05175(18) 0.87685(14)
H56 H 0.0728 1.0498 0.8813
H57 H -0.0026 1.0990 0.8579
N9 N 0.17650(15) 0.86361(13) 0.96306(9)
N10 N 0.08138(15) 0.89098(13) 0.88689(10)
N11 N 0.04237(16) 0.91519(14) 0.98018(10)
H58 H 0.0149 0.9567 0.9742
N12 N -0.02850(17) 1.05084(15) 0.93313(11)
H59 H -0.0091 1.0888 0.9529
H60 H -0.0834 1.0552 0.9294
O3 O 0.11815(17) 0.87090(15) 0.79499(10)
C55 C 0.3335(2) 0.37111(16) 0.65449(13)
C56 C 0.2740(3) 0.3523(2) 0.69663(16)
H61 H 0.2784 0.3734 0.7327
C57 C 0.2099(3) 0.3030(2) 0.68432(19)
H62 H 0.1697 0.2909 0.7118
C58 C 0.2046(2) 0.27072(19) 0.63103(18)
H63 H 0.1617 0.2358 0.6233
C59 C 0.2613(2) 0.28943(17) 0.58956(16)
H64 H 0.2565 0.2673 0.5539
C60 C 0.3265(2) 0.34131(16) 0.59997(13)
C61 C 0.43988(19) 0.41106(16) 0.56739(12)
C62 C 0.4027(2) 0.42432(18) 0.66667(14)
C63 C 0.48898(18) 0.40778(15) 0.46858(12)
C64 C 0.4846(2) 0.33162(16) 0.45576(13)
H65 H 0.4826 0.2960 0.4848
C65 C 0.4833(2) 0.30802(18) 0.39995(15)
H66 H 0.4790 0.2564 0.3922
C66 C 0.4881(2) 0.3588(2) 0.35500(14)
C67 C 0.4962(2) 0.43481(19) 0.36872(14)
H67 H 0.5016 0.4704 0.3398
C68 C 0.4965(2) 0.45877(16) 0.42402(13)
H68 H 0.5018 0.5103 0.4318
C69 C 0.4841(3) 0.3324(3) 0.29421(15)
H69 H 0.5051 0.3718 0.2698
H70 H 0.4262 0.3209 0.2844
H71 H 0.5185 0.2878 0.2898
C70 C 0.5299(2) 0.48967(17) 0.63341(14)
H72 H 0.5735 0.4801 0.6052
H73 H 0.5528 0.4754 0.6701
C71 C 0.5094(2) 0.57421(18) 0.63394(14)
H74 H 0.4638 0.5828 0.6610
H75 H 0.5591 0.6013 0.6476
C72 C 0.4837(2) 0.60788(18) 0.57841(15)
H76 H 0.4290 0.5873 0.5672
H77 H 0.4774 0.6624 0.5826
N13 N 0.38005(16) 0.36214(13) 0.55625(11)
N14 N 0.45530(15) 0.44158(13) 0.62090(10)
N15 N 0.49302(16) 0.43508(13) 0.52515(10)
H78 H 0.4989 0.4836 0.5264
N16 N 0.54678(19) 0.59192(14) 0.53396(11)
H79 H 0.5310 0.6136 0.5025
H80 H 0.5961 0.6098 0.5443
O4 O 0.41625(17) 0.45295(15) 0.71347(10)
loop_
_geom_bond_atom_site_label_1
_geom_bond_atom_site_label_2
_geom_bond_site_symmetry_1
_geom_bond_site_symmetry_2
C1 C2 1_555 1_555
C2 H1 1_555 1_555
C3 C2 1_555 1_555
H2 C3 1_555 1_555
C4 C3 1_555 1_555
H3 C4 1_555 1_555
C5 C4 1_555 1_555
H4 C5 1_555 1_555
C6 C1 1_555 1_555
C7 N1 1_555 1_555
C8 C1 1_555 1_555
C9 C10 1_555 1_555
C10 H5 1_555 1_555
C11 C10 1_555 1_555
H6 C11 1_555 1_555
C12 C11 1_555 1_555
C13 C12 1_555 1_555
H7 C13 1_555 1_555
C14 C9 1_555 1_555
H8 C14 1_555 1_555
C15 C12 1_555 1_555
H9 C15 1_555 1_555
H10 C15 1_555 1_555
H11 C15 1_555 1_555
C16 H12 1_555 1_555
H13 C16 1_555 1_555
C17 C16 1_555 1_555
H14 C17 1_555 1_555
H15 C17 1_555 1_555
C18 C17 1_555 1_555
H16 C18 1_555 1_555
H17 C18 1_555 1_555
N1 C6 1_555 1_555
N2 C7 1_555 1_555
N3 C7 1_555 1_555
H18 N3 1_555 1_555
N4 C18 1_555 1_555
H19 N4 1_555 1_555
H20 N4 1_555 1_555
O1 C8 1_555 1_555
C19 C20 1_555 1_555
C20 H21 1_555 1_555
C21 C20 1_555 1_555
H22 C21 1_555 1_555
C22 C21 1_555 1_555
H23 C22 1_555 1_555
C23 C22 1_555 1_555
H24 C23 1_555 1_555
C24 C19 1_555 1_555
C25 N5 1_555 1_555
C26 C19 1_555 1_555
C27 C28 1_555 1_555
C28 H25 1_555 1_555
C29 C28 1_555 1_555
H26 C29 1_555 1_555
C30 C29 1_555 1_555
C31 C30 1_555 1_555
H27 C31 1_555 1_555
C32 C27 1_555 1_555
H28 C32 1_555 1_555
C33 C30 1_555 1_555
H29 C33 1_555 1_555
H30 C33 1_555 1_555
H31 C33 1_555 1_555
C34 H32 1_555 1_555
H33 C34 1_555 1_555
C35 C34 1_555 1_555
H34 C35 1_555 1_555
H35 C35 1_555 1_555
C36 C35 1_555 1_555
H36 C36 1_555 1_555
H37 C36 1_555 1_555
N5 C24 1_555 1_555
N6 C25 1_555 1_555
N7 C25 1_555 1_555
H38 N7 1_555 1_555
N8 C36 1_555 1_555
H39 N8 1_555 1_555
H40 N8 1_555 1_555
O2 C26 1_555 1_555
C37 C38 1_555 1_555
C38 H41 1_555 1_555
C39 C38 1_555 1_555
H42 C39 1_555 1_555
C40 C39 1_555 1_555
H43 C40 1_555 1_555
C41 C40 1_555 1_555
H44 C41 1_555 1_555
C42 C37 1_555 1_555
C43 N9 1_555 1_555
C44 C37 1_555 1_555
C45 C46 1_555 1_555
C46 H45 1_555 1_555
C47 C46 1_555 1_555
H46 C47 1_555 1_555
C48 C47 1_555 1_555
C49 C48 1_555 1_555
H47 C49 1_555 1_555
C50 C45 1_555 1_555
H48 C50 1_555 1_555
C51 C48 1_555 1_555
H49 C51 1_555 1_555
H50 C51 1_555 1_555
H51 C51 1_555 1_555
C52 H52 1_555 1_555
H53 C52 1_555 1_555
C53 C52 1_555 1_555
H54 C53 1_555 1_555
H55 C53 1_555 1_555
C54 C53 1_555 1_555
H56 C54 1_555 1_555
H57 C54 1_555 1_555
N9 C42 1_555 1_555
N10 C43 1_555 1_555
N11 C43 1_555 1_555
H58 N11 1_555 1_555
N12 C54 1_555 1_555
H59 N12 1_555 1_555
H60 N12 1_555 1_555
O3 C44 1_555 1_555
C55 C56 1_555 1_555
C56 H61 1_555 1_555
C57 C56 1_555 1_555
H62 C57 1_555 1_555
C58 C57 1_555 1_555
H63 C58 1_555 1_555
C59 C58 1_555 1_555
H64 C59 1_555 1_555
C60 C55 1_555 1_555
C61 N13 1_555 1_555
C62 C55 1_555 1_555
C63 C64 1_555 1_555
C64 H65 1_555 1_555
C65 C64 1_555 1_555
H66 C65 1_555 1_555
C66 C65 1_555 1_555
C67 C66 1_555 1_555
H67 C67 1_555 1_555
C68 C63 1_555 1_555
H68 C68 1_555 1_555
C69 C66 1_555 1_555
H69 C69 1_555 1_555
H70 C69 1_555 1_555
H71 C69 1_555 1_555
C70 H72 1_555 1_555
H73 C70 1_555 1_555
C71 C70 1_555 1_555
H74 C71 1_555 1_555
H75 C71 1_555 1_555
C72 C71 1_555 1_555
H76 C72 1_555 1_555
H77 C72 1_555 1_555
N13 C60 1_555 1_555
N14 C61 1_555 1_555
N15 C61 1_555 1_555
H78 N15 1_555 1_555
N16 C72 1_555 1_555
H79 N16 1_555 1_555
H80 N16 1_555 1_555
O4 C62 1_555 1_555
C5 C6 1_555 1_555
C8 N2 1_555 1_555
C9 N3 1_555 1_555
C13 C14 1_555 1_555
C16 N2 1_555 1_555
C23 C24 1_555 1_555
C26 N6 1_555 1_555
C27 N7 1_555 1_555
C31 C32 1_555 1_555
C34 N6 1_555 1_555
C41 C42 1_555 1_555
C44 N10 1_555 1_555
C45 N11 1_555 1_555
C49 C50 1_555 1_555
C52 N10 1_555 1_555
C59 C60 1_555 1_555
C62 N14 1_555 1_555
C63 N15 1_555 1_555
C67 C68 1_555 1_555
C70 N14 1_555 1_555

#END
