
#######################################################################
#
#                 Cambridge Crystallographic Data Centre
#                                CCDC 
#
#######################################################################
#
# If this CIF has been generated from an entry in the Cambridge 
# Structural Database, then it will include bibliographic, chemical, 
# crystal, experimental, refinement or atomic coordinate data resulting 
# from the CCDC's data processing and validation procedures.
#
#######################################################################

data_HILNEY
_chemical_formula_moiety         'C21 H26 O4'
_chemical_name_systematic        
8-butoxy-7-methoxy-3-phenyl-1,3,4,5-tetrahydro-2-benzoxepin-4-ol
_symmetry_cell_setting           monoclinic
_symmetry_space_group_name_H-M   'P 21/n'
_symmetry_Int_Tables_number      14
_space_group_name_Hall           '-P 2yn'
loop_
_symmetry_equiv_pos_site_id
_symmetry_equiv_pos_as_xyz
1 x,y,z
2 1/2-x,1/2+y,1/2-z
3 -x,-y,-z
4 1/2+x,1/2-y,1/2+z
_cell_length_a                   12.0101(14)
_cell_length_b                   10.6094(13)
_cell_length_c                   15.9081(19)
_cell_angle_alpha                90
_cell_angle_beta                 111.667(3)
_cell_angle_gamma                90
_cell_volume                     1883.79
_exptl_crystal_colour            colorless
_cell_formula_units_Z            4
loop_
_atom_site_label
_atom_site_type_symbol
_atom_site_fract_x
_atom_site_fract_y
_atom_site_fract_z
O1 O 0.71381(9) 0.62912(9) 0.14053(7)
O2 O 0.26440(9) 0.66226(9) 0.20502(6)
O3 O 0.71643(9) 0.87064(9) 0.13461(7)
O4 O 0.14546(9) 0.98308(10) 0.16238(7)
H1 H 0.1702(16) 1.0513(18) 0.1987(12)
C1 C 0.95145(14) 0.26426(15) 0.11482(11)
H2 H 0.9614 0.3019 0.0618
H3 H 0.9500 0.1722 0.1094
H4 H 1.0184 0.2895 0.1696
C2 C 0.83447(14) 0.30949(14) 0.12061(10)
H5 H 0.8251 0.2715 0.1745
H6 H 0.7669 0.2801 0.0665
C3 C 0.82862(13) 0.45288(14) 0.12678(10)
H7 H 0.8941 0.4824 0.1821
H8 H 0.8404 0.4914 0.0740
C4 C 0.70987(13) 0.49500(13) 0.12912(10)
H9 H 0.6442 0.4716 0.0720
H10 H 0.6952 0.4537 0.1799
C5 C 0.60980(13) 0.68679(13) 0.13577(9)
C6 C 0.50789(13) 0.62582(13) 0.13552(9)
H11 H 0.5078 0.5366 0.1404
C7 C 0.40487(13) 0.69385(13) 0.12823(9)
C8 C 0.29622(13) 0.62503(13) 0.12953(9)
H12 H 0.2279 0.6421 0.0725
H13 H 0.3121 0.5332 0.1329
C9 C 0.18128(13) 0.76518(13) 0.18772(9)
H14 H 0.1146 0.7500 0.1284
C10 C 0.13033(13) 0.76260(12) 0.26135(9)
C11 C 0.20571(13) 0.76383(13) 0.35258(10)
H15 H 0.2901 0.7674 0.3685
C12 C 0.15831(14) 0.75984(13) 0.42002(10)
H16 H 0.2101 0.7603 0.4818
C13 C 0.03528(14) 0.75522(13) 0.39704(10)
H17 H 0.0027 0.7529 0.4431
C14 C 0.61062(13) 0.81924(13) 0.13161(9)
C15 C 0.71971(14) 1.00347(14) 0.12259(11)
H18 H 0.6586 1.0272 0.0643
H19 H 0.7990 1.0279 0.1238
H20 H 0.7038 1.0467 0.1714
C16 C 0.50857(13) 0.88655(13) 0.12446(9)
H21 H 0.5095 0.9759 0.1214
C17 C 0.40413(13) 0.82478(13) 0.12168(9)
C18 C 0.29225(13) 0.90044(13) 0.10868(9)
H22 H 0.2295 0.8736 0.0510
H23 H 0.3100 0.9901 0.1018
C19 C 0.24006(13) 0.89186(13) 0.18290(9)
H24 H 0.3037 0.9115 0.2429
C20 C 0.00709(13) 0.75781(13) 0.23912(10)
H25 H -0.0451 0.7572 0.1774
C21 C -0.04026(14) 0.75393(13) 0.30675(10)
H26 H -0.1246 0.7504 0.2911
loop_
_geom_bond_atom_site_label_1
_geom_bond_atom_site_label_2
_geom_bond_site_symmetry_1
_geom_bond_site_symmetry_2
O1 C4 1_555 1_555
O2 C8 1_555 1_555
O3 C14 1_555 1_555
O4 H1 1_555 1_555
C1 H2 1_555 1_555
H3 C1 1_555 1_555
H4 C1 1_555 1_555
C2 C1 1_555 1_555
H5 C2 1_555 1_555
H6 C2 1_555 1_555
C3 C2 1_555 1_555
H7 C3 1_555 1_555
H8 C3 1_555 1_555
C4 C3 1_555 1_555
H9 C4 1_555 1_555
H10 C4 1_555 1_555
C5 O1 1_555 1_555
C6 C5 1_555 1_555
H11 C6 1_555 1_555
C7 C6 1_555 1_555
C8 C7 1_555 1_555
H12 C8 1_555 1_555
H13 C8 1_555 1_555
C9 O2 1_555 1_555
H14 C9 1_555 1_555
C10 C9 1_555 1_555
C11 C10 1_555 1_555
H15 C11 1_555 1_555
C12 C11 1_555 1_555
H16 C12 1_555 1_555
C13 C12 1_555 1_555
H17 C13 1_555 1_555
C14 C5 1_555 1_555
C15 O3 1_555 1_555
H18 C15 1_555 1_555
H19 C15 1_555 1_555
H20 C15 1_555 1_555
C16 C14 1_555 1_555
H21 C16 1_555 1_555
C17 C7 1_555 1_555
C18 C17 1_555 1_555
H22 C18 1_555 1_555
H23 C18 1_555 1_555
C19 O4 1_555 1_555
H24 C19 1_555 1_555
C20 C10 1_555 1_555
H25 C20 1_555 1_555
C21 C13 1_555 1_555
H26 C21 1_555 1_555
C9 C19 1_555 1_555
C16 C17 1_555 1_555
C18 C19 1_555 1_555
C20 C21 1_555 1_555

#END
