
#######################################################################
#
#                 Cambridge Crystallographic Data Centre
#                                CCDC 
#
#######################################################################
#
# If this CIF has been generated from an entry in the Cambridge 
# Structural Database, then it will include bibliographic, chemical, 
# crystal, experimental, refinement or atomic coordinate data resulting 
# from the CCDC's data processing and validation procedures.
#
#######################################################################

data_HILNIA
_chemical_formula_moiety         'C22 H32 N2 O2'
_chemical_name_systematic        1,10-bis(2-aminophenoxy)decane
_symmetry_cell_setting           triclinic
_symmetry_space_group_name_H-M   'P -1'
_symmetry_Int_Tables_number      2
_space_group_name_Hall           '-P 1'
loop_
_symmetry_equiv_pos_site_id
_symmetry_equiv_pos_as_xyz
1 x,y,z
2 -x,-y,-z
_cell_length_a                   6.0138(9)
_cell_length_b                   7.1653(10)
_cell_length_c                   25.932(4)
_cell_angle_alpha                84.666(6)
_cell_angle_beta                 88.774(7)
_cell_angle_gamma                71.078(4)
_cell_volume                     1052.42
_exptl_crystal_colour            colorless
_exptl_crystal_description       Prism
_cell_formula_units_Z            2
_exptl_crystal_recrystallization_method ethanol/dichloromethane
loop_
_atom_site_label
_atom_site_type_symbol
_atom_site_fract_x
_atom_site_fract_y
_atom_site_fract_z
C1 C -0.4800(3) 0.6252(2) 0.30398(7)
C2 C -0.6094(3) 0.5138(3) 0.28764(7)
H1 H -0.7256 0.5696 0.2624
C3 C -0.5696(4) 0.3215(3) 0.30801(8)
H2 H -0.6589 0.2485 0.2967
C4 C -0.3988(4) 0.2378(3) 0.34489(8)
H3 H -0.3713 0.1075 0.3586
C5 C -0.2663(3) 0.3465(3) 0.36198(7)
H4 H -0.1489 0.2888 0.3868
C6 C -0.3083(3) 0.5398(2) 0.34220(7)
C7 C -0.0239(3) 0.5993(3) 0.39754(7)
H5 H 0.1087 0.4899 0.3875
H6 H -0.0911 0.5554 0.4288
C8 C 0.0530(3) 0.7731(3) 0.40642(7)
H7 H -0.0840 0.8810 0.4153
H8 H 0.1138 0.8163 0.3742
C9 C 0.2379(3) 0.7359(3) 0.44833(7)
H9 H 0.3784 0.6316 0.4393
H10 H 0.1800 0.6916 0.4808
C10 C 0.2990(4) 0.9216(3) 0.45502(8)
H11 H 0.3592 0.9624 0.4224
H12 H 0.1553 1.0262 0.4622
C11 C 0.4746(4) 0.9042(3) 0.49681(7)
H13 H 0.6206 0.8031 0.4892
H14 H 0.4171 0.8605 0.5294
N1 N -0.5123(3) 0.8182(2) 0.28294(7)
H29 H -0.6158 0.8717 0.2589
H30 H -0.4288 0.8838 0.2940
O1 O -0.1958(2) 0.66528(17) 0.35693(5)
C1A C 1.4800(3) 1.3748(2) 0.69602(7)
C2A C 1.6094(3) 1.4862(3) 0.71236(7)
H1A H 1.7256 1.4304 0.7376
C3A C 1.5696(4) 1.6785(3) 0.69199(8)
H2A H 1.6589 1.7515 0.7033
C4A C 1.3988(4) 1.7622(3) 0.65511(8)
H3A H 1.3713 1.8925 0.6414
C5A C 1.2663(3) 1.6535(3) 0.63802(7)
H4A H 1.1489 1.7112 0.6132
C6A C 1.3083(3) 1.4602(2) 0.65780(7)
C7A C 1.0239(3) 1.4007(3) 0.60246(7)
H5A H 0.8913 1.5101 0.6125
H6A H 1.0911 1.4446 0.5712
C8A C 0.9470(3) 1.2269(3) 0.59358(7)
H7A H 1.0840 1.1190 0.5847
H8A H 0.8862 1.1837 0.6258
C9A C 0.7621(3) 1.2641(3) 0.55167(7)
H9A H 0.6216 1.3684 0.5607
H10A H 0.8200 1.3084 0.5192
C10A C 0.7010(4) 1.0784(3) 0.54498(8)
H11A H 0.6408 1.0376 0.5776
H12A H 0.8447 0.9738 0.5378
C11A C 0.5254(4) 1.0958(3) 0.50319(7)
H13A H 0.3794 1.1969 0.5108
H14A H 0.5829 1.1395 0.4706
N1A N 1.5123(3) 1.1818(2) 0.71706(7)
H29A H 1.6158 1.1283 0.7411
H30A H 1.4288 1.1162 0.7060
O1A O 1.1958(2) 1.33472(17) 0.64307(5)
C12 C -0.0083(3) 0.9033(3) 0.18955(8)
C13 C -0.1008(4) 1.0721(3) 0.21528(8)
H15 H -0.2335 1.0855 0.2356
C14 C -0.0016(4) 1.2196(3) 0.21158(8)
H16 H -0.0656 1.3304 0.2298
C15 C 0.1925(4) 1.2053(3) 0.18105(8)
H17 H 0.2596 1.3059 0.1784
C16 C 0.2869(4) 1.0378(3) 0.15426(7)
H18 H 0.4174 1.0267 0.1334
C17 C 0.1884(3) 0.8893(3) 0.15847(7)
C18 C 0.4753(3) 0.6741(3) 0.10493(8)
H19 H 0.6034 0.6890 0.1245
H20 H 0.4489 0.7643 0.0737
C19 C 0.5331(4) 0.4638(3) 0.09153(8)
H21 H 0.3967 0.4508 0.0748
H22 H 0.5623 0.3771 0.1234
C20 C 0.7430(4) 0.3932(3) 0.05650(8)
H23 H 0.7179 0.4812 0.0249
H24 H 0.8823 0.3987 0.0736
C21 C 0.7829(4) 0.1840(3) 0.04315(8)
H25 H 0.6402 0.1792 0.0274
H26 H 0.8104 0.0973 0.0750
C22 C 0.9851(4) 0.1039(3) 0.00703(8)
H27 H 1.1292 0.1034 0.0232
H28 H 0.9607 0.1923 -0.0245
N2 N -0.1044(3) 0.7523(2) 0.19298(8)
H31 H -0.2266 0.7609 0.2117
H32 H -0.0422 0.6495 0.1764
O2 O 0.2675(2) 0.71497(19) 0.13528(5)
C12A C 2.0083(3) -0.9033(3) -0.18955(8)
C13A C 2.1008(4) -1.0721(3) -0.21528(8)
H15A H 2.2335 -1.0855 -0.2356
C14A C 2.0016(4) -1.2196(3) -0.21158(8)
H16A H 2.0656 -1.3304 -0.2298
C15A C 1.8075(4) -1.2053(3) -0.18105(8)
H17A H 1.7404 -1.3059 -0.1784
C16A C 1.7131(4) -1.0378(3) -0.15426(7)
H18A H 1.5826 -1.0267 -0.1334
C17A C 1.8116(3) -0.8893(3) -0.15847(7)
C18A C 1.5247(3) -0.6741(3) -0.10493(8)
H19A H 1.3966 -0.6890 -0.1245
H20A H 1.5511 -0.7643 -0.0737
C19A C 1.4669(4) -0.4638(3) -0.09153(8)
H21A H 1.6033 -0.4508 -0.0748
H22A H 1.4377 -0.3771 -0.1234
C20A C 1.2570(4) -0.3932(3) -0.05650(8)
H23A H 1.2821 -0.4812 -0.0249
H24A H 1.1177 -0.3987 -0.0736
C21A C 1.2171(4) -0.1840(3) -0.04315(8)
H25A H 1.3598 -0.1792 -0.0274
H26A H 1.1896 -0.0973 -0.0750
C22A C 1.0149(4) -0.1039(3) -0.00703(8)
H27A H 0.8708 -0.1034 -0.0232
H28A H 1.0393 -0.1923 0.0245
N2A N 2.1044(3) -0.7523(2) -0.19298(8)
H31A H 2.2266 -0.7609 -0.2117
H32A H 2.0422 -0.6495 -0.1764
O2A O 1.7325(2) -0.71497(19) -0.13528(5)
loop_
_geom_bond_atom_site_label_1
_geom_bond_atom_site_label_2
_geom_bond_site_symmetry_1
_geom_bond_site_symmetry_2
C1 C2 1_555 1_555
C2 H1 1_555 1_555
C3 C2 1_555 1_555
H2 C3 1_555 1_555
C4 C3 1_555 1_555
H3 C4 1_555 1_555
C5 C4 1_555 1_555
H4 C5 1_555 1_555
C6 C1 1_555 1_555
C7 H5 1_555 1_555
H6 C7 1_555 1_555
C8 C7 1_555 1_555
H7 C8 1_555 1_555
H8 C8 1_555 1_555
C9 C8 1_555 1_555
H9 C9 1_555 1_555
H10 C9 1_555 1_555
C10 C9 1_555 1_555
H11 C10 1_555 1_555
H12 C10 1_555 1_555
C11 C10 1_555 1_555
H13 C11 1_555 1_555
H14 C11 1_555 1_555
C12 C13 1_555 1_555
C13 H15 1_555 1_555
C14 C13 1_555 1_555
H16 C14 1_555 1_555
C15 C14 1_555 1_555
H17 C15 1_555 1_555
C16 C15 1_555 1_555
H18 C16 1_555 1_555
C17 C12 1_555 1_555
C18 H19 1_555 1_555
H20 C18 1_555 1_555
C19 C18 1_555 1_555
H21 C19 1_555 1_555
H22 C19 1_555 1_555
C20 C19 1_555 1_555
H23 C20 1_555 1_555
H24 C20 1_555 1_555
C21 C20 1_555 1_555
H25 C21 1_555 1_555
H26 C21 1_555 1_555
C22 C21 1_555 1_555
H27 C22 1_555 1_555
H28 C22 1_555 1_555
N1 C1 1_555 1_555
H29 N1 1_555 1_555
H30 N1 1_555 1_555
N2 C12 1_555 1_555
H31 N2 1_555 1_555
H32 N2 1_555 1_555
O1 C6 1_555 1_555
O2 C17 1_555 1_555
C1A C2A 1_555 1_555
C2A H1A 1_555 1_555
C3A C2A 1_555 1_555
H2A C3A 1_555 1_555
C4A C3A 1_555 1_555
H3A C4A 1_555 1_555
C5A C4A 1_555 1_555
H4A C5A 1_555 1_555
C6A C1A 1_555 1_555
C7A H5A 1_555 1_555
H6A C7A 1_555 1_555
C8A C7A 1_555 1_555
H7A C8A 1_555 1_555
H8A C8A 1_555 1_555
C9A C8A 1_555 1_555
H9A C9A 1_555 1_555
H10A C9A 1_555 1_555
C10A C9A 1_555 1_555
H11A C10A 1_555 1_555
H12A C10A 1_555 1_555
C11A C11 1_555 1_555
H13A C11A 1_555 1_555
H14A C11A 1_555 1_555
C12A C13A 1_555 1_555
C13A H15A 1_555 1_555
C14A C13A 1_555 1_555
H16A C14A 1_555 1_555
C15A C14A 1_555 1_555
H17A C15A 1_555 1_555
C16A C15A 1_555 1_555
H18A C16A 1_555 1_555
C17A C12A 1_555 1_555
C18A H19A 1_555 1_555
H20A C18A 1_555 1_555
C19A C18A 1_555 1_555
H21A C19A 1_555 1_555
H22A C19A 1_555 1_555
C20A C19A 1_555 1_555
H23A C20A 1_555 1_555
H24A C20A 1_555 1_555
C21A C20A 1_555 1_555
H25A C21A 1_555 1_555
H26A C21A 1_555 1_555
C22A C22 1_555 1_555
H27A C22A 1_555 1_555
H28A C22A 1_555 1_555
N1A C1A 1_555 1_555
H29A N1A 1_555 1_555
H30A N1A 1_555 1_555
N2A C12A 1_555 1_555
H31A N2A 1_555 1_555
H32A N2A 1_555 1_555
O1A C6A 1_555 1_555
O2A C17A 1_555 1_555
C5 C6 1_555 1_555
C7 O1 1_555 1_555
C16 C17 1_555 1_555
C18 O2 1_555 1_555
C5A C6A 1_555 1_555
C7A O1A 1_555 1_555
C10A C11A 1_555 1_555
C16A C17A 1_555 1_555
C18A O2A 1_555 1_555
C21A C22A 1_555 1_555

#END
