
#######################################################################
#
#                 Cambridge Crystallographic Data Centre
#                                CCDC 
#
#######################################################################
#
# If this CIF has been generated from an entry in the Cambridge 
# Structural Database, then it will include bibliographic, chemical, 
# crystal, experimental, refinement or atomic coordinate data resulting 
# from the CCDC's data processing and validation procedures.
#
#######################################################################

data_HILVAC
_chemical_formula_moiety         'C19 H15 Cl1 O4'
_chemical_name_systematic        
3-[2-(4-chlorophenyl)-2-oxoethyl]-2,3,3a,9b-tetrahydro-4H-furo[3,2-c][1]benzopyran-4-one
_symmetry_cell_setting           monoclinic
_symmetry_space_group_name_H-M   'I 2'
_symmetry_Int_Tables_number      5
_space_group_name_Hall           'I 2y'
loop_
_symmetry_equiv_pos_site_id
_symmetry_equiv_pos_as_xyz
1 x,y,z
2 -x,y,-z
3 1/2+x,1/2+y,1/2+z
4 1/2-x,1/2+y,1/2-z
_cell_length_a                   32.433(2)
_cell_length_b                   4.7591(3)
_cell_length_c                   21.8528(15)
_cell_angle_alpha                90
_cell_angle_beta                 104.582(6)
_cell_angle_gamma                90
_cell_volume                     3264.37
_exptl_crystal_colour            colorless
_exptl_crystal_description       Block
_cell_formula_units_Z            8
_exptl_crystal_recrystallization_method dichloromethane/hexane
loop_
_atom_site_label
_atom_site_type_symbol
_atom_site_fract_x
_atom_site_fract_y
_atom_site_fract_z
Cl1 Cl 0.73767(6) -0.1254(5) 1.09512(9)
O1 O 0.44533(13) 0.4267(8) 0.94266(19)
O2 O 0.38687(14) 0.3394(9) 0.86953(19)
O3 O 0.44994(13) 0.1076(9) 0.76287(17)
O4 O 0.57452(14) 0.3915(10) 0.8757(2)
C1 C 0.45091(18) 0.0594(10) 0.8703(2)
H1 H 0.4555 -0.1027 0.8989
C2 C 0.4281(2) 0.2889(13) 0.8974(3)
C3 C 0.53294(18) 0.0564(11) 0.9139(3)
H2 H 0.5282 0.0846 0.9556
H3 H 0.5352 -0.1442 0.9076
C4 C 0.61546(19) -0.1029(14) 1.0015(3)
H4 H 0.5905 -0.1958 1.0030
C5 C 0.5741(2) 0.1952(14) 0.9114(3)
C6 C 0.49476(17) 0.1703(12) 0.8643(2)
H5 H 0.4948 0.3755 0.8678
C7 C 0.6144(2) 0.1031(13) 0.9562(3)
C8 C 0.3823(2) 0.0130(13) 0.7830(3)
C9 C 0.4287(2) -0.0392(13) 0.8033(3)
H6 H 0.4338 -0.2410 0.8002
C10 C 0.3637(2) 0.1950(14) 0.8163(3)
C11 C 0.49408(19) 0.0944(14) 0.7965(3)
H7 H 0.5108 0.2270 0.7791
H8 H 0.5054 -0.0930 0.7943
C12 C 0.3567(2) -0.1125(16) 0.7303(3)
H9 H 0.3687 -0.2380 0.7071
C13 C 0.6524(2) 0.2272(13) 0.9534(3)
H10 H 0.6525 0.3594 0.9220
C14 C 0.6902(2) -0.0414(15) 1.0409(3)
C15 C 0.6530(2) -0.1705(14) 1.0442(3)
H11 H 0.6532 -0.3040 1.0754
C16 C 0.6908(2) 0.1583(15) 0.9966(3)
H12 H 0.7161 0.2467 0.9951
C17 C 0.3204(2) 0.2544(15) 0.7993(3)
H13 H 0.3086 0.3766 0.8234
C18 C 0.2954(2) 0.1280(17) 0.7460(3)
H14 H 0.2664 0.1665 0.7334
C19 C 0.3135(2) -0.0563(18) 0.7111(3)
H15 H 0.2968 -0.1415 0.6750
Cl2 Cl 0.70293(8) 1.1549(6) 0.78405(12)
O5 O 0.38718(14) 0.6835(9) 0.59496(18)
O6 O 0.51654(15) 0.4994(8) 0.6914(2)
O7 O 0.43976(15) 0.4350(9) 0.46107(19)
O8 O 0.37601(16) 0.6194(9) 0.4350(2)
C20 C 0.5709(2) 0.8366(13) 0.6975(3)
C21 C 0.5284(2) 0.7131(14) 0.6694(3)
C22 C 0.45898(19) 0.6788(12) 0.5859(3)
H16 H 0.4676 0.4935 0.5739
C23 C 0.49875(17) 0.8519(12) 0.6126(2)
H17 H 0.5138 0.8795 0.5800
H18 H 0.4905 1.0353 0.6249
C24 C 0.42868(19) 0.8140(12) 0.5275(3)
H19 H 0.4424 0.9778 0.5140
C25 C 0.4163(2) 0.6045(13) 0.4732(3)
C26 C 0.4301(2) 0.6384(14) 0.6315(3)
H20 H 0.4333 0.4500 0.6491
H21 H 0.4375 0.7724 0.6660
C27 C 0.6518(2) 1.0356(17) 0.7511(4)
C28 C 0.3510(2) 0.9485(13) 0.5026(3)
C29 C 0.3910(2) 0.9094(13) 0.5525(3)
H22 H 0.3983 1.0842 0.5765
C30 C 0.5944(2) 0.7355(13) 0.7550(3)
H23 H 0.5826 0.5985 0.7759
C31 C 0.5884(2) 1.0479(12) 0.6678(3)
H24 H 0.5728 1.1226 0.6297
C32 C 0.3456(2) 0.8105(14) 0.4465(3)
C33 C 0.6290(2) 1.1469(15) 0.6950(3)
H25 H 0.6407 1.2884 0.6753
C34 C 0.6344(3) 0.8323(17) 0.7818(3)
H26 H 0.6497 0.7618 0.8205
C35 C 0.3190(2) 1.1323(16) 0.5090(4)
H27 H 0.3218 1.2296 0.5467
C36 C 0.3097(3) 0.8429(17) 0.3969(4)
H28 H 0.3067 0.7412 0.3597
C37 C 0.2828(2) 1.1724(18) 0.4595(4)
H29 H 0.2616 1.2959 0.4643
C38 C 0.2784(3) 1.0296(17) 0.4036(4)
H30 H 0.2545 1.0583 0.3704
loop_
_geom_bond_atom_site_label_1
_geom_bond_atom_site_label_2
_geom_bond_site_symmetry_1
_geom_bond_site_symmetry_2
Cl1 C14 1_555 1_555
O1 C2 1_555 1_555
O2 C2 1_555 1_555
O3 C9 1_555 1_555
O4 C5 1_555 1_555
C1 H1 1_555 1_555
C2 C1 1_555 1_555
C3 H2 1_555 1_555
H3 C3 1_555 1_555
C4 H4 1_555 1_555
C5 C3 1_555 1_555
C6 C1 1_555 1_555
H5 C6 1_555 1_555
C7 C4 1_555 1_555
C8 C9 1_555 1_555
C9 C1 1_555 1_555
H6 C9 1_555 1_555
C10 O2 1_555 1_555
C11 O3 1_555 1_555
H7 C11 1_555 1_555
H8 C11 1_555 1_555
C12 C8 1_555 1_555
H9 C12 1_555 1_555
C13 C7 1_555 1_555
H10 C13 1_555 1_555
C14 C15 1_555 1_555
C15 C4 1_555 1_555
H11 C15 1_555 1_555
C16 C13 1_555 1_555
H12 C16 1_555 1_555
C17 C10 1_555 1_555
H13 C17 1_555 1_555
C18 C17 1_555 1_555
H14 C18 1_555 1_555
C19 C12 1_555 1_555
H15 C19 1_555 1_555
Cl2 C27 1_555 1_555
O5 C26 1_555 1_555
O6 C21 1_555 1_555
O7 C25 1_555 1_555
O8 C25 1_555 1_555
C20 C21 1_555 1_555
C21 C23 1_555 1_555
C22 H16 1_555 1_555
C23 C22 1_555 1_555
H17 C23 1_555 1_555
H18 C23 1_555 1_555
C24 C22 1_555 1_555
H19 C24 1_555 1_555
C25 C24 1_555 1_555
C26 C22 1_555 1_555
H20 C26 1_555 1_555
H21 C26 1_555 1_555
C27 C33 1_555 1_555
C28 C29 1_555 1_555
C29 O5 1_555 1_555
H22 C29 1_555 1_555
C30 C20 1_555 1_555
H23 C30 1_555 1_555
C31 C20 1_555 1_555
H24 C31 1_555 1_555
C32 O8 1_555 1_555
C33 C31 1_555 1_555
H25 C33 1_555 1_555
C34 C27 1_555 1_555
H26 C34 1_555 1_555
C35 C28 1_555 1_555
H27 C35 1_555 1_555
C36 C32 1_555 1_555
H28 C36 1_555 1_555
C37 C35 1_555 1_555
H29 C37 1_555 1_555
C38 C36 1_555 1_555
H30 C38 1_555 1_555
C3 C6 1_555 1_555
C5 C7 1_555 1_555
C6 C11 1_555 1_555
C8 C10 1_555 1_555
C14 C16 1_555 1_555
C18 C19 1_555 1_555
C24 C29 1_555 1_555
C28 C32 1_555 1_555
C30 C34 1_555 1_555
C37 C38 1_555 1_555

#END
