
#######################################################################
#
#                 Cambridge Crystallographic Data Centre
#                                CCDC 
#
#######################################################################
#
# If this CIF has been generated from an entry in the Cambridge 
# Structural Database, then it will include bibliographic, chemical, 
# crystal, experimental, refinement or atomic coordinate data resulting 
# from the CCDC's data processing and validation procedures.
#
#######################################################################

data_HILWUX
_chemical_formula_moiety         'C9 H11 Cl3 O1'
_chemical_name_systematic        
7,7-dichloro-2-(chloromethylidene)-1-methoxybicyclo[4.1.0]heptane
_symmetry_cell_setting           orthorhombic
_symmetry_space_group_name_H-M   'P n a 21'
_symmetry_Int_Tables_number      33
_space_group_name_Hall           'P 2c -2n'
loop_
_symmetry_equiv_pos_site_id
_symmetry_equiv_pos_as_xyz
1 x,y,z
2 1/2-x,1/2+y,1/2+z
3 1/2+x,1/2-y,z
4 -x,-y,1/2+z
_cell_length_a                   8.4239(4)
_cell_length_b                   16.5510(7)
_cell_length_c                   7.5180(3)
_cell_angle_alpha                90
_cell_angle_beta                 90
_cell_angle_gamma                90
_cell_volume                     1048.19
_exptl_crystal_colour            yellow
_exptl_crystal_description       plate
_cell_formula_units_Z            4
loop_
_atom_site_label
_atom_site_type_symbol
_atom_site_fract_x
_atom_site_fract_y
_atom_site_fract_z
C1 C 0.64619(16) 0.57136(8) 0.3853(2)
C2 C 0.64176(17) 0.64883(8) 0.4898(3)
C3 C 0.7235(2) 0.72233(10) 0.4130(3)
C4 C 0.7308(3) 0.72059(11) 0.2103(3)
C5 C 0.8198(2) 0.64646(11) 0.1437(3)
C6 C 0.7420(2) 0.56958(9) 0.2122(2)
C7 C 0.79991(17) 0.52442(8) 0.3728(3)
O1 O 0.51110(12) 0.52263(6) 0.39469(19)
C8 C 0.3800(2) 0.55648(10) 0.2998(3)
C9 C 0.5608(2) 0.64831(9) 0.6399(3)
Cl1 Cl 0.53843(6) 0.73307(3) 0.77371(14)
Cl2 Cl 0.96426(5) 0.55871(3) 0.49486(15)
Cl3 Cl 0.79380(5) 0.41832(2) 0.36782(14)
H1 H 0.665(3) 0.7681(15) 0.455(3)
H2 H 0.833(3) 0.7259(14) 0.463(3)
H3 H 0.781(3) 0.7701(15) 0.168(4)
H4 H 0.618(3) 0.7185(15) 0.164(3)
H5 H 0.932(3) 0.6486(14) 0.183(3)
H6 H 0.819(3) 0.6442(14) 0.009(4)
H7 H 0.699(3) 0.5338(14) 0.123(3)
H8 H 0.298(3) 0.5142(15) 0.286(3)
H9 H 0.338(2) 0.6053(14) 0.364(3)
H10 H 0.408(3) 0.5691(14) 0.188(3)
H11 H 0.513(3) 0.6049(15) 0.689(3)
loop_
_geom_bond_atom_site_label_1
_geom_bond_atom_site_label_2
_geom_bond_site_symmetry_1
_geom_bond_site_symmetry_2
C1 C2 1_555 1_555
C2 C3 1_555 1_555
C3 C4 1_555 1_555
C4 C5 1_555 1_555
C5 C6 1_555 1_555
C6 C1 1_555 1_555
C7 C1 1_555 1_555
O1 C1 1_555 1_555
C8 O1 1_555 1_555
C9 C2 1_555 1_555
Cl1 C9 1_555 1_555
Cl2 C7 1_555 1_555
Cl3 C7 1_555 1_555
H1 C3 1_555 1_555
H2 C3 1_555 1_555
H3 C4 1_555 1_555
H4 C4 1_555 1_555
H5 C5 1_555 1_555
H6 C5 1_555 1_555
H7 C6 1_555 1_555
H8 C8 1_555 1_555
H9 C8 1_555 1_555
H10 C8 1_555 1_555
H11 C9 1_555 1_555
C6 C7 1_555 1_555

#END
