
#######################################################################
#
#                 Cambridge Crystallographic Data Centre
#                                CCDC 
#
#######################################################################
#
# If this CIF has been generated from an entry in the Cambridge 
# Structural Database, then it will include bibliographic, chemical, 
# crystal, experimental, refinement or atomic coordinate data resulting 
# from the CCDC's data processing and validation procedures.
#
#######################################################################

data_HIMTAY
_chemical_formula_moiety         'C27 H26 N1 O5 P1 S1'
_chemical_name_systematic        
"O,O'-Diphenyl N-(o-tolyl)-N-(p-tosyl)amidomethylphosphonate"
_symmetry_cell_setting           monoclinic
_symmetry_space_group_name_H-M   'P 21/c'
_symmetry_Int_Tables_number      14
_space_group_name_Hall           '-P 2ybc'
loop_
_symmetry_equiv_pos_site_id
_symmetry_equiv_pos_as_xyz
1 x,y,z
2 -x,1/2+y,1/2-z
3 -x,-y,-z
4 x,1/2-y,1/2+z
_cell_length_a                   11.310(4)
_cell_length_b                   20.692(5)
_cell_length_c                   11.826(4)
_cell_angle_alpha                90
_cell_angle_beta                 112.46(3)
_cell_angle_gamma                90
_cell_volume                     2557.67
_exptl_crystal_colour            colorless
_chemical_melting_point          103-104deg.C
_cell_formula_units_Z            4
_exptl_crystal_recrystallization_method 'acetone/petroleum ether'
loop_
_atom_site_label
_atom_site_type_symbol
_atom_site_fract_x
_atom_site_fract_y
_atom_site_fract_z
P1 P 0.3129(9) 0.0440(5) 0.9156(8)
S1 S 0.1672(1) -0.1271(5) 0.9488(8)
O1 O 0.4354(3) 0.0696(2) 0.9191(3)
N1 N 0.1657(3) -0.0678(2) 0.8548(3)
O2 O 0.1897(3) 0.0786(2) 0.8216(4)
O3 O 0.2906(3) 0.0498(2) 1.0398(3)
O4 O 0.0396(4) -0.1471(2) 0.9143(5)
O5 O 0.2384(4) -0.1040(2) 1.0707(3)
C1 C 0.2892(4) -0.0396(2) 0.8685(3)
C2 C 0.1783(4) 0.1462(4) 0.8324(4)
C3 C 0.1230(5) 0.1697(3) 0.9091(4)
C4 C 0.1146(6) 0.2364(3) 0.9187(5)
C5 C 0.1560(4) 0.2774(3) 0.8508(6)
C6 C 0.2068(6) 0.2526(3) 0.7718(5)
C7 C 0.2199(5) 0.1854(3) 0.7613(4)
C8 C 0.3908(4) 0.0643(2) 1.1524(3)
C9 C 0.4358(5) 0.0157(3) 1.2373(4)
C10 C 0.5284(6) 0.0300(3) 1.3502(5)
C11 C 0.5751(6) 0.0918(4) 1.3769(4)
C12 C 0.5297(7) 0.1398(3) 1.2909(6)
C13 C 0.4340(5) 0.1266(3) 1.1778(4)
C14 C 0.0660(4) -0.0669(2) 0.7340(3)
C15 C -0.0485(4) -0.0351(3) 0.7170(4)
C16 C -0.1433(5) -0.0337(3) 0.5991(5)
C17 C -0.1250(6) -0.0615(3) 0.5024(5)
C18 C -0.0127(7) -0.0923(3) 0.5192(4)
C19 C 0.0851(5) -0.0953(3) 0.6379(4)
C20 C -0.0730(5) -0.0028(3) 0.8185(5)
C21 C 0.2583(5) -0.1914(2) 0.9235(3)
C22 C 0.1986(6) -0.2362(3) 0.8317(5)
C23 C 0.2702(7) -0.2846(3) 0.8106(5)
C24 C 0.3990(6) -0.2898(3) 0.8787(4)
C25 C 0.4558(5) -0.2450(3) 0.9708(5)
C26 C 0.3864(5) -0.1960(2) 0.9923(4)
C27 C 0.4770(9) -0.3426(4) 0.8543(6)
loop_
_geom_bond_atom_site_label_1
_geom_bond_atom_site_label_2
_geom_bond_site_symmetry_1
_geom_bond_site_symmetry_2
P1 O1 1_555 1_555
S1 N1 1_555 1_555
N1 C1 1_555 1_555
O2 P1 1_555 1_555
O3 P1 1_555 1_555
O4 S1 1_555 1_555
O5 S1 1_555 1_555
C1 P1 1_555 1_555
C2 O2 1_555 1_555
C3 C2 1_555 1_555
C4 C3 1_555 1_555
C5 C4 1_555 1_555
C6 C5 1_555 1_555
C7 C2 1_555 1_555
C8 O3 1_555 1_555
C9 C8 1_555 1_555
C10 C9 1_555 1_555
C11 C10 1_555 1_555
C12 C11 1_555 1_555
C13 C8 1_555 1_555
C14 N1 1_555 1_555
C15 C14 1_555 1_555
C16 C15 1_555 1_555
C17 C16 1_555 1_555
C18 C17 1_555 1_555
C19 C14 1_555 1_555
C20 C15 1_555 1_555
C21 S1 1_555 1_555
C22 C21 1_555 1_555
C23 C22 1_555 1_555
C24 C23 1_555 1_555
C25 C24 1_555 1_555
C26 C21 1_555 1_555
C27 C24 1_555 1_555
C6 C7 1_555 1_555
C12 C13 1_555 1_555
C18 C19 1_555 1_555
C25 C26 1_555 1_555

#END
