
#######################################################################
#
#                 Cambridge Crystallographic Data Centre
#                                CCDC 
#
#######################################################################
#
# If this CIF has been generated from an entry in the Cambridge 
# Structural Database, then it will include bibliographic, chemical, 
# crystal, experimental, refinement or atomic coordinate data resulting 
# from the CCDC's data processing and validation procedures.
#
#######################################################################

data_HIMTUV
_chemical_formula_moiety         'C22 H17 Br1 O4 S1'
_chemical_name_systematic        
'methyl 4-(3-bromobenzene-1-carbonyl)-2,8-dimethyl-2H-[1]benzothieno[3,2-b]pyran-3-carboxylate'
_symmetry_cell_setting           monoclinic
_symmetry_space_group_name_H-M   'C 2/c'
_symmetry_Int_Tables_number      15
_space_group_name_Hall           '-C 2yn'
loop_
_symmetry_equiv_pos_site_id
_symmetry_equiv_pos_as_xyz
1 x,y,z
2 -x,y,1/2-z
3 1/2+x,1/2+y,z
4 1/2-x,1/2+y,1/2-z
5 -x,-y,-z
6 x,-y,1/2+z
7 1/2-x,1/2-y,-z
8 1/2+x,1/2-y,1/2+z
_cell_length_a                   18.081(2)
_cell_length_b                   16.060(2)
_cell_length_c                   13.683(3)
_cell_angle_alpha                90
_cell_angle_beta                 97.750(14)
_cell_angle_gamma                90
_cell_volume                     3936.99
_exptl_crystal_description       block
_cell_formula_units_Z            8
loop_
_atom_site_label
_atom_site_type_symbol
_atom_site_fract_x
_atom_site_fract_y
_atom_site_fract_z
Br1 Br 0.60169(3) 0.68756(4) 0.61472(6)
S1 S 0.71535(7) 0.35003(10) 0.86910(11)
O1 O 0.87888(17) 0.4196(2) 0.7308(2)
O2 O 0.7975(2) 0.3987(2) 0.4386(3)
O3 O 0.6789(2) 0.3872(3) 0.4651(3)
O4 O 0.6241(2) 0.2878(2) 0.6480(4)
C1 C 0.7610(2) 0.3724(3) 0.7689(4)
C2 C 0.8335(2) 0.3934(3) 0.7965(4)
C3 C 0.9279(3) 0.4017(3) 0.9526(4)
H1 H 0.9675 0.4170 0.9196
C4 C 0.7444(3) 0.3913(3) 0.4960(4)
C5 C 0.5921(2) 0.4305(3) 0.6361(3)
C6 C 0.7282(2) 0.3751(3) 0.6683(4)
C7 C 0.6183(2) 0.5121(3) 0.6329(3)
H2 H 0.6692 0.5229 0.6369
C8 C 0.9396(3) 0.3897(3) 1.0527(4)
C9 C 0.7971(3) 0.3690(3) 0.9496(4)
C10 C 0.8587(3) 0.3883(3) 0.6310(4)
H3 H 0.8807 0.4254 0.5859
C11 C 0.8567(3) 0.3911(3) 0.8998(4)
C12 C 0.5161(2) 0.4149(3) 0.6297(4)
H4 H 0.4985 0.3606 0.6312
C13 C 0.7748(3) 0.3875(3) 0.6005(4)
C14 C 0.5671(3) 0.5767(3) 0.6237(3)
C15 C 0.4665(2) 0.4815(4) 0.6210(3)
H5 H 0.4155 0.4713 0.6167
C16 C 0.6449(3) 0.3587(3) 0.6461(4)
C17 C 0.4916(2) 0.5627(4) 0.6185(4)
H6 H 0.4581 0.6069 0.6133
C18 C 0.8080(3) 0.3589(4) 1.0501(4)
H7 H 0.7683 0.3453 1.0837
C19 C 0.8778(3) 0.3691(4) 1.0999(4)
H8 H 0.8849 0.3622 1.1680
C20 C 0.8925(3) 0.3024(3) 0.6237(4)
H9 H 0.9455 0.3054 0.6430
H10 H 0.8824 0.2828 0.5570
H11 H 0.8711 0.2648 0.6666
C21 C 1.0158(3) 0.3942(4) 1.1105(4)
H12 H 1.0517 0.4068 1.0669
H13 H 1.0279 0.3417 1.1421
H14 H 1.0168 0.4371 1.1596
C22 C 0.7738(4) 0.3976(4) 0.3330(4)
H15 H 0.8164 0.4048 0.2989
H16 H 0.7390 0.4421 0.3156
H17 H 0.7503 0.3453 0.3146
loop_
_geom_bond_atom_site_label_1
_geom_bond_atom_site_label_2
_geom_bond_site_symmetry_1
_geom_bond_site_symmetry_2
Br1 C14 1_555 1_555
S1 C1 1_555 1_555
O1 C2 1_555 1_555
O2 C4 1_555 1_555
O3 C4 1_555 1_555
O4 C16 1_555 1_555
C1 C2 1_555 1_555
C2 C11 1_555 1_555
C3 H1 1_555 1_555
C4 C13 1_555 1_555
C5 C7 1_555 1_555
C6 C1 1_555 1_555
C7 H2 1_555 1_555
C8 C3 1_555 1_555
C9 S1 1_555 1_555
C10 O1 1_555 1_555
H3 C10 1_555 1_555
C11 C3 1_555 1_555
C12 C5 1_555 1_555
H4 C12 1_555 1_555
C13 C6 1_555 1_555
C14 C7 1_555 1_555
C15 C12 1_555 1_555
H5 C15 1_555 1_555
C16 C5 1_555 1_555
C17 C14 1_555 1_555
H6 C17 1_555 1_555
C18 C9 1_555 1_555
H7 C18 1_555 1_555
C19 C8 1_555 1_555
H8 C19 1_555 1_555
C20 C10 1_555 1_555
H9 C20 1_555 1_555
H10 C20 1_555 1_555
H11 C20 1_555 1_555
C21 C8 1_555 1_555
H12 C21 1_555 1_555
H13 C21 1_555 1_555
H14 C21 1_555 1_555
C22 O2 1_555 1_555
H15 C22 1_555 1_555
H16 C22 1_555 1_555
H17 C22 1_555 1_555
C6 C16 1_555 1_555
C9 C11 1_555 1_555
C10 C13 1_555 1_555
C15 C17 1_555 1_555
C18 C19 1_555 1_555

#END
