
#######################################################################
#
#                 Cambridge Crystallographic Data Centre
#                                CCDC 
#
#######################################################################
#
# If this CIF has been generated from an entry in the Cambridge 
# Structural Database, then it will include bibliographic, chemical, 
# crystal, experimental, refinement or atomic coordinate data resulting 
# from the CCDC's data processing and validation procedures.
#
#######################################################################

data_HIMYUZ
_chemical_formula_moiety         'C16 H9 B1 F2 N2 O2'
_chemical_name_systematic        
difluoro[3-(hydroxy)-1H,3'H-2,2'-biindol-3'-onato]boron
_symmetry_cell_setting           triclinic
_symmetry_space_group_name_H-M   'P -1'
_symmetry_Int_Tables_number      2
_space_group_name_Hall           '-P 1'
loop_
_symmetry_equiv_pos_site_id
_symmetry_equiv_pos_as_xyz
1 x,y,z
2 -x,-y,-z
_cell_length_a                   9.0799(18)
_cell_length_b                   9.2486(18)
_cell_length_c                   9.2486(18)
_cell_angle_alpha                76.54(3)
_cell_angle_beta                 65.06(3)
_cell_angle_gamma                65.06(3)
_cell_volume                     637.141
_exptl_crystal_colour            blue
_exptl_crystal_description       prism
_cell_formula_units_Z            2
loop_
_atom_site_label
_atom_site_type_symbol
_atom_site_fract_x
_atom_site_fract_y
_atom_site_fract_z
B1 B 0.2743(2) -0.2359(2) -0.1172(2)
F1 F 0.43764(12) -0.34826(11) -0.13229(12)
F2 F 0.25828(14) -0.18565(12) -0.26369(11)
N1 N 0.24133(16) -0.09236(15) -0.03238(14)
N2 N -0.04081(17) -0.18065(15) 0.37475(15)
O1 O 0.14100(14) -0.30837(13) -0.01542(12)
O2 O 0.11055(14) 0.09582(13) 0.31115(13)
C1 C 0.32076(18) 0.02298(17) -0.09636(18)
C2 C 0.4262(2) 0.04603(19) -0.25223(19)
H1 H 0.4535 -0.0178 -0.3336
C3 C 0.4905(2) 0.1672(2) -0.2846(2)
H2 H 0.5636 0.1863 -0.3906
C4 C 0.4507(2) 0.2609(2) -0.1662(2)
H3 H 0.4971 0.3425 -0.1925
C5 C 0.3441(2) 0.23692(18) -0.0097(2)
H4 H 0.3167 0.3011 0.0714
C6 C 0.27896(19) 0.11690(17) 0.02454(18)
C7 C 0.17042(18) 0.05757(16) 0.17470(17)
C8 C 0.15180(18) -0.07603(17) 0.12534(17)
C9 C 0.06295(18) -0.17450(17) 0.21489(17)
C10 C 0.06051(18) -0.28963(17) 0.13821(17)
C11 C -0.04658(18) -0.36775(17) 0.25609(17)
C12 C -0.0964(2) -0.49164(18) 0.25415(19)
H5 H -0.0562 -0.5407 0.1581
C13 C -0.2051(2) -0.53976(18) 0.3951(2)
H6 H -0.2394 -0.6242 0.3969
C14 C -0.2662(2) -0.46570(19) 0.5370(2)
H7 H -0.3430 -0.5004 0.6320
C15 C -0.2189(2) -0.34539(18) 0.54313(18)
H8 H -0.2605 -0.2972 0.6400
C16 C -0.10696(19) -0.29679(16) 0.40084(18)
H9 H -0.056(2) -0.126(2) 0.454(2)
loop_
_geom_bond_atom_site_label_1
_geom_bond_atom_site_label_2
_geom_bond_site_symmetry_1
_geom_bond_site_symmetry_2
B1 F1 1_555 1_555
F2 B1 1_555 1_555
N1 B1 1_555 1_555
N2 C9 1_555 1_555
O1 B1 1_555 1_555
O2 C7 1_555 1_555
C1 N1 1_555 1_555
C2 C1 1_555 1_555
H1 C2 1_555 1_555
C3 C2 1_555 1_555
H2 C3 1_555 1_555
C4 C3 1_555 1_555
H3 C4 1_555 1_555
C5 C4 1_555 1_555
H4 C5 1_555 1_555
C6 C1 1_555 1_555
C7 C6 1_555 1_555
C8 N1 1_555 1_555
C9 C8 1_555 1_555
C10 O1 1_555 1_555
C11 C10 1_555 1_555
C12 C11 1_555 1_555
H5 C12 1_555 1_555
C13 C12 1_555 1_555
H6 C13 1_555 1_555
C14 C13 1_555 1_555
H7 C14 1_555 1_555
C15 C14 1_555 1_555
H8 C15 1_555 1_555
C16 N2 1_555 1_555
H9 N2 1_555 1_555
C5 C6 1_555 1_555
C7 C8 1_555 1_555
C9 C10 1_555 1_555
C11 C16 1_555 1_555
C15 C16 1_555 1_555

#END
