
#######################################################################
#
#                 Cambridge Crystallographic Data Centre
#                                CCDC 
#
#######################################################################
#
# If this CIF has been generated from an entry in the Cambridge 
# Structural Database, then it will include bibliographic, chemical, 
# crystal, experimental, refinement or atomic coordinate data resulting 
# from the CCDC's data processing and validation procedures.
#
#######################################################################

data_HINCEO
_chemical_formula_moiety         'C25 H18 N2'
_chemical_name_systematic        N,N-Diphenylacridin-9-amine
_symmetry_cell_setting           monoclinic
_symmetry_space_group_name_H-M   'P 21/c'
_symmetry_Int_Tables_number      14
_space_group_name_Hall           '-P 2ybc'
loop_
_symmetry_equiv_pos_site_id
_symmetry_equiv_pos_as_xyz
1 x,y,z
2 -x,1/2+y,1/2-z
3 -x,-y,-z
4 x,1/2-y,1/2+z
_cell_length_a                   13.214(4)
_cell_length_b                   8.764(3)
_cell_length_c                   16.194(5)
_cell_angle_alpha                90
_cell_angle_beta                 107.779(5)
_cell_angle_gamma                90
_cell_volume                     1785.82
_exptl_crystal_colour            yellow
_exptl_crystal_description       plate
_cell_formula_units_Z            4
loop_
_atom_site_label
_atom_site_type_symbol
_atom_site_fract_x
_atom_site_fract_y
_atom_site_fract_z
N1 N 0.27401(15) 0.57185(19) 0.32429(11)
N2 N 0.25153(13) 0.31235(17) 0.09749(10)
C1 C 0.36017(17) 0.5039(2) 0.31322(12)
C2 C 0.45958(19) 0.5180(2) 0.37961(13)
C3 C 0.5468(2) 0.4452(3) 0.37306(15)
C4 C 0.54349(18) 0.3557(3) 0.29978(14)
H1 H 0.6058 0.3048 0.2970
C5 C 0.45196(16) 0.3419(2) 0.23345(13)
C6 C 0.35680(16) 0.4147(2) 0.23787(12)
C7 C 0.25855(15) 0.3974(2) 0.17426(11)
C8 C 0.16685(16) 0.4623(2) 0.18605(12)
C9 C 0.06353(18) 0.4471(3) 0.12503(15)
C10 C -0.0212(2) 0.5186(3) 0.14007(19)
H2 H -0.0902 0.5073 0.0998
C11 C -0.0074(2) 0.6091(3) 0.21484(19)
C12 C 0.0885(2) 0.6260(3) 0.27395(17)
C13 C 0.18009(18) 0.5520(2) 0.26293(13)
C14 C 0.28924(14) 0.3828(2) 0.03394(11)
C15 C 0.28414(17) 0.5414(2) 0.02631(13)
C16 C 0.32000(19) 0.6147(3) -0.03513(14)
C17 C 0.36220(19) 0.5321(3) -0.08966(13)
C18 C 0.36942(18) 0.3745(3) -0.08116(13)
C19 C 0.33376(17) 0.3002(2) -0.01996(13)
C20 C 0.21137(15) 0.1616(2) 0.09223(12)
C21 C 0.21904(17) 0.0827(2) 0.16862(13)
C22 C 0.17784(18) -0.0626(2) 0.16595(15)
C23 C 0.12961(19) -0.1331(2) 0.08757(17)
C24 C 0.1223(2) -0.0548(3) 0.01234(17)
C25 C 0.16165(18) 0.0918(3) 0.01324(14)
H3 H 0.4589(19) 0.588(3) 0.4247(16)
H4 H 0.614(2) 0.448(3) 0.4222(18)
H5 H 0.4491(16) 0.281(2) 0.1803(13)
H6 H 0.0529(15) 0.389(2) 0.0703(13)
H7 H -0.062(3) 0.670(4) 0.2288(19)
H8 H 0.092(2) 0.691(3) 0.3245(17)
H9 H 0.2580(18) 0.605(3) 0.0683(15)
H10 H 0.3086(19) 0.721(3) -0.0425(16)
H11 H 0.3997(19) 0.587(3) -0.1325(15)
H12 H 0.4057(18) 0.319(3) -0.1147(15)
H13 H 0.3365(15) 0.187(2) -0.0168(12)
H14 H 0.253(2) 0.128(3) 0.2292(16)
H15 H 0.1868(16) -0.111(2) 0.2240(14)
H16 H 0.0901(16) -0.243(3) 0.0786(13)
H17 H 0.083(2) -0.092(4) -0.044(2)
H18 H 0.158(2) 0.149(3) -0.0385(18)
loop_
_geom_bond_atom_site_label_1
_geom_bond_atom_site_label_2
_geom_bond_site_symmetry_1
_geom_bond_site_symmetry_2
N1 C1 1_555 1_555
N2 C7 1_555 1_555
C1 C2 1_555 1_555
C2 C3 1_555 1_555
C3 C4 1_555 1_555
C4 H1 1_555 1_555
C5 C4 1_555 1_555
C6 C1 1_555 1_555
C7 C6 1_555 1_555
C8 C7 1_555 1_555
C9 C8 1_555 1_555
C10 C9 1_555 1_555
H2 C10 1_555 1_555
C11 C10 1_555 1_555
C12 C11 1_555 1_555
C13 N1 1_555 1_555
C14 N2 1_555 1_555
C15 C14 1_555 1_555
C16 C15 1_555 1_555
C17 C16 1_555 1_555
C18 C17 1_555 1_555
C19 C14 1_555 1_555
C20 N2 1_555 1_555
C21 C20 1_555 1_555
C22 C21 1_555 1_555
C23 C22 1_555 1_555
C24 C23 1_555 1_555
C25 C20 1_555 1_555
H3 C2 1_555 1_555
H4 C3 1_555 1_555
H5 C5 1_555 1_555
H6 C9 1_555 1_555
H7 C11 1_555 1_555
H8 C12 1_555 1_555
H9 C15 1_555 1_555
H10 C16 1_555 1_555
H11 C17 1_555 1_555
H12 C18 1_555 1_555
H13 C19 1_555 1_555
H14 C21 1_555 1_555
H15 C22 1_555 1_555
H16 C23 1_555 1_555
H17 C24 1_555 1_555
H18 C25 1_555 1_555
C5 C6 1_555 1_555
C8 C13 1_555 1_555
C12 C13 1_555 1_555
C18 C19 1_555 1_555
C24 C25 1_555 1_555

#END
