
#######################################################################
#
#                 Cambridge Crystallographic Data Centre
#                                CCDC 
#
#######################################################################
#
# If this CIF has been generated from an entry in the Cambridge 
# Structural Database, then it will include bibliographic, chemical, 
# crystal, experimental, refinement or atomic coordinate data resulting 
# from the CCDC's data processing and validation procedures.
#
#######################################################################

data_HINHUH
_chemical_formula_moiety         'C17 H17 N1 S2'
_chemical_name_systematic        
3-(Benzylthio)-3-(methylamino)-1-phenyl-1-thioxoprop-2-ene
_symmetry_cell_setting           monoclinic
_symmetry_space_group_name_H-M   'P 21/a'
_symmetry_Int_Tables_number      14
_space_group_name_Hall           '-P 2yab'
loop_
_symmetry_equiv_pos_site_id
_symmetry_equiv_pos_as_xyz
1 x,y,z
2 1/2-x,1/2+y,-z
3 -x,-y,-z
4 1/2+x,1/2-y,z
_cell_length_a                   10.941(3)
_cell_length_b                   13.523(4)
_cell_length_c                   11.253(3)
_cell_angle_alpha                90
_cell_angle_beta                 109.98(2)
_cell_angle_gamma                90
_cell_volume                     1564.73
_cell_formula_units_Z            4
loop_
_atom_site_label
_atom_site_type_symbol
_atom_site_fract_x
_atom_site_fract_y
_atom_site_fract_z
S1 S 0.1503(1) 0.5964(1) 0.8174(1)
S2 S -0.1419(1) 0.6817(1) 1.0590(1)
N1 N -0.0768(2) 0.6317(2) 0.8326(2)
C1 C 0.3049(3) 0.5595(2) 0.9322(3)
C2 C 0.3920(3) 0.5408(2) 0.8566(3)
C3 C 0.3845(3) 0.4536(3) 0.7910(3)
C4 C 0.4616(4) 0.4394(3) 0.7167(4)
C5 C 0.5448(3) 0.5125(3) 0.7078(4)
C6 C 0.5537(3) 0.5986(3) 0.7742(3)
C7 C 0.4783(3) 0.6129(2) 0.8489(3)
C8 C 0.0457(3) 0.6178(2) 0.9021(3)
C9 C 0.0903(3) 0.6233(2) 1.0354(3)
C10 C 0.0182(3) 0.6514(2) 1.1106(3)
C11 C 0.0906(3) 0.6548(2) 1.2498(3)
C12 C 0.2207(3) 0.6801(2) 1.2990(3)
C13 C 0.2873(3) 0.6779(3) 1.4273(3)
C14 C 0.2242(4) 0.6498(3) 1.5093(3)
C15 C 0.0951(4) 0.6277(3) 1.4628(3)
C16 C 0.0276(3) 0.6308(3) 1.3344(3)
C17 C -0.1291(3) 0.6305(3) 0.6951(3)
H1 H -0.1306(37) 0.6457(27) 0.8732(34)
H2 H 0.3400(3) 0.6116(2) 0.9937(3)
H3 H 0.2951(3) 0.5001(2) 0.9765(3)
H4 H 0.3276(3) 0.4041(3) 0.7965(3)
H5 H 0.4567(4) 0.3804(3) 0.6730(4)
H6 H 0.5952(3) 0.5035(3) 0.6568(4)
H7 H 0.6110(3) 0.6478(3) 0.7688(3)
H8 H 0.4857(3) 0.6714(2) 0.8944(3)
H9 H 0.1768(3) 0.6065(2) 1.0773(3)
H10 H 0.2640(3) 0.6988(2) 1.2445(3)
H11 H 0.3748(3) 0.6954(3) 1.4587(3)
H12 H 0.2695(4) 0.6461(3) 1.5957(3)
H13 H 0.0520(4) 0.6102(3) 1.5180(3)
H14 H -0.0610(3) 0.6167(3) 1.3042(3)
H15 H -0.2210(3) 0.6426(3) 0.6672(3)
H16 H -0.1132(3) 0.5670(3) 0.6649(3)
H17 H -0.0875(3) 0.6809(3) 0.6625(3)
loop_
_geom_bond_atom_site_label_1
_geom_bond_atom_site_label_2
_geom_bond_site_symmetry_1
_geom_bond_site_symmetry_2
S1 C1 1_555 1_555
S2 C10 1_555 1_555
N1 C8 1_555 1_555
C1 C2 1_555 1_555
C2 C3 1_555 1_555
C3 C4 1_555 1_555
C4 C5 1_555 1_555
C5 C6 1_555 1_555
C6 C7 1_555 1_555
C7 C2 1_555 1_555
C8 S1 1_555 1_555
C9 C8 1_555 1_555
C10 C9 1_555 1_555
C11 C10 1_555 1_555
C12 C11 1_555 1_555
C13 C12 1_555 1_555
C14 C13 1_555 1_555
C15 C14 1_555 1_555
C16 C11 1_555 1_555
C17 N1 1_555 1_555
H1 N1 1_555 1_555
H2 C1 1_555 1_555
H3 C1 1_555 1_555
H4 C3 1_555 1_555
H5 C4 1_555 1_555
H6 C5 1_555 1_555
H7 C6 1_555 1_555
H8 C7 1_555 1_555
H9 C9 1_555 1_555
H10 C12 1_555 1_555
H11 C13 1_555 1_555
H12 C14 1_555 1_555
H13 C15 1_555 1_555
H14 C16 1_555 1_555
H15 C17 1_555 1_555
H16 C17 1_555 1_555
H17 C17 1_555 1_555
C15 C16 1_555 1_555

#END
