
#######################################################################
#
#                 Cambridge Crystallographic Data Centre
#                                CCDC 
#
#######################################################################
#
# If this CIF has been generated from an entry in the Cambridge 
# Structural Database, then it will include bibliographic, chemical, 
# crystal, experimental, refinement or atomic coordinate data resulting 
# from the CCDC's data processing and validation procedures.
#
#######################################################################

data_HIQCUH
_chemical_formula_moiety         'C25 H27 N3 O3,0.5(C5 H12)'
_chemical_name_systematic        
'11-(3-Methoxyphenyl)-1,3-dimethyl-3,3a,6,7,12,12b,13,13a-octahydro-1H,4H-indolo[2,3-a][1,2]oxazolo[4,3-g]quinolizin-4-one n-pentane solvate'
_symmetry_cell_setting           orthorhombic
_symmetry_space_group_name_H-M   'P n a 21'
_symmetry_Int_Tables_number      33
_space_group_name_Hall           'P 2c -2n'
loop_
_symmetry_equiv_pos_site_id
_symmetry_equiv_pos_as_xyz
1 x,y,z
2 -x,-y,1/2+z
3 1/2-x,1/2+y,1/2+z
4 1/2+x,1/2-y,z
_cell_length_a                   13.2429(10)
_cell_length_b                   15.8911(11)
_cell_length_c                   22.1933(15)
_cell_angle_alpha                90
_cell_angle_beta                 90
_cell_angle_gamma                90
_cell_volume                     4670.45
_exptl_crystal_colour            'yellow orange'
_exptl_crystal_description       prisms
_cell_formula_units_Z            8
loop_
_atom_site_label
_atom_site_type_symbol
_atom_site_fract_x
_atom_site_fract_y
_atom_site_fract_z
O4 O -0.2110(3) 0.6390(3) 0.2248(2)
O5 O -0.3590(2) 0.7351(2) 0.38697(18)
O6 O 0.5389(3) 0.5742(3) 0.5189(2)
N4 N -0.1208(3) 0.6898(3) 0.2314(2)
N5 N -0.2000(3) 0.6994(3) 0.41521(19)
N6 N 0.0593(3) 0.6213(2) 0.44554(18)
H28 H 0.1037 0.6435 0.4207
C26 C -0.2766(4) 0.6473(3) 0.2755(2)
H29 H -0.2672 0.5974 0.3023
C27 C -0.2400(3) 0.7259(3) 0.3088(2)
H30 H -0.2716 0.7768 0.2902
C28 C -0.2691(3) 0.7217(3) 0.3743(2)
C29 C -0.2310(4) 0.6910(3) 0.4797(2)
H31 H -0.3051 0.6977 0.4833
H32 H -0.1984 0.7355 0.5041
C30 C -0.1996(4) 0.6045(3) 0.5030(2)
H33 H -0.2124 0.6006 0.5468
H34 H -0.2393 0.5601 0.4825
C31 C -0.0885(4) 0.5923(3) 0.4903(2)
C32 C -0.0127(4) 0.5450(3) 0.5188(2)
C33 C -0.0127(4) 0.4862(4) 0.5675(2)
H35 H -0.0738 0.4718 0.5874
C34 C 0.0764(4) 0.4510(4) 0.5849(3)
H36 H 0.0769 0.4124 0.6176
C35 C 0.1672(4) 0.4703(3) 0.5557(2)
H37 H 0.2275 0.4439 0.5691
C36 C 0.1722(4) 0.5270(3) 0.5078(2)
C37 C 0.0793(3) 0.5637(3) 0.4901(2)
C38 C -0.0422(3) 0.6382(3) 0.4467(2)
C39 C -0.0903(3) 0.6974(3) 0.4020(2)
H38 H -0.0612 0.7551 0.4071
C40 C -0.0718(3) 0.6669(3) 0.3378(2)
H39 H -0.0965 0.6085 0.3334
H40 H 0.0015 0.6675 0.3291
C41 C -0.1272(3) 0.7244(3) 0.2933(2)
H41 H -0.0985 0.7825 0.2947
C42 C -0.1304(5) 0.7558(4) 0.1857(3)
H42 H -0.1459 0.7302 0.1466
H43 H -0.0668 0.7871 0.1828
H44 H -0.1850 0.7944 0.1970
C43 C -0.3851(4) 0.6501(5) 0.2551(3)
H45 H -0.3954 0.6992 0.2291
H46 H -0.4294 0.6543 0.2903
H47 H -0.4010 0.5987 0.2327
C44 C 0.2699(4) 0.5470(3) 0.4783(2)
C45 C 0.3574(4) 0.5542(3) 0.5134(3)
H48 H 0.3522 0.5496 0.5560
C46 C 0.4497(4) 0.5678(3) 0.4880(3)
C47 C 0.4582(4) 0.5763(3) 0.4253(2)
H49 H 0.5222 0.5854 0.4072
C48 C 0.3728(4) 0.5711(3) 0.3904(2)
H50 H 0.3782 0.5771 0.3480
C49 C 0.2784(4) 0.5573(3) 0.4164(2)
H51 H 0.2198 0.5551 0.3918
C50 C 0.5345(5) 0.5608(5) 0.5834(3)
H52 H 0.5020 0.6093 0.6026
H53 H 0.6031 0.5543 0.5992
H54 H 0.4954 0.5098 0.5919
O1 O 0.4778(3) 0.3571(3) 0.5549(2)
O2 O 0.6278(2) 0.2669(2) 0.39093(18)
O3 O -0.2692(3) 0.4291(3) 0.2597(2)
N1 N 0.3855(3) 0.3109(3) 0.5444(2)
N2 N 0.4701(3) 0.3011(2) 0.36188(19)
N3 N 0.2096(3) 0.3775(2) 0.33091(18)
H1 H 0.1646 0.3545 0.3550
C1 C 0.5432(4) 0.3530(3) 0.5036(2)
H2 H 0.5327 0.4042 0.4781
C2 C 0.5064(3) 0.2760(3) 0.4695(2)
H3 H 0.5370 0.2247 0.4882
C3 C 0.5381(3) 0.2801(3) 0.4039(2)
C4 C 0.5013(4) 0.3099(4) 0.2987(2)
H4 H 0.4702 0.2647 0.2743
H5 H 0.5756 0.3043 0.2957
C5 C 0.4689(4) 0.3957(4) 0.2743(2)
H6 H 0.5080 0.4410 0.2942
H7 H 0.4817 0.3987 0.2304
C6 C 0.3589(4) 0.4068(3) 0.2867(2)
C7 C 0.2815(4) 0.4595(3) 0.2594(2)
C8 C 0.2835(4) 0.5194(3) 0.2151(2)
H8 H 0.3452 0.5347 0.1962
C9 C 0.1932(4) 0.5573(3) 0.1983(2)
H9 H 0.1934 0.5981 0.1670
C10 C 0.1023(4) 0.5365(3) 0.2265(2)
H10 H 0.0422 0.5646 0.2147
C11 C 0.0978(3) 0.4757(3) 0.2713(2)
C12 C 0.1897(4) 0.4393(3) 0.2871(2)
C13 C 0.3118(3) 0.3591(3) 0.3297(2)
C14 C 0.3592(3) 0.3027(3) 0.3741(2)
H11 H 0.3313 0.2447 0.3688
C15 C 0.3395(3) 0.3319(3) 0.4390(2)
H12 H 0.3620 0.3909 0.4437
H13 H 0.2661 0.3297 0.4474
C16 C 0.3946(3) 0.2772(3) 0.4834(2)
H14 H 0.3670 0.2186 0.4820
C17 C 0.3882(5) 0.2459(5) 0.5893(3)
H15 H 0.4507 0.2135 0.5851
H16 H 0.3300 0.2085 0.5840
H17 H 0.3856 0.2715 0.6295
C18 C 0.6515(4) 0.3498(5) 0.5239(3)
H18 H 0.6652 0.3974 0.5508
H19 H 0.6961 0.3531 0.4887
H20 H 0.6638 0.2970 0.5454
C19 C -0.0006(3) 0.4528(3) 0.3001(2)
C20 C -0.0876(3) 0.4481(3) 0.2648(2)
H21 H -0.0828 0.4553 0.2224
C21 C -0.1804(4) 0.4330(3) 0.2906(3)
C22 C -0.1879(4) 0.4235(3) 0.3532(3)
H22 H -0.2519 0.4139 0.3712
C23 C -0.1022(4) 0.4280(3) 0.3887(3)
H23 H -0.1074 0.4211 0.4311
C24 C -0.0086(4) 0.4427(3) 0.3627(2)
H24 H 0.0500 0.4458 0.3873
C25 C -0.2668(5) 0.4410(5) 0.1967(3)
H25 H -0.2415 0.4976 0.1877
H26 H -0.3351 0.4347 0.1803
H27 H -0.2222 0.3991 0.1784
loop_
_geom_bond_atom_site_label_1
_geom_bond_atom_site_label_2
_geom_bond_site_symmetry_1
_geom_bond_site_symmetry_2
O1 N1 1_555 1_555
O2 C3 1_555 1_555
O3 C21 1_555 1_555
N1 C16 1_555 1_555
N2 C3 1_555 1_555
N3 H1 1_555 1_555
C1 O1 1_555 1_555
H2 C1 1_555 1_555
C2 C1 1_555 1_555
H3 C2 1_555 1_555
C3 C2 1_555 1_555
C4 N2 1_555 1_555
H4 C4 1_555 1_555
H5 C4 1_555 1_555
C5 C4 1_555 1_555
H6 C5 1_555 1_555
H7 C5 1_555 1_555
C6 C5 1_555 1_555
C7 C6 1_555 1_555
C8 C7 1_555 1_555
H8 C8 1_555 1_555
C9 C8 1_555 1_555
H9 C9 1_555 1_555
C10 C9 1_555 1_555
H10 C10 1_555 1_555
C11 C10 1_555 1_555
C12 N3 1_555 1_555
C13 N3 1_555 1_555
C14 N2 1_555 1_555
H11 C14 1_555 1_555
C15 C14 1_555 1_555
H12 C15 1_555 1_555
H13 C15 1_555 1_555
C16 C2 1_555 1_555
H14 C16 1_555 1_555
C17 N1 1_555 1_555
H15 C17 1_555 1_555
H16 C17 1_555 1_555
H17 C17 1_555 1_555
C18 C1 1_555 1_555
H18 C18 1_555 1_555
H19 C18 1_555 1_555
H20 C18 1_555 1_555
C19 C11 1_555 1_555
C20 C19 1_555 1_555
H21 C20 1_555 1_555
C21 C20 1_555 1_555
C22 C21 1_555 1_555
H22 C22 1_555 1_555
C23 C22 1_555 1_555
H23 C23 1_555 1_555
C24 C19 1_555 1_555
H24 C24 1_555 1_555
C25 O3 1_555 1_555
H25 C25 1_555 1_555
H26 C25 1_555 1_555
H27 C25 1_555 1_555
O4 N4 1_555 1_555
O5 C28 1_555 1_555
O6 C46 1_555 1_555
N4 C41 1_555 1_555
N5 C28 1_555 1_555
N6 H28 1_555 1_555
C26 O4 1_555 1_555
H29 C26 1_555 1_555
C27 C26 1_555 1_555
H30 C27 1_555 1_555
C28 C27 1_555 1_555
C29 N5 1_555 1_555
H31 C29 1_555 1_555
H32 C29 1_555 1_555
C30 C29 1_555 1_555
H33 C30 1_555 1_555
H34 C30 1_555 1_555
C31 C30 1_555 1_555
C32 C31 1_555 1_555
C33 C32 1_555 1_555
H35 C33 1_555 1_555
C34 C33 1_555 1_555
H36 C34 1_555 1_555
C35 C34 1_555 1_555
H37 C35 1_555 1_555
C36 C35 1_555 1_555
C37 N6 1_555 1_555
C38 N6 1_555 1_555
C39 N5 1_555 1_555
H38 C39 1_555 1_555
C40 C39 1_555 1_555
H39 C40 1_555 1_555
H40 C40 1_555 1_555
C41 C27 1_555 1_555
H41 C41 1_555 1_555
C42 N4 1_555 1_555
H42 C42 1_555 1_555
H43 C42 1_555 1_555
H44 C42 1_555 1_555
C43 C26 1_555 1_555
H45 C43 1_555 1_555
H46 C43 1_555 1_555
H47 C43 1_555 1_555
C44 C36 1_555 1_555
C45 C44 1_555 1_555
H48 C45 1_555 1_555
C46 C45 1_555 1_555
C47 C46 1_555 1_555
H49 C47 1_555 1_555
C48 C47 1_555 1_555
H50 C48 1_555 1_555
C49 C44 1_555 1_555
H51 C49 1_555 1_555
C50 O6 1_555 1_555
H52 C50 1_555 1_555
H53 C50 1_555 1_555
H54 C50 1_555 1_555
C6 C13 1_555 1_555
C7 C12 1_555 1_555
C11 C12 1_555 1_555
C13 C14 1_555 1_555
C15 C16 1_555 1_555
C23 C24 1_555 1_555
C31 C38 1_555 1_555
C32 C37 1_555 1_555
C36 C37 1_555 1_555
C38 C39 1_555 1_555
C40 C41 1_555 1_555
C48 C49 1_555 1_555

#END
