
#######################################################################
#
#                 Cambridge Crystallographic Data Centre
#                                CCDC 
#
#######################################################################
#
# If this CIF has been generated from an entry in the Cambridge 
# Structural Database, then it will include bibliographic, chemical, 
# crystal, experimental, refinement or atomic coordinate data resulting 
# from the CCDC's data processing and validation procedures.
#
#######################################################################

data_HIQNAW
_chemical_formula_moiety         'C18 H19 N5 O6,H2 O1'
_chemical_name_systematic        'N-Anisoyladenosine monohydrate'
_symmetry_cell_setting           monoclinic
_symmetry_space_group_name_H-M   'P 21'
_symmetry_Int_Tables_number      4
_space_group_name_Hall           'P 2yb'
loop_
_symmetry_equiv_pos_site_id
_symmetry_equiv_pos_as_xyz
1 x,y,z
2 -x,1/2+y,-z
_cell_length_a                   9.412(2)
_cell_length_b                   6.9140(10)
_cell_length_c                   14.667(2)
_cell_angle_alpha                90
_cell_angle_beta                 102.89(2)
_cell_angle_gamma                90
_cell_volume                     930.397
_exptl_crystal_colour            colorless
_exptl_crystal_description       Plate
_cell_formula_units_Z            2
_exptl_crystal_recrystallization_method dimethylformamide
loop_
_atom_site_label
_atom_site_type_symbol
_atom_site_fract_x
_atom_site_fract_y
_atom_site_fract_z
N1 N 0.8953(2) -0.2648(4) 0.30400(12)
C1 C 0.8028(2) -0.2704(4) 0.21970(14)
H1 H 0.8450(2) -0.2985(4) 0.16961(14)
N2 N 0.6600(2) -0.2417(4) 0.19791(11)
C2 C 0.6110(2) -0.2054(4) 0.27477(13)
C3 C 0.6915(2) -0.1945(4) 0.36582(13)
C4 C 0.8429(2) -0.2245(4) 0.37937(13)
N3 N 0.9326(2) -0.2202(4) 0.46786(11)
H2 H 0.8914(2) -0.2292(4) 0.51445(11)
N4 N 0.6016(2) -0.1593(4) 0.42686(11)
C5 C 0.4699(2) -0.1498(5) 0.37242(13)
H3 H 0.3863(2) -0.1276(5) 0.39478(13)
N5 N 0.4684(2) -0.1759(4) 0.27978(10)
C6 C 0.3453(2) -0.1847(4) 0.19982(12)
H4 H 0.3494(2) -0.3060(4) 0.16594(12)
C7 C 0.1980(2) -0.1684(4) 0.22577(12)
H5 H 0.2029(2) -0.0738(4) 0.27613(12)
O1 O 0.15442(14) -0.3499(4) 0.25358(10)
H6 H 0.1013(49) -0.3344(4) 0.2903(30)
C8 C 0.1047(2) -0.0895(4) 0.13421(13)
H7 H 0.0171(2) -0.0242(4) 0.14420(13)
O2 O 0.0698(2) -0.2486(4) 0.07269(11)
H8 H 0.0300(29) -0.2096(5) 0.0204(5)
C9 C 0.2100(2) 0.0519(4) 0.10447(12)
H9 H 0.1903(2) 0.0569(4) 0.03603(12)
O3 O 0.35364(15) -0.0272 0.13996(10)
C10 C 0.2082(2) 0.2559(4) 0.14280(14)
H10 H 0.2188(2) 0.2515(4) 0.21008(14)
H11 H 0.2889(2) 0.3297(4) 0.12946(14)
O4 O 0.0748(2) 0.3451(4) 0.10044(13)
H12 H 0.0678(36) 0.4487(50) 0.1263(34)
C11 C 1.0833(2) -0.2027(4) 0.48825(13)
O5 O 1.1497(2) -0.1716(5) 0.42788(10)
C12 C 1.1605(2) -0.2172(4) 0.58850(13)
C13 C 1.0960(2) -0.2572(5) 0.66226(15)
H13 H 0.9965(2) -0.2824(5) 0.65037(15)
C14 C 1.1767(2) -0.2606(5) 0.75348(15)
H14 H 1.1313(2) -0.2861(5) 0.80240(15)
C15 C 1.3263(2) -0.2257(4) 0.77176(14)
C16 C 1.3929(2) -0.1905(5) 0.6984(2)
H15 H 1.4930(2) -0.1701(5) 0.7102(2)
C17 C 1.3119(2) -0.1857(5) 0.60816(15)
H16 H 1.3577(2) -0.1613(5) 0.55935(15)
O6 O 1.4152(2) -0.2169(4) 0.85798(11)
C18 C 1.3599(4) -0.2806(9) 0.9362(2)
H17 H 1.4340(4) -0.2663(9) 0.9925(2)
H18 H 1.3320(4) -0.4141(9) 0.9279(2)
H19 H 1.2766(4) -0.2041(9) 0.9406(2)
O7 O 0.7417(2) -0.1657(5) 0.61514(12)
H20 H 0.6824(36) -0.1403(62) 0.5568(23)
H21 H 0.7488(40) -0.0501(78) 0.6478(24)
loop_
_geom_bond_atom_site_label_1
_geom_bond_atom_site_label_2
_geom_bond_site_symmetry_1
_geom_bond_site_symmetry_2
N1 C1 1_555 1_555
C1 H1 1_555 1_555
N2 C1 1_555 1_555
C2 N2 1_555 1_555
C3 C2 1_555 1_555
C4 N1 1_555 1_555
N3 C4 1_555 1_555
H2 N3 1_555 1_555
N4 C3 1_555 1_555
C5 N4 1_555 1_555
H3 C5 1_555 1_555
N5 C2 1_555 1_555
C6 N5 1_555 1_555
H4 C6 1_555 1_555
C7 C6 1_555 1_555
H5 C7 1_555 1_555
O1 C7 1_555 1_555
H6 O1 1_555 1_555
C8 C7 1_555 1_555
H7 C8 1_555 1_555
O2 C8 1_555 1_555
H8 O2 1_555 1_555
C9 C8 1_555 1_555
H9 C9 1_555 1_555
O3 C6 1_555 1_555
C10 C9 1_555 1_555
H10 C10 1_555 1_555
H11 C10 1_555 1_555
O4 C10 1_555 1_555
H12 O4 1_555 1_555
C11 N3 1_555 1_555
O5 C11 1_555 1_555
C12 C11 1_555 1_555
C13 C12 1_555 1_555
H13 C13 1_555 1_555
C14 C13 1_555 1_555
H14 C14 1_555 1_555
C15 C14 1_555 1_555
C16 C15 1_555 1_555
H15 C16 1_555 1_555
C17 C12 1_555 1_555
H16 C17 1_555 1_555
O6 C15 1_555 1_555
C18 O6 1_555 1_555
H17 C18 1_555 1_555
H18 C18 1_555 1_555
H19 C18 1_555 1_555
O7 H20 1_555 1_555
H21 O7 1_555 1_555
C3 C4 1_555 1_555
C5 N5 1_555 1_555
C9 O3 1_555 1_555
C16 C17 1_555 1_555

#END
