
#######################################################################
#
#                 Cambridge Crystallographic Data Centre
#                                CCDC 
#
#######################################################################
#
# If this CIF has been generated from an entry in the Cambridge 
# Structural Database, then it will include bibliographic, chemical, 
# crystal, experimental, refinement or atomic coordinate data resulting 
# from the CCDC's data processing and validation procedures.
#
#######################################################################

data_HIQSEI
_chemical_formula_moiety         'C17 H16 N2 O1'
_chemical_name_systematic        
3a-methyl-1-phenyl-3a,8-dihydro-1H-pyrazolo[5,1-a]isoindol-2(3H)-one
_symmetry_cell_setting           orthorhombic
_symmetry_space_group_name_H-M   'P 21 21 21'
_symmetry_Int_Tables_number      19
_space_group_name_Hall           'P 2ac 2ab'
loop_
_symmetry_equiv_pos_site_id
_symmetry_equiv_pos_as_xyz
1 x,y,z
2 1/2-x,-y,1/2+z
3 -x,1/2+y,1/2-z
4 1/2+x,1/2-y,-z
_cell_length_a                   8.6230(3)
_cell_length_b                   9.0471(4)
_cell_length_c                   18.2985(5)
_cell_angle_alpha                90
_cell_angle_beta                 90
_cell_angle_gamma                90
_cell_volume                     1427.52
_exptl_crystal_colour            colorless
_exptl_crystal_description       plate
_cell_formula_units_Z            4
loop_
_atom_site_label
_atom_site_type_symbol
_atom_site_fract_x
_atom_site_fract_y
_atom_site_fract_z
O1 O 0.5753(2) 0.39527(19) 0.38069(9)
N1 N 0.74578(18) 0.70032(19) 0.29378(8)
N2 N 0.63401(19) 0.6298(2) 0.33990(9)
C1 C 0.6780(3) 0.7439(3) 0.22198(10)
H1 H 0.6528 0.8484 0.2209
H2 H 0.5856 0.6870 0.2110
C2 C 0.5570(3) 0.8721(3) 0.38201(12)
H3 H 0.6395 0.9132 0.3564
C3 C 1.0384(3) 0.5606(3) 0.16439(13)
H4 H 1.1090 0.4972 0.1866
C4 C 0.7826(3) 0.4390(2) 0.29244(13)
H5 H 0.7437 0.4001 0.2466
H6 H 0.8502 0.3662 0.3148
C5 C 0.9531(4) 0.6969(3) 0.05921(12)
H7 H 0.9685 0.7249 0.0108
C6 C 0.9995(3) 0.6073(3) 0.33535(12)
H8 H 1.0398 0.7058 0.3307
H9 H 1.0804 0.5372 0.3257
H10 H 0.9610 0.5930 0.3841
C7 C 1.0566(4) 0.6024(3) 0.09237(15)
H11 H 1.1402 0.5661 0.0658
C8 C 0.4582(3) 0.9622(3) 0.42171(15)
H12 H 0.4750 1.0638 0.4225
C9 C 0.4074(3) 0.6624(3) 0.41794(16)
H13 H 0.3883 0.5613 0.4168
C10 C 0.3358(4) 0.9036(4) 0.45991(14)
H14 H 0.2711 0.9643 0.4873
C11 C 0.3106(4) 0.7550(5) 0.45705(17)
H15 H 0.2264 0.7150 0.4819
C12 C 0.5329(2) 0.7206(3) 0.38053(10)
C13 C 0.8074(3) 0.7081(2) 0.16976(10)
C14 C 0.9131(2) 0.6152(2) 0.20259(11)
C15 C 0.8677(3) 0.5851(2) 0.28066(10)
C16 C 0.6515(3) 0.4792(2) 0.34275(11)
C17 C 0.8255(4) 0.7511(3) 0.09755(12)
H16 H 0.7546 0.8143 0.0754
loop_
_geom_bond_atom_site_label_1
_geom_bond_atom_site_label_2
_geom_bond_site_symmetry_1
_geom_bond_site_symmetry_2
O1 C16 1_555 1_555
N1 N2 1_555 1_555
N2 C12 1_555 1_555
C1 N1 1_555 1_555
H1 C1 1_555 1_555
H2 C1 1_555 1_555
C2 H3 1_555 1_555
C3 H4 1_555 1_555
C4 H5 1_555 1_555
H6 C4 1_555 1_555
C5 H7 1_555 1_555
C6 H8 1_555 1_555
H9 C6 1_555 1_555
H10 C6 1_555 1_555
C7 C3 1_555 1_555
H11 C7 1_555 1_555
C8 C2 1_555 1_555
H12 C8 1_555 1_555
C9 H13 1_555 1_555
C10 C8 1_555 1_555
H14 C10 1_555 1_555
C11 C9 1_555 1_555
H15 C11 1_555 1_555
C12 C2 1_555 1_555
C13 C1 1_555 1_555
C14 C3 1_555 1_555
C15 N1 1_555 1_555
C16 N2 1_555 1_555
C17 C5 1_555 1_555
H16 C17 1_555 1_555
C4 C15 1_555 1_555
C4 C16 1_555 1_555
C5 C7 1_555 1_555
C6 C15 1_555 1_555
C9 C12 1_555 1_555
C10 C11 1_555 1_555
C13 C14 1_555 1_555
C13 C17 1_555 1_555
C14 C15 1_555 1_555

#END
