
#######################################################################
#
#                 Cambridge Crystallographic Data Centre
#                                CCDC 
#
#######################################################################
#
# If this CIF has been generated from an entry in the Cambridge 
# Structural Database, then it will include bibliographic, chemical, 
# crystal, experimental, refinement or atomic coordinate data resulting 
# from the CCDC's data processing and validation procedures.
#
#######################################################################

data_HIQYIS
_chemical_formula_moiety         'C14 H11 Br3 N2'
_chemical_name_systematic        
(1E)-[3-(dibromomethyl)phenyl][3-(bromomethyl)phenyl]-diazene
_symmetry_cell_setting           monoclinic
_symmetry_space_group_name_H-M   'P 21/c'
_symmetry_Int_Tables_number      14
_space_group_name_Hall           '-P 2ybc'
loop_
_symmetry_equiv_pos_site_id
_symmetry_equiv_pos_as_xyz
1 x,y,z
2 -x,1/2+y,1/2-z
3 -x,-y,-z
4 x,1/2-y,1/2+z
_cell_length_a                   9.1219(12)
_cell_length_b                   16.904(2)
_cell_length_c                   10.3633(14)
_cell_angle_alpha                90
_cell_angle_beta                 112.122(2)
_cell_angle_gamma                90
_cell_volume                     1480.35
_exptl_crystal_colour            orange
_exptl_crystal_description       plate
_chemical_melting_point          '393-394 K'
_cell_formula_units_Z            4
loop_
_atom_site_label
_atom_site_type_symbol
_atom_site_fract_x
_atom_site_fract_y
_atom_site_fract_z
Br1 Br 1.09235(4) 0.54419(2) 0.34234(3)
Br2 Br 0.94505(5) 0.41237(2) 0.11026(4)
Br3 Br -0.00058(5) 0.24139(2) 0.40366(4)
N1 N 0.4960(4) 0.43930(17) 0.3487(3)
N2 N 0.5936(3) 0.39273(16) 0.4327(3)
C1 C 0.5604(4) 0.48745(18) 0.2701(3)
C2 C 0.7098(4) 0.47785(19) 0.2674(3)
H1 H 0.779123 0.438302 0.322746
C3 C 0.7572(4) 0.52686(19) 0.1825(3)
C4 C 0.6551(4) 0.58540(19) 0.1023(3)
H2 H 0.688248 0.618877 0.044799
C5 C 0.5056(4) 0.5950(2) 0.1060(3)
H3 H 0.437065 0.635233 0.052167
C6 C 0.4570(4) 0.54534(19) 0.1888(3)
H4 H 0.353993 0.550622 0.190390
C7 C 0.9147(4) 0.51828(19) 0.1700(3)
H5 H 0.917280 0.556187 0.096781
C8 C 0.5242(4) 0.34393(18) 0.5071(3)
C9 C 0.3667(4) 0.34994(19) 0.4934(3)
H6 H 0.298856 0.387776 0.431683
C10 C 0.3095(4) 0.3004(2) 0.5702(3)
C11 C 0.4110(4) 0.2447(2) 0.6609(3)
H7 H 0.371548 0.210409 0.712955
C12 C 0.5673(5) 0.2392(2) 0.6753(3)
H8 H 0.635204 0.201636 0.737713
C13 C 0.6254(4) 0.2887(2) 0.5980(3)
H9 H 0.732794 0.285066 0.607032
C14 C 0.1423(5) 0.3077(2) 0.5578(4)
H10 H 0.108921 0.363708 0.540690
H11 H 0.133999 0.291236 0.646449
loop_
_geom_bond_atom_site_label_1
_geom_bond_atom_site_label_2
_geom_bond_site_symmetry_1
_geom_bond_site_symmetry_2
Br1 C7 1_555 1_555
Br2 C7 1_555 1_555
Br3 C14 1_555 1_555
N1 N2 1_555 1_555
N2 C8 1_555 1_555
C1 N1 1_555 1_555
C2 C1 1_555 1_555
H1 C2 1_555 1_555
C3 C2 1_555 1_555
C4 C3 1_555 1_555
H2 C4 1_555 1_555
C5 C4 1_555 1_555
H3 C5 1_555 1_555
C6 C1 1_555 1_555
H4 C6 1_555 1_555
C7 C3 1_555 1_555
H5 C7 1_555 1_555
C8 C9 1_555 1_555
C9 H6 1_555 1_555
C10 C9 1_555 1_555
C11 C10 1_555 1_555
H7 C11 1_555 1_555
C12 C11 1_555 1_555
H8 C12 1_555 1_555
C13 C8 1_555 1_555
H9 C13 1_555 1_555
C14 C10 1_555 1_555
H10 C14 1_555 1_555
H11 C14 1_555 1_555
C5 C6 1_555 1_555
C12 C13 1_555 1_555

#END
