
#######################################################################
#
#                 Cambridge Crystallographic Data Centre
#                                CCDC 
#
#######################################################################
#
# If this CIF has been generated from an entry in the Cambridge 
# Structural Database, then it will include bibliographic, chemical, 
# crystal, experimental, refinement or atomic coordinate data resulting 
# from the CCDC's data processing and validation procedures.
#
#######################################################################

data_HIRCOB
_chemical_formula_moiety         'C10 H7 F3 O4'
_chemical_name_systematic        '2-Carboxy-5-(trifluoromethyl)phenyl acetate'
_symmetry_cell_setting           monoclinic
_symmetry_space_group_name_H-M   'P 21/n'
_symmetry_Int_Tables_number      14
_space_group_name_Hall           '-P 2yn'
loop_
_symmetry_equiv_pos_site_id
_symmetry_equiv_pos_as_xyz
1 x,y,z
2 1/2-x,1/2+y,1/2-z
3 -x,-y,-z
4 1/2+x,1/2-y,1/2+z
_cell_length_a                   14.558(3)
_cell_length_b                   5.7520(12)
_cell_length_c                   26.243(5)
_cell_angle_alpha                90
_cell_angle_beta                 102.56(3)
_cell_angle_gamma                90
_cell_volume                     2144.94
_exptl_crystal_colour            colorless
_exptl_crystal_description       block
_chemical_melting_point          '480 K'
_cell_formula_units_Z            8
_exptl_crystal_recrystallization_method acetone
loop_
_atom_site_label
_atom_site_type_symbol
_atom_site_fract_x
_atom_site_fract_y
_atom_site_fract_z
O1 O 0.9999(3) -0.2926(8) 0.04713(16)
H1 H 1.0431 -0.3851 0.0565
O2 O 0.9372(3) -0.4915(8) 0.10301(17)
O3 O 0.8243(4) -0.1993(9) 0.17950(19)
O4 O 0.7574(2) -0.3920(7) 0.10665(16)
F1 F 0.5505(3) 0.1828(7) -0.02489(16)
F2 F 0.6350(2) 0.4848(6) -0.00741(15)
F3 F 0.5733(2) 0.3315(6) 0.05013(14)
C1 C 0.9332(4) -0.3349(10) 0.0722(2)
C2 C 0.8526(4) -0.1699(9) 0.0581(2)
C3 C 0.7697(3) -0.2003(9) 0.0766(2)
C4 C 0.6952(4) -0.0522(9) 0.0618(2)
H2 H 0.6411 -0.0746 0.0746
C5 C 0.6992(3) 0.1293(9) 0.02827(19)
C6 C 0.7798(4) 0.1678(10) 0.0096(2)
H3 H 0.7840 0.2924 -0.0124
C7 C 0.8543(4) 0.0139(10) 0.0247(2)
H4 H 0.9080 0.0361 0.0116
C8 C 0.7885(4) -0.3724(13) 0.1602(3)
C9 C 0.7701(5) -0.5929(12) 0.1860(3)
H5 H 0.7920 -0.5783 0.2231
H6 H 0.8028 -0.7182 0.1735
H7 H 0.7038 -0.6245 0.1780
C10 C 0.6158(4) 0.2812(11) 0.0115(2)
O5 O 1.0815(3) -0.7810(7) 0.12631(17)
H8 H 1.0396 -0.6846 0.1175
O6 O 1.1450(3) -0.5743(7) 0.07251(16)
O7 O 1.2003(3) -0.9896(9) 0.23943(17)
O8 O 1.1704(2) -1.1778(6) 0.16344(13)
F4 F 1.5198(4) -1.2824(17) 0.2164(3)
F5 F 1.5193(5) -1.3647(14) 0.1369(3)
F6 F 1.5774(4) -1.0544(13) 0.1709(4)
C11 C 1.1474(4) -0.7344(10) 0.1058(2)
C12 C 1.2380(3) -0.8623(10) 0.1208(2)
C13 C 1.3175(4) -0.7777(10) 0.1073(2)
H9 H 1.3125 -0.6433 0.0871
C14 C 1.4036(4) -0.8814(10) 0.1219(2)
H10 H 1.4560 -0.8176 0.1123
C15 C 1.4113(4) -1.0808(10) 0.1510(2)
C16 C 1.3343(3) -1.1774(9) 0.1659(2)
H11 H 1.3406 -1.3119 0.1860
C17 C 1.2476(4) -1.0697(9) 0.15023(19)
C18 C 1.1530(4) -1.1230(12) 0.2111(2)
C19 C 1.0710(4) -1.2563(13) 0.2207(2)
H12 H 1.0596 -1.2147 0.2542
H13 H 1.0841 -1.4198 0.2201
H14 H 1.0165 -1.2206 0.1940
C20 C 1.5044(4) -1.2004(14) 0.1687(3)
F7? F 1.4989(14) -1.428(4) 0.1841(11)
F8? F 1.5587(15) -1.187(5) 0.1397(8)
F9? F 1.5503(15) -1.089(4) 0.2094(9)
loop_
_geom_bond_atom_site_label_1
_geom_bond_atom_site_label_2
_geom_bond_site_symmetry_1
_geom_bond_site_symmetry_2
O1 H1 1_555 1_555
O2 C1 1_555 1_555
O3 C8 1_555 1_555
O4 C3 1_555 1_555
F1 C10 1_555 1_555
F2 C10 1_555 1_555
F3 C10 1_555 1_555
C1 O1 1_555 1_555
C2 C1 1_555 1_555
C3 C2 1_555 1_555
C4 C3 1_555 1_555
H2 C4 1_555 1_555
C5 C4 1_555 1_555
C6 C5 1_555 1_555
H3 C6 1_555 1_555
C7 C2 1_555 1_555
H4 C7 1_555 1_555
C8 O4 1_555 1_555
C9 C8 1_555 1_555
H5 C9 1_555 1_555
H6 C9 1_555 1_555
H7 C9 1_555 1_555
C10 C5 1_555 1_555
O5 H8 1_555 1_555
O6 C11 1_555 1_555
O7 C18 1_555 1_555
O8 C17 1_555 1_555
F4 C20 1_555 1_555
F5 C20 1_555 1_555
F6 C20 1_555 1_555
C11 O5 1_555 1_555
C12 C11 1_555 1_555
C13 C12 1_555 1_555
H9 C13 1_555 1_555
C14 C13 1_555 1_555
H10 C14 1_555 1_555
C15 C14 1_555 1_555
C16 C15 1_555 1_555
H11 C16 1_555 1_555
C17 C12 1_555 1_555
C18 O8 1_555 1_555
C19 C18 1_555 1_555
H12 C19 1_555 1_555
H13 C19 1_555 1_555
H14 C19 1_555 1_555
C20 C15 1_555 1_555
C6 C7 1_555 1_555
C16 C17 1_555 1_555

#END
