
#######################################################################
#
#                 Cambridge Crystallographic Data Centre
#                                CCDC 
#
#######################################################################
#
# If this CIF has been generated from an entry in the Cambridge 
# Structural Database, then it will include bibliographic, chemical, 
# crystal, experimental, refinement or atomic coordinate data resulting 
# from the CCDC's data processing and validation procedures.
#
#######################################################################

data_HIRDEU
_chemical_formula_moiety         'C12 H19 I2 N1 O3 S1'
_chemical_name_systematic        
'(1,3-diiodotricyclo[3.3.1.1^3,7^]decan-2-yl)methyl methylsulfamate'
_symmetry_cell_setting           monoclinic
_symmetry_space_group_name_H-M   'P 21/c'
_symmetry_Int_Tables_number      14
_space_group_name_Hall           '-P 2ybc'
loop_
_symmetry_equiv_pos_site_id
_symmetry_equiv_pos_as_xyz
1 x,y,z
2 -x,1/2+y,1/2-z
3 -x,-y,-z
4 x,1/2-y,1/2+z
_cell_length_a                   10.3858(2)
_cell_length_b                   8.60040(10)
_cell_length_c                   18.4118(3)
_cell_angle_alpha                90
_cell_angle_beta                 106.354(2)
_cell_angle_gamma                90
_cell_volume                     1578.04
_exptl_crystal_colour            yellow
_exptl_crystal_description       Block
_cell_formula_units_Z            4
loop_
_atom_site_label
_atom_site_type_symbol
_atom_site_fract_x
_atom_site_fract_y
_atom_site_fract_z
S1 S 0.58831(3) 0.68165(3) 0.72387(2)
C1 C 0.80492(10) 0.38739(13) 0.65005(6)
H1 H 0.8753 0.4628 0.6731
O1 O 0.70862(9) 0.58419(11) 0.71033(5)
N1 N 0.53001(10) 0.58656(13) 0.78280(6)
H2 H 0.4476 0.5571 0.7706
I1 I 0.72573(2) 0.61018(2) 0.51330(2)
C2 C 0.79147(11) 0.38109(13) 0.56391(6)
I2 I 0.88167(2) 0.21834(2) 0.80431(2)
O2 O 0.48324(10) 0.69311(13) 0.65486(6)
O3 O 0.65354(10) 0.81918(11) 0.76069(6)
C3 C 0.92812(12) 0.34933(15) 0.55060(7)
H3 H 0.9917 0.4291 0.5749
H4 H 0.9198 0.3507 0.4968
C4 C 0.97787(12) 0.18894(15) 0.58398(7)
H5 H 1.0653 0.1672 0.5757
C5 C 0.99290(11) 0.19107(14) 0.66958(7)
H6 H 1.0263 0.0915 0.6918
H7 H 1.0562 0.2711 0.6940
C6 C 0.85518(11) 0.22407(13) 0.68112(6)
C7 C 0.75483(12) 0.09735(14) 0.64403(7)
H8 H 0.6685 0.1176 0.6528
H9 H 0.7865 -0.0033 0.6656
C8 C 0.74068(12) 0.09764(14) 0.55827(7)
H10 H 0.6763 0.0172 0.5336
C9 C 0.68966(12) 0.25773(15) 0.52427(7)
H11 H 0.6802 0.2581 0.4703
H12 H 0.6027 0.2797 0.5318
C10 C 0.87740(13) 0.06314(15) 0.54500(7)
H13 H 0.9091 -0.0382 0.5655
H14 H 0.8687 0.0622 0.4911
C11 C 0.67539(11) 0.43914(13) 0.66780(7)
H15 H 0.6042 0.4559 0.6214
H16 H 0.6463 0.3610 0.6977
C12 C 0.62027(14) 0.55099(17) 0.85785(7)
H17 H 0.5699 0.5049 0.8887
H18 H 0.6617 0.6451 0.8812
H19 H 0.6883 0.4797 0.8527
loop_
_geom_bond_atom_site_label_1
_geom_bond_atom_site_label_2
_geom_bond_site_symmetry_1
_geom_bond_site_symmetry_2
S1 O1 1_555 1_555
C1 H1 1_555 1_555
O1 C11 1_555 1_555
N1 S1 1_555 1_555
H2 N1 1_555 1_555
I1 C2 1_555 1_555
C2 C1 1_555 1_555
I2 C6 1_555 1_555
O2 S1 1_555 1_555
O3 S1 1_555 1_555
C3 C2 1_555 1_555
H3 C3 1_555 1_555
H4 C3 1_555 1_555
C4 C3 1_555 1_555
H5 C4 1_555 1_555
C5 C4 1_555 1_555
H6 C5 1_555 1_555
H7 C5 1_555 1_555
C6 C1 1_555 1_555
C7 C6 1_555 1_555
H8 C7 1_555 1_555
H9 C7 1_555 1_555
C8 C7 1_555 1_555
H10 C8 1_555 1_555
C9 C2 1_555 1_555
H11 C9 1_555 1_555
H12 C9 1_555 1_555
C10 C4 1_555 1_555
H13 C10 1_555 1_555
H14 C10 1_555 1_555
C11 C1 1_555 1_555
H15 C11 1_555 1_555
H16 C11 1_555 1_555
C12 N1 1_555 1_555
H17 C12 1_555 1_555
H18 C12 1_555 1_555
H19 C12 1_555 1_555
C5 C6 1_555 1_555
C8 C9 1_555 1_555
C8 C10 1_555 1_555

#END
