
#######################################################################
#
#                 Cambridge Crystallographic Data Centre
#                                CCDC 
#
#######################################################################
#
# If this CIF has been generated from an entry in the Cambridge 
# Structural Database, then it will include bibliographic, chemical, 
# crystal, experimental, refinement or atomic coordinate data resulting 
# from the CCDC's data processing and validation procedures.
#
#######################################################################

data_HIRDUK
_chemical_formula_moiety         'C18 H18 Br1 N1 O2 S1'
_chemical_name_systematic        
4-bromo-1-[(4-methylphenyl)sulfonyl]-1,2,3,3a,4,8b-hexahydroindeno[1,2-b]pyrrole
_symmetry_cell_setting           triclinic
_symmetry_space_group_name_H-M   'P -1'
_symmetry_Int_Tables_number      2
_space_group_name_Hall           '-P 1'
loop_
_symmetry_equiv_pos_site_id
_symmetry_equiv_pos_as_xyz
1 x,y,z
2 -x,-y,-z
_cell_length_a                   7.5287(4)
_cell_length_b                   10.6006(5)
_cell_length_c                   10.8502(6)
_cell_angle_alpha                80.7457(12)
_cell_angle_beta                 77.8958(12)
_cell_angle_gamma                77.6530(13)
_cell_volume                     820.986
_exptl_crystal_colour            colorless
_exptl_crystal_description       plate
_cell_formula_units_Z            2
loop_
_atom_site_label
_atom_site_type_symbol
_atom_site_fract_x
_atom_site_fract_y
_atom_site_fract_z
Br1 Br 0.65277(2) 0.85545(2) 0.68846(2)
C1 C 0.54216(18) 0.73817(13) 0.61696(12)
H1 H 0.6427 0.6673 0.5833
C2 C 0.44131(18) 0.80920(13) 0.50764(12)
H2 H 0.4055 0.9047 0.5137
C3 C 0.54832(19) 0.78311(14) 0.37526(13)
H3 H 0.5022 0.8505 0.3091
H4 H 0.6823 0.7798 0.3692
C4 C 0.50926(18) 0.65058(14) 0.36308(13)
H5 H 0.5266 0.6373 0.2728
H6 H 0.5915 0.5795 0.4063
C5 C 0.26677(17) 0.74675(13) 0.52463(12)
H7 H 0.1541 0.8142 0.5137
C6 C 0.24895(18) 0.67534(13) 0.65739(12)
C7 C 0.10900(19) 0.60853(15) 0.72128(13)
H8 H 0.0087 0.6047 0.6824
C8 C 0.1206(2) 0.54781(17) 0.84343(14)
H9 H 0.0278 0.5009 0.8885
C9 C 0.2679(2) 0.55497(17) 0.90109(14)
H10 H 0.2714 0.5154 0.9858
C10 C 0.4088(2) 0.61925(15) 0.83581(13)
H11 H 0.5091 0.6234 0.8746
C11 C 0.39960(18) 0.67753(13) 0.71193(12)
C12 C 0.15521(18) 0.80726(14) 0.23336(12)
C13 C 0.03508(19) 0.92167(14) 0.26689(13)
H12 H -0.0509 0.9209 0.3447
C14 C 0.0428(2) 1.03645(15) 0.18530(14)
H13 H -0.0395 1.1140 0.2077
C15 C 0.1694(2) 1.04006(15) 0.07079(14)
C16 C 0.2858(2) 0.92440(16) 0.03795(14)
H14 H 0.3705 0.9250 -0.0404
C17 C 0.2798(2) 0.80835(15) 0.11803(13)
H15 H 0.3598 0.7303 0.0945
C18 C 0.1792(3) 1.16634(18) -0.01454(16)
H16 H 0.2318 1.1482 -0.1019
H17 H 0.2577 1.2142 0.0143
H18 H 0.0546 1.2188 -0.0115
N1 N 0.31195(15) 0.65570(12) 0.42637(10)
O1 O 0.22231(15) 0.55591(11) 0.26392(10)
O2 O -0.01823(14) 0.67216(11) 0.42366(10)
S1 S 0.15723(4) 0.66205(3) 0.33891(3)
loop_
_geom_bond_atom_site_label_1
_geom_bond_atom_site_label_2
_geom_bond_site_symmetry_1
_geom_bond_site_symmetry_2
Br1 C1 1_555 1_555
C1 H1 1_555 1_555
C2 C1 1_555 1_555
H2 C2 1_555 1_555
C3 C2 1_555 1_555
H3 C3 1_555 1_555
H4 C3 1_555 1_555
C4 C3 1_555 1_555
H5 C4 1_555 1_555
H6 C4 1_555 1_555
C5 C2 1_555 1_555
H7 C5 1_555 1_555
C6 C5 1_555 1_555
C7 C6 1_555 1_555
H8 C7 1_555 1_555
C8 C7 1_555 1_555
H9 C8 1_555 1_555
C9 C8 1_555 1_555
H10 C9 1_555 1_555
C10 C9 1_555 1_555
H11 C10 1_555 1_555
C11 C1 1_555 1_555
C12 C13 1_555 1_555
C13 H12 1_555 1_555
C14 C13 1_555 1_555
H13 C14 1_555 1_555
C15 C14 1_555 1_555
C16 C15 1_555 1_555
H14 C16 1_555 1_555
C17 C12 1_555 1_555
H15 C17 1_555 1_555
C18 C15 1_555 1_555
H16 C18 1_555 1_555
H17 C18 1_555 1_555
H18 C18 1_555 1_555
N1 C4 1_555 1_555
O1 S1 1_555 1_555
O2 S1 1_555 1_555
S1 C12 1_555 1_555
C5 N1 1_555 1_555
C6 C11 1_555 1_555
C10 C11 1_555 1_555
C16 C17 1_555 1_555
N1 S1 1_555 1_555

#END
