
#######################################################################
#
#                 Cambridge Crystallographic Data Centre
#                                CCDC 
#
#######################################################################
#
# If this CIF has been generated from an entry in the Cambridge 
# Structural Database, then it will include bibliographic, chemical, 
# crystal, experimental, refinement or atomic coordinate data resulting 
# from the CCDC's data processing and validation procedures.
#
#######################################################################

data_HIRHIC
_chemical_formula_moiety         'C15 H26 O3'
_chemical_name_systematic        
1-[3,5-dihydroxy-7a-methyl-5-(propan-2-yl)octahydro-3aH-inden-3a-yl]ethan-1-one
_symmetry_cell_setting           triclinic
_symmetry_space_group_name_H-M   'P 1'
_symmetry_Int_Tables_number      1
_space_group_name_Hall           'P 1'
loop_
_symmetry_equiv_pos_site_id
_symmetry_equiv_pos_as_xyz
1 x,y,z
_cell_length_a                   6.9631(10)
_cell_length_b                   10.2646(14)
_cell_length_c                   11.2511(15)
_cell_angle_alpha                74.472(6)
_cell_angle_beta                 81.297(6)
_cell_angle_gamma                70.974(6)
_cell_volume                     730.663
_exptl_crystal_description       block
_cell_formula_units_Z            2
loop_
_atom_site_label
_atom_site_type_symbol
_atom_site_fract_x
_atom_site_fract_y
_atom_site_fract_z
O1 O 0.7727(3) 0.6050(2) 0.57352(16)
H1 H 0.7618 0.5323 0.5617
C1 C 1.0333(5) 0.1451(3) 0.8195(3)
H2 H 1.0015 0.0734 0.8885
H3 H 1.1801 0.1240 0.8062
O2 O 0.7299(4) 0.3613(2) 0.57592(18)
H4 H 0.6271 0.3705 0.5434
C2 C 0.9407(6) 0.1499(4) 0.7027(4)
H5 H 0.9219 0.0590 0.7074
H6 H 1.0303 0.1710 0.6302
O3 O 0.4537(4) 0.3553(3) 0.9715(2)
C3 C 0.7341(5) 0.2665(3) 0.6942(3)
H7 H 0.6242 0.2234 0.7049
C4 C 0.7140(4) 0.3400(3) 0.8029(2)
C5 C 0.5757(4) 0.2793(3) 0.9106(3)
C6 C 0.6131(4) 0.5019(3) 0.7708(2)
H8 H 0.5010 0.5213 0.7206
H9 H 0.5542 0.5294 0.8475
C7 C 0.7406(4) 0.6007(3) 0.7036(2)
C8 C 1.0512(4) 0.3921(3) 0.7612(3)
H10 H 1.1867 0.3655 0.7893
H11 H 1.0661 0.3789 0.6777
C9 C 0.9478(5) 0.5474(3) 0.7583(3)
H12 H 1.0342 0.6026 0.7093
H13 H 0.9300 0.5612 0.8417
C10 C 0.5885(6) 0.1248(4) 0.9438(4)
H14 H 0.6558 0.0829 0.8760
H15 H 0.4537 0.1154 0.9606
H16 H 0.6641 0.0775 1.0158
C11 C 0.9462(5) 0.2920(4) 0.9803(3)
H17 H 1.0854 0.2712 0.9974
H18 H 0.8901 0.2209 1.0332
H19 H 0.8691 0.3832 0.9951
C12 C 0.7423(9) 0.8572(4) 0.6490(5)
H20 H 0.7467 0.8682 0.5613
H21 H 0.8785 0.8213 0.6753
H22 H 0.6761 0.9473 0.6690
C13 C 0.4122(8) 0.8064(4) 0.6723(5)
H23 H 0.3494 0.9019 0.6811
H24 H 0.3337 0.7470 0.7214
H25 H 0.4180 0.8043 0.5870
C14 C 0.6239(6) 0.7534(3) 0.7149(3)
H26 H 0.6107 0.7528 0.8030
C15 C 0.9366(4) 0.2929(3) 0.8448(3)
O4 O 0.4062(3) 0.4053(2) 0.45371(17)
H27 H 0.310(7) 0.485(4) 0.4689(8)
O5 O 0.1222(3) 0.6434(2) 0.45845(17)
H28 H 0.0148 0.6264 0.4862
O6 O -0.0540(4) 0.8696(3) 0.1178(2)
C16 C 0.0931(4) 0.7433(3) 0.3424(2)
H29 H -0.0531 0.7847 0.3312
C17 C 0.2014(4) 0.6768(3) 0.2302(2)
C18 C 0.0608(4) 0.7512(3) 0.1234(3)
C19 C 0.4365(4) 0.4155(3) 0.3227(2)
C20 C 0.3974(4) 0.7277(3) 0.1947(2)
C21 C 0.5661(4) 0.6272(3) 0.2771(3)
H30 H 0.6882 0.6564 0.2521
H31 H 0.5251 0.6353 0.3618
C22 C 0.6160(5) 0.4731(3) 0.2726(3)
H32 H 0.7319 0.4168 0.3208
H33 H 0.6535 0.4647 0.1877
C23 C 0.2465(4) 0.5149(3) 0.2553(2)
H34 H 0.1289 0.4915 0.3029
H35 H 0.2558 0.4916 0.1762
C24 C 0.4769(5) 0.7410(4) 0.0584(3)
H36 H 0.5109 0.6505 0.0384
H37 H 0.5960 0.7721 0.0447
H38 H 0.3735 0.8087 0.0069
C25 C 0.4781(7) 0.2650(3) 0.3032(4)
H39 H 0.4965 0.2734 0.2136
C26 C 0.3260(5) 0.8737(3) 0.2254(3)
H40 H 0.4411 0.8992 0.2405
H41 H 0.2556 0.9457 0.1578
C27 C 0.0613(6) 0.6797(4) 0.0229(3)
H42 H -0.0087 0.7486 -0.0451
H43 H -0.0062 0.6081 0.0544
H44 H 0.1993 0.6367 -0.0049
C28 C 0.1838(6) 0.8605(4) 0.3404(4)
H45 H 0.0766 0.9493 0.3390
H46 H 0.2578 0.8369 0.4135
C29 C 0.2986(10) 0.2072(5) 0.3495(7)
H47 H 0.3331 0.1127 0.3381
H48 H 0.1828 0.2666 0.3040
H49 H 0.2665 0.2059 0.4358
C30 C 0.6767(10) 0.1613(5) 0.3572(6)
H50 H 0.6916 0.0682 0.3479
H51 H 0.6724 0.1592 0.4434
H52 H 0.7902 0.1918 0.3141
loop_
_geom_bond_atom_site_label_1
_geom_bond_atom_site_label_2
_geom_bond_site_symmetry_1
_geom_bond_site_symmetry_2
O1 H1 1_555 1_555
C1 H2 1_555 1_555
H3 C1 1_555 1_555
O2 H4 1_555 1_555
C2 C1 1_555 1_555
H5 C2 1_555 1_555
H6 C2 1_555 1_555
O3 C5 1_555 1_555
C3 O2 1_555 1_555
H7 C3 1_555 1_555
C4 C3 1_555 1_555
C5 C4 1_555 1_555
C6 C4 1_555 1_555
H8 C6 1_555 1_555
H9 C6 1_555 1_555
C7 O1 1_555 1_555
C8 H10 1_555 1_555
H11 C8 1_555 1_555
C9 C7 1_555 1_555
H12 C9 1_555 1_555
H13 C9 1_555 1_555
C10 C5 1_555 1_555
H14 C10 1_555 1_555
H15 C10 1_555 1_555
H16 C10 1_555 1_555
C11 H17 1_555 1_555
H18 C11 1_555 1_555
H19 C11 1_555 1_555
C12 H20 1_555 1_555
H21 C12 1_555 1_555
H22 C12 1_555 1_555
C13 H23 1_555 1_555
H24 C13 1_555 1_555
H25 C13 1_555 1_555
C14 C7 1_555 1_555
H26 C14 1_555 1_555
C15 C1 1_555 1_555
O4 H27 1_555 1_555
O5 H28 1_555 1_555
O6 C18 1_555 1_555
C16 O5 1_555 1_555
H29 C16 1_555 1_555
C17 C16 1_555 1_555
C18 C17 1_555 1_555
C19 O4 1_555 1_555
C20 C17 1_555 1_555
C21 C20 1_555 1_555
H30 C21 1_555 1_555
H31 C21 1_555 1_555
C22 C19 1_555 1_555
H32 C22 1_555 1_555
H33 C22 1_555 1_555
C23 C17 1_555 1_555
H34 C23 1_555 1_555
H35 C23 1_555 1_555
C24 C20 1_555 1_555
H36 C24 1_555 1_555
H37 C24 1_555 1_555
H38 C24 1_555 1_555
C25 C19 1_555 1_555
H39 C25 1_555 1_555
C26 C20 1_555 1_555
H40 C26 1_555 1_555
H41 C26 1_555 1_555
C27 C18 1_555 1_555
H42 C27 1_555 1_555
H43 C27 1_555 1_555
H44 C27 1_555 1_555
C28 C16 1_555 1_555
H45 C28 1_555 1_555
H46 C28 1_555 1_555
C29 C25 1_555 1_555
H47 C29 1_555 1_555
H48 C29 1_555 1_555
H49 C29 1_555 1_555
C30 C25 1_555 1_555
H50 C30 1_555 1_555
H51 C30 1_555 1_555
H52 C30 1_555 1_555
C2 C3 1_555 1_555
C4 C15 1_555 1_555
C6 C7 1_555 1_555
C8 C9 1_555 1_555
C8 C15 1_555 1_555
C11 C15 1_555 1_555
C12 C14 1_555 1_555
C13 C14 1_555 1_555
C19 C23 1_555 1_555
C21 C22 1_555 1_555
C26 C28 1_555 1_555

#END
