
#######################################################################
#
#                 Cambridge Crystallographic Data Centre
#                                CCDC 
#
#######################################################################
#
# If this CIF has been generated from an entry in the Cambridge 
# Structural Database, then it will include bibliographic, chemical, 
# crystal, experimental, refinement or atomic coordinate data resulting 
# from the CCDC's data processing and validation procedures.
#
#######################################################################

data_HIRXIQ
_chemical_formula_moiety         'C31 H28 F1 N3 O1 S2'
_chemical_name_systematic        
2-(n-Butylamino)-3-(4-fluorophenyl)-6,8-diphenyl-3,5,6,8-tetrahydro-4H-thiopyrano(4',3':4,5)thieno(2,3-d)pyrimidin-4-one
_symmetry_cell_setting           monoclinic
_symmetry_space_group_name_H-M   'P 21/c'
_symmetry_Int_Tables_number      14
_space_group_name_Hall           '-P 2ybc'
loop_
_symmetry_equiv_pos_site_id
_symmetry_equiv_pos_as_xyz
1 x,y,z
2 -x,1/2+y,1/2-z
3 -x,-y,-z
4 x,1/2-y,1/2+z
_cell_length_a                   12.9430(10)
_cell_length_b                   19.2323(15)
_cell_length_c                   11.9433(19)
_cell_angle_alpha                90
_cell_angle_beta                 107.916(2)
_cell_angle_gamma                90
_cell_volume                     2828.81
_exptl_crystal_colour            colorless
_exptl_crystal_description       block
_cell_formula_units_Z            4
loop_
_atom_site_label
_atom_site_type_symbol
_atom_site_fract_x
_atom_site_fract_y
_atom_site_fract_z
C1 C 0.8214(2) 0.48052(16) 0.6797(2)
H1 H 0.7860 0.5241 0.6460
C2 C 0.7483(2) 0.44333(16) 0.7389(2)
H2 H 0.7838 0.4010 0.7756
H3 H 0.7377 0.4729 0.8003
C3 C 0.6392(2) 0.42529(13) 0.6531(2)
C4 C 0.6206(2) 0.41847(13) 0.5352(2)
C5 C 0.6986(2) 0.42672(14) 0.4652(2)
H4 H 0.6839 0.4714 0.4239
C6 C 0.9332(3) 0.49748(18) 0.7595(3)
C7 C 0.9944(3) 0.4521(3) 0.8420(3)
H5 H 0.9663 0.4086 0.8507
C8 C 1.0967(4) 0.4700(3) 0.9120(4)
H6 H 1.1363 0.4382 0.9675
C9 C 1.1408(4) 0.5315(3) 0.9027(4)
H7 H 1.2107 0.5424 0.9497
C10 C 1.0824(5) 0.5770(4) 0.8244(6)
H8 H 1.1117 0.6203 0.8173
C11 C 0.9783(4) 0.5607(3) 0.7533(5)
H9 H 0.9387 0.5937 0.7005
C12 C 0.6877(2) 0.36995(15) 0.3746(2)
C13 C 0.6964(3) 0.30109(16) 0.4072(3)
H10 H 0.7111 0.2893 0.4861
C14 C 0.6836(4) 0.2490(2) 0.3238(3)
H11 H 0.6888 0.2026 0.3466
C15 C 0.6632(4) 0.2661(2) 0.2081(3)
H12 H 0.6549 0.2312 0.1521
C16 C 0.6550(3) 0.3340(2) 0.1742(3)
H13 H 0.6412 0.3453 0.0953
C17 C 0.6673(3) 0.38626(18) 0.2573(3)
H14 H 0.6616 0.4326 0.2338
C18 C 0.5413(2) 0.41524(13) 0.6844(2)
C19 C 0.4515(2) 0.40394(13) 0.5888(2)
C20 C 0.5285(2) 0.41069(13) 0.7992(2)
C21 C 0.3346(2) 0.39246(15) 0.6934(2)
C22 C 0.4028(2) 0.37698(14) 0.9065(2)
C23 C 0.3956(2) 0.42682(15) 0.9860(2)
H15 H 0.4021 0.4736 0.9697
C24 C 0.3788(3) 0.40724(17) 1.0902(3)
H16 H 0.3762 0.4402 1.1462
C25 C 0.3661(3) 0.33909(18) 1.1087(3)
C26 C 0.3731(3) 0.28827(18) 1.0313(3)
H17 H 0.3643 0.2417 1.0472
C27 C 0.3936(3) 0.30789(15) 0.9292(3)
H18 H 0.4011 0.2744 0.8760
C28 C 0.1356(3) 0.3866(3) 0.6054(4)
H19 H 0.1406 0.4237 0.5523
H20 H 0.0760 0.3982 0.6353
C29 C 0.1060(9) 0.3233(6) 0.5360(7)
H23 H 0.1650 0.3077 0.5081
H24 H 0.0420 0.3306 0.4688
C30 C 0.0837(12) 0.2715(7) 0.6196(11)
H25 H 0.0338 0.2897 0.6586
H26 H 0.1498 0.2561 0.6780
C31 C 0.0308(18) 0.2126(10) 0.5299(17)
H27 H 0.0860 0.1896 0.5053
H28 H -0.0220 0.2326 0.4626
H29 H -0.0041 0.1796 0.5666
F1 F 0.3479(2) 0.31934(13) 1.21011(16)
N1 N 0.41996(19) 0.39625(11) 0.79666(19)
N2 N 0.34648(19) 0.39482(12) 0.58824(19)
N3 N 0.2334(2) 0.38759(16) 0.7029(2)
H37 H 0.2273 0.3849 0.7725
O1 O 0.59961(17) 0.41631(10) 0.89348(17)
S1 S 0.83816(7) 0.42719(5) 0.56027(7)
S2 S 0.48421(6) 0.40244(4) 0.45975(6)
H21? H 0.1492 0.4031 0.5345
H22? H 0.0800 0.4154 0.6209
C32? C 0.0978(16) 0.3103(7) 0.5937(13)
H30? H 0.1595 0.2819 0.5928
H31? H 0.0802 0.2984 0.6647
C33? C 0.0013(13) 0.2882(10) 0.4884(16)
H32? H -0.0566 0.2739 0.5190
H33? H -0.0241 0.3293 0.4408
C34? C 0.016(2) 0.2310(14) 0.406(2)
H34? H -0.0515 0.2241 0.3447
H35? H 0.0364 0.1887 0.4500
H36? H 0.0711 0.2443 0.3726
loop_
_geom_bond_atom_site_label_1
_geom_bond_atom_site_label_2
_geom_bond_site_symmetry_1
_geom_bond_site_symmetry_2
C1 H1 1_555 1_555
C2 C1 1_555 1_555
H2 C2 1_555 1_555
H3 C2 1_555 1_555
C3 C2 1_555 1_555
C4 C3 1_555 1_555
C5 C4 1_555 1_555
H4 C5 1_555 1_555
C6 C1 1_555 1_555
C7 C6 1_555 1_555
H5 C7 1_555 1_555
C8 C7 1_555 1_555
H6 C8 1_555 1_555
C9 C8 1_555 1_555
H7 C9 1_555 1_555
C10 C9 1_555 1_555
H8 C10 1_555 1_555
C11 C6 1_555 1_555
H9 C11 1_555 1_555
C12 C5 1_555 1_555
C13 C12 1_555 1_555
H10 C13 1_555 1_555
C14 C13 1_555 1_555
H11 C14 1_555 1_555
C15 C14 1_555 1_555
H12 C15 1_555 1_555
C16 C15 1_555 1_555
H13 C16 1_555 1_555
C17 C12 1_555 1_555
H14 C17 1_555 1_555
C18 C3 1_555 1_555
C19 C18 1_555 1_555
C20 C18 1_555 1_555
C21 N1 1_555 1_555
C22 C23 1_555 1_555
C23 H15 1_555 1_555
C24 C23 1_555 1_555
H16 C24 1_555 1_555
C25 C24 1_555 1_555
C26 C25 1_555 1_555
H17 C26 1_555 1_555
C27 C22 1_555 1_555
H18 C27 1_555 1_555
C28 H19 1_555 1_555
H20 C28 1_555 1_555
C29 C28 1_555 1_555
H23 C29 1_555 1_555
H24 C29 1_555 1_555
C30 C29 1_555 1_555
H25 C30 1_555 1_555
H26 C30 1_555 1_555
C31 C30 1_555 1_555
H27 C31 1_555 1_555
H28 C31 1_555 1_555
H29 C31 1_555 1_555
F1 C25 1_555 1_555
N1 C20 1_555 1_555
N2 C19 1_555 1_555
N3 C21 1_555 1_555
H37 N3 1_555 1_555
O1 C20 1_555 1_555
S1 C1 1_555 1_555
S2 C4 1_555 1_555
C5 S1 1_555 1_555
C10 C11 1_555 1_555
C16 C17 1_555 1_555
C19 S2 1_555 1_555
C21 N2 1_555 1_555
C22 N1 1_555 1_555
C26 C27 1_555 1_555
C28 N3 1_555 1_555

#END
