
#######################################################################
#
#                 Cambridge Crystallographic Data Centre
#                                CCDC 
#
#######################################################################
#
# If this CIF has been generated from an entry in the Cambridge 
# Structural Database, then it will include bibliographic, chemical, 
# crystal, experimental, refinement or atomic coordinate data resulting 
# from the CCDC's data processing and validation procedures.
#
#######################################################################

data_HISDET01
_chemical_formula_moiety         'C15 H16 N2 O1'
_chemical_name_systematic        2-((4-(dimethylamino)benzylidene)amino)phenol
_symmetry_cell_setting           monoclinic
_symmetry_space_group_name_H-M   'P 21/n'
_symmetry_Int_Tables_number      14
_space_group_name_Hall           '-P 2yn'
loop_
_symmetry_equiv_pos_site_id
_symmetry_equiv_pos_as_xyz
1 x,y,z
2 1/2-x,1/2+y,1/2-z
3 -x,-y,-z
4 1/2+x,1/2-y,1/2+z
_cell_length_a                   6.3592(6)
_cell_length_b                   9.5884(8)
_cell_length_c                   21.1793(19)
_cell_angle_alpha                90
_cell_angle_beta                 96.7520(10)
_cell_angle_gamma                90
_cell_volume                     1282.44
_exptl_crystal_description       block
_cell_formula_units_Z            4
loop_
_atom_site_label
_atom_site_type_symbol
_atom_site_fract_x
_atom_site_fract_y
_atom_site_fract_z
N1 N -0.0994(3) 1.00473(17) 0.12711(7)
N2 N 0.1115(3) 0.57585(18) -0.09235(8)
O1 O -0.4500(2) 1.14253(18) 0.14082(7)
H1 H -0.4156 1.0893 0.1135
C1 C -0.0913(3) 1.09653(19) 0.17953(9)
C2 C -0.2817(3) 1.1639(2) 0.18566(10)
C3 C -0.3000(4) 1.2538(2) 0.23553(11)
H2 H -0.4281 1.2980 0.2393
C4 C -0.1275(4) 1.2775(2) 0.27963(11)
H3 H -0.1388 1.3387 0.3132
C5 C 0.0612(4) 1.2118(2) 0.27460(11)
H4 H 0.1771 1.2282 0.3048
C6 C 0.0794(4) 1.1214(2) 0.22482(10)
H5 H 0.2076 1.0768 0.2217
C7 C 0.0698(3) 0.9546(2) 0.10930(9)
H6 H 0.1982 0.9823 0.1313
C8 C 0.0757(3) 0.8577(2) 0.05736(8)
C9 C -0.1045(3) 0.8136(2) 0.01918(10)
H7 H -0.2358 0.8478 0.0270
C10 C -0.0944(3) 0.7214(2) -0.02947(10)
H8 H -0.2187 0.6939 -0.0539
C11 C 0.0999(3) 0.6672(2) -0.04341(9)
C12 C 0.2812(3) 0.7126(2) -0.00515(10)
H9 H 0.4131 0.6793 -0.0129
C13 C 0.2683(3) 0.8050(2) 0.04333(9)
H10 H 0.3922 0.8334 0.0677
C14 C -0.0771(4) 0.5306(3) -0.13157(11)
H11 H -0.1647 0.4781 -0.1062
H12 H -0.0382 0.4731 -0.1655
H13 H -0.1539 0.6106 -0.1491
C15 C 0.3081(4) 0.5115(3) -0.10346(12)
H14 H 0.4057 0.5820 -0.1137
H15 H 0.2831 0.4469 -0.1382
H16 H 0.3666 0.4627 -0.0659
loop_
_geom_bond_atom_site_label_1
_geom_bond_atom_site_label_2
_geom_bond_site_symmetry_1
_geom_bond_site_symmetry_2
N1 C1 1_555 1_555
N2 C11 1_555 1_555
O1 H1 1_555 1_555
C1 C2 1_555 1_555
C2 O1 1_555 1_555
C3 C2 1_555 1_555
H2 C3 1_555 1_555
C4 C3 1_555 1_555
H3 C4 1_555 1_555
C5 C4 1_555 1_555
H4 C5 1_555 1_555
C6 C1 1_555 1_555
H5 C6 1_555 1_555
C7 N1 1_555 1_555
H6 C7 1_555 1_555
C8 C7 1_555 1_555
C9 C8 1_555 1_555
H7 C9 1_555 1_555
C10 C9 1_555 1_555
H8 C10 1_555 1_555
C11 C10 1_555 1_555
C12 C11 1_555 1_555
H9 C12 1_555 1_555
C13 C8 1_555 1_555
H10 C13 1_555 1_555
C14 N2 1_555 1_555
H11 C14 1_555 1_555
H12 C14 1_555 1_555
H13 C14 1_555 1_555
C15 N2 1_555 1_555
H14 C15 1_555 1_555
H15 C15 1_555 1_555
H16 C15 1_555 1_555
C5 C6 1_555 1_555
C12 C13 1_555 1_555

#END
