
#######################################################################
#
#                 Cambridge Crystallographic Data Centre
#                                CCDC 
#
#######################################################################
#
# If this CIF has been generated from an entry in the Cambridge 
# Structural Database, then it will include bibliographic, chemical, 
# crystal, experimental, refinement or atomic coordinate data resulting 
# from the CCDC's data processing and validation procedures.
#
#######################################################################

data_HISFEX
_chemical_formula_moiety         'C17 H17 F6 N2 O1 1+,C2 Cl3 O2 1-'
_chemical_name_systematic        
'2-{[2,8-bis(trifluoromethyl)quinolin-4-yl](hydroxy)methyl}piperidin-1-ium trichloroacetate'
_symmetry_cell_setting           triclinic
_symmetry_space_group_name_H-M   'P -1'
_symmetry_Int_Tables_number      2
_space_group_name_Hall           '-P 1'
loop_
_symmetry_equiv_pos_site_id
_symmetry_equiv_pos_as_xyz
1 x,y,z
2 -x,-y,-z
_cell_length_a                   6.8087(2)
_cell_length_b                   11.8568(5)
_cell_length_c                   15.2562(6)
_cell_angle_alpha                67.473(2)
_cell_angle_beta                 81.663(2)
_cell_angle_gamma                89.824(3)
_cell_volume                     1123.77
_exptl_crystal_colour            colorless
_exptl_crystal_description       slab
_cell_formula_units_Z            2
loop_
_atom_site_label
_atom_site_type_symbol
_atom_site_fract_x
_atom_site_fract_y
_atom_site_fract_z
F1 F -0.22880(19) -0.00170(13) 1.00487(9)
F2 F -0.38289(18) 0.05158(14) 0.88298(9)
F3 F -0.36487(19) 0.17017(13) 0.95862(9)
F4 F 0.1664(2) 0.31406(13) 1.01713(9)
F5 F 0.0401(2) 0.46009(13) 0.91079(10)
F6 F 0.3286(3) 0.48695(15) 0.94377(13)
O1 O 0.1401(2) 0.03503(14) 0.64074(11)
H1 H 0.058(3) 0.084(2) 0.6145(19)
N1 N 0.0200(3) 0.23331(16) 0.88257(12)
N2 N 0.5142(3) -0.04940(16) 0.63900(12)
H2 H 0.420(3) -0.084(2) 0.6219(17)
H3 H 0.565(3) 0.0117(16) 0.5858(11)
C1 C -0.0699(3) 0.15108(19) 0.86236(14)
C2 C 0.0070(3) 0.10584(19) 0.79255(14)
H4 H -0.0687 0.0471 0.7811
C3 C 0.1930(3) 0.14755(18) 0.74109(14)
C4 C 0.2993(3) 0.23707(18) 0.76020(14)
C5 C 0.4941(3) 0.28638(19) 0.71304(15)
H5 H 0.5585 0.2614 0.6645
C6 C 0.5892(3) 0.3690(2) 0.73676(17)
H6 H 0.7195 0.4006 0.7048
C7 C 0.4967(4) 0.4085(2) 0.80829(17)
H7 H 0.5657 0.4656 0.8244
C8 C 0.3084(3) 0.36492(19) 0.85441(15)
C9 C 0.2044(3) 0.27756(18) 0.83188(14)
C10 C -0.2631(3) 0.0942(2) 0.92713(15)
C11 C 0.2098(4) 0.4061(2) 0.93101(17)
C12 C 0.2837(3) 0.09461(19) 0.66926(14)
H8 H 0.3575 0.1615 0.6113
C13 C 0.4279(3) -0.00337(18) 0.71443(14)
H9 H 0.5380 0.0361 0.7315
C14 C 0.6690(3) -0.1405(2) 0.67050(17)
H10 H 0.7833 -0.1014 0.6836
H11 H 0.7175 -0.1693 0.6187
C15 C 0.5805(3) -0.2485(2) 0.76066(17)
H12 H 0.6859 -0.3051 0.7841
H13 H 0.4774 -0.2935 0.7452
C16 C 0.4882(4) -0.2063(2) 0.83963(16)
H14 H 0.4233 -0.2776 0.8957
H15 H 0.5940 -0.1701 0.8607
C17 C 0.3350(3) -0.11181(19) 0.80364(15)
H16 H 0.2230 -0.1503 0.7883
H17 H 0.2819 -0.0829 0.8548
Cl1 Cl 0.91440(9) 0.34265(7) 0.30595(4)
Cl2 Cl 1.10599(11) 0.35855(7) 0.45615(5)
Cl3 Cl 0.70646(12) 0.44205(6) 0.43618(6)
O2 O 0.6471(2) 0.16019(15) 0.46652(12)
O3 O 0.8236(2) 0.16197(15) 0.57789(11)
C18 C 0.7750(3) 0.20401(19) 0.49632(15)
C19 C 0.8759(3) 0.3309(2) 0.42622(16)
loop_
_geom_bond_atom_site_label_1
_geom_bond_atom_site_label_2
_geom_bond_site_symmetry_1
_geom_bond_site_symmetry_2
F1 C10 1_555 1_555
F2 C10 1_555 1_555
F3 C10 1_555 1_555
F4 C11 1_555 1_555
F5 C11 1_555 1_555
F6 C11 1_555 1_555
O1 H1 1_555 1_555
N1 C1 1_555 1_555
N2 H2 1_555 1_555
H3 N2 1_555 1_555
C1 C2 1_555 1_555
C2 H4 1_555 1_555
C3 C2 1_555 1_555
C4 C3 1_555 1_555
C5 C4 1_555 1_555
H5 C5 1_555 1_555
C6 C5 1_555 1_555
H6 C6 1_555 1_555
C7 C6 1_555 1_555
H7 C7 1_555 1_555
C8 C7 1_555 1_555
C9 N1 1_555 1_555
C10 C1 1_555 1_555
C11 C8 1_555 1_555
C12 O1 1_555 1_555
H8 C12 1_555 1_555
C13 N2 1_555 1_555
H9 C13 1_555 1_555
C14 N2 1_555 1_555
H10 C14 1_555 1_555
H11 C14 1_555 1_555
C15 C14 1_555 1_555
H12 C15 1_555 1_555
H13 C15 1_555 1_555
C16 C15 1_555 1_555
H14 C16 1_555 1_555
H15 C16 1_555 1_555
C17 C13 1_555 1_555
H16 C17 1_555 1_555
H17 C17 1_555 1_555
Cl1 C19 1_555 1_555
Cl2 C19 1_555 1_555
Cl3 C19 1_555 1_555
O2 C18 1_555 1_555
O3 C18 1_555 1_555
C18 C19 1_555 1_555
C3 C12 1_555 1_555
C4 C9 1_555 1_555
C8 C9 1_555 1_555
C12 C13 1_555 1_555
C16 C17 1_555 1_555

#END
