
#######################################################################
#
#                 Cambridge Crystallographic Data Centre
#                                CCDC 
#
#######################################################################
#
# If this CIF has been generated from an entry in the Cambridge 
# Structural Database, then it will include bibliographic, chemical, 
# crystal, experimental, refinement or atomic coordinate data resulting 
# from the CCDC's data processing and validation procedures.
#
#######################################################################

data_HISPOP
_chemical_formula_moiety         'C26 H26 Cl1 N1 O2'
_chemical_name_systematic        
'N-(Diphenylmethylene)-2-chlorophenylalanine t-butyl ester'
_symmetry_cell_setting           monoclinic
_symmetry_space_group_name_H-M   'P 21/c'
_symmetry_Int_Tables_number      14
_space_group_name_Hall           '-P 2ybc'
loop_
_symmetry_equiv_pos_site_id
_symmetry_equiv_pos_as_xyz
1 x,y,z
2 -x,1/2+y,1/2-z
3 -x,-y,-z
4 x,1/2-y,1/2+z
_cell_length_a                   15.487(5)
_cell_length_b                   10.728(4)
_cell_length_c                   15.162(5)
_cell_angle_alpha                90
_cell_angle_beta                 108.148(6)
_cell_angle_gamma                90
_cell_volume                     2393.77
_exptl_crystal_colour            colorless
_exptl_crystal_description       Block
_cell_formula_units_Z            4
loop_
_atom_site_label
_atom_site_type_symbol
_atom_site_fract_x
_atom_site_fract_y
_atom_site_fract_z
Cl1 Cl 0.99913(10) 0.87042(17) 0.24862(11)
N1 N 0.71118(19) 0.9945(3) 0.2509(2)
O1 O 0.7153(2) 1.0448(3) 0.06052(19)
O2 O 0.7780(3) 1.2109(4) 0.1418(2)
C1 C 0.7891(2) 1.0087(4) 0.2169(3)
H1 H 0.8040 0.9282 0.1947
C2 C 0.8706(3) 1.0555(4) 0.2974(3)
H2 H 0.9174 1.0868 0.2731
H3 H 0.8513 1.1235 0.3292
C3 C 0.7625(3) 1.1007(4) 0.1374(3)
C4 C 0.6743(2) 0.8882(3) 0.2498(2)
C5 C 0.6809(3) 1.1038(4) -0.0301(3)
C6 C 0.7556(5) 1.1505(11) -0.0615(5)
H4 H 0.7864 1.2168 -0.0215
H5 H 0.7316 1.1812 -0.1239
H6 H 0.7977 1.0841 -0.0597
C7 C 0.6152(5) 1.2025(7) -0.0295(4)
H7 H 0.6458 1.2692 0.0102
H8 H 0.5685 1.1692 -0.0069
H9 H 0.5884 1.2334 -0.0914
C8 C 0.6319(6) 0.9992(6) -0.0928(4)
H10 H 0.5832 0.9691 -0.0719
H11 H 0.6737 0.9325 -0.0911
H12 H 0.6076 1.0296 -0.1552
C9 C 0.7019(2) 0.7714(3) 0.2105(3)
C10 C 0.7606(3) 0.6872(4) 0.2680(3)
H13 H 0.7822 0.7019 0.3315
C11 C 0.7875(4) 0.5810(5) 0.2316(5)
H14 H 0.8269 0.5248 0.2709
C12 C 0.7570(5) 0.5587(5) 0.1399(6)
H15 H 0.7759 0.4874 0.1164
C13 C 0.6988(4) 0.6388(6) 0.0811(4)
H16 H 0.6776 0.6221 0.0177
C14 C 0.6707(3) 0.7481(4) 0.1170(3)
H17 H 0.6311 0.8038 0.0773
C15 C 0.5967(2) 0.8797(3) 0.2884(2)
C16 C 0.5746(3) 0.9812(4) 0.3340(3)
H18 H 0.6103 1.0527 0.3431
C17 C 0.5011(3) 0.9774(4) 0.3660(3)
H19 H 0.4872 1.0462 0.3963
C18 C 0.4477(3) 0.8728(5) 0.3534(3)
H20 H 0.3970 0.8713 0.3738
C19 C 0.4697(3) 0.7699(4) 0.3104(3)
H21 H 0.4343 0.6983 0.3026
C20 C 0.5443(2) 0.7730(4) 0.2789(3)
H22 H 0.5595 0.7026 0.2511
C21 C 0.9082(3) 0.9522(4) 0.3644(3)
C22 C 0.9663(3) 0.8634(5) 0.3483(3)
C23 C 0.9994(3) 0.7668(6) 0.4093(4)
H23 H 1.0394 0.7095 0.3973
C24 C 0.9736(4) 0.7548(6) 0.4876(4)
H24 H 0.9947 0.6885 0.5281
C25 C 0.9164(4) 0.8413(6) 0.5054(4)
H25 H 0.8990 0.8345 0.5587
C26 C 0.8846(3) 0.9378(5) 0.4449(3)
H26 H 0.8458 0.9958 0.4583
loop_
_geom_bond_atom_site_label_1
_geom_bond_atom_site_label_2
_geom_bond_site_symmetry_1
_geom_bond_site_symmetry_2
Cl1 C22 1_555 1_555
N1 C1 1_555 1_555
O1 C3 1_555 1_555
O2 C3 1_555 1_555
C1 H1 1_555 1_555
C2 C1 1_555 1_555
H2 C2 1_555 1_555
H3 C2 1_555 1_555
C3 C1 1_555 1_555
C4 N1 1_555 1_555
C5 O1 1_555 1_555
C6 C5 1_555 1_555
H4 C6 1_555 1_555
H5 C6 1_555 1_555
H6 C6 1_555 1_555
C7 C5 1_555 1_555
H7 C7 1_555 1_555
H8 C7 1_555 1_555
H9 C7 1_555 1_555
C8 C5 1_555 1_555
H10 C8 1_555 1_555
H11 C8 1_555 1_555
H12 C8 1_555 1_555
C9 C4 1_555 1_555
C10 C9 1_555 1_555
H13 C10 1_555 1_555
C11 C10 1_555 1_555
H14 C11 1_555 1_555
C12 C11 1_555 1_555
H15 C12 1_555 1_555
C13 C12 1_555 1_555
H16 C13 1_555 1_555
C14 C9 1_555 1_555
H17 C14 1_555 1_555
C15 C4 1_555 1_555
C16 C15 1_555 1_555
H18 C16 1_555 1_555
C17 C16 1_555 1_555
H19 C17 1_555 1_555
C18 C17 1_555 1_555
H20 C18 1_555 1_555
C19 C18 1_555 1_555
H21 C19 1_555 1_555
C20 C15 1_555 1_555
H22 C20 1_555 1_555
C21 C2 1_555 1_555
C22 C21 1_555 1_555
C23 C22 1_555 1_555
H23 C23 1_555 1_555
C24 C23 1_555 1_555
H24 C24 1_555 1_555
C25 C24 1_555 1_555
H25 C25 1_555 1_555
C26 C21 1_555 1_555
H26 C26 1_555 1_555
C13 C14 1_555 1_555
C19 C20 1_555 1_555
C25 C26 1_555 1_555

#END
