
#######################################################################
#
#                 Cambridge Crystallographic Data Centre
#                                CCDC 
#
#######################################################################
#
# If this CIF has been generated from an entry in the Cambridge 
# Structural Database, then it will include bibliographic, chemical, 
# crystal, experimental, refinement or atomic coordinate data resulting 
# from the CCDC's data processing and validation procedures.
#
#######################################################################

data_HISQUX
_chemical_formula_moiety         'C16 H8 O8 2-,2(C10 H9 N2 S2 1+)'
_chemical_name_systematic        
"bis(4-(pyridin-4-yldisulfanyl)pyridinium) 6,6'-dicarboxybiphenyl-2,2'-dicarboxylate"
_symmetry_cell_setting           monoclinic
_symmetry_space_group_name_H-M   'P 21/c'
_symmetry_Int_Tables_number      14
_space_group_name_Hall           '-P 2ybc'
loop_
_symmetry_equiv_pos_site_id
_symmetry_equiv_pos_as_xyz
1 x,y,z
2 -x,1/2+y,1/2-z
3 -x,-y,-z
4 x,1/2-y,1/2+z
_cell_length_a                   15.335(3)
_cell_length_b                   29.750(6)
_cell_length_c                   7.7905(15)
_cell_angle_alpha                90
_cell_angle_beta                 99.891(6)
_cell_angle_gamma                90
_cell_volume                     3501.32
_exptl_crystal_colour            colorless
_exptl_crystal_description       needle-like
_cell_formula_units_Z            4
loop_
_atom_site_label
_atom_site_type_symbol
_atom_site_fract_x
_atom_site_fract_y
_atom_site_fract_z
O1 O 0.4639(3) 0.29784(15) 2.0875(6)
O2 O 0.5446(3) 0.33701(16) 1.9455(5)
O3 O 0.86823(19) 0.38829(11) 2.5042(4)
O4 O 0.7578(2) 0.43697(9) 2.4724(4)
H1 H 0.693(3) 0.4344(13) 2.452(5)
C1 C 0.6618(2) 0.35802(11) 2.2729(4)
C2 C 0.5983(2) 0.32360(12) 2.2464(5)
C3 C 0.6004(3) 0.29005(14) 2.3710(6)
H2 H 0.5579 0.2675 2.3540
C4 C 0.6640(3) 0.28949(15) 2.5191(6)
H3 H 0.6655 0.2663 2.5995
C5 C 0.7254(3) 0.32373(15) 2.5469(5)
H4 H 0.7686 0.3236 2.6466
C6 C 0.7234(2) 0.35845(12) 2.4272(5)
C7 C 0.7897(3) 0.39508(14) 2.4691(5)
C8 C 0.5308(3) 0.32119(16) 2.0817(7)
O5 O 0.46927(18) 0.44283(11) 2.2087(4)
O6 O 0.85743(17) 0.36086(10) 1.9582(4)
H5 H 0.887(3) 0.3334(14) 1.931(5)
O7 O 0.7688(2) 0.31436(10) 2.0680(4)
O8 O 0.58686(19) 0.44062(11) 2.4193(4)
C9 C 0.6653(2) 0.39402(11) 2.1379(4)
C10 C 0.7249(2) 0.39089(11) 2.0208(4)
C11 C 0.6094(2) 0.43135(12) 2.1278(5)
C12 C 0.6095(2) 0.46277(13) 1.9968(5)
H6 H 0.5704 0.4869 1.9881
C13 C 0.6664(3) 0.45873(14) 1.8795(5)
H7 H 0.6654 0.4797 1.7907
C14 C 0.7253(2) 0.42321(13) 1.8943(5)
H8 H 0.7657 0.4211 1.8182
C15 C 0.5514(3) 0.43857(12) 2.2633(6)
C16 C 0.7846(2) 0.35104(12) 2.0208(5)
S1 S 0.23704(8) 0.42970(5) 1.91996(16)
S2 S 0.11109(8) 0.41260(4) 1.8260(2)
N1 N 0.3842(2) 0.44027(12) 1.4721(5)
H9 H 0.410(3) 0.4487(13) 1.392(6)
C17 C 0.4276(3) 0.43658(16) 1.6329(6)
H10 H 0.4891 0.4367 1.6540
C18 C 0.3822(3) 0.43258(16) 1.7694(6)
H11 H 0.4126 0.4291 1.8825
C19 C 0.2905(3) 0.43386(13) 1.7371(5)
C20 C 0.2472(3) 0.43819(14) 1.5677(5)
H12 H 0.1857 0.4391 1.5423
C21 C 0.2964(3) 0.44119(14) 1.4380(5)
H13 H 0.2678 0.4439 1.3231
N2 N -0.0614(3) 0.53732(14) 1.7257(6)
C22 C 0.0239(4) 0.53969(17) 1.7207(8)
H14 H 0.0463 0.5674 1.6943
C23 C 0.0822(3) 0.50443(16) 1.7514(7)
H15 H 0.1417 0.5082 1.7449
C24 C 0.0500(3) 0.46320(14) 1.7921(6)
C25 C -0.0381(3) 0.46013(16) 1.8011(7)
H16 H -0.0624 0.4331 1.8302
C26 C -0.0893(4) 0.49744(19) 1.7667(8)
H17 H -0.1491 0.4946 1.7725
S3 S 0.19299(8) 0.33181(4) 0.23475(15)
S4 S 0.07214(8) 0.34529(4) 0.29108(18)
N3 N 0.3613(5) 0.3047(2) 0.7559(9)
H18 H 0.3911 0.2965 0.8546
C27 C 0.2804(6) 0.3096(2) 0.7467(10)
H19 H 0.2555 0.3072 0.8471
C28 C 0.2282(4) 0.31828(18) 0.5933(7)
H20 H 0.1679 0.3223 0.5906
C29 C 0.2610(3) 0.32134(15) 0.4414(7)
C30 C 0.3497(4) 0.3180(2) 0.4433(10)
H21 H 0.3755 0.3197 0.3438
C31 C 0.4037(4) 0.3109(2) 0.6321(13)
H22 H 0.4653 0.3111 0.6523
N4 N -0.0577(2) 0.21268(11) 0.3882(4)
C32 C 0.0213(3) 0.21258(14) 0.3421(6)
H23 H 0.0483 0.1850 0.3313
C33 C 0.0659(2) 0.25106(13) 0.3091(6)
H24 H 0.1215 0.2494 0.2771
C34 C 0.0257(2) 0.29196(13) 0.3248(5)
C35 C -0.0563(2) 0.29280(14) 0.3743(6)
H25 H -0.0849 0.3199 0.3870
C36 C -0.0950(3) 0.25228(15) 0.4047(6)
H26 H -0.1502 0.2528 0.4386
loop_
_geom_bond_atom_site_label_1
_geom_bond_atom_site_label_2
_geom_bond_site_symmetry_1
_geom_bond_site_symmetry_2
O1 C8 1_555 1_555
O2 C8 1_555 1_555
O3 C7 1_555 1_555
O4 H1 1_555 1_555
C1 C2 1_555 1_555
C2 C3 1_555 1_555
C3 H2 1_555 1_555
C4 C3 1_555 1_555
H3 C4 1_555 1_555
C5 C4 1_555 1_555
H4 C5 1_555 1_555
C6 C1 1_555 1_555
C7 O4 1_555 1_555
C8 C2 1_555 1_555
O5 C15 1_555 1_555
O6 H5 1_555 1_555
O7 C16 1_555 1_555
O8 C15 1_555 1_555
C9 C1 1_555 1_555
C10 C9 1_555 1_555
C11 C9 1_555 1_555
C12 C11 1_555 1_555
H6 C12 1_555 1_555
C13 C12 1_555 1_555
H7 C13 1_555 1_555
C14 C10 1_555 1_555
H8 C14 1_555 1_555
C15 C11 1_555 1_555
C16 O6 1_555 1_555
S1 S2 1_555 1_555
S2 C24 1_555 1_555
N1 H9 1_555 1_555
C17 N1 1_555 1_555
H10 C17 1_555 1_555
C18 C17 1_555 1_555
H11 C18 1_555 1_555
C19 S1 1_555 1_555
C20 C19 1_555 1_555
H12 C20 1_555 1_555
C21 N1 1_555 1_555
H13 C21 1_555 1_555
N2 C22 1_555 1_555
C22 H14 1_555 1_555
C23 C22 1_555 1_555
H15 C23 1_555 1_555
C24 C23 1_555 1_555
C25 C24 1_555 1_555
H16 C25 1_555 1_555
C26 N2 1_555 1_555
H17 C26 1_555 1_555
S3 S4 1_555 1_555
S4 C34 1_555 1_555
N3 H18 1_555 1_555
C27 N3 1_555 1_555
H19 C27 1_555 1_555
C28 C27 1_555 1_555
H20 C28 1_555 1_555
C29 S3 1_555 1_555
C30 C29 1_555 1_555
H21 C30 1_555 1_555
C31 N3 1_555 1_555
H22 C31 1_555 1_555
N4 C32 1_555 1_555
C32 H23 1_555 1_555
C33 C32 1_555 1_555
H24 C33 1_555 1_555
C34 C33 1_555 1_555
C35 C34 1_555 1_555
H25 C35 1_555 1_555
C36 N4 1_555 1_555
H26 C36 1_555 1_555
C5 C6 1_555 1_555
C6 C7 1_555 1_555
C10 C16 1_555 1_555
C13 C14 1_555 1_555
C18 C19 1_555 1_555
C20 C21 1_555 1_555
C25 C26 1_555 1_555
C28 C29 1_555 1_555
C30 C31 1_555 1_555
C35 C36 1_555 1_555

#END
