
#######################################################################
#
#                 Cambridge Crystallographic Data Centre
#                                CCDC 
#
#######################################################################
#
# If this CIF has been generated from an entry in the Cambridge 
# Structural Database, then it will include bibliographic, chemical, 
# crystal, experimental, refinement or atomic coordinate data resulting 
# from the CCDC's data processing and validation procedures.
#
#######################################################################

data_HISQEH
_chemical_formula_moiety         'C16 H9 O8 1-,C12 H9 N2 1+,C1 H4 O1'
_chemical_name_systematic        
"1,10-phenanthrolin-1-ium 2',6,6'-tricarboxybiphenyl-2-carboxylate methanol solvate"
_symmetry_cell_setting           orthorhombic
_symmetry_space_group_name_H-M   'P b c a'
_symmetry_Int_Tables_number      61
_space_group_name_Hall           '-P 2ac 2ab'
loop_
_symmetry_equiv_pos_site_id
_symmetry_equiv_pos_as_xyz
1 x,y,z
2 1/2-x,-y,1/2+z
3 -x,1/2+y,1/2-z
4 1/2+x,1/2-y,-z
5 -x,-y,-z
6 1/2+x,y,1/2-z
7 x,1/2-y,1/2+z
8 1/2-x,1/2+y,z
_cell_length_a                   8.18(2)
_cell_length_b                   24.47(6)
_cell_length_c                   25.99(8)
_cell_angle_alpha                90
_cell_angle_beta                 90
_cell_angle_gamma                90
_cell_volume                     5202.28
_exptl_crystal_colour            colorless
_exptl_crystal_description       plate-like
_cell_formula_units_Z            8
loop_
_atom_site_label
_atom_site_type_symbol
_atom_site_fract_x
_atom_site_fract_y
_atom_site_fract_z
O1 O -0.5733(6) 0.2982(2) 0.41699(18)
O2 O -0.4775(6) 0.3643(2) 0.36742(19)
H1 H -0.411(8) 0.419(3) 0.363(2)
O3 O -0.0206(6) 0.4360(2) 0.5132(2)
O4 O -0.1543(6) 0.4778(2) 0.5756(2)
H2 H -0.060(8) 0.491(3) 0.590(3)
C1 C -0.3279(7) 0.3983(3) 0.4714(3)
C2 C -0.4836(8) 0.3806(3) 0.4582(3)
C3 C -0.6177(8) 0.3969(3) 0.4860(3)
H3 H -0.7210 0.3845 0.4766
C4 C -0.6015(9) 0.4311(3) 0.5276(3)
H4 H -0.6928 0.4416 0.5465
C5 C -0.4513(8) 0.4494(3) 0.5406(3)
H5 H -0.4399 0.4732 0.5683
C6 C -0.3128(7) 0.4330(3) 0.5132(3)
C7 C -0.5124(8) 0.3448(3) 0.4116(3)
C8 C -0.1466(8) 0.4495(3) 0.5326(3)
O5 O -0.1515(6) 0.5059(2) 0.38220(18)
O6 O -0.3743(6) 0.4598(2) 0.36678(19)
O7 O -0.0805(7) 0.2481(2) 0.4941(2)
O8 O -0.2094(7) 0.3135(2) 0.5332(2)
C9 C -0.1870(7) 0.3798(3) 0.4398(3)
C10 C -0.1383(8) 0.4108(3) 0.3970(3)
C11 C -0.0037(9) 0.3959(3) 0.3679(3)
H6 H 0.0299 0.4179 0.3407
C12 C 0.0814(8) 0.3483(4) 0.3790(3)
H7 H 0.1699 0.3376 0.3589
C13 C 0.0330(8) 0.3175(3) 0.4198(3)
H8 H 0.0900 0.2857 0.4276
C14 C -0.0992(8) 0.3324(3) 0.4499(3)
C15 C -0.2222(9) 0.4625(3) 0.3819(3)
C16 C -0.1361(8) 0.2981(3) 0.4969(3)
N1 N -0.7292(8) 0.7202(3) 0.1977(3)
N2 N -0.7035(8) 0.7030(3) 0.3003(3)
H9 H -0.787(8) 0.735(3) 0.292(2)
C17 C -0.7437(11) 0.7274(4) 0.1482(5)
H10 H -0.8028 0.7577 0.1371
C18 C -0.6776(11) 0.6934(4) 0.1107(4)
H11 H -0.6895 0.7020 0.0761
C19 C -0.5951(10) 0.6473(4) 0.1250(3)
H12 H -0.5542 0.6229 0.1009
C20 C -0.5746(9) 0.6385(3) 0.1797(4)
C21 C -0.6468(9) 0.6762(3) 0.2126(4)
C22 C -0.6307(9) 0.6673(3) 0.2662(3)
C23 C -0.5414(9) 0.6253(3) 0.2852(4)
C24 C -0.5292(10) 0.6172(4) 0.3397(4)
H13 H -0.4711 0.5879 0.3533
C25 C -0.6056(12) 0.6538(4) 0.3706(4)
H14 H -0.5987 0.6490 0.4060
C26 C -0.6931(10) 0.6976(4) 0.3520(4)
H15 H -0.7429 0.7225 0.3740
C27 C -0.4701(10) 0.5860(4) 0.2509(4)
H16 H -0.4115 0.5564 0.2637
C28 C -0.4897(10) 0.5927(4) 0.1988(4)
H17 H -0.4469 0.5670 0.1761
O9 O -0.1151(8) 0.2053(3) 0.7083(2)
H18 H -0.066(10) 0.202(3) 0.686(3)
C29 C -0.0624(14) 0.1747(5) 0.7518(4)
H19 H -0.0233 0.1992 0.7779
H20 H 0.0241 0.1504 0.7418
H21 H -0.1524 0.1539 0.7651
loop_
_geom_bond_atom_site_label_1
_geom_bond_atom_site_label_2
_geom_bond_site_symmetry_1
_geom_bond_site_symmetry_2
O1 C7 1_555 1_555
O2 C7 1_555 1_555
H1 O6 1_555 1_555
O3 C8 1_555 1_555
O4 H2 1_555 1_555
C1 C2 1_555 1_555
C2 C3 1_555 1_555
C3 H3 1_555 1_555
C4 C3 1_555 1_555
H4 C4 1_555 1_555
C5 C4 1_555 1_555
H5 C5 1_555 1_555
C6 C1 1_555 1_555
C7 C2 1_555 1_555
C8 O4 1_555 1_555
O5 C15 1_555 1_555
O6 C15 1_555 1_555
O7 C16 1_555 1_555
O8 C16 1_555 1_555
C9 C1 1_555 1_555
C10 C9 1_555 1_555
C11 C10 1_555 1_555
H6 C11 1_555 1_555
C12 C11 1_555 1_555
H7 C12 1_555 1_555
C13 C12 1_555 1_555
H8 C13 1_555 1_555
C14 C9 1_555 1_555
C15 C10 1_555 1_555
C16 C14 1_555 1_555
N1 C17 1_555 1_555
N2 H9 1_555 1_555
C17 H10 1_555 1_555
C18 C17 1_555 1_555
H11 C18 1_555 1_555
C19 C18 1_555 1_555
H12 C19 1_555 1_555
C20 C19 1_555 1_555
C21 N1 1_555 1_555
C22 N2 1_555 1_555
C23 C22 1_555 1_555
C24 C23 1_555 1_555
H13 C24 1_555 1_555
C25 C24 1_555 1_555
H14 C25 1_555 1_555
C26 N2 1_555 1_555
H15 C26 1_555 1_555
C27 C23 1_555 1_555
H16 C27 1_555 1_555
C28 C20 1_555 1_555
H17 C28 1_555 1_555
O9 H18 1_555 1_555
C29 O9 1_555 1_555
H19 C29 1_555 1_555
H20 C29 1_555 1_555
H21 C29 1_555 1_555
C5 C6 1_555 1_555
C6 C8 1_555 1_555
C13 C14 1_555 1_555
C20 C21 1_555 1_555
C21 C22 1_555 1_555
C25 C26 1_555 1_555
C27 C28 1_555 1_555

#END
