
#######################################################################
#
#                 Cambridge Crystallographic Data Centre
#                                CCDC 
#
#######################################################################
#
# If this CIF has been generated from an entry in the Cambridge 
# Structural Database, then it will include bibliographic, chemical, 
# crystal, experimental, refinement or atomic coordinate data resulting 
# from the CCDC's data processing and validation procedures.
#
#######################################################################

data_HISQOR
_chemical_formula_moiety         'C16 H9 O8 1-,C12 H13 N2 1+,H2 O1'
_chemical_name_systematic        
"4-[2-(pyridin-4-yl)ethyl]pyridinium 2',6,6'-tricarboxybiphenyl-2-carboxylate monohydrate"
_symmetry_cell_setting           monoclinic
_symmetry_space_group_name_H-M   'P 21/c'
_symmetry_Int_Tables_number      14
_space_group_name_Hall           '-P 2ybc'
loop_
_symmetry_equiv_pos_site_id
_symmetry_equiv_pos_as_xyz
1 x,y,z
2 -x,1/2+y,1/2-z
3 -x,-y,-z
4 x,1/2-y,1/2+z
_cell_length_a                   13.3500(13)
_cell_length_b                   11.5279(11)
_cell_length_c                   17.3890(17)
_cell_angle_alpha                90
_cell_angle_beta                 95.474(3)
_cell_angle_gamma                90
_cell_volume                     2663.92
_exptl_crystal_colour            colorless
_exptl_crystal_description       'rectangular plate-like'
_cell_formula_units_Z            4
loop_
_atom_site_label
_atom_site_type_symbol
_atom_site_fract_x
_atom_site_fract_y
_atom_site_fract_z
O1 O 1.0135(2) 0.1301(3) 0.76265(16)
H1 H 1.059(2) 0.165(3) 0.7635(17)
H2 H 0.987(2) 0.117(2) 0.7105(18)
O2 O 0.04755(17) -0.0060(3) 0.12991(13)
H3 H 0.033(2) -0.048(3) 0.1617(17)
O3 O 0.19587(17) -0.0352(2) 0.19089(15)
O4 O 0.41669(15) 0.34491(17) 0.10289(11)
O5 O 0.47866(14) 0.25209(17) 0.00709(11)
C1 C 0.27979(18) 0.1337(2) 0.09141(12)
C2 C 0.31162(18) 0.2079(2) 0.03482(13)
C3 C 0.2499(2) 0.2292(2) -0.03195(14)
H4 H 0.2726 0.2764 -0.0700
C4 C 0.1551(2) 0.1814(3) -0.04307(14)
H5 H 0.1139 0.1961 -0.0882
C5 C 0.1222(2) 0.1117(3) 0.01356(14)
H6 H 0.0576 0.0807 0.0068
C6 C 0.18299(19) 0.0867(2) 0.08026(13)
C7 C 0.1448(2) 0.0087(3) 0.13940(15)
C8 C 0.4096(2) 0.2720(2) 0.04935(14)
O6 O 0.36993(17) -0.0721(2) 0.04732(12)
O7 O 0.52584(15) -0.0981(2) 0.09717(12)
H7 H 0.526(2) -0.158(2) 0.0484(16)
O8 O 0.20161(16) 0.2663(2) 0.27658(11)
O9 O 0.26902(17) 0.35633(19) 0.18339(12)
H8 H 0.321(2) 0.352(2) 0.1514(16)
C9 C 0.34970(18) 0.1098(2) 0.16240(13)
C10 C 0.42492(18) 0.0244(2) 0.16488(13)
C11 C 0.4872(2) 0.0063(2) 0.23207(15)
H9 H 0.5375 -0.0495 0.2327
C12 C 0.4760(2) 0.0694(3) 0.29796(15)
H10 H 0.5172 0.0548 0.3431
C13 C 0.4038(2) 0.1536(3) 0.29638(14)
H11 H 0.3961 0.1966 0.3407
C14 C 0.34173(19) 0.1758(2) 0.22938(13)
C15 C 0.4363(2) -0.0523(2) 0.09685(14)
C16 C 0.2643(2) 0.2691(3) 0.23098(15)
N1 N 0.6589(2) 0.1682(3) 0.10382(16)
C17 C 0.6474(3) 0.2536(3) 0.1524(2)
H12 H 0.6042 0.3149 0.1381
C18 C 0.6994(3) 0.2517(3) 0.2243(2)
H13 H 0.6914 0.3119 0.2588
C19 C 0.7639(3) 0.1604(3) 0.24602(17)
C20 C 0.7710(3) 0.0740(3) 0.19278(19)
H14 H 0.8128 0.0108 0.2050
C21 C 0.7178(3) 0.0796(3) 0.12225(19)
H15 H 0.7232 0.0201 0.0868
C22 C 0.8222(3) 0.1540(4) 0.3245(2)
H16 H 0.8635 0.0847 0.3270
H17 H 0.8669 0.2204 0.3309
N2 N 0.9194(3) 0.1212(4) 0.61504(19)
C23 C 0.8641(7) 0.0414(6) 0.5843(4)
H18 H 0.8568 -0.0254 0.6132
C24 C 0.8136(7) 0.0457(5) 0.5112(4)
H19 H 0.7775 -0.0189 0.4921
C25 C 0.8155(3) 0.1404(4) 0.4674(2)
C26 C 0.8686(4) 0.2289(4) 0.5016(2)
H20 H 0.8715 0.2993 0.4758
C27 C 0.9182(4) 0.2167(5) 0.5737(2)
H21 H 0.9536 0.2804 0.5949
C28 C 0.7574(3) 0.1520(4) 0.3892(2)
H22 H 0.7106 0.0877 0.3817
H23 H 0.7182 0.2230 0.3881
H24 H 0.627(3) 0.168(4) 0.054(3)
loop_
_geom_bond_atom_site_label_1
_geom_bond_atom_site_label_2
_geom_bond_site_symmetry_1
_geom_bond_site_symmetry_2
O1 H1 1_555 1_555
H2 O1 1_555 1_555
O2 H3 1_555 1_555
O3 C7 1_555 1_555
O4 C8 1_555 1_555
O5 C8 1_555 1_555
C1 C2 1_555 1_555
C2 C3 1_555 1_555
C3 H4 1_555 1_555
C4 C3 1_555 1_555
H5 C4 1_555 1_555
C5 C4 1_555 1_555
H6 C5 1_555 1_555
C6 C1 1_555 1_555
C7 O2 1_555 1_555
C8 C2 1_555 1_555
O6 C15 1_555 1_555
O7 H7 1_555 1_555
O8 C16 1_555 1_555
O9 H8 1_555 1_555
C9 C1 1_555 1_555
C10 C9 1_555 1_555
C11 C10 1_555 1_555
H9 C11 1_555 1_555
C12 C11 1_555 1_555
H10 C12 1_555 1_555
C13 C12 1_555 1_555
H11 C13 1_555 1_555
C14 C9 1_555 1_555
C15 O7 1_555 1_555
C16 O9 1_555 1_555
N1 C17 1_555 1_555
C17 H12 1_555 1_555
C18 C17 1_555 1_555
H13 C18 1_555 1_555
C19 C18 1_555 1_555
C20 C19 1_555 1_555
H14 C20 1_555 1_555
C21 N1 1_555 1_555
H15 C21 1_555 1_555
C22 C19 1_555 1_555
H16 C22 1_555 1_555
H17 C22 1_555 1_555
N2 C23 1_555 1_555
C23 H18 1_555 1_555
C24 C23 1_555 1_555
H19 C24 1_555 1_555
C25 C24 1_555 1_555
C26 C25 1_555 1_555
H20 C26 1_555 1_555
C27 N2 1_555 1_555
H21 C27 1_555 1_555
C28 C22 1_555 1_555
H22 C28 1_555 1_555
H23 C28 1_555 1_555
H24 N1 1_555 1_555
C5 C6 1_555 1_555
C6 C7 1_555 1_555
C10 C15 1_555 1_555
C13 C14 1_555 1_555
C14 C16 1_555 1_555
C20 C21 1_555 1_555
C25 C28 1_555 1_555
C26 C27 1_555 1_555

#END
