
#######################################################################
#
#                 Cambridge Crystallographic Data Centre
#                                CCDC 
#
#######################################################################
#
# If this CIF has been generated from an entry in the Cambridge 
# Structural Database, then it will include bibliographic, chemical, 
# crystal, experimental, refinement or atomic coordinate data resulting 
# from the CCDC's data processing and validation procedures.
#
#######################################################################

data_HISSAF01
_chemical_formula_moiety         'C15 H9 F3 N2'
_chemical_name_systematic        2-phenyl-3-(trifluoromethyl)quinoxaline
_symmetry_cell_setting           monoclinic
_symmetry_space_group_name_H-M   'P 21/c'
_symmetry_Int_Tables_number      14
_space_group_name_Hall           '-P 2ybc'
loop_
_symmetry_equiv_pos_site_id
_symmetry_equiv_pos_as_xyz
1 x,y,z
2 -x,1/2+y,1/2-z
3 -x,-y,-z
4 x,1/2-y,1/2+z
_cell_length_a                   10.0878(8)
_cell_length_b                   29.196(2)
_cell_length_c                   9.8586(8)
_cell_angle_alpha                90
_cell_angle_beta                 119.112(2)
_cell_angle_gamma                90
_cell_volume                     2536.78
_exptl_crystal_colour            colorless
_exptl_crystal_description       prism
_cell_formula_units_Z            8
loop_
_atom_site_label
_atom_site_type_symbol
_atom_site_fract_x
_atom_site_fract_y
_atom_site_fract_z
F1 F 0.41980(18) 0.04759(5) 0.45277(17)
F2 F 0.30543(15) 0.08978(5) 0.53951(17)
F3 F 0.38755(18) 0.02413(5) 0.63922(19)
N1 N 0.7373(2) 0.14542(6) 0.7980(2)
N2 N 0.6591(2) 0.05447(6) 0.8118(2)
C1 C 0.4842(3) 0.20321(7) 0.5918(3)
H1 H 0.5158 0.2111 0.6944
C2 C 0.4042(3) 0.23440(8) 0.4749(3)
H2 H 0.3816 0.2631 0.4992
C3 C 0.3580(3) 0.22342(9) 0.3238(3)
H3 H 0.3028 0.2444 0.2452
C4 C 0.3933(3) 0.18146(9) 0.2886(3)
H4 H 0.3632 0.1742 0.1858
C5 C 0.4733(3) 0.14957(8) 0.4043(3)
H5 H 0.4970 0.1211 0.3791
C6 C 0.5178(2) 0.16020(7) 0.5572(2)
C7 C 0.6102(2) 0.12835(7) 0.6873(2)
C8 C 0.5708(2) 0.08194(7) 0.6986(2)
C9 C 0.4212(3) 0.06056(7) 0.5834(3)
C10 C 0.7934(3) 0.07162(8) 0.9228(3)
C11 C 0.8315(3) 0.11780(8) 0.9169(3)
C12 C 0.9703(3) 0.13491(10) 1.0355(3)
H6 H 0.9968 0.1653 1.0336
C13 C 1.0649(3) 0.10704(12) 1.1520(3)
H7 H 1.1564 0.1185 1.2298
C14 C 1.0275(3) 0.06122(11) 1.1576(4)
H8 H 1.0947 0.0426 1.2386
C15 C 0.8946(3) 0.04355(9) 1.0463(3)
H9 H 0.8702 0.0131 1.0514
F4 F -0.0512(2) 0.07485(7) 0.47008(18)
F5 F -0.1534(2) 0.08582(8) 0.6074(3)
F6 F -0.0292(2) 0.02504(6) 0.6312(2)
N3 N 0.2889(2) 0.15401(6) 0.8054(2)
N4 N 0.2060(2) 0.06542(6) 0.8447(2)
C16 C -0.0863(3) 0.18536(8) 0.5841(3)
H10 H -0.1133 0.1746 0.6561
C17 C -0.1780(3) 0.21673(9) 0.4726(3)
H11 H -0.2660 0.2271 0.4707
C18 C -0.1404(3) 0.23259(9) 0.3652(3)
H12 H -0.2026 0.2535 0.2899
C19 C -0.0093(3) 0.21722(11) 0.3698(4)
H13 H 0.0169 0.2278 0.2969
C20 C 0.0831(3) 0.18641(9) 0.4810(3)
H14 H 0.1721 0.1766 0.4837
C21 C 0.0453(2) 0.16992(7) 0.5888(2)
C22 C 0.1515(2) 0.13818(7) 0.7120(2)
C23 C 0.1142(3) 0.09198(7) 0.7309(2)
C24 C -0.0305(3) 0.06928(8) 0.6127(3)
C25 C 0.3454(3) 0.08244(7) 0.9453(3)
C26 C 0.3888(2) 0.12635(7) 0.9216(2)
C27 C 0.5381(3) 0.14165(8) 1.0208(3)
H15 H 0.5691 0.1702 1.0049
C28 C 0.6366(3) 0.11465(9) 1.1397(3)
H16 H 0.7344 0.1251 1.2056
C29 C 0.5920(3) 0.07115(10) 1.1639(3)
H17 H 0.6609 0.0531 1.2456
C30 C 0.4501(3) 0.05526(9) 1.0700(3)
H18 H 0.4217 0.0265 1.0876
loop_
_geom_bond_atom_site_label_1
_geom_bond_atom_site_label_2
_geom_bond_site_symmetry_1
_geom_bond_site_symmetry_2
F1 C9 1_555 1_555
F2 C9 1_555 1_555
F3 C9 1_555 1_555
N1 C7 1_555 1_555
N2 C8 1_555 1_555
C1 H1 1_555 1_555
C2 C1 1_555 1_555
H2 C2 1_555 1_555
C3 C2 1_555 1_555
H3 C3 1_555 1_555
C4 C3 1_555 1_555
H4 C4 1_555 1_555
C5 C4 1_555 1_555
H5 C5 1_555 1_555
C6 C1 1_555 1_555
C7 C6 1_555 1_555
C8 C7 1_555 1_555
C9 C8 1_555 1_555
C10 N2 1_555 1_555
C11 N1 1_555 1_555
C12 C11 1_555 1_555
H6 C12 1_555 1_555
C13 C12 1_555 1_555
H7 C13 1_555 1_555
C14 C13 1_555 1_555
H8 C14 1_555 1_555
C15 C10 1_555 1_555
H9 C15 1_555 1_555
F4 C24 1_555 1_555
F5 C24 1_555 1_555
F6 C24 1_555 1_555
N3 C22 1_555 1_555
N4 C23 1_555 1_555
C16 H10 1_555 1_555
C17 C16 1_555 1_555
H11 C17 1_555 1_555
C18 C17 1_555 1_555
H12 C18 1_555 1_555
C19 C18 1_555 1_555
H13 C19 1_555 1_555
C20 C19 1_555 1_555
H14 C20 1_555 1_555
C21 C16 1_555 1_555
C22 C21 1_555 1_555
C23 C22 1_555 1_555
C24 C23 1_555 1_555
C25 N4 1_555 1_555
C26 N3 1_555 1_555
C27 C26 1_555 1_555
H15 C27 1_555 1_555
C28 C27 1_555 1_555
H16 C28 1_555 1_555
C29 C28 1_555 1_555
H17 C29 1_555 1_555
C30 C25 1_555 1_555
H18 C30 1_555 1_555
C5 C6 1_555 1_555
C10 C11 1_555 1_555
C14 C15 1_555 1_555
C20 C21 1_555 1_555
C25 C26 1_555 1_555
C29 C30 1_555 1_555

#END
