
#######################################################################
#
#                 Cambridge Crystallographic Data Centre
#                                CCDC 
#
#######################################################################
#
# If this CIF has been generated from an entry in the Cambridge 
# Structural Database, then it will include bibliographic, chemical, 
# crystal, experimental, refinement or atomic coordinate data resulting 
# from the CCDC's data processing and validation procedures.
#
#######################################################################

data_HISWUE
_chemical_formula_moiety         'C20 H19 N5 1+,F6 P1 1-'
_chemical_name_systematic        
'6-(1-methylpyridin-1-ium-2-yl)-2,4-diphenyl-3,4-dihydro-1,2,4,5-tetrazin-1(2H)-yl radical hexafluorophosphate'
_symmetry_cell_setting           triclinic
_symmetry_space_group_name_H-M   'P -1'
_symmetry_Int_Tables_number      2
_space_group_name_Hall           '-P 1'
loop_
_symmetry_equiv_pos_site_id
_symmetry_equiv_pos_as_xyz
1 x,y,z
2 -x,-y,-z
_cell_length_a                   10.919(4)
_cell_length_b                   11.814(5)
_cell_length_c                   16.222(7)
_cell_angle_alpha                96.645(6)
_cell_angle_beta                 102.921(6)
_cell_angle_gamma                93.669(4)
_cell_volume                     2017.16
_exptl_crystal_colour            black
_cell_formula_units_Z            4
_exptl_crystal_recrystallization_method acetonitrile
_exptl_crystal_preparation       'Magnetic properties'
loop_
_atom_site_label
_atom_site_type_symbol
_atom_site_fract_x
_atom_site_fract_y
_atom_site_fract_z
C1 C 0.57533(19) 0.42323(17) 0.59791(11)
C2 C 0.68882(15) 0.47468(19) 0.64980(14)
H1 H 0.7646 0.4591 0.6358
C3 C 0.68897(17) 0.5494(2) 0.72261(13)
H2 H 0.7649 0.5838 0.7573
C4 C 0.5756(2) 0.57268(18) 0.74354(12)
H3 H 0.5757 0.6227 0.7923
C5 C 0.46215(17) 0.52123(19) 0.69166(14)
H4 H 0.3863 0.5368 0.7057
C6 C 0.46200(15) 0.44650(19) 0.61884(13)
H5 H 0.3861 0.4121 0.5841
C7 C 0.4155(2) 0.07491(16) 0.41643(14)
C8 C 0.2965(2) 0.07535(18) 0.43367(14)
H6 H 0.2706 0.1427 0.4572
C9 C 0.21599(18) -0.0249(2) 0.41579(16)
H7 H 0.1363 -0.0246 0.4273
C10 C 0.2546(2) -0.12559(18) 0.38066(16)
H8 H 0.2008 -0.1927 0.3687
C11 C 0.3737(3) -0.12603(15) 0.36342(14)
H9 H 0.3995 -0.1934 0.3399
C12 C 0.45415(18) -0.0258(2) 0.38130(14)
H10 H 0.5338 -0.0261 0.3698
N1 N 0.6837(2) 0.3508(2) 0.49651(17)
N2 N 0.4980(2) 0.1758(2) 0.43467(17)
N3 N 0.5770(2) 0.3471(2) 0.52489(17)
N4 N 0.6023(3) 0.1767(2) 0.40297(17)
N5 N 0.8517(3) 0.1929(2) 0.36551(18)
C13 C 0.8009(3) 0.2819(3) 0.4005(2)
C14 C 0.6852(3) 0.2671(3) 0.4340(2)
C15 C 0.8595(3) 0.3916(3) 0.4062(2)
H11 H 0.8249 0.4540 0.4295
C16 C 0.4630(3) 0.2838(3) 0.4721(2)
H12 H 0.4246 0.3272 0.4275
H13 H 0.4028 0.2694 0.5064
C17 C 0.8011(4) 0.0737(3) 0.3583(3)
H14 H 0.7842 0.0588 0.4118
H15 H 0.8616 0.0242 0.3438
H16 H 0.7244 0.0599 0.3146
C18 C 0.9585(4) 0.2101(4) 0.3352(2)
H17 H 0.9914 0.1481 0.3099
C19 C 1.0151(4) 0.3155(4) 0.3419(3)
H18 H 1.0878 0.3260 0.3218
C20 C 0.9672(4) 0.4088(3) 0.3780(2)
H19 H 1.0073 0.4820 0.3832
C21 C 0.9089(2) 0.57393(14) -0.07603(13)
C22 C 0.83574(18) 0.47428(18) -0.07348(13)
H20 H 0.7798 0.4748 -0.0378
C23 C 0.8461(2) 0.37380(14) -0.12423(15)
H21 H 0.7971 0.3071 -0.1225
C24 C 0.9296(2) 0.37297(15) -0.17753(14)
H22 H 0.9366 0.3057 -0.2115
C25 C 1.0028(2) 0.47262(19) -0.18009(13)
H23 H 1.0587 0.4721 -0.2158
C26 C 0.99249(19) 0.57310(15) -0.12934(14)
H24 H 1.0415 0.6398 -0.1310
C27 C 1.09305(17) 0.93121(16) 0.09571(13)
C28 C 1.1811(2) 0.95579(17) 0.04877(10)
H25 H 1.1732 0.9165 -0.0055
C29 C 1.28111(18) 1.03902(18) 0.08300(14)
H26 H 1.3400 1.0555 0.0516
C30 C 1.29301(18) 1.09768(17) 0.16418(14)
H27 H 1.3599 1.1534 0.1871
C31 C 1.2049(2) 1.07311(19) 0.21113(10)
H28 H 1.2129 1.1124 0.2654
C32 C 1.10495(19) 0.98987(19) 0.17689(12)
H29 H 1.0460 0.9734 0.2083
N6 N 0.8913(2) 0.8522(2) 0.09910(16)
N7 N 0.9907(2) 0.8479(2) 0.06247(16)
N8 N 0.7977(2) 0.6768(2) 0.01170(16)
N9 N 0.8990(2) 0.6742(2) -0.02254(16)
N10 N 0.6126(3) 0.6963(2) 0.11721(18)
C33 C 0.8001(3) 0.7679(3) 0.0690(2)
C34 C 0.6884(3) 0.7847(3) 0.1060(2)
C35 C 0.9772(3) 0.7796(3) -0.02062(19)
H30 H 0.9378 0.8218 -0.0658
H31 H 1.0594 0.7621 -0.0292
C36 C 0.6615(3) 0.8954(3) 0.1296(2)
H32 H 0.7148 0.9573 0.1242
C37 C 0.5083(3) 0.7146(3) 0.1482(2)
H33 H 0.4568 0.6524 0.1552
C38 C 0.5567(3) 0.9138(3) 0.1609(2)
H34 H 0.5384 0.9879 0.1767
C39 C 0.6385(4) 0.5760(3) 0.1007(3)
H35 H 0.6193 0.5521 0.0402
H36 H 0.5870 0.5289 0.1266
H37 H 0.7259 0.5687 0.1245
C40 C 0.4789(3) 0.8215(3) 0.1688(2)
H38 H 0.4061 0.8328 0.1883
P1 P 0.65881(9) 0.24558(8) 0.11614(6)
F1 F 0.7251(2) 0.35639(16) 0.17911(13)
F2 F 0.6094(2) 0.19855(19) 0.19182(14)
F3 F 0.5941(2) 0.13426(17) 0.05391(13)
F4 F 0.53440(19) 0.30771(19) 0.09061(14)
F5 F 0.78522(19) 0.18323(17) 0.14121(13)
F6 F 0.7103(2) 0.29216(19) 0.04120(13)
P2 P 0.86959(10) 0.74977(8) 0.38217(7)
F7 F 0.9327(2) 0.85339(19) 0.45368(15)
F8 F 0.7398(2) 0.80597(19) 0.36925(15)
F9 F 0.8285(2) 0.68256(19) 0.45311(15)
F10 F 0.9986(2) 0.69313(19) 0.39612(18)
F11 F 0.9105(3) 0.8177(2) 0.31280(16)
F12 F 0.8063(2) 0.6455(2) 0.31227(15)
loop_
_geom_bond_atom_site_label_1
_geom_bond_atom_site_label_2
_geom_bond_site_symmetry_1
_geom_bond_site_symmetry_2
C1 C2 1_555 1_555
C2 H1 1_555 1_555
C3 C2 1_555 1_555
H2 C3 1_555 1_555
C4 C3 1_555 1_555
H3 C4 1_555 1_555
C5 C4 1_555 1_555
H4 C5 1_555 1_555
C6 C1 1_555 1_555
H5 C6 1_555 1_555
C7 C8 1_555 1_555
C8 H6 1_555 1_555
C9 C8 1_555 1_555
H7 C9 1_555 1_555
C10 C9 1_555 1_555
H8 C10 1_555 1_555
C11 C10 1_555 1_555
H9 C11 1_555 1_555
C12 C7 1_555 1_555
H10 C12 1_555 1_555
N1 N3 1_555 1_555
N2 C7 1_555 1_555
N3 C1 1_555 1_555
N4 N2 1_555 1_555
N5 C13 1_555 1_555
C13 C14 1_555 1_555
C14 N1 1_555 1_555
C15 C13 1_555 1_555
H11 C15 1_555 1_555
C16 N2 1_555 1_555
H12 C16 1_555 1_555
H13 C16 1_555 1_555
C17 N5 1_555 1_555
H14 C17 1_555 1_555
H15 C17 1_555 1_555
H16 C17 1_555 1_555
C18 N5 1_555 1_555
H17 C18 1_555 1_555
C19 C18 1_555 1_555
H18 C19 1_555 1_555
C20 C15 1_555 1_555
H19 C20 1_555 1_555
C21 C22 1_555 1_555
C22 H20 1_555 1_555
C23 C22 1_555 1_555
H21 C23 1_555 1_555
C24 C23 1_555 1_555
H22 C24 1_555 1_555
C25 C24 1_555 1_555
H23 C25 1_555 1_555
C26 C21 1_555 1_555
H24 C26 1_555 1_555
C27 C28 1_555 1_555
C28 H25 1_555 1_555
C29 C28 1_555 1_555
H26 C29 1_555 1_555
C30 C29 1_555 1_555
H27 C30 1_555 1_555
C31 C30 1_555 1_555
H28 C31 1_555 1_555
C32 C27 1_555 1_555
H29 C32 1_555 1_555
N6 N7 1_555 1_555
N7 C27 1_555 1_555
N8 N9 1_555 1_555
N9 C21 1_555 1_555
N10 C34 1_555 1_555
C33 N6 1_555 1_555
C34 C33 1_555 1_555
C35 N7 1_555 1_555
H30 C35 1_555 1_555
H31 C35 1_555 1_555
C36 C34 1_555 1_555
H32 C36 1_555 1_555
C37 N10 1_555 1_555
H33 C37 1_555 1_555
C38 C36 1_555 1_555
H34 C38 1_555 1_555
C39 N10 1_555 1_555
H35 C39 1_555 1_555
H36 C39 1_555 1_555
H37 C39 1_555 1_555
C40 C37 1_555 1_555
H38 C40 1_555 1_555
P1 F1 1_555 1_555
F2 P1 1_555 1_555
F3 P1 1_555 1_555
F4 P1 1_555 1_555
F5 P1 1_555 1_555
F6 P1 1_555 1_555
P2 F7 1_555 1_555
F8 P2 1_555 1_555
F9 P2 1_555 1_555
F10 P2 1_555 1_555
F11 P2 1_555 1_555
F12 P2 1_555 1_555
C5 C6 1_555 1_555
C11 C12 1_555 1_555
N3 C16 1_555 1_555
N4 C14 1_555 1_555
C19 C20 1_555 1_555
C25 C26 1_555 1_555
C31 C32 1_555 1_555
N8 C33 1_555 1_555
N9 C35 1_555 1_555
C38 C40 1_555 1_555

#END
