
#######################################################################
#
#                 Cambridge Crystallographic Data Centre
#                                CCDC 
#
#######################################################################
#
# If this CIF has been generated from an entry in the Cambridge 
# Structural Database, then it will include bibliographic, chemical, 
# crystal, experimental, refinement or atomic coordinate data resulting 
# from the CCDC's data processing and validation procedures.
#
#######################################################################

data_HISXEP
_chemical_formula_moiety         'C21 H16 Br1 N3 O4 S1'
_chemical_name_systematic        
8-[(2-bromophenyl)sulfanyl]-6-ethyl-2,4-dimethylpyrimido[4,5-c]isoquinoline-1,3,7,10(2H,4H)-tetrone
_symmetry_cell_setting           orthorhombic
_symmetry_space_group_name_H-M   'P b c n'
_symmetry_Int_Tables_number      60
_space_group_name_Hall           '-P 2n 2ab'
loop_
_symmetry_equiv_pos_site_id
_symmetry_equiv_pos_as_xyz
1 x,y,z
2 1/2-x,1/2-y,1/2+z
3 -x,y,1/2-z
4 1/2+x,1/2-y,-z
5 -x,-y,-z
6 1/2+x,1/2+y,1/2-z
7 x,-y,1/2+z
8 1/2-x,1/2+y,z
_cell_length_a                   25.210(2)
_cell_length_b                   7.6818(5)
_cell_length_c                   21.1932(13)
_cell_angle_alpha                90
_cell_angle_beta                 90
_cell_angle_gamma                90
_cell_volume                     4104.24
_exptl_crystal_colour            yellow
_exptl_crystal_description       prism
_cell_formula_units_Z            8
loop_
_atom_site_label
_atom_site_type_symbol
_atom_site_fract_x
_atom_site_fract_y
_atom_site_fract_z
Br1 Br 0.51659(3) 0.74124(9) 0.61249(4)
C1 C 0.7432(2) 0.2878(6) 0.7977(2)
C2 C 0.5248(2) 0.3887(8) 0.5718(2)
C3 C 0.4935(2) 0.5101(7) 0.6027(2)
C4 C 0.8364(2) 0.3475(7) 0.8235(2)
C5 C 0.4447(2) 0.4634(9) 0.6262(3)
H1 H 0.423743 0.546121 0.646450
C6 C 0.4268(3) 0.2974(9) 0.6202(3)
H2 H 0.393944 0.266954 0.636879
C7 C 0.4565(3) 0.1753(9) 0.5898(3)
H3 H 0.443599 0.062637 0.585114
C8 C 0.7827(2) 0.4643(7) 0.6149(2)
C9 C 0.5060(2) 0.2192(8) 0.5660(3)
H4 H 0.526647 0.135139 0.546049
C10 C 0.6854(2) 0.4793(7) 0.5823(2)
C11 C 0.6295(2) 0.4380(7) 0.6014(2)
C12 C 0.6166(2) 0.4174(7) 0.6616(2)
H5 H 0.581934 0.389564 0.672520
C13 C 0.6567(2) 0.4382(6) 0.7110(2)
C14 C 0.71360(19) 0.4137(6) 0.6922(2)
C15 C 0.7530(2) 0.3727(6) 0.7360(2)
C16 C 0.8053(2) 0.4024(6) 0.7177(2)
C17 C 0.7277(2) 0.4547(6) 0.6299(2)
C18 C 0.7789(3) 0.2128(9) 0.9013(2)
H6 H 0.783770 0.089079 0.898311
H7 H 0.743870 0.237215 0.916638
H8 H 0.804650 0.260590 0.929776
C19 C 0.9003(2) 0.4390(9) 0.7443(3)
H9 H 0.902946 0.452809 0.699401
H10 H 0.924137 0.349132 0.757916
H11 H 0.909449 0.546562 0.764647
C20 C 0.8025(2) 0.4981(9) 0.5490(2)
H12 H 0.782210 0.426215 0.520127
H13 H 0.795104 0.618633 0.538565
C21 C 0.8592(3) 0.4654(10) 0.5378(3)
H14 H 0.866596 0.475752 0.493476
H15 H 0.868044 0.350141 0.551749
H16 H 0.879945 0.548925 0.560678
N1 N 0.78569(18) 0.2916(5) 0.83842(18)
N2 N 0.84577(16) 0.3910(5) 0.76107(18)
N3 N 0.81981(17) 0.4445(5) 0.65834(18)
O1 O 0.64509(14) 0.4883(5) 0.76351(16)
O2 O 0.70200(16) 0.2168(5) 0.81169(16)
O3 O 0.87168(16) 0.3515(6) 0.86221(18)
O4 O 0.69408(15) 0.5261(6) 0.52884(16)
S1 S 0.58662(6) 0.4418(2) 0.53621(6)
loop_
_geom_bond_atom_site_label_1
_geom_bond_atom_site_label_2
_geom_bond_site_symmetry_1
_geom_bond_site_symmetry_2
Br1 C3 1_555 1_555
C1 C15 1_555 1_555
C2 C3 1_555 1_555
C3 C5 1_555 1_555
C4 N1 1_555 1_555
C5 H1 1_555 1_555
C6 C5 1_555 1_555
H2 C6 1_555 1_555
C7 C6 1_555 1_555
H3 C7 1_555 1_555
C8 C17 1_555 1_555
C9 C2 1_555 1_555
H4 C9 1_555 1_555
C10 C11 1_555 1_555
C11 C12 1_555 1_555
C12 H5 1_555 1_555
C13 C12 1_555 1_555
C14 C13 1_555 1_555
C15 C14 1_555 1_555
C16 C15 1_555 1_555
C17 C10 1_555 1_555
C18 H6 1_555 1_555
H7 C18 1_555 1_555
H8 C18 1_555 1_555
C19 H9 1_555 1_555
H10 C19 1_555 1_555
H11 C19 1_555 1_555
C20 C8 1_555 1_555
H12 C20 1_555 1_555
H13 C20 1_555 1_555
C21 C20 1_555 1_555
H14 C21 1_555 1_555
H15 C21 1_555 1_555
H16 C21 1_555 1_555
N1 C1 1_555 1_555
N2 C4 1_555 1_555
N3 C8 1_555 1_555
O1 C13 1_555 1_555
O2 C1 1_555 1_555
O3 C4 1_555 1_555
O4 C10 1_555 1_555
S1 C2 1_555 1_555
C7 C9 1_555 1_555
C11 S1 1_555 1_555
C14 C17 1_555 1_555
C16 N2 1_555 1_555
C16 N3 1_555 1_555
C18 N1 1_555 1_555
C19 N2 1_555 1_555

#END
