
#######################################################################
#
#                 Cambridge Crystallographic Data Centre
#                                CCDC 
#
#######################################################################
#
# If this CIF has been generated from an entry in the Cambridge 
# Structural Database, then it will include bibliographic, chemical, 
# crystal, experimental, refinement or atomic coordinate data resulting 
# from the CCDC's data processing and validation procedures.
#
#######################################################################

data_HITHEZ
_chemical_formula_moiety         'C18 H15 F3 O2 S1'
_chemical_name_systematic        
(4-Hydroxy-2-phenyl-2-(trifluoromethyl)tetrahydrothiophen-3-yl)(phenyl)methanone
_symmetry_cell_setting           orthorhombic
_symmetry_space_group_name_H-M   'P 21 21 21'
_symmetry_Int_Tables_number      19
_space_group_name_Hall           'P 2ac 2ab'
loop_
_symmetry_equiv_pos_site_id
_symmetry_equiv_pos_as_xyz
1 x,y,z
2 1/2-x,-y,1/2+z
3 1/2+x,1/2-y,-z
4 -x,1/2+y,1/2-z
_cell_length_a                   8.5555(3)
_cell_length_b                   10.1638(4)
_cell_length_c                   19.3090(8)
_cell_angle_alpha                90
_cell_angle_beta                 90
_cell_angle_gamma                90
_cell_volume                     1679.04
_exptl_crystal_colour            'light colorless'
_exptl_crystal_description       block
_cell_formula_units_Z            4
loop_
_atom_site_label
_atom_site_type_symbol
_atom_site_fract_x
_atom_site_fract_y
_atom_site_fract_z
S1 S 0.54640(17) 0.36930(13) 0.30748(6)
F1 F 0.2065(3) 0.3797(3) 0.34543(17)
F2 F 0.2755(4) 0.5593(3) 0.29636(14)
F3 F 0.2057(3) 0.5595(3) 0.40199(16)
O1 O 0.5212(3) 0.1538(3) 0.47416(16)
H1 H 0.4480 0.1199 0.4950
O2 O 0.7388(3) 0.4051(3) 0.45660(14)
C1 C 0.6371(6) 0.6528(5) 0.3369(3)
H2 H 0.6609 0.6040 0.2975
C2 C 0.7051(8) 0.7735(6) 0.3465(4)
H3 H 0.7748 0.8056 0.3136
C3 C 0.6722(8) 0.8476(6) 0.4039(4)
H4 H 0.7197 0.9292 0.4099
C4 C 0.5682(7) 0.8012(5) 0.4529(3)
H5 H 0.5451 0.8513 0.4919
C5 C 0.4985(5) 0.6790(4) 0.4436(2)
H6 H 0.4281 0.6475 0.4763
C6 C 0.5336(5) 0.6032(4) 0.3851(2)
C7 C 0.4567(4) 0.4690(4) 0.37654(17)
C8 C 0.4632(4) 0.3819(3) 0.44284(16)
H7 H 0.3711 0.3997 0.4715
C9 C 0.4622(4) 0.2367(4) 0.4206(2)
H8 H 0.3551 0.2102 0.4092
C10 C 0.5629(6) 0.2233(4) 0.3576(2)
H9 H 0.5295 0.1480 0.3305
H10 H 0.6708 0.2098 0.3712
C11 C 0.6107(4) 0.4108(3) 0.48463(19)
C12 C 0.5972(4) 0.4428(4) 0.55903(19)
C13 C 0.6968(5) 0.5383(4) 0.5859(2)
H11 H 0.7676 0.5812 0.5572
C14 C 0.6899(7) 0.5690(5) 0.6558(3)
H12 H 0.7547 0.6340 0.6738
C15 C 0.5874(7) 0.5038(6) 0.6986(3)
H13 H 0.5838 0.5246 0.7455
C16 C 0.4906(6) 0.4084(6) 0.6726(2)
H14 H 0.4233 0.3633 0.7020
C17 C 0.4929(5) 0.3787(5) 0.6024(2)
H15 H 0.4247 0.3161 0.5845
C18 C 0.2859(5) 0.4904(5) 0.3552(2)
loop_
_geom_bond_atom_site_label_1
_geom_bond_atom_site_label_2
_geom_bond_site_symmetry_1
_geom_bond_site_symmetry_2
S1 C7 1_555 1_555
F1 C18 1_555 1_555
F2 C18 1_555 1_555
F3 C18 1_555 1_555
O1 H1 1_555 1_555
O2 C11 1_555 1_555
C1 H2 1_555 1_555
C2 C1 1_555 1_555
H3 C2 1_555 1_555
C3 C2 1_555 1_555
H4 C3 1_555 1_555
C4 C3 1_555 1_555
H5 C4 1_555 1_555
C5 C4 1_555 1_555
H6 C5 1_555 1_555
C6 C1 1_555 1_555
C7 C6 1_555 1_555
C8 C7 1_555 1_555
H7 C8 1_555 1_555
C9 O1 1_555 1_555
H8 C9 1_555 1_555
C10 S1 1_555 1_555
H9 C10 1_555 1_555
H10 C10 1_555 1_555
C11 C8 1_555 1_555
C12 C11 1_555 1_555
C13 C12 1_555 1_555
H11 C13 1_555 1_555
C14 C13 1_555 1_555
H12 C14 1_555 1_555
C15 C14 1_555 1_555
H13 C15 1_555 1_555
C16 C15 1_555 1_555
H14 C16 1_555 1_555
C17 C12 1_555 1_555
H15 C17 1_555 1_555
C18 C7 1_555 1_555
C5 C6 1_555 1_555
C8 C9 1_555 1_555
C9 C10 1_555 1_555
C16 C17 1_555 1_555

#END
