
#######################################################################
#
#                 Cambridge Crystallographic Data Centre
#                                CCDC 
#
#######################################################################
#
# If this CIF has been generated from an entry in the Cambridge 
# Structural Database, then it will include bibliographic, chemical, 
# crystal, experimental, refinement or atomic coordinate data resulting 
# from the CCDC's data processing and validation procedures.
#
#######################################################################

data_HITJIF
_chemical_formula_moiety         'C36 H30 O6,4(C4 H8 O1)'
_chemical_name_systematic        
"2,2',2''-(Benzene-1,3,5-triyltris(ethene-2,1-diyl-4,1-phenylene))triacetic acid tetrahydrofuran solvate"
_symmetry_cell_setting           monoclinic
_symmetry_space_group_name_H-M   'P 21'
_symmetry_Int_Tables_number      4
_space_group_name_Hall           'P 2yb'
loop_
_symmetry_equiv_pos_site_id
_symmetry_equiv_pos_as_xyz
1 x,y,z
2 -x,1/2+y,-z
_cell_length_a                   6.2530(2)
_cell_length_b                   32.3897(15)
_cell_length_c                   22.4588(13)
_cell_angle_alpha                90
_cell_angle_beta                 91.198(4)
_cell_angle_gamma                90
_cell_volume                     4547.65
_exptl_crystal_colour            'pale yellow'
_exptl_crystal_description       needle
_cell_formula_units_Z            4
loop_
_atom_site_label
_atom_site_type_symbol
_atom_site_fract_x
_atom_site_fract_y
_atom_site_fract_z
C1 C 0.0520(9) 0.30865(19) 0.4831(3)
C2 C -0.0522(9) 0.30036(18) 0.4247(3)
H1 H 0.0302 0.3055 0.3904
C3 C -0.2495(9) 0.2864(2) 0.4154(3)
H2 H -0.33 0.2807 0.4499
C4 C -0.3574(8) 0.27866(18) 0.3577(3)
C5 C -0.2637(9) 0.2858(2) 0.3028(3)
H3 H -0.1226 0.2966 0.302
C6 C -0.3693(9) 0.2776(2) 0.2497(3)
H4 H -0.3024 0.2833 0.213
C7 C -0.5754(9) 0.26096(19) 0.2502(3)
C8 C -0.6712(9) 0.25357(18) 0.3035(3)
H5 H -0.812 0.2426 0.3039
C9 C -0.5634(8) 0.26212(18) 0.3572(3)
H6 H -0.6312 0.2566 0.3939
C10 C -0.6926(10) 0.2522(2) 0.1915(3)
H7 H -0.8252 0.2365 0.199
H8 H -0.601 0.2352 0.1656
C11 C -0.7481(10) 0.2929(2) 0.1602(3)
O1 O -0.6428(8) 0.30892(18) 0.1236(2)
O2 O -0.9296(7) 0.30790(17) 0.1792(2)
H9 H -0.9285 0.3337 0.1761
C12 C -0.0427(8) 0.29702(18) 0.5362(3)
H10 H -0.1756 0.2828 0.5352
C13 C 0.0571(8) 0.30626(19) 0.5912(3)
C14 C -0.0414(9) 0.29685(19) 0.6481(3)
H11 H 0.0398 0.3031 0.6832
C15 C -0.2346(9) 0.2803(2) 0.6554(3)
H12 H -0.314 0.2732 0.6204
C16 C -0.3349(9) 0.27222(19) 0.7122(3)
C17 C -0.5423(9) 0.2557(2) 0.7127(3)
H13 H -0.6135 0.2501 0.6758
C18 C -0.6473(9) 0.2473(2) 0.7651(3)
H14 H -0.7883 0.2364 0.7635
C19 C -0.5468(9) 0.25489(18) 0.8203(3)
C20 C -0.3383(9) 0.27044(18) 0.8201(3)
H15 H -0.2653 0.275 0.8571
C21 C -0.2354(8) 0.27943(19) 0.7681(3)
H16 H -0.0951 0.2907 0.7699
C22 C -0.6603(10) 0.2473(2) 0.8780(3)
H17 H -0.7837 0.2287 0.8712
H18 H -0.5614 0.2343 0.9075
C23 C -0.7354(9) 0.2884(2) 0.9008(3)
O3 O -0.9123(7) 0.30184(16) 0.8897(2)
O4 O -0.5896(7) 0.30899(16) 0.9318(2)
H19 H -0.6416 0.3314 0.9433
C24 C 0.2531(8) 0.32707(18) 0.5911(3)
H20 H 0.3226 0.3331 0.6281
C25 C 0.3496(9) 0.3392(2) 0.5388(3)
C26 C 0.5496(10) 0.3626(2) 0.5419(3)
H21 H 0.6183 0.3628 0.58
C27 C 0.6464(10) 0.3826(3) 0.5019(3)
H22 H 0.5801 0.3817 0.4634
C28 C 0.8446(10) 0.4067(2) 0.5059(3)
C29 C 0.9421(13) 0.4150(2) 0.5616(4)
H23 H 0.8792 0.4052 0.5971
C30 C 1.1346(11) 0.4380(3) 0.5645(4)
H24 H 1.2028 0.4429 0.602
C31 C 1.2233(10) 0.4534(2) 0.5141(4)
C32 C 1.1237(12) 0.4459(3) 0.4588(4)
H25 H 1.185 0.4562 0.4235
C33 C 0.9331(12) 0.4231(3) 0.4557(4)
H26 H 0.8638 0.419 0.4181
C34 C 1.4290(11) 0.4792(2) 0.5183(4)
H27 H 1.5084 0.4719 0.5554
H28 H 1.5206 0.4722 0.4843
C35 C 1.3872(10) 0.5242(2) 0.5179(3)
O5 O 1.2238(7) 0.54101(17) 0.4989(3)
O6 O 1.5493(8) 0.54549(19) 0.5404(3)
H29 H 1.5112 0.57 0.5459
C36 C 0.2469(9) 0.32891(18) 0.4849(3)
H30 H 0.3127 0.336 0.4485
C37 C 0.4442(8) 0.61670(18) 0.9608(3)
C38 C 0.5430(9) 0.6239(2) 1.0195(3)
H31 H 0.4589 0.6178 1.0531
C39 C 0.7378(9) 0.6382(2) 1.0302(3)
H32 H 0.8204 0.6446 0.9964
C40 C 0.8412(9) 0.6452(2) 1.0889(3)
C41 C 1.0495(10) 0.6608(2) 1.0916(3)
H33 H 1.1216 0.6664 1.0556
C42 C 1.1541(9) 0.6685(2) 1.1464(3)
H34 H 1.2956 0.6792 1.1471
C43 C 1.0533(9) 0.66063(19) 1.1995(3)
C44 C 0.8444(10) 0.6451(2) 1.1965(3)
H35 H 0.7707 0.6401 1.2323
C45 C 0.7430(9) 0.63682(19) 1.1425(3)
H36 H 0.6035 0.6252 1.1421
C46 C 1.1658(10) 0.6674(2) 1.2574(3)
H37 H 1.0712 0.6827 1.2844
H38 H 1.2953 0.6843 1.2512
C47 C 1.2290(10) 0.6270(2) 1.2855(3)
O7 O 1.1257(9) 0.6092(2) 1.3228(3)
O8 O 1.4076(8) 0.61178(18) 1.2639(3)
H39 H 1.4338 0.5888 1.2797
C48 C 0.2482(9) 0.59562(19) 0.9579(3)
H40 H 0.1813 0.5874 0.9936
C49 C 0.1497(9) 0.5865(2) 0.9023(3)
C50 C -0.0470(9) 0.5625(2) 0.8970(3)
H41 H -0.1115 0.5606 0.8585
C51 C -0.1453(9) 0.5429(2) 0.9408(3)
H42 H -0.0805 0.5448 0.9793
C52 C -0.3463(10) 0.5183(2) 0.9356(3)
C53 C -0.4360(11) 0.5028(3) 0.9869(4)
H43 H -0.3673 0.5074 1.0244
C54 C -0.6249(11) 0.4805(3) 0.9837(4)
H44 H -0.6868 0.4709 1.0194
C55 C -0.7257(10) 0.4720(2) 0.9296(4)
C56 C -0.6367(10) 0.4883(2) 0.8780(4)
H45 H -0.706 0.4838 0.8405
C57 C -0.4487(11) 0.5111(2) 0.8809(3)
H46 H -0.3895 0.5217 0.8454
C58 C -0.9261(10) 0.4467(2) 0.9254(4)
H47 H -1.0057 0.4542 0.8883
H48 H -1.0177 0.4536 0.9594
C59 C -0.8836(10) 0.4011(2) 0.9254(3)
O9 O -0.7199(8) 0.38569(16) 0.9462(2)
O10 O -1.0403(8) 0.37907(19) 0.9023(3)
H49 H -1.0091 0.3539 0.9047
C60 C 0.2534(9) 0.5983(2) 0.8505(3)
H50 H 0.19 0.592 0.8127
C61 C 0.4499(9) 0.61914(19) 0.8534(3)
C62 C 0.5544(9) 0.6288(2) 0.7961(3)
H51 H 0.4752 0.6232 0.7604
C63 C 0.7498(8) 0.64461(19) 0.7907(3)
H52 H 0.8271 0.6508 0.8264
C64 C 0.8559(9) 0.6533(2) 0.7346(3)
C65 C 0.7627(9) 0.6459(2) 0.6787(3)
H53 H 0.6222 0.6348 0.676
C66 C 0.8718(9) 0.6545(2) 0.6268(3)
H54 H 0.8059 0.6488 0.5892
C67 C 1.0763(10) 0.6714(2) 0.6294(3)
C68 C 1.1724(9) 0.67825(18) 0.6835(3)
H55 H 1.3147 0.6885 0.6856
C69 C 1.0621(8) 0.67022(19) 0.7367(3)
H56 H 1.1284 0.6764 0.7741
C70 C 1.1972(9) 0.6790(2) 0.5726(3)
H57 H 1.1049 0.6943 0.5438
H58 H 1.3254 0.6961 0.5815
C71 C 1.2634(10) 0.6385(2) 0.5460(3)
O11 O 1.4416(6) 0.62385(16) 0.5556(2)
O12 O 1.1138(7) 0.61929(16) 0.5149(2)
H59 H 1.1461 0.5942 0.5119
C72 C 0.5419(8) 0.62847(18) 0.9083(2)
H60 H 0.6736 0.6431 0.9102
O13 O 0.473(2) 0.4133(5) 0.7009(5)
C73 C 0.647(2) 0.4030(7) 0.7453(14)
H61 H 0.7309 0.428 0.756
H62 H 0.7448 0.382 0.7291
C74 C 0.529(3) 0.3858(4) 0.8011(8)
H63 H 0.605 0.3621 0.8196
H64 H 0.5039 0.4074 0.8314
C75 C 0.331(2) 0.3733(6) 0.7697(7)
H65 H 0.3495 0.3456 0.752
H66 H 0.2123 0.372 0.7981
C76 C 0.282(2) 0.4015(5) 0.7253(6)
H67 H 0.1878 0.3888 0.6945
H68 H 0.2083 0.4258 0.742
O14 O 0.032(2) 0.5094(5) 0.7403(6)
C77 C -0.144(3) 0.5250(6) 0.6966(13)
H69 H -0.2448 0.5026 0.6859
H70 H -0.2244 0.5481 0.7143
C78 C -0.029(3) 0.5387(4) 0.6450(7)
H71 H -0.1042 0.5617 0.6244
H72 H -0.0064 0.5159 0.6165
C79 C 0.171(2) 0.5523(4) 0.6729(5)
H73 H 0.2868 0.5524 0.6436
H74 H 0.1556 0.5805 0.6893
C80 C 0.217(2) 0.5233(4) 0.7195(6)
H75 H 0.3018 0.500 0.704
H76 H 0.3005 0.5368 0.7519
O15 O 0.5369(15) 0.4265(3) 0.3255(5)
C81 C 0.536(2) 0.3847(4) 0.3209(5)
H77 H 0.5887 0.372 0.3585
H78 H 0.6291 0.3757 0.2882
C82 C 0.311(3) 0.3723(4) 0.3083(8)
H79 H 0.3066 0.3488 0.2802
H80 H 0.2417 0.3638 0.3455
C83 C 0.199(2) 0.4081(4) 0.2819(8)
H81 H 0.0743 0.4163 0.3057
H82 H 0.1515 0.4026 0.2404
C84 C 0.3776(19) 0.4411(3) 0.2850(6)
H83 H 0.4387 0.4452 0.2451
H84 H 0.3195 0.4677 0.2989
O16 O 1.5460(8) 0.54231(19) 1.3098(2)
C85 C 1.7562(13) 0.5318(3) 1.2870(5)
H85 H 1.8254 0.5565 1.2699
H86 H 1.7433 0.5103 1.2558
C86 C 1.8847(14) 0.5159(3) 1.3400(4)
H87 H 1.8704 0.4856 1.3441
H88 H 2.038 0.523 1.3369
C87 C 1.7835(13) 0.5382(3) 1.3912(4)
H89 H 1.8072 0.523 1.429
H90 H 1.8418 0.5664 1.3956
C88 C 1.5539(13) 0.5391(3) 1.3742(4)
H91 H 1.4816 0.5136 1.3875
H92 H 1.4829 0.5632 1.3925
O17 O 0.9494(14) 0.4960(3) 0.1148(4)
C89 C 0.9560(19) 0.5387(4) 0.1206(5)
H93 H 0.8731 0.5477 0.1553
H94 H 0.8959 0.5521 0.0844
C90 C 1.190(2) 0.5495(4) 0.1292(6)
H95 H 1.2589 0.5533 0.0903
H96 H 1.2068 0.5751 0.1529
C91 C 1.283(2) 0.5134(4) 0.1616(6)
H97 H 1.3101 0.52 0.2041
H98 H 1.4184 0.5045 0.1436
C92 C 1.1084(17) 0.4799(3) 0.1543(6)
H99 H 1.1702 0.4543 0.1378
H100 H 1.0458 0.4734 0.1934
O18 O -1.0597(8) 0.37874(18) 0.1318(2)
C93 C -1.2709(13) 0.3884(3) 0.1541(4)
H101 H -1.2613 0.4098 0.1856
H102 H -1.3389 0.3634 0.1707
C94 C -1.3966(14) 0.4041(3) 0.1008(4)
H103 H -1.5499 0.3968 0.1035
H104 H -1.3831 0.4344 0.097
C95 C -1.2952(14) 0.3824(3) 0.0494(4)
H105 H -1.3191 0.3976 0.0116
H106 H -1.3496 0.3538 0.0449
C96 C -1.0604(13) 0.3829(3) 0.0689(4)
H107 H -0.9822 0.3598 0.0504
H108 H -0.9922 0.4092 0.0572
O19 O -0.0553(8) 0.7143(2) 0.9277(2)
C97 C 0.1551(11) 0.7128(3) 0.9070(3)
H109 H 0.1664 0.7289 0.8697
H110 H 0.1963 0.6839 0.8987
C98 C 0.3002(11) 0.7309(3) 0.9549(4)
H111 H 0.3389 0.7102 0.9859
H112 H 0.4319 0.7428 0.9383
C99 C 0.1556(14) 0.7633(3) 0.9780(6)
H113 H 0.1623 0.7886 0.9534
H114 H 0.1939 0.7703 1.0198
C100 C -0.0653(11) 0.7438(3) 0.9738(3)
H115 H -0.1014 0.7303 1.0119
H116 H -0.1751 0.7649 0.9643
O20 O 0.5682(7) 0.2053(2) 0.5467(2)
C101 C 0.5655(13) 0.1747(3) 0.5924(3)
H117 H 0.5973 0.1874 0.6317
H118 H 0.6735 0.1531 0.5848
C102 C 0.3417(17) 0.1564(3) 0.5908(5)
H119 H 0.3297 0.1336 0.5616
H120 H 0.3013 0.146 0.6305
C103 C 0.2079(11) 0.1924(3) 0.5723(3)
H121 H 0.1751 0.2103 0.6066
H122 H 0.0725 0.1834 0.5526
C104 C 0.3530(10) 0.2139(2) 0.5291(3)
H123 H 0.3245 0.2036 0.4881
H124 H 0.3268 0.244 0.5297
loop_
_geom_bond_atom_site_label_1
_geom_bond_atom_site_label_2
_geom_bond_site_symmetry_1
_geom_bond_site_symmetry_2
C1 C2 1_555 1_555
C2 H1 1_555 1_555
C3 C2 1_555 1_555
H2 C3 1_555 1_555
C4 C3 1_555 1_555
C5 C4 1_555 1_555
H3 C5 1_555 1_555
C6 C5 1_555 1_555
H4 C6 1_555 1_555
C7 C6 1_555 1_555
C8 C7 1_555 1_555
H5 C8 1_555 1_555
C9 C4 1_555 1_555
H6 C9 1_555 1_555
C10 C7 1_555 1_555
H7 C10 1_555 1_555
H8 C10 1_555 1_555
C11 C10 1_555 1_555
O1 C11 1_555 1_555
O2 C11 1_555 1_555
H9 O2 1_555 1_555
C12 C1 1_555 1_555
H10 C12 1_555 1_555
C13 C12 1_555 1_555
C14 C13 1_555 1_555
H11 C14 1_555 1_555
C15 C14 1_555 1_555
H12 C15 1_555 1_555
C16 C15 1_555 1_555
C17 C16 1_555 1_555
H13 C17 1_555 1_555
C18 C17 1_555 1_555
H14 C18 1_555 1_555
C19 C18 1_555 1_555
C20 C19 1_555 1_555
H15 C20 1_555 1_555
C21 C16 1_555 1_555
H16 C21 1_555 1_555
C22 C19 1_555 1_555
H17 C22 1_555 1_555
H18 C22 1_555 1_555
C23 C22 1_555 1_555
O3 C23 1_555 1_555
O4 C23 1_555 1_555
H19 O4 1_555 1_555
C24 C13 1_555 1_555
H20 C24 1_555 1_555
C25 C24 1_555 1_555
C26 C25 1_555 1_555
H21 C26 1_555 1_555
C27 C26 1_555 1_555
H22 C27 1_555 1_555
C28 C27 1_555 1_555
C29 C28 1_555 1_555
H23 C29 1_555 1_555
C30 C29 1_555 1_555
H24 C30 1_555 1_555
C31 C30 1_555 1_555
C32 C31 1_555 1_555
H25 C32 1_555 1_555
C33 C28 1_555 1_555
H26 C33 1_555 1_555
C34 C31 1_555 1_555
H27 C34 1_555 1_555
H28 C34 1_555 1_555
C35 C34 1_555 1_555
O5 C35 1_555 1_555
O6 C35 1_555 1_555
H29 O6 1_555 1_555
C36 C1 1_555 1_555
H30 C36 1_555 1_555
C37 C38 1_555 1_555
C38 H31 1_555 1_555
C39 C38 1_555 1_555
H32 C39 1_555 1_555
C40 C39 1_555 1_555
C41 C40 1_555 1_555
H33 C41 1_555 1_555
C42 C41 1_555 1_555
H34 C42 1_555 1_555
C43 C42 1_555 1_555
C44 C43 1_555 1_555
H35 C44 1_555 1_555
C45 C40 1_555 1_555
H36 C45 1_555 1_555
C46 C43 1_555 1_555
H37 C46 1_555 1_555
H38 C46 1_555 1_555
C47 C46 1_555 1_555
O7 C47 1_555 1_555
O8 C47 1_555 1_555
H39 O8 1_555 1_555
C48 C37 1_555 1_555
H40 C48 1_555 1_555
C49 C48 1_555 1_555
C50 C49 1_555 1_555
H41 C50 1_555 1_555
C51 C50 1_555 1_555
H42 C51 1_555 1_555
C52 C51 1_555 1_555
C53 C52 1_555 1_555
H43 C53 1_555 1_555
C54 C53 1_555 1_555
H44 C54 1_555 1_555
C55 C54 1_555 1_555
C56 C55 1_555 1_555
H45 C56 1_555 1_555
C57 C52 1_555 1_555
H46 C57 1_555 1_555
C58 C55 1_555 1_555
H47 C58 1_555 1_555
H48 C58 1_555 1_555
C59 C58 1_555 1_555
O9 C59 1_555 1_555
O10 C59 1_555 1_555
H49 O10 1_555 1_555
C60 C49 1_555 1_555
H50 C60 1_555 1_555
C61 C60 1_555 1_555
C62 C61 1_555 1_555
H51 C62 1_555 1_555
C63 C62 1_555 1_555
H52 C63 1_555 1_555
C64 C63 1_555 1_555
C65 C64 1_555 1_555
H53 C65 1_555 1_555
C66 C65 1_555 1_555
H54 C66 1_555 1_555
C67 C66 1_555 1_555
C68 C67 1_555 1_555
H55 C68 1_555 1_555
C69 C64 1_555 1_555
H56 C69 1_555 1_555
C70 C67 1_555 1_555
H57 C70 1_555 1_555
H58 C70 1_555 1_555
C71 C70 1_555 1_555
O11 C71 1_555 1_555
O12 C71 1_555 1_555
H59 O12 1_555 1_555
C72 C37 1_555 1_555
H60 C72 1_555 1_555
O13 C73 1_555 1_555
C73 H61 1_555 1_555
H62 C73 1_555 1_555
C74 C73 1_555 1_555
H63 C74 1_555 1_555
H64 C74 1_555 1_555
C75 C74 1_555 1_555
H65 C75 1_555 1_555
H66 C75 1_555 1_555
C76 O13 1_555 1_555
H67 C76 1_555 1_555
H68 C76 1_555 1_555
O14 C77 1_555 1_555
C77 H69 1_555 1_555
H70 C77 1_555 1_555
C78 C77 1_555 1_555
H71 C78 1_555 1_555
H72 C78 1_555 1_555
C79 C78 1_555 1_555
H73 C79 1_555 1_555
H74 C79 1_555 1_555
C80 O14 1_555 1_555
H75 C80 1_555 1_555
H76 C80 1_555 1_555
O15 C81 1_555 1_555
C81 H77 1_555 1_555
H78 C81 1_555 1_555
C82 C81 1_555 1_555
H79 C82 1_555 1_555
H80 C82 1_555 1_555
C83 C82 1_555 1_555
H81 C83 1_555 1_555
H82 C83 1_555 1_555
C84 O15 1_555 1_555
H83 C84 1_555 1_555
H84 C84 1_555 1_555
O16 C85 1_555 1_555
C85 H85 1_555 1_555
H86 C85 1_555 1_555
C86 C85 1_555 1_555
H87 C86 1_555 1_555
H88 C86 1_555 1_555
C87 C86 1_555 1_555
H89 C87 1_555 1_555
H90 C87 1_555 1_555
C88 O16 1_555 1_555
H91 C88 1_555 1_555
H92 C88 1_555 1_555
O17 C89 1_555 1_555
C89 H93 1_555 1_555
H94 C89 1_555 1_555
C90 C89 1_555 1_555
H95 C90 1_555 1_555
H96 C90 1_555 1_555
C91 C90 1_555 1_555
H97 C91 1_555 1_555
H98 C91 1_555 1_555
C92 O17 1_555 1_555
H99 C92 1_555 1_555
H100 C92 1_555 1_555
O18 C93 1_555 1_555
C93 H101 1_555 1_555
H102 C93 1_555 1_555
C94 C93 1_555 1_555
H103 C94 1_555 1_555
H104 C94 1_555 1_555
C95 C94 1_555 1_555
H105 C95 1_555 1_555
H106 C95 1_555 1_555
C96 O18 1_555 1_555
H107 C96 1_555 1_555
H108 C96 1_555 1_555
O19 C97 1_555 1_555
C97 H109 1_555 1_555
H110 C97 1_555 1_555
C98 C97 1_555 1_555
H111 C98 1_555 1_555
H112 C98 1_555 1_555
C99 C98 1_555 1_555
H113 C99 1_555 1_555
H114 C99 1_555 1_555
C100 O19 1_555 1_555
H115 C100 1_555 1_555
H116 C100 1_555 1_555
O20 C101 1_555 1_555
C101 H117 1_555 1_555
H118 C101 1_555 1_555
C102 C101 1_555 1_555
H119 C102 1_555 1_555
H120 C102 1_555 1_555
C103 C102 1_555 1_555
H121 C103 1_555 1_555
H122 C103 1_555 1_555
C104 O20 1_555 1_555
H123 C104 1_555 1_555
H124 C104 1_555 1_555
C8 C9 1_555 1_555
C20 C21 1_555 1_555
C25 C36 1_555 1_555
C32 C33 1_555 1_555
C44 C45 1_555 1_555
C56 C57 1_555 1_555
C61 C72 1_555 1_555
C68 C69 1_555 1_555
C75 C76 1_555 1_555
C79 C80 1_555 1_555
C83 C84 1_555 1_555
C87 C88 1_555 1_555
C91 C92 1_555 1_555
C95 C96 1_555 1_555
C99 C100 1_555 1_555
C103 C104 1_555 1_555

#END
