
#######################################################################
#
#                 Cambridge Crystallographic Data Centre
#                                CCDC 
#
#######################################################################
#
# If this CIF has been generated from an entry in the Cambridge 
# Structural Database, then it will include bibliographic, chemical, 
# crystal, experimental, refinement or atomic coordinate data resulting 
# from the CCDC's data processing and validation procedures.
#
#######################################################################

data_HITTOU
_chemical_formula_moiety         'C18 H22 N2 S4'
_chemical_name_systematic        
bis(N-n-Butylpyrrolo(3,4-d))tetrathiafulvalene
_symmetry_cell_setting           monoclinic
_symmetry_space_group_name_H-M   'P 21/a'
_symmetry_Int_Tables_number      14
_space_group_name_Hall           '-P 2yab'
loop_
_symmetry_equiv_pos_site_id
_symmetry_equiv_pos_as_xyz
1 x,y,z
2 1/2-x,1/2+y,-z
3 -x,-y,-z
4 1/2+x,1/2-y,z
_cell_length_a                   10.237(4)
_cell_length_b                   11.170(4)
_cell_length_c                   8.139(4)
_cell_angle_alpha                90
_cell_angle_beta                 91.51(2)
_cell_angle_gamma                90
_cell_volume                     930.349
_exptl_crystal_colour            yellow
_exptl_crystal_description       block
_chemical_melting_point          '463.8-465.2 K'
_cell_formula_units_Z            2
loop_
_atom_site_label
_atom_site_type_symbol
_atom_site_fract_x
_atom_site_fract_y
_atom_site_fract_z
S1 S 0.88099(5) 0.14256(5) 0.10438(8)
S2 S 0.83427(5) -0.12030(5) 0.04341(8)
N1 N 0.53303(17) 0.03911(16) 0.2428(2)
C1 C 0.9405(2) 0.00445(18) 0.0309(3)
C2 C 0.7303(2) 0.08447(19) 0.1596(3)
C3 C 0.6217(2) 0.13018(18) 0.2308(3)
C4 C 0.5842(2) -0.06468(19) 0.1799(3)
C5 C 0.7077(2) -0.03784(19) 0.1289(3)
C6 C 0.4047(2) 0.0552(2) 0.3139(3)
C7 C 0.3224(2) -0.0568(2) 0.3207(3)
C8 C 0.1924(2) -0.0308(2) 0.3994(3)
C9 C 0.1072(3) -0.1408(3) 0.4087(4)
H1 H 0.6101 0.2106 0.2661
H2 H 0.5422 -0.1405 0.1733
H3 H 0.4175 0.0842 0.4233
H4 H 0.3582 0.1133 0.2505
H5 H 0.3067 -0.0857 0.2121
H6 H 0.3678 -0.1160 0.3834
H7 H 0.2089 -0.0011 0.5073
H8 H 0.1474 0.0284 0.3358
H9 H 0.0274 -0.1206 0.4591
H10 H 0.0898 -0.1708 0.3017
H11 H 0.1513 -0.2003 0.4732
S1B S 1.11901(5) -0.14256(5) -0.10438(8)
S2B S 1.16573(5) 0.12030(5) -0.04341(8)
N1B N 1.46697(17) -0.03911(16) -0.2428(2)
C1B C 1.0595(2) -0.00445(18) -0.0309(3)
C2B C 1.2697(2) -0.08447(19) -0.1596(3)
C3B C 1.3783(2) -0.13018(18) -0.2308(3)
C4B C 1.4158(2) 0.06468(19) -0.1799(3)
C5B C 1.2923(2) 0.03784(19) -0.1289(3)
C6B C 1.5953(2) -0.0552(2) -0.3139(3)
C7B C 1.6776(2) 0.0568(2) -0.3207(3)
C8B C 1.8076(2) 0.0308(2) -0.3994(3)
C9B C 1.8928(3) 0.1408(3) -0.4087(4)
H1B H 1.3899 -0.2106 -0.2661
H2B H 1.4578 0.1405 -0.1733
H3B H 1.5825 -0.0842 -0.4233
H4B H 1.6418 -0.1133 -0.2505
H5B H 1.6933 0.0857 -0.2121
H6B H 1.6322 0.1160 -0.3834
H7B H 1.7911 0.0011 -0.5073
H8B H 1.8526 -0.0284 -0.3358
H9B H 1.9726 0.1206 -0.4591
H10B H 1.9102 0.1708 -0.3017
H11B H 1.8487 0.2003 -0.4732
loop_
_geom_bond_atom_site_label_1
_geom_bond_atom_site_label_2
_geom_bond_site_symmetry_1
_geom_bond_site_symmetry_2
S1 C1 1_555 1_555
S2 C1 1_555 1_555
N1 C3 1_555 1_555
C1 C1B 1_555 1_555
C2 S1 1_555 1_555
C3 C2 1_555 1_555
C4 N1 1_555 1_555
C5 S2 1_555 1_555
C6 N1 1_555 1_555
C7 C6 1_555 1_555
C8 C7 1_555 1_555
C9 C8 1_555 1_555
H1 C3 1_555 1_555
H2 C4 1_555 1_555
H3 C6 1_555 1_555
H4 C6 1_555 1_555
H5 C7 1_555 1_555
H6 C7 1_555 1_555
H7 C8 1_555 1_555
H8 C8 1_555 1_555
H9 C9 1_555 1_555
H10 C9 1_555 1_555
H11 C9 1_555 1_555
S1B C1B 1_555 1_555
S2B C1B 1_555 1_555
N1B C3B 1_555 1_555
C2B S1B 1_555 1_555
C3B C2B 1_555 1_555
C4B N1B 1_555 1_555
C5B S2B 1_555 1_555
C6B N1B 1_555 1_555
C7B C6B 1_555 1_555
C8B C7B 1_555 1_555
C9B C8B 1_555 1_555
H1B C3B 1_555 1_555
H2B C4B 1_555 1_555
H3B C6B 1_555 1_555
H4B C6B 1_555 1_555
H5B C7B 1_555 1_555
H6B C7B 1_555 1_555
H7B C8B 1_555 1_555
H8B C8B 1_555 1_555
H9B C9B 1_555 1_555
H10B C9B 1_555 1_555
H11B C9B 1_555 1_555
C2 C5 1_555 1_555
C4 C5 1_555 1_555
C2B C5B 1_555 1_555
C4B C5B 1_555 1_555

#END
