
#######################################################################
#
#                 Cambridge Crystallographic Data Centre
#                                CCDC 
#
#######################################################################
#
# If this CIF has been generated from an entry in the Cambridge 
# Structural Database, then it will include bibliographic, chemical, 
# crystal, experimental, refinement or atomic coordinate data resulting 
# from the CCDC's data processing and validation procedures.
#
#######################################################################

data_HITWUE
_chemical_formula_moiety         'C8 H8 Br1 N1 O2'
_chemical_name_systematic        2-Bromo-N-hydroxy-N-methylbenzamide
_symmetry_cell_setting           orthorhombic
_symmetry_space_group_name_H-M   'P b c a'
_symmetry_Int_Tables_number      61
_space_group_name_Hall           '-P 2ac 2ab'
loop_
_symmetry_equiv_pos_site_id
_symmetry_equiv_pos_as_xyz
1 x,y,z
2 1/2+x,1/2-y,-z
3 -x,1/2+y,1/2-z
4 1/2-x,-y,1/2+z
5 -x,-y,-z
6 1/2-x,1/2+y,z
7 x,1/2-y,1/2+z
8 1/2+x,y,1/2-z
_cell_length_a                   9.0280(17)
_cell_length_b                   13.063(3)
_cell_length_c                   14.634(3)
_cell_angle_alpha                90
_cell_angle_beta                 90
_cell_angle_gamma                90
_cell_volume                     1725.83
_exptl_crystal_colour            colorless
_exptl_crystal_description       Block
_chemical_melting_point          '127-128 deg.C'
_cell_formula_units_Z            8
loop_
_atom_site_label
_atom_site_type_symbol
_atom_site_fract_x
_atom_site_fract_y
_atom_site_fract_z
Br1 Br -0.21557(5) 0.84536(3) 0.82731(3)
N1 N 0.1188(3) 0.8474(2) 0.9804(2)
O1 O -0.0890(3) 0.7929(2) 1.04899(18)
C1 C 0.1490(4) 0.9323(3) 1.0408(3)
C2 C -0.0139(4) 0.7064(3) 0.9121(2)
C3 C -0.1071(4) 0.7216(3) 0.8382(2)
C4 C -0.1264(4) 0.6479(3) 0.7715(3)
H1 H -0.1886 0.6597 0.7219
C5 C -0.0506(4) 0.5557(3) 0.7801(3)
H2 H -0.0628 0.5050 0.7361
C6 C 0.0421(4) 0.5389(3) 0.8531(3)
H3 H 0.0920 0.4769 0.8583
C7 C 0.0617(4) 0.6141(3) 0.9192(3)
H4 H 0.1253 0.6026 0.9681
C8 C 0.0014(4) 0.7856(3) 0.9858(2)
O2 O 0.2082(3) 0.8422(2) 0.90320(19)
H5 H 0.249(7) 0.929(5) 1.064(4)
H6 H 0.134(5) 0.993(4) 1.012(3)
H7 H 0.283(6) 0.797(5) 0.924(4)
H8? H 0.076(5) 0.929(3) 1.089(3)
loop_
_geom_bond_atom_site_label_1
_geom_bond_atom_site_label_2
_geom_bond_site_symmetry_1
_geom_bond_site_symmetry_2
Br1 C3 1_555 1_555
N1 C1 1_555 1_555
O1 C8 1_555 1_555
C1 H5 1_555 1_555
C2 C3 1_555 1_555
C3 C4 1_555 1_555
C4 H1 1_555 1_555
C5 C4 1_555 1_555
H2 C5 1_555 1_555
C6 C5 1_555 1_555
H3 C6 1_555 1_555
C7 C2 1_555 1_555
H4 C7 1_555 1_555
C8 N1 1_555 1_555
O2 N1 1_555 1_555
H6 C1 1_555 1_555
H7 O2 1_555 1_555
C2 C8 1_555 1_555
C6 C7 1_555 1_555

#END
