
#######################################################################
#
#                 Cambridge Crystallographic Data Centre
#                                CCDC 
#
#######################################################################
#
# If this CIF has been generated from an entry in the Cambridge 
# Structural Database, then it will include bibliographic, chemical, 
# crystal, experimental, refinement or atomic coordinate data resulting 
# from the CCDC's data processing and validation procedures.
#
#######################################################################

data_HIVBAQ
_chemical_formula_moiety         'C14 H13 N1 O2'
_chemical_name_systematic        N-(1-Naphthyl)acetoacetamide
_symmetry_cell_setting           monoclinic
_symmetry_space_group_name_H-M   'P 21/c'
_symmetry_Int_Tables_number      14
_space_group_name_Hall           '-P 2ybc'
loop_
_symmetry_equiv_pos_site_id
_symmetry_equiv_pos_as_xyz
1 x,y,z
2 -x,1/2+y,1/2-z
3 -x,-y,-z
4 x,1/2-y,1/2+z
_cell_length_a                   17.856(2)
_cell_length_b                   8.1076(12)
_cell_length_c                   8.5153(14)
_cell_angle_alpha                90
_cell_angle_beta                 102.777(2)
_cell_angle_gamma                90
_cell_volume                     1202.23
_exptl_crystal_colour            colorless
_exptl_crystal_description       block
_cell_formula_units_Z            4
_exptl_crystal_recrystallization_method ethanol
loop_
_atom_site_label
_atom_site_type_symbol
_atom_site_fract_x
_atom_site_fract_y
_atom_site_fract_z
N1 N 0.21814(9) 0.2430(2) 0.4659(2)
H1 H 0.2099 0.2073 0.5557
O1 O 0.16833(8) 0.38359(18) 0.23841(18)
O2 O 0.05169(8) 0.08943(19) 0.29965(19)
C1 C 0.16240(11) 0.3270(2) 0.3687(3)
C2 C 0.08902(11) 0.3457(2) 0.4262(2)
H2 H 0.1011 0.3525 0.5428
H3 H 0.0642 0.4480 0.3845
C3 C 0.03443(11) 0.2049(3) 0.3741(2)
C4 C -0.04209(12) 0.2179(3) 0.4158(3)
H4 H -0.0724 0.1229 0.3757
H5 H -0.0677 0.3157 0.3679
H6 H -0.0355 0.2236 0.5307
C5 C 0.29076(11) 0.2094(3) 0.4290(2)
C6 C 0.34536(13) 0.3281(3) 0.4510(3)
H7 H 0.3347 0.4324 0.4860
C7 C 0.41772(14) 0.2943(4) 0.4212(3)
H8 H 0.4547 0.3769 0.4355
C8 C 0.43444(13) 0.1437(3) 0.3720(3)
H9 H 0.4834 0.1227 0.3557
C9 C 0.37919(12) 0.0178(3) 0.3450(3)
C10 C 0.30501(11) 0.0509(3) 0.3728(2)
C11 C 0.24937(13) -0.0750(3) 0.3404(3)
H10 H 0.2006 -0.0558 0.3583
C12 C 0.26597(16) -0.2243(3) 0.2834(4)
H11 H 0.2284 -0.3057 0.2616
C13 C 0.33885(17) -0.2560(4) 0.2574(4)
H12 H 0.3496 -0.3584 0.2186
C14 C 0.39381(15) -0.1396(3) 0.2880(3)
H13 H 0.4424 -0.1634 0.2713
loop_
_geom_bond_atom_site_label_1
_geom_bond_atom_site_label_2
_geom_bond_site_symmetry_1
_geom_bond_site_symmetry_2
N1 H1 1_555 1_555
O1 C1 1_555 1_555
O2 C3 1_555 1_555
C1 N1 1_555 1_555
C2 C1 1_555 1_555
H2 C2 1_555 1_555
H3 C2 1_555 1_555
C3 C2 1_555 1_555
C4 C3 1_555 1_555
H4 C4 1_555 1_555
H5 C4 1_555 1_555
H6 C4 1_555 1_555
C5 N1 1_555 1_555
C6 C5 1_555 1_555
H7 C6 1_555 1_555
C7 C6 1_555 1_555
H8 C7 1_555 1_555
C8 C7 1_555 1_555
H9 C8 1_555 1_555
C9 C8 1_555 1_555
C10 C5 1_555 1_555
C11 C10 1_555 1_555
H10 C11 1_555 1_555
C12 C11 1_555 1_555
H11 C12 1_555 1_555
C13 C12 1_555 1_555
H12 C13 1_555 1_555
C14 C9 1_555 1_555
H13 C14 1_555 1_555
C9 C10 1_555 1_555
C13 C14 1_555 1_555

#END
