
#######################################################################
#
#                 Cambridge Crystallographic Data Centre
#                                CCDC 
#
#######################################################################
#
# If this CIF has been generated from an entry in the Cambridge 
# Structural Database, then it will include bibliographic, chemical, 
# crystal, experimental, refinement or atomic coordinate data resulting 
# from the CCDC's data processing and validation procedures.
#
#######################################################################

data_HIVDUN
_chemical_formula_moiety         'C18 H17 F4 N1 O2 S1'
_chemical_name_systematic        
4-Fluoro-1-((4-methylphenyl)sulfonyl)-2-(3-(trifluoromethyl)phenyl)pyrrolidine
_symmetry_cell_setting           orthorhombic
_symmetry_space_group_name_H-M   'P b c a'
_symmetry_Int_Tables_number      61
_space_group_name_Hall           '-P 2ac 2ab'
loop_
_symmetry_equiv_pos_site_id
_symmetry_equiv_pos_as_xyz
1 x,y,z
2 1/2-x,-y,1/2+z
3 -x,1/2+y,1/2-z
4 1/2+x,1/2-y,-z
5 -x,-y,-z
6 1/2+x,y,1/2-z
7 x,1/2-y,1/2+z
8 1/2-x,1/2+y,z
_cell_length_a                   10.3289(19)
_cell_length_b                   12.271(2)
_cell_length_c                   27.811(5)
_cell_angle_alpha                90
_cell_angle_beta                 90
_cell_angle_gamma                90
_cell_volume                     3524.93
_exptl_crystal_colour            colorless
_exptl_crystal_description       Prism
_cell_formula_units_Z            8
loop_
_atom_site_label
_atom_site_type_symbol
_atom_site_fract_x
_atom_site_fract_y
_atom_site_fract_z
S1 S 0.17728(4) 0.30164(4) 0.024468(15)
F1 F 0.49268(13) 0.33869(11) 0.13136(5)
F2 F -0.0189(7) 0.3381(5) 0.2589(2)
F3 F 0.1701(7) 0.2814(6) 0.2535(3)
F4 F 0.0320(8) 0.2260(6) 0.2031(2)
O1 O 0.19269(13) 0.18562(11) 0.02188(5)
O2 O 0.05817(11) 0.34729(11) 0.04151(5)
N1 N 0.29011(14) 0.34496(12) 0.06056(5)
C1 C 0.42565(18) 0.31085(16) 0.05115(7)
H1 H 0.4502 0.3241 0.0172
H2 H 0.4388 0.2329 0.0589
C2 C 0.50060(19) 0.38285(17) 0.08471(7)
H3 H 0.5925 0.3914 0.0741
C3 C 0.42947(18) 0.48942(17) 0.08361(8)
H4 H 0.4592 0.5346 0.0563
H5 H 0.4438 0.5304 0.1138
C4 C 0.28493(17) 0.45976(15) 0.07782(6)
H6 H 0.2458 0.5066 0.0522
C5 C 0.20734(17) 0.47189(15) 0.12368(6)
C6 C 0.1695(2) 0.57608(18) 0.13739(7)
H7 H 0.1918 0.6365 0.1177
C7 C 0.1000(3) 0.5932(2) 0.17926(8)
H8 H 0.0751 0.6649 0.1881
C8 C 0.0667(2) 0.5059(2) 0.20816(7)
H9 H 0.0191 0.5172 0.2370
C9 C 0.1036(2) 0.40145(18) 0.19464(7)
C10 C 0.17382(18) 0.38397(17) 0.15265(7)
H10 H 0.1988 0.3122 0.1438
C11 C 0.0690(2) 0.3069(2) 0.22560(8)
C12 C 0.20648(16) 0.35309(15) -0.03357(6)
C13 C 0.28795(18) 0.29514(16) -0.06437(7)
H11 H 0.3290 0.2302 -0.0538
C14 C 0.30818(18) 0.33345(17) -0.11055(7)
H12 H 0.3637 0.2942 -0.1316
C15 C 0.24880(19) 0.42848(17) -0.12680(6)
C16 C 0.16710(18) 0.48504(16) -0.09553(7)
H13 H 0.1251 0.5495 -0.1063
C17 C 0.14635(17) 0.44847(15) -0.04896(6)
H14 H 0.0917 0.4881 -0.0278
C18 C 0.2737(2) 0.4698(2) -0.17700(7)
H15 H 0.3644 0.4925 -0.1798
H16 H 0.2171 0.5322 -0.1836
H17 H 0.2559 0.4117 -0.2002
loop_
_geom_bond_atom_site_label_1
_geom_bond_atom_site_label_2
_geom_bond_site_symmetry_1
_geom_bond_site_symmetry_2
S1 O1 1_555 1_555
F1 C2 1_555 1_555
F2 C11 1_555 1_555
F3 C11 1_555 1_555
F4 C11 1_555 1_555
O2 S1 1_555 1_555
N1 S1 1_555 1_555
C1 N1 1_555 1_555
H1 C1 1_555 1_555
H2 C1 1_555 1_555
C2 C1 1_555 1_555
H3 C2 1_555 1_555
C3 C2 1_555 1_555
H4 C3 1_555 1_555
H5 C3 1_555 1_555
C4 N1 1_555 1_555
H6 C4 1_555 1_555
C5 C4 1_555 1_555
C6 C5 1_555 1_555
H7 C6 1_555 1_555
C7 C6 1_555 1_555
H8 C7 1_555 1_555
C8 C7 1_555 1_555
H9 C8 1_555 1_555
C9 C8 1_555 1_555
C10 C5 1_555 1_555
H10 C10 1_555 1_555
C11 C9 1_555 1_555
C12 S1 1_555 1_555
C13 C12 1_555 1_555
H11 C13 1_555 1_555
C14 C13 1_555 1_555
H12 C14 1_555 1_555
C15 C14 1_555 1_555
C16 C15 1_555 1_555
H13 C16 1_555 1_555
C17 C12 1_555 1_555
H14 C17 1_555 1_555
C18 C15 1_555 1_555
H15 C18 1_555 1_555
H16 C18 1_555 1_555
H17 C18 1_555 1_555
C3 C4 1_555 1_555
C9 C10 1_555 1_555
C16 C17 1_555 1_555

#END
