
#######################################################################
#
#                 Cambridge Crystallographic Data Centre
#                                CCDC 
#
#######################################################################
#
# If this CIF has been generated from an entry in the Cambridge 
# Structural Database, then it will include bibliographic, chemical, 
# crystal, experimental, refinement or atomic coordinate data resulting 
# from the CCDC's data processing and validation procedures.
#
#######################################################################

data_HIWRAH
_chemical_formula_moiety         'C39 H34 Br1 N1 O4 S1'
_chemical_name_systematic        
'Ethyl 8-(4-bromobenzoyl)-4,5-dimethyl-2,2-diphenyl-6-ethyl-16-oxa-3-thia-6-azatetracyclo(7.6.1.0^1,7^.0^10,15^)hexadeca-4,7,10(15),11,13-pentaene-9-carboxylate'
_symmetry_cell_setting           monoclinic
_symmetry_space_group_name_H-M   'P 21/n'
_symmetry_Int_Tables_number      14
_space_group_name_Hall           '-P 2yn'
loop_
_symmetry_equiv_pos_site_id
_symmetry_equiv_pos_as_xyz
1 x,y,z
2 1/2-x,1/2+y,1/2-z
3 -x,-y,-z
4 1/2+x,1/2-y,1/2+z
_cell_length_a                   11.596(3)
_cell_length_b                   23.487(6)
_cell_length_c                   12.675(4)
_cell_angle_alpha                90.00
_cell_angle_beta                 96.921(12)
_cell_angle_gamma                90.00
_cell_volume                     3426.95
_exptl_crystal_colour            yellow
_chemical_melting_point          '213-215 deg.C'
_cell_formula_units_Z            4
loop_
_atom_site_label
_atom_site_type_symbol
_atom_site_fract_x
_atom_site_fract_y
_atom_site_fract_z
C1 C 0.0482(9) 0.0400(5) 0.1632(11)
H1 H 0.0452 0.0313 0.0881
H2 H 0.0658 0.0051 0.2026
C2 C -0.0616(13) 0.0602(8) 0.1839(16)
H3 H -0.0615 0.0653 0.2590
H4 H -0.1203 0.0330 0.1584
H5 H -0.0777 0.0959 0.1482
O1 O 0.2408(6) 0.0399(2) 0.0745(5)
O2 O 0.1412(5) 0.0813(2) 0.1924(5)
C3 C 0.1406(6) 0.3100(4) 0.3073(7)
H6 H 0.0895 0.2946 0.3508
C4 C 0.1326(7) 0.3671(3) 0.2793(6)
H7 H 0.0775 0.3902 0.3055
C5 C 0.2053(6) 0.3893(3) 0.2136(6)
H8 H 0.1991 0.4275 0.1946
C6 C 0.2888(5) 0.3554(2) 0.1747(5)
H9 H 0.3370 0.3710 0.1287
C7 C 0.3014(5) 0.2982(2) 0.2040(4)
C8 C 0.2247(6) 0.2759(3) 0.2703(5)
H10 H 0.2302 0.2377 0.2898
C9 C 0.3277(5) 0.2506(2) -0.0270(5)
H11 H 0.2720 0.2265 -0.0045
C10 C 0.3260(6) 0.2608(3) -0.1340(5)
H12 H 0.2685 0.2448 -0.1825
C11 C 0.4115(7) 0.2954(3) -0.1691(5)
H13 H 0.4134 0.3016 -0.2413
C12 C 0.4917(6) 0.3197(3) -0.0963(5)
H14 H 0.5477 0.3435 -0.1194
C13 C 0.4924(6) 0.3103(3) 0.0100(5)
H15 H 0.5488 0.3275 0.0578
C14 C 0.4091(5) 0.2749(2) 0.0483(4)
C15 C 0.4024(4) 0.2644(2) 0.1675(4)
C16 C 0.4034(4) 0.2015(2) 0.1920(4)
C17 C 0.4153(5) 0.1767(2) 0.3093(4)
C18 C 0.4868(5) 0.2548(2) 0.4299(4)
C19 C 0.5028(5) 0.2998(2) 0.3711(4)
C20 C 0.5693(5) 0.1592(3) 0.4597(5)
H16 H 0.5239 0.1367 0.5038
H17 H 0.6240 0.1817 0.5063
C21 C 0.6358(6) 0.1197(3) 0.3944(7)
H18 H 0.5851 0.0900 0.3642
H19 H 0.6997 0.1031 0.4392
H20 H 0.6648 0.1408 0.3384
C22 C 0.4599(7) 0.2602(3) 0.5443(5)
H21 H 0.5228 0.2795 0.5859
H22 H 0.4505 0.2230 0.5732
H23 H 0.3896 0.2816 0.5458
C23 C 0.4908(7) 0.3607(3) 0.4103(6)
H24 H 0.4181 0.3763 0.3792
H25 H 0.5534 0.3835 0.3902
H26 H 0.4935 0.3607 0.4863
C24 C 0.4926(5) 0.1638(2) 0.1414(4)
C25 C 0.3618(5) 0.1251(2) 0.3009(4)
C26 C 0.3296(5) 0.1158(2) 0.1802(4)
C27 C 0.4438(5) 0.1090(2) 0.1340(4)
C28 C 0.6015(5) 0.1737(3) 0.1104(5)
H27 H 0.6350 0.2097 0.1149
C29 C 0.6589(6) 0.1268(3) 0.0721(6)
H28 H 0.7312 0.1324 0.0489
C30 C 0.6127(7) 0.0739(3) 0.0676(6)
H29 H 0.6550 0.0439 0.0434
C31 C 0.5003(6) 0.0627(3) 0.0990(5)
H30 H 0.4678 0.0264 0.0959
C32 C 0.3557(5) 0.0763(2) 0.3713(5)
C33 C 0.3424(5) 0.0821(2) 0.4843(5)
C34 C 0.2979(5) 0.1313(2) 0.5262(5)
H31 H 0.2764 0.1619 0.4817
C35 C 0.2855(6) 0.1349(3) 0.6323(5)
H32 H 0.2543 0.1674 0.6596
C36 C 0.3204(6) 0.0890(3) 0.6986(5)
C37 C 0.3613(7) 0.0407(3) 0.6590(5)
H33 H 0.3822 0.0101 0.7038
C38 C 0.3722(7) 0.0368(3) 0.5527(5)
H34 H 0.3999 0.0033 0.5259
C39 C 0.2333(6) 0.0742(3) 0.1435(5)
O3 O 0.2958(3) 0.17310(14) 0.1488(3)
O4 O 0.3585(5) 0.02815(17) 0.3310(4)
N1 N 0.4916(4) 0.19743(18) 0.3928(3)
Br1 Br 0.30683(8) 0.09357(4) 0.84518(6)
S1 S 0.53828(12) 0.29347(6) 0.24137(11)
loop_
_geom_bond_atom_site_label_1
_geom_bond_atom_site_label_2
_geom_bond_site_symmetry_1
_geom_bond_site_symmetry_2
C1 H1 1_555 1_555
H2 C1 1_555 1_555
C2 C1 1_555 1_555
H3 C2 1_555 1_555
H4 C2 1_555 1_555
H5 C2 1_555 1_555
O1 C39 1_555 1_555
O2 C1 1_555 1_555
C3 H6 1_555 1_555
C4 C3 1_555 1_555
H7 C4 1_555 1_555
C5 C4 1_555 1_555
H8 C5 1_555 1_555
C6 C5 1_555 1_555
H9 C6 1_555 1_555
C7 C6 1_555 1_555
C8 C3 1_555 1_555
H10 C8 1_555 1_555
C9 H11 1_555 1_555
C10 C9 1_555 1_555
H12 C10 1_555 1_555
C11 C10 1_555 1_555
H13 C11 1_555 1_555
C12 C11 1_555 1_555
H14 C12 1_555 1_555
C13 C12 1_555 1_555
H15 C13 1_555 1_555
C14 C9 1_555 1_555
C15 C7 1_555 1_555
C16 C15 1_555 1_555
C17 C16 1_555 1_555
C18 C19 1_555 1_555
C19 C23 1_555 1_555
C20 H16 1_555 1_555
H17 C20 1_555 1_555
C21 C20 1_555 1_555
H18 C21 1_555 1_555
H19 C21 1_555 1_555
H20 C21 1_555 1_555
C22 C18 1_555 1_555
H21 C22 1_555 1_555
H22 C22 1_555 1_555
H23 C22 1_555 1_555
C23 H24 1_555 1_555
H25 C23 1_555 1_555
H26 C23 1_555 1_555
C24 C16 1_555 1_555
C25 C17 1_555 1_555
C26 C25 1_555 1_555
C27 C24 1_555 1_555
C28 C24 1_555 1_555
H27 C28 1_555 1_555
C29 C28 1_555 1_555
H28 C29 1_555 1_555
C30 C29 1_555 1_555
H29 C30 1_555 1_555
C31 C27 1_555 1_555
H30 C31 1_555 1_555
C32 C25 1_555 1_555
C33 C32 1_555 1_555
C34 C33 1_555 1_555
H31 C34 1_555 1_555
C35 C34 1_555 1_555
H32 C35 1_555 1_555
C36 C35 1_555 1_555
C37 C36 1_555 1_555
H33 C37 1_555 1_555
C38 C33 1_555 1_555
H34 C38 1_555 1_555
C39 O2 1_555 1_555
O3 C16 1_555 1_555
O4 C32 1_555 1_555
N1 C17 1_555 1_555
Br1 C36 1_555 1_555
S1 C15 1_555 1_555
C7 C8 1_555 1_555
C13 C14 1_555 1_555
C14 C15 1_555 1_555
C18 N1 1_555 1_555
C19 S1 1_555 1_555
C20 N1 1_555 1_555
C26 C27 1_555 1_555
C26 C39 1_555 1_555
C26 O3 1_555 1_555
C30 C31 1_555 1_555
C37 C38 1_555 1_555

#END
