
#######################################################################
#
#                 Cambridge Crystallographic Data Centre
#                                CCDC 
#
#######################################################################
#
# If this CIF has been generated from an entry in the Cambridge 
# Structural Database, then it will include bibliographic, chemical, 
# crystal, experimental, refinement or atomic coordinate data resulting 
# from the CCDC's data processing and validation procedures.
#
#######################################################################

data_HIXBEX
_chemical_formula_moiety         'C35 H73 B1 N6 P2'
_chemical_name_systematic        
"P,P''-3,6-diaza-2-boratricyclo[6.3.3.0^2,7^]tetradec-4-ene-3,6-diylbis(N,N,N',N'-tetraisopropyl(phosphonous diamide))"
_symmetry_cell_setting           triclinic
_symmetry_space_group_name_H-M   'P -1'
_symmetry_Int_Tables_number      2
_space_group_name_Hall           '-P 1'
loop_
_symmetry_equiv_pos_site_id
_symmetry_equiv_pos_as_xyz
1 x,y,z
2 -x,-y,-z
_cell_length_a                   8.2419(3)
_cell_length_b                   13.4707(5)
_cell_length_c                   19.5768(8)
_cell_angle_alpha                107.466(2)
_cell_angle_beta                 97.968(2)
_cell_angle_gamma                101.582(2)
_cell_volume                     1984.54
_cell_formula_units_Z            2
loop_
_atom_site_label
_atom_site_type_symbol
_atom_site_fract_x
_atom_site_fract_y
_atom_site_fract_z
P1 P 0.32324(7) 0.26092(4) 0.14378(3)
P2 P 0.55640(7) 0.73153(4) 0.36884(3)
N1 N 0.4076(2) 0.40076(13) 0.18670(9)
N2 N 0.5182(2) 0.61870(14) 0.28967(9)
C1 C 0.5565(3) 0.29943(17) 0.05523(12)
H1 H 0.6211 0.3493 0.1049
N3 N 0.3990(2) 0.23624(14) 0.06573(9)
B1 B 0.3158(3) 0.4762(2) 0.17495(13)
C2 C 0.3789(3) 0.59465(19) 0.22857(14)
H2 H 0.4395 0.6287 0.1972
N4 N 0.6917(2) 0.82799(14) 0.35018(10)
C3 C 0.6705(3) 0.93916(17) 0.37767(13)
H3 H 0.7586 0.9860 0.3625
C4 C 0.7035(3) 0.98314(18) 0.46086(13)
H4 H 0.8142 0.9759 0.4814
H5 H 0.6148 0.9426 0.4778
H6 H 0.7029 1.0593 0.4770
C5 C 0.5114(3) 0.7589(2) 0.53336(13)
H7 H 0.6095 0.8208 0.5581
H8 H 0.4586 0.7366 0.5701
H9 H 0.4290 0.7792 0.5025
C6 C 0.5695(3) 0.66546(18) 0.48547(12)
H10 H 0.6471 0.6439 0.5191
N5 N 0.6674(2) 0.69656(14) 0.43366(9)
C7 C 0.8489(3) 0.69801(18) 0.44662(12)
H11 H 0.8942 0.7127 0.4048
C8 C 0.8821(3) 0.59061(19) 0.44914(13)
H12 H 0.8174 0.5323 0.4043
H13 H 0.8466 0.5762 0.4917
H14 H 1.0033 0.5949 0.4530
C9 C 0.9504(3) 0.7885(2) 0.51693(13)
H15 H 0.9297 0.8571 0.5157
H16 H 1.0715 0.7925 0.5206
H17 H 0.9150 0.7737 0.5594
C10 C 0.2826(3) 0.15636(17) -0.00209(12)
H18 H 0.3447 0.1536 -0.0428
C11 C 0.1199(3) 0.1883(2) -0.02380(13)
H19 H 0.1491 0.2613 -0.0260
H20 H 0.0502 0.1862 0.0127
H21 H 0.0564 0.1378 -0.0719
C12 C 0.2419(3) 0.04384(18) 0.00212(13)
H22 H 0.3475 0.0251 0.0162
H23 H 0.1790 -0.0076 -0.0458
H24 H 0.1727 0.0412 0.0387
C13 C 0.6709(3) 0.22893(19) 0.02346(14)
H25 H 0.6917 0.1847 0.0537
H26 H 0.7790 0.2749 0.0231
H27 H 0.6152 0.1821 -0.0267
N6 N 0.4277(2) 0.20840(14) 0.19962(10)
C14 C 0.3271(3) 0.16520(19) 0.24624(12)
H28 H 0.4055 0.1414 0.2781
C15 C 0.2639(3) 0.2523(2) 0.29737(14)
H29 H 0.3596 0.3146 0.3246
H30 H 0.2113 0.2238 0.3318
H31 H 0.1802 0.2743 0.2684
C16 C 0.1817(3) 0.0671(2) 0.20286(16)
H32 H 0.2253 0.0124 0.1705
H33 H 0.0976 0.0881 0.1734
H34 H 0.1286 0.0375 0.2367
C17 C 0.6004(3) 0.19285(18) 0.20296(12)
H35 H 0.6554 0.2319 0.1726
C18 C 0.7126(3) 0.2402(2) 0.28045(14)
H36 H 0.7132 0.3161 0.3018
H37 H 0.8284 0.2346 0.2780
H38 H 0.6676 0.2002 0.3110
C19 C 0.5995(3) 0.0746(2) 0.16946(15)
H39 H 0.5281 0.0445 0.1200
H40 H 0.5545 0.0345 0.1999
H41 H 0.7155 0.0690 0.1670
C20 C 0.5709(2) 0.44588(17) 0.23270(11)
H42 H 0.6488 0.4023 0.2296
C21 C 0.6214(2) 0.54582(17) 0.28004(12)
H43 H 0.7333 0.5696 0.3091
C22 C 0.1251(3) 0.43102(18) 0.13509(12)
H44 H 0.1139 0.3560 0.1022
C23 C 0.0092(3) 0.4200(2) 0.18993(13)
H45 H -0.1011 0.4316 0.1716
H46 H -0.0123 0.3452 0.1904
C24 C 0.0783(3) 0.49671(19) 0.26849(12)
H47 H -0.0036 0.4795 0.2984
H48 H 0.1851 0.4817 0.2875
C25 C 0.1137(3) 0.6169(2) 0.28091(13)
H49 H 0.1509 0.6559 0.3343
H50 H 0.0056 0.6326 0.2644
C26 C 0.2470(3) 0.66373(18) 0.24287(12)
H51 H 0.3123 0.7355 0.2790
C27 C 0.1687(3) 0.68590(18) 0.17440(13)
H52 H 0.1279 0.7516 0.1910
H53 H 0.2599 0.7018 0.1483
C28 C 0.0230(3) 0.59682(19) 0.11971(13)
H54 H -0.0703 0.5822 0.1451
H55 H -0.0199 0.6231 0.0804
C29 C 0.0676(3) 0.49152(18) 0.08452(12)
H56 H 0.1589 0.5066 0.0583
H57 H -0.0329 0.4423 0.0472
C30 C 0.4980(3) 0.94945(19) 0.34409(14)
H58 H 0.4789 0.9208 0.2905
H59 H 0.4963 1.0254 0.3598
H60 H 0.4084 0.9086 0.3605
C31 C 0.8118(2) 0.81037(18) 0.30080(12)
H61 H 0.8132 0.7329 0.2875
C32 C 0.9935(3) 0.87718(19) 0.33840(14)
H62 H 1.0274 0.8635 0.3840
H63 H 0.9989 0.9538 0.3494
H64 H 1.0703 0.8569 0.3058
C33 C 0.7557(3) 0.8299(2) 0.22947(13)
H65 H 0.6395 0.7866 0.2062
H66 H 0.8315 0.8093 0.1964
H67 H 0.7601 0.9064 0.2399
C34 C 0.4194(3) 0.5685(2) 0.44644(14)
H68 H 0.4586 0.5095 0.4161
H69 H 0.3367 0.5880 0.4152
H70 H 0.3662 0.5454 0.4828
C35 C 0.5217(3) 0.3694(2) 0.00925(14)
H71 H 0.4484 0.4139 0.0304
H72 H 0.4653 0.3233 -0.0410
H73 H 0.6291 0.4161 0.0088
loop_
_geom_bond_atom_site_label_1
_geom_bond_atom_site_label_2
_geom_bond_site_symmetry_1
_geom_bond_site_symmetry_2
P1 N1 1_555 1_555
P2 N2 1_555 1_555
N1 B1 1_555 1_555
N2 C2 1_555 1_555
C1 H1 1_555 1_555
N3 P1 1_555 1_555
B1 C2 1_555 1_555
C2 H2 1_555 1_555
N4 P2 1_555 1_555
C3 N4 1_555 1_555
H3 C3 1_555 1_555
C4 C3 1_555 1_555
H4 C4 1_555 1_555
H5 C4 1_555 1_555
H6 C4 1_555 1_555
C5 H7 1_555 1_555
H8 C5 1_555 1_555
H9 C5 1_555 1_555
C6 C5 1_555 1_555
H10 C6 1_555 1_555
N5 P2 1_555 1_555
C7 N5 1_555 1_555
H11 C7 1_555 1_555
C8 C7 1_555 1_555
H12 C8 1_555 1_555
H13 C8 1_555 1_555
H14 C8 1_555 1_555
C9 C7 1_555 1_555
H15 C9 1_555 1_555
H16 C9 1_555 1_555
H17 C9 1_555 1_555
C10 N3 1_555 1_555
H18 C10 1_555 1_555
C11 C10 1_555 1_555
H19 C11 1_555 1_555
H20 C11 1_555 1_555
H21 C11 1_555 1_555
C12 C10 1_555 1_555
H22 C12 1_555 1_555
H23 C12 1_555 1_555
H24 C12 1_555 1_555
C13 C1 1_555 1_555
H25 C13 1_555 1_555
H26 C13 1_555 1_555
H27 C13 1_555 1_555
N6 P1 1_555 1_555
C14 N6 1_555 1_555
H28 C14 1_555 1_555
C15 C14 1_555 1_555
H29 C15 1_555 1_555
H30 C15 1_555 1_555
H31 C15 1_555 1_555
C16 C14 1_555 1_555
H32 C16 1_555 1_555
H33 C16 1_555 1_555
H34 C16 1_555 1_555
C17 N6 1_555 1_555
H35 C17 1_555 1_555
C18 C17 1_555 1_555
H36 C18 1_555 1_555
H37 C18 1_555 1_555
H38 C18 1_555 1_555
C19 C17 1_555 1_555
H39 C19 1_555 1_555
H40 C19 1_555 1_555
H41 C19 1_555 1_555
C20 N1 1_555 1_555
H42 C20 1_555 1_555
C21 N2 1_555 1_555
H43 C21 1_555 1_555
C22 B1 1_555 1_555
H44 C22 1_555 1_555
C23 C22 1_555 1_555
H45 C23 1_555 1_555
H46 C23 1_555 1_555
C24 C23 1_555 1_555
H47 C24 1_555 1_555
H48 C24 1_555 1_555
C25 C24 1_555 1_555
H49 C25 1_555 1_555
H50 C25 1_555 1_555
C26 C2 1_555 1_555
H51 C26 1_555 1_555
C27 C26 1_555 1_555
H52 C27 1_555 1_555
H53 C27 1_555 1_555
C28 C27 1_555 1_555
H54 C28 1_555 1_555
H55 C28 1_555 1_555
C29 C22 1_555 1_555
H56 C29 1_555 1_555
H57 C29 1_555 1_555
C30 C3 1_555 1_555
H58 C30 1_555 1_555
H59 C30 1_555 1_555
H60 C30 1_555 1_555
C31 N4 1_555 1_555
H61 C31 1_555 1_555
C32 C31 1_555 1_555
H62 C32 1_555 1_555
H63 C32 1_555 1_555
H64 C32 1_555 1_555
C33 C31 1_555 1_555
H65 C33 1_555 1_555
H66 C33 1_555 1_555
H67 C33 1_555 1_555
C34 C6 1_555 1_555
H68 C34 1_555 1_555
H69 C34 1_555 1_555
H70 C34 1_555 1_555
C35 C1 1_555 1_555
H71 C35 1_555 1_555
H72 C35 1_555 1_555
H73 C35 1_555 1_555
C1 N3 1_555 1_555
C6 N5 1_555 1_555
C20 C21 1_555 1_555
C25 C26 1_555 1_555
C28 C29 1_555 1_555

#END
