
#######################################################################
#
#                 Cambridge Crystallographic Data Centre
#                                CCDC 
#
#######################################################################
#
# If this CIF has been generated from an entry in the Cambridge 
# Structural Database, then it will include bibliographic, chemical, 
# crystal, experimental, refinement or atomic coordinate data resulting 
# from the CCDC's data processing and validation procedures.
#
#######################################################################

data_HIXPAF
_chemical_formula_moiety         'C14 H16 N2 O2 S1'
_chemical_name_systematic        N,N'-Dibenzylsulfamide
_symmetry_cell_setting           monoclinic
_symmetry_space_group_name_H-M   'P 21/c'
_symmetry_Int_Tables_number      14
_space_group_name_Hall           '-P 2ybc'
loop_
_symmetry_equiv_pos_site_id
_symmetry_equiv_pos_as_xyz
1 x,y,z
2 x,1/2-y,1/2+z
3 -x,-y,-z
4 -x,1/2+y,1/2-z
_cell_length_a                   8.2596(2)
_cell_length_b                   5.8721(2)
_cell_length_c                   28.6020(9)
_cell_angle_alpha                90
_cell_angle_beta                 91.4900(10)
_cell_angle_gamma                90
_cell_volume                     1386.76
_exptl_crystal_colour            colorless
_cell_formula_units_Z            4
loop_
_atom_site_label
_atom_site_type_symbol
_atom_site_fract_x
_atom_site_fract_y
_atom_site_fract_z
C1 C 0.7731(3) 0.0261(5) 0.64249(10)
C2 C 0.8568(4) 0.1811(6) 0.61601(11)
H1 H 0.8922(4) 0.3169(6) 0.62949(11)
C3 C 0.8884(5) 0.1364(7) 0.56960(12)
H2 H 0.9447(5) 0.2425(7) 0.55216(12)
C4 C 0.8376(5) -0.0623(8) 0.54930(13)
H3 H 0.8579(5) -0.0912(8) 0.51803(13)
C5 C 0.7561(5) -0.2193(7) 0.57537(13)
H4 H 0.7214(5) -0.3550(7) 0.56164(13)
C6 C 0.7252(4) -0.1775(6) 0.62179(12)
H5 H 0.6720(4) -0.2865(6) 0.63929(12)
C7 C 0.7270(4) 0.0708(5) 0.69205(10)
H6 H 0.6128(4) 0.1089(5) 0.69260(10)
H7 H 0.7434(4) -0.0669(5) 0.71028(10)
N1 N 0.8208(2) 0.2560(4) 0.71370(8)
H8 H 0.9201(2) 0.2766(4) 0.70645(8)
S1 S 0.73822(7) 0.42011(11) 0.75096(2)
O1 O 0.5891(2) 0.4994(3) 0.73040(7)
O2 O 0.8605(2) 0.5805(4) 0.76434(8)
N2 N 0.6890(2) 0.2850(4) 0.79772(7)
H9 H 0.5900(2) 0.2793(4) 0.80627(7)
C8 C 0.8195(4) 0.1716(8) 0.82532(12)
H10 H 0.9016(4) 0.2825(8) 0.83430(12)
H11 H 0.8698(4) 0.0559(8) 0.80635(12)
C9 C 0.7535(3) 0.0646(5) 0.86801(10)
C10 C 0.6761(4) -0.1414(6) 0.86592(13)
H12 H 0.6665(4) -0.2175(6) 0.83746(13)
C11 C 0.6123(5) -0.2376(7) 0.9051(2)
H13 H 0.5594(5) -0.3771(7) 0.9030(2)
C12 C 0.6263(6) -0.1302(10) 0.9467(2)
H14 H 0.5828(6) -0.1962(10) 0.9732(2)
C13 C 0.7021(6) 0.0703(11) 0.95024(14)
H15 H 0.7120(6) 0.1423(11) 0.97913(14)
C14 C 0.7661(5) 0.1712(7) 0.91114(13)
H16 H 0.8179(5) 0.3114(7) 0.91383(13)
loop_
_geom_bond_atom_site_label_1
_geom_bond_atom_site_label_2
_geom_bond_site_symmetry_1
_geom_bond_site_symmetry_2
C1 C2 1_555 1_555
C2 H1 1_555 1_555
C3 C2 1_555 1_555
H2 C3 1_555 1_555
C4 C3 1_555 1_555
H3 C4 1_555 1_555
C5 C4 1_555 1_555
H4 C5 1_555 1_555
C6 C1 1_555 1_555
H5 C6 1_555 1_555
C7 C1 1_555 1_555
H6 C7 1_555 1_555
H7 C7 1_555 1_555
N1 C7 1_555 1_555
H8 N1 1_555 1_555
S1 N1 1_555 1_555
O1 S1 1_555 1_555
O2 S1 1_555 1_555
N2 S1 1_555 1_555
H9 N2 1_555 1_555
C8 N2 1_555 1_555
H10 C8 1_555 1_555
H11 C8 1_555 1_555
C9 C8 1_555 1_555
C10 C9 1_555 1_555
H12 C10 1_555 1_555
C11 C10 1_555 1_555
H13 C11 1_555 1_555
C12 C11 1_555 1_555
H14 C12 1_555 1_555
C13 C12 1_555 1_555
H15 C13 1_555 1_555
C14 C9 1_555 1_555
H16 C14 1_555 1_555
C5 C6 1_555 1_555
C13 C14 1_555 1_555

#END
