
#######################################################################
#
#                 Cambridge Crystallographic Data Centre
#                                CCDC 
#
#######################################################################
#
# If this CIF has been generated from an entry in the Cambridge 
# Structural Database, then it will include bibliographic, chemical, 
# crystal, experimental, refinement or atomic coordinate data resulting 
# from the CCDC's data processing and validation procedures.
#
#######################################################################

data_HIYMUY
_chemical_formula_moiety         'C42 H45 Cl3 N6 O3'
_chemical_name_systematic        
(S,S)-14,29,44-Trichloro-3,10,18,25,33,40-hexaazaheptacyclo[40.3.1.1^12,16^.1^27,31^.0^4,9^.0^19,24^.0^34,39^]octatetraconta-1(46),2,10,12(48),13,15,17,25,27(47),28,30,32,40,42,44-pentadecaene-46,47,48-triol
_symmetry_cell_setting           monoclinic
_symmetry_space_group_name_H-M   'P 21'
_symmetry_Int_Tables_number      4
_space_group_name_Hall           'P 2yb'
loop_
_symmetry_equiv_pos_site_id
_symmetry_equiv_pos_as_xyz
1 x,y,z
2 -x,1/2+y,-z
_cell_length_a                   14.667(2)
_cell_length_b                   18.896(2)
_cell_length_c                   14.907(2)
_cell_angle_alpha                90
_cell_angle_beta                 92.904(3)
_cell_angle_gamma                90
_cell_volume                     4126.13
_exptl_crystal_colour            yellow
_exptl_crystal_description       Block
_cell_formula_units_Z            4
_exptl_crystal_recrystallization_method acetone/hexane
_exptl_crystal_preparation       fluorescent
loop_
_atom_site_label
_atom_site_type_symbol
_atom_site_fract_x
_atom_site_fract_y
_atom_site_fract_z
C1 C 0.3447(4) 0.8734(3) 0.3877(4)
C2 C 0.4387(4) 0.8714(3) 0.3947(3)
C3 C 0.4863(4) 0.9319(3) 0.3760(4)
H1 H 0.5498 0.9315 0.3796
C4 C 0.4402(4) 0.9930(3) 0.3522(4)
C5 C 0.3476(4) 0.9947(3) 0.3469(3)
H2 H 0.3173 1.0363 0.3302
C6 C 0.2984(4) 0.9353(3) 0.3662(4)
C7 C 0.4877(4) 0.8069(3) 0.4249(4)
H3 H 0.4545 0.7654 0.4310
C8 C 0.6130(3) 0.7372(3) 0.4691(4)
H4 H 0.5640 0.7046 0.4838
C9 C 0.6754(3) 0.7483(3) 0.5510(4)
H5 H 0.7220 0.7834 0.5374
C10 C 0.7227(3) 0.6785(3) 0.5792(4)
H6 H 0.7644 0.6869 0.6306
H7 H 0.6772 0.6447 0.5969
C11 C 0.7746(4) 0.6478(3) 0.5036(4)
H8 H 0.8239 0.6795 0.4894
H9 H 0.8011 0.6027 0.5220
C12 C 0.7125(4) 0.6378(3) 0.4233(4)
H10 H 0.6671 0.6023 0.4359
H11 H 0.7471 0.6209 0.3738
C13 C 0.6653(4) 0.7063(3) 0.3969(4)
H12 H 0.7108 0.7402 0.3795
H13 H 0.6242 0.6978 0.3450
C14 C 0.6454(3) 0.8342(3) 0.6595(4)
H14 H 0.6903 0.8606 0.6331
C15 C 0.6014(4) 0.8632(3) 0.7369(4)
C16 C 0.5313(4) 0.8271(3) 0.7763(4)
C17 C 0.4910(4) 0.8545(3) 0.8512(4)
C18 C 0.5248(4) 0.9181(3) 0.8875(4)
H15 H 0.4999 0.9372 0.9384
C19 C 0.5950(4) 0.9524(3) 0.8479(4)
C20 C 0.6323(3) 0.9256(3) 0.7753(4)
H16 H 0.6800 0.9496 0.7501
C21 C 0.4157(4) 0.8175(3) 0.8934(4)
H17 H 0.3948 0.7752 0.8678
C22 C 0.3068(4) 0.7965(3) 0.9970(4)
H18 H 0.2910 0.7591 0.9534
C23 C 0.2233(4) 0.8399(3) 1.0102(4)
H19 H 0.2401 0.8802 1.0489
C24 C 0.1492(4) 0.7975(3) 1.0536(4)
H20 H 0.1277 0.7603 1.0130
H21 H 0.0980 0.8283 1.0646
C25 C 0.1851(4) 0.7645(3) 1.1426(4)
H22 H 0.2001 0.8018 1.1855
H23 H 0.1378 0.7353 1.1668
C26 C 0.2689(4) 0.7199(3) 1.1294(4)
H24 H 0.2932 0.7031 1.1872
H25 H 0.2522 0.6791 1.0928
C27 C 0.3409(4) 0.7617(3) 1.0847(4)
H26 H 0.3914 0.7306 1.0726
H27 H 0.3639 0.7982 1.1257
C28 C 0.1851(3) 0.9326(3) 0.9084(4)
H28 H 0.2082 0.9633 0.9528
C29 C 0.1485(4) 0.9628(3) 0.8242(4)
C30 C 0.1245(3) 0.9203(3) 0.7507(5)
C31 C 0.0925(3) 0.9498(3) 0.6680(4)
C32 C 0.0817(3) 1.0218(3) 0.6632(4)
H29 H 0.0590 1.0423 0.6099
C33 C 0.1045(3) 1.0648(3) 0.7374(5)
C34 C 0.1379(3) 1.0356(3) 0.8148(4)
H30 H 0.1542 1.0649 0.8631
C35 C 0.0643(3) 0.9046(3) 0.5923(5)
H31 H 0.0671 0.8558 0.5996
C36 C 0.0053(4) 0.8789(3) 0.4482(4)
H32 H 0.0205 0.8305 0.4674
C37 C 0.0489(4) 0.8948(3) 0.3621(4)
H33 H 0.0363 0.9444 0.3470
C38 C 0.0124(4) 0.8498(3) 0.2843(4)
H34 H 0.0283 0.8006 0.2955
H35 H 0.0406 0.8644 0.2298
C39 C -0.0906(4) 0.8567(3) 0.2714(4)
H36 H -0.1061 0.9043 0.2514
H37 H -0.1131 0.8239 0.2254
C40 C -0.1359(4) 0.8413(3) 0.3586(5)
H38 H -0.1269 0.7919 0.3740
H39 H -0.2011 0.8495 0.3500
C41 C -0.0985(4) 0.8870(3) 0.4364(4)
H40 H -0.1264 0.8729 0.4913
H41 H -0.1137 0.9362 0.4248
C42 C 0.1992(4) 0.9387(3) 0.3620(4)
H42 H 0.1720 0.9826 0.3515
Cl1 Cl 0.50147(11) 1.06997(8) 0.32821(11)
Cl2 Cl 0.63536(11) 1.03257(8) 0.89264(12)
Cl3 Cl 0.08635(11) 1.15533(8) 0.72810(12)
N1 N 0.5732(3) 0.8054(2) 0.4431(3)
N2 N 0.6240(3) 0.7737(2) 0.6266(3)
N3 N 0.3784(3) 0.8395(2) 0.9615(3)
N4 N 0.1871(3) 0.8664(3) 0.9245(3)
N5 N 0.0365(3) 0.9292(2) 0.5182(4)
N6 N 0.1473(3) 0.8860(2) 0.3718(3)
O1 O 0.2978(2) 0.81344(19) 0.4032(3)
H43 H 0.2433 0.8200 0.3908
O2 O 0.4989(2) 0.76518(18) 0.7439(3)
H44 H 0.5316 0.7509 0.7047
O3 O 0.1306(3) 0.84859(17) 0.7575(3)
H45 H 0.1447 0.8377 0.8096
C43 C 0.5039(3) 0.0901(3) 0.6933(4)
C44 C 0.4362(3) 0.0768(3) 0.7543(4)
C45 C 0.3847(3) 0.0156(3) 0.7431(4)
H46 H 0.3397 0.0055 0.7830
C46 C 0.3993(3) -0.0299(3) 0.6741(4)
C47 C 0.4659(4) -0.0171(3) 0.6158(4)
H47 H 0.4755 -0.0489 0.5696
C48 C 0.5190(3) 0.0428(3) 0.6249(4)
C49 C 0.5887(3) 0.0568(3) 0.5606(4)
H48 H 0.5999 0.0224 0.5178
C50 C 0.7023(4) 0.1232(3) 0.4932(4)
H49 H 0.7040 0.0803 0.4563
C51 C 0.7960(4) 0.1334(3) 0.5408(4)
H50 H 0.7933 0.1734 0.5824
C52 C 0.8686(4) 0.1476(3) 0.4747(4)
H51 H 0.8770 0.1057 0.4385
H52 H 0.9260 0.1579 0.5073
C53 C 0.8423(4) 0.2098(3) 0.4135(4)
H53 H 0.8400 0.2527 0.4490
H54 H 0.8884 0.2160 0.3698
C54 C 0.7508(4) 0.1974(3) 0.3655(4)
H55 H 0.7543 0.1565 0.3265
H56 H 0.7345 0.2382 0.3286
C55 C 0.6782(4) 0.1852(3) 0.4329(4)
H57 H 0.6720 0.2274 0.4691
H58 H 0.6200 0.1763 0.4010
C56 C 0.8383(3) 0.0743(3) 0.6736(4)
H59 H 0.8369 0.1188 0.7001
C57 C 0.8632(3) 0.0139(3) 0.7300(4)
C58 C 0.8901(3) 0.0200(3) 0.8183(4)
C59 C 0.9140(3) -0.0381(3) 0.8735(4)
C60 C 0.9126(3) -0.1051(3) 0.8335(4)
H60 H 0.9296 -0.1449 0.8671
C61 C 0.8866(3) -0.1116(3) 0.7459(5)
C62 C 0.8626(3) -0.0540(3) 0.6933(4)
H61 H 0.8459 -0.0605 0.6328
C63 C 0.9448(3) -0.0299(3) 0.9654(4)
H62 H 0.9586 -0.0701 0.9994
C64 C 0.9890(3) 0.0355(3) 1.0944(4)
H63 H 0.9997 -0.0121 1.1189
C65 C 0.9214(4) 0.0744(3) 1.1506(4)
H64 H 0.9057 0.1202 1.1230
C66 C 0.9606(4) 0.0853(3) 1.2457(4)
H65 H 0.9178 0.1126 1.2793
H66 H 0.9687 0.0397 1.2749
C67 C 1.0507(5) 0.1234(4) 1.2469(5)
H67 H 1.0410 0.1713 1.2249
H68 H 1.0757 0.1263 1.3083
C68 C 1.1163(4) 0.0882(4) 1.1921(5)
H69 H 1.1325 0.0428 1.2189
H70 H 1.1714 0.1165 1.1914
C69 C 1.0793(3) 0.0768(3) 1.0970(4)
H71 H 1.1237 0.0508 1.0639
H72 H 1.0695 0.1223 1.0680
C70 C 0.7630(4) 0.0589(3) 1.1325(4)
H73 H 0.7624 0.1060 1.1145
C71 C 0.6758(4) 0.0208(3) 1.1361(4)
C72 C 0.5946(4) 0.0559(3) 1.1089(4)
C73 C 0.5101(4) 0.0201(3) 1.1085(3)
C74 C 0.5104(4) -0.0510(3) 1.1358(4)
H74 H 0.4558 -0.0760 1.1341
C75 C 0.5892(4) -0.0841(3) 1.1647(4)
C76 C 0.6715(4) -0.0489(3) 1.1625(4)
H75 H 0.7252 -0.0728 1.1791
C77 C 0.4253(4) 0.0548(3) 1.0811(4)
H76 H 0.3709 0.0295 1.0805
C78 C 0.3379(3) 0.1533(3) 1.0331(4)
H77 H 0.2883 0.1187 1.0356
C79 C 0.3403(3) 0.1827(3) 0.9383(4)
H78 H 0.3927 0.2146 0.9353
C80 C 0.2543(3) 0.2236(3) 0.9148(4)
H79 H 0.2023 0.1919 0.9154
H80 H 0.2571 0.2424 0.8544
C81 C 0.2403(4) 0.2844(3) 0.9801(4)
H81 H 0.2893 0.3186 0.9760
H82 H 0.1831 0.3082 0.9645
C82 C 0.2392(4) 0.2564(3) 1.0740(5)
H83 H 0.1850 0.2276 1.0794
H84 H 0.2355 0.2958 1.1153
C83 C 0.3231(3) 0.2122(3) 1.1008(4)
H85 H 0.3157 0.1916 1.1596
H86 H 0.3765 0.2425 1.1048
C84 C 0.4172(4) 0.1276(3) 0.8254(4)
H87 H 0.4578 0.1651 0.8347
Cl4 Cl 0.33268(10) -0.10635(7) 0.65972(12)
Cl5 Cl 0.88683(10) -0.19578(7) 0.69576(12)
Cl6 Cl 0.58657(11) -0.16997(7) 1.20242(12)
N7 N 0.6345(3) 0.1134(2) 0.5604(3)
N8 N 0.8189(3) 0.0694(2) 0.5915(3)
N9 N 0.9541(3) 0.0304(3) 1.0024(3)
N10 N 0.8391(3) 0.0296(2) 1.1532(3)
N11 N 0.4242(3) 0.1189(2) 1.0581(3)
N12 N 0.3510(3) 0.1244(2) 0.8744(3)
O4 O 0.5531(2) 0.15004(19) 0.7035(3)
H88 H 0.5873 0.1538 0.6619
O5 O 0.8923(3) 0.08633(18) 0.8547(3)
H89 H 0.9173 0.0848 0.9052
O6 O 0.5993(2) 0.12423(18) 1.0852(3)
H90 H 0.5475 0.1399 1.0758
loop_
_geom_bond_atom_site_label_1
_geom_bond_atom_site_label_2
_geom_bond_site_symmetry_1
_geom_bond_site_symmetry_2
C1 C2 1_555 1_555
C2 C3 1_555 1_555
C3 H1 1_555 1_555
C4 C3 1_555 1_555
C5 C4 1_555 1_555
H2 C5 1_555 1_555
C6 C1 1_555 1_555
C7 C2 1_555 1_555
H3 C7 1_555 1_555
C8 H4 1_555 1_555
C9 C8 1_555 1_555
H5 C9 1_555 1_555
C10 C9 1_555 1_555
H6 C10 1_555 1_555
H7 C10 1_555 1_555
C11 C10 1_555 1_555
H8 C11 1_555 1_555
H9 C11 1_555 1_555
C12 C11 1_555 1_555
H10 C12 1_555 1_555
H11 C12 1_555 1_555
C13 C8 1_555 1_555
H12 C13 1_555 1_555
H13 C13 1_555 1_555
C14 H14 1_555 1_555
C15 C14 1_555 1_555
C16 C15 1_555 1_555
C17 C16 1_555 1_555
C18 C17 1_555 1_555
H15 C18 1_555 1_555
C19 C18 1_555 1_555
C20 C15 1_555 1_555
H16 C20 1_555 1_555
C21 C17 1_555 1_555
H17 C21 1_555 1_555
C22 H18 1_555 1_555
C23 C22 1_555 1_555
H19 C23 1_555 1_555
C24 C23 1_555 1_555
H20 C24 1_555 1_555
H21 C24 1_555 1_555
C25 C24 1_555 1_555
H22 C25 1_555 1_555
H23 C25 1_555 1_555
C26 C25 1_555 1_555
H24 C26 1_555 1_555
H25 C26 1_555 1_555
C27 C22 1_555 1_555
H26 C27 1_555 1_555
H27 C27 1_555 1_555
C28 H28 1_555 1_555
C29 C28 1_555 1_555
C30 C29 1_555 1_555
C31 C30 1_555 1_555
C32 C31 1_555 1_555
H29 C32 1_555 1_555
C33 C32 1_555 1_555
C34 C29 1_555 1_555
H30 C34 1_555 1_555
C35 C31 1_555 1_555
H31 C35 1_555 1_555
C36 H32 1_555 1_555
C37 C36 1_555 1_555
H33 C37 1_555 1_555
C38 C37 1_555 1_555
H34 C38 1_555 1_555
H35 C38 1_555 1_555
C39 C38 1_555 1_555
H36 C39 1_555 1_555
H37 C39 1_555 1_555
C40 C39 1_555 1_555
H38 C40 1_555 1_555
H39 C40 1_555 1_555
C41 C36 1_555 1_555
H40 C41 1_555 1_555
H41 C41 1_555 1_555
C42 C6 1_555 1_555
H42 C42 1_555 1_555
Cl1 C4 1_555 1_555
Cl2 C19 1_555 1_555
Cl3 C33 1_555 1_555
N1 C7 1_555 1_555
N2 C9 1_555 1_555
N3 C21 1_555 1_555
N4 C23 1_555 1_555
N5 C35 1_555 1_555
N6 C37 1_555 1_555
O1 C1 1_555 1_555
H43 O1 1_555 1_555
O2 C16 1_555 1_555
H44 O2 1_555 1_555
O3 C30 1_555 1_555
H45 O3 1_555 1_555
C43 C44 1_555 1_555
C44 C45 1_555 1_555
C45 H46 1_555 1_555
C46 C45 1_555 1_555
C47 C46 1_555 1_555
H47 C47 1_555 1_555
C48 C43 1_555 1_555
C49 C48 1_555 1_555
H48 C49 1_555 1_555
C50 H49 1_555 1_555
C51 C50 1_555 1_555
H50 C51 1_555 1_555
C52 C51 1_555 1_555
H51 C52 1_555 1_555
H52 C52 1_555 1_555
C53 C52 1_555 1_555
H53 C53 1_555 1_555
H54 C53 1_555 1_555
C54 C53 1_555 1_555
H55 C54 1_555 1_555
H56 C54 1_555 1_555
C55 C50 1_555 1_555
H57 C55 1_555 1_555
H58 C55 1_555 1_555
C56 H59 1_555 1_555
C57 C56 1_555 1_555
C58 C57 1_555 1_555
C59 C58 1_555 1_555
C60 C59 1_555 1_555
H60 C60 1_555 1_555
C61 C60 1_555 1_555
C62 C57 1_555 1_555
H61 C62 1_555 1_555
C63 C59 1_555 1_555
H62 C63 1_555 1_555
C64 H63 1_555 1_555
C65 C64 1_555 1_555
H64 C65 1_555 1_555
C66 C65 1_555 1_555
H65 C66 1_555 1_555
H66 C66 1_555 1_555
C67 C66 1_555 1_555
H67 C67 1_555 1_555
H68 C67 1_555 1_555
C68 C67 1_555 1_555
H69 C68 1_555 1_555
H70 C68 1_555 1_555
C69 C64 1_555 1_555
H71 C69 1_555 1_555
H72 C69 1_555 1_555
C70 H73 1_555 1_555
C71 C70 1_555 1_555
C72 C71 1_555 1_555
C73 C72 1_555 1_555
C74 C73 1_555 1_555
H74 C74 1_555 1_555
C75 C74 1_555 1_555
C76 C71 1_555 1_555
H75 C76 1_555 1_555
C77 C73 1_555 1_555
H76 C77 1_555 1_555
C78 H77 1_555 1_555
C79 C78 1_555 1_555
H78 C79 1_555 1_555
C80 C79 1_555 1_555
H79 C80 1_555 1_555
H80 C80 1_555 1_555
C81 C80 1_555 1_555
H81 C81 1_555 1_555
H82 C81 1_555 1_555
C82 C81 1_555 1_555
H83 C82 1_555 1_555
H84 C82 1_555 1_555
C83 C78 1_555 1_555
H85 C83 1_555 1_555
H86 C83 1_555 1_555
C84 C44 1_555 1_555
H87 C84 1_555 1_555
Cl4 C46 1_555 1_555
Cl5 C61 1_555 1_555
Cl6 C75 1_555 1_555
N7 C49 1_555 1_555
N8 C51 1_555 1_555
N9 C63 1_555 1_555
N10 C65 1_555 1_555
N11 C77 1_555 1_555
N12 C79 1_555 1_555
O4 C43 1_555 1_555
H88 O4 1_555 1_555
O5 C58 1_555 1_555
H89 O5 1_555 1_555
O6 C72 1_555 1_555
H90 O6 1_555 1_555
C5 C6 1_555 1_555
C8 N1 1_555 1_555
C12 C13 1_555 1_555
C14 N2 1_555 1_555
C19 C20 1_555 1_555
C22 N3 1_555 1_555
C26 C27 1_555 1_555
C28 N4 1_555 1_555
C33 C34 1_555 1_555
C36 N5 1_555 1_555
C40 C41 1_555 1_555
C42 N6 1_555 1_555
C47 C48 1_555 1_555
C50 N7 1_555 1_555
C54 C55 1_555 1_555
C56 N8 1_555 1_555
C61 C62 1_555 1_555
C64 N9 1_555 1_555
C68 C69 1_555 1_555
C70 N10 1_555 1_555
C75 C76 1_555 1_555
C78 N11 1_555 1_555
C82 C83 1_555 1_555
C84 N12 1_555 1_555

#END
