
#######################################################################
#
#                 Cambridge Crystallographic Data Centre
#                                CCDC 
#
#######################################################################
#
# If this CIF has been generated from an entry in the Cambridge 
# Structural Database, then it will include bibliographic, chemical, 
# crystal, experimental, refinement or atomic coordinate data resulting 
# from the CCDC's data processing and validation procedures.
#
#######################################################################

data_HIZWAQ
_chemical_formula_moiety         'C20 H15 F5 N2 O3'
_chemical_name_systematic        
't-butyl 3-((pentafluorophenyl)carbamoyl)-1H-indole-1-carboxylate'
_symmetry_cell_setting           rhombohedral
_symmetry_space_group_name_H-M   'R -3'
_symmetry_Int_Tables_number      148
_space_group_name_Hall           '-R 3'
loop_
_symmetry_equiv_pos_site_id
_symmetry_equiv_pos_as_xyz
1 x,y,z
2 -y,x-y,z
3 -x+y,-x,z
4 2/3+x,1/3+y,1/3+z
5 2/3-y,1/3+x-y,1/3+z
6 2/3-x+y,1/3-x,1/3+z
7 1/3+x,2/3+y,2/3+z
8 1/3-y,2/3+x-y,2/3+z
9 1/3-x+y,2/3-x,2/3+z
10 -x,-y,-z
11 y,-x+y,-z
12 x-y,x,-z
13 1/3-x,2/3-y,2/3-z
14 1/3+y,2/3-x+y,2/3-z
15 1/3+x-y,2/3+x,2/3-z
16 2/3-x,1/3-y,1/3-z
17 2/3+y,1/3-x+y,1/3-z
18 2/3+x-y,1/3+x,1/3-z
_cell_length_a                   24.8585(5)
_cell_length_b                   24.8585(5)
_cell_length_c                   16.8633(3)
_cell_angle_alpha                90
_cell_angle_beta                 90
_cell_angle_gamma                120
_cell_volume                     9024.5
_exptl_crystal_colour            colorless
_exptl_crystal_description       needle
_cell_formula_units_Z            18
loop_
_atom_site_label
_atom_site_type_symbol
_atom_site_fract_x
_atom_site_fract_y
_atom_site_fract_z
F1 F 0.40120(10) 0.24899(9) 1.13612(10)
F2 F 0.51985(11) 0.31489(9) 1.18582(9)
O1 O 0.44418(7) 0.17166(7) 0.86463(9)
O2 O 0.49880(8) 0.34715(7) 0.56816(9)
C1 C 0.43146(17) 0.35389(15) 0.43029(19)
H1 H 0.4323 0.3732 0.3800
H2 H 0.4620 0.3848 0.4657
H3 H 0.3905 0.3366 0.4538
C2 C 0.44629(12) 0.30306(11) 0.41694(13)
O3 O 0.43491(7) 0.26616(6) 0.49081(8)
C3 C 0.46327(9) 0.29329(9) 0.55698(12)
N1 N 0.44630(7) 0.24920(7) 0.61785(9)
C4 C 0.46489(9) 0.26816(9) 0.69505(12)
H4 H 0.4900 0.3096 0.7114
C5 C 0.44158(8) 0.21809(9) 0.74368(12)
C6 C 0.45125(9) 0.21800(9) 0.82914(12)
N2 N 0.46862(9) 0.27193(8) 0.86763(10)
H5 H 0.4717 0.3033 0.8409
C7 C 0.48197(10) 0.27941(9) 0.94923(12)
C8 C 0.54216(10) 0.31114(10) 0.97650(14)
C9 C 0.55511(13) 0.32351(11) 1.05576(18)
F3 F 0.61381(8) 0.35706(9) 1.08078(12)
C10 C 0.50728(16) 0.30242(12) 1.10847(14)
C11 C 0.44770(14) 0.26986(11) 1.08369(15)
C12 C 0.43519(10) 0.25875(10) 1.00440(13)
F4 F 0.37628(7) 0.22847(7) 0.98026(10)
F5 F 0.58919(7) 0.33254(8) 0.92499(10)
C13 C 0.40114(17) 0.25449(15) 0.35959(16)
H6 H 0.4108 0.2214 0.3544
H7 H 0.4046 0.2734 0.3082
H8 H 0.3591 0.2376 0.3794
C14 C 0.51287(14) 0.32659(16) 0.39226(18)
H9 H 0.5216 0.2927 0.3937
H10 H 0.5406 0.3590 0.4284
H11 H 0.5192 0.3432 0.3389
C15 C 0.40911(8) 0.18411(8) 0.61666(12)
C16 C 0.40599(8) 0.16366(8) 0.69502(12)
C17 C 0.37092(10) 0.10056(10) 0.71212(15)
H12 H 0.3677 0.0861 0.7644
C18 C 0.34107(11) 0.05993(11) 0.65105(19)
H13 H 0.3171 0.0172 0.6617
C19 C 0.34566(11) 0.08089(11) 0.57386(18)
H14 H 0.3250 0.0518 0.5333
C20 C 0.37939(9) 0.14289(9) 0.55462(14)
H15 H 0.3822 0.1567 0.5021
loop_
_geom_bond_atom_site_label_1
_geom_bond_atom_site_label_2
_geom_bond_site_symmetry_1
_geom_bond_site_symmetry_2
F1 C11 1_555 1_555
F2 C10 1_555 1_555
O1 C6 1_555 1_555
O2 C3 1_555 1_555
C1 H1 1_555 1_555
H2 C1 1_555 1_555
H3 C1 1_555 1_555
C2 C1 1_555 1_555
O3 C2 1_555 1_555
C3 O3 1_555 1_555
N1 C3 1_555 1_555
C4 N1 1_555 1_555
H4 C4 1_555 1_555
C5 C4 1_555 1_555
C6 C5 1_555 1_555
N2 C6 1_555 1_555
H5 N2 1_555 1_555
C7 N2 1_555 1_555
C8 C7 1_555 1_555
C9 C8 1_555 1_555
F3 C9 1_555 1_555
C10 C9 1_555 1_555
C11 C10 1_555 1_555
C12 C7 1_555 1_555
F4 C12 1_555 1_555
F5 C8 1_555 1_555
C13 C2 1_555 1_555
H6 C13 1_555 1_555
H7 C13 1_555 1_555
H8 C13 1_555 1_555
C14 C2 1_555 1_555
H9 C14 1_555 1_555
H10 C14 1_555 1_555
H11 C14 1_555 1_555
C15 N1 1_555 1_555
C16 C5 1_555 1_555
C17 C16 1_555 1_555
H12 C17 1_555 1_555
C18 C17 1_555 1_555
H13 C18 1_555 1_555
C19 C18 1_555 1_555
H14 C19 1_555 1_555
C20 C15 1_555 1_555
H15 C20 1_555 1_555
C11 C12 1_555 1_555
C15 C16 1_555 1_555
C19 C20 1_555 1_555

#END
