
#######################################################################
#
#                 Cambridge Crystallographic Data Centre
#                                CCDC 
#
#######################################################################
#
# If this CIF has been generated from an entry in the Cambridge 
# Structural Database, then it will include bibliographic, chemical, 
# crystal, experimental, refinement or atomic coordinate data resulting 
# from the CCDC's data processing and validation procedures.
#
#######################################################################

data_HMDNOA
_chemical_formula_moiety         'C13 H18 O3'
_chemical_name_systematic        
endo-1,3,5,6,7,9-Hexamethyl-4,8-dioxatetracyclo(4.3.0.0^3,5^.0^7,9^)nonan-2-one
_symmetry_cell_setting           orthorhombic
_symmetry_space_group_name_H-M   'P 21 21 21'
_symmetry_Int_Tables_number      19
_space_group_name_Hall           'P 2ac 2ab'
loop_
_symmetry_equiv_pos_site_id
_symmetry_equiv_pos_as_xyz
1 x,y,z
2 1/2+x,1/2-y,-z
3 -x,1/2+y,1/2-z
4 1/2-x,-y,1/2+z
_cell_length_a                   13.111(6)
_cell_length_b                   11.738(3)
_cell_length_c                   8.110(4)
_cell_angle_alpha                90
_cell_angle_beta                 90
_cell_angle_gamma                90
_cell_volume                     1248.1
_chemical_melting_point          86-7deg.C
_cell_formula_units_Z            4
loop_
_atom_site_label
_atom_site_type_symbol
_atom_site_fract_x
_atom_site_fract_y
_atom_site_fract_z
C1 C 0.67660 0.32310 1.19700
C2 C 0.74160 0.21670 1.19160
C3 C 0.69810 0.13370 1.07290
O1 O 0.70020 0.19240 0.91390
C4 C 0.60420 0.18340 1.00340
C5 C 0.58100 0.29800 1.08410
C6 C 0.51760 0.28800 1.24190
O2 O 0.52710 0.39910 1.31860
C7 C 0.60530 0.31460 1.34610
C8 C 0.73830 0.43120 1.17790
O3 O 0.81790 0.20140 1.27260
C9 C 0.72730 0.01030 1.07540
C10 C 0.52430 0.11600 0.91860
C11 C 0.54730 0.38740 0.96080
C12 C 0.42300 0.22200 1.27700
C13 C 0.63080 0.28650 1.51980
H1 H 0.77200 0.44700 1.05900
H2 H 0.79000 0.43300 1.25300
H3 H 0.70100 0.50000 1.20300
H4 H 0.71400 -0.01800 1.17400
H5 H 0.79900 0.00100 1.07300
H6 H 0.68900 -0.03600 0.98700
H7 H 0.47600 0.08200 0.99400
H8 H 0.55500 0.05100 0.85800
H9 H 0.48300 0.16000 0.83500
H10 H 0.60000 0.40200 0.88300
H11 H 0.53000 0.46200 1.02200
H12 H 0.48400 0.36500 0.91300
H13 H 0.44000 0.14200 1.25000
H14 H 0.36900 0.24400 1.21600
H15 H 0.39900 0.22700 1.38900
H16 H 0.67300 0.33800 1.56500
H17 H 0.65800 0.21500 1.53300
H18 H 0.57000 0.27500 1.57200
loop_
_geom_bond_atom_site_label_1
_geom_bond_atom_site_label_2
_geom_bond_site_symmetry_1
_geom_bond_site_symmetry_2
C1 C2 1_555 1_555
C2 C3 1_555 1_555
C3 O1 1_555 1_555
O1 C4 1_555 1_555
C4 C3 1_555 1_555
C5 C1 1_555 1_555
C6 C5 1_555 1_555
O2 C6 1_555 1_555
C7 C1 1_555 1_555
C8 C1 1_555 1_555
O3 C2 1_555 1_555
C9 C3 1_555 1_555
C10 C4 1_555 1_555
C11 C5 1_555 1_555
C12 C6 1_555 1_555
C13 C7 1_555 1_555
H1 C8 1_555 1_555
H2 C8 1_555 1_555
H3 C8 1_555 1_555
H4 C9 1_555 1_555
H5 C9 1_555 1_555
H6 C9 1_555 1_555
H7 C10 1_555 1_555
H8 C10 1_555 1_555
H9 C10 1_555 1_555
H10 C11 1_555 1_555
H11 C11 1_555 1_555
H12 C11 1_555 1_555
H13 C12 1_555 1_555
H14 C12 1_555 1_555
H15 C12 1_555 1_555
H16 C13 1_555 1_555
H17 C13 1_555 1_555
H18 C13 1_555 1_555
C4 C5 1_555 1_555
C6 C7 1_555 1_555
O2 C7 1_555 1_555

#END
