
#######################################################################
#
#                 Cambridge Crystallographic Data Centre
#                                CCDC 
#
#######################################################################
#
# If this CIF has been generated from an entry in the Cambridge 
# Structural Database, then it will include bibliographic, chemical, 
# crystal, experimental, refinement or atomic coordinate data resulting 
# from the CCDC's data processing and validation procedures.
#
#######################################################################

data_HMNCXB
_chemical_formula_moiety         'C14 H16 O3'
_chemical_name_systematic        
'1,2,3,4,4a,5,6,7,8,8a-Decahydro-1,4:5,8-exo,endo-dimethano-naphthalene-4a,8a-dicarboxylic anhydride'
_symmetry_cell_setting           monoclinic
_symmetry_space_group_name_H-M   'P n'
_symmetry_Int_Tables_number      7
_space_group_name_Hall           'P -2yac'
loop_
_symmetry_equiv_pos_site_id
_symmetry_equiv_pos_as_xyz
1 x,y,z
2 1/2+x,-y,1/2+z
_cell_length_a                   10.706(3)
_cell_length_b                   7.259(2)
_cell_length_c                   7.394(2)
_cell_angle_alpha                90
_cell_angle_beta                 93.12(2)
_cell_angle_gamma                90
_cell_volume                     573.772
_chemical_melting_point          190-3deg.C
_cell_formula_units_Z            2
loop_
_atom_site_label
_atom_site_type_symbol
_atom_site_fract_x
_atom_site_fract_y
_atom_site_fract_z
C1 C 0.19120 0.51300 0.33170
C2 C 0.05440 0.47430 0.27430
C3 C -0.01810 0.63750 0.35040
C4 C 0.08690 0.74960 0.44890
C5 C 0.17210 0.84500 0.31290
C6 C 0.12020 0.95120 0.14340
C7 C 0.23190 1.04470 0.05600
C8 C 0.30440 0.87940 -0.02440
C9 C 0.22750 0.71370 0.02400
C10 C 0.24380 0.68190 0.23320
C11 C 0.09410 0.79500 0.00460
C12 C 0.17500 0.59510 0.52120
C13 C 0.37700 0.71050 0.30410
C14 C 0.27040 0.95200 0.42160
O1 O 0.38700 0.87230 0.40410
O2 O 0.46650 0.61530 0.28760
O3 O 0.26010 1.08270 0.51630
loop_
_geom_bond_atom_site_label_1
_geom_bond_atom_site_label_2
_geom_bond_site_symmetry_1
_geom_bond_site_symmetry_2
C1 C2 1_555 1_555
C2 C3 1_555 1_555
C3 C4 1_555 1_555
C4 C5 1_555 1_555
C5 C6 1_555 1_555
C6 C7 1_555 1_555
C7 C8 1_555 1_555
C8 C9 1_555 1_555
C9 C10 1_555 1_555
C10 C1 1_555 1_555
C11 C6 1_555 1_555
C12 C1 1_555 1_555
C13 C10 1_555 1_555
C14 C5 1_555 1_555
O1 C13 1_555 1_555
O2 C13 1_555 1_555
O3 C14 1_555 1_555
C4 C12 1_555 1_555
C5 C10 1_555 1_555
C9 C11 1_555 1_555
C14 O1 1_555 1_555

#END
