
#######################################################################
#
#                 Cambridge Crystallographic Data Centre
#                                CCDC 
#
#######################################################################
#
# If this CIF has been generated from an entry in the Cambridge 
# Structural Database, then it will include bibliographic, chemical, 
# crystal, experimental, refinement or atomic coordinate data resulting 
# from the CCDC's data processing and validation procedures.
#
#######################################################################

data_HMOZST01
_chemical_formula_moiety         'C19 H19 Br1 N2 O7,C1 H1 Cl3'
_chemical_name_systematic        
'3-Hydroxy-3-methyl-12-methylene-4-(p-bromobenzoyloxy)-trans-1,9-dioxa-6,13-diazadispiro(4.2.4.2)tetradeca-7,14-dione chloroform solvate'
_symmetry_cell_setting           triclinic
_symmetry_space_group_name_H-M   'P 1'
_symmetry_Int_Tables_number      1
_space_group_name_Hall           'P 1'
loop_
_symmetry_equiv_pos_site_id
_symmetry_equiv_pos_as_xyz
1 x,y,z
_cell_length_a                   6.077(1)
_cell_length_b                   10.039(2)
_cell_length_c                   11.403(2)
_cell_angle_alpha                114.62(1)
_cell_angle_beta                 97.05(1)
_cell_angle_gamma                102.22(1)
_cell_volume                     600.424
_exptl_crystal_colour            colorless
_exptl_crystal_description       parallelepiped
_chemical_melting_point          215-218deg.C
_cell_formula_units_Z            1
loop_
_atom_site_label
_atom_site_type_symbol
_atom_site_fract_x
_atom_site_fract_y
_atom_site_fract_z
Br1 Br 0.1000 0.4000 0.9500
N1 N 0.4620(6) 0.3806(4) 0.2621(4)
C1 C 0.5437(7) 0.5325(5) 0.3252(4)
O1 O 0.4226(5) 0.6164(4) 0.3669(4)
C2 C 0.8042(8) 0.6062(5) 0.3468(5)
O2 O 0.8902(5) 0.7166(3) 0.4815(3)
N2 N 0.9331(7) 0.4938(5) 0.3226(5)
C3 C 0.8528(7) 0.3437(5) 0.2610(4)
O3 O 0.9795(5) 0.2608(3) 0.2401(3)
C4 C 0.5886(7) 0.2698(5) 0.2138(4)
O4 O 0.5437(5) 0.1976(3) 0.0728(3)
C5 C 0.5067(7) 0.1366(5) 0.2453(4)
O5 O 0.4180(6) 0.1857(4) 0.3622(3)
C6 C 0.3175(7) 0.0103(5) 0.1199(5)
O6 O 0.0926(6) -0.0219(4) 0.1428(4)
C7 C 0.3246(8) 0.0820(5) 0.0243(5)
C8 C 0.3769(10) -0.1390(6) 0.0682(6)
C9 C 0.9612(12) 0.8645(7) 0.4910(6)
C10 C 0.9887(13) 0.8516(7) 0.3647(6)
C11 C 0.8483(8) 0.6933(6) 0.2654(5)
C12 C 0.7767(9) 0.6351(7) 0.1380(5)
C13 C 0.5067(8) 0.1622(6) 0.4620(5)
O7 O 0.6532(8) 0.0981(6) 0.4565(4)
C14 C 0.4037(9) 0.2200(6) 0.5774(5)
C15 C 0.2216(9) 0.2848(6) 0.5760(5)
C16 C 0.1311(9) 0.3380(6) 0.6870(5)
C17 C 0.2248(9) 0.3248(6) 0.7976(5)
C18 C 0.4034(9) 0.2618(6) 0.8009(5)
C19 C 0.4922(9) 0.2091(6) 0.6905(5)
H1 H 0.3050 0.3431 0.2624
H2 H 1.0971 0.5301 0.3531
H3 H 0.6359 0.0958 0.2645
H4 H 0.0611(95) 0.0651(62) 0.1759(55)
H5 H 0.1949 0.1287 0.0240
H6 H 0.3120 0.0025 -0.0677
H7 H 0.5349 -0.1225 0.0503
H8 H 0.2605 -0.2156 -0.0159
H9 H 0.3746 -0.1780 0.1358
H10 H 0.8413 0.9180 0.5185
H11 H 1.1121 0.9242 0.5583
H12 H 0.9307 0.9289 0.3467
H13 H 1.1556 0.8673 0.3616
H14 H 0.6779 0.5331 0.0889
H15 H 0.8197 0.6949 0.0937
H16 H 0.1568 0.2927 0.4949
H17 H 0.0013 0.3848 0.6874
H18 H 0.4679 0.2544 0.8822
H19 H 0.6220 0.1624 0.6914
Cl1 Cl 0.7523(3) 0.9535(2) 0.8123(2)
Cl2 Cl 0.3167(3) 0.7165(2) 0.6825(2)
Cl3 Cl 0.7200(3) 0.6483(2) 0.7765(2)
C20 C 0.6171(9) 0.7561(6) 0.7064(5)
H20 H 0.6551 0.7278 0.6179
loop_
_geom_bond_atom_site_label_1
_geom_bond_atom_site_label_2
_geom_bond_site_symmetry_1
_geom_bond_site_symmetry_2
Br1 C17 1_555 1_555
Cl1 C20 1_555 1_555
Cl2 C20 1_555 1_555
Cl3 C20 1_555 1_555
N1 C1 1_555 1_555
C1 O1 1_555 1_555
C2 C1 1_555 1_555
O2 C2 1_555 1_555
N2 C2 1_555 1_555
C3 N2 1_555 1_555
O3 C3 1_555 1_555
C4 N1 1_555 1_555
O4 C4 1_555 1_555
C5 C4 1_555 1_555
O5 C5 1_555 1_555
C6 C5 1_555 1_555
O6 C6 1_555 1_555
C7 O4 1_555 1_555
C8 C6 1_555 1_555
C9 O2 1_555 1_555
C10 C9 1_555 1_555
C11 C2 1_555 1_555
C12 C11 1_555 1_555
C13 O5 1_555 1_555
O7 C13 1_555 1_555
C14 C13 1_555 1_555
C15 C14 1_555 1_555
C16 C15 1_555 1_555
C17 C16 1_555 1_555
C18 C17 1_555 1_555
C19 C14 1_555 1_555
C20 H20 1_555 1_555
H1 N1 1_555 1_555
H2 N2 1_555 1_555
H3 C5 1_555 1_555
H4 O6 1_555 1_555
H5 C7 1_555 1_555
H6 C7 1_555 1_555
H7 C8 1_555 1_555
H8 C8 1_555 1_555
H9 C8 1_555 1_555
H10 C9 1_555 1_555
H11 C9 1_555 1_555
H12 C10 1_555 1_555
H13 C10 1_555 1_555
H14 C12 1_555 1_555
H15 C12 1_555 1_555
H16 C15 1_555 1_555
H17 C16 1_555 1_555
H18 C18 1_555 1_555
H19 C19 1_555 1_555
C3 C4 1_555 1_555
C6 C7 1_555 1_555
C10 C11 1_555 1_555
C18 C19 1_555 1_555

#END
