
#######################################################################
#
#                 Cambridge Crystallographic Data Centre
#                                CCDC 
#
#######################################################################
#
# If this CIF has been generated from an entry in the Cambridge 
# Structural Database, then it will include bibliographic, chemical, 
# crystal, experimental, refinement or atomic coordinate data resulting 
# from the CCDC's data processing and validation procedures.
#
#######################################################################

data_HOBMUG
_chemical_formula_moiety         'C10 H4 S4 Se2 1+,C12 H4 N4 1-'
_chemical_name_systematic        
"\D^2,2'^-Biselenolo[2,3-d]-1,3-dithiole tetracyanoquinodimethanide"
_symmetry_cell_setting           monoclinic
_symmetry_space_group_name_H-M   'C 2/m'
_symmetry_Int_Tables_number      12
_space_group_name_Hall           '-C 2y'
loop_
_symmetry_equiv_pos_site_id
_symmetry_equiv_pos_as_xyz
1 x,y,z
2 -x,y,-z
3 1/2+x,1/2+y,z
4 1/2-x,1/2+y,-z
5 -x,-y,-z
6 x,-y,z
7 1/2-x,1/2-y,-z
8 1/2+x,1/2-y,z
_cell_length_a                   10.33(2)
_cell_length_b                   12.31(3)
_cell_length_c                   8.95(2)
_cell_angle_alpha                90
_cell_angle_beta                 108.4(1)
_cell_angle_gamma                90
_cell_volume                     1079.92
_cell_formula_units_Z            2
loop_
_atom_site_label
_atom_site_type_symbol
_atom_site_fract_x
_atom_site_fract_y
_atom_site_fract_z
N1 N 0.171(2) 0.175(1) -0.811(2)
C4 C 0.388(2) 0.0000 -0.941(2)
C5 C 0.445(1) -0.0998(9) -0.970(1)
C6 C 0.281(2) 0.0000 -0.876(2)
C7 C 0.222(2) 0.093(1) -0.846(2)
C5A C 0.555(1) -0.0998(9) -1.030(1)
C4A C 0.612(2) 0.0000 -1.059(2)
C5D C 0.555(1) 0.0998(9) -1.030(1)
C5E C 0.445(1) 0.0998(9) -0.970(1)
C6A C 0.719(2) 0.0000 -1.124(2)
C7A C 0.778(2) 0.093(1) -1.154(2)
N1A N 0.829(2) 0.175(1) -1.189(2)
C7D C 0.778(2) -0.093(1) -1.154(2)
N1D N 0.829(2) -0.175(1) -1.189(2)
C7E C 0.222(2) -0.093(1) -0.846(2)
N1E N 0.171(2) -0.175(1) -0.811(2)
Se1 Se 0.1237(3) 0.1216(3) -0.2914(3)
S1 S 0.3820(4) 0.1191(3) -0.4181(4)
C1 C 0.449(2) 0.0000 -0.463(2)
C2 C 0.256(1) 0.057(1) -0.360(2)
C3 C 0.073(2) 0.0000 -0.287(2)
S1E S 0.3820(4) -0.1191(3) -0.4181(4)
C2E C 0.256(1) -0.057(1) -0.360(2)
Se1E Se 0.1237(3) -0.1216(3) -0.2914(3)
C1A C 0.551(2) 0.0000 -0.537(2)
S1A S 0.6180(4) 0.1191(3) -0.5819(4)
C2A C 0.744(1) 0.057(1) -0.640(2)
Se1A Se 0.8763(3) 0.1216(3) -0.7086(3)
C3A C 0.927(2) 0.0000 -0.713(2)
Se1D Se 0.8763(3) -0.1216(3) -0.7086(3)
C2D C 0.744(1) -0.057(1) -0.640(2)
S1D S 0.6180(4) -0.1191(3) -0.5819(4)
loop_
_geom_bond_atom_site_label_1
_geom_bond_atom_site_label_2
_geom_bond_site_symmetry_1
_geom_bond_site_symmetry_2
Se1 C2 1_555 1_555
S1 C1 1_555 1_555
N1 C7 1_555 1_555
C1 S1E 1_555 1_555
C2 S1 1_555 1_555
C3 Se1 1_555 1_555
C4 C5 1_555 1_555
C5 C5A 1_555 1_555
C6 C4 1_555 1_555
C7 C6 1_555 1_555
S1E C2E 1_555 1_555
C2E C2 1_555 1_555
Se1E C3 1_555 1_555
C1A C1 1_555 1_555
S1A C1A 1_555 1_555
C2A S1A 1_555 1_555
Se1A C2A 1_555 1_555
C3A Se1A 1_555 1_555
Se1D C3A 1_555 1_555
C2D C2A 1_555 1_555
S1D C1A 1_555 1_555
C5A C4A 1_555 1_555
C4A C5D 1_555 1_555
C5D C5E 1_555 1_555
C5E C4 1_555 1_555
C6A C4A 1_555 1_555
C7A C6A 1_555 1_555
N1A C7A 1_555 1_555
C7D C6A 1_555 1_555
N1D C7D 1_555 1_555
C7E C6 1_555 1_555
N1E C7E 1_555 1_555
C2E Se1E 1_555 1_555
Se1D C2D 1_555 1_555
C2D S1D 1_555 1_555

#END
