
#######################################################################
#
#                 Cambridge Crystallographic Data Centre
#                                CCDC 
#
#######################################################################
#
# If this CIF has been generated from an entry in the Cambridge 
# Structural Database, then it will include bibliographic, chemical, 
# crystal, experimental, refinement or atomic coordinate data resulting 
# from the CCDC's data processing and validation procedures.
#
#######################################################################

data_HOCDIM
_chemical_formula_moiety         'C11 H12 Cl1 N1 O1 Se1'
_chemical_name_systematic        
'(2-(4,4-Dimethyl-2-oxazolinyl)phenyl)selanyl chloride'
_symmetry_cell_setting           monoclinic
_symmetry_space_group_name_H-M   'P 21/n'
_symmetry_Int_Tables_number      14
_space_group_name_Hall           '-P 2yn'
loop_
_symmetry_equiv_pos_site_id
_symmetry_equiv_pos_as_xyz
1 x,y,z
2 1/2+x,1/2-y,1/2+z
3 -x,-y,-z
4 1/2-x,1/2+y,1/2-z
_cell_length_a                   11.195(2)
_cell_length_b                   9.3192(13)
_cell_length_c                   12.2776(15)
_cell_angle_alpha                90
_cell_angle_beta                 114.158(8)
_cell_angle_gamma                90
_cell_volume                     1168.72
_exptl_crystal_colour            colorless
_exptl_crystal_description       prism
_chemical_melting_point          '186-188 deg.C'
_cell_formula_units_Z            4
_exptl_crystal_recrystallization_method methanol/hexane
loop_
_atom_site_label
_atom_site_type_symbol
_atom_site_fract_x
_atom_site_fract_y
_atom_site_fract_z
Se1 Se 0.32882(3) 0.43829(3) 0.02348(2)
Cl1 Cl 0.46060(9) 0.65709(9) 0.10825(8)
O1 O 0.0399(2) 0.1431(2) -0.0332(2)
N1 N 0.2109(2) 0.2615(2) -0.0380(2)
C1 C 0.2149(3) 0.4700(3) 0.1032(2)
C2 C 0.2214(3) 0.5844(3) 0.1785(2)
H1 H 0.2831(28) 0.6576(31) 0.1901(24)
C3 C 0.1321(3) 0.5911(3) 0.2305(3)
H2 H 0.1339(30) 0.6708(34) 0.2836(26)
C4 C 0.0373(3) 0.4854(4) 0.2100(3)
H3 H -0.0172(31) 0.4884(35) 0.2439(27)
C5 C 0.0293(3) 0.3725(3) 0.1353(3)
H4 H -0.0361(29) 0.3104(31) 0.1164(24)
C6 C 0.1179(3) 0.3645(3) 0.0821(2)
C7 C 0.1216(3) 0.2542(3) 0.0019(2)
C8 C 0.0768(5) 0.0635(4) -0.1178(4)
H5 H -0.0129(57) 0.0724(52) -0.2194(53)
H6 H 0.0906(38) -0.0223(45) -0.0909(36)
C9 C 0.2016(3) 0.1361(3) -0.1166(3)
C10 C 0.3256(5) 0.0452(4) -0.0585(4)
H7 H 0.4037(52) 0.1066(56) -0.0540(44)
H8 H 0.3138(36) -0.0364(43) -0.1103(34)
H9 H 0.3182(40) -0.0059(61) 0.0116(39)
C11 C 0.1835(4) 0.1860(4) -0.2392(3)
H10 H 0.2694(36) 0.2350(38) -0.2311(29)
H11 H 0.1023(38) 0.2506(37) -0.2750(31)
H12 H 0.1739(39) 0.1109(46) -0.2896(37)
loop_
_geom_bond_atom_site_label_1
_geom_bond_atom_site_label_2
_geom_bond_site_symmetry_1
_geom_bond_site_symmetry_2
Se1 Cl1 1_555 1_555
O1 C7 1_555 1_555
N1 Se1 1_555 1_555
C1 Se1 1_555 1_555
C2 C1 1_555 1_555
H1 C2 1_555 1_555
C3 C2 1_555 1_555
H2 C3 1_555 1_555
C4 C3 1_555 1_555
H3 C4 1_555 1_555
C5 C4 1_555 1_555
H4 C5 1_555 1_555
C6 C1 1_555 1_555
C7 N1 1_555 1_555
C8 O1 1_555 1_555
H5 C8 1_555 1_555
H6 C8 1_555 1_555
C9 N1 1_555 1_555
C10 C9 1_555 1_555
H7 C10 1_555 1_555
H8 C10 1_555 1_555
H9 C10 1_555 1_555
C11 C9 1_555 1_555
H10 C11 1_555 1_555
H11 C11 1_555 1_555
H12 C11 1_555 1_555
C5 C6 1_555 1_555
C6 C7 1_555 1_555
C8 C9 1_555 1_555

#END
