
#######################################################################
#
#                 Cambridge Crystallographic Data Centre
#                                CCDC 
#
#######################################################################
#
# If this CIF has been generated from an entry in the Cambridge 
# Structural Database, then it will include bibliographic, chemical, 
# crystal, experimental, refinement or atomic coordinate data resulting 
# from the CCDC's data processing and validation procedures.
#
#######################################################################

data_HOCGEN
_chemical_formula_moiety         'C80 H90 Ca2 N2 O8 P4 Se2,2(C7 H8)'
_chemical_name_systematic        
'bis(\m~2~-diphenylphosphinato)-bis((2,6-dimethylphenyl)(diphenylphosphoroselenoyl)amido)-tetrakis(tetrahydrofuran)-di-calcium toluene solvate'
_symmetry_cell_setting           monoclinic
_symmetry_space_group_name_H-M   'P 21/c'
_symmetry_Int_Tables_number      14
_space_group_name_Hall           '-P 2ybc'
loop_
_symmetry_equiv_pos_site_id
_symmetry_equiv_pos_as_xyz
1 x,y,z
2 -x,1/2+y,1/2-z
3 -x,-y,-z
4 x,1/2-y,1/2+z
_cell_length_a                   18.2918(4)
_cell_length_b                   17.1014(3)
_cell_length_c                   15.1820(3)
_cell_angle_alpha                90
_cell_angle_beta                 94.399(2)
_cell_angle_gamma                90
_cell_volume                     4735.17
_exptl_crystal_colour            colorless
_exptl_crystal_description       plates
_cell_formula_units_Z            2
loop_
_atom_site_label
_atom_site_type_symbol
_atom_site_fract_x
_atom_site_fract_y
_atom_site_fract_z
C1 C 0.4528(2) 0.0549(2) 0.2394(3)
C2 C 0.3831(2) 0.0244(3) 0.2500(3)
H1 H 0.3512 0.0144 0.2006
C3 C 0.3614(3) 0.0092(3) 0.3338(3)
H2 H 0.3154 -0.0124 0.3403
C4 C 0.4077(3) 0.0259(3) 0.4077(3)
H3 H 0.3926 0.0164 0.4638
C5 C 0.4768(3) 0.0568(3) 0.3980(3)
H4 H 0.5080 0.0681 0.4476
C6 C 0.4991(2) 0.0710(2) 0.3146(3)
H5 H 0.5455 0.0915 0.3085
C7 C 0.4654(2) 0.1815(2) 0.1192(2)
C8 C 0.3945(3) 0.2102(3) 0.1142(3)
H6 H 0.3548 0.1763 0.1134
C9 C 0.3834(3) 0.2913(3) 0.1103(4)
H7 H 0.3360 0.3112 0.1073
C10 C 0.4419(3) 0.3414(3) 0.1108(3)
H8 H 0.4340 0.3951 0.1083
C11 C 0.5118(3) 0.3125(3) 0.1149(3)
H9 H 0.5513 0.3468 0.1151
C12 C 0.5242(3) 0.2327(3) 0.1187(3)
H10 H 0.5718 0.2135 0.1210
C13 C 0.1716(2) -0.0802(3) 0.1337(3)
C14 C 0.1759(3) -0.0306(3) 0.2056(3)
H11 H 0.1948 0.0194 0.2001
C15 C 0.1521(3) -0.0548(5) 0.2863(4)
H12 H 0.1540 -0.0211 0.3345
C16 C 0.1255(4) -0.1305(5) 0.2931(5)
H13 H 0.1105 -0.1479 0.3469
C17 C 0.1211(4) -0.1791(5) 0.2226(5)
H14 H 0.1026 -0.2294 0.2282
C18 C 0.1435(3) -0.1549(3) 0.1432(4)
H15 H 0.1399 -0.1887 0.0951
C19 C 0.1196(2) -0.0653(3) -0.0465(3)
C20 C 0.0732(3) -0.0038(3) -0.0717(3)
H16 H 0.0842 0.0466 -0.0516
C21 C 0.0100(3) -0.0174(4) -0.1272(4)
H17 H -0.0207 0.0241 -0.1445
C22 C -0.0072(3) -0.0917(4) -0.1563(4)
H18 H -0.0495 -0.1004 -0.1929
C23 C 0.0379(3) -0.1529(4) -0.1315(5)
H19 H 0.0259 -0.2029 -0.1518
C24 C 0.1018(3) -0.1412(3) -0.0760(4)
H20 H 0.1320 -0.1832 -0.0591
C25 C 0.2860(2) -0.1732(3) 0.0003(3)
C26 C 0.3130(2) -0.2121(3) 0.0792(3)
C27 C 0.3240(3) -0.2931(3) 0.0797(4)
H21 H 0.3407 -0.3176 0.1322
C28 C 0.3108(3) -0.3375(3) 0.0044(4)
H22 H 0.3167 -0.3915 0.0065
C29 C 0.2888(3) -0.3009(3) -0.0742(4)
H23 H 0.2813 -0.3306 -0.1255
C30 C 0.2775(3) -0.2203(3) -0.0784(3)
C31 C 0.2610(3) -0.1811(3) -0.1657(3)
H24 H 0.2200 -0.1465 -0.1623
H25 H 0.2494 -0.2200 -0.2103
H26 H 0.3030 -0.1518 -0.1807
C32 C 0.3355(3) -0.1655(3) 0.1603(3)
H27 H 0.3245 -0.1113 0.1495
H28 H 0.3872 -0.1716 0.1748
H29 H 0.3092 -0.1837 0.2087
C33 C 0.2082(3) 0.0387(4) -0.2213(3)
H30 H 0.1928 0.0789 -0.1815
H31 H 0.1758 -0.0060 -0.2183
C34 C 0.2073(4) 0.0695(4) -0.3148(4)
H32 H 0.1593 0.0633 -0.3458
H33 H 0.2213 0.1242 -0.3155
C35 C 0.2633(4) 0.0189(4) -0.3545(4)
H34 H 0.2845 0.0453 -0.4031
H35 H 0.2420 -0.0302 -0.3755
C36 C 0.3201(3) 0.0060(3) -0.2777(3)
H36 H 0.3404 -0.0463 -0.2800
H37 H 0.3597 0.0435 -0.2799
C37 C 0.4705(3) 0.1439(3) -0.1254(3)
H38 H 0.4861 0.1168 -0.1769
H39 H 0.5022 0.1283 -0.0742
C38 C 0.4739(3) 0.2319(3) -0.1386(4)
H40 H 0.5065 0.2557 -0.0928
H41 H 0.4916 0.2441 -0.1956
C39 C 0.3969(3) 0.2611(3) -0.1337(4)
H42 H 0.3914 0.2863 -0.0773
H43 H 0.3842 0.2982 -0.1807
C40 C 0.3498(3) 0.1899(3) -0.1437(4)
H44 H 0.3076 0.1948 -0.1091
H45 H 0.3327 0.1822 -0.2051
Ca1 Ca 0.35622(4) 0.00493(4) -0.05535(5)
N1 N 0.27350(19) -0.0947(2) -0.0029(2)
O1 O 0.43041(15) 0.03330(16) 0.06484(17)
O2 O 0.56212(16) 0.06311(16) 0.12907(18)
O3 O 0.28318(17) 0.01630(19) -0.1985(2)
O4 O 0.39514(18) 0.12584(18) -0.1124(2)
P1 P 0.48093(6) 0.07665(5) 0.13016(6)
P2 P 0.20280(6) -0.04850(6) 0.02685(7)
Se1 Se 0.22645(2) 0.07474(3) 0.02983(3)
C1B C 0.5472(2) -0.0549(2) -0.2394(3)
C2B C 0.6169(2) -0.0244(3) -0.2500(3)
H1B H 0.6488 -0.0144 -0.2006
C3B C 0.6386(3) -0.0092(3) -0.3338(3)
H2B H 0.6846 0.0124 -0.3403
C4B C 0.5923(3) -0.0259(3) -0.4077(3)
H3B H 0.6074 -0.0164 -0.4638
C5B C 0.5232(3) -0.0568(3) -0.3980(3)
H4B H 0.4920 -0.0681 -0.4476
C6B C 0.5009(2) -0.0710(2) -0.3146(3)
H5B H 0.4545 -0.0915 -0.3085
C7B C 0.5346(2) -0.1815(2) -0.1192(2)
C8B C 0.6055(3) -0.2102(3) -0.1142(3)
H6B H 0.6452 -0.1763 -0.1134
C9B C 0.6166(3) -0.2913(3) -0.1103(4)
H7B H 0.6640 -0.3112 -0.1073
C10B C 0.5581(3) -0.3414(3) -0.1108(3)
H8B H 0.5660 -0.3951 -0.1083
C11B C 0.4882(3) -0.3125(3) -0.1149(3)
H9B H 0.4487 -0.3468 -0.1151
C12B C 0.4758(3) -0.2327(3) -0.1187(3)
H10B H 0.4282 -0.2135 -0.1210
C13B C 0.8284(2) 0.0802(3) -0.1337(3)
C14B C 0.8241(3) 0.0306(3) -0.2056(3)
H11B H 0.8052 -0.0194 -0.2001
C15B C 0.8479(3) 0.0548(5) -0.2863(4)
H12B H 0.8460 0.0211 -0.3345
C16B C 0.8745(4) 0.1305(5) -0.2931(5)
H13B H 0.8895 0.1479 -0.3469
C17B C 0.8789(4) 0.1791(5) -0.2226(5)
H14B H 0.8974 0.2294 -0.2282
C18B C 0.8565(3) 0.1549(3) -0.1432(4)
H15B H 0.8601 0.1887 -0.0951
C19B C 0.8804(2) 0.0653(3) 0.0465(3)
C20B C 0.9268(3) 0.0038(3) 0.0717(3)
H16B H 0.9158 -0.0466 0.0516
C21B C 0.9900(3) 0.0174(4) 0.1272(4)
H17B H 1.0207 -0.0241 0.1445
C22B C 1.0072(3) 0.0917(4) 0.1563(4)
H18B H 1.0495 0.1004 0.1929
C23B C 0.9621(3) 0.1529(4) 0.1315(5)
H19B H 0.9741 0.2029 0.1518
C24B C 0.8982(3) 0.1412(3) 0.0760(4)
H20B H 0.8680 0.1832 0.0591
C25B C 0.7140(2) 0.1732(3) -0.0003(3)
C26B C 0.6870(2) 0.2121(3) -0.0792(3)
C27B C 0.6760(3) 0.2931(3) -0.0797(4)
H21B H 0.6593 0.3176 -0.1322
C28B C 0.6892(3) 0.3375(3) -0.0044(4)
H22B H 0.6833 0.3915 -0.0065
C29B C 0.7112(3) 0.3009(3) 0.0742(4)
H23B H 0.7187 0.3306 0.1255
C30B C 0.7225(3) 0.2203(3) 0.0784(3)
C31B C 0.7390(3) 0.1811(3) 0.1657(3)
H24B H 0.7800 0.1465 0.1623
H25B H 0.7506 0.2200 0.2103
H26B H 0.6970 0.1518 0.1807
C32B C 0.6645(3) 0.1655(3) -0.1603(3)
H27B H 0.6755 0.1113 -0.1495
H28B H 0.6128 0.1716 -0.1748
H29B H 0.6908 0.1837 -0.2087
C33B C 0.7918(3) -0.0387(4) 0.2213(3)
H30B H 0.8072 -0.0789 0.1815
H31B H 0.8242 0.0060 0.2183
C34B C 0.7927(4) -0.0695(4) 0.3148(4)
H32B H 0.8407 -0.0633 0.3458
H33B H 0.7787 -0.1242 0.3155
C35B C 0.7367(4) -0.0189(4) 0.3545(4)
H34B H 0.7155 -0.0453 0.4031
H35B H 0.7580 0.0302 0.3755
C36B C 0.6799(3) -0.0060(3) 0.2777(3)
H36B H 0.6596 0.0463 0.2800
H37B H 0.6403 -0.0435 0.2799
C37B C 0.5295(3) -0.1439(3) 0.1254(3)
H38B H 0.5139 -0.1168 0.1769
H39B H 0.4978 -0.1283 0.0742
C38B C 0.5261(3) -0.2319(3) 0.1386(4)
H40B H 0.4935 -0.2557 0.0928
H41B H 0.5084 -0.2441 0.1956
C39B C 0.6031(3) -0.2611(3) 0.1337(4)
H42B H 0.6086 -0.2863 0.0773
H43B H 0.6158 -0.2982 0.1807
C40B C 0.6502(3) -0.1899(3) 0.1437(4)
H44B H 0.6924 -0.1948 0.1091
H45B H 0.6673 -0.1822 0.2051
Ca1B Ca 0.64378(4) -0.00493(4) 0.05535(5)
N1B N 0.72650(19) 0.0947(2) 0.0029(2)
O1B O 0.56959(15) -0.03330(16) -0.06484(17)
O2B O 0.43788(16) -0.06311(16) -0.12907(18)
O3B O 0.71682(17) -0.01630(19) 0.1985(2)
O4B O 0.60486(18) -0.12584(18) 0.1124(2)
P1B P 0.51907(6) -0.07665(5) -0.13016(6)
P2B P 0.79720(6) 0.04850(6) -0.02685(7)
Se1B Se 0.77355(2) -0.07474(3) -0.02983(3)
C41 C 0.1745(6) 0.2984(7) -0.1203(7)
C42 C 0.1984(5) 0.3160(5) -0.2028(10)
H46 H 0.2363 0.3516 -0.2076
C43 C 0.1655(8) 0.2804(8) -0.2781(7)
H47 H 0.1815 0.2922 -0.3332
C44 C 0.1089(7) 0.2272(7) -0.2709(11)
H48 H 0.0869 0.2034 -0.3212
C45 C 0.0850(5) 0.2096(6) -0.1884(14)
H49 H 0.0471 0.1740 -0.1836
C46 C 0.1179(7) 0.2452(8) -0.1131(10)
H50 H 0.1019 0.2334 -0.0580
C47 C 0.2004(14) 0.3242(14) -0.0422(17)
H51 H 0.2411 0.3586 -0.0492
H52 H 0.2164 0.2808 -0.0056
H53 H 0.1626 0.3522 -0.0150
loop_
_geom_bond_atom_site_label_1
_geom_bond_atom_site_label_2
_geom_bond_site_symmetry_1
_geom_bond_site_symmetry_2
C1 C2 1_555 1_555
C2 H1 1_555 1_555
C3 C2 1_555 1_555
H2 C3 1_555 1_555
C4 C3 1_555 1_555
H3 C4 1_555 1_555
C5 C4 1_555 1_555
H4 C5 1_555 1_555
C6 C1 1_555 1_555
H5 C6 1_555 1_555
C7 C8 1_555 1_555
C8 H6 1_555 1_555
C9 C8 1_555 1_555
H7 C9 1_555 1_555
C10 C9 1_555 1_555
H8 C10 1_555 1_555
C11 C10 1_555 1_555
H9 C11 1_555 1_555
C12 C7 1_555 1_555
H10 C12 1_555 1_555
C13 C14 1_555 1_555
C14 H11 1_555 1_555
C15 C14 1_555 1_555
H12 C15 1_555 1_555
C16 C15 1_555 1_555
H13 C16 1_555 1_555
C17 C16 1_555 1_555
H14 C17 1_555 1_555
C18 C13 1_555 1_555
H15 C18 1_555 1_555
C19 C20 1_555 1_555
C20 H16 1_555 1_555
C21 C20 1_555 1_555
H17 C21 1_555 1_555
C22 C21 1_555 1_555
H18 C22 1_555 1_555
C23 C22 1_555 1_555
H19 C23 1_555 1_555
C24 C19 1_555 1_555
H20 C24 1_555 1_555
C25 C26 1_555 1_555
C26 C27 1_555 1_555
C27 H21 1_555 1_555
C28 C27 1_555 1_555
H22 C28 1_555 1_555
C29 C28 1_555 1_555
H23 C29 1_555 1_555
C30 C25 1_555 1_555
C31 C30 1_555 1_555
H24 C31 1_555 1_555
H25 C31 1_555 1_555
H26 C31 1_555 1_555
C32 C26 1_555 1_555
H27 C32 1_555 1_555
H28 C32 1_555 1_555
H29 C32 1_555 1_555
C33 H30 1_555 1_555
H31 C33 1_555 1_555
C34 C33 1_555 1_555
H32 C34 1_555 1_555
H33 C34 1_555 1_555
C35 C34 1_555 1_555
H34 C35 1_555 1_555
H35 C35 1_555 1_555
C36 C35 1_555 1_555
H36 C36 1_555 1_555
H37 C36 1_555 1_555
C37 H38 1_555 1_555
H39 C37 1_555 1_555
C38 C37 1_555 1_555
H40 C38 1_555 1_555
H41 C38 1_555 1_555
C39 C38 1_555 1_555
H42 C39 1_555 1_555
H43 C39 1_555 1_555
C40 C39 1_555 1_555
H44 C40 1_555 1_555
H45 C40 1_555 1_555
Ca1 N1 1_555 1_555
N1 C25 1_555 1_555
O1 Ca1 1_555 1_555
O2 P1 1_555 1_555
O3 C33 1_555 1_555
O4 C37 1_555 1_555
P1 C1 1_555 1_555
P2 C13 1_555 1_555
Se1 Ca1 1_555 1_555
C41 C42 1_555 1_555
C42 H46 1_555 1_555
C43 C42 1_555 1_555
H47 C43 1_555 1_555
C44 C43 1_555 1_555
H48 C44 1_555 1_555
C45 C44 1_555 1_555
H49 C45 1_555 1_555
C46 C41 1_555 1_555
H50 C46 1_555 1_555
C47 C41 1_555 1_555
H51 C47 1_555 1_555
H52 C47 1_555 1_555
H53 C47 1_555 1_555
C1B C2B 1_555 1_555
C2B H1B 1_555 1_555
C3B C2B 1_555 1_555
H2B C3B 1_555 1_555
C4B C3B 1_555 1_555
H3B C4B 1_555 1_555
C5B C4B 1_555 1_555
H4B C5B 1_555 1_555
C6B C1B 1_555 1_555
H5B C6B 1_555 1_555
C7B C8B 1_555 1_555
C8B H6B 1_555 1_555
C9B C8B 1_555 1_555
H7B C9B 1_555 1_555
C10B C9B 1_555 1_555
H8B C10B 1_555 1_555
C11B C10B 1_555 1_555
H9B C11B 1_555 1_555
C12B C7B 1_555 1_555
H10B C12B 1_555 1_555
C13B C14B 1_555 1_555
C14B H11B 1_555 1_555
C15B C14B 1_555 1_555
H12B C15B 1_555 1_555
C16B C15B 1_555 1_555
H13B C16B 1_555 1_555
C17B C16B 1_555 1_555
H14B C17B 1_555 1_555
C18B C13B 1_555 1_555
H15B C18B 1_555 1_555
C19B C20B 1_555 1_555
C20B H16B 1_555 1_555
C21B C20B 1_555 1_555
H17B C21B 1_555 1_555
C22B C21B 1_555 1_555
H18B C22B 1_555 1_555
C23B C22B 1_555 1_555
H19B C23B 1_555 1_555
C24B C19B 1_555 1_555
H20B C24B 1_555 1_555
C25B C26B 1_555 1_555
C26B C27B 1_555 1_555
C27B H21B 1_555 1_555
C28B C27B 1_555 1_555
H22B C28B 1_555 1_555
C29B C28B 1_555 1_555
H23B C29B 1_555 1_555
C30B C25B 1_555 1_555
C31B C30B 1_555 1_555
H24B C31B 1_555 1_555
H25B C31B 1_555 1_555
H26B C31B 1_555 1_555
C32B C26B 1_555 1_555
H27B C32B 1_555 1_555
H28B C32B 1_555 1_555
H29B C32B 1_555 1_555
C33B H30B 1_555 1_555
H31B C33B 1_555 1_555
C34B C33B 1_555 1_555
H32B C34B 1_555 1_555
H33B C34B 1_555 1_555
C35B C34B 1_555 1_555
H34B C35B 1_555 1_555
H35B C35B 1_555 1_555
C36B C35B 1_555 1_555
H36B C36B 1_555 1_555
H37B C36B 1_555 1_555
C37B H38B 1_555 1_555
H39B C37B 1_555 1_555
C38B C37B 1_555 1_555
H40B C38B 1_555 1_555
H41B C38B 1_555 1_555
C39B C38B 1_555 1_555
H42B C39B 1_555 1_555
H43B C39B 1_555 1_555
C40B C39B 1_555 1_555
H44B C40B 1_555 1_555
H45B C40B 1_555 1_555
Ca1B O2 1_555 1_555
N1B C25B 1_555 1_555
O1B Ca1B 1_555 1_555
O2B Ca1 1_555 1_555
O3B C33B 1_555 1_555
O4B C37B 1_555 1_555
P1B C1B 1_555 1_555
P2B C13B 1_555 1_555
Se1B Ca1B 1_555 1_555
C5 C6 1_555 1_555
C7 P1 1_555 1_555
C11 C12 1_555 1_555
C17 C18 1_555 1_555
C19 P2 1_555 1_555
C23 C24 1_555 1_555
C29 C30 1_555 1_555
C36 O3 1_555 1_555
C40 O4 1_555 1_555
Ca1 O3 1_555 1_555
Ca1 O4 1_555 1_555
N1 P2 1_555 1_555
O1 P1 1_555 1_555
P2 Se1 1_555 1_555
C45 C46 1_555 1_555
C5B C6B 1_555 1_555
C7B P1B 1_555 1_555
C11B C12B 1_555 1_555
C17B C18B 1_555 1_555
C19B P2B 1_555 1_555
C23B C24B 1_555 1_555
C29B C30B 1_555 1_555
C36B O3B 1_555 1_555
C40B O4B 1_555 1_555
Ca1B N1B 1_555 1_555
Ca1B O3B 1_555 1_555
Ca1B O4B 1_555 1_555
N1B P2B 1_555 1_555
O1B P1B 1_555 1_555
O2B P1B 1_555 1_555
P2B Se1B 1_555 1_555

#END
