
#######################################################################
#
#                 Cambridge Crystallographic Data Centre
#                                CCDC 
#
#######################################################################
#
# If this CIF has been generated from an entry in the Cambridge 
# Structural Database, then it will include bibliographic, chemical, 
# crystal, experimental, refinement or atomic coordinate data resulting 
# from the CCDC's data processing and validation procedures.
#
#######################################################################

data_HOCNIX
_chemical_formula_moiety         'C18 H19 Cl1 N2 O1'
_chemical_name_systematic        
3-n-Butyl-2-(4-chlorophenyl)-2,3-dihydroquinazolin-4(1H)-one
_symmetry_cell_setting           monoclinic
_symmetry_space_group_name_H-M   'P 21/c'
_symmetry_Int_Tables_number      14
_space_group_name_Hall           '-P 2ybc'
loop_
_symmetry_equiv_pos_site_id
_symmetry_equiv_pos_as_xyz
1 x,y,z
2 -x,1/2+y,1/2-z
3 -x,-y,-z
4 x,1/2-y,1/2+z
_cell_length_a                   9.3677(6)
_cell_length_b                   13.8007(9)
_cell_length_c                   25.1699(18)
_cell_angle_alpha                90
_cell_angle_beta                 93.839(1)
_cell_angle_gamma                90
_cell_volume                     3246.68
_exptl_crystal_colour            colorless
_exptl_crystal_description       block
_chemical_melting_point          '150-151 deg.C'
_cell_formula_units_Z            8
_exptl_crystal_recrystallization_method ethanol
loop_
_atom_site_label
_atom_site_type_symbol
_atom_site_fract_x
_atom_site_fract_y
_atom_site_fract_z
Cl1 Cl 0.1457(4) -0.23735(18) 0.02443(10)
O1 O 0.4888(6) 0.2425(3) 0.2307(2)
N1 N 0.4954(6) -0.0470(4) 0.2355(2)
H1 H 0.5252 -0.1010 0.2233
N2 N 0.3974(6) 0.1000(3) 0.2007(2)
C1 C 0.2095(10) -0.1684(5) 0.0795(3)
C2 C 0.1211(8) -0.1500(5) 0.1191(3)
H3 H 0.0284 -0.1745 0.1172
C3 C 0.1716(7) -0.0942(5) 0.1622(3)
H4 H 0.1119 -0.0798 0.1891
C4 C 0.3096(7) -0.0602(4) 0.1650(3)
C5 C 0.3960(8) -0.0814(5) 0.1245(3)
H5 H 0.4895 -0.0583 0.1263
C6 C 0.3472(10) -0.1357(6) 0.0817(3)
H6 H 0.4066 -0.1500 0.0545
C7 C 0.3656(7) -0.0023(4) 0.2134(3)
H7 H 0.2941 -0.0038 0.2401
C8 C 0.4793(7) 0.1540(4) 0.2361(3)
C9 C 0.5622(7) 0.1015(5) 0.2790(3)
C10 C 0.5694(7) 0.0000(4) 0.2767(3)
C11 C 0.6566(8) -0.0485(5) 0.3152(3)
H8 H 0.6653 -0.1156 0.3137
C12 C 0.7289(9) 0.0020(5) 0.3549(3)
H9 H 0.7849 -0.0315 0.3807
C13 C 0.7210(10) 0.1014(6) 0.3577(3)
H10 H 0.7715 0.1350 0.3849
C14 C 0.6367(8) 0.1501(5) 0.3194(3)
H11 H 0.6303 0.2173 0.3211
C15 C 0.3027(7) 0.1506(5) 0.1613(3)
H12 H 0.2686 0.2098 0.1769
H13 H 0.2203 0.1101 0.1518
C16 C 0.3795(8) 0.1753(5) 0.1108(3)
H14 H 0.4640 0.2133 0.1210
H15 H 0.4112 0.1155 0.0951
C17 C 0.2911(10) 0.2297(7) 0.0696(3)
H16 H 0.2643 0.2915 0.0843
H17 H 0.2039 0.1936 0.0607
C18 C 0.3668(14) 0.2476(8) 0.0193(4)
H18 H 0.4568 0.2789 0.0282
H19 H 0.3086 0.2883 -0.0042
H20 H 0.3832 0.1869 0.0021
Cl2 Cl 0.7227(4) 0.4908(2) 0.00797(10)
O2 O 0.9626(6) 0.0272(3) 0.2422(2)
N3 N 1.0300(6) 0.3128(4) 0.2309(2)
H2 H 1.0691 0.3617 0.2163
N4 N 0.9030(6) 0.1712(4) 0.2040(2)
C19 C 0.7717(10) 0.4278(5) 0.0667(3)
C20 C 0.6716(9) 0.4154(5) 0.1033(3)
H21 H 0.5794 0.4398 0.0971
C21 C 0.7110(7) 0.3655(5) 0.1500(3)
H22 H 0.6446 0.3561 0.1754
C22 C 0.8483(7) 0.3298(4) 0.1588(3)
C23 C 0.9443(7) 0.3436(5) 0.1209(3)
H23 H 1.0364 0.3188 0.1266
C24 C 0.9085(8) 0.3925(5) 0.0752(3)
H24 H 0.9755 0.4020 0.0500
C25 C 0.8935(7) 0.2777(4) 0.2109(3)
H25 H 0.8233 0.2917 0.2370
C26 C 0.9722(7) 0.1165(4) 0.2424(3)
C27 C 1.0664(7) 0.1681(5) 0.2818(3)
C28 C 1.0980(7) 0.2662(4) 0.2743(2)
C29 C 1.1984(7) 0.3124(5) 0.3082(3)
H26 H 1.2221 0.3768 0.3024
C30 C 1.2632(9) 0.2626(6) 0.3506(3)
H27 H 1.3299 0.2939 0.3736
C31 C 1.2303(9) 0.1664(6) 0.3594(3)
H28 H 1.2742 0.1335 0.3883
C32 C 1.1333(9) 0.1201(5) 0.3254(3)
H29 H 1.1114 0.0555 0.3315
C33 C 0.8004(7) 0.1223(5) 0.1668(3)
H30 H 0.7243 0.1672 0.1560
H31 H 0.7579 0.0686 0.1850
C34 C 0.8664(8) 0.0839(5) 0.1173(3)
H32 H 0.9092 0.1373 0.0990
H33 H 0.9419 0.0384 0.1280
C35 C 0.7593(10) 0.0344(7) 0.0794(4)
H34 H 0.7097 -0.0144 0.0988
H35 H 0.6890 0.0818 0.0664
C36 C 0.8201(14) -0.0127(7) 0.0329(4)
H36 H 0.8837 0.0316 0.0169
H37 H 0.7440 -0.0303 0.0072
H38 H 0.8719 -0.0698 0.0444
loop_
_geom_bond_atom_site_label_1
_geom_bond_atom_site_label_2
_geom_bond_site_symmetry_1
_geom_bond_site_symmetry_2
Cl1 C1 1_555 1_555
Cl2 C19 1_555 1_555
O1 C8 1_555 1_555
O2 C26 1_555 1_555
N1 H1 1_555 1_555
N2 C7 1_555 1_555
N3 H2 1_555 1_555
N4 C25 1_555 1_555
C1 C2 1_555 1_555
C2 H3 1_555 1_555
C3 C2 1_555 1_555
H4 C3 1_555 1_555
C4 C3 1_555 1_555
C5 C4 1_555 1_555
H5 C5 1_555 1_555
C6 C1 1_555 1_555
H6 C6 1_555 1_555
C7 N1 1_555 1_555
H7 C7 1_555 1_555
C8 N2 1_555 1_555
C9 C8 1_555 1_555
C10 N1 1_555 1_555
C11 C10 1_555 1_555
H8 C11 1_555 1_555
C12 C11 1_555 1_555
H9 C12 1_555 1_555
C13 C12 1_555 1_555
H10 C13 1_555 1_555
C14 C9 1_555 1_555
H11 C14 1_555 1_555
C15 N2 1_555 1_555
H12 C15 1_555 1_555
H13 C15 1_555 1_555
C16 C15 1_555 1_555
H14 C16 1_555 1_555
H15 C16 1_555 1_555
C17 C16 1_555 1_555
H16 C17 1_555 1_555
H17 C17 1_555 1_555
C18 C17 1_555 1_555
H18 C18 1_555 1_555
H19 C18 1_555 1_555
H20 C18 1_555 1_555
C19 C20 1_555 1_555
C20 H21 1_555 1_555
C21 C20 1_555 1_555
H22 C21 1_555 1_555
C22 C21 1_555 1_555
C23 C22 1_555 1_555
H23 C23 1_555 1_555
C24 C19 1_555 1_555
H24 C24 1_555 1_555
C25 N3 1_555 1_555
H25 C25 1_555 1_555
C26 N4 1_555 1_555
C27 C26 1_555 1_555
C28 N3 1_555 1_555
C29 C28 1_555 1_555
H26 C29 1_555 1_555
C30 C29 1_555 1_555
H27 C30 1_555 1_555
C31 C30 1_555 1_555
H28 C31 1_555 1_555
C32 C27 1_555 1_555
H29 C32 1_555 1_555
C33 N4 1_555 1_555
H30 C33 1_555 1_555
H31 C33 1_555 1_555
C34 C33 1_555 1_555
H32 C34 1_555 1_555
H33 C34 1_555 1_555
C35 C34 1_555 1_555
H34 C35 1_555 1_555
H35 C35 1_555 1_555
C36 C35 1_555 1_555
H36 C36 1_555 1_555
H37 C36 1_555 1_555
H38 C36 1_555 1_555
C4 C7 1_555 1_555
C5 C6 1_555 1_555
C9 C10 1_555 1_555
C13 C14 1_555 1_555
C22 C25 1_555 1_555
C23 C24 1_555 1_555
C27 C28 1_555 1_555
C31 C32 1_555 1_555

#END
