
#######################################################################
#
#                 Cambridge Crystallographic Data Centre
#                                CCDC 
#
#######################################################################
#
# If this CIF has been generated from an entry in the Cambridge 
# Structural Database, then it will include bibliographic, chemical, 
# crystal, experimental, refinement or atomic coordinate data resulting 
# from the CCDC's data processing and validation procedures.
#
#######################################################################

data_HODSID
_chemical_formula_moiety         'C24 H18 O10'
_chemical_name_systematic        
'(E)-Dimethyl 2-(6-benzoyl-7-hydroxy-4-methoxycarbonyl-2-oxo-2H-chromen-8-yl)but-2-enedioate'
_symmetry_cell_setting           orthorhombic
_symmetry_space_group_name_H-M   'P 21 21 21'
_symmetry_Int_Tables_number      19
_space_group_name_Hall           'P 2ac 2ab'
loop_
_symmetry_equiv_pos_site_id
_symmetry_equiv_pos_as_xyz
1 x,y,z
2 1/2-x,-y,1/2+z
3 -x,1/2+y,1/2-z
4 1/2+x,1/2-y,-z
_cell_length_a                   9.2661(17)
_cell_length_b                   11.508(2)
_cell_length_c                   19.661(4)
_cell_angle_alpha                90
_cell_angle_beta                 90
_cell_angle_gamma                90
_cell_volume                     2096.54
_exptl_crystal_colour            yellow
_exptl_crystal_description       rhombic
_cell_formula_units_Z            4
_exptl_crystal_recrystallization_method 'n-hexane/ethyl acetate'
loop_
_atom_site_label
_atom_site_type_symbol
_atom_site_fract_x
_atom_site_fract_y
_atom_site_fract_z
O1 O 0.8901(3) 0.6309(2) 0.47921(12)
O2 O 0.9133(3) 0.7985(2) 0.53324(12)
O3 O 0.8287(3) 0.2634(2) 0.38265(14)
O4 O 1.0075(3) 0.4046(3) 0.55108(15)
O5 O 0.8674(3) 0.3474(2) 0.63681(14)
O6 O 0.5738(3) 0.4577(3) 0.38390(15)
O7 O 0.4741(3) 0.4059(2) 0.48358(14)
O8 O 0.9960(3) 0.2006(2) 0.28708(13)
O9 O 1.3022(3) 0.6689(2) 0.30924(13)
O10 O 1.2205(3) 0.8493(2) 0.33093(13)
C1 C 0.9316(4) 0.5539(3) 0.42981(17)
C2 C 0.8588(4) 0.4490(3) 0.42914(19)
C3 C 0.8983(4) 0.3662(3) 0.38097(19)
C4 C 1.0067(4) 0.3908(3) 0.33190(16)
C5 C 1.0769(4) 0.4973(3) 0.33484(16)
H1 H 1.1498 0.5131 0.3037
C6 C 1.0414(4) 0.5814(3) 0.38323(16)
C7 C 1.1059(4) 0.6962(3) 0.38800(16)
C8 C 1.0624(4) 0.7706(3) 0.43690(17)
H2 H 1.1037 0.8441 0.4389
C9 C 0.9531(4) 0.7394(3) 0.48650(17)
C10 C 0.7329(4) 0.4258(3) 0.4747(2)
C11 C 0.7438(4) 0.3982(4) 0.5399(2)
H3 H 0.6602 0.3865 0.5651
C14 C 0.8891(5) 0.3854(3) 0.5746(2)
C15 C 0.9957(4) 0.3285(4) 0.67707(19)
H5 H 0.9693 0.2953 0.7201
H6 H 1.0439 0.4012 0.6844
H7 H 1.0591 0.2763 0.6535
C16 C 0.5856(4) 0.4312(3) 0.4419(2)
C17 C 0.3335(4) 0.4193(4) 0.4522(2)
H8 H 0.2605 0.3907 0.4825
H9 H 0.3306 0.3761 0.4105
H10 H 0.3164 0.5000 0.4429
C18 C 1.0426(4) 0.3018(3) 0.28092(18)
C19 C 1.1342(4) 0.3286(3) 0.22093(17)
C20 C 1.2264(4) 0.2416(3) 0.19724(18)
H11 H 1.2301 0.1703 0.2194
C21 C 1.3132(4) 0.2616(3) 0.14031(19)
H12 H 1.3768 0.2048 0.1251
C22 C 1.3031(4) 0.3672(4) 0.1070(2)
H13 H 1.3613 0.3813 0.0694
C23 C 1.2084(4) 0.4517(3) 0.12855(19)
H14 H 1.2013 0.5214 0.1048
C24 C 1.1240(4) 0.4333(3) 0.18531(18)
H15 H 1.0603 0.4906 0.1999
C25 C 1.2213(4) 0.7331(3) 0.33863(17)
C26 C 1.3248(4) 0.8940(3) 0.2829(2)
H16 H 1.3133 0.9766 0.2788
H17 H 1.3098 0.8582 0.2393
H18 H 1.4205 0.8769 0.2986
H19 H 0.884(6) 0.213(5) 0.352(3)
C12? C 0.817(3) 0.4049(19) 0.5058(11)
C13? C 0.677(3) 0.387(2) 0.5078(13)
H4? H 0.6332 0.3503 0.5446
loop_
_geom_bond_atom_site_label_1
_geom_bond_atom_site_label_2
_geom_bond_site_symmetry_1
_geom_bond_site_symmetry_2
O1 C1 1_555 1_555
O2 C9 1_555 1_555
O3 C3 1_555 1_555
O4 C14 1_555 1_555
O5 C14 1_555 1_555
O6 C16 1_555 1_555
O7 C16 1_555 1_555
O8 C18 1_555 1_555
O9 C25 1_555 1_555
O10 C25 1_555 1_555
C1 C2 1_555 1_555
C2 C3 1_555 1_555
C3 C4 1_555 1_555
C4 C5 1_555 1_555
C5 H1 1_555 1_555
C6 C1 1_555 1_555
C7 C6 1_555 1_555
C8 C7 1_555 1_555
H2 C8 1_555 1_555
C9 O1 1_555 1_555
C10 C2 1_555 1_555
C11 C10 1_555 1_555
H3 C11 1_555 1_555
C14 C11 1_555 1_555
C15 O5 1_555 1_555
H5 C15 1_555 1_555
H6 C15 1_555 1_555
H7 C15 1_555 1_555
C16 C10 1_555 1_555
C17 O7 1_555 1_555
H8 C17 1_555 1_555
H9 C17 1_555 1_555
H10 C17 1_555 1_555
C18 C4 1_555 1_555
C19 C18 1_555 1_555
C20 C19 1_555 1_555
H11 C20 1_555 1_555
C21 C20 1_555 1_555
H12 C21 1_555 1_555
C22 C21 1_555 1_555
H13 C22 1_555 1_555
C23 C22 1_555 1_555
H14 C23 1_555 1_555
C24 C19 1_555 1_555
H15 C24 1_555 1_555
C25 C7 1_555 1_555
C26 O10 1_555 1_555
H16 C26 1_555 1_555
H17 C26 1_555 1_555
H18 C26 1_555 1_555
H19 O3 1_555 1_555
C5 C6 1_555 1_555
C8 C9 1_555 1_555
C23 C24 1_555 1_555

#END
