
#######################################################################
#
#                 Cambridge Crystallographic Data Centre
#                                CCDC 
#
#######################################################################
#
# If this CIF has been generated from an entry in the Cambridge 
# Structural Database, then it will include bibliographic, chemical, 
# crystal, experimental, refinement or atomic coordinate data resulting 
# from the CCDC's data processing and validation procedures.
#
#######################################################################

data_HODYEF
_chemical_formula_moiety         'C5 H3 N3 O5,H2 O1'
_chemical_name_systematic        '3,5-Dinitropyridin-4(1H)-one monohydrate'
_symmetry_cell_setting           orthorhombic
_symmetry_space_group_name_H-M   'P b c n'
_symmetry_Int_Tables_number      60
_space_group_name_Hall           '-P 2n 2ab'
loop_
_symmetry_equiv_pos_site_id
_symmetry_equiv_pos_as_xyz
1 x,y,z
2 1/2-x,1/2-y,1/2+z
3 -x,y,1/2-z
4 1/2+x,1/2-y,-z
5 -x,-y,-z
6 1/2+x,1/2+y,1/2-z
7 x,-y,1/2+z
8 1/2-x,1/2+y,z
_cell_length_a                   21.728(2)
_cell_length_b                   21.654(2)
_cell_length_c                   6.5713(5)
_cell_angle_alpha                90
_cell_angle_beta                 90
_cell_angle_gamma                90
_cell_volume                     3091.78
_exptl_crystal_colour            colorless
_exptl_crystal_description       Block
_cell_formula_units_Z            16
_exptl_crystal_recrystallization_method water
loop_
_atom_site_label
_atom_site_type_symbol
_atom_site_fract_x
_atom_site_fract_y
_atom_site_fract_z
O1 O 0.69961(7) 0.46193(6) 0.2892(3)
O2 O 0.62136(6) 0.50982(6) 0.4163(3)
O3 O 0.60319(6) 0.62125(6) 0.2292(2)
O4 O 0.61633(6) 0.73545(6) 0.0695(3)
O5 O 0.70310(8) 0.77792(8) 0.1081(6)
N1 N 0.67114(7) 0.50953(7) 0.3278(3)
N2 N 0.67066(7) 0.73271(7) 0.1089(3)
N3 N 0.79137(7) 0.61956(8) 0.1992(3)
C1 C 0.76100(8) 0.56854(9) 0.2549(3)
H1 H 0.7829 0.5329 0.2857
C2 C 0.69872(8) 0.56805(8) 0.2672(3)
C3 C 0.65995(8) 0.62114(7) 0.2208(3)
C4 C 0.69804(8) 0.67347(8) 0.1610(3)
C5 C 0.76066(8) 0.67135(9) 0.1539(3)
H2 H 0.7825 0.7065 0.1169
H9 H 0.8306(5) 0.6181(10) 0.199(4)
O6 O 0.60858(6) 0.75858(6) 0.5467(3)
O7 O 0.65774(6) 0.67898(7) 0.6579(3)
O8 O 0.5000 0.77618(7) 0.7500
N4 N 0.61008(6) 0.70807(7) 0.6311(3)
N5 N 0.5000 0.58686(9) 0.7500
C6 C 0.55166(8) 0.61756(8) 0.7027(3)
H3 H 0.5874 0.5957 0.6733
C7 C 0.55244(7) 0.68038(7) 0.6972(3)
C8 C 0.5000 0.71922(10) 0.7500
H10 H 0.5000 0.5477(5) 0.7500
O6B O 0.39142(6) 0.75858(6) 0.9533(3)
O7B O 0.34226(6) 0.67898(7) 0.8421(3)
N4B N 0.38992(6) 0.70807(7) 0.8689(3)
C6B C 0.44834(8) 0.61756(8) 0.7973(3)
H3B H 0.4126 0.5957 0.8267
C7B C 0.44756(7) 0.68038(7) 0.8028(3)
O9 O 0.65904(7) 0.92189(7) 0.1991(3)
O10 O 0.61401(6) 1.00203(6) 0.0759(3)
O11 O 0.5000 1.02039(7) 0.2500
N6 N 0.5000 0.83100(9) 0.2500
N7 N 0.61264(7) 0.95139(7) 0.1582(3)
C9 C 0.55223(9) 0.86172(8) 0.2128(3)
H4 H 0.5884 0.8398 0.1893
C10 C 0.55324(8) 0.92451(7) 0.2090(3)
C11 C 0.5000 0.96327(10) 0.2500
H11 H 0.5000 0.7915(5) 0.2500
O9B O 0.34096(7) 0.92189(7) 0.3009(3)
O10B O 0.38599(6) 1.00203(6) 0.4241(3)
N7B N 0.38736(7) 0.95139(7) 0.3418(3)
C9B C 0.44777(9) 0.86172(8) 0.2872(3)
H4B H 0.4116 0.8398 0.3107
C10B C 0.44676(8) 0.92451(7) 0.2910(3)
O12 O 0.91543(6) 0.62174(6) 0.2293(3)
H5 H 0.9376(8) 0.6540(6) 0.220(4)
H6 H 0.9385(8) 0.5898(6) 0.218(4)
O13 O 0.5000 0.46255(9) 0.7500
H7 H 0.4680(2) 0.4409(7) 0.757(4)
H7B H 0.5320(2) 0.4409(7) 0.743(4)
O14 O 0.5000 0.70522(8) 0.2500
H8 H 0.5318(3) 0.6832(7) 0.236(4)
H8B H 0.4682(3) 0.6832(7) 0.264(4)
loop_
_geom_bond_atom_site_label_1
_geom_bond_atom_site_label_2
_geom_bond_site_symmetry_1
_geom_bond_site_symmetry_2
O1 N1 1_555 1_555
O2 N1 1_555 1_555
O3 C3 1_555 1_555
O4 N2 1_555 1_555
O5 N2 1_555 1_555
O6 N4 1_555 1_555
O7 N4 1_555 1_555
O8 C8 1_555 1_555
O9 N7 1_555 1_555
O10 N7 1_555 1_555
O11 C11 1_555 1_555
O12 H5 1_555 1_555
O13 H7 1_555 1_555
O14 H8 1_555 1_555
N1 C2 1_555 1_555
N2 C4 1_555 1_555
N3 C1 1_555 1_555
N4 C7 1_555 1_555
N5 C6 1_555 1_555
N6 C9 1_555 1_555
N7 C10 1_555 1_555
C1 H1 1_555 1_555
C2 C1 1_555 1_555
C3 C2 1_555 1_555
C4 C3 1_555 1_555
C5 N3 1_555 1_555
H2 C5 1_555 1_555
C6 H3 1_555 1_555
C7 C6 1_555 1_555
C8 C7 1_555 1_555
C9 H4 1_555 1_555
C10 C9 1_555 1_555
C11 C10 1_555 1_555
H6 O12 1_555 1_555
H9 N3 1_555 1_555
H10 N5 1_555 1_555
H11 N6 1_555 1_555
O6B N4B 1_555 1_555
O7B N4B 1_555 1_555
O9B N7B 1_555 1_555
O10B N7B 1_555 1_555
N4B C7B 1_555 1_555
N7B C10B 1_555 1_555
C6B N5 1_555 1_555
H3B C6B 1_555 1_555
C7B C8 1_555 1_555
C9B N6 1_555 1_555
H4B C9B 1_555 1_555
C10B C11 1_555 1_555
H7B O13 1_555 1_555
H8B O14 1_555 1_555
C4 C5 1_555 1_555
C6B C7B 1_555 1_555
C9B C10B 1_555 1_555

#END
