
#######################################################################
#
#                 Cambridge Crystallographic Data Centre
#                                CCDC 
#
#######################################################################
#
# If this CIF has been generated from an entry in the Cambridge 
# Structural Database, then it will include bibliographic, chemical, 
# crystal, experimental, refinement or atomic coordinate data resulting 
# from the CCDC's data processing and validation procedures.
#
#######################################################################

data_HOFDIR
_chemical_name_common            4-ethyl-2,3-diphenylquinoline
_chemical_formula_moiety         'C23 H19 N1'
_chemical_name_systematic        'Ethyl 2,4-diphenylquinoline-3-carboxylate'
_symmetry_cell_setting           orthorhombic
_symmetry_space_group_name_H-M   'P n a 21'
_symmetry_Int_Tables_number      33
_space_group_name_Hall           'P 2c -2n'
loop_
_symmetry_equiv_pos_site_id
_symmetry_equiv_pos_as_xyz
1 x,y,z
2 -x,-y,1/2+z
3 1/2+x,1/2-y,z
4 1/2-x,1/2+y,1/2+z
_cell_length_a                   13.6312(15)
_cell_length_b                   9.0492(10)
_cell_length_c                   27.107(3)
_cell_angle_alpha                90
_cell_angle_beta                 90
_cell_angle_gamma                90
_cell_volume                     3343.69
_exptl_crystal_colour            colorless
_exptl_crystal_description       Block
_cell_formula_units_Z            8
loop_
_atom_site_label
_atom_site_type_symbol
_atom_site_fract_x
_atom_site_fract_y
_atom_site_fract_z
N1 N 0.72032(11) 0.28563(18) 0.17891(7)
C1 C 0.63443(12) 0.30421(19) 0.15347(7)
C2 C 0.62408(14) 0.43502(19) 0.12548(7)
H1 H 0.6742 0.5047 0.1254
C3 C 0.54140(16) 0.4598(2) 0.09862(8)
H2 H 0.5354 0.5459 0.0801
C4 C 0.46563(16) 0.3561(2) 0.09883(8)
H3 H 0.4100 0.3724 0.0797
C5 C 0.47222(18) 0.2302(2) 0.12691(11)
H4 H 0.4200 0.1641 0.1277
C6 C 0.55752(13) 0.2004(2) 0.15460(7)
C7 C 0.56983(12) 0.07027(19) 0.18373(7)
C8 C 0.65915(12) 0.04871(17) 0.20686(6)
C9 C 0.73234(12) 0.16086(19) 0.20378(7)
C10 C 0.82818(12) 0.14701(17) 0.23013(7)
C11 C 0.85741(19) 0.25483(19) 0.26358(10)
H5 H 0.8158 0.3335 0.2707
C12 C 0.9477(2) 0.2456(2) 0.28625(13)
H6 H 0.9668 0.3190 0.3083
C13 C 1.00939(15) 0.1301(3) 0.27679(9)
H7 H 1.0697 0.1239 0.2927
C14 C 0.98193(15) 0.0235(2) 0.24366(9)
H8 H 1.0242 -0.0544 0.2367
C15 C 0.89197(13) 0.0312(2) 0.22053(8)
H9 H 0.8739 -0.0421 0.1983
C16 C 0.67866(12) -0.0875(2) 0.23645(7)
C17 C 0.67648(15) -0.0851(2) 0.28717(8)
H10 H 0.6616 0.0023 0.3036
C18 C 0.69640(19) -0.2123(4) 0.31397(10)
H11 H 0.6931 -0.2101 0.3482
C19 C 0.72097(16) -0.3415(3) 0.29036(11)
H12 H 0.7358 -0.4258 0.3085
C20 C 0.72342(15) -0.3450(2) 0.24021(9)
H13 H 0.7394 -0.4324 0.2240
C21 C 0.70227(15) -0.2195(2) 0.21314(10)
H14 H 0.7039 -0.2236 0.1789
C22 C 0.48488(14) -0.0368(2) 0.19068(8)
H15 H 0.4247 0.0196 0.1939
H16 H 0.4947 -0.0905 0.2212
C23 C 0.47245(18) -0.1476(2) 0.14887(10)
H17 H 0.4672 -0.0958 0.1181
H18 H 0.4141 -0.2047 0.1543
H19 H 0.5283 -0.2122 0.1479
N2 N 0.96723(12) 0.28229(18) 0.49009(7)
C24 C 0.88135(12) 0.3023(2) 0.51560(6)
C25 C 0.87112(14) 0.4325(2) 0.54381(7)
H20 H 0.9212 0.5023 0.5439
C26 C 0.78830(15) 0.4572(2) 0.57101(8)
H21 H 0.7829 0.5422 0.5901
C27 C 0.71191(15) 0.3546(2) 0.57003(8)
H22 H 0.6555 0.3723 0.5884
C28 C 0.71855(17) 0.2292(2) 0.54261(11)
H23 H 0.6664 0.1629 0.5423
C29 C 0.80379(12) 0.1981(2) 0.51452(7)
C30 C 0.81606(12) 0.06722(18) 0.48537(6)
C31 C 0.90511(12) 0.04534(17) 0.46248(6)
C32 C 0.97888(12) 0.15785(18) 0.46559(7)
C33 C 1.07521(12) 0.14218(17) 0.43991(6)
C34 C 1.10806(19) 0.25337(19) 0.40957(11)
H24 H 1.0690 0.3360 0.4041
C35 C 1.1997(2) 0.2429(3) 0.38686(12)
H25 H 1.2206 0.3174 0.3657
C36 C 1.25907(15) 0.1234(2) 0.39561(8)
H26 H 1.3206 0.1175 0.3809
C37 C 1.22703(14) 0.0124(2) 0.42621(9)
H27 H 1.2670 -0.0690 0.4321
C38 C 1.13588(13) 0.0210(2) 0.44820(8)
H28 H 1.1148 -0.0549 0.4688
C39 C 0.92526(12) -0.09183(18) 0.43316(7)
C40 C 0.92610(15) -0.0892(2) 0.38239(7)
H29 H 0.9119 -0.0017 0.3659
C41 C 0.9479(2) -0.2152(3) 0.35558(10)
H30 H 0.9484 -0.2122 0.3213
C42 C 0.96878(16) -0.3452(3) 0.37989(10)
H31 H 0.9835 -0.4298 0.3619
C43 C 0.96806(15) -0.3509(2) 0.43063(9)
H32 H 0.9826 -0.4387 0.4469
C44 C 0.94558(15) -0.2247(2) 0.45716(9)
H33 H 0.9440 -0.2286 0.4914
C45 C 0.73197(13) -0.0394(2) 0.47923(8)
H34 H 0.7419 -0.0946 0.4490
H35 H 0.6719 0.0169 0.4755
C46 C 0.71869(18) -0.1482(2) 0.52122(10)
H36 H 0.7772 -0.2061 0.5249
H37 H 0.6643 -0.2122 0.5141
H38 H 0.7061 -0.0952 0.5512
loop_
_geom_bond_atom_site_label_1
_geom_bond_atom_site_label_2
_geom_bond_site_symmetry_1
_geom_bond_site_symmetry_2
N1 C1 1_555 1_555
C1 C2 1_555 1_555
C2 H1 1_555 1_555
C3 C2 1_555 1_555
H2 C3 1_555 1_555
C4 C3 1_555 1_555
H3 C4 1_555 1_555
C5 C4 1_555 1_555
H4 C5 1_555 1_555
C6 C1 1_555 1_555
C7 C6 1_555 1_555
C8 C7 1_555 1_555
C9 N1 1_555 1_555
C10 C9 1_555 1_555
C11 C10 1_555 1_555
H5 C11 1_555 1_555
C12 C11 1_555 1_555
H6 C12 1_555 1_555
C13 C12 1_555 1_555
H7 C13 1_555 1_555
C14 C13 1_555 1_555
H8 C14 1_555 1_555
C15 C10 1_555 1_555
H9 C15 1_555 1_555
C16 C8 1_555 1_555
C17 C16 1_555 1_555
H10 C17 1_555 1_555
C18 C17 1_555 1_555
H11 C18 1_555 1_555
C19 C18 1_555 1_555
H12 C19 1_555 1_555
C20 C19 1_555 1_555
H13 C20 1_555 1_555
C21 C16 1_555 1_555
H14 C21 1_555 1_555
C22 C7 1_555 1_555
H15 C22 1_555 1_555
H16 C22 1_555 1_555
C23 C22 1_555 1_555
H17 C23 1_555 1_555
H18 C23 1_555 1_555
H19 C23 1_555 1_555
N2 C24 1_555 1_555
C24 C25 1_555 1_555
C25 H20 1_555 1_555
C26 C25 1_555 1_555
H21 C26 1_555 1_555
C27 C26 1_555 1_555
H22 C27 1_555 1_555
C28 C27 1_555 1_555
H23 C28 1_555 1_555
C29 C24 1_555 1_555
C30 C29 1_555 1_555
C31 C30 1_555 1_555
C32 N2 1_555 1_555
C33 C32 1_555 1_555
C34 C33 1_555 1_555
H24 C34 1_555 1_555
C35 C34 1_555 1_555
H25 C35 1_555 1_555
C36 C35 1_555 1_555
H26 C36 1_555 1_555
C37 C36 1_555 1_555
H27 C37 1_555 1_555
C38 C33 1_555 1_555
H28 C38 1_555 1_555
C39 C31 1_555 1_555
C40 C39 1_555 1_555
H29 C40 1_555 1_555
C41 C40 1_555 1_555
H30 C41 1_555 1_555
C42 C41 1_555 1_555
H31 C42 1_555 1_555
C43 C42 1_555 1_555
H32 C43 1_555 1_555
C44 C39 1_555 1_555
H33 C44 1_555 1_555
C45 C30 1_555 1_555
H34 C45 1_555 1_555
H35 C45 1_555 1_555
C46 C45 1_555 1_555
H36 C46 1_555 1_555
H37 C46 1_555 1_555
H38 C46 1_555 1_555
C5 C6 1_555 1_555
C8 C9 1_555 1_555
C14 C15 1_555 1_555
C20 C21 1_555 1_555
C28 C29 1_555 1_555
C31 C32 1_555 1_555
C37 C38 1_555 1_555
C43 C44 1_555 1_555

#END
