
#######################################################################
#
#                 Cambridge Crystallographic Data Centre
#                                CCDC 
#
#######################################################################
#
# If this CIF has been generated from an entry in the Cambridge 
# Structural Database, then it will include bibliographic, chemical, 
# crystal, experimental, refinement or atomic coordinate data resulting 
# from the CCDC's data processing and validation procedures.
#
#######################################################################

data_HOFDOW
_chemical_formula_moiety         'C15 H18 Cl1 N1 O2'
_chemical_name_systematic        
'(2S,3S)-3-(4-Chlorophenyl)-8-methyltropane-2-carboxylic acid'
_symmetry_cell_setting           monoclinic
_symmetry_space_group_name_H-M   'P 21'
_symmetry_Int_Tables_number      4
_space_group_name_Hall           'P 2yb'
loop_
_symmetry_equiv_pos_site_id
_symmetry_equiv_pos_as_xyz
1 x,y,z
2 -x,1/2+y,-z
_cell_length_a                   8.219(6)
_cell_length_b                   6.501(4)
_cell_length_c                   12.731(8)
_cell_angle_alpha                90
_cell_angle_beta                 100.692(10)
_cell_angle_gamma                90
_cell_volume                     668.429
_exptl_crystal_colour            white
_exptl_crystal_description       block
_cell_formula_units_Z            2
_exptl_crystal_recrystallization_method acetone/methanol/ether
loop_
_atom_site_label
_atom_site_type_symbol
_atom_site_fract_x
_atom_site_fract_y
_atom_site_fract_z
Cl1 Cl 0.58072(10) 0.59422(16) 0.46455(6)
O1 O 0.9356(2) 1.0348(4) 0.03436(15)
O2 O 0.7924(2) 1.2275(4) 0.12844(18)
C1 C 0.9057(3) 0.6847(5) 0.2742(2)
H1 H 0.9376 0.6170 0.2169
C2 C 0.7841(3) 0.6008(5) 0.3216(2)
H2 H 0.7354 0.4763 0.2972
C3 C 0.7350(3) 0.7004(5) 0.4043(2)
C4 C 0.8053(4) 0.8847(5) 0.4423(2)
H3 H 0.7703 0.9523 0.4985
C5 C 0.9290(3) 0.9666(5) 0.3950(2)
H4 H 0.9779 1.0902 0.4206
C6 C 0.9824(3) 0.8694(4) 0.3104(2)
C7 C 1.1233(3) 0.9616(4) 0.2641(2)
H5 H 1.2084 0.9996 0.3256
C8 C 1.0761(3) 1.1622(4) 0.2018(2)
H6 H 1.0536 1.2665 0.2528
C9 C 1.2231(3) 1.2388(5) 0.1525(2)
H7 H 1.1976 1.3707 0.1159
N1 N 1.2558(3) 1.0745(4) 0.07558(17)
H8 H 1.157(2) 1.032(5) 0.045(2)
C10 C 1.3402(4) 0.9115(5) 0.1503(2)
H9 H 1.3969 0.8117 0.1121
C11 C 1.2061(4) 0.8080(4) 0.1992(2)
H10 H 1.2545 0.6967 0.2454
H11 H 1.1233 0.7497 0.1428
C12 C 1.3871(3) 1.2488(5) 0.2315(3)
H12 H 1.3688 1.2814 0.3027
H13 H 1.4592 1.3524 0.2099
C13 C 1.4630(3) 1.0344(6) 0.2289(2)
H14 H 1.5688 1.0420 0.2057
H15 H 1.4797 0.9717 0.2992
C14 C 0.9197(3) 1.1414(4) 0.1143(2)
C15 C 1.3556(4) 1.1475(5) -0.0028(2)
H16 H 1.3583 1.0429 -0.0557
H17 H 1.4664 1.1766 0.0334
H18 H 1.3068 1.2702 -0.0369
loop_
_geom_bond_atom_site_label_1
_geom_bond_atom_site_label_2
_geom_bond_site_symmetry_1
_geom_bond_site_symmetry_2
Cl1 C3 1_555 1_555
O1 C14 1_555 1_555
O2 C14 1_555 1_555
C1 H1 1_555 1_555
C2 C1 1_555 1_555
H2 C2 1_555 1_555
C3 C2 1_555 1_555
C4 C3 1_555 1_555
H3 C4 1_555 1_555
C5 C4 1_555 1_555
H4 C5 1_555 1_555
C6 C1 1_555 1_555
C7 C6 1_555 1_555
H5 C7 1_555 1_555
C8 C7 1_555 1_555
H6 C8 1_555 1_555
C9 C8 1_555 1_555
H7 C9 1_555 1_555
N1 C9 1_555 1_555
H8 N1 1_555 1_555
C10 N1 1_555 1_555
H9 C10 1_555 1_555
C11 C7 1_555 1_555
H10 C11 1_555 1_555
H11 C11 1_555 1_555
C12 C9 1_555 1_555
H12 C12 1_555 1_555
H13 C12 1_555 1_555
C13 C10 1_555 1_555
H14 C13 1_555 1_555
H15 C13 1_555 1_555
C14 C8 1_555 1_555
C15 N1 1_555 1_555
H16 C15 1_555 1_555
H17 C15 1_555 1_555
H18 C15 1_555 1_555
C5 C6 1_555 1_555
C10 C11 1_555 1_555
C12 C13 1_555 1_555

#END
