
#######################################################################
#
#                 Cambridge Crystallographic Data Centre
#                                CCDC 
#
#######################################################################
#
# If this CIF has been generated from an entry in the Cambridge 
# Structural Database, then it will include bibliographic, chemical, 
# crystal, experimental, refinement or atomic coordinate data resulting 
# from the CCDC's data processing and validation procedures.
#
#######################################################################

data_HOGYEH
_chemical_formula_moiety         'C27 H23 N5 O1 S2,0.5(C3 H6 O1)'
_chemical_name_systematic        
'5-Ethoxy-6-(1-phenyl-1-(phenylaminothiocarbamoyl)methyl)-8-phenylimino-1,2,4-triazolo(5,1-c)-1,4-thiazine acetone solvate'
_symmetry_cell_setting           monoclinic
_symmetry_space_group_name_H-M   'P 21/c'
_symmetry_Int_Tables_number      14
_space_group_name_Hall           '-P 2ybc'
loop_
_symmetry_equiv_pos_site_id
_symmetry_equiv_pos_as_xyz
1 x,y,z
2 -x,1/2+y,1/2-z
3 -x,-y,-z
4 x,1/2-y,1/2+z
_cell_length_a                   17.563(3)
_cell_length_b                   15.425(3)
_cell_length_c                   19.902(3)
_cell_angle_alpha                90
_cell_angle_beta                 94.11(1)
_cell_angle_gamma                90
_cell_volume                     5377.77
_exptl_crystal_colour            yellow
_exptl_crystal_description       block
_chemical_melting_point          '212-214 deg.C'
_cell_formula_units_Z            8
loop_
_atom_site_label
_atom_site_type_symbol
_atom_site_fract_x
_atom_site_fract_y
_atom_site_fract_z
S1 S 0.4581(1) 0.4080(1) 0.2024(1)
S2 S 0.6635(1) 0.3985(1) 0.2063(1)
O1 O 0.5593(1) 0.3174(1) 0.3750(1)
N1 N 0.4755(1) 0.4334(2) 0.3548(1)
N2 N 0.4733(2) 0.4469(2) 0.4225(1)
N3 N 0.3955(1) 0.5421(2) 0.3631(1)
N4 N 0.3780(1) 0.5545(2) 0.2191(1)
N5 N 0.6821(1) 0.2256(2) 0.2127(1)
C1 C 0.4290(2) 0.4910(2) 0.3207(2)
C2 C 0.4181(2) 0.4929(2) 0.2473(2)
C3 C 0.5139(2) 0.3485(2) 0.2629(2)
C4 C 0.5184(2) 0.3654(2) 0.3283(2)
C5 C 0.4247(2) 0.5130(2) 0.4237(2)
C6 C 0.5574(2) 0.2725(2) 0.2358(2)
C7 C 0.6388(2) 0.2971(2) 0.2177(2)
C8 C 0.6315(2) 0.3566(2) 0.4004(2)
C9 C 0.6670(2) 0.2987(3) 0.4534(2)
C10 C 0.3669(2) 0.5555(2) 0.1474(2)
C11 C 0.4273(2) 0.5743(2) 0.1086(2)
C12 C 0.4153(2) 0.5780(2) 0.0396(2)
C13 C 0.3440(3) 0.5656(2) 0.0085(2)
C14 C 0.2836(2) 0.5480(2) 0.0469(2)
C15 C 0.2950(2) 0.5443(2) 0.1165(2)
C16 C 0.5119(2) 0.2278(2) 0.1779(2)
C17 C 0.4579(2) 0.1660(2) 0.1929(2)
C18 C 0.4152(2) 0.1251(3) 0.1410(3)
C19 C 0.4252(2) 0.1443(3) 0.0748(3)
C20 C 0.4786(2) 0.2051(3) 0.0596(2)
C21 C 0.5218(2) 0.2471(2) 0.1111(2)
C22 C 0.7586(2) 0.2138(2) 0.1962(2)
C23 C 0.8100(2) 0.2799(2) 0.1854(2)
C24 C 0.8835(2) 0.2597(3) 0.1701(2)
C25 C 0.9074(2) 0.1754(3) 0.1657(2)
C26 C 0.8562(2) 0.1098(2) 0.1768(2)
C27 C 0.7823(2) 0.1284(2) 0.1921(2)
H1 H 0.6583(1) 0.1771(2) 0.2214(1)
H2 H 0.4112(2) 0.5383(2) 0.4647(2)
H3 H 0.5636(2) 0.2292(2) 0.2731(2)
H4 H 0.6223(2) 0.4147(2) 0.4194(2)
H5 H 0.6658(2) 0.3633(2) 0.3633(2)
H6 H 0.7157(2) 0.3235(3) 0.4713(2)
H7 H 0.6761(2) 0.2415(3) 0.4340(2)
H8 H 0.6327(2) 0.2927(3) 0.4899(2)
H9 H 0.4768(2) 0.5846(2) 0.1295(2)
H10 H 0.4570(2) 0.5894(2) 0.0131(2)
H11 H 0.3363(3) 0.5690(2) -0.0391(2)
H12 H 0.2341(2) 0.5383(2) 0.0256(2)
H13 H 0.2530(2) 0.5341(2) 0.1429(2)
H14 H 0.4504(2) 0.1519(2) 0.2385(2)
H15 H 0.3783(2) 0.0830(3) 0.1513(3)
H16 H 0.3954(2) 0.1158(3) 0.0398(3)
H17 H 0.4860(2) 0.2184(3) 0.0139(2)
H18 H 0.5584(2) 0.2894(2) 0.1004(2)
H19 H 0.7947(2) 0.3387(2) 0.1885(2)
H20 H 0.9183(2) 0.3053(3) 0.1624(2)
H21 H 0.9580(2) 0.1623(3) 0.1552(2)
H22 H 0.8719(2) 0.0511(2) 0.1739(2)
H23 H 0.7478(2) 0.0826(2) 0.1999(2)
S3 S 1.0683(1) 0.4561(1) 0.1740(1)
S4 S 0.8607(1) 0.4859(1) 0.1121(1)
O2 O 0.9208(1) 0.5498(1) 0.3001(1)
N6 N 1.0007(2) 0.4293(2) 0.3105(1)
N7 N 0.9798(2) 0.4131(2) 0.3742(2)
N8 N 1.0635(2) 0.3108(2) 0.3420(2)
N9 N 1.1309(2) 0.3043(2) 0.2172(2)
N10 N 0.8422(1) 0.6502(2) 0.1530(1)
C28 C 1.0506(2) 0.3672(2) 0.2925(2)
C29 C 1.0862(2) 0.3666(2) 0.2290(2)
C30 C 0.9993(2) 0.5179(2) 0.2124(2)
C31 C 0.9730(2) 0.4993(2) 0.2718(2)
C32 C 1.0185(2) 0.3414(2) 0.3892(2)
C33 C 0.9687(2) 0.5969(2) 0.1734(2)
C34 C 0.8855(2) 0.5799(2) 0.1455(2)
C35 C 0.8446(2) 0.5096(2) 0.3019(2)
C36 C 0.7898(2) 0.5788(3) 0.3186(2)
C37 C 1.1690(2) 0.3032(2) 0.1560(2)
C38 C 1.1304(2) 0.2867(3) 0.0942(2)
C39 C 1.1704(3) 0.2809(3) 0.0375(2)
C40 C 1.2477(3) 0.2907(3) 0.0410(2)
C41 C 1.2857(2) 0.3070(3) 0.1019(2)
C42 C 1.2474(2) 0.3132(2) 0.1595(2)
C43 C 1.0216(2) 0.6286(2) 0.1206(2)
C44 C 1.0877(2) 0.6717(2) 0.1418(2)
C45 C 1.1364(2) 0.7038(3) 0.0966(2)
C46 C 1.1197(2) 0.6935(3) 0.0286(2)
C47 C 1.0543(2) 0.6496(3) 0.0061(2)
C48 C 1.0047(2) 0.6165(2) 0.0516(2)
C49 C 0.7626(2) 0.6638(2) 0.1388(2)
C50 C 0.7110(2) 0.6027(3) 0.1167(2)
C51 C 0.6350(2) 0.6244(3) 0.1047(2)
C52 C 0.6094(2) 0.7052(3) 0.1165(2)
C53 C 0.6609(2) 0.7657(3) 0.1394(2)
C54 C 0.7372(2) 0.7459(2) 0.1515(2)
H24 H 0.8673(1) 0.6957(2) 0.1695(1)
H25 H 1.0150(2) 0.3127(2) 0.4311(2)
H26 H 0.9663(2) 0.6448(2) 0.2070(2)
H27 H 0.8459(2) 0.4634(2) 0.3365(2)
H28 H 0.8289(2) 0.4835(2) 0.2577(2)
H29 H 0.7386(2) 0.5537(3) 0.3201(2)
H30 H 0.7888(2) 0.6240(3) 0.2840(2)
H31 H 0.8058(2) 0.6040(3) 0.3625(2)
H32 H 1.0765(2) 0.2794(3) 0.0910(2)
H33 H 1.1437(3) 0.2698(3) -0.0049(2)
H34 H 1.2748(3) 0.2863(3) 0.0015(2)
H35 H 1.3396(2) 0.3141(3) 0.1045(2)
H36 H 1.2746(2) 0.3245(2) 0.2015(2)
H37 H 1.1000(2) 0.6794(2) 0.1886(2)
H38 H 1.1818(2) 0.7331(3) 0.1125(2)
H39 H 1.1528(2) 0.7164(3) -0.0026(2)
H40 H 1.0429(2) 0.6418(3) -0.0409(2)
H41 H 0.9598(2) 0.5862(2) 0.0357(2)
H42 H 0.7273(2) 0.5450(3) 0.1095(2)
H43 H 0.5999(2) 0.5815(3) 0.0878(2)
H44 H 0.5568(2) 0.7191(3) 0.1091(2)
H45 H 0.6440(2) 0.8231(3) 0.1472(2)
H46 H 0.7721(2) 0.7890(2) 0.1685(2)
O3 O 0.7380(2) 0.4937(3) 0.4640(2)
C55 C 0.7781(3) 0.5711(3) 0.5602(3)
C56 C 0.7895(3) 0.5115(4) 0.5046(3)
C57 C 0.8680(3) 0.4740(5) 0.5007(3)
H47 H 0.8279(3) 0.5897(18) 0.5807(12)
H48 H 0.7496(18) 0.5417(8) 0.5941(9)
H49 H 0.7494(18) 0.6218(11) 0.5431(4)
H50 H 0.9005(9) 0.5160(13) 0.4794(24)
H51 H 0.8647(4) 0.4206(18) 0.4740(22)
H52 H 0.8900(12) 0.4610(32) 0.5462(3)
loop_
_geom_bond_atom_site_label_1
_geom_bond_atom_site_label_2
_geom_bond_site_symmetry_1
_geom_bond_site_symmetry_2
S1 C2 1_555 1_555
S2 C7 1_555 1_555
O1 C4 1_555 1_555
N1 N2 1_555 1_555
N2 C5 1_555 1_555
N3 C1 1_555 1_555
N4 C2 1_555 1_555
N5 C7 1_555 1_555
C1 N1 1_555 1_555
C2 C1 1_555 1_555
C3 S1 1_555 1_555
C4 N1 1_555 1_555
C5 N3 1_555 1_555
C6 C3 1_555 1_555
C7 C6 1_555 1_555
C8 O1 1_555 1_555
C9 C8 1_555 1_555
C10 N4 1_555 1_555
C11 C10 1_555 1_555
C12 C11 1_555 1_555
C13 C12 1_555 1_555
C14 C13 1_555 1_555
C15 C10 1_555 1_555
C16 C6 1_555 1_555
C17 C16 1_555 1_555
C18 C17 1_555 1_555
C19 C18 1_555 1_555
C20 C19 1_555 1_555
C21 C16 1_555 1_555
C22 N5 1_555 1_555
C23 C22 1_555 1_555
C24 C23 1_555 1_555
C25 C24 1_555 1_555
C26 C25 1_555 1_555
C27 C22 1_555 1_555
S3 C29 1_555 1_555
S4 C34 1_555 1_555
O2 C31 1_555 1_555
N6 N7 1_555 1_555
N7 C32 1_555 1_555
N8 C28 1_555 1_555
N9 C29 1_555 1_555
N10 C34 1_555 1_555
C28 N6 1_555 1_555
C29 C28 1_555 1_555
C30 S3 1_555 1_555
C31 N6 1_555 1_555
C32 N8 1_555 1_555
C33 C30 1_555 1_555
C34 C33 1_555 1_555
C35 O2 1_555 1_555
C36 C35 1_555 1_555
C37 N9 1_555 1_555
C38 C37 1_555 1_555
C39 C38 1_555 1_555
C40 C39 1_555 1_555
C41 C40 1_555 1_555
C42 C37 1_555 1_555
C43 C33 1_555 1_555
C44 C43 1_555 1_555
C45 C44 1_555 1_555
C46 C45 1_555 1_555
C47 C46 1_555 1_555
C48 C43 1_555 1_555
C49 N10 1_555 1_555
C50 C49 1_555 1_555
C51 C50 1_555 1_555
C52 C51 1_555 1_555
C53 C52 1_555 1_555
C54 C49 1_555 1_555
O3 C56 1_555 1_555
C55 C56 1_555 1_555
C56 C57 1_555 1_555
C57 H50 1_555 1_555
H1 N5 1_555 1_555
H2 C5 1_555 1_555
H3 C6 1_555 1_555
H4 C8 1_555 1_555
H5 C8 1_555 1_555
H6 C9 1_555 1_555
H7 C9 1_555 1_555
H8 C9 1_555 1_555
H9 C11 1_555 1_555
H10 C12 1_555 1_555
H11 C13 1_555 1_555
H12 C14 1_555 1_555
H13 C15 1_555 1_555
H14 C17 1_555 1_555
H15 C18 1_555 1_555
H16 C19 1_555 1_555
H17 C20 1_555 1_555
H18 C21 1_555 1_555
H19 C23 1_555 1_555
H20 C24 1_555 1_555
H21 C25 1_555 1_555
H22 C26 1_555 1_555
H23 C27 1_555 1_555
H24 N10 1_555 1_555
H25 C32 1_555 1_555
H26 C33 1_555 1_555
H27 C35 1_555 1_555
H28 C35 1_555 1_555
H29 C36 1_555 1_555
H30 C36 1_555 1_555
H31 C36 1_555 1_555
H32 C38 1_555 1_555
H33 C39 1_555 1_555
H34 C40 1_555 1_555
H35 C41 1_555 1_555
H36 C42 1_555 1_555
H37 C44 1_555 1_555
H38 C45 1_555 1_555
H39 C46 1_555 1_555
H40 C47 1_555 1_555
H41 C48 1_555 1_555
H42 C50 1_555 1_555
H43 C51 1_555 1_555
H44 C52 1_555 1_555
H45 C53 1_555 1_555
H46 C54 1_555 1_555
H47 C55 1_555 1_555
H48 C55 1_555 1_555
H49 C55 1_555 1_555
H51 C57 1_555 1_555
H52 C57 1_555 1_555
C3 C4 1_555 1_555
C14 C15 1_555 1_555
C20 C21 1_555 1_555
C26 C27 1_555 1_555
C30 C31 1_555 1_555
C41 C42 1_555 1_555
C47 C48 1_555 1_555
C53 C54 1_555 1_555

#END
