
#######################################################################
#
#                 Cambridge Crystallographic Data Centre
#                                CCDC 
#
#######################################################################
#
# If this CIF has been generated from an entry in the Cambridge 
# Structural Database, then it will include bibliographic, chemical, 
# crystal, experimental, refinement or atomic coordinate data resulting 
# from the CCDC's data processing and validation procedures.
#
#######################################################################

data_HOHCIR
_chemical_formula_moiety         'C16 H15 N3 O4'
_chemical_name_systematic        
(2S,4S)-4-benzyl-2-(4-nitrophenyl)-3-nitroso-1,3-oxazolidine
_symmetry_cell_setting           monoclinic
_symmetry_space_group_name_H-M   'P 21'
_symmetry_Int_Tables_number      4
_space_group_name_Hall           'P 2yb'
loop_
_symmetry_equiv_pos_site_id
_symmetry_equiv_pos_as_xyz
1 x,y,z
2 -x,1/2+y,-z
_cell_length_a                   6.7170(3)
_cell_length_b                   13.5145(7)
_cell_length_c                   8.2169(4)
_cell_angle_alpha                90.00
_cell_angle_beta                 96.578(2)
_cell_angle_gamma                90.00
_cell_volume                     740.994
_chemical_melting_point          '69 deg.C'
_cell_formula_units_Z            2
loop_
_atom_site_label
_atom_site_type_symbol
_atom_site_fract_x
_atom_site_fract_y
_atom_site_fract_z
C1 C 0.0363(5) 0.1321(2) 0.8170(4)
C2 C 0.6249(5) 0.0364(3) 0.2994(4)
H1 H 0.7629 0.0155 0.3265
H2 H 0.6171 0.0798 0.2049
C3 C 0.3447(4) 0.0859(2) 0.4017(3)
H3 H 0.3043 0.1371 0.3200
C4 C 0.2402(4) 0.1027(2) 0.5509(3)
C5 C 0.0488(4) 0.1414(2) 0.5313(3)
H4 H -0.0097 0.1588 0.4272
C6 C 0.2287(5) 0.0968(3) 0.8416(4)
H5 H 0.2896 0.0838 0.9468
C7 C 0.3303(5) 0.0807(3) 0.7074(4)
H6 H 0.4596 0.0551 0.7217
C8 C -0.0570(5) 0.1546(2) 0.6642(3)
H7 H -0.1879 0.1782 0.6505
C9 C 0.6052(5) -0.1466(2) 0.5330(4)
C10 C 0.7946(6) -0.1234(3) 0.6103(5)
H8 H 0.8961 -0.1070 0.5471
C11 C 0.4881(5) -0.0526(3) 0.2651(4)
H9 H 0.4618 -0.0629 0.1465
C12 C 0.5631(5) -0.1493(3) 0.3482(4)
H10 H 0.4639 -0.2003 0.3186
H11 H 0.6851 -0.1688 0.3041
C13 C 0.4570(6) -0.1705(3) 0.6303(5)
H12 H 0.3286 -0.1858 0.5821
C14 C 0.8352(7) -0.1239(3) 0.7790(5)
H13 H 0.9624 -0.1074 0.8284
C15 C 0.4998(8) -0.1717(3) 0.8005(6)
H14 H 0.3998 -0.1880 0.8653
C16 C 0.6879(9) -0.1490(3) 0.8726(5)
H15 H 0.7156 -0.1506 0.9861
N1 N -0.0765(5) 0.1476(2) 0.9575(3)
N2 N 0.1225(4) -0.0452(2) 0.2908(4)
N3 N 0.3067(4) -0.0136(2) 0.3272(3)
O1 O 0.0135(4) 0.1409(3) 1.0948(3)
O2 O -0.2547(4) 0.1656(2) 0.9335(3)
O3 O 0.1081(4) -0.1216(2) 0.2055(3)
O4 O 0.5527(3) 0.08575(18) 0.4366(2)
loop_
_geom_bond_atom_site_label_1
_geom_bond_atom_site_label_2
_geom_bond_site_symmetry_1
_geom_bond_site_symmetry_2
C1 C6 1_555 1_555
C2 H1 1_555 1_555
H2 C2 1_555 1_555
C3 H3 1_555 1_555
C4 C3 1_555 1_555
C5 C4 1_555 1_555
H4 C5 1_555 1_555
C6 H5 1_555 1_555
C7 C4 1_555 1_555
H6 C7 1_555 1_555
C8 C1 1_555 1_555
H7 C8 1_555 1_555
C9 C10 1_555 1_555
C10 H8 1_555 1_555
C11 C2 1_555 1_555
H9 C11 1_555 1_555
C12 C9 1_555 1_555
H10 C12 1_555 1_555
H11 C12 1_555 1_555
C13 C9 1_555 1_555
H12 C13 1_555 1_555
C14 C10 1_555 1_555
H13 C14 1_555 1_555
C15 C13 1_555 1_555
H14 C15 1_555 1_555
C16 C14 1_555 1_555
H15 C16 1_555 1_555
N1 C1 1_555 1_555
N2 N3 1_555 1_555
N3 C3 1_555 1_555
O1 N1 1_555 1_555
O2 N1 1_555 1_555
O3 N2 1_555 1_555
O4 C2 1_555 1_555
C3 O4 1_555 1_555
C5 C8 1_555 1_555
C6 C7 1_555 1_555
C11 C12 1_555 1_555
C11 N3 1_555 1_555
C15 C16 1_555 1_555

#END
