
#######################################################################
#
#                 Cambridge Crystallographic Data Centre
#                                CCDC 
#
#######################################################################
#
# If this CIF has been generated from an entry in the Cambridge 
# Structural Database, then it will include bibliographic, chemical, 
# crystal, experimental, refinement or atomic coordinate data resulting 
# from the CCDC's data processing and validation procedures.
#
#######################################################################

data_HOHSUU
_chemical_formula_moiety         'C18 H28 B2 O6 S1'
_chemical_name_systematic        
5,7-bis(4,4,5,5-tetramethyl-1,3,2-dioxaborolan-2-yl)-2,3-dihydrothieno[3,4-b][1,4]dioxine
_symmetry_cell_setting           monoclinic
_symmetry_space_group_name_H-M   'P 21/n'
_symmetry_Int_Tables_number      14
_space_group_name_Hall           '-P 2yn'
loop_
_symmetry_equiv_pos_site_id
_symmetry_equiv_pos_as_xyz
1 x,y,z
2 1/2-x,1/2+y,1/2-z
3 -x,-y,-z
4 1/2+x,1/2-y,1/2+z
_cell_length_a                   10.3107(8)
_cell_length_b                   13.7151(12)
_cell_length_c                   29.572(2)
_cell_angle_alpha                90
_cell_angle_beta                 96.565(10)
_cell_angle_gamma                90
_cell_volume                     4154.42
_exptl_crystal_colour            colorless
_cell_formula_units_Z            8
_exptl_crystal_recrystallization_method dichloromethane/hexane
loop_
_atom_site_label
_atom_site_type_symbol
_atom_site_fract_x
_atom_site_fract_y
_atom_site_fract_z
S1 S 0.72395(3) 0.77575(3) 0.351685(11)
O1 O 0.95080(11) 0.74117(8) 0.46368(4)
O2 O 0.95545(10) 0.57376(7) 0.40387(3)
O3 O 0.70174(10) 0.97919(7) 0.39492(3)
O4 O 0.81586(10) 0.94717(7) 0.46463(3)
O5 O 0.67646(11) 0.61293(8) 0.27652(3)
O6 O 0.81576(11) 0.49918(8) 0.31209(3)
B1 B 0.77266(16) 0.91295(12) 0.42231(6)
B2 B 0.76426(16) 0.59075(12) 0.31338(5)
C1 C 0.79861(14) 0.66323(10) 0.35276(5)
C2 C 0.87960(14) 0.65382(10) 0.39285(5)
C3 C 0.87852(14) 0.73642(10) 0.42201(5)
C4 C 0.79947(14) 0.81058(10) 0.40415(5)
C5 C 0.9932(4) 0.6440(3) 0.47931(12)
H1 H 0.9174 0.6066 0.4877
H2 H 1.0575 0.6498 0.5067
C6 C 1.0542(3) 0.5902(2) 0.44257(11)
H3 H 1.1269 0.6290 0.4328
H4 H 1.0896 0.5269 0.4545
C7 C 0.67243(15) 1.05908(11) 0.42485(5)
C8 C 0.78769(15) 1.05219(11) 0.46380(5)
C9 C 0.64827(16) 0.52130(12) 0.25208(5)
C10 C 0.77432(16) 0.46109(12) 0.26635(5)
C11 C 0.52724(17) 0.47858(14) 0.26977(6)
H5 H 0.4547 0.5248 0.2643
H6 H 0.5456 0.4663 0.3025
H7 H 0.5037 0.4172 0.2540
C12 C 0.6221(2) 0.54303(14) 0.20145(6)
H8 H 0.6937 0.5822 0.1920
H9 H 0.5399 0.5791 0.1953
H10 H 0.6158 0.4816 0.1844
C13 C 0.7535(2) 0.35209(12) 0.26979(6)
H11 H 0.7130 0.3272 0.2405
H12 H 0.6961 0.3389 0.2933
H13 H 0.8377 0.3197 0.2779
C14 C 0.88409(18) 0.48411(15) 0.23762(6)
H14 H 0.9656 0.4548 0.2517
H15 H 0.8948 0.5549 0.2357
H16 H 0.8624 0.4574 0.2070
C15 C 0.54046(16) 1.03570(13) 0.44046(6)
H17 H 0.4760 1.0262 0.4138
H18 H 0.5130 1.0898 0.4588
H19 H 0.5473 0.9760 0.4588
C16 C 0.66610(19) 1.15295(12) 0.39756(6)
H20 H 0.7510 1.1647 0.3867
H21 H 0.6449 1.2074 0.4169
H22 H 0.5987 1.1473 0.3715
C17 C 0.75588(18) 1.08249(13) 0.51054(6)
H23 H 0.6862 1.0408 0.5196
H24 H 0.7270 1.1506 0.5096
H25 H 0.8338 1.0757 0.5326
C18 C 0.91073(16) 1.10238(12) 0.45225(6)
H26 H 0.9837 1.0857 0.4752
H27 H 0.8975 1.1731 0.4519
H28 H 0.9305 1.0807 0.4222
S2 S 0.47133(4) 0.26645(3) 0.530033(12)
O7 O 0.44326(11) 0.48918(8) 0.60851(4)
O8 O 0.28944(10) 0.51342(8) 0.52059(3)
O9 O 0.63737(11) 0.19462(8) 0.61835(4)
O10 O 0.64064(11) 0.33762(8) 0.65852(4)
O11 O 0.36166(10) 0.27519(8) 0.42522(3)
O12 O 0.18988(10) 0.37576(8) 0.43572(3)
B3 B 0.59457(16) 0.28882(13) 0.61974(6)
B4 B 0.30528(16) 0.33593(12) 0.45402(5)
C21 C 0.50486(14) 0.33303(11) 0.57947(5)
C22 C 0.43800(14) 0.41991(11) 0.57509(5)
C23 C 0.36214(14) 0.43127(11) 0.53198(5)
C24 C 0.36902(14) 0.35349(11) 0.50319(5)
C25 C 0.34404(17) 0.56270(11) 0.59894(5)
H33 H 0.3662 0.6202 0.6186
H34 H 0.2593 0.5367 0.6063
C26 C 0.33105(16) 0.59366(12) 0.55016(5)
H35 H 0.2667 0.6473 0.5453
H36 H 0.4161 0.6183 0.5425
C27 C 0.73620(15) 0.18080(12) 0.65724(5)
C28 C 0.70684(15) 0.26602(11) 0.68968(5)
C29 C 0.26141(16) 0.25656(13) 0.38699(5)
C30 C 0.17314(15) 0.34935(12) 0.38727(5)
C31 C 0.7189(2) 0.07917(13) 0.67591(6)
H37 H 0.6283 0.0705 0.6821
H38 H 0.7774 0.0708 0.7042
H39 H 0.7399 0.0306 0.6535
C32 C 0.86816(17) 0.19016(18) 0.63921(7)
H40 H 0.8740 0.1427 0.6148
H41 H 0.9378 0.1777 0.6640
H42 H 0.8776 0.2562 0.6274
C33 C 0.60991(17) 0.23792(13) 0.72270(5)
H43 H 0.5836 0.2964 0.7384
H44 H 0.6510 0.1915 0.7451
H45 H 0.5328 0.2078 0.7058
C34 C 0.82609(18) 0.31442(14) 0.71500(6)
H46 H 0.8816 0.3403 0.6930
H47 H 0.8753 0.2664 0.7346
H48 H 0.7984 0.3679 0.7337
C35 C 0.19245(19) 0.16333(13) 0.39942(7)
H49 H 0.1244 0.1464 0.3748
H50 H 0.1527 0.1738 0.4276
H51 H 0.2559 0.1100 0.4039
C36 C 0.3258(2) 0.24266(18) 0.34418(6)
H52 H 0.3793 0.1835 0.3470
H53 H 0.3812 0.2990 0.3396
H54 H 0.2584 0.2363 0.3181
C37 C 0.02951(16) 0.33095(13) 0.37284(6)
H55 H -0.0185 0.3925 0.3734
H56 H -0.0038 0.2846 0.3939
H57 H 0.0178 0.3039 0.3420
C38 C 0.22080(19) 0.43550(14) 0.36155(6)
H58 H 0.2073 0.4222 0.3288
H59 H 0.3140 0.4458 0.3710
H60 H 0.1720 0.4941 0.3682
C19? C 1.0453(5) 0.6665(3) 0.47022(15)
H29? H 1.0740 0.6599 0.5032
H30? H 1.1222 0.6851 0.4550
C20? C 0.9945(4) 0.5699(3) 0.45207(13)
H31? H 1.0635 0.5199 0.4584
H32? H 0.9190 0.5502 0.4679
loop_
_geom_bond_atom_site_label_1
_geom_bond_atom_site_label_2
_geom_bond_site_symmetry_1
_geom_bond_site_symmetry_2
S1 C1 1_555 1_555
O1 C3 1_555 1_555
O2 C2 1_555 1_555
O3 B1 1_555 1_555
O4 B1 1_555 1_555
O5 B2 1_555 1_555
O6 B2 1_555 1_555
B1 C4 1_555 1_555
B2 C1 1_555 1_555
C1 C2 1_555 1_555
C2 C3 1_555 1_555
C3 C4 1_555 1_555
C4 S1 1_555 1_555
C5 O1 1_555 1_555
H1 C5 1_555 1_555
H2 C5 1_555 1_555
C6 O2 1_555 1_555
H3 C6 1_555 1_555
H4 C6 1_555 1_555
C7 O3 1_555 1_555
C8 O4 1_555 1_555
C9 O5 1_555 1_555
C10 O6 1_555 1_555
C11 C9 1_555 1_555
H5 C11 1_555 1_555
H6 C11 1_555 1_555
H7 C11 1_555 1_555
C12 C9 1_555 1_555
H8 C12 1_555 1_555
H9 C12 1_555 1_555
H10 C12 1_555 1_555
C13 C10 1_555 1_555
H11 C13 1_555 1_555
H12 C13 1_555 1_555
H13 C13 1_555 1_555
C14 C10 1_555 1_555
H14 C14 1_555 1_555
H15 C14 1_555 1_555
H16 C14 1_555 1_555
C15 C7 1_555 1_555
H17 C15 1_555 1_555
H18 C15 1_555 1_555
H19 C15 1_555 1_555
C16 C7 1_555 1_555
H20 C16 1_555 1_555
H21 C16 1_555 1_555
H22 C16 1_555 1_555
C17 C8 1_555 1_555
H23 C17 1_555 1_555
H24 C17 1_555 1_555
H25 C17 1_555 1_555
C18 C8 1_555 1_555
H26 C18 1_555 1_555
H27 C18 1_555 1_555
H28 C18 1_555 1_555
S2 C21 1_555 1_555
O7 C22 1_555 1_555
O8 C23 1_555 1_555
O9 B3 1_555 1_555
O10 B3 1_555 1_555
O11 B4 1_555 1_555
O12 B4 1_555 1_555
B3 C21 1_555 1_555
B4 C24 1_555 1_555
C21 C22 1_555 1_555
C22 C23 1_555 1_555
C23 C24 1_555 1_555
C24 S2 1_555 1_555
C25 O7 1_555 1_555
H33 C25 1_555 1_555
H34 C25 1_555 1_555
C26 O8 1_555 1_555
H35 C26 1_555 1_555
H36 C26 1_555 1_555
C27 O9 1_555 1_555
C28 O10 1_555 1_555
C29 O11 1_555 1_555
C30 O12 1_555 1_555
C31 C27 1_555 1_555
H37 C31 1_555 1_555
H38 C31 1_555 1_555
H39 C31 1_555 1_555
C32 C27 1_555 1_555
H40 C32 1_555 1_555
H41 C32 1_555 1_555
H42 C32 1_555 1_555
C33 C28 1_555 1_555
H43 C33 1_555 1_555
H44 C33 1_555 1_555
H45 C33 1_555 1_555
C34 C28 1_555 1_555
H46 C34 1_555 1_555
H47 C34 1_555 1_555
H48 C34 1_555 1_555
C35 C29 1_555 1_555
H49 C35 1_555 1_555
H50 C35 1_555 1_555
H51 C35 1_555 1_555
C36 C29 1_555 1_555
H52 C36 1_555 1_555
H53 C36 1_555 1_555
H54 C36 1_555 1_555
C37 C30 1_555 1_555
H55 C37 1_555 1_555
H56 C37 1_555 1_555
H57 C37 1_555 1_555
C38 C30 1_555 1_555
H58 C38 1_555 1_555
H59 C38 1_555 1_555
H60 C38 1_555 1_555
C5 C6 1_555 1_555
C7 C8 1_555 1_555
C9 C10 1_555 1_555
C25 C26 1_555 1_555
C27 C28 1_555 1_555
C29 C30 1_555 1_555

#END
