
#######################################################################
#
#                 Cambridge Crystallographic Data Centre
#                                CCDC 
#
#######################################################################
#
# If this CIF has been generated from an entry in the Cambridge 
# Structural Database, then it will include bibliographic, chemical, 
# crystal, experimental, refinement or atomic coordinate data resulting 
# from the CCDC's data processing and validation procedures.
#
#######################################################################

data_HOHTAZ02
_chemical_name_common            'Diaminomethaniminium dinitroazanide'
_chemical_formula_moiety         'C1 H6 N3 1+,N3 O4 1-'
_chemical_name_systematic        'Guanidinium dinitramide'
_symmetry_cell_setting           triclinic
_symmetry_space_group_name_H-M   'P -1'
_symmetry_Int_Tables_number      2
_space_group_name_Hall           '-P 1'
loop_
_symmetry_equiv_pos_site_id
_symmetry_equiv_pos_as_xyz
1 x,y,z
2 -x,-y,-z
_cell_length_a                   8.332(5)
_cell_length_b                   9.306(6)
_cell_length_c                   9.878(6)
_cell_angle_alpha                84.659(11)
_cell_angle_beta                 69.213(12)
_cell_angle_gamma                67.451(12)
_cell_volume                     660.498
_cell_formula_units_Z            4
_exptl_crystal_preparation       explosive
loop_
_atom_site_label
_atom_site_type_symbol
_atom_site_fract_x
_atom_site_fract_y
_atom_site_fract_z
N1 N 0.4360(5) 0.6872(4) 0.0338(4)
N2 N 0.3969(6) 0.6564(4) 0.1776(5)
N3 N 0.6219(6) 0.6512(4) -0.0463(5)
O1 O 0.6480(5) 0.6625(4) -0.1773(4)
O2 O 0.7458(5) 0.6195(5) 0.0023(4)
O3 O 0.2277(5) 0.6973(4) 0.2428(4)
O4 O 0.5098(5) 0.5923(5) 0.2362(4)
N4 N 0.2993(5) 1.0191(4) 0.3630(4)
N7 N 0.4823(6) 0.9502(5) 0.2781(5)
O5 O 0.5098(5) 0.9749(4) 0.1475(4)
N9 N 0.2559(6) 0.9585(5) 0.4975(5)
O6 O 0.1061(5) 1.0413(4) 0.5847(4)
O7 O 0.6095(5) 0.8793(4) 0.3230(4)
O8 O 0.3463(5) 0.8282(4) 0.5263(4)
N5 N -0.0243(5) 0.8083(4) 1.0650(4)
H1 H 0.0610 0.7650 1.1021
H2 H -0.1388 0.8324 1.1184
N6 N 0.1950(6) 0.8012(4) 0.8447(4)
H3 H 0.2806 0.7579 0.8814
H4 H 0.2236 0.8206 0.7542
C1 C 0.0204(7) 0.8377(5) 0.9267(5)
N8 N -0.1119(5) 0.9060(4) 0.8714(4)
H5 H -0.0838 0.9268 0.7812
H6 H -0.2261 0.9298 0.9254
N10 N 0.0983(5) 0.4866(4) 0.7401(4)
H7 H 0.1746 0.4066 0.7658
H8 H -0.0103 0.5360 0.8013
N11 N 0.3116(6) 0.4591(5) 0.5142(4)
H9 H 0.3420 0.4889 0.4268
H10 H 0.3896 0.3804 0.5398
C2 C 0.1473(7) 0.5332(5) 0.6078(5)
N12 N 0.0295(5) 0.6528(4) 0.5679(4)
H11 H 0.0606 0.6821 0.4804
H12 H -0.0790 0.7022 0.6291
loop_
_geom_bond_atom_site_label_1
_geom_bond_atom_site_label_2
_geom_bond_site_symmetry_1
_geom_bond_site_symmetry_2
N1 N2 1_555 1_555
N2 O3 1_555 1_555
N3 N1 1_555 1_555
O1 N3 1_555 1_555
O2 N3 1_555 1_555
O4 N2 1_555 1_555
N4 N7 1_555 1_555
N5 H1 1_555 1_555
H2 N5 1_555 1_555
N6 H3 1_555 1_555
H4 N6 1_555 1_555
N7 O5 1_555 1_555
C1 N5 1_555 1_555
N8 C1 1_555 1_555
H5 N8 1_555 1_555
H6 N8 1_555 1_555
N9 N4 1_555 1_555
O6 N9 1_555 1_555
O7 N7 1_555 1_555
O8 N9 1_555 1_555
N10 H7 1_555 1_555
H8 N10 1_555 1_555
N11 H9 1_555 1_555
H10 N11 1_555 1_555
C2 N10 1_555 1_555
N12 C2 1_555 1_555
H11 N12 1_555 1_555
H12 N12 1_555 1_555
N6 C1 1_555 1_555
N11 C2 1_555 1_555

#END
