
#######################################################################
#
#                 Cambridge Crystallographic Data Centre
#                                CCDC 
#
#######################################################################
#
# If this CIF has been generated from an entry in the Cambridge 
# Structural Database, then it will include bibliographic, chemical, 
# crystal, experimental, refinement or atomic coordinate data resulting 
# from the CCDC's data processing and validation procedures.
#
#######################################################################

data_HOHVAD
_chemical_formula_moiety         'C10 H8 Br1 N3 O2'
_chemical_name_systematic        
'methyl 1-(4-bromophenyl)-1H-1,2,3-triazole-4-carboxylate'
_symmetry_cell_setting           orthorhombic
_symmetry_space_group_name_H-M   'P c c n'
_symmetry_Int_Tables_number      56
_space_group_name_Hall           '-P 2ab 2ac'
loop_
_symmetry_equiv_pos_site_id
_symmetry_equiv_pos_as_xyz
1 x,y,z
2 1/2+x,-y,1/2-z
3 -x,1/2+y,1/2-z
4 1/2-x,1/2-y,z
5 -x,-y,-z
6 1/2-x,y,1/2+z
7 x,1/2-y,1/2+z
8 1/2+x,1/2+y,-z
_cell_length_a                   11.4437(4)
_cell_length_b                   22.5577(8)
_cell_length_c                   8.1293(3)
_cell_angle_alpha                90
_cell_angle_beta                 90
_cell_angle_gamma                90
_cell_volume                     2098.53
_exptl_crystal_colour            colorless
_exptl_crystal_description       Block
_cell_formula_units_Z            8
loop_
_atom_site_label
_atom_site_type_symbol
_atom_site_fract_x
_atom_site_fract_y
_atom_site_fract_z
Br1 Br 0.92973(2) 0.72875(2) 0.78891(2)
O1 O 0.97704(11) 0.40436(6) -0.02087(16)
O2 O 0.79015(11) 0.37278(5) -0.02072(16)
N1 N 0.72351(13) 0.46494(6) 0.18234(18)
N2 N 0.71908(13) 0.50941(7) 0.28445(17)
N3 N 0.83130(12) 0.52825(6) 0.30915(16)
C1 C 0.82578(17) 0.32756(8) -0.1370(2)
H1 H 0.8582 0.3465 -0.2355
H2 H 0.7579 0.3035 -0.1676
H3 H 0.8853 0.3022 -0.0865
C2 C 0.87733(14) 0.40897(7) 0.0252(2)
C3 C 0.83748(14) 0.45511(7) 0.1404(2)
C4 C 0.90678(15) 0.49528(8) 0.2205(2)
H4 H 0.9894 0.4991 0.2150
C5 C 0.85435(14) 0.57638(7) 0.4194(2)
C6 C 0.96915(15) 0.58918(8) 0.4618(2)
H5 H 1.0318 0.5668 0.4167
C7 C 0.99112(15) 0.63513(8) 0.5711(2)
H6 H 1.0691 0.6445 0.6018
C8 C 0.89868(15) 0.66717(8) 0.6350(2)
C9 C 0.76169(14) 0.60884(7) 0.4823(2)
H7 H 0.6837 0.5997 0.4512
C10 C 0.78420(15) 0.65482(8) 0.5913(2)
H8 H 0.7218 0.6776 0.6355
loop_
_geom_bond_atom_site_label_1
_geom_bond_atom_site_label_2
_geom_bond_site_symmetry_1
_geom_bond_site_symmetry_2
Br1 C8 1_555 1_555
O1 C2 1_555 1_555
O2 C1 1_555 1_555
N1 N2 1_555 1_555
N2 N3 1_555 1_555
N3 C4 1_555 1_555
C1 H1 1_555 1_555
H2 C1 1_555 1_555
H3 C1 1_555 1_555
C2 O2 1_555 1_555
C3 N1 1_555 1_555
C4 C3 1_555 1_555
H4 C4 1_555 1_555
C5 N3 1_555 1_555
C6 C5 1_555 1_555
H5 C6 1_555 1_555
C7 C6 1_555 1_555
H6 C7 1_555 1_555
C8 C7 1_555 1_555
C9 C5 1_555 1_555
H7 C9 1_555 1_555
C10 C8 1_555 1_555
H8 C10 1_555 1_555
C2 C3 1_555 1_555
C9 C10 1_555 1_555

#END
