
#######################################################################
#
#                 Cambridge Crystallographic Data Centre
#                                CCDC 
#
#######################################################################
#
# If this CIF has been generated from an entry in the Cambridge 
# Structural Database, then it will include bibliographic, chemical, 
# crystal, experimental, refinement or atomic coordinate data resulting 
# from the CCDC's data processing and validation procedures.
#
#######################################################################

data_HOJKIC
_chemical_formula_moiety         'C17 H21 N2 O6 P1,C1 H4 O1'
_chemical_name_systematic        
'Diethyl ((2-hydroxyphenyl)((4-nitrophenyl)amino)methyl)phosphonate methanol solvate'
_symmetry_cell_setting           triclinic
_symmetry_space_group_name_H-M   'P -1'
_symmetry_Int_Tables_number      2
_space_group_name_Hall           '-P 1'
loop_
_symmetry_equiv_pos_site_id
_symmetry_equiv_pos_as_xyz
1 x,y,z
2 -x,-y,-z
_cell_length_a                   9.401(6)
_cell_length_b                   10.061(6)
_cell_length_c                   11.963(7)
_cell_angle_alpha                101.328(10)
_cell_angle_beta                 94.183(10)
_cell_angle_gamma                104.549(9)
_cell_volume                     1064.93
_exptl_crystal_colour            yellow
_exptl_crystal_description       block
_cell_formula_units_Z            2
loop_
_atom_site_label
_atom_site_type_symbol
_atom_site_fract_x
_atom_site_fract_y
_atom_site_fract_z
C1 C 0.4255(3) 0.3224(2) 0.17400(19)
C2 C 0.4364(3) 0.2362(3) 0.2493(2)
H1 H 0.5292 0.2347 0.2808
C3 C 0.3111(4) 0.1532(3) 0.2778(2)
H2 H 0.3192 0.0962 0.3291
C4 C 0.1720(4) 0.1538(3) 0.2302(3)
H3 H 0.0868 0.0979 0.2497
C5 C 0.1618(3) 0.2385(3) 0.1535(2)
H4 H 0.0688 0.2379 0.1207
C6 C 0.2871(3) 0.3241(2) 0.12431(18)
C7 C 0.2760(2) 0.4232(2) 0.04485(17)
H5 H 0.3749 0.4597 0.0239
C8 C 0.2056(2) 0.2631(2) -0.14895(19)
C9 C 0.1083(3) 0.2150(2) -0.2517(2)
H6 H 0.0257 0.2492 -0.2595
C10 C 0.1327(3) 0.1185(3) -0.3410(2)
H7 H 0.0681 0.0884 -0.4092
C11 C 0.2548(3) 0.0660(2) -0.3287(2)
C12 C 0.3527(3) 0.1124(3) -0.2294(2)
H8 H 0.4347 0.0772 -0.2227
C13 C 0.3303(3) 0.2105(2) -0.1397(2)
H9 H 0.3976 0.2422 -0.0729
C14 C 0.3182(4) 0.6256(4) 0.3468(2)
H10 H 0.2782 0.7004 0.3841
H11 H 0.2476 0.5363 0.3455
C15 C 0.4561(4) 0.6334(4) 0.4116(3)
H12 H 0.5020 0.5674 0.3700
H13 H 0.4377 0.6111 0.4846
H14 H 0.5206 0.7269 0.4237
C16 C 0.2262(3) 0.8152(3) 0.0724(2)
H15 H 0.2731 0.8615 0.1500
H16 H 0.1208 0.8069 0.0696
C17 C 0.2894(4) 0.8987(3) -0.0089(3)
H17 H 0.3945 0.9110 -0.0026
H18 H 0.2697 0.9891 0.0087
H19 H 0.2453 0.8505 -0.0858
N1 N 0.1748(2) 0.3567(2) -0.06050(16)
N2 N 0.2802(3) -0.0373(3) -0.4225(2)
O1 O 0.54719(18) 0.4078(2) 0.14493(15)
H20 H 0.6220 0.4018 0.1811
O2 O 0.33759(18) 0.63846(17) 0.22920(13)
O3 O 0.25022(19) 0.67641(16) 0.04156(14)
O4 O 0.06458(17) 0.53339(17) 0.14848(13)
O5 O 0.1927(3) -0.0771(3) -0.51111(19)
O6 O 0.3885(3) -0.0818(2) -0.41134(17)
P1 P 0.21847(7) 0.57045(6) 0.12230(5)
H21 H 0.107(3) 0.391(2) -0.077(2)
C18 C 0.8676(5) 0.4263(6) 0.3596(3)
H22 H 0.9379 0.3743 0.3716
H23 H 0.7854 0.3987 0.4010
H24 H 0.9143 0.5253 0.3868
O7 O 0.8177(2) 0.3987(3) 0.24407(17)
H25 H 0.8843 0.4359 0.2104
loop_
_geom_bond_atom_site_label_1
_geom_bond_atom_site_label_2
_geom_bond_site_symmetry_1
_geom_bond_site_symmetry_2
C1 C2 1_555 1_555
C2 H1 1_555 1_555
C3 C2 1_555 1_555
H2 C3 1_555 1_555
C4 C3 1_555 1_555
H3 C4 1_555 1_555
C5 C4 1_555 1_555
H4 C5 1_555 1_555
C6 C1 1_555 1_555
C7 C6 1_555 1_555
H5 C7 1_555 1_555
C8 C9 1_555 1_555
C9 H6 1_555 1_555
C10 C9 1_555 1_555
H7 C10 1_555 1_555
C11 C10 1_555 1_555
C12 C11 1_555 1_555
H8 C12 1_555 1_555
C13 C8 1_555 1_555
H9 C13 1_555 1_555
C14 H10 1_555 1_555
H11 C14 1_555 1_555
C15 C14 1_555 1_555
H12 C15 1_555 1_555
H13 C15 1_555 1_555
H14 C15 1_555 1_555
C16 H15 1_555 1_555
H16 C16 1_555 1_555
C17 C16 1_555 1_555
H17 C17 1_555 1_555
H18 C17 1_555 1_555
H19 C17 1_555 1_555
N1 C7 1_555 1_555
N2 C11 1_555 1_555
O1 C1 1_555 1_555
H20 O1 1_555 1_555
O2 C14 1_555 1_555
O3 C16 1_555 1_555
O4 P1 1_555 1_555
O5 N2 1_555 1_555
O6 N2 1_555 1_555
P1 C7 1_555 1_555
H21 N1 1_555 1_555
C18 H22 1_555 1_555
H23 C18 1_555 1_555
H24 C18 1_555 1_555
O7 C18 1_555 1_555
H25 O7 1_555 1_555
C5 C6 1_555 1_555
C8 N1 1_555 1_555
C12 C13 1_555 1_555
O2 P1 1_555 1_555
O3 P1 1_555 1_555

#END
