
#######################################################################
#
#                 Cambridge Crystallographic Data Centre
#                                CCDC 
#
#######################################################################
#
# If this CIF has been generated from an entry in the Cambridge 
# Structural Database, then it will include bibliographic, chemical, 
# crystal, experimental, refinement or atomic coordinate data resulting 
# from the CCDC's data processing and validation procedures.
#
#######################################################################

data_HOKBUG
_chemical_formula_moiety         'C27 H23 Br1 N2 O4'
_chemical_name_systematic        
"t-butyl 4'-(2-bromophenyl)-2-oxo-3'-phenyl-4'H-spiro[indole-3,5'-[1,2]oxazole]-1(2H)-carboxylate"
_symmetry_cell_setting           orthorhombic
_symmetry_space_group_name_H-M   'P 21 21 21'
_symmetry_Int_Tables_number      19
_space_group_name_Hall           'P 2ac 2ab'
loop_
_symmetry_equiv_pos_site_id
_symmetry_equiv_pos_as_xyz
1 x,y,z
2 1/2-x,-y,1/2+z
3 1/2+x,1/2-y,-z
4 -x,1/2+y,1/2-z
_cell_length_a                   7.8655(3)
_cell_length_b                   17.0671(4)
_cell_length_c                   17.9180(6)
_cell_angle_alpha                90
_cell_angle_beta                 90
_cell_angle_gamma                90
_cell_volume                     2405.34
_cell_formula_units_Z            4
loop_
_atom_site_label
_atom_site_type_symbol
_atom_site_fract_x
_atom_site_fract_y
_atom_site_fract_z
Br1 Br 0.74391(7) 0.50999(2) 0.63590(3)
O1 O 0.2140(4) 0.55296(14) 0.45960(16)
O2 O 0.3233(4) 0.39254(15) 0.46682(16)
O3 O 0.2456(5) 0.32073(14) 0.68816(16)
O4 O 0.3252(4) 0.28364(15) 0.57235(17)
N1 N 0.2866(4) 0.41150(17) 0.59579(19)
N2 N 0.3172(4) 0.57100(18) 0.3968(2)
C1 C 0.3112(5) 0.4337(2) 0.5205(3)
C2 C 0.3198(5) 0.5241(2) 0.5193(2)
C3 C 0.2581(6) 0.5462(2) 0.5949(2)
C4 C 0.2199(5) 0.6195(2) 0.6243(2)
H1 H 0.2199 0.6646 0.5932
C5 C 0.1816(6) 0.6259(2) 0.7000(3)
H2 H 0.1549 0.6754 0.7210
C6 C 0.1826(6) 0.5596(2) 0.7442(3)
H3 H 0.1595 0.5647 0.7960
C7 C 0.2164(5) 0.4857(2) 0.7155(2)
H4 H 0.2153 0.4405 0.7464
C8 C 0.2517(5) 0.4803(2) 0.6400(2)
C9 C 0.5046(5) 0.5493(2) 0.4972(2)
H5 H 0.5845 0.5040 0.5018
C10 C 0.4740(5) 0.5687(2) 0.4161(3)
C11 C 0.5715(5) 0.6194(2) 0.5403(2)
C12 C 0.6732(6) 0.6109(2) 0.6035(2)
C13 C 0.7211(6) 0.6749(2) 0.6460(3)
H6 H 0.7903 0.6678 0.6889
C14 C 0.6680(6) 0.7489(2) 0.6257(3)
H7 H 0.6979 0.7927 0.6556
C15 C 0.5723(6) 0.7594(2) 0.5627(3)
H8 H 0.5384 0.8106 0.5482
C16 C 0.5248(6) 0.6950(2) 0.5200(3)
H9 H 0.4592 0.7028 0.4761
C17 C 0.6105(5) 0.5903(2) 0.3636(3)
C18 C 0.7762(5) 0.5641(2) 0.3758(2)
H10 H 0.8011 0.5333 0.4186
C19 C 0.9038(6) 0.5828(3) 0.3264(3)
H11 H 1.0157 0.5637 0.3346
C20 C 0.8706(6) 0.6288(3) 0.2652(3)
H12 H 0.9596 0.6423 0.2317
C21 C 0.7067(6) 0.6553(2) 0.2525(3)
H13 H 0.6826 0.6861 0.2097
C22 C 0.5785(6) 0.6369(2) 0.3019(3)
H14 H 0.4670 0.6565 0.2936
C23 C 0.2817(5) 0.3342(2) 0.6245(2)
C24 C 0.3355(7) 0.1974(2) 0.5899(3)
C25 C 0.3753(8) 0.1641(2) 0.5141(3)
H15 H 0.2798 0.1742 0.4802
H16 H 0.3937 0.1075 0.5183
H17 H 0.4781 0.1890 0.4944
C26 C 0.4806(6) 0.1844(2) 0.6443(3)
H18 H 0.5853 0.2067 0.6237
H19 H 0.4959 0.1281 0.6526
H20 H 0.4541 0.2101 0.6919
C27 C 0.1664(6) 0.1691(2) 0.6192(3)
H21 H 0.1438 0.1933 0.6678
H22 H 0.1693 0.1120 0.6248
H23 H 0.0762 0.1836 0.5841
loop_
_geom_bond_atom_site_label_1
_geom_bond_atom_site_label_2
_geom_bond_site_symmetry_1
_geom_bond_site_symmetry_2
Br1 C12 1_555 1_555
O1 N2 1_555 1_555
O2 C1 1_555 1_555
O3 C23 1_555 1_555
O4 C23 1_555 1_555
N1 C1 1_555 1_555
N2 C10 1_555 1_555
C1 C2 1_555 1_555
C2 O1 1_555 1_555
C3 C2 1_555 1_555
C4 C3 1_555 1_555
H1 C4 1_555 1_555
C5 C4 1_555 1_555
H2 C5 1_555 1_555
C6 C5 1_555 1_555
H3 C6 1_555 1_555
C7 C6 1_555 1_555
H4 C7 1_555 1_555
C8 N1 1_555 1_555
C9 C2 1_555 1_555
H5 C9 1_555 1_555
C10 C9 1_555 1_555
C11 C9 1_555 1_555
C12 C11 1_555 1_555
C13 C12 1_555 1_555
H6 C13 1_555 1_555
C14 C13 1_555 1_555
H7 C14 1_555 1_555
C15 C14 1_555 1_555
H8 C15 1_555 1_555
C16 C11 1_555 1_555
H9 C16 1_555 1_555
C17 C10 1_555 1_555
C18 C17 1_555 1_555
H10 C18 1_555 1_555
C19 C18 1_555 1_555
H11 C19 1_555 1_555
C20 C19 1_555 1_555
H12 C20 1_555 1_555
C21 C20 1_555 1_555
H13 C21 1_555 1_555
C22 C17 1_555 1_555
H14 C22 1_555 1_555
C23 N1 1_555 1_555
C24 O4 1_555 1_555
C25 C24 1_555 1_555
H15 C25 1_555 1_555
H16 C25 1_555 1_555
H17 C25 1_555 1_555
C26 C24 1_555 1_555
H18 C26 1_555 1_555
H19 C26 1_555 1_555
H20 C26 1_555 1_555
C27 C24 1_555 1_555
H21 C27 1_555 1_555
H22 C27 1_555 1_555
H23 C27 1_555 1_555
C3 C8 1_555 1_555
C7 C8 1_555 1_555
C15 C16 1_555 1_555
C21 C22 1_555 1_555

#END
