
#######################################################################
#
#                 Cambridge Crystallographic Data Centre
#                                CCDC 
#
#######################################################################
#
# If this CIF has been generated from an entry in the Cambridge 
# Structural Database, then it will include bibliographic, chemical, 
# crystal, experimental, refinement or atomic coordinate data resulting 
# from the CCDC's data processing and validation procedures.
#
#######################################################################

data_HOKPAA
_chemical_formula_moiety         'C19 H29 N3'
_chemical_name_systematic        1,3-dicyclohexyl-2-phenylguanidine
_symmetry_cell_setting           monoclinic
_symmetry_space_group_name_H-M   'P 21/n'
_symmetry_Int_Tables_number      14
_space_group_name_Hall           '-P 2yn'
loop_
_symmetry_equiv_pos_site_id
_symmetry_equiv_pos_as_xyz
1 x,y,z
2 1/2-x,1/2+y,1/2-z
3 -x,-y,-z
4 1/2+x,1/2-y,1/2+z
_cell_length_a                   11.6793(7)
_cell_length_b                   16.8232(8)
_cell_length_c                   17.781(6)
_cell_angle_alpha                90
_cell_angle_beta                 93.752(14)
_cell_angle_gamma                90
_cell_volume                     3486.18
_exptl_crystal_description       needle
_cell_formula_units_Z            8
loop_
_atom_site_label
_atom_site_type_symbol
_atom_site_fract_x
_atom_site_fract_y
_atom_site_fract_z
C1 C 0.85318(14) 0.63600(10) 0.22384(10)
C2 C 1.01968(15) 0.71438(10) 0.24466(11)
C3 C 1.07286(16) 0.75617(10) 0.30501(12)
H1 H 1.0278 0.7768 0.3431
C4 C 1.19010(18) 0.76795(12) 0.31022(14)
H2 H 1.2247 0.7965 0.3519
C5 C 1.25759(18) 0.73884(12) 0.25575(15)
H3 H 1.3385 0.7458 0.2604
C6 C 1.20601(17) 0.69927(12) 0.19412(14)
H4 H 1.2516 0.6799 0.1558
C7 C 1.08807(16) 0.68781(11) 0.18811(12)
H5 H 1.0534 0.6616 0.1451
C8 C 0.99953(14) 0.54254(10) 0.28617(10)
H6 H 1.0679 0.5742 0.2730
C9 C 1.02766(15) 0.45494(10) 0.27698(11)
H7 H 1.0433 0.4440 0.2239
H8 H 0.9613 0.4222 0.2898
C10 C 1.13265(16) 0.43305(11) 0.32860(12)
H9 H 1.1475 0.3753 0.3246
H10 H 1.2006 0.4617 0.3119
C11 C 1.11596(17) 0.45387(10) 0.41022(12)
H11 H 1.1880 0.4432 0.4411
H12 H 1.0552 0.4196 0.4292
C12 C 1.08262(16) 0.54087(10) 0.41895(11)
H13 H 1.1472 0.5753 0.4060
H14 H 1.0668 0.5514 0.4721
C13 C 0.97630(15) 0.56093(10) 0.36776(11)
H15 H 0.9101 0.5292 0.3828
H16 H 0.9572 0.6179 0.3728
C14 C 0.68379(14) 0.69570(10) 0.15265(10)
H17 H 0.6846 0.7455 0.1834
C15 C 0.74131(15) 0.71238(11) 0.07994(11)
H18 H 0.7468 0.6623 0.0511
H19 H 0.8202 0.7321 0.0922
C16 C 0.67495(15) 0.77369(11) 0.03137(12)
H20 H 0.6751 0.8252 0.0584
H21 H 0.7133 0.7816 -0.0161
C17 C 0.55194(15) 0.74714(11) 0.01322(12)
H22 H 0.5096 0.7891 -0.0161
H23 H 0.5512 0.6983 -0.0179
C18 C 0.49343(16) 0.73091(11) 0.08532(12)
H24 H 0.4150 0.7105 0.0726
H25 H 0.4867 0.7812 0.1136
C19 C 0.55992(15) 0.67063(11) 0.13474(11)
H26 H 0.5217 0.6640 0.1824
H27 H 0.5587 0.6186 0.1087
N1 N 0.89921(12) 0.70512(8) 0.23988(9)
N2 N 0.90358(12) 0.56321(8) 0.23231(9)
H28 H 0.8609 0.5244 0.2160
N3 N 0.74035(12) 0.63238(8) 0.19780(9)
H29 H 0.7148 0.5858 0.1857
C20 C 0.70936(14) 0.38372(10) 0.17066(11)
C21 C 0.74281(15) 0.46833(9) 0.06783(11)
C22 C 0.84019(15) 0.50432(10) 0.04203(11)
H30 H 0.9032 0.5162 0.0767
C23 C 0.84652(16) 0.52314(11) -0.03356(12)
H31 H 0.9143 0.5466 -0.0503
C24 C 0.75533(17) 0.50806(11) -0.08452(12)
H32 H 0.7596 0.5209 -0.1363
C25 C 0.65758(17) 0.47406(11) -0.05916(12)
H33 H 0.5940 0.4638 -0.0939
C26 C 0.65026(15) 0.45461(10) 0.01574(12)
H34 H 0.5817 0.4317 0.0320
C27 C 0.62491(15) 0.44116(10) 0.28254(10)
H35 H 0.6783 0.4877 0.2838
C28 C 0.61107(16) 0.41411(10) 0.36305(11)
H36 H 0.6875 0.4018 0.3877
H37 H 0.5646 0.3649 0.3624
C29 C 0.55310(16) 0.47759(11) 0.40847(11)
H38 H 0.5420 0.4571 0.4597
H39 H 0.6031 0.5251 0.4135
C30 C 0.43786(16) 0.50083(11) 0.37052(11)
H40 H 0.3859 0.4543 0.3687
H41 H 0.4027 0.5431 0.4002
C31 C 0.45245(17) 0.53047(11) 0.29119(11)
H42 H 0.4999 0.5793 0.2933
H43 H 0.3765 0.5439 0.2666
C32 C 0.51000(15) 0.46692(11) 0.24495(11)
H44 H 0.4588 0.4201 0.2389
H45 H 0.5220 0.4882 0.1942
C33 C 0.79924(14) 0.29310(10) 0.07989(11)
H46 H 0.7849 0.3263 0.0336
C34 C 0.78536(15) 0.20580(10) 0.05745(11)
H47 H 0.7966 0.1719 0.1028
H48 H 0.7068 0.1967 0.0348
C35 C 0.87264(15) 0.18322(11) 0.00090(11)
H49 H 0.8655 0.1258 -0.0108
H50 H 0.8560 0.2132 -0.0465
C36 C 0.99495(15) 0.20109(11) 0.03153(12)
H51 H 1.0148 0.1665 0.0755
H52 H 1.0488 0.1891 -0.0077
C37 C 1.00782(15) 0.28741(11) 0.05492(12)
H53 H 0.9956 0.3219 0.0100
H54 H 1.0866 0.2967 0.0771
C38 C 0.92184(15) 0.30886(11) 0.11207(11)
H55 H 0.9302 0.3657 0.1257
H56 H 0.9375 0.2770 0.1584
N4 N 0.73583(12) 0.45368(8) 0.14562(9)
N5 N 0.67696(12) 0.37631(8) 0.24229(9)
H57 H 0.6584 0.3290 0.2550
N6 N 0.71265(12) 0.31285(8) 0.13222(9)
H58 H 0.6950 0.2724 0.1587
loop_
_geom_bond_atom_site_label_1
_geom_bond_atom_site_label_2
_geom_bond_site_symmetry_1
_geom_bond_site_symmetry_2
C1 N1 1_555 1_555
C2 C3 1_555 1_555
C3 H1 1_555 1_555
C4 C3 1_555 1_555
H2 C4 1_555 1_555
C5 C4 1_555 1_555
H3 C5 1_555 1_555
C6 C5 1_555 1_555
H4 C6 1_555 1_555
C7 C2 1_555 1_555
H5 C7 1_555 1_555
C8 H6 1_555 1_555
C9 C8 1_555 1_555
H7 C9 1_555 1_555
H8 C9 1_555 1_555
C10 C9 1_555 1_555
H9 C10 1_555 1_555
H10 C10 1_555 1_555
C11 C10 1_555 1_555
H11 C11 1_555 1_555
H12 C11 1_555 1_555
C12 C11 1_555 1_555
H13 C12 1_555 1_555
H14 C12 1_555 1_555
C13 C8 1_555 1_555
H15 C13 1_555 1_555
H16 C13 1_555 1_555
C14 H17 1_555 1_555
C15 C14 1_555 1_555
H18 C15 1_555 1_555
H19 C15 1_555 1_555
C16 C15 1_555 1_555
H20 C16 1_555 1_555
H21 C16 1_555 1_555
C17 C16 1_555 1_555
H22 C17 1_555 1_555
H23 C17 1_555 1_555
C18 C17 1_555 1_555
H24 C18 1_555 1_555
H25 C18 1_555 1_555
C19 C14 1_555 1_555
H26 C19 1_555 1_555
H27 C19 1_555 1_555
N1 C2 1_555 1_555
N2 C1 1_555 1_555
H28 N2 1_555 1_555
N3 C1 1_555 1_555
H29 N3 1_555 1_555
C20 N4 1_555 1_555
C21 C22 1_555 1_555
C22 H30 1_555 1_555
C23 C22 1_555 1_555
H31 C23 1_555 1_555
C24 C23 1_555 1_555
H32 C24 1_555 1_555
C25 C24 1_555 1_555
H33 C25 1_555 1_555
C26 C21 1_555 1_555
H34 C26 1_555 1_555
C27 H35 1_555 1_555
C28 C27 1_555 1_555
H36 C28 1_555 1_555
H37 C28 1_555 1_555
C29 C28 1_555 1_555
H38 C29 1_555 1_555
H39 C29 1_555 1_555
C30 C29 1_555 1_555
H40 C30 1_555 1_555
H41 C30 1_555 1_555
C31 C30 1_555 1_555
H42 C31 1_555 1_555
H43 C31 1_555 1_555
C32 C27 1_555 1_555
H44 C32 1_555 1_555
H45 C32 1_555 1_555
C33 H46 1_555 1_555
C34 C33 1_555 1_555
H47 C34 1_555 1_555
H48 C34 1_555 1_555
C35 C34 1_555 1_555
H49 C35 1_555 1_555
H50 C35 1_555 1_555
C36 C35 1_555 1_555
H51 C36 1_555 1_555
H52 C36 1_555 1_555
C37 C36 1_555 1_555
H53 C37 1_555 1_555
H54 C37 1_555 1_555
C38 C33 1_555 1_555
H55 C38 1_555 1_555
H56 C38 1_555 1_555
N4 C21 1_555 1_555
N5 C20 1_555 1_555
H57 N5 1_555 1_555
N6 C20 1_555 1_555
H58 N6 1_555 1_555
C6 C7 1_555 1_555
C8 N2 1_555 1_555
C12 C13 1_555 1_555
C14 N3 1_555 1_555
C18 C19 1_555 1_555
C25 C26 1_555 1_555
C27 N5 1_555 1_555
C31 C32 1_555 1_555
C33 N6 1_555 1_555
C37 C38 1_555 1_555

#END
