
#######################################################################
#
#                 Cambridge Crystallographic Data Centre
#                                CCDC 
#
#######################################################################
#
# If this CIF has been generated from an entry in the Cambridge 
# Structural Database, then it will include bibliographic, chemical, 
# crystal, experimental, refinement or atomic coordinate data resulting 
# from the CCDC's data processing and validation procedures.
#
#######################################################################

data_HOKVOU
_chemical_formula_moiety         'C14 H17 N3 O3'
_chemical_name_systematic        
(4S,5R,6S,7R)-7-methyl-3-(4-methylphenyl)-4,5,6,7-tetrahydro-[1,2,3]triazolo[1,5-a]pyridine-4,5,6-triol
_symmetry_cell_setting           orthorhombic
_symmetry_space_group_name_H-M   'P 21 21 21'
_symmetry_Int_Tables_number      19
_space_group_name_Hall           'P 2ac 2ab'
loop_
_symmetry_equiv_pos_site_id
_symmetry_equiv_pos_as_xyz
1 x,y,z
2 1/2-x,-y,1/2+z
3 -x,1/2+y,1/2-z
4 1/2+x,1/2-y,-z
_cell_length_a                   7.5550(5)
_cell_length_b                   11.9870(8)
_cell_length_c                   15.0918(11)
_cell_angle_alpha                90
_cell_angle_beta                 90
_cell_angle_gamma                90
_cell_volume                     1366.74
_exptl_crystal_colour            colorless
_exptl_crystal_description       needle
_cell_formula_units_Z            4
loop_
_atom_site_label
_atom_site_type_symbol
_atom_site_fract_x
_atom_site_fract_y
_atom_site_fract_z
C1 C 0.7569(2) 0.54530(15) 0.36552(11)
C2 C 0.9264(2) 0.49935(15) 0.32752(11)
H1 H 0.9104 0.4911 0.2634
C3 C 1.0795(2) 0.58018(17) 0.34288(12)
H2 H 1.1810 0.5575 0.3067
C4 C 1.0244(3) 0.69796(16) 0.31754(12)
H3 H 1.1277 0.7471 0.3215
C5 C 0.8794(2) 0.74206(15) 0.37908(13)
H4 H 0.9306 0.7507 0.4384
C6 C 0.5945(2) 0.49996(15) 0.38823(11)
C7 C 0.5293(2) 0.38389(15) 0.38640(12)
C8 C 0.4136(2) 0.34710(17) 0.45212(13)
H5 H 0.3763 0.3964 0.4959
C9 C 0.3537(3) 0.23804(18) 0.45290(14)
H6 H 0.2759 0.2153 0.4971
C10 C 0.4073(3) 0.16179(17) 0.38907(13)
C11 C 0.5212(3) 0.19945(18) 0.32378(14)
H7 H 0.5587 0.1501 0.2801
C12 C 0.5807(3) 0.30854(18) 0.32191(13)
H8 H 0.6561 0.3315 0.2768
C13 C 0.8032(3) 0.85326(17) 0.35160(16)
H9 H 0.7073 0.8726 0.3904
H10 H 0.7604 0.8484 0.2918
H11 H 0.8935 0.9095 0.3551
C14 C 0.3426(3) 0.04253(19) 0.39103(17)
H12 H 0.2157 0.0417 0.3947
H13 H 0.3914 0.0051 0.4417
H14 H 0.3795 0.0050 0.3380
N1 N 0.73970(18) 0.65535(13) 0.38404(10)
N2 N 0.5795(2) 0.67904(14) 0.41716(11)
N3 N 0.4920(2) 0.58437(14) 0.41978(11)
O1 O 0.96812(18) 0.39272(11) 0.36294(10)
H15 H 1.023(4) 0.407(2) 0.4092(17)
O2 O 1.12550(18) 0.57327(14) 0.43369(9)
H16 H 1.228(4) 0.579(2) 0.4374(17)
O3 O 0.9697(2) 0.69132(13) 0.22790(9)
H17 H 0.975(4) 0.751(2) 0.2033(16)
loop_
_geom_bond_atom_site_label_1
_geom_bond_atom_site_label_2
_geom_bond_site_symmetry_1
_geom_bond_site_symmetry_2
C1 C2 1_555 1_555
C2 H1 1_555 1_555
C3 C2 1_555 1_555
H2 C3 1_555 1_555
C4 C3 1_555 1_555
H3 C4 1_555 1_555
C5 C4 1_555 1_555
H4 C5 1_555 1_555
C6 C1 1_555 1_555
C7 C6 1_555 1_555
C8 C7 1_555 1_555
H5 C8 1_555 1_555
C9 C8 1_555 1_555
H6 C9 1_555 1_555
C10 C9 1_555 1_555
C11 C10 1_555 1_555
H7 C11 1_555 1_555
C12 C7 1_555 1_555
H8 C12 1_555 1_555
C13 C5 1_555 1_555
H9 C13 1_555 1_555
H10 C13 1_555 1_555
H11 C13 1_555 1_555
C14 C10 1_555 1_555
H12 C14 1_555 1_555
H13 C14 1_555 1_555
H14 C14 1_555 1_555
N1 C1 1_555 1_555
N2 N1 1_555 1_555
N3 C6 1_555 1_555
O1 C2 1_555 1_555
H15 O1 1_555 1_555
O2 C3 1_555 1_555
H16 O2 1_555 1_555
O3 C4 1_555 1_555
H17 O3 1_555 1_555
C5 N1 1_555 1_555
C11 C12 1_555 1_555
N2 N3 1_555 1_555

#END
