
#######################################################################
#
#                 Cambridge Crystallographic Data Centre
#                                CCDC 
#
#######################################################################
#
# If this CIF has been generated from an entry in the Cambridge 
# Structural Database, then it will include bibliographic, chemical, 
# crystal, experimental, refinement or atomic coordinate data resulting 
# from the CCDC's data processing and validation procedures.
#
#######################################################################

data_HOLYAJ
_chemical_formula_moiety         'C18 H19 O5 P1'
_chemical_name_systematic        
'Dimethyl 2-(3,4-dimethyl-1-phenylphospholiumyl)ethene-1,2-dicarboxylate 1-oxide'
_symmetry_cell_setting           orthorhombic
_symmetry_space_group_name_H-M   'P n a 21'
_symmetry_Int_Tables_number      33
_space_group_name_Hall           'P 2c -2n'
loop_
_symmetry_equiv_pos_site_id
_symmetry_equiv_pos_as_xyz
1 x,y,z
2 -x,-y,1/2+z
3 1/2+x,1/2-y,z
4 1/2-x,1/2+y,1/2+z
_cell_length_a                   19.555(4)
_cell_length_b                   12.571(3)
_cell_length_c                   7.3292(15)
_cell_angle_alpha                90
_cell_angle_beta                 90
_cell_angle_gamma                90
_cell_volume                     1801.71
_cell_formula_units_Z            4
loop_
_atom_site_label
_atom_site_type_symbol
_atom_site_fract_x
_atom_site_fract_y
_atom_site_fract_z
P1 P 0.29757(2) 0.36837(3) 0.14194(7)
O1 O 0.21152(7) 0.45318(12) 0.4116(2)
O2 O 0.07847(8) 0.36928(13) -0.0870(2)
C1 C 0.16979(9) 0.40586(15) 0.2901(3)
C2 C 0.33416(10) 0.35645(16) -0.0798(3)
H1 H 0.3293 0.2983 -0.1571
O3 O 0.10789(7) 0.40532(14) 0.3083(2)
C3 C 0.29935(10) 0.21858(17) 0.4182(3)
H2 H 0.2527 0.2315 0.4277
C4 C 0.33077(9) 0.49928(15) 0.1753(3)
H3 H 0.3238 0.5415 0.2778
C5 C 0.33847(9) 0.27542(14) 0.2938(3)
C6 C 0.32993(12) 0.14282(17) 0.5277(4)
H4 H 0.3037 0.1046 0.6108
C7 C 0.17763(10) 0.28633(15) 0.0196(3)
C8 C 0.40808(10) 0.25820(17) 0.2838(3)
H5 H 0.4347 0.2979 0.2038
C9 C 0.20833(8) 0.35680(13) 0.1463(4)
C10 C 0.36711(10) 0.52651(16) 0.0292(3)
C11 C 0.36957(11) 0.44435(17) -0.1170(3)
O4 O 0.06402(8) 0.21315(14) 0.0528(3)
C12 C 0.39830(12) 0.12404(17) 0.5143(4)
H6 H 0.4184 0.0722 0.5871
C13 C 0.10007(11) 0.28474(17) 0.0040(3)
C14 C 0.40349(15) 0.63119(19) 0.0091(4)
H7 H 0.3946 0.6746 0.1142
H8 H 0.3873 0.6668 -0.0984
H9 H 0.4518 0.6190 -0.0014
C15 C 0.43802(11) 0.18152(19) 0.3934(4)
H10 H 0.4848 0.1687 0.3856
C16 C 0.4093(2) 0.4615(3) -0.2904(5)
H11 H 0.4114 0.3960 -0.3576
H12 H 0.4547 0.4846 -0.2612
H13 H 0.3869 0.5148 -0.3630
C17 C 0.00607(16) 0.3776(3) -0.1111(6)
H14 H -0.0100 0.3183 -0.1815
H15 H -0.0044 0.4426 -0.1739
H16 H -0.0159 0.3776 0.0060
O5 O 0.20810(8) 0.22515(16) -0.0841(3)
C18 C 0.18111(16) 0.5029(3) 0.5687(4)
H17 H 0.1569 0.5656 0.5315
H18 H 0.2163 0.5220 0.6540
H19 H 0.1499 0.4541 0.6256
loop_
_geom_bond_atom_site_label_1
_geom_bond_atom_site_label_2
_geom_bond_site_symmetry_1
_geom_bond_site_symmetry_2
P1 C2 1_555 1_555
O1 C1 1_555 1_555
O2 C13 1_555 1_555
C1 O3 1_555 1_555
C2 H1 1_555 1_555
C3 H2 1_555 1_555
C4 P1 1_555 1_555
H3 C4 1_555 1_555
C5 P1 1_555 1_555
C6 C3 1_555 1_555
H4 C6 1_555 1_555
C7 C9 1_555 1_555
C8 C5 1_555 1_555
H5 C8 1_555 1_555
C9 P1 1_555 1_555
C10 C4 1_555 1_555
C11 C2 1_555 1_555
O4 C13 1_555 1_555
C12 C6 1_555 1_555
H6 C12 1_555 1_555
C13 C7 1_555 1_555
C14 C10 1_555 1_555
H7 C14 1_555 1_555
H8 C14 1_555 1_555
H9 C14 1_555 1_555
C15 C8 1_555 1_555
H10 C15 1_555 1_555
C16 C11 1_555 1_555
H11 C16 1_555 1_555
H12 C16 1_555 1_555
H13 C16 1_555 1_555
C17 O2 1_555 1_555
H14 C17 1_555 1_555
H15 C17 1_555 1_555
H16 C17 1_555 1_555
O5 C7 1_555 1_555
C18 O1 1_555 1_555
H17 C18 1_555 1_555
H18 C18 1_555 1_555
H19 C18 1_555 1_555
C1 C9 1_555 1_555
C3 C5 1_555 1_555
C10 C11 1_555 1_555
C12 C15 1_555 1_555

#END
