
#######################################################################
#
#                 Cambridge Crystallographic Data Centre
#                                CCDC 
#
#######################################################################
#
# If this CIF has been generated from an entry in the Cambridge 
# Structural Database, then it will include bibliographic, chemical, 
# crystal, experimental, refinement or atomic coordinate data resulting 
# from the CCDC's data processing and validation procedures.
#
#######################################################################

data_HOMNEE
_chemical_formula_moiety         'C13 H12 F6 N2 O4 S2'
_chemical_name_systematic        
1,5-bis((Trifluoromethyl)sulfonyl)-2,3,3a,4,5,9b-hexahydro-1H-pyrrolo[3,2-c]quinoline
_symmetry_cell_setting           monoclinic
_symmetry_space_group_name_H-M   'P 21/c'
_symmetry_Int_Tables_number      14
_space_group_name_Hall           '-P 2ybc'
loop_
_symmetry_equiv_pos_site_id
_symmetry_equiv_pos_as_xyz
1 x,y,z
2 -x,1/2+y,1/2-z
3 -x,-y,-z
4 x,1/2-y,1/2+z
_cell_length_a                   10.0684(6)
_cell_length_b                   12.2054(7)
_cell_length_c                   13.8086(7)
_cell_angle_alpha                90
_cell_angle_beta                 100.497(5)
_cell_angle_gamma                90
_cell_volume                     1668.52
_cell_formula_units_Z            4
loop_
_atom_site_label
_atom_site_type_symbol
_atom_site_fract_x
_atom_site_fract_y
_atom_site_fract_z
C1 C 1.1064(3) 0.4329(3) 0.31819(19)
H1 H 1.0727 0.5059 0.3336
H2 H 1.2063 0.4350 0.3292
C2 C 1.0593(3) 0.3472(4) 0.3799(2)
H3 H 1.0151 0.3815 0.4308
H4 H 1.1370 0.3035 0.4135
C3 C 0.9594(3) 0.2734(2) 0.31418(19)
H5 H 1.0064 0.2032 0.3044
C4 C 0.8311(3) 0.2460(2) 0.35157(18)
H6 H 0.7765 0.1936 0.3060
H7 H 0.8541 0.2109 0.4171
C5 C 0.7168(2) 0.41022(19) 0.26967(16)
C6 C 0.5987(2) 0.4706(2) 0.25010(18)
H8 H 0.5387 0.4707 0.2958
C7 C 0.5680(3) 0.5305(2) 0.16447(19)
H9 H 0.4874 0.5726 0.1514
C8 C 0.6543(3) 0.5293(2) 0.09775(19)
H10 H 0.6341 0.5717 0.0392
C9 C 0.7694(3) 0.4670(2) 0.11579(18)
H11 H 0.8275 0.4658 0.0687
C10 C 0.8031(2) 0.4053(2) 0.20187(16)
C11 C 0.9283(2) 0.3333(2) 0.21449(17)
H12 H 0.9194 0.2789 0.1595
C12 C 1.2438(3) 0.2707(2) 0.1582(2)
C13 C 0.5872(3) 0.3316(2) 0.49524(19)
F1 F 1.31670(19) 0.25597(16) 0.08903(15)
F2 F 1.32563(19) 0.27841(17) 0.24435(14)
F3 F 1.16569(18) 0.18400(13) 0.16019(13)
F4 F 0.59536(19) 0.22327(15) 0.49082(13)
F5 F 0.57546(18) 0.35960(16) 0.58526(11)
F6 F 0.47756(16) 0.36331(16) 0.43416(12)
N1 N 1.0503(2) 0.40145(17) 0.21550(14)
N2 N 0.7521(2) 0.34650(17) 0.35893(13)
O1 O 1.05714(18) 0.37325(16) 0.04031(12)
O2 O 1.23556(19) 0.48200(16) 0.14617(15)
O3 O 0.71436(19) 0.50842(15) 0.46053(12)
O4 O 0.84407(18) 0.34917(15) 0.53850(12)
S1 S 1.14061(6) 0.39440(5) 0.13269(4)
S2 S 0.74024(6) 0.39434(5) 0.46566(4)
loop_
_geom_bond_atom_site_label_1
_geom_bond_atom_site_label_2
_geom_bond_site_symmetry_1
_geom_bond_site_symmetry_2
C1 H1 1_555 1_555
H2 C1 1_555 1_555
C2 C1 1_555 1_555
H3 C2 1_555 1_555
H4 C2 1_555 1_555
C3 C2 1_555 1_555
H5 C3 1_555 1_555
C4 C3 1_555 1_555
H6 C4 1_555 1_555
H7 C4 1_555 1_555
C5 C6 1_555 1_555
C6 H8 1_555 1_555
C7 C6 1_555 1_555
H9 C7 1_555 1_555
C8 C7 1_555 1_555
H10 C8 1_555 1_555
C9 C8 1_555 1_555
H11 C9 1_555 1_555
C10 C5 1_555 1_555
C11 C3 1_555 1_555
H12 C11 1_555 1_555
C12 F1 1_555 1_555
C13 F4 1_555 1_555
F2 C12 1_555 1_555
F3 C12 1_555 1_555
F5 C13 1_555 1_555
F6 C13 1_555 1_555
N1 C1 1_555 1_555
N2 C4 1_555 1_555
O1 S1 1_555 1_555
O2 S1 1_555 1_555
O3 S2 1_555 1_555
O4 S2 1_555 1_555
S1 C12 1_555 1_555
S2 C13 1_555 1_555
C5 N2 1_555 1_555
C9 C10 1_555 1_555
C10 C11 1_555 1_555
C11 N1 1_555 1_555
N1 S1 1_555 1_555
N2 S2 1_555 1_555

#END
