
#######################################################################
#
#                 Cambridge Crystallographic Data Centre
#                                CCDC 
#
#######################################################################
#
# If this CIF has been generated from an entry in the Cambridge 
# Structural Database, then it will include bibliographic, chemical, 
# crystal, experimental, refinement or atomic coordinate data resulting 
# from the CCDC's data processing and validation procedures.
#
#######################################################################

data_HOMPEG
_chemical_formula_moiety         'C18 H20 N4 2+,2(C13 H9 N2 O3 1-),2(C1 H4 O1)'
_chemical_name_systematic        
"2,2'-Butane-1,4-diylbis(1H-benzimidazol-3-ium) bis(2-hydroxy-5-(phenyldiazenyl)benzoate) methanol solvate"
_symmetry_cell_setting           monoclinic
_symmetry_space_group_name_H-M   'P 21/c'
_symmetry_Int_Tables_number      14
_space_group_name_Hall           '-P 2ybc'
loop_
_symmetry_equiv_pos_site_id
_symmetry_equiv_pos_as_xyz
1 x,y,z
2 -x,1/2+y,1/2-z
3 -x,-y,-z
4 x,1/2-y,1/2+z
_cell_length_a                   9.3310(9)
_cell_length_b                   11.0881(12)
_cell_length_c                   20.766(2)
_cell_angle_alpha                90
_cell_angle_beta                 95.8280(10)
_cell_angle_gamma                90
_cell_volume                     2137.41
_exptl_crystal_colour            red
_exptl_crystal_description       block
_cell_formula_units_Z            2
loop_
_atom_site_label
_atom_site_type_symbol
_atom_site_fract_x
_atom_site_fract_y
_atom_site_fract_z
N1 N 0.6826(3) 0.0858(2) 0.04585(12)
N2 N 0.6259(3) 0.1314(2) -0.00554(13)
O1 O 0.8174(3) -0.0239(2) 0.27461(10)
O2 O 0.6429(2) 0.0431(2) 0.33092(10)
O3 O 0.4355(2) 0.1641(2) 0.27349(10)
H1 H 0.4823 0.1295 0.3035
C1 C 0.7006(4) 0.0269(3) 0.27808(16)
C2 C 0.6230(3) 0.0770(3) 0.21742(14)
C3 C 0.4970(3) 0.1451(3) 0.21838(16)
C4 C 0.4328(3) 0.1975(3) 0.16186(17)
H2 H 0.3506 0.2445 0.1632
C5 C 0.4891(3) 0.1805(3) 0.10450(16)
H3 H 0.4453 0.2154 0.0668
C6 C 0.6137(3) 0.1101(3) 0.10257(15)
C7 C 0.6776(3) 0.0597(3) 0.15869(15)
H4 H 0.7596 0.0126 0.1571
C8 C 0.7008(3) 0.1041(3) -0.06037(15)
C9 C 0.6360(4) 0.1382(3) -0.12026(16)
H5 H 0.5481 0.1784 -0.1234
C10 C 0.7015(5) 0.1129(3) -0.17583(17)
H6 H 0.6565 0.1343 -0.2162
C11 C 0.8338(5) 0.0559(3) -0.17082(19)
H7 H 0.8786 0.0392 -0.2078
C12 C 0.8990(4) 0.0238(3) -0.11103(19)
H8 H 0.9880 -0.0148 -0.1078
C13 C 0.8342(4) 0.0482(3) -0.05607(16)
H9 H 0.8800 0.0271 -0.0158
N3 N 0.0670(3) 0.6530(2) 0.97290(11)
H10 H 0.0541 0.6643 0.9318
N4 N 0.1656(2) 0.5968(2) 1.06747(11)
H11 H 0.2261 0.5672 1.0973
C14 C 0.1828(3) 0.6005(3) 1.00489(14)
C15 C 0.0321(3) 0.6491(3) 1.07692(14)
C16 C -0.0283(3) 0.6858(3) 1.01672(15)
C17 C -0.1598(3) 0.7452(3) 1.00822(17)
H12 H -0.2008 0.7690 0.9675
C18 C -0.2262(3) 0.7667(3) 1.06306(19)
H13 H -0.3128 0.8089 1.0596
C19 C -0.1679(4) 0.7274(3) 1.12332(18)
H14 H -0.2183 0.7414 1.1590
C20 C -0.0360(3) 0.6676(3) 1.13222(15)
H15 H 0.0037 0.6418 1.1728
C21 C 0.3083(3) 0.5566(3) 0.97279(13)
H16 H 0.3354 0.6185 0.9433
H17 H 0.2788 0.4861 0.9471
C22 C 0.4393(3) 0.5240(3) 1.01821(13)
H18 H 0.4130 0.4634 1.0486
H19 H 0.4725 0.5949 1.0428
N3B N 0.9330(3) 0.3470(2) 1.02710(11)
H10B H 0.9459 0.3357 1.0682
N4B N 0.8344(2) 0.4032(2) 0.93253(11)
H11B H 0.7739 0.4328 0.9027
C14B C 0.8172(3) 0.3995(3) 0.99511(14)
C15B C 0.9679(3) 0.3509(3) 0.92308(14)
C16B C 1.0283(3) 0.3142(3) 0.98328(15)
C17B C 1.1598(3) 0.2548(3) 0.99178(17)
H12B H 1.2008 0.2310 1.0325
C18B C 1.2262(3) 0.2333(3) 0.93694(19)
H13B H 1.3128 0.1911 0.9404
C19B C 1.1679(4) 0.2726(3) 0.87668(18)
H14B H 1.2183 0.2586 0.8410
C20B C 1.0360(3) 0.3324(3) 0.86778(15)
H15B H 0.9963 0.3582 0.8272
C21B C 0.6917(3) 0.4434(3) 1.02721(13)
H16B H 0.6646 0.3815 1.0567
H17B H 0.7212 0.5139 1.0529
C22B C 0.5607(3) 0.4760(3) 0.98179(13)
H18B H 0.5870 0.5366 0.9514
H19B H 0.5275 0.4051 0.9572
O4 O -0.0177(3) 0.8342(3) 0.34872(11)
H20 H -0.0713 0.8845 0.3300
C23 C 0.0219(6) 0.7550(4) 0.3063(2)
H21 H 0.0683 0.7962 0.2735
H22 H -0.0615 0.7132 0.2867
H23 H 0.0877 0.6980 0.3280
loop_
_geom_bond_atom_site_label_1
_geom_bond_atom_site_label_2
_geom_bond_site_symmetry_1
_geom_bond_site_symmetry_2
N1 N2 1_555 1_555
N2 C8 1_555 1_555
O1 C1 1_555 1_555
O2 C1 1_555 1_555
O3 H1 1_555 1_555
C1 C2 1_555 1_555
C2 C3 1_555 1_555
C3 O3 1_555 1_555
C4 C3 1_555 1_555
H2 C4 1_555 1_555
C5 C4 1_555 1_555
H3 C5 1_555 1_555
C6 N1 1_555 1_555
C7 C2 1_555 1_555
H4 C7 1_555 1_555
C8 C9 1_555 1_555
C9 H5 1_555 1_555
C10 C9 1_555 1_555
H6 C10 1_555 1_555
C11 C10 1_555 1_555
H7 C11 1_555 1_555
C12 C11 1_555 1_555
H8 C12 1_555 1_555
C13 C8 1_555 1_555
H9 C13 1_555 1_555
N3 H10 1_555 1_555
N4 H11 1_555 1_555
C14 N3 1_555 1_555
C15 N4 1_555 1_555
C16 N3 1_555 1_555
C17 C16 1_555 1_555
H12 C17 1_555 1_555
C18 C17 1_555 1_555
H13 C18 1_555 1_555
C19 C18 1_555 1_555
H14 C19 1_555 1_555
C20 C15 1_555 1_555
H15 C20 1_555 1_555
C21 C14 1_555 1_555
H16 C21 1_555 1_555
H17 C21 1_555 1_555
C22 C21 1_555 1_555
H18 C22 1_555 1_555
H19 C22 1_555 1_555
O4 H20 1_555 1_555
C23 O4 1_555 1_555
H21 C23 1_555 1_555
H22 C23 1_555 1_555
H23 C23 1_555 1_555
N3B H10B 1_555 1_555
N4B H11B 1_555 1_555
C14B N3B 1_555 1_555
C15B N4B 1_555 1_555
C16B N3B 1_555 1_555
C17B C16B 1_555 1_555
H12B C17B 1_555 1_555
C18B C17B 1_555 1_555
H13B C18B 1_555 1_555
C19B C18B 1_555 1_555
H14B C19B 1_555 1_555
C20B C15B 1_555 1_555
H15B C20B 1_555 1_555
C21B C14B 1_555 1_555
H16B C21B 1_555 1_555
H17B C21B 1_555 1_555
C22B C22 1_555 1_555
H18B C22B 1_555 1_555
H19B C22B 1_555 1_555
C5 C6 1_555 1_555
C6 C7 1_555 1_555
C12 C13 1_555 1_555
N4 C14 1_555 1_555
C15 C16 1_555 1_555
C19 C20 1_555 1_555
N4B C14B 1_555 1_555
C15B C16B 1_555 1_555
C19B C20B 1_555 1_555
C21B C22B 1_555 1_555

#END
