
#######################################################################
#
#                 Cambridge Crystallographic Data Centre
#                                CCDC 
#
#######################################################################
#
# If this CIF has been generated from an entry in the Cambridge 
# Structural Database, then it will include bibliographic, chemical, 
# crystal, experimental, refinement or atomic coordinate data resulting 
# from the CCDC's data processing and validation procedures.
#
#######################################################################

data_HOMWEN
_chemical_formula_moiety         'C31 H26 N2 O2 S1'
_chemical_name_systematic        
N-(2-(2-(1H-indol-3-yl)-4-phenylbut-3-yn-2-yl)phenyl)-4-methylbenzenesulfonamide
_symmetry_cell_setting           monoclinic
_symmetry_space_group_name_H-M   'P 21/c'
_symmetry_Int_Tables_number      14
_space_group_name_Hall           '-P 2ybc'
loop_
_symmetry_equiv_pos_site_id
_symmetry_equiv_pos_as_xyz
1 x,y,z
2 -x,1/2+y,1/2-z
3 -x,-y,-z
4 x,1/2-y,1/2+z
_cell_length_a                   14.1262(11)
_cell_length_b                   9.3818(5)
_cell_length_c                   20.2526(8)
_cell_angle_alpha                90
_cell_angle_beta                 108.247(5)
_cell_angle_gamma                90
_cell_volume                     2549.09
_exptl_crystal_colour            colorless
_exptl_crystal_description       block
_cell_formula_units_Z            4
loop_
_atom_site_label
_atom_site_type_symbol
_atom_site_fract_x
_atom_site_fract_y
_atom_site_fract_z
S1 S 0.73663(2) 0.53993(3) 0.63188(2)
O1 O 0.80592(7) 0.58732(10) 0.69612(5)
O2 O 0.63533(6) 0.58877(9) 0.61187(5)
N1 N 0.72560(8) 0.36700(11) 0.63358(5)
H1 H 0.6676(12) 0.3411(17) 0.6097(8)
N2 N 0.57538(8) 0.31144(12) 0.40334(6)
H2 H 0.5264(13) 0.3537(18) 0.3736(9)
C1 C 0.78778(9) 0.57984(13) 0.56543(6)
C2 C 0.72587(10) 0.57753(13) 0.49673(7)
H3 H 0.6570 0.5560 0.4861
C3 C 0.76602(11) 0.60706(14) 0.44420(7)
H4 H 0.7242 0.6060 0.3972
C4 C 0.86686(12) 0.63829(17) 0.45904(8)
C5 C 0.92717(11) 0.63886(19) 0.52799(9)
H5 H 0.9962 0.6589 0.5385
C6 C 0.88846(10) 0.61066(16) 0.58175(7)
H6 H 0.9301 0.6124 0.6288
C7 C 0.90971(14) 0.6719(2) 0.40132(10)
H7 H 0.8901 0.5976 0.3656
H8 H 0.9826 0.6757 0.4202
H9 H 0.8843 0.7643 0.3807
C8 C 0.80229(9) 0.26331(13) 0.64568(6)
C9 C 0.89766(9) 0.29417(15) 0.68972(6)
H10 H 0.9121 0.3864 0.7098
C10 C 0.97170(10) 0.19082(17) 0.70448(7)
H11 H 1.0369 0.2125 0.7340
C11 C 0.95011(11) 0.05630(17) 0.67604(7)
H12 H 1.0004 -0.0150 0.6864
C12 C 0.85508(11) 0.02524(15) 0.63241(7)
H13 H 0.8411 -0.0681 0.6137
C13 C 0.77943(9) 0.12747(14) 0.61520(6)
C14 C 0.67552(9) 0.09303(13) 0.56360(6)
C15 C 0.59904(9) 0.12421(13) 0.59765(6)
C16 C 0.53964(9) 0.15715(13) 0.62627(6)
C17 C 0.47215(9) 0.19721(13) 0.66346(6)
C18 C 0.48926(10) 0.32130(14) 0.70388(7)
H14 H 0.5436 0.3818 0.7049
C19 C 0.42680(10) 0.35577(14) 0.74241(7)
H15 H 0.4385 0.4401 0.7697
C20 C 0.34731(10) 0.26790(15) 0.74133(7)
H16 H 0.3050 0.2919 0.7680
C21 C 0.32970(10) 0.14475(15) 0.70121(7)
H17 H 0.2753 0.0846 0.7005
C22 C 0.39130(10) 0.10942(14) 0.66223(7)
H18 H 0.3787 0.0255 0.6346
C23 C 0.66458(11) -0.06588(14) 0.54205(8)
H19 H 0.6746 -0.1255 0.5834
H20 H 0.7145 -0.0902 0.5195
H21 H 0.5977 -0.0826 0.5096
C24 C 0.65565(9) 0.18216(12) 0.49762(6)
C25 C 0.71668(9) 0.18849(13) 0.45248(6)
C26 C 0.80934(10) 0.13001(15) 0.45445(7)
H22 H 0.8473 0.0758 0.4934
C27 C 0.84403(12) 0.15299(18) 0.39866(8)
H23 H 0.9060 0.1127 0.3993
C28 C 0.78975(12) 0.23455(18) 0.34112(8)
H24 H 0.8160 0.2492 0.3038
C29 C 0.69912(11) 0.29373(15) 0.33782(7)
H25 H 0.6624 0.3491 0.2990
C30 C 0.66329(10) 0.26928(13) 0.39368(6)
C31 C 0.57105(9) 0.25750(13) 0.46541(6)
H26 H 0.5170 0.2707 0.4833
loop_
_geom_bond_atom_site_label_1
_geom_bond_atom_site_label_2
_geom_bond_site_symmetry_1
_geom_bond_site_symmetry_2
S1 O1 1_555 1_555
O2 S1 1_555 1_555
N1 S1 1_555 1_555
H1 N1 1_555 1_555
N2 H2 1_555 1_555
C1 S1 1_555 1_555
C2 C1 1_555 1_555
H3 C2 1_555 1_555
C3 C2 1_555 1_555
H4 C3 1_555 1_555
C4 C3 1_555 1_555
C5 C4 1_555 1_555
H5 C5 1_555 1_555
C6 C1 1_555 1_555
H6 C6 1_555 1_555
C7 C4 1_555 1_555
H7 C7 1_555 1_555
H8 C7 1_555 1_555
H9 C7 1_555 1_555
C8 N1 1_555 1_555
C9 C8 1_555 1_555
H10 C9 1_555 1_555
C10 C9 1_555 1_555
H11 C10 1_555 1_555
C11 C10 1_555 1_555
H12 C11 1_555 1_555
C12 C11 1_555 1_555
H13 C12 1_555 1_555
C13 C8 1_555 1_555
C14 C13 1_555 1_555
C15 C14 1_555 1_555
C16 C15 1_555 1_555
C17 C16 1_555 1_555
C18 C17 1_555 1_555
H14 C18 1_555 1_555
C19 C18 1_555 1_555
H15 C19 1_555 1_555
C20 C19 1_555 1_555
H16 C20 1_555 1_555
C21 C20 1_555 1_555
H17 C21 1_555 1_555
C22 C17 1_555 1_555
H18 C22 1_555 1_555
C23 C14 1_555 1_555
H19 C23 1_555 1_555
H20 C23 1_555 1_555
H21 C23 1_555 1_555
C24 C14 1_555 1_555
C25 C24 1_555 1_555
C26 C25 1_555 1_555
H22 C26 1_555 1_555
C27 C26 1_555 1_555
H23 C27 1_555 1_555
C28 C27 1_555 1_555
H24 C28 1_555 1_555
C29 C28 1_555 1_555
H25 C29 1_555 1_555
C30 N2 1_555 1_555
C31 N2 1_555 1_555
H26 C31 1_555 1_555
C5 C6 1_555 1_555
C12 C13 1_555 1_555
C21 C22 1_555 1_555
C24 C31 1_555 1_555
C25 C30 1_555 1_555
C29 C30 1_555 1_555

#END
