
#######################################################################
#
#                 Cambridge Crystallographic Data Centre
#                                CCDC 
#
#######################################################################
#
# If this CIF has been generated from an entry in the Cambridge 
# Structural Database, then it will include bibliographic, chemical, 
# crystal, experimental, refinement or atomic coordinate data resulting 
# from the CCDC's data processing and validation procedures.
#
#######################################################################

data_HONFIB
_chemical_formula_moiety         'C9 H7 N1,C7 H6 O3'
_chemical_name_systematic        '4-hydroxybenzoic acid quinoline'
_symmetry_cell_setting           orthorhombic
_symmetry_space_group_name_H-M   'P n a 21'
_symmetry_Int_Tables_number      33
_space_group_name_Hall           'P 2c -2n'
loop_
_symmetry_equiv_pos_site_id
_symmetry_equiv_pos_as_xyz
1 x,y,z
2 -x,-y,1/2+z
3 1/2+x,1/2-y,z
4 1/2-x,1/2+y,1/2+z
_cell_length_a                   27.647(2)
_cell_length_b                   3.8745(3)
_cell_length_c                   12.3837(9)
_cell_angle_alpha                90
_cell_angle_beta                 90
_cell_angle_gamma                90
_cell_volume                     1326.52
_exptl_crystal_colour            colorless
_exptl_crystal_description       block
_cell_formula_units_Z            4
loop_
_atom_site_label
_atom_site_type_symbol
_atom_site_fract_x
_atom_site_fract_y
_atom_site_fract_z
N1 N 0.10148(9) 0.4633(6) 0.7124(2)
C1 C 0.13686(12) 0.6128(8) 0.6585(3)
H1 H 0.1648 0.6731 0.6960
C2 C 0.13468(15) 0.6855(9) 0.5480(4)
H2 H 0.1608 0.7869 0.5128
C3 C 0.09365(16) 0.6048(9) 0.4932(3)
H3 H 0.0914 0.6528 0.4198
C4 C 0.05456(13) 0.4494(8) 0.5468(3)
C5 C 0.06025(10) 0.3808(7) 0.6574(3)
C6 C 0.02213(11) 0.2209(7) 0.7146(3)
H4 H 0.0257 0.1705 0.7876
C7 C -0.01972(13) 0.1407(8) 0.6633(4)
H5 H -0.0448 0.0376 0.7017
C8 C -0.02547(16) 0.2109(11) 0.5547(5)
H6 H -0.0545 0.1558 0.5211
C9 C 0.01040(17) 0.3582(9) 0.4963(3)
H7 H 0.0060 0.3997 0.4230
O1 O 0.19002(7) 0.1547(6) -0.14644(18)
O2 O 0.11759(7) 0.3008(5) -0.0826(2)
H8 H 0.1126 0.3397 -0.1467
O3 O 0.21755(7) -0.1072(6) 0.35634(16)
H9 H 0.2434 -0.2110 0.3579
C10 C 0.16236(11) 0.1854(7) -0.0699(3)
C11 C 0.17568(10) 0.1045(7) 0.0427(3)
C12 C 0.21917(10) -0.0639(7) 0.0614(2)
H10 H 0.2386 -0.1265 0.0034
C13 C 0.23386(10) -0.1395(7) 0.1652(2)
H11 H 0.2629 -0.2551 0.1770
C14 C 0.20518(11) -0.0421(7) 0.2521(2)
C15 C 0.16150(10) 0.1253(8) 0.2339(3)
H12 H 0.1420 0.1881 0.2919
C16 C 0.14708(10) 0.1986(7) 0.1297(3)
H13 H 0.1179 0.3120 0.1178
loop_
_geom_bond_atom_site_label_1
_geom_bond_atom_site_label_2
_geom_bond_site_symmetry_1
_geom_bond_site_symmetry_2
N1 C1 1_555 1_555
C1 H1 1_555 1_555
C2 C1 1_555 1_555
H2 C2 1_555 1_555
C3 C2 1_555 1_555
H3 C3 1_555 1_555
C4 C3 1_555 1_555
C5 N1 1_555 1_555
C6 C5 1_555 1_555
H4 C6 1_555 1_555
C7 C6 1_555 1_555
H5 C7 1_555 1_555
C8 C7 1_555 1_555
H6 C8 1_555 1_555
C9 C4 1_555 1_555
H7 C9 1_555 1_555
O1 C10 1_555 1_555
O2 H8 1_555 1_555
O3 H9 1_555 1_555
C10 O2 1_555 1_555
C11 C10 1_555 1_555
C12 C11 1_555 1_555
H10 C12 1_555 1_555
C13 C12 1_555 1_555
H11 C13 1_555 1_555
C14 O3 1_555 1_555
C15 C14 1_555 1_555
H12 C15 1_555 1_555
C16 C11 1_555 1_555
H13 C16 1_555 1_555
C4 C5 1_555 1_555
C8 C9 1_555 1_555
C13 C14 1_555 1_555
C15 C16 1_555 1_555

#END
