
#######################################################################
#
#                 Cambridge Crystallographic Data Centre
#                                CCDC 
#
#######################################################################
#
# If this CIF has been generated from an entry in the Cambridge 
# Structural Database, then it will include bibliographic, chemical, 
# crystal, experimental, refinement or atomic coordinate data resulting 
# from the CCDC's data processing and validation procedures.
#
#######################################################################

data_HONYUG
_chemical_compound_source        'stems of Ficus auriculata'
_chemical_name_common            'Ficusine A'
_chemical_formula_moiety         'C17 H22 O6'
_chemical_name_systematic        
14a-Hydroxy-14-methoxy-3-methyl-4,5,7,8,9,10-hexahydro-1H-2-benzoxacyclododecine-1,6,12(3H,14aH)-trione
_chemical_properties_biological  'proliferative activity'
_symmetry_cell_setting           orthorhombic
_symmetry_space_group_name_H-M   'P 21 21 21'
_symmetry_Int_Tables_number      19
_space_group_name_Hall           'P 2ac 2ab'
loop_
_symmetry_equiv_pos_site_id
_symmetry_equiv_pos_as_xyz
1 x,y,z
2 1/2-x,-y,1/2+z
3 -x,1/2+y,1/2-z
4 1/2+x,1/2-y,-z
_cell_length_a                   6.6767(2)
_cell_length_b                   7.3343(2)
_cell_length_c                   34.2153(11)
_cell_angle_alpha                90
_cell_angle_beta                 90
_cell_angle_gamma                90
_cell_volume                     1675.49
_chemical_melting_point          '154-156 deg.C'
_cell_formula_units_Z            4
loop_
_atom_site_label
_atom_site_type_symbol
_atom_site_fract_x
_atom_site_fract_y
_atom_site_fract_z
O1 O 0.3002(2) 0.3671(2) 0.88416(4)
O2 O 0.58546(18) 0.50684(15) 0.90165(3)
O3 O 0.7064(3) 0.1090(2) 0.96783(5)
O4 O 0.2275(3) 0.1750(3) 0.74544(4)
O5 O 0.3263(2) 0.69811(17) 0.82352(4)
O6 O 0.70313(17) 0.55844(16) 0.83106(3)
H1 H 0.7270 0.5807 0.8080
C1 C 0.4578(2) 0.4367(2) 0.87653(5)
C2 C 0.5296(3) 0.4941(3) 0.94328(4)
H2 H 0.4607 0.3782 0.9479
C3 C 0.7257(4) 0.4962(3) 0.96601(5)
H3 H 0.7761 0.6202 0.9665
H4 H 0.6980 0.4607 0.9928
C4 C 0.8885(3) 0.3731(3) 0.95011(6)
H5 H 0.9223 0.4143 0.9240
H6 H 1.0069 0.3883 0.9662
C5 C 0.8405(3) 0.1745(3) 0.94816(5)
C6 C 0.9644(3) 0.0582(3) 0.92142(6)
H7 H 1.0575 -0.0130 0.9369
H8 H 1.0422 0.1366 0.9043
C7 C 0.8392(4) -0.0699(3) 0.89664(6)
H9 H 0.9275 -0.1359 0.8791
H10 H 0.7760 -0.1586 0.9137
C8 C 0.6779(3) 0.0225(3) 0.87252(6)
H11 H 0.5863 0.0838 0.8902
H12 H 0.6024 -0.0708 0.8588
C9 C 0.7530(3) 0.1614(3) 0.84247(5)
H13 H 0.8324 0.2533 0.8557
H14 H 0.8388 0.1001 0.8237
C10 C 0.5838(3) 0.2526(2) 0.82106(4)
C11 C 0.4832(3) 0.1725(3) 0.79235(5)
H15 H 0.5221 0.0560 0.7848
C12 C 0.3144(3) 0.2574(3) 0.77191(5)
C13 C 0.2573(3) 0.4391(3) 0.78323(5)
H16 H 0.1489 0.4951 0.7711
C14 C 0.3587(2) 0.5278(2) 0.81098(5)
C15 C 0.5313(2) 0.4459(2) 0.83363(4)
C16 C 0.3911(4) 0.6489(3) 0.95318(7)
H17 H 0.4593 0.7627 0.9493
H18 H 0.3502 0.6389 0.9800
H19 H 0.2753 0.6438 0.9366
C17 C 0.1639(3) 0.7970(3) 0.80641(8)
H20 H 0.1815 0.8022 0.7786
H21 H 0.1611 0.9185 0.8168
H22 H 0.0399 0.7366 0.8123
loop_
_geom_bond_atom_site_label_1
_geom_bond_atom_site_label_2
_geom_bond_site_symmetry_1
_geom_bond_site_symmetry_2
O1 C1 1_555 1_555
O2 C1 1_555 1_555
O3 C5 1_555 1_555
O4 C12 1_555 1_555
O5 C14 1_555 1_555
O6 H1 1_555 1_555
C1 C15 1_555 1_555
C2 O2 1_555 1_555
H2 C2 1_555 1_555
C3 C2 1_555 1_555
H3 C3 1_555 1_555
H4 C3 1_555 1_555
C4 C3 1_555 1_555
H5 C4 1_555 1_555
H6 C4 1_555 1_555
C5 C4 1_555 1_555
C6 C5 1_555 1_555
H7 C6 1_555 1_555
H8 C6 1_555 1_555
C7 C6 1_555 1_555
H9 C7 1_555 1_555
H10 C7 1_555 1_555
C8 C7 1_555 1_555
H11 C8 1_555 1_555
H12 C8 1_555 1_555
C9 C8 1_555 1_555
H13 C9 1_555 1_555
H14 C9 1_555 1_555
C10 C9 1_555 1_555
C11 C10 1_555 1_555
H15 C11 1_555 1_555
C12 C11 1_555 1_555
C13 C12 1_555 1_555
H16 C13 1_555 1_555
C14 C13 1_555 1_555
C15 O6 1_555 1_555
C16 C2 1_555 1_555
H17 C16 1_555 1_555
H18 C16 1_555 1_555
H19 C16 1_555 1_555
C17 O5 1_555 1_555
H20 C17 1_555 1_555
H21 C17 1_555 1_555
H22 C17 1_555 1_555
C10 C15 1_555 1_555
C14 C15 1_555 1_555

#END
