
#######################################################################
#
#                 Cambridge Crystallographic Data Centre
#                                CCDC 
#
#######################################################################
#
# If this CIF has been generated from an entry in the Cambridge 
# Structural Database, then it will include bibliographic, chemical, 
# crystal, experimental, refinement or atomic coordinate data resulting 
# from the CCDC's data processing and validation procedures.
#
#######################################################################

data_HOPDAS
_chemical_formula_moiety         'C19 H19 Br1 Cl1 N3 O3 S1'
_chemical_name_systematic        
(3aSR,4SR,8aRS,8bRS)-2-(3-Bromopropyl)-4-(5-(5-chloro-2-thienyl)-3-isoxazolyl)hexahydrodipyrrolo(1,2-a:3',4'-c)pyrrole-1,3(2H,4H)-dione
_symmetry_cell_setting           monoclinic
_symmetry_space_group_name_H-M   'P 21/c'
_symmetry_Int_Tables_number      14
_space_group_name_Hall           '-P 2ybc'
loop_
_symmetry_equiv_pos_site_id
_symmetry_equiv_pos_as_xyz
1 x,y,z
2 -x,1/2+y,1/2-z
3 -x,-y,-z
4 x,1/2-y,1/2+z
_cell_length_a                   21.7677(12)
_cell_length_b                   7.6188(11)
_cell_length_c                   12.362(2)
_cell_angle_alpha                90
_cell_angle_beta                 102.393(17)
_cell_angle_gamma                90
_cell_volume                     2002.39
_exptl_crystal_colour            colorless
_chemical_melting_point          '120 deg.C'
_cell_formula_units_Z            4
loop_
_atom_site_label
_atom_site_type_symbol
_atom_site_fract_x
_atom_site_fract_y
_atom_site_fract_z
Br1 Br 0.055402(15) 0.45491(4) 0.39618(2)
Cl1 Cl 0.61619(3) 0.02904(10) -0.25482(6)
S1 S 0.49051(3) 0.04632(8) -0.19889(5)
O1 O 0.08545(8) 0.5540(2) -0.07003(15)
O2 O 0.18709(9) 0.1575(3) 0.17978(14)
O3 O 0.36917(8) 0.0941(3) -0.12568(15)
N1 N 0.12661(8) 0.3627(3) 0.06908(14)
N2 N 0.28393(9) 0.5081(3) 0.04431(16)
N3 N 0.31327(9) 0.1298(3) -0.08711(18)
C1 C 0.04103(12) 0.6024(4) 0.2645(2)
H1 H -0.0016 0.5816 0.2209
H2 H 0.0439 0.7260 0.2869
C2 C 0.08766(13) 0.5666(3) 0.1937(2)
H3 H 0.1301 0.5715 0.2404
H4 H 0.0844 0.6597 0.1381
C3 C 0.07892(11) 0.3896(3) 0.1345(2)
H5 H 0.0818 0.2953 0.1894
H6 H 0.0370 0.3845 0.0858
C4 C 0.17669(11) 0.2485(3) 0.09786(18)
C5 C 0.21521(10) 0.2569(3) 0.00899(18)
H7 H 0.2141 0.1438 -0.0308
C6 C 0.18506(10) 0.4040(3) -0.06867(18)
H8 H 0.1734 0.3605 -0.1458
C7 C 0.12685(11) 0.4537(3) -0.02772(18)
C8 C 0.23735(11) 0.5477(3) -0.0582(2)
H9 H 0.2578 0.5383 -0.1221
C9 C 0.21922(14) 0.7388(4) -0.0447(3)
H10 H 0.2446 0.8178 -0.0799
H11 H 0.1747 0.7582 -0.0780
C10 C 0.23226(15) 0.7699(4) 0.0800(3)
H12 H 0.2595 0.8725 0.0997
H13 H 0.1928 0.7906 0.1041
C11 C 0.26452(12) 0.6060(3) 0.1350(2)
H14 H 0.3012 0.6369 0.1930
H15 H 0.2355 0.5360 0.1679
C12 C 0.28385(10) 0.3168(3) 0.05663(18)
H16 H 0.2963 0.2850 0.1360
C13 C 0.41656(10) 0.1880(3) -0.06325(18)
C14 C 0.39503(11) 0.2822(3) 0.01310(19)
H17 H 0.4179 0.3585 0.0668
C15 C 0.33032(10) 0.2406(3) -0.00574(18)
C16 C 0.47799(10) 0.1753(3) -0.09087(18)
C17 C 0.53170(11) 0.2582(3) -0.0393(2)
H18 H 0.5338 0.3330 0.0219
C18 C 0.58399(11) 0.2211(3) -0.0863(2)
H19 H 0.6245 0.2679 -0.0608
C19 C 0.56811(10) 0.1096(3) -0.17275(19)
loop_
_geom_bond_atom_site_label_1
_geom_bond_atom_site_label_2
_geom_bond_site_symmetry_1
_geom_bond_site_symmetry_2
Br1 C1 1_555 1_555
Cl1 C19 1_555 1_555
S1 C16 1_555 1_555
O1 C7 1_555 1_555
O2 C4 1_555 1_555
O3 N3 1_555 1_555
N1 C3 1_555 1_555
N2 C8 1_555 1_555
N3 C15 1_555 1_555
C1 H1 1_555 1_555
H2 C1 1_555 1_555
C2 C1 1_555 1_555
H3 C2 1_555 1_555
H4 C2 1_555 1_555
C3 C2 1_555 1_555
H5 C3 1_555 1_555
H6 C3 1_555 1_555
C4 N1 1_555 1_555
C5 C4 1_555 1_555
H7 C5 1_555 1_555
C6 C5 1_555 1_555
H8 C6 1_555 1_555
C7 N1 1_555 1_555
C8 C6 1_555 1_555
H9 C8 1_555 1_555
C9 C8 1_555 1_555
H10 C9 1_555 1_555
H11 C9 1_555 1_555
C10 C9 1_555 1_555
H12 C10 1_555 1_555
H13 C10 1_555 1_555
C11 N2 1_555 1_555
H14 C11 1_555 1_555
H15 C11 1_555 1_555
C12 N2 1_555 1_555
H16 C12 1_555 1_555
C13 O3 1_555 1_555
C14 C13 1_555 1_555
H17 C14 1_555 1_555
C15 C12 1_555 1_555
C16 C13 1_555 1_555
C17 C16 1_555 1_555
H18 C17 1_555 1_555
C18 C17 1_555 1_555
H19 C18 1_555 1_555
C19 S1 1_555 1_555
C5 C12 1_555 1_555
C6 C7 1_555 1_555
C10 C11 1_555 1_555
C14 C15 1_555 1_555
C18 C19 1_555 1_555

#END
