
#######################################################################
#
#                 Cambridge Crystallographic Data Centre
#                                CCDC 
#
#######################################################################
#
# If this CIF has been generated from an entry in the Cambridge 
# Structural Database, then it will include bibliographic, chemical, 
# crystal, experimental, refinement or atomic coordinate data resulting 
# from the CCDC's data processing and validation procedures.
#
#######################################################################

data_HOPHUR
_chemical_formula_moiety         'C25 H20 Br1 N3 O1'
_chemical_name_systematic        
4-(4-bromophenyl)-2-ethoxy-10-methyl-6,11-dihydro-5H-pyrido[2,3-a]carbazole-3-carbonitrile
_symmetry_cell_setting           monoclinic
_symmetry_space_group_name_H-M   'P 21/n'
_symmetry_Int_Tables_number      14
_space_group_name_Hall           '-P 2yn'
loop_
_symmetry_equiv_pos_site_id
_symmetry_equiv_pos_as_xyz
1 x,y,z
2 1/2-x,1/2+y,1/2-z
3 -x,-y,-z
4 1/2+x,1/2-y,1/2+z
_cell_length_a                   9.4187(17)
_cell_length_b                   16.502(3)
_cell_length_c                   13.158(2)
_cell_angle_alpha                90
_cell_angle_beta                 98.582(3)
_cell_angle_gamma                90
_cell_volume                     2022.22
_cell_formula_units_Z            4
loop_
_atom_site_label
_atom_site_type_symbol
_atom_site_fract_x
_atom_site_fract_y
_atom_site_fract_z
Br1 Br 0.15341(2) 0.996053(10) 0.119734(14)
C1 C 0.62112(17) 0.66422(9) 0.22581(12)
C2 C 0.48082(17) 0.67306(9) 0.17209(12)
C3 C 0.39533(17) 0.80142(9) 0.24539(12)
H1 H 0.4351 0.7836 0.3123
C4 C 0.40506(17) 0.45884(9) 0.10127(12)
C5 C 0.41182(16) 0.75433(9) 0.16031(12)
C6 C 0.23651(17) 0.38320(9) 0.00589(12)
C7 C 0.48157(17) 0.52935(9) 0.14587(12)
C8 C 0.28111(17) 0.46391(9) 0.03141(12)
C9 C 0.40845(17) 0.60392(9) 0.13262(12)
C10 C 0.33630(17) 0.33103(9) 0.06463(12)
C11 C 0.26371(17) 0.89934(9) 0.13512(13)
C12 C 0.21661(18) 0.54428(9) -0.00109(13)
H2 H 0.1113 0.5389 -0.0203
H3 H 0.2570 0.5647 -0.0615
C13 C 0.11666(18) 0.35025(10) -0.05779(13)
H4 H 0.0503 0.3843 -0.0992
C14 C 0.28260(18) 0.85514(10) 0.04895(13)
H5 H 0.2451 0.8741 -0.0179
C15 C 0.68136(17) 0.58603(9) 0.23681(12)
C16 C 0.09820(19) 0.26738(10) -0.05848(13)
H6 H 0.0189 0.2439 -0.1015
C17 C 0.31515(19) 0.24675(10) 0.06665(13)
C18 C 0.35742(18) 0.78266(10) 0.06202(12)
H7 H 0.3719 0.7518 0.0035
C19 C 0.25089(18) 0.60298(9) 0.08856(13)
H8 H 0.2212 0.6582 0.0650
H9 H 0.1945 0.5876 0.1433
C20 C 0.32087(17) 0.87443(9) 0.23312(12)
H10 H 0.3094 0.9067 0.2911
C21 C 0.19549(19) 0.21752(10) 0.00376(13)
H11 H 0.1783 0.1608 0.0027
C22 C 0.88591(19) 0.50256(9) 0.29597(14)
H12 H 0.9912 0.5106 0.3075
H13 H 0.8601 0.4735 0.2300
C23 C 0.8438(2) 0.45199(11) 0.38145(14)
H14 H 0.8656 0.4815 0.4465
H15 H 0.8976 0.4010 0.3861
H16 H 0.7406 0.4405 0.3675
C24 C 0.4087(2) 0.19228(11) 0.13813(15)
H17 H 0.3615 0.1396 0.1415
H18 H 0.4255 0.2166 0.2068
H19 H 0.5008 0.1848 0.1131
O1 O 0.81496(12) 0.58109(7) 0.28965(9)
N1 N 0.44046(14) 0.37837(8) 0.12093(10)
H20 H 0.5162 0.3605 0.1622
N2 N 0.61521(15) 0.52005(8) 0.19789(10)
N3 N 0.77274(16) 0.78722(9) 0.29848(12)
C25 C 0.70513(18) 0.73287(10) 0.26581(12)
loop_
_geom_bond_atom_site_label_1
_geom_bond_atom_site_label_2
_geom_bond_site_symmetry_1
_geom_bond_site_symmetry_2
Br1 C11 1_555 1_555
C1 C2 1_555 1_555
C2 C5 1_555 1_555
C3 H1 1_555 1_555
C4 C7 1_555 1_555
C5 C3 1_555 1_555
C6 C8 1_555 1_555
C7 C9 1_555 1_555
C8 C4 1_555 1_555
C9 C2 1_555 1_555
C10 C6 1_555 1_555
C11 C14 1_555 1_555
C12 C8 1_555 1_555
H2 C12 1_555 1_555
H3 C12 1_555 1_555
C13 C6 1_555 1_555
H4 C13 1_555 1_555
C14 H5 1_555 1_555
C15 C1 1_555 1_555
C16 C13 1_555 1_555
H6 C16 1_555 1_555
C17 C10 1_555 1_555
C18 C5 1_555 1_555
H7 C18 1_555 1_555
C19 C9 1_555 1_555
H8 C19 1_555 1_555
H9 C19 1_555 1_555
C20 C3 1_555 1_555
H10 C20 1_555 1_555
C21 C16 1_555 1_555
H11 C21 1_555 1_555
C22 H12 1_555 1_555
H13 C22 1_555 1_555
C23 C22 1_555 1_555
H14 C23 1_555 1_555
H15 C23 1_555 1_555
H16 C23 1_555 1_555
C24 C17 1_555 1_555
H17 C24 1_555 1_555
H18 C24 1_555 1_555
H19 C24 1_555 1_555
O1 C15 1_555 1_555
N1 C4 1_555 1_555
H20 N1 1_555 1_555
N2 C7 1_555 1_555
N3 C25 1_555 1_555
C25 C1 1_555 1_555
C10 N1 1_555 1_555
C11 C20 1_555 1_555
C12 C19 1_555 1_555
C14 C18 1_555 1_555
C15 N2 1_555 1_555
C17 C21 1_555 1_555
C22 O1 1_555 1_555

#END
