
#######################################################################
#
#                 Cambridge Crystallographic Data Centre
#                                CCDC 
#
#######################################################################
#
# If this CIF has been generated from an entry in the Cambridge 
# Structural Database, then it will include bibliographic, chemical, 
# crystal, experimental, refinement or atomic coordinate data resulting 
# from the CCDC's data processing and validation procedures.
#
#######################################################################

data_HOPKOM
_chemical_formula_moiety         'C26 H42 N1 O5 1-,Na1 1+,1.5(H2 O1)'
_chemical_name_systematic        'Sodium glycodeoxycholate sesquihydrate'
_chemical_properties_biological  'biological activity'
_symmetry_cell_setting           hexagonal
_symmetry_space_group_name_H-M   'P 65'
_symmetry_Int_Tables_number      170
_space_group_name_Hall           'P 65'
loop_
_symmetry_equiv_pos_site_id
_symmetry_equiv_pos_as_xyz
1 x,y,z
2 x-y,x,5/6+z
3 -y,x-y,2/3+z
4 -x,-y,1/2+z
5 -x+y,-x,1/3+z
6 y,-x+y,1/6+z
_cell_length_a                   19.950(2)
_cell_length_b                   19.950(2)
_cell_length_c                   11.701(3)
_cell_angle_alpha                90
_cell_angle_beta                 90
_cell_angle_gamma                120
_cell_volume                     4033.1
_exptl_crystal_colour            colorless
_exptl_crystal_description       prismatic
_chemical_melting_point          447-448K
_cell_formula_units_Z            6
_exptl_crystal_recrystallization_method acetone/water
loop_
_atom_site_label
_atom_site_type_symbol
_atom_site_fract_x
_atom_site_fract_y
_atom_site_fract_z
C1 C 0.4870(13) 0.1906(13) 0.9562
C2 C 0.4123(12) 0.1200(12) 0.9891(29)
C3 C 0.4262(13) 0.0493(13) 1.0003(29)
C4 C 0.4607(12) 0.0408(12) 0.8898(27)
C5 C 0.5391(12) 0.1157(12) 0.8598(29)
C6 C 0.5743(13) 0.1026(14) 0.7519(28)
C7 C 0.5308(12) 0.1021(12) 0.6423(28)
C8 C 0.5200(13) 0.1735(13) 0.6302(27)
C9 C 0.4820(11) 0.1817(11) 0.7413(27)
C10 C 0.5286(12) 0.1873(12) 0.8526(28)
C11 C 0.4644(12) 0.2478(12) 0.7295(27)
C12 C 0.4156(11) 0.2414(12) 0.6230(28)
C13 C 0.4547(11) 0.2355(11) 0.5137(26)
C14 C 0.4717(11) 0.1690(12) 0.5305(27)
C15 C 0.4956(13) 0.1546(13) 0.4119(27)
C16 C 0.4479(12) 0.1747(12) 0.3293(27)
C17 C 0.4082(12) 0.2103(12) 0.4025(26)
C18 C 0.5332(12) 0.3128(11) 0.4969(28)
C19 C 0.6085(13) 0.2615(13) 0.8471(29)
C20 C 0.3892(12) 0.2662(12) 0.3388(28)
C21 C 0.3688(15) 0.3143(15) 0.4082(32)
C22 C 0.3246(12) 0.2202(12) 0.2477(27)
C23 C 0.3067(12) 0.2697(12) 0.1692(28)
C24 C 0.2343(14) 0.2237(15) 0.1069(29)
O1 O 0.3549(10) -0.0189(10) 1.0239(26)
O2 O 0.3401(8) 0.1779(8) 0.6313(24)
O3 O 0.1726(10) 0.1793(10) 0.1530(25)
N1 N 0.2383(11) 0.2274(11) -0.0063(28)
C25 C 0.1720(15) 0.1828(15) -0.0849(29)
C26 C 0.1942(17) 0.1735(16) -0.2030(32)
O4 O 0.2629(12) 0.2211(12) -0.2334(26)
O5 O 0.1421(11) 0.1270(11) -0.2622(27)
Na1 Na 0.1233(10) 0.1232(9) -0.4605(23)
O6 O 0.2008(11) 0.0658(10) -0.4641(27)
O7 O 0.0360(11) 0.0300(10) -0.5831(27)
loop_
_geom_bond_atom_site_label_1
_geom_bond_atom_site_label_2
_geom_bond_site_symmetry_1
_geom_bond_site_symmetry_2
C1 C2 1_555 1_555
C2 C3 1_555 1_555
C3 C4 1_555 1_555
C4 C5 1_555 1_555
C5 C6 1_555 1_555
C6 C7 1_555 1_555
C7 C8 1_555 1_555
C8 C9 1_555 1_555
C9 C10 1_555 1_555
C10 C1 1_555 1_555
C11 C9 1_555 1_555
C12 C11 1_555 1_555
C13 C12 1_555 1_555
C14 C8 1_555 1_555
C15 C14 1_555 1_555
C16 C15 1_555 1_555
C17 C13 1_555 1_555
C18 C13 1_555 1_555
C19 C10 1_555 1_555
C20 C17 1_555 1_555
C21 C20 1_555 1_555
C22 C20 1_555 1_555
C23 C22 1_555 1_555
C24 C23 1_555 1_555
O1 C3 1_555 1_555
O2 C12 1_555 1_555
O3 C24 1_555 1_555
N1 C24 1_555 1_555
C25 N1 1_555 1_555
C26 C25 1_555 1_555
O4 C26 1_555 1_555
O5 C26 1_555 1_555
C5 C10 1_555 1_555
C13 C14 1_555 1_555
C16 C17 1_555 1_555

#END
