
#######################################################################
#
#                 Cambridge Crystallographic Data Centre
#                                CCDC 
#
#######################################################################
#
# If this CIF has been generated from an entry in the Cambridge 
# Structural Database, then it will include bibliographic, chemical, 
# crystal, experimental, refinement or atomic coordinate data resulting 
# from the CCDC's data processing and validation procedures.
#
#######################################################################

data_HOQKEF
_chemical_formula_moiety         'C28 H38 B1 P1'
_chemical_name_systematic        
'dicyclohexyl(9,10-dihydro-9,10-ethanoanthracen-11-yl)phosphine borane'
_symmetry_cell_setting           orthorhombic
_symmetry_space_group_name_H-M   'P n a 21'
_symmetry_Int_Tables_number      33
_space_group_name_Hall           'P 2c -2n'
loop_
_symmetry_equiv_pos_site_id
_symmetry_equiv_pos_as_xyz
1 x,y,z
2 -x,-y,1/2+z
3 1/2+x,1/2-y,z
4 1/2-x,1/2+y,1/2+z
_cell_length_a                   9.5099(6)
_cell_length_b                   32.010(3)
_cell_length_c                   7.6128(6)
_cell_angle_alpha                90
_cell_angle_beta                 90
_cell_angle_gamma                90
_cell_volume                     2317.43
_exptl_crystal_colour            colorless
_exptl_crystal_description       block
_cell_formula_units_Z            4
_exptl_crystal_recrystallization_method dichloromethane/hexane
loop_
_atom_site_label
_atom_site_type_symbol
_atom_site_fract_x
_atom_site_fract_y
_atom_site_fract_z
P1 P 0.26370(8) 0.63926(2) 0.61920(12)
B1 B 0.1812(4) 0.63709(14) 0.8498(5)
H1 H 0.074(4) 0.6213(12) 0.836(6)
H2 H 0.176(4) 0.6707(13) 0.900(6)
H3 H 0.250(4) 0.6136(13) 0.940(6)
C1 C 0.2449(3) 0.58790(9) 0.5165(4)
H4 H 0.1415 0.5823 0.5200
C2 C 0.3114(3) 0.55096(9) 0.6241(5)
H5 H 0.3804 0.5621 0.7094
H6 H 0.2370 0.5361 0.6902
C3 C 0.3855(3) 0.52020(10) 0.4959(4)
H7 H 0.4267 0.4956 0.5586
C4 C 0.4962(3) 0.54527(10) 0.3993(4)
C5 C 0.6405(3) 0.53768(10) 0.4042(4)
H8 H 0.6773 0.5145 0.4670
C6 C 0.7291(3) 0.56481(11) 0.3150(5)
H9 H 0.8277 0.5601 0.3174
C7 C 0.6764(3) 0.59835(11) 0.2231(5)
H10 H 0.7388 0.6166 0.1628
C8 C 0.5330(3) 0.60569(10) 0.2181(4)
H11 H 0.4966 0.6288 0.1546
C9 C 0.4437(3) 0.57904(10) 0.3065(4)
C10 C 0.2851(3) 0.58271(10) 0.3182(4)
H12 H 0.2480 0.6061 0.2443
C11 C 0.2218(3) 0.54105(10) 0.2676(4)
C12 C 0.1137(3) 0.53496(10) 0.1466(5)
H13 H 0.0774 0.5578 0.0809
C13 C 0.0599(3) 0.49491(10) 0.1238(5)
H14 H -0.0131 0.4903 0.0407
C14 C 0.1115(3) 0.46160(11) 0.2207(5)
H15 H 0.0723 0.4345 0.2059
C15 C 0.2204(3) 0.46777(10) 0.3393(4)
H16 H 0.2573 0.4448 0.4038
C16 C 0.2749(3) 0.50733(10) 0.3633(4)
C17 C 0.1646(3) 0.67654(10) 0.4820(5)
H17 H 0.1477 0.7012 0.5597
C18 C 0.2350(3) 0.69434(10) 0.3179(5)
H18 H 0.2514 0.6715 0.2325
H19 H 0.3274 0.7064 0.3500
C19 C 0.1437(3) 0.72821(10) 0.2326(5)
H20 H 0.1383 0.7527 0.3119
H21 H 0.1882 0.7374 0.1216
C20 C -0.0044(3) 0.71243(11) 0.1944(5)
H22 H -0.0624 0.7358 0.1494
H23 H -0.0002 0.6907 0.1021
C21 C -0.0732(3) 0.69434(11) 0.3580(5)
H24 H -0.1669 0.6830 0.3271
H25 H -0.0868 0.7168 0.4458
C22 C 0.0169(3) 0.65978(11) 0.4372(5)
H26 H 0.0250 0.6364 0.3526
H27 H -0.0286 0.6490 0.5450
C23 C 0.4452(3) 0.65918(9) 0.6262(5)
H28 H 0.4775 0.6640 0.5028
C24 C 0.5489(3) 0.62901(10) 0.7153(5)
H29 H 0.5135 0.6216 0.8335
H30 H 0.5559 0.6030 0.6454
C25 C 0.6949(3) 0.64893(11) 0.7317(5)
H31 H 0.7582 0.6294 0.7946
H32 H 0.7341 0.6535 0.6128
C26 C 0.6911(4) 0.69020(11) 0.8290(5)
H33 H 0.7867 0.7024 0.8332
H34 H 0.6590 0.6856 0.9512
C27 C 0.5913(4) 0.72027(11) 0.7362(5)
H35 H 0.6276 0.7265 0.6171
H36 H 0.5867 0.7468 0.8025
C28 C 0.4438(3) 0.70139(10) 0.7222(5)
H37 H 0.3818 0.7210 0.6582
H38 H 0.4047 0.6975 0.8416
loop_
_geom_bond_atom_site_label_1
_geom_bond_atom_site_label_2
_geom_bond_site_symmetry_1
_geom_bond_site_symmetry_2
P1 B1 1_555 1_555
B1 H1 1_555 1_555
H2 B1 1_555 1_555
H3 B1 1_555 1_555
C1 P1 1_555 1_555
H4 C1 1_555 1_555
C2 C1 1_555 1_555
H5 C2 1_555 1_555
H6 C2 1_555 1_555
C3 C2 1_555 1_555
H7 C3 1_555 1_555
C4 C3 1_555 1_555
C5 C4 1_555 1_555
H8 C5 1_555 1_555
C6 C5 1_555 1_555
H9 C6 1_555 1_555
C7 C6 1_555 1_555
H10 C7 1_555 1_555
C8 C7 1_555 1_555
H11 C8 1_555 1_555
C9 C4 1_555 1_555
C10 C1 1_555 1_555
H12 C10 1_555 1_555
C11 C10 1_555 1_555
C12 C11 1_555 1_555
H13 C12 1_555 1_555
C13 C12 1_555 1_555
H14 C13 1_555 1_555
C14 C13 1_555 1_555
H15 C14 1_555 1_555
C15 C14 1_555 1_555
H16 C15 1_555 1_555
C16 C3 1_555 1_555
C17 P1 1_555 1_555
H17 C17 1_555 1_555
C18 C17 1_555 1_555
H18 C18 1_555 1_555
H19 C18 1_555 1_555
C19 C18 1_555 1_555
H20 C19 1_555 1_555
H21 C19 1_555 1_555
C20 C19 1_555 1_555
H22 C20 1_555 1_555
H23 C20 1_555 1_555
C21 C20 1_555 1_555
H24 C21 1_555 1_555
H25 C21 1_555 1_555
C22 C17 1_555 1_555
H26 C22 1_555 1_555
H27 C22 1_555 1_555
C23 P1 1_555 1_555
H28 C23 1_555 1_555
C24 C23 1_555 1_555
H29 C24 1_555 1_555
H30 C24 1_555 1_555
C25 C24 1_555 1_555
H31 C25 1_555 1_555
H32 C25 1_555 1_555
C26 C25 1_555 1_555
H33 C26 1_555 1_555
H34 C26 1_555 1_555
C27 C26 1_555 1_555
H35 C27 1_555 1_555
H36 C27 1_555 1_555
C28 C23 1_555 1_555
H37 C28 1_555 1_555
H38 C28 1_555 1_555
C8 C9 1_555 1_555
C9 C10 1_555 1_555
C11 C16 1_555 1_555
C15 C16 1_555 1_555
C21 C22 1_555 1_555
C27 C28 1_555 1_555

#END
