
#######################################################################
#
#                 Cambridge Crystallographic Data Centre
#                                CCDC 
#
#######################################################################
#
# If this CIF has been generated from an entry in the Cambridge 
# Structural Database, then it will include bibliographic, chemical, 
# crystal, experimental, refinement or atomic coordinate data resulting 
# from the CCDC's data processing and validation procedures.
#
#######################################################################

data_HOQTUD
_chemical_formula_moiety         'C21 H15 N3 O1'
_chemical_name_systematic        
(2,5-Diphenyl-2H-1,2,3-triazol-4-yl)(phenyl)methanone
_symmetry_cell_setting           orthorhombic
_symmetry_space_group_name_H-M   'P 21 21 21'
_symmetry_Int_Tables_number      19
_space_group_name_Hall           'P 2ac 2ab'
loop_
_symmetry_equiv_pos_site_id
_symmetry_equiv_pos_as_xyz
1 x,y,z
2 1/2-x,-y,1/2+z
3 -x,1/2+y,1/2-z
4 1/2+x,1/2-y,-z
_cell_length_a                   7.5488(5)
_cell_length_b                   11.1814(8)
_cell_length_c                   39.297(3)
_cell_angle_alpha                90
_cell_angle_beta                 90
_cell_angle_gamma                90
_cell_volume                     3316.91
_chemical_melting_point          '115-117 deg.C'
_cell_formula_units_Z            8
loop_
_atom_site_label
_atom_site_type_symbol
_atom_site_fract_x
_atom_site_fract_y
_atom_site_fract_z
O1 O 0.6281(3) -0.00778(19) 0.93923(5)
N1 N 0.5472(3) 0.1653(2) 0.86745(5)
N2 N 0.5417(3) 0.1229(2) 0.83582(6)
N3 N 0.5224(3) 0.0039(2) 0.83324(6)
C1 C 0.5325(4) 0.0675(3) 0.88662(7)
C2 C 0.5180(3) -0.0346(3) 0.86513(8)
C3 C 0.5627(4) 0.0771(3) 0.92427(7)
C4 C 0.5261(3) 0.1914(3) 0.94221(6)
C5 C 0.4035(4) 0.2743(3) 0.93147(6)
H1 H 0.3382 0.2608 0.9118
C6 C 0.3777(5) 0.3783(3) 0.95017(7)
H2 H 0.2913 0.4328 0.9435
C7 C 0.4796(5) 0.4013(4) 0.97862(8)
H3 H 0.4648 0.4725 0.9905
C8 C 0.6016(5) 0.3199(4) 0.98934(8)
H4 H 0.6695 0.3354 1.0086
C9 C 0.6246(4) 0.2143(3) 0.97156(6)
H5 H 0.7063 0.1581 0.9792
C10 C 0.5013(3) -0.1637(3) 0.87176(8)
C11 C 0.4400(4) -0.2090(3) 0.90249(8)
H6 H 0.4087 -0.1570 0.9200
C12 C 0.4253(5) -0.3313(3) 0.90718(9)
H7 H 0.3805 -0.3607 0.9276
C13 C 0.4757(6) -0.4093(4) 0.88225(10)
H8 H 0.4681 -0.4914 0.8858
C14 C 0.5377(7) -0.3651(4) 0.85189(10)
H9 H 0.5712 -0.4175 0.8347
C15 C 0.5506(6) -0.2438(3) 0.84689(8)
H10 H 0.5935 -0.2151 0.8263
C16 C 0.5650(4) 0.1974(3) 0.80669(7)
C17 C 0.5750(5) 0.1457(3) 0.77513(7)
H11 H 0.5653 0.0632 0.7727
C18 C 0.6000(5) 0.2183(3) 0.74674(7)
H12 H 0.6075 0.1838 0.7253
C19 C 0.6134(5) 0.3369(3) 0.74996(8)
H13 H 0.6273 0.3850 0.7308
C20 C 0.6065(7) 0.3866(4) 0.78136(9)
H14 H 0.6186 0.4690 0.7836
C21 C 0.5819(7) 0.3172(3) 0.81015(9)
H15 H 0.5771 0.3524 0.8316
O2 O 1.1274(4) 1.00659(19) 0.93860(6)
N4 N 1.0043(3) 0.8361(2) 0.86762(6)
N5 N 0.9910(3) 0.8791(2) 0.83640(6)
N6 N 0.9931(3) 0.9982(2) 0.83351(7)
C22 C 1.0182(4) 0.9340(3) 0.88686(7)
C23 C 1.0120(3) 1.0358(3) 0.86562(8)
C24 C 1.0562(4) 0.9228(3) 0.92407(7)
C25 C 1.0176(3) 0.8090(3) 0.94197(6)
C26 C 1.1182(4) 0.7845(3) 0.97117(6)
H16 H 1.2011 0.8401 0.9787
C27 C 1.0964(5) 0.6797(4) 0.98886(7)
H17 H 1.1662 0.6637 1.0078
C28 C 0.9705(5) 0.5981(4) 0.97843(8)
H18 H 0.9559 0.5265 0.9902
C29 C 0.8660(5) 0.6235(3) 0.95037(7)
H19 H 0.7785 0.5697 0.9438
C30 C 0.8901(4) 0.7277(3) 0.93212(6)
H20 H 0.8203 0.7431 0.9131
C31 C 0.9683(4) 0.8036(3) 0.80721(7)
C32 C 1.0069(5) 0.6836(4) 0.81025(8)
H21 H 1.0505 0.6524 0.8305
C33 C 0.9789(6) 0.6107(4) 0.78219(9)
H22 H 1.0017 0.5292 0.7838
C34 C 0.9182(6) 0.6573(3) 0.75216(8)
H23 H 0.9022 0.6077 0.7334
C35 C 0.8814(5) 0.7758(3) 0.74967(7)
H24 H 0.8400 0.8068 0.7292
C36 C 0.9052(4) 0.8511(3) 0.77749(7)
H25 H 0.8787 0.9322 0.7759
C37 C 1.0201(4) 1.1659(3) 0.87215(8)
C38 C 1.0938(5) 1.2416(3) 0.84797(8)
H26 H 1.1435 1.2099 0.8283
C39 C 1.0936(7) 1.3635(4) 0.85302(10)
H27 H 1.1435 1.4136 0.8368
C40 C 1.0197(6) 1.4115(4) 0.88211(11)
H28 H 1.0164 1.4940 0.8851
C41 C 0.9511(5) 1.3374(3) 0.90670(10)
H29 H 0.9033 1.3697 0.9265
C42 C 0.9532(4) 1.2157(3) 0.90201(8)
H30 H 0.9094 1.1658 0.9190
loop_
_geom_bond_atom_site_label_1
_geom_bond_atom_site_label_2
_geom_bond_site_symmetry_1
_geom_bond_site_symmetry_2
O1 C3 1_555 1_555
O2 C24 1_555 1_555
N1 N2 1_555 1_555
N2 N3 1_555 1_555
N3 C2 1_555 1_555
N4 N5 1_555 1_555
N5 N6 1_555 1_555
N6 C23 1_555 1_555
C1 N1 1_555 1_555
C2 C1 1_555 1_555
C3 C1 1_555 1_555
C4 C3 1_555 1_555
C5 C4 1_555 1_555
H1 C5 1_555 1_555
C6 C5 1_555 1_555
H2 C6 1_555 1_555
C7 C6 1_555 1_555
H3 C7 1_555 1_555
C8 C7 1_555 1_555
H4 C8 1_555 1_555
C9 C4 1_555 1_555
H5 C9 1_555 1_555
C10 C2 1_555 1_555
C11 C10 1_555 1_555
H6 C11 1_555 1_555
C12 C11 1_555 1_555
H7 C12 1_555 1_555
C13 C12 1_555 1_555
H8 C13 1_555 1_555
C14 C13 1_555 1_555
H9 C14 1_555 1_555
C15 C10 1_555 1_555
H10 C15 1_555 1_555
C16 N2 1_555 1_555
C17 C16 1_555 1_555
H11 C17 1_555 1_555
C18 C17 1_555 1_555
H12 C18 1_555 1_555
C19 C18 1_555 1_555
H13 C19 1_555 1_555
C20 C19 1_555 1_555
H14 C20 1_555 1_555
C21 C16 1_555 1_555
H15 C21 1_555 1_555
C22 N4 1_555 1_555
C23 C22 1_555 1_555
C24 C22 1_555 1_555
C25 C24 1_555 1_555
C26 C25 1_555 1_555
H16 C26 1_555 1_555
C27 C26 1_555 1_555
H17 C27 1_555 1_555
C28 C27 1_555 1_555
H18 C28 1_555 1_555
C29 C28 1_555 1_555
H19 C29 1_555 1_555
C30 C25 1_555 1_555
H20 C30 1_555 1_555
C31 N5 1_555 1_555
C32 C31 1_555 1_555
H21 C32 1_555 1_555
C33 C32 1_555 1_555
H22 C33 1_555 1_555
C34 C33 1_555 1_555
H23 C34 1_555 1_555
C35 C34 1_555 1_555
H24 C35 1_555 1_555
C36 C31 1_555 1_555
H25 C36 1_555 1_555
C37 C23 1_555 1_555
C38 C37 1_555 1_555
H26 C38 1_555 1_555
C39 C38 1_555 1_555
H27 C39 1_555 1_555
C40 C39 1_555 1_555
H28 C40 1_555 1_555
C41 C40 1_555 1_555
H29 C41 1_555 1_555
C42 C37 1_555 1_555
H30 C42 1_555 1_555
C8 C9 1_555 1_555
C14 C15 1_555 1_555
C20 C21 1_555 1_555
C29 C30 1_555 1_555
C35 C36 1_555 1_555
C41 C42 1_555 1_555

#END
