
#######################################################################
#
#                 Cambridge Crystallographic Data Centre
#                                CCDC 
#
#######################################################################
#
# If this CIF has been generated from an entry in the Cambridge 
# Structural Database, then it will include bibliographic, chemical, 
# crystal, experimental, refinement or atomic coordinate data resulting 
# from the CCDC's data processing and validation procedures.
#
#######################################################################

data_HORCOI
_chemical_formula_moiety         'C30 H39 B1 N2 O1'
_chemical_name_systematic        
triethyl(3-mesityl-1-(2-(2-naphthyl)-2-oxoethyl)-4,5-dihydro-1H-imidazol-3-ium-2-yl)borate
_symmetry_cell_setting           triclinic
_symmetry_space_group_name_H-M   'P -1'
_symmetry_Int_Tables_number      2
_space_group_name_Hall           '-P 1'
loop_
_symmetry_equiv_pos_site_id
_symmetry_equiv_pos_as_xyz
1 x,y,z
2 -x,-y,-z
_cell_length_a                   8.1720(4)
_cell_length_b                   8.6088(3)
_cell_length_c                   20.0510(8)
_cell_angle_alpha                81.502(3)
_cell_angle_beta                 84.547(4)
_cell_angle_gamma                68.047(4)
_cell_volume                     1292.75
_exptl_crystal_colour            colorless
_exptl_crystal_description       block
_cell_formula_units_Z            2
loop_
_atom_site_label
_atom_site_type_symbol
_atom_site_fract_x
_atom_site_fract_y
_atom_site_fract_z
C1 C 0.0165(4) 0.0748(4) 0.76618(14)
C2 C -0.1421(5) 0.3665(4) 0.75349(17)
H1 H -0.1322 0.4436 0.7836
H2 H -0.2581 0.4177 0.7324
C3 C 0.0071(5) 0.3282(4) 0.70066(18)
H3 H -0.0378 0.3648 0.6546
H4 H 0.0905 0.3833 0.7068
C4 C 0.2451(5) 0.0585(4) 0.67290(16)
H5 H 0.3096 -0.0536 0.6975
H6 H 0.3240 0.1236 0.6671
C5 C 0.2040(6) 0.0351(5) 0.60441(19)
C6 C 0.3216(7) -0.1265(6) 0.5069(2)
H7 H 0.2083 -0.0709 0.4886
C7 C 0.3561(7) -0.0887(5) 0.56592(18)
C8 C 0.5277(6) -0.1662(5) 0.5926(2)
H8 H 0.5507 -0.1347 0.6332
C9 C 0.6612(7) -0.2870(6) 0.5598(2)
H9 H 0.7758 -0.3391 0.5773
C10 C 0.6230(7) -0.3292(6) 0.5015(2)
C11 C 0.4638(6) -0.2570(5) 0.47072(18)
C12 C 0.4252(8) -0.3001(6) 0.4128(2)
H10 H 0.3124 -0.2444 0.3940
C13 C 0.5543(8) -0.4256(6) 0.3829(2)
H11 H 0.5324 -0.4574 0.3423
C14 C 0.7229(7) -0.5101(5) 0.4125(2)
H12 H 0.8095 -0.5983 0.3909
C15 C 0.7636(7) -0.4702(6) 0.4690(3)
H13 H 0.8760 -0.5281 0.4878
C16 C 0.2939(4) -0.1696(4) 0.81983(17)
H14 H 0.3253 -0.0694 0.8040
H15 H 0.2871 -0.1815 0.8698
C17 C 0.4459(5) -0.3250(5) 0.7978(2)
H16 H 0.4199 -0.4267 0.8142
H17 H 0.5557 -0.3337 0.8167
H18 H 0.4591 -0.3138 0.7484
C18 C 0.0921(5) -0.2323(4) 0.73048(17)
H19 H 0.1702 -0.2066 0.6932
H20 H 0.1431 -0.3550 0.7455
C19 C -0.0883(6) -0.1916(5) 0.7030(2)
H21 H -0.1699 -0.2080 0.7400
H22 H -0.0779 -0.2665 0.6692
H23 H -0.1335 -0.0740 0.6822
C20 C -0.0264(5) -0.1791(4) 0.85773(17)
H24 H -0.0292 -0.1143 0.8950
H25 H -0.1491 -0.1458 0.8438
C21 C 0.0445(6) -0.3678(4) 0.8835(2)
H26 H 0.0374 -0.4321 0.8481
H27 H -0.0263 -0.3894 0.9235
H28 H 0.1679 -0.4027 0.8953
C22 C -0.2307(4) 0.1976(3) 0.85064(15)
C23 C -0.3992(4) 0.1983(4) 0.84497(16)
C24 C -0.5108(4) 0.2143(4) 0.90247(18)
H29 H -0.6255 0.2127 0.8995
C25 C -0.4607(4) 0.2325(4) 0.96349(17)
C26 C -0.2917(4) 0.2301(4) 0.96757(16)
H30 H -0.2550 0.2408 1.0097
C27 C -0.1736(4) 0.2124(4) 0.91175(15)
C28 C -0.4613(5) 0.1790(6) 0.7795(2)
H31 H -0.3962 0.2191 0.7417
H32 H -0.5879 0.2456 0.7764
H33 H -0.4404 0.0599 0.7779
C29 C -0.5881(6) 0.2553(7) 1.0244(2)
H34 H -0.6972 0.2450 1.0129
H35 H -0.6153 0.3672 1.0381
H36 H -0.5344 0.1685 1.0616
C30 C 0.0103(4) 0.2063(4) 0.91880(18)
H37 H 0.0950 0.0916 0.9152
H38 H 0.0184 0.2387 0.9629
H39 H 0.0374 0.2848 0.8829
B1 B 0.0932(5) -0.1303(4) 0.79384(18)
N1 N -0.1185(3) 0.1990(3) 0.79065(12)
N2 N 0.0901(4) 0.1448(3) 0.71328(13)
O1 O 0.0581(5) 0.1081(4) 0.58290(15)
loop_
_geom_bond_atom_site_label_1
_geom_bond_atom_site_label_2
_geom_bond_site_symmetry_1
_geom_bond_site_symmetry_2
C1 B1 1_555 1_555
C2 H1 1_555 1_555
H2 C2 1_555 1_555
C3 C2 1_555 1_555
H3 C3 1_555 1_555
H4 C3 1_555 1_555
C4 H5 1_555 1_555
H6 C4 1_555 1_555
C5 C4 1_555 1_555
C6 H7 1_555 1_555
C7 C5 1_555 1_555
C8 C7 1_555 1_555
H8 C8 1_555 1_555
C9 C8 1_555 1_555
H9 C9 1_555 1_555
C10 C9 1_555 1_555
C11 C6 1_555 1_555
C12 C11 1_555 1_555
H10 C12 1_555 1_555
C13 C12 1_555 1_555
H11 C13 1_555 1_555
C14 C13 1_555 1_555
H12 C14 1_555 1_555
C15 C10 1_555 1_555
H13 C15 1_555 1_555
C16 H14 1_555 1_555
H15 C16 1_555 1_555
C17 C16 1_555 1_555
H16 C17 1_555 1_555
H17 C17 1_555 1_555
H18 C17 1_555 1_555
C18 H19 1_555 1_555
H20 C18 1_555 1_555
C19 C18 1_555 1_555
H21 C19 1_555 1_555
H22 C19 1_555 1_555
H23 C19 1_555 1_555
C20 H24 1_555 1_555
H25 C20 1_555 1_555
C21 C20 1_555 1_555
H26 C21 1_555 1_555
H27 C21 1_555 1_555
H28 C21 1_555 1_555
C22 C23 1_555 1_555
C23 C24 1_555 1_555
C24 H29 1_555 1_555
C25 C24 1_555 1_555
C26 C25 1_555 1_555
H30 C26 1_555 1_555
C27 C22 1_555 1_555
C28 C23 1_555 1_555
H31 C28 1_555 1_555
H32 C28 1_555 1_555
H33 C28 1_555 1_555
C29 C25 1_555 1_555
H34 C29 1_555 1_555
H35 C29 1_555 1_555
H36 C29 1_555 1_555
C30 C27 1_555 1_555
H37 C30 1_555 1_555
H38 C30 1_555 1_555
H39 C30 1_555 1_555
B1 C16 1_555 1_555
N1 C1 1_555 1_555
N2 C1 1_555 1_555
O1 C5 1_555 1_555
C2 N1 1_555 1_555
C3 N2 1_555 1_555
C4 N2 1_555 1_555
C6 C7 1_555 1_555
C10 C11 1_555 1_555
C14 C15 1_555 1_555
C18 B1 1_555 1_555
C20 B1 1_555 1_555
C22 N1 1_555 1_555
C26 C27 1_555 1_555

#END
