
#######################################################################
#
#                 Cambridge Crystallographic Data Centre
#                                CCDC 
#
#######################################################################
#
# If this CIF has been generated from an entry in the Cambridge 
# Structural Database, then it will include bibliographic, chemical, 
# crystal, experimental, refinement or atomic coordinate data resulting 
# from the CCDC's data processing and validation procedures.
#
#######################################################################

data_HORMOS
_chemical_formula_moiety         'C19 H39 B1 N2 O1'
_chemical_name_systematic        
(1-t-butyl-3-(2-(oxido)-3,3-dimethylbutyl)-1H-imidazol-3-ium)(triethyl)borate
_symmetry_cell_setting           monoclinic
_symmetry_space_group_name_H-M   'P 21/n'
_symmetry_Int_Tables_number      14
_space_group_name_Hall           '-P 2yn'
loop_
_symmetry_equiv_pos_site_id
_symmetry_equiv_pos_as_xyz
1 x,y,z
2 1/2-x,1/2+y,1/2-z
3 -x,-y,-z
4 1/2+x,1/2-y,1/2+z
_cell_length_a                   10.0790(7)
_cell_length_b                   13.6684(7)
_cell_length_c                   15.3802(6)
_cell_angle_alpha                90
_cell_angle_beta                 92.472(5)
_cell_angle_gamma                90
_cell_volume                     2116.86
_exptl_crystal_colour            colorless
_exptl_crystal_description       prism
_cell_formula_units_Z            4
loop_
_atom_site_label
_atom_site_type_symbol
_atom_site_fract_x
_atom_site_fract_y
_atom_site_fract_z
C1 C -0.0969(2) 0.60128(16) 0.17926(15)
H1 H -0.0849 0.6499 0.1362
C2 C -0.1893(3) 0.5004(2) 0.2690(2)
H2 H -0.2544 0.4660 0.2997
C3 C -0.0571(3) 0.48846(19) 0.27827(19)
H3 H -0.0115 0.4443 0.3168
C4 C -0.3470(2) 0.6130(2) 0.18052(19)
C5 C -0.3342(4) 0.6759(4) 0.1017(3)
H4 H -0.2799 0.7333 0.1169
H5 H -0.4226 0.6971 0.0803
H6 H -0.2919 0.6384 0.0562
C6 C -0.4408(4) 0.5297(3) 0.1636(4)
H7 H -0.5277 0.5552 0.1435
H8 H -0.4503 0.4924 0.2174
H9 H -0.4059 0.4869 0.1188
C7 C -0.3929(4) 0.6726(4) 0.2580(3)
H10 H -0.3315 0.7272 0.2693
H11 H -0.3941 0.6305 0.3096
H12 H -0.4823 0.6981 0.2447
C8 C 0.1422(2) 0.57027(16) 0.21349(17)
H13 H 0.1688 0.5474 0.1557
H14 H 0.1924 0.5315 0.2582
C9 C 0.1800(2) 0.67922(15) 0.22421(15)
H15 H 0.2759 0.6853 0.2110
C10 C 0.1640(2) 0.72138(17) 0.31771(16)
C11 C 0.2375(3) 0.8194(2) 0.3220(2)
H16 H 0.2317 0.8473 0.3804
H17 H 0.1968 0.8644 0.2790
H18 H 0.3309 0.8091 0.3094
C12 C 0.2247(4) 0.6531(2) 0.3866(2)
H19 H 0.2221 0.6843 0.4439
H20 H 0.3170 0.6390 0.3735
H21 H 0.1740 0.5919 0.3870
C13 C 0.0185(3) 0.7424(2) 0.33594(19)
H22 H -0.0300 0.6805 0.3396
H23 H -0.0213 0.7822 0.2887
H24 H 0.0138 0.7778 0.3911
C14 C 0.2179(3) 0.67856(18) 0.01738(18)
H25 H 0.2694 0.7067 -0.0300
H26 H 0.2804 0.6391 0.0544
C15 C 0.1148(3) 0.6092(2) -0.0238(2)
H27 H 0.0617 0.5807 0.0217
H28 H 0.1597 0.5568 -0.0546
H29 H 0.0565 0.6454 -0.0651
C16 C 0.0382(3) 0.8242(2) 0.02942(18)
H30 H 0.0661 0.8530 -0.0259
H31 H -0.0307 0.7745 0.0149
C17 C -0.0234(3) 0.9043(2) 0.0832(2)
H32 H -0.0462 0.8778 0.1398
H33 H -0.1039 0.9289 0.0525
H34 H 0.0403 0.9580 0.0919
C18 C 0.2885(2) 0.84512(18) 0.09790(17)
H35 H 0.2579 0.8967 0.1376
H36 H 0.3608 0.8087 0.1292
C19 C 0.3456(4) 0.8946(2) 0.0182(2)
H37 H 0.3871 0.8451 -0.0179
H38 H 0.4122 0.9431 0.0374
H39 H 0.2739 0.9271 -0.0158
B1 B 0.1654(3) 0.76971(18) 0.07668(17)
N1 N -0.21304(19) 0.57132(14) 0.20712(14)
N2 N -0.00023(19) 0.55231(12) 0.22141(13)
O1 O 0.10849(13) 0.73425(10) 0.16280(10)
loop_
_geom_bond_atom_site_label_1
_geom_bond_atom_site_label_2
_geom_bond_site_symmetry_1
_geom_bond_site_symmetry_2
C1 H1 1_555 1_555
C2 H2 1_555 1_555
C3 C2 1_555 1_555
H3 C3 1_555 1_555
C4 C5 1_555 1_555
C5 H4 1_555 1_555
H5 C5 1_555 1_555
H6 C5 1_555 1_555
C6 C4 1_555 1_555
H7 C6 1_555 1_555
H8 C6 1_555 1_555
H9 C6 1_555 1_555
C7 C4 1_555 1_555
H10 C7 1_555 1_555
H11 C7 1_555 1_555
H12 C7 1_555 1_555
C8 H13 1_555 1_555
H14 C8 1_555 1_555
C9 C8 1_555 1_555
H15 C9 1_555 1_555
C10 C9 1_555 1_555
C11 C10 1_555 1_555
H16 C11 1_555 1_555
H17 C11 1_555 1_555
H18 C11 1_555 1_555
C12 C10 1_555 1_555
H19 C12 1_555 1_555
H20 C12 1_555 1_555
H21 C12 1_555 1_555
C13 C10 1_555 1_555
H22 C13 1_555 1_555
H23 C13 1_555 1_555
H24 C13 1_555 1_555
C14 H25 1_555 1_555
H26 C14 1_555 1_555
C15 C14 1_555 1_555
H27 C15 1_555 1_555
H28 C15 1_555 1_555
H29 C15 1_555 1_555
C16 H30 1_555 1_555
H31 C16 1_555 1_555
C17 C16 1_555 1_555
H32 C17 1_555 1_555
H33 C17 1_555 1_555
H34 C17 1_555 1_555
C18 H35 1_555 1_555
H36 C18 1_555 1_555
C19 C18 1_555 1_555
H37 C19 1_555 1_555
H38 C19 1_555 1_555
H39 C19 1_555 1_555
B1 C14 1_555 1_555
N1 C1 1_555 1_555
N2 C1 1_555 1_555
O1 C9 1_555 1_555
C2 N1 1_555 1_555
C3 N2 1_555 1_555
C4 N1 1_555 1_555
C8 N2 1_555 1_555
C16 B1 1_555 1_555
C18 B1 1_555 1_555
B1 O1 1_555 1_555

#END
