
#######################################################################
#
#                 Cambridge Crystallographic Data Centre
#                                CCDC 
#
#######################################################################
#
# If this CIF has been generated from an entry in the Cambridge 
# Structural Database, then it will include bibliographic, chemical, 
# crystal, experimental, refinement or atomic coordinate data resulting 
# from the CCDC's data processing and validation procedures.
#
#######################################################################

data_HORROX
_chemical_formula_moiety         'C22 H20 N2 O4'
_chemical_name_systematic        
'methyl 2-(2,5-dioxo-1-phenylpyrrolidin-3-yl)-5-phenyl-3,4-dihydro-2H-pyrrole-2-carboxylate'
_symmetry_cell_setting           monoclinic
_symmetry_space_group_name_H-M   'P 21'
_symmetry_Int_Tables_number      4
_space_group_name_Hall           'P 2yb'
loop_
_symmetry_equiv_pos_site_id
_symmetry_equiv_pos_as_xyz
1 x,y,z
2 -x,1/2+y,-z
_cell_length_a                   10.598(3)
_cell_length_b                   6.0499(13)
_cell_length_c                   14.733(4)
_cell_angle_alpha                90
_cell_angle_beta                 96.109(3)
_cell_angle_gamma                90
_cell_volume                     939.269
_cell_formula_units_Z            2
loop_
_atom_site_label
_atom_site_type_symbol
_atom_site_fract_x
_atom_site_fract_y
_atom_site_fract_z
C1 C 0.6785(4) 0.0874(7) 0.3521(3)
C2 C 0.5449(4) 0.0760(7) 0.4685(3)
C3 C 0.4601(4) 0.0587(7) 0.3804(3)
H1 H 0.4088 0.1946 0.3692
H2 H 0.4022 -0.0693 0.3816
C4 C 0.5492(4) 0.0286(7) 0.3066(3)
H3 H 0.5492 -0.1308 0.2886
C5 C 0.5145(4) 0.1697(7) 0.2203(3)
C6 C 0.5279(4) 0.4209(6) 0.2380(3)
H4 H 0.5395 0.4528 0.3043
H5 H 0.6009 0.4820 0.2096
C7 C 0.4021(4) 0.5176(7) 0.1935(3)
H6 H 0.3651 0.6224 0.2349
H7 H 0.4139 0.5938 0.1355
C8 C 0.3209(4) 0.3152(7) 0.1770(3)
C9 C 0.1827(4) 0.3263(7) 0.1515(3)
C10 C 0.1041(4) 0.1488(7) 0.1701(3)
H8 H 0.1399 0.0165 0.1963
C11 C -0.0256(4) 0.1682(8) 0.1501(3)
H9 H -0.0791 0.0502 0.1645
C12 C -0.0787(4) 0.3571(8) 0.1093(3)
H10 H -0.1682 0.3672 0.0956
C13 C -0.0025(4) 0.5312(8) 0.0883(3)
H11 H -0.0390 0.6591 0.0586
C14 C 0.1285(4) 0.5176(7) 0.1110(3)
H12 H 0.1811 0.6389 0.0988
C15 C 0.5848(3) 0.0992(7) 0.1394(3)
C16 C 0.6595(4) -0.1980(8) 0.0577(3)
H13 H 0.6047 -0.1529 0.0031
H14 H 0.6646 -0.3597 0.0601
H15 H 0.7447 -0.1366 0.0554
C17 C 0.7749(4) 0.1540(7) 0.5131(3)
C18 C 0.8328(4) 0.3597(7) 0.5098(3)
H16 H 0.8017 0.4649 0.4650
C19 C 0.9359(4) 0.4105(8) 0.5722(3)
H17 H 0.9759 0.5508 0.5705
C20 C 0.9804(4) 0.2557(8) 0.6372(3)
H18 H 1.0514 0.2897 0.6799
C21 C 0.9220(4) 0.0522(9) 0.6401(3)
H19 H 0.9526 -0.0529 0.6850
C22 C 0.8194(4) 0.0009(8) 0.5779(3)
H20 H 0.7797 -0.1396 0.5798
N1 N 0.6692(3) 0.1025(6) 0.4469(2)
N2 N 0.3775(3) 0.1286(5) 0.1902(2)
O1 O 0.7751(3) 0.1164(5) 0.31725(19)
O2 O 0.5144(3) 0.0762(5) 0.54507(18)
O3 O 0.6105(3) 0.2258(5) 0.0805(2)
O4 O 0.6072(3) -0.1165(5) 0.13844(19)
loop_
_geom_bond_atom_site_label_1
_geom_bond_atom_site_label_2
_geom_bond_site_symmetry_1
_geom_bond_site_symmetry_2
C1 C4 1_555 1_555
C2 C3 1_555 1_555
C3 H1 1_555 1_555
H2 C3 1_555 1_555
C4 C3 1_555 1_555
H3 C4 1_555 1_555
C5 C4 1_555 1_555
C6 C5 1_555 1_555
H4 C6 1_555 1_555
H5 C6 1_555 1_555
C7 C6 1_555 1_555
H6 C7 1_555 1_555
H7 C7 1_555 1_555
C8 C7 1_555 1_555
C9 C8 1_555 1_555
C10 C9 1_555 1_555
H8 C10 1_555 1_555
C11 C10 1_555 1_555
H9 C11 1_555 1_555
C12 C11 1_555 1_555
H10 C12 1_555 1_555
C13 C12 1_555 1_555
H11 C13 1_555 1_555
C14 C9 1_555 1_555
H12 C14 1_555 1_555
C15 C5 1_555 1_555
C16 H13 1_555 1_555
H14 C16 1_555 1_555
H15 C16 1_555 1_555
C17 C18 1_555 1_555
C18 H16 1_555 1_555
C19 C18 1_555 1_555
H17 C19 1_555 1_555
C20 C19 1_555 1_555
H18 C20 1_555 1_555
C21 C20 1_555 1_555
H19 C21 1_555 1_555
C22 C17 1_555 1_555
H20 C22 1_555 1_555
N1 C1 1_555 1_555
N2 C5 1_555 1_555
O1 C1 1_555 1_555
O2 C2 1_555 1_555
O3 C15 1_555 1_555
O4 C15 1_555 1_555
C2 N1 1_555 1_555
C8 N2 1_555 1_555
C13 C14 1_555 1_555
C16 O4 1_555 1_555
C17 N1 1_555 1_555
C21 C22 1_555 1_555

#END
