
#######################################################################
#
#                 Cambridge Crystallographic Data Centre
#                                CCDC 
#
#######################################################################
#
# If this CIF has been generated from an entry in the Cambridge 
# Structural Database, then it will include bibliographic, chemical, 
# crystal, experimental, refinement or atomic coordinate data resulting 
# from the CCDC's data processing and validation procedures.
#
#######################################################################

data_HORSEM02
_chemical_formula_moiety         'C33 H43 N3'
_chemical_name_systematic        
2,6-bis(1-(2,6-diisopropylphenylimino)ethyl)pyridine
_symmetry_cell_setting           monoclinic
_symmetry_space_group_name_H-M   'P 21/c'
_symmetry_Int_Tables_number      14
_space_group_name_Hall           '-P 2ybc'
loop_
_symmetry_equiv_pos_site_id
_symmetry_equiv_pos_as_xyz
1 x,y,z
2 -x,1/2+y,1/2-z
3 -x,-y,-z
4 x,1/2-y,1/2+z
_cell_length_a                   15.228(3)
_cell_length_b                   21.695(4)
_cell_length_c                   9.1700(18)
_cell_angle_alpha                90
_cell_angle_beta                 94.70(3)
_cell_angle_gamma                90
_cell_volume                     3019.32
_exptl_crystal_colour            yellow
_exptl_crystal_description       block
_cell_formula_units_Z            4
loop_
_atom_site_label
_atom_site_type_symbol
_atom_site_fract_x
_atom_site_fract_y
_atom_site_fract_z
N1 N 0.08859(17) 0.38145(14) 0.7898(3)
N2 N 0.25332(17) 0.49203(13) 0.7378(3)
N3 N 0.44393(18) 0.56787(12) 0.6339(3)
C1 C 0.1277(2) 0.43295(18) 0.8011(4)
C2 C 0.2098(2) 0.43879(17) 0.7234(4)
C3 C 0.2392(2) 0.39167(18) 0.6395(4)
H1 H 0.2085 0.3547 0.6304
C4 C 0.3146(2) 0.40000(19) 0.5696(4)
H2 H 0.3358 0.3686 0.5130
C5 C 0.3584(2) 0.45541(17) 0.5844(4)
H3 H 0.4091 0.4622 0.5367
C6 C 0.3264(2) 0.50048(16) 0.6701(3)
C7 C 0.3727(2) 0.56035(16) 0.6952(4)
C8 C 0.0992(2) 0.48724(18) 0.8849(5)
H4 H 0.0457 0.4775 0.9286
H5 H 0.0891 0.5217 0.8199
H6 H 0.1444 0.4976 0.9601
C9 C 0.3322(2) 0.60664(18) 0.7908(5)
H7 H 0.3680 0.6431 0.7977
H8 H 0.3286 0.5895 0.8866
H9 H 0.2742 0.6169 0.7492
C10 C 0.0081(2) 0.36988(17) 0.8553(4)
C11 C -0.0708(3) 0.3776(2) 0.7705(5)
C12 C -0.1487(3) 0.3614(3) 0.8333(7)
H10 H -0.2028 0.3675 0.7805
C13 C -0.1461(4) 0.3368(3) 0.9711(7)
H11 H -0.1981 0.3253 1.0101
C14 C -0.0679(3) 0.3293(2) 1.0508(5)
H12 H -0.0674 0.3130 1.1447
C15 C 0.0116(3) 0.34511(19) 0.9963(5)
C16 C -0.0723(3) 0.4013(3) 0.6140(6)
H13 H -0.0112 0.4066 0.5899
C17 C -0.1167(5) 0.4634(4) 0.6053(9)
H14 H -0.1164 0.4792 0.5075
H15 H -0.0856 0.4913 0.6724
H16 H -0.1764 0.4593 0.6303
C18 C -0.1175(5) 0.3584(3) 0.5031(7)
H17 H -0.0882 0.3192 0.5077
H18 H -0.1155 0.3756 0.4070
H19 H -0.1778 0.3531 0.5239
C19 C 0.0972(3) 0.3361(2) 1.0859(5)
H20 H 0.1415 0.3610 1.0412
C20 C 0.0962(4) 0.3567(4) 1.2427(6)
H21 H 0.1532 0.3498 1.2930
H22 H 0.0527 0.3336 1.2896
H23 H 0.0822 0.3998 1.2454
C21 C 0.1258(4) 0.2709(3) 1.0806(8)
H24 H 0.1274 0.2583 0.9805
H25 H 0.0851 0.2454 1.1277
H26 H 0.1835 0.2668 1.1302
C22 C 0.4940(2) 0.62308(16) 0.6521(4)
C23 C 0.4759(2) 0.67245(17) 0.5563(4)
C24 C 0.5309(3) 0.72348(19) 0.5703(5)
H27 H 0.5204 0.7569 0.5078
C25 C 0.6009(3) 0.7254(2) 0.6754(5)
H28 H 0.6368 0.7602 0.6831
C26 C 0.6182(3) 0.6768(2) 0.7686(4)
H29 H 0.6652 0.6791 0.8397
C27 C 0.5661(2) 0.62407(19) 0.7582(4)
C28 C 0.3997(2) 0.66931(18) 0.4384(4)
H30 H 0.3526 0.6455 0.4786
C29 C 0.4267(3) 0.6345(2) 0.3054(5)
H31 H 0.4503 0.5950 0.3353
H32 H 0.4707 0.6577 0.2599
H33 H 0.3762 0.6288 0.2369
C30 C 0.3616(3) 0.7316(2) 0.3934(6)
H34 H 0.3432 0.7525 0.4780
H35 H 0.3118 0.7260 0.3234
H36 H 0.4056 0.7557 0.3504
C31 C 0.5858(3) 0.5693(2) 0.8579(4)
H37 H 0.5454 0.5363 0.8230
C32 C 0.6787(3) 0.5442(3) 0.8512(6)
H38 H 0.6893 0.5360 0.7512
H39 H 0.6849 0.5067 0.9067
H40 H 0.7206 0.5740 0.8914
C33 C 0.5672(4) 0.5827(3) 1.0125(5)
H41 H 0.5079 0.5974 1.0144
H42 H 0.6075 0.6135 1.0527
H43 H 0.5742 0.5457 1.0697
H44? H 0.2342 0.5209 0.7909
loop_
_geom_bond_atom_site_label_1
_geom_bond_atom_site_label_2
_geom_bond_site_symmetry_1
_geom_bond_site_symmetry_2
N1 C1 1_555 1_555
N2 C2 1_555 1_555
N3 C7 1_555 1_555
C1 C2 1_555 1_555
C2 C3 1_555 1_555
C3 H1 1_555 1_555
C4 C3 1_555 1_555
H2 C4 1_555 1_555
C5 C4 1_555 1_555
H3 C5 1_555 1_555
C6 N2 1_555 1_555
C7 C6 1_555 1_555
C8 C1 1_555 1_555
H4 C8 1_555 1_555
H5 C8 1_555 1_555
H6 C8 1_555 1_555
C9 C7 1_555 1_555
H7 C9 1_555 1_555
H8 C9 1_555 1_555
H9 C9 1_555 1_555
C10 N1 1_555 1_555
C11 C10 1_555 1_555
C12 C11 1_555 1_555
H10 C12 1_555 1_555
C13 C12 1_555 1_555
H11 C13 1_555 1_555
C14 C13 1_555 1_555
H12 C14 1_555 1_555
C15 C10 1_555 1_555
C16 C11 1_555 1_555
H13 C16 1_555 1_555
C17 C16 1_555 1_555
H14 C17 1_555 1_555
H15 C17 1_555 1_555
H16 C17 1_555 1_555
C18 C16 1_555 1_555
H17 C18 1_555 1_555
H18 C18 1_555 1_555
H19 C18 1_555 1_555
C19 C15 1_555 1_555
H20 C19 1_555 1_555
C20 C19 1_555 1_555
H21 C20 1_555 1_555
H22 C20 1_555 1_555
H23 C20 1_555 1_555
C21 C19 1_555 1_555
H24 C21 1_555 1_555
H25 C21 1_555 1_555
H26 C21 1_555 1_555
C22 N3 1_555 1_555
C23 C22 1_555 1_555
C24 C23 1_555 1_555
H27 C24 1_555 1_555
C25 C24 1_555 1_555
H28 C25 1_555 1_555
C26 C25 1_555 1_555
H29 C26 1_555 1_555
C27 C22 1_555 1_555
C28 C23 1_555 1_555
H30 C28 1_555 1_555
C29 C28 1_555 1_555
H31 C29 1_555 1_555
H32 C29 1_555 1_555
H33 C29 1_555 1_555
C30 C28 1_555 1_555
H34 C30 1_555 1_555
H35 C30 1_555 1_555
H36 C30 1_555 1_555
C31 C27 1_555 1_555
H37 C31 1_555 1_555
C32 C31 1_555 1_555
H38 C32 1_555 1_555
H39 C32 1_555 1_555
H40 C32 1_555 1_555
C33 C31 1_555 1_555
H41 C33 1_555 1_555
H42 C33 1_555 1_555
H43 C33 1_555 1_555
C5 C6 1_555 1_555
C14 C15 1_555 1_555
C26 C27 1_555 1_555

#END
