
#######################################################################
#
#                 Cambridge Crystallographic Data Centre
#                                CCDC 
#
#######################################################################
#
# If this CIF has been generated from an entry in the Cambridge 
# Structural Database, then it will include bibliographic, chemical, 
# crystal, experimental, refinement or atomic coordinate data resulting 
# from the CCDC's data processing and validation procedures.
#
#######################################################################

data_HOTBEY
_chemical_formula_moiety         'C25 H35 N3 2+,H2 O1,2(Br1 1-)'
_chemical_name_systematic        
'1-(3-((Dimethylammonio)methyl)-2,4,6-trimethylbenzyl)-3-(2,4,6-trimethylphenyl)imidazol-1-ium dibromide monohydrate'
_symmetry_cell_setting           triclinic
_symmetry_space_group_name_H-M   'P -1'
_symmetry_Int_Tables_number      2
_space_group_name_Hall           '-P 1'
loop_
_symmetry_equiv_pos_site_id
_symmetry_equiv_pos_as_xyz
1 x,y,z
2 -x,-y,-z
_cell_length_a                   10.594(4)
_cell_length_b                   10.800(3)
_cell_length_c                   13.193(4)
_cell_angle_alpha                66.48(4)
_cell_angle_beta                 70.26(4)
_cell_angle_gamma                80.58(3)
_cell_volume                     1302.01
_exptl_crystal_colour            colorless
_exptl_crystal_description       block
_chemical_melting_point          '501 K'
_cell_formula_units_Z            2
_exptl_crystal_recrystallization_method dichloromethane
loop_
_atom_site_label
_atom_site_type_symbol
_atom_site_fract_x
_atom_site_fract_y
_atom_site_fract_z
Br1 Br 0.05853(7) 0.78890(7) 0.34382(7)
Br2 Br 0.53218(8) 0.62059(8) 0.28647(7)
O1 O 0.3386(6) 0.7953(7) 0.1251(4)
H1 H 0.272(4) 0.815(8) 0.170(4)
H2 H 0.397(5) 0.764(8) 0.157(5)
N1 N 0.3013(5) 0.4016(4) 0.4497(4)
H3 H 0.383(3) 0.438(6) 0.413(5)
N2 N 0.3043(4) 0.0868(4) 0.1764(4)
N3 N 0.1566(4) 0.2120(4) 0.0972(4)
C1 C 0.3488(5) 0.1091(5) 0.3941(5)
C2 C 0.4293(5) 0.0520(5) 0.3132(4)
C3 C 0.5697(5) 0.0588(5) 0.2778(5)
C4 C 0.6263(5) 0.1238(5) 0.3225(5)
H4 H 0.7193 0.1254 0.3010
C5 C 0.5505(5) 0.1865(5) 0.3978(4)
C6 C 0.4093(5) 0.1809(5) 0.4329(4)
C7 C 0.3254(5) 0.2517(5) 0.5130(5)
H5 H 0.3699 0.2408 0.5694
H6 H 0.2395 0.2089 0.5548
C8 C 0.2255(6) 0.4298(6) 0.3664(5)
H7 H 0.2643 0.3772 0.3187
H8 H 0.2294 0.5241 0.3183
H9 H 0.1336 0.4064 0.4081
C9 C 0.2247(6) 0.4663(6) 0.5380(6)
H10 H 0.2131 0.5616 0.4984
H11 H 0.2745 0.4511 0.5909
H12 H 0.1384 0.4267 0.5802
C10 C 0.1998(5) 0.0854(6) 0.4431(5)
H13 H 0.1537 0.1555 0.3948
H14 H 0.1678 0.0864 0.5201
H15 H 0.1833 -0.0006 0.4455
C11 C 0.6620(6) -0.0024(6) 0.1924(5)
H16 H 0.6464 -0.0971 0.2215
H17 H 0.7537 0.0100 0.1826
H18 H 0.6444 0.0413 0.1191
C12 C 0.6214(6) 0.2566(6) 0.4402(5)
H19 H 0.6090 0.3526 0.4046
H20 H 0.7154 0.2326 0.4202
H21 H 0.5850 0.2292 0.5229
C13 C 0.3650(6) -0.0154(5) 0.2643(5)
H22 H 0.4318 -0.0707 0.2286
H23 H 0.2960 -0.0741 0.3265
C14 C 0.1737(5) 0.1112(5) 0.1895(4)
H24 H 0.1052 0.0644 0.2539
C15 C 0.3735(6) 0.1725(6) 0.0688(5)
H25 H 0.4663 0.1750 0.0371
C16 C 0.2853(6) 0.2512(6) 0.0174(5)
H26 H 0.3042 0.3187 -0.0562
C17 C 0.0284(5) 0.2702(5) 0.0807(5)
C18 C -0.0477(5) 0.3458(6) 0.1462(5)
C19 C -0.1741(6) 0.3945(6) 0.1334(5)
H27 H -0.2271 0.4449 0.1764
C20 C -0.2221(5) 0.3696(6) 0.0589(5)
C21 C -0.1385(6) 0.3010(6) -0.0093(6)
H28 H -0.1682 0.2895 -0.0636
C22 C -0.0132(6) 0.2492(6) -0.0001(5)
C23 C 0.0000(7) 0.3743(7) 0.2297(6)
H29 H -0.0364 0.4603 0.2334
H30 H 0.0963 0.3757 0.2037
H31 H -0.0292 0.3050 0.3052
C24 C -0.3623(7) 0.4168(8) 0.0498(8)
H32 H -0.4166 0.4323 0.1187
H33 H -0.4016 0.3488 0.0413
H34 H -0.3575 0.4993 -0.0164
C25 C 0.0750(8) 0.1756(9) -0.0766(8)
H35 H 0.0258 0.1644 -0.1215
H36 H 0.1022 0.0886 -0.0293
H37 H 0.1529 0.2271 -0.1278
loop_
_geom_bond_atom_site_label_1
_geom_bond_atom_site_label_2
_geom_bond_site_symmetry_1
_geom_bond_site_symmetry_2
O1 H1 1_555 1_555
H2 O1 1_555 1_555
N1 H3 1_555 1_555
N2 C13 1_555 1_555
N3 C14 1_555 1_555
C1 C2 1_555 1_555
C2 C3 1_555 1_555
C3 C4 1_555 1_555
C4 H4 1_555 1_555
C5 C4 1_555 1_555
C6 C1 1_555 1_555
C7 N1 1_555 1_555
H5 C7 1_555 1_555
H6 C7 1_555 1_555
C8 N1 1_555 1_555
H7 C8 1_555 1_555
H8 C8 1_555 1_555
H9 C8 1_555 1_555
C9 N1 1_555 1_555
H10 C9 1_555 1_555
H11 C9 1_555 1_555
H12 C9 1_555 1_555
C10 C1 1_555 1_555
H13 C10 1_555 1_555
H14 C10 1_555 1_555
H15 C10 1_555 1_555
C11 C3 1_555 1_555
H16 C11 1_555 1_555
H17 C11 1_555 1_555
H18 C11 1_555 1_555
C12 C5 1_555 1_555
H19 C12 1_555 1_555
H20 C12 1_555 1_555
H21 C12 1_555 1_555
C13 C2 1_555 1_555
H22 C13 1_555 1_555
H23 C13 1_555 1_555
C14 N2 1_555 1_555
H24 C14 1_555 1_555
C15 N2 1_555 1_555
H25 C15 1_555 1_555
C16 N3 1_555 1_555
H26 C16 1_555 1_555
C17 N3 1_555 1_555
C18 C17 1_555 1_555
C19 C18 1_555 1_555
H27 C19 1_555 1_555
C20 C19 1_555 1_555
C21 C20 1_555 1_555
H28 C21 1_555 1_555
C22 C17 1_555 1_555
C23 C18 1_555 1_555
H29 C23 1_555 1_555
H30 C23 1_555 1_555
H31 C23 1_555 1_555
C24 C20 1_555 1_555
H32 C24 1_555 1_555
H33 C24 1_555 1_555
H34 C24 1_555 1_555
C25 C22 1_555 1_555
H35 C25 1_555 1_555
H36 C25 1_555 1_555
H37 C25 1_555 1_555
C5 C6 1_555 1_555
C6 C7 1_555 1_555
C15 C16 1_555 1_555
C21 C22 1_555 1_555

#END
