
#######################################################################
#
#                 Cambridge Crystallographic Data Centre
#                                CCDC 
#
#######################################################################
#
# If this CIF has been generated from an entry in the Cambridge 
# Structural Database, then it will include bibliographic, chemical, 
# crystal, experimental, refinement or atomic coordinate data resulting 
# from the CCDC's data processing and validation procedures.
#
#######################################################################

data_HOWPIT
_chemical_name_common            
'5,12-Dibutyl-5,12-dihydroquino[2,3-b]acridine-7,14-dione chloroform solvate'
_chemical_formula_moiety         'C28 H28 N2 O2,C1 H1 Cl3'
_chemical_name_systematic        'N,N-Di-n-butylquinacridone chloroform solvate'
_symmetry_cell_setting           triclinic
_symmetry_space_group_name_H-M   'P -1'
_symmetry_Int_Tables_number      2
_space_group_name_Hall           '-P 1'
loop_
_symmetry_equiv_pos_site_id
_symmetry_equiv_pos_as_xyz
1 x,y,z
2 -x,-y,-z
_cell_length_a                   5.0722(10)
_cell_length_b                   15.926(3)
_cell_length_c                   17.571(4)
_cell_angle_alpha                109.12(3)
_cell_angle_beta                 94.83(3)
_cell_angle_gamma                90.82(3)
_cell_volume                     1335
_exptl_crystal_colour            red
_exptl_crystal_description       needle
_cell_formula_units_Z            2
_exptl_crystal_recrystallization_method 'petroleum ether/chloroform'
_exptl_crystal_preparation       luminescent
loop_
_atom_site_label
_atom_site_type_symbol
_atom_site_fract_x
_atom_site_fract_y
_atom_site_fract_z
C1 C 0.4786(10) 0.8800(3) 0.3392(3)
C2 C 0.3099(10) 0.8111(4) 0.2852(3)
H1 H 0.3416 0.7521 0.2794
C3 C 0.1009(11) 0.8312(4) 0.2415(3)
H2 H -0.0100 0.7853 0.2065
C4 C 0.0490(11) 0.9177(4) 0.2478(3)
H3 H -0.0951 0.9303 0.2175
C5 C 0.2132(10) 0.9850(4) 0.2994(3)
H4 H 0.1804 1.0437 0.3038
C6 C 0.4265(9) 0.9672(3) 0.3449(3)
C7 C 0.5954(10) 1.0415(3) 0.3991(3)
C8 C 0.8011(9) 1.0187(3) 0.4502(3)
C9 C 0.9597(9) 1.0860(3) 0.5046(3)
H5 H 0.9326 1.1443 0.5066
C10 C 0.8431(10) 0.9296(3) 0.4437(3)
C11 C 0.7558(10) 0.7688(3) 0.3738(3)
H6 H 0.9459 0.7681 0.3857
H7 H 0.7133 0.7341 0.3172
C12 C 0.6223(11) 0.7244(3) 0.4241(4)
H8 H 0.4362 0.7129 0.4047
H9 H 0.6350 0.7636 0.4798
C13 C 0.7492(15) 0.6372(4) 0.4201(5)
H10 H 0.7589 0.6022 0.3638
H11 H 0.9290 0.6503 0.4456
C14 C 0.606(2) 0.5830(5) 0.4597(6)
H12 H 0.5780 0.6191 0.5138
H13 H 0.7096 0.5336 0.4614
H14 H 0.4382 0.5614 0.4294
N1 N 0.6847(8) 0.8608(2) 0.3858(3)
O1 O 0.5619(7) 1.1185(2) 0.4012(2)
C1A C 1.5214(10) 1.1200(3) 0.6608(3)
C2A C 1.6901(10) 1.1889(4) 0.7148(3)
H1A H 1.6584 1.2479 0.7206
C3A C 1.8991(11) 1.1688(4) 0.7585(3)
H2A H 2.0100 1.2147 0.7935
C4A C 1.9510(11) 1.0823(4) 0.7522(3)
H3A H 2.0951 1.0697 0.7825
C5A C 1.7868(10) 1.0150(4) 0.7006(3)
H4A H 1.8196 0.9563 0.6962
C6A C 1.5735(9) 1.0328(3) 0.6551(3)
C7A C 1.4046(10) 0.9585(3) 0.6009(3)
C8A C 1.1989(9) 0.9813(3) 0.5498(3)
C9A C 1.0403(9) 0.9140(3) 0.4954(3)
H5A H 1.0674 0.8557 0.4934
C10A C 1.1569(10) 1.0704(3) 0.5563(3)
C11A C 1.2442(10) 1.2312(3) 0.6262(3)
H6A H 1.0541 1.2319 0.6143
H7A H 1.2867 1.2659 0.6828
C12A C 1.3777(11) 1.2756(3) 0.5759(4)
H8A H 1.5638 1.2871 0.5953
H9A H 1.3650 1.2364 0.5202
C13A C 1.2508(15) 1.3628(4) 0.5799(5)
H10A H 1.2411 1.3978 0.6362
H11A H 1.0710 1.3497 0.5544
C14A C 1.394(2) 1.4170(5) 0.5403(6)
H12A H 1.4220 1.3809 0.4862
H13A H 1.2904 1.4664 0.5386
H14A H 1.5618 1.4386 0.5706
N1A N 1.3153(8) 1.1392(2) 0.6142(3)
O1A O 1.4381(7) 0.8815(2) 0.5988(2)
C15 C 0.4847(9) 0.4073(3) 0.0920(3)
C16 C 0.3106(10) 0.3486(4) 0.1081(3)
H15 H 0.2929 0.2899 0.0738
C17 C 0.1652(10) 0.3746(4) 0.1729(4)
H16 H 0.0488 0.3338 0.1818
C18 C 0.1891(11) 0.4619(4) 0.2262(4)
H17 H 0.0885 0.4801 0.2701
C19 C 0.3622(10) 0.5191(4) 0.2122(3)
H18 H 0.3805 0.5772 0.2480
C20 C 0.5157(9) 0.4951(3) 0.1463(3)
C21 C 0.6989(9) 0.5590(3) 0.1355(3)
C22 C 0.8518(9) 0.5269(3) 0.0653(3)
C23 C 0.8111(9) 0.4403(3) 0.0115(3)
C24 C 0.9642(9) 0.4143(3) -0.0536(3)
H19 H 0.9430 0.3566 -0.0899
C25 C 0.5629(9) 0.2940(3) -0.0367(3)
H20 H 0.6018 0.2966 -0.0891
H21 H 0.3745 0.2803 -0.0398
C26 C 0.7132(10) 0.2194(3) -0.0201(3)
H22 H 0.8930 0.2219 -0.0345
H23 H 0.7219 0.2278 0.0373
C27 C 0.5866(11) 0.1295(4) -0.0666(4)
H24 H 0.5706 0.1219 -0.1239
H25 H 0.4098 0.1259 -0.0504
C28 C 0.7460(15) 0.0548(4) -0.0524(5)
H26 H 0.9188 0.0567 -0.0704
H27 H 0.6569 -0.0014 -0.0820
H28 H 0.7629 0.0622 0.0043
N2 N 0.6247(7) 0.3818(2) 0.0241(2)
O2 O 0.7229(7) 0.6369(2) 0.1815(2)
C15A C 1.5153(9) 0.5927(3) -0.0920(3)
C16A C 1.6894(10) 0.6514(4) -0.1081(3)
H15A H 1.7071 0.7101 -0.0738
C17A C 1.8348(10) 0.6254(4) -0.1729(4)
H16A H 1.9512 0.6662 -0.1818
C18A C 1.8109(11) 0.5381(4) -0.2262(4)
H17A H 1.9115 0.5199 -0.2701
C19A C 1.6378(10) 0.4809(4) -0.2122(3)
H18A H 1.6195 0.4228 -0.2480
C20A C 1.4843(9) 0.5049(3) -0.1463(3)
C21A C 1.3011(9) 0.4410(3) -0.1355(3)
C22A C 1.1482(9) 0.4731(3) -0.0653(3)
C23A C 1.1889(9) 0.5597(3) -0.0115(3)
C24A C 1.0358(9) 0.5857(3) 0.0536(3)
H19A H 1.0570 0.6434 0.0899
C25A C 1.4371(9) 0.7060(3) 0.0367(3)
H20A H 1.3982 0.7034 0.0891
H21A H 1.6255 0.7197 0.0398
C26A C 1.2868(10) 0.7806(3) 0.0201(3)
H22A H 1.1070 0.7781 0.0345
H23A H 1.2781 0.7722 -0.0373
C27A C 1.4134(11) 0.8705(4) 0.0666(4)
H24A H 1.4294 0.8781 0.1239
H25A H 1.5902 0.8741 0.0504
C28A C 1.2540(15) 0.9452(4) 0.0524(5)
H26A H 1.0812 0.9433 0.0704
H27A H 1.3431 1.0014 0.0820
H28A H 1.2371 0.9378 -0.0043
N2A N 1.3753(7) 0.6182(2) -0.0241(2)
O2A O 1.2771(7) 0.3631(2) -0.1815(2)
C29 C 0.7436(14) 0.2273(5) 0.3036(4)
Cl1 Cl 0.656(2) 0.3326(5) 0.3056(8)
Cl2 Cl 1.0510(9) 0.2315(4) 0.3559(5)
Cl3 Cl 0.739(4) 0.1517(12) 0.2073(7)
H29 H 0.621(12) 0.215(6) 0.329(5)
Cl4? Cl 0.708(8) 0.3418(9) 0.336(2)
Cl5? Cl 0.572(4) 0.275(2) 0.2402(17)
Cl6? Cl 0.595(7) 0.1770(16) 0.2044(10)
Cl7? Cl 0.848(8) 0.1582(15) 0.2133(10)
Cl8? Cl 1.039(4) 0.189(2) 0.262(2)
Cl9? Cl 1.023(4) 0.2814(17) 0.366(2)
loop_
_geom_bond_atom_site_label_1
_geom_bond_atom_site_label_2
_geom_bond_site_symmetry_1
_geom_bond_site_symmetry_2
C1 C2 1_555 1_555
C2 H1 1_555 1_555
C3 C2 1_555 1_555
H2 C3 1_555 1_555
C4 C3 1_555 1_555
H3 C4 1_555 1_555
C5 C4 1_555 1_555
H4 C5 1_555 1_555
C6 C1 1_555 1_555
C7 C6 1_555 1_555
C8 C7 1_555 1_555
C9 C8 1_555 1_555
H5 C9 1_555 1_555
C10 C8 1_555 1_555
C11 H6 1_555 1_555
H7 C11 1_555 1_555
C12 C11 1_555 1_555
H8 C12 1_555 1_555
H9 C12 1_555 1_555
C13 C12 1_555 1_555
H10 C13 1_555 1_555
H11 C13 1_555 1_555
C14 C13 1_555 1_555
H12 C14 1_555 1_555
H13 C14 1_555 1_555
H14 C14 1_555 1_555
C15 C16 1_555 1_555
C16 H15 1_555 1_555
C17 C16 1_555 1_555
H16 C17 1_555 1_555
C18 C17 1_555 1_555
H17 C18 1_555 1_555
C19 C18 1_555 1_555
H18 C19 1_555 1_555
C20 C15 1_555 1_555
C21 C20 1_555 1_555
C22 C21 1_555 1_555
C23 C22 1_555 1_555
C24 C23 1_555 1_555
H19 C24 1_555 1_555
C25 H20 1_555 1_555
H21 C25 1_555 1_555
C26 C25 1_555 1_555
H22 C26 1_555 1_555
H23 C26 1_555 1_555
C27 C26 1_555 1_555
H24 C27 1_555 1_555
H25 C27 1_555 1_555
C28 C27 1_555 1_555
H26 C28 1_555 1_555
H27 C28 1_555 1_555
H28 C28 1_555 1_555
C29 Cl1 1_555 1_555
Cl2 C29 1_555 1_555
Cl3 C29 1_555 1_555
N1 C1 1_555 1_555
N2 C15 1_555 1_555
O1 C7 1_555 1_555
O2 C21 1_555 1_555
H29 C29 1_555 1_555
C1A C2A 1_555 1_555
C2A H1A 1_555 1_555
C3A C2A 1_555 1_555
H2A C3A 1_555 1_555
C4A C3A 1_555 1_555
H3A C4A 1_555 1_555
C5A C4A 1_555 1_555
H4A C5A 1_555 1_555
C6A C1A 1_555 1_555
C7A C6A 1_555 1_555
C8A C7A 1_555 1_555
C9A C10 1_555 1_555
H5A C9A 1_555 1_555
C10A C9 1_555 1_555
C11A H6A 1_555 1_555
H7A C11A 1_555 1_555
C12A C11A 1_555 1_555
H8A C12A 1_555 1_555
H9A C12A 1_555 1_555
C13A C12A 1_555 1_555
H10A C13A 1_555 1_555
H11A C13A 1_555 1_555
C14A C13A 1_555 1_555
H12A C14A 1_555 1_555
H13A C14A 1_555 1_555
H14A C14A 1_555 1_555
C15A C16A 1_555 1_555
C16A H15A 1_555 1_555
C17A C16A 1_555 1_555
H16A C17A 1_555 1_555
C18A C17A 1_555 1_555
H17A C18A 1_555 1_555
C19A C18A 1_555 1_555
H18A C19A 1_555 1_555
C20A C15A 1_555 1_555
C21A C20A 1_555 1_555
C22A C24 1_555 1_555
C23A C22A 1_555 1_555
C24A C22 1_555 1_555
H19A C24A 1_555 1_555
C25A H20A 1_555 1_555
H21A C25A 1_555 1_555
C26A C25A 1_555 1_555
H22A C26A 1_555 1_555
H23A C26A 1_555 1_555
C27A C26A 1_555 1_555
H24A C27A 1_555 1_555
H25A C27A 1_555 1_555
C28A C27A 1_555 1_555
H26A C28A 1_555 1_555
H27A C28A 1_555 1_555
H28A C28A 1_555 1_555
N1A C1A 1_555 1_555
N2A C15A 1_555 1_555
O1A C7A 1_555 1_555
O2A C21A 1_555 1_555
C5 C6 1_555 1_555
C10 N1 1_555 1_555
C11 N1 1_555 1_555
C19 C20 1_555 1_555
C23 N2 1_555 1_555
C25 N2 1_555 1_555
C5A C6A 1_555 1_555
C8A C9A 1_555 1_555
C8A C10A 1_555 1_555
C10A N1A 1_555 1_555
C11A N1A 1_555 1_555
C19A C20A 1_555 1_555
C21A C22A 1_555 1_555
C23A C24A 1_555 1_555
C23A N2A 1_555 1_555
C25A N2A 1_555 1_555

#END
