
#######################################################################
#
#                 Cambridge Crystallographic Data Centre
#                                CCDC 
#
#######################################################################
#
# If this CIF has been generated from an entry in the Cambridge 
# Structural Database, then it will include bibliographic, chemical, 
# crystal, experimental, refinement or atomic coordinate data resulting 
# from the CCDC's data processing and validation procedures.
#
#######################################################################

data_HOWPUG
_chemical_formula_moiety         'C16 H15 Br1 N2 O4,C1 H4 O1'
_chemical_name_systematic        
'1-(2-(4-bromophenyl)-2-oxoethyl)-7,9-diazaspiro[4.5]decane-6,8,10-trione methanol solvate'
_symmetry_cell_setting           triclinic
_symmetry_space_group_name_H-M   'P 1'
_symmetry_Int_Tables_number      1
_space_group_name_Hall           'P 1'
loop_
_symmetry_equiv_pos_site_id
_symmetry_equiv_pos_as_xyz
1 x,y,z
_cell_length_a                   6.8994(4)
_cell_length_b                   10.0527(5)
_cell_length_c                   13.1374(7)
_cell_angle_alpha                98.852(3)
_cell_angle_beta                 94.250(3)
_cell_angle_gamma                105.957(2)
_cell_volume                     859.111
_exptl_crystal_colour            colorless
_exptl_crystal_description       needle
_cell_formula_units_Z            2
loop_
_atom_site_label
_atom_site_type_symbol
_atom_site_fract_x
_atom_site_fract_y
_atom_site_fract_z
Br1 Br 1.00555(3) 0.58934(2) -0.190821(19)
O1 O 1.0512(3) 0.13917(16) 0.14320(12)
O2 O 0.6630(3) -0.0291(2) 0.26262(14)
O3 O 1.2988(4) 0.0838(2) 0.42756(15)
O4 O 1.1815(3) -0.17654(19) 0.10717(13)
C1 C 0.8638(4) 0.2014(3) -0.10100(19)
H1 H 0.8001 0.1063 -0.1329
C2 C 0.8834(5) 0.3073(3) -0.1601(2)
H2 H 0.8354 0.2855 -0.2321
C3 C 0.9743(4) 0.4443(3) -0.1111(2)
C4 C 1.0455(4) 0.4805(2) -0.0063(2)
H3 H 1.1054 0.5761 0.0255
C5 C 1.0273(4) 0.3739(2) 0.05107(18)
H4 H 1.0770 0.3963 0.1229
C6 C 0.9362(4) 0.2334(2) 0.00399(18)
C7 C 0.9259(4) 0.1214(2) 0.06855(18)
C8 C 0.7507(4) -0.0109(2) 0.04200(19)
H5 H 0.7051 -0.0268 -0.0333
H6 H 0.6370 0.0052 0.0791
C9 C 0.7891(4) -0.1437(2) 0.06679(16)
H7 H 0.8845 -0.1677 0.0182
C10 C 0.8840(4) -0.1448(2) 0.17787(15)
C11 C 0.8315(4) -0.0450(2) 0.26313(16)
N1 N 0.9771(3) 0.0203(2) 0.34562(14)
H8 H 0.9394 0.0672 0.3990
C12 C 1.1757(4) 0.0196(3) 0.35300(18)
N2 N 1.2309(3) -0.0579(2) 0.27025(14)
H9 H 1.3560 -0.0639 0.2758
C13 C 1.1072(4) -0.1269(2) 0.17946(17)
C14 C 0.7791(4) -0.2992(2) 0.19604(18)
H10 H 0.8829 -0.3454 0.2148
H11 H 0.6924 -0.2968 0.2527
C15 C 0.6511(5) -0.3783(3) 0.0939(2)
H12 H 0.7299 -0.4269 0.0495
H13 H 0.5278 -0.4489 0.1065
C16 C 0.5960(4) -0.2678(2) 0.0441(2)
H14 H 0.4818 -0.2417 0.0747
H15 H 0.5574 -0.3006 -0.0316
Br2 Br 0.26562(3) -0.007491(18) 0.913551(15)
O5 O 0.3399(3) 0.44596(17) 0.57424(12)
O6 O 0.7123(3) 0.61553(19) 0.44319(13)
O7 O 0.0622(3) 0.5037(2) 0.30213(13)
O8 O 0.2176(3) 0.76228(16) 0.62513(12)
C17 C 0.4156(4) 0.3886(3) 0.83684(18)
H16 H 0.4584 0.4832 0.8730
C18 C 0.3830(4) 0.2791(3) 0.89223(19)
H17 H 0.4021 0.2981 0.9660
C19 C 0.3224(4) 0.1424(3) 0.83874(19)
C20 C 0.2979(4) 0.1121(2) 0.73052(18)
H18 H 0.2604 0.0174 0.6949
C21 C 0.3284(4) 0.2205(2) 0.67622(17)
H19 H 0.3104 0.2007 0.6025
C22 C 0.3864(4) 0.3613(2) 0.72880(18)
C23 C 0.4081(4) 0.4753(2) 0.66608(17)
C24 C 0.5085(4) 0.6269(2) 0.71700(17)
H20 H 0.6052 0.6295 0.7773
H21 H 0.4033 0.6685 0.7433
C25 C 0.6217(3) 0.7163(2) 0.64408(16)
H22 H 0.7336 0.6762 0.6235
C26 C 0.5021(3) 0.72754(19) 0.54194(15)
C27 C 0.5443(4) 0.6305(2) 0.45111(17)
N3 N 0.3898(3) 0.56670(19) 0.37321(13)
H23 H 0.4202 0.5205 0.3171
C28 C 0.1930(4) 0.5674(2) 0.37383(16)
N4 N 0.1474(3) 0.64452(18) 0.46059(13)
H24 H 0.0229 0.6515 0.4593
C29 C 0.2798(3) 0.7111(2) 0.54862(16)
C30 C 0.6012(4) 0.8851(2) 0.52721(18)
H25 H 0.6395 0.8872 0.4562
H26 H 0.5049 0.9413 0.5391
C31 C 0.7856(5) 0.9417(2) 0.6062(2)
H27 H 0.8199 1.0452 0.6262
H28 H 0.9040 0.9168 0.5795
C32 C 0.7222(5) 0.8698(3) 0.6977(2)
H29 H 0.6248 0.9098 0.7342
H30 H 0.8413 0.8780 0.7477
O9 O 0.4172(3) 0.35334(18) 0.21575(16)
H31 H 0.3062 0.2924 0.1923
C33 C 0.5752(5) 0.2884(3) 0.2163(3)
H32 H 0.7063 0.3606 0.2373
H33 H 0.5741 0.2365 0.1466
H34 H 0.5546 0.2232 0.2655
O10 O 0.9485(4) 0.2383(2) 0.5005(2)
H35 H 1.0644 0.2956 0.5047
C34 C 0.8036(6) 0.3113(3) 0.5067(3)
H36 H 0.8212 0.3676 0.5764
H37 H 0.6673 0.2441 0.4926
H38 H 0.8203 0.3734 0.4553
loop_
_geom_bond_atom_site_label_1
_geom_bond_atom_site_label_2
_geom_bond_site_symmetry_1
_geom_bond_site_symmetry_2
Br1 C3 1_555 1_555
O1 C7 1_555 1_555
O2 C11 1_555 1_555
O3 C12 1_555 1_555
O4 C13 1_555 1_555
C1 H1 1_555 1_555
C2 C1 1_555 1_555
H2 C2 1_555 1_555
C3 C2 1_555 1_555
C4 C3 1_555 1_555
H3 C4 1_555 1_555
C5 C4 1_555 1_555
H4 C5 1_555 1_555
C6 C1 1_555 1_555
C7 C6 1_555 1_555
C8 C7 1_555 1_555
H5 C8 1_555 1_555
H6 C8 1_555 1_555
C9 C8 1_555 1_555
H7 C9 1_555 1_555
C10 C9 1_555 1_555
C11 C10 1_555 1_555
N1 C11 1_555 1_555
H8 N1 1_555 1_555
C12 N1 1_555 1_555
N2 C12 1_555 1_555
H9 N2 1_555 1_555
C13 C10 1_555 1_555
C14 C10 1_555 1_555
H10 C14 1_555 1_555
H11 C14 1_555 1_555
C15 C14 1_555 1_555
H12 C15 1_555 1_555
H13 C15 1_555 1_555
C16 C9 1_555 1_555
H14 C16 1_555 1_555
H15 C16 1_555 1_555
Br2 C19 1_555 1_555
O5 C23 1_555 1_555
O6 C27 1_555 1_555
O7 C28 1_555 1_555
O8 C29 1_555 1_555
C17 H16 1_555 1_555
C18 C17 1_555 1_555
H17 C18 1_555 1_555
C19 C18 1_555 1_555
C20 C19 1_555 1_555
H18 C20 1_555 1_555
C21 C20 1_555 1_555
H19 C21 1_555 1_555
C22 C17 1_555 1_555
C23 C22 1_555 1_555
C24 C23 1_555 1_555
H20 C24 1_555 1_555
H21 C24 1_555 1_555
C25 C24 1_555 1_555
H22 C25 1_555 1_555
C26 C25 1_555 1_555
C27 C26 1_555 1_555
N3 C27 1_555 1_555
H23 N3 1_555 1_555
C28 N3 1_555 1_555
N4 C28 1_555 1_555
H24 N4 1_555 1_555
C29 C26 1_555 1_555
C30 C26 1_555 1_555
H25 C30 1_555 1_555
H26 C30 1_555 1_555
C31 C30 1_555 1_555
H27 C31 1_555 1_555
H28 C31 1_555 1_555
C32 C25 1_555 1_555
H29 C32 1_555 1_555
H30 C32 1_555 1_555
O9 H31 1_555 1_555
C33 O9 1_555 1_555
H32 C33 1_555 1_555
H33 C33 1_555 1_555
H34 C33 1_555 1_555
O10 H35 1_555 1_555
C34 O10 1_555 1_555
H36 C34 1_555 1_555
H37 C34 1_555 1_555
H38 C34 1_555 1_555
C5 C6 1_555 1_555
N2 C13 1_555 1_555
C15 C16 1_555 1_555
C21 C22 1_555 1_555
N4 C29 1_555 1_555
C31 C32 1_555 1_555

#END
