
#######################################################################
#
#                 Cambridge Crystallographic Data Centre
#                                CCDC 
#
#######################################################################
#
# If this CIF has been generated from an entry in the Cambridge 
# Structural Database, then it will include bibliographic, chemical, 
# crystal, experimental, refinement or atomic coordinate data resulting 
# from the CCDC's data processing and validation procedures.
#
#######################################################################

data_HOWYAV
_chemical_formula_moiety         'C27 H21 N1 O2'
_chemical_name_systematic        
'ethyl 2,3-diphenyl-1H-benzo[de]quinoline-1-carboxylate'
_symmetry_cell_setting           monoclinic
_symmetry_space_group_name_H-M   'C c'
_symmetry_Int_Tables_number      9
_space_group_name_Hall           'C -2yc'
loop_
_symmetry_equiv_pos_site_id
_symmetry_equiv_pos_as_xyz
1 x,y,z
2 x,-y,1/2+z
3 1/2+x,1/2+y,z
4 1/2+x,1/2-y,1/2+z
_cell_length_a                   12.5831(17)
_cell_length_b                   38.828(5)
_cell_length_c                   10.3741(14)
_cell_angle_alpha                90
_cell_angle_beta                 126.514(9)
_cell_angle_gamma                90
_cell_volume                     4073.65
_exptl_crystal_colour            orange
_exptl_crystal_description       block
_cell_formula_units_Z            8
loop_
_atom_site_label
_atom_site_type_symbol
_atom_site_fract_x
_atom_site_fract_y
_atom_site_fract_z
O1 O 0.18692(15) 0.50996(4) 0.50590(19)
O2 O 0.13985(17) 0.46410(4) 0.3468(3)
N1 N 0.34893(18) 0.48788(4) 0.4993(3)
C1 C 0.5458(3) 0.51911(5) 0.7009(3)
C2 C 0.6129(3) 0.48611(6) 0.7746(3)
C3 C 0.3459(3) 0.55054(5) 0.4704(3)
C4 C 0.5507(3) 0.45548(6) 0.6832(3)
C5 C 0.4215(3) 0.45661(5) 0.5355(3)
C6 C 0.7374(3) 0.48391(6) 0.9181(3)
C7 C 0.4195(3) 0.51956(5) 0.5685(3)
C8 C 0.2160(3) 0.48571(5) 0.4394(3)
C9 C 0.5589(3) 0.39400(6) 0.6387(4)
C10 C 0.6194(3) 0.42344(6) 0.7367(3)
C11 C 0.6565(3) 0.56702(6) 0.9046(3)
C12 C 0.4384(3) 0.39647(6) 0.4939(4)
C13 C 0.6797(3) 0.56534(7) 0.6914(3)
C14 C 0.3363(3) 0.58044(6) 0.5370(3)
C15 C 0.2621(3) 0.60814(6) 0.4398(4)
C16 C 0.3689(3) 0.42774(6) 0.4400(4)
C17 C 0.8028(3) 0.45177(7) 0.9757(3)
C18 C 0.0478(3) 0.51357(7) 0.4400(4)
C19 C 0.7882(3) 0.60985(6) 0.8914(4)
C20 C 0.7454(3) 0.42270(6) 0.8863(3)
C21 C 0.2808(3) 0.54910(6) 0.3055(3)
C22 C 0.7360(3) 0.59622(6) 0.9661(3)
C23 C 0.1964(3) 0.60639(7) 0.2752(4)
C24 C -0.0212(3) 0.53668(7) 0.2964(4)
C25 C 0.2052(4) 0.57693(7) 0.2079(4)
C26 C 0.7594(3) 0.59442(7) 0.7536(4)
C27 C 0.6274(2) 0.55132(5) 0.7660(3)
H1 H 0.7799 0.5042 0.9789
H2 H 0.6026 0.3724 0.6740
H3 H 0.6218 0.5577 0.9573
H4 H 0.4005 0.3766 0.4280
H5 H 0.6608 0.5549 0.5969
H6 H 0.3807 0.5819 0.6496
H7 H 0.2563 0.6285 0.4864
H8 H 0.2856 0.4290 0.3377
H9 H 0.8869 0.4505 1.0769
H10 H 0.0405 0.5233 0.5226
H11 H 0.0050 0.4906 0.4091
H12 H 0.8434 0.6296 0.9343
H13 H 0.7914 0.4014 0.9255
H14 H 0.2878 0.5290 0.2587
H15 H 0.7547 0.6069 1.0600
H16 H 0.1456 0.6254 0.2091
H17 H -0.1145 0.5389 0.2534
H18 H -0.0149 0.5269 0.2142
H19 H 0.0204 0.5595 0.3275
H20 H 0.1599 0.5756 0.0951
H21 H 0.7944 0.6038 0.7014
O3 O 0.4402(3) 0.80531(5) 0.4451(3)
O4 O 0.33995(17) 0.75716(5) 0.3048(2)
N2 N 0.48225(18) 0.78317(5) 0.2726(2)
C28 C 0.4493(2) 0.79068(5) -0.0194(3)
C29 C 0.4545(2) 0.72611(5) -0.0447(3)
C30 C 0.4541(2) 0.75638(5) 0.0443(3)
C31 C 0.5724(3) 0.71036(6) 0.0069(3)
C32 C 0.4933(3) 0.71932(6) 0.2660(3)
C33 C 0.4757(3) 0.85617(6) -0.1143(3)
C34 C 0.4718(2) 0.75304(5) 0.1849(3)
C35 C 0.4888(2) 0.81941(5) 0.0862(3)
C36 C 0.3375(3) 0.71414(6) -0.1852(3)
C37 C 0.5165(2) 0.81546(6) 0.2393(3)
C38 C 0.4241(2) 0.79565(6) -0.1668(3)
C39 C 0.5060(2) 0.85232(5) 0.0397(3)
C40 C 0.5753(3) 0.68376(6) -0.0809(4)
C41 C 0.5878(3) 0.87459(6) 0.3004(4)
C42 C 0.5553(3) 0.87983(6) 0.1514(4)
C43 C 0.4059(3) 0.69187(6) 0.1850(3)
C44 C 0.4349(3) 0.82853(6) -0.2158(3)
C45 C 0.4255(3) 0.66091(7) 0.2621(4)
C46 C 0.3404(3) 0.68739(6) -0.2718(3)
C47 C 0.5693(3) 0.84243(6) 0.3474(3)
C48 C 0.6014(3) 0.71476(7) 0.4264(3)
C49 C 0.5320(3) 0.65666(7) 0.4206(4)
C50 C 0.4224(3) 0.78356(6) 0.3518(3)
C51 C 0.4595(3) 0.67247(6) -0.2206(4)
C52 C 0.6199(3) 0.68340(7) 0.5019(4)
C53 C 0.2859(4) 0.75116(9) 0.3939(5)
C54 C 0.2058(5) 0.72004(14) 0.3316(5)
H22 H 0.6525 0.7178 0.1035
H23 H 0.4835 0.8782 -0.1480
H24 H 0.2555 0.7244 -0.2218
H25 H 0.3991 0.7766 -0.2368
H26 H 0.6570 0.6734 -0.0445
H27 H 0.6239 0.8931 0.3749
H28 H 0.5657 0.9020 0.1218
H29 H 0.3322 0.6945 0.0759
H30 H 0.4139 0.8316 -0.3195
H31 H 0.3653 0.6424 0.2056
H32 H 0.2604 0.6793 -0.3665
H33 H 0.5929 0.8393 0.4523
H34 H 0.6621 0.7331 0.4837
H35 H 0.5447 0.6354 0.4734
H36 H 0.4615 0.6545 -0.2814
H37 H 0.6939 0.6804 0.6105
H38 H 0.2310 0.7710 0.3811
H39 H 0.3585 0.7484 0.5094
H40 H 0.1689 0.7155 0.3907
H41 H 0.2609 0.7006 0.3447
H42 H 0.1336 0.7231 0.2176
loop_
_geom_bond_atom_site_label_1
_geom_bond_atom_site_label_2
_geom_bond_site_symmetry_1
_geom_bond_site_symmetry_2
O1 C8 1_555 1_555
O2 C8 1_555 1_555
N1 C5 1_555 1_555
C1 C2 1_555 1_555
C2 C4 1_555 1_555
C3 C7 1_555 1_555
C4 C5 1_555 1_555
C5 C16 1_555 1_555
C6 C2 1_555 1_555
C7 N1 1_555 1_555
C8 N1 1_555 1_555
C9 C10 1_555 1_555
C10 C4 1_555 1_555
C11 C22 1_555 1_555
C12 C9 1_555 1_555
C13 C26 1_555 1_555
C14 C3 1_555 1_555
C15 C14 1_555 1_555
C16 C12 1_555 1_555
C17 C6 1_555 1_555
C18 O1 1_555 1_555
C19 C22 1_555 1_555
C20 C10 1_555 1_555
C21 C3 1_555 1_555
C22 H15 1_555 1_555
C23 C15 1_555 1_555
C24 C18 1_555 1_555
C25 C21 1_555 1_555
C26 C19 1_555 1_555
C27 C1 1_555 1_555
H1 C6 1_555 1_555
H2 C9 1_555 1_555
H3 C11 1_555 1_555
H4 C12 1_555 1_555
H5 C13 1_555 1_555
H6 C14 1_555 1_555
H7 C15 1_555 1_555
H8 C16 1_555 1_555
H9 C17 1_555 1_555
H10 C18 1_555 1_555
H11 C18 1_555 1_555
H12 C19 1_555 1_555
H13 C20 1_555 1_555
H14 C21 1_555 1_555
H16 C23 1_555 1_555
H17 C24 1_555 1_555
H18 C24 1_555 1_555
H19 C24 1_555 1_555
H20 C25 1_555 1_555
H21 C26 1_555 1_555
O3 C50 1_555 1_555
O4 C50 1_555 1_555
N2 C34 1_555 1_555
C28 C30 1_555 1_555
C29 C30 1_555 1_555
C30 C34 1_555 1_555
C31 C29 1_555 1_555
C32 C34 1_555 1_555
C33 C39 1_555 1_555
C35 C28 1_555 1_555
C36 C29 1_555 1_555
C37 N2 1_555 1_555
C38 C28 1_555 1_555
C39 C35 1_555 1_555
C40 C31 1_555 1_555
C41 C42 1_555 1_555
C42 C39 1_555 1_555
C43 C32 1_555 1_555
C44 C33 1_555 1_555
C45 C43 1_555 1_555
C46 C36 1_555 1_555
C47 C37 1_555 1_555
C48 C32 1_555 1_555
C49 C45 1_555 1_555
C50 N2 1_555 1_555
C51 C40 1_555 1_555
C52 C48 1_555 1_555
C53 O4 1_555 1_555
C54 C53 1_555 1_555
H22 C31 1_555 1_555
H23 C33 1_555 1_555
H24 C36 1_555 1_555
H25 C38 1_555 1_555
H26 C40 1_555 1_555
H27 C41 1_555 1_555
H28 C42 1_555 1_555
H29 C43 1_555 1_555
H30 C44 1_555 1_555
H31 C45 1_555 1_555
H32 C46 1_555 1_555
H33 C47 1_555 1_555
H34 C48 1_555 1_555
H35 C49 1_555 1_555
H36 C51 1_555 1_555
H37 C52 1_555 1_555
H38 C53 1_555 1_555
H39 C53 1_555 1_555
H40 C54 1_555 1_555
H41 C54 1_555 1_555
H42 C54 1_555 1_555
C1 C7 1_555 1_555
C11 C27 1_555 1_555
C13 C27 1_555 1_555
C17 C20 1_555 1_555
C23 C25 1_555 1_555
C35 C37 1_555 1_555
C38 C44 1_555 1_555
C41 C47 1_555 1_555
C46 C51 1_555 1_555
C49 C52 1_555 1_555

#END
