
#######################################################################
#
#                 Cambridge Crystallographic Data Centre
#                                CCDC 
#
#######################################################################
#
# If this CIF has been generated from an entry in the Cambridge 
# Structural Database, then it will include bibliographic, chemical, 
# crystal, experimental, refinement or atomic coordinate data resulting 
# from the CCDC's data processing and validation procedures.
#
#######################################################################

data_HOXJEL
_chemical_formula_moiety         'C60 H58 O2'
_chemical_name_systematic        
7,16-bis(4-((2-ethylhexyl)oxy)phenyl)anthra[2',3':4,5]pentaleno[1,2-b]anthracene
_symmetry_cell_setting           triclinic
_symmetry_space_group_name_H-M   'P -1'
_symmetry_Int_Tables_number      2
_space_group_name_Hall           '-P 1'
loop_
_symmetry_equiv_pos_site_id
_symmetry_equiv_pos_as_xyz
1 x,y,z
2 -x,-y,-z
_cell_length_a                   6.3965(13)
_cell_length_b                   9.8109(15)
_cell_length_c                   19.436(2)
_cell_angle_alpha                75.475(14)
_cell_angle_beta                 80.285(16)
_cell_angle_gamma                73.290(15)
_cell_volume                     1124.71
_exptl_crystal_colour            colorless
_exptl_crystal_description       prism
_cell_formula_units_Z            1
loop_
_atom_site_label
_atom_site_type_symbol
_atom_site_fract_x
_atom_site_fract_y
_atom_site_fract_z
O1 O 0.1190(5) 0.4604(3) 0.83387(14)
C1 C 0.1322(5) 0.8633(3) 0.56908(18)
C2 C 0.3281(5) 0.8567(3) 0.51583(17)
C3 C 0.5354(5) 0.7692(3) 0.52013(18)
H1 H 0.5725 0.7013 0.5634
C4 C 0.6980(5) 0.7787(3) 0.45998(17)
C5 C 0.9140(5) 0.6950(3) 0.46357(18)
H2 H 0.9545 0.6313 0.5076
C6 C 1.0738(5) 0.7012(3) 0.40475(18)
C7 C 1.2957(5) 0.6173(3) 0.4090(2)
H3 H 1.3385 0.5567 0.4534
C8 C 1.4473(5) 0.6220(4) 0.3510(2)
H4 H 1.5930 0.5628 0.3548
C9 C 1.3877(5) 0.7155(4) 0.2849(2)
H5 H 1.4940 0.7182 0.2444
C10 C 1.1778(5) 0.8020(4) 0.2790(2)
H6 H 1.1416 0.8659 0.2347
C11 C 1.0141(5) 0.7973(3) 0.33817(18)
C12 C 0.7970(5) 0.8838(3) 0.33437(19)
H7 H 0.7573 0.9485 0.2905
C13 C 0.6388(5) 0.8775(3) 0.39292(18)
C14 C 0.4168(5) 0.9674(3) 0.38984(18)
H8 H 0.3734 1.0325 0.3465
C15 C 0.2690(5) 0.9589(3) 0.44934(18)
C16 C 0.0347(5) 1.0324(3) 0.46352(17)
C17 C 0.1209(5) 0.7636(3) 0.63998(17)
C18 C -0.0405(5) 0.6877(3) 0.65962(18)
H9 H -0.1498 0.7066 0.6284
C19 C -0.0470(5) 0.5858(4) 0.72300(18)
H10 H -0.1573 0.5339 0.7346
C20 C 0.1091(5) 0.5600(3) 0.76943(18)
C21 C 0.2699(5) 0.6362(4) 0.75142(19)
H11 H 0.3753 0.6202 0.7836
C22 C 0.2777(5) 0.7347(3) 0.68728(18)
H12 H 0.3913 0.7837 0.6750
C23 C -0.0309(9) 0.3713(6) 0.8516(3)
H13 H -0.0112 0.3138 0.8147
H14 H -0.1836 0.4329 0.8537
C24 C 0.0119(13) 0.2714(8) 0.9226(3)
H15 H -0.0863 0.2055 0.9283
C25 C 0.2280(13) 0.1729(8) 0.9249(3)
H16 H 0.2440 0.1181 0.9748
H17 H 0.3373 0.2314 0.9117
C26 C 0.2844(13) 0.0617(8) 0.8759(3)
H18 H 0.1713 0.0063 0.8866
H19 H 0.2823 0.1148 0.8254
C27 C 0.5059(13) -0.0426(8) 0.8863(3)
H20 H 0.6134 0.0148 0.8823
H21 H 0.5000 -0.1021 0.9356
C28 C 0.5902(14) -0.1432(8) 0.8362(3)
H22 H 0.4892 -0.2043 0.8408
H23 H 0.7354 -0.2052 0.8478
H24 H 0.6015 -0.0864 0.7871
C29 C -0.0677(16) 0.3418(12) 0.9780(4)
H25 H -0.0043 0.4232 0.9677
H26 H -0.0164 0.2788 1.0216
C30 C -0.314(2) 0.4200(19) 0.9905(9)
H27 H -0.3475 0.4386 1.0389
H28 H -0.4037 0.3581 0.9850
H29 H -0.3478 0.5127 0.9556
O1A O -0.1190(5) 1.5396(3) 0.16613(14)
C1A C -0.1322(5) 1.1367(3) 0.43092(18)
C2A C -0.3281(5) 1.1433(3) 0.48417(17)
C3A C -0.5354(5) 1.2308(3) 0.47987(18)
H1A H -0.5725 1.2987 0.4366
C4A C -0.6980(5) 1.2213(3) 0.54002(17)
C5A C -0.9140(5) 1.3050(3) 0.53643(18)
H2A H -0.9545 1.3687 0.4924
C6A C -1.0738(5) 1.2988(3) 0.59525(18)
C7A C -1.2957(5) 1.3827(3) 0.5910(2)
H3A H -1.3385 1.4433 0.5466
C8A C -1.4473(5) 1.3780(4) 0.6490(2)
H4A H -1.5930 1.4372 0.6452
C9A C -1.3877(5) 1.2845(4) 0.7151(2)
H5A H -1.4940 1.2818 0.7556
C10A C -1.1778(5) 1.1980(4) 0.7210(2)
H6A H -1.1416 1.1341 0.7653
C11A C -1.0141(5) 1.2027(3) 0.66183(18)
C12A C -0.7970(5) 1.1162(3) 0.66563(19)
H7A H -0.7573 1.0515 0.7095
C13A C -0.6388(5) 1.1225(3) 0.60708(18)
C14A C -0.4168(5) 1.0326(3) 0.61016(18)
H8A H -0.3734 0.9675 0.6535
C15A C -0.2690(5) 1.0411(3) 0.55066(18)
C16A C -0.0347(5) 0.9676(3) 0.53648(17)
C17A C -0.1209(5) 1.2364(3) 0.36002(17)
C18A C 0.0405(5) 1.3123(3) 0.34038(18)
H9A H 0.1498 1.2934 0.3716
C19A C 0.0470(5) 1.4142(4) 0.27700(18)
H10A H 0.1573 1.4661 0.2654
C20A C -0.1091(5) 1.4400(3) 0.23057(18)
C21A C -0.2699(5) 1.3638(4) 0.24858(19)
H11A H -0.3753 1.3798 0.2164
C22A C -0.2777(5) 1.2653(3) 0.31272(18)
H12A H -0.3913 1.2163 0.3250
C23A C 0.0309(9) 1.6287(6) 0.1484(3)
H13A H 0.0112 1.6862 0.1853
H14A H 0.1836 1.5671 0.1463
C24A C -0.0119(13) 1.7286(8) 0.0774(3)
H15A H 0.0863 1.7945 0.0717
C25A C -0.2280(13) 1.8271(8) 0.0751(3)
H16A H -0.2440 1.8819 0.0252
H17A H -0.3373 1.7686 0.0883
C26A C -0.2844(13) 1.9383(8) 0.1241(3)
H18A H -0.1713 1.9937 0.1134
H19A H -0.2823 1.8852 0.1746
C27A C -0.5059(13) 2.0426(8) 0.1137(3)
H20A H -0.6134 1.9852 0.1177
H21A H -0.5000 2.1021 0.0644
C28A C -0.5902(14) 2.1432(8) 0.1638(3)
H22A H -0.4892 2.2043 0.1592
H23A H -0.7354 2.2052 0.1522
H24A H -0.6015 2.0864 0.2129
C29A C 0.0677(16) 1.6582(12) 0.0220(4)
H25A H 0.0043 1.5768 0.0323
H26A H 0.0164 1.7212 -0.0216
C30A C 0.314(2) 1.5800(19) 0.0095(9)
H27A H 0.3475 1.5614 -0.0389
H28A H 0.4037 1.6419 0.0150
H29A H 0.3478 1.4873 0.0444
H30? H -0.2095 0.4054 0.9682
H31? H 0.0286 0.4028 0.9748
C31? C -0.085(3) 0.2708(17) 1.0543(6)
H32? H -0.2054 0.2234 1.0651
H33? H -0.1126 0.3440 1.0833
H34? H 0.0532 0.1976 1.0653
loop_
_geom_bond_atom_site_label_1
_geom_bond_atom_site_label_2
_geom_bond_site_symmetry_1
_geom_bond_site_symmetry_2
O1 C20 1_555 1_555
C1 C2 1_555 1_555
C2 C3 1_555 1_555
C3 H1 1_555 1_555
C4 C3 1_555 1_555
C5 C4 1_555 1_555
H2 C5 1_555 1_555
C6 C5 1_555 1_555
C7 C6 1_555 1_555
H3 C7 1_555 1_555
C8 C7 1_555 1_555
H4 C8 1_555 1_555
C9 C8 1_555 1_555
H5 C9 1_555 1_555
C10 C9 1_555 1_555
H6 C10 1_555 1_555
C11 C6 1_555 1_555
C12 C11 1_555 1_555
H7 C12 1_555 1_555
C13 C4 1_555 1_555
C14 C13 1_555 1_555
H8 C14 1_555 1_555
C15 C2 1_555 1_555
C16 C15 1_555 1_555
C17 C1 1_555 1_555
C18 C17 1_555 1_555
H9 C18 1_555 1_555
C19 C18 1_555 1_555
H10 C19 1_555 1_555
C20 C19 1_555 1_555
C21 C20 1_555 1_555
H11 C21 1_555 1_555
C22 C17 1_555 1_555
H12 C22 1_555 1_555
C23 O1 1_555 1_555
H13 C23 1_555 1_555
H14 C23 1_555 1_555
C24 C23 1_555 1_555
H15 C24 1_555 1_555
C25 C24 1_555 1_555
H16 C25 1_555 1_555
H17 C25 1_555 1_555
C26 C25 1_555 1_555
H18 C26 1_555 1_555
H19 C26 1_555 1_555
C27 C26 1_555 1_555
H20 C27 1_555 1_555
H21 C27 1_555 1_555
C28 C27 1_555 1_555
H22 C28 1_555 1_555
H23 C28 1_555 1_555
H24 C28 1_555 1_555
C29 C24 1_555 1_555
H25 C29 1_555 1_555
H26 C29 1_555 1_555
C30 C29 1_555 1_555
H27 C30 1_555 1_555
H28 C30 1_555 1_555
H29 C30 1_555 1_555
O1A C20A 1_555 1_555
C1A C16 1_555 1_555
C2A C1A 1_555 1_555
C3A C2A 1_555 1_555
H1A C3A 1_555 1_555
C4A C3A 1_555 1_555
C5A C4A 1_555 1_555
H2A C5A 1_555 1_555
C6A C5A 1_555 1_555
C7A C6A 1_555 1_555
H3A C7A 1_555 1_555
C8A C7A 1_555 1_555
H4A C8A 1_555 1_555
C9A C8A 1_555 1_555
H5A C9A 1_555 1_555
C10A C9A 1_555 1_555
H6A C10A 1_555 1_555
C11A C6A 1_555 1_555
C12A C11A 1_555 1_555
H7A C12A 1_555 1_555
C13A C4A 1_555 1_555
C14A C13A 1_555 1_555
H8A C14A 1_555 1_555
C15A C2A 1_555 1_555
C16A C1 1_555 1_555
C17A C1A 1_555 1_555
C18A C17A 1_555 1_555
H9A C18A 1_555 1_555
C19A C18A 1_555 1_555
H10A C19A 1_555 1_555
C20A C19A 1_555 1_555
C21A C20A 1_555 1_555
H11A C21A 1_555 1_555
C22A C17A 1_555 1_555
H12A C22A 1_555 1_555
C23A O1A 1_555 1_555
H13A C23A 1_555 1_555
H14A C23A 1_555 1_555
C24A C23A 1_555 1_555
H15A C24A 1_555 1_555
C25A C24A 1_555 1_555
H16A C25A 1_555 1_555
H17A C25A 1_555 1_555
C26A C25A 1_555 1_555
H18A C26A 1_555 1_555
H19A C26A 1_555 1_555
C27A C26A 1_555 1_555
H20A C27A 1_555 1_555
H21A C27A 1_555 1_555
C28A C27A 1_555 1_555
H22A C28A 1_555 1_555
H23A C28A 1_555 1_555
H24A C28A 1_555 1_555
C29A C24A 1_555 1_555
H25A C29A 1_555 1_555
H26A C29A 1_555 1_555
C30A C29A 1_555 1_555
H27A C30A 1_555 1_555
H28A C30A 1_555 1_555
H29A C30A 1_555 1_555
C10 C11 1_555 1_555
C12 C13 1_555 1_555
C14 C15 1_555 1_555
C16 C16A 1_555 1_555
C21 C22 1_555 1_555
C10A C11A 1_555 1_555
C12A C13A 1_555 1_555
C14A C15A 1_555 1_555
C15A C16A 1_555 1_555
C21A C22A 1_555 1_555

#END
