
#######################################################################
#
#                 Cambridge Crystallographic Data Centre
#                                CCDC 
#
#######################################################################
#
# If this CIF has been generated from an entry in the Cambridge 
# Structural Database, then it will include bibliographic, chemical, 
# crystal, experimental, refinement or atomic coordinate data resulting 
# from the CCDC's data processing and validation procedures.
#
#######################################################################

data_HOYFEH
_chemical_formula_moiety         'C28 H23 N3'
_chemical_name_systematic        
9-Ethyl-3,6-bis(2-(4-pyridinyl)vinyl)-9H-carbazole
_symmetry_cell_setting           orthorhombic
_symmetry_space_group_name_H-M   'P 21 21 21'
_symmetry_Int_Tables_number      19
_space_group_name_Hall           'P 2ac 2ab'
loop_
_symmetry_equiv_pos_site_id
_symmetry_equiv_pos_as_xyz
1 x,y,z
2 1/2-x,-y,1/2+z
3 -x,1/2+y,1/2-z
4 1/2+x,1/2-y,-z
_cell_length_a                   8.512(3)
_cell_length_b                   8.5323(10)
_cell_length_c                   61.010(6)
_cell_angle_alpha                90
_cell_angle_beta                 90
_cell_angle_gamma                90
_cell_volume                     4430.97
_cell_formula_units_Z            8
_exptl_crystal_preparation       fluorescent
loop_
_atom_site_label
_atom_site_type_symbol
_atom_site_fract_x
_atom_site_fract_y
_atom_site_fract_z
N1 N 0.2154(8) 0.9178(8) 0.81526(9)
N2 N 1.2107(10) 0.9467(9) 0.70682(14)
N3 N 0.5790(13) -0.2157(9) 0.87522(17)
C1 C 0.3260(10) 0.9446(9) 0.79908(12)
C2 C 0.3391(10) 1.0736(9) 0.78524(12)
H1 H 0.2693 1.1573 0.7859
C3 C 0.4616(10) 1.0701(9) 0.77045(12)
H2 H 0.4735 1.1553 0.7611
C4 C 0.5679(10) 0.9483(10) 0.76862(12)
C5 C 0.5502(9) 0.8199(9) 0.78226(11)
H3 H 0.6214 0.7375 0.7813
C6 C 0.4275(10) 0.8113(9) 0.79745(11)
C7 C 0.3760(9) 0.7003(10) 0.81336(11)
C8 C 0.4241(10) 0.5517(9) 0.81912(12)
H4 H 0.5091 0.5054 0.8121
C9 C 0.3440(12) 0.4711(10) 0.83563(14)
C10 C 0.2172(12) 0.5389(13) 0.84600(14)
H5 H 0.1647 0.4819 0.8567
C11 C 0.1639(9) 0.6915(11) 0.84098(11)
H6 H 0.0803 0.7376 0.8484
C12 C 0.2449(10) 0.7691(10) 0.82417(13)
C13 C 0.6943(11) 0.9620(10) 0.75162(14)
H7 H 0.6782 1.0330 0.7403
C14 C 0.8224(11) 0.8841(9) 0.75148(12)
H8 H 0.8366 0.8086 0.7623
C15 C 0.9510(11) 0.9063(10) 0.73511(14)
C16 C 0.9408(10) 0.9790(11) 0.71561(16)
H9 H 0.8441 1.0186 0.7112
C17 C 1.0699(15) 0.9970(11) 0.70182(14)
H10 H 1.0554 1.0472 0.6884
C18 C 1.2249(11) 0.8777(11) 0.72590(18)
H11 H 1.3239 0.8418 0.7299
C19 C 1.1016(12) 0.8544(10) 0.74060(14)
H12 H 1.1194 0.8047 0.7539
C20 C 0.4239(12) 0.2934(12) 0.83976(13)
H13 H 0.5080 0.2569 0.8315
C21 C 0.3675(12) 0.2193(17) 0.85360(15)
H14 H 0.2783 0.2529 0.8611
C22 C 0.4491(14) 0.0595(11) 0.8591(2)
C23 C 0.5707(12) -0.0146(12) 0.84785(14)
H15 H 0.6125 0.0271 0.8350
C24 C 0.6260(12) -0.1529(13) 0.85666(17)
H16 H 0.7030 -0.2062 0.8488
C25 C 0.4613(15) -0.1454(16) 0.88551(18)
H17 H 0.4236 -0.1909 0.8983
C26 C 0.3922(13) -0.0106(15) 0.8784(2)
H18 H 0.3095 0.0342 0.8862
C27 C 0.0898(9) 1.0262(9) 0.82154(11)
H19 H 0.1269 1.1331 0.8200
H20 H 0.0625 1.0092 0.8368
C28 C -0.0557(9) 1.0034(10) 0.80735(12)
H21 H -0.1359 1.0757 0.8118
H22 H -0.0936 0.8980 0.8090
H23 H -0.0294 1.0220 0.7923
N4 N -0.1701(8) 0.5359(7) 0.93454(9)
N5 N 0.9639(9) 0.1741(12) 0.87458(18)
N6 N -0.1973(9) -0.4628(9) 1.04305(13)
C29 C -0.0214(10) 0.5043(10) 0.92575(13)
C30 C 0.0575(13) 0.5850(9) 0.90909(12)
H24 H 0.0112 0.6690 0.9018
C31 C 0.2079(13) 0.5343(12) 0.90389(13)
H25 H 0.2639 0.5876 0.8931
C32 C 0.2797(11) 0.4040(12) 0.91441(15)
C33 C 0.1963(9) 0.3277(9) 0.93053(12)
H26 H 0.2413 0.2422 0.9376
C34 C 0.0493(9) 0.3747(9) 0.93630(11)
C35 C -0.0641(9) 0.3232(9) 0.95246(11)
C36 C -0.0683(8) 0.2006(9) 0.96775(11)
H27 H 0.0151 0.1305 0.9688
C37 C -0.1979(11) 0.1848(10) 0.98137(12)
C38 C -0.3205(9) 0.2876(10) 0.97965(12)
H28 H -0.4052 0.2758 0.9891
C39 C -0.3250(9) 0.4081(10) 0.96454(12)
H29 H -0.4101 0.4762 0.9637
C40 C -0.1957(10) 0.4227(10) 0.95066(13)
C41 C 0.4488(11) 0.3332(12) 0.90977(13)
H30 H 0.4796 0.2482 0.9183
C42 C 0.5357(14) 0.3763(12) 0.89707(14)
H31 H 0.5095 0.4674 0.8895
C43 C 0.6885(12) 0.3006(14) 0.8913(2)
C44 C 0.7563(15) 0.3560(14) 0.8720(3)
H32 H 0.7095 0.4371 0.8642
C45 C 0.8927(18) 0.2895(16) 0.86481(19)
H33 H 0.9375 0.3292 0.8521
C46 C 0.9065(13) 0.1253(11) 0.89331(18)
H34 H 0.9625 0.0504 0.9012
C47 C 0.7639(12) 0.1808(12) 0.90211(13)
H35 H 0.7220 0.1379 0.9148
C48 C -0.2150(10) 0.0572(11) 0.99812(15)
H36 H -0.2898 0.0716 1.0091
C49 C -0.1365(9) -0.0681(10) 0.99858(12)
H37 H -0.0576 -0.0804 0.9882
C50 C -0.1613(10) -0.2008(10) 1.01492(14)
C51 C -0.2321(10) -0.1918(10) 1.03466(15)
H38 H -0.2705 -0.0953 1.0393
C52 C -0.2499(11) -0.3208(14) 1.04824(13)
H39 H -0.3009 -0.3074 1.0616
C53 C -0.1271(11) -0.4761(10) 1.02383(17)
H40 H -0.0896 -0.5741 1.0197
C54 C -0.1062(10) -0.3504(11) 1.00941(13)
H41 H -0.0554 -0.3661 0.9961
C55 C -0.2756(9) 0.6607(8) 0.92856(10)
H42 H -0.3831 0.6247 0.9302
H43 H -0.2595 0.6872 0.9133
C56 C -0.2515(10) 0.8068(9) 0.94255(13)
H44 H -0.3226 0.8874 0.9378
H45 H -0.1453 0.8430 0.9410
H46 H -0.2714 0.7821 0.9576
loop_
_geom_bond_atom_site_label_1
_geom_bond_atom_site_label_2
_geom_bond_site_symmetry_1
_geom_bond_site_symmetry_2
N1 C1 1_555 1_555
N2 C17 1_555 1_555
N3 C24 1_555 1_555
N4 C29 1_555 1_555
N5 C45 1_555 1_555
N6 C52 1_555 1_555
C1 C2 1_555 1_555
C2 H1 1_555 1_555
C3 C2 1_555 1_555
H2 C3 1_555 1_555
C4 C3 1_555 1_555
C5 C4 1_555 1_555
H3 C5 1_555 1_555
C6 C1 1_555 1_555
C7 C6 1_555 1_555
C8 C7 1_555 1_555
H4 C8 1_555 1_555
C9 C8 1_555 1_555
C10 C9 1_555 1_555
H5 C10 1_555 1_555
C11 C10 1_555 1_555
H6 C11 1_555 1_555
C12 N1 1_555 1_555
C13 C4 1_555 1_555
H7 C13 1_555 1_555
C14 C13 1_555 1_555
H8 C14 1_555 1_555
C15 C14 1_555 1_555
C16 C15 1_555 1_555
H9 C16 1_555 1_555
C17 C16 1_555 1_555
H10 C17 1_555 1_555
C18 N2 1_555 1_555
H11 C18 1_555 1_555
C19 C15 1_555 1_555
H12 C19 1_555 1_555
C20 C9 1_555 1_555
H13 C20 1_555 1_555
C21 C20 1_555 1_555
H14 C21 1_555 1_555
C22 C21 1_555 1_555
C23 C22 1_555 1_555
H15 C23 1_555 1_555
C24 C23 1_555 1_555
H16 C24 1_555 1_555
C25 N3 1_555 1_555
H17 C25 1_555 1_555
C26 C22 1_555 1_555
H18 C26 1_555 1_555
C27 N1 1_555 1_555
H19 C27 1_555 1_555
H20 C27 1_555 1_555
C28 C27 1_555 1_555
H21 C28 1_555 1_555
H22 C28 1_555 1_555
H23 C28 1_555 1_555
C29 C30 1_555 1_555
C30 H24 1_555 1_555
C31 C30 1_555 1_555
H25 C31 1_555 1_555
C32 C31 1_555 1_555
C33 C32 1_555 1_555
H26 C33 1_555 1_555
C34 C29 1_555 1_555
C35 C34 1_555 1_555
C36 C35 1_555 1_555
H27 C36 1_555 1_555
C37 C36 1_555 1_555
C38 C37 1_555 1_555
H28 C38 1_555 1_555
C39 C38 1_555 1_555
H29 C39 1_555 1_555
C40 N4 1_555 1_555
C41 C32 1_555 1_555
H30 C41 1_555 1_555
C42 C41 1_555 1_555
H31 C42 1_555 1_555
C43 C42 1_555 1_555
C44 C43 1_555 1_555
H32 C44 1_555 1_555
C45 C44 1_555 1_555
H33 C45 1_555 1_555
C46 N5 1_555 1_555
H34 C46 1_555 1_555
C47 C43 1_555 1_555
H35 C47 1_555 1_555
C48 C37 1_555 1_555
H36 C48 1_555 1_555
C49 C48 1_555 1_555
H37 C49 1_555 1_555
C50 C49 1_555 1_555
C51 C50 1_555 1_555
H38 C51 1_555 1_555
C52 C51 1_555 1_555
H39 C52 1_555 1_555
C53 N6 1_555 1_555
H40 C53 1_555 1_555
C54 C50 1_555 1_555
H41 C54 1_555 1_555
C55 N4 1_555 1_555
H42 C55 1_555 1_555
H43 C55 1_555 1_555
C56 C55 1_555 1_555
H44 C56 1_555 1_555
H45 C56 1_555 1_555
H46 C56 1_555 1_555
C5 C6 1_555 1_555
C7 C12 1_555 1_555
C11 C12 1_555 1_555
C18 C19 1_555 1_555
C25 C26 1_555 1_555
C33 C34 1_555 1_555
C35 C40 1_555 1_555
C39 C40 1_555 1_555
C46 C47 1_555 1_555
C53 C54 1_555 1_555

#END
