
#######################################################################
#
#                 Cambridge Crystallographic Data Centre
#                                CCDC 
#
#######################################################################
#
# If this CIF has been generated from an entry in the Cambridge 
# Structural Database, then it will include bibliographic, chemical, 
# crystal, experimental, refinement or atomic coordinate data resulting 
# from the CCDC's data processing and validation procedures.
#
#######################################################################

data_HOYMOX
_chemical_formula_moiety         'C26 H32 O6'
_chemical_name_systematic        
3,5-bis(Benzyloxy)-6-methyl-2-(5-hydroxymethyl-3-methyl-2-oxo-4,5-dihydrofuran-3-yl)-3,4,5,6-tetrahydropyran
_symmetry_cell_setting           monoclinic
_symmetry_space_group_name_H-M   'P 21'
_symmetry_Int_Tables_number      4
_space_group_name_Hall           'P 2yb'
loop_
_symmetry_equiv_pos_site_id
_symmetry_equiv_pos_as_xyz
1 x,y,z
2 -x,1/2+y,-z
_cell_length_a                   5.9880(2)
_cell_length_b                   18.3293(4)
_cell_length_c                   21.8948(6)
_cell_angle_alpha                90
_cell_angle_beta                 96.973(1)
_cell_angle_gamma                90
_cell_volume                     2385.31
_cell_formula_units_Z            4
loop_
_atom_site_label
_atom_site_type_symbol
_atom_site_fract_x
_atom_site_fract_y
_atom_site_fract_z
O1 O 0.6394(3) 0.54439(12) 0.06094(10)
O2 O 0.0976(4) 0.77946(14) 0.01630(12)
H1 H -0.0104 0.7542 0.0029
O3 O 0.3081(4) 0.47172(13) -0.07650(10)
C1 C 0.5333(5) 0.54372(18) -0.00057(14)
H2 H 0.6496 0.5445 -0.0284
O4 O 0.4997(4) 0.40601(13) 0.11333(11)
C2 C 0.3937(5) 0.47468(18) -0.01261(15)
H3 H 0.2681 0.4754 0.0122
C3 C 0.6557(6) 0.4121(2) 0.06910(16)
H4 H 0.7636 0.3718 0.0754
C4 C 0.5378(6) 0.40829(19) 0.00371(17)
H5 H 0.6496 0.4042 -0.0247
H6 H 0.4443 0.3650 -0.0008
C5 C 0.4041(5) 0.61692(18) -0.00651(15)
C6 C 0.5776(5) 0.67610(19) 0.00672(15)
O5 O 0.5371(4) 0.71840(13) 0.05362(11)
C7 C 0.8839(7) 0.4967(2) 0.14404(18)
H7 H 0.9600 0.5429 0.1466
H8 H 0.9895 0.4586 0.1568
H9 H 0.7670 0.4971 0.1704
C8 C 0.7820(5) 0.4831(2) 0.07844(16)
H10 H 0.9039 0.4827 0.0524
C9 C 0.2847(7) 0.6322(2) -0.07082(17)
H11 H 0.2084 0.6782 -0.0709
H12 H 0.1774 0.5942 -0.0823
H13 H 0.3933 0.6337 -0.0997
C10 C 0.2527(5) 0.62648(19) 0.04423(17)
H14 H 0.2637 0.5844 0.0713
H15 H 0.0971 0.6323 0.0266
C11 C 0.2934(6) 0.3275(2) 0.17424(17)
C12 C 0.3365(6) 0.6952(2) 0.07974(17)
H16 H 0.3793 0.6821 0.1230
C13 C 0.1743(6) 0.7582(2) 0.07684(18)
H17 H 0.0461 0.7445 0.0975
H18 H 0.2475 0.7994 0.0987
C14 C 0.0883(6) 0.4408(2) -0.08686(16)
H19 H -0.0229 0.4780 -0.0817
H20 H 0.0741 0.4026 -0.0569
C15 C 0.4333(8) 0.3336(2) 0.1221(2)
H21 H 0.5660 0.3032 0.1306
H22 H 0.3473 0.3159 0.0846
O11 O 0.7357(4) 0.68783(13) -0.02144(11)
C35 C -0.0095(8) 0.2696(3) 0.2171(2)
H48 H -0.1275 0.2363 0.2133
C36 C 0.1186(7) 0.2782(2) 0.16956(19)
H49 H 0.0868 0.2506 0.1340
C37 C 0.2081(8) 0.3588(3) 0.2751(2)
H50 H 0.2391 0.3864 0.3108
C38 C 0.3368(7) 0.3675(2) 0.22732(18)
H51 H 0.4544 0.4010 0.2312
C40 C 0.0341(9) 0.3093(3) 0.2699(2)
H53 H -0.0526 0.3029 0.3020
C42 C 0.0455(6) 0.4095(2) -0.15060(16)
C43 C -0.1541(7) 0.4217(2) -0.1869(2)
H55 H -0.2610 0.4523 -0.1729
C44 C 0.2021(7) 0.3653(2) -0.17306(18)
H56 H 0.3391 0.3567 -0.1493
C46 C 0.1587(8) 0.3336(3) -0.2303(2)
H58 H 0.2665 0.3042 -0.2452
C50 C -0.1985(9) 0.3888(3) -0.2444(2)
H62 H -0.3356 0.3969 -0.2682
C52 C -0.0439(9) 0.3455(3) -0.2655(2)
H64 H -0.0740 0.3236 -0.3040
O6 O 0.8188(4) 0.23503(13) 0.40417(10)
O7 O 1.1434(3) 0.31070(11) 0.54154(9)
C16 C 1.1734(5) 0.17922(19) 0.55032(14)
H23 H 1.2822 0.1393 0.5577
O8 O 0.5764(4) 0.53933(14) 0.51885(13)
H24 H 0.4690 0.5157 0.5026
C17 C 0.9008(5) 0.23802(18) 0.46852(14)
H25 H 0.7738 0.2371 0.4928
C18 C 1.0297(5) 0.30887(18) 0.48016(14)
H26 H 1.1416 0.3125 0.4511
O9 O 1.0208(4) 0.17681(12) 0.59548(10)
C19 C 1.0529(5) 0.17314(19) 0.48550(14)
H27 H 1.1634 0.1697 0.4567
H28 H 0.9637 0.1288 0.4821
C20 C 1.4059(6) 0.2671(2) 0.62218(16)
H29 H 1.4792 0.3137 0.6231
H30 H 1.5149 0.2299 0.6346
H31 H 1.2933 0.2675 0.6499
C21 C 0.8898(5) 0.37957(18) 0.47669(15)
C22 C 1.2963(5) 0.25145(18) 0.55760(15)
H32 H 1.4126 0.2521 0.5298
O10 O 1.0157(4) 0.47668(13) 0.54398(12)
C23 C 0.8121(6) 0.10504(19) 0.65953(15)
C24 C 0.6240(6) 0.14970(19) 0.33260(15)
C25 C 0.6163(6) 0.1930(2) 0.39035(16)
H33 H 0.4874 0.2254 0.3854
H34 H 0.5995 0.1602 0.4243
C26 C 0.7357(5) 0.38332(19) 0.52774(17)
H35 H 0.7422 0.3379 0.5507
H36 H 0.5812 0.3919 0.5103
C27 C 0.9347(7) 0.1061(2) 0.60390(18)
H37 H 1.0573 0.0712 0.6090
H38 H 0.8331 0.0922 0.5679
C28 C 1.0588(5) 0.44035(19) 0.49411(17)
C29 C 0.7707(6) 0.3963(2) 0.41259(18)
H39 H 0.6857 0.4406 0.4139
H40 H 0.6711 0.3569 0.3992
H41 H 0.8803 0.4020 0.3844
C30 C 0.8217(6) 0.4470(2) 0.57009(17)
H42 H 0.8719 0.4278 0.6112
C31 C 0.6564(6) 0.5078(2) 0.57556(18)
H43 H 0.5298 0.4889 0.5945
H44 H 0.7282 0.5453 0.6024
O12 O 1.2153(4) 0.45603(13) 0.46673(12)
C32 C 0.6231(7) 0.0629(2) 0.65970(18)
H45 H 0.5735 0.0350 0.6252
C33 C 0.8809(7) 0.1462(3) 0.71010(18)
H46 H 1.0082 0.1754 0.7107
C34 C 0.5050(7) 0.0609(3) 0.7101(2)
H47 H 0.3777 0.0318 0.7098
C39 C 0.7632(9) 0.1448(3) 0.7603(2)
H52 H 0.8112 0.1732 0.7946
C41 C 0.5773(9) 0.1022(3) 0.7602(2)
H54 H 0.4995 0.1014 0.7945
C45 C 0.6288(8) 0.0633(3) 0.2282(2)
H57 H 0.6294 0.0340 0.1935
C47 C 0.7986(9) 0.0604(3) 0.2744(2)
H59 H 0.9192 0.0292 0.2712
C48 C 0.7969(8) 0.1029(3) 0.3261(2)
H60 H 0.9164 0.0996 0.3573
C49 C 0.4562(7) 0.1518(3) 0.2854(2)
H61 H 0.3350 0.1829 0.2879
C51 C 0.4594(9) 0.1092(4) 0.2335(2)
H63 H 0.3417 0.1126 0.2018
loop_
_geom_bond_atom_site_label_1
_geom_bond_atom_site_label_2
_geom_bond_site_symmetry_1
_geom_bond_site_symmetry_2
O1 C1 1_555 1_555
O2 H1 1_555 1_555
O3 C2 1_555 1_555
C1 H2 1_555 1_555
O4 C3 1_555 1_555
C2 C1 1_555 1_555
H3 C2 1_555 1_555
C3 H4 1_555 1_555
C4 C2 1_555 1_555
H5 C4 1_555 1_555
H6 C4 1_555 1_555
C5 C1 1_555 1_555
C6 C5 1_555 1_555
O5 C6 1_555 1_555
C7 H7 1_555 1_555
H8 C7 1_555 1_555
H9 C7 1_555 1_555
C8 O1 1_555 1_555
H10 C8 1_555 1_555
C9 C5 1_555 1_555
H11 C9 1_555 1_555
H12 C9 1_555 1_555
H13 C9 1_555 1_555
C10 C5 1_555 1_555
H14 C10 1_555 1_555
H15 C10 1_555 1_555
C11 C15 1_555 1_555
C12 O5 1_555 1_555
H16 C12 1_555 1_555
C13 O2 1_555 1_555
H17 C13 1_555 1_555
H18 C13 1_555 1_555
C14 O3 1_555 1_555
H19 C14 1_555 1_555
H20 C14 1_555 1_555
C15 O4 1_555 1_555
H21 C15 1_555 1_555
H22 C15 1_555 1_555
O6 C17 1_555 1_555
O7 C18 1_555 1_555
C16 H23 1_555 1_555
O8 H24 1_555 1_555
C17 H25 1_555 1_555
C18 C17 1_555 1_555
H26 C18 1_555 1_555
O9 C16 1_555 1_555
C19 C16 1_555 1_555
H27 C19 1_555 1_555
H28 C19 1_555 1_555
C20 H29 1_555 1_555
H30 C20 1_555 1_555
H31 C20 1_555 1_555
C21 C18 1_555 1_555
C22 O7 1_555 1_555
H32 C22 1_555 1_555
O10 C28 1_555 1_555
C23 C27 1_555 1_555
C24 C25 1_555 1_555
C25 O6 1_555 1_555
H33 C25 1_555 1_555
H34 C25 1_555 1_555
C26 C21 1_555 1_555
H35 C26 1_555 1_555
H36 C26 1_555 1_555
C27 O9 1_555 1_555
H37 C27 1_555 1_555
H38 C27 1_555 1_555
C28 C21 1_555 1_555
C29 C21 1_555 1_555
H39 C29 1_555 1_555
H40 C29 1_555 1_555
H41 C29 1_555 1_555
C30 O10 1_555 1_555
H42 C30 1_555 1_555
C31 O8 1_555 1_555
H43 C31 1_555 1_555
H44 C31 1_555 1_555
O11 C6 1_555 1_555
O12 C28 1_555 1_555
C32 C23 1_555 1_555
H45 C32 1_555 1_555
C33 C23 1_555 1_555
H46 C33 1_555 1_555
C34 C32 1_555 1_555
H47 C34 1_555 1_555
C35 H48 1_555 1_555
C36 C11 1_555 1_555
H49 C36 1_555 1_555
C37 H50 1_555 1_555
C38 C11 1_555 1_555
H51 C38 1_555 1_555
C39 C33 1_555 1_555
H52 C39 1_555 1_555
C40 C35 1_555 1_555
H53 C40 1_555 1_555
C41 C34 1_555 1_555
H54 C41 1_555 1_555
C42 C14 1_555 1_555
C43 C42 1_555 1_555
H55 C43 1_555 1_555
C44 C42 1_555 1_555
H56 C44 1_555 1_555
C45 H57 1_555 1_555
C46 C44 1_555 1_555
H58 C46 1_555 1_555
C47 C45 1_555 1_555
H59 C47 1_555 1_555
C48 C24 1_555 1_555
H60 C48 1_555 1_555
C49 C24 1_555 1_555
H61 C49 1_555 1_555
C50 C43 1_555 1_555
H62 C50 1_555 1_555
C51 C45 1_555 1_555
H63 C51 1_555 1_555
C52 C46 1_555 1_555
H64 C52 1_555 1_555
C3 C4 1_555 1_555
C3 C8 1_555 1_555
C7 C8 1_555 1_555
C10 C12 1_555 1_555
C12 C13 1_555 1_555
C16 C22 1_555 1_555
C17 C19 1_555 1_555
C20 C22 1_555 1_555
C26 C30 1_555 1_555
C30 C31 1_555 1_555
C35 C36 1_555 1_555
C37 C40 1_555 1_555
C37 C38 1_555 1_555
C39 C41 1_555 1_555
C47 C48 1_555 1_555
C49 C51 1_555 1_555
C50 C52 1_555 1_555

#END
