
#######################################################################
#
#                 Cambridge Crystallographic Data Centre
#                                CCDC 
#
#######################################################################
#
# If this CIF has been generated from an entry in the Cambridge 
# Structural Database, then it will include bibliographic, chemical, 
# crystal, experimental, refinement or atomic coordinate data resulting 
# from the CCDC's data processing and validation procedures.
#
#######################################################################

data_HOZCAC
_chemical_name_common            
'5,6-dihydropyrazino[1,2,3,4-lmn][1,10]phenanthrolinediium 5,11,17,23-tetrasulfonate-25,26,27,28-tetrahydroxycalix(4)arene hydrate'
_chemical_formula_moiety         
'C28 H20 O16 S4 4-,2(C14 H12 N2 2+),11.75(H2 O1)'
_chemical_name_systematic        
'5,6-dihydropyrazino[1,2,3,4-lmn][1,10]phenanthrolinediium 25,26,27,28-tetrahydroxypentacyclo[19.3.1.1^3,7^.1^9,13^.1^15,19^]octacosa-1(25),3(28),4,6,9(27),10,12,15(26),16,18,21,23-dodecaene-5,11,17,23-tetrasulfonate hydrate'
_symmetry_cell_setting           triclinic
_symmetry_space_group_name_H-M   'P -1'
_symmetry_Int_Tables_number      2
_space_group_name_Hall           '-P 1'
loop_
_symmetry_equiv_pos_site_id
_symmetry_equiv_pos_as_xyz
1 x,y,z
2 -x,-y,-z
_cell_length_a                   14.066(3)
_cell_length_b                   17.611(4)
_cell_length_c                   24.426(5)
_cell_angle_alpha                98.68(3)
_cell_angle_beta                 95.62(3)
_cell_angle_gamma                91.79(3)
_cell_volume                     5946.15
_exptl_crystal_colour            yellow
_exptl_crystal_description       block
_cell_formula_units_Z            4
loop_
_atom_site_label
_atom_site_type_symbol
_atom_site_fract_x
_atom_site_fract_y
_atom_site_fract_z
S1 S 0.38767(10) 0.56020(9) 0.40231(6)
S2 S -0.16323(12) 0.57555(10) 0.33892(8)
S3 S 0.05228(11) 0.81130(9) 0.62113(7)
S4 S 0.54342(11) 0.90192(10) 0.61442(8)
O1 O 0.2861(3) 0.8500(3) 0.32147(18)
H1 H 0.2395 0.8448 0.2980
O2 O 0.4284(3) 0.5828(2) 0.46004(17)
O3 O 0.4589(3) 0.5301(3) 0.36668(19)
O4 O 0.3034(3) 0.5089(3) 0.3977(2)
O5 O 0.0958(3) 0.8477(3) 0.3502(2)
H2 H 0.0728 0.8872 0.3643
O6 O -0.1071(4) 0.5147(3) 0.3565(3)
O7 O -0.1956(4) 0.5604(3) 0.2791(2)
O8 O -0.2415(4) 0.5965(3) 0.3723(2)
O9 O 0.0804(3) 0.9758(3) 0.42922(17)
H3 H 0.1305 1.0015 0.4309
O10 O 0.0332(4) 0.7308(3) 0.6017(2)
O11 O -0.0263(4) 0.8504(4) 0.6478(2)
O12 O 0.1381(4) 0.8261(3) 0.6599(2)
O13 O 0.2793(3) 0.9453(3) 0.42165(18)
H4 H 0.3009 0.9330 0.3917
O14 O 0.4832(4) 0.8475(3) 0.6400(2)
O15 O 0.5569(3) 0.9754(3) 0.6506(2)
O16 O 0.6301(4) 0.8694(3) 0.5992(2)
C1 C 0.4468(5) 0.8552(4) 0.3975(3)
H5 H 0.5135 0.8427 0.3984
H6 H 0.4353 0.8914 0.3716
C2 C 0.3839(4) 0.7817(4) 0.3768(3)
C3 C 0.4087(4) 0.7132(3) 0.3955(3)
H7 H 0.4651 0.7119 0.4186
C4 C 0.3497(4) 0.6465(4) 0.3800(2)
C5 C 0.2653(4) 0.6482(4) 0.3457(2)
H8 H 0.2256 0.6040 0.3361
C6 C 0.2394(4) 0.7153(4) 0.3255(2)
C7 C 0.3010(5) 0.7811(4) 0.3410(3)
C8 C 0.1454(5) 0.7138(4) 0.2884(3)
H9 H 0.1465 0.7573 0.2683
H10 H 0.1404 0.6673 0.2612
C9 C 0.0575(4) 0.7168(4) 0.3198(2)
C10 C -0.0032(4) 0.6535(4) 0.3173(2)
H11 H 0.0098 0.6077 0.2955
C11 C -0.0837(5) 0.6558(4) 0.3465(3)
C12 C -0.1015(5) 0.7244(4) 0.3800(3)
H12 H -0.1536 0.7261 0.4009
C13 C -0.0427(5) 0.7901(4) 0.3828(3)
C14 C 0.0360(4) 0.7871(4) 0.3519(3)
C15 C -0.0639(4) 0.8631(4) 0.4199(3)
H13 H -0.1276 0.8578 0.4313
H14 H -0.0630 0.9056 0.3989
C16 C 0.0079(4) 0.8817(4) 0.4718(2)
C17 C 0.0023(4) 0.8419(4) 0.5157(2)
H15 H -0.0459 0.8039 0.5139
C18 C 0.0683(4) 0.8580(3) 0.5629(3)
C19 C 0.1405(4) 0.9130(3) 0.5653(2)
H16 H 0.1840 0.9236 0.5970
C20 C 0.1497(4) 0.9534(3) 0.5208(2)
C21 C 0.0817(4) 0.9380(4) 0.4750(2)
C22 C 0.2355(4) 1.0099(3) 0.5252(2)
H17 H 0.2247 1.0435 0.4975
H18 H 0.2421 1.0415 0.5617
C23 C 0.3267(4) 0.9685(3) 0.5167(3)
C24 C 0.3900(4) 0.9605(3) 0.5614(3)
H19 H 0.3782 0.9829 0.5969
C25 C 0.4728(4) 0.9188(3) 0.5543(3)
C26 C 0.4903(4) 0.8853(3) 0.5014(3)
H20 H 0.5448 0.8575 0.4967
C27 C 0.4272(4) 0.8928(3) 0.4550(3)
C28 C 0.3453(4) 0.9341(4) 0.4636(3)
S5 S 0.04768(10) 0.30965(9) 1.10935(6)
S6 S 0.55312(10) 0.37096(9) 1.11499(6)
S7 S 0.40749(11) 0.08346(9) 0.87592(7)
S8 S -0.12495(11) 0.10732(9) 0.81752(7)
O17 O 0.1151(3) 0.4958(2) 0.93389(16)
H21 H 0.1573 0.5296 0.9438
O18 O 0.0566(9) 0.2321(4) 1.0882(3)
O19 O -0.0455(5) 0.3262(7) 1.1203(4)
O20 O 0.1135(5) 0.3345(4) 1.1560(2)
O21 O 0.3151(3) 0.4739(3) 0.93052(17)
H22 H 0.3279 0.4536 0.8998
O22 O 0.4856(3) 0.3254(3) 1.1394(2)
O23 O 0.5902(3) 0.4396(3) 1.15219(19)
O24 O 0.6291(3) 0.3241(3) 1.09221(18)
O25 O 0.3154(3) 0.3900(2) 0.82293(18)
H23 H 0.2599 0.3918 0.8094
O26 O 0.4699(4) 0.0951(3) 0.9271(2)
O27 O 0.4585(6) 0.0526(4) 0.8294(3)
O28 O 0.3209(4) 0.0395(3) 0.8785(3)
O29 O 0.1240(3) 0.3876(2) 0.84416(18)
H24 H 0.1155 0.4182 0.8719
O30 O -0.0725(4) 0.0429(3) 0.7946(2)
O31 O -0.2046(3) 0.1255(3) 0.7796(2)
O32 O -0.1566(3) 0.0984(3) 0.8710(2)
C29 C -0.0377(4) 0.3902(3) 0.9126(2)
H25 H -0.1033 0.3837 0.9208
H26 H -0.0325 0.4362 0.8955
C30 C 0.0283(4) 0.4002(3) 0.9667(2)
C31 C 0.0123(4) 0.3549(3) 1.0076(2)
H27 H -0.0392 0.3192 1.0021
C32 C 0.0737(4) 0.3636(3) 1.0564(2)
C33 C 0.1513(4) 0.4138(3) 1.0643(2)
H28 H 0.1923 0.4176 1.0969
C34 C 0.1707(4) 0.4600(3) 1.0241(2)
C35 C 0.1066(4) 0.4526(3) 0.9762(2)
C36 C 0.2611(4) 0.5125(3) 1.0349(2)
H29 H 0.2562 0.5509 1.0103
H30 H 0.2667 0.5389 1.0730
C37 C 0.3490(4) 0.4676(3) 1.0254(2)
C38 C 0.4061(4) 0.4443(3) 1.0683(2)
H31 H 0.3911 0.4573 1.1047
C39 C 0.4861(4) 0.4016(3) 1.0579(2)
C40 C 0.5086(4) 0.3818(3) 1.0039(2)
H32 H 0.5612 0.3524 0.9971
C41 C 0.4534(4) 0.4053(3) 0.9597(2)
C42 C 0.3738(4) 0.4484(3) 0.9709(2)
C43 C 0.4757(4) 0.3802(3) 0.8999(2)
H33 H 0.4653 0.4221 0.8787
H34 H 0.5423 0.3676 0.8998
C44 C 0.4128(4) 0.3110(3) 0.8728(2)
C45 C 0.4338(4) 0.2397(4) 0.8853(2)
H35 H 0.4880 0.2343 0.9092
C46 C 0.3747(4) 0.1750(3) 0.8627(2)
C47 C 0.2929(4) 0.1824(4) 0.8270(3)
H36 H 0.2539 0.1392 0.8119
C48 C 0.2697(4) 0.2538(3) 0.8140(2)
C49 C 0.3305(4) 0.3182(3) 0.8361(2)
C50 C 0.1789(4) 0.2605(4) 0.7752(2)
H37 H 0.1831 0.3084 0.7603
H38 H 0.1742 0.2185 0.7443
C51 C 0.0907(4) 0.2584(3) 0.8054(2)
C52 C 0.0324(4) 0.1918(3) 0.7989(3)
H39 H 0.0464 0.1488 0.7744
C53 C -0.0469(4) 0.1887(3) 0.8288(3)
C54 C -0.0686(4) 0.2535(3) 0.8653(2)
H40 H -0.1211 0.2509 0.8855
C55 C -0.0136(4) 0.3213(3) 0.8719(2)
C56 C 0.0661(4) 0.3230(3) 0.8415(2)
N1 N 0.7367(4) 1.0335(3) 0.0112(2)
N2 N 0.6740(4) 0.8771(3) -0.0207(2)
C57 C 0.7680(6) 1.1064(4) 0.0198(3)
H41 H 0.7261 1.1444 0.0127
C58 C 0.8629(6) 1.1268(4) 0.0392(3)
H42 H 0.8853 1.1778 0.0435
C59 C 0.9232(5) 1.0711(4) 0.0521(3)
H43 H 0.9862 1.0843 0.0664
C60 C 0.8895(4) 0.9935(4) 0.0435(3)
C61 C 0.9469(5) 0.9322(4) 0.0593(3)
H44 H 1.0099 0.9434 0.0745
C62 C 0.9118(5) 0.8597(4) 0.0525(3)
H45 H 0.9490 0.8220 0.0653
C63 C 0.8177(4) 0.8395(4) 0.0259(3)
C64 C 0.7797(5) 0.7626(4) 0.0155(3)
H46 H 0.8148 0.7234 0.0277
C65 C 0.6917(5) 0.7471(4) -0.0124(3)
H47 H 0.6658 0.6969 -0.0189
C66 C 0.6402(5) 0.8047(4) -0.0313(3)
H48 H 0.5809 0.7928 -0.0517
C67 C 0.7611(4) 0.8975(4) 0.0088(3)
C68 C 0.7957(4) 0.9752(4) 0.0211(3)
C69 C 0.6334(5) 1.0118(4) -0.0050(3)
H49 H 0.6023 1.0058 0.0279
H50 H 0.6030 1.0525 -0.0220
C70 C 0.6220(5) 0.9387(4) -0.0450(3)
H51 H 0.6471 0.9462 -0.0795
H52 H 0.5546 0.9234 -0.0533
N3 N 0.7470(4) 0.5322(3) 0.4828(2)
N4 N 0.6768(3) 0.3790(3) 0.4448(2)
C71 C 0.7833(5) 0.6038(4) 0.4966(3)
H53 H 0.7498 0.6440 0.4846
C72 C 0.8702(5) 0.6194(4) 0.5285(3)
H54 H 0.8950 0.6697 0.5377
C73 C 0.9195(5) 0.5609(4) 0.5466(3)
H55 H 0.9781 0.5713 0.5680
C74 C 0.8819(4) 0.4852(4) 0.5329(2)
C75 C 0.9264(4) 0.4220(4) 0.5540(3)
H56 H 0.9841 0.4307 0.5765
C76 C 0.8867(4) 0.3509(4) 0.5421(3)
H57 H 0.9159 0.3113 0.5576
C77 C 0.7995(4) 0.3344(4) 0.5057(3)
C78 C 0.7576(5) 0.2600(4) 0.4900(3)
H58 H 0.7843 0.2191 0.5050
C79 C 0.6783(5) 0.2476(4) 0.4531(3)
H59 H 0.6504 0.1983 0.4430
C80 C 0.6384(4) 0.3088(4) 0.4299(3)
H60 H 0.5848 0.3000 0.4040
C81 C 0.7554(4) 0.3952(3) 0.4831(2)
C82 C 0.7943(4) 0.4708(3) 0.4989(2)
C83 C 0.6481(4) 0.5174(4) 0.4558(3)
H61 H 0.6304 0.5591 0.4357
H62 H 0.6046 0.5152 0.4840
C84 C 0.6401(5) 0.4438(4) 0.4168(3)
H63 H 0.6762 0.4489 0.3856
H64 H 0.5736 0.4323 0.4025
N5 N 0.5190(4) 0.6668(3) 0.2640(2)
N6 N 0.4821(4) 0.5052(3) 0.2538(2)
C85 C 0.5406(6) 0.7415(5) 0.2668(3)
H65 H 0.5978 0.7623 0.2863
C86 C 0.4795(7) 0.7890(5) 0.2410(3)
H66 H 0.4961 0.8408 0.2421
C87 C 0.3952(7) 0.7579(5) 0.2145(3)
H67 H 0.3533 0.7889 0.1973
C88 C 0.3696(6) 0.6800(5) 0.2123(3)
C89 C 0.2802(6) 0.6460(5) 0.1880(3)
H68 H 0.2381 0.6749 0.1689
C90 C 0.2543(5) 0.5730(6) 0.1917(3)
H69 H 0.1923 0.5543 0.1787
C91 C 0.3216(5) 0.5226(5) 0.2156(3)
C92 C 0.3007(5) 0.4460(5) 0.2176(3)
H70 H 0.2392 0.4253 0.2055
C93 C 0.3704(5) 0.3989(5) 0.2376(3)
H71 H 0.3557 0.3476 0.2396
C94 C 0.4630(5) 0.4315(4) 0.2544(3)
H72 H 0.5113 0.4009 0.2661
C95 C 0.4134(5) 0.5535(5) 0.2355(3)
C96 C 0.4357(5) 0.6328(4) 0.2372(3)
C97 C 0.5814(5) 0.6198(4) 0.2968(3)
H73 H 0.5590 0.6202 0.3331
H74 H 0.6462 0.6421 0.3022
C98 C 0.5814(4) 0.5380(4) 0.2677(3)
H75 H 0.6126 0.5367 0.2339
H76 H 0.6171 0.5074 0.2917
O33 O 0.2023(3) 0.6379(3) 0.9449(2)
O34 O 0.8246(3) 0.3683(3) 0.3666(2)
O35 O 0.5857(4) 0.1632(3) 0.0828(2)
O36 O 0.6902(3) 0.9878(3) 0.7418(2)
O37 O 0.8433(4) 0.9502(3) 0.9056(2)
O38 O 0.8155(4) 0.8900(4) 0.5802(3)
O39 O 0.6665(4) 0.1414(4) 0.9045(3)
O40 O 0.5933(4) 0.9428(4) 0.8245(2)
O41 O 0.4242(4) 0.2117(4) 0.1936(3)
O42 O 0.2733(4) 0.7040(3) 0.0621(2)
O43 O 0.6516(4) 0.3441(3) 0.2956(3)
O44 O 0.9721(5) 0.4987(4) 0.8043(2)
O45 O 0.7285(5) 0.7805(3) 0.4866(3)
O46 O 0.5775(4) 0.6878(4) 0.5124(3)
O47 O 0.5430(6) 0.7321(4) 0.6944(4)
O48 O 0.3269(6) 0.8824(4) 0.8220(3)
O49 O 0.2349(5) 0.1873(4) 0.1520(4)
O50 O 0.3291(5) 0.8256(4) 0.7069(3)
O51 O 0.7671(12) 0.9180(9) 0.3214(5)
O52 O 0.6833(5) 0.8031(4) 0.3708(3)
O53 O 0.4130(7) 0.0350(6) 0.7155(3)
O54 O 0.6088(7) 0.6386(4) 0.6120(4)
O55 O 1.0516(12) 0.0058(8) 0.7035(6)
O56 O 0.7915(15) 0.4747(13) 0.1791(9)
O57 O 0.8618(14) 0.0049(14) 0.1793(9)
O58? O 0.8339(14) 0.9296(13) 0.6076(11)
O59? O 0.6907(18) 0.8533(15) 0.3331(10)
O60? O 0.6519(17) 0.7476(15) 0.3947(9)
O61? O 1.0061(19) 0.0108(12) 0.6928(9)
O62? O 0.795(2) 0.933(2) 0.2998(17)
O63? O 1.107(3) -0.0014(17) 0.7086(12)
N7? N 0.1317(6) 0.2869(6) 0.2947(3)
N8? N -0.0350(5) 0.3536(5) 0.2616(3)
C99? C 0.2150(7) 0.2520(6) 0.3137(4)
H77? H 0.2609 0.2808 0.3391
C100? C 0.2286(6) 0.1793(5) 0.2958(3)
H78? H 0.2838 0.1560 0.3074
C101? C 0.1493(8) 0.1350(6) 0.2551(3)
H79? H 0.1542 0.0829 0.2421
C102? C 0.0767(5) 0.1703(4) 0.2392(3)
C103? C 0.0122(6) 0.1326(5) 0.1959(3)
H80? H 0.0198 0.0775 0.1925
H81? H 0.0258 0.1489 0.1612
C104? C -0.0935(7) 0.1508(5) 0.2070(3)
H82? H -0.1374 0.1258 0.1760
H83? H -0.1089 0.1315 0.2404
C105? C -0.1029(4) 0.2315(4) 0.2136(3)
C106? C -0.1794(5) 0.2649(4) 0.2009(3)
H84? H -0.2310 0.2332 0.1831
C107? C -0.1943(6) 0.3431(5) 0.2106(3)
H85? H -0.2497 0.3634 0.1960
C108? C -0.1223(5) 0.3892(5) 0.2432(3)
H86? H -0.1294 0.4416 0.2531
C109? C -0.0233(6) 0.2783(5) 0.2446(3)
C110? C 0.0579(6) 0.2466(5) 0.2597(3)
C111? C 0.0371(5) 0.4025(4) 0.2955(3)
H87? H 0.0275 0.4546 0.3053
C112? C 0.1184(6) 0.3730(6) 0.3132(3)
H88? H 0.1659 0.4037 0.3362
loop_
_geom_bond_atom_site_label_1
_geom_bond_atom_site_label_2
_geom_bond_site_symmetry_1
_geom_bond_site_symmetry_2
S1 O2 1_555 1_555
S2 O6 1_555 1_555
S3 O10 1_555 1_555
S4 O14 1_555 1_555
O1 H1 1_555 1_555
O3 S1 1_555 1_555
O4 S1 1_555 1_555
O5 H2 1_555 1_555
O7 S2 1_555 1_555
O8 S2 1_555 1_555
O9 H3 1_555 1_555
O11 S3 1_555 1_555
O12 S3 1_555 1_555
O13 H4 1_555 1_555
O15 S4 1_555 1_555
O16 S4 1_555 1_555
C1 H5 1_555 1_555
H6 C1 1_555 1_555
C2 C1 1_555 1_555
C3 C2 1_555 1_555
H7 C3 1_555 1_555
C4 S1 1_555 1_555
C5 C4 1_555 1_555
H8 C5 1_555 1_555
C6 C5 1_555 1_555
C7 O1 1_555 1_555
C8 C6 1_555 1_555
H9 C8 1_555 1_555
H10 C8 1_555 1_555
C9 C8 1_555 1_555
C10 C9 1_555 1_555
H11 C10 1_555 1_555
C11 S2 1_555 1_555
C12 C11 1_555 1_555
H12 C12 1_555 1_555
C13 C12 1_555 1_555
C14 O5 1_555 1_555
C15 C13 1_555 1_555
H13 C15 1_555 1_555
H14 C15 1_555 1_555
C16 C15 1_555 1_555
C17 C16 1_555 1_555
H15 C17 1_555 1_555
C18 S3 1_555 1_555
C19 C18 1_555 1_555
H16 C19 1_555 1_555
C20 C19 1_555 1_555
C21 O9 1_555 1_555
C22 C20 1_555 1_555
H17 C22 1_555 1_555
H18 C22 1_555 1_555
C23 C22 1_555 1_555
C24 C23 1_555 1_555
H19 C24 1_555 1_555
C25 S4 1_555 1_555
C26 C25 1_555 1_555
H20 C26 1_555 1_555
C27 C1 1_555 1_555
C28 O13 1_555 1_555
S5 O18 1_555 1_555
S6 O22 1_555 1_555
S7 O26 1_555 1_555
S8 O30 1_555 1_555
O17 H21 1_555 1_555
O19 S5 1_555 1_555
O20 S5 1_555 1_555
O21 H22 1_555 1_555
O23 S6 1_555 1_555
O24 S6 1_555 1_555
O25 H23 1_555 1_555
O27 S7 1_555 1_555
O28 S7 1_555 1_555
O29 H24 1_555 1_555
O31 S8 1_555 1_555
O32 S8 1_555 1_555
C29 H25 1_555 1_555
H26 C29 1_555 1_555
C30 C29 1_555 1_555
C31 C30 1_555 1_555
H27 C31 1_555 1_555
C32 S5 1_555 1_555
C33 C32 1_555 1_555
H28 C33 1_555 1_555
C34 C33 1_555 1_555
C35 O17 1_555 1_555
C36 C34 1_555 1_555
H29 C36 1_555 1_555
H30 C36 1_555 1_555
C37 C36 1_555 1_555
C38 C37 1_555 1_555
H31 C38 1_555 1_555
C39 S6 1_555 1_555
C40 C39 1_555 1_555
H32 C40 1_555 1_555
C41 C40 1_555 1_555
C42 O21 1_555 1_555
C43 C41 1_555 1_555
H33 C43 1_555 1_555
H34 C43 1_555 1_555
C44 C43 1_555 1_555
C45 C44 1_555 1_555
H35 C45 1_555 1_555
C46 S7 1_555 1_555
C47 C46 1_555 1_555
H36 C47 1_555 1_555
C48 C47 1_555 1_555
C49 O25 1_555 1_555
C50 C48 1_555 1_555
H37 C50 1_555 1_555
H38 C50 1_555 1_555
C51 C50 1_555 1_555
C52 C51 1_555 1_555
H39 C52 1_555 1_555
C53 S8 1_555 1_555
C54 C53 1_555 1_555
H40 C54 1_555 1_555
C55 C29 1_555 1_555
C56 O29 1_555 1_555
N1 C57 1_555 1_555
N2 C66 1_555 1_555
C57 H41 1_555 1_555
C58 C57 1_555 1_555
H42 C58 1_555 1_555
C59 C58 1_555 1_555
H43 C59 1_555 1_555
C60 C59 1_555 1_555
C61 C60 1_555 1_555
H44 C61 1_555 1_555
C62 C61 1_555 1_555
H45 C62 1_555 1_555
C63 C62 1_555 1_555
C64 C63 1_555 1_555
H46 C64 1_555 1_555
C65 C64 1_555 1_555
H47 C65 1_555 1_555
C66 C65 1_555 1_555
H48 C66 1_555 1_555
C67 N2 1_555 1_555
C68 N1 1_555 1_555
C69 N1 1_555 1_555
H49 C69 1_555 1_555
H50 C69 1_555 1_555
C70 N2 1_555 1_555
H51 C70 1_555 1_555
H52 C70 1_555 1_555
N3 C71 1_555 1_555
N4 C80 1_555 1_555
C71 H53 1_555 1_555
C72 C71 1_555 1_555
H54 C72 1_555 1_555
C73 C72 1_555 1_555
H55 C73 1_555 1_555
C74 C73 1_555 1_555
C75 C74 1_555 1_555
H56 C75 1_555 1_555
C76 C75 1_555 1_555
H57 C76 1_555 1_555
C77 C76 1_555 1_555
C78 C77 1_555 1_555
H58 C78 1_555 1_555
C79 C78 1_555 1_555
H59 C79 1_555 1_555
C80 C79 1_555 1_555
H60 C80 1_555 1_555
C81 N4 1_555 1_555
C82 N3 1_555 1_555
C83 N3 1_555 1_555
H61 C83 1_555 1_555
H62 C83 1_555 1_555
C84 N4 1_555 1_555
H63 C84 1_555 1_555
H64 C84 1_555 1_555
N5 C85 1_555 1_555
N6 C94 1_555 1_555
C85 H65 1_555 1_555
C86 C85 1_555 1_555
H66 C86 1_555 1_555
C87 C86 1_555 1_555
H67 C87 1_555 1_555
C88 C87 1_555 1_555
C89 C88 1_555 1_555
H68 C89 1_555 1_555
C90 C89 1_555 1_555
H69 C90 1_555 1_555
C91 C90 1_555 1_555
C92 C91 1_555 1_555
H70 C92 1_555 1_555
C93 C92 1_555 1_555
H71 C93 1_555 1_555
C94 C93 1_555 1_555
H72 C94 1_555 1_555
C95 N6 1_555 1_555
C96 N5 1_555 1_555
C97 N5 1_555 1_555
H73 C97 1_555 1_555
H74 C97 1_555 1_555
C98 N6 1_555 1_555
H75 C98 1_555 1_555
H76 C98 1_555 1_555
C2 C7 1_555 1_555
C3 C4 1_555 1_555
C6 C7 1_555 1_555
C9 C14 1_555 1_555
C10 C11 1_555 1_555
C13 C14 1_555 1_555
C16 C21 1_555 1_555
C17 C18 1_555 1_555
C20 C21 1_555 1_555
C23 C28 1_555 1_555
C24 C25 1_555 1_555
C26 C27 1_555 1_555
C27 C28 1_555 1_555
C30 C35 1_555 1_555
C31 C32 1_555 1_555
C34 C35 1_555 1_555
C37 C42 1_555 1_555
C38 C39 1_555 1_555
C41 C42 1_555 1_555
C44 C49 1_555 1_555
C45 C46 1_555 1_555
C48 C49 1_555 1_555
C51 C56 1_555 1_555
C52 C53 1_555 1_555
C54 C55 1_555 1_555
C55 C56 1_555 1_555
C60 C68 1_555 1_555
C63 C67 1_555 1_555
C67 C68 1_555 1_555
C69 C70 1_555 1_555
C74 C82 1_555 1_555
C77 C81 1_555 1_555
C81 C82 1_555 1_555
C83 C84 1_555 1_555
C88 C96 1_555 1_555
C91 C95 1_555 1_555
C95 C96 1_555 1_555
C97 C98 1_555 1_555

#END
