
#######################################################################
#
#                 Cambridge Crystallographic Data Centre
#                                CCDC 
#
#######################################################################
#
# If this CIF has been generated from an entry in the Cambridge 
# Structural Database, then it will include bibliographic, chemical, 
# crystal, experimental, refinement or atomic coordinate data resulting 
# from the CCDC's data processing and validation procedures.
#
#######################################################################

data_HOZCIJ
_chemical_formula_moiety         'C23 H20 N4,1.5(H2 O1)'
_chemical_name_systematic        
'2-(4-t-Butylphenyl)-1H-imidazo[4,5-f][1,10]phenanthroline sesquihydrate'
_symmetry_cell_setting           tetragonal
_symmetry_space_group_name_H-M   'P 43 21 2'
_symmetry_Int_Tables_number      96
_space_group_name_Hall           'P 4nw 2abw'
loop_
_symmetry_equiv_pos_site_id
_symmetry_equiv_pos_as_xyz
1 x,y,z
2 -x,-y,1/2+z
3 1/2-y,1/2+x,3/4+z
4 1/2+y,1/2-x,1/4+z
5 1/2-x,1/2+y,3/4-z
6 1/2+x,1/2-y,1/4-z
7 y,x,-z
8 -y,-x,1/2-z
_cell_length_a                   14.809(4)
_cell_length_b                   14.809(4)
_cell_length_c                   18.281(6)
_cell_angle_alpha                90
_cell_angle_beta                 90
_cell_angle_gamma                90
_cell_volume                     4009.14
_exptl_crystal_colour            yellow
_exptl_crystal_description       block
_cell_formula_units_Z            8
_exptl_crystal_recrystallization_method ethanol
loop_
_atom_site_label
_atom_site_type_symbol
_atom_site_fract_x
_atom_site_fract_y
_atom_site_fract_z
C1 C 0.7310(2) 0.4019(2) 1.19064(17)
C2 C 0.6832(2) 0.3733(2) 1.12626(16)
C3 C 0.6074(2) 0.4156(2) 1.10102(16)
C4 C 0.5709(2) 0.4934(2) 1.13671(16)
C5 C 0.6151(2) 0.5242(2) 1.20079(17)
C6 C 0.6959(2) 0.4778(2) 1.22760(17)
N1 N 0.7345(2) 0.5111(2) 1.28912(17)
C7 C 0.8061(3) 0.4692(3) 1.3142(2)
H1 H 0.8325 0.4915 1.3567
C8 C 0.8453(3) 0.3944(4) 1.2822(3)
H2 H 0.8961 0.3676 1.3027
C9 C 0.8074(3) 0.3605(3) 1.2194(2)
H3 H 0.8325 0.3104 1.1965
N2 N 0.5840(2) 0.5952(2) 1.23928(16)
C10 C 0.5114(3) 0.6373(3) 1.2156(2)
H4 H 0.4901 0.6860 1.2428
C11 C 0.4647(3) 0.6138(3) 1.1531(2)
H5 H 0.4139 0.6460 1.1385
C12 C 0.4950(2) 0.5420(2) 1.11298(19)
H6 H 0.4654 0.5254 1.0702
C13 C 0.6348(2) 0.3069(2) 1.02710(16)
C14 C 0.6341(2) 0.2461(2) 0.96339(16)
C15 C 0.5563(2) 0.2359(2) 0.92178(18)
H7 H 0.5038 0.2657 0.9359
C16 C 0.5553(3) 0.1825(2) 0.85987(18)
H8 H 0.5020 0.1764 0.8335
C17 C 0.6319(3) 0.1377(2) 0.83626(18)
C18 C 0.7096(3) 0.1491(3) 0.8774(2)
H9 H 0.7623 0.1202 0.8627
C19 C 0.7112(3) 0.2021(3) 0.93992(19)
H10 H 0.7646 0.2082 0.9663
C20 C 0.6326(3) 0.0806(3) 0.76548(19)
C21 C 0.5375(4) 0.0646(6) 0.7367(4)
H11 H 0.5404 0.0291 0.6928
H12 H 0.5094 0.1216 0.7262
H13 H 0.5028 0.0331 0.7729
C22 C 0.6769(8) -0.0099(5) 0.7785(4)
H14 H 0.6722 -0.0460 0.7351
H15 H 0.6472 -0.0401 0.8182
H16 H 0.7394 -0.0010 0.7904
C23 C 0.6840(7) 0.1327(6) 0.7075(3)
H17 H 0.7410 0.1519 0.7269
H18 H 0.6495 0.1846 0.6929
H19 H 0.6940 0.0945 0.6658
N3 N 0.70020(19) 0.30431(19) 1.07917(14)
H20 H 0.734(2) 0.2580(17) 1.086(2)
N4 N 0.57632(19) 0.37297(18) 1.03858(13)
O1 O 0.8076(2) 0.1575(2) 1.11023(13)
H21 H 0.852(2) 0.159(4) 1.0831(19)
H22 H 0.824(3) 0.140(4) 1.1511(13)
O2 O 0.38586(17) 0.38586(17) 1.0000
H23 H 0.4347(17) 0.366(3) 1.014(3)
H23F H 0.366(3) 0.4347(17) 0.986(3)
C24? C 0.565(3) 0.003(3) 0.765(3)
C25? C 0.7261(17) 0.040(4) 0.752(3)
C26? C 0.612(4) 0.140(3) 0.6995(18)
H24? H 0.5711 -0.0303 0.7199
H25? H 0.5047 0.0268 0.7680
H26? H 0.5762 -0.0362 0.8054
H27? H 0.7216 -0.0080 0.7169
H28? H 0.7490 0.0154 0.7976
H29? H 0.7664 0.0853 0.7347
H30? H 0.6390 0.1146 0.6565
H31? H 0.6365 0.1996 0.7076
H32? H 0.5479 0.1446 0.6929
loop_
_geom_bond_atom_site_label_1
_geom_bond_atom_site_label_2
_geom_bond_site_symmetry_1
_geom_bond_site_symmetry_2
C1 C2 1_555 1_555
C2 C3 1_555 1_555
C3 C4 1_555 1_555
C4 C5 1_555 1_555
C5 C6 1_555 1_555
C6 C1 1_555 1_555
N1 C6 1_555 1_555
C7 N1 1_555 1_555
H1 C7 1_555 1_555
C8 C7 1_555 1_555
H2 C8 1_555 1_555
C9 C1 1_555 1_555
H3 C9 1_555 1_555
N2 C5 1_555 1_555
C10 N2 1_555 1_555
H4 C10 1_555 1_555
C11 C10 1_555 1_555
H5 C11 1_555 1_555
C12 C4 1_555 1_555
H6 C12 1_555 1_555
C13 C14 1_555 1_555
C14 C15 1_555 1_555
C15 H7 1_555 1_555
C16 C15 1_555 1_555
H8 C16 1_555 1_555
C17 C16 1_555 1_555
C18 C17 1_555 1_555
H9 C18 1_555 1_555
C19 C14 1_555 1_555
H10 C19 1_555 1_555
C20 C17 1_555 1_555
C21 C20 1_555 1_555
H11 C21 1_555 1_555
H12 C21 1_555 1_555
H13 C21 1_555 1_555
C22 C20 1_555 1_555
H14 C22 1_555 1_555
H15 C22 1_555 1_555
H16 C22 1_555 1_555
C23 C20 1_555 1_555
H17 C23 1_555 1_555
H18 C23 1_555 1_555
H19 C23 1_555 1_555
N3 C2 1_555 1_555
H20 N3 1_555 1_555
N4 C3 1_555 1_555
O1 H21 1_555 1_555
H22 O1 1_555 1_555
O2 H23 1_555 1_555
H23F O2 1_555 1_555
C8 C9 1_555 1_555
C11 C12 1_555 1_555
C13 N3 1_555 1_555
C13 N4 1_555 1_555
C18 C19 1_555 1_555

#END
