
#######################################################################
#
#                 Cambridge Crystallographic Data Centre
#                                CCDC 
#
#######################################################################
#
# If this CIF has been generated from an entry in the Cambridge 
# Structural Database, then it will include bibliographic, chemical, 
# crystal, experimental, refinement or atomic coordinate data resulting 
# from the CCDC's data processing and validation procedures.
#
#######################################################################

data_HOZPAP
_chemical_name_common            'paraldehyde dibromomethane solvate'
_chemical_formula_moiety         'C6 H12 O3,C1 H2 Br2'
_chemical_name_systematic        
'2,4,6-trimethyl-1,3,5-trioxane dibromomethane solvate'
_symmetry_cell_setting           orthorhombic
_symmetry_space_group_name_H-M   'P m n 21'
_symmetry_Int_Tables_number      31
_space_group_name_Hall           'P 2ac -2'
loop_
_symmetry_equiv_pos_site_id
_symmetry_equiv_pos_as_xyz
1 x,y,z
2 1/2-x,-y,1/2+z
3 -x,y,z
4 1/2+x,-y,1/2+z
_cell_length_a                   12.016(2)
_cell_length_b                   10.6738(14)
_cell_length_c                   4.4634(5)
_cell_angle_alpha                90
_cell_angle_beta                 90
_cell_angle_gamma                90
_cell_volume                     572.46
_exptl_crystal_colour            'light colorless'
_exptl_crystal_description       cylinder
_cell_formula_units_Z            2
loop_
_atom_site_label
_atom_site_type_symbol
_atom_site_fract_x
_atom_site_fract_y
_atom_site_fract_z
Br1 Br 0.63235(3) 0.98123(5) 0.9612(6)
C1 C 0.5000 0.9339(9) 0.750(2)
H1 H 0.5000 0.9735 0.5540
H2 H 0.5000 0.8439 0.7198
Br1B Br 0.36765(3) 0.98123(5) 0.9612(6)
O1 O 0.5000 0.6596(4) 0.448(2)
O2 O 0.5954(3) 0.4724(3) 0.460(3)
C2 C 0.5967(5) 0.5966(6) 0.3505(14)
C3 C 0.5000 0.4091(7) 0.359(2)
H3 H 0.5000 0.4055 0.1399
C4 C 0.5000 0.2775(6) 0.486(4)
C5 C 0.6979(3) 0.6628(4) 0.469(2)
H4 H 0.6942 0.6667 0.6832
H5 H 0.7006 0.7462 0.3884
H6 H 0.7635 0.6178 0.4095
H7 H 0.595(4) 0.596(5) 0.146(13)
H8 H 0.5655 0.2328 0.4224
H9 H 0.5000 0.2804 0.7030
O2B O 0.4046(3) 0.4724(3) 0.460(3)
C2B C 0.4033(5) 0.5966(6) 0.3505(14)
C5B C 0.3021(3) 0.6628(4) 0.469(2)
H4B H 0.3058 0.6667 0.6832
H5B H 0.2994 0.7462 0.3884
H6B H 0.2365 0.6178 0.4095
H7B H 0.405(4) 0.596(5) 0.146(13)
H8B H 0.4345 0.2328 0.4224
loop_
_geom_bond_atom_site_label_1
_geom_bond_atom_site_label_2
_geom_bond_site_symmetry_1
_geom_bond_site_symmetry_2
Br1 C1 1_555 1_555
C1 H1 1_555 1_555
H2 C1 1_555 1_555
O1 C2 1_555 1_555
O2 C2 1_555 1_555
C2 C5 1_555 1_555
C3 O2 1_555 1_555
H3 C3 1_555 1_555
C4 C3 1_555 1_555
C5 H4 1_555 1_555
H5 C5 1_555 1_555
H6 C5 1_555 1_555
H7 C2 1_555 1_555
H8 C4 1_555 1_555
H9 C4 1_555 1_555
Br1B C1 1_555 1_555
O2B C3 1_555 1_555
C2B O1 1_555 1_555
C5B C2B 1_555 1_555
H4B C5B 1_555 1_555
H5B C5B 1_555 1_555
H6B C5B 1_555 1_555
H7B C2B 1_555 1_555
H8B C4 1_555 1_555
O2B C2B 1_555 1_555

#END
