
#######################################################################
#
#                 Cambridge Crystallographic Data Centre
#                                CCDC 
#
#######################################################################
#
# If this CIF has been generated from an entry in the Cambridge 
# Structural Database, then it will include bibliographic, chemical, 
# crystal, experimental, refinement or atomic coordinate data resulting 
# from the CCDC's data processing and validation procedures.
#
#######################################################################

data_HOZWOI
_chemical_formula_moiety         'C30 H54 S6'
_chemical_name_systematic        hexakis(Propylsulfanylmethyl)benzene
_symmetry_cell_setting           monoclinic
_symmetry_space_group_name_H-M   'P 21/a'
_symmetry_Int_Tables_number      14
_space_group_name_Hall           '-P 2yab'
loop_
_symmetry_equiv_pos_site_id
_symmetry_equiv_pos_as_xyz
1 x,y,z
2 1/2-x,1/2+y,-z
3 -x,-y,-z
4 1/2+x,1/2-y,z
_cell_length_a                   9.6291(8)
_cell_length_b                   16.0389(8)
_cell_length_c                   11.5569(11)
_cell_angle_alpha                90
_cell_angle_beta                 90.078(4)
_cell_angle_gamma                90
_cell_volume                     1784.85
_cell_formula_units_Z            2
loop_
_atom_site_label
_atom_site_type_symbol
_atom_site_fract_x
_atom_site_fract_y
_atom_site_fract_z
S1 S -0.1305(1) 0.1765(1) 0.2817(1)
S2 S 0.0505(1) 0.2203(1) 0.6540(1)
S3 S 0.2719(1) -0.0012(1) 0.2418(1)
C1 C 0.0081(4) 0.0712(2) 0.4311(4)
C2 C -0.0401(4) 0.0777(2) 0.5446(4)
C3 C 0.0450(4) -0.0066(2) 0.3851(3)
C4 C 0.0272(5) 0.1496(3) 0.3598(4)
C5 C -0.0729(10) 0.2739(4) 0.2177(7)
C6 C 0.0205(10) 0.2685(6) 0.1173(8)
C7 C -0.0397(11) 0.2334(6) 0.0131(8)
C8 C -0.0900(4) 0.1602(3) 0.5894(4)
C9 C -0.0389(6) 0.3185(3) 0.6761(5)
C10 C -0.0653(7) 0.3673(3) 0.5676(5)
C11 C -0.1394(8) 0.4492(4) 0.5920(8)
C12 C 0.0854(4) -0.0144(3) 0.2609(4)
C13 C 0.2916(7) -0.0307(6) 0.0938(6)
C14 C 0.2243(10) 0.0242(9) 0.0081(7)
C15 C 0.2668(10) 0.0355(7) -0.0951(10)
H1 H 0.0289(11) 0.2323(6) -0.0471(8)
H2 H -0.1170(11) 0.2670(6) -0.0112(8)
H3 H -0.0710(11) 0.1777(6) 0.0284(8)
H4 H 0.2545(7) -0.0865(6) 0.0843(6)
H5 H 0.3900(7) -0.0331(6) 0.0765(6)
H6 H 0.2202(10) 0.0791(9) 0.0433(7)
H7 H 0.1290(10) 0.0051(9) 0.0016(7)
H8 H 0.2107(10) 0.0773(7) -0.1320(10)
H9 H 0.3618(10) 0.0536(7) -0.0936(10)
H10 H 0.2598(10) -0.0158(7) -0.1375(10)
H11 H 0.0980(40) 0.1411(24) 0.3064(33)
H12 H 0.0446(40) 0.2000(25) 0.4092(32)
H13 H -0.0253(82) 0.3021(48) 0.2801(73)
H14 H -0.1533(68) 0.2960(41) 0.1986(56)
H15 H 0.1083(92) 0.2341(49) 0.1345(69)
H16 H 0.0664(62) 0.3224(39) 0.0569(55)
H17 H -0.1604(40) 0.1533(23) 0.6501(33)
H18 H -0.1313(39) 0.1932(24) 0.5250(33)
H19 H -0.1227(52) 0.3065(29) 0.7204(41)
H20 H 0.0173(54) 0.3485(33) 0.7274(44)
H21 H -0.1342(50) 0.3370(30) 0.5190(41)
H22 H 0.0365(44) 0.3815(27) 0.5074(36)
H23 H -0.1650(79) 0.4857(46) 0.5191(64)
H24 H -0.0831(79) 0.4870(43) 0.6486(60)
H25 H -0.2237(69) 0.4502(37) 0.6561(52)
H26 H 0.0377(40) 0.0255(25) 0.2119(33)
H27 H 0.0610(39) -0.0675(25) 0.2292(33)
C3B C -0.0450(4) 0.0066(2) 0.6149(3)
C1B C -0.0081(4) -0.0712(2) 0.5689(4)
C2B C 0.0401(4) -0.0777(2) 0.4554(4)
C8B C 0.0900(4) -0.1602(3) 0.4106(4)
S2B S -0.0505(1) -0.2203(1) 0.3460(1)
C9B C 0.0389(6) -0.3185(3) 0.3239(5)
C10B C 0.0653(7) -0.3673(3) 0.4324(5)
C11B C 0.1394(8) -0.4492(4) 0.4080(8)
H23B H 0.1650(79) -0.4857(46) 0.4809(64)
H24B H 0.0831(79) -0.4870(43) 0.3514(60)
H25B H 0.2237(69) -0.4502(37) 0.3439(52)
H21B H 0.1342(50) -0.3370(30) 0.4810(41)
H22B H -0.0365(44) -0.3815(27) 0.4926(36)
H19B H 0.1227(52) -0.3065(29) 0.2796(41)
H20B H -0.0173(54) -0.3485(33) 0.2726(44)
H17B H 0.1604(40) -0.1533(23) 0.3499(33)
H18B H 0.1313(39) -0.1932(24) 0.4750(33)
C4B C -0.0272(5) -0.1496(3) 0.6402(4)
S1B S 0.1305(1) -0.1765(1) 0.7183(1)
C5B C 0.0729(10) -0.2739(4) 0.7823(7)
C6B C -0.0205(10) -0.2685(6) 0.8827(8)
C7B C 0.0397(11) -0.2334(6) 0.9869(8)
H1B H -0.0289(11) -0.2323(6) 1.0471(8)
H2B H 0.1170(11) -0.2670(6) 1.0112(8)
H3B H 0.0710(11) -0.1777(6) 0.9716(8)
H15B H -0.1083(92) -0.2341(49) 0.8655(69)
H16B H -0.0664(62) -0.3224(39) 0.9431(55)
H13B H 0.0253(82) -0.3021(48) 0.7199(73)
H14B H 0.1533(68) -0.2960(41) 0.8014(56)
H11B H -0.0980(40) -0.1411(24) 0.6936(33)
H12B H -0.0446(40) -0.2000(25) 0.5908(32)
C12B C -0.0854(4) 0.0144(3) 0.7391(4)
S3B S -0.2719(1) 0.0012(1) 0.7582(1)
C13B C -0.2916(7) 0.0307(6) 0.9062(6)
C14B C -0.2243(10) -0.0242(9) 0.9919(7)
C15B C -0.2668(10) -0.0355(7) 1.0951(10)
H8B H -0.2107(10) -0.0773(7) 1.1320(10)
H9B H -0.3618(10) -0.0536(7) 1.0936(10)
H10B H -0.2598(10) 0.0158(7) 1.1375(10)
H6B H -0.2202(10) -0.0791(9) 0.9567(7)
H7B H -0.1290(10) -0.0051(9) 0.9984(7)
H4B H -0.2545(7) 0.0865(6) 0.9157(6)
H5B H -0.3900(7) 0.0331(6) 0.9235(6)
H26B H -0.0377(40) -0.0255(25) 0.7881(33)
H27B H -0.0610(39) 0.0675(25) 0.7708(33)
loop_
_geom_bond_atom_site_label_1
_geom_bond_atom_site_label_2
_geom_bond_site_symmetry_1
_geom_bond_site_symmetry_2
S1 C4 1_555 1_555
S2 C8 1_555 1_555
S3 C12 1_555 1_555
C1 C2 1_555 1_555
C2 C8 1_555 1_555
C3 C1 1_555 1_555
C4 C1 1_555 1_555
C5 S1 1_555 1_555
C6 C5 1_555 1_555
C7 C6 1_555 1_555
C8 H17 1_555 1_555
C9 S2 1_555 1_555
C10 C9 1_555 1_555
C11 C10 1_555 1_555
C12 C3 1_555 1_555
C13 S3 1_555 1_555
C14 C13 1_555 1_555
C15 C14 1_555 1_555
H1 C7 1_555 1_555
H2 C7 1_555 1_555
H3 C7 1_555 1_555
H4 C13 1_555 1_555
H5 C13 1_555 1_555
H6 C14 1_555 1_555
H7 C14 1_555 1_555
H8 C15 1_555 1_555
H9 C15 1_555 1_555
H10 C15 1_555 1_555
H11 C4 1_555 1_555
H12 C4 1_555 1_555
H13 C5 1_555 1_555
H14 C5 1_555 1_555
H15 C6 1_555 1_555
H16 C6 1_555 1_555
H18 C8 1_555 1_555
H19 C9 1_555 1_555
H20 C9 1_555 1_555
H21 C10 1_555 1_555
H22 C10 1_555 1_555
H23 C11 1_555 1_555
H24 C11 1_555 1_555
H25 C11 1_555 1_555
H26 C12 1_555 1_555
H27 C12 1_555 1_555
C3B C2 1_555 1_555
C1B C3B 1_555 1_555
C2B C3 1_555 1_555
C8B C2B 1_555 1_555
S2B C8B 1_555 1_555
C9B S2B 1_555 1_555
C10B C9B 1_555 1_555
C11B C10B 1_555 1_555
H23B C11B 1_555 1_555
H24B C11B 1_555 1_555
H25B C11B 1_555 1_555
H21B C10B 1_555 1_555
H22B C10B 1_555 1_555
H19B C9B 1_555 1_555
H20B C9B 1_555 1_555
H17B C8B 1_555 1_555
H18B C8B 1_555 1_555
C4B C1B 1_555 1_555
S1B C4B 1_555 1_555
C5B S1B 1_555 1_555
C6B C5B 1_555 1_555
C7B C6B 1_555 1_555
H1B C7B 1_555 1_555
H2B C7B 1_555 1_555
H3B C7B 1_555 1_555
H15B C6B 1_555 1_555
H16B C6B 1_555 1_555
H13B C5B 1_555 1_555
H14B C5B 1_555 1_555
H11B C4B 1_555 1_555
H12B C4B 1_555 1_555
C12B C3B 1_555 1_555
S3B C12B 1_555 1_555
C13B S3B 1_555 1_555
C14B C13B 1_555 1_555
C15B C14B 1_555 1_555
H8B C15B 1_555 1_555
H9B C15B 1_555 1_555
H10B C15B 1_555 1_555
H6B C14B 1_555 1_555
H7B C14B 1_555 1_555
H4B C13B 1_555 1_555
H5B C13B 1_555 1_555
H26B C12B 1_555 1_555
H27B C12B 1_555 1_555
C1B C2B 1_555 1_555

#END
