
#######################################################################
#
#                 Cambridge Crystallographic Data Centre
#                                CCDC 
#
#######################################################################
#
# If this CIF has been generated from an entry in the Cambridge 
# Structural Database, then it will include bibliographic, chemical, 
# crystal, experimental, refinement or atomic coordinate data resulting 
# from the CCDC's data processing and validation procedures.
#
#######################################################################

data_HUBRUT
_chemical_compound_source        'basidiomycete Antrodiella albocinnamomea'
_chemical_name_common            'Antrodin A'
_chemical_formula_moiety         'C15 H22 O3'
_chemical_name_systematic        
3a,7-Dihydroxy-3,5,5,7a-tetramethyl-3a,3b,4,5,6,6a,7,7a-octahydro-1H-cyclopenta[a]pentalen-1-one
_symmetry_cell_setting           orthorhombic
_symmetry_space_group_name_H-M   'P 21 21 21'
_symmetry_Int_Tables_number      19
_space_group_name_Hall           'P 2ac 2ab'
loop_
_symmetry_equiv_pos_site_id
_symmetry_equiv_pos_as_xyz
1 x,y,z
2 1/2+x,1/2-y,-z
3 -x,1/2+y,1/2-z
4 1/2-x,-y,1/2+z
_cell_length_a                   6.6694(3)
_cell_length_b                   12.6257(5)
_cell_length_c                   16.3326(7)
_cell_angle_alpha                90
_cell_angle_beta                 90
_cell_angle_gamma                90
_cell_volume                     1375.3
_exptl_crystal_colour            colorless
_exptl_crystal_description       needle
_cell_formula_units_Z            4
loop_
_atom_site_label
_atom_site_type_symbol
_atom_site_fract_x
_atom_site_fract_y
_atom_site_fract_z
O1 O 0.3934(2) 0.13979(13) 0.60842(10)
O2 O 0.9499(3) 0.17296(13) 0.48416(11)
H1 H 0.9204 0.2280 0.4579
O3 O 1.0549(2) 0.03777(13) 0.67503(10)
H2 H 1.1296 0.0785 0.6481
C1 C 0.5424(4) 0.08840(18) 0.62780(14)
C2 C 0.7561(3) 0.11653(18) 0.60181(14)
C3 C 0.7714(4) 0.11935(18) 0.50735(14)
H3 H 0.6507 0.1539 0.4827
C4 C 0.7823(4) 0.00171(18) 0.48370(14)
H4 H 0.6446 -0.0296 0.4827
C5 C 0.8920(4) -0.0229(2) 0.40255(14)
H5 H 0.8023 -0.0615 0.3646
H6 H 0.9363 0.0435 0.3758
C6 C 1.0745(4) -0.09195(19) 0.42538(15)
C7 C 1.2570(4) -0.0729(2) 0.37031(16)
H7 H 1.3688 -0.1172 0.3888
H8 H 1.2960 0.0019 0.3733
H9 H 1.2230 -0.0910 0.3137
C8 C 0.5491(3) -0.00468(18) 0.68056(13)
H10 H 0.4361 -0.0350 0.7071
C9 C 0.7364(3) -0.04133(17) 0.68627(13)
C10 C 0.8779(3) 0.01753(19) 0.63005(14)
C11 C 0.9086(3) -0.05086(18) 0.55200(14)
H11 H 0.8566 -0.1239 0.5623
C12 C 1.1181(4) -0.05819(19) 0.51422(14)
H12 H 1.2010 -0.1117 0.5428
H13 H 1.1874 0.0111 0.5160
C13 C 0.8162(4) 0.22001(19) 0.64376(15)
H14 H 0.7328 0.2779 0.6229
H15 H 0.9575 0.2352 0.6322
H16 H 0.7969 0.2132 0.7030
C14 C 1.0154(4) -0.2095(2) 0.42023(16)
H17 H 0.9922 -0.2289 0.3629
H18 H 0.8926 -0.2214 0.4519
H19 H 1.1238 -0.2532 0.4426
C15 C 0.8098(4) -0.13077(19) 0.73731(14)
H20 H 0.6961 -0.1643 0.7651
H21 H 0.9048 -0.1041 0.7782
H22 H 0.8769 -0.1829 0.7023
loop_
_geom_bond_atom_site_label_1
_geom_bond_atom_site_label_2
_geom_bond_site_symmetry_1
_geom_bond_site_symmetry_2
O1 C1 1_555 1_555
O2 H1 1_555 1_555
O3 H2 1_555 1_555
C1 C2 1_555 1_555
C2 C3 1_555 1_555
C3 O2 1_555 1_555
H3 C3 1_555 1_555
C4 C3 1_555 1_555
H4 C4 1_555 1_555
C5 C4 1_555 1_555
H5 C5 1_555 1_555
H6 C5 1_555 1_555
C6 C5 1_555 1_555
C7 C6 1_555 1_555
H7 C7 1_555 1_555
H8 C7 1_555 1_555
H9 C7 1_555 1_555
C8 C1 1_555 1_555
H10 C8 1_555 1_555
C9 C8 1_555 1_555
C10 O3 1_555 1_555
C11 C4 1_555 1_555
H11 C11 1_555 1_555
C12 C6 1_555 1_555
H12 C12 1_555 1_555
H13 C12 1_555 1_555
C13 C2 1_555 1_555
H14 C13 1_555 1_555
H15 C13 1_555 1_555
H16 C13 1_555 1_555
C14 C6 1_555 1_555
H17 C14 1_555 1_555
H18 C14 1_555 1_555
H19 C14 1_555 1_555
C15 C9 1_555 1_555
H20 C15 1_555 1_555
H21 C15 1_555 1_555
H22 C15 1_555 1_555
C2 C10 1_555 1_555
C9 C10 1_555 1_555
C10 C11 1_555 1_555
C11 C12 1_555 1_555

#END
