
#######################################################################
#
#                 Cambridge Crystallographic Data Centre
#                                CCDC 
#
#######################################################################
#
# If this CIF has been generated from an entry in the Cambridge 
# Structural Database, then it will include bibliographic, chemical, 
# crystal, experimental, refinement or atomic coordinate data resulting 
# from the CCDC's data processing and validation procedures.
#
#######################################################################

data_HUCMOJ
_chemical_formula_moiety         'C15 H14 Cl3 N3 O4 S2'
_chemical_name_systematic        
'ethyl 2-((5-(((2,4,5-trichlorophenoxy)acetyl)amino)-1,3,4-thiadiazol-2-yl)sulfanyl)propanoate'
_symmetry_cell_setting           triclinic
_symmetry_space_group_name_H-M   'P -1'
_symmetry_Int_Tables_number      2
_space_group_name_Hall           '-P 1'
loop_
_symmetry_equiv_pos_site_id
_symmetry_equiv_pos_as_xyz
1 x,y,z
2 -x,-y,-z
_cell_length_a                   11.233(9)
_cell_length_b                   13.327(8)
_cell_length_c                   14.317(2)
_cell_angle_alpha                100.88(4)
_cell_angle_beta                 98.50(5)
_cell_angle_gamma                113.95(3)
_cell_volume                     1862.42
_cell_formula_units_Z            4
loop_
_atom_site_label
_atom_site_type_symbol
_atom_site_fract_x
_atom_site_fract_y
_atom_site_fract_z
C1 C -0.1790(4) -0.1738(3) 0.5728(3)
C2 C -0.2690(4) -0.1870(4) 0.6320(4)
H1 H -0.3591 -0.2391 0.6063
C3 C -0.2253(5) -0.1233(4) 0.7281(4)
C4 C -0.0856(5) -0.0451(4) 0.7640(4)
C5 C 0.0040(5) -0.0307(4) 0.7035(4)
H2 H 0.0937 0.0226 0.7286
C6 C -0.0406(4) -0.0956(4) 0.6063(4)
C7 C 0.1810(4) -0.0119(4) 0.5696(3)
H3 H 0.2263 -0.0254 0.6256
H4 H 0.1937 0.0663 0.5874
C8 C 0.2367(4) -0.0338(4) 0.4808(4)
C9 C 0.4311(4) 0.0413(3) 0.4096(3)
C10 C 0.5123(5) 0.0074(4) 0.2670(4)
C11 C 0.6917(6) 0.0729(4) 0.1469(4)
H5 H 0.7616 0.0956 0.2071
C12 C 0.7402(6) 0.0379(5) 0.0603(5)
H6 H 0.6666 0.0016 0.0026
H7 H 0.7755 -0.0145 0.0717
H8 H 0.8095 0.1042 0.0509
C13 C 0.6677(5) 0.1645(4) 0.1388(4)
C14 C 0.7905(7) 0.3560(5) 0.1621(6)
H9 H 0.8434 0.4196 0.2201
H10 H 0.7009 0.3509 0.1461
C15 C 0.8544(8) 0.3774(7) 0.0774(7)
H11 H 0.9417 0.3795 0.0921
H12 H 0.8632 0.4492 0.0676
H13 H 0.7988 0.3172 0.0188
Cl1 Cl -0.23909(12) -0.25746(10) 0.45172(10)
Cl2 Cl -0.34089(14) -0.14182(12) 0.80150(11)
Cl3 Cl -0.02596(17) 0.03336(13) 0.88531(11)
N1 N 0.3667(3) 0.0477(3) 0.4840(3)
H14 H 0.4085 0.1049 0.5355
N2 N 0.5561(3) 0.1194(3) 0.4146(3)
N3 N 0.6040(4) 0.0992(3) 0.3320(3)
O1 O 0.0391(3) -0.0906(3) 0.5407(2)
O2 O 0.1757(3) -0.1157(3) 0.4132(3)
O3 O 0.5669(3) 0.1547(3) 0.0983(3)
O4 O 0.7827(4) 0.2587(3) 0.1813(3)
S1 S 0.35908(11) -0.06422(9) 0.30107(9)
S2 S 0.53392(17) -0.04564(12) 0.15351(12)
C16 C -0.2789(5) 0.5003(4) 0.5140(4)
C17 C -0.3634(5) 0.4946(4) 0.5771(5)
H15 H -0.4544 0.4438 0.5550
C18 C -0.3130(5) 0.5634(4) 0.6708(5)
C19 C -0.1742(5) 0.6378(4) 0.7021(4)
C20 C -0.0870(5) 0.6448(4) 0.6401(4)
H16 H 0.0042 0.6947 0.6633
C21 C -0.1379(4) 0.5770(4) 0.5444(4)
C22 C 0.0756(4) 0.6578(4) 0.4974(4)
H17 H 0.1290 0.6491 0.5522
H18 H 0.0830 0.7344 0.5144
C23 C 0.1248(4) 0.6369(4) 0.4049(4)
C24 C 0.3297(4) 0.6964(3) 0.3425(4)
C25 C 0.4102(5) 0.6684(4) 0.1997(4)
C26 C 0.6076(6) 0.7068(5) 0.0958(5)
H19 H 0.6357 0.7850 0.1351
C27 C 0.6370(7) 0.7111(6) -0.0037(5)
H20 H 0.7320 0.7539 0.0046
H21 H 0.5904 0.7472 -0.0349
H22 H 0.6071 0.6348 -0.0439
C28 C 0.6819(5) 0.6603(5) 0.1444(4)
C29 C 0.8952(7) 0.7104(7) 0.2331(6)
H23 H 0.8510 0.6391 0.2496
H24 H 0.9564 0.7682 0.2926
C30 C 0.9718(8) 0.6960(7) 0.1582(7)
H25 H 0.9100 0.6415 0.0985
H26 H 1.0343 0.6693 0.1828
H27 H 1.0199 0.7681 0.1455
Cl4 Cl -0.34407(13) 0.41060(14) 0.39615(12)
Cl5 Cl -0.42236(15) 0.55128(14) 0.74825(14)
Cl6 Cl -0.10519(16) 0.72250(13) 0.82164(13)
N4 N 0.2642(3) 0.7021(3) 0.4170(3)
H28 H 0.3114 0.7480 0.4739
N5 N 0.5105(4) 0.7421(3) 0.2731(3)
N6 N 0.4628(3) 0.7586(3) 0.3575(3)
O5 O -0.0638(3) 0.5739(3) 0.4755(3)
O6 O 0.0542(3) 0.5718(3) 0.3281(3)
O7 O 0.6395(4) 0.5673(4) 0.1374(3)
O8 O 0.8024(4) 0.7420(3) 0.1954(3)
S3 S 0.24922(11) 0.61084(10) 0.22469(10)
S4 S 0.42500(15) 0.62304(15) 0.08135(12)
loop_
_geom_bond_atom_site_label_1
_geom_bond_atom_site_label_2
_geom_bond_site_symmetry_1
_geom_bond_site_symmetry_2
C1 C2 1_555 1_555
C2 H1 1_555 1_555
C3 C2 1_555 1_555
C4 C3 1_555 1_555
C5 C4 1_555 1_555
H2 C5 1_555 1_555
C6 C1 1_555 1_555
C7 H3 1_555 1_555
H4 C7 1_555 1_555
C8 C7 1_555 1_555
C9 N1 1_555 1_555
C10 N3 1_555 1_555
C11 H5 1_555 1_555
C12 C11 1_555 1_555
H6 C12 1_555 1_555
H7 C12 1_555 1_555
H8 C12 1_555 1_555
C13 C11 1_555 1_555
C14 H9 1_555 1_555
H10 C14 1_555 1_555
C15 C14 1_555 1_555
H11 C15 1_555 1_555
H12 C15 1_555 1_555
H13 C15 1_555 1_555
Cl1 C1 1_555 1_555
Cl2 C3 1_555 1_555
Cl3 C4 1_555 1_555
N1 C8 1_555 1_555
H14 N1 1_555 1_555
N2 C9 1_555 1_555
N3 N2 1_555 1_555
O1 C6 1_555 1_555
O2 C8 1_555 1_555
O3 C13 1_555 1_555
O4 C13 1_555 1_555
S1 C9 1_555 1_555
S2 C10 1_555 1_555
C16 C17 1_555 1_555
C17 H15 1_555 1_555
C18 C17 1_555 1_555
C19 C18 1_555 1_555
C20 C19 1_555 1_555
H16 C20 1_555 1_555
C21 C16 1_555 1_555
C22 H17 1_555 1_555
H18 C22 1_555 1_555
C23 C22 1_555 1_555
C24 N4 1_555 1_555
C25 N5 1_555 1_555
C26 H19 1_555 1_555
C27 C26 1_555 1_555
H20 C27 1_555 1_555
H21 C27 1_555 1_555
H22 C27 1_555 1_555
C28 C26 1_555 1_555
C29 H23 1_555 1_555
H24 C29 1_555 1_555
C30 C29 1_555 1_555
H25 C30 1_555 1_555
H26 C30 1_555 1_555
H27 C30 1_555 1_555
Cl4 C16 1_555 1_555
Cl5 C18 1_555 1_555
Cl6 C19 1_555 1_555
N4 C23 1_555 1_555
H28 N4 1_555 1_555
N5 N6 1_555 1_555
N6 C24 1_555 1_555
O5 C21 1_555 1_555
O6 C23 1_555 1_555
O7 C28 1_555 1_555
O8 C28 1_555 1_555
S3 C24 1_555 1_555
S4 C25 1_555 1_555
C5 C6 1_555 1_555
C7 O1 1_555 1_555
C10 S1 1_555 1_555
C11 S2 1_555 1_555
C14 O4 1_555 1_555
C20 C21 1_555 1_555
C22 O5 1_555 1_555
C25 S3 1_555 1_555
C26 S4 1_555 1_555
C29 O8 1_555 1_555

#END
