
#######################################################################
#
#                 Cambridge Crystallographic Data Centre
#                                CCDC 
#
#######################################################################
#
# If this CIF has been generated from an entry in the Cambridge 
# Structural Database, then it will include bibliographic, chemical, 
# crystal, experimental, refinement or atomic coordinate data resulting 
# from the CCDC's data processing and validation procedures.
#
#######################################################################

data_HUCYEK
_chemical_name_common            
'Methyl 2-[2-(6-chloropyrimidin-4-yloxy)phenyl]-3,3-dimethoxypropanoate'
_chemical_formula_moiety         'C16 H17 Cl1 N2 O5'
_chemical_name_systematic        
'Methyl 2-(2-((6-chloro-4-pyrimidinyl)oxy)phenyl)-3,3-dimethoxypropanoate'
_symmetry_cell_setting           triclinic
_symmetry_space_group_name_H-M   'P -1'
_symmetry_Int_Tables_number      2
_space_group_name_Hall           '-P 1'
loop_
_symmetry_equiv_pos_site_id
_symmetry_equiv_pos_as_xyz
1 x,y,z
2 -x,-y,-z
_cell_length_a                   9.5030(19)
_cell_length_b                   10.051(2)
_cell_length_c                   11.162(2)
_cell_angle_alpha                101.24(3)
_cell_angle_beta                 108.47(3)
_cell_angle_gamma                113.42(3)
_cell_volume                     862.561
_exptl_crystal_colour            colorless
_exptl_crystal_description       needle
_cell_formula_units_Z            2
_exptl_crystal_recrystallization_method methanol
loop_
_atom_site_label
_atom_site_type_symbol
_atom_site_fract_x
_atom_site_fract_y
_atom_site_fract_z
Cl1 Cl 0.16863(16) 0.54848(17) 0.23573(15)
O1 O -0.7131(4) 0.4178(4) -0.3468(3)
O2 O -0.6406(5) 0.2829(5) -0.4869(4)
O3 O -0.5192(5) 0.0798(5) -0.3027(4)
O4 O -0.7857(7) -0.0410(6) -0.4408(5)
O5 O -0.4458(3) 0.3794(3) -0.0203(3)
N1 N -0.3799(5) 0.1982(4) 0.0434(4)
N2 N -0.0880(5) 0.2702(5) 0.1614(4)
C1 C -0.8435(9) 0.4438(9) -0.4217(6)
H1 H -0.8231 0.5446 -0.3730
H2 H -0.9517 0.3648 -0.4345
H3 H -0.8443 0.4398 -0.5086
C2 C -0.6907(10) 0.2967(8) -0.6060(6)
H4 H -0.6124 0.2972 -0.6432
H5 H -0.6938 0.3925 -0.5950
H6 H -0.8026 0.2105 -0.6664
C3 C -0.7194(7) 0.2788(5) -0.4025(5)
H7 H -0.8400 0.2004 -0.4578
C4 C -0.5126(8) -0.0639(7) -0.3384(6)
H8 H -0.3983 -0.0432 -0.2896
H9 H -0.5469 -0.1044 -0.4343
H10 H -0.5883 -0.1389 -0.3148
C5 C -0.6598(11) 0.0736(9) -0.3573(8)
C6 C -0.6513(6) 0.2253(6) -0.2981(5)
H11 H -0.5298 0.3025 -0.2460
C7 C -0.7250(6) 0.2132(5) -0.1948(5)
C8 C -0.6183(5) 0.2823(4) -0.0593(5)
C9 C -0.6753(6) 0.2753(5) 0.0390(5)
H12 H -0.5986 0.3259 0.1305
C10 C -0.8481(7) 0.1921(6) 0.0000(6)
H13 H -0.8884 0.1850 0.0656
C11 C -0.9602(6) 0.1202(6) -0.1340(7)
H14 H -1.0770 0.0644 -0.1607
C12 C -0.8968(6) 0.1316(5) -0.2302(5)
H15 H -0.9732 0.0823 -0.3218
C13 C -0.3283(6) 0.3428(5) 0.0417(4)
C14 C -0.2533(6) 0.1731(5) 0.1042(5)
H16 H -0.2858 0.0737 0.1068
C15 C -0.0453(6) 0.4133(5) 0.1578(4)
C16 C -0.1620(5) 0.4550(5) 0.0963(4)
H17 H -0.1295 0.5538 0.0923
loop_
_geom_bond_atom_site_label_1
_geom_bond_atom_site_label_2
_geom_bond_site_symmetry_1
_geom_bond_site_symmetry_2
Cl1 C15 1_555 1_555
O1 C1 1_555 1_555
O2 C2 1_555 1_555
O3 C4 1_555 1_555
O4 C5 1_555 1_555
O5 C8 1_555 1_555
N1 C13 1_555 1_555
N2 C14 1_555 1_555
C1 H1 1_555 1_555
H2 C1 1_555 1_555
H3 C1 1_555 1_555
C2 H4 1_555 1_555
H5 C2 1_555 1_555
H6 C2 1_555 1_555
C3 O1 1_555 1_555
H7 C3 1_555 1_555
C4 H8 1_555 1_555
H9 C4 1_555 1_555
H10 C4 1_555 1_555
C5 O3 1_555 1_555
C6 C3 1_555 1_555
H11 C6 1_555 1_555
C7 C6 1_555 1_555
C8 C7 1_555 1_555
C9 C8 1_555 1_555
H12 C9 1_555 1_555
C10 C9 1_555 1_555
H13 C10 1_555 1_555
C11 C10 1_555 1_555
H14 C11 1_555 1_555
C12 C7 1_555 1_555
H15 C12 1_555 1_555
C13 O5 1_555 1_555
C14 N1 1_555 1_555
H16 C14 1_555 1_555
C15 N2 1_555 1_555
C16 C13 1_555 1_555
H17 C16 1_555 1_555
O2 C3 1_555 1_555
C5 C6 1_555 1_555
C11 C12 1_555 1_555
C15 C16 1_555 1_555

#END
