
#######################################################################
#
#                 Cambridge Crystallographic Data Centre
#                                CCDC 
#
#######################################################################
#
# If this CIF has been generated from an entry in the Cambridge 
# Structural Database, then it will include bibliographic, chemical, 
# crystal, experimental, refinement or atomic coordinate data resulting 
# from the CCDC's data processing and validation procedures.
#
#######################################################################

data_HUDDOZ
_chemical_formula_moiety         'C20 H17 N3 O6'
_chemical_name_systematic        
2-Azido-2-deoxy-3,4-di-O-benzoyl-\b-L-gulopyranose
_symmetry_cell_setting           monoclinic
_symmetry_space_group_name_H-M   'P 21'
_symmetry_Int_Tables_number      4
_space_group_name_Hall           'P 2yb'
loop_
_symmetry_equiv_pos_site_id
_symmetry_equiv_pos_as_xyz
1 x,y,z
2 -x,1/2+y,-z
_cell_length_a                   10.733(3)
_cell_length_b                   7.283(4)
_cell_length_c                   11.9371(12)
_cell_angle_alpha                90
_cell_angle_beta                 93.790(16)
_cell_angle_gamma                90
_cell_volume                     931.064
_exptl_crystal_colour            colorless
_cell_formula_units_Z            2
_exptl_crystal_recrystallization_method chloroform/hexane
loop_
_atom_site_label
_atom_site_type_symbol
_atom_site_fract_x
_atom_site_fract_y
_atom_site_fract_z
O1 O 0.1090(3) 0.5978 0.5539(3)
O2 O 0.2593(4) 0.7841(9) 0.6293(3)
O3 O 0.3370(3) 0.6916(8) 0.2960(3)
O4 O 0.5282(4) 0.7598(9) 0.3713(3)
O5 O 0.1288(3) 0.9233(8) 0.3213(3)
O6 O -0.0591(4) 0.8183(9) 0.2553(3)
N1 N 0.2733(4) 0.3922(10) 0.4395(4)
N2 N 0.3532(5) 0.3052(10) 0.3957(4)
N3 N 0.4167(6) 0.2098(13) 0.3499(5)
C1 C 0.5015(5) 0.7147(10) 0.1744(4)
C2 C 0.4188(5) 0.7040(11) 0.0814(5)
C3 C 0.4603(5) 0.7252(10) 0.2895(4)
C4 C 0.2885(4) 0.7271(10) 0.4039(4)
C5 C 0.3145(5) 0.5718(11) 0.4879(4)
C6 C 0.1495(5) 0.7564(10) 0.3849(4)
C7 C 0.0194(5) 0.9369(10) 0.2584(4)
C8 C 0.5891(6) 0.7126(12) -0.0393(5)
C9 C 0.0903(5) 0.7707(11) 0.4978(5)
C10 C 0.6300(5) 0.7213(11) 0.1603(5)
C11 C 0.4613(5) 0.7049(13) -0.0263(5)
C12 C 0.2363(5) 0.6040(11) 0.5894(5)
C13 C 0.1612(6) 0.8963(12) 0.5822(5)
C14 C -0.1056(5) 1.1632(10) 0.1476(4)
C15 C -0.0208(5) 1.4509(11) 0.0894(5)
C16 C 0.0926(5) 1.4016(11) 0.1406(5)
C17 C 0.0084(4) 1.1163(10) 0.1996(4)
C18 C 0.1088(5) 1.2338(11) 0.1958(4)
C19 C -0.1200(6) 1.3287(11) 0.0942(5)
C20 C 0.6707(5) 0.7228(12) 0.0533(5)
H1 H 0.327 0.699 0.091
H2 H 0.327 0.843 0.435
H3 H 0.405 0.568 0.513
H4 H 0.111 0.651 0.341
H5 H 0.619 0.713 -0.117
H6 H 0.000 0.805 0.488
H7 H 0.691 0.728 0.227
H8 H 0.401 0.696 -0.094
H9 H 0.257 0.511 0.649
H10 H 0.105 0.941 0.640
H11 H 0.194 1.006 0.543
H12 H -0.178 1.077 0.147
H13 H -0.032 1.571 0.050
H14 H 0.165 1.488 0.139
H15 H 0.192 1.201 0.233
H16 H -0.203 1.367 0.059
H17 H 0.762 0.731 0.043
loop_
_geom_bond_atom_site_label_1
_geom_bond_atom_site_label_2
_geom_bond_site_symmetry_1
_geom_bond_site_symmetry_2
O1 C9 1_555 1_555
O2 C12 1_555 1_555
O3 C3 1_555 1_555
O4 C3 1_555 1_555
O5 C6 1_555 1_555
O6 C7 1_555 1_555
N1 N2 1_555 1_555
N2 N3 1_555 1_555
C1 C2 1_555 1_555
C2 C11 1_555 1_555
C3 C1 1_555 1_555
C4 O3 1_555 1_555
C5 N1 1_555 1_555
C6 C4 1_555 1_555
C7 O5 1_555 1_555
C8 C11 1_555 1_555
C9 C6 1_555 1_555
C10 C1 1_555 1_555
C11 H8 1_555 1_555
C12 O1 1_555 1_555
C13 O2 1_555 1_555
C14 C17 1_555 1_555
C15 C16 1_555 1_555
C16 C18 1_555 1_555
C17 C7 1_555 1_555
C18 C17 1_555 1_555
C19 C14 1_555 1_555
C20 C8 1_555 1_555
H1 C2 1_555 1_555
H2 C4 1_555 1_555
H3 C5 1_555 1_555
H4 C6 1_555 1_555
H5 C8 1_555 1_555
H6 C9 1_555 1_555
H7 C10 1_555 1_555
H9 C12 1_555 1_555
H10 C13 1_555 1_555
H11 C13 1_555 1_555
H12 C14 1_555 1_555
H13 C15 1_555 1_555
H14 C16 1_555 1_555
H15 C18 1_555 1_555
H16 C19 1_555 1_555
H17 C20 1_555 1_555
C4 C5 1_555 1_555
C5 C12 1_555 1_555
C9 C13 1_555 1_555
C10 C20 1_555 1_555
C15 C19 1_555 1_555

#END
