
#######################################################################
#
#                 Cambridge Crystallographic Data Centre
#                                CCDC 
#
#######################################################################
#
# If this CIF has been generated from an entry in the Cambridge 
# Structural Database, then it will include bibliographic, chemical, 
# crystal, experimental, refinement or atomic coordinate data resulting 
# from the CCDC's data processing and validation procedures.
#
#######################################################################

data_HUDLOI
_chemical_formula_moiety         'C11 H14 N2 O3'
_chemical_name_systematic        N-Isopropyl-3-methyl-2-nitrobenzamide
_symmetry_cell_setting           orthorhombic
_symmetry_space_group_name_H-M   'P b c a'
_symmetry_Int_Tables_number      61
_space_group_name_Hall           '-P 2ac 2ab'
loop_
_symmetry_equiv_pos_site_id
_symmetry_equiv_pos_as_xyz
1 x,y,z
2 1/2-x,-y,1/2+z
3 -x,1/2+y,1/2-z
4 1/2+x,1/2-y,-z
5 -x,-y,-z
6 1/2+x,y,1/2-z
7 x,1/2-y,1/2+z
8 1/2-x,1/2+y,z
_cell_length_a                   9.4230(19)
_cell_length_b                   13.250(3)
_cell_length_c                   20.041(4)
_cell_angle_alpha                90
_cell_angle_beta                 90
_cell_angle_gamma                90
_cell_volume                     2502.21
_exptl_crystal_colour            colorless
_exptl_crystal_description       needle
_cell_formula_units_Z            8
_exptl_crystal_recrystallization_method acetone
loop_
_atom_site_label
_atom_site_type_symbol
_atom_site_fract_x
_atom_site_fract_y
_atom_site_fract_z
O1 O 0.1002(2) 0.4262(2) 0.21752(13)
N1 N -0.0987(3) 0.4490(2) 0.27836(16)
H1 H -0.1881 0.4367 0.2809
C1 C 0.0066(6) 0.4504(4) 0.3892(3)
H2 H 0.0699 0.3974 0.3756
H3 H -0.0769 0.4215 0.4089
H4 H 0.0533 0.4928 0.4212
O2 O -0.0336(3) 0.51283(19) 0.09602(15)
N2 N 0.0028(3) 0.4269(2) 0.08678(16)
C2 C -0.1321(5) 0.5952(3) 0.3487(2)
H5 H -0.1543 0.6345 0.3099
H6 H -0.0871 0.6374 0.3814
H7 H -0.2178 0.5675 0.3670
O3 O 0.1088(3) 0.4024(2) 0.05598(16)
C3 C -0.0342(4) 0.5115(3) 0.32994(19)
H8 H 0.0523 0.5415 0.3114
C4 C -0.0271(3) 0.4105(2) 0.22794(18)
C5 C -0.1076(3) 0.3415(2) 0.18197(18)
C6 C -0.1956(4) 0.2662(3) 0.2058(2)
H9 H -0.2102 0.2600 0.2516
C7 C -0.2619(4) 0.2004(3) 0.1630(2)
H10 H -0.3206 0.1500 0.1798
C8 C -0.2420(4) 0.2086(3) 0.0961(2)
H11 H -0.2884 0.1636 0.0679
C9 C -0.1545(4) 0.2819(3) 0.0684(2)
C10 C -0.0889(3) 0.3463(2) 0.11363(19)
C11 C -0.1371(5) 0.2899(3) -0.0058(2)
H12 H -0.0743 0.3448 -0.0160
H13 H -0.2279 0.3020 -0.0260
H14 H -0.0981 0.2282 -0.0228
loop_
_geom_bond_atom_site_label_1
_geom_bond_atom_site_label_2
_geom_bond_site_symmetry_1
_geom_bond_site_symmetry_2
O1 C4 1_555 1_555
N1 H1 1_555 1_555
C1 H2 1_555 1_555
H3 C1 1_555 1_555
H4 C1 1_555 1_555
O2 N2 1_555 1_555
N2 O3 1_555 1_555
C2 H5 1_555 1_555
H6 C2 1_555 1_555
H7 C2 1_555 1_555
C3 N1 1_555 1_555
H8 C3 1_555 1_555
C4 N1 1_555 1_555
C5 C4 1_555 1_555
C6 C5 1_555 1_555
H9 C6 1_555 1_555
C7 C6 1_555 1_555
H10 C7 1_555 1_555
C8 C7 1_555 1_555
H11 C8 1_555 1_555
C9 C8 1_555 1_555
C10 N2 1_555 1_555
C11 C9 1_555 1_555
H12 C11 1_555 1_555
H13 C11 1_555 1_555
H14 C11 1_555 1_555
C1 C3 1_555 1_555
C2 C3 1_555 1_555
C5 C10 1_555 1_555
C9 C10 1_555 1_555

#END
