
#######################################################################
#
#                 Cambridge Crystallographic Data Centre
#                                CCDC 
#
#######################################################################
#
# If this CIF has been generated from an entry in the Cambridge 
# Structural Database, then it will include bibliographic, chemical, 
# crystal, experimental, refinement or atomic coordinate data resulting 
# from the CCDC's data processing and validation procedures.
#
#######################################################################

data_HUDLIC
_chemical_formula_moiety         'C23 H26 Cl1 N1 O4'
_chemical_name_systematic        
1-(Chloroacetyl)-2,6-bis(2-methoxyphenyl)-3,5-dimethyl-4-piperidinone
_symmetry_cell_setting           triclinic
_symmetry_space_group_name_H-M   'P -1'
_symmetry_Int_Tables_number      2
_space_group_name_Hall           '-P 1'
loop_
_symmetry_equiv_pos_site_id
_symmetry_equiv_pos_as_xyz
1 x,y,z
2 -x,-y,-z
_cell_length_a                   8.9921(6)
_cell_length_b                   11.3725(8)
_cell_length_c                   11.9373(8)
_cell_angle_alpha                71.6300(10)
_cell_angle_beta                 68.4650(10)
_cell_angle_gamma                72.9030(10)
_cell_volume                     1055.45
_exptl_crystal_colour            colorless
_exptl_crystal_description       block
_cell_formula_units_Z            2
_exptl_crystal_recrystallization_method ethanol
loop_
_atom_site_label
_atom_site_type_symbol
_atom_site_fract_x
_atom_site_fract_y
_atom_site_fract_z
C1 C 0.62492(17) 0.76769(12) 0.18450(12)
H1 H 0.5887 0.7813 0.1125
C2 C 0.75304(18) 0.84927(13) 0.14741(13)
H2 H 0.7983 0.8264 0.2164
C3 C 0.6724(2) 0.98870(15) 0.13142(15)
C4 C 0.51873(19) 1.02296(13) 0.23286(14)
H3 H 0.5333 1.0870 0.2648
C5 C 0.47941(17) 0.90843(12) 0.34028(13)
H4 H 0.3655 0.9344 0.3879
C6 C 0.33625(18) 0.76953(14) 0.31911(14)
C7 C 0.3312(2) 0.6876(2) 0.2420(2)
H5 H 0.4139 0.6108 0.2494
H6 H 0.3572 0.7327 0.1556
C8 C 0.70453(17) 0.62802(13) 0.21844(13)
C9 C 0.7535(2) 0.57969(14) 0.32461(14)
H7 H 0.7322 0.6323 0.3769
C10 C 0.8335(2) 0.45490(16) 0.35465(17)
H8 H 0.8653 0.4242 0.4261
C11 C 0.8647(2) 0.37779(16) 0.27738(19)
H9 H 0.9186 0.2942 0.2968
C12 C 0.8177(2) 0.42187(16) 0.17127(19)
H10 H 0.8392 0.3681 0.1201
C13 C 0.73780(19) 0.54777(15) 0.14083(15)
C14 C 0.7241(3) 0.5234(2) -0.0467(2)
H11 H 0.8404 0.4997 -0.0800
H12 H 0.6782 0.5702 -0.1128
H13 H 0.6792 0.4486 -0.0045
C15 C 0.8945(2) 0.82148(18) 0.03379(16)
H14 H 0.8536 0.8374 -0.0345
H15 H 0.9488 0.7345 0.0516
H16 H 0.9704 0.8751 0.0128
C16 C 0.3767(2) 1.08034(17) 0.17668(17)
H17 H 0.4010 1.1535 0.1113
H18 H 0.2784 1.1045 0.2397
H19 H 0.3621 1.0188 0.1440
C17 C 0.57351(18) 0.85534(13) 0.43542(13)
C18 C 0.51132(19) 0.76226(14) 0.53789(13)
H20 H 0.4129 0.7432 0.5475
C19 C 0.5920(2) 0.69789(16) 0.62510(15)
H21 H 0.5477 0.6372 0.6930
C20 C 0.7387(2) 0.72462(17) 0.61039(16)
H22 H 0.7966 0.6782 0.6662
C21 C 0.8006(2) 0.81951(16) 0.51375(15)
H23 H 0.8982 0.8386 0.5060
C22 C 0.71660(18) 0.88681(13) 0.42754(13)
C23 C 0.9135(3) 1.0185(2) 0.3189(2)
H24 H 0.9001 1.0448 0.3915
H25 H 0.9348 1.0872 0.2475
H26 H 1.0034 0.9479 0.3092
N1 N 0.48009(14) 0.80640(11) 0.28696(11)
O1 O 0.21671(13) 0.80127(12) 0.40297(11)
O2 O 0.68636(18) 0.59924(13) 0.03773(12)
O3 O 0.7251(2) 1.06760(13) 0.04061(15)
O4 O 0.76967(14) 0.98287(11) 0.33137(11)
Cl1 Cl 0.14021(6) 0.64709(5) 0.28760(5)
loop_
_geom_bond_atom_site_label_1
_geom_bond_atom_site_label_2
_geom_bond_site_symmetry_1
_geom_bond_site_symmetry_2
C1 H1 1_555 1_555
C2 C1 1_555 1_555
H2 C2 1_555 1_555
C3 C2 1_555 1_555
C4 C3 1_555 1_555
H3 C4 1_555 1_555
C5 C4 1_555 1_555
H4 C5 1_555 1_555
C6 C7 1_555 1_555
C7 H5 1_555 1_555
H6 C7 1_555 1_555
C8 C1 1_555 1_555
C9 C8 1_555 1_555
H7 C9 1_555 1_555
C10 C9 1_555 1_555
H8 C10 1_555 1_555
C11 C10 1_555 1_555
H9 C11 1_555 1_555
C12 C11 1_555 1_555
H10 C12 1_555 1_555
C13 C8 1_555 1_555
C14 H11 1_555 1_555
H12 C14 1_555 1_555
H13 C14 1_555 1_555
C15 C2 1_555 1_555
H14 C15 1_555 1_555
H15 C15 1_555 1_555
H16 C15 1_555 1_555
C16 C4 1_555 1_555
H17 C16 1_555 1_555
H18 C16 1_555 1_555
H19 C16 1_555 1_555
C17 C5 1_555 1_555
C18 C17 1_555 1_555
H20 C18 1_555 1_555
C19 C18 1_555 1_555
H21 C19 1_555 1_555
C20 C19 1_555 1_555
H22 C20 1_555 1_555
C21 C20 1_555 1_555
H23 C21 1_555 1_555
C22 C17 1_555 1_555
C23 H24 1_555 1_555
H25 C23 1_555 1_555
H26 C23 1_555 1_555
N1 C1 1_555 1_555
O1 C6 1_555 1_555
O2 C13 1_555 1_555
O3 C3 1_555 1_555
O4 C22 1_555 1_555
Cl1 C7 1_555 1_555
C5 N1 1_555 1_555
C6 N1 1_555 1_555
C12 C13 1_555 1_555
C14 O2 1_555 1_555
C21 C22 1_555 1_555
C23 O4 1_555 1_555

#END
