
#######################################################################
#
#                 Cambridge Crystallographic Data Centre
#                                CCDC 
#
#######################################################################
#
# If this CIF has been generated from an entry in the Cambridge 
# Structural Database, then it will include bibliographic, chemical, 
# crystal, experimental, refinement or atomic coordinate data resulting 
# from the CCDC's data processing and validation procedures.
#
#######################################################################

data_HUDSUV
_chemical_formula_moiety         'C15 H13 Br1 N2 O1'
_chemical_name_systematic        
(E)-N'-[1-(4-Bromophenyl)ethylidene]benzohydrazide
_symmetry_cell_setting           monoclinic
_symmetry_space_group_name_H-M   'P 21/c'
_symmetry_Int_Tables_number      14
_space_group_name_Hall           '-P 2ybc'
loop_
_symmetry_equiv_pos_site_id
_symmetry_equiv_pos_as_xyz
1 x,y,z
2 -x,1/2+y,1/2-z
3 -x,-y,-z
4 x,1/2-y,1/2+z
_cell_length_a                   9.9770(11)
_cell_length_b                   31.487(3)
_cell_length_c                   8.7613(9)
_cell_angle_alpha                90
_cell_angle_beta                 96.1040(10)
_cell_angle_gamma                90
_cell_volume                     2736.72
_exptl_crystal_colour            colorless
_exptl_crystal_description       block
_cell_formula_units_Z            8
_exptl_crystal_recrystallization_method ethanol
loop_
_atom_site_label
_atom_site_type_symbol
_atom_site_fract_x
_atom_site_fract_y
_atom_site_fract_z
Br1 Br 0.05576(10) 0.04761(3) 0.12825(13)
N1 N 0.1623(6) 0.30472(16) 0.1860(7)
H1 H 0.2450 0.3123 0.2070
N2 N 0.1275(6) 0.26193(18) 0.1697(8)
O1 O -0.0567(5) 0.32437(15) 0.1524(7)
C1 C 0.0627(8) 0.3340(2) 0.1678(9)
C2 C 0.1063(8) 0.3795(2) 0.1712(9)
C3 C 0.2317(9) 0.3936(3) 0.2308(11)
H3 H 0.2965 0.3740 0.2693
C4 C 0.2627(9) 0.4362(3) 0.2342(13)
H4 H 0.3476 0.4454 0.2750
C5 C 0.1660(12) 0.4652(3) 0.1765(13)
H5 H 0.1857 0.4941 0.1776
C6 C 0.0444(10) 0.4515(3) 0.1191(11)
H6 H -0.0198 0.4711 0.0792
C7 C 0.0123(8) 0.4089(2) 0.1179(10)
H7 H -0.0741 0.4002 0.0806
C8 C 0.3318(7) 0.2479(2) 0.3464(9)
H8 H 0.4062 0.2526 0.2873
H9 H 0.3543 0.2257 0.4196
H10 H 0.3132 0.2736 0.3996
C9 C 0.2105(7) 0.2354(2) 0.2421(9)
C10 C 0.1756(7) 0.1897(2) 0.2133(9)
C11 C 0.2275(8) 0.1584(2) 0.3126(9)
H11 H 0.2867 0.1656 0.3979
C12 C 0.1921(8) 0.1161(2) 0.2866(10)
H12 H 0.2287 0.0953 0.3537
C13 C 0.1045(8) 0.1051(2) 0.1637(10)
C14 C 0.0528(8) 0.1356(2) 0.0611(10)
H13 H -0.0047 0.1281 -0.0253
C15 C 0.0875(7) 0.1777(2) 0.0884(9)
H14 H 0.0505 0.1984 0.0210
Br2 Br 0.53233(12) 0.04532(3) 0.13223(14)
N3 N 0.6642(6) 0.30098(17) 0.1957(7)
H2 H 0.7454 0.3084 0.2272
N4 N 0.6303(6) 0.25836(18) 0.1760(7)
O2 O 0.4486(5) 0.32125(15) 0.1277(6)
C16 C 0.5674(8) 0.3303(2) 0.1644(9)
C17 C 0.6123(7) 0.3751(2) 0.1748(10)
C18 C 0.5576(8) 0.4041(2) 0.0657(10)
H15 H 0.4952 0.3948 -0.0137
C19 C 0.5939(10) 0.4464(3) 0.0728(13)
H16 H 0.5593 0.4653 -0.0029
C20 C 0.6835(10) 0.4602(3) 0.1961(14)
H17 H 0.7081 0.4887 0.2034
C21 C 0.7347(10) 0.4324(3) 0.3050(13)
H18 H 0.7933 0.4420 0.3874
C22 C 0.7009(8) 0.3897(3) 0.2950(11)
H19 H 0.7380 0.3709 0.3695
C23 C 0.8370(8) 0.2420(2) 0.3406(11)
H20 H 0.9101 0.2458 0.2791
H21 H 0.8582 0.2194 0.4125
H22 H 0.8231 0.2678 0.3953
C24 C 0.7126(7) 0.2313(2) 0.2401(9)
C25 C 0.6731(8) 0.1857(2) 0.2140(9)
C26 C 0.7538(8) 0.1525(2) 0.2651(11)
H23 H 0.8374 0.1581 0.3188
C27 C 0.7146(10) 0.1107(3) 0.2391(12)
H24 H 0.7719 0.0886 0.2734
C28 C 0.5913(10) 0.1022(3) 0.1627(11)
C29 C 0.5083(9) 0.1343(3) 0.1057(10)
H25 H 0.4250 0.1285 0.0518
C30 C 0.5519(8) 0.1757(3) 0.1305(10)
H26 H 0.4973 0.1977 0.0892
loop_
_geom_bond_atom_site_label_1
_geom_bond_atom_site_label_2
_geom_bond_site_symmetry_1
_geom_bond_site_symmetry_2
Br1 C13 1_555 1_555
Br2 C28 1_555 1_555
N1 H1 1_555 1_555
N2 N1 1_555 1_555
N3 H2 1_555 1_555
N4 N3 1_555 1_555
O1 C1 1_555 1_555
O2 C16 1_555 1_555
C1 N1 1_555 1_555
C2 C1 1_555 1_555
C3 C2 1_555 1_555
H3 C3 1_555 1_555
C4 C3 1_555 1_555
H4 C4 1_555 1_555
C5 C4 1_555 1_555
H5 C5 1_555 1_555
C6 C5 1_555 1_555
H6 C6 1_555 1_555
C7 C2 1_555 1_555
H7 C7 1_555 1_555
C8 H8 1_555 1_555
H9 C8 1_555 1_555
H10 C8 1_555 1_555
C9 N2 1_555 1_555
C10 C9 1_555 1_555
C11 C10 1_555 1_555
H11 C11 1_555 1_555
C12 C11 1_555 1_555
H12 C12 1_555 1_555
C13 C12 1_555 1_555
C14 C13 1_555 1_555
H13 C14 1_555 1_555
C15 C10 1_555 1_555
H14 C15 1_555 1_555
C16 N3 1_555 1_555
C17 C16 1_555 1_555
C18 C17 1_555 1_555
H15 C18 1_555 1_555
C19 C18 1_555 1_555
H16 C19 1_555 1_555
C20 C19 1_555 1_555
H17 C20 1_555 1_555
C21 C20 1_555 1_555
H18 C21 1_555 1_555
C22 C17 1_555 1_555
H19 C22 1_555 1_555
C23 H20 1_555 1_555
H21 C23 1_555 1_555
H22 C23 1_555 1_555
C24 N4 1_555 1_555
C25 C24 1_555 1_555
C26 C25 1_555 1_555
H23 C26 1_555 1_555
C27 C26 1_555 1_555
H24 C27 1_555 1_555
C28 C27 1_555 1_555
C29 C28 1_555 1_555
H25 C29 1_555 1_555
C30 C25 1_555 1_555
H26 C30 1_555 1_555
C6 C7 1_555 1_555
C8 C9 1_555 1_555
C14 C15 1_555 1_555
C21 C22 1_555 1_555
C23 C24 1_555 1_555
C29 C30 1_555 1_555

#END
