
#######################################################################
#
#                 Cambridge Crystallographic Data Centre
#                                CCDC 
#
#######################################################################
#
# If this CIF has been generated from an entry in the Cambridge 
# Structural Database, then it will include bibliographic, chemical, 
# crystal, experimental, refinement or atomic coordinate data resulting 
# from the CCDC's data processing and validation procedures.
#
#######################################################################

data_HUDZEL
_chemical_formula_moiety         'C48 H56 B2 Li2 N8 S4'
_chemical_name_systematic        
bis((\m~2~-bis(2-mercapto-1-mesitylimidazolyl)dihydrogenborate-H)-lithium)
_symmetry_cell_setting           triclinic
_symmetry_space_group_name_H-M   'P -1'
_symmetry_Int_Tables_number      2
_space_group_name_Hall           '-P 1'
loop_
_symmetry_equiv_pos_site_id
_symmetry_equiv_pos_as_xyz
1 x,y,z
2 -x,-y,-z
_cell_length_a                   8.1350(12)
_cell_length_b                   16.526(3)
_cell_length_c                   20.404(3)
_cell_angle_alpha                106.379(3)
_cell_angle_beta                 101.143(3)
_cell_angle_gamma                97.605(2)
_cell_volume                     2530.78
_cell_formula_units_Z            2
_exptl_crystal_recrystallization_method chloroform
loop_
_atom_site_label
_atom_site_type_symbol
_atom_site_fract_x
_atom_site_fract_y
_atom_site_fract_z
Li1 Li 0.9981(9) 0.9046(4) 0.4737(4)
B1 B 0.9669(6) 0.8561(3) 0.3282(3)
S1 S 0.78244(14) 0.98423(7) 0.43822(5)
S2 S 0.88839(14) 0.75728(7) 0.45014(5)
N1 N 0.8874(4) 0.9330(2) 0.31502(17)
N2 N 0.7442(4) 1.0369(2) 0.32192(17)
N3 N 0.8149(4) 0.7825(2) 0.32005(17)
N4 N 0.6225(4) 0.6885(2) 0.33525(17)
C1 C 0.8089(5) 0.9849(3) 0.3573(2)
C2 C 0.7865(6) 1.0177(3) 0.2574(2)
H1 H 0.7589 1.0444 0.2229
C3 C 0.8735(6) 0.9544(3) 0.2536(2)
H2 H 0.9182 0.9285 0.2155
C4 C 0.7749(5) 0.7448(2) 0.3674(2)
C5 C 0.6873(5) 0.7484(3) 0.2581(2)
H3 H 0.6842 0.7631 0.2167
C6 C 0.5693(6) 0.6910(3) 0.2675(2)
H4 H 0.4688 0.6583 0.2342
C7 C 0.6468(5) 1.1003(3) 0.3469(2)
C8 C 0.4760(5) 1.0746(3) 0.3455(2)
C9 C 0.3861(5) 1.1378(3) 0.3702(2)
H5 H 0.2708 1.1214 0.3700
C10 C 0.4616(5) 1.2245(3) 0.3950(2)
C11 C 0.6315(5) 1.2475(3) 0.3945(2)
H6 H 0.6836 1.3061 0.4109
C12 C 0.7274(5) 1.1864(3) 0.3706(2)
C13 C 0.5202(5) 0.6436(3) 0.3694(2)
C14 C 0.5474(5) 0.5635(3) 0.3724(2)
C15 C 0.4359(5) 0.5189(3) 0.4004(2)
H7 H 0.4514 0.4646 0.4034
C16 C 0.3025(6) 0.5530(3) 0.4240(2)
C17 C 0.2833(5) 0.6334(3) 0.4210(2)
H8 H 0.1940 0.6568 0.4374
C18 C 0.3916(5) 0.6814(3) 0.3946(2)
C19 C 0.3884(6) 0.9810(3) 0.3191(3)
H9 H 0.4289 0.9508 0.2791
H10 H 0.2658 0.9765 0.3048
H11 H 0.4142 0.9555 0.3563
C20 C 0.3634(5) 1.2921(3) 0.4229(2)
H12 H 0.2885 1.3017 0.3839
H13 H 0.4428 1.3454 0.4510
H14 H 0.2957 1.2729 0.4520
C21 C 0.9113(5) 1.2144(3) 0.3725(2)
H15 H 0.9780 1.1770 0.3898
H16 H 0.9524 1.2732 0.4035
H17 H 0.9226 1.2113 0.3254
C22 C 0.6918(5) 0.5265(3) 0.3471(2)
H18 H 0.6792 0.5214 0.2978
H19 H 0.6894 0.4700 0.3528
H20 H 0.7999 0.5641 0.3744
C23 C 0.1787(6) 0.5015(3) 0.4521(3)
H21 H 0.1038 0.5374 0.4717
H22 H 0.2429 0.4828 0.4885
H23 H 0.1109 0.4516 0.4140
C24 C 0.3710(6) 0.7709(3) 0.3942(3)
H24 H 0.4822 0.8090 0.4105
H25 H 0.2984 0.7919 0.4250
H26 H 0.3192 0.7691 0.3466
H53 H 1.057(4) 0.878(2) 0.3873(16)
H56 H 1.040(4) 0.8367(19) 0.2840(16)
Li1A Li 1.0019(9) 1.0954(4) 0.5263(4)
S1A S 1.21756(14) 1.01577(7) 0.56178(5)
C1A C 1.1911(5) 1.0151(3) 0.6427(2)
N1A N 1.1126(4) 1.0670(2) 0.68498(17)
B1A B 1.0331(6) 1.1439(3) 0.6718(3)
N3A N 1.1851(4) 1.2175(2) 0.67995(17)
C4A C 1.2251(5) 1.2552(2) 0.6326(2)
S2A S 1.11161(14) 1.24272(7) 0.54986(5)
H53A H 0.943(4) 1.122(2) 0.6127(16)
H56A H 0.960(4) 1.1633(19) 0.7160(16)
N4A N 1.3775(4) 1.3115(2) 0.66475(17)
C6A C 1.4307(6) 1.3090(3) 0.7325(2)
C5A C 1.3127(5) 1.2516(3) 0.7419(2)
H3A H 1.3158 1.2369 0.7833
H4A H 1.5312 1.3417 0.7658
C13A C 1.4798(5) 1.3564(3) 0.6306(2)
C14A C 1.4526(5) 1.4365(3) 0.6276(2)
C15A C 1.5641(5) 1.4811(3) 0.5996(2)
H7A H 1.5486 1.5354 0.5966
C16A C 1.6975(6) 1.4470(3) 0.5760(2)
C17A C 1.7167(5) 1.3666(3) 0.5790(2)
H8A H 1.8060 1.3432 0.5626
C18A C 1.6084(5) 1.3186(3) 0.6054(2)
C24A C 1.6290(6) 1.2291(3) 0.6058(3)
H24A H 1.5178 1.1910 0.5895
H25A H 1.7016 1.2081 0.5750
H26A H 1.6808 1.2309 0.6534
C23A C 1.8213(6) 1.4985(3) 0.5479(3)
H21A H 1.8962 1.4626 0.5283
H22A H 1.7571 1.5172 0.5115
H23A H 1.8891 1.5484 0.5860
C22A C 1.3082(5) 1.4735(3) 0.6529(2)
H18A H 1.3208 1.4786 0.7022
H19A H 1.3106 1.5300 0.6472
H20A H 1.2001 1.4359 0.6256
C3A C 1.1265(6) 1.0456(3) 0.7464(2)
C2A C 1.2135(6) 0.9823(3) 0.7426(2)
N2A N 1.2558(4) 0.9631(2) 0.67808(17)
C7A C 1.3532(5) 0.8997(3) 0.6531(2)
C8A C 1.5240(5) 0.9254(3) 0.6545(2)
C9A C 1.6139(5) 0.8622(3) 0.6298(2)
H5A H 1.7292 0.8786 0.6300
C10A C 1.5384(5) 0.7755(3) 0.6050(2)
C11A C 1.3685(5) 0.7525(3) 0.6055(2)
H6A H 1.3164 0.6939 0.5891
C12A C 1.2726(5) 0.8136(3) 0.6294(2)
C21A C 1.0887(5) 0.7856(3) 0.6275(2)
H15A H 1.0220 0.8230 0.6102
H16A H 1.0476 0.7268 0.5965
H17A H 1.0774 0.7887 0.6746
C20A C 1.6366(5) 0.7079(3) 0.5771(2)
H12A H 1.7115 0.6983 0.6161
H13A H 1.5572 0.6546 0.5490
H14A H 1.7043 0.7271 0.5480
C19A C 1.6116(6) 1.0190(3) 0.6809(3)
H9A H 1.5711 1.0492 0.7209
H10A H 1.7342 1.0235 0.6952
H11A H 1.5858 1.0445 0.6437
H1A H 1.2411 0.9556 0.7771
H2A H 1.0818 1.0715 0.7845
Li2 Li 0.0579(10) 0.4066(5) 0.0136(4)
B2 B 0.2856(7) 0.4398(3) 0.1620(3)
S3 S -0.10225(15) 0.32516(8) 0.06842(6)
S4 S 0.19882(14) 0.56157(8) 0.05848(6)
N5 N 0.1836(4) 0.3640(2) 0.17784(17)
N6 N -0.0126(4) 0.2569(2) 0.17343(17)
N7 N 0.1896(4) 0.5174(2) 0.17815(16)
N8 N 0.0445(4) 0.6171(2) 0.16545(17)
C25 C 0.0271(5) 0.3166(3) 0.1410(2)
C26 C 0.2399(6) 0.3330(3) 0.2325(2)
H27 H 0.3447 0.3550 0.2663
C27 C 0.1214(5) 0.2666(3) 0.2299(2)
H28 H 0.1284 0.2333 0.2605
C28 C 0.1426(5) 0.5635(3) 0.1352(2)
C29 C 0.1213(6) 0.5434(3) 0.2359(2)
H29 H 0.1356 0.5217 0.2741
C30 C 0.0319(6) 0.6041(3) 0.2290(2)
H30 H -0.0276 0.6324 0.2608
C31 C -0.1708(5) 0.1959(3) 0.1535(2)
C32 C -0.1832(6) 0.1152(3) 0.1074(2)
C33 C -0.3356(7) 0.0551(3) 0.0922(2)
H31 H -0.3472 -0.0001 0.0603
C34 C -0.4682(6) 0.0745(3) 0.1225(3)
C35 C -0.4512(6) 0.1565(4) 0.1670(3)
H32 H -0.5416 0.1710 0.1876
C36 C -0.3027(6) 0.2190(3) 0.1826(2)
C37 C -0.0605(5) 0.6619(3) 0.1282(2)
C38 C -0.2315(5) 0.6246(3) 0.0979(2)
C39 C -0.3297(6) 0.6664(3) 0.0592(2)
H33 H -0.4457 0.6420 0.0381
C40 C -0.2590(6) 0.7438(3) 0.0513(2)
C41 C -0.0905(6) 0.7788(3) 0.0830(2)
H34 H -0.0433 0.8312 0.0780
C42 C 0.0148(6) 0.7404(3) 0.1227(2)
C43 C -0.0403(7) 0.0920(3) 0.0735(3)
H35 H -0.0238 0.1266 0.0431
H36 H -0.0689 0.0315 0.0458
H37 H 0.0641 0.1029 0.1097
C44 C -0.6246(6) 0.0066(3) 0.1101(3)
H38 H -0.6558 0.0110 0.1544
H39 H -0.5999 -0.0500 0.0910
H40 H -0.7185 0.0151 0.0771
C45 C -0.2899(6) 0.3092(3) 0.2311(3)
H41 H -0.1728 0.3323 0.2583
H42 H -0.3643 0.3074 0.2627
H43 H -0.3244 0.3457 0.2033
C46 C -0.3113(5) 0.5407(3) 0.1055(2)
H44 H -0.2395 0.4988 0.0945
H45 H -0.4236 0.5192 0.0735
H46 H -0.3219 0.5502 0.1535
C47 C -0.3678(7) 0.7848(4) 0.0051(3)
H47 H -0.4411 0.7401 -0.0358
H48 H -0.2939 0.8232 -0.0100
H49 H -0.4377 0.8171 0.0318
C48 C 0.2009(6) 0.7801(3) 0.1545(2)
H50 H 0.2320 0.7779 0.2022
H51 H 0.2212 0.8396 0.1552
H52 H 0.2695 0.7485 0.1266
H54 H 0.425(4) 0.4539(19) 0.1967(15)
H55 H 0.289(4) 0.417(2) 0.1060(17)
S4A S -0.19882(14) 0.43843(8) -0.05848(6)
Li2A Li -0.0579(10) 0.5934(5) -0.0136(4)
S3A S 0.10225(15) 0.67484(8) -0.06842(6)
C25A C -0.0271(5) 0.6834(3) -0.1410(2)
N5A N -0.1836(4) 0.6360(2) -0.17784(17)
B2A B -0.2856(7) 0.5602(3) -0.1620(3)
N7A N -0.1896(4) 0.4826(2) -0.17815(16)
C28A C -0.1426(5) 0.4365(3) -0.1352(2)
N8A N -0.0445(4) 0.3829(2) -0.16545(17)
C30A C -0.0319(6) 0.3959(3) -0.2290(2)
C29A C -0.1213(6) 0.4566(3) -0.2359(2)
H29A H -0.1356 0.4783 -0.2741
H30A H 0.0276 0.3676 -0.2608
C37A C 0.0605(5) 0.3381(3) -0.1282(2)
C38A C 0.2315(5) 0.3754(3) -0.0979(2)
C39A C 0.3297(6) 0.3336(3) -0.0592(2)
H33A H 0.4457 0.3580 -0.0381
C40A C 0.2590(6) 0.2562(3) -0.0513(2)
C41A C 0.0905(6) 0.2212(3) -0.0830(2)
H34A H 0.0433 0.1688 -0.0780
C42A C -0.0148(6) 0.2596(3) -0.1227(2)
C48A C -0.2009(6) 0.2199(3) -0.1545(2)
H50A H -0.2320 0.2221 -0.2022
H51A H -0.2212 0.1604 -0.1552
H52A H -0.2695 0.2515 -0.1266
C47A C 0.3678(7) 0.2152(4) -0.0051(3)
H47A H 0.4411 0.2599 0.0358
H48A H 0.2939 0.1768 0.0100
H49A H 0.4377 0.1829 -0.0318
C46A C 0.3113(5) 0.4593(3) -0.1055(2)
H44A H 0.2395 0.5012 -0.0945
H45A H 0.4236 0.4808 -0.0735
H46A H 0.3219 0.4498 -0.1535
H54A H -0.425(4) 0.5461(19) -0.1967(15)
H55A H -0.289(4) 0.583(2) -0.1060(17)
C26A C -0.2399(6) 0.6670(3) -0.2325(2)
H27A H -0.3447 0.6450 -0.2663
C27A C -0.1214(5) 0.7334(3) -0.2299(2)
N6A N 0.0126(4) 0.7431(2) -0.17343(17)
C31A C 0.1708(5) 0.8041(3) -0.1535(2)
C32A C 0.1832(6) 0.8848(3) -0.1074(2)
C33A C 0.3356(7) 0.9449(3) -0.0922(2)
H31A H 0.3472 1.0001 -0.0603
C34A C 0.4682(6) 0.9255(3) -0.1225(3)
C35A C 0.4512(6) 0.8435(4) -0.1670(3)
H32A H 0.5416 0.8290 -0.1876
C36A C 0.3027(6) 0.7810(3) -0.1826(2)
C45A C 0.2899(6) 0.6908(3) -0.2311(3)
H41A H 0.1728 0.6677 -0.2583
H42A H 0.3643 0.6926 -0.2627
H43A H 0.3244 0.6543 -0.2033
C44A C 0.6246(6) 0.9934(3) -0.1101(3)
H38A H 0.6558 0.9890 -0.1544
H39A H 0.5999 1.0500 -0.0910
H40A H 0.7185 0.9849 -0.0771
C43A C 0.0403(7) 0.9080(3) -0.0735(3)
H35A H 0.0238 0.8734 -0.0431
H36A H 0.0689 0.9685 -0.0458
H37A H -0.0641 0.8971 -0.1097
H28A H -0.1284 0.7667 -0.2605
loop_
_geom_bond_atom_site_label_1
_geom_bond_atom_site_label_2
_geom_bond_site_symmetry_1
_geom_bond_site_symmetry_2
Li1 S1 1_555 1_555
Li2 S3 1_555 1_555
B1 N1 1_555 1_555
B2 N5 1_555 1_555
S1 C1 1_555 1_555
S2 Li1 1_555 1_555
S3 C25 1_555 1_555
S4 Li2 1_555 1_555
N1 C1 1_555 1_555
N2 C1 1_555 1_555
N3 B1 1_555 1_555
N4 C4 1_555 1_555
N5 C25 1_555 1_555
N6 C25 1_555 1_555
N7 B2 1_555 1_555
N8 C28 1_555 1_555
C2 N2 1_555 1_555
H1 C2 1_555 1_555
C3 N1 1_555 1_555
H2 C3 1_555 1_555
C4 S2 1_555 1_555
C5 N3 1_555 1_555
H3 C5 1_555 1_555
C6 N4 1_555 1_555
H4 C6 1_555 1_555
C7 N2 1_555 1_555
C8 C7 1_555 1_555
C9 C8 1_555 1_555
H5 C9 1_555 1_555
C10 C9 1_555 1_555
C11 C10 1_555 1_555
H6 C11 1_555 1_555
C12 C7 1_555 1_555
C13 N4 1_555 1_555
C14 C13 1_555 1_555
C15 C14 1_555 1_555
H7 C15 1_555 1_555
C16 C15 1_555 1_555
C17 C16 1_555 1_555
H8 C17 1_555 1_555
C18 C13 1_555 1_555
C19 C8 1_555 1_555
H9 C19 1_555 1_555
H10 C19 1_555 1_555
H11 C19 1_555 1_555
C20 C10 1_555 1_555
H12 C20 1_555 1_555
H13 C20 1_555 1_555
H14 C20 1_555 1_555
C21 C12 1_555 1_555
H15 C21 1_555 1_555
H16 C21 1_555 1_555
H17 C21 1_555 1_555
C22 C14 1_555 1_555
H18 C22 1_555 1_555
H19 C22 1_555 1_555
H20 C22 1_555 1_555
C23 C16 1_555 1_555
H21 C23 1_555 1_555
H22 C23 1_555 1_555
H23 C23 1_555 1_555
C24 C18 1_555 1_555
H24 C24 1_555 1_555
H25 C24 1_555 1_555
H26 C24 1_555 1_555
C26 N5 1_555 1_555
H27 C26 1_555 1_555
C27 N6 1_555 1_555
H28 C27 1_555 1_555
C28 S4 1_555 1_555
C29 N7 1_555 1_555
H29 C29 1_555 1_555
C30 N8 1_555 1_555
H30 C30 1_555 1_555
C31 N6 1_555 1_555
C32 C31 1_555 1_555
C33 C32 1_555 1_555
H31 C33 1_555 1_555
C34 C33 1_555 1_555
C35 C34 1_555 1_555
H32 C35 1_555 1_555
C36 C31 1_555 1_555
C37 N8 1_555 1_555
C38 C37 1_555 1_555
C39 C38 1_555 1_555
H33 C39 1_555 1_555
C40 C39 1_555 1_555
C41 C40 1_555 1_555
H34 C41 1_555 1_555
C42 C37 1_555 1_555
C43 C32 1_555 1_555
H35 C43 1_555 1_555
H36 C43 1_555 1_555
H37 C43 1_555 1_555
C44 C34 1_555 1_555
H38 C44 1_555 1_555
H39 C44 1_555 1_555
H40 C44 1_555 1_555
C45 C36 1_555 1_555
H41 C45 1_555 1_555
H42 C45 1_555 1_555
H43 C45 1_555 1_555
C46 C38 1_555 1_555
H44 C46 1_555 1_555
H45 C46 1_555 1_555
H46 C46 1_555 1_555
C47 C40 1_555 1_555
H47 C47 1_555 1_555
H48 C47 1_555 1_555
H49 C47 1_555 1_555
C48 C42 1_555 1_555
H50 C48 1_555 1_555
H51 C48 1_555 1_555
H52 C48 1_555 1_555
H53 Li1 1_555 1_555
H54 B2 1_555 1_555
H55 Li2 1_555 1_555
H56 B1 1_555 1_555
Li1A S1 1_555 1_555
S1A Li1 1_555 1_555
C1A S1A 1_555 1_555
N1A C1A 1_555 1_555
B1A N1A 1_555 1_555
N3A B1A 1_555 1_555
C4A N3A 1_555 1_555
S2A Li1A 1_555 1_555
H53A Li1A 1_555 1_555
H56A B1A 1_555 1_555
N4A C4A 1_555 1_555
C6A N4A 1_555 1_555
C5A N3A 1_555 1_555
H3A C5A 1_555 1_555
H4A C6A 1_555 1_555
C13A N4A 1_555 1_555
C14A C13A 1_555 1_555
C15A C14A 1_555 1_555
H7A C15A 1_555 1_555
C16A C15A 1_555 1_555
C17A C16A 1_555 1_555
H8A C17A 1_555 1_555
C18A C13A 1_555 1_555
C24A C18A 1_555 1_555
H24A C24A 1_555 1_555
H25A C24A 1_555 1_555
H26A C24A 1_555 1_555
C23A C16A 1_555 1_555
H21A C23A 1_555 1_555
H22A C23A 1_555 1_555
H23A C23A 1_555 1_555
C22A C14A 1_555 1_555
H18A C22A 1_555 1_555
H19A C22A 1_555 1_555
H20A C22A 1_555 1_555
C3A N1A 1_555 1_555
C2A C3A 1_555 1_555
N2A C1A 1_555 1_555
C7A N2A 1_555 1_555
C8A C7A 1_555 1_555
C9A C8A 1_555 1_555
H5A C9A 1_555 1_555
C10A C9A 1_555 1_555
C11A C10A 1_555 1_555
H6A C11A 1_555 1_555
C12A C7A 1_555 1_555
C21A C12A 1_555 1_555
H15A C21A 1_555 1_555
H16A C21A 1_555 1_555
H17A C21A 1_555 1_555
C20A C10A 1_555 1_555
H12A C20A 1_555 1_555
H13A C20A 1_555 1_555
H14A C20A 1_555 1_555
C19A C8A 1_555 1_555
H9A C19A 1_555 1_555
H10A C19A 1_555 1_555
H11A C19A 1_555 1_555
H1A C2A 1_555 1_555
H2A C3A 1_555 1_555
S4A Li2 1_555 1_555
Li2A S4 1_555 1_555
S3A Li2A 1_555 1_555
C25A S3A 1_555 1_555
N5A C25A 1_555 1_555
B2A N5A 1_555 1_555
N7A B2A 1_555 1_555
C28A S4A 1_555 1_555
N8A C28A 1_555 1_555
C30A N8A 1_555 1_555
C29A N7A 1_555 1_555
H29A C29A 1_555 1_555
H30A C30A 1_555 1_555
C37A N8A 1_555 1_555
C38A C37A 1_555 1_555
C39A C38A 1_555 1_555
H33A C39A 1_555 1_555
C40A C39A 1_555 1_555
C41A C40A 1_555 1_555
H34A C41A 1_555 1_555
C42A C37A 1_555 1_555
C48A C42A 1_555 1_555
H50A C48A 1_555 1_555
H51A C48A 1_555 1_555
H52A C48A 1_555 1_555
C47A C40A 1_555 1_555
H47A C47A 1_555 1_555
H48A C47A 1_555 1_555
H49A C47A 1_555 1_555
C46A C38A 1_555 1_555
H44A C46A 1_555 1_555
H45A C46A 1_555 1_555
H46A C46A 1_555 1_555
H54A B2A 1_555 1_555
H55A Li2A 1_555 1_555
C26A N5A 1_555 1_555
H27A C26A 1_555 1_555
C27A C26A 1_555 1_555
N6A C25A 1_555 1_555
C31A N6A 1_555 1_555
C32A C31A 1_555 1_555
C33A C32A 1_555 1_555
H31A C33A 1_555 1_555
C34A C33A 1_555 1_555
C35A C34A 1_555 1_555
H32A C35A 1_555 1_555
C36A C31A 1_555 1_555
C45A C36A 1_555 1_555
H41A C45A 1_555 1_555
H42A C45A 1_555 1_555
H43A C45A 1_555 1_555
C44A C34A 1_555 1_555
H38A C44A 1_555 1_555
H39A C44A 1_555 1_555
H40A C44A 1_555 1_555
C43A C32A 1_555 1_555
H35A C43A 1_555 1_555
H36A C43A 1_555 1_555
H37A C43A 1_555 1_555
H28A C27A 1_555 1_555
B1 H53 1_555 1_555
B2 H55 1_555 1_555
N3 C4 1_555 1_555
N7 C28 1_555 1_555
C2 C3 1_555 1_555
C5 C6 1_555 1_555
C11 C12 1_555 1_555
C17 C18 1_555 1_555
C26 C27 1_555 1_555
C29 C30 1_555 1_555
C35 C36 1_555 1_555
C41 C42 1_555 1_555
Li1A S1A 1_555 1_555
B1A H53A 1_555 1_555
C4A S2A 1_555 1_555
C6A C5A 1_555 1_555
C17A C18A 1_555 1_555
C2A N2A 1_555 1_555
C11A C12A 1_555 1_555
S4A Li2A 1_555 1_555
B2A H55A 1_555 1_555
N7A C28A 1_555 1_555
C30A C29A 1_555 1_555
C41A C42A 1_555 1_555
C27A N6A 1_555 1_555
C35A C36A 1_555 1_555

#END
