
#######################################################################
#
#                 Cambridge Crystallographic Data Centre
#                                CCDC 
#
#######################################################################
#
# If this CIF has been generated from an entry in the Cambridge 
# Structural Database, then it will include bibliographic, chemical, 
# crystal, experimental, refinement or atomic coordinate data resulting 
# from the CCDC's data processing and validation procedures.
#
#######################################################################

data_HUFBEQ
_chemical_formula_moiety         'C16 H15 N1 O6'
_chemical_name_systematic        
'Diethyl 2-oxo-3-(2-oxo-2,3-dihydro-1H-indol-3-ylidene)butanedioate'
_symmetry_cell_setting           triclinic
_symmetry_space_group_name_H-M   'P -1'
_symmetry_Int_Tables_number      2
_space_group_name_Hall           '-P 1'
loop_
_symmetry_equiv_pos_site_id
_symmetry_equiv_pos_as_xyz
1 x,y,z
2 -x,-y,-z
_cell_length_a                   8.8277(2)
_cell_length_b                   13.5365(4)
_cell_length_c                   13.6300(3)
_cell_angle_alpha                96.516(3)
_cell_angle_beta                 102.218(2)
_cell_angle_gamma                100.6680(10)
_cell_volume                     1544.44
_exptl_crystal_colour            colorless
_exptl_crystal_description       block
_cell_formula_units_Z            4
_exptl_crystal_recrystallization_method 'ethanol/petroleum ether'
loop_
_atom_site_label
_atom_site_type_symbol
_atom_site_fract_x
_atom_site_fract_y
_atom_site_fract_z
C1 C -0.0557(2) 0.14385(14) 0.77827(13)
C2 C 0.01462(19) 0.15226(13) 0.68732(12)
C3 C 0.0893(2) 0.06556(13) 0.67808(12)
C4 C 0.1693(2) 0.02801(16) 0.61002(15)
H1 H 0.1842 0.0607 0.5553
C5 C 0.2264(3) -0.05904(17) 0.62498(18)
H2 H 0.2800 -0.0851 0.5797
C6 C 0.2050(3) -0.10727(17) 0.7058(2)
H3 H 0.2464 -0.1649 0.7149
C7 C 0.1242(3) -0.07275(16) 0.77380(18)
H4 H 0.1083 -0.1066 0.8277
C8 C 0.0676(2) 0.01387(14) 0.75889(14)
C9 C -0.0045(2) 0.23086(14) 0.63759(12)
C10 C -0.0871(2) 0.31007(14) 0.67537(13)
C11 C -0.2680(2) 0.28477(15) 0.64117(15)
C12 C -0.4998(3) 0.3423(2) 0.6565(3)
H5 H -0.5422 0.3143 0.5851
H6 H -0.5456 0.2953 0.6965
C13 C -0.5392(4) 0.4401(3) 0.6780(4)
H7 H -0.4924 0.4688 0.7480
H8 H -0.6524 0.4317 0.6651
H9 H -0.4989 0.4848 0.6352
C14 C 0.0563(2) 0.25214(15) 0.54688(13)
C15 C 0.0267(3) 0.3480(2) 0.41055(17)
H10 H 0.0326 0.2891 0.3651
H11 H 0.1287 0.3955 0.4280
C16 C -0.1013(5) 0.3972(3) 0.3625(3)
H12 H -0.2008 0.3487 0.3445
H13 H -0.0779 0.4208 0.3024
H14 H -0.1077 0.4539 0.4095
N1 N -0.01684(19) 0.06241(12) 0.81703(12)
H29 H -0.0411 0.0429 0.8707
O1 O -0.13388(18) 0.20008(11) 0.80943(11)
O2 O -0.01530(17) 0.39110(10) 0.72271(11)
O3 O -0.34030(19) 0.21042(13) 0.58261(14)
O4 O -0.32745(17) 0.35627(12) 0.68209(12)
O5 O 0.15638(19) 0.21704(14) 0.51818(12)
O6 O -0.0174(2) 0.31791(12) 0.50174(11)
C17 C 0.1535(2) 0.36702(14) 0.12817(13)
C18 C 0.2254(2) 0.34775(13) 0.03846(12)
C19 C 0.2462(2) 0.44351(13) -0.00188(12)
C20 C 0.3048(3) 0.47612(15) -0.08198(15)
H15 H 0.3385 0.4314 -0.1254
C21 C 0.3125(3) 0.57598(16) -0.09617(16)
H16 H 0.3528 0.5989 -0.1492
C22 C 0.2612(3) 0.64208(15) -0.03279(17)
H17 H 0.2664 0.7089 -0.0445
C23 C 0.2026(3) 0.61209(15) 0.04728(16)
H18 H 0.1682 0.6572 0.0900
C24 C 0.1967(2) 0.51261(14) 0.06180(13)
C25 C 0.2607(2) 0.25640(13) 0.01784(12)
C26 C 0.2336(2) 0.17683(13) 0.08415(12)
C27 C 0.3438(2) 0.19955(14) 0.19117(13)
C28 C 0.3865(3) 0.15228(16) 0.35426(13)
H19 H 0.3549 0.2050 0.3947
H20 H 0.4988 0.1736 0.3574
C29 C 0.3561(3) 0.05597(18) 0.39389(15)
H21 H 0.2444 0.0343 0.3885
H22 H 0.4123 0.0656 0.4639
H23 H 0.3919 0.0050 0.3552
C30 C 0.3304(2) 0.22821(13) -0.06912(12)
C31 C 0.4944(2) 0.12998(16) -0.12933(15)
H24 H 0.5632 0.1894 -0.1420
H25 H 0.4154 0.1003 -0.1918
C32 C 0.5884(3) 0.0553(2) -0.0959(2)
H26 H 0.6597 0.0830 -0.0310
H27 H 0.6483 0.0402 -0.1447
H28 H 0.5185 -0.0061 -0.0902
N2 N 0.1433(2) 0.46565(12) 0.13772(12)
H30 H 0.1083 0.4957 0.1846
O7 O 0.1126(2) 0.30431(12) 0.18008(11)
O8 O 0.14135(17) 0.09712(10) 0.05381(10)
O9 O 0.4607(2) 0.26501(14) 0.21396(12)
O10 O 0.29497(15) 0.13619(10) 0.24918(9)
O11 O 0.41725(16) 0.15912(10) -0.04989(9)
O12 O 0.30961(18) 0.26196(11) -0.14685(9)
loop_
_geom_bond_atom_site_label_1
_geom_bond_atom_site_label_2
_geom_bond_site_symmetry_1
_geom_bond_site_symmetry_2
C1 C2 1_555 1_555
C2 C3 1_555 1_555
C3 C4 1_555 1_555
C4 H1 1_555 1_555
C5 C4 1_555 1_555
H2 C5 1_555 1_555
C6 C5 1_555 1_555
H3 C6 1_555 1_555
C7 C6 1_555 1_555
H4 C7 1_555 1_555
C8 C3 1_555 1_555
C9 C2 1_555 1_555
C10 C9 1_555 1_555
C11 C10 1_555 1_555
C12 H5 1_555 1_555
H6 C12 1_555 1_555
C13 C12 1_555 1_555
H7 C13 1_555 1_555
H8 C13 1_555 1_555
H9 C13 1_555 1_555
C14 C9 1_555 1_555
C15 H10 1_555 1_555
H11 C15 1_555 1_555
C16 C15 1_555 1_555
H12 C16 1_555 1_555
H13 C16 1_555 1_555
H14 C16 1_555 1_555
C17 C18 1_555 1_555
C18 C19 1_555 1_555
C19 C20 1_555 1_555
C20 H15 1_555 1_555
C21 C20 1_555 1_555
H16 C21 1_555 1_555
C22 C21 1_555 1_555
H17 C22 1_555 1_555
C23 C22 1_555 1_555
H18 C23 1_555 1_555
C24 C19 1_555 1_555
C25 C18 1_555 1_555
C26 C25 1_555 1_555
C27 C26 1_555 1_555
C28 H19 1_555 1_555
H20 C28 1_555 1_555
C29 C28 1_555 1_555
H21 C29 1_555 1_555
H22 C29 1_555 1_555
H23 C29 1_555 1_555
C30 C25 1_555 1_555
C31 H24 1_555 1_555
H25 C31 1_555 1_555
C32 C31 1_555 1_555
H26 C32 1_555 1_555
H27 C32 1_555 1_555
H28 C32 1_555 1_555
N1 C1 1_555 1_555
H29 N1 1_555 1_555
N2 C17 1_555 1_555
H30 N2 1_555 1_555
O1 C1 1_555 1_555
O2 C10 1_555 1_555
O3 C11 1_555 1_555
O4 C11 1_555 1_555
O5 C14 1_555 1_555
O6 C14 1_555 1_555
O7 C17 1_555 1_555
O8 C26 1_555 1_555
O9 C27 1_555 1_555
O10 C27 1_555 1_555
O11 C30 1_555 1_555
O12 C30 1_555 1_555
C7 C8 1_555 1_555
C8 N1 1_555 1_555
C12 O4 1_555 1_555
C15 O6 1_555 1_555
C23 C24 1_555 1_555
C24 N2 1_555 1_555
C28 O10 1_555 1_555
C31 O11 1_555 1_555

#END
