
#######################################################################
#
#                 Cambridge Crystallographic Data Centre
#                                CCDC 
#
#######################################################################
#
# If this CIF has been generated from an entry in the Cambridge 
# Structural Database, then it will include bibliographic, chemical, 
# crystal, experimental, refinement or atomic coordinate data resulting 
# from the CCDC's data processing and validation procedures.
#
#######################################################################

data_HUFCES
_chemical_formula_moiety         'C32 H28 Cl1 N3 O6'
_chemical_name_systematic        
"t-butyl 2'-(4-chlorophenyl)-5-methyl-5'-(1-naphthyl)-4'-nitro-2-oxospiro[indole-3,3'-[1,2]oxazolidine]-1(2H)-carboxylate"
_symmetry_cell_setting           orthorhombic
_symmetry_space_group_name_H-M   'P 21 21 21'
_symmetry_Int_Tables_number      19
_space_group_name_Hall           'P 2ac 2ab'
loop_
_symmetry_equiv_pos_site_id
_symmetry_equiv_pos_as_xyz
1 x,y,z
2 1/2-x,-y,1/2+z
3 -x,1/2+y,1/2-z
4 1/2+x,1/2-y,-z
_cell_length_a                   9.7047(7)
_cell_length_b                   10.9509(8)
_cell_length_c                   26.320(2)
_cell_angle_alpha                90
_cell_angle_beta                 90
_cell_angle_gamma                90
_cell_volume                     2797.16
_exptl_crystal_colour            colorless
_exptl_crystal_description       prismatic
_cell_formula_units_Z            4
loop_
_atom_site_label
_atom_site_type_symbol
_atom_site_fract_x
_atom_site_fract_y
_atom_site_fract_z
Cl1 Cl 0.49668(8) 0.42183(6) 0.96765(3)
N1 N 0.43916(19) 0.90697(18) 0.88947(8)
N2 N 0.77838(19) 0.88000(18) 0.90949(7)
N3 N 0.7569(2) 1.17397(18) 0.85901(8)
O1 O 0.56774(18) 0.85009(16) 0.81845(6)
O2 O 0.87245(16) 0.85950(15) 0.86741(6)
O3 O 0.65634(19) 1.22898(17) 0.84396(8)
O4 O 0.85191(19) 1.22123(16) 0.88218(7)
O5 O 0.20968(17) 0.86715(16) 0.89969(7)
O6 O 0.35558(17) 0.72742(15) 0.86493(7)
C1 C 0.5984(2) 1.0296(2) 0.92962(9)
C2 C 0.6510(2) 1.0987(2) 0.96890(9)
H1 H 0.7448 1.1235 0.9685
C3 C 0.5661(3) 1.1319(2) 1.00919(9)
C4 C 0.4301(3) 1.0943(2) 1.00833(10)
H2 H 0.3713 1.1185 1.0354
C5 C 0.3753(3) 1.0226(2) 0.96951(10)
H3 H 0.2816 0.9975 0.9699
C6 C 0.4624(2) 0.9896(2) 0.93066(9)
C7 C 0.5569(2) 0.8988(2) 0.85905(9)
C8 C 0.6726(2) 0.9677(2) 0.88712(9)
C9 C 0.7605(2) 1.0397(2) 0.84877(9)
H4 H 0.7234 1.0247 0.8139
C10 C 0.9051(2) 0.9817(2) 0.85259(9)
H5 H 0.9614 1.0232 0.8793
C11 C 0.9824(2) 0.9758(2) 0.80317(9)
C12 C 0.9295(3) 0.9042(2) 0.76503(9)
H6 H 0.8439 0.8638 0.7699
C13 C 1.0006(3) 0.8899(2) 0.71863(9)
H7 H 0.9636 0.8390 0.6928
C14 C 1.1218(3) 0.9488(2) 0.71104(9)
H8 H 1.1685 0.9392 0.6796
C15 C 1.1800(2) 1.0241(2) 0.74897(9)
C16 C 1.1107(2) 1.0379(2) 0.79624(9)
C17 C 1.1748(2) 1.1110(2) 0.83407(10)
H9 H 1.1316 1.1202 0.8662
C18 C 1.2973(3) 1.1684(2) 0.82518(10)
H10 H 1.3382 1.2166 0.8511
C19 C 1.3631(3) 1.1566(3) 0.77781(10)
H11 H 1.4475 1.1980 0.7716
C20 C 1.3062(3) 1.0861(3) 0.74096(10)
H12 H 1.3519 1.0782 0.7092
C21 C 0.7204(2) 0.7642(2) 0.92398(9)
C22 C 0.7336(2) 0.6605(2) 0.89466(9)
H13 H 0.7885 0.6619 0.8648
C23 C 0.6664(3) 0.5543(2) 0.90896(10)
H14 H 0.6759 0.4819 0.8893
C24 C 0.5856(3) 0.5548(2) 0.95194(10)
C25 C 0.5756(3) 0.6563(2) 0.98270(10)
H15 H 0.5216 0.6540 1.0128
C26 C 0.6452(3) 0.7610(2) 0.96911(9)
H16 H 0.6419 0.8309 0.9905
C27 C 0.6237(3) 1.2054(2) 1.05299(10)
H17 H 0.5818 1.1776 1.0848
H18 H 0.6028 1.2920 1.0478
H19 H 0.7237 1.1941 1.0547
C28 C 0.3201(2) 0.8338(2) 0.88507(9)
C29 C 0.2493(2) 0.6390(2) 0.84763(10)
C30 C 0.3365(3) 0.5323(3) 0.83007(12)
H20 H 0.3913 0.5016 0.8586
H21 H 0.3982 0.5592 0.8028
H22 H 0.2765 0.4671 0.8174
C31 C 0.1580(3) 0.6017(3) 0.89150(12)
H23 H 0.1015 0.6715 0.9020
H24 H 0.2154 0.5750 0.9201
H25 H 0.0979 0.5345 0.8809
C32 C 0.1713(3) 0.6958(3) 0.80452(12)
H26 H 0.2362 0.7223 0.7782
H27 H 0.1195 0.7665 0.8170
H28 H 0.1073 0.6358 0.7902
loop_
_geom_bond_atom_site_label_1
_geom_bond_atom_site_label_2
_geom_bond_site_symmetry_1
_geom_bond_site_symmetry_2
Cl1 C24 1_555 1_555
N1 C6 1_555 1_555
N2 O2 1_555 1_555
N3 O3 1_555 1_555
O1 C7 1_555 1_555
O2 C10 1_555 1_555
O4 N3 1_555 1_555
O5 C28 1_555 1_555
O6 C28 1_555 1_555
C1 C2 1_555 1_555
C2 H1 1_555 1_555
C3 C2 1_555 1_555
C4 C3 1_555 1_555
H2 C4 1_555 1_555
C5 C4 1_555 1_555
H3 C5 1_555 1_555
C6 C1 1_555 1_555
C7 N1 1_555 1_555
C8 N2 1_555 1_555
C9 N3 1_555 1_555
H4 C9 1_555 1_555
C10 C9 1_555 1_555
H5 C10 1_555 1_555
C11 C10 1_555 1_555
C12 C11 1_555 1_555
H6 C12 1_555 1_555
C13 C12 1_555 1_555
H7 C13 1_555 1_555
C14 C13 1_555 1_555
H8 C14 1_555 1_555
C15 C14 1_555 1_555
C16 C11 1_555 1_555
C17 C16 1_555 1_555
H9 C17 1_555 1_555
C18 C17 1_555 1_555
H10 C18 1_555 1_555
C19 C18 1_555 1_555
H11 C19 1_555 1_555
C20 C15 1_555 1_555
H12 C20 1_555 1_555
C21 N2 1_555 1_555
C22 C21 1_555 1_555
H13 C22 1_555 1_555
C23 C22 1_555 1_555
H14 C23 1_555 1_555
C24 C23 1_555 1_555
C25 C24 1_555 1_555
H15 C25 1_555 1_555
C26 C21 1_555 1_555
H16 C26 1_555 1_555
C27 C3 1_555 1_555
H17 C27 1_555 1_555
H18 C27 1_555 1_555
H19 C27 1_555 1_555
C28 N1 1_555 1_555
C29 O6 1_555 1_555
C30 C29 1_555 1_555
H20 C30 1_555 1_555
H21 C30 1_555 1_555
H22 C30 1_555 1_555
C31 C29 1_555 1_555
H23 C31 1_555 1_555
H24 C31 1_555 1_555
H25 C31 1_555 1_555
C32 C29 1_555 1_555
H26 C32 1_555 1_555
H27 C32 1_555 1_555
H28 C32 1_555 1_555
C1 C8 1_555 1_555
C5 C6 1_555 1_555
C7 C8 1_555 1_555
C8 C9 1_555 1_555
C15 C16 1_555 1_555
C19 C20 1_555 1_555
C25 C26 1_555 1_555

#END
