
#######################################################################
#
#                 Cambridge Crystallographic Data Centre
#                                CCDC 
#
#######################################################################
#
# If this CIF has been generated from an entry in the Cambridge 
# Structural Database, then it will include bibliographic, chemical, 
# crystal, experimental, refinement or atomic coordinate data resulting 
# from the CCDC's data processing and validation procedures.
#
#######################################################################

data_HUFYEN
_chemical_name_common            
'7-Chloro-4-(2-(4-fluorobenzylidene)hydrazino)quinoline monohydrate'
_chemical_formula_moiety         'C16 H11 Cl1 F1 N3,H2 O1'
_chemical_name_systematic        
"7-Chloro-4-[(E)-N'-(4-fluorobenzylidene)hydrazinyl]quinoline monohydrate"
_symmetry_cell_setting           monoclinic
_symmetry_space_group_name_H-M   'P 21/c'
_symmetry_Int_Tables_number      14
_space_group_name_Hall           '-P 2ybc'
loop_
_symmetry_equiv_pos_site_id
_symmetry_equiv_pos_as_xyz
1 x,y,z
2 -x,1/2+y,1/2-z
3 -x,-y,-z
4 x,1/2-y,1/2+z
_cell_length_a                   3.7795(2)
_cell_length_b                   15.4188(11)
_cell_length_c                   24.8576(16)
_cell_angle_alpha                90
_cell_angle_beta                 90.286(4)
_cell_angle_gamma                90
_cell_volume                     1448.57
_exptl_crystal_colour            colorless
_exptl_crystal_description       needle
_chemical_melting_point          '518-519 K'
_cell_formula_units_Z            4
_exptl_crystal_recrystallization_method water/ethanol
loop_
_atom_site_label
_atom_site_type_symbol
_atom_site_fract_x
_atom_site_fract_y
_atom_site_fract_z
Cl1 Cl 0.85154(18) -0.01273(5) 0.43677(3)
F1 F 0.1997(4) 0.22958(11) -0.11624(6)
N1 N 0.3942(5) -0.13713(14) 0.26095(9)
N2 N 0.6585(5) 0.08516(14) 0.17189(8)
H1 H 0.7847 0.1268 0.1867
N3 N 0.5476(5) 0.09163(15) 0.11914(8)
C1 C 0.3270(7) -0.12969(18) 0.20855(11)
H2 H 0.2176 -0.1776 0.1911
C2 C 0.4043(6) -0.05737(18) 0.17733(10)
H3 H 0.3436 -0.0566 0.1402
C3 C 0.5701(6) 0.01357(17) 0.20052(10)
C4 C 0.6457(6) 0.01003(16) 0.25750(10)
C5 C 0.8024(6) 0.07868(18) 0.28696(11)
H4 H 0.8680 0.1303 0.2687
C6 C 0.8613(6) 0.07213(18) 0.34118(10)
H5 H 0.9655 0.1189 0.3605
C7 C 0.7663(7) -0.00432(18) 0.36790(11)
C8 C 0.6151(6) -0.07217(18) 0.34132(10)
H6 H 0.5531 -0.1233 0.3604
C9 C 0.5501(6) -0.06654(16) 0.28533(10)
C10 C 0.6205(7) 0.16293(18) 0.09495(11)
H7 H 0.7507 0.2064 0.1136
C11 C 0.5085(7) 0.17884(18) 0.03962(11)
C12 C 0.3483(7) 0.11448(18) 0.00825(11)
H8 H 0.3087 0.0586 0.0232
C13 C 0.2471(7) 0.13101(18) -0.04411(11)
H9 H 0.1409 0.0871 -0.0656
C14 C 0.3041(7) 0.21294(19) -0.06453(11)
C15 C 0.4572(7) 0.27824(19) -0.03525(11)
H10 H 0.4911 0.3342 -0.0504
C16 C 0.5614(7) 0.26028(18) 0.01715(11)
H11 H 0.6708 0.3044 0.0380
O1 O 0.0566(5) 0.23633(12) 0.20098(8)
H12 H 0.262(3) 0.2503(17) 0.2111(12)
H13 H -0.086(5) 0.2775(13) 0.2069(12)
loop_
_geom_bond_atom_site_label_1
_geom_bond_atom_site_label_2
_geom_bond_site_symmetry_1
_geom_bond_site_symmetry_2
Cl1 C7 1_555 1_555
F1 C14 1_555 1_555
N1 C1 1_555 1_555
N2 H1 1_555 1_555
N3 N2 1_555 1_555
C1 H2 1_555 1_555
C2 C1 1_555 1_555
H3 C2 1_555 1_555
C3 N2 1_555 1_555
C4 C3 1_555 1_555
C5 C4 1_555 1_555
H4 C5 1_555 1_555
C6 C5 1_555 1_555
H5 C6 1_555 1_555
C7 C6 1_555 1_555
C8 C7 1_555 1_555
H6 C8 1_555 1_555
C9 N1 1_555 1_555
C10 N3 1_555 1_555
H7 C10 1_555 1_555
C11 C10 1_555 1_555
C12 C11 1_555 1_555
H8 C12 1_555 1_555
C13 C12 1_555 1_555
H9 C13 1_555 1_555
C14 C13 1_555 1_555
C15 C14 1_555 1_555
H10 C15 1_555 1_555
C16 C11 1_555 1_555
H11 C16 1_555 1_555
O1 H12 1_555 1_555
H13 O1 1_555 1_555
C2 C3 1_555 1_555
C4 C9 1_555 1_555
C8 C9 1_555 1_555
C15 C16 1_555 1_555

#END
