
#######################################################################
#
#                 Cambridge Crystallographic Data Centre
#                                CCDC 
#
#######################################################################
#
# If this CIF has been generated from an entry in the Cambridge 
# Structural Database, then it will include bibliographic, chemical, 
# crystal, experimental, refinement or atomic coordinate data resulting 
# from the CCDC's data processing and validation procedures.
#
#######################################################################

data_HUGGEW
_chemical_name_common            
'1-(4-(4-Nitrobenzenecarbohydrazonoyl)benzylidene)-2-(4-nitrophenyl)hydrazine methanol solvate dihydrate'
_chemical_formula_moiety         'C20 H16 N6 O4,x(C1 H4 O1),2(H2 O1)'
_chemical_name_systematic        
'(E)-1-(4-Nitrophenyl)-2-(4-([(E)-2-(4-nitrophenyl)hydrazinylidene]methyl)benzylidene)hydrazine methanol solvate dihydrate'
_symmetry_cell_setting           triclinic
_symmetry_space_group_name_H-M   'P -1'
_symmetry_Int_Tables_number      2
_space_group_name_Hall           '-P 1'
loop_
_symmetry_equiv_pos_site_id
_symmetry_equiv_pos_as_xyz
1 x,y,z
2 -x,-y,-z
_cell_length_a                   7.7549(4)
_cell_length_b                   9.3245(7)
_cell_length_c                   15.3374(11)
_cell_angle_alpha                100.749(3)
_cell_angle_beta                 90.533(4)
_cell_angle_gamma                103.131(5)
_cell_volume                     1059.56
_exptl_crystal_colour            'dark red'
_exptl_crystal_description       block
_chemical_melting_point          '566-568 K'
_cell_formula_units_Z            2
_exptl_crystal_recrystallization_method methanol
loop_
_atom_site_label
_atom_site_type_symbol
_atom_site_fract_x
_atom_site_fract_y
_atom_site_fract_z
O5 O 0.3412(2) 0.1327(2) 0.56735(12)
H17 H 0.2326(16) 0.095(3) 0.565(2)
H18 H 0.386(4) 0.141(4) 0.5191(12)
O6 O 0.4975(2) 0.9015(2) 0.59601(13)
H19 H 0.434(3) 0.961(3) 0.590(2)
H20 H 0.429(3) 0.826(2) 0.609(2)
O1 O -0.2175(2) -0.6067(2) 1.41897(13)
O2 O -0.3174(3) -0.6708(2) 1.28198(14)
O3 O 1.1204(2) 0.9370(2) 0.69699(13)
O4 O 0.9881(2) 0.8999(2) 0.56744(12)
N1 N -0.2205(3) -0.5823(2) 1.34244(16)
N2 N 0.2344(3) -0.0749(2) 1.26201(14)
H1 H 0.3112 -0.0149 1.3030
N3 N 0.2300(3) -0.0459(2) 1.17772(14)
N4 N 0.5188(3) 0.3449(2) 0.80714(13)
N5 N 0.5234(3) 0.3707(2) 0.72248(13)
H2 H 0.4508 0.3089 0.6803
N6 N 1.0012(3) 0.8658(2) 0.64104(14)
C1 C -0.1068(3) -0.4476(3) 1.32299(17)
C2 C 0.0140(3) -0.3527(3) 1.38838(18)
H3 H 0.0190 -0.3740 1.4464
C3 C 0.1262(3) -0.2277(3) 1.36776(17)
H4 H 0.2084 -0.1618 1.4119
C4 C 0.1193(3) -0.1974(3) 1.28162(16)
C5 C -0.0061(3) -0.2935(3) 1.21764(18)
H5 H -0.0141 -0.2721 1.1597
C6 C -0.1168(4) -0.4174(3) 1.23830(19)
H6 H -0.2005 -0.4829 1.1946
C7 C 0.3492(3) 0.0666(3) 1.16298(17)
H7 H 0.4329 0.1230 1.2094
C8 C 0.3571(3) 0.1086(3) 1.07560(17)
C9 C 0.4848(4) 0.2336(3) 1.06298(18)
H8 H 0.5628 0.2913 1.1114
C10 C 0.4993(4) 0.2748(3) 0.98095(18)
H9 H 0.5857 0.3617 0.9740
C11 C 0.3902(3) 0.1917(3) 0.90894(17)
C12 C 0.2590(4) 0.0692(3) 0.92239(19)
H10 H 0.1792 0.0129 0.8743
C13 C 0.2436(4) 0.0288(3) 1.00415(19)
H11 H 0.1535 -0.0554 1.0117
C14 C 0.4076(3) 0.2275(3) 0.82018(17)
H12 H 0.3356 0.1628 0.7716
C15 C 0.6399(3) 0.4935(3) 0.70347(16)
C16 C 0.7616(3) 0.5904(3) 0.76914(16)
H13 H 0.7625 0.5721 0.8280
C17 C 0.8788(3) 0.7112(3) 0.74798(17)
H14 H 0.9626 0.7757 0.7920
C18 C 0.8752(3) 0.7394(3) 0.66236(17)
C19 C 0.7543(3) 0.6461(3) 0.59689(17)
H15 H 0.7515 0.6670 0.5387
C20 C 0.6385(3) 0.5231(3) 0.61741(17)
H16 H 0.5569 0.4577 0.5727
loop_
_geom_bond_atom_site_label_1
_geom_bond_atom_site_label_2
_geom_bond_site_symmetry_1
_geom_bond_site_symmetry_2
O1 N1 1_555 1_555
O2 N1 1_555 1_555
O3 N6 1_555 1_555
O4 N6 1_555 1_555
N1 C1 1_555 1_555
N2 H1 1_555 1_555
N3 N2 1_555 1_555
N4 N5 1_555 1_555
N5 H2 1_555 1_555
N6 C18 1_555 1_555
C1 C2 1_555 1_555
C2 H3 1_555 1_555
C3 C2 1_555 1_555
H4 C3 1_555 1_555
C4 N2 1_555 1_555
C5 C4 1_555 1_555
H5 C5 1_555 1_555
C6 C1 1_555 1_555
H6 C6 1_555 1_555
C7 N3 1_555 1_555
H7 C7 1_555 1_555
C8 C7 1_555 1_555
C9 C8 1_555 1_555
H8 C9 1_555 1_555
C10 C9 1_555 1_555
H9 C10 1_555 1_555
C11 C10 1_555 1_555
C12 C11 1_555 1_555
H10 C12 1_555 1_555
C13 C8 1_555 1_555
H11 C13 1_555 1_555
C14 N4 1_555 1_555
H12 C14 1_555 1_555
C15 N5 1_555 1_555
C16 C15 1_555 1_555
H13 C16 1_555 1_555
C17 C16 1_555 1_555
H14 C17 1_555 1_555
C18 C17 1_555 1_555
C19 C18 1_555 1_555
H15 C19 1_555 1_555
C20 C15 1_555 1_555
H16 C20 1_555 1_555
O5 H17 1_555 1_555
H18 O5 1_555 1_555
O6 H19 1_555 1_555
H20 O6 1_555 1_555
C3 C4 1_555 1_555
C5 C6 1_555 1_555
C11 C14 1_555 1_555
C12 C13 1_555 1_555
C19 C20 1_555 1_555

#END
