
#######################################################################
#
#                 Cambridge Crystallographic Data Centre
#                                CCDC 
#
#######################################################################
#
# If this CIF has been generated from an entry in the Cambridge 
# Structural Database, then it will include bibliographic, chemical, 
# crystal, experimental, refinement or atomic coordinate data resulting 
# from the CCDC's data processing and validation procedures.
#
#######################################################################

data_HUGSOT
_chemical_formula_moiety         'C21 H20 N2 O3'
_chemical_name_systematic        
't-butyl 3-cyano-2-(4-methoxyphenyl)-1H-indole-1-carboxylate'
_symmetry_cell_setting           triclinic
_symmetry_space_group_name_H-M   'P -1'
_symmetry_Int_Tables_number      2
_space_group_name_Hall           '-P 1'
loop_
_symmetry_equiv_pos_site_id
_symmetry_equiv_pos_as_xyz
1 x,y,z
2 -x,-y,-z
_cell_length_a                   9.982(2)
_cell_length_b                   10.135(2)
_cell_length_c                   11.350(2)
_cell_angle_alpha                64.99(3)
_cell_angle_beta                 67.67(3)
_cell_angle_gamma                88.86(3)
_cell_volume                     948.89
_exptl_crystal_colour            colorless
_exptl_crystal_description       block
_cell_formula_units_Z            2
loop_
_atom_site_label
_atom_site_type_symbol
_atom_site_fract_x
_atom_site_fract_y
_atom_site_fract_z
C1 C 0.4510(3) 0.2760(3) 0.5705(3)
C2 C 0.3052(3) 0.2753(3) 0.5896(3)
H1 H 0.2703 0.2478 0.5367
C3 C 0.2136(4) 0.3168(4) 0.6900(4)
H2 H 0.1153 0.3172 0.7049
C4 C 0.2664(4) 0.3585(4) 0.7702(4)
H3 H 0.2027 0.3855 0.8376
C5 C 0.4101(4) 0.3595(4) 0.7500(4)
H4 H 0.4449 0.3876 0.8026
C6 C 0.5042(3) 0.3177(3) 0.6490(3)
C7 C 0.6581(3) 0.3078(3) 0.6006(3)
C8 C 0.6959(3) 0.2622(2) 0.4956(2)
C9 C 0.8386(3) 0.2289(3) 0.4217(2)
C10 C 0.9675(3) 0.3272(3) 0.3670(3)
H5 H 0.9631 0.4107 0.3822
C11 C 1.1009(3) 0.3010(3) 0.2909(3)
H6 H 1.1857 0.3678 0.2539
C12 C 1.1100(3) 0.1767(3) 0.2688(3)
C13 C 0.9854(3) 0.0734(3) 0.3298(3)
H7 H 0.9919 -0.0132 0.3197
C14 C 0.8507(3) 0.0994(3) 0.4059(3)
H8 H 0.7671 0.0295 0.4472
C15 C 0.5587(3) 0.2241(3) 0.3626(3)
C16 C 0.7034(3) 0.2653(3) 0.1176(3)
C17 C 0.8645(3) 0.3301(5) 0.0252(3)
H9 H 0.8831 0.4272 0.0163
H10 H 0.8892 0.3361 -0.0676
H11 H 0.9233 0.2681 0.0682
C18 C 0.6692(5) 0.1064(4) 0.1504(4)
H12 H 0.7270 0.0488 0.1980
H13 H 0.6921 0.0995 0.0633
H14 H 0.5668 0.0695 0.2109
C19 C 0.6070(4) 0.3603(4) 0.0543(3)
H15 H 0.5057 0.3177 0.1155
H16 H 0.6287 0.3661 -0.0379
H17 H 0.6252 0.4577 0.0449
C20 C 1.2616(5) 0.0519(5) 0.1463(5)
H18 H 1.2295 -0.0410 0.2306
H19 H 1.3629 0.0591 0.0875
H20 H 1.2030 0.0584 0.0944
N1 N 0.5692(2) 0.2421(2) 0.4761(2)
O1 O 0.68429(18) 0.27705(19) 0.24950(17)
O2 O 0.4456(3) 0.1705(3) 0.3752(2)
O3 O 1.2464(2) 0.1661(3) 0.1846(3)
C21 C 0.7545(3) 0.3329(3) 0.6578(3)
N2 N 0.8272(4) 0.3529(4) 0.7076(3)
loop_
_geom_bond_atom_site_label_1
_geom_bond_atom_site_label_2
_geom_bond_site_symmetry_1
_geom_bond_site_symmetry_2
C1 C2 1_555 1_555
C2 H1 1_555 1_555
C3 C2 1_555 1_555
H2 C3 1_555 1_555
C4 C3 1_555 1_555
H3 C4 1_555 1_555
C5 C4 1_555 1_555
H4 C5 1_555 1_555
C6 C1 1_555 1_555
C7 C6 1_555 1_555
C8 C7 1_555 1_555
C9 C8 1_555 1_555
C10 C9 1_555 1_555
H5 C10 1_555 1_555
C11 C10 1_555 1_555
H6 C11 1_555 1_555
C12 C11 1_555 1_555
C13 C12 1_555 1_555
H7 C13 1_555 1_555
C14 C9 1_555 1_555
H8 C14 1_555 1_555
C15 N1 1_555 1_555
C16 C17 1_555 1_555
C17 H9 1_555 1_555
H10 C17 1_555 1_555
H11 C17 1_555 1_555
C18 C16 1_555 1_555
H12 C18 1_555 1_555
H13 C18 1_555 1_555
H14 C18 1_555 1_555
C19 C16 1_555 1_555
H15 C19 1_555 1_555
H16 C19 1_555 1_555
H17 C19 1_555 1_555
C20 H18 1_555 1_555
H19 C20 1_555 1_555
H20 C20 1_555 1_555
N1 C1 1_555 1_555
O1 C15 1_555 1_555
O2 C15 1_555 1_555
O3 C12 1_555 1_555
C21 C7 1_555 1_555
N2 C21 1_555 1_555
C5 C6 1_555 1_555
C8 N1 1_555 1_555
C13 C14 1_555 1_555
C16 O1 1_555 1_555
C20 O3 1_555 1_555

#END
