
#######################################################################
#
#                 Cambridge Crystallographic Data Centre
#                                CCDC 
#
#######################################################################
#
# If this CIF has been generated from an entry in the Cambridge 
# Structural Database, then it will include bibliographic, chemical, 
# crystal, experimental, refinement or atomic coordinate data resulting 
# from the CCDC's data processing and validation procedures.
#
#######################################################################

data_HUHDAR
_chemical_formula_moiety         'C24 H34 Cl1 N1 O4 Si1'
_chemical_name_systematic        
't-butyl 3-((t-butyl(dimethyl)silyl)oxy)-2-((4-chlorophenyl)ethynyl)-6-oxopiperidine-1-carboxylate'
_symmetry_cell_setting           monoclinic
_symmetry_space_group_name_H-M   'P 21'
_symmetry_Int_Tables_number      4
_space_group_name_Hall           'P 2yb'
loop_
_symmetry_equiv_pos_site_id
_symmetry_equiv_pos_as_xyz
1 x,y,z
2 -x,1/2+y,-z
_cell_length_a                   10.902(9)
_cell_length_b                   11.579(9)
_cell_length_c                   11.064(9)
_cell_angle_alpha                90
_cell_angle_beta                 112.415(15)
_cell_angle_gamma                90
_cell_volume                     1291.13
_exptl_crystal_colour            colorless
_exptl_crystal_description       prismatic
_cell_formula_units_Z            2
loop_
_atom_site_label
_atom_site_type_symbol
_atom_site_fract_x
_atom_site_fract_y
_atom_site_fract_z
Cl1 Cl 1.17780(12) 1.48805(11) 1.53968(13)
Si1 Si 0.49496(9) 0.94283(9) 0.69997(8)
N1 N 0.6870(3) 0.8609(3) 1.1089(3)
O1 O 0.5942(4) 0.7578(4) 1.2268(4)
O2 O 0.4914(2) 0.9260(2) 0.8466(2)
O3 O 0.8085(3) 0.6975(3) 1.1922(4)
O4 O 0.8938(3) 0.8446(3) 1.1220(3)
C1 C 0.5837(4) 0.8327(4) 1.1489(4)
C2 C 0.4566(4) 0.8960(6) 1.0877(5)
H1 H 0.4192 0.9066 1.1536
H2 H 0.3960 0.8470 1.0201
C3 C 0.4598(4) 1.0109(5) 1.0283(4)
H3 H 0.4948 1.0684 1.0967
H4 H 0.3705 1.0336 0.9724
C4 C 0.5456(3) 1.0056(3) 0.9491(3)
H5 H 0.5489 1.0821 0.9126
C5 C 0.6862(3) 0.9678(3) 1.0358(3)
H6 H 0.7324 0.9503 0.9773
C6 C 0.7600(3) 1.0608(3) 1.1219(3)
C7 C 0.8257(4) 1.1370(3) 1.1894(4)
C8 C 0.9099(3) 1.2225(3) 1.2725(3)
C9 C 1.0238(4) 1.1906(4) 1.3775(4)
H7 H 1.0452 1.1128 1.3928
C10 C 1.1056(4) 1.2724(4) 1.4596(4)
H8 H 1.1815 1.2503 1.5300
C11 C 1.0740(3) 1.3852(4) 1.4362(4)
C12 C 0.9612(4) 1.4207(4) 1.3339(4)
H9 H 0.9404 1.4987 1.3203
C13 C 0.8793(4) 1.3383(4) 1.2519(4)
H10 H 0.8031 1.3611 1.1823
C14 C 0.8004(3) 0.7907(3) 1.1473(4)
C15 C 1.0263(4) 0.7925(5) 1.1507(6)
C16 C 1.0066(8) 0.6809(10) 1.0725(8)
H11 H 0.9640 0.6978 0.9809
H12 H 0.9522 0.6290 1.0980
H13 H 1.0913 0.6457 1.0893
C17 C 1.0933(5) 0.7688(7) 1.2947(6)
H14 H 1.1849 0.7504 1.3154
H15 H 1.0504 0.7049 1.3178
H16 H 1.0873 0.8360 1.3430
C18 C 1.0923(7) 0.8834(11) 1.1044(14)
H17 H 1.0442 0.8958 1.0126
H18 H 1.1814 0.8598 1.1194
H19 H 1.0944 0.9537 1.1510
C19 C 0.6305(5) 1.0439(5) 0.7079(5)
H20 H 0.6191 1.1158 0.7455
H21 H 0.6278 1.0573 0.6213
H22 H 0.7146 1.0108 0.7609
C20 C 0.3327(4) 1.0012(5) 0.5880(4)
H23 H 0.2640 0.9462 0.5795
H24 H 0.3358 1.0155 0.5038
H25 H 0.3145 1.0721 0.6230
C21 C 0.5270(4) 0.7959(4) 0.6494(4)
C22 C 0.6596(6) 0.7497(6) 0.7461(6)
H26 H 0.6752 0.6742 0.7190
H27 H 0.6571 0.7451 0.8317
H28 H 0.7298 0.8007 0.7481
C23 C 0.5295(6) 0.8041(5) 0.5120(5)
H29 H 0.5544 0.7307 0.4880
H30 H 0.5927 0.8616 0.5114
H31 H 0.4430 0.8251 0.4506
C24 C 0.4146(5) 0.7138(4) 0.6458(5)
H32 H 0.3315 0.7423 0.5844
H33 H 0.4112 0.7098 0.7312
H34 H 0.4309 0.6382 0.6197
loop_
_geom_bond_atom_site_label_1
_geom_bond_atom_site_label_2
_geom_bond_site_symmetry_1
_geom_bond_site_symmetry_2
Cl1 C11 1_555 1_555
Si1 O2 1_555 1_555
N1 C1 1_555 1_555
O1 C1 1_555 1_555
O2 C4 1_555 1_555
O3 C14 1_555 1_555
O4 C14 1_555 1_555
C1 C2 1_555 1_555
C2 H1 1_555 1_555
H2 C2 1_555 1_555
C3 C2 1_555 1_555
H3 C3 1_555 1_555
H4 C3 1_555 1_555
C4 C3 1_555 1_555
H5 C4 1_555 1_555
C5 N1 1_555 1_555
H6 C5 1_555 1_555
C6 C5 1_555 1_555
C7 C6 1_555 1_555
C8 C7 1_555 1_555
C9 C8 1_555 1_555
H7 C9 1_555 1_555
C10 C9 1_555 1_555
H8 C10 1_555 1_555
C11 C10 1_555 1_555
C12 C11 1_555 1_555
H9 C12 1_555 1_555
C13 C8 1_555 1_555
H10 C13 1_555 1_555
C14 N1 1_555 1_555
C15 O4 1_555 1_555
C16 C15 1_555 1_555
H11 C16 1_555 1_555
H12 C16 1_555 1_555
H13 C16 1_555 1_555
C17 C15 1_555 1_555
H14 C17 1_555 1_555
H15 C17 1_555 1_555
H16 C17 1_555 1_555
C18 C15 1_555 1_555
H17 C18 1_555 1_555
H18 C18 1_555 1_555
H19 C18 1_555 1_555
C19 Si1 1_555 1_555
H20 C19 1_555 1_555
H21 C19 1_555 1_555
H22 C19 1_555 1_555
C20 Si1 1_555 1_555
H23 C20 1_555 1_555
H24 C20 1_555 1_555
H25 C20 1_555 1_555
C21 Si1 1_555 1_555
C22 C21 1_555 1_555
H26 C22 1_555 1_555
H27 C22 1_555 1_555
H28 C22 1_555 1_555
C23 C21 1_555 1_555
H29 C23 1_555 1_555
H30 C23 1_555 1_555
H31 C23 1_555 1_555
C24 C21 1_555 1_555
H32 C24 1_555 1_555
H33 C24 1_555 1_555
H34 C24 1_555 1_555
C4 C5 1_555 1_555
C12 C13 1_555 1_555

#END
