
#######################################################################
#
#                 Cambridge Crystallographic Data Centre
#                                CCDC 
#
#######################################################################
#
# If this CIF has been generated from an entry in the Cambridge 
# Structural Database, then it will include bibliographic, chemical, 
# crystal, experimental, refinement or atomic coordinate data resulting 
# from the CCDC's data processing and validation procedures.
#
#######################################################################

data_HUHKUS
_chemical_formula_moiety         'C26 H25 Cl2 N1 O5'
_chemical_name_systematic        
't-butyl 4-(3,4-dichlorophenyl)-2-(2-ethoxy-2-oxoethylidene)-3,4-dihydropyrano[2,3-b]indole-9(2H)-carboxylate'
_symmetry_cell_setting           monoclinic
_symmetry_space_group_name_H-M   'P 21'
_symmetry_Int_Tables_number      4
_space_group_name_Hall           'P 2yb'
loop_
_symmetry_equiv_pos_site_id
_symmetry_equiv_pos_as_xyz
1 x,y,z
2 -x,1/2+y,-z
_cell_length_a                   10.830(2)
_cell_length_b                   10.354(2)
_cell_length_c                   11.114(2)
_cell_angle_alpha                90
_cell_angle_beta                 94.62(3)
_cell_angle_gamma                90
_cell_volume                     1242.21
_cell_formula_units_Z            2
loop_
_atom_site_label
_atom_site_type_symbol
_atom_site_fract_x
_atom_site_fract_y
_atom_site_fract_z
Cl1 Cl 0.94180(4) 0.23443(4) 0.26947(4)
Cl2 Cl 0.65518(4) 0.26760(4) 0.20196(4)
O1 O 0.86111(11) 0.94726(11) 0.93518(9)
O2 O 0.83081(9) 0.73578(11) 0.97542(9)
O3 O 0.71751(10) 0.59042(11) 0.81215(9)
O4 O 0.52177(10) 0.23698(12) 0.70123(10)
O5 O 0.60565(10) 0.17851(11) 0.88482(10)
N1 N 0.77412(11) 0.81244(12) 0.79060(11)
C1 C 0.77307(13) 0.90073(15) 0.69221(13)
C2 C 0.80616(14) 1.03014(16) 0.69046(14)
H1 H 0.8359 1.0739 0.7621
C3 C 0.79411(14) 1.09330(16) 0.57948(14)
H2 H 0.8161 1.1819 0.5752
C4 C 0.75045(14) 1.02871(17) 0.47475(14)
H3 H 0.7440 1.0738 0.4001
C5 C 0.71632(14) 0.90005(16) 0.47731(13)
H4 H 0.6859 0.8570 0.4055
C6 C 0.72742(13) 0.83453(15) 0.58784(13)
C7 C 0.69933(13) 0.70440(14) 0.62103(13)
C8 C 0.63466(13) 0.59561(15) 0.55200(13)
H5 H 0.5694 0.6338 0.4939
C9 C 0.56897(13) 0.51645(16) 0.64686(14)
H6 H 0.4960 0.5654 0.6699
H7 H 0.5388 0.4342 0.6097
C10 C 0.65089(13) 0.48725(15) 0.75770(14)
C11 C 0.72933(13) 0.69497(14) 0.74041(14)
C12 C 0.82660(14) 0.84082(15) 0.90698(13)
C13 C 0.88779(14) 0.74162(18) 1.10260(12)
C14 C 0.87192(17) 0.60329(18) 1.14395(16)
H8 H 0.7837 0.5809 1.1373
H9 H 0.9054 0.5946 1.2281
H10 H 0.9165 0.5450 1.0931
C15 C 0.8168(2) 0.8342(2) 1.17638(16)
H11 H 0.8289 0.9227 1.1483
H12 H 0.8470 0.8272 1.2617
H13 H 0.7284 0.8127 1.1670
C16 C 1.02282(14) 0.7772(2) 1.10155(16)
H14 H 1.0638 0.7166 1.0499
H15 H 1.0624 0.7730 1.1839
H16 H 1.0299 0.8651 1.0701
C17 C 0.66259(13) 0.37712(15) 0.81896(14)
H17 H 0.7228 0.3739 0.8860
C18 C 0.58960(13) 0.26018(16) 0.79087(13)
C19 C 0.53825(15) 0.05712(16) 0.87381(15)
H18 H 0.5754 -0.0006 0.8155
H19 H 0.4505 0.0726 0.8455
C20 C 0.5474(2) -0.0021(2) 0.99624(18)
H20 H 0.6348 -0.0098 1.0260
H21 H 0.5093 -0.0879 0.9920
H22 H 0.5042 0.0526 1.0513
C21 C 0.71625(14) 0.50976(15) 0.48143(13)
C22 C 0.84373(14) 0.49658(15) 0.50800(14)
H23 H 0.8841 0.5466 0.5712
C23 C 0.91234(14) 0.41187(16) 0.44391(13)
H24 H 0.9989 0.4034 0.4640
C24 C 0.85534(14) 0.33936(15) 0.35058(14)
C25 C 0.72835(14) 0.35256(15) 0.32160(13)
C26 C 0.65994(15) 0.43582(16) 0.38727(14)
H25 H 0.5731 0.4429 0.3680
loop_
_geom_bond_atom_site_label_1
_geom_bond_atom_site_label_2
_geom_bond_site_symmetry_1
_geom_bond_site_symmetry_2
Cl1 C24 1_555 1_555
Cl2 C25 1_555 1_555
O1 C12 1_555 1_555
O2 C12 1_555 1_555
O3 C10 1_555 1_555
O4 C18 1_555 1_555
O5 C18 1_555 1_555
N1 C1 1_555 1_555
C1 C2 1_555 1_555
C2 H1 1_555 1_555
C3 C2 1_555 1_555
H2 C3 1_555 1_555
C4 C3 1_555 1_555
H3 C4 1_555 1_555
C5 C4 1_555 1_555
H4 C5 1_555 1_555
C6 C1 1_555 1_555
C7 C6 1_555 1_555
C8 C7 1_555 1_555
H5 C8 1_555 1_555
C9 C8 1_555 1_555
H6 C9 1_555 1_555
H7 C9 1_555 1_555
C10 C9 1_555 1_555
C11 O3 1_555 1_555
C12 N1 1_555 1_555
C13 O2 1_555 1_555
C14 C13 1_555 1_555
H8 C14 1_555 1_555
H9 C14 1_555 1_555
H10 C14 1_555 1_555
C15 C13 1_555 1_555
H11 C15 1_555 1_555
H12 C15 1_555 1_555
H13 C15 1_555 1_555
C16 C13 1_555 1_555
H14 C16 1_555 1_555
H15 C16 1_555 1_555
H16 C16 1_555 1_555
C17 C10 1_555 1_555
H17 C17 1_555 1_555
C18 C17 1_555 1_555
C19 O5 1_555 1_555
H18 C19 1_555 1_555
H19 C19 1_555 1_555
C20 C19 1_555 1_555
H20 C20 1_555 1_555
H21 C20 1_555 1_555
H22 C20 1_555 1_555
C21 C8 1_555 1_555
C22 C21 1_555 1_555
H23 C22 1_555 1_555
C23 C22 1_555 1_555
H24 C23 1_555 1_555
C24 C23 1_555 1_555
C25 C24 1_555 1_555
C26 C21 1_555 1_555
H25 C26 1_555 1_555
N1 C11 1_555 1_555
C5 C6 1_555 1_555
C7 C11 1_555 1_555
C25 C26 1_555 1_555

#END
