
#######################################################################
#
#                 Cambridge Crystallographic Data Centre
#                                CCDC 
#
#######################################################################
#
# If this CIF has been generated from an entry in the Cambridge 
# Structural Database, then it will include bibliographic, chemical, 
# crystal, experimental, refinement or atomic coordinate data resulting 
# from the CCDC's data processing and validation procedures.
#
#######################################################################

data_HUHKEC
_chemical_formula_moiety         'C17 H28 O5'
_chemical_name_systematic        
5-(hydroxymethyl)-5,9,13-trimethyl-12,14,16-trioxatetracyclo[11.2.1.0^1,10^.0^4,9^]hexadecan-6-ol
_symmetry_cell_setting           triclinic
_symmetry_space_group_name_H-M   'P 1'
_symmetry_Int_Tables_number      1
_space_group_name_Hall           'P 1'
loop_
_symmetry_equiv_pos_site_id
_symmetry_equiv_pos_as_xyz
1 x,y,z
_cell_length_a                   6.108(2)
_cell_length_b                   7.159(3)
_cell_length_c                   20.206(7)
_cell_angle_alpha                97.983(18)
_cell_angle_beta                 91.80(2)
_cell_angle_gamma                111.632(18)
_cell_volume                     810.083
_exptl_crystal_colour            colorless
_exptl_crystal_description       block
_cell_formula_units_Z            2
loop_
_atom_site_label
_atom_site_type_symbol
_atom_site_fract_x
_atom_site_fract_y
_atom_site_fract_z
C1 C 0.7446(7) 0.5396(5) 0.39755(17)
C2 C 0.6965(8) 0.3100(6) 0.38114(18)
H1 H 0.8435 0.2951 0.3685
C3 C 0.6148(8) 0.1972(5) 0.4388(2)
H2 H 0.6006 0.0572 0.4260
H3 H 0.4592 0.1955 0.4479
C4 C 0.7799(8) 0.2898(5) 0.50218(18)
H4 H 0.9329 0.2836 0.4940
H5 H 0.7177 0.2100 0.5372
C5 C 0.8123(6) 0.5117(5) 0.52660(17)
C6 C 0.8935(6) 0.6278(5) 0.46655(17)
H6 H 1.0468 0.6187 0.4585
C7 C 0.9515(8) 0.8565(5) 0.48801(19)
H7 H 0.9959 0.9262 0.4497
H8 H 0.8125 0.8771 0.5038
C8 C 1.1534(9) 0.9455(6) 0.5436(2)
H9 H 1.2964 0.9397 0.5255
H10 H 1.1801 1.0877 0.5581
C9 C 1.1089(7) 0.8374(6) 0.60359(18)
C10 C 1.0163(7) 0.6028(5) 0.58408(18)
H11 H 1.1493 0.5721 0.5667
C11 C 0.9694(9) 0.5124(6) 0.64917(19)
H12 H 0.8668 0.3697 0.6383
H13 H 1.1179 0.5200 0.6703
C12 C 0.9679(8) 0.8265(7) 0.70379(19)
C13 C 1.3208(8) 0.9160(7) 0.6565(2)
H14 H 1.4212 0.8385 0.6489
H15 H 1.4142 1.0588 0.6563
C14 C 0.8871(8) 0.6436(7) 0.34258(19)
H16 H 0.8139 0.5683 0.2993
H17 H 1.0456 0.6477 0.3480
H18 H 0.8909 0.7799 0.3461
C15 C 0.5087(7) 0.5699(6) 0.39598(18)
H19 H 0.3992 0.4721 0.4199
H20 H 0.5344 0.7051 0.4193
C16 C 0.5828(7) 0.5221(6) 0.55225(18)
H21 H 0.4536 0.4475 0.5188
H22 H 0.5976 0.6616 0.5614
H23 H 0.5537 0.4636 0.5926
C17 C 0.8621(10) 0.9198(9) 0.7584(2)
H24 H 0.6928 0.8613 0.7505
H25 H 0.9164 1.0641 0.7588
H26 H 0.9091 0.8939 0.8009
O1 O 0.4037(5) 0.5467(4) 0.32955(13)
H27 H 0.4115 0.4458 0.3066
O2 O 0.5251(6) 0.2256(4) 0.32443(14)
H28 H 0.5259 0.1147 0.3077
O3 O 0.8621(5) 0.6149(4) 0.69571(13)
O4 O 0.9420(5) 0.8916(4) 0.64221(13)
O5 O 1.2144(5) 0.8872(5) 0.71847(13)
C18 C 0.6414(7) 0.9359(5) 0.14388(18)
C19 C 0.4632(7) 0.8140(5) 0.18889(16)
H29 H 0.3241 0.8508 0.1864
C20 C 0.3814(8) 0.5858(5) 0.16858(18)
H30 H 0.2669 0.5184 0.1983
H31 H 0.5152 0.5447 0.1728
C21 C 0.2700(8) 0.5208(6) 0.09651(17)
H32 H 0.1296 0.5532 0.0936
H33 H 0.2207 0.3742 0.0848
C22 C 0.4353(6) 0.6221(5) 0.04519(17)
C23 C 0.5323(7) 0.8552(5) 0.06941(17)
H34 H 0.3924 0.8911 0.0671
C24 C 0.6859(8) 0.9660(5) 0.01761(19)
H35 H 0.7530 1.1111 0.0343
H36 H 0.8153 0.9195 0.0112
C25 C 0.5432(9) 0.9279(6) -0.0491(2)
H37 H 0.4284 0.9918 -0.0437
H38 H 0.6485 0.9917 -0.0814
C26 C 0.4146(8) 0.7038(6) -0.07670(19)
C27 C 0.2525(10) 0.6635(7) -0.1404(2)
H39 H 0.0931 0.6463 -0.1298
H40 H 0.3110 0.7744 -0.1659
C28 C 0.4292(8) 0.4300(6) -0.14167(19)
C29 C 0.1738(8) 0.3569(6) -0.0563(2)
H41 H 0.1338 0.2726 -0.0214
H42 H 0.0276 0.3357 -0.0821
C30 C 0.2844(7) 0.5807(5) -0.02295(18)
H43 H 0.1524 0.6237 -0.0130
C31 C 0.6684(9) 1.1615(6) 0.1611(2)
H44 H 0.7146 1.2086 0.2082
H45 H 0.5203 1.1729 0.1500
H46 H 0.7871 1.2427 0.1357
C32 C 0.8839(8) 0.9231(7) 0.1562(2)
H47 H 0.8606 0.7831 0.1592
H48 H 0.9722 0.9589 0.1178
C33 C 0.5629(10) 0.3367(7) -0.1875(2)
H49 H 0.4552 0.2110 -0.2130
H50 H 0.6793 0.3106 -0.1613
H51 H 0.6399 0.4286 -0.2174
C34 C 0.6244(7) 0.5290(6) 0.0377(2)
H52 H 0.6937 0.5317 0.0813
H53 H 0.7450 0.6062 0.0120
H54 H 0.5530 0.3907 0.0152
O6 O 1.0217(6) 1.0497(6) 0.21477(17)
H55 H 0.9444 1.0278 0.2473
O7 O 0.5683(5) 0.8737(4) 0.25807(12)
H56 H 0.5249 0.7743 0.2773
O8 O 0.5783(5) 0.6153(4) -0.10277(12)
O9 O 0.2582(6) 0.4777(5) -0.17700(14)
O10 O 0.3188(6) 0.2898(4) -0.09926(14)
loop_
_geom_bond_atom_site_label_1
_geom_bond_atom_site_label_2
_geom_bond_site_symmetry_1
_geom_bond_site_symmetry_2
C1 C2 1_555 1_555
C2 H1 1_555 1_555
C3 C2 1_555 1_555
H2 C3 1_555 1_555
H3 C3 1_555 1_555
C4 C3 1_555 1_555
H4 C4 1_555 1_555
H5 C4 1_555 1_555
C5 C4 1_555 1_555
C6 C1 1_555 1_555
H6 C6 1_555 1_555
C7 C6 1_555 1_555
H7 C7 1_555 1_555
H8 C7 1_555 1_555
C8 C7 1_555 1_555
H9 C8 1_555 1_555
H10 C8 1_555 1_555
C9 C8 1_555 1_555
C10 C5 1_555 1_555
H11 C10 1_555 1_555
C11 C10 1_555 1_555
H12 C11 1_555 1_555
H13 C11 1_555 1_555
C12 C17 1_555 1_555
C13 C9 1_555 1_555
H14 C13 1_555 1_555
H15 C13 1_555 1_555
C14 C1 1_555 1_555
H16 C14 1_555 1_555
H17 C14 1_555 1_555
H18 C14 1_555 1_555
C15 C1 1_555 1_555
H19 C15 1_555 1_555
H20 C15 1_555 1_555
C16 C5 1_555 1_555
H21 C16 1_555 1_555
H22 C16 1_555 1_555
H23 C16 1_555 1_555
C17 H24 1_555 1_555
H25 C17 1_555 1_555
H26 C17 1_555 1_555
O1 C15 1_555 1_555
H27 O1 1_555 1_555
O2 C2 1_555 1_555
H28 O2 1_555 1_555
O3 C11 1_555 1_555
O4 C9 1_555 1_555
O5 C12 1_555 1_555
C18 C19 1_555 1_555
C19 H29 1_555 1_555
C20 C19 1_555 1_555
H30 C20 1_555 1_555
H31 C20 1_555 1_555
C21 C20 1_555 1_555
H32 C21 1_555 1_555
H33 C21 1_555 1_555
C22 C21 1_555 1_555
C23 C18 1_555 1_555
H34 C23 1_555 1_555
C24 C23 1_555 1_555
H35 C24 1_555 1_555
H36 C24 1_555 1_555
C25 C24 1_555 1_555
H37 C25 1_555 1_555
H38 C25 1_555 1_555
C26 C25 1_555 1_555
C27 C26 1_555 1_555
H39 C27 1_555 1_555
H40 C27 1_555 1_555
C28 C33 1_555 1_555
C29 H41 1_555 1_555
H42 C29 1_555 1_555
C30 C22 1_555 1_555
H43 C30 1_555 1_555
C31 C18 1_555 1_555
H44 C31 1_555 1_555
H45 C31 1_555 1_555
H46 C31 1_555 1_555
C32 C18 1_555 1_555
H47 C32 1_555 1_555
H48 C32 1_555 1_555
C33 H49 1_555 1_555
H50 C33 1_555 1_555
H51 C33 1_555 1_555
C34 C22 1_555 1_555
H52 C34 1_555 1_555
H53 C34 1_555 1_555
H54 C34 1_555 1_555
O6 C32 1_555 1_555
H55 O6 1_555 1_555
O7 C19 1_555 1_555
H56 O7 1_555 1_555
O8 C26 1_555 1_555
O9 C27 1_555 1_555
O10 C28 1_555 1_555
C5 C6 1_555 1_555
C9 C10 1_555 1_555
C12 O3 1_555 1_555
C12 O4 1_555 1_555
C13 O5 1_555 1_555
C22 C23 1_555 1_555
C26 C30 1_555 1_555
C28 O8 1_555 1_555
C28 O9 1_555 1_555
C29 C30 1_555 1_555
C29 O10 1_555 1_555

#END
