
#######################################################################
#
#                 Cambridge Crystallographic Data Centre
#                                CCDC 
#
#######################################################################
#
# If this CIF has been generated from an entry in the Cambridge 
# Structural Database, then it will include bibliographic, chemical, 
# crystal, experimental, refinement or atomic coordinate data resulting 
# from the CCDC's data processing and validation procedures.
#
#######################################################################

data_HUJMEG
_chemical_formula_moiety         'C25 H20 O3'
_chemical_name_systematic        
12,14-diphenyl-5,7,16-trioxatetracyclo[10.3.1.0^2,10^.0^4,8^]hexadeca-2(10),3,8,13-tetraene
_symmetry_cell_setting           triclinic
_symmetry_space_group_name_H-M   'P -1'
_symmetry_Int_Tables_number      2
_space_group_name_Hall           '-P 1'
loop_
_symmetry_equiv_pos_site_id
_symmetry_equiv_pos_as_xyz
1 x,y,z
2 -x,-y,-z
_cell_length_a                   5.8013(3)
_cell_length_b                   11.3046(7)
_cell_length_c                   15.3699(10)
_cell_angle_alpha                110.966(3)
_cell_angle_beta                 92.458(3)
_cell_angle_gamma                102.961(2)
_cell_volume                     908.827
_exptl_crystal_colour            colorless
_exptl_crystal_description       parallelepiped
_cell_formula_units_Z            2
loop_
_atom_site_label
_atom_site_type_symbol
_atom_site_fract_x
_atom_site_fract_y
_atom_site_fract_z
O1 O -0.11816(19) 0.67061(11) 0.16572(8)
O2 O 0.2221(3) 0.90526(15) -0.12045(11)
O3 O 0.4921(3) 0.77779(17) -0.14309(10)
C1 C -0.0909(3) 0.78112(16) 0.13896(12)
H1 H -0.2492 0.7807 0.1137
C2 C 0.0002(3) 0.90677(17) 0.22544(12)
H2 H 0.0440 0.9805 0.2059
H3 H -0.1263 0.9200 0.2643
C3 C 0.2133(3) 0.90177(16) 0.28231(11)
C4 C 0.2630(3) 0.78644(15) 0.26457(11)
H4 H 0.4002 0.7855 0.2976
C5 C 0.1111(3) 0.65672(15) 0.19423(12)
C6 C 0.2319(3) 0.61005(16) 0.10580(12)
H5 H 0.3967 0.6145 0.1241
H6 H 0.1519 0.5193 0.0681
C7 C 0.2246(3) 0.69235(15) 0.04769(11)
C8 C 0.0670(3) 0.77152(15) 0.06212(11)
C9 C 0.0510(3) 0.84609(17) 0.00711(12)
H7 H -0.0586 0.8966 0.0151
C10 C 0.2033(3) 0.84135(18) -0.05864(13)
C11 C 0.4230(4) 0.8775(2) -0.16608(16)
H8 H 0.5540 0.9560 -0.1454
H9 H 0.3822 0.8481 -0.2336
C12 C 0.3620(3) 0.76444(18) -0.07269(12)
C13 C 0.3744(3) 0.68749(17) -0.02259(12)
H10 H 0.4785 0.6335 -0.0344
C14 C 0.3543(3) 1.02621(16) 0.35726(11)
C15 C 0.2697(4) 1.13787(19) 0.38350(15)
H11 H 0.1257 1.1349 0.3527
C16 C 0.3951(5) 1.2535(2) 0.45452(17)
H12 H 0.3348 1.3270 0.4704
C17 C 0.6056(5) 1.2610(2) 0.50144(16)
H13 H 0.6877 1.3386 0.5498
C18 C 0.6953(4) 1.1524(2) 0.47638(14)
H14 H 0.8404 1.1571 0.5073
C19 C 0.5712(3) 1.03580(19) 0.40529(13)
H15 H 0.6336 0.9630 0.3895
C20 C 0.0606(3) 0.55970(16) 0.24295(12)
C21 C -0.1210(3) 0.56219(19) 0.29918(15)
H16 H -0.2153 0.6202 0.3041
C22 C -0.1630(4) 0.4792(2) 0.34797(15)
H17 H -0.2862 0.4813 0.3848
C23 C -0.0236(4) 0.39394(19) 0.34216(15)
H18 H -0.0507 0.3390 0.3755
C24 C 0.1562(4) 0.3904(2) 0.28673(16)
H19 H 0.2503 0.3324 0.2823
C25 C 0.1982(4) 0.47242(18) 0.23741(14)
H20 H 0.3204 0.4689 0.2001
loop_
_geom_bond_atom_site_label_1
_geom_bond_atom_site_label_2
_geom_bond_site_symmetry_1
_geom_bond_site_symmetry_2
O1 C1 1_555 1_555
O2 C10 1_555 1_555
O3 C11 1_555 1_555
C1 H1 1_555 1_555
C2 C1 1_555 1_555
H2 C2 1_555 1_555
H3 C2 1_555 1_555
C3 C2 1_555 1_555
C4 C3 1_555 1_555
H4 C4 1_555 1_555
C5 O1 1_555 1_555
C6 C5 1_555 1_555
H5 C6 1_555 1_555
H6 C6 1_555 1_555
C7 C6 1_555 1_555
C8 C1 1_555 1_555
C9 C8 1_555 1_555
H7 C9 1_555 1_555
C10 C9 1_555 1_555
C11 O2 1_555 1_555
H8 C11 1_555 1_555
H9 C11 1_555 1_555
C12 O3 1_555 1_555
C13 C7 1_555 1_555
H10 C13 1_555 1_555
C14 C3 1_555 1_555
C15 C14 1_555 1_555
H11 C15 1_555 1_555
C16 C15 1_555 1_555
H12 C16 1_555 1_555
C17 C16 1_555 1_555
H13 C17 1_555 1_555
C18 C17 1_555 1_555
H14 C18 1_555 1_555
C19 C14 1_555 1_555
H15 C19 1_555 1_555
C20 C5 1_555 1_555
C21 C20 1_555 1_555
H16 C21 1_555 1_555
C22 C21 1_555 1_555
H17 C22 1_555 1_555
C23 C22 1_555 1_555
H18 C23 1_555 1_555
C24 C23 1_555 1_555
H19 C24 1_555 1_555
C25 C20 1_555 1_555
H20 C25 1_555 1_555
C4 C5 1_555 1_555
C7 C8 1_555 1_555
C10 C12 1_555 1_555
C12 C13 1_555 1_555
C18 C19 1_555 1_555
C24 C25 1_555 1_555

#END
