
#######################################################################
#
#                 Cambridge Crystallographic Data Centre
#                                CCDC 
#
#######################################################################
#
# If this CIF has been generated from an entry in the Cambridge 
# Structural Database, then it will include bibliographic, chemical, 
# crystal, experimental, refinement or atomic coordinate data resulting 
# from the CCDC's data processing and validation procedures.
#
#######################################################################

data_HULBUN
_chemical_formula_moiety         'C14 H16 O2'
_chemical_name_systematic        
1-(10-methyl-12-oxatricyclo[7.2.1.0^2,7^]dodeca-2,4,6-trien-10-yl)ethanone
_symmetry_cell_setting           monoclinic
_symmetry_space_group_name_H-M   'P 21'
_symmetry_Int_Tables_number      4
_space_group_name_Hall           'P 2yb'
loop_
_symmetry_equiv_pos_site_id
_symmetry_equiv_pos_as_xyz
1 x,y,z
2 -x,1/2+y,-z
_cell_length_a                   7.2978(6)
_cell_length_b                   6.7046(3)
_cell_length_c                   11.4419(7)
_cell_angle_alpha                90
_cell_angle_beta                 90.391(5)
_cell_angle_gamma                90
_cell_volume                     559.826
_exptl_crystal_colour            'light colorless'
_exptl_crystal_description       block
_cell_formula_units_Z            2
_exptl_crystal_recrystallization_method 'ethyl acetate'
loop_
_atom_site_label
_atom_site_type_symbol
_atom_site_fract_x
_atom_site_fract_y
_atom_site_fract_z
O1 O -0.5132(3) -0.5294(4) -1.05017(19)
O2 O -0.9477(2) -0.6143(3) -0.79665(17)
C1 C -0.7711(4) -0.7066(5) -0.8166(3)
H1 H -0.7826 -0.8070 -0.8785
C2 C -0.6521(4) -0.5271(6) -0.9936(3)
C3 C -0.8288(4) -0.4892(4) -0.6141(2)
C4 C -0.7357(4) -0.6684(4) -0.5989(2)
C5 C -0.6457(4) -0.5325(5) -0.8592(2)
C6 C -0.7921(4) -0.4184(6) -0.4080(3)
H2 H -0.8121 -0.3355 -0.3442
C7 C -0.6699(4) -0.7194(6) -0.4881(3)
H3 H -0.6054 -0.8378 -0.4778
C8 C -0.8555(4) -0.3638(5) -0.5185(3)
H4 H -0.9160 -0.2429 -0.5287
C9 C -0.8979(4) -0.4361(4) -0.7341(3)
H5 H -1.0025 -0.3449 -0.7292
C10 C -0.7127(4) -0.8074(4) -0.7031(3)
H6 H -0.5854 -0.8476 -0.7085
H7 H -0.7859 -0.9263 -0.6914
C11 C -0.6995(4) -0.5962(6) -0.3938(3)
H8 H -0.6567 -0.6331 -0.3202
C12 C -0.4474(4) -0.5445(6) -0.8161(3)
H9 H -0.3952 -0.6697 -0.8392
H10 H -0.4445 -0.5340 -0.7324
H11 H -0.3780 -0.4373 -0.8494
C13 C -0.8351(5) -0.5236(8) -1.0544(3)
H12 H -0.8348 -0.6174 -1.1178
H13 H -0.8582 -0.3922 -1.0843
H14 H -0.9292 -0.5590 -1.0000
C14 C -0.7459(4) -0.3458(4) -0.8101(3)
H15 H -0.6634 -0.2642 -0.7636
H16 H -0.7972 -0.2653 -0.8727
loop_
_geom_bond_atom_site_label_1
_geom_bond_atom_site_label_2
_geom_bond_site_symmetry_1
_geom_bond_site_symmetry_2
O1 C2 1_555 1_555
O2 C1 1_555 1_555
C1 H1 1_555 1_555
C2 C5 1_555 1_555
C3 C4 1_555 1_555
C4 C7 1_555 1_555
C5 C1 1_555 1_555
C6 H2 1_555 1_555
C7 H3 1_555 1_555
C8 C3 1_555 1_555
H4 C8 1_555 1_555
C9 O2 1_555 1_555
H5 C9 1_555 1_555
C10 C1 1_555 1_555
H6 C10 1_555 1_555
H7 C10 1_555 1_555
C11 C6 1_555 1_555
H8 C11 1_555 1_555
C12 C5 1_555 1_555
H9 C12 1_555 1_555
H10 C12 1_555 1_555
H11 C12 1_555 1_555
C13 C2 1_555 1_555
H12 C13 1_555 1_555
H13 C13 1_555 1_555
H14 C13 1_555 1_555
C14 C5 1_555 1_555
H15 C14 1_555 1_555
H16 C14 1_555 1_555
C3 C9 1_555 1_555
C4 C10 1_555 1_555
C6 C8 1_555 1_555
C7 C11 1_555 1_555
C9 C14 1_555 1_555

#END
