
#######################################################################
#
#                 Cambridge Crystallographic Data Centre
#                                CCDC 
#
#######################################################################
#
# If this CIF has been generated from an entry in the Cambridge 
# Structural Database, then it will include bibliographic, chemical, 
# crystal, experimental, refinement or atomic coordinate data resulting 
# from the CCDC's data processing and validation procedures.
#
#######################################################################

data_HULCIC
_chemical_formula_moiety         'C24 H32 O2 Si1'
_chemical_name_systematic        
t-butyl((1-(3,4-dihydro-1H-isochromen-3-yl)-1-phenylprop-2-en-1-yl)oxy)dimethylsilane
_symmetry_cell_setting           orthorhombic
_symmetry_space_group_name_H-M   'P 21 21 21'
_symmetry_Int_Tables_number      19
_space_group_name_Hall           'P 2ac 2ab'
loop_
_symmetry_equiv_pos_site_id
_symmetry_equiv_pos_as_xyz
1 x,y,z
2 1/2-x,-y,1/2+z
3 1/2+x,1/2-y,-z
4 -x,1/2+y,1/2-z
_cell_length_a                   7.6184(3)
_cell_length_b                   16.5442(8)
_cell_length_c                   18.1572(8)
_cell_angle_alpha                90
_cell_angle_beta                 90
_cell_angle_gamma                90
_cell_volume                     2288.54
_exptl_crystal_colour            'light colorless'
_exptl_crystal_description       block
_cell_formula_units_Z            4
_exptl_crystal_recrystallization_method 'diethyl ether'
loop_
_atom_site_label
_atom_site_type_symbol
_atom_site_fract_x
_atom_site_fract_y
_atom_site_fract_z
Si1 Si -1.22065(11) -0.58240(5) -0.62515(4)
O1 O -1.0992(2) -0.55747(11) -0.69625(11)
O2 O -1.1635(2) -0.39281(12) -0.66343(11)
C1 C -0.8242(3) -0.33891(17) -0.63886(17)
C2 C -1.0363(3) -0.41515(18) -0.71716(16)
H1 H -1.0357 -0.3740 -0.7560
C3 C -1.0925(3) -0.49620(17) -0.75144(17)
C4 C -0.9513(3) -0.52148(18) -0.80696(16)
C5 C -0.9621(3) -0.28748(17) -0.62277(17)
C6 C -1.1465(4) -0.31020(19) -0.6438(2)
H2 H -1.2241 -0.2988 -0.6027
H3 H -1.1835 -0.2770 -0.6850
C7 C -0.6543(4) -0.31633(19) -0.61829(19)
H4 H -0.5604 -0.3502 -0.6292
C8 C -1.2680(4) -0.4918(2) -0.79024(17)
H5 H -1.3161 -0.5411 -0.8041
C9 C -0.8558(3) -0.41660(19) -0.68109(18)
H6 H -0.8481 -0.4623 -0.6477
H7 H -0.7662 -0.4230 -0.7186
C10 C -1.2229(6) -0.6961(2) -0.62733(19)
C11 C -0.8229(3) -0.57794(19) -0.78896(16)
H8 H -0.8252 -0.6024 -0.7429
C12 C -0.8121(4) -0.5076(2) -0.9255(2)
H9 H -0.8088 -0.4837 -0.9719
C13 C -0.9440(4) -0.4866(2) -0.8766(2)
H10 H -1.0283 -0.4488 -0.8905
C14 C -0.9293(4) -0.2143(2) -0.58734(17)
H11 H -1.0219 -0.1795 -0.5769
C15 C -0.7611(4) -0.1932(2) -0.56773(17)
H12 H -0.7402 -0.1439 -0.5446
C16 C -0.6242(4) -0.2446(2) -0.58213(18)
H13 H -0.5111 -0.2310 -0.5674
C17 C -1.3607(4) -0.4283(2) -0.8068(2)
H14 H -1.3201 -0.3771 -0.7945
H15 H -1.4675 -0.4342 -0.8310
C18 C -0.6924(4) -0.5982(2) -0.83811(18)
H16 H -0.6077 -0.6360 -0.8249
C19 C -0.6867(4) -0.5628(2) -0.9067(2)
H17 H -0.5985 -0.5764 -0.9399
C20 C -1.1129(7) -0.5455(3) -0.5398(2)
H18 H -0.9909 -0.5600 -0.5406
H19 H -1.1683 -0.5696 -0.4977
H20 H -1.1239 -0.4878 -0.5370
C21 C -1.0335(8) -0.7283(3) -0.6290(3)
H21 H -0.9794 -0.7138 -0.6749
H22 H -1.0347 -0.7861 -0.6241
H23 H -0.9680 -0.7051 -0.5891
C22 C -1.4491(4) -0.5436(3) -0.6291(3)
H24 H -1.4492 -0.4866 -0.6190
H25 H -1.5195 -0.5710 -0.5931
H26 H -1.4967 -0.5530 -0.6773
C23 C -1.3173(9) -0.7252(3) -0.6961(3)
H27 H -1.4385 -0.7095 -0.6937
H28 H -1.3092 -0.7830 -0.6992
H29 H -1.2639 -0.7014 -0.7388
C24 C -1.3116(9) -0.7289(3) -0.5579(3)
H30 H -1.2555 -0.7066 -0.5151
H31 H -1.3016 -0.7868 -0.5569
H32 H -1.4333 -0.7140 -0.5580
loop_
_geom_bond_atom_site_label_1
_geom_bond_atom_site_label_2
_geom_bond_site_symmetry_1
_geom_bond_site_symmetry_2
Si1 O1 1_555 1_555
O1 C3 1_555 1_555
O2 C2 1_555 1_555
C1 C5 1_555 1_555
C2 H1 1_555 1_555
C3 C2 1_555 1_555
C4 C3 1_555 1_555
C5 C6 1_555 1_555
C6 O2 1_555 1_555
H2 C6 1_555 1_555
H3 C6 1_555 1_555
C7 C1 1_555 1_555
H4 C7 1_555 1_555
C8 C3 1_555 1_555
H5 C8 1_555 1_555
C9 C1 1_555 1_555
H6 C9 1_555 1_555
H7 C9 1_555 1_555
C10 Si1 1_555 1_555
C11 C4 1_555 1_555
H8 C11 1_555 1_555
C12 H9 1_555 1_555
C13 C4 1_555 1_555
H10 C13 1_555 1_555
C14 C5 1_555 1_555
H11 C14 1_555 1_555
C15 C14 1_555 1_555
H12 C15 1_555 1_555
C16 C7 1_555 1_555
H13 C16 1_555 1_555
C17 C8 1_555 1_555
H14 C17 1_555 1_555
H15 C17 1_555 1_555
C18 C11 1_555 1_555
H16 C18 1_555 1_555
C19 C12 1_555 1_555
H17 C19 1_555 1_555
C20 Si1 1_555 1_555
H18 C20 1_555 1_555
H19 C20 1_555 1_555
H20 C20 1_555 1_555
C21 C10 1_555 1_555
H21 C21 1_555 1_555
H22 C21 1_555 1_555
H23 C21 1_555 1_555
C22 Si1 1_555 1_555
H24 C22 1_555 1_555
H25 C22 1_555 1_555
H26 C22 1_555 1_555
C23 C10 1_555 1_555
H27 C23 1_555 1_555
H28 C23 1_555 1_555
H29 C23 1_555 1_555
C24 C10 1_555 1_555
H30 C24 1_555 1_555
H31 C24 1_555 1_555
H32 C24 1_555 1_555
C2 C9 1_555 1_555
C12 C13 1_555 1_555
C15 C16 1_555 1_555
C18 C19 1_555 1_555

#END
