
#######################################################################
#
#                 Cambridge Crystallographic Data Centre
#                                CCDC 
#
#######################################################################
#
# If this CIF has been generated from an entry in the Cambridge 
# Structural Database, then it will include bibliographic, chemical, 
# crystal, experimental, refinement or atomic coordinate data resulting 
# from the CCDC's data processing and validation procedures.
#
#######################################################################

data_HULHON
_chemical_formula_moiety         'C38 H43 O8,C1 H4 O1'
_chemical_name_systematic        
"17'-(8,9-dihydroxy-8-methyl-2-oxo-1,6-dioxaspiro[4.4]non-3-yl)-2',6',12'-trimethyl-3H,3'H-spiro[1-benzofuran-2,8'-hexacyclo[14.3.1.0^1,16^.0^2,13^.0^5,12^.0^6,9^]icos[14]ene]-3,3'-dione methanol solvate"
_symmetry_cell_setting           monoclinic
_symmetry_space_group_name_H-M   'P 21'
_symmetry_Int_Tables_number      4
_space_group_name_Hall           'P 2yb'
loop_
_symmetry_equiv_pos_site_id
_symmetry_equiv_pos_as_xyz
1 x,y,z
2 -x,1/2+y,-z
_cell_length_a                   7.14220(10)
_cell_length_b                   10.1714(2)
_cell_length_c                   23.7772(4)
_cell_angle_alpha                90
_cell_angle_beta                 94.6030(10)
_cell_angle_gamma                90
_cell_volume                     1721.75
_exptl_crystal_colour            colorless
_exptl_crystal_description       block
_cell_formula_units_Z            2
loop_
_atom_site_label
_atom_site_type_symbol
_atom_site_fract_x
_atom_site_fract_y
_atom_site_fract_z
O1 O -0.23481(19) 1.10622(14) 0.74992(5)
O2 O 0.0029(2) 0.63665(13) 0.50687(5)
O3 O 0.20321(16) 0.76570(11) 0.46571(4)
O4 O 0.52444(16) 0.79294(12) 0.48502(5)
O5 O 0.18696(17) 1.00189(13) 0.41053(5)
H1 H 0.1309 1.0520 0.4317
O6 O 0.59643(19) 1.01591(13) 0.37397(6)
H2 H 0.6812 0.9862 0.3550
O7 O 0.29390(18) 0.92342(11) 1.02879(5)
O8 O 0.23871(18) 1.26442(12) 1.05509(5)
C1 C 0.4372(2) 0.98769(16) 0.86292(6)
H3 H 0.5208 0.9157 0.8523
H4 H 0.4721 1.0686 0.8431
C2 C 0.4612(2) 1.00936(16) 0.92609(6)
H5 H 0.5683 0.9770 0.9480
C3 C 0.3263(2) 1.07568(16) 0.95003(6)
H6 H 0.3918 1.1612 0.9583
C4 C 0.1435(2) 1.12396(16) 0.92103(6)
C5 C 0.10998(19) 1.07170(16) 0.86016(6)
H7 H 0.1518 1.1445 0.8358
C6 C -0.0981(2) 1.05220(18) 0.84149(6)
H8 H -0.1452 0.9723 0.8595
H9 H -0.1712 1.1284 0.8536
C7 C -0.1239(2) 1.03837(17) 0.77745(7)
C8 C -0.0031(2) 0.93496(16) 0.75169(6)
C9 C 0.20479(19) 0.94305(16) 0.77949(6)
H10 H 0.2542 1.0286 0.7661
C10 C 0.22904(19) 0.95155(15) 0.84510(6)
C11 C 0.3232(2) 0.83963(16) 0.75417(6)
H11 H 0.4149 0.7939 0.7778
C12 C 0.3025(2) 0.81055(15) 0.69920(6)
H12 H 0.3826 0.7470 0.6844
C13 C 0.1572(2) 0.87567(15) 0.66114(6)
C14 C 0.0005(2) 0.94917(15) 0.68739(6)
C15 C -0.1770(2) 0.93082(18) 0.64771(6)
H13 H -0.2444 1.0154 0.6417
H14 H -0.2625 0.8665 0.6636
C16 C -0.1088(2) 0.87944(17) 0.59153(6)
H15 H -0.2038 0.8209 0.5720
H16 H -0.0829 0.9533 0.5662
C17 C 0.0728(2) 0.80304(14) 0.60952(6)
H17 H 0.0349 0.7138 0.6222
C18 C -0.0955(2) 0.80007(17) 0.76292(7)
H18 H -0.0920 0.7847 0.8037
H19 H -0.0264 0.7300 0.7453
H20 H -0.2262 0.8005 0.7469
C19 C 0.1825(2) 0.82295(16) 0.87538(6)
H21 H 0.2497 0.8211 0.9130
H22 H 0.2211 0.7476 0.8534
H23 H 0.0469 0.8184 0.8791
C20 C 0.2121(2) 0.78337(15) 0.56450(6)
H24 H 0.3141 0.7241 0.5808
C21 C 0.1257(2) 0.71948(15) 0.51159(6)
C22 C 0.3057(2) 0.90459(15) 0.54131(6)
H25 H 0.4207 0.9287 0.5651
H26 H 0.2188 0.9806 0.5389
C23 C 0.3525(2) 0.85974(14) 0.48276(6)
C24 C 0.3621(2) 0.96609(15) 0.43747(6)
H27 H 0.4206 1.0463 0.4557
C25 C 0.4987(2) 0.90952(15) 0.39737(6)
C26 C 0.6312(3) 0.8327(2) 0.43929(8)
H28 H 0.6816 0.7547 0.4207
H29 H 0.7380 0.8889 0.4535
C27 C 0.4059(3) 0.8244(2) 0.35084(7)
H30 H 0.3240 0.8790 0.3253
H31 H 0.3310 0.7560 0.3674
H32 H 0.5025 0.7834 0.3297
C28 C 0.1189(2) 1.27443(17) 0.92109(7)
H33 H 0.1342 1.3071 0.9600
H34 H -0.0068 1.2970 0.9043
H35 H 0.2137 1.3149 0.8990
C29 C 0.0472(2) 1.05780(18) 0.97122(6)
H36 H -0.0444 1.1153 0.9884
H37 H -0.0081 0.9705 0.9618
C30 C 0.1500(2) 1.02558(15) 0.66036(6)
H38 H 0.2438 1.0736 0.6855
H39 H 0.1146 1.0693 0.6239
C31 C 0.2438(2) 1.05104(16) 1.00582(6)
C32 C 0.2715(2) 1.14676(16) 1.05599(7)
C33 C 0.3358(2) 1.06569(17) 1.10396(7)
C34 C 0.3806(2) 1.09477(18) 1.16068(7)
H40 H 0.3752 1.1828 1.1739
C35 C 0.4331(3) 0.9939(2) 1.19748(7)
H41 H 0.4634 1.0120 1.2363
C36 C 0.4415(3) 0.8646(2) 1.17729(7)
H42 H 0.4763 0.7957 1.2030
C37 C 0.4000(2) 0.83457(18) 1.12037(7)
H43 H 0.4088 0.7472 1.1067
C38 C 0.3457(2) 0.93740(16) 1.08497(6)
C39 C 0.0628(4) 0.3876(4) 0.72322(12)
H44 H 0.1815 0.3700 0.7455
H45 H -0.0227 0.3131 0.7264
H46 H 0.0054 0.4673 0.7373
O9 O 0.0968(2) 0.4051(3) 0.66738(9)
H47 H -0.0058 0.4110 0.6477
loop_
_geom_bond_atom_site_label_1
_geom_bond_atom_site_label_2
_geom_bond_site_symmetry_1
_geom_bond_site_symmetry_2
O1 C7 1_555 1_555
O2 C21 1_555 1_555
O3 C21 1_555 1_555
O4 C23 1_555 1_555
O5 H1 1_555 1_555
O6 H2 1_555 1_555
O7 C31 1_555 1_555
O8 C32 1_555 1_555
C1 H3 1_555 1_555
H4 C1 1_555 1_555
C2 C1 1_555 1_555
H5 C2 1_555 1_555
C3 C2 1_555 1_555
H6 C3 1_555 1_555
C4 C3 1_555 1_555
C5 C4 1_555 1_555
H7 C5 1_555 1_555
C6 C5 1_555 1_555
H8 C6 1_555 1_555
H9 C6 1_555 1_555
C7 C6 1_555 1_555
C8 C7 1_555 1_555
C9 C8 1_555 1_555
H10 C9 1_555 1_555
C10 C1 1_555 1_555
C11 C9 1_555 1_555
H11 C11 1_555 1_555
C12 C11 1_555 1_555
H12 C12 1_555 1_555
C13 C12 1_555 1_555
C14 C8 1_555 1_555
C15 C14 1_555 1_555
H13 C15 1_555 1_555
H14 C15 1_555 1_555
C16 C15 1_555 1_555
H15 C16 1_555 1_555
H16 C16 1_555 1_555
C17 C13 1_555 1_555
H17 C17 1_555 1_555
C18 C8 1_555 1_555
H18 C18 1_555 1_555
H19 C18 1_555 1_555
H20 C18 1_555 1_555
C19 C10 1_555 1_555
H21 C19 1_555 1_555
H22 C19 1_555 1_555
H23 C19 1_555 1_555
C20 C17 1_555 1_555
H24 C20 1_555 1_555
C21 C20 1_555 1_555
C22 C20 1_555 1_555
H25 C22 1_555 1_555
H26 C22 1_555 1_555
C23 O3 1_555 1_555
C24 O5 1_555 1_555
H27 C24 1_555 1_555
C25 O6 1_555 1_555
C26 O4 1_555 1_555
H28 C26 1_555 1_555
H29 C26 1_555 1_555
C27 C25 1_555 1_555
H30 C27 1_555 1_555
H31 C27 1_555 1_555
H32 C27 1_555 1_555
C28 C4 1_555 1_555
H33 C28 1_555 1_555
H34 C28 1_555 1_555
H35 C28 1_555 1_555
C29 C4 1_555 1_555
H36 C29 1_555 1_555
H37 C29 1_555 1_555
C30 C13 1_555 1_555
H38 C30 1_555 1_555
H39 C30 1_555 1_555
C31 C3 1_555 1_555
C32 C31 1_555 1_555
C33 C32 1_555 1_555
C34 C33 1_555 1_555
H40 C34 1_555 1_555
C35 C34 1_555 1_555
H41 C35 1_555 1_555
C36 C35 1_555 1_555
H42 C36 1_555 1_555
C37 C36 1_555 1_555
H43 C37 1_555 1_555
C38 O7 1_555 1_555
C39 H44 1_555 1_555
H45 C39 1_555 1_555
H46 C39 1_555 1_555
O9 C39 1_555 1_555
H47 O9 1_555 1_555
C5 C10 1_555 1_555
C9 C10 1_555 1_555
C13 C14 1_555 1_555
C14 C30 1_555 1_555
C16 C17 1_555 1_555
C22 C23 1_555 1_555
C23 C24 1_555 1_555
C24 C25 1_555 1_555
C25 C26 1_555 1_555
C29 C31 1_555 1_555
C33 C38 1_555 1_555
C37 C38 1_555 1_555

#END
