
#######################################################################
#
#                 Cambridge Crystallographic Data Centre
#                                CCDC 
#
#######################################################################
#
# If this CIF has been generated from an entry in the Cambridge 
# Structural Database, then it will include bibliographic, chemical, 
# crystal, experimental, refinement or atomic coordinate data resulting 
# from the CCDC's data processing and validation procedures.
#
#######################################################################

data_HUMBAU
_chemical_name_common            
'3,7-(Dibenzyloxy)-2-(4-benzyloxy-3-(3-phthaloylpropyloxy)phenyl)-5-hydroxy-4-oxo-4H-chromene hydrate'
_chemical_formula_moiety         'C47 H37 N1 O9,0.1(H2 O1)'
_chemical_name_systematic        
'2-(3-(2-(Benzyloxy)-5-(3,7-bis(benzyloxy)-5-hydroxy-4-oxo-4H-chromen-2-yl)phenoxy)propyl)-1H-isoindole-1,3(2H)-dione hydrate'
_symmetry_cell_setting           triclinic
_symmetry_space_group_name_H-M   'P -1'
_symmetry_Int_Tables_number      2
_space_group_name_Hall           '-P 1'
loop_
_symmetry_equiv_pos_site_id
_symmetry_equiv_pos_as_xyz
1 x,y,z
2 -x,-y,-z
_cell_length_a                   9.9059(6)
_cell_length_b                   13.2673(8)
_cell_length_c                   16.2025(11)
_cell_angle_alpha                68.220(2)
_cell_angle_beta                 84.750(2)
_cell_angle_gamma                68.381(2)
_cell_volume                     1835.78
_exptl_crystal_colour            yellow
_exptl_crystal_description       plate
_chemical_melting_point          '168-174 deg.C'
_cell_formula_units_Z            2
_exptl_crystal_recrystallization_method 'ethyl acetate/hexane'
loop_
_atom_site_label
_atom_site_type_symbol
_atom_site_fract_x
_atom_site_fract_y
_atom_site_fract_z
O1 O -0.0718(14) -0.1120(11) 0.6768(9)
O2 O 0.58555(8) 0.48593(6) 0.09320(5)
C1 C 0.60880(12) 0.36975(9) 0.12791(7)
C2 C 0.72004(12) 0.29329(9) 0.10068(8)
O3 O 0.75554(9) 0.17530(7) 0.14232(5)
C3 C 0.81185(12) 0.33303(9) 0.03121(8)
O4 O 0.91112(9) 0.26416(7) 0.00362(6)
C4 C 0.78350(12) 0.45592(9) -0.00223(7)
C5 C 0.86746(12) 0.50623(10) -0.06787(8)
O5 O 0.97217(9) 0.44008(8) -0.10430(6)
H1 H 0.9748(17) 0.3666(15) -0.0740(11)
C6 C 0.84211(12) 0.62388(10) -0.09574(8)
H2 H 0.8984 0.6577 -0.1402
C7 C 0.73296(12) 0.69213(9) -0.05775(8)
O6 O 0.70129(9) 0.80774(7) -0.07930(6)
C8 C 0.64669(12) 0.64591(9) 0.00634(8)
H3 H 0.5720 0.6934 0.0315
C9 C 0.67364(11) 0.52890(9) 0.03196(7)
C10 C 0.50150(12) 0.34676(9) 0.19351(7)
C11 C 0.39737(12) 0.43879(10) 0.21211(8)
H4 H 0.3975 0.5154 0.1822
C12 C 0.29352(13) 0.42086(10) 0.27341(8)
H5 H 0.2244 0.4846 0.2860
C13 C 0.29044(12) 0.31031(10) 0.31621(7)
O7 O 0.19348(9) 0.28190(7) 0.37630(6)
C14 C 0.39444(12) 0.21641(9) 0.29777(7)
O8 O 0.38181(9) 0.11140(7) 0.34284(6)
C15 C 0.49905(12) 0.23408(9) 0.23815(7)
H6 H 0.5701 0.1699 0.2270
C16 C 0.77040(12) -0.00819(10) 0.13954(8)
C17 C 0.81381(12) -0.06016(10) 0.22914(8)
H7 H 0.8152 -0.0140 0.2618
C18 C 0.85531(13) -0.18040(11) 0.27106(9)
H8 H 0.8847 -0.2163 0.3325
C19 C 0.85395(14) -0.24748(11) 0.22378(11)
H9 H 0.8838 -0.3296 0.2526
C20 C 0.80968(14) -0.19640(11) 0.13523(11)
H10 H 0.8078 -0.2429 0.1031
C21 C 0.76796(14) -0.07719(11) 0.09300(9)
H11 H 0.7374 -0.0420 0.0317
C22 C 0.72208(15) 0.12094(10) 0.08934(9)
H12 H 0.7722 0.1368 0.0328
H13 H 0.6161 0.1534 0.0749
C23 C 0.74831(13) 0.98282(10) -0.14563(8)
C24 C 0.85764(14) 1.02502(11) -0.14749(10)
H14 H 0.9564 0.9767 -0.1466
C25 C 0.82363(17) 1.13760(12) -0.15063(11)
H15 H 0.8990 1.1662 -0.1519
C26 C 0.68063(17) 1.20785(12) -0.15197(10)
H16 H 0.6572 1.2855 -0.1552
C27 C 0.57127(16) 1.16567(12) -0.14857(10)
H17 H 0.4727 1.2138 -0.1483
C28 C 0.60468(14) 1.05350(11) -0.14551(9)
H18 H 0.5291 1.0248 -0.1433
C29 C 0.78905(12) 0.86106(10) -0.14259(8)
H19 H 0.7717 0.8620 -0.2021
H20 H 0.8934 0.8166 -0.1245
C30 C 0.00685(12) 0.31924(10) 0.47602(8)
C31 C 0.02832(14) 0.20149(11) 0.50956(9)
H21 H 0.1040 0.1492 0.4887
C32 C -0.06111(14) 0.16026(12) 0.57374(9)
H22 H -0.0469 0.0798 0.5962
C33 C -0.17054(14) 0.23545(12) 0.60510(9)
H23 H -0.2307 0.2066 0.6494
C34 C -0.19237(13) 0.35301(12) 0.57176(9)
H24 H -0.2674 0.4050 0.5932
C35 C -0.10466(13) 0.39449(11) 0.50720(9)
H25 H -0.1208 0.4753 0.4839
C36 C 0.09955(13) 0.36963(10) 0.40697(8)
H26 H 0.0372 0.4359 0.3566
H27 H 0.1576 0.3985 0.4330
C37 C 0.48933(13) 0.01163(10) 0.33010(8)
H28 H 0.5867 -0.0006 0.3514
H29 H 0.4923 0.0223 0.2663
C38 C 0.44574(14) -0.09074(10) 0.38312(8)
H30 H 0.5074 -0.1595 0.3687
H31 H 0.3434 -0.0729 0.3668
C39 C 0.46223(14) -0.11846(10) 0.48213(8)
H32 H 0.5666 -0.1450 0.4991
H33 H 0.4110 -0.0464 0.4946
C40 C 0.27670(13) -0.30186(11) 0.63987(8)
C41 C 0.38291(13) -0.38346(11) 0.61236(8)
C42 C 0.40019(16) -0.49966(12) 0.64738(10)
H34 H 0.4719 -0.5555 0.6276
C43 C 0.30675(17) -0.53079(14) 0.71342(11)
H35 H 0.3161 -0.6102 0.7400
C44 C 0.20116(17) -0.44961(16) 0.74128(10)
H36 H 0.1399 -0.4743 0.7867
C45 C 0.18276(16) -0.33231(15) 0.70419(9)
H37 H 0.1090 -0.2758 0.7223
C46 C 0.28967(13) -0.18693(11) 0.59138(8)
N1 N 0.40552(11) -0.20702(8) 0.53653(7)
O9 O 0.21987(11) -0.09386(9) 0.59699(7)
C47 C 0.46833(13) -0.32360(10) 0.54621(8)
O10 O 0.57285(10) -0.36345(8) 0.50805(7)
loop_
_geom_bond_atom_site_label_1
_geom_bond_atom_site_label_2
_geom_bond_site_symmetry_1
_geom_bond_site_symmetry_2
O2 C1 1_555 1_555
C1 C2 1_555 1_555
C2 O3 1_555 1_555
O3 C22 1_555 1_555
C3 C2 1_555 1_555
O4 C3 1_555 1_555
C4 C3 1_555 1_555
C5 C4 1_555 1_555
O5 C5 1_555 1_555
H1 O5 1_555 1_555
C6 C5 1_555 1_555
H2 C6 1_555 1_555
C7 C6 1_555 1_555
O6 C7 1_555 1_555
C8 C7 1_555 1_555
H3 C8 1_555 1_555
C9 O2 1_555 1_555
C10 C1 1_555 1_555
C11 C10 1_555 1_555
H4 C11 1_555 1_555
C12 C11 1_555 1_555
H5 C12 1_555 1_555
C13 C12 1_555 1_555
O7 C13 1_555 1_555
C14 C13 1_555 1_555
O8 C14 1_555 1_555
C15 C10 1_555 1_555
H6 C15 1_555 1_555
C16 C17 1_555 1_555
C17 H7 1_555 1_555
C18 C17 1_555 1_555
H8 C18 1_555 1_555
C19 C18 1_555 1_555
H9 C19 1_555 1_555
C20 C19 1_555 1_555
H10 C20 1_555 1_555
C21 C16 1_555 1_555
H11 C21 1_555 1_555
C22 C16 1_555 1_555
H12 C22 1_555 1_555
H13 C22 1_555 1_555
C23 C24 1_555 1_555
C24 H14 1_555 1_555
C25 C24 1_555 1_555
H15 C25 1_555 1_555
C26 C25 1_555 1_555
H16 C26 1_555 1_555
C27 C26 1_555 1_555
H17 C27 1_555 1_555
C28 C23 1_555 1_555
H18 C28 1_555 1_555
C29 O6 1_555 1_555
H19 C29 1_555 1_555
H20 C29 1_555 1_555
C30 C31 1_555 1_555
C31 H21 1_555 1_555
C32 C31 1_555 1_555
H22 C32 1_555 1_555
C33 C32 1_555 1_555
H23 C33 1_555 1_555
C34 C33 1_555 1_555
H24 C34 1_555 1_555
C35 C30 1_555 1_555
H25 C35 1_555 1_555
C36 O7 1_555 1_555
H26 C36 1_555 1_555
H27 C36 1_555 1_555
C37 O8 1_555 1_555
H28 C37 1_555 1_555
H29 C37 1_555 1_555
C38 C37 1_555 1_555
H30 C38 1_555 1_555
H31 C38 1_555 1_555
C39 C38 1_555 1_555
H32 C39 1_555 1_555
H33 C39 1_555 1_555
C40 C41 1_555 1_555
C41 C42 1_555 1_555
C42 H34 1_555 1_555
C43 C42 1_555 1_555
H35 C43 1_555 1_555
C44 C43 1_555 1_555
H36 C44 1_555 1_555
C45 C40 1_555 1_555
H37 C45 1_555 1_555
C46 C40 1_555 1_555
N1 C39 1_555 1_555
O9 C46 1_555 1_555
C47 C41 1_555 1_555
O10 C47 1_555 1_555
C4 C9 1_555 1_555
C8 C9 1_555 1_555
C14 C15 1_555 1_555
C20 C21 1_555 1_555
C23 C29 1_555 1_555
C27 C28 1_555 1_555
C30 C36 1_555 1_555
C34 C35 1_555 1_555
C44 C45 1_555 1_555
C46 N1 1_555 1_555
N1 C47 1_555 1_555

#END
