
#######################################################################
#
#                 Cambridge Crystallographic Data Centre
#                                CCDC 
#
#######################################################################
#
# If this CIF has been generated from an entry in the Cambridge 
# Structural Database, then it will include bibliographic, chemical, 
# crystal, experimental, refinement or atomic coordinate data resulting 
# from the CCDC's data processing and validation procedures.
#
#######################################################################

data_HUMQOV
_chemical_formula_moiety         'C18 H15 N1 O5'
_chemical_name_systematic        
'Methyl 3-benzoyl-8-hydroxy-5-methoxyindolizine-1-carboxylate'
_symmetry_cell_setting           triclinic
_symmetry_space_group_name_H-M   'P -1'
_symmetry_Int_Tables_number      2
_space_group_name_Hall           '-P 1'
loop_
_symmetry_equiv_pos_site_id
_symmetry_equiv_pos_as_xyz
1 x,y,z
2 -x,-y,-z
_cell_length_a                   9.0670(4)
_cell_length_b                   11.3774(5)
_cell_length_c                   15.9752(8)
_cell_angle_alpha                75.2940(10)
_cell_angle_beta                 76.1270(10)
_cell_angle_gamma                87.4580(10)
_cell_volume                     1547.26
_exptl_crystal_colour            yellow
_exptl_crystal_description       block
_chemical_melting_point          '446.0 K'
_cell_formula_units_Z            4
_exptl_crystal_recrystallization_method 'petroleum ether/acetone'
loop_
_atom_site_label
_atom_site_type_symbol
_atom_site_fract_x
_atom_site_fract_y
_atom_site_fract_z
O1 O 0.40511(13) 0.25829(12) 0.49940(8)
O2 O 0.81376(11) 0.27401(9) 0.18198(6)
O3 O 0.24979(12) 0.05678(11) 0.52680(7)
O4 O 0.24084(11) -0.08342(10) 0.45174(7)
O5 O 0.67879(14) -0.01823(12) 0.14909(8)
N1 N 0.63465(11) 0.17527(9) 0.30086(7)
C1 C 0.49692(15) 0.00860(13) 0.32084(9)
C2 C 0.62220(15) 0.07478(12) 0.26653(9)
C3 C 0.72840(14) 0.27676(12) 0.26266(8)
C4 C 0.71922(16) 0.36652(13) 0.30566(10)
C5 C 0.61147(17) 0.35781(14) 0.38692(10)
C6 C 0.51081(15) 0.26222(13) 0.42228(9)
C7 C 0.51886(13) 0.16816(12) 0.37771(8)
C8 C 0.43227(14) 0.06225(12) 0.39039(9)
C9 C 0.30154(14) 0.01486(13) 0.46273(9)
C10 C 0.11289(17) -0.14345(16) 0.52085(11)
H1 H 0.0547 -0.1885 0.4962
H2 H 0.0499 -0.0837 0.5443
H3 H 0.1494 -0.1979 0.5678
C11 C 0.94853(18) 0.34901(16) 0.14813(12)
H4 H 1.0040 0.3333 0.0929
H5 H 1.0108 0.3309 0.1905
H6 H 0.9210 0.4330 0.1383
C12 C 0.73010(16) 0.03326(12) 0.19489(9)
C13 C 0.89764(15) 0.04004(12) 0.18490(9)
C14 C 0.99417(18) 0.05440(15) 0.10049(10)
C15 C 1.1498(2) 0.05698(16) 0.08989(12)
C16 C 1.2110(2) 0.04199(17) 0.16283(13)
C17 C 1.1162(2) 0.02676(19) 0.24659(13)
C18 C 0.95967(18) 0.02666(15) 0.25780(10)
H13 H 0.345(2) 0.190(2) 0.5100(14)
H14 H 0.4643(17) -0.0680(15) 0.3130(10)
H15 H 0.7844(19) 0.4366(15) 0.2812(11)
H16 H 0.603(2) 0.4230(17) 0.4174(12)
H17 H 0.949(2) 0.0637(17) 0.0503(13)
H18 H 1.215(2) 0.0693(18) 0.0290(14)
H19 H 1.319(2) 0.0439(18) 0.1563(13)
H20 H 1.159(2) 0.017(2) 0.2960(15)
H21 H 0.8932(19) 0.0163(15) 0.3142(11)
O6 O 0.77318(15) 0.58630(16) 0.01989(9)
O7 O 0.35899(12) 0.57639(10) 0.33382(7)
O8 O 0.70867(14) 0.38586(13) -0.01647(8)
O9 O 0.53552(16) 0.23558(12) 0.04263(8)
O10 O 0.15484(14) 0.29508(10) 0.35090(8)
N2 N 0.44456(12) 0.50866(10) 0.20964(7)
C19 C 0.38548(16) 0.33855(13) 0.17854(9)
C20 C 0.34037(14) 0.41109(12) 0.23625(9)
C21 C 0.45944(16) 0.59487(13) 0.25457(10)
C22 C 0.5712(2) 0.68069(16) 0.21808(13)
C23 C 0.6745(2) 0.67844(18) 0.13718(13)
C24 C 0.66914(17) 0.58868(16) 0.09596(11)
C25 C 0.55252(15) 0.49747(14) 0.13363(9)
C26 C 0.51550(15) 0.39065(14) 0.11372(9)
C27 C 0.59658(18) 0.34023(16) 0.04094(10)
C28 C 0.6099(3) 0.1762(2) -0.02584(13)
H7 H 0.5600 0.0996 -0.0162
H8 H 0.7143 0.1629 -0.0236
H9 H 0.6047 0.2267 -0.0832
C29 C 0.3357(3) 0.6743(2) 0.37604(15)
H10 H 0.2526 0.6542 0.4277
H11 H 0.3126 0.7465 0.3352
H12 H 0.4262 0.6881 0.3937
C30 C 0.19506(15) 0.39620(12) 0.30476(9)
C31 C 0.09178(14) 0.50204(13) 0.30917(9)
C32 C -0.01349(17) 0.50072(15) 0.38901(10)
C33 C -0.11147(19) 0.59676(17) 0.39531(13)
C34 C -0.1062(2) 0.69337(19) 0.32258(15)
C35 C -0.0040(2) 0.69460(18) 0.24290(14)
C36 C 0.09525(18) 0.59895(15) 0.23580(11)
H22 H 0.766(3) 0.515(2) 0.0001(15)
H23 H 0.3329(18) 0.2634(16) 0.1813(11)
H24 H 0.581(2) 0.7450(19) 0.2470(13)
H25 H 0.751(2) 0.7409(19) 0.1123(14)
H26 H -0.014(2) 0.4302(17) 0.4407(12)
H27 H -0.184(2) 0.5973(18) 0.4533(14)
H28 H -0.173(3) 0.765(2) 0.3260(15)
H29 H -0.004(2) 0.757(2) 0.1933(15)
H30 H 0.1628(19) 0.5977(15) 0.1804(11)
loop_
_geom_bond_atom_site_label_1
_geom_bond_atom_site_label_2
_geom_bond_site_symmetry_1
_geom_bond_site_symmetry_2
O1 C6 1_555 1_555
O2 C3 1_555 1_555
O3 C9 1_555 1_555
O4 C9 1_555 1_555
O5 C12 1_555 1_555
N1 C2 1_555 1_555
C1 C2 1_555 1_555
C2 C12 1_555 1_555
C3 N1 1_555 1_555
C4 C3 1_555 1_555
C5 C4 1_555 1_555
C6 C5 1_555 1_555
C7 N1 1_555 1_555
C8 C1 1_555 1_555
C9 C8 1_555 1_555
C10 O4 1_555 1_555
H1 C10 1_555 1_555
H2 C10 1_555 1_555
H3 C10 1_555 1_555
C11 O2 1_555 1_555
H4 C11 1_555 1_555
H5 C11 1_555 1_555
H6 C11 1_555 1_555
C12 C13 1_555 1_555
C13 C14 1_555 1_555
C14 C15 1_555 1_555
C15 C16 1_555 1_555
C16 C17 1_555 1_555
C17 C18 1_555 1_555
C18 C13 1_555 1_555
O6 C24 1_555 1_555
O7 C21 1_555 1_555
O8 C27 1_555 1_555
O9 C27 1_555 1_555
O10 C30 1_555 1_555
N2 C20 1_555 1_555
C19 C20 1_555 1_555
C20 C30 1_555 1_555
C21 N2 1_555 1_555
C22 C21 1_555 1_555
C23 C22 1_555 1_555
C24 C23 1_555 1_555
C25 N2 1_555 1_555
C26 C19 1_555 1_555
C27 C26 1_555 1_555
C28 O9 1_555 1_555
H7 C28 1_555 1_555
H8 C28 1_555 1_555
H9 C28 1_555 1_555
C29 O7 1_555 1_555
H10 C29 1_555 1_555
H11 C29 1_555 1_555
H12 C29 1_555 1_555
C30 C31 1_555 1_555
C31 C32 1_555 1_555
C32 C33 1_555 1_555
C33 C34 1_555 1_555
C34 C35 1_555 1_555
C35 C36 1_555 1_555
C36 C31 1_555 1_555
H13 O1 1_555 1_555
H14 C1 1_555 1_555
H15 C4 1_555 1_555
H16 C5 1_555 1_555
H17 C14 1_555 1_555
H18 C15 1_555 1_555
H19 C16 1_555 1_555
H20 C17 1_555 1_555
H21 C18 1_555 1_555
H22 O6 1_555 1_555
H23 C19 1_555 1_555
H24 C22 1_555 1_555
H25 C23 1_555 1_555
H26 C32 1_555 1_555
H27 C33 1_555 1_555
H28 C34 1_555 1_555
H29 C35 1_555 1_555
H30 C36 1_555 1_555
C6 C7 1_555 1_555
C7 C8 1_555 1_555
C24 C25 1_555 1_555
C25 C26 1_555 1_555

#END
