
#######################################################################
#
#                 Cambridge Crystallographic Data Centre
#                                CCDC 
#
#######################################################################
#
# If this CIF has been generated from an entry in the Cambridge 
# Structural Database, then it will include bibliographic, chemical, 
# crystal, experimental, refinement or atomic coordinate data resulting 
# from the CCDC's data processing and validation procedures.
#
#######################################################################

data_HUMQIP
_chemical_formula_moiety         'C9 H15 N1 O3'
_chemical_name_systematic        'Methyl (E)-3-acetamido-4-methyl-2-pentenoate'
_symmetry_cell_setting           orthorhombic
_symmetry_space_group_name_H-M   'P b c a'
_symmetry_Int_Tables_number      61
_space_group_name_Hall           '-P 2ac 2ab'
loop_
_symmetry_equiv_pos_site_id
_symmetry_equiv_pos_as_xyz
1 x,y,z
2 1/2+x,y,1/2-z
3 x,1/2-y,1/2+z
4 1/2-x,1/2+y,z
5 -x,-y,-z
6 1/2-x,-y,1/2+z
7 -x,1/2+y,1/2-z
8 1/2+x,1/2-y,-z
_cell_length_a                   9.806(2)
_cell_length_b                   12.435(3)
_cell_length_c                   17.067(4)
_cell_angle_alpha                90
_cell_angle_beta                 90
_cell_angle_gamma                90
_cell_volume                     2081.11
_exptl_crystal_colour            colorless
_exptl_crystal_description       needle
_cell_formula_units_Z            8
_exptl_crystal_recrystallization_method 'ethyl acetate/hexane'
loop_
_atom_site_label
_atom_site_type_symbol
_atom_site_fract_x
_atom_site_fract_y
_atom_site_fract_z
O1 O 0.5932(3) 0.4260(2) 0.69203(16)
O2 O 0.7795(2) 0.45268(18) 0.62146(13)
O3 O 0.6352(2) 0.73287(18) 0.48475(12)
N1 N 0.4320(2) 0.6810(2) 0.53746(14)
H1 H 0.3459 0.6938 0.5354
C1 C 0.6501(3) 0.4738(3) 0.63972(19)
C2 C 0.5949(3) 0.5557(2) 0.58826(17)
H2 H 0.6514 0.5782 0.5477
C3 C 0.4732(3) 0.6023(2) 0.59198(17)
C4 C 0.3648(3) 0.5779(3) 0.65281(18)
H3 H 0.4073 0.5331 0.6932
C5 C 0.2491(3) 0.5130(3) 0.6172(2)
H4 H 0.2122 0.5511 0.5731
H5 H 0.1789 0.5026 0.6557
H6 H 0.2830 0.4444 0.6002
C6 C 0.3103(4) 0.6779(3) 0.6930(2)
H7 H 0.3847 0.7176 0.7153
H8 H 0.2479 0.6573 0.7337
H9 H 0.2637 0.7219 0.6553
C7 C 0.5116(3) 0.7396(3) 0.48738(18)
C8 C 0.4351(3) 0.8151(3) 0.4358(2)
H10 H 0.4556 0.8879 0.4505
H11 H 0.3390 0.8025 0.4412
H12 H 0.4615 0.8037 0.3822
C9 C 0.8506(4) 0.3734(3) 0.6671(2)
H13 H 0.8407 0.3897 0.7218
H14 H 0.9455 0.3739 0.6534
H15 H 0.8130 0.3036 0.6566
loop_
_geom_bond_atom_site_label_1
_geom_bond_atom_site_label_2
_geom_bond_site_symmetry_1
_geom_bond_site_symmetry_2
O1 C1 1_555 1_555
O2 C1 1_555 1_555
O3 C7 1_555 1_555
N1 H1 1_555 1_555
C1 C2 1_555 1_555
C2 H2 1_555 1_555
C3 N1 1_555 1_555
C4 C3 1_555 1_555
H3 C4 1_555 1_555
C5 C4 1_555 1_555
H4 C5 1_555 1_555
H5 C5 1_555 1_555
H6 C5 1_555 1_555
C6 C4 1_555 1_555
H7 C6 1_555 1_555
H8 C6 1_555 1_555
H9 C6 1_555 1_555
C7 N1 1_555 1_555
C8 C7 1_555 1_555
H10 C8 1_555 1_555
H11 C8 1_555 1_555
H12 C8 1_555 1_555
C9 O2 1_555 1_555
H13 C9 1_555 1_555
H14 C9 1_555 1_555
H15 C9 1_555 1_555
C2 C3 1_555 1_555

#END
