
#######################################################################
#
#                 Cambridge Crystallographic Data Centre
#                                CCDC 
#
#######################################################################
#
# If this CIF has been generated from an entry in the Cambridge 
# Structural Database, then it will include bibliographic, chemical, 
# crystal, experimental, refinement or atomic coordinate data resulting 
# from the CCDC's data processing and validation procedures.
#
#######################################################################

data_HUNDAW
_chemical_formula_moiety         'C13 H15 N1 O4'
_chemical_name_systematic        
(3S,3R)-3-((Benzyloxy)methyl)-6-methylmorpholine-2,5-dione
_symmetry_cell_setting           orthorhombic
_symmetry_space_group_name_H-M   'P 21 21 21'
_symmetry_Int_Tables_number      19
_space_group_name_Hall           'P 2ac 2ab'
loop_
_symmetry_equiv_pos_site_id
_symmetry_equiv_pos_as_xyz
1 x,y,z
2 1/2-x,-y,1/2+z
3 -x,1/2+y,1/2-z
4 1/2+x,1/2-y,-z
_cell_length_a                   6.4608(12)
_cell_length_b                   10.918(2)
_cell_length_c                   18.339(4)
_cell_angle_alpha                90
_cell_angle_beta                 90
_cell_angle_gamma                90
_cell_volume                     1293.61
_exptl_crystal_colour            colorless
_exptl_crystal_description       block
_cell_formula_units_Z            4
_exptl_crystal_recrystallization_method 'ethyl acetate'
loop_
_atom_site_label
_atom_site_type_symbol
_atom_site_fract_x
_atom_site_fract_y
_atom_site_fract_z
O1 O 0.8895(3) 0.60867(14) 0.42367(9)
O2 O 1.2031(3) 0.6070(2) 0.37938(12)
O3 O 0.5807(3) 0.36549(16) 0.49940(12)
O4 O 0.8717(3) 0.39550(18) 0.30716(9)
N1 N 0.9123(3) 0.36684(17) 0.46153(11)
H1 H 0.934(4) 0.297(2) 0.4792(13)
C1 C 0.7271(4) 0.4170(2) 0.46948(13)
C2 C 0.6984(4) 0.5461(2) 0.44178(13)
H2 H 0.6119 0.5429 0.3979
C3 C 0.5913(5) 0.6251(2) 0.49726(14)
H3 H 0.5764 0.7066 0.4783
H4 H 0.6721 0.6275 0.5412
H5 H 0.4571 0.5918 0.5077
C4 C 1.0608(4) 0.5505(2) 0.40366(13)
C5 C 1.0714(4) 0.4130(2) 0.41322(13)
H6 H 1.2062 0.3930 0.4346
C6 C 1.0607(4) 0.3543(3) 0.33877(15)
H7 H 1.1777 0.3793 0.3091
H8 H 1.0614 0.2657 0.3430
C7 C 0.8404(5) 0.3527(4) 0.23593(16)
H9 H 0.8133 0.2654 0.2368
H10 H 0.9638 0.3668 0.2070
C8 C 0.6596(4) 0.4187(3) 0.20224(14)
C9 C 0.6481(6) 0.5430(3) 0.20187(19)
H11 H 0.7495 0.5890 0.2252
C10 C 0.4873(9) 0.6008(4) 0.1671(2)
H12 H 0.4807 0.6859 0.1669
C11 C 0.3357(6) 0.5337(4) 0.13253(18)
H13 H 0.2281 0.5730 0.1084
C12 C 0.3453(5) 0.4086(4) 0.13416(17)
H14 H 0.2426 0.3620 0.1120
C13 C 0.5070(5) 0.3525(3) 0.16864(15)
H15 H 0.5136 0.2675 0.1693
loop_
_geom_bond_atom_site_label_1
_geom_bond_atom_site_label_2
_geom_bond_site_symmetry_1
_geom_bond_site_symmetry_2
O1 C2 1_555 1_555
O2 C4 1_555 1_555
O3 C1 1_555 1_555
O4 C6 1_555 1_555
N1 H1 1_555 1_555
C1 N1 1_555 1_555
C2 C1 1_555 1_555
H2 C2 1_555 1_555
C3 C2 1_555 1_555
H3 C3 1_555 1_555
H4 C3 1_555 1_555
H5 C3 1_555 1_555
C4 O1 1_555 1_555
C5 N1 1_555 1_555
H6 C5 1_555 1_555
C6 C5 1_555 1_555
H7 C6 1_555 1_555
H8 C6 1_555 1_555
C7 O4 1_555 1_555
H9 C7 1_555 1_555
H10 C7 1_555 1_555
C8 C7 1_555 1_555
C9 C8 1_555 1_555
H11 C9 1_555 1_555
C10 C9 1_555 1_555
H12 C10 1_555 1_555
C11 C10 1_555 1_555
H13 C11 1_555 1_555
C12 C11 1_555 1_555
H14 C12 1_555 1_555
C13 C8 1_555 1_555
H15 C13 1_555 1_555
C4 C5 1_555 1_555
C12 C13 1_555 1_555

#END
