
#######################################################################
#
#                 Cambridge Crystallographic Data Centre
#                                CCDC 
#
#######################################################################
#
# If this CIF has been generated from an entry in the Cambridge 
# Structural Database, then it will include bibliographic, chemical, 
# crystal, experimental, refinement or atomic coordinate data resulting 
# from the CCDC's data processing and validation procedures.
#
#######################################################################

data_HUNLIM
_chemical_formula_moiety         'C19 H18 O5'
_chemical_name_systematic        
'Ethyl 5,6-dimethoxy-2-phenyl-1-benzofuran-3-carboxylate'
_symmetry_cell_setting           monoclinic
_symmetry_space_group_name_H-M   'P 21/c'
_symmetry_Int_Tables_number      14
_space_group_name_Hall           '-P 2ybc'
loop_
_symmetry_equiv_pos_site_id
_symmetry_equiv_pos_as_xyz
1 x,y,z
2 -x,1/2+y,1/2-z
3 -x,-y,-z
4 x,1/2-y,1/2+z
_cell_length_a                   9.5067(19)
_cell_length_b                   19.416(4)
_cell_length_c                   17.540(4)
_cell_angle_alpha                90
_cell_angle_beta                 104.01(3)
_cell_angle_gamma                90
_cell_volume                     3141.26
_cell_formula_units_Z            8
loop_
_atom_site_label
_atom_site_type_symbol
_atom_site_fract_x
_atom_site_fract_y
_atom_site_fract_z
O1 O 0.21895(19) 0.52654(7) 0.18274(9)
O2 O 0.1736(2) 0.63007(8) -0.07481(9)
O3 O 0.3835(2) 0.71143(8) -0.01378(9)
O4 O 0.5793(2) 0.67889(8) 0.27654(9)
O5 O 0.5275(2) 0.62215(8) 0.37804(10)
C1 C 0.3147(3) 0.54059(11) 0.25354(13)
C2 C 0.4046(3) 0.59401(11) 0.24551(13)
C3 C 0.3635(3) 0.61403(11) 0.16341(13)
C4 C 0.2497(3) 0.57203(11) 0.12845(13)
C5 C 0.1798(3) 0.57356(11) 0.04940(14)
H1 H 0.1038 0.5438 0.0281
C6 C 0.2292(3) 0.62153(11) 0.00395(13)
C7 C 0.3459(3) 0.66615(11) 0.03797(14)
C8 C 0.4131(3) 0.66340(11) 0.11652(14)
H2 H 0.4889 0.6931 0.1383
C9 C 0.0497(3) 0.59012(12) -0.11078(15)
H3 H 0.0747 0.5421 -0.1070
H4 H 0.0170 0.6029 -0.1651
H5 H -0.0263 0.5984 -0.0845
C10 C 0.4972(3) 0.75885(11) 0.01837(14)
H6 H 0.4719 0.7849 0.0596
H7 H 0.5108 0.7896 -0.0221
H8 H 0.5854 0.7340 0.0392
C11 C 0.5092(3) 0.63032(11) 0.30785(14)
C12 C 0.6770(3) 0.72357(12) 0.33160(15)
H9 H 0.7534 0.6967 0.3652
H10 H 0.6245 0.7478 0.3644
C13 C 0.7400(3) 0.77376(13) 0.28412(17)
H11 H 0.7894 0.7491 0.2509
H12 H 0.8073 0.8034 0.3187
H13 H 0.6636 0.8010 0.2523
C14 C 0.2986(3) 0.49432(11) 0.31702(14)
C15 C 0.4168(3) 0.47773(11) 0.37943(14)
H14 H 0.5072 0.4972 0.3821
C16 C 0.3980(3) 0.43228(11) 0.43700(14)
H15 H 0.4764 0.4218 0.4786
C17 C 0.2649(3) 0.40224(12) 0.43372(14)
H16 H 0.2541 0.3714 0.4725
C18 C 0.1478(3) 0.41834(11) 0.37227(15)
H17 H 0.0578 0.3985 0.3699
C19 C 0.1642(3) 0.46398(11) 0.31420(14)
H18 H 0.0851 0.4745 0.2731
O6 O 0.29123(19) 0.48006(7) 0.81322(9)
O7 O 0.3175(2) 0.37886(8) 1.07021(9)
O8 O 0.1200(2) 0.29365(8) 1.00587(9)
O9 O -0.0761(2) 0.33280(8) 0.71543(9)
O10 O -0.0074(2) 0.38059(8) 0.61431(10)
C20 C 0.2047(3) 0.46347(11) 0.74051(13)
C21 C 0.1169(3) 0.40802(11) 0.74677(13)
C22 C 0.1506(3) 0.38981(11) 0.82928(13)
C23 C 0.2570(3) 0.43451(11) 0.86665(13)
C24 C 0.3202(3) 0.43506(11) 0.94633(14)
H19 H 0.3925 0.4663 0.9687
C25 C 0.2696(3) 0.38625(11) 0.99115(13)
C26 C 0.1594(3) 0.33910(11) 0.95490(14)
C27 C 0.0998(3) 0.34031(11) 0.87497(14)
H20 H 0.0278 0.3092 0.8518
C28 C 0.4407(3) 0.41817(12) 1.10874(15)
H21 H 0.5217 0.4064 1.0875
H22 H 0.4639 0.4082 1.1640
H23 H 0.4195 0.4663 1.1007
C29 C 0.0140(3) 0.24314(12) 0.97223(15)
H24 H -0.0760 0.2656 0.9486
H25 H 0.0001 0.2123 1.0126
H26 H 0.0467 0.2176 0.9329
C30 C 0.0077(3) 0.37479(11) 0.68464(14)
C31 C -0.1837(3) 0.29355(12) 0.65934(14)
H27 H -0.1390 0.2699 0.6225
H28 H -0.2589 0.3238 0.6301
C32 C -0.2466(3) 0.24254(12) 0.70610(15)
H29 H -0.1719 0.2117 0.7329
H30 H -0.3218 0.2167 0.6715
H31 H -0.2864 0.2665 0.7439
C33 C 0.2179(3) 0.51186(11) 0.67840(13)
C34 C 0.1839(3) 0.49493(12) 0.59858(14)
H32 H 0.1564 0.4501 0.5830
C35 C 0.1908(3) 0.54395(12) 0.54260(14)
H33 H 0.1659 0.5322 0.4896
C36 C 0.2345(3) 0.61044(12) 0.56473(14)
H34 H 0.2381 0.6434 0.5268
C37 C 0.2727(3) 0.62771(11) 0.64310(14)
H35 H 0.3049 0.6721 0.6581
C38 C 0.2636(3) 0.57937(11) 0.69979(15)
H36 H 0.2880 0.5918 0.7526
loop_
_geom_bond_atom_site_label_1
_geom_bond_atom_site_label_2
_geom_bond_site_symmetry_1
_geom_bond_site_symmetry_2
O1 C1 1_555 1_555
O2 C6 1_555 1_555
O3 C7 1_555 1_555
O4 C11 1_555 1_555
O5 C11 1_555 1_555
O6 C20 1_555 1_555
O7 C25 1_555 1_555
O8 C26 1_555 1_555
O9 C30 1_555 1_555
O10 C30 1_555 1_555
C1 C2 1_555 1_555
C2 C3 1_555 1_555
C3 C4 1_555 1_555
C4 O1 1_555 1_555
C5 C4 1_555 1_555
H1 C5 1_555 1_555
C6 C5 1_555 1_555
C7 C6 1_555 1_555
C8 C3 1_555 1_555
H2 C8 1_555 1_555
C9 O2 1_555 1_555
H3 C9 1_555 1_555
H4 C9 1_555 1_555
H5 C9 1_555 1_555
C10 O3 1_555 1_555
H6 C10 1_555 1_555
H7 C10 1_555 1_555
H8 C10 1_555 1_555
C11 C2 1_555 1_555
C12 O4 1_555 1_555
H9 C12 1_555 1_555
H10 C12 1_555 1_555
C13 C12 1_555 1_555
H11 C13 1_555 1_555
H12 C13 1_555 1_555
H13 C13 1_555 1_555
C14 C1 1_555 1_555
C15 C14 1_555 1_555
H14 C15 1_555 1_555
C16 C15 1_555 1_555
H15 C16 1_555 1_555
C17 C16 1_555 1_555
H16 C17 1_555 1_555
C18 C17 1_555 1_555
H17 C18 1_555 1_555
C19 C14 1_555 1_555
H18 C19 1_555 1_555
C20 C21 1_555 1_555
C21 C22 1_555 1_555
C22 C23 1_555 1_555
C23 O6 1_555 1_555
C24 C23 1_555 1_555
H19 C24 1_555 1_555
C25 C24 1_555 1_555
C26 C25 1_555 1_555
C27 C22 1_555 1_555
H20 C27 1_555 1_555
C28 O7 1_555 1_555
H21 C28 1_555 1_555
H22 C28 1_555 1_555
H23 C28 1_555 1_555
C29 O8 1_555 1_555
H24 C29 1_555 1_555
H25 C29 1_555 1_555
H26 C29 1_555 1_555
C30 C21 1_555 1_555
C31 O9 1_555 1_555
H27 C31 1_555 1_555
H28 C31 1_555 1_555
C32 C31 1_555 1_555
H29 C32 1_555 1_555
H30 C32 1_555 1_555
H31 C32 1_555 1_555
C33 C20 1_555 1_555
C34 C33 1_555 1_555
H32 C34 1_555 1_555
C35 C34 1_555 1_555
H33 C35 1_555 1_555
C36 C35 1_555 1_555
H34 C36 1_555 1_555
C37 C36 1_555 1_555
H35 C37 1_555 1_555
C38 C33 1_555 1_555
H36 C38 1_555 1_555
C7 C8 1_555 1_555
C18 C19 1_555 1_555
C26 C27 1_555 1_555
C37 C38 1_555 1_555

#END
