
#######################################################################
#
#                 Cambridge Crystallographic Data Centre
#                                CCDC 
#
#######################################################################
#
# If this CIF has been generated from an entry in the Cambridge 
# Structural Database, then it will include bibliographic, chemical, 
# crystal, experimental, refinement or atomic coordinate data resulting 
# from the CCDC's data processing and validation procedures.
#
#######################################################################

data_HUQPOY
_chemical_formula_moiety         'C28 H34 N6 O2,4(H2 O1)'
_chemical_name_systematic        
"N,N'-bis(Antipyryl-4-methyl)piperazine tetrahydrate"
_symmetry_cell_setting           triclinic
_symmetry_space_group_name_H-M   'P -1'
_symmetry_Int_Tables_number      2
_space_group_name_Hall           '-P 1'
loop_
_symmetry_equiv_pos_site_id
_symmetry_equiv_pos_as_xyz
1 x,y,z
2 -x,-y,-z
_cell_length_a                   7.049(2)
_cell_length_b                   9.834(2)
_cell_length_c                   11.989(3)
_cell_angle_alpha                68.72(2)
_cell_angle_beta                 73.62(2)
_cell_angle_gamma                78.49(2)
_cell_volume                     738.576
_exptl_crystal_colour            white
_exptl_crystal_description       polyhedral
_cell_formula_units_Z            1
loop_
_atom_site_label
_atom_site_type_symbol
_atom_site_fract_x
_atom_site_fract_y
_atom_site_fract_z
C1 C 1.0689(4) 0.3622(3) 0.0757(3)
H1 H 1.1902(33) 0.3265(23) 0.0178(22)
H2 H 1.0573(35) 0.2827(26) 0.1631(23)
C2 C 1.0953(5) 0.5042(3) 0.0888(3)
H3 H 0.9727(36) 0.5303(25) 0.1515(22)
H4 H 1.2267(34) 0.4922(24) 0.1139(21)
N1 N 0.8882(3) 0.3781(2) 0.0319(2)
C3 C 0.8654(5) 0.2402(3) 0.0160(3)
H5 H 0.9845(37) 0.2133(26) -0.0467(25)
H6 H 0.7465(37) 0.2587(26) -0.0162(22)
C4 C 0.8456(4) 0.1122(3) 0.1327(3)
C5 C 0.6786(4) 0.0783(3) 0.2225(3)
C6 C 0.4708(6) 0.1533(5) 0.2268(5)
H7 H 0.4474(52) 0.2535(43) 0.1596(35)
H8 H 0.4344(52) 0.1720(37) 0.2961(33)
H9 H 0.3804(56) 0.0940(41) 0.2350(36)
N2 N 0.7203(3) -0.0424(2) 0.3190(2)
C7 C 0.5814(6) -0.1545(5) 0.3907(4)
H10 H 0.6401(42) -0.2251(32) 0.4578(28)
H11 H 0.4542(64) -0.0907(47) 0.4131(40)
H12 H 0.5688(51) -0.2070(36) 0.3407(34)
N3 N 0.9197(3) -0.0968(2) 0.2796(2)
C8 C 1.0227(4) -0.1985(3) 0.3684(3)
C9 C 1.1443(5) -0.3154(3) 0.3426(3)
H13 H 1.1651(40) -0.3268(29) 0.2617(26)
C10 C 1.2448(5) -0.4153(4) 0.4279(4)
H14 H 1.3342(47) -0.5022(36) 0.4112(30)
C11 C 1.2196(6) -0.3994(5) 0.5394(4)
H15 H 1.3048(46) -0.4737(32) 0.6009(28)
C12 C 1.0989(6) -0.2824(5) 0.5668(3)
H16 H 1.0774(52) -0.2619(36) 0.6430(35)
C13 C 0.9971(5) -0.1805(4) 0.4808(3)
H17 H 0.9138(44) -0.0951(31) 0.4992(27)
C14 C 1.0042(4) 0.0026(3) 0.1681(3)
O1 O 1.1856(3) -0.0082(2) 0.1184(2)
N1A N 1.1118(3) 0.6219(2) -0.0319(2)
C1A C 0.9311(4) 0.6378(3) -0.0757(3)
H1A H 0.8098(33) 0.6735(23) -0.0178(22)
H2A H 0.9427(35) 0.7173(26) -0.1631(23)
C2A C 0.9047(5) 0.4958(3) -0.0888(3)
H3A H 1.0273(36) 0.4697(25) -0.1515(22)
H4A H 0.7733(34) 0.5078(24) -0.1139(21)
C3A C 1.1346(5) 0.7598(3) -0.0160(3)
H5A H 1.0155(37) 0.7867(26) 0.0467(25)
H6A H 1.2535(37) 0.7413(26) 0.0162(22)
C4A C 1.1544(4) 0.8878(3) -0.1327(3)
C5A C 1.3214(4) 0.9217(3) -0.2225(3)
C6A C 1.5292(6) 0.8467(5) -0.2268(5)
H7A H 1.5526(52) 0.7465(43) -0.1596(35)
H8A H 1.5656(52) 0.8280(37) -0.2961(33)
H9A H 1.6196(56) 0.9060(41) -0.2350(36)
N2A N 1.2797(3) 1.0424(2) -0.3190(2)
C7A C 1.4186(6) 1.1545(5) -0.3907(4)
H10A H 1.3599(42) 1.2251(32) -0.4578(28)
H11A H 1.5458(64) 1.0907(47) -0.4131(40)
H12A H 1.4312(51) 1.2070(36) -0.3407(34)
N3A N 1.0803(3) 1.0968(2) -0.2796(2)
C8A C 0.9773(4) 1.1985(3) -0.3684(3)
C9A C 0.8557(5) 1.3154(3) -0.3426(3)
H13A H 0.8349(40) 1.3268(29) -0.2617(26)
C10A C 0.7552(5) 1.4153(4) -0.4279(4)
H14A H 0.6658(47) 1.5022(36) -0.4112(30)
C11A C 0.7804(6) 1.3994(5) -0.5394(4)
H15A H 0.6952(46) 1.4737(32) -0.6009(28)
C12A C 0.9011(6) 1.2824(5) -0.5668(3)
H16A H 0.9226(52) 1.2619(36) -0.6430(35)
C13A C 1.0029(5) 1.1805(4) -0.4808(3)
H17A H 1.0862(44) 1.0951(31) -0.4992(27)
C14A C 0.9958(4) 0.9974(3) -0.1681(3)
O1A O 0.8144(3) 1.0082(2) -0.1184(2)
O2 O 1.5590(5) -0.1784(3) 0.1109(3)
H18 H 1.6209(74) -0.1345(50) 0.0560(45)
H19 H 1.4164(78) -0.1283(60) 0.1200(51)
O3 O 0.5460(4) 0.4996(3) 0.1928(3)
H20 H 0.6558(69) 0.4581(56) 0.1429(49)
H21 H 0.5558(54) 0.5977(41) 0.1689(35)
loop_
_geom_bond_atom_site_label_1
_geom_bond_atom_site_label_2
_geom_bond_site_symmetry_1
_geom_bond_site_symmetry_2
C1 H1 1_555 1_555
H2 C1 1_555 1_555
C2 C1 1_555 1_555
H3 C2 1_555 1_555
H4 C2 1_555 1_555
N1 C1 1_555 1_555
C3 N1 1_555 1_555
H5 C3 1_555 1_555
H6 C3 1_555 1_555
C4 C3 1_555 1_555
C5 C4 1_555 1_555
C6 C5 1_555 1_555
H7 C6 1_555 1_555
H8 C6 1_555 1_555
H9 C6 1_555 1_555
N2 C5 1_555 1_555
C7 N2 1_555 1_555
H10 C7 1_555 1_555
H11 C7 1_555 1_555
H12 C7 1_555 1_555
N3 N2 1_555 1_555
C8 N3 1_555 1_555
C9 C8 1_555 1_555
H13 C9 1_555 1_555
C10 C9 1_555 1_555
H14 C10 1_555 1_555
C11 C10 1_555 1_555
H15 C11 1_555 1_555
C12 C11 1_555 1_555
H16 C12 1_555 1_555
C13 C8 1_555 1_555
H17 C13 1_555 1_555
C14 C4 1_555 1_555
O1 C14 1_555 1_555
O2 H18 1_555 1_555
H19 O2 1_555 1_555
O3 H20 1_555 1_555
H21 O3 1_555 1_555
N1A C2 1_555 1_555
C1A N1A 1_555 1_555
H1A C1A 1_555 1_555
H2A C1A 1_555 1_555
C2A N1 1_555 1_555
H3A C2A 1_555 1_555
H4A C2A 1_555 1_555
C3A N1A 1_555 1_555
H5A C3A 1_555 1_555
H6A C3A 1_555 1_555
C4A C3A 1_555 1_555
C5A C4A 1_555 1_555
C6A C5A 1_555 1_555
H7A C6A 1_555 1_555
H8A C6A 1_555 1_555
H9A C6A 1_555 1_555
N2A C5A 1_555 1_555
C7A N2A 1_555 1_555
H10A C7A 1_555 1_555
H11A C7A 1_555 1_555
H12A C7A 1_555 1_555
N3A N2A 1_555 1_555
C8A N3A 1_555 1_555
C9A C8A 1_555 1_555
H13A C9A 1_555 1_555
C10A C9A 1_555 1_555
H14A C10A 1_555 1_555
C11A C10A 1_555 1_555
H15A C11A 1_555 1_555
C12A C11A 1_555 1_555
H16A C12A 1_555 1_555
C13A C8A 1_555 1_555
H17A C13A 1_555 1_555
C14A C4A 1_555 1_555
O1A C14A 1_555 1_555
N3 C14 1_555 1_555
C12 C13 1_555 1_555
C1A C2A 1_555 1_555
N3A C14A 1_555 1_555
C12A C13A 1_555 1_555

#END
