
#######################################################################
#
#                 Cambridge Crystallographic Data Centre
#                                CCDC 
#
#######################################################################
#
# If this CIF has been generated from an entry in the Cambridge 
# Structural Database, then it will include bibliographic, chemical, 
# crystal, experimental, refinement or atomic coordinate data resulting 
# from the CCDC's data processing and validation procedures.
#
#######################################################################

data_HURCOM
_chemical_name_common            'Neochamaejasmin methanol solvate'
_chemical_formula_moiety         'C30 H22 O10,C1 H4 O1'
_chemical_name_systematic        
"3,3''-Bi(4',5,7-trihydroxyflavonone) methanol solvate"
_symmetry_cell_setting           monoclinic
_symmetry_space_group_name_H-M   'P 21'
_symmetry_Int_Tables_number      4
_space_group_name_Hall           'P 2yb'
loop_
_symmetry_equiv_pos_site_id
_symmetry_equiv_pos_as_xyz
1 x,y,z
2 -x,1/2+y,-z
_cell_length_a                   7.6678(12)
_cell_length_b                   17.279(3)
_cell_length_c                   10.3848(16)
_cell_angle_alpha                90
_cell_angle_beta                 104.739(3)
_cell_angle_gamma                90
_cell_volume                     1330.63
_exptl_crystal_colour            yellow
_exptl_crystal_description       prism
_cell_formula_units_Z            2
loop_
_atom_site_label
_atom_site_type_symbol
_atom_site_fract_x
_atom_site_fract_y
_atom_site_fract_z
O1 O -0.35152(18) -0.07361(8) 0.77814(12)
O2 O -0.21991(18) -0.16562(8) 0.45245(12)
O3 O -0.3059(2) -0.03166(9) 0.32939(13)
H1 H -0.2702 -0.0765 0.3389
O4 O -0.5121(2) 0.16634(8) 0.56157(18)
H2 H -0.5597 0.1718 0.6233
O5 O -0.2486(2) -0.28983(9) 1.27556(15)
H3 H -0.2034 -0.2593 1.3351
C1 C -0.3236(2) -0.15587(11) 0.76443(16)
H5 H -0.4358 -0.1773 0.7085
C2 C -0.1747(2) -0.16944(11) 0.69151(16)
H6 H -0.1621 -0.2253 0.6806
C3 C -0.2435(2) -0.13347(10) 0.55383(16)
C4 C -0.3453(2) -0.00723(12) 0.44177(18)
C5 C -0.4024(3) 0.06807(12) 0.4487(2)
H7 H -0.4097 0.1017 0.3777
C6 C -0.4486(3) 0.09311(11) 0.5623(2)
C7 C -0.4328(2) 0.04481(11) 0.67261(19)
H8 H -0.4638 0.0625 0.7484
C8 C -0.3704(2) -0.02946(11) 0.66676(17)
C9 C -0.3254(2) -0.05828(11) 0.55175(17)
C11 C -0.2953(2) -0.19095(10) 0.90135(17)
C12 C -0.3652(3) -0.26318(13) 0.9161(2)
H12 H -0.4240 -0.2907 0.8406
C13 C -0.3501(3) -0.29576(13) 1.0409(2)
H13 H -0.3998 -0.3441 1.0485
C14 C -0.2603(3) -0.25566(12) 1.15369(19)
C15 C -0.1855(3) -0.18429(11) 1.14150(18)
H14 H -0.1215 -0.1581 1.2170
C16 C -0.2059(2) -0.15150(11) 1.01634(18)
H15 H -0.1592 -0.1025 1.0092
O7 O 0.18755(18) -0.21732(7) 0.65111(12)
O8 O 0.04180(18) 0.00223(7) 0.73105(13)
O9 O 0.1214(2) 0.05005(8) 0.51133(15)
H16 H 0.1008 0.0553 0.5846
O10 O 0.3220(2) -0.14324(10) 0.25726(15)
H17 H 0.2996 -0.1096 0.1996
O11 O 0.0406(2) -0.47183(8) 1.03681(15)
H18 H 0.0408 -0.4642 1.1148
C17 C 0.1678(2) -0.19600(10) 0.78085(17)
H19 H 0.2807 -0.1721 0.8309
C18 C 0.0150(2) -0.13595(10) 0.76682(16)
H20 H 0.0090 -0.1205 0.8564
C19 C 0.0703(2) -0.06517(10) 0.69783(16)
C20 C 0.1648(2) -0.02421(11) 0.49514(18)
C21 C 0.2191(3) -0.04426(12) 0.38269(19)
H21 H 0.2262 -0.0067 0.3201
C22 C 0.2629(2) -0.12012(13) 0.36313(18)
C23 C 0.2528(3) -0.17875(12) 0.45480(18)
H22 H 0.2834 -0.2296 0.4409
C24 C 0.1962(2) -0.15861(10) 0.56522(16)
C25 C 0.1490(2) -0.08179(10) 0.59007(17)
C26 C 0.1405(2) -0.27004(10) 0.85031(17)
C27 C 0.1028(3) -0.33963(11) 0.78200(18)
H23 H 0.0957 -0.3413 0.6913
C28 C 0.0756(3) -0.40632(12) 0.84753(19)
H24 H 0.0541 -0.4529 0.8013
C29 C 0.0802(3) -0.40425(11) 0.98139(18)
C30 C 0.1219(3) -0.33532(11) 1.05227(18)
H25 H 0.1290 -0.3338 1.1430
C31 C 0.1528(3) -0.26914(11) 0.98622(18)
H26 H 0.1823 -0.2233 1.0336
O6 O 0.2921(3) -0.03970(18) 0.0697(2)
H4 H 0.1974 -0.0203 0.0270
C10 C 0.4320(4) -0.0140(2) 0.0200(3)
H9 H 0.3917 -0.0096 -0.0751
H10 H 0.5301 -0.0502 0.0428
H11 H 0.4719 0.0357 0.0577
loop_
_geom_bond_atom_site_label_1
_geom_bond_atom_site_label_2
_geom_bond_site_symmetry_1
_geom_bond_site_symmetry_2
O1 C1 1_555 1_555
O2 C3 1_555 1_555
O3 H1 1_555 1_555
O4 H2 1_555 1_555
O5 H3 1_555 1_555
O6 H4 1_555 1_555
C1 H5 1_555 1_555
C2 C1 1_555 1_555
H6 C2 1_555 1_555
C3 C2 1_555 1_555
C4 O3 1_555 1_555
C5 C4 1_555 1_555
H7 C5 1_555 1_555
C6 O4 1_555 1_555
C7 C6 1_555 1_555
H8 C7 1_555 1_555
C8 O1 1_555 1_555
C9 C3 1_555 1_555
C10 O6 1_555 1_555
H9 C10 1_555 1_555
H10 C10 1_555 1_555
H11 C10 1_555 1_555
C11 C1 1_555 1_555
C12 C11 1_555 1_555
H12 C12 1_555 1_555
C13 C12 1_555 1_555
H13 C13 1_555 1_555
C14 O5 1_555 1_555
C15 C14 1_555 1_555
H14 C15 1_555 1_555
C16 C11 1_555 1_555
H15 C16 1_555 1_555
O7 C17 1_555 1_555
O8 C19 1_555 1_555
O9 H16 1_555 1_555
O10 H17 1_555 1_555
O11 H18 1_555 1_555
C17 H19 1_555 1_555
C18 C2 1_555 1_555
H20 C18 1_555 1_555
C19 C18 1_555 1_555
C20 O9 1_555 1_555
C21 C20 1_555 1_555
H21 C21 1_555 1_555
C22 O10 1_555 1_555
C23 C22 1_555 1_555
H22 C23 1_555 1_555
C24 O7 1_555 1_555
C25 C19 1_555 1_555
C26 C17 1_555 1_555
C27 C26 1_555 1_555
H23 C27 1_555 1_555
C28 C27 1_555 1_555
H24 C28 1_555 1_555
C29 O11 1_555 1_555
C30 C29 1_555 1_555
H25 C30 1_555 1_555
C31 C26 1_555 1_555
H26 C31 1_555 1_555
C4 C9 1_555 1_555
C5 C6 1_555 1_555
C7 C8 1_555 1_555
C8 C9 1_555 1_555
C13 C14 1_555 1_555
C15 C16 1_555 1_555
C17 C18 1_555 1_555
C20 C25 1_555 1_555
C21 C22 1_555 1_555
C23 C24 1_555 1_555
C24 C25 1_555 1_555
C28 C29 1_555 1_555
C30 C31 1_555 1_555

#END
