
#######################################################################
#
#                 Cambridge Crystallographic Data Centre
#                                CCDC 
#
#######################################################################
#
# If this CIF has been generated from an entry in the Cambridge 
# Structural Database, then it will include bibliographic, chemical, 
# crystal, experimental, refinement or atomic coordinate data resulting 
# from the CCDC's data processing and validation procedures.
#
#######################################################################

data_HUSDAB
_chemical_formula_moiety         'C12 H12 F2 N4'
_chemical_name_systematic        
N^4^-ethyl-2,5-difluoro-N^6^-phenylpyrimidine-4,6-diamine
_symmetry_cell_setting           orthorhombic
_symmetry_space_group_name_H-M   'P b c a'
_symmetry_Int_Tables_number      61
_space_group_name_Hall           '-P 2ac 2ab'
loop_
_symmetry_equiv_pos_site_id
_symmetry_equiv_pos_as_xyz
1 x,y,z
2 1/2-x,-y,1/2+z
3 -x,1/2+y,1/2-z
4 1/2+x,1/2-y,-z
5 -x,-y,-z
6 1/2+x,y,1/2-z
7 x,1/2-y,1/2+z
8 1/2-x,1/2+y,z
_cell_length_a                   11.2752(4)
_cell_length_b                   8.5143(3)
_cell_length_c                   24.4971(10)
_cell_angle_alpha                90
_cell_angle_beta                 90
_cell_angle_gamma                90
_cell_volume                     2351.73
_exptl_crystal_colour            colorless
_exptl_crystal_description       prism
_chemical_melting_point          '131-132 deg.C'
_cell_formula_units_Z            8
_exptl_crystal_recrystallization_method n-hexane
loop_
_atom_site_label
_atom_site_type_symbol
_atom_site_fract_x
_atom_site_fract_y
_atom_site_fract_z
F1 F 0.49124(7) 0.79049(9) 0.56005(3)
F2 F 0.33423(7) 0.21502(8) 0.59356(3)
N1 N 0.38058(9) 0.59260(11) 0.53015(4)
N2 N 0.49232(9) 0.57899(12) 0.61328(4)
N3 N 0.26528(9) 0.38273(12) 0.50124(4)
N4 N 0.48306(9) 0.35380(13) 0.66864(4)
C1 C 0.45286(10) 0.64283(13) 0.56831(5)
C2 C 0.45118(10) 0.43143(13) 0.62217(4)
C3 C 0.37581(10) 0.36305(13) 0.58462(5)
C4 C 0.33905(9) 0.44460(13) 0.53835(4)
C5 C 0.21838(11) 0.47602(14) 0.45617(5)
C6 C 0.14751(14) 0.37515(16) 0.41770(6)
C7 C 0.55721(10) 0.41109(14) 0.71076(5)
C8 C 0.65824(11) 0.49953(16) 0.69954(5)
C9 C 0.72892(12) 0.55284(17) 0.74221(6)
C10 C 0.70107(13) 0.51546(17) 0.79585(5)
C11 C 0.60259(13) 0.42396(18) 0.80664(5)
C12 C 0.53002(12) 0.37150(16) 0.76449(5)
H1 H 0.2306(14) 0.292(2) 0.5091(6)
H2 H 0.4423(15) 0.268(2) 0.6764(6)
H3 H 0.6781(15) 0.526(2) 0.6624(7)
H4 H 0.7976(17) 0.617(2) 0.7342(7)
H5 H 0.7502(16) 0.552(2) 0.8259(6)
H6 H 0.5858(17) 0.397(2) 0.8435(8)
H7 H 0.4633(15) 0.306(2) 0.7720(7)
H8 H 0.2870(16) 0.524(2) 0.4349(7)
H9 H 0.1712(16) 0.559(2) 0.4711(7)
H10 H 0.1143(17) 0.441(2) 0.3892(8)
H11 H 0.1977(17) 0.293(2) 0.3999(7)
H12 H 0.0855(19) 0.321(2) 0.4376(8)
loop_
_geom_bond_atom_site_label_1
_geom_bond_atom_site_label_2
_geom_bond_site_symmetry_1
_geom_bond_site_symmetry_2
F1 C1 1_555 1_555
F2 C3 1_555 1_555
N1 C1 1_555 1_555
N2 C1 1_555 1_555
N3 C4 1_555 1_555
N4 C2 1_555 1_555
C2 N2 1_555 1_555
C3 C2 1_555 1_555
C4 N1 1_555 1_555
C5 N3 1_555 1_555
C6 C5 1_555 1_555
C7 N4 1_555 1_555
C8 C7 1_555 1_555
C9 C8 1_555 1_555
C10 C9 1_555 1_555
C11 C10 1_555 1_555
C12 C7 1_555 1_555
H1 N3 1_555 1_555
H2 N4 1_555 1_555
H3 C8 1_555 1_555
H4 C9 1_555 1_555
H5 C10 1_555 1_555
H6 C11 1_555 1_555
H7 C12 1_555 1_555
H8 C5 1_555 1_555
H9 C5 1_555 1_555
H10 C6 1_555 1_555
H11 C6 1_555 1_555
H12 C6 1_555 1_555
C3 C4 1_555 1_555
C11 C12 1_555 1_555

#END
