
#######################################################################
#
#                 Cambridge Crystallographic Data Centre
#                                CCDC 
#
#######################################################################
#
# If this CIF has been generated from an entry in the Cambridge 
# Structural Database, then it will include bibliographic, chemical, 
# crystal, experimental, refinement or atomic coordinate data resulting 
# from the CCDC's data processing and validation procedures.
#
#######################################################################

data_HUSDEF
_chemical_formula_moiety         'C12 H11 F2 N3 O1'
_chemical_name_systematic        
6-Ethoxy-2,5-difluoro-N-phenylpyrimidin-4-amine
_symmetry_cell_setting           monoclinic
_symmetry_space_group_name_H-M   'P 21/n'
_symmetry_Int_Tables_number      14
_space_group_name_Hall           '-P 2yn'
loop_
_symmetry_equiv_pos_site_id
_symmetry_equiv_pos_as_xyz
1 x,y,z
2 1/2-x,1/2+y,1/2-z
3 -x,-y,-z
4 1/2+x,1/2-y,1/2+z
_cell_length_a                   7.8769(3)
_cell_length_b                   5.4557(2)
_cell_length_c                   25.5645(10)
_cell_angle_alpha                90
_cell_angle_beta                 90.904(10)
_cell_angle_gamma                90
_cell_volume                     1098.47
_exptl_crystal_colour            colorless
_exptl_crystal_description       prism
_chemical_melting_point          105-106deg.C
_cell_formula_units_Z            4
_exptl_crystal_recrystallization_method n-hexane
loop_
_atom_site_label
_atom_site_type_symbol
_atom_site_fract_x
_atom_site_fract_y
_atom_site_fract_z
F1 F 0.38870(10) -0.20438(15) 0.15288(3)
F2 F 0.05743(10) 0.49831(15) 0.05323(3)
O1 O 0.07521(12) 0.49645(17) 0.15860(4)
N1 N 0.23684(13) 0.1391(2) 0.15844(4)
N2 N 0.30018(14) -0.0511(2) 0.07637(4)
N3 N 0.20046(14) 0.1326(2) -0.00243(4)
C1 C 0.30314(16) -0.0270(2) 0.12736(5)
C2 C 0.21672(15) 0.1298(2) 0.05063(5)
C3 C 0.14363(15) 0.3194(2) 0.07892(5)
C4 C 0.15331(15) 0.3176(2) 0.13271(5)
C5 C 0.08372(19) 0.4895(3) 0.21533(5)
C6 C -0.0270(2) 0.6947(3) 0.23401(6)
C7 C 0.25310(15) -0.0340(2) -0.04104(5)
C8 C 0.34337(16) -0.2493(2) -0.03095(5)
C9 C 0.38995(16) -0.3991(3) -0.07223(5)
C10 C 0.34785(17) -0.3384(3) -0.12355(5)
C11 C 0.25740(17) -0.1239(3) -0.13338(5)
C12 C 0.20942(17) 0.0269(2) -0.09256(5)
H1 H 0.150(2) 0.259(3) -0.0135(7)
H2 H 0.374(2) -0.288(3) 0.0041(7)
H3 H 0.457(2) -0.546(4) -0.0664(7)
H4 H 0.381(2) -0.446(3) -0.1516(7)
H5 H 0.226(2) -0.082(3) -0.1688(6)
H6 H 0.147(2) 0.174(3) -0.0995(7)
H7 H 0.206(2) 0.515(3) 0.2257(7)
H8 H 0.045(2) 0.326(3) 0.2271(7)
H9 H -0.022(2) 0.708(4) 0.2727(8)
H10 H 0.013(2) 0.848(4) 0.2202(7)
H11 H -0.145(3) 0.670(4) 0.2229(8)
loop_
_geom_bond_atom_site_label_1
_geom_bond_atom_site_label_2
_geom_bond_site_symmetry_1
_geom_bond_site_symmetry_2
F1 C1 1_555 1_555
F2 C3 1_555 1_555
O1 C4 1_555 1_555
N1 C1 1_555 1_555
N2 C1 1_555 1_555
N3 C2 1_555 1_555
C2 N2 1_555 1_555
C3 C2 1_555 1_555
C4 N1 1_555 1_555
C5 O1 1_555 1_555
C6 C5 1_555 1_555
C7 N3 1_555 1_555
C8 C7 1_555 1_555
C9 C8 1_555 1_555
C10 C9 1_555 1_555
C11 C10 1_555 1_555
C12 C7 1_555 1_555
H1 N3 1_555 1_555
H2 C8 1_555 1_555
H3 C9 1_555 1_555
H4 C10 1_555 1_555
H5 C11 1_555 1_555
H6 C12 1_555 1_555
H7 C5 1_555 1_555
H8 C5 1_555 1_555
H9 C6 1_555 1_555
H10 C6 1_555 1_555
H11 C6 1_555 1_555
C3 C4 1_555 1_555
C11 C12 1_555 1_555

#END
