
#######################################################################
#
#                 Cambridge Crystallographic Data Centre
#                                CCDC 
#
#######################################################################
#
# If this CIF has been generated from an entry in the Cambridge 
# Structural Database, then it will include bibliographic, chemical, 
# crystal, experimental, refinement or atomic coordinate data resulting 
# from the CCDC's data processing and validation procedures.
#
#######################################################################

data_HUTHOV
_chemical_formula_moiety         'C13 H9 Cl1 N4 O5'
_chemical_name_systematic        
4-chloro-2-(((2,4-dinitrophenyl)hydrazono)methyl)phenol
_symmetry_cell_setting           monoclinic
_symmetry_space_group_name_H-M   'P 21/c'
_symmetry_Int_Tables_number      14
_space_group_name_Hall           '-P 2ybc'
loop_
_symmetry_equiv_pos_site_id
_symmetry_equiv_pos_as_xyz
1 x,y,z
2 -x,1/2+y,1/2-z
3 -x,-y,-z
4 x,1/2-y,1/2+z
_cell_length_a                   9.7170(5)
_cell_length_b                   6.0570(3)
_cell_length_c                   23.5103(13)
_cell_angle_alpha                90
_cell_angle_beta                 99.037(2)
_cell_angle_gamma                90
_cell_volume                     1366.54
_cell_formula_units_Z            4
loop_
_atom_site_label
_atom_site_type_symbol
_atom_site_fract_x
_atom_site_fract_y
_atom_site_fract_z
Cl1 Cl 1.10512(5) 1.84964(8) 0.05800(2)
C1 C 0.94493(18) 1.2932(3) 0.11323(8)
C2 C 0.63565(18) 0.6859(3) 0.11936(8)
C3 C 0.55327(18) 0.2962(3) 0.16852(8)
C4 C 0.51524(17) 0.5657(3) 0.09460(8)
C5 C 0.47541(18) 0.3721(3) 0.11906(8)
H1 H 0.3968 0.2953 0.1020
C6 C 0.82714(18) 1.1538(3) 0.09259(8)
H2 H 0.7715 1.1893 0.0579
C7 C 0.96878(18) 1.4787(3) 0.08044(8)
H3 H 0.9106 1.5071 0.0459
C8 C 0.71274(18) 0.5964(3) 0.17003(8)
H4 H 0.7930 0.6686 0.1873
C9 C 1.07766(18) 1.6183(3) 0.09918(8)
C10 C 0.67289(18) 0.4070(3) 0.19445(8)
H5 H 0.7250 0.3523 0.2281
C11 C 1.03549(19) 1.2526(3) 0.16487(8)
C12 C 1.1446(2) 1.3962(4) 0.18253(9)
H6 H 1.2043 1.3689 0.2168
C13 C 1.1663(2) 1.5790(3) 0.15022(8)
H7 H 1.2397 1.6749 0.1626
N1 N 0.42821(15) 0.6361(3) 0.04230(7)
N2 N 0.67727(15) 0.8724(2) 0.09566(7)
H8 H 0.6289 0.9236 0.0647
N3 N 0.79615(15) 0.9821(2) 0.12034(7)
N4 N 0.51010(16) 0.0946(3) 0.19406(7)
O1 O 0.33987(13) 0.5081(2) 0.01791(6)
O2 O 0.44581(13) 0.8232(2) 0.02301(6)
O3 O 0.58415(14) 0.0205(2) 0.23692(6)
O4 O 1.02030(15) 1.0769(2) 0.19925(6)
H9 H 0.9536 1.0023 0.1846
O5 O 0.40236(14) 0.0043(2) 0.17123(6)
loop_
_geom_bond_atom_site_label_1
_geom_bond_atom_site_label_2
_geom_bond_site_symmetry_1
_geom_bond_site_symmetry_2
Cl1 C9 1_555 1_555
C1 C6 1_555 1_555
C2 C4 1_555 1_555
C3 C5 1_555 1_555
C4 C5 1_555 1_555
C5 H1 1_555 1_555
C6 H2 1_555 1_555
C7 C1 1_555 1_555
H3 C7 1_555 1_555
C8 C2 1_555 1_555
H4 C8 1_555 1_555
C9 C7 1_555 1_555
C10 C3 1_555 1_555
H5 C10 1_555 1_555
C11 C1 1_555 1_555
C12 C11 1_555 1_555
H6 C12 1_555 1_555
C13 C9 1_555 1_555
H7 C13 1_555 1_555
N1 C4 1_555 1_555
N2 C2 1_555 1_555
H8 N2 1_555 1_555
N3 C6 1_555 1_555
N4 C3 1_555 1_555
O1 N1 1_555 1_555
O2 N1 1_555 1_555
O3 N4 1_555 1_555
O4 C11 1_555 1_555
H9 O4 1_555 1_555
O5 N4 1_555 1_555
C8 C10 1_555 1_555
C12 C13 1_555 1_555
N2 N3 1_555 1_555

#END
