
#######################################################################
#
#                 Cambridge Crystallographic Data Centre
#                                CCDC 
#
#######################################################################
#
# If this CIF has been generated from an entry in the Cambridge 
# Structural Database, then it will include bibliographic, chemical, 
# crystal, experimental, refinement or atomic coordinate data resulting 
# from the CCDC's data processing and validation procedures.
#
#######################################################################

data_HUTNAN
_chemical_formula_moiety         'C10 H13 N1 O3'
_chemical_name_systematic        2-((3-hydroxybenzyl)ammonio)propanoate
_symmetry_cell_setting           orthorhombic
_symmetry_space_group_name_H-M   'P 21 21 21'
_symmetry_Int_Tables_number      19
_space_group_name_Hall           'P 2ac 2ab'
loop_
_symmetry_equiv_pos_site_id
_symmetry_equiv_pos_as_xyz
1 x,y,z
2 1/2-x,-y,1/2+z
3 1/2+x,1/2-y,-z
4 -x,1/2+y,1/2-z
_cell_length_a                   5.82970(10)
_cell_length_b                   10.2036(2)
_cell_length_c                   16.5382(3)
_cell_angle_alpha                90
_cell_angle_beta                 90
_cell_angle_gamma                90
_cell_volume                     983.757
_exptl_crystal_colour            colorless
_exptl_crystal_description       block
_cell_formula_units_Z            4
loop_
_atom_site_label
_atom_site_type_symbol
_atom_site_fract_x
_atom_site_fract_y
_atom_site_fract_z
O1 O 0.00250(18) 0.63668(11) 0.21701(6)
H1 H 0.1260 0.6482 0.2397
N1 N 0.20259(17) 1.15524(11) 0.12618(7)
H2 H 0.2086 1.1323 0.1787
H3 H 0.0601 1.1847 0.1158
O2 O 0.61410(19) 1.15452(12) 0.20345(6)
O3 O 0.77444(17) 1.25466(11) 0.09727(7)
C1 C 0.1230(2) 0.83380(14) 0.14821(8)
H4 H 0.2568 0.8382 0.1787
C2 C -0.0305(2) 0.73227(14) 0.16087(8)
C3 C -0.2305(2) 0.72556(14) 0.11475(9)
H5 H -0.3346 0.6577 0.1229
C4 C 0.6086(2) 1.21924(14) 0.13954(8)
C5 C -0.1211(3) 0.92145(14) 0.04477(9)
H6 H -0.1522 0.9850 0.0060
C6 C 0.3703(2) 1.26315(13) 0.11116(8)
H7 H 0.3752 1.2827 0.0532
C7 C -0.2732(2) 0.81977(14) 0.05709(9)
H8 H -0.4060 0.8148 0.0261
C8 C 0.0789(2) 0.92866(14) 0.09048(8)
C9 C 0.2483(3) 1.03726(13) 0.07539(9)
H9 H 0.4018 1.0054 0.0866
H10 H 0.2421 1.0620 0.0188
C10 C 0.2965(3) 1.38496(15) 0.15715(11)
H11 H 0.1440 1.4091 0.1411
H12 H 0.4000 1.4555 0.1453
H13 H 0.2989 1.3672 0.2142
loop_
_geom_bond_atom_site_label_1
_geom_bond_atom_site_label_2
_geom_bond_site_symmetry_1
_geom_bond_site_symmetry_2
O1 H1 1_555 1_555
N1 H2 1_555 1_555
H3 N1 1_555 1_555
O2 C4 1_555 1_555
O3 C4 1_555 1_555
C1 H4 1_555 1_555
C2 O1 1_555 1_555
C3 C2 1_555 1_555
H5 C3 1_555 1_555
C4 C6 1_555 1_555
C5 H6 1_555 1_555
C6 N1 1_555 1_555
H7 C6 1_555 1_555
C7 C3 1_555 1_555
H8 C7 1_555 1_555
C8 C1 1_555 1_555
C9 N1 1_555 1_555
H9 C9 1_555 1_555
H10 C9 1_555 1_555
C10 C6 1_555 1_555
H11 C10 1_555 1_555
H12 C10 1_555 1_555
H13 C10 1_555 1_555
C1 C2 1_555 1_555
C5 C7 1_555 1_555
C5 C8 1_555 1_555
C8 C9 1_555 1_555

#END
