
#######################################################################
#
#                 Cambridge Crystallographic Data Centre
#                                CCDC 
#
#######################################################################
#
# If this CIF has been generated from an entry in the Cambridge 
# Structural Database, then it will include bibliographic, chemical, 
# crystal, experimental, refinement or atomic coordinate data resulting 
# from the CCDC's data processing and validation procedures.
#
#######################################################################

data_HUTYIG
_chemical_formula_moiety         
'2(C12 H11 N4 1+),C12 H10 N4,2(C8 H6 O4),2(C8 H5 O4 1-)'
_chemical_name_systematic        
"bis(1-(4-(1H-imidazol-1-yl)phenyl)-1H-imidazol-3-ium) 1,1'-(1,4-phenylene)bis(1H-imidazole) bis(isophthalic acid) bis(3-carboxybenzoate)"
_symmetry_cell_setting           triclinic
_symmetry_space_group_name_H-M   'P -1'
_symmetry_Int_Tables_number      2
_space_group_name_Hall           '-P 1'
loop_
_symmetry_equiv_pos_site_id
_symmetry_equiv_pos_as_xyz
1 x,y,z
2 -x,-y,-z
_cell_length_a                   7.563(3)
_cell_length_b                   11.686(4)
_cell_length_c                   17.136(9)
_cell_angle_alpha                104.994(18)
_cell_angle_beta                 93.587(18)
_cell_angle_gamma                98.338(15)
_cell_volume                     1439.51
_exptl_crystal_colour            colorless
_exptl_crystal_description       block
_cell_formula_units_Z            1
_exptl_crystal_recrystallization_method 'acetone/ water'
loop_
_atom_site_label
_atom_site_type_symbol
_atom_site_fract_x
_atom_site_fract_y
_atom_site_fract_z
C1 C 0.2626(2) 1.31935(14) 0.84322(10)
C2 C 0.3426(2) 1.21274(14) 0.85149(10)
C3 C 0.3880(2) 1.19696(15) 0.92734(10)
H1 H 0.3568 1.2497 0.9747
C4 C 0.4786(2) 1.10448(15) 0.93412(11)
H2 H 0.5114 1.0948 0.9862
C5 C 0.5217(2) 1.02551(15) 0.86450(11)
H3 H 0.5830 0.9618 0.8692
C6 C 0.4749(2) 1.04006(14) 0.78831(10)
C7 C 0.3863(2) 1.13389(14) 0.78194(10)
H4 H 0.3553 1.1445 0.7300
C8 C 0.5247(2) 0.95677(15) 0.71250(11)
O1 O 0.20041(17) 1.37601(10) 0.91067(7)
H5 H 0.1680 1.4481 0.9062
O2 O 0.25988(17) 1.35237(10) 0.78156(7)
O3 O 0.51182(19) 0.98903(11) 0.64839(8)
O4 O 0.5754(2) 0.86126(12) 0.71656(9)
C9 C 0.8692(2) 0.22918(15) 0.72153(10)
C10 C 0.8041(2) 0.33542(14) 0.77466(10)
C11 C 0.7578(2) 0.33789(14) 0.85204(10)
H6 H 0.7704 0.2718 0.8733
C12 C 0.6933(2) 0.43599(15) 0.89875(10)
H7 H 0.6618 0.4368 0.9517
C13 C 0.6750(2) 0.53247(14) 0.86799(10)
H8 H 0.6295 0.5992 0.8996
C14 C 0.7230(2) 0.53230(14) 0.79092(10)
C15 C 0.7874(2) 0.43340(14) 0.74395(10)
H9 H 0.8197 0.4328 0.6912
C16 C 0.7066(2) 0.63432(15) 0.75527(11)
O5 O 0.89867(17) 0.14840(10) 0.76072(7)
H10 H 0.9344 0.0824 0.7268
O6 O 0.89015(19) 0.21981(11) 0.65102(8)
O7 O 0.7497(2) 0.63509(12) 0.68888(8)
O8 O 0.6416(2) 0.72320(11) 0.80302(8)
H11 H 0.6247 0.7776 0.7740
C17 C 0.5752(3) 0.81936(16) 0.44676(11)
H12 H 0.5332 0.8770 0.4233
C18 C 0.6263(3) 0.71606(16) 0.40592(11)
H13 H 0.6270 0.6875 0.3488
C19 C 0.6549(2) 0.72959(15) 0.53720(11)
H14 H 0.6785 0.7121 0.5876
C20 C 0.7356(2) 0.54498(14) 0.44781(10)
C21 C 0.7905(3) 0.49533(16) 0.37270(11)
H15 H 0.7914 0.5375 0.3321
C22 C 0.8440(3) 0.38374(17) 0.35705(11)
H16 H 0.8807 0.3492 0.3054
C23 C 0.8443(2) 0.32219(14) 0.41618(10)
C24 C 0.7924(2) 0.37339(15) 0.49169(11)
H17 H 0.7949 0.3326 0.5329
C25 C 0.7366(3) 0.48458(15) 0.50700(11)
H18 H 0.6990 0.5191 0.5585
C26 C 0.9576(3) 0.14598(15) 0.33066(11)
H19 H 0.9748 0.1769 0.2851
C27 C 0.9480(3) 0.03081(17) 0.40921(12)
H20 H 0.9578 -0.0368 0.4293
C28 C 0.8910(3) 0.13177(17) 0.45091(12)
H21 H 0.8544 0.1479 0.5042
N1 N 0.5948(2) 0.82603(12) 0.52779(9)
H22 H 0.5658 0.8877 0.5697
N2 N 0.6773(2) 0.65999(12) 0.46378(9)
N3 N 0.8971(2) 0.20630(12) 0.40013(9)
N4 N 0.9893(2) 0.03976(13) 0.33425(9)
C29 C 0.0725(2) 0.67672(14) 0.95143(10)
H23 H 0.0014 0.6672 0.9938
C30 C 0.2158(2) 0.75767(15) 0.86605(11)
H24 H 0.2635 0.8125 0.8373
C31 C 0.2387(2) 0.64212(15) 0.85369(11)
H25 H 0.3071 0.6017 0.8140
C32 C 0.0522(2) 0.89153(14) 0.96518(10)
C33 C 0.0356(2) 0.92432(14) 1.04763(11)
H26 H 0.0598 0.8724 1.0800
C34 C 0.0166(2) 0.96641(15) 0.91728(11)
H27 H 0.0278 0.9430 0.8607
N5 N 0.1481(2) 0.59129(12) 0.90706(9)
N6 N 0.10888(19) 0.78015(12) 0.92907(8)
C29A C -0.0725(2) 1.32328(14) 1.04857(10)
H23A H -0.0014 1.3328 1.0062
C30A C -0.2158(2) 1.24233(15) 1.13395(11)
H24A H -0.2635 1.1875 1.1627
C31A C -0.2387(2) 1.35788(15) 1.14631(11)
H25A H -0.3071 1.3983 1.1860
C32A C -0.0522(2) 1.10847(14) 1.03482(10)
C33A C -0.0356(2) 1.07568(14) 0.95237(11)
H26A H -0.0598 1.1276 0.9200
C34A C -0.0166(2) 1.03359(15) 1.08272(11)
H27A H -0.0278 1.0570 1.1393
N5A N -0.1481(2) 1.40871(12) 1.09294(9)
N6A N -0.10888(19) 1.21985(12) 1.07093(8)
loop_
_geom_bond_atom_site_label_1
_geom_bond_atom_site_label_2
_geom_bond_site_symmetry_1
_geom_bond_site_symmetry_2
C1 C2 1_555 1_555
C2 C3 1_555 1_555
C3 H1 1_555 1_555
C4 C3 1_555 1_555
H2 C4 1_555 1_555
C5 C4 1_555 1_555
H3 C5 1_555 1_555
C6 C5 1_555 1_555
C7 C2 1_555 1_555
H4 C7 1_555 1_555
C8 C6 1_555 1_555
O1 C1 1_555 1_555
H5 O1 1_555 1_555
O2 C1 1_555 1_555
O3 C8 1_555 1_555
O4 C8 1_555 1_555
C9 C10 1_555 1_555
C10 C11 1_555 1_555
C11 H6 1_555 1_555
C12 C11 1_555 1_555
H7 C12 1_555 1_555
C13 C12 1_555 1_555
H8 C13 1_555 1_555
C14 C13 1_555 1_555
C15 C10 1_555 1_555
H9 C15 1_555 1_555
C16 C14 1_555 1_555
O5 C9 1_555 1_555
H10 O5 1_555 1_555
O6 C9 1_555 1_555
O7 C16 1_555 1_555
O8 C16 1_555 1_555
H11 O8 1_555 1_555
C17 H12 1_555 1_555
C18 C17 1_555 1_555
H13 C18 1_555 1_555
C19 H14 1_555 1_555
C20 C21 1_555 1_555
C21 H15 1_555 1_555
C22 C21 1_555 1_555
H16 C22 1_555 1_555
C23 C22 1_555 1_555
C24 C23 1_555 1_555
H17 C24 1_555 1_555
C25 C20 1_555 1_555
H18 C25 1_555 1_555
C26 H19 1_555 1_555
C27 H20 1_555 1_555
C28 C27 1_555 1_555
H21 C28 1_555 1_555
N1 C17 1_555 1_555
H22 N1 1_555 1_555
N2 C18 1_555 1_555
N3 C23 1_555 1_555
N4 C26 1_555 1_555
C29 H23 1_555 1_555
C30 H24 1_555 1_555
C31 C30 1_555 1_555
H25 C31 1_555 1_555
C32 C33 1_555 1_555
C33 H26 1_555 1_555
C34 C32 1_555 1_555
H27 C34 1_555 1_555
N5 C29 1_555 1_555
N6 C29 1_555 1_555
C29A H23A 1_555 1_555
C30A H24A 1_555 1_555
C31A C30A 1_555 1_555
H25A C31A 1_555 1_555
C32A C33A 1_555 1_555
C33A C34 1_555 1_555
H26A C33A 1_555 1_555
C34A C33 1_555 1_555
H27A C34A 1_555 1_555
N5A C29A 1_555 1_555
N6A C29A 1_555 1_555
C6 C7 1_555 1_555
C14 C15 1_555 1_555
C19 N1 1_555 1_555
C19 N2 1_555 1_555
C20 N2 1_555 1_555
C24 C25 1_555 1_555
C26 N3 1_555 1_555
C27 N4 1_555 1_555
C28 N3 1_555 1_555
C30 N6 1_555 1_555
C31 N5 1_555 1_555
C32 N6 1_555 1_555
C30A N6A 1_555 1_555
C31A N5A 1_555 1_555
C32A C34A 1_555 1_555
C32A N6A 1_555 1_555

#END
