
#######################################################################
#
#                 Cambridge Crystallographic Data Centre
#                                CCDC 
#
#######################################################################
#
# If this CIF has been generated from an entry in the Cambridge 
# Structural Database, then it will include bibliographic, chemical, 
# crystal, experimental, refinement or atomic coordinate data resulting 
# from the CCDC's data processing and validation procedures.
#
#######################################################################

data_HUVGUC
_chemical_formula_moiety         'C12 H10 N4,H2 O1'
_chemical_name_systematic        
"1,1'-(1,4-phenylene)bis-1H-imidazole monohydrate"
_symmetry_cell_setting           monoclinic
_symmetry_space_group_name_H-M   'P 21/n'
_symmetry_Int_Tables_number      14
_space_group_name_Hall           '-P 2yn'
loop_
_symmetry_equiv_pos_site_id
_symmetry_equiv_pos_as_xyz
1 x,y,z
2 1/2-x,1/2+y,1/2-z
3 -x,-y,-z
4 1/2+x,1/2-y,1/2+z
_cell_length_a                   8.9092(18)
_cell_length_b                   18.421(4)
_cell_length_c                   14.390(3)
_cell_angle_alpha                90
_cell_angle_beta                 101.66(3)
_cell_angle_gamma                90
_cell_volume                     2312.9
_exptl_crystal_colour            colorless
_exptl_crystal_description       block
_cell_formula_units_Z            8
loop_
_atom_site_label
_atom_site_type_symbol
_atom_site_fract_x
_atom_site_fract_y
_atom_site_fract_z
C1 C 0.2503(2) 0.05511(11) 1.05585(12)
H1 H 0.3460 0.0379 1.0497
C2 C 0.0615(2) 0.08960(11) 1.11459(14)
H2 H 0.0014 0.1007 1.1585
C3 C 0.0162(2) 0.09642(11) 1.02035(13)
H3 H -0.0785 0.1130 0.9877
C4 C 0.14285(18) 0.07059(10) 0.88335(11)
C5 C 0.0194(3) 0.08991(18) 0.81615(15)
H4 H -0.0693 0.1056 0.8347
C6 C 0.0232(2) 0.08674(18) 0.72092(15)
H5 H -0.0634 0.0996 0.6762
C7 C 0.15236(19) 0.06502(10) 0.69152(12)
C8 C 0.2757(2) 0.04388(11) 0.75854(12)
H6 H 0.3641 0.0279 0.7398
C9 C 0.2711(2) 0.04590(11) 0.85411(12)
H7 H 0.3555 0.0304 0.8988
C10 C 0.0496(2) 0.09287(12) 0.51991(13)
H8 H -0.0412 0.1160 0.5248
C11 C 0.1022(2) 0.08043(12) 0.44015(14)
H9 H 0.0519 0.0943 0.3797
C12 C 0.2677(2) 0.03594(12) 0.55194(13)
H10 H 0.3544 0.0126 0.5855
N1 N 0.20892(18) 0.06401(9) 1.13721(10)
N2 N 0.13739(15) 0.07394(8) 0.98139(10)
N3 N 0.15709(16) 0.06450(8) 0.59267(10)
N4 N 0.2386(2) 0.04497(11) 0.45964(11)
C13 C 0.6621(3) 0.15735(13) 0.25919(16)
H11 H 0.6058 0.1177 0.2731
C14 C 0.7720(3) 0.23106(15) 0.18496(17)
H12 H 0.8092 0.2538 0.1364
C15 C 0.7915(3) 0.25564(14) 0.27435(17)
H13 H 0.8434 0.2975 0.2984
C16 C 0.71245(19) 0.21036(9) 0.42112(12)
C17 C 0.8085(2) 0.25565(10) 0.48215(13)
H14 H 0.8772 0.2854 0.4592
C18 C 0.8029(2) 0.25696(10) 0.57710(14)
H15 H 0.8687 0.2873 0.6181
C19 C 0.7006(2) 0.21366(9) 0.61188(13)
C20 C 0.6023(2) 0.16903(11) 0.55026(14)
H16 H 0.5321 0.1400 0.5730
C21 C 0.6080(2) 0.16749(11) 0.45517(14)
H17 H 0.5416 0.1376 0.4139
C22 C 0.7401(3) 0.27008(12) 0.77356(15)
H18 H 0.7746 0.3158 0.7602
C23 C 0.7220(3) 0.24509(13) 0.85833(16)
H19 H 0.7426 0.2718 0.9143
C24 C 0.6557(2) 0.15881(11) 0.76169(14)
H20 H 0.6213 0.1140 0.7360
N5 N 0.6917(3) 0.16939(12) 0.17559(14)
N6 N 0.72083(16) 0.20775(8) 0.32310(11)
N7 N 0.69692(17) 0.21409(8) 0.71045(11)
N8 N 0.6695(2) 0.17530(10) 0.85129(13)
O1 O 0.58003(15) 0.09565(8) 0.00203(8)
H21 H 0.6093 0.1181 -0.0428
H22 H 0.6124 0.1170 0.0546
H23 H 0.3558 0.0284 0.3564
O2 O 0.40372(12) 0.02157(8) 0.31173(8)
H24 H 0.3479 0.0320 0.2582
loop_
_geom_bond_atom_site_label_1
_geom_bond_atom_site_label_2
_geom_bond_site_symmetry_1
_geom_bond_site_symmetry_2
C1 H1 1_555 1_555
C2 H2 1_555 1_555
C3 C2 1_555 1_555
H3 C3 1_555 1_555
C4 C5 1_555 1_555
C5 H4 1_555 1_555
C6 C5 1_555 1_555
H5 C6 1_555 1_555
C7 C6 1_555 1_555
C8 C7 1_555 1_555
H6 C8 1_555 1_555
C9 C4 1_555 1_555
H7 C9 1_555 1_555
C10 H8 1_555 1_555
C11 C10 1_555 1_555
H9 C11 1_555 1_555
C12 H10 1_555 1_555
N1 C1 1_555 1_555
N2 C1 1_555 1_555
N3 C7 1_555 1_555
N4 C11 1_555 1_555
C13 H11 1_555 1_555
C14 H12 1_555 1_555
C15 C14 1_555 1_555
H13 C15 1_555 1_555
C16 C17 1_555 1_555
C17 H14 1_555 1_555
C18 C17 1_555 1_555
H15 C18 1_555 1_555
C19 C18 1_555 1_555
C20 C19 1_555 1_555
H16 C20 1_555 1_555
C21 C16 1_555 1_555
H17 C21 1_555 1_555
C22 H18 1_555 1_555
C23 C22 1_555 1_555
H19 C23 1_555 1_555
C24 H20 1_555 1_555
N5 C13 1_555 1_555
N6 C13 1_555 1_555
N7 C19 1_555 1_555
N8 C23 1_555 1_555
O1 H21 1_555 1_555
H22 O1 1_555 1_555
H23 O2 1_555 1_555
O2 H24 1_555 1_555
C2 N1 1_555 1_555
C3 N2 1_555 1_555
C4 N2 1_555 1_555
C8 C9 1_555 1_555
C10 N3 1_555 1_555
C12 N3 1_555 1_555
C12 N4 1_555 1_555
C14 N5 1_555 1_555
C15 N6 1_555 1_555
C16 N6 1_555 1_555
C20 C21 1_555 1_555
C22 N7 1_555 1_555
C24 N7 1_555 1_555
C24 N8 1_555 1_555

#END
