
#######################################################################
#
#                 Cambridge Crystallographic Data Centre
#                                CCDC 
#
#######################################################################
#
# If this CIF has been generated from an entry in the Cambridge 
# Structural Database, then it will include bibliographic, chemical, 
# crystal, experimental, refinement or atomic coordinate data resulting 
# from the CCDC's data processing and validation procedures.
#
#######################################################################

data_HUXCAF
_chemical_formula_moiety         'C12 H24 P1 1+,I1 1-'
_chemical_name_systematic        
'(1R,4S,6R)-2,2,5,5,6-Pentamethyl-2-phosphoniabicyclo[2.2.2]octane iodide'
_symmetry_cell_setting           orthorhombic
_symmetry_space_group_name_H-M   'P 21 21 21'
_symmetry_Int_Tables_number      19
_space_group_name_Hall           'P 2ac 2ab'
loop_
_symmetry_equiv_pos_site_id
_symmetry_equiv_pos_as_xyz
1 x,y,z
2 1/2-x,-y,1/2+z
3 1/2+x,1/2-y,-z
4 -x,1/2+y,1/2-z
_cell_length_a                   7.1710(2)
_cell_length_b                   10.4460(3)
_cell_length_c                   18.5870(5)
_cell_angle_alpha                90
_cell_angle_beta                 90
_cell_angle_gamma                90
_cell_volume                     1392.32
_exptl_crystal_colour            colorless
_exptl_crystal_description       block
_cell_formula_units_Z            4
loop_
_atom_site_label
_atom_site_type_symbol
_atom_site_fract_x
_atom_site_fract_y
_atom_site_fract_z
C1 C 0.7758(7) 1.0552(4) 0.2703(2)
H1 H 0.6658 1.0535 0.3016
H2 H 0.7718 1.1318 0.2399
H3 H 0.8889 1.0571 0.2999
C2 C 0.7749(8) 0.7779(4) 0.2722(2)
H4 H 0.8836 0.7800 0.3041
H5 H 0.7787 0.7000 0.2428
H6 H 0.6606 0.7783 0.3011
C3 C 0.9743(6) 0.9149(5) 0.15296(18)
H7 H 1.0369 0.9993 0.1535
H8 H 1.0660 0.8490 0.1676
C4 C 0.8995(6) 0.8851(4) 0.0762(2)
H9 H 1.0088 0.8715 0.0437
C5 C 0.7863(7) 0.7604(4) 0.0787(2)
H10 H 0.8542 0.6960 0.1078
H11 H 0.7721 0.7261 0.0294
C6 C 0.5907(7) 0.7839(4) 0.1121(2)
H12 H 0.4954 0.7836 0.0735
H13 H 0.5608 0.7140 0.1461
C7 C 0.5851(5) 0.9123(4) 0.15170(18)
H14 H 0.4639 0.9223 0.1777
C8 C 0.7801(7) 0.9965(4) 0.0450(2)
C9 C 0.6154(6) 1.0263(4) 0.0988(2)
H15 H 0.6544 1.1017 0.1284
C10 C 0.4299(7) 1.0611(5) 0.0629(2)
H16 H 0.3774 0.9850 0.0396
H17 H 0.4510 1.1279 0.0268
H18 H 0.3426 1.0927 0.0994
C11 C 0.7136(7) 0.9570(4) -0.0305(2)
H19 H 0.8219 0.9385 -0.0609
H20 H 0.6411 1.0269 -0.0518
H21 H 0.6354 0.8803 -0.0268
C12 C 0.8956(8) 1.1187(4) 0.0351(3)
H22 H 0.9986 1.1018 0.0017
H23 H 0.9459 1.1458 0.0817
H24 H 0.8161 1.1866 0.0155
P1 P 0.77785(13) 0.91534(9) 0.21484(4)
I1 I 0.72753(4) 1.41530(2) 0.169366(13)
loop_
_geom_bond_atom_site_label_1
_geom_bond_atom_site_label_2
_geom_bond_site_symmetry_1
_geom_bond_site_symmetry_2
C1 H1 1_555 1_555
H2 C1 1_555 1_555
H3 C1 1_555 1_555
C2 H4 1_555 1_555
H5 C2 1_555 1_555
H6 C2 1_555 1_555
C3 H7 1_555 1_555
H8 C3 1_555 1_555
C4 C3 1_555 1_555
H9 C4 1_555 1_555
C5 C4 1_555 1_555
H10 C5 1_555 1_555
H11 C5 1_555 1_555
C6 C5 1_555 1_555
H12 C6 1_555 1_555
H13 C6 1_555 1_555
C7 C6 1_555 1_555
H14 C7 1_555 1_555
C8 C4 1_555 1_555
C9 C7 1_555 1_555
H15 C9 1_555 1_555
C10 C9 1_555 1_555
H16 C10 1_555 1_555
H17 C10 1_555 1_555
H18 C10 1_555 1_555
C11 C8 1_555 1_555
H19 C11 1_555 1_555
H20 C11 1_555 1_555
H21 C11 1_555 1_555
C12 C8 1_555 1_555
H22 C12 1_555 1_555
H23 C12 1_555 1_555
H24 C12 1_555 1_555
P1 C1 1_555 1_555
C2 P1 1_555 1_555
C3 P1 1_555 1_555
C7 P1 1_555 1_555
C8 C9 1_555 1_555

#END
