
#######################################################################
#
#                 Cambridge Crystallographic Data Centre
#                                CCDC 
#
#######################################################################
#
# If this CIF has been generated from an entry in the Cambridge 
# Structural Database, then it will include bibliographic, chemical, 
# crystal, experimental, refinement or atomic coordinate data resulting 
# from the CCDC's data processing and validation procedures.
#
#######################################################################

data_HUYLIY
_chemical_formula_moiety         'C23 H22 N2 O3'
_chemical_name_systematic        
3-(1-Acetyl-5-methyl-4-(4-methylphenyl)-3-phenyl-1H-pyrrol-2-yl)-1,3-oxazolidin-2-one
_symmetry_cell_setting           monoclinic
_symmetry_space_group_name_H-M   'P 21/c'
_symmetry_Int_Tables_number      14
_space_group_name_Hall           '-P 2ybc'
loop_
_symmetry_equiv_pos_site_id
_symmetry_equiv_pos_as_xyz
1 x,y,z
2 -x,1/2+y,1/2-z
3 -x,-y,-z
4 x,1/2-y,1/2+z
_cell_length_a                   15.326(3)
_cell_length_b                   11.627(2)
_cell_length_c                   11.785(2)
_cell_angle_alpha                90
_cell_angle_beta                 111.15(3)
_cell_angle_gamma                90
_cell_volume                     1958.57
_exptl_crystal_colour            colorless
_exptl_crystal_description       block
_cell_formula_units_Z            4
_exptl_crystal_recrystallization_method 'hexane/ethyl acetate'
loop_
_atom_site_label
_atom_site_type_symbol
_atom_site_fract_x
_atom_site_fract_y
_atom_site_fract_z
N1 N 0.83982(15) 0.39307(19) 0.7428(2)
C1 C 0.76200(19) 0.4162(2) 0.6396(3)
N2 N 0.90958(16) 0.2250(2) 0.8690(2)
C2 C 0.71879(19) 0.3120(2) 0.5957(2)
O1 O 1.03892(15) 0.14694(18) 0.99568(18)
C3 C 0.77182(18) 0.2224(2) 0.6750(2)
C4 C 0.84600(19) 0.2739(2) 0.7616(2)
O2 O 1.03232(14) 0.18317(18) 0.80627(19)
O3 O 0.98409(14) 0.45075(19) 0.86797(19)
C5 C 0.7453(2) 0.5307(2) 0.5775(3)
H1 H 0.7856 0.5871 0.6303
H2 H 0.6812 0.5529 0.5584
H3 H 0.7584 0.5257 0.5038
C6 C 0.9028(2) 0.4744(2) 0.8239(3)
C7 C 0.8592(2) 0.5784(3) 0.8543(3)
H4 H 0.9070 0.6263 0.9090
H5 H 0.8160 0.5556 0.8923
H6 H 0.8264 0.6204 0.7812
C8 C 0.6389(2) 0.2969(2) 0.4802(3)
C9 C 0.6373(2) 0.2090(3) 0.3990(3)
H7 H 0.6861 0.1562 0.4199
C10 C 0.5650(2) 0.1988(3) 0.2887(3)
H8 H 0.5664 0.1399 0.2360
C11 C 0.4900(2) 0.2746(3) 0.2543(3)
C12 C 0.4901(2) 0.3619(3) 0.3356(3)
H9 H 0.4407 0.4139 0.3147
C13 C 0.5625(2) 0.3722(3) 0.4468(3)
H10 H 0.5605 0.4301 0.5003
C14 C 0.4106(3) 0.2668(4) 0.1311(3)
H11 H 0.3659 0.3266 0.1247
H12 H 0.3806 0.1933 0.1234
H13 H 0.4354 0.2758 0.0675
C15 C 0.74988(19) 0.0986(2) 0.6705(2)
C16 C 0.8171(2) 0.0157(3) 0.6777(3)
H14 H 0.8769 0.0382 0.6841
C17 C 0.7957(2) -0.1000(3) 0.6753(3)
H15 H 0.8413 -0.1546 0.6803
C18 C 0.7074(3) -0.1350(3) 0.6656(3)
H16 H 0.6935 -0.2129 0.6649
C19 C 0.6397(2) -0.0533(3) 0.6568(3)
H17 H 0.5798 -0.0766 0.6492
C20 C 0.6601(2) 0.0623(3) 0.6590(3)
H18 H 0.6139 0.1165 0.6529
C21 C 0.99557(19) 0.1858(2) 0.8816(2)
C22 C 0.9748(2) 0.1489(3) 1.0607(3)
H19 H 1.0045 0.1820 1.1410
H20 H 0.9538 0.0717 1.0692
C23 C 0.8938(3) 0.2225(3) 0.9837(3)
H21 H 0.8341 0.1876 0.9743
H22 H 0.8966 0.2991 1.0177
loop_
_geom_bond_atom_site_label_1
_geom_bond_atom_site_label_2
_geom_bond_site_symmetry_1
_geom_bond_site_symmetry_2
N1 C1 1_555 1_555
C1 C2 1_555 1_555
N2 C4 1_555 1_555
C2 C3 1_555 1_555
O1 C21 1_555 1_555
C3 C4 1_555 1_555
C4 N1 1_555 1_555
O2 C21 1_555 1_555
O3 C6 1_555 1_555
C5 C1 1_555 1_555
H1 C5 1_555 1_555
H2 C5 1_555 1_555
H3 C5 1_555 1_555
C6 N1 1_555 1_555
C7 C6 1_555 1_555
H4 C7 1_555 1_555
H5 C7 1_555 1_555
H6 C7 1_555 1_555
C8 C2 1_555 1_555
C9 C8 1_555 1_555
H7 C9 1_555 1_555
C10 C9 1_555 1_555
H8 C10 1_555 1_555
C11 C10 1_555 1_555
C12 C11 1_555 1_555
H9 C12 1_555 1_555
C13 C8 1_555 1_555
H10 C13 1_555 1_555
C14 C11 1_555 1_555
H11 C14 1_555 1_555
H12 C14 1_555 1_555
H13 C14 1_555 1_555
C15 C3 1_555 1_555
C16 C15 1_555 1_555
H14 C16 1_555 1_555
C17 C16 1_555 1_555
H15 C17 1_555 1_555
C18 C17 1_555 1_555
H16 C18 1_555 1_555
C19 C18 1_555 1_555
H17 C19 1_555 1_555
C20 C15 1_555 1_555
H18 C20 1_555 1_555
C21 N2 1_555 1_555
C22 O1 1_555 1_555
H19 C22 1_555 1_555
H20 C22 1_555 1_555
C23 N2 1_555 1_555
H21 C23 1_555 1_555
H22 C23 1_555 1_555
C12 C13 1_555 1_555
C19 C20 1_555 1_555
C22 C23 1_555 1_555

#END
