
#######################################################################
#
#                 Cambridge Crystallographic Data Centre
#                                CCDC 
#
#######################################################################
#
# If this CIF has been generated from an entry in the Cambridge 
# Structural Database, then it will include bibliographic, chemical, 
# crystal, experimental, refinement or atomic coordinate data resulting 
# from the CCDC's data processing and validation procedures.
#
#######################################################################

data_HUZGAM
_chemical_formula_moiety         'C16 H12 N4'
_chemical_name_systematic        
6-imino-10,10-dimethyl-6,10-dihydropyrido[1,2-a]indole-7,8-dicarbonitrile
_symmetry_cell_setting           orthorhombic
_symmetry_space_group_name_H-M   'P n m a'
_symmetry_Int_Tables_number      62
_space_group_name_Hall           '-P 2ac 2n'
loop_
_symmetry_equiv_pos_site_id
_symmetry_equiv_pos_as_xyz
1 x,y,z
2 1/2-x,-y,1/2+z
3 -x,1/2+y,-z
4 1/2+x,1/2-y,1/2-z
5 -x,-y,-z
6 1/2+x,y,1/2-z
7 x,1/2-y,z
8 1/2-x,1/2+y,1/2+z
_cell_length_a                   13.0779(6)
_cell_length_b                   6.7374(3)
_cell_length_c                   14.8646(7)
_cell_angle_alpha                90
_cell_angle_beta                 90
_cell_angle_gamma                90
_cell_volume                     1309.74
_exptl_crystal_colour            orange
_exptl_crystal_description       Block
_cell_formula_units_Z            4
loop_
_atom_site_label
_atom_site_type_symbol
_atom_site_fract_x
_atom_site_fract_y
_atom_site_fract_z
N1 N 0.30440(11) 0.2500 0.67292(12)
N2 N 0.53753(14) 0.2500 0.83676(11)
N3 N 0.59879(8) 0.2500 0.48293(7)
N4 N 0.42402(10) 0.2500 0.45481(10)
C1 C 0.38637(12) 0.2500 0.64627(10)
C2 C 0.55481(13) 0.2500 0.76170(11)
C3 C 0.48785(11) 0.2500 0.61029(10)
C4 C 0.49684(11) 0.2500 0.51261(9)
C5 C 0.68207(10) 0.2500 0.53967(10)
C6 C 0.67151(11) 0.2500 0.63043(10)
H1 H 0.7283 0.2500 0.6681
C7 C 0.57180(12) 0.2500 0.66566(10)
C8 C 0.77996(11) 0.2500 0.48536(10)
C9 C 0.84320(9) 0.0632(2) 0.50528(8)
H2 H 0.8029 -0.0526 0.4927
H3 H 0.8630 0.0628 0.5675
H4 H 0.9032 0.0626 0.4681
C10 C 0.73844(11) 0.2500 0.39071(10)
C11 C 0.63227(11) 0.2500 0.39115(9)
C12 C 0.57501(13) 0.2500 0.31249(10)
H5 H 0.5039 0.2500 0.3136
C13 C 0.62899(16) 0.2500 0.23219(11)
H6 H 0.5932 0.2500 0.1781
C14 C 0.73455(16) 0.2500 0.23040(11)
H7 H 0.7686 0.2500 0.1755
C15 C 0.78991(14) 0.2500 0.30962(11)
H8 H 0.8610 0.2500 0.3083
H9 H 0.3644(17) 0.2500 0.4839(14)
C9F C 0.84320(9) 0.4368(2) 0.50528(8)
H2F H 0.8029 0.5526 0.4927
H3F H 0.8630 0.4372 0.5675
H4F H 0.9032 0.4374 0.4681
loop_
_geom_bond_atom_site_label_1
_geom_bond_atom_site_label_2
_geom_bond_site_symmetry_1
_geom_bond_site_symmetry_2
N1 C1 1_555 1_555
N2 C2 1_555 1_555
N3 C4 1_555 1_555
N4 C4 1_555 1_555
C1 C3 1_555 1_555
C2 C7 1_555 1_555
C3 C4 1_555 1_555
C5 N3 1_555 1_555
C6 C5 1_555 1_555
H1 C6 1_555 1_555
C7 C3 1_555 1_555
C8 C5 1_555 1_555
C9 C8 1_555 1_555
H2 C9 1_555 1_555
H3 C9 1_555 1_555
H4 C9 1_555 1_555
C10 C8 1_555 1_555
C11 N3 1_555 1_555
C12 C11 1_555 1_555
H5 C12 1_555 1_555
C13 C12 1_555 1_555
H6 C13 1_555 1_555
C14 C13 1_555 1_555
H7 C14 1_555 1_555
C15 C10 1_555 1_555
H8 C15 1_555 1_555
H9 N4 1_555 1_555
C9F C8 1_555 1_555
H2F C9F 1_555 1_555
H3F C9F 1_555 1_555
H4F C9F 1_555 1_555
C6 C7 1_555 1_555
C10 C11 1_555 1_555
C14 C15 1_555 1_555

#END
