
#######################################################################
#
#                 Cambridge Crystallographic Data Centre
#                                CCDC 
#
#######################################################################
#
# If this CIF has been generated from an entry in the Cambridge 
# Structural Database, then it will include bibliographic, chemical, 
# crystal, experimental, refinement or atomic coordinate data resulting 
# from the CCDC's data processing and validation procedures.
#
#######################################################################

data_HUZTEB
_chemical_formula_moiety         'C36 H28 Cl1 N3 O1'
_chemical_name_systematic        
2-(4-(2-(4-N,N-Di-p-tolylaminophenyl)-(E)-ethenyl)phenyl)-5-(4-chlorophenyl)-1,3,4-oxadiazole
_symmetry_cell_setting           triclinic
_symmetry_space_group_name_H-M   'P -1'
_symmetry_Int_Tables_number      2
_space_group_name_Hall           '-P 1'
loop_
_symmetry_equiv_pos_site_id
_symmetry_equiv_pos_as_xyz
1 x,y,z
2 -x,-y,-z
_cell_length_a                   11.547(4)
_cell_length_b                   12.681(4)
_cell_length_c                   20.428(7)
_cell_angle_alpha                75.827(7)
_cell_angle_beta                 83.576(7)
_cell_angle_gamma                79.731(7)
_cell_volume                     2846.41
_chemical_melting_point          '236-238 deg.C'
_cell_formula_units_Z            4
_exptl_crystal_recrystallization_method ether/DMF
_exptl_crystal_preparation       photoluminescent
loop_
_atom_site_label
_atom_site_type_symbol
_atom_site_fract_x
_atom_site_fract_y
_atom_site_fract_z
Cl1 Cl 1.9004(1) -0.0994(2) 0.2289(1)
O1 O 1.4546(4) 0.1175(3) 0.4199(2)
N1 N 1.5371(5) 0.2672(5) 0.3819(3)
N2 N 1.4350(5) 0.2912(5) 0.4233(3)
N3 N 0.5308(5) -0.0245(4) 0.8279(3)
C1 C 1.8001(7) -0.0244(6) 0.2756(3)
C2 C 1.7003(7) -0.0665(6) 0.3057(4)
C3 C 1.6167(7) -0.0052(6) 0.3405(3)
C4 C 1.6337(6) 0.0967(6) 0.3468(3)
C5 C 1.7355(7) 0.1362(6) 0.3175(4)
C6 C 1.8196(6) 0.0763(6) 0.2821(4)
C7 C 1.5450(6) 0.1634(6) 0.3820(3)
C8 C 1.3889(6) 0.2028(6) 0.4438(3)
C9 C 1.2844(6) 0.1854(6) 0.4875(3)
C10 C 1.2428(6) 0.0858(5) 0.5000(3)
C11 C 1.1421(6) 0.0690(5) 0.5411(3)
C12 C 1.0773(6) 0.1517(6) 0.5702(3)
C13 C 1.1199(6) 0.2511(5) 0.5566(3)
C14 C 1.2212(6) 0.2682(5) 0.5157(3)
C15 C 0.9720(6) 0.1371(6) 0.6158(3)
C16 C 0.9185(6) 0.0507(5) 0.6336(3)
C17 C 0.8184(6) 0.0349(5) 0.6831(3)
C18 C 0.7527(6) -0.0465(5) 0.6839(3)
C19 C 0.6584(6) -0.0661(5) 0.7307(3)
C20 C 0.6272(6) -0.0040(5) 0.7797(3)
C21 C 0.6938(6) 0.0766(5) 0.7800(3)
C22 C 0.7869(6) 0.0954(5) 0.7336(3)
C23 C 0.5015(7) -0.1329(5) 0.8491(3)
C24 C 0.5852(6) -0.2218(6) 0.8707(3)
C25 C 0.5557(7) -0.3266(6) 0.8923(4)
C26 C 0.4420(8) -0.3439(6) 0.8928(4)
C27 C 0.3561(7) -0.2529(6) 0.8724(3)
C28 C 0.3863(7) -0.1485(6) 0.8501(3)
C29 C 0.4088(7) -0.4580(5) 0.9164(4)
C30 C 0.4645(6) 0.0582(5) 0.8585(4)
C31 C 0.4254(6) 0.0346(6) 0.9255(3)
C32 C 0.3586(6) 0.1121(6) 0.9548(4)
C33 C 0.3309(6) 0.2193(6) 0.9201(4)
C34 C 0.3684(6) 0.2447(5) 0.8525(4)
C35 C 0.4348(6) 0.1656(5) 0.8210(3)
C36 C 0.2613(6) 0.3064(5) 0.9534(4)
Cl2 Cl 1.3992(2) 0.6119(2) 0.2288(1)
O2 O 0.9533(4) 0.3820(3) 0.4189(2)
N4 N 1.0334(5) 0.2400(5) 0.3755(3)
N5 N 0.9310(5) 0.2148(5) 0.4152(3)
N6 N 0.0294(5) 0.5008(4) 0.8250(3)
C37 C 1.2996(7) 0.5313(7) 0.2748(4)
C38 C 1.2149(8) 0.5736(6) 0.3191(4)
C39 C 1.1329(7) 0.5087(6) 0.3540(4)
C40 C 1.1330(7) 0.4035(6) 0.3458(3)
C41 C 1.2214(6) 0.3624(6) 0.3028(3)
C42 C 1.3037(7) 0.4252(6) 0.2679(4)
C43 C 1.0424(6) 0.3391(6) 0.3791(3)
C44 C 0.8887(6) 0.2993(6) 0.4402(3)
C45 C 0.7831(6) 0.3140(6) 0.4836(3)
C46 C 0.7388(6) 0.4146(6) 0.4986(3)
C47 C 0.6358(7) 0.4282(6) 0.5398(4)
C48 C 0.5748(6) 0.3432(6) 0.5671(3)
C49 C 0.6189(7) 0.2426(6) 0.5513(4)
C50 C 0.7200(7) 0.2296(6) 0.5110(4)
C51 C 0.4654(6) 0.3553(6) 0.6109(3)
C52 C 0.4218(6) 0.4440(6) 0.6347(3)
C53 C 0.3162(6) 0.4589(5) 0.6801(3)
C54 C 0.3058(6) 0.5383(5) 0.7187(3)
C55 C 0.2125(6) 0.5515(5) 0.7656(3)
C56 C 0.1233(6) 0.4866(5) 0.7763(3)
C57 C 0.1297(6) 0.4126(5) 0.7344(3)
C58 C 0.2233(6) 0.3983(5) 0.6892(3)
C59 C 0.0113(6) 0.5997(5) 0.8512(4)
C60 C -0.0345(6) 0.7003(6) 0.8112(3)
C61 C -0.0509(6) 0.7942(5) 0.8365(4)
C62 C -0.0241(7) 0.7903(6) 0.9012(4)
C63 C 0.0219(6) 0.6898(6) 0.9399(4)
C64 C 0.0378(6) 0.5955(5) 0.9154(4)
C65 C -0.0426(8) 0.8941(5) 0.9273(4)
C66 C -0.0417(6) 0.4184(6) 0.8564(3)
C67 C -0.1573(6) 0.4505(6) 0.8802(4)
C68 C -0.2265(7) 0.3736(7) 0.9111(3)
C69 C -0.1894(7) 0.2619(7) 0.9195(3)
C70 C -0.0758(7) 0.2300(6) 0.8963(3)
C71 C -0.0012(7) 0.3051(5) 0.8668(3)
C72 C -0.2702(7) 0.1789(6) 0.9518(4)
loop_
_geom_bond_atom_site_label_1
_geom_bond_atom_site_label_2
_geom_bond_site_symmetry_1
_geom_bond_site_symmetry_2
Cl1 C1 1_555 1_555
O1 C7 1_555 1_555
N1 N2 1_555 1_555
N2 C8 1_555 1_555
N3 C20 1_555 1_555
C1 C2 1_555 1_555
C2 C3 1_555 1_555
C3 C4 1_555 1_555
C4 C5 1_555 1_555
C5 C6 1_555 1_555
C6 C1 1_555 1_555
C7 N1 1_555 1_555
C8 O1 1_555 1_555
C9 C8 1_555 1_555
C10 C9 1_555 1_555
C11 C10 1_555 1_555
C12 C11 1_555 1_555
C13 C12 1_555 1_555
C14 C9 1_555 1_555
C15 C12 1_555 1_555
C16 C15 1_555 1_555
C17 C16 1_555 1_555
C18 C17 1_555 1_555
C19 C18 1_555 1_555
C20 C19 1_555 1_555
C21 C20 1_555 1_555
C22 C17 1_555 1_555
C23 N3 1_555 1_555
C24 C23 1_555 1_555
C25 C24 1_555 1_555
C26 C25 1_555 1_555
C27 C26 1_555 1_555
C28 C23 1_555 1_555
C29 C26 1_555 1_555
C30 N3 1_555 1_555
C31 C30 1_555 1_555
C32 C31 1_555 1_555
C33 C32 1_555 1_555
C34 C33 1_555 1_555
C35 C30 1_555 1_555
C36 C33 1_555 1_555
Cl2 C37 1_555 1_555
O2 C43 1_555 1_555
N4 N5 1_555 1_555
N5 C44 1_555 1_555
N6 C56 1_555 1_555
C37 C38 1_555 1_555
C38 C39 1_555 1_555
C39 C40 1_555 1_555
C40 C41 1_555 1_555
C41 C42 1_555 1_555
C42 C37 1_555 1_555
C43 N4 1_555 1_555
C44 O2 1_555 1_555
C45 C44 1_555 1_555
C46 C45 1_555 1_555
C47 C46 1_555 1_555
C48 C47 1_555 1_555
C49 C48 1_555 1_555
C50 C45 1_555 1_555
C51 C48 1_555 1_555
C52 C51 1_555 1_555
C53 C52 1_555 1_555
C54 C53 1_555 1_555
C55 C54 1_555 1_555
C56 C55 1_555 1_555
C57 C56 1_555 1_555
C58 C53 1_555 1_555
C59 N6 1_555 1_555
C60 C59 1_555 1_555
C61 C60 1_555 1_555
C62 C61 1_555 1_555
C63 C62 1_555 1_555
C64 C59 1_555 1_555
C65 C62 1_555 1_555
C66 N6 1_555 1_555
C67 C66 1_555 1_555
C68 C67 1_555 1_555
C69 C68 1_555 1_555
C70 C69 1_555 1_555
C71 C66 1_555 1_555
C72 C69 1_555 1_555
C4 C7 1_555 1_555
C13 C14 1_555 1_555
C21 C22 1_555 1_555
C27 C28 1_555 1_555
C34 C35 1_555 1_555
C40 C43 1_555 1_555
C49 C50 1_555 1_555
C57 C58 1_555 1_555
C63 C64 1_555 1_555
C70 C71 1_555 1_555

#END
