
#######################################################################
#
#                 Cambridge Crystallographic Data Centre
#                                CCDC 
#
#######################################################################
#
# If this CIF has been generated from an entry in the Cambridge 
# Structural Database, then it will include bibliographic, chemical, 
# crystal, experimental, refinement or atomic coordinate data resulting 
# from the CCDC's data processing and validation procedures.
#
#######################################################################

data_HUZWUU
_chemical_formula_moiety         'C11 H22 N1 O1 1+,I1 1-'
_chemical_name_systematic        
'(R,S,S)-cis-5-Hydroxy-1,1-dimethyl-decahydroquinolinium iodide'
_symmetry_cell_setting           orthorhombic
_symmetry_space_group_name_H-M   'P 21 21 21'
_symmetry_Int_Tables_number      19
_space_group_name_Hall           'P 2ac 2ab'
loop_
_symmetry_equiv_pos_site_id
_symmetry_equiv_pos_as_xyz
1 x,y,z
2 1/2-x,-y,1/2+z
3 1/2+x,1/2-y,-z
4 -x,1/2+y,1/2-z
_cell_length_a                   11.3910(5)
_cell_length_b                   14.1013(4)
_cell_length_c                   7.7861(3)
_cell_angle_alpha                90
_cell_angle_beta                 90
_cell_angle_gamma                90
_cell_volume                     1250.66
_cell_formula_units_Z            4
_exptl_crystal_recrystallization_method 'absolute ethanol'
loop_
_atom_site_label
_atom_site_type_symbol
_atom_site_fract_x
_atom_site_fract_y
_atom_site_fract_z
I1 I 0.23955(2) 0.27713(2) 0.13093(3)
N1 N 0.0820(3) 0.3736(2) 0.6308(5)
C1 C 0.0206(5) 0.4225(3) 0.7758(5)
H1 H 0.0607(5) 0.4079(3) 0.8825(5)
H2 H -0.0590(5) 0.3985(3) 0.7844(5)
C2 C 0.0168(5) 0.5298(4) 0.7516(6)
H3 H 0.0957(5) 0.5550(4) 0.7624(6)
H4 H -0.0308(5) 0.5576(4) 0.8418(6)
C3 C -0.0334(4) 0.5582(3) 0.5775(5)
H5 H -0.1160(4) 0.5416(3) 0.5727(5)
H6 H -0.0266(4) 0.6263(3) 0.5629(5)
C4 C 0.0315(4) 0.5084(3) 0.4342(5)
H7 H 0.1140(4) 0.5280(3) 0.4402(5)
C5 C -0.0131(4) 0.5313(4) 0.2536(6)
H8 H 0.0390(4) 0.4980(4) 0.1738(6)
C6 C -0.1356(4) 0.4935(3) 0.2202(7)
H9 H -0.1582(4) 0.5069(3) 0.1026(7)
H10 H -0.1912(4) 0.5245(3) 0.2960(7)
C7 C -0.1378(5) 0.3864(3) 0.2513(6)
H11 H -0.2176(5) 0.3635(3) 0.2376(6)
H12 H -0.0894(5) 0.3554(3) 0.1656(6)
C8 C -0.0935(4) 0.3596(3) 0.4301(6)
H13 H -0.1467(4) 0.3841(3) 0.5166(6)
H14 H -0.0909(4) 0.2911(3) 0.4412(6)
C9 C 0.0276(4) 0.4003(3) 0.4571(5)
H15 H 0.0782(4) 0.3731(3) 0.3680(5)
C10 C 0.2103(4) 0.3962(4) 0.6329(6)
H16 H 0.2477(6) 0.367(2) 0.536(2)
H17 H 0.2447(6) 0.373(2) 0.737(2)
H18 H 0.2209(4) 0.4637(4) 0.627(4)
C11 C 0.0718(4) 0.2680(3) 0.6605(6)
H19 H 0.100(3) 0.2347(3) 0.561(2)
H20 H -0.0089(6) 0.2517(5) 0.680(5)
H21 H 0.118(3) 0.2504(5) 0.759(3)
O1 O -0.0030(4) 0.6303(2) 0.2136(4)
H22 H -0.054(4) 0.6599(6) 0.264(7)
loop_
_geom_bond_atom_site_label_1
_geom_bond_atom_site_label_2
_geom_bond_site_symmetry_1
_geom_bond_site_symmetry_2
N1 C1 1_555 1_555
C1 H1 1_555 1_555
H2 C1 1_555 1_555
C2 C1 1_555 1_555
H3 C2 1_555 1_555
H4 C2 1_555 1_555
C3 C2 1_555 1_555
H5 C3 1_555 1_555
H6 C3 1_555 1_555
C4 C3 1_555 1_555
H7 C4 1_555 1_555
C5 C4 1_555 1_555
H8 C5 1_555 1_555
C6 C5 1_555 1_555
H9 C6 1_555 1_555
H10 C6 1_555 1_555
C7 C6 1_555 1_555
H11 C7 1_555 1_555
H12 C7 1_555 1_555
C8 C7 1_555 1_555
H13 C8 1_555 1_555
H14 C8 1_555 1_555
C9 N1 1_555 1_555
H15 C9 1_555 1_555
C10 N1 1_555 1_555
H16 C10 1_555 1_555
H17 C10 1_555 1_555
H18 C10 1_555 1_555
C11 N1 1_555 1_555
H19 C11 1_555 1_555
H20 C11 1_555 1_555
H21 C11 1_555 1_555
O1 C5 1_555 1_555
H22 O1 1_555 1_555
C4 C9 1_555 1_555
C8 C9 1_555 1_555

#END
