
#######################################################################
#
#                 Cambridge Crystallographic Data Centre
#                                CCDC 
#
#######################################################################
#
# If this CIF has been generated from an entry in the Cambridge 
# Structural Database, then it will include bibliographic, chemical, 
# crystal, experimental, refinement or atomic coordinate data resulting 
# from the CCDC's data processing and validation procedures.
#
#######################################################################

data_HXCBTU
_chemical_formula_moiety         'C14 H18 Cl1 N3 S1'
_chemical_name_systematic        
N~1~-Cyclohexyl-N~2~-(o-chlorobenzylimino)thiourea
_symmetry_cell_setting           monoclinic
_symmetry_space_group_name_H-M   'C 2/c'
_symmetry_Int_Tables_number      15
_space_group_name_Hall           '-C 2yn'
loop_
_symmetry_equiv_pos_site_id
_symmetry_equiv_pos_as_xyz
1 x,y,z
2 1/2+x,1/2+y,z
3 -x,y,1/2-z
4 1/2-x,1/2+y,1/2-z
5 -x,-y,-z
6 1/2-x,1/2-y,-z
7 x,-y,1/2+z
8 1/2+x,1/2-y,1/2+z
_cell_length_a                   19.68(5)
_cell_length_b                   7.74(3)
_cell_length_c                   20.42(5)
_cell_angle_alpha                90
_cell_angle_beta                 92.8(3)
_cell_angle_gamma                90
_cell_volume                     3106.73
_cell_formula_units_Z            8
loop_
_atom_site_label
_atom_site_type_symbol
_atom_site_fract_x
_atom_site_fract_y
_atom_site_fract_z
Cl1 Cl 0.49600 0.01400 -0.34600
S1 S 0.23600 -0.38300 -0.59500
N1 N 0.36400 -0.38600 -0.62800
N2 N 0.35100 -0.29900 -0.52400
N3 N 0.41900 -0.28500 -0.51500
C1 C 0.55000 -0.06400 -0.40200
C2 C 0.61700 -0.06700 -0.39200
C3 C 0.66200 -0.13400 -0.43600
C4 C 0.63700 -0.23800 -0.48800
C5 C 0.56300 -0.27200 -0.49500
C6 C 0.51900 -0.17700 -0.45400
C7 C 0.44000 -0.20300 -0.46400
C8 C 0.32400 -0.35000 -0.58600
C9 C 0.34900 -0.44900 -0.69500
C10 C 0.41000 -0.53900 -0.72100
C11 C 0.39400 -0.60800 -0.79600
C12 C 0.37700 -0.45700 -0.83700
C13 C 0.31700 -0.35700 -0.81000
C14 C 0.32700 -0.30200 -0.74300
loop_
_geom_bond_atom_site_label_1
_geom_bond_atom_site_label_2
_geom_bond_site_symmetry_1
_geom_bond_site_symmetry_2
Cl1 C1 1_555 1_555
S1 C8 1_555 1_555
N1 C8 1_555 1_555
N2 N3 1_555 1_555
N3 C7 1_555 1_555
C1 C2 1_555 1_555
C2 C3 1_555 1_555
C3 C4 1_555 1_555
C4 C5 1_555 1_555
C5 C6 1_555 1_555
C6 C1 1_555 1_555
C7 C6 1_555 1_555
C8 N2 1_555 1_555
C9 N1 1_555 1_555
C10 C9 1_555 1_555
C11 C10 1_555 1_555
C12 C11 1_555 1_555
C13 C12 1_555 1_555
C14 C9 1_555 1_555
C13 C14 1_555 1_555

#END
