
#######################################################################
#
#                 Cambridge Crystallographic Data Centre
#                                CCDC 
#
#######################################################################
#
# If this CIF has been generated from an entry in the Cambridge 
# Structural Database, then it will include bibliographic, chemical, 
# crystal, experimental, refinement or atomic coordinate data resulting 
# from the CCDC's data processing and validation procedures.
#
#######################################################################

data_IBEHEC
_chemical_formula_moiety         'C23 H37 N1 O3 Si1'
_chemical_name_systematic        
'(+-)-Methyl 7\a-(t-butyl(dimethyl)silyloxy)-3\a-(p-tolyl)tropane-2\b-carboxylate'
_chemical_properties_biological  
'derivative of compound which strongly inhibits ($3!H)mazindol binding and ($3!H)dopamine uptake'
_symmetry_cell_setting           monoclinic
_symmetry_space_group_name_H-M   'P 21/c'
_symmetry_Int_Tables_number      14
_space_group_name_Hall           '-P 2ybc'
loop_
_symmetry_equiv_pos_site_id
_symmetry_equiv_pos_as_xyz
1 x,y,z
2 -x,1/2+y,1/2-z
3 -x,-y,-z
4 x,1/2-y,1/2+z
_cell_length_a                   7.4866(13)
_cell_length_b                   51.958(8)
_cell_length_c                   13.0435(16)
_cell_angle_alpha                90
_cell_angle_beta                 104.204(9)
_cell_angle_gamma                90
_cell_volume                     4918.66
_chemical_melting_point          113-115deg.C
_cell_formula_units_Z            8
loop_
_atom_site_label
_atom_site_type_symbol
_atom_site_fract_x
_atom_site_fract_y
_atom_site_fract_z
C1 C 0.3828(6) 0.0439(1) 0.7779(3)
C2 C 0.2416(6) 0.0214(1) 0.7464(3)
C3 C 0.2741(6) 0.0084(1) 0.6496(3)
C4 C 0.2264(8) 0.0131(1) 0.4629(3)
O1 O 0.1944(5) 0.0217(1) 0.5632(2)
O2 O 0.3610(5) -0.0105(1) 0.6466(2)
C5 C 0.2563(5) 0.0021(1) 0.8387(3)
C6 C 0.1032(5) -0.0174(1) 0.8158(3)
C7 C 0.1346(6) -0.0427(1) 0.7929(3)
C8 C -0.0062(7) -0.0607(1) 0.7731(4)
C9 C -0.1819(7) -0.0547(1) 0.7745(3)
C10 C -0.2152(6) -0.0293(1) 0.7959(3)
C11 C -0.0749(6) -0.0113(1) 0.8166(3)
C12 C -0.3373(8) -0.0741(1) 0.7510(5)
C13 C 0.2707(6) 0.0165(1) 0.9434(3)
C14 C 0.3935(6) 0.0405(1) 0.9531(3)
C15 C 0.2830(7) 0.0652(1) 0.9180(3)
C16 C 0.2904(6) 0.0688(1) 0.8016(3)
O3 O 0.1132(4) 0.0734(1) 0.7335(2)
Si1 Si 0.0605(2) 0.0946(1) 0.6377(1)
C17 C -0.1902(8) 0.0920(1) 0.5874(4)
C18 C -0.2574(10) 0.1078(1) 0.4850(5)
C19 C -0.2778(9) 0.1028(2) 0.6772(6)
C20 C -0.2489(9) 0.0641(1) 0.5661(6)
C21 C 0.1383(9) 0.1272(1) 0.6906(5)
C22 C 0.1728(10) 0.0862(1) 0.5275(5)
N1 N 0.5140(5) 0.0371(1) 0.8785(2)
C23 C 0.6799(7) 0.0532(1) 0.9030(4)
H1 H 0.4481 0.0468 0.7224
H2 H 0.1171 0.0287 0.7287
H3 H 0.1619 0.0242 0.4071
H4 H 0.1824 -0.0042 0.4490
H5 H 0.3560 0.0136 0.4665
H6 H 0.3719 -0.0073 0.8458
H7 H 0.2528 -0.0478 0.7908
H8 H 0.0208 -0.0776 0.7583
H9 H -0.3341 -0.0242 0.7963
H10 H -0.1021 0.0055 0.8317
H11 H -0.2899 -0.0906 0.7380
H12 H -0.4292 -0.0687 0.6896
H13 H -0.3913 -0.0753 0.8104
H14 H 0.3209 0.0049 1.0018
H15 H 0.1483 0.0215 0.9482
H16 H 0.4684 0.0423 1.0257
H17 H 0.3384 0.0797 0.9607
H18 H 0.1568 0.0633 0.9235
H19 H 0.3710 0.0834 0.7970
H20 H -0.3887 0.1061 0.4602
H21 H -0.1994 0.1014 0.4320
H22 H -0.2261 0.1255 0.4990
H23 H -0.4096 0.1018 0.6544
H24 H -0.2413 0.1204 0.6916
H25 H -0.2356 0.0928 0.7403
H26 H -0.3803 0.0632 0.5399
H27 H -0.2125 0.0544 0.6305
H28 H -0.1909 0.0570 0.5144
H29 H 0.0811 0.1315 0.7467
H30 H 0.1041 0.1397 0.6350
H31 H 0.2698 0.1272 0.7173
H32 H 0.1328 0.0695 0.5004
H33 H 0.3043 0.0863 0.5542
H34 H 0.1386 0.0987 0.4719
H35 H 0.7505 0.0500 0.8520
H36 H 0.7527 0.0490 0.9725
H37 H 0.6451 0.0710 0.9007
C24 C 1.0986(7) 0.2046(1) -0.0443(3)
C25 C 0.9998(6) 0.2253(1) 0.0076(3)
C26 C 1.1304(7) 0.2341(1) 0.1083(4)
C27 C 1.2928(9) 0.2224(1) 0.2796(4)
O4 O 1.1570(5) 0.2166(1) 0.1821(2)
O5 O 1.2044(5) 0.2550(1) 0.1215(3)
C28 C 0.9348(6) 0.2482(1) -0.0685(3)
C29 C 0.8127(6) 0.2669(1) -0.0302(3)
C30 C 0.6647(7) 0.2604(1) 0.0082(4)
C31 C 0.5524(7) 0.2783(1) 0.0375(4)
C32 C 0.5807(8) 0.3041(1) 0.0288(4)
C33 C 0.7299(9) 0.3110(1) -0.0091(5)
C34 C 0.8442(8) 0.2932(1) -0.0372(4)
C35 C 0.4544(9) 0.3239(1) 0.0586(5)
C36 C 0.8409(7) 0.2378(1) -0.1792(3)
C37 C 0.9429(7) 0.2149(1) -0.2113(4)
C38 C 0.8597(8) 0.1888(1) -0.1893(3)
C39 C 0.9740(7) 0.1809(1) -0.0803(3)
O6 O 0.8658(5) 0.1745(1) -0.0087(2)
C44 C 0.6420(50) 0.1273(5) 0.1820(30)
C45 C 0.6180(80) 0.1748(6) 0.1450(50)
Si3 Si 0.8883(9) 0.1491(1) 0.0718(5)
C46 C 0.6540(20) 0.1465(4) 0.0986(15)
C47 C 1.0660(30) 0.1533(4) 0.1912(14)
C48 C 0.9659(19) 0.1202(4) 0.0124(19)
C49 C 0.5080(30) 0.1414(5) -0.0030(20)
N2 N 1.1319(6) 0.2150(1) -0.1423(3)
C52 C 1.2657(8) 0.2006(1) -0.1829(4)
H38 H 1.2148 0.1994 0.0042
H39 H 0.8919 0.2174 0.0251
H40 H 1.3011 0.2083 0.3279
H41 H 1.2565 0.2377 0.3108
H42 H 1.4107 0.2252 0.2646
H43 H 1.0450 0.2576 -0.0747
H44 H 0.6389 0.2431 0.0147
H45 H 0.4544 0.2728 0.0641
H46 H 0.7540 0.3283 -0.0158
H47 H 0.9446 0.2988 -0.0614
H48 H 0.3591 0.3153 0.0831
H49 H 0.3999 0.3342 -0.0022
H50 H 0.5240 0.3347 0.1137
H51 H 0.7159 0.2327 -0.1802
H52 H 0.8341 0.2515 -0.2306
H53 H 0.9458 0.2162 -0.2858
H54 H 0.7309 0.1907 -0.1892
H55 H 0.8701 0.1761 -0.2422
H56 H 1.0511 0.1661 -0.0878
H66 H 0.6206 0.1302 0.2506
H67 H 0.7159 0.1122 0.1834
H68 H 0.5257 0.1250 0.1312
H69 H 0.5905 0.1776 0.2118
H70 H 0.5057 0.1725 0.0911
H71 H 0.6830 0.1895 0.1271
H72 H 1.0388 0.1681 0.2289
H73 H 1.1825 0.1558 0.1738
H74 H 1.0728 0.1383 0.2348
H75 H 1.0844 0.1234 -0.0010
H76 H 0.8788 0.1162 -0.0529
H77 H 0.9747 0.1059 0.0603
H78 H 0.3889 0.1401 0.0121
H79 H 0.5347 0.1255 -0.0342
H80 H 0.5067 0.1552 -0.0522
H87 H 1.3842 0.2017 -0.1338
H88 H 1.2732 0.2076 -0.2498
H89 H 1.2282 0.1829 -0.1920
Si2? Si 0.7935(6) 0.1462(1) 0.0177(3)
C40? C 0.7408(17) 0.1504(3) 0.1504(8)
C41? C 0.9530(40) 0.1210(4) 0.0180(20)
C42? C 0.5870(16) 0.1380(3) -0.0860(10)
C43? C 0.9180(20) 0.1536(3) 0.2358(9)
C50? C 0.6460(50) 0.1244(7) 0.1730(30)
C51? C 0.6100(80) 0.1722(6) 0.1480(40)
H57? H 0.9740 0.1193 -0.0518
H58? H 0.9040 0.1051 0.0370
H59? H 1.0672 0.1248 0.0675
H60? H 0.6195 0.1361 -0.1523
H61? H 0.4971 0.1514 -0.0915
H62? H 0.5365 0.1221 -0.0682
H63? H 0.8887 0.1557 0.3031
H64? H 0.9824 0.1685 0.2209
H65? H 0.9934 0.1386 0.2376
H81? H 0.5261 0.1239 0.1873
H82? H 0.7379 0.1268 0.2378
H83? H 0.6680 0.1085 0.1406
H84? H 0.4918 0.1709 0.1646
H85? H 0.6066 0.1860 0.0986
H86? H 0.7028 0.1757 0.2116
loop_
_geom_bond_atom_site_label_1
_geom_bond_atom_site_label_2
_geom_bond_site_symmetry_1
_geom_bond_site_symmetry_2
C1 C2 1_555 1_555
C2 C3 1_555 1_555
C3 O1 1_555 1_555
C4 O1 1_555 1_555
O2 C3 1_555 1_555
C5 C2 1_555 1_555
C6 C5 1_555 1_555
C7 C6 1_555 1_555
C8 C7 1_555 1_555
C9 C8 1_555 1_555
C10 C9 1_555 1_555
C11 C6 1_555 1_555
C12 C9 1_555 1_555
C13 C5 1_555 1_555
C14 C13 1_555 1_555
C15 C14 1_555 1_555
C16 C1 1_555 1_555
O3 C16 1_555 1_555
Si1 O3 1_555 1_555
C17 Si1 1_555 1_555
C18 C17 1_555 1_555
C19 C17 1_555 1_555
C20 C17 1_555 1_555
C21 Si1 1_555 1_555
C22 Si1 1_555 1_555
N1 C1 1_555 1_555
C23 N1 1_555 1_555
C24 C25 1_555 1_555
C25 C26 1_555 1_555
C26 O4 1_555 1_555
C27 O4 1_555 1_555
O5 C26 1_555 1_555
C28 C25 1_555 1_555
C29 C28 1_555 1_555
C30 C29 1_555 1_555
C31 C30 1_555 1_555
C32 C31 1_555 1_555
C33 C32 1_555 1_555
C34 C29 1_555 1_555
C35 C32 1_555 1_555
C36 C28 1_555 1_555
C37 C36 1_555 1_555
C38 C37 1_555 1_555
C39 C24 1_555 1_555
O6 C39 1_555 1_555
C44 C46 1_555 1_555
C45 C46 1_555 1_555
Si3 O6 1_555 1_555
C46 Si3 1_555 1_555
C47 Si3 1_555 1_555
C48 Si3 1_555 1_555
C49 C46 1_555 1_555
N2 C24 1_555 1_555
C52 N2 1_555 1_555
H1 C1 1_555 1_555
H2 C2 1_555 1_555
H3 C4 1_555 1_555
H4 C4 1_555 1_555
H5 C4 1_555 1_555
H6 C5 1_555 1_555
H7 C7 1_555 1_555
H8 C8 1_555 1_555
H9 C10 1_555 1_555
H10 C11 1_555 1_555
H11 C12 1_555 1_555
H12 C12 1_555 1_555
H13 C12 1_555 1_555
H14 C13 1_555 1_555
H15 C13 1_555 1_555
H16 C14 1_555 1_555
H17 C15 1_555 1_555
H18 C15 1_555 1_555
H19 C16 1_555 1_555
H20 C18 1_555 1_555
H21 C18 1_555 1_555
H22 C18 1_555 1_555
H23 C19 1_555 1_555
H24 C19 1_555 1_555
H25 C19 1_555 1_555
H26 C20 1_555 1_555
H27 C20 1_555 1_555
H28 C20 1_555 1_555
H29 C21 1_555 1_555
H30 C21 1_555 1_555
H31 C21 1_555 1_555
H32 C22 1_555 1_555
H33 C22 1_555 1_555
H34 C22 1_555 1_555
H35 C23 1_555 1_555
H36 C23 1_555 1_555
H37 C23 1_555 1_555
H38 C24 1_555 1_555
H39 C25 1_555 1_555
H40 C27 1_555 1_555
H41 C27 1_555 1_555
H42 C27 1_555 1_555
H43 C28 1_555 1_555
H44 C30 1_555 1_555
H45 C31 1_555 1_555
H46 C33 1_555 1_555
H47 C34 1_555 1_555
H48 C35 1_555 1_555
H49 C35 1_555 1_555
H50 C35 1_555 1_555
H51 C36 1_555 1_555
H52 C36 1_555 1_555
H53 C37 1_555 1_555
H54 C38 1_555 1_555
H55 C38 1_555 1_555
H56 C39 1_555 1_555
H66 C44 1_555 1_555
H67 C44 1_555 1_555
H68 C44 1_555 1_555
H69 C45 1_555 1_555
H70 C45 1_555 1_555
H71 C45 1_555 1_555
H72 C47 1_555 1_555
H73 C47 1_555 1_555
H74 C47 1_555 1_555
H75 C48 1_555 1_555
H76 C48 1_555 1_555
H77 C48 1_555 1_555
H78 C49 1_555 1_555
H79 C49 1_555 1_555
H80 C49 1_555 1_555
H87 C52 1_555 1_555
H88 C52 1_555 1_555
H89 C52 1_555 1_555
C10 C11 1_555 1_555
C14 N1 1_555 1_555
C15 C16 1_555 1_555
C33 C34 1_555 1_555
C37 N2 1_555 1_555
C38 C39 1_555 1_555

#END
