
#######################################################################
#
#                 Cambridge Crystallographic Data Centre
#                                CCDC 
#
#######################################################################
#
# If this CIF has been generated from an entry in the Cambridge 
# Structural Database, then it will include bibliographic, chemical, 
# crystal, experimental, refinement or atomic coordinate data resulting 
# from the CCDC's data processing and validation procedures.
#
#######################################################################

data_IBENAH
_chemical_formula_moiety         'C27 H20 O3'
_chemical_name_systematic        2,7-bis(3-methoxyphenyl)-9H-fluoren-9-one
_symmetry_cell_setting           orthorhombic
_symmetry_space_group_name_H-M   'P b c n'
_symmetry_Int_Tables_number      60
_space_group_name_Hall           '-P 2n 2ab'
loop_
_symmetry_equiv_pos_site_id
_symmetry_equiv_pos_as_xyz
1 x,y,z
2 1/2-x,1/2-y,1/2+z
3 -x,y,1/2-z
4 1/2+x,1/2-y,-z
5 -x,-y,-z
6 1/2+x,1/2+y,1/2-z
7 x,-y,1/2+z
8 1/2-x,1/2+y,z
_cell_length_a                   21.194(2)
_cell_length_b                   11.4105(11)
_cell_length_c                   8.0612(6)
_cell_angle_alpha                90
_cell_angle_beta                 90
_cell_angle_gamma                90
_cell_volume                     1949.47
_exptl_crystal_colour            orange
_exptl_crystal_description       block
_cell_formula_units_Z            4
loop_
_atom_site_label
_atom_site_type_symbol
_atom_site_fract_x
_atom_site_fract_y
_atom_site_fract_z
O1 O 0.5000 0.79243(16) 0.7500
O2 O 0.86406(6) 0.44061(11) 0.4724(2)
C1 C 0.5000 0.6860(2) 0.7500
C2 C 0.54957(8) 0.60779(16) 0.6830(3)
C3 C 0.60585(8) 0.63520(17) 0.6102(3)
H1 H 0.6167 0.7132 0.5931
C4 C 0.64707(8) 0.54641(15) 0.5614(3)
C5 C 0.62739(8) 0.43177(16) 0.5853(3)
H2 H 0.6539 0.3714 0.5515
C6 C 0.57016(8) 0.40312(16) 0.6570(3)
H3 H 0.5584 0.3252 0.6704
C7 C 0.53106(7) 0.49175(16) 0.7079(3)
C8 C 0.70973(8) 0.57423(16) 0.4918(3)
C9 C 0.75970(8) 0.49755(17) 0.5085(3)
H4 H 0.7533 0.4262 0.5617
C10 C 0.81885(9) 0.52435(16) 0.4480(3)
C11 C 0.82969(9) 0.62950(17) 0.3712(3)
H5 H 0.8697 0.6489 0.3327
C12 C 0.77978(9) 0.70605(17) 0.3524(3)
H6 H 0.7864 0.7773 0.2993
C13 C 0.72079(9) 0.67957(16) 0.4101(3)
H7 H 0.6879 0.7323 0.3946
C14 C 0.92272(9) 0.4550(2) 0.3943(4)
H8 H 0.9167 0.4605 0.2766
H9 H 0.9492 0.3889 0.4189
H10 H 0.9424 0.5253 0.4342
O2B O 0.13594(6) 0.44061(11) 1.0276(2)
C2B C 0.45043(8) 0.60779(16) 0.8170(3)
C3B C 0.39415(8) 0.63520(17) 0.8898(3)
H1B H 0.3833 0.7132 0.9069
C4B C 0.35293(8) 0.54641(15) 0.9386(3)
C5B C 0.37261(8) 0.43177(16) 0.9147(3)
H2B H 0.3461 0.3714 0.9485
C6B C 0.42984(8) 0.40312(16) 0.8430(3)
H3B H 0.4416 0.3252 0.8296
C7B C 0.46894(7) 0.49175(16) 0.7921(3)
C8B C 0.29027(8) 0.57423(16) 1.0082(3)
C9B C 0.24030(8) 0.49755(17) 0.9915(3)
H4B H 0.2467 0.4262 0.9383
C10B C 0.18115(9) 0.52435(16) 1.0520(3)
C11B C 0.17031(9) 0.62950(17) 1.1288(3)
H5B H 0.1303 0.6489 1.1673
C12B C 0.22022(9) 0.70605(17) 1.1476(3)
H6B H 0.2136 0.7773 1.2007
C13B C 0.27921(9) 0.67957(16) 1.0899(3)
H7B H 0.3121 0.7323 1.1054
C14B C 0.07728(9) 0.4550(2) 1.1057(4)
H8B H 0.0833 0.4605 1.2234
H9B H 0.0508 0.3889 1.0811
H10B H 0.0576 0.5253 1.0658
loop_
_geom_bond_atom_site_label_1
_geom_bond_atom_site_label_2
_geom_bond_site_symmetry_1
_geom_bond_site_symmetry_2
O1 C1 1_555 1_555
O2 C10 1_555 1_555
C1 C2 1_555 1_555
C2 C3 1_555 1_555
C3 H1 1_555 1_555
C4 C3 1_555 1_555
C5 C4 1_555 1_555
H2 C5 1_555 1_555
C6 C5 1_555 1_555
H3 C6 1_555 1_555
C7 C2 1_555 1_555
C8 C4 1_555 1_555
C9 C8 1_555 1_555
H4 C9 1_555 1_555
C10 C9 1_555 1_555
C11 C10 1_555 1_555
H5 C11 1_555 1_555
C12 C11 1_555 1_555
H6 C12 1_555 1_555
C13 C8 1_555 1_555
H7 C13 1_555 1_555
C14 O2 1_555 1_555
H8 C14 1_555 1_555
H9 C14 1_555 1_555
H10 C14 1_555 1_555
O2B C10B 1_555 1_555
C2B C1 1_555 1_555
C3B C2B 1_555 1_555
H1B C3B 1_555 1_555
C4B C3B 1_555 1_555
C5B C4B 1_555 1_555
H2B C5B 1_555 1_555
C6B C5B 1_555 1_555
H3B C6B 1_555 1_555
C7B C7 1_555 1_555
C8B C4B 1_555 1_555
C9B C8B 1_555 1_555
H4B C9B 1_555 1_555
C10B C9B 1_555 1_555
C11B C10B 1_555 1_555
H5B C11B 1_555 1_555
C12B C11B 1_555 1_555
H6B C12B 1_555 1_555
C13B C8B 1_555 1_555
H7B C13B 1_555 1_555
C14B O2B 1_555 1_555
H8B C14B 1_555 1_555
H9B C14B 1_555 1_555
H10B C14B 1_555 1_555
C6 C7 1_555 1_555
C12 C13 1_555 1_555
C2B C7B 1_555 1_555
C6B C7B 1_555 1_555
C12B C13B 1_555 1_555

#END
