
#######################################################################
#
#                 Cambridge Crystallographic Data Centre
#                                CCDC 
#
#######################################################################
#
# If this CIF has been generated from an entry in the Cambridge 
# Structural Database, then it will include bibliographic, chemical, 
# crystal, experimental, refinement or atomic coordinate data resulting 
# from the CCDC's data processing and validation procedures.
#
#######################################################################

data_IBENEL
_chemical_formula_moiety         'C27 H20 O3'
_chemical_name_systematic        2,7-bis(2-methoxyphenyl)-9H-fluoren-9-one
_symmetry_cell_setting           orthorhombic
_symmetry_space_group_name_H-M   'C 2 2 21'
_symmetry_Int_Tables_number      20
_space_group_name_Hall           'C 2n 2'
loop_
_symmetry_equiv_pos_site_id
_symmetry_equiv_pos_as_xyz
1 x,y,z
2 -x,-y,1/2+z
3 -x,y,1/2-z
4 x,-y,-z
5 1/2+x,1/2+y,z
6 1/2-x,1/2-y,1/2+z
7 1/2-x,1/2+y,1/2-z
8 1/2+x,1/2-y,-z
_cell_length_a                   10.0490(8)
_cell_length_b                   14.9454(14)
_cell_length_c                   13.6607(11)
_cell_angle_alpha                90
_cell_angle_beta                 90
_cell_angle_gamma                90
_cell_volume                     2051.65
_exptl_crystal_colour            yellow
_exptl_crystal_description       block
_cell_formula_units_Z            4
loop_
_atom_site_label
_atom_site_type_symbol
_atom_site_fract_x
_atom_site_fract_y
_atom_site_fract_z
O1 O 0.09485(19) 0.5000 0.5000
O2 O 0.19219(15) 0.27289(10) 0.77072(12)
C1 C 0.2154(3) 0.5000 0.5000
C2 C 0.30520(18) 0.43006(12) 0.54072(14)
C3 C 0.2719(2) 0.35142(13) 0.58566(15)
H1 H 0.1830 0.3364 0.5950
C4 C 0.37236(19) 0.29381(13) 0.61745(14)
C5 C 0.5033(2) 0.31966(15) 0.60141(18)
H2 H 0.5713 0.2818 0.6219
C6 C 0.5373(2) 0.39992(16) 0.55596(18)
H3 H 0.6260 0.4153 0.5466
C7 C 0.43718(18) 0.45585(13) 0.52527(15)
C8 C 0.3391(2) 0.20479(14) 0.66008(15)
C9 C 0.2438(2) 0.19492(15) 0.73433(16)
C10 C 0.2083(2) 0.11075(15) 0.76645(19)
H4 H 0.1442 0.1046 0.8151
C11 C 0.2670(3) 0.03572(16) 0.7268(2)
H5 H 0.2418 -0.0208 0.7485
C12 C 0.3622(3) 0.04391(17) 0.6559(2)
H6 H 0.4031 -0.0067 0.6302
C13 C 0.3969(2) 0.12791(15) 0.62276(19)
H7 H 0.4610 0.1331 0.5740
C14 C 0.1126(3) 0.26794(18) 0.85631(19)
H8 H 0.0346 0.2329 0.8431
H9 H 0.0867 0.3271 0.8758
H10 H 0.1627 0.2404 0.9080
O2C O 0.19219(15) 0.72711(10) 0.22928(12)
C2C C 0.30520(18) 0.56994(12) 0.45928(14)
C3C C 0.2719(2) 0.64858(13) 0.41434(15)
H1C H 0.1830 0.6636 0.4050
C4C C 0.37236(19) 0.70619(13) 0.38255(14)
C5C C 0.5033(2) 0.68034(15) 0.39859(18)
H2C H 0.5713 0.7182 0.3781
C6C C 0.5373(2) 0.60008(16) 0.44404(18)
H3C H 0.6260 0.5847 0.4534
C7C C 0.43718(18) 0.54415(13) 0.47473(15)
C8C C 0.3391(2) 0.79521(14) 0.33992(15)
C9C C 0.2438(2) 0.80508(15) 0.26567(16)
C10C C 0.2083(2) 0.88925(15) 0.23355(19)
H4C H 0.1442 0.8954 0.1849
C11C C 0.2670(3) 0.96428(16) 0.2732(2)
H5C H 0.2418 1.0208 0.2515
C12C C 0.3622(3) 0.95609(17) 0.3441(2)
H6C H 0.4031 1.0067 0.3698
C13C C 0.3969(2) 0.87209(15) 0.37724(19)
H7C H 0.4610 0.8669 0.4260
C14C C 0.1126(3) 0.73206(18) 0.14369(19)
H8C H 0.0346 0.7671 0.1569
H9C H 0.0867 0.6729 0.1242
H10C H 0.1627 0.7596 0.0920
loop_
_geom_bond_atom_site_label_1
_geom_bond_atom_site_label_2
_geom_bond_site_symmetry_1
_geom_bond_site_symmetry_2
O1 C1 1_555 1_555
O2 C9 1_555 1_555
C1 C2 1_555 1_555
C2 C3 1_555 1_555
C3 H1 1_555 1_555
C4 C3 1_555 1_555
C5 C4 1_555 1_555
H2 C5 1_555 1_555
C6 C5 1_555 1_555
H3 C6 1_555 1_555
C7 C2 1_555 1_555
C8 C4 1_555 1_555
C9 C8 1_555 1_555
C10 C9 1_555 1_555
H4 C10 1_555 1_555
C11 C10 1_555 1_555
H5 C11 1_555 1_555
C12 C11 1_555 1_555
H6 C12 1_555 1_555
C13 C8 1_555 1_555
H7 C13 1_555 1_555
C14 O2 1_555 1_555
H8 C14 1_555 1_555
H9 C14 1_555 1_555
H10 C14 1_555 1_555
O2C C9C 1_555 1_555
C2C C1 1_555 1_555
C3C C2C 1_555 1_555
H1C C3C 1_555 1_555
C4C C3C 1_555 1_555
C5C C4C 1_555 1_555
H2C C5C 1_555 1_555
C6C C5C 1_555 1_555
H3C C6C 1_555 1_555
C7C C7 1_555 1_555
C8C C4C 1_555 1_555
C9C C8C 1_555 1_555
C10C C9C 1_555 1_555
H4C C10C 1_555 1_555
C11C C10C 1_555 1_555
H5C C11C 1_555 1_555
C12C C11C 1_555 1_555
H6C C12C 1_555 1_555
C13C C8C 1_555 1_555
H7C C13C 1_555 1_555
C14C O2C 1_555 1_555
H8C C14C 1_555 1_555
H9C C14C 1_555 1_555
H10C C14C 1_555 1_555
C6 C7 1_555 1_555
C12 C13 1_555 1_555
C2C C7C 1_555 1_555
C6C C7C 1_555 1_555
C12C C13C 1_555 1_555

#END
