
#######################################################################
#
#                 Cambridge Crystallographic Data Centre
#                                CCDC 
#
#######################################################################
#
# If this CIF has been generated from an entry in the Cambridge 
# Structural Database, then it will include bibliographic, chemical, 
# crystal, experimental, refinement or atomic coordinate data resulting 
# from the CCDC's data processing and validation procedures.
#
#######################################################################

data_IBIGAD
_chemical_formula_moiety         
'2(C40 H50 K1 N25 O18),C40 H44 N24 O12,Cl1 1-,77(H2 O1),H3 O1 1+'
_chemical_name_systematic        
"bis((\a,\a',\f,\f'-tetramethylcucurbit(6)uril)-triaqua-nitrato-potassium) (\a,\a',\f,\f'-tetramethylcucurbit(6)uril) oxonium chloride hydrate"
_symmetry_cell_setting           triclinic
_symmetry_space_group_name_H-M   'P -1'
_symmetry_Int_Tables_number      2
_space_group_name_Hall           '-P 1'
loop_
_symmetry_equiv_pos_site_id
_symmetry_equiv_pos_as_xyz
1 x,y,z
2 -x,-y,-z
_cell_length_a                   14.3377(17)
_cell_length_b                   14.3877(18)
_cell_length_c                   27.836(4)
_cell_angle_alpha                81.131(4)
_cell_angle_beta                 89.708(4)
_cell_angle_gamma                65.254(4)
_cell_volume                     5141.23
_exptl_crystal_colour            colorless
_exptl_crystal_description       block
_cell_formula_units_Z            1
loop_
_atom_site_label
_atom_site_type_symbol
_atom_site_fract_x
_atom_site_fract_y
_atom_site_fract_z
Cl1 Cl 0.0000 0.5000 0.5000
C41 C 0.0635(3) 0.0121(3) 0.14608(12)
C42 C -0.1098(3) 0.0784(3) 0.16328(13)
H45 H -0.1341 0.1026 0.1940
C43 C -0.0657(3) -0.0412(3) 0.16834(13)
H46 H -0.0714 -0.0731 0.2013
C44 C -0.2057(3) 0.0351(4) 0.11047(15)
C45 C 0.1150(3) -0.1763(3) 0.16605(14)
H47 H 0.1028 -0.2098 0.1969
H48 H 0.1830 -0.1777 0.1693
C46 C -0.1343(3) -0.1561(3) 0.13451(16)
H49 H -0.1272 -0.1889 0.1683
H50 H -0.2013 -0.1445 0.1210
C47 C 0.1954(3) -0.2741(3) 0.10056(14)
C48 C 0.0469(3) -0.2883(3) 0.12855(14)
H51 H 0.0472 -0.3269 0.1608
C49 C 0.0955(3) -0.3623(3) 0.09132(13)
H52 H 0.1148 -0.4348 0.1061
C50 C -0.0744(4) -0.2514(4) 0.06524(16)
C51 C 0.2583(3) -0.4059(3) 0.04590(13)
H53 H 0.2685 -0.4777 0.0540
H54 H 0.3235 -0.4036 0.0529
C52 C 0.0154(4) -0.3847(3) 0.01422(14)
H55 H 0.0532 -0.4583 0.0263
H56 H -0.0546 -0.3723 0.0053
C53 C 0.2671(3) -0.3048(3) -0.03207(15)
C54 C 0.1706(3) -0.4002(3) -0.03707(13)
C55 C 0.1736(3) -0.3393(3) -0.08846(13)
C56 C 0.0034(4) -0.2841(3) -0.06592(15)
C57 C -0.2667(3) 0.2220(3) 0.11552(14)
H57 H -0.2772 0.2509 0.1454
H58 H -0.3320 0.2251 0.1042
C58 C 0.0234(3) -0.2009(3) -0.14610(14)
H59 H -0.0465 -0.1921 -0.1524
H60 H 0.0635 -0.2323 -0.1722
C59 C 0.2162(4) -0.5196(3) -0.03241(15)
H61 H 0.1769 -0.5381 -0.0538
H62 H 0.2136 -0.5495 0.0006
H63 H 0.2864 -0.5454 -0.0411
C60 C 0.2197(4) -0.4083(3) -0.12794(14)
H64 H 0.2909 -0.4527 -0.1189
H65 H 0.2138 -0.3649 -0.1587
H66 H 0.1828 -0.4499 -0.1306
N26 N 0.0645(3) -0.2709(2) -0.10120(11)
N27 N 0.0608(3) -0.3585(3) -0.02878(11)
N28 N 0.2346(2) -0.2860(2) -0.07853(11)
N29 N 0.2302(2) -0.3711(3) -0.00561(11)
N30 N 0.0134(3) -0.3274(3) 0.05376(11)
N31 N -0.0552(3) -0.2256(3) 0.10812(11)
N32 N 0.1836(3) -0.3458(3) 0.07677(11)
N33 N 0.1147(2) -0.2361(2) 0.12876(11)
N34 N -0.1296(2) -0.0559(3) 0.13253(11)
N35 N -0.1925(2) 0.1145(3) 0.12590(11)
N36 N 0.0415(2) -0.0714(2) 0.15732(10)
N37 N -0.0222(3) 0.0998(2) 0.14761(10)
O19 O -0.0923(3) -0.2386(2) -0.06854(11)
O20 O -0.1582(2) -0.2101(3) 0.04117(12)
O21 O -0.2755(2) 0.0443(2) 0.08209(10)
O22 O 0.3221(2) -0.2704(3) -0.01414(11)
O23 O 0.2665(2) -0.2475(2) 0.09627(11)
O24 O 0.1501(2) 0.0069(2) 0.13769(9)
C41A C -0.0635(3) -0.0121(3) -0.14608(12)
C42A C 0.1098(3) -0.0784(3) -0.16328(13)
H45A H 0.1341 -0.1026 -0.1940
C43A C 0.0657(3) 0.0412(3) -0.16834(13)
H46A H 0.0714 0.0731 -0.2013
C44A C 0.2057(3) -0.0351(4) -0.11047(15)
C45A C -0.1150(3) 0.1763(3) -0.16605(14)
H47A H -0.1028 0.2098 -0.1969
H48A H -0.1830 0.1777 -0.1693
C46A C 0.1343(3) 0.1561(3) -0.13451(16)
H49A H 0.1272 0.1889 -0.1683
H50A H 0.2013 0.1445 -0.1210
C47A C -0.1954(3) 0.2741(3) -0.10056(14)
C48A C -0.0469(3) 0.2883(3) -0.12855(14)
H51A H -0.0472 0.3269 -0.1608
C49A C -0.0955(3) 0.3623(3) -0.09132(13)
H52A H -0.1148 0.4348 -0.1061
C50A C 0.0744(4) 0.2514(4) -0.06524(16)
C51A C -0.2583(3) 0.4059(3) -0.04590(13)
H53A H -0.2685 0.4777 -0.0540
H54A H -0.3235 0.4036 -0.0529
C52A C -0.0154(4) 0.3847(3) -0.01422(14)
H55A H -0.0532 0.4583 -0.0263
H56A H 0.0546 0.3723 -0.0053
C53A C -0.2671(3) 0.3048(3) 0.03207(15)
C54A C -0.1706(3) 0.4002(3) 0.03707(13)
C55A C -0.1736(3) 0.3393(3) 0.08846(13)
C56A C -0.0034(4) 0.2841(3) 0.06592(15)
C57A C 0.2667(3) -0.2220(3) -0.11552(14)
H57A H 0.2772 -0.2509 -0.1454
H58A H 0.3320 -0.2251 -0.1042
C58A C -0.0234(3) 0.2009(3) 0.14610(14)
H59A H 0.0465 0.1921 0.1524
H60A H -0.0635 0.2323 0.1722
C59A C -0.2162(4) 0.5196(3) 0.03241(15)
H61A H -0.1769 0.5381 0.0538
H62A H -0.2136 0.5495 -0.0006
H63A H -0.2864 0.5454 0.0411
C60A C -0.2197(4) 0.4083(3) 0.12794(14)
H64A H -0.2909 0.4527 0.1189
H65A H -0.2138 0.3649 0.1587
H66A H -0.1828 0.4499 0.1306
N26A N -0.0645(3) 0.2709(2) 0.10120(11)
N27A N -0.0608(3) 0.3585(3) 0.02878(11)
N28A N -0.2346(2) 0.2860(2) 0.07853(11)
N29A N -0.2302(2) 0.3711(3) 0.00561(11)
N30A N -0.0134(3) 0.3274(3) -0.05376(11)
N31A N 0.0552(3) 0.2256(3) -0.10812(11)
N32A N -0.1836(3) 0.3458(3) -0.07677(11)
N33A N -0.1147(2) 0.2361(2) -0.12876(11)
N34A N 0.1296(2) 0.0559(3) -0.13253(11)
N35A N 0.1925(2) -0.1145(3) -0.12590(11)
N36A N -0.0415(2) 0.0714(2) -0.15732(10)
N37A N 0.0222(3) -0.0998(2) -0.14761(10)
O19A O 0.0923(3) 0.2386(2) 0.06854(11)
O20A O 0.1582(2) 0.2101(3) -0.04117(12)
O21A O 0.2755(2) -0.0443(2) -0.08209(10)
O22A O -0.3221(2) 0.2704(3) 0.01414(11)
O23A O -0.2665(2) 0.2475(2) -0.09627(11)
O24A O -0.1501(2) -0.0069(2) -0.13769(9)
O25 O 0.28260(19) -0.0068(2) 0.78415(9)
O1 O 0.3568(2) -0.0856(2) 0.47504(8)
O2 O 0.4399(2) 0.0129(2) 0.55832(10)
O3 O 0.2728(2) 0.1418(2) 0.46144(9)
N1 N 0.2653(3) 0.0125(3) 0.66080(17)
O4 O 0.3709(4) 0.0075(4) 0.67697(16)
O5 O 0.2056(2) 0.0088(3) 0.69563(10)
O6 O 0.2395(2) 0.0186(2) 0.61740(9)
K1 K 0.27777(6) 0.02446(6) 0.53295(3)
C1 C 0.0544(3) 0.0244(3) 0.55525(13)
C2 C -0.0289(3) -0.0425(3) 0.61516(13)
C3 C -0.0787(3) 0.0787(3) 0.60889(13)
C4 C -0.0118(3) 0.0068(3) 0.69022(13)
C5 C -0.0332(3) 0.2124(3) 0.55124(13)
H1 H -0.1062 0.2581 0.5482
H2 H -0.0082 0.2135 0.5188
C6 C -0.0965(3) 0.1971(3) 0.67334(14)
H3 H -0.1062 0.1868 0.7079
H4 H -0.1632 0.2416 0.6566
C7 C 0.1128(3) 0.2532(3) 0.57139(13)
C8 C -0.0293(3) 0.3129(3) 0.61885(13)
H5 H -0.0983 0.3669 0.6081
C9 C 0.0468(3) 0.3592(3) 0.63033(13)
H6 H 0.0168 0.4350 0.6213
C10 C 0.0235(3) 0.2654(3) 0.70141(14)
C11 C 0.2093(3) 0.3491(3) 0.58877(13)
H7 H 0.2355 0.3311 0.5577
H8 H 0.1755 0.4242 0.5850
C12 C 0.1270(3) 0.3609(3) 0.71089(13)
H9 H 0.1122 0.3486 0.7447
H10 H 0.1037 0.4352 0.7010
C13 C 0.3930(3) 0.2461(3) 0.61598(13)
C14 C 0.2904(3) 0.3500(3) 0.66998(13)
H11 H 0.2626 0.4259 0.6647
C15 C 0.4036(3) 0.2985(3) 0.69061(13)
H12 H 0.4308 0.3493 0.6943
C16 C 0.3033(3) 0.2505(3) 0.74673(14)
C17 C 0.5666(3) 0.1859(3) 0.65382(14)
H13 H 0.5935 0.2295 0.6666
H14 H 0.5845 0.1836 0.6202
C18 C 0.4880(3) 0.1862(3) 0.77205(12)
H15 H 0.4638 0.1812 0.8045
H16 H 0.5261 0.2285 0.7706
C19 C 0.6416(3) -0.0026(3) 0.66007(13)
C20 C 0.6463(3) 0.0540(3) 0.73430(12)
C21 C 0.6930(3) -0.0672(3) 0.74289(12)
C22 C 0.5423(3) 0.0000(3) 0.78542(13)
C23 C 0.7269(3) -0.1937(3) 0.68063(13)
H17 H 0.7471 -0.1905 0.6473
H18 H 0.7874 -0.2407 0.7015
C24 C 0.6259(3) -0.1895(3) 0.79480(13)
H19 H 0.5919 -0.1836 0.8251
H20 H 0.6983 -0.2346 0.8026
C25 C 0.5928(3) -0.2356(3) 0.64609(14)
C26 C 0.6401(3) -0.2959(3) 0.72867(13)
H21 H 0.7069 -0.3499 0.7427
C27 C 0.5694(3) -0.3429(3) 0.71231(13)
H22 H 0.6061 -0.4183 0.7145
C28 C 0.4977(3) -0.2536(3) 0.77538(13)
C29 C 0.4865(3) -0.3239(3) 0.62876(13)
H23 H 0.5170 -0.3992 0.6338
H24 H 0.4973 -0.2996 0.5956
C30 C 0.4170(3) -0.3645(3) 0.75178(13)
H25 H 0.4534 -0.4373 0.7491
H26 H 0.3931 -0.3607 0.7844
C31 C 0.3049(3) -0.2121(3) 0.59862(13)
C32 C 0.3299(3) -0.3388(3) 0.66829(12)
H27 H 0.3605 -0.4137 0.6679
C33 C 0.2159(3) -0.2872(3) 0.65019(12)
H28 H 0.1910 -0.3377 0.6430
C34 C 0.2324(3) -0.2599(3) 0.72950(13)
C35 C 0.1246(3) -0.1636(3) 0.57143(12)
H29 H 0.0890 -0.2079 0.5712
H30 H 0.1503 -0.1558 0.5394
C36 C 0.0544(3) -0.1802(3) 0.69213(13)
H31 H 0.0374 -0.1781 0.7258
H32 H 0.0221 -0.2189 0.6789
C37 C -0.0998(3) -0.0916(3) 0.60244(14)
H33 H -0.1235 -0.0684 0.5687
H34 H -0.1578 -0.0714 0.6223
H35 H -0.0627 -0.1658 0.6084
C38 C -0.1930(3) 0.1336(3) 0.59379(14)
H36 H -0.2048 0.1206 0.5621
H37 H -0.2161 0.2070 0.5928
H38 H -0.2302 0.1081 0.6169
C39 C 0.7187(3) 0.1034(3) 0.74698(14)
H39 H 0.7760 0.0839 0.7267
H40 H 0.7435 0.0794 0.7806
H41 H 0.6815 0.1777 0.7415
C40 C 0.8015(3) -0.1240(3) 0.76897(14)
H42 H 0.8499 -0.1095 0.7489
H43 H 0.8208 -0.1975 0.7748
H44 H 0.8013 -0.1005 0.7994
N2 N 0.0523(2) -0.0627(2) 0.58050(10)
N3 N -0.0199(2) 0.1082(2) 0.57040(10)
N4 N 0.0106(2) -0.0742(2) 0.66524(10)
N5 N -0.0577(2) 0.0977(2) 0.65693(10)
N6 N 0.0192(2) 0.2527(2) 0.58072(10)
N7 N 0.1340(2) 0.3075(2) 0.60137(10)
N8 N -0.0282(2) 0.2490(2) 0.66475(10)
N9 N 0.0702(2) 0.3258(2) 0.68182(10)
N10 N 0.2946(2) 0.3108(2) 0.62482(10)
N11 N 0.4568(2) 0.2321(2) 0.65484(10)
N12 N 0.2373(2) 0.3106(2) 0.70716(10)
N13 N 0.4002(2) 0.2375(2) 0.73735(11)
N14 N 0.6159(2) 0.0816(2) 0.68161(10)
N15 N 0.6913(2) -0.0900(2) 0.69383(10)
N16 N 0.5578(2) 0.0822(2) 0.76404(10)
N17 N 0.6158(2) -0.0882(2) 0.77241(10)
N18 N 0.6504(2) -0.2356(2) 0.68478(10)
N19 N 0.5381(2) -0.2910(2) 0.66181(10)
N20 N 0.5827(2) -0.2365(2) 0.76434(10)
N21 N 0.4879(2) -0.3159(2) 0.74492(10)
N22 N 0.3762(2) -0.2860(2) 0.63447(10)
N23 N 0.2105(2) -0.2133(2) 0.60724(10)
N24 N 0.3290(2) -0.3167(2) 0.71690(10)
N25 N 0.1648(2) -0.2356(2) 0.69095(10)
O7 O 0.11311(18) 0.02766(19) 0.52301(8)
O8 O 0.17063(19) 0.2055(2) 0.54158(9)
O9 O 0.41874(19) 0.2066(2) 0.57919(9)
O10 O 0.62680(18) -0.00275(19) 0.61630(9)
O11 O 0.59082(19) -0.1942(2) 0.60350(9)
O12 O 0.32318(18) -0.1590(2) 0.56503(9)
O13 O 0.00302(18) 0.00029(19) 0.73366(9)
O14 O 0.0277(2) 0.2286(2) 0.74525(9)
O15 O 0.27622(19) 0.2157(2) 0.78560(9)
O16 O 0.4736(2) 0.0011(2) 0.81207(9)
O17 O 0.4391(2) -0.2191(2) 0.80714(9)
O18 O 0.20815(19) -0.2365(2) 0.76993(9)
loop_
_geom_bond_atom_site_label_1
_geom_bond_atom_site_label_2
_geom_bond_site_symmetry_1
_geom_bond_site_symmetry_2
O1 K1 1_555 1_555
O2 K1 1_555 1_555
O3 K1 1_555 1_555
N1 O4 1_555 1_555
O5 N1 1_555 1_555
O6 N1 1_555 1_555
K1 O6 1_555 1_555
C1 N2 1_555 1_555
C2 C3 1_555 1_555
C3 C38 1_555 1_555
C4 N4 1_555 1_555
C5 H1 1_555 1_555
H2 C5 1_555 1_555
C6 H3 1_555 1_555
H4 C6 1_555 1_555
C7 N6 1_555 1_555
C8 H5 1_555 1_555
C9 C8 1_555 1_555
H6 C9 1_555 1_555
C10 N8 1_555 1_555
C11 H7 1_555 1_555
H8 C11 1_555 1_555
C12 H9 1_555 1_555
H10 C12 1_555 1_555
C13 N10 1_555 1_555
C14 H11 1_555 1_555
C15 C14 1_555 1_555
H12 C15 1_555 1_555
C16 N12 1_555 1_555
C17 H13 1_555 1_555
H14 C17 1_555 1_555
C18 H15 1_555 1_555
H16 C18 1_555 1_555
C19 N14 1_555 1_555
C20 C21 1_555 1_555
C21 C40 1_555 1_555
C22 N16 1_555 1_555
C23 H17 1_555 1_555
H18 C23 1_555 1_555
C24 H19 1_555 1_555
H20 C24 1_555 1_555
C25 N18 1_555 1_555
C26 H21 1_555 1_555
C27 C26 1_555 1_555
H22 C27 1_555 1_555
C28 N20 1_555 1_555
C29 H23 1_555 1_555
H24 C29 1_555 1_555
C30 H25 1_555 1_555
H26 C30 1_555 1_555
C31 N22 1_555 1_555
C32 H27 1_555 1_555
C33 C32 1_555 1_555
H28 C33 1_555 1_555
C34 N24 1_555 1_555
C35 H29 1_555 1_555
H30 C35 1_555 1_555
C36 H31 1_555 1_555
H32 C36 1_555 1_555
C37 C2 1_555 1_555
H33 C37 1_555 1_555
H34 C37 1_555 1_555
H35 C37 1_555 1_555
C38 H36 1_555 1_555
H37 C38 1_555 1_555
H38 C38 1_555 1_555
C39 C20 1_555 1_555
H39 C39 1_555 1_555
H40 C39 1_555 1_555
H41 C39 1_555 1_555
C40 H42 1_555 1_555
H43 C40 1_555 1_555
H44 C40 1_555 1_555
N2 C2 1_555 1_555
N3 C1 1_555 1_555
N4 C2 1_555 1_555
N5 C3 1_555 1_555
N6 C5 1_555 1_555
N7 C7 1_555 1_555
N8 C6 1_555 1_555
N9 C9 1_555 1_555
N10 C11 1_555 1_555
N11 C13 1_555 1_555
N12 C12 1_555 1_555
N13 C15 1_555 1_555
N14 C17 1_555 1_555
N15 C19 1_555 1_555
N16 C18 1_555 1_555
N17 C21 1_555 1_555
N18 C23 1_555 1_555
N19 C25 1_555 1_555
N20 C24 1_555 1_555
N21 C27 1_555 1_555
N22 C29 1_555 1_555
N23 C31 1_555 1_555
N24 C30 1_555 1_555
N25 C33 1_555 1_555
O7 K1 1_555 1_555
O8 K1 1_555 1_555
O9 C13 1_555 1_555
O10 C19 1_555 1_555
O11 C25 1_555 1_555
O12 K1 1_555 1_555
O13 C4 1_555 1_555
O14 C10 1_555 1_555
O15 C16 1_555 1_555
O16 C22 1_555 1_555
O17 C28 1_555 1_555
O18 C34 1_555 1_555
C41 N36 1_555 1_555
C42 H45 1_555 1_555
C43 C42 1_555 1_555
H46 C43 1_555 1_555
C44 N34 1_555 1_555
C45 H47 1_555 1_555
H48 C45 1_555 1_555
C46 H49 1_555 1_555
H50 C46 1_555 1_555
C47 N32 1_555 1_555
C48 H51 1_555 1_555
C49 C48 1_555 1_555
H52 C49 1_555 1_555
C50 N30 1_555 1_555
C51 H53 1_555 1_555
H54 C51 1_555 1_555
C52 H55 1_555 1_555
H56 C52 1_555 1_555
C53 N28 1_555 1_555
C54 C55 1_555 1_555
C55 C60 1_555 1_555
C56 N26 1_555 1_555
C57 H57 1_555 1_555
H58 C57 1_555 1_555
C58 H59 1_555 1_555
H60 C58 1_555 1_555
C59 C54 1_555 1_555
H61 C59 1_555 1_555
H62 C59 1_555 1_555
H63 C59 1_555 1_555
C60 H64 1_555 1_555
H65 C60 1_555 1_555
H66 C60 1_555 1_555
N26 C55 1_555 1_555
N27 C52 1_555 1_555
N28 C55 1_555 1_555
N29 C51 1_555 1_555
N30 C49 1_555 1_555
N31 C46 1_555 1_555
N32 C49 1_555 1_555
N33 C45 1_555 1_555
N34 C43 1_555 1_555
N35 C42 1_555 1_555
N36 C43 1_555 1_555
N37 C41 1_555 1_555
O19 C56 1_555 1_555
O20 C50 1_555 1_555
O21 C44 1_555 1_555
O22 C53 1_555 1_555
O23 C47 1_555 1_555
O24 C41 1_555 1_555
C41A N36A 1_555 1_555
C42A H45A 1_555 1_555
C43A C42A 1_555 1_555
H46A C43A 1_555 1_555
C44A N34A 1_555 1_555
C45A H47A 1_555 1_555
H48A C45A 1_555 1_555
C46A H49A 1_555 1_555
H50A C46A 1_555 1_555
C47A N32A 1_555 1_555
C48A H51A 1_555 1_555
C49A C48A 1_555 1_555
H52A C49A 1_555 1_555
C50A N30A 1_555 1_555
C51A H53A 1_555 1_555
H54A C51A 1_555 1_555
C52A H55A 1_555 1_555
H56A C52A 1_555 1_555
C53A N28A 1_555 1_555
C54A C55A 1_555 1_555
C55A C60A 1_555 1_555
C56A N26A 1_555 1_555
C57A N28 1_555 1_555
H57A C57A 1_555 1_555
H58A C57A 1_555 1_555
C58A N37 1_555 1_555
H59A C58A 1_555 1_555
H60A C58A 1_555 1_555
C59A C54A 1_555 1_555
H61A C59A 1_555 1_555
H62A C59A 1_555 1_555
H63A C59A 1_555 1_555
C60A H64A 1_555 1_555
H65A C60A 1_555 1_555
H66A C60A 1_555 1_555
N26A C55A 1_555 1_555
N27A C52A 1_555 1_555
N28A C57 1_555 1_555
N29A C51A 1_555 1_555
N30A C49A 1_555 1_555
N31A C46A 1_555 1_555
N32A C49A 1_555 1_555
N33A C45A 1_555 1_555
N34A C43A 1_555 1_555
N35A C42A 1_555 1_555
N36A C43A 1_555 1_555
N37A C58 1_555 1_555
O19A C56A 1_555 1_555
O20A C50A 1_555 1_555
O21A C44A 1_555 1_555
O22A C53A 1_555 1_555
O23A C47A 1_555 1_555
O24A C41A 1_555 1_555
C1 O7 1_555 1_555
C3 N3 1_555 1_555
C4 N5 1_555 1_555
C5 N3 1_555 1_555
C6 N5 1_555 1_555
C7 O8 1_555 1_555
C8 N6 1_555 1_555
C8 N8 1_555 1_555
C9 N7 1_555 1_555
C10 N9 1_555 1_555
C11 N7 1_555 1_555
C12 N9 1_555 1_555
C14 N10 1_555 1_555
C14 N12 1_555 1_555
C15 N11 1_555 1_555
C16 N13 1_555 1_555
C17 N11 1_555 1_555
C18 N13 1_555 1_555
C20 N14 1_555 1_555
C20 N16 1_555 1_555
C21 N15 1_555 1_555
C22 N17 1_555 1_555
C23 N15 1_555 1_555
C24 N17 1_555 1_555
C26 N18 1_555 1_555
C26 N20 1_555 1_555
C27 N19 1_555 1_555
C28 N21 1_555 1_555
C29 N19 1_555 1_555
C30 N21 1_555 1_555
C31 O12 1_555 1_555
C32 N22 1_555 1_555
C32 N24 1_555 1_555
C33 N23 1_555 1_555
C34 N25 1_555 1_555
C35 N2 1_555 1_555
C35 N23 1_555 1_555
C36 N4 1_555 1_555
C36 N25 1_555 1_555
C42 N37 1_555 1_555
C44 N35 1_555 1_555
C45 N36 1_555 1_555
C46 N34 1_555 1_555
C47 N33 1_555 1_555
C48 N31 1_555 1_555
C48 N33 1_555 1_555
C50 N31 1_555 1_555
C51 N32 1_555 1_555
C52 N30 1_555 1_555
C53 N29 1_555 1_555
C54 N27 1_555 1_555
C54 N29 1_555 1_555
C56 N27 1_555 1_555
C57 N35 1_555 1_555
C58 N26 1_555 1_555
C41A N37A 1_555 1_555
C42A N37A 1_555 1_555
C44A N35A 1_555 1_555
C45A N36A 1_555 1_555
C46A N34A 1_555 1_555
C47A N33A 1_555 1_555
C48A N31A 1_555 1_555
C48A N33A 1_555 1_555
C50A N31A 1_555 1_555
C51A N32A 1_555 1_555
C52A N30A 1_555 1_555
C53A N29A 1_555 1_555
C54A N27A 1_555 1_555
C54A N29A 1_555 1_555
C55A N28A 1_555 1_555
C56A N27A 1_555 1_555
C57A N35A 1_555 1_555
C58A N26A 1_555 1_555

#END
