
#######################################################################
#
#                 Cambridge Crystallographic Data Centre
#                                CCDC 
#
#######################################################################
#
# If this CIF has been generated from an entry in the Cambridge 
# Structural Database, then it will include bibliographic, chemical, 
# crystal, experimental, refinement or atomic coordinate data resulting 
# from the CCDC's data processing and validation procedures.
#
#######################################################################

data_IBIGEG
_chemical_formula_moiety         'C28 H44 N4 O16,6(H2 O1)'
_chemical_name_systematic        
'((RSRS/SRSR)-1,7-bis(3-carboxy-1-carboxylpropyl)-4,10-bis(1,3-dicarboxypropyl)-1,7-diazonia-4,10-diazacyclododecane) hexahydrate'
_symmetry_cell_setting           triclinic
_symmetry_space_group_name_H-M   'P -1'
_symmetry_Int_Tables_number      2
_space_group_name_Hall           '-P 1'
loop_
_symmetry_equiv_pos_site_id
_symmetry_equiv_pos_as_xyz
1 x,y,z
2 -x,-y,-z
_cell_length_a                   9.2517(2)
_cell_length_b                   9.7886(3)
_cell_length_c                   12.2960(4)
_cell_angle_alpha                97.19(2)
_cell_angle_beta                 106.94(2)
_cell_angle_gamma                113.08(2)
_cell_volume                     943.012
_cell_formula_units_Z            1
loop_
_atom_site_label
_atom_site_type_symbol
_atom_site_fract_x
_atom_site_fract_y
_atom_site_fract_z
O1 O 0.45340(4) -0.05320(5) 0.32760(4)
O2 O 0.69660(5) -0.00890(5) 0.30500(4)
O3 O 0.16270(5) -0.34160(5) 0.51150(4)
O4 O 0.39260(5) -0.37990(5) 0.57270(3)
O5 O 0.63900(5) -0.17070(5) 0.00700(3)
O6 O 0.83790(5) 0.06640(5) 0.11740(4)
O7 O 0.86620(6) -0.47660(5) 0.12460(4)
O8 O 0.77600(7) -0.57990(6) -0.06920(5)
N1 N 0.77320(5) -0.17320(5) 0.46000(4)
N2 N 0.96210(5) -0.06420(5) 0.29090(4)
C1 C 0.80000(7) -0.26690(6) 0.37140(5)
C2 C 0.97240(6) -0.17550(7) 0.36430(5)
C3 C 1.13030(6) 0.07330(6) 0.31880(5)
C4 C 0.82440(7) -0.20140(6) 0.57610(5)
C5 C 0.60050(6) -0.18330(7) 0.42200(5)
C6 C 0.59030(7) -0.07410(7) 0.34530(5)
C7 C 0.45390(6) -0.34940(6) 0.36120(5)
C8 C 0.28560(7) -0.37180(7) 0.37250(5)
C9 C 0.28850(7) -0.36440(6) 0.49520(5)
C10 C 0.87500(6) -0.15250(6) 0.16010(5)
C11 C 0.77570(7) -0.07760(7) 0.09070(5)
C12 C 0.99780(7) -0.17330(7) 0.10600(5)
C13 C 0.90620(7) -0.30980(6) -0.00360(5)
C14 C 0.84750(7) -0.46420(7) 0.02530(6)
H1 H 0.453(1) 0.008(1) 0.285(1)
H2 H 0.179(9) -0.335(8) 0.594(7)
H3 H 0.745(10) -0.647(10) -0.048(7)
H4 H 0.892(1) -0.026(1) 0.309(1)
H5 H 0.710(1) -0.297(1) 0.293(1)
H6 H 0.794(1) -0.362(1) 0.393(1)
H7 H 1.058(1) -0.118(1) 0.445(1)
H8 H 1.007(1) -0.247(1) 0.328(1)
H9 H 1.127(1) 0.114(1) 0.249(1)
H10 H 1.220(1) 0.039(1) 0.335(1)
H11 H 0.923(1) -0.222(1) 0.587(1)
H12 H 0.731(1) -0.296(1) 0.576(1)
H13 H 0.586(1) -0.144(1) 0.495(1)
H14 H 0.436(1) -0.375(1) 0.276(1)
H15 H 0.489(1) -0.423(1) 0.396(1)
H16 H 0.257(1) -0.291(1) 0.346(1)
H17 H 0.195(1) -0.473(1) 0.320(1)
H18 H 0.791(1) -0.258(1) 0.154(1)
H19 H 1.057(1) -0.078(1) 0.085(1)
H20 H 1.084(1) -0.189(1) 0.165(1)
H21 H 0.807(1) -0.303(1) -0.057(1)
H22 H 0.983(1) -0.304(1) -0.047(1)
C4A C 1.17560(7) 0.20140(6) 0.42390(5)
N1A N 1.22680(5) 0.17320(5) 0.54000(4)
C1A C 1.20000(7) 0.26690(6) 0.62860(5)
C2A C 1.02760(6) 0.17550(7) 0.63570(5)
N2A N 1.03790(5) 0.06420(5) 0.70910(4)
C3A C 0.86970(6) -0.07330(6) 0.68120(5)
H9A H 0.873(1) -0.114(1) 0.751(1)
H10A H 0.780(1) -0.039(1) 0.665(1)
C10A C 1.12500(6) 0.15250(6) 0.83990(5)
C11A C 1.22430(7) 0.07760(7) 0.90930(5)
O5A O 1.36100(5) 0.17070(5) 0.99300(3)
O6A O 1.16210(5) -0.06640(5) 0.88260(4)
C12A C 1.00220(7) 0.17330(7) 0.89400(5)
C13A C 1.09380(7) 0.30980(6) 1.00360(5)
C14A C 1.15250(7) 0.46420(7) 0.97470(6)
O7A O 1.13380(6) 0.47660(5) 0.87540(4)
O8A O 1.22400(7) 0.57990(6) 1.06920(5)
H3A H 1.255(10) 0.647(10) 1.048(7)
H21A H 1.193(1) 0.303(1) 1.057(1)
H22A H 1.017(1) 0.304(1) 1.047(1)
H19A H 0.943(1) 0.078(1) 0.915(1)
H20A H 0.916(1) 0.189(1) 0.835(1)
H18A H 1.209(1) 0.258(1) 0.846(1)
H4A H 1.108(1) 0.026(1) 0.691(1)
H7A H 0.942(1) 0.118(1) 0.555(1)
H8A H 0.993(1) 0.247(1) 0.672(1)
H5A H 1.290(1) 0.297(1) 0.707(1)
H6A H 1.206(1) 0.362(1) 0.607(1)
C5A C 1.39950(6) 0.18330(7) 0.57800(5)
C6A C 1.40970(7) 0.07410(7) 0.65470(5)
O1A O 1.54660(4) 0.05320(5) 0.67240(4)
H1A H 1.547(1) -0.008(1) 0.715(1)
O2A O 1.30340(5) 0.00890(5) 0.69500(4)
C7A C 1.54610(6) 0.34940(6) 0.63880(5)
C8A C 1.71440(7) 0.37180(7) 0.62750(5)
C9A C 1.71150(7) 0.36440(6) 0.50480(5)
O3A O 1.83730(5) 0.34160(5) 0.48850(4)
H2A H 1.821(9) 0.335(8) 0.406(7)
O4A O 1.60740(5) 0.37990(5) 0.42730(3)
H16A H 1.743(1) 0.291(1) 0.654(1)
H17A H 1.805(1) 0.473(1) 0.680(1)
H14A H 1.564(1) 0.375(1) 0.724(1)
H15A H 1.511(1) 0.423(1) 0.604(1)
H13A H 1.414(1) 0.144(1) 0.505(1)
H11A H 1.077(1) 0.222(1) 0.413(1)
H12A H 1.269(1) 0.296(1) 0.424(1)
O9 O 0.63880(6) 0.15290(5) -0.04090(4)
H23 H 0.594(6) 0.163(5) 0.000(4)
H24 H 0.692(9) 0.128(8) 0.024(6)
O10 O 0.57740(5) -0.14500(5) -0.21820(4)
H25 H 0.525(9) -0.225(9) -0.273(7)
H26 H 0.602(8) -0.142(7) -0.137(6)
O11 O 0.14580(7) -0.32560(7) 0.72320(5)
H27 H 0.199(10) -0.331(10) 0.763(7)
H28 H 0.191(15) -0.226(15) 0.780(11)
O12? O 0.52090(19) -0.47900(17) 0.07400(13)
loop_
_geom_bond_atom_site_label_1
_geom_bond_atom_site_label_2
_geom_bond_site_symmetry_1
_geom_bond_site_symmetry_2
O1 C6 1_555 1_555
O2 C6 1_555 1_555
O3 C9 1_555 1_555
O4 C9 1_555 1_555
O5 C11 1_555 1_555
O6 C11 1_555 1_555
O7 C14 1_555 1_555
O8 C14 1_555 1_555
N1 C1 1_555 1_555
N2 C2 1_555 1_555
C1 C2 1_555 1_555
C2 H7 1_555 1_555
C3 N2 1_555 1_555
C4 N1 1_555 1_555
C5 N1 1_555 1_555
C6 C5 1_555 1_555
C7 C5 1_555 1_555
C8 C7 1_555 1_555
C9 C8 1_555 1_555
C10 N2 1_555 1_555
C11 C10 1_555 1_555
C12 C10 1_555 1_555
C13 C12 1_555 1_555
C14 C13 1_555 1_555
O9 H23 1_555 1_555
O10 H25 1_555 1_555
O11 H27 1_555 1_555
H1 O1 1_555 1_555
H2 O3 1_555 1_555
H3 O8 1_555 1_555
H4 N2 1_555 1_555
H5 C1 1_555 1_555
H6 C1 1_555 1_555
H8 C2 1_555 1_555
H9 C3 1_555 1_555
H10 C3 1_555 1_555
H11 C4 1_555 1_555
H12 C4 1_555 1_555
H13 C5 1_555 1_555
H14 C7 1_555 1_555
H15 C7 1_555 1_555
H16 C8 1_555 1_555
H17 C8 1_555 1_555
H18 C10 1_555 1_555
H19 C12 1_555 1_555
H20 C12 1_555 1_555
H21 C13 1_555 1_555
H22 C13 1_555 1_555
H24 O9 1_555 1_555
H26 O10 1_555 1_555
H28 O11 1_555 1_555
C4A C3 1_555 1_555
N1A C4A 1_555 1_555
C1A N1A 1_555 1_555
C2A C1A 1_555 1_555
N2A C2A 1_555 1_555
C3A C4 1_555 1_555
H9A C3A 1_555 1_555
H10A C3A 1_555 1_555
C10A N2A 1_555 1_555
C11A C10A 1_555 1_555
O5A C11A 1_555 1_555
O6A C11A 1_555 1_555
C12A C10A 1_555 1_555
C13A C12A 1_555 1_555
C14A C13A 1_555 1_555
O7A C14A 1_555 1_555
O8A C14A 1_555 1_555
H3A O8A 1_555 1_555
H21A C13A 1_555 1_555
H22A C13A 1_555 1_555
H19A C12A 1_555 1_555
H20A C12A 1_555 1_555
H18A C10A 1_555 1_555
H4A N2A 1_555 1_555
H7A C2A 1_555 1_555
H8A C2A 1_555 1_555
H5A C1A 1_555 1_555
H6A C1A 1_555 1_555
C5A N1A 1_555 1_555
C6A C5A 1_555 1_555
O1A C6A 1_555 1_555
H1A O1A 1_555 1_555
O2A C6A 1_555 1_555
C7A C5A 1_555 1_555
C8A C7A 1_555 1_555
C9A C8A 1_555 1_555
O3A C9A 1_555 1_555
H2A O3A 1_555 1_555
O4A C9A 1_555 1_555
H16A C8A 1_555 1_555
H17A C8A 1_555 1_555
H14A C7A 1_555 1_555
H15A C7A 1_555 1_555
H13A C5A 1_555 1_555
H11A C4A 1_555 1_555
H12A C4A 1_555 1_555
N2A C3A 1_555 1_555

#END
