
#######################################################################
#
#                 Cambridge Crystallographic Data Centre
#                                CCDC 
#
#######################################################################
#
# If this CIF has been generated from an entry in the Cambridge 
# Structural Database, then it will include bibliographic, chemical, 
# crystal, experimental, refinement or atomic coordinate data resulting 
# from the CCDC's data processing and validation procedures.
#
#######################################################################

data_IBODAF
_chemical_name_common            '1-Hydroxy-2-phenyl-o-carborane hemihydrate'
_chemical_formula_moiety         'C8 H16 B10 O1,0.5(H2 O1)'
_chemical_name_systematic        
'1-Hydroxy-2-phenyl-1,2-dicarba-closo-dodecaborane(10) hemihydrate'
_symmetry_cell_setting           monoclinic
_symmetry_space_group_name_H-M   'P 21/n'
_symmetry_Int_Tables_number      14
_space_group_name_Hall           '-P 2yn'
loop_
_symmetry_equiv_pos_site_id
_symmetry_equiv_pos_as_xyz
1 x,y,z
2 1/2+x,1/2-y,1/2+z
3 -x,-y,-z
4 1/2-x,1/2+y,1/2-z
_cell_length_a                   12.628(3)
_cell_length_b                   6.8043(16)
_cell_length_c                   16.020(4)
_cell_angle_alpha                90
_cell_angle_beta                 96.97(3)
_cell_angle_gamma                90
_cell_volume                     1366.34
_exptl_crystal_colour            colorless
_exptl_crystal_description       needles
_chemical_melting_point          '71 deg.C'
_cell_formula_units_Z            4
_exptl_crystal_recrystallization_method 'wet hexane'
loop_
_atom_site_label
_atom_site_type_symbol
_atom_site_fract_x
_atom_site_fract_y
_atom_site_fract_z
O1 O 0.48623(13) 0.6561(2) 0.44376(9)
H1 H 0.489(5) 0.565(6) 0.476(3)
C1 C 0.48126(15) 0.6193(3) 0.35960(12)
C2 C 0.59554(15) 0.5239(3) 0.32662(12)
B1 B 0.48337(17) 0.3777(3) 0.33029(14)
H3 H 0.4809 0.2525 0.3754
B2 B 0.37012(18) 0.5282(4) 0.30158(15)
H4 H 0.2922 0.5011 0.3263
B3 B 0.4171(2) 0.7702(4) 0.28568(15)
H5 H 0.3701 0.9030 0.3001
B4 B 0.55901(19) 0.7654(3) 0.30372(14)
H6 H 0.6059 0.8946 0.3312
B5 B 0.56069(17) 0.3669(3) 0.24476(14)
H7 H 0.6080 0.2332 0.2320
B6 B 0.41815(18) 0.3706(4) 0.22647(15)
H8 H 0.3714 0.2394 0.2010
B7 B 0.3779(2) 0.6152(4) 0.19817(16)
H9 H 0.3046 0.6459 0.1534
B8 B 0.4951(2) 0.7632(4) 0.20006(15)
H10 H 0.4991 0.8921 0.1571
B9 B 0.60779(19) 0.6090(4) 0.22817(14)
H11 H 0.6863 0.6357 0.2043
B10 B 0.49523(18) 0.5159(4) 0.16292(14)
H12 H 0.4990 0.4810 0.0950
C3 C 0.68927(15) 0.4865(3) 0.39198(12)
C4 C 0.70735(17) 0.3000(3) 0.42471(13)
H13 H 0.6605 0.1958 0.4056
C5 C 0.79329(19) 0.2635(4) 0.48522(14)
H14 H 0.8050 0.1345 0.5071
C6 C 0.86175(18) 0.4133(4) 0.51374(14)
H15 H 0.9199 0.3885 0.5558
C7 C 0.84523(18) 0.5989(4) 0.48076(14)
H16 H 0.8924 0.7024 0.5001
C8 C 0.76032(17) 0.6363(4) 0.41949(14)
H17 H 0.7505 0.7643 0.3962
O2 O 0.5911(3) 0.9739(6) 0.5158(2)
H18 H 0.633(5) 0.940(11) 0.556(3)
H19 H 0.537(3) 0.936(10) 0.489(4)
H2? H 0.479(4) 0.765(5) 0.462(3)
loop_
_geom_bond_atom_site_label_1
_geom_bond_atom_site_label_2
_geom_bond_site_symmetry_1
_geom_bond_site_symmetry_2
O1 H1 1_555 1_555
C1 O1 1_555 1_555
C2 C1 1_555 1_555
B1 C1 1_555 1_555
H3 B1 1_555 1_555
B2 C1 1_555 1_555
H4 B2 1_555 1_555
B3 C1 1_555 1_555
H5 B3 1_555 1_555
B4 C1 1_555 1_555
H6 B4 1_555 1_555
B5 C2 1_555 1_555
H7 B5 1_555 1_555
B6 B1 1_555 1_555
H8 B6 1_555 1_555
B7 B2 1_555 1_555
H9 B7 1_555 1_555
B8 B3 1_555 1_555
H10 B8 1_555 1_555
B9 C2 1_555 1_555
H11 B9 1_555 1_555
B10 B5 1_555 1_555
H12 B10 1_555 1_555
C3 C2 1_555 1_555
C4 C3 1_555 1_555
H13 C4 1_555 1_555
C5 C4 1_555 1_555
H14 C5 1_555 1_555
C6 C5 1_555 1_555
H15 C6 1_555 1_555
C7 C6 1_555 1_555
H16 C7 1_555 1_555
C8 C3 1_555 1_555
H17 C8 1_555 1_555
O2 H18 1_555 1_555
H19 O2 1_555 1_555
C2 B1 1_555 1_555
C2 B4 1_555 1_555
B1 B5 1_555 1_555
B1 B2 1_555 1_555
B2 B6 1_555 1_555
B2 B3 1_555 1_555
B3 B7 1_555 1_555
B3 B4 1_555 1_555
B4 B9 1_555 1_555
B4 B8 1_555 1_555
B5 B9 1_555 1_555
B5 B6 1_555 1_555
B6 B10 1_555 1_555
B6 B7 1_555 1_555
B7 B8 1_555 1_555
B7 B10 1_555 1_555
B8 B9 1_555 1_555
B8 B10 1_555 1_555
B9 B10 1_555 1_555
C7 C8 1_555 1_555

#END
