
#######################################################################
#
#                 Cambridge Crystallographic Data Centre
#                                CCDC 
#
#######################################################################
#
# If this CIF has been generated from an entry in the Cambridge 
# Structural Database, then it will include bibliographic, chemical, 
# crystal, experimental, refinement or atomic coordinate data resulting 
# from the CCDC's data processing and validation procedures.
#
#######################################################################

data_IBOKOB
_chemical_formula_moiety         'C15 H18 N2 O2 S1'
_chemical_name_systematic        
2-(1-((4-Methylphenyl)sulfonyl)pyrrolidin-3-yl)-1H-pyrrole
_symmetry_cell_setting           monoclinic
_symmetry_space_group_name_H-M   'P 21'
_symmetry_Int_Tables_number      4
_space_group_name_Hall           'P 2yb'
loop_
_symmetry_equiv_pos_site_id
_symmetry_equiv_pos_as_xyz
1 x,y,z
2 -x,1/2+y,-z
_cell_length_a                   10.5778(2)
_cell_length_b                   6.0160(2)
_cell_length_c                   11.6343(3)
_cell_angle_alpha                90
_cell_angle_beta                 98.418(2)
_cell_angle_gamma                90
_cell_volume                     732.384
_exptl_crystal_colour            yellow
_exptl_crystal_description       block
_cell_formula_units_Z            2
_exptl_crystal_recrystallization_method chloroform
loop_
_atom_site_label
_atom_site_type_symbol
_atom_site_fract_x
_atom_site_fract_y
_atom_site_fract_z
S1 S 0.99053(3) 0.28811(7) 0.72688(3)
O1 O 1.00657(13) 0.0517(3) 0.72638(12)
N1 N 0.90855(14) 0.3549(2) 0.60385(13)
O2 O 1.10164(12) 0.4284(3) 0.74225(12)
C1 C 0.91335(16) 0.5653(3) 0.89004(14)
H1 H 0.9728 0.6668 0.8701
C2 C 0.81104(18) 0.2071(3) 0.86685(17)
H2 H 0.8020 0.0684 0.8313
C3 C 0.87835(19) 0.5902(3) 0.57589(16)
H3 H 0.9494 0.6635 0.5475
H4 H 0.8584 0.6694 0.6436
C4 C 0.89939(15) 0.3577(3) 0.83674(14)
C5 C 0.76162(15) 0.3417(3) 0.43580(14)
H5 H 0.8279 0.3298 0.3854
N2 N 0.63647(15) 0.0848(3) 0.29738(15)
H6 H 0.7024 0.0077 0.2873
C6 C 0.83683(18) 0.6180(4) 0.97351(15)
H7 H 0.8463 0.7558 1.0099
C7 C 0.80556(18) 0.2102(3) 0.54653(16)
H8 H 0.7374 0.1935 0.5933
H9 H 0.8376 0.0647 0.5295
C8 C 0.63809(15) 0.2644(4) 0.36863(14)
C9 C 0.74722(18) 0.4713(4) 1.00379(16)
C10 C 0.73629(17) 0.2646(4) 0.95017(17)
H10 H 0.6774 0.1628 0.9708
C11 C 0.76186(19) 0.5790(3) 0.48137(17)
H11 H 0.6840 0.6100 0.5134
H12 H 0.7695 0.6849 0.4199
C12 C 0.43927(19) 0.1999(5) 0.2818(2)
H13 H 0.3515 0.2127 0.2593
C13 C 0.51524(18) 0.3392(5) 0.3608(2)
H14 H 0.4871 0.4597 0.4004
C14 C 0.6644(3) 0.5358(6) 1.0938(2)
H15 H 0.5927 0.4366 1.0890
H16 H 0.6344 0.6853 1.0796
H17 H 0.7135 0.5265 1.1698
C15 C 0.5155(2) 0.0452(5) 0.2446(2)
H18 H 0.4899 -0.0685 0.1922
loop_
_geom_bond_atom_site_label_1
_geom_bond_atom_site_label_2
_geom_bond_site_symmetry_1
_geom_bond_site_symmetry_2
S1 O1 1_555 1_555
N1 S1 1_555 1_555
O2 S1 1_555 1_555
C1 H1 1_555 1_555
C2 H2 1_555 1_555
C3 N1 1_555 1_555
H3 C3 1_555 1_555
H4 C3 1_555 1_555
C4 S1 1_555 1_555
C5 H5 1_555 1_555
N2 H6 1_555 1_555
C6 C1 1_555 1_555
H7 C6 1_555 1_555
C7 N1 1_555 1_555
H8 C7 1_555 1_555
H9 C7 1_555 1_555
C8 C5 1_555 1_555
C9 C6 1_555 1_555
C10 C2 1_555 1_555
H10 C10 1_555 1_555
C11 C3 1_555 1_555
H11 C11 1_555 1_555
H12 C11 1_555 1_555
C12 H13 1_555 1_555
C13 C8 1_555 1_555
H14 C13 1_555 1_555
C14 C9 1_555 1_555
H15 C14 1_555 1_555
H16 C14 1_555 1_555
H17 C14 1_555 1_555
C15 N2 1_555 1_555
H18 C15 1_555 1_555
C1 C4 1_555 1_555
C2 C4 1_555 1_555
C5 C7 1_555 1_555
C5 C11 1_555 1_555
N2 C8 1_555 1_555
C9 C10 1_555 1_555
C12 C13 1_555 1_555
C12 C15 1_555 1_555

#END
