
#######################################################################
#
#                 Cambridge Crystallographic Data Centre
#                                CCDC 
#
#######################################################################
#
# If this CIF has been generated from an entry in the Cambridge 
# Structural Database, then it will include bibliographic, chemical, 
# crystal, experimental, refinement or atomic coordinate data resulting 
# from the CCDC's data processing and validation procedures.
#
#######################################################################

data_IBOTAV
_chemical_formula_moiety         'C15 H19 N1 O2'
_chemical_name_systematic        
(1S,5S,6S)-6-Hydroxy-6-(6-methyl-2-pyridylmethyl)bicyclo(3.3.0)octane
_symmetry_cell_setting           orthorhombic
_symmetry_space_group_name_H-M   'P 21 21 21'
_symmetry_Int_Tables_number      19
_space_group_name_Hall           'P 2ac 2ab'
loop_
_symmetry_equiv_pos_site_id
_symmetry_equiv_pos_as_xyz
1 x,y,z
2 1/2-x,-y,1/2+z
3 -x,1/2+y,1/2-z
4 1/2+x,1/2-y,-z
_cell_length_a                   8.7171(8)
_cell_length_b                   11.3133(10)
_cell_length_c                   13.6301(13)
_cell_angle_alpha                90
_cell_angle_beta                 90
_cell_angle_gamma                90
_cell_volume                     1344.19
_exptl_crystal_colour            colorless
_cell_formula_units_Z            4
loop_
_atom_site_label
_atom_site_type_symbol
_atom_site_fract_x
_atom_site_fract_y
_atom_site_fract_z
O1 O 0.28881(16) 0.22302(11) 0.96266(12)
O2 O 0.16580(12) 0.55129(10) 0.92975(8)
N1 N 0.14635(15) 0.77166(10) 0.84499(10)
C1 C 0.30046(18) 0.31577(13) 1.00458(12)
C2 C 0.1900(2) 0.36008(15) 1.08207(14)
C3 C 0.2554(2) 0.47635(15) 1.11851(13)
C4 C 0.37186(16) 0.51670(12) 1.04136(11)
C5 C 0.42627(17) 0.40488(13) 0.98842(12)
C6 C 0.4543(3) 0.43807(15) 0.88079(14)
C7 C 0.4294(2) 0.57168(14) 0.87736(13)
C8 C 0.31340(16) 0.59597(11) 0.95804(11)
C9 C 0.2997(2) 0.72582(13) 0.98880(13)
C10 C 0.25485(17) 0.80951(12) 0.90715(12)
C11 C 0.3189(2) 0.92058(14) 0.89952(14)
C12 C 0.2721(2) 0.99351(16) 0.82456(14)
C13 C 0.1624(2) 0.95464(14) 0.76068(13)
C14 C 0.10008(18) 0.84309(13) 0.77221(11)
C15 C -0.0250(3) 0.7984(2) 0.70831(16)
H1 H 0.179(3) 0.3025(17) 1.1346(18)
H2 H 0.089(2) 0.3718(15) 1.0523(14)
H3 H 0.179(2) 0.5337(15) 1.1263(14)
H4 H 0.306(2) 0.4664(14) 1.1817(14)
H5 H 0.4562(19) 0.5589(13) 1.0691(11)
H6 H 0.5141(18) 0.3714(13) 1.0154(12)
H7 H 0.378(2) 0.3949(16) 0.8389(15)
H8 H 0.554(3) 0.4147(16) 0.8585(15)
H9 H 0.530(2) 0.6177(14) 0.8891(13)
H10 H 0.389(2) 0.5989(14) 0.8155(14)
H11 H 0.3963(19) 0.7508(14) 1.0128(13)
H12 H 0.222(2) 0.7343(14) 1.0403(14)
H13 H 0.389(2) 0.9433(14) 0.9432(13)
H14 H 0.316(2) 1.0710(17) 0.8203(15)
H15 H 0.126(2) 1.0053(16) 0.7092(14)
H16 H -0.065(4) 0.847(3) 0.658(2)
H17 H -0.126(4) 0.794(3) 0.748(3)
H18 H -0.018(3) 0.716(2) 0.6939(17)
H19 H 0.131(2) 0.6042(17) 0.8966(16)
loop_
_geom_bond_atom_site_label_1
_geom_bond_atom_site_label_2
_geom_bond_site_symmetry_1
_geom_bond_site_symmetry_2
O1 C1 1_555 1_555
O2 C8 1_555 1_555
N1 C10 1_555 1_555
C1 C2 1_555 1_555
C2 C3 1_555 1_555
C3 C4 1_555 1_555
C4 C5 1_555 1_555
C5 C1 1_555 1_555
C6 C5 1_555 1_555
C7 C6 1_555 1_555
C8 C4 1_555 1_555
C9 C8 1_555 1_555
C10 C9 1_555 1_555
C11 C10 1_555 1_555
C12 C11 1_555 1_555
C13 C12 1_555 1_555
C14 N1 1_555 1_555
C15 C14 1_555 1_555
H1 C2 1_555 1_555
H2 C2 1_555 1_555
H3 C3 1_555 1_555
H4 C3 1_555 1_555
H5 C4 1_555 1_555
H6 C5 1_555 1_555
H7 C6 1_555 1_555
H8 C6 1_555 1_555
H9 C7 1_555 1_555
H10 C7 1_555 1_555
H11 C9 1_555 1_555
H12 C9 1_555 1_555
H13 C11 1_555 1_555
H14 C12 1_555 1_555
H15 C13 1_555 1_555
H16 C15 1_555 1_555
H17 C15 1_555 1_555
H18 C15 1_555 1_555
H19 O2 1_555 1_555
C7 C8 1_555 1_555
C13 C14 1_555 1_555

#END
