
#######################################################################
#
#                 Cambridge Crystallographic Data Centre
#                                CCDC 
#
#######################################################################
#
# If this CIF has been generated from an entry in the Cambridge 
# Structural Database, then it will include bibliographic, chemical, 
# crystal, experimental, refinement or atomic coordinate data resulting 
# from the CCDC's data processing and validation procedures.
#
#######################################################################

data_IBUMEY
_chemical_formula_moiety         'C11 H12 O2 S1'
_chemical_name_systematic        
(1R,5'S)-5'-Methylspiro(1,3-dihydroisobenzofuran-1,2'-(1,3)oxathiolane)
_symmetry_cell_setting           tetragonal
_symmetry_space_group_name_H-M   'P 41 21 2'
_symmetry_Int_Tables_number      92
_space_group_name_Hall           'P 4abw 2nw'
loop_
_symmetry_equiv_pos_site_id
_symmetry_equiv_pos_as_xyz
1 x,y,z
2 -x,-y,1/2+z
3 1/2-y,1/2+x,1/4+z
4 1/2+y,1/2-x,3/4+z
5 y,x,-z
6 -y,-x,1/2-z
7 1/2-x,1/2+y,1/4-z
8 1/2+x,1/2-y,3/4-z
_cell_length_a                   7.7158(2)
_cell_length_b                   7.7158(2)
_cell_length_c                   35.570(1)
_cell_angle_alpha                90
_cell_angle_beta                 90
_cell_angle_gamma                90
_cell_volume                     2117.61
_exptl_crystal_colour            colorless
_exptl_crystal_description       plate
_chemical_melting_point          '64.4-65.1 deg.C'
_cell_formula_units_Z            8
_exptl_crystal_recrystallization_method hexane/isopropanol
loop_
_atom_site_label
_atom_site_type_symbol
_atom_site_fract_x
_atom_site_fract_y
_atom_site_fract_z
S1 S 0.39509(14) -0.11951(14) 0.21547(3)
O1 O 0.3191(3) 0.1987(4) 0.23332(7)
O2 O 0.4259(3) 0.1609(4) 0.17260(7)
C1 C 0.3154(5) 0.0938(5) 0.20099(10)
C2 C 0.4687(6) -0.0387(6) 0.26017(11)
H1 H 0.3882 -0.0729 0.2805
H2 H 0.5858 -0.0834 0.2661
C3 C 0.4716(5) 0.1571(6) 0.25538(11)
H3 H 0.5780 0.1917 0.2412
C4 C 0.3255(5) 0.2664(6) 0.14705(12)
H4 H 0.3636 0.2487 0.1207
H5 H 0.3362 0.3908 0.1534
C5 C -0.0086(6) 0.2371(6) 0.13242(11)
H6 H -0.0071 0.3119 0.1112
C6 C -0.1603(5) 0.1589(6) 0.14391(11)
H7 H -0.2642 0.1796 0.1303
C7 C -0.1633(5) 0.0513(5) 0.17480(10)
H8 H -0.2688 -0.0025 0.1822
C8 C -0.0128(5) 0.0207(5) 0.19529(10)
H9 H -0.0140 -0.0529 0.2167
C9 C 0.1379(5) 0.0999(5) 0.18380(9)
C10 C 0.1424(5) 0.2041(5) 0.15258(10)
C11 C 0.4618(6) 0.2586(7) 0.29158(12)
H10 H 0.4690 0.3828 0.2861
H11 H 0.5583 0.2252 0.3080
H12 H 0.3518 0.2336 0.3042
loop_
_geom_bond_atom_site_label_1
_geom_bond_atom_site_label_2
_geom_bond_site_symmetry_1
_geom_bond_site_symmetry_2
S1 C1 1_555 1_555
O1 C1 1_555 1_555
O2 C1 1_555 1_555
C1 C9 1_555 1_555
C2 S1 1_555 1_555
H1 C2 1_555 1_555
H2 C2 1_555 1_555
C3 O1 1_555 1_555
H3 C3 1_555 1_555
C4 O2 1_555 1_555
H4 C4 1_555 1_555
H5 C4 1_555 1_555
C5 H6 1_555 1_555
C6 C5 1_555 1_555
H7 C6 1_555 1_555
C7 C6 1_555 1_555
H8 C7 1_555 1_555
C8 C7 1_555 1_555
H9 C8 1_555 1_555
C9 C8 1_555 1_555
C10 C4 1_555 1_555
C11 C3 1_555 1_555
H10 C11 1_555 1_555
H11 C11 1_555 1_555
H12 C11 1_555 1_555
C2 C3 1_555 1_555
C5 C10 1_555 1_555
C9 C10 1_555 1_555

#END
