
#######################################################################
#
#                 Cambridge Crystallographic Data Centre
#                                CCDC 
#
#######################################################################
#
# If this CIF has been generated from an entry in the Cambridge 
# Structural Database, then it will include bibliographic, chemical, 
# crystal, experimental, refinement or atomic coordinate data resulting 
# from the CCDC's data processing and validation procedures.
#
#######################################################################

data_IBUYUC
_chemical_formula_moiety         'C9 H1 F4 I1 O1'
_chemical_name_systematic        
2,3,5,6-tetrafluoro-4-(iodoethynyl)benzaldehyde
_symmetry_cell_setting           triclinic
_symmetry_space_group_name_H-M   'P -1'
_symmetry_Int_Tables_number      2
_space_group_name_Hall           '-P 1'
loop_
_symmetry_equiv_pos_site_id
_symmetry_equiv_pos_as_xyz
1 x,y,z
2 -x,-y,-z
_cell_length_a                   5.5616(6)
_cell_length_b                   9.3071(11)
_cell_length_c                   10.0529(12)
_cell_angle_alpha                113.356(3)
_cell_angle_beta                 101.445(3)
_cell_angle_gamma                99.802(3)
_cell_volume                     449.953
_exptl_crystal_colour            colorless
_exptl_crystal_description       plate
_cell_formula_units_Z            2
loop_
_atom_site_label
_atom_site_type_symbol
_atom_site_fract_x
_atom_site_fract_y
_atom_site_fract_z
I1 I 1.22449(3) 1.01043(2) 0.74519(2)
F1 F 0.7098(3) 0.4049(2) 0.35765(19)
F2 F 0.2987(3) 0.17797(19) 0.14246(18)
F3 F -0.1096(3) 0.5886(2) 0.15840(19)
F4 F 0.2981(3) 0.81237(19) 0.37284(18)
O1 O -0.3424(4) 0.2676(3) -0.0267(2)
C1 C 0.9183(5) 0.8374(3) 0.5843(3)
C2 C 0.7342(5) 0.7356(3) 0.4877(3)
C3 C 0.5163(5) 0.6155(3) 0.3727(3)
C4 C 0.5077(5) 0.4507(3) 0.3098(3)
C5 C 0.2951(5) 0.3344(3) 0.1983(3)
C6 C 0.0795(5) 0.3745(3) 0.1433(3)
C7 C 0.0893(5) 0.5394(3) 0.2064(3)
C8 C 0.2993(5) 0.6555(3) 0.3170(3)
C9 C -0.1449(5) 0.2442(3) 0.0244(3)
H1 H -0.1328 0.1355 -0.0140
loop_
_geom_bond_atom_site_label_1
_geom_bond_atom_site_label_2
_geom_bond_site_symmetry_1
_geom_bond_site_symmetry_2
I1 C1 1_555 1_555
F1 C4 1_555 1_555
F2 C5 1_555 1_555
F3 C7 1_555 1_555
F4 C8 1_555 1_555
O1 C9 1_555 1_555
C1 C2 1_555 1_555
C2 C3 1_555 1_555
C3 C4 1_555 1_555
C4 C5 1_555 1_555
C5 C6 1_555 1_555
C6 C7 1_555 1_555
C7 C8 1_555 1_555
C8 C3 1_555 1_555
C9 C6 1_555 1_555
H1 C9 1_555 1_555

#END
