
#######################################################################
#
#                 Cambridge Crystallographic Data Centre
#                                CCDC 
#
#######################################################################
#
# If this CIF has been generated from an entry in the Cambridge 
# Structural Database, then it will include bibliographic, chemical, 
# crystal, experimental, refinement or atomic coordinate data resulting 
# from the CCDC's data processing and validation procedures.
#
#######################################################################

data_ICACAR
_chemical_formula_moiety         'C19 H21 N1 O3 S1'
_chemical_name_systematic        
"(1'S,2R)-t-Butyl 2-(1-hydroxy-1-phenylmethyl)benzothiazolidine-3-carboxylate"
_symmetry_cell_setting           triclinic
_symmetry_space_group_name_H-M   'P -1'
_symmetry_Int_Tables_number      2
_space_group_name_Hall           '-P 1'
loop_
_symmetry_equiv_pos_site_id
_symmetry_equiv_pos_as_xyz
1 x,y,z
2 -x,-y,-z
_cell_length_a                   11.483(6)
_cell_length_b                   12.896(6)
_cell_length_c                   12.942(8)
_cell_angle_alpha                69.80(3)
_cell_angle_beta                 75.50(3)
_cell_angle_gamma                77.14(3)
_cell_volume                     1721.69
_exptl_crystal_colour            colorless
_exptl_crystal_description       block
_chemical_melting_point          '115-117 deg.C'
_cell_formula_units_Z            4
loop_
_atom_site_label
_atom_site_type_symbol
_atom_site_fract_x
_atom_site_fract_y
_atom_site_fract_z
S1 S 0.2971(1) 0.0780(1) 0.22879(9)
O1 O 0.4594(3) 0.3683(3) -0.0764(2)
O2 O 0.5845(3) 0.2069(2) -0.0282(2)
O3 O 0.5093(3) 0.0414(3) 0.3443(2)
N1 N 0.4145(3) 0.2384(3) 0.0916(3)
C1 C 0.2959(4) 0.2908(4) 0.1272(3)
C2 C 0.2541(4) 0.4015(4) 0.0995(4)
C3 C 0.1349(4) 0.4356(4) 0.1462(4)
C4 C 0.0604(4) 0.3607(4) 0.2193(4)
C5 C 0.1035(4) 0.2485(4) 0.2482(3)
C6 C 0.2222(4) 0.2139(4) 0.2024(3)
C7 C 0.4857(4) 0.2801(4) -0.0123(3)
C8 C 0.6807(4) 0.2376(4) -0.1308(3)
C9 C 0.6316(4) 0.2513(4) -0.2334(4)
C10 C 0.7284(4) 0.3386(4) -0.1343(4)
C11 C 0.7774(4) 0.1370(4) -0.1108(4)
C12 C 0.4433(4) 0.1327(4) 0.1711(3)
C13 C 0.4911(4) 0.1462(4) 0.2657(3)
C14 C 0.6043(4) 0.2007(4) 0.2228(3)
C15 C 0.5967(4) 0.3127(4) 0.2052(4)
C16 C 0.6999(5) 0.3646(5) 0.1658(4)
C17 C 0.8109(5) 0.3032(5) 0.1458(4)
C18 C 0.8209(4) 0.1910(5) 0.1621(4)
C19 C 0.7169(4) 0.1399(4) 0.1996(4)
H1 H 0.3045 0.4544 0.0495
H2 H 0.1041 0.5132 0.1270
H3 H -0.0207 0.3866 0.2496
H4 H 0.0531 0.1958 0.2987
H5 H 0.5983 0.1827 -0.2200
H6 H 0.5693 0.3147 -0.2480
H7 H 0.6933 0.2657 -0.2990
H8 H 0.6816 0.4042 -0.1738
H9 H 0.8112 0.3361 -0.1712
H10 H 0.7217 0.3392 -0.0598
H11 H 0.8318 0.1465 -0.0713
H12 H 0.8212 0.1284 -0.1808
H13 H 0.7400 0.0728 -0.0675
H14 H 0.5009 0.0842 0.1355
H15 H 0.4299 0.1928 0.3007
H16 H 0.4278 0.0315 0.4028
H17 H 0.5194 0.3558 0.2201
H18 H 0.6931 0.4426 0.1532
H19 H 0.8819 0.3380 0.1202
H20 H 0.8986 0.1480 0.1483
H21 H 0.7236 0.0625 0.2090
S2 S 0.9808(1) -0.0428(1) 0.38411(9)
O4 O 0.9825(3) -0.3647(3) 0.2914(3)
O5 O 0.8361(3) -0.2188(3) 0.2446(2)
O6 O 0.6909(3) -0.0319(2) 0.4749(2)
N2 N 0.9380(3) -0.2258(3) 0.3706(3)
C20 C 1.0340(4) -0.2576(4) 0.4299(3)
C21 C 1.0900(4) -0.3623(4) 0.4731(3)
C22 C 1.1814(4) -0.3770(4) 0.5325(4)
C23 C 1.2156(4) -0.2878(4) 0.5462(4)
C24 C 1.1595(4) -0.1818(4) 0.5019(4)
C25 C 1.0678(4) -0.1668(4) 0.4448(3)
C26 C 0.9236(4) -0.2791(4) 0.2997(3)
C27 C 0.8058(4) -0.2532(4) 0.1581(4)
C28 C 0.9135(5) -0.2457(5) 0.0605(4)
C29 C 0.7013(4) -0.1639(4) 0.1237(4)
C30 C 0.7657(5) -0.3668(4) 0.2078(4)
C31 C 0.8692(4) -0.1206(4) 0.3785(3)
C32 C 0.7668(4) -0.1351(4) 0.4854(3)
C33 C 0.6996(4) -0.2304(4) 0.5061(3)
C34 C 0.6030(4) -0.2197(4) 0.4557(3)
C35 C 0.5425(4) -0.3087(4) 0.4784(4)
C36 C 0.5787(4) -0.4091(4) 0.5510(4)
C37 C 0.6763(4) -0.4208(4) 0.6003(4)
C38 C 0.7362(4) -0.3325(4) 0.5780(3)
H22 H 1.0679 -0.4245 0.4631
H23 H 1.2210 -0.4502 0.5643
H24 H 1.2785 -0.2999 0.5866
H25 H 1.1826 -0.1196 0.5109
H26 H 0.6994 -0.1521 0.0475
H27 H 0.7122 -0.0968 0.1327
H28 H 0.6268 -0.1861 0.1693
H29 H 0.7091 -0.3715 0.1678
H30 H 0.7286 -0.3773 0.2843
H31 H 0.8347 -0.4226 0.2027
H32 H 0.9053 -0.1732 0.0075
H33 H 0.9156 -0.3000 0.0255
H34 H 0.9868 -0.2591 0.0876
H35 H 0.8348 -0.0828 0.3133
H36 H 0.8040 -0.1508 0.5480
H37 H 0.6301 -0.0046 0.4256
H38 H 0.5774 -0.1499 0.4045
H39 H 0.4759 -0.3000 0.4434
H40 H 0.5373 -0.4707 0.5675
H41 H 0.7023 -0.4911 0.6505
H42 H 0.8035 -0.3420 0.6124
loop_
_geom_bond_atom_site_label_1
_geom_bond_atom_site_label_2
_geom_bond_site_symmetry_1
_geom_bond_site_symmetry_2
S1 C6 1_555 1_555
S2 C25 1_555 1_555
O1 C7 1_555 1_555
O2 C7 1_555 1_555
O3 C13 1_555 1_555
O4 C26 1_555 1_555
O5 C26 1_555 1_555
O6 C32 1_555 1_555
N1 C1 1_555 1_555
N2 C20 1_555 1_555
C1 C2 1_555 1_555
C2 C3 1_555 1_555
C3 C4 1_555 1_555
C4 C5 1_555 1_555
C5 C6 1_555 1_555
C6 C1 1_555 1_555
C7 N1 1_555 1_555
C8 O2 1_555 1_555
C9 C8 1_555 1_555
C10 C8 1_555 1_555
C11 C8 1_555 1_555
C12 S1 1_555 1_555
C13 C12 1_555 1_555
C14 C13 1_555 1_555
C15 C14 1_555 1_555
C16 C15 1_555 1_555
C17 C16 1_555 1_555
C18 C17 1_555 1_555
C19 C14 1_555 1_555
C20 C21 1_555 1_555
C21 C22 1_555 1_555
C22 C23 1_555 1_555
C23 C24 1_555 1_555
C24 C25 1_555 1_555
C25 C20 1_555 1_555
C26 N2 1_555 1_555
C27 O5 1_555 1_555
C28 C27 1_555 1_555
C29 C27 1_555 1_555
C30 C27 1_555 1_555
C31 S2 1_555 1_555
C32 C31 1_555 1_555
C33 C32 1_555 1_555
C34 C33 1_555 1_555
C35 C34 1_555 1_555
C36 C35 1_555 1_555
C37 C36 1_555 1_555
C38 C33 1_555 1_555
H1 C2 1_555 1_555
H2 C3 1_555 1_555
H3 C4 1_555 1_555
H4 C5 1_555 1_555
H5 C9 1_555 1_555
H6 C9 1_555 1_555
H7 C9 1_555 1_555
H8 C10 1_555 1_555
H9 C10 1_555 1_555
H10 C10 1_555 1_555
H11 C11 1_555 1_555
H12 C11 1_555 1_555
H13 C11 1_555 1_555
H14 C12 1_555 1_555
H15 C13 1_555 1_555
H16 O3 1_555 1_555
H17 C15 1_555 1_555
H18 C16 1_555 1_555
H19 C17 1_555 1_555
H20 C18 1_555 1_555
H21 C19 1_555 1_555
H22 C21 1_555 1_555
H23 C22 1_555 1_555
H24 C23 1_555 1_555
H25 C24 1_555 1_555
H26 C29 1_555 1_555
H27 C29 1_555 1_555
H28 C29 1_555 1_555
H29 C30 1_555 1_555
H30 C30 1_555 1_555
H31 C30 1_555 1_555
H32 C28 1_555 1_555
H33 C28 1_555 1_555
H34 C28 1_555 1_555
H35 C31 1_555 1_555
H36 C32 1_555 1_555
H37 O6 1_555 1_555
H38 C34 1_555 1_555
H39 C35 1_555 1_555
H40 C36 1_555 1_555
H41 C37 1_555 1_555
H42 C38 1_555 1_555
N1 C12 1_555 1_555
N2 C31 1_555 1_555
C18 C19 1_555 1_555
C37 C38 1_555 1_555

#END
