
#######################################################################
#
#                 Cambridge Crystallographic Data Centre
#                                CCDC 
#
#######################################################################
#
# If this CIF has been generated from an entry in the Cambridge 
# Structural Database, then it will include bibliographic, chemical, 
# crystal, experimental, refinement or atomic coordinate data resulting 
# from the CCDC's data processing and validation procedures.
#
#######################################################################

data_ICEGAA
_chemical_name_common            1,5-Di-t-butyl-2,3-dimethoxybenzene
_chemical_formula_moiety         'C16 H26 O2'
_chemical_name_systematic        3,5-Di-t-butyl-1,2-dimethoxybenzene
_symmetry_cell_setting           monoclinic
_symmetry_space_group_name_H-M   'P 21/c'
_symmetry_Int_Tables_number      14
_space_group_name_Hall           '-P 2ybc'
loop_
_symmetry_equiv_pos_site_id
_symmetry_equiv_pos_as_xyz
1 x,y,z
2 -x,1/2+y,1/2-z
3 -x,-y,-z
4 x,1/2-y,1/2+z
_cell_length_a                   5.9160(5)
_cell_length_b                   28.736(2)
_cell_length_c                   9.3762(8)
_cell_angle_alpha                90
_cell_angle_beta                 98.688(4)
_cell_angle_gamma                90
_cell_volume                     1575.68
_exptl_crystal_colour            colorless
_exptl_crystal_description       block
_cell_formula_units_Z            4
loop_
_atom_site_label
_atom_site_type_symbol
_atom_site_fract_x
_atom_site_fract_y
_atom_site_fract_z
C1 C 0.0330(5) 0.18797(11) -0.0892(3)
O1 O -0.0515(4) 0.23177(8) -0.1225(2)
C2 C -0.0547(5) 0.15259(11) -0.1835(3)
O2 O -0.2177(3) 0.16348(7) -0.3018(2)
C3 C 0.0287(5) 0.10739(10) -0.1644(3)
C4 C 0.1938(5) 0.09911(10) -0.0442(3)
H1 H 0.2514 0.0684 -0.0289
C5 C 0.2784(5) 0.13332(11) 0.0542(3)
C6 C 0.1950(5) 0.17820(11) 0.0293(3)
H2 H 0.2499 0.2024 0.0943
C7 C 0.0010(9) 0.26703(13) -0.0179(5)
H3 H -0.0690 0.2964 -0.0551
H4 H 0.1673 0.2709 0.0036
H5 H -0.0586 0.2583 0.0704
C8 C -0.4325(6) 0.18054(14) -0.2689(4)
H6 H -0.5353 0.1870 -0.3588
H7 H -0.4068 0.2092 -0.2120
H8 H -0.5019 0.1570 -0.2134
C9 C -0.0552(5) 0.06824(11) -0.2707(3)
C10 C 0.0031(6) 0.08078(13) -0.4210(3)
H9 H -0.0690 0.1105 -0.4528
H10 H -0.0539 0.0563 -0.4900
H11 H 0.1693 0.0835 -0.4158
C11 C 0.0614(6) 0.02172(11) -0.2276(4)
H12 H 0.2274 0.0253 -0.2209
H13 H 0.0076 -0.0018 -0.3005
H14 H 0.0237 0.0119 -0.1339
C12 C -0.3128(6) 0.06088(13) -0.2803(4)
H15 H -0.3927 0.0901 -0.3088
H16 H -0.3481 0.0510 -0.1861
H17 H -0.3629 0.0368 -0.3523
C13 C 0.4568(5) 0.12217(11) 0.1865(3)
C14 C 0.6776(12) 0.1464(4) 0.1689(8)
H18 H 0.6475 0.1700 0.0931
H19 H 0.7868 0.1235 0.1422
H20 H 0.7416 0.1613 0.2601
C15 C 0.3806(15) 0.1429(4) 0.3209(7)
H21 H 0.4099 0.1764 0.3237
H22 H 0.4661 0.1282 0.4069
H23 H 0.2167 0.1372 0.3186
C16 C 0.498(2) 0.0709(3) 0.2061(12)
H24 H 0.6167 0.0611 0.1505
H25 H 0.3558 0.0540 0.1722
H26 H 0.5468 0.0641 0.3086
C17? C 0.351(2) 0.0888(5) 0.2815(11)
C18? C 0.6650(17) 0.0991(5) 0.1405(11)
C19? C 0.537(3) 0.1642(5) 0.2732(18)
H27? H 0.2166 0.1033 0.3127
H28? H 0.4628 0.0811 0.3663
H29? H 0.3045 0.0603 0.2274
H30? H 0.7416 0.1211 0.0839
H31? H 0.6170 0.0716 0.0817
H32? H 0.7708 0.0896 0.2263
H33? H 0.5996 0.1869 0.2114
H34? H 0.6567 0.1552 0.3526
H35? H 0.4088 0.1782 0.3126
loop_
_geom_bond_atom_site_label_1
_geom_bond_atom_site_label_2
_geom_bond_site_symmetry_1
_geom_bond_site_symmetry_2
C1 O1 1_555 1_555
O1 C7 1_555 1_555
C2 C1 1_555 1_555
O2 C2 1_555 1_555
C3 C2 1_555 1_555
C4 C3 1_555 1_555
H1 C4 1_555 1_555
C5 C4 1_555 1_555
C6 C1 1_555 1_555
H2 C6 1_555 1_555
C7 H3 1_555 1_555
H4 C7 1_555 1_555
H5 C7 1_555 1_555
C8 O2 1_555 1_555
H6 C8 1_555 1_555
H7 C8 1_555 1_555
H8 C8 1_555 1_555
C9 C3 1_555 1_555
C10 C9 1_555 1_555
H9 C10 1_555 1_555
H10 C10 1_555 1_555
H11 C10 1_555 1_555
C11 C9 1_555 1_555
H12 C11 1_555 1_555
H13 C11 1_555 1_555
H14 C11 1_555 1_555
C12 C9 1_555 1_555
H15 C12 1_555 1_555
H16 C12 1_555 1_555
H17 C12 1_555 1_555
C13 C5 1_555 1_555
C14 C13 1_555 1_555
H18 C14 1_555 1_555
H19 C14 1_555 1_555
H20 C14 1_555 1_555
C15 C13 1_555 1_555
H21 C15 1_555 1_555
H22 C15 1_555 1_555
H23 C15 1_555 1_555
C16 C13 1_555 1_555
H24 C16 1_555 1_555
H25 C16 1_555 1_555
H26 C16 1_555 1_555
C5 C6 1_555 1_555

#END
