
#######################################################################
#
#                 Cambridge Crystallographic Data Centre
#                                CCDC 
#
#######################################################################
#
# If this CIF has been generated from an entry in the Cambridge 
# Structural Database, then it will include bibliographic, chemical, 
# crystal, experimental, refinement or atomic coordinate data resulting 
# from the CCDC's data processing and validation procedures.
#
#######################################################################

data_ICEVAO
_chemical_formula_moiety         'C21 H18 O2'
_chemical_name_systematic        1,4-Dimethoxyanthracenonorbornadiene
_symmetry_cell_setting           triclinic
_symmetry_space_group_name_H-M   'P -1'
_symmetry_Int_Tables_number      2
_space_group_name_Hall           '-P 1'
loop_
_symmetry_equiv_pos_site_id
_symmetry_equiv_pos_as_xyz
1 x,y,z
2 -x,-y,-z
_cell_length_a                   10.719(3)
_cell_length_b                   11.444(2)
_cell_length_c                   13.315(3)
_cell_angle_alpha                85.567(17)
_cell_angle_beta                 87.28(2)
_cell_angle_gamma                73.885(19)
_cell_volume                     1563.88
_exptl_crystal_colour            colorless
_exptl_crystal_description       prism
_cell_formula_units_Z            4
_exptl_crystal_preparation       luminescent
loop_
_atom_site_label
_atom_site_type_symbol
_atom_site_fract_x
_atom_site_fract_y
_atom_site_fract_z
C1 C 0.4000(5) 0.8740(4) 0.4332(4)
H1 H 0.4702 0.9068 0.4336
C2 C 0.3523(5) 0.8228(4) 0.5115(4)
H2 H 0.3834 0.8114 0.5766
C3 C 0.2369(4) 0.7855(4) 0.4767(3)
H3 H 0.1739 0.7714 0.5287
C4 C 0.2972(4) 0.6814(4) 0.4086(3)
C5 C 0.3508(4) 0.7363(3) 0.3235(3)
C6 C 0.3221(4) 0.8709(4) 0.3421(3)
H4 H 0.3287 0.9269 0.2839
C7 C 0.1870(4) 0.8889(4) 0.3949(3)
H5 H 0.154 0.9682 0.4221
H6 H 0.1231 0.8732 0.3525
C8 C 0.3025(4) 0.5625(4) 0.4148(3)
C9 C 0.3622(3) 0.4880(3) 0.3338(3)
C10 C 0.3626(4) 0.3668(4) 0.3341(3)
H7 H 0.3246 0.332 0.3885
C11 C 0.4189(4) 0.2957(4) 0.2542(3)
C12 C 0.4171(4) 0.1719(4) 0.2523(4)
H8 H 0.379 0.136 0.3059
C13 C 0.4708(5) 0.1054(4) 0.1726(4)
H9 H 0.4689 0.0246 0.1727
C14 C 0.5284(5) 0.1568(4) 0.0910(4)
H10 H 0.5626 0.1109 0.0364
C15 C 0.5345(4) 0.2733(4) 0.0912(3)
H11 H 0.5763 0.3055 0.0377
C16 C 0.4785(4) 0.3473(4) 0.1714(3)
C17 C 0.4760(4) 0.4709(4) 0.1718(3)
H12 H 0.5144 0.5058 0.1178
C18 C 0.4181(4) 0.5424(3) 0.2499(3)
C19 C 0.4106(4) 0.6694(4) 0.2472(3)
C20 C 0.5845(4) 0.7424(4) 0.1787(3)
H13 H 0.6134 0.7783 0.1175
H14 H 0.6468 0.6664 0.1969
H15 H 0.576 0.7967 0.2316
C21 C 0.3196(5) 0.4753(5) 0.5808(3)
H16 H 0.2728 0.4389 0.6316
H17 H 0.3359 0.5462 0.6054
H18 H 0.4007 0.4176 0.565
O1 O 0.4628(3) 0.7214(2) 0.1638(2)
O2 O 0.2454(3) 0.5092(3) 0.49344(19)
C22 C 1.178(3) 0.7639(18) 0.7627(16)
C24 C 1.0751(19) 0.861(3) 0.7441(18)
C26 C 0.9637(6) 0.8282(6) 0.7766(4)
C27 C 0.9658(4) 0.8022(4) 0.8909(3)
C28 C 1.0750(4) 0.6998(4) 0.9112(3)
C29 C 1.1429(6) 0.6683(6) 0.8088(4)
C31 C 1.006(5) 0.672(4) 0.754(2)
C32 C 0.8878(4) 0.8602(4) 0.9649(3)
C33 C 0.9125(4) 0.8149(3) 1.0690(3)
C34 C 0.8369(4) 0.8705(4) 1.1475(3)
H19 H 0.7697 0.9407 1.1339
C35 C 0.8587(4) 0.8240(4) 1.2471(3)
C36 C 0.7815(5) 0.8805(5) 1.3292(4)
H20 H 0.716 0.9524 1.3175
C37 C 0.8032(6) 0.8300(6) 1.4247(4)
H21 H 0.7522 0.8681 1.4776
C38 C 0.9011(6) 0.7215(6) 1.4449(4)
H22 H 0.913 0.6878 1.5108
C39 C 0.9783(5) 0.6655(5) 1.3696(3)
H23 H 1.0433 0.594 1.384
C40 C 0.9606(4) 0.7156(4) 1.2679(3)
C41 C 1.0405(4) 0.6626(4) 1.1879(3)
H24 H 1.1099 0.5944 1.2018
C42 C 1.0199(4) 0.7078(4) 1.0894(3)
C43 C 1.1024(4) 0.6542(4) 1.0062(3)
C44 C 1.1971(5) 0.4428(4) 1.0156(4)
H25 H 1.2763 0.3824 1.0334
H26 H 1.1794 0.4376 0.9464
H27 H 1.1268 0.4286 1.0578
C45 C 0.8201(4) 1.0711(4) 0.9277(4)
H28 H 0.7441 1.1377 0.915
H29 H 0.8786 1.0647 0.8703
H30 H 0.8623 1.0851 0.9858
O3 O 1.2098(3) 0.5582(3) 1.0293(2)
O4 O 0.7832(3) 0.9609(2) 0.9456(2)
C23? C 1.050(3) 0.655(3) 0.747(2)
C25? C 0.963(3) 0.721(4) 0.736(2)
C30? C 1.130(3) 0.817(2) 0.763(2)
loop_
_geom_bond_atom_site_label_1
_geom_bond_atom_site_label_2
_geom_bond_site_symmetry_1
_geom_bond_site_symmetry_2
C1 H1 1_555 1_555
C2 C1 1_555 1_555
H2 C2 1_555 1_555
C3 C2 1_555 1_555
H3 C3 1_555 1_555
C4 C3 1_555 1_555
C5 C4 1_555 1_555
C6 C1 1_555 1_555
H4 C6 1_555 1_555
C7 C3 1_555 1_555
H5 C7 1_555 1_555
H6 C7 1_555 1_555
C8 C4 1_555 1_555
C9 C8 1_555 1_555
C10 C9 1_555 1_555
H7 C10 1_555 1_555
C11 C10 1_555 1_555
C12 C11 1_555 1_555
H8 C12 1_555 1_555
C13 C12 1_555 1_555
H9 C13 1_555 1_555
C14 C13 1_555 1_555
H10 C14 1_555 1_555
C15 C14 1_555 1_555
H11 C15 1_555 1_555
C16 C11 1_555 1_555
C17 C16 1_555 1_555
H12 C17 1_555 1_555
C18 C9 1_555 1_555
C19 C5 1_555 1_555
C20 H13 1_555 1_555
H14 C20 1_555 1_555
H15 C20 1_555 1_555
C21 H16 1_555 1_555
H17 C21 1_555 1_555
H18 C21 1_555 1_555
C22 C24 1_555 1_555
C24 C26 1_555 1_555
C26 C27 1_555 1_555
C27 C28 1_555 1_555
C28 C29 1_555 1_555
C29 C22 1_555 1_555
C31 C26 1_555 1_555
C32 C27 1_555 1_555
C33 C32 1_555 1_555
C34 C33 1_555 1_555
H19 C34 1_555 1_555
C35 C34 1_555 1_555
C36 C35 1_555 1_555
H20 C36 1_555 1_555
C37 C36 1_555 1_555
H21 C37 1_555 1_555
C38 C37 1_555 1_555
H22 C38 1_555 1_555
C39 C38 1_555 1_555
H23 C39 1_555 1_555
C40 C35 1_555 1_555
C41 C40 1_555 1_555
H24 C41 1_555 1_555
C42 C33 1_555 1_555
C43 C28 1_555 1_555
C44 H25 1_555 1_555
H26 C44 1_555 1_555
H27 C44 1_555 1_555
C45 H28 1_555 1_555
H29 C45 1_555 1_555
H30 C45 1_555 1_555
O1 C19 1_555 1_555
O2 C8 1_555 1_555
O3 C43 1_555 1_555
O4 C32 1_555 1_555
C5 C6 1_555 1_555
C6 C7 1_555 1_555
C15 C16 1_555 1_555
C17 C18 1_555 1_555
C18 C19 1_555 1_555
C20 O1 1_555 1_555
C21 O2 1_555 1_555
C29 C31 1_555 1_555
C39 C40 1_555 1_555
C41 C42 1_555 1_555
C42 C43 1_555 1_555
C44 O3 1_555 1_555
C45 O4 1_555 1_555

#END
