
#######################################################################
#
#                 Cambridge Crystallographic Data Centre
#                                CCDC 
#
#######################################################################
#
# If this CIF has been generated from an entry in the Cambridge 
# Structural Database, then it will include bibliographic, chemical, 
# crystal, experimental, refinement or atomic coordinate data resulting 
# from the CCDC's data processing and validation procedures.
#
#######################################################################

data_ICIGOT
_chemical_formula_moiety         'C39 H64 K1 N1 O8 S1'
_chemical_name_systematic        
(18-crown-6)-(N-(2,6-diisopropylphenyl)-2,4,6-triisopropylbenzenesulfonamidato)-potassium
_symmetry_cell_setting           triclinic
_symmetry_space_group_name_H-M   'P -1'
_symmetry_Int_Tables_number      2
_space_group_name_Hall           '-P 1'
loop_
_symmetry_equiv_pos_site_id
_symmetry_equiv_pos_as_xyz
1 x,y,z
2 -x,-y,-z
_cell_length_a                   11.6874(9)
_cell_length_b                   12.9176(9)
_cell_length_c                   15.8744(12)
_cell_angle_alpha                80.535(6)
_cell_angle_beta                 70.060(7)
_cell_angle_gamma                75.641(6)
_cell_volume                     2174.14
_exptl_crystal_colour            colorless
_cell_formula_units_Z            2
loop_
_atom_site_label
_atom_site_type_symbol
_atom_site_fract_x
_atom_site_fract_y
_atom_site_fract_z
K1 K 0.25315(8) 0.47179(7) 0.14936(6)
S1 S 0.04269(9) 0.32354(8) 0.21069(7)
O1 O 0.0594(2) 0.3914(2) 0.26910(16)
O2 O 0.1094(2) 0.3485(2) 0.11675(16)
N1 N -0.0916(2) 0.3222(2) 0.21833(19)
O3 O 0.2347(3) 0.5675(2) -0.01811(18)
O4 O 0.0970(3) 0.6694(2) 0.13669(19)
O5 O 0.4130(2) 0.3797(2) -0.00776(19)
O6 O 0.4841(3) 0.3146(3) 0.1451(2)
O7 O 0.3491(3) 0.4278(3) 0.29136(19)
C1 C -0.1847(3) 0.3079(3) 0.3025(3)
O8 O 0.2165(3) 0.6356(2) 0.26727(19)
C2 C -0.2487(3) 0.3946(3) 0.3557(3)
C3 C -0.3448(3) 0.3782(4) 0.4352(3)
H1 H -0.3871 0.4345 0.4712
C4 C 0.1663(4) 0.1296(3) 0.0828(3)
H2 H 0.0951 0.1888 0.0834
C5 C -0.2208(3) 0.2094(3) 0.3282(3)
C6 C 0.1232(3) 0.1904(3) 0.2411(3)
C7 C 0.1275(3) 0.1619(3) 0.3296(3)
C8 C -0.2200(4) 0.5055(3) 0.3304(3)
H3 H -0.1532 0.5035 0.2726
C9 C 0.1864(3) 0.1185(3) 0.1741(3)
C10 C 0.0460(4) 0.2243(3) 0.4105(3)
H4 H -0.0141 0.2818 0.3906
C11 C 0.2098(4) 0.0688(3) 0.3460(3)
H5 H 0.2155 0.0511 0.4038
C12 C 0.2827(4) 0.0022(3) 0.2804(3)
C13 C 0.1061(4) 0.6148(4) -0.0009(3)
H6 H 0.0558 0.5629 0.0324
H7 H 0.0881 0.6386 -0.0571
C14 C 0.1228(4) 0.2763(3) 0.4460(3)
H8 H 0.1817 0.2214 0.4668
H9 H 0.0685 0.3176 0.4948
H10 H 0.1663 0.3224 0.3985
C15 C -0.3771(4) 0.2801(4) 0.4606(3)
H11 H -0.4398 0.2698 0.5143
C16 C 0.0775(4) 0.7076(4) 0.0525(3)
H12 H 0.1311 0.7575 0.0203
H13 H -0.0082 0.7450 0.0618
C17 C 0.4481(4) 0.2625(4) 0.2330(4)
H14 H 0.5074 0.1961 0.2378
H15 H 0.3667 0.2459 0.2470
C18 C 0.1340(4) 0.0280(4) 0.0654(3)
H16 H 0.2057 -0.0297 0.0574
H17 H 0.1093 0.0420 0.0122
H18 H 0.0671 0.0085 0.1159
C19 C -0.1574(4) 0.1164(3) 0.2689(3)
H19 H -0.0725 0.1264 0.2364
C20 C 0.2777(4) 0.1566(4) 0.0042(3)
H20 H 0.2934 0.2235 0.0117
H21 H 0.2597 0.1624 -0.0513
H22 H 0.3498 0.1008 0.0029
C21 C 0.5164(4) 0.2474(4) 0.0766(4)
H23 H 0.4528 0.2062 0.0883
H24 H 0.5944 0.1976 0.0746
C22 C -0.3172(4) 0.1964(4) 0.4070(3)
H25 H -0.3416 0.1308 0.4238
C23 C -0.0275(4) 0.1522(3) 0.4854(3)
H26 H -0.0720 0.1179 0.4612
H27 H -0.0854 0.1950 0.5322
H28 H 0.0290 0.0986 0.5096
C24 C 0.2682(3) 0.0257(3) 0.1962(3)
H29 H 0.3141 -0.0213 0.1522
C25 C -0.1734(4) 0.5408(4) 0.3983(3)
H30 H -0.2355 0.5408 0.4564
H31 H -0.1573 0.6117 0.3792
H32 H -0.0981 0.4919 0.4017
C26 C -0.3319(4) 0.5900(3) 0.3174(3)
H33 H -0.3617 0.5677 0.2753
H34 H -0.3073 0.6574 0.2946
H35 H -0.3969 0.5979 0.3740
C27 C 0.3490(5) 0.5104(4) 0.3387(3)
H36 H 0.4168 0.5461 0.3048
H37 H 0.3603 0.4809 0.3963
C28 C 0.2280(5) 0.5884(4) 0.3528(3)
H38 H 0.1600 0.5521 0.3848
H39 H 0.2244 0.6438 0.3888
C29 C 0.1001(5) 0.7050(4) 0.2766(3)
H40 H 0.0901 0.7621 0.3129
H41 H 0.0343 0.6658 0.3068
C30 C 0.5293(4) 0.3129(4) -0.0111(3)
H42 H 0.5909 0.3561 -0.0221
H43 H 0.5562 0.2666 -0.0594
C31 C 0.3769(4) -0.0960(4) 0.3042(3)
H44 H 0.3352 -0.1247 0.3651
C32 C 0.0914(5) 0.7515(4) 0.1863(3)
H45 H 0.0137 0.8033 0.1927
H46 H 0.1593 0.7881 0.1550
C33 C 0.2750(4) 0.4898(4) -0.0815(3)
H47 H 0.2680 0.5240 -0.1392
H48 H 0.2236 0.4364 -0.0611
C34 C 0.4449(4) 0.3374(5) 0.2955(4)
H49 H 0.4284 0.3030 0.3563
H50 H 0.5242 0.3589 0.2780
C35 C 0.4128(5) -0.1832(4) 0.2471(4)
H51 H 0.3396 -0.2043 0.2471
H52 H 0.4650 -0.2431 0.2696
H53 H 0.4575 -0.1598 0.1868
C36 C 0.4872(5) -0.0590(4) 0.3096(5)
H54 H 0.5361 -0.0369 0.2502
H55 H 0.5373 -0.1170 0.3357
H56 H 0.4582 0.0002 0.3462
C37 C -0.2187(4) 0.1205(4) 0.1991(3)
H57 H -0.3015 0.1083 0.2279
H58 H -0.1715 0.0662 0.1588
H59 H -0.2222 0.1898 0.1658
C38 C -0.1458(6) 0.0061(4) 0.3189(4)
H60 H -0.0930 -0.0002 0.3552
H61 H -0.1104 -0.0473 0.2765
H62 H -0.2267 -0.0043 0.3568
C39 C 0.4076(4) 0.4376(4) -0.0907(3)
H63 H 0.4399 0.3893 -0.1381
H64 H 0.4578 0.4917 -0.1063
loop_
_geom_bond_atom_site_label_1
_geom_bond_atom_site_label_2
_geom_bond_site_symmetry_1
_geom_bond_site_symmetry_2
K1 O1 1_555 1_555
S1 O1 1_555 1_555
O2 K1 1_555 1_555
N1 S1 1_555 1_555
O3 K1 1_555 1_555
O4 K1 1_555 1_555
O5 K1 1_555 1_555
O6 K1 1_555 1_555
O7 K1 1_555 1_555
C1 N1 1_555 1_555
O8 K1 1_555 1_555
C2 C1 1_555 1_555
C3 C2 1_555 1_555
H1 C3 1_555 1_555
C4 H2 1_555 1_555
C5 C1 1_555 1_555
C6 S1 1_555 1_555
C7 C6 1_555 1_555
C8 C2 1_555 1_555
H3 C8 1_555 1_555
C9 C4 1_555 1_555
C10 C7 1_555 1_555
H4 C10 1_555 1_555
C11 C7 1_555 1_555
H5 C11 1_555 1_555
C12 C11 1_555 1_555
C13 O3 1_555 1_555
H6 C13 1_555 1_555
H7 C13 1_555 1_555
C14 C10 1_555 1_555
H8 C14 1_555 1_555
H9 C14 1_555 1_555
H10 C14 1_555 1_555
C15 C3 1_555 1_555
H11 C15 1_555 1_555
C16 O4 1_555 1_555
H12 C16 1_555 1_555
H13 C16 1_555 1_555
C17 O6 1_555 1_555
H14 C17 1_555 1_555
H15 C17 1_555 1_555
C18 C4 1_555 1_555
H16 C18 1_555 1_555
H17 C18 1_555 1_555
H18 C18 1_555 1_555
C19 C5 1_555 1_555
H19 C19 1_555 1_555
C20 C4 1_555 1_555
H20 C20 1_555 1_555
H21 C20 1_555 1_555
H22 C20 1_555 1_555
C21 O6 1_555 1_555
H23 C21 1_555 1_555
H24 C21 1_555 1_555
C22 C5 1_555 1_555
H25 C22 1_555 1_555
C23 C10 1_555 1_555
H26 C23 1_555 1_555
H27 C23 1_555 1_555
H28 C23 1_555 1_555
C24 C9 1_555 1_555
H29 C24 1_555 1_555
C25 C8 1_555 1_555
H30 C25 1_555 1_555
H31 C25 1_555 1_555
H32 C25 1_555 1_555
C26 C8 1_555 1_555
H33 C26 1_555 1_555
H34 C26 1_555 1_555
H35 C26 1_555 1_555
C27 O7 1_555 1_555
H36 C27 1_555 1_555
H37 C27 1_555 1_555
C28 O8 1_555 1_555
H38 C28 1_555 1_555
H39 C28 1_555 1_555
C29 O8 1_555 1_555
H40 C29 1_555 1_555
H41 C29 1_555 1_555
C30 O5 1_555 1_555
H42 C30 1_555 1_555
H43 C30 1_555 1_555
C31 C12 1_555 1_555
H44 C31 1_555 1_555
C32 O4 1_555 1_555
H45 C32 1_555 1_555
H46 C32 1_555 1_555
C33 O3 1_555 1_555
H47 C33 1_555 1_555
H48 C33 1_555 1_555
C34 O7 1_555 1_555
H49 C34 1_555 1_555
H50 C34 1_555 1_555
C35 C31 1_555 1_555
H51 C35 1_555 1_555
H52 C35 1_555 1_555
H53 C35 1_555 1_555
C36 C31 1_555 1_555
H54 C36 1_555 1_555
H55 C36 1_555 1_555
H56 C36 1_555 1_555
C37 C19 1_555 1_555
H57 C37 1_555 1_555
H58 C37 1_555 1_555
H59 C37 1_555 1_555
C38 C19 1_555 1_555
H60 C38 1_555 1_555
H61 C38 1_555 1_555
H62 C38 1_555 1_555
C39 O5 1_555 1_555
H63 C39 1_555 1_555
H64 C39 1_555 1_555
S1 O2 1_555 1_555
C6 C9 1_555 1_555
C12 C24 1_555 1_555
C13 C16 1_555 1_555
C15 C22 1_555 1_555
C17 C34 1_555 1_555
C21 C30 1_555 1_555
C27 C28 1_555 1_555
C29 C32 1_555 1_555
C33 C39 1_555 1_555

#END
