
#######################################################################
#
#                 Cambridge Crystallographic Data Centre
#                                CCDC 
#
#######################################################################
#
# If this CIF has been generated from an entry in the Cambridge 
# Structural Database, then it will include bibliographic, chemical, 
# crystal, experimental, refinement or atomic coordinate data resulting 
# from the CCDC's data processing and validation procedures.
#
#######################################################################

data_ICINOZ
_chemical_formula_moiety         'C17 H18 N2 O2 S1'
_chemical_name_systematic        
'2-Benzyl-4-benzylidene-1,2,6-thiadiazinane 1,1-dioxide'
_symmetry_cell_setting           monoclinic
_symmetry_space_group_name_H-M   'C 2/c'
_symmetry_Int_Tables_number      15
_space_group_name_Hall           '-C 2yn'
loop_
_symmetry_equiv_pos_site_id
_symmetry_equiv_pos_as_xyz
1 x,y,z
2 -x,y,1/2-z
3 1/2+x,1/2+y,z
4 1/2-x,1/2+y,1/2-z
5 -x,-y,-z
6 x,-y,1/2+z
7 1/2-x,1/2-y,-z
8 1/2+x,1/2-y,1/2+z
_cell_length_a                   34.0823(7)
_cell_length_b                   5.4014(1)
_cell_length_c                   16.6312(3)
_cell_angle_alpha                90
_cell_angle_beta                 102.680(1)
_cell_angle_gamma                90
_cell_volume                     2987
_exptl_crystal_colour            colorless
_exptl_crystal_description       needle
_cell_formula_units_Z            8
loop_
_atom_site_label
_atom_site_type_symbol
_atom_site_fract_x
_atom_site_fract_y
_atom_site_fract_z
S1 S 0.119983(11) 1.13147(7) 0.93817(2)
O1 O 0.10443(3) 1.3700(2) 0.91052(8)
O2 O 0.13526(3) 1.0865(2) 1.02377(7)
N1 N 0.15556(4) 1.0697(3) 0.88761(8)
N2 N 0.08398(4) 0.9327(3) 0.90515(9)
H1 H 0.0905(6) 0.797(4) 0.9238(12)
C1 C 0.29314(5) 0.8125(4) 0.85202(11)
H2 H 0.3192 0.8044 0.8406
C2 C 0.26575(5) 0.6247(3) 0.82573(11)
H3 H 0.2728 0.4895 0.7952
C3 C 0.22787(5) 0.6341(3) 0.84399(11)
H4 H 0.2092 0.5045 0.8260
C4 C 0.21719(5) 0.8309(3) 0.88819(10)
C5 C 0.17730(5) 0.8343(3) 0.91346(11)
H5 H 0.1607 0.6928 0.8877
H6 H 0.1818 0.8163 0.9740
C6 C 0.13845(5) 1.0797(3) 0.79716(10)
H7 H 0.1599 1.0381 0.7679
H8 H 0.1296 1.2513 0.7820
C7 C 0.10316(5) 0.9065(3) 0.76767(10)
C8 C 0.10222(5) 0.7608(3) 0.70241(10)
H9 H 0.1256 0.7647 0.6803
C9 C 0.06985(5) 0.5943(3) 0.65982(10)
C10 C 0.08044(5) 0.3845(3) 0.62019(10)
H10 H 0.1079 0.3580 0.6190
C11 C 0.05186(5) 0.2148(3) 0.58263(10)
H11 H 0.0598 0.0713 0.5573
C12 C 0.01153(5) 0.2539(3) 0.58190(10)
H12 H -0.0081 0.1357 0.5573
C13 C 0.28255(5) 1.0130(3) 0.89507(11)
H13 H 0.3012 1.1435 0.9124
C14 C 0.24470(5) 1.0214(3) 0.91253(10)
H14 H 0.2374 1.1593 0.9415
C15 C 0.06978(5) 0.9265(3) 0.81389(10)
H15 H 0.0542 1.0789 0.7960
H16 H 0.0514 0.7838 0.7988
C16 C 0.02887(5) 0.6359(3) 0.65542(10)
H17 H 0.0206 0.7820 0.6789
C17 C 0.00021(5) 0.4665(3) 0.61727(10)
H18 H -0.0274 0.4967 0.6154
loop_
_geom_bond_atom_site_label_1
_geom_bond_atom_site_label_2
_geom_bond_site_symmetry_1
_geom_bond_site_symmetry_2
S1 O1 1_555 1_555
O2 S1 1_555 1_555
N1 S1 1_555 1_555
N2 S1 1_555 1_555
H1 N2 1_555 1_555
C1 H2 1_555 1_555
C2 C1 1_555 1_555
H3 C2 1_555 1_555
C3 C2 1_555 1_555
H4 C3 1_555 1_555
C4 C3 1_555 1_555
C5 N1 1_555 1_555
H5 C5 1_555 1_555
H6 C5 1_555 1_555
C6 N1 1_555 1_555
H7 C6 1_555 1_555
H8 C6 1_555 1_555
C7 C6 1_555 1_555
C8 C7 1_555 1_555
H9 C8 1_555 1_555
C9 C8 1_555 1_555
C10 C9 1_555 1_555
H10 C10 1_555 1_555
C11 C10 1_555 1_555
H11 C11 1_555 1_555
C12 C11 1_555 1_555
H12 C12 1_555 1_555
C13 C1 1_555 1_555
H13 C13 1_555 1_555
C14 C4 1_555 1_555
H14 C14 1_555 1_555
C15 N2 1_555 1_555
H15 C15 1_555 1_555
H16 C15 1_555 1_555
C16 C9 1_555 1_555
H17 C16 1_555 1_555
C17 C12 1_555 1_555
H18 C17 1_555 1_555
C4 C5 1_555 1_555
C7 C15 1_555 1_555
C13 C14 1_555 1_555
C16 C17 1_555 1_555

#END
