
#######################################################################
#
#                 Cambridge Crystallographic Data Centre
#                                CCDC 
#
#######################################################################
#
# If this CIF has been generated from an entry in the Cambridge 
# Structural Database, then it will include bibliographic, chemical, 
# crystal, experimental, refinement or atomic coordinate data resulting 
# from the CCDC's data processing and validation procedures.
#
#######################################################################

data_ICIXAW
_chemical_formula_moiety         'C29 H33 N2 Na1 O10 S1'
_chemical_name_systematic        
(15-crown-5)-(4-nitro-N-(9H-xanthen-9-yl)benzenesulfonamidato)-sodium
_symmetry_cell_setting           monoclinic
_symmetry_space_group_name_H-M   'P 21/n'
_symmetry_Int_Tables_number      14
_space_group_name_Hall           '-P 2yn'
loop_
_symmetry_equiv_pos_site_id
_symmetry_equiv_pos_as_xyz
1 x,y,z
2 1/2-x,1/2+y,1/2-z
3 -x,-y,-z
4 1/2+x,1/2-y,1/2+z
_cell_length_a                   10.7318(8)
_cell_length_b                   16.8460(15)
_cell_length_c                   16.1244(13)
_cell_angle_alpha                90
_cell_angle_beta                 91.924(7)
_cell_angle_gamma                90
_cell_volume                     2913.45
_exptl_crystal_colour            yellow
_exptl_crystal_description       prism
_cell_formula_units_Z            4
loop_
_atom_site_label
_atom_site_type_symbol
_atom_site_fract_x
_atom_site_fract_y
_atom_site_fract_z
S1 S 0.69470(6) 0.33254(4) 0.36711(4)
Na1 Na 0.56638(9) 0.17924(6) 0.42071(6)
O1 O 0.75228(17) 0.36379(12) 0.29359(11)
O2 O 0.56155(16) 0.31604(11) 0.36008(12)
O3 O 0.49411(17) 0.23416(12) 0.55466(12)
O4 O 1.02210(17) 0.11016(12) 0.47674(12)
O5 O 0.62586(17) 0.09848(13) 0.54660(12)
O6 O 0.45202(19) 0.11208(12) 0.30495(12)
O7 O 0.33411(17) 0.19390(13) 0.42352(12)
O8 O 0.66454(19) 0.05569(12) 0.38341(14)
O9 O 0.8740(2) 0.61288(14) 0.63527(14)
O10 O 0.7172(2) 0.56611(15) 0.70044(14)
N1 N 0.75744(18) 0.25831(13) 0.40682(13)
N2 N 0.7827(2) 0.56925(15) 0.63944(16)
C1 C 0.8947(2) 0.24911(16) 0.40150(15)
H1 H 0.9281 0.2942 0.3709
C2 C 0.9231(2) 0.17305(16) 0.35602(16)
C3 C 0.9546(2) 0.24732(17) 0.48822(16)
C4 C 0.7072(2) 0.41130(16) 0.44161(16)
C5 C 1.0104(2) 0.17938(17) 0.52081(17)
C6 C 0.6426(2) 0.40503(18) 0.51491(18)
H2 H 0.5846 0.3645 0.5207
C7 C 0.9799(2) 0.10908(17) 0.39444(17)
C8 C 0.7517(2) 0.51702(17) 0.56864(18)
C9 C 0.9526(2) 0.31415(19) 0.53895(17)
H3 H 0.9172 0.3608 0.5181
C10 C 0.9978(2) 0.03765(18) 0.3532(2)
H4 H 1.0349 -0.0050 0.3811
C11 C 0.7900(3) 0.47332(17) 0.43189(18)
H5 H 0.8297 0.4794 0.3819
C12 C 0.8858(3) 0.16441(19) 0.27235(18)
H6 H 0.8469 0.2066 0.2447
C13 C 1.0017(3) 0.3133(2) 0.61964(18)
H7 H 0.9998 0.3588 0.6522
C14 C 0.6637(3) 0.45813(18) 0.57883(18)
H8 H 0.6199 0.4545 0.6275
C15 C 1.0583(2) 0.1767(2) 0.60259(18)
H9 H 1.0930 0.1300 0.6238
C16 C 0.9060(3) 0.0939(2) 0.23002(19)
H10 H 0.8827 0.0896 0.1741
C17 C 1.0537(3) 0.2435(2) 0.65129(18)
H11 H 1.0855 0.2420 0.7056
C18 C 0.3631(3) 0.2464(2) 0.55833(19)
H12 H 0.3459 0.2909 0.5944
H13 H 0.3232 0.1996 0.5801
C19 C 0.9608(3) 0.02997(19) 0.2711(2)
H14 H 0.9725 -0.0177 0.2434
C20 C 0.8142(3) 0.52639(18) 0.49590(19)
H15 H 0.8712 0.5674 0.4900
C21 C 0.3146(3) 0.26301(19) 0.4723(2)
H16 H 0.2264 0.2756 0.4728
H17 H 0.3582 0.3079 0.4493
C22 C 0.3206(3) 0.1279(2) 0.2970(2)
H18 H 0.2742 0.0853 0.3222
H19 H 0.2950 0.1312 0.2389
C23 C 0.2947(3) 0.2036(2) 0.33888(19)
H20 H 0.3403 0.2465 0.3137
H21 H 0.2064 0.2157 0.3347
C24 C 0.5496(3) 0.2013(2) 0.62867(18)
H22 H 0.4919 0.1651 0.6543
H23 H 0.5707 0.2431 0.6680
C25 C 0.6812(3) 0.00125(19) 0.4479(2)
H24 H 0.6684 -0.0532 0.4442
C26 C 0.6645(3) 0.1579(2) 0.60505(19)
H25 H 0.7230 0.1941 0.5804
H26 H 0.7046 0.1337 0.6535
C27 C 0.7229(3) 0.0453(2) 0.5238(2)
H27 H 0.7411 0.0083 0.5687
H28 H 0.7982 0.0749 0.5131
C28 C 0.4837(3) 0.0308(2) 0.2930(2)
H29 H 0.4571 0.0135 0.2378
H30 H 0.4435 -0.0023 0.3334
C29 C 0.6198(3) 0.0252(2) 0.3036(2)
H31 H 0.6447 -0.0299 0.2986
H32 H 0.6583 0.0548 0.2597
loop_
_geom_bond_atom_site_label_1
_geom_bond_atom_site_label_2
_geom_bond_site_symmetry_1
_geom_bond_site_symmetry_2
S1 O1 1_555 1_555
Na1 O2 1_555 1_555
O2 S1 1_555 1_555
O3 Na1 1_555 1_555
O4 C5 1_555 1_555
O5 Na1 1_555 1_555
O6 Na1 1_555 1_555
O7 Na1 1_555 1_555
O8 Na1 1_555 1_555
O9 N2 1_555 1_555
O10 N2 1_555 1_555
N1 S1 1_555 1_555
N2 C8 1_555 1_555
C1 N1 1_555 1_555
H1 C1 1_555 1_555
C2 C1 1_555 1_555
C3 C1 1_555 1_555
C4 S1 1_555 1_555
C5 C3 1_555 1_555
C6 C4 1_555 1_555
H2 C6 1_555 1_555
C7 O4 1_555 1_555
C8 C14 1_555 1_555
C9 C3 1_555 1_555
H3 C9 1_555 1_555
C10 C7 1_555 1_555
H4 C10 1_555 1_555
C11 C4 1_555 1_555
H5 C11 1_555 1_555
C12 C2 1_555 1_555
H6 C12 1_555 1_555
C13 C9 1_555 1_555
H7 C13 1_555 1_555
C14 C6 1_555 1_555
H8 C14 1_555 1_555
C15 C5 1_555 1_555
H9 C15 1_555 1_555
C16 C12 1_555 1_555
H10 C16 1_555 1_555
C17 C13 1_555 1_555
H11 C17 1_555 1_555
C18 O3 1_555 1_555
H12 C18 1_555 1_555
H13 C18 1_555 1_555
C19 C10 1_555 1_555
H14 C19 1_555 1_555
C20 C8 1_555 1_555
H15 C20 1_555 1_555
C21 O7 1_555 1_555
H16 C21 1_555 1_555
H17 C21 1_555 1_555
C22 O6 1_555 1_555
H18 C22 1_555 1_555
H19 C22 1_555 1_555
C23 O7 1_555 1_555
H20 C23 1_555 1_555
H21 C23 1_555 1_555
C24 O3 1_555 1_555
H22 C24 1_555 1_555
H23 C24 1_555 1_555
C25 O8 1_555 1_555
H24 C25 1_555 1_555
C26 O5 1_555 1_555
H25 C26 1_555 1_555
H26 C26 1_555 1_555
C27 O5 1_555 1_555
H27 C27 1_555 1_555
H28 C27 1_555 1_555
C28 O6 1_555 1_555
H29 C28 1_555 1_555
H30 C28 1_555 1_555
C29 O8 1_555 1_555
H31 C29 1_555 1_555
H32 C29 1_555 1_555
Na1 N1 1_555 1_555
C2 C7 1_555 1_555
C11 C20 1_555 1_555
C15 C17 1_555 1_555
C16 C19 1_555 1_555
C18 C21 1_555 1_555
C22 C23 1_555 1_555
C24 C26 1_555 1_555
C25 C27 1_555 1_555
C28 C29 1_555 1_555

#END
