
#######################################################################
#
#                 Cambridge Crystallographic Data Centre
#                                CCDC 
#
#######################################################################
#
# If this CIF has been generated from an entry in the Cambridge 
# Structural Database, then it will include bibliographic, chemical, 
# crystal, experimental, refinement or atomic coordinate data resulting 
# from the CCDC's data processing and validation procedures.
#
#######################################################################

data_ICIXEA
_chemical_formula_moiety         'C30 H39 N3 O5 S1'
_chemical_name_systematic        
3-(2,4-dimethylphenyl)-1-(3,5-dimethyl-1H-pyrazol-1-yl)-3-(4-(2-hydroxyethoxy)-1-((4-methylphenyl)sulfonyl)piperidin-4-yl)propan-1-one
_symmetry_cell_setting           monoclinic
_symmetry_space_group_name_H-M   'C 2'
_symmetry_Int_Tables_number      5
_space_group_name_Hall           'C 2y'
loop_
_symmetry_equiv_pos_site_id
_symmetry_equiv_pos_as_xyz
1 x,y,z
2 -x,y,-z
3 1/2+x,1/2+y,z
4 1/2-x,1/2+y,-z
_cell_length_a                   19.0297(14)
_cell_length_b                   8.3596(6)
_cell_length_c                   18.4008(14)
_cell_angle_alpha                90
_cell_angle_beta                 104.557(2)
_cell_angle_gamma                90
_cell_volume                     2833.24
_exptl_crystal_colour            colorless
_exptl_crystal_description       needle
_cell_formula_units_Z            4
loop_
_atom_site_label
_atom_site_type_symbol
_atom_site_fract_x
_atom_site_fract_y
_atom_site_fract_z
C1 C 0.43807(17) 0.6361(5) 0.83131(17)
H1 H 0.4746 0.5503 0.8350
H2 H 0.4541 0.7286 0.8059
C2 C 0.36391(16) 0.5754(4) 0.78239(16)
H3 H 0.3504 0.4814 0.8096
C3 C 0.37167(14) 0.5111(4) 0.70590(16)
C4 C 0.39550(15) 0.6376(4) 0.65762(15)
H4 H 0.3617 0.7295 0.6516
H5 H 0.4444 0.6765 0.6840
C5 C 0.39772(14) 0.5769(3) 0.58027(16)
H6 H 0.4109 0.6653 0.5504
H7 H 0.4348 0.4917 0.5852
N1 N 0.32562(11) 0.5131(3) 0.54220(12)
C6 C 0.30382(15) 0.3792(3) 0.58439(16)
H8 H 0.3394 0.2909 0.5895
H9 H 0.2557 0.3381 0.5568
C7 C 0.30039(15) 0.4372(4) 0.66149(16)
H10 H 0.2879 0.3459 0.6902
H11 H 0.2612 0.5177 0.6557
C8 C 0.4358(10) 0.6806(17) 0.9020(11)
O1 O 0.4457(8) 0.8144(17) 0.9260(8)
N2 N 0.4168(9) 0.5660(17) 0.9500(8)
N3 N 0.4253(8) 0.4061(14) 0.9357(6)
C9 C 0.3998(9) 0.3315(15) 0.9858(7)
C10 C 0.3725(9) 0.4397(18) 1.0313(8)
H12 H 0.3502 0.4125 1.0704
C11 C 0.3842(9) 0.5907(18) 1.0082(9)
C12 C 0.3993(12) 0.1530(14) 0.9890(7)
H13 H 0.4155 0.1180 1.0413
H14 H 0.4320 0.1101 0.9603
H15 H 0.3499 0.1138 0.9673
C13 C 0.3641(12) 0.748(2) 1.0316(10)
H16 H 0.3315 0.7347 1.0649
H17 H 0.3393 0.8097 0.9872
H18 H 0.4079 0.8052 1.0584
C14 C 0.30423(16) 0.6988(4) 0.77807(15)
C15 C 0.23793(17) 0.6589(4) 0.79486(17)
C16 C 0.18557(18) 0.7766(5) 0.79007(19)
H19 H 0.1412 0.7481 0.8014
C17 C 0.19454(17) 0.9327(4) 0.76978(17)
C18 C 0.26074(16) 0.9718(4) 0.75496(16)
H20 H 0.2693 1.0783 0.7414
C19 C 0.31382(16) 0.8574(4) 0.75978(16)
H21 H 0.3587 0.8881 0.7502
C20 C 0.22183(19) 0.4923(5) 0.8183(2)
H22 H 0.2199 0.4178 0.7767
H23 H 0.1750 0.4921 0.8314
H24 H 0.2602 0.4589 0.8619
C21 C 0.13569(19) 1.0559(5) 0.7633(2)
H25 H 0.1312 1.1180 0.7171
H26 H 0.1480 1.1277 0.8067
H27 H 0.0895 1.0023 0.7616
O2 O 0.42985(10) 0.3936(3) 0.71975(12)
C22 C 0.41680(17) 0.2434(4) 0.75136(19)
H28 H 0.3924 0.1687 0.7112
H29 H 0.3853 0.2586 0.7863
C23 C 0.48950(18) 0.1776(5) 0.7928(2)
H30 H 0.5203 0.1710 0.7568
O3 O 0.49037(17) 0.0222(4) 0.81372(18)
H31 H 0.4702 0.0082 0.8602
C24 C 0.36156(15) 0.3283(3) 0.43349(15)
C25 C 0.34087(15) 0.1731(4) 0.44374(17)
H32 H 0.2982 0.1530 0.4602
C26 C 0.38284(16) 0.0472(4) 0.42982(18)
H33 H 0.3688 -0.0594 0.4372
C27 C 0.44519(16) 0.0742(4) 0.40525(19)
C28 C 0.46552(16) 0.2309(4) 0.39618(17)
H34 H 0.5083 0.2511 0.3800
C29 C 0.42448(14) 0.3581(3) 0.41023(15)
H35 H 0.4391 0.4649 0.4041
C30 C 0.48899(18) -0.0635(4) 0.3867(2)
H36 H 0.4820 -0.0701 0.3322
H37 H 0.4729 -0.1635 0.4052
H38 H 0.5405 -0.0463 0.4107
S1 S 0.30816(3) 0.48958(11) 0.45087(4)
O4 O 0.33311(11) 0.6318(2) 0.42158(11)
O5 O 0.23310(10) 0.4446(2) 0.42686(11)
H39? H 0.4591 0.7162 0.8032
H40? H 0.4726 0.5459 0.8449
C31? C 0.4227(12) 0.7180(18) 0.9082(10)
O6? O 0.4291(8) 0.8579(15) 0.9232(9)
N4? N 0.4005(9) 0.6026(14) 0.9539(8)
N5? N 0.4020(8) 0.4396(15) 0.9392(6)
C32? C 0.3740(8) 0.3687(14) 0.9900(7)
C33? C 0.3516(8) 0.4856(17) 1.0353(7)
H41? H 0.3291 0.4648 1.0749
C34? C 0.3678(9) 0.633(2) 1.0124(9)
C35? C 0.3654(10) 0.1916(15) 0.9911(7)
H42? H 0.3159 0.1653 0.9937
H43? H 0.4001 0.1473 1.0351
H44? H 0.3745 0.1457 0.9453
C36? C 0.3567(11) 0.794(2) 1.0404(12)
H45? H 0.3307 0.7849 1.0800
H46? H 0.3280 0.8587 0.9991
H47? H 0.4039 0.8449 1.0608
H48? H 0.5236 0.1907 0.7605
H49? H 0.5081 0.2432 0.8384
O7? O 0.5236(3) 0.2493(7) 0.8480(4)
H50? H 0.4877 0.2704 0.8767
H51? H 0.4819 0.0669 0.8083
loop_
_geom_bond_atom_site_label_1
_geom_bond_atom_site_label_2
_geom_bond_site_symmetry_1
_geom_bond_site_symmetry_2
C1 H1 1_555 1_555
H2 C1 1_555 1_555
C2 C1 1_555 1_555
H3 C2 1_555 1_555
C3 C2 1_555 1_555
C4 C3 1_555 1_555
H4 C4 1_555 1_555
H5 C4 1_555 1_555
C5 C4 1_555 1_555
H6 C5 1_555 1_555
H7 C5 1_555 1_555
N1 C5 1_555 1_555
C6 N1 1_555 1_555
H8 C6 1_555 1_555
H9 C6 1_555 1_555
C7 C3 1_555 1_555
H10 C7 1_555 1_555
H11 C7 1_555 1_555
C8 C1 1_555 1_555
O1 C8 1_555 1_555
N2 C8 1_555 1_555
N3 N2 1_555 1_555
C9 N3 1_555 1_555
C10 C9 1_555 1_555
H12 C10 1_555 1_555
C11 N2 1_555 1_555
C12 C9 1_555 1_555
H13 C12 1_555 1_555
H14 C12 1_555 1_555
H15 C12 1_555 1_555
C13 C11 1_555 1_555
H16 C13 1_555 1_555
H17 C13 1_555 1_555
H18 C13 1_555 1_555
C14 C2 1_555 1_555
C15 C14 1_555 1_555
C16 C15 1_555 1_555
H19 C16 1_555 1_555
C17 C16 1_555 1_555
C18 C17 1_555 1_555
H20 C18 1_555 1_555
C19 C14 1_555 1_555
H21 C19 1_555 1_555
C20 C15 1_555 1_555
H22 C20 1_555 1_555
H23 C20 1_555 1_555
H24 C20 1_555 1_555
C21 C17 1_555 1_555
H25 C21 1_555 1_555
H26 C21 1_555 1_555
H27 C21 1_555 1_555
O2 C3 1_555 1_555
C22 O2 1_555 1_555
H28 C22 1_555 1_555
H29 C22 1_555 1_555
C23 C22 1_555 1_555
H30 C23 1_555 1_555
O3 C23 1_555 1_555
H31 O3 1_555 1_555
C24 C25 1_555 1_555
C25 H32 1_555 1_555
C26 C25 1_555 1_555
H33 C26 1_555 1_555
C27 C26 1_555 1_555
C28 C27 1_555 1_555
H34 C28 1_555 1_555
C29 C24 1_555 1_555
H35 C29 1_555 1_555
C30 C27 1_555 1_555
H36 C30 1_555 1_555
H37 C30 1_555 1_555
H38 C30 1_555 1_555
S1 N1 1_555 1_555
O4 S1 1_555 1_555
O5 S1 1_555 1_555
C6 C7 1_555 1_555
C10 C11 1_555 1_555
C18 C19 1_555 1_555
C24 S1 1_555 1_555
C28 C29 1_555 1_555

#END
