
#######################################################################
#
#                 Cambridge Crystallographic Data Centre
#                                CCDC 
#
#######################################################################
#
# If this CIF has been generated from an entry in the Cambridge 
# Structural Database, then it will include bibliographic, chemical, 
# crystal, experimental, refinement or atomic coordinate data resulting 
# from the CCDC's data processing and validation procedures.
#
#######################################################################

data_ICIYOL
_chemical_name_common            
'C-(4-hydroxyphenyl)calix(4)pyrogallolarene acetonitrile solvate hexahydrate'
_chemical_formula_moiety         'C52 H40 O16,2(C2 H3 N1),6(H2 O1)'
_chemical_name_systematic        
'2,8,14,20-tetrakis(4-hydroxyphenyl)-4,5,6,10,11,12,16,17,18,22,23,24-dodecahydroxycalix(4)arene acetonitrile solvate hexahydrate'
_symmetry_cell_setting           triclinic
_symmetry_space_group_name_H-M   'P -1'
_symmetry_Int_Tables_number      2
_space_group_name_Hall           '-P 1'
loop_
_symmetry_equiv_pos_site_id
_symmetry_equiv_pos_as_xyz
1 x,y,z
2 -x,-y,-z
_cell_length_a                   10.6031(15)
_cell_length_b                   11.1243(8)
_cell_length_c                   12.3515(8)
_cell_angle_alpha                115.7610(10)
_cell_angle_beta                 97.4830(10)
_cell_angle_gamma                97.2150(10)
_cell_volume                     1273.55
_exptl_crystal_colour            colorless
_exptl_crystal_description       Plate
_cell_formula_units_Z            1
loop_
_atom_site_label
_atom_site_type_symbol
_atom_site_fract_x
_atom_site_fract_y
_atom_site_fract_z
O1 O 0.27371(10) 0.62996(11) 0.61591(10)
H1 H 0.2652 0.5595 0.6258
C1 C 0.02152(13) 0.80549(14) 0.56467(12)
H2 H 0.0110 0.8731 0.5387
O2 O 0.07798(10) 0.52262(11) 0.68974(10)
H3 H 0.0179 0.4530 0.6567
C2 C 0.14125(13) 0.76625(14) 0.56852(12)
O3 O -0.16993(10) 0.59287(11) 0.66533(10)
H4 H -0.1553 0.5218 0.6683
C3 C 0.15609(13) 0.66796(14) 0.60819(13)
C4 C 0.05299(14) 0.61140(14) 0.64223(13)
O4 O 0.04208(10) 0.71642(11) 0.11862(9)
H5 H 0.0948 0.6823 0.0745
C5 C -0.06693(13) 0.64932(14) 0.63410(13)
O5 O 0.08521(11) 0.99091(11) 0.17171(10)
H6 H 0.0496 0.9210 0.1058
C6 C 0.25710(13) 0.83694(14) 0.54217(12)
H7 H 0.3153 0.7707 0.5116
O6 O 0.54968(11) 1.31960(12) 0.95861(11)
H8 H 0.5017 1.3580 1.0066
C7 C 0.23340(13) 1.01387(14) 0.46484(13)
H9 H 0.2758 1.0823 0.5448
O7 O 0.57433(11) 1.54864(12) 0.85600(11)
H10 H 0.6517 1.5476 0.8479
C8 C 0.21493(13) 0.87803(14) 0.44222(13)
C9 C 0.15372(13) 0.77935(14) 0.32387(13)
C10 C 0.10997(13) 0.81567(14) 0.23305(13)
C11 C 0.12890(13) 0.95298(15) 0.25924(13)
C12 C 0.19293(13) 1.05440(14) 0.37639(13)
C13 C 0.21303(13) 1.20436(14) 0.40426(13)
H11 H 0.2499 1.2119 0.3364
C14 C 0.08341(13) 1.25038(14) 0.40269(12)
C15 C 0.33496(13) 0.96064(14) 0.65907(13)
C16 C 0.27744(14) 1.03602(15) 0.75550(13)
H12 H 0.1887 1.0054 0.7525
C17 C 0.34755(15) 1.15529(15) 0.85608(14)
H13 H 0.3067 1.2053 0.9209
C18 C 0.47738(15) 1.20115(15) 0.86153(14)
C19 C 0.53734(14) 1.12694(16) 0.76703(14)
H14 H 0.6264 1.1574 0.7709
C20 C 0.46613(14) 1.00792(15) 0.66683(14)
H15 H 0.5074 0.9577 0.6024
C21 C 0.31021(13) 1.29756(14) 0.52407(13)
C22 C 0.27670(14) 1.33133(14) 0.63797(14)
H16 H 0.1908 1.2980 0.6407
C23 C 0.36612(14) 1.41260(15) 0.74732(14)
H17 H 0.3418 1.4331 0.8238
C24 C 0.49156(15) 1.46377(15) 0.74420(14)
C25 C 0.52719(14) 1.43341(16) 0.63226(15)
H18 H 0.6123 1.4695 0.6299
C26 C 0.43685(14) 1.34946(15) 0.52328(14)
H19 H 0.4621 1.3271 0.4469
O8 O 0.13546(11) 0.64356(10) 0.29804(10)
H20 H 0.1316 0.5951 0.2228
O1A O -0.27371(10) 1.37004(11) 0.38409(10)
H1A H -0.2652 1.4405 0.3742
C1A C -0.02152(13) 1.19451(14) 0.43533(12)
H2A H -0.0110 1.1269 0.4613
O2A O -0.07798(10) 1.47738(11) 0.31026(10)
H3A H -0.0179 1.5470 0.3433
C2A C -0.14125(13) 1.23375(14) 0.43148(12)
O3A O 0.16993(10) 1.40713(11) 0.33467(10)
H4A H 0.1553 1.4782 0.3317
C3A C -0.15609(13) 1.33204(14) 0.39181(13)
C4A C -0.05299(14) 1.38860(14) 0.35777(13)
O4A O -0.04208(10) 1.28358(11) 0.88138(9)
H5A H -0.0948 1.3177 0.9255
C5A C 0.06693(13) 1.35068(14) 0.36590(13)
O5A O -0.08521(11) 1.00909(11) 0.82829(10)
H6A H -0.0496 1.0790 0.8942
C6A C -0.25710(13) 1.16306(14) 0.45783(12)
H7A H -0.3153 1.2293 0.4884
O6A O -0.54968(11) 0.68040(12) 0.04139(11)
H8A H -0.5017 0.6420 -0.0066
C7A C -0.23340(13) 0.98613(14) 0.53516(13)
H9A H -0.2758 0.9177 0.4552
O7A O -0.57433(11) 0.45136(12) 0.14400(11)
H10A H -0.6517 0.4524 0.1521
C8A C -0.21493(13) 1.12197(14) 0.55778(13)
C9A C -0.15372(13) 1.22065(14) 0.67613(13)
C10A C -0.10997(13) 1.18433(14) 0.76695(13)
C11A C -0.12890(13) 1.04702(15) 0.74076(13)
C12A C -0.19293(13) 0.94560(14) 0.62361(13)
C13A C -0.21303(13) 0.79564(14) 0.59574(13)
H11A H -0.2499 0.7881 0.6636
C14A C -0.08341(13) 0.74962(14) 0.59731(12)
C15A C -0.33496(13) 1.03936(14) 0.34093(13)
C16A C -0.27744(14) 0.96398(15) 0.24450(13)
H12A H -0.1887 0.9946 0.2475
C17A C -0.34755(15) 0.84471(15) 0.14392(14)
H13A H -0.3067 0.7947 0.0791
C18A C -0.47738(15) 0.79885(15) 0.13847(14)
C19A C -0.53734(14) 0.87306(16) 0.23297(14)
H14A H -0.6264 0.8426 0.2291
C20A C -0.46613(14) 0.99208(15) 0.33317(14)
H15A H -0.5074 1.0423 0.3976
C21A C -0.31021(13) 0.70244(14) 0.47593(13)
C22A C -0.27670(14) 0.66867(14) 0.36203(14)
H16A H -0.1908 0.7020 0.3593
C23A C -0.36612(14) 0.58740(15) 0.25268(14)
H17A H -0.3418 0.5669 0.1762
C24A C -0.49156(15) 0.53623(15) 0.25580(14)
C25A C -0.52719(14) 0.56659(16) 0.36774(15)
H18A H -0.6123 0.5305 0.3701
C26A C -0.43685(14) 0.65054(15) 0.47672(14)
H19A H -0.4621 0.6729 0.5531
O8A O -0.13546(11) 1.35644(10) 0.70196(10)
H20A H -0.1316 1.4049 0.7772
N1 N 0.74258(18) 0.16727(18) 0.08965(16)
C27 C 0.6412(2) 0.16365(18) 0.11188(16)
C28 C 0.51241(19) 0.1586(2) 0.14093(18)
H21 H 0.4960 0.0899 0.1697
H22 H 0.4469 0.1345 0.0672
H23 H 0.5078 0.2480 0.2054
O9 O -0.01211(13) 0.81961(12) -0.07514(11)
O10 O 0.18117(11) 0.57967(12) -0.04378(11)
O11 O 0.16210(11) 0.42289(12) 0.09500(10)
loop_
_geom_bond_atom_site_label_1
_geom_bond_atom_site_label_2
_geom_bond_site_symmetry_1
_geom_bond_site_symmetry_2
O1 H1 1_555 1_555
C1 H2 1_555 1_555
O2 H3 1_555 1_555
C2 C1 1_555 1_555
O3 H4 1_555 1_555
C3 O1 1_555 1_555
C4 O2 1_555 1_555
O4 H5 1_555 1_555
C5 O3 1_555 1_555
O5 H6 1_555 1_555
C6 C2 1_555 1_555
H7 C6 1_555 1_555
O6 H8 1_555 1_555
C7 H9 1_555 1_555
O7 H10 1_555 1_555
C8 C6 1_555 1_555
C9 C8 1_555 1_555
C10 O4 1_555 1_555
C11 O5 1_555 1_555
C12 C7 1_555 1_555
C13 C12 1_555 1_555
H11 C13 1_555 1_555
C14 C13 1_555 1_555
C15 C6 1_555 1_555
C16 C15 1_555 1_555
H12 C16 1_555 1_555
C17 C16 1_555 1_555
H13 C17 1_555 1_555
C18 O6 1_555 1_555
C19 C18 1_555 1_555
H14 C19 1_555 1_555
C20 C15 1_555 1_555
H15 C20 1_555 1_555
C21 C13 1_555 1_555
C22 C21 1_555 1_555
H16 C22 1_555 1_555
C23 C22 1_555 1_555
H17 C23 1_555 1_555
C24 O7 1_555 1_555
C25 C24 1_555 1_555
H18 C25 1_555 1_555
C26 C21 1_555 1_555
H19 C26 1_555 1_555
O8 C9 1_555 1_555
H20 O8 1_555 1_555
N1 C27 1_555 1_555
C27 C28 1_555 1_555
C28 H21 1_555 1_555
H22 C28 1_555 1_555
H23 C28 1_555 1_555
O1A H1A 1_555 1_555
C1A C14 1_555 1_555
H2A C1A 1_555 1_555
O2A H3A 1_555 1_555
C2A C1A 1_555 1_555
O3A H4A 1_555 1_555
C3A O1A 1_555 1_555
C4A O2A 1_555 1_555
O4A H5A 1_555 1_555
C5A C14 1_555 1_555
O5A H6A 1_555 1_555
C6A C2A 1_555 1_555
H7A C6A 1_555 1_555
O6A H8A 1_555 1_555
C7A H9A 1_555 1_555
O7A H10A 1_555 1_555
C8A C6A 1_555 1_555
C9A C8A 1_555 1_555
C10A O4A 1_555 1_555
C11A O5A 1_555 1_555
C12A C7A 1_555 1_555
C13A C12A 1_555 1_555
H11A C13A 1_555 1_555
C14A C1 1_555 1_555
C15A C6A 1_555 1_555
C16A C15A 1_555 1_555
H12A C16A 1_555 1_555
C17A C16A 1_555 1_555
H13A C17A 1_555 1_555
C18A O6A 1_555 1_555
C19A C18A 1_555 1_555
H14A C19A 1_555 1_555
C20A C15A 1_555 1_555
H15A C20A 1_555 1_555
C21A C13A 1_555 1_555
C22A C21A 1_555 1_555
H16A C22A 1_555 1_555
C23A C22A 1_555 1_555
H17A C23A 1_555 1_555
C24A O7A 1_555 1_555
C25A C24A 1_555 1_555
H18A C25A 1_555 1_555
C26A C21A 1_555 1_555
H19A C26A 1_555 1_555
O8A C9A 1_555 1_555
H20A O8A 1_555 1_555
C2 C3 1_555 1_555
C3 C4 1_555 1_555
C4 C5 1_555 1_555
C5 C14A 1_555 1_555
C7 C8 1_555 1_555
C9 C10 1_555 1_555
C10 C11 1_555 1_555
C11 C12 1_555 1_555
C17 C18 1_555 1_555
C19 C20 1_555 1_555
C23 C24 1_555 1_555
C25 C26 1_555 1_555
C2A C3A 1_555 1_555
O3A C5A 1_555 1_555
C3A C4A 1_555 1_555
C4A C5A 1_555 1_555
C7A C8A 1_555 1_555
C9A C10A 1_555 1_555
C10A C11A 1_555 1_555
C11A C12A 1_555 1_555
C13A C14A 1_555 1_555
C17A C18A 1_555 1_555
C19A C20A 1_555 1_555
C23A C24A 1_555 1_555
C25A C26A 1_555 1_555

#END
