
#######################################################################
#
#                 Cambridge Crystallographic Data Centre
#                                CCDC 
#
#######################################################################
#
# If this CIF has been generated from an entry in the Cambridge 
# Structural Database, then it will include bibliographic, chemical, 
# crystal, experimental, refinement or atomic coordinate data resulting 
# from the CCDC's data processing and validation procedures.
#
#######################################################################

data_ICOPEY
_chemical_formula_moiety         'C11 H12 Br1 N1 O2'
_chemical_name_systematic        
'methyl 3-(5-bromo-2-(methylamino)phenyl)acrylate'
_symmetry_cell_setting           monoclinic
_symmetry_space_group_name_H-M   'P 21/c'
_symmetry_Int_Tables_number      14
_space_group_name_Hall           '-P 2ybc'
loop_
_symmetry_equiv_pos_site_id
_symmetry_equiv_pos_as_xyz
1 x,y,z
2 -x,1/2+y,1/2-z
3 -x,-y,-z
4 x,1/2-y,1/2+z
_cell_length_a                   15.359(3)
_cell_length_b                   5.6670(11)
_cell_length_c                   13.730(3)
_cell_angle_alpha                90
_cell_angle_beta                 105.95(3)
_cell_angle_gamma                90
_cell_volume                     1149.04
_exptl_crystal_description       block
_cell_formula_units_Z            4
loop_
_atom_site_label
_atom_site_type_symbol
_atom_site_fract_x
_atom_site_fract_y
_atom_site_fract_z
Br1 Br 0.42945(5) 0.23057(15) 0.53031(6)
N1 N 0.2272(4) 0.5932(9) 0.8214(4)
H1 H 0.1768 0.5277 0.8216
O1 O -0.0320(3) 0.0335(7) 0.6635(3)
C1 C 0.2701(4) 0.5174(12) 0.7541(5)
O2 O 0.0128(3) -0.2835(7) 0.5934(3)
C2 C 0.3535(4) 0.6115(13) 0.7523(5)
H2 H 0.3785 0.7338 0.7963
C3 C 0.4003(4) 0.5248(12) 0.6853(5)
H3 H 0.4557 0.5907 0.6852
C4 C 0.3648(5) 0.3421(12) 0.6192(5)
C5 C 0.2848(4) 0.2483(12) 0.6214(4)
H4 H 0.2625 0.1212 0.5790
C6 C 0.2332(4) 0.3330(10) 0.6845(4)
C7 C 0.2622(4) 0.7814(12) 0.8943(5)
H5 H 0.2210 0.8083 0.9345
H6 H 0.2685 0.9234 0.8587
H7 H 0.3202 0.7361 0.9375
C8 C 0.1472(4) 0.2230(11) 0.6778(4)
H8 H 0.1073 0.3123 0.7029
C9 C 0.1168(4) 0.0158(11) 0.6416(4)
H9 H 0.1555 -0.0816 0.6183
C10 C 0.0256(4) -0.0722(11) 0.6357(4)
C11 C -0.0717(4) -0.3939(12) 0.5860(4)
H10 H -0.0731 -0.5454 0.5543
H11 H -0.1197 -0.2973 0.5460
H12 H -0.0795 -0.4137 0.6525
loop_
_geom_bond_atom_site_label_1
_geom_bond_atom_site_label_2
_geom_bond_site_symmetry_1
_geom_bond_site_symmetry_2
Br1 C4 1_555 1_555
N1 H1 1_555 1_555
O1 C10 1_555 1_555
C1 N1 1_555 1_555
O2 C10 1_555 1_555
C2 C1 1_555 1_555
H2 C2 1_555 1_555
C3 C2 1_555 1_555
H3 C3 1_555 1_555
C4 C3 1_555 1_555
C5 C4 1_555 1_555
H4 C5 1_555 1_555
C6 C1 1_555 1_555
C7 N1 1_555 1_555
H5 C7 1_555 1_555
H6 C7 1_555 1_555
H7 C7 1_555 1_555
C8 C6 1_555 1_555
H8 C8 1_555 1_555
C9 C8 1_555 1_555
H9 C9 1_555 1_555
C10 C9 1_555 1_555
C11 O2 1_555 1_555
H10 C11 1_555 1_555
H11 C11 1_555 1_555
H12 C11 1_555 1_555
C5 C6 1_555 1_555

#END
