
#######################################################################
#
#                 Cambridge Crystallographic Data Centre
#                                CCDC 
#
#######################################################################
#
# If this CIF has been generated from an entry in the Cambridge 
# Structural Database, then it will include bibliographic, chemical, 
# crystal, experimental, refinement or atomic coordinate data resulting 
# from the CCDC's data processing and validation procedures.
#
#######################################################################

data_ICOPUN
_chemical_formula_moiety         'C13 H11 N1 O1 S1'
_chemical_name_systematic        N-Phenyl-2-sulfanylbenzamide
_symmetry_cell_setting           orthorhombic
_symmetry_space_group_name_H-M   'P 21 21 21'
_symmetry_Int_Tables_number      19
_space_group_name_Hall           'P 2ac 2ab'
loop_
_symmetry_equiv_pos_site_id
_symmetry_equiv_pos_as_xyz
1 x,y,z
2 1/2-x,-y,1/2+z
3 -x,1/2+y,1/2-z
4 1/2+x,1/2-y,-z
_cell_length_a                   9.6385(19)
_cell_length_b                   11.635(2)
_cell_length_c                   20.051(4)
_cell_angle_alpha                90
_cell_angle_beta                 90
_cell_angle_gamma                90
_cell_volume                     2248.6
_exptl_crystal_colour            colorless
_exptl_crystal_description       block
_cell_formula_units_Z            8
loop_
_atom_site_label
_atom_site_type_symbol
_atom_site_fract_x
_atom_site_fract_y
_atom_site_fract_z
S1 S 0.49341(4) 0.58676(4) 0.15311(2)
H1 H 0.4069 0.6589 0.1574
O1 O 0.73353(14) 0.43879(10) 0.13847(6)
N1 N 0.79392(16) 0.41919(12) 0.02978(7)
H3 H 0.7971 0.4537 -0.0092
C1 C 0.5894(2) 0.77919(16) 0.08816(9)
H5 H 0.5141 0.8185 0.1085
C2 C 0.6787(2) 0.83837(16) 0.04682(9)
H6 H 0.6650 0.9183 0.0396
C3 C 0.7883(2) 0.78273(16) 0.01570(9)
H7 H 0.8492 0.8239 -0.0129
C4 C 0.80776(19) 0.66660(16) 0.02675(8)
H8 H 0.8823 0.6280 0.0053
C5 C 0.71932(17) 0.60493(14) 0.06907(8)
C6 C 0.60870(17) 0.66196(15) 0.10045(8)
C7 C 0.74845(18) 0.48082(15) 0.08242(8)
C8 C 0.83718(18) 0.30227(15) 0.03289(9)
C9 C 0.7971(2) 0.22815(16) -0.01778(9)
H9 H 0.7374 0.2543 -0.0523
C10 C 0.8448(2) 0.11560(17) -0.01785(10)
H10 H 0.8183 0.0650 -0.0528
C11 C 0.9302(2) 0.07681(17) 0.03234(11)
H11 H 0.9627 -0.0003 0.0320
C12 C 0.9684(2) 0.15020(17) 0.08309(10)
H12 H 1.0261 0.1229 0.1181
C13 C 0.92345(19) 0.26348(16) 0.08363(9)
H13 H 0.9514 0.3140 0.1183
S2 S 1.03395(5) 0.39306(4) -0.11182(2)
H2 H 1.1158 0.3202 -0.1106
O2 O 0.77897(15) 0.52860(11) -0.10749(6)
N2 N 0.72677(15) 0.58213(12) -0.21367(7)
H4 H 0.7224 0.5572 -0.2551
C14 C 0.9421(2) 0.21599(16) -0.19169(9)
H14 H 1.0198 0.1743 -0.1756
C15 C 0.8540(2) 0.16571(16) -0.23766(10)
H15 H 0.8723 0.0901 -0.2532
C16 C 0.7394(2) 0.22490(16) -0.26120(10)
H16 H 0.6784 0.1897 -0.2923
C17 C 0.71443(19) 0.33567(17) -0.23919(9)
H17 H 0.6367 0.3768 -0.2559
C18 C 0.80234(17) 0.38788(15) -0.19261(8)
C19 C 0.91779(18) 0.32739(15) -0.16876(8)
C20 C 0.76912(18) 0.50542(15) -0.16708(8)
C21 C 0.68876(18) 0.69832(15) -0.20272(9)
C22 C 0.70272(19) 0.77408(16) -0.25580(9)
H18 H 0.7357 0.7466 -0.2975
C23 C 0.66904(19) 0.88952(16) -0.24869(9)
H19 H 0.6793 0.9405 -0.2854
C24 C 0.62061(19) 0.93035(16) -0.18829(10)
H20 H 0.5990 1.0095 -0.1830
C25 C 0.6039(2) 0.85438(17) -0.13550(10)
H21 H 0.5687 0.8820 -0.0943
C26 C 0.63747(19) 0.73913(16) -0.14174(9)
H22 H 0.6259 0.6883 -0.1051
loop_
_geom_bond_atom_site_label_1
_geom_bond_atom_site_label_2
_geom_bond_site_symmetry_1
_geom_bond_site_symmetry_2
S1 H1 1_555 1_555
S2 H2 1_555 1_555
O1 C7 1_555 1_555
O2 C20 1_555 1_555
N1 H3 1_555 1_555
N2 H4 1_555 1_555
C1 H5 1_555 1_555
C2 C1 1_555 1_555
H6 C2 1_555 1_555
C3 C2 1_555 1_555
H7 C3 1_555 1_555
C4 C3 1_555 1_555
H8 C4 1_555 1_555
C5 C4 1_555 1_555
C6 S1 1_555 1_555
C7 N1 1_555 1_555
C8 N1 1_555 1_555
C9 C8 1_555 1_555
H9 C9 1_555 1_555
C10 C9 1_555 1_555
H10 C10 1_555 1_555
C11 C10 1_555 1_555
H11 C11 1_555 1_555
C12 C11 1_555 1_555
H12 C12 1_555 1_555
C13 C8 1_555 1_555
H13 C13 1_555 1_555
C14 H14 1_555 1_555
C15 C14 1_555 1_555
H15 C15 1_555 1_555
C16 C15 1_555 1_555
H16 C16 1_555 1_555
C17 C16 1_555 1_555
H17 C17 1_555 1_555
C18 C17 1_555 1_555
C19 S2 1_555 1_555
C20 N2 1_555 1_555
C21 N2 1_555 1_555
C22 C21 1_555 1_555
H18 C22 1_555 1_555
C23 C22 1_555 1_555
H19 C23 1_555 1_555
C24 C23 1_555 1_555
H20 C24 1_555 1_555
C25 C24 1_555 1_555
H21 C25 1_555 1_555
C26 C21 1_555 1_555
H22 C26 1_555 1_555
C1 C6 1_555 1_555
C5 C6 1_555 1_555
C5 C7 1_555 1_555
C12 C13 1_555 1_555
C14 C19 1_555 1_555
C18 C19 1_555 1_555
C18 C20 1_555 1_555
C25 C26 1_555 1_555

#END
