
#######################################################################
#
#                 Cambridge Crystallographic Data Centre
#                                CCDC 
#
#######################################################################
#
# If this CIF has been generated from an entry in the Cambridge 
# Structural Database, then it will include bibliographic, chemical, 
# crystal, experimental, refinement or atomic coordinate data resulting 
# from the CCDC's data processing and validation procedures.
#
#######################################################################

data_ICOQAU
_chemical_formula_moiety         'C13 H9 N1 O1 S1'
_chemical_name_systematic        2-Phenyl-1,2-benzothiazol-3(2H)-one
_symmetry_cell_setting           monoclinic
_symmetry_space_group_name_H-M   'P 21/c'
_symmetry_Int_Tables_number      14
_space_group_name_Hall           '-P 2ybc'
loop_
_symmetry_equiv_pos_site_id
_symmetry_equiv_pos_as_xyz
1 x,y,z
2 -x,1/2+y,1/2-z
3 -x,-y,-z
4 x,1/2-y,1/2+z
_cell_length_a                   5.8793(12)
_cell_length_b                   14.397(3)
_cell_length_c                   12.316(3)
_cell_angle_alpha                90
_cell_angle_beta                 98.23(3)
_cell_angle_gamma                90
_cell_volume                     1031.74
_exptl_crystal_colour            colorless
_exptl_crystal_description       block
_cell_formula_units_Z            4
loop_
_atom_site_label
_atom_site_type_symbol
_atom_site_fract_x
_atom_site_fract_y
_atom_site_fract_z
S1 S 0.37418(8) 0.50697(3) 0.84567(4)
O1 O -0.1578(2) 0.66029(10) 0.82056(11)
N1 N 0.1930(3) 0.59304(11) 0.87821(13)
C1 C -0.0145(3) 0.60058(12) 0.81047(15)
C2 C -0.0255(3) 0.52746(13) 0.72686(15)
C3 C -0.2107(4) 0.50862(14) 0.64608(16)
H1 H -0.3458 0.5456 0.6398
C4 C -0.1950(4) 0.43554(15) 0.57540(17)
H2 H -0.3205 0.4216 0.5202
C5 C 0.0043(4) 0.38181(15) 0.58441(17)
H3 H 0.0122 0.3318 0.5348
C6 C 0.1903(4) 0.39947(14) 0.66347(17)
H4 H 0.3258 0.3628 0.6687
C7 C 0.1724(3) 0.47304(13) 0.73556(16)
C8 C 0.2579(3) 0.64741(12) 0.97480(14)
C9 C 0.4658(3) 0.69487(13) 0.98898(15)
H5 H 0.5646 0.6923 0.9344
C10 C 0.5268(3) 0.74598(14) 1.08382(16)
H6 H 0.6700 0.7777 1.0949
C11 C 0.3824(3) 0.75156(14) 1.16258(16)
H7 H 0.4245 0.7882 1.2265
C12 C 0.1754(3) 0.70350(15) 1.14823(16)
H8 H 0.0761 0.7068 1.2026
C13 C 0.1137(3) 0.65067(14) 1.05451(16)
H9 H -0.0266 0.6169 1.0450
loop_
_geom_bond_atom_site_label_1
_geom_bond_atom_site_label_2
_geom_bond_site_symmetry_1
_geom_bond_site_symmetry_2
S1 N1 1_555 1_555
O1 C1 1_555 1_555
N1 C1 1_555 1_555
C1 C2 1_555 1_555
C2 C3 1_555 1_555
C3 H1 1_555 1_555
C4 C3 1_555 1_555
H2 C4 1_555 1_555
C5 C4 1_555 1_555
H3 C5 1_555 1_555
C6 C5 1_555 1_555
H4 C6 1_555 1_555
C7 S1 1_555 1_555
C8 N1 1_555 1_555
C9 C8 1_555 1_555
H5 C9 1_555 1_555
C10 C9 1_555 1_555
H6 C10 1_555 1_555
C11 C10 1_555 1_555
H7 C11 1_555 1_555
C12 C11 1_555 1_555
H8 C12 1_555 1_555
C13 C8 1_555 1_555
H9 C13 1_555 1_555
C2 C7 1_555 1_555
C6 C7 1_555 1_555
C12 C13 1_555 1_555

#END
