
#######################################################################
#
#                 Cambridge Crystallographic Data Centre
#                                CCDC 
#
#######################################################################
#
# If this CIF has been generated from an entry in the Cambridge 
# Structural Database, then it will include bibliographic, chemical, 
# crystal, experimental, refinement or atomic coordinate data resulting 
# from the CCDC's data processing and validation procedures.
#
#######################################################################

data_ICUBOZ
_chemical_formula_moiety         'C39 H34 N2 O7,C1 H2 Cl2'
_chemical_name_systematic        
'6,9,12,18,21,24-Hexaoxa-38,41-diazaheptacyclo[27.8.4.2^2,5^.2^25,28^.1^13,17^.0^32,40^.0^35,39^]hexatetraconta-1(37),2,4,13(44),14,16,25,27,29,31,33,35,38,40,42,45-hexadecaene-15-carbaldehyde dichloromethane solvate'
_symmetry_cell_setting           triclinic
_symmetry_space_group_name_H-M   'P -1'
_symmetry_Int_Tables_number      2
_space_group_name_Hall           '-P 1'
loop_
_symmetry_equiv_pos_site_id
_symmetry_equiv_pos_as_xyz
1 x,y,z
2 -x,-y,-z
_cell_length_a                   11.3107(3)
_cell_length_b                   12.3575(4)
_cell_length_c                   13.5089(4)
_cell_angle_alpha                82.6430(10)
_cell_angle_beta                 73.2010(10)
_cell_angle_gamma                74.7660(10)
_cell_volume                     1741.29
_exptl_crystal_colour            brown
_exptl_crystal_description       prism
_cell_formula_units_Z            2
loop_
_atom_site_label
_atom_site_type_symbol
_atom_site_fract_x
_atom_site_fract_y
_atom_site_fract_z
C1 C 0.05786(14) 1.24602(12) 0.89252(11)
C2 C -0.01486(15) 1.33011(14) 0.96332(12)
H1 H -0.0477 1.4042 0.9387
C3 C -0.03692(15) 1.30290(14) 1.06735(12)
H2 H -0.0857 1.3583 1.1154
C4 C 0.01225(14) 1.19347(14) 1.10334(11)
C5 C -0.01146(16) 1.15836(15) 1.21110(12)
H3 H -0.0620 1.2109 1.2613
C6 C 0.03685(17) 1.05179(16) 1.24252(12)
H4 H 0.0193 1.0302 1.3144
C7 C 0.11411(15) 0.97110(14) 1.16862(11)
C8 C 0.16504(17) 0.85892(15) 1.19790(12)
H5 H 0.1500 0.8346 1.2691
C9 C 0.23620(17) 0.78515(15) 1.12361(12)
H6 H 0.2702 0.7091 1.1426
C10 C 0.25865(14) 0.82345(13) 1.01811(11)
C11 C 0.13929(14) 1.00175(13) 1.06155(11)
C12 C 0.08592(13) 1.11585(13) 1.02777(11)
C13 C 0.07854(13) 1.26720(12) 0.77898(11)
C14 C 0.13945(16) 1.17782(13) 0.71423(12)
H7 H 0.1727 1.1062 0.7436
C15 C 0.15253(16) 1.19094(13) 0.60830(12)
H8 H 0.1941 1.1289 0.5660
C16 C 0.10448(14) 1.29526(12) 0.56439(11)
C17 C 0.04775(13) 1.38651(12) 0.62698(11)
H9 H 0.0180 1.4587 0.5969
C18 C 0.03460(13) 1.37229(12) 0.73285(11)
H10 H -0.0049 1.4349 0.7747
C19 C 0.14689(15) 1.22536(13) 0.39543(12)
H11 H 0.1044 1.2450 0.3388
H12 H 0.1212 1.1586 0.4356
C20 C 0.28892(15) 1.19791(12) 0.35010(11)
H13 H 0.3156 1.2640 0.3093
H14 H 0.3324 1.1770 0.4061
C21 C 0.45104(15) 1.09031(12) 0.22650(12)
H15 H 0.5059 1.0761 0.2744
H16 H 0.4633 1.1597 0.1835
C22 C 0.49073(17) 0.99366(13) 0.15762(12)
H17 H 0.4255 0.9980 0.1208
H18 H 0.5721 0.9964 0.1054
C23 C 0.57666(14) 0.79545(12) 0.17343(12)
C24 C 0.60528(14) 0.70366(12) 0.24157(12)
H19 H 0.5739 0.7110 0.3142
C25 C 0.67969(14) 0.60166(12) 0.20287(12)
C26 C 0.72358(14) 0.59015(13) 0.09623(12)
H20 H 0.7722 0.5198 0.0695
C27 C 0.69554(14) 0.68242(13) 0.02975(12)
C28 C 0.62162(15) 0.78605(13) 0.06731(12)
H21 H 0.6026 0.8487 0.0210
C29 C 0.74790(16) 0.67494(15) -0.08378(13)
H22 H 0.7328 0.7423 -0.1257
C30 C 0.67045(14) 0.51823(12) 0.37377(12)
H23 H 0.5765 0.5331 0.3954
H24 H 0.6963 0.5800 0.3956
C31 C 0.72848(16) 0.40643(13) 0.42140(12)
H25 H 0.7111 0.3447 0.3921
H26 H 0.8218 0.3960 0.4049
C32 C 0.74710(15) 0.44218(14) 0.58390(13)
H27 H 0.7743 0.5092 0.5455
H28 H 0.8242 0.3830 0.5880
C33 C 0.66706(16) 0.47156(13) 0.69071(13)
H29 H 0.6318 0.4075 0.7270
H30 H 0.7188 0.4899 0.7313
C34 C 0.49212(15) 0.61983(12) 0.76748(12)
C35 C 0.39709(15) 0.71280(13) 0.75200(12)
H31 H 0.3853 0.7326 0.6846
C36 C 0.32014(14) 0.77622(13) 0.83347(12)
H32 H 0.2554 0.8392 0.8218
C37 C 0.33619(14) 0.74889(12) 0.93384(11)
C38 C 0.43050(15) 0.65520(13) 0.94820(12)
H33 H 0.4420 0.6349 1.0156
C39 C 0.50861(16) 0.59024(12) 0.86638(12)
H34 H 0.5725 0.5264 0.8779
N1 N 0.10745(12) 1.14248(11) 0.92482(9)
N2 N 0.21149(12) 0.92910(11) 0.98825(9)
O1 O 0.10696(11) 1.31764(9) 0.46180(8)
O2 O 0.32169(10) 1.10653(8) 0.28514(8)
O3 O 0.50526(12) 0.89164(9) 0.22068(9)
O4 O 0.80824(13) 0.59025(12) -0.12742(10)
O5 O 0.71709(11) 0.50969(9) 0.26388(9)
O6 O 0.67597(11) 0.40320(9) 0.53079(9)
O7 O 0.56679(11) 0.56635(9) 0.68025(9)
C40 C 0.30543(18) 0.86701(15) 0.42590(14)
H35 H 0.3421 0.7877 0.4080
H36 H 0.3131 0.9143 0.3605
Cl1 Cl 0.39234(8) 0.90378(6) 0.49939(6)
Cl2 Cl 0.14368(5) 0.88396(5) 0.49215(4)
loop_
_geom_bond_atom_site_label_1
_geom_bond_atom_site_label_2
_geom_bond_site_symmetry_1
_geom_bond_site_symmetry_2
C1 C2 1_555 1_555
C2 H1 1_555 1_555
C3 C2 1_555 1_555
H2 C3 1_555 1_555
C4 C3 1_555 1_555
C5 C4 1_555 1_555
H3 C5 1_555 1_555
C6 C5 1_555 1_555
H4 C6 1_555 1_555
C7 C6 1_555 1_555
C8 C7 1_555 1_555
H5 C8 1_555 1_555
C9 C8 1_555 1_555
H6 C9 1_555 1_555
C10 C9 1_555 1_555
C11 C7 1_555 1_555
C12 C4 1_555 1_555
C13 C1 1_555 1_555
C14 C13 1_555 1_555
H7 C14 1_555 1_555
C15 C14 1_555 1_555
H8 C15 1_555 1_555
C16 C15 1_555 1_555
C17 C16 1_555 1_555
H9 C17 1_555 1_555
C18 C13 1_555 1_555
H10 C18 1_555 1_555
C19 H11 1_555 1_555
H12 C19 1_555 1_555
C20 C19 1_555 1_555
H13 C20 1_555 1_555
H14 C20 1_555 1_555
C21 H15 1_555 1_555
H16 C21 1_555 1_555
C22 C21 1_555 1_555
H17 C22 1_555 1_555
H18 C22 1_555 1_555
C23 C24 1_555 1_555
C24 H19 1_555 1_555
C25 C24 1_555 1_555
C26 C25 1_555 1_555
H20 C26 1_555 1_555
C27 C26 1_555 1_555
C28 C23 1_555 1_555
H21 C28 1_555 1_555
C29 C27 1_555 1_555
H22 C29 1_555 1_555
C30 H23 1_555 1_555
H24 C30 1_555 1_555
C31 C30 1_555 1_555
H25 C31 1_555 1_555
H26 C31 1_555 1_555
C32 H27 1_555 1_555
H28 C32 1_555 1_555
C33 C32 1_555 1_555
H29 C33 1_555 1_555
H30 C33 1_555 1_555
C34 C35 1_555 1_555
C35 H31 1_555 1_555
C36 C35 1_555 1_555
H32 C36 1_555 1_555
C37 C10 1_555 1_555
C38 C37 1_555 1_555
H33 C38 1_555 1_555
C39 C34 1_555 1_555
H34 C39 1_555 1_555
C40 H35 1_555 1_555
H36 C40 1_555 1_555
N1 C1 1_555 1_555
N2 C10 1_555 1_555
O1 C16 1_555 1_555
O2 C20 1_555 1_555
O3 C22 1_555 1_555
O4 C29 1_555 1_555
O5 C25 1_555 1_555
O6 C31 1_555 1_555
O7 C33 1_555 1_555
Cl1 C40 1_555 1_555
Cl2 C40 1_555 1_555
C11 C12 1_555 1_555
C11 N2 1_555 1_555
C12 N1 1_555 1_555
C17 C18 1_555 1_555
C19 O1 1_555 1_555
C21 O2 1_555 1_555
C23 O3 1_555 1_555
C27 C28 1_555 1_555
C30 O5 1_555 1_555
C32 O6 1_555 1_555
C34 O7 1_555 1_555
C36 C37 1_555 1_555
C38 C39 1_555 1_555

#END
