
#######################################################################
#
#                 Cambridge Crystallographic Data Centre
#                                CCDC 
#
#######################################################################
#
# If this CIF has been generated from an entry in the Cambridge 
# Structural Database, then it will include bibliographic, chemical, 
# crystal, experimental, refinement or atomic coordinate data resulting 
# from the CCDC's data processing and validation procedures.
#
#######################################################################

data_ICUSAA
_chemical_formula_moiety         'C11 H10 N2 O2'
_chemical_name_systematic        1-(7-Azaindol-1-yl)butane-1,3-dione
_symmetry_cell_setting           monoclinic
_symmetry_space_group_name_H-M   'P 21/c'
_symmetry_Int_Tables_number      14
_space_group_name_Hall           '-P 2ybc'
loop_
_symmetry_equiv_pos_site_id
_symmetry_equiv_pos_as_xyz
1 x,y,z
2 x,1/2-y,1/2+z
3 -x,-y,-z
4 -x,1/2+y,1/2-z
_cell_length_a                   7.6053(14)
_cell_length_b                   13.267(3)
_cell_length_c                   10.049(2)
_cell_angle_alpha                90.00
_cell_angle_beta                 93.331(4)
_cell_angle_gamma                90.00
_cell_volume                     1012.23
_exptl_crystal_colour            colorless
_chemical_melting_point          '77-79 deg.C'
_cell_formula_units_Z            4
loop_
_atom_site_label
_atom_site_type_symbol
_atom_site_fract_x
_atom_site_fract_y
_atom_site_fract_z
N1 N 0.48501(12) 0.61901(7) 0.10738(10)
N2 N 0.78233(12) 0.55302(8) 0.09737(10)
O1 O 0.32568(13) 0.72988(8) -0.01996(12)
O2 O 0.72947(12) 0.81265(7) 0.08289(10)
C1 C 0.3500(2) 0.60173(11) 0.19406(17)
C2 C 0.4015(2) 0.53469(12) 0.28735(17)
C3 C 0.57784(19) 0.50556(9) 0.26517(13)
C4 C 0.7023(3) 0.44045(11) 0.32586(16)
C5 C 0.8623(3) 0.43352(12) 0.27228(16)
C6 C 0.8973(2) 0.48924(10) 0.15990(15)
C7 C 0.62825(15) 0.55846(8) 0.15263(11)
C8 C 0.46461(16) 0.68600(9) -0.00093(14)
C9 C 0.61608(17) 0.70140(10) -0.08594(13)
C10 C 0.75237(15) 0.77264(8) -0.02322(12)
C11 C 0.9113(2) 0.79059(14) -0.09867(18)
H1 H 0.2410(19) 0.6386(10) 0.1793(13)
H2 H 0.331(2) 0.5092(12) 0.3545(17)
H3 H 0.668(2) 0.4020(12) 0.4016(16)
H4 H 0.954(2) 0.3933(14) 0.3120(19)
H5 H 1.012(2) 0.4864(10) 0.1199(14)
H6 H 0.569(2) 0.7296(11) -0.1721(15)
H7 H 0.6762(16) 0.6401(10) -0.1063(12)
H8 H 0.998(3) 0.7427(16) -0.077(2)
H9 H 0.971(3) 0.8526(16) -0.0713(19)
H10 H 0.891(3) 0.7818(15) -0.192(2)
loop_
_geom_bond_atom_site_label_1
_geom_bond_atom_site_label_2
_geom_bond_site_symmetry_1
_geom_bond_site_symmetry_2
N1 C1 1_555 1_555
N2 C6 1_555 1_555
O1 C8 1_555 1_555
O2 C10 1_555 1_555
C1 C2 1_555 1_555
C2 C3 1_555 1_555
C3 C4 1_555 1_555
C4 C5 1_555 1_555
C5 C6 1_555 1_555
C6 H5 1_555 1_555
C7 N1 1_555 1_555
C8 N1 1_555 1_555
C9 C8 1_555 1_555
C10 C9 1_555 1_555
C11 C10 1_555 1_555
H1 C1 1_555 1_555
H2 C2 1_555 1_555
H3 C4 1_555 1_555
H4 C5 1_555 1_555
H6 C9 1_555 1_555
H7 C9 1_555 1_555
H8 C11 1_555 1_555
H9 C11 1_555 1_555
H10 C11 1_555 1_555
N2 C7 1_555 1_555
C3 C7 1_555 1_555

#END
