
#######################################################################
#
#                 Cambridge Crystallographic Data Centre
#                                CCDC 
#
#######################################################################
#
# If this CIF has been generated from an entry in the Cambridge 
# Structural Database, then it will include bibliographic, chemical, 
# crystal, experimental, refinement or atomic coordinate data resulting 
# from the CCDC's data processing and validation procedures.
#
#######################################################################

data_IDADAU
_chemical_formula_moiety         'C41 H61 O1 P1'
_chemical_name_systematic        
Di-t-butyl(4''-butyl-2',4',6'-triisopropyl-3-methoxy-6-methyl-1,1':3',1''-terphenyl-2-yl)phosphine
_symmetry_cell_setting           triclinic
_symmetry_space_group_name_H-M   'P -1'
_symmetry_Int_Tables_number      2
_space_group_name_Hall           '-P 1'
loop_
_symmetry_equiv_pos_site_id
_symmetry_equiv_pos_as_xyz
1 x,y,z
2 -x,-y,-z
_cell_length_a                   10.633(4)
_cell_length_b                   11.053(4)
_cell_length_c                   16.941(6)
_cell_angle_alpha                107.083(7)
_cell_angle_beta                 102.721(8)
_cell_angle_gamma                96.416(10)
_cell_volume                     1822.92
_exptl_crystal_colour            colorless
_exptl_crystal_description       block
_cell_formula_units_Z            2
loop_
_atom_site_label
_atom_site_type_symbol
_atom_site_fract_x
_atom_site_fract_y
_atom_site_fract_z
P1 P 0.87664(4) 0.80132(3) 0.64648(2)
C1 C 0.75178(15) 0.90678(13) 0.63108(8)
C2 C 0.63982(15) 0.86312(15) 0.54860(9)
H1 H 0.5823 0.9268 0.5515
H2 H 0.5891 0.7794 0.5421
H3 H 0.6764 0.8552 0.4994
C3 C 0.82674(18) 1.04053(14) 0.64382(10)
H4 H 0.7673 1.1024 0.6493
H5 H 0.8614 1.0374 0.5944
H6 H 0.8996 1.0675 0.6959
C4 C 0.69065(17) 0.91945(16) 0.70576(9)
H7 H 0.7603 0.9415 0.7591
H8 H 0.6340 0.8375 0.6965
H9 H 0.6383 0.9875 0.7097
C5 C 0.97128(14) 0.79018(14) 0.56186(9)
C6 C 1.01349(16) 0.65978(15) 0.53898(10)
H10 H 0.9363 0.5919 0.5066
H11 H 1.0557 0.6439 0.5916
H12 H 1.0756 0.6597 0.5040
C7 C 1.09546(16) 0.89473(16) 0.60850(11)
H13 H 1.1433 0.8770 0.6591
H14 H 1.0704 0.9793 0.6263
H15 H 1.1518 0.8945 0.5698
C8 C 0.90796(16) 0.81225(15) 0.47784(9)
H16 H 0.9696 0.8048 0.4421
H17 H 0.8862 0.8985 0.4906
H18 H 0.8277 0.7475 0.4472
C9 C 0.78456(13) 0.63716(12) 0.62593(8)
C10 C 0.71342(13) 0.55274(13) 0.54404(8)
O1 O 0.69888(10) 0.60373(10) 0.47922(6)
C11 C 0.63054(16) 0.52182(15) 0.39508(8)
H19 H 0.6755 0.4496 0.3780
H20 H 0.6284 0.5707 0.3551
H21 H 0.5405 0.4887 0.3940
C12 C 0.66286(14) 0.42516(13) 0.52966(8)
H22 H 0.6143 0.3707 0.4739
C13 C 0.68394(14) 0.37802(13) 0.59745(9)
H23 H 0.6519 0.2896 0.5873
C14 C 0.75080(13) 0.45637(13) 0.68018(8)
C15 C 0.77390(16) 0.39400(14) 0.74922(9)
H24 H 0.6936 0.3349 0.7428
H25 H 0.7977 0.4608 0.8057
H26 H 0.8454 0.3459 0.7439
C16 C 0.79978(13) 0.58711(12) 0.69507(8)
C17 C 0.86327(13) 0.66577(12) 0.78817(8)
C18 C 0.78120(13) 0.70726(12) 0.84080(8)
C19 C 0.63374(13) 0.69513(13) 0.80734(8)
H27 H 0.6131 0.6796 0.7443
C20 C 0.55661(15) 0.58214(14) 0.82169(9)
H28 H 0.5764 0.5012 0.7884
H29 H 0.4624 0.5814 0.8032
H30 H 0.5815 0.5913 0.8827
C21 C 0.58675(14) 0.81837(14) 0.84898(9)
H31 H 0.5836 0.8231 0.9072
H32 H 0.4989 0.8173 0.8150
H33 H 0.6477 0.8936 0.8514
C22 C 0.83623(13) 0.75894(13) 0.92893(8)
H34 H 0.7808 0.7888 0.9645
C23 C 0.96789(13) 0.76897(12) 0.96726(8)
C24 C 1.01678(14) 0.81994(13) 1.06461(8)
H35 H 1.1149 0.8403 1.0803
C25 C 0.96891(15) 0.94261(13) 1.10427(8)
H36 H 0.9946 1.0081 1.0795
H37 H 1.0083 0.9747 1.1663
H38 H 0.8731 0.9240 1.0925
C26 C 0.97621(17) 0.71567(14) 1.10124(9)
H39 H 0.8803 0.6913 1.0846
H40 H 1.0083 0.7487 1.1639
H41 H 1.0140 0.6400 1.0788
C27 C 1.04990(13) 0.72729(12) 0.91459(8)
C28 C 1.19092(13) 0.73552(13) 0.95765(8)
C29 C 1.28084(14) 0.85068(13) 0.98682(8)
H42 H 1.2528 0.9257 0.9785
C30 C 1.41065(14) 0.85794(13) 1.02783(8)
H43 H 1.4701 0.9379 1.0470
C31 C 1.45555(14) 0.75105(14) 1.04149(8)
C32 C 1.59718(15) 0.75961(16) 1.08644(9)
H44 H 1.6496 0.8403 1.0875
H45 H 1.6304 0.6866 1.0531
C33 C 1.61805(17) 0.75739(17) 1.17776(10)
H46 H 1.5676 0.6757 1.1766
H47 H 1.7122 0.7591 1.2018
C34 C 1.5769(2) 0.8682(2) 1.23534(10)
H48 H 1.4832 0.8675 1.2109
H49 H 1.6285 0.9499 1.2375
C35 C 1.5959(2) 0.8635(2) 1.32560(11)
H50 H 1.5385 0.7869 1.3245
H51 H 1.5740 0.9410 1.3615
H52 H 1.6877 0.8596 1.3491
C36 C 1.36535(15) 0.63709(14) 1.01470(10)
H53 H 1.3932 0.5628 1.0245
C37 C 1.23494(14) 0.62932(14) 0.97373(9)
H54 H 1.1749 0.5501 0.9564
C38 C 0.99856(13) 0.67668(12) 0.82474(8)
C39 C 1.08307(14) 0.63333(14) 0.76388(8)
H55 H 1.0273 0.6231 0.7056
C40 C 1.20469(15) 0.73300(15) 0.77865(10)
H56 H 1.1818 0.8188 0.7900
H57 H 1.2377 0.7122 0.7275
H58 H 1.2727 0.7320 0.8279
C41 C 1.11958(18) 0.50171(16) 0.75768(11)
H59 H 1.1846 0.5085 0.8105
H60 H 1.1567 0.4728 0.7088
H61 H 1.0409 0.4394 0.7498
loop_
_geom_bond_atom_site_label_1
_geom_bond_atom_site_label_2
_geom_bond_site_symmetry_1
_geom_bond_site_symmetry_2
P1 C1 1_555 1_555
C1 C2 1_555 1_555
C2 H1 1_555 1_555
H2 C2 1_555 1_555
H3 C2 1_555 1_555
C3 C1 1_555 1_555
H4 C3 1_555 1_555
H5 C3 1_555 1_555
H6 C3 1_555 1_555
C4 C1 1_555 1_555
H7 C4 1_555 1_555
H8 C4 1_555 1_555
H9 C4 1_555 1_555
C5 P1 1_555 1_555
C6 C5 1_555 1_555
H10 C6 1_555 1_555
H11 C6 1_555 1_555
H12 C6 1_555 1_555
C7 C5 1_555 1_555
H13 C7 1_555 1_555
H14 C7 1_555 1_555
H15 C7 1_555 1_555
C8 C5 1_555 1_555
H16 C8 1_555 1_555
H17 C8 1_555 1_555
H18 C8 1_555 1_555
C9 P1 1_555 1_555
C10 C9 1_555 1_555
O1 C10 1_555 1_555
C11 O1 1_555 1_555
H19 C11 1_555 1_555
H20 C11 1_555 1_555
H21 C11 1_555 1_555
C12 C10 1_555 1_555
H22 C12 1_555 1_555
C13 C12 1_555 1_555
H23 C13 1_555 1_555
C14 C13 1_555 1_555
C15 C14 1_555 1_555
H24 C15 1_555 1_555
H25 C15 1_555 1_555
H26 C15 1_555 1_555
C16 C9 1_555 1_555
C17 C16 1_555 1_555
C18 C17 1_555 1_555
C19 C18 1_555 1_555
H27 C19 1_555 1_555
C20 C19 1_555 1_555
H28 C20 1_555 1_555
H29 C20 1_555 1_555
H30 C20 1_555 1_555
C21 C19 1_555 1_555
H31 C21 1_555 1_555
H32 C21 1_555 1_555
H33 C21 1_555 1_555
C22 C18 1_555 1_555
H34 C22 1_555 1_555
C23 C22 1_555 1_555
C24 C23 1_555 1_555
H35 C24 1_555 1_555
C25 C24 1_555 1_555
H36 C25 1_555 1_555
H37 C25 1_555 1_555
H38 C25 1_555 1_555
C26 C24 1_555 1_555
H39 C26 1_555 1_555
H40 C26 1_555 1_555
H41 C26 1_555 1_555
C27 C23 1_555 1_555
C28 C27 1_555 1_555
C29 C28 1_555 1_555
H42 C29 1_555 1_555
C30 C29 1_555 1_555
H43 C30 1_555 1_555
C31 C30 1_555 1_555
C32 C31 1_555 1_555
H44 C32 1_555 1_555
H45 C32 1_555 1_555
C33 C32 1_555 1_555
H46 C33 1_555 1_555
H47 C33 1_555 1_555
C34 C33 1_555 1_555
H48 C34 1_555 1_555
H49 C34 1_555 1_555
C35 C34 1_555 1_555
H50 C35 1_555 1_555
H51 C35 1_555 1_555
H52 C35 1_555 1_555
C36 C31 1_555 1_555
H53 C36 1_555 1_555
C37 C28 1_555 1_555
H54 C37 1_555 1_555
C38 C17 1_555 1_555
C39 C38 1_555 1_555
H55 C39 1_555 1_555
C40 C39 1_555 1_555
H56 C40 1_555 1_555
H57 C40 1_555 1_555
H58 C40 1_555 1_555
C41 C39 1_555 1_555
H59 C41 1_555 1_555
H60 C41 1_555 1_555
H61 C41 1_555 1_555
C14 C16 1_555 1_555
C27 C38 1_555 1_555
C36 C37 1_555 1_555

#END
