
#######################################################################
#
#                 Cambridge Crystallographic Data Centre
#                                CCDC 
#
#######################################################################
#
# If this CIF has been generated from an entry in the Cambridge 
# Structural Database, then it will include bibliographic, chemical, 
# crystal, experimental, refinement or atomic coordinate data resulting 
# from the CCDC's data processing and validation procedures.
#
#######################################################################

data_IDANAF
_chemical_formula_moiety         'C16 H11 F1 O3'
_chemical_name_systematic        
7-(4-fluorophenyl)-6,7-dihydro-5H-indeno[5,6-d][1,3]dioxol-5-one
_symmetry_cell_setting           monoclinic
_symmetry_space_group_name_H-M   'C 2'
_symmetry_Int_Tables_number      5
_space_group_name_Hall           'C 2y'
loop_
_symmetry_equiv_pos_site_id
_symmetry_equiv_pos_as_xyz
1 x,y,z
2 -x,y,-z
3 1/2+x,1/2+y,z
4 1/2-x,1/2+y,-z
_cell_length_a                   15.6876(2)
_cell_length_b                   8.8498(2)
_cell_length_c                   9.5195(2)
_cell_angle_alpha                90
_cell_angle_beta                 106.6850(10)
_cell_angle_gamma                90
_cell_volume                     1265.97
_exptl_crystal_colour            colorless
_exptl_crystal_description       block
_cell_formula_units_Z            4
loop_
_atom_site_label
_atom_site_type_symbol
_atom_site_fract_x
_atom_site_fract_y
_atom_site_fract_z
F1 F 0.66315(11) 0.7346(3) 0.8102(3)
O1 O 0.11509(12) 0.8169(3) 0.72541(18)
O2 O 0.07390(11) 0.8927(2) 0.14016(16)
O3 O 0.20668(11) 1.0039(2) 0.13855(17)
C1 C 0.31962(14) 0.9837(3) 0.6899(2)
H1 H 0.3245 1.0924 0.7103
C2 C 0.26761(15) 0.9107(3) 0.7883(2)
H2 H 0.2986 0.8218 0.8370
H3 H 0.2614 0.9818 0.8623
C3 C 0.17684(14) 0.8678(3) 0.6874(2)
C4 C 0.17797(13) 0.8968(2) 0.5362(2)
C5 C 0.10907(14) 0.8670(3) 0.4078(2)
H4 H 0.0553 0.8236 0.4089
C6 C 0.12765(14) 0.9070(3) 0.2812(2)
C7 C 0.20846(14) 0.9721(3) 0.2798(2)
C8 C 0.27643(14) 1.0004(3) 0.4051(2)
H5 H 0.3303 1.0429 0.4029
C9 C 0.25850(14) 0.9606(2) 0.5359(2)
C10 C 0.1218(2) 0.9574(5) 0.0499(3)
H6 H 0.0895 1.0436 -0.0023
H7 H 0.1285 0.8838 -0.0217
C11 C 0.41264(13) 0.9200(3) 0.7155(2)
C12 C 0.48645(16) 1.0012(3) 0.7941(3)
H8 H 0.4790 1.0981 0.8266
C13 C 0.57163(16) 0.9399(4) 0.8251(3)
H9 H 0.6212 0.9948 0.8772
C14 C 0.58033(16) 0.7981(4) 0.7774(3)
C15 C 0.51011(18) 0.7141(3) 0.6969(3)
H10 H 0.5187 0.6177 0.6644
C16 C 0.42576(16) 0.7770(3) 0.6651(3)
H11 H 0.3771 0.7225 0.6091
loop_
_geom_bond_atom_site_label_1
_geom_bond_atom_site_label_2
_geom_bond_site_symmetry_1
_geom_bond_site_symmetry_2
F1 C14 1_555 1_555
O1 C3 1_555 1_555
O2 C6 1_555 1_555
O3 C7 1_555 1_555
C1 H1 1_555 1_555
C2 C1 1_555 1_555
H2 C2 1_555 1_555
H3 C2 1_555 1_555
C3 C2 1_555 1_555
C4 C3 1_555 1_555
C5 C4 1_555 1_555
H4 C5 1_555 1_555
C6 C5 1_555 1_555
C7 C6 1_555 1_555
C8 C7 1_555 1_555
H5 C8 1_555 1_555
C9 C1 1_555 1_555
C10 O2 1_555 1_555
H6 C10 1_555 1_555
H7 C10 1_555 1_555
C11 C1 1_555 1_555
C12 C11 1_555 1_555
H8 C12 1_555 1_555
C13 C12 1_555 1_555
H9 C13 1_555 1_555
C14 C13 1_555 1_555
C15 C14 1_555 1_555
H10 C15 1_555 1_555
C16 C11 1_555 1_555
H11 C16 1_555 1_555
O3 C10 1_555 1_555
C4 C9 1_555 1_555
C8 C9 1_555 1_555
C15 C16 1_555 1_555

#END
