
#######################################################################
#
#                 Cambridge Crystallographic Data Centre
#                                CCDC 
#
#######################################################################
#
# If this CIF has been generated from an entry in the Cambridge 
# Structural Database, then it will include bibliographic, chemical, 
# crystal, experimental, refinement or atomic coordinate data resulting 
# from the CCDC's data processing and validation procedures.
#
#######################################################################

data_IDAZIX
_chemical_formula_moiety         'C17 H11 Cl2 N3 O1 S2'
_chemical_name_systematic        
3-(5-(2,4-Dichlorophenyl)-1,3,4-thiadiazol-2-yl)-2-phenylthiazolidin-4-one
_symmetry_cell_setting           monoclinic
_symmetry_space_group_name_H-M   'P 21/n'
_symmetry_Int_Tables_number      14
_space_group_name_Hall           '-P 2yn'
loop_
_symmetry_equiv_pos_site_id
_symmetry_equiv_pos_as_xyz
1 x,y,z
2 1/2-x,1/2+y,1/2-z
3 -x,-y,-z
4 1/2+x,1/2-y,1/2+z
_cell_length_a                   7.9700(16)
_cell_length_b                   6.1550(12)
_cell_length_c                   34.738(7)
_cell_angle_alpha                90
_cell_angle_beta                 90.20(3)
_cell_angle_gamma                90
_cell_volume                     1704.07
_exptl_crystal_colour            colorless
_exptl_crystal_description       block
_chemical_melting_point          '472-473 K'
_cell_formula_units_Z            4
_exptl_crystal_recrystallization_method acetone
loop_
_atom_site_label
_atom_site_type_symbol
_atom_site_fract_x
_atom_site_fract_y
_atom_site_fract_z
O1 O 0.3605(7) 0.4230(9) 0.19007(15)
Cl1 Cl 0.1548(3) 0.3606(5) -0.08894(7)
Cl2 Cl 0.1457(3) 0.2053(4) 0.06131(7)
S1 S 0.3403(2) 0.5065(3) 0.11287(5)
S2 S 0.5001(3) 0.9508(4) 0.23855(6)
N1 N 0.4269(8) 0.8344(12) 0.07277(18)
C1 C 0.2092(10) 0.4452(18) -0.0427(2)
N2 N 0.4706(7) 0.8869(11) 0.11012(17)
C2 C 0.2930(11) 0.6401(19) -0.0374(2)
H1 H 0.3203 0.7279 -0.0582
N3 N 0.4646(6) 0.7511(10) 0.17295(16)
C3 C 0.3346(10) 0.6999(17) -0.0005(2)
H2 H 0.3895 0.8314 0.0034
C4 C 0.2976(9) 0.5706(15) 0.0315(2)
C5 C 0.2106(9) 0.3787(14) 0.0247(2)
C6 C 0.1672(10) 0.3153(16) -0.0129(2)
H3 H 0.1103 0.1856 -0.0172
C7 C 0.3538(8) 0.6469(14) 0.0697(2)
C8 C 0.4350(7) 0.7293(12) 0.1337(2)
C9 C 0.4250(9) 0.5957(12) 0.1988(2)
C10 C 0.4618(11) 0.6641(14) 0.2396(2)
H4 H 0.5595 0.5877 0.2494
H5 H 0.3671 0.6316 0.2561
C11 C 0.5413(7) 0.9559(12) 0.1866(2)
H6 H 0.4820 1.0792 0.1750
C12 C 0.7260(7) 0.9722(12) 0.17733(18)
C13 C 0.7848(9) 1.1668(13) 0.1633(2)
H7 H 0.7109 1.2815 0.1593
C14 C 0.9560(9) 1.1930(14) 0.1552(2)
H8 H 0.9965 1.3244 0.1458
C15 C 1.0606(8) 1.0238(14) 0.1611(2)
H9 H 1.1741 1.0401 0.1557
C16 C 1.0051(9) 0.8323(14) 0.1747(2)
H10 H 1.0804 0.7187 0.1785
C17 C 0.8367(8) 0.8028(12) 0.1832(2)
H11 H 0.7989 0.6705 0.1928
loop_
_geom_bond_atom_site_label_1
_geom_bond_atom_site_label_2
_geom_bond_site_symmetry_1
_geom_bond_site_symmetry_2
O1 C9 1_555 1_555
Cl1 C1 1_555 1_555
Cl2 C5 1_555 1_555
S1 C7 1_555 1_555
S2 C10 1_555 1_555
N1 N2 1_555 1_555
C1 C2 1_555 1_555
N2 C8 1_555 1_555
C2 H1 1_555 1_555
N3 C8 1_555 1_555
C3 C2 1_555 1_555
H2 C3 1_555 1_555
C4 C3 1_555 1_555
C5 C4 1_555 1_555
C6 C1 1_555 1_555
H3 C6 1_555 1_555
C7 N1 1_555 1_555
C8 S1 1_555 1_555
C9 N3 1_555 1_555
C10 C9 1_555 1_555
H4 C10 1_555 1_555
H5 C10 1_555 1_555
C11 S2 1_555 1_555
H6 C11 1_555 1_555
C12 C11 1_555 1_555
C13 C12 1_555 1_555
H7 C13 1_555 1_555
C14 C13 1_555 1_555
H8 C14 1_555 1_555
C15 C14 1_555 1_555
H9 C15 1_555 1_555
C16 C15 1_555 1_555
H10 C16 1_555 1_555
C17 C12 1_555 1_555
H11 C17 1_555 1_555
N3 C11 1_555 1_555
C4 C7 1_555 1_555
C5 C6 1_555 1_555
C16 C17 1_555 1_555

#END
