
#######################################################################
#
#                 Cambridge Crystallographic Data Centre
#                                CCDC 
#
#######################################################################
#
# If this CIF has been generated from an entry in the Cambridge 
# Structural Database, then it will include bibliographic, chemical, 
# crystal, experimental, refinement or atomic coordinate data resulting 
# from the CCDC's data processing and validation procedures.
#
#######################################################################

data_IDIPIX
_chemical_formula_moiety         'C23 H19 N3 O4'
_chemical_name_systematic        
3-benzyl-4,5-didehydro-6,7,16,17-tetrahydro-3H-[2,11]benzodioxacyclotetradecino[5,6-d][1,2,3]triazole-9,14-dione
_symmetry_cell_setting           triclinic
_symmetry_space_group_name_H-M   'P -1'
_symmetry_Int_Tables_number      2
_space_group_name_Hall           '-P 1'
loop_
_symmetry_equiv_pos_site_id
_symmetry_equiv_pos_as_xyz
1 x,y,z
2 -x,-y,-z
_cell_length_a                   11.9206(3)
_cell_length_b                   13.3500(4)
_cell_length_c                   13.6018(4)
_cell_angle_alpha                70.5806(13)
_cell_angle_beta                 79.2108(11)
_cell_angle_gamma                75.9619(12)
_cell_volume                     1967
_exptl_crystal_colour            colorless
_exptl_crystal_description       block
_cell_formula_units_Z            4
loop_
_atom_site_label
_atom_site_type_symbol
_atom_site_fract_x
_atom_site_fract_y
_atom_site_fract_z
C1 C 0.33204(14) 0.88676(13) 0.84099(13)
H1 H 0.401679 0.833896 0.841206
C2 C 0.25983(16) 0.88541(15) 0.93411(13)
H2 H 0.279890 0.831434 0.997625
C3 C 0.15859(16) 0.96272(15) 0.93440(14)
H3 H 0.110150 0.962901 0.998336
C4 C 0.12800(15) 1.03999(13) 0.84105(14)
H4 H 0.057753 1.092104 0.840981
C5 C 0.20017(14) 1.04125(12) 0.74746(13)
H5 H 0.178934 1.094236 0.683780
C6 C 0.30296(13) 0.96535(12) 0.74698(12)
C7 C 0.38729(14) 0.96223(13) 0.64928(12)
H6 H 0.464521 0.967820 0.661550
H7 H 0.395576 0.891069 0.638120
N1 N 0.35383(11) 1.04721(10) 0.55363(10)
N2 N 0.40505(11) 1.13385(10) 0.51542(10)
N3 N 0.36395(11) 1.19313(10) 0.42586(10)
C8 C 0.28645(13) 1.14456(12) 0.40615(12)
C9 C 0.27844(13) 1.05047(12) 0.48793(12)
C10 C 0.21090(14) 0.97121(12) 0.50402(12)
C11 C 0.15121(14) 0.90924(12) 0.50808(12)
C12 C 0.08704(14) 0.83187(13) 0.50051(13)
H8 H 0.007870 0.842954 0.538495
H9 H 0.127384 0.757104 0.533698
C13 C 0.07858(14) 0.84685(14) 0.38634(13)
H10 H 0.042304 0.790029 0.380560
H11 H 0.030938 0.918538 0.354273
O1 O 0.19687(9) 0.83879(9) 0.33418(9)
C14 C 0.21483(14) 0.82077(12) 0.24088(12)
O2 O 0.14268(10) 0.80050(9) 0.20269(9)
C15 C 0.33818(13) 0.82332(12) 0.19264(12)
C16 C 0.38686(13) 0.91522(12) 0.17189(12)
C17 C 0.50182(14) 0.91400(13) 0.12606(12)
H12 H 0.535681 0.975356 0.113058
C18 C 0.56698(14) 0.82354(14) 0.09938(13)
H13 H 0.644408 0.824077 0.065972
C19 C 0.51932(15) 0.73209(13) 0.12136(13)
H14 H 0.564734 0.669668 0.104451
C20 C 0.40521(15) 0.73206(13) 0.16809(13)
H15 H 0.372859 0.669413 0.183333
C21 C 0.31161(13) 1.01784(12) 0.18576(12)
O3 O 0.21033(10) 1.04620(9) 0.17162(9)
O4 O 0.37185(9) 1.07740(9) 0.21087(9)
C22 C 0.31135(14) 1.18624(12) 0.21016(12)
H16 H 0.267897 1.219329 0.148131
H17 H 0.369442 1.230737 0.203386
C23 C 0.22688(14) 1.18811(12) 0.30880(12)
H18 H 0.185624 1.263538 0.302209
H19 H 0.168022 1.144570 0.315049
C24 C 0.30198(14) 0.45401(12) 0.24173(13)
H20 H 0.323665 0.408380 0.308316
C25 C 0.37723(15) 0.44946(13) 0.15100(14)
H21 H 0.450652 0.401463 0.156024
C26 C 0.34546(16) 0.51479(14) 0.05313(14)
H22 H 0.396357 0.510374 -0.008653
C27 C 0.23918(16) 0.58648(14) 0.04593(14)
H23 H 0.217623 0.631870 -0.020767
C28 C 0.16440(14) 0.59178(13) 0.13631(13)
H24 H 0.091742 0.640967 0.131165
C29 C 0.19530(14) 0.52519(12) 0.23494(12)
C30 C 0.10963(13) 0.53643(13) 0.32993(12)
H25 H 0.105680 0.608291 0.337934
H26 H 0.031436 0.534177 0.316898
N4 N 0.13776(11) 0.45355(10) 0.42806(10)
N5 N 0.08783(11) 0.36614(11) 0.46338(11)
N6 N 0.12827(11) 0.30580(11) 0.55292(10)
C31 C 0.20451(13) 0.35426(12) 0.57501(12)
C32 C 0.21124(13) 0.45001(12) 0.49524(12)
C33 C 0.27768(13) 0.53060(12) 0.47878(12)
C34 C 0.33926(13) 0.59303(12) 0.46904(12)
C35 C 0.41741(14) 0.66460(13) 0.46350(13)
H27 H 0.377660 0.740891 0.436135
H28 H 0.487553 0.651519 0.413959
C36 C 0.45408(13) 0.64642(13) 0.57031(13)
H29 H 0.489281 0.569241 0.600597
H30 H 0.512634 0.690587 0.563082
O5 O 0.35185(10) 0.67737(9) 0.63835(9)
C37 C 0.30701(13) 0.59713(12) 0.71344(12)
O6 O 0.35257(10) 0.50237(9) 0.73390(9)
C38 C 0.19456(13) 0.64033(12) 0.76783(12)
C39 C 0.12196(13) 0.56874(12) 0.83046(12)
C40 C 0.01607(14) 0.60861(13) 0.88091(13)
H31 H -0.034651 0.560828 0.921050
C41 C -0.01554(14) 0.71806(13) 0.87269(13)
H32 H -0.086810 0.744618 0.908819
C42 C 0.05703(15) 0.78893(13) 0.81158(13)
H33 H 0.035442 0.863745 0.806133
C43 C 0.16067(14) 0.75009(13) 0.75882(13)
H34 H 0.209207 0.798860 0.715994
C44 C 0.15639(13) 0.44852(12) 0.84825(12)
O7 O 0.19357(10) 0.38493(9) 0.92705(9)
O8 O 0.13389(9) 0.42179(8) 0.76855(8)
C45 C 0.17329(14) 0.30924(12) 0.76982(12)
H35 H 0.106567 0.278163 0.767936
H36 H 0.209713 0.266032 0.834537
C46 C 0.26140(13) 0.30704(12) 0.67365(12)
H37 H 0.321081 0.348561 0.670612
H38 H 0.301055 0.231307 0.679618
loop_
_geom_bond_atom_site_label_1
_geom_bond_atom_site_label_2
_geom_bond_site_symmetry_1
_geom_bond_site_symmetry_2
C1 H1 1_555 1_555
C2 C1 1_555 1_555
H2 C2 1_555 1_555
C3 C2 1_555 1_555
H3 C3 1_555 1_555
C4 C3 1_555 1_555
H4 C4 1_555 1_555
C5 C4 1_555 1_555
H5 C5 1_555 1_555
C6 C1 1_555 1_555
C7 C6 1_555 1_555
H6 C7 1_555 1_555
H7 C7 1_555 1_555
N1 C7 1_555 1_555
N2 N1 1_555 1_555
N3 N2 1_555 1_555
C8 N3 1_555 1_555
C9 N1 1_555 1_555
C10 C9 1_555 1_555
C11 C10 1_555 1_555
C12 C11 1_555 1_555
H8 C12 1_555 1_555
H9 C12 1_555 1_555
C13 C12 1_555 1_555
H10 C13 1_555 1_555
H11 C13 1_555 1_555
O1 C13 1_555 1_555
C14 O1 1_555 1_555
O2 C14 1_555 1_555
C15 C14 1_555 1_555
C16 C15 1_555 1_555
C17 C16 1_555 1_555
H12 C17 1_555 1_555
C18 C17 1_555 1_555
H13 C18 1_555 1_555
C19 C18 1_555 1_555
H14 C19 1_555 1_555
C20 C15 1_555 1_555
H15 C20 1_555 1_555
C21 C16 1_555 1_555
O3 C21 1_555 1_555
O4 C21 1_555 1_555
C22 O4 1_555 1_555
H16 C22 1_555 1_555
H17 C22 1_555 1_555
C23 C8 1_555 1_555
H18 C23 1_555 1_555
H19 C23 1_555 1_555
C24 H20 1_555 1_555
C25 C24 1_555 1_555
H21 C25 1_555 1_555
C26 C25 1_555 1_555
H22 C26 1_555 1_555
C27 C26 1_555 1_555
H23 C27 1_555 1_555
C28 C27 1_555 1_555
H24 C28 1_555 1_555
C29 C24 1_555 1_555
C30 C29 1_555 1_555
H25 C30 1_555 1_555
H26 C30 1_555 1_555
N4 C30 1_555 1_555
N5 N4 1_555 1_555
N6 N5 1_555 1_555
C31 N6 1_555 1_555
C32 N4 1_555 1_555
C33 C32 1_555 1_555
C34 C33 1_555 1_555
C35 C34 1_555 1_555
H27 C35 1_555 1_555
H28 C35 1_555 1_555
C36 C35 1_555 1_555
H29 C36 1_555 1_555
H30 C36 1_555 1_555
O5 C36 1_555 1_555
C37 O5 1_555 1_555
O6 C37 1_555 1_555
C38 C37 1_555 1_555
C39 C38 1_555 1_555
C40 C39 1_555 1_555
H31 C40 1_555 1_555
C41 C40 1_555 1_555
H32 C41 1_555 1_555
C42 C41 1_555 1_555
H33 C42 1_555 1_555
C43 C38 1_555 1_555
H34 C43 1_555 1_555
C44 C39 1_555 1_555
O7 C44 1_555 1_555
O8 C44 1_555 1_555
C45 O8 1_555 1_555
H35 C45 1_555 1_555
H36 C45 1_555 1_555
C46 C31 1_555 1_555
H37 C46 1_555 1_555
H38 C46 1_555 1_555
C5 C6 1_555 1_555
C8 C9 1_555 1_555
C19 C20 1_555 1_555
C22 C23 1_555 1_555
C28 C29 1_555 1_555
C31 C32 1_555 1_555
C42 C43 1_555 1_555
C45 C46 1_555 1_555

#END
