
#######################################################################
#
#                 Cambridge Crystallographic Data Centre
#                                CCDC 
#
#######################################################################
#
# If this CIF has been generated from an entry in the Cambridge 
# Structural Database, then it will include bibliographic, chemical, 
# crystal, experimental, refinement or atomic coordinate data resulting 
# from the CCDC's data processing and validation procedures.
#
#######################################################################

data_IDISUK
_chemical_compound_source        'Flos magnoliae'
_chemical_name_common            Magnolin
_chemical_formula_moiety         'C23 H28 O7'
_chemical_name_systematic        
1-(3,4-Dimethoxyphenyl)-4-(3,4,5-trimethoxyphenyl)perhydrofuro(3,4-c)furan
_chemical_properties_biological  
'antiinflammatory and antiallergenic activities'
_symmetry_cell_setting           orthorhombic
_symmetry_space_group_name_H-M   'P 21 21 21'
_symmetry_Int_Tables_number      19
_space_group_name_Hall           'P 2ac 2ab'
loop_
_symmetry_equiv_pos_site_id
_symmetry_equiv_pos_as_xyz
1 x,y,z
2 1/2-x,-y,1/2+z
3 -x,1/2+y,1/2-z
4 1/2+x,1/2-y,-z
_cell_length_a                   8.2890(17)
_cell_length_b                   8.3880(17)
_cell_length_c                   30.875(6)
_cell_angle_alpha                90
_cell_angle_beta                 90
_cell_angle_gamma                90
_cell_volume                     2146.68
_exptl_crystal_colour            colorless
_exptl_crystal_description       needle
_cell_formula_units_Z            4
_exptl_crystal_recrystallization_method ethanol
loop_
_atom_site_label
_atom_site_type_symbol
_atom_site_fract_x
_atom_site_fract_y
_atom_site_fract_z
O1 O 0.0902(4) 0.3978(3) 0.84806(7)
O2 O -0.0479(3) -0.0427(3) 0.83625(7)
O3 O 0.4562(4) 0.7129(3) 0.94545(9)
O4 O 0.4261(4) 0.5892(3) 1.02693(7)
O5 O 0.2212(4) 0.3548(3) 1.04329(6)
O6 O 0.3241(4) -0.0677(3) 0.66866(7)
O7 O 0.4096(3) -0.3499(3) 0.69349(7)
C1 C 0.0509(4) 0.3303(4) 0.88915(9)
H1 H -0.0625 0.3540 0.8954
C2 C 0.0682(4) 0.1495(4) 0.88299(8)
H2 H 0.1184 0.0993 0.9083
C3 C -0.0894(4) 0.0650(5) 0.87027(10)
H3 H -0.1335 0.0075 0.8948
H4 H -0.1687 0.1417 0.8603
C4 C 0.0620(4) 0.0450(4) 0.80951(9)
H5 H 0.0020 0.1244 0.7927
C5 C 0.1742(4) 0.1312(4) 0.84216(9)
H6 H 0.2715 0.0685 0.8482
C6 C 0.2155(6) 0.3006(4) 0.82979(11)
H7 H 0.3198 0.3305 0.8415
H8 H 0.2185 0.3122 0.7985
C7 C 0.1537(4) 0.4006(4) 0.92539(9)
C8 C 0.2551(4) 0.5270(4) 0.91781(9)
H9 H 0.2634 0.5694 0.8901
C9 C 0.3461(4) 0.5923(4) 0.95157(10)
C10 C 0.3325(4) 0.5330(4) 0.99338(9)
C11 C 0.2266(4) 0.4062(4) 1.00110(9)
C12 C 0.1388(4) 0.3387(4) 0.96739(9)
H10 H 0.0705 0.2529 0.9727
C13 C 0.4140(9) 0.8370(6) 0.91721(19)
H11 H 0.5007 0.9126 0.9157
H12 H 0.3185 0.8890 0.9277
H13 H 0.3938 0.7943 0.8889
C14 C 0.3947(7) 0.7487(6) 1.03995(15)
H14 H 0.4659 0.7771 1.0632
H15 H 0.2849 0.7575 1.0495
H16 H 0.4122 0.8192 1.0159
C15 C 0.1149(6) 0.2283(5) 1.05388(11)
H17 H 0.1221 0.2060 1.0843
H18 H 0.1443 0.1349 1.0377
H19 H 0.0063 0.2583 1.0468
C16 C 0.1471(4) -0.0673(4) 0.77897(9)
C17 C 0.1897(4) -0.0130(4) 0.73753(8)
H20 H 0.1592 0.0886 0.7287
C18 C 0.2770(4) -0.1099(4) 0.70973(9)
C19 C 0.3229(4) -0.2629(4) 0.72315(9)
C20 C 0.2788(4) -0.3165(4) 0.76384(10)
H21 H 0.3078 -0.4185 0.7727
C21 C 0.1914(4) -0.2187(4) 0.79151(9)
H22 H 0.1624 -0.2559 0.8188
C22 C 0.2828(8) 0.0881(4) 0.65441(11)
H23 H 0.3216 0.1037 0.6254
H24 H 0.3311 0.1655 0.6733
H25 H 0.1676 0.1003 0.6549
C23 C 0.4228(5) -0.5167(4) 0.70142(13)
H26 H 0.4846 -0.5654 0.6787
H27 H 0.3170 -0.5632 0.7022
H28 H 0.4757 -0.5339 0.7287
loop_
_geom_bond_atom_site_label_1
_geom_bond_atom_site_label_2
_geom_bond_site_symmetry_1
_geom_bond_site_symmetry_2
O1 C1 1_555 1_555
O2 C3 1_555 1_555
O3 C9 1_555 1_555
O4 C10 1_555 1_555
O5 C11 1_555 1_555
O6 C18 1_555 1_555
O7 C19 1_555 1_555
C1 H1 1_555 1_555
C2 C1 1_555 1_555
H2 C2 1_555 1_555
C3 C2 1_555 1_555
H3 C3 1_555 1_555
H4 C3 1_555 1_555
C4 O2 1_555 1_555
H5 C4 1_555 1_555
C5 C2 1_555 1_555
H6 C5 1_555 1_555
C6 O1 1_555 1_555
H7 C6 1_555 1_555
H8 C6 1_555 1_555
C7 C1 1_555 1_555
C8 C7 1_555 1_555
H9 C8 1_555 1_555
C9 C8 1_555 1_555
C10 C9 1_555 1_555
C11 C10 1_555 1_555
C12 C7 1_555 1_555
H10 C12 1_555 1_555
C13 O3 1_555 1_555
H11 C13 1_555 1_555
H12 C13 1_555 1_555
H13 C13 1_555 1_555
C14 O4 1_555 1_555
H14 C14 1_555 1_555
H15 C14 1_555 1_555
H16 C14 1_555 1_555
C15 O5 1_555 1_555
H17 C15 1_555 1_555
H18 C15 1_555 1_555
H19 C15 1_555 1_555
C16 C4 1_555 1_555
C17 C16 1_555 1_555
H20 C17 1_555 1_555
C18 C17 1_555 1_555
C19 C18 1_555 1_555
C20 C19 1_555 1_555
H21 C20 1_555 1_555
C21 C16 1_555 1_555
H22 C21 1_555 1_555
C22 O6 1_555 1_555
H23 C22 1_555 1_555
H24 C22 1_555 1_555
H25 C22 1_555 1_555
C23 O7 1_555 1_555
H26 C23 1_555 1_555
H27 C23 1_555 1_555
H28 C23 1_555 1_555
C4 C5 1_555 1_555
C5 C6 1_555 1_555
C11 C12 1_555 1_555
C20 C21 1_555 1_555

#END
