
#######################################################################
#
#                 Cambridge Crystallographic Data Centre
#                                CCDC 
#
#######################################################################
#
# If this CIF has been generated from an entry in the Cambridge 
# Structural Database, then it will include bibliographic, chemical, 
# crystal, experimental, refinement or atomic coordinate data resulting 
# from the CCDC's data processing and validation procedures.
#
#######################################################################

data_IDOFEN
_chemical_formula_moiety         'C20 H19 N3 O2 S2'
_chemical_name_systematic        
3-(5-(3,5-Dimethylphenyl)-1,3,4-thiadiazol-2-yl)-2-(4-methoxyphenyl)thiazolidin-4-one
_symmetry_cell_setting           monoclinic
_symmetry_space_group_name_H-M   'P 21/c'
_symmetry_Int_Tables_number      14
_space_group_name_Hall           '-P 2ybc'
loop_
_symmetry_equiv_pos_site_id
_symmetry_equiv_pos_as_xyz
1 x,y,z
2 -x,1/2+y,1/2-z
3 -x,-y,-z
4 x,1/2-y,1/2+z
_cell_length_a                   13.892(3)
_cell_length_b                   7.2560(15)
_cell_length_c                   18.912(4)
_cell_angle_alpha                90
_cell_angle_beta                 95.86(3)
_cell_angle_gamma                90
_cell_volume                     1896.37
_exptl_crystal_colour            colorless
_exptl_crystal_description       block
_chemical_melting_point          '463-464 K'
_cell_formula_units_Z            4
_exptl_crystal_recrystallization_method acetone
loop_
_atom_site_label
_atom_site_type_symbol
_atom_site_fract_x
_atom_site_fract_y
_atom_site_fract_z
S1 S 0.73364(5) 0.99119(8) 0.25666(4)
S2 S 0.87592(4) 0.37104(8) 0.16194(3)
O1 O 0.48258(13) 0.3788(3) 0.41839(10)
O2 O 0.94467(12) 0.6574(3) 0.24070(11)
N1 N 0.78244(12) 0.6746(3) 0.20676(10)
N2 N 0.69818(14) 0.4636(3) 0.12941(11)
N3 N 0.71081(13) 0.2982(3) 0.09445(10)
C1 C 0.5182(2) 0.2106(5) 0.4508(2)
H1 H 0.4722 0.1637 0.4808
H2 H 0.5786 0.2335 0.4788
H3 H 0.5278 0.1218 0.4145
C2 C 0.53944(17) 0.4651(4) 0.37361(12)
C3 C 0.50087(16) 0.6230(4) 0.34108(13)
H4 H 0.4410 0.6660 0.3518
C4 C 0.55010(16) 0.7167(3) 0.29306(13)
H5 H 0.5229 0.8220 0.2713
C5 C 0.64059(15) 0.6562(3) 0.27648(12)
C6 C 0.67899(17) 0.4994(3) 0.31067(13)
H6 H 0.7396 0.4577 0.3009
C7 C 0.62956(17) 0.4034(3) 0.35882(13)
H7 H 0.6566 0.2984 0.3810
C8 C 0.69232(16) 0.7635(3) 0.22335(12)
H8 H 0.6491 0.7789 0.1795
C9 C 0.85245(18) 0.9055(4) 0.28527(15)
H9 H 0.9009 0.9974 0.2774
H10 H 0.8577 0.8761 0.3356
C10 C 0.86740(16) 0.7354(3) 0.24255(13)
C11 C 0.77805(15) 0.5158(3) 0.16525(11)
C12 C 0.79842(16) 0.2341(3) 0.10682(12)
C13 C 0.83088(17) 0.0591(3) 0.07822(12)
C14 C 0.92711(18) 0.0046(3) 0.09364(13)
H11 H 0.9693 0.0792 0.1222
C15 C 0.96094(19) -0.1585(4) 0.06713(14)
C16 C 0.8960(2) -0.2664(4) 0.02441(14)
H12 H 0.9180 -0.3751 0.0055
C17 C 0.7987(2) -0.2174(3) 0.00873(13)
C18 C 0.76673(18) -0.0539(3) 0.03630(12)
H13 H 0.7022 -0.0193 0.0268
C19 C 1.0645(2) -0.2155(4) 0.08544(18)
H14 H 1.0976 -0.1234 0.1152
H15 H 1.0955 -0.2282 0.0426
H16 H 1.0666 -0.3311 0.1102
C20 C 0.7296(2) -0.3395(4) -0.03657(15)
H17 H 0.7634 -0.4465 -0.0508
H18 H 0.7035 -0.2729 -0.0780
H19 H 0.6779 -0.3770 -0.0098
loop_
_geom_bond_atom_site_label_1
_geom_bond_atom_site_label_2
_geom_bond_site_symmetry_1
_geom_bond_site_symmetry_2
S1 C8 1_555 1_555
S2 C11 1_555 1_555
O1 C1 1_555 1_555
O2 C10 1_555 1_555
N1 C8 1_555 1_555
N2 N3 1_555 1_555
N3 C12 1_555 1_555
C1 H1 1_555 1_555
H2 C1 1_555 1_555
H3 C1 1_555 1_555
C2 O1 1_555 1_555
C3 C2 1_555 1_555
H4 C3 1_555 1_555
C4 C3 1_555 1_555
H5 C4 1_555 1_555
C5 C4 1_555 1_555
C6 C5 1_555 1_555
H6 C6 1_555 1_555
C7 C2 1_555 1_555
H7 C7 1_555 1_555
C8 C5 1_555 1_555
H8 C8 1_555 1_555
C9 S1 1_555 1_555
H9 C9 1_555 1_555
H10 C9 1_555 1_555
C10 N1 1_555 1_555
C11 N1 1_555 1_555
C12 S2 1_555 1_555
C13 C12 1_555 1_555
C14 C13 1_555 1_555
H11 C14 1_555 1_555
C15 C14 1_555 1_555
C16 C15 1_555 1_555
H12 C16 1_555 1_555
C17 C16 1_555 1_555
C18 C13 1_555 1_555
H13 C18 1_555 1_555
C19 C15 1_555 1_555
H14 C19 1_555 1_555
H15 C19 1_555 1_555
H16 C19 1_555 1_555
C20 C17 1_555 1_555
H17 C20 1_555 1_555
H18 C20 1_555 1_555
H19 C20 1_555 1_555
N2 C11 1_555 1_555
C6 C7 1_555 1_555
C9 C10 1_555 1_555
C17 C18 1_555 1_555

#END
