
#######################################################################
#
#                 Cambridge Crystallographic Data Centre
#                                CCDC 
#
#######################################################################
#
# If this CIF has been generated from an entry in the Cambridge 
# Structural Database, then it will include bibliographic, chemical, 
# crystal, experimental, refinement or atomic coordinate data resulting 
# from the CCDC's data processing and validation procedures.
#
#######################################################################

data_IDOHEP
_chemical_formula_moiety         'C23 H22 O3'
_chemical_name_systematic        1-(4,5-bis(Benzyloxy)-2-methylphenyl)ethanone
_symmetry_cell_setting           monoclinic
_symmetry_space_group_name_H-M   'P 21/n'
_symmetry_Int_Tables_number      14
_space_group_name_Hall           '-P 2yn'
loop_
_symmetry_equiv_pos_site_id
_symmetry_equiv_pos_as_xyz
1 x,y,z
2 1/2-x,1/2+y,1/2-z
3 -x,-y,-z
4 1/2+x,1/2-y,1/2+z
_cell_length_a                   9.1070(17)
_cell_length_b                   14.681(3)
_cell_length_c                   14.121(3)
_cell_angle_alpha                90
_cell_angle_beta                 99.320(16)
_cell_angle_gamma                90
_cell_volume                     1863.05
_exptl_crystal_colour            brown
_exptl_crystal_description       cube
_chemical_melting_point          '329-331 K'
_cell_formula_units_Z            4
_exptl_crystal_recrystallization_method 'petroleum ether/acetic acid'
loop_
_atom_site_label
_atom_site_type_symbol
_atom_site_fract_x
_atom_site_fract_y
_atom_site_fract_z
O1 O 0.0061(4) 0.1097(3) 0.1888(3)
O2 O 0.3573(4) 0.2071(2) -0.1227(2)
O3 O 0.3898(3) 0.0341(2) -0.1416(2)
C1 C 0.1873(5) 0.0278(4) 0.0639(3)
C2 C 0.1645(5) 0.1201(4) 0.0727(3)
C3 C 0.2211(5) 0.1827(3) 0.0100(3)
H1 H 0.2070 0.2449 0.0172
C4 C 0.2959(5) 0.1522(3) -0.0603(3)
C5 C 0.3153(5) 0.0588(3) -0.0703(3)
C6 C 0.2615(5) -0.0003(3) -0.0079(3)
H2 H 0.2764 -0.0624 -0.0150
C7 C 0.0846(6) 0.1599(4) 0.1454(4)
C8 C 0.0962(7) 0.2568(4) 0.1678(4)
H3 H 0.0483 0.2912 0.1136
H4 H 0.1992 0.2737 0.1820
H5 H 0.0488 0.2692 0.2223
C9 C 0.3638(6) 0.3026(3) -0.1064(3)
H6 H 0.2636 0.3252 -0.1067
H7 H 0.4023 0.3317 -0.1590
C10 C 0.4576(6) 0.3294(3) -0.0149(3)
C11 C 0.4160(7) 0.4016(4) 0.0368(4)
H8 H 0.3285 0.4326 0.0136
C12 C 0.4992(14) 0.4293(6) 0.1212(6)
H9 H 0.4700 0.4788 0.1548
C13 C 0.6222(15) 0.3839(10) 0.1537(8)
H10 H 0.6786 0.4034 0.2109
C14 C 0.6733(11) 0.3095(8) 0.1087(9)
H11 H 0.7589 0.2780 0.1349
C15 C 0.5858(7) 0.2842(4) 0.0195(5)
H12 H 0.6166 0.2363 -0.0157
C16 C 0.4027(5) -0.0614(3) -0.1601(3)
H13 H 0.3046 -0.0888 -0.1731
H14 H 0.4588 -0.0911 -0.1044
C17 C 0.4799(5) -0.0734(3) -0.2445(3)
C18 C 0.5077(6) -0.0020(4) -0.3012(4)
H15 H 0.4780 0.0563 -0.2869
C19 C 0.5784(7) -0.0148(4) -0.3786(5)
H16 H 0.5962 0.0351 -0.4158
C20 C 0.6231(7) -0.0989(5) -0.4024(5)
H17 H 0.6711 -0.1074 -0.4551
C21 C 0.5957(7) -0.1690(5) -0.3476(5)
H18 H 0.6255 -0.2270 -0.3631
C22 C 0.5252(6) -0.1588(4) -0.2690(4)
H19 H 0.5082 -0.2093 -0.2326
C23 C 0.1385(6) -0.0460(4) 0.1308(3)
H20 H 0.2129 -0.0519 0.1869
H21 H 0.1266 -0.1032 0.0975
H22 H 0.0457 -0.0285 0.1494
loop_
_geom_bond_atom_site_label_1
_geom_bond_atom_site_label_2
_geom_bond_site_symmetry_1
_geom_bond_site_symmetry_2
O1 C7 1_555 1_555
O2 C4 1_555 1_555
O3 C5 1_555 1_555
C1 C2 1_555 1_555
C2 C3 1_555 1_555
C3 H1 1_555 1_555
C4 C3 1_555 1_555
C5 C4 1_555 1_555
C6 C1 1_555 1_555
H2 C6 1_555 1_555
C7 C2 1_555 1_555
C8 C7 1_555 1_555
H3 C8 1_555 1_555
H4 C8 1_555 1_555
H5 C8 1_555 1_555
C9 O2 1_555 1_555
H6 C9 1_555 1_555
H7 C9 1_555 1_555
C10 C9 1_555 1_555
C11 C10 1_555 1_555
H8 C11 1_555 1_555
C12 C11 1_555 1_555
H9 C12 1_555 1_555
C13 C12 1_555 1_555
H10 C13 1_555 1_555
C14 C13 1_555 1_555
H11 C14 1_555 1_555
C15 C10 1_555 1_555
H12 C15 1_555 1_555
C16 O3 1_555 1_555
H13 C16 1_555 1_555
H14 C16 1_555 1_555
C17 C16 1_555 1_555
C18 C17 1_555 1_555
H15 C18 1_555 1_555
C19 C18 1_555 1_555
H16 C19 1_555 1_555
C20 C19 1_555 1_555
H17 C20 1_555 1_555
C21 C20 1_555 1_555
H18 C21 1_555 1_555
C22 C17 1_555 1_555
H19 C22 1_555 1_555
C23 C1 1_555 1_555
H20 C23 1_555 1_555
H21 C23 1_555 1_555
H22 C23 1_555 1_555
C5 C6 1_555 1_555
C14 C15 1_555 1_555
C21 C22 1_555 1_555

#END
