
#######################################################################
#
#                 Cambridge Crystallographic Data Centre
#                                CCDC 
#
#######################################################################
#
# If this CIF has been generated from an entry in the Cambridge 
# Structural Database, then it will include bibliographic, chemical, 
# crystal, experimental, refinement or atomic coordinate data resulting 
# from the CCDC's data processing and validation procedures.
#
#######################################################################

data_IDOJER
_chemical_formula_moiety         'C17 H20 O3 S1'
_chemical_name_systematic        '4-t-Butylphenyl 4-methylbenzenesulfonate'
_symmetry_cell_setting           monoclinic
_symmetry_space_group_name_H-M   'P 21/c'
_symmetry_Int_Tables_number      14
_space_group_name_Hall           '-P 2ybc'
loop_
_symmetry_equiv_pos_site_id
_symmetry_equiv_pos_as_xyz
1 x,y,z
2 -x,1/2+y,1/2-z
3 -x,-y,-z
4 x,1/2-y,1/2+z
_cell_length_a                   11.557(2)
_cell_length_b                   12.611(3)
_cell_length_c                   11.858(2)
_cell_angle_alpha                90
_cell_angle_beta                 105.80(3)
_cell_angle_gamma                90
_cell_volume                     1662.95
_exptl_crystal_colour            colorless
_exptl_crystal_description       block
_chemical_melting_point          '370-371 K'
_cell_formula_units_Z            4
_exptl_crystal_recrystallization_method acetone/ethanol
loop_
_atom_site_label
_atom_site_type_symbol
_atom_site_fract_x
_atom_site_fract_y
_atom_site_fract_z
S1 S 0.89216(6) 0.15064(5) 0.59636(6)
O1 O 0.9511(2) 0.18706(16) 0.51334(19)
O2 O 0.80693(18) 0.21665(13) 0.62956(18)
O3 O 0.82683(16) 0.04568(12) 0.53547(14)
C1 C 0.9958(2) 0.10244(16) 0.7208(2)
C2 C 0.9907(2) 0.13650(18) 0.8299(2)
H1 H 0.9337 0.1859 0.8378
C3 C 1.0727(3) 0.0950(2) 0.9270(3)
H2 H 1.0715 0.1187 1.0009
C4 C 1.1562(2) 0.0200(2) 0.9185(3)
C5 C 1.1596(2) -0.0113(2) 0.8073(3)
H3 H 1.2163 -0.0612 0.7996
C6 C 1.0813(2) 0.0294(2) 0.7089(2)
H4 H 1.0854 0.0084 0.6349
C7 C 1.2427(3) -0.0269(3) 1.0236(3)
H5 H 1.2340 0.0077 1.0930
H6 H 1.3233 -0.0174 1.0179
H7 H 1.2264 -0.1013 1.0277
C8 C 0.7620(2) -0.01904(16) 0.59569(18)
C9 C 0.6518(2) 0.01149(17) 0.6046(2)
H8 H 0.6207 0.0776 0.5774
C10 C 0.5866(2) -0.05756(18) 0.6550(2)
H9 H 0.5110 -0.0371 0.6605
C11 C 0.6311(2) -0.15616(17) 0.6973(2)
C12 C 0.7441(2) -0.18281(18) 0.6865(2)
H10 H 0.7766 -0.2484 0.7141
C13 C 0.8098(2) -0.11547(17) 0.6364(2)
H11 H 0.8854 -0.1352 0.6304
C14 C 0.5580(2) -0.2345(2) 0.7485(2)
C15 C 0.4456(5) -0.1855(4) 0.7666(7)
H12 H 0.4029 -0.2375 0.7987
H13 H 0.3954 -0.1610 0.6928
H14 H 0.4669 -0.1268 0.8197
C16 C 0.5216(5) -0.3259(4) 0.6638(4)
H15 H 0.4755 -0.3760 0.6945
H16 H 0.5923 -0.3599 0.6534
H17 H 0.4738 -0.2997 0.5897
C17 C 0.6327(4) -0.2793(4) 0.8633(3)
H18 H 0.5850 -0.3282 0.8937
H19 H 0.6594 -0.2227 0.9183
H20 H 0.7012 -0.3156 0.8509
loop_
_geom_bond_atom_site_label_1
_geom_bond_atom_site_label_2
_geom_bond_site_symmetry_1
_geom_bond_site_symmetry_2
S1 O1 1_555 1_555
O2 S1 1_555 1_555
O3 S1 1_555 1_555
C1 S1 1_555 1_555
C2 C1 1_555 1_555
H1 C2 1_555 1_555
C3 C2 1_555 1_555
H2 C3 1_555 1_555
C4 C3 1_555 1_555
C5 C4 1_555 1_555
H3 C5 1_555 1_555
C6 C1 1_555 1_555
H4 C6 1_555 1_555
C7 C4 1_555 1_555
H5 C7 1_555 1_555
H6 C7 1_555 1_555
H7 C7 1_555 1_555
C8 O3 1_555 1_555
C9 C8 1_555 1_555
H8 C9 1_555 1_555
C10 C9 1_555 1_555
H9 C10 1_555 1_555
C11 C10 1_555 1_555
C12 C11 1_555 1_555
H10 C12 1_555 1_555
C13 C8 1_555 1_555
H11 C13 1_555 1_555
C14 C11 1_555 1_555
C15 C14 1_555 1_555
H12 C15 1_555 1_555
H13 C15 1_555 1_555
H14 C15 1_555 1_555
C16 C14 1_555 1_555
H15 C16 1_555 1_555
H16 C16 1_555 1_555
H17 C16 1_555 1_555
C17 C14 1_555 1_555
H18 C17 1_555 1_555
H19 C17 1_555 1_555
H20 C17 1_555 1_555
C5 C6 1_555 1_555
C12 C13 1_555 1_555

#END
