
#######################################################################
#
#                 Cambridge Crystallographic Data Centre
#                                CCDC 
#
#######################################################################
#
# If this CIF has been generated from an entry in the Cambridge 
# Structural Database, then it will include bibliographic, chemical, 
# crystal, experimental, refinement or atomic coordinate data resulting 
# from the CCDC's data processing and validation procedures.
#
#######################################################################

data_IDPRNS
_chemical_formula_moiety         'C14 H17 Cl1 O5'
_chemical_name_systematic        
'Methyl-4,6-O-(S)-benzylidene-2-chloro-2 deoxy-\a-D-idopyranoside'
_symmetry_cell_setting           monoclinic
_symmetry_space_group_name_H-M   'P 21'
_symmetry_Int_Tables_number      4
_space_group_name_Hall           'P 2yb'
loop_
_symmetry_equiv_pos_site_id
_symmetry_equiv_pos_as_xyz
1 x,y,z
2 -x,1/2+y,-z
_cell_length_a                   11.83(6)
_cell_length_b                   12.70(5)
_cell_length_c                   4.62(1)
_cell_angle_alpha                90
_cell_angle_beta                 91.8
_cell_angle_gamma                90
_cell_volume                     693.771
_cell_formula_units_Z            2
loop_
_atom_site_label
_atom_site_type_symbol
_atom_site_fract_x
_atom_site_fract_y
_atom_site_fract_z
Cl1 Cl -0.20970 -0.00230 -0.06500
O1 O -0.17980 -0.23980 -0.34290
O2 O 0.02580 0.07550 -0.24600
O3 O -0.00330 -0.24430 -0.13000
O4 O 0.19990 -0.09780 -0.09020
O5 O 0.25200 -0.26820 -0.19330
C1 C -0.10950 -0.19240 -0.13400
C2 C -0.09810 -0.07750 -0.23270
C3 C 0.01520 -0.03060 -0.14360
C4 C 0.10860 -0.09630 -0.29140
C5 C 0.07090 -0.20650 -0.36630
C6 C 0.16820 -0.28210 -0.40710
C7 C 0.28770 -0.16330 -0.18840
C8 C 0.38480 -0.15460 0.01130
C9 C 0.42520 -0.05540 0.08320
C10 C 0.51680 -0.04230 0.26250
C11 C 0.56230 -0.13170 0.39000
C12 C 0.52380 -0.23180 0.31990
C13 C 0.43320 -0.24390 0.14100
C14 C -0.22590 -0.33930 -0.25090
H1 H -0.12320 -0.06690 -0.42890
H2 H -0.16050 -0.19350 0.04750
H3 H 0.04360 -0.04390 0.05960
H4 H 0.14530 -0.05670 -0.45910
H5 H 0.03400 -0.20010 -0.55770
H6 H 0.20060 -0.25070 -0.57610
H7 H 0.13490 -0.35430 -0.38230
H8 H 0.32110 -0.14480 -0.35880
H9 H 0.38050 0.01060 -0.01020
H10 H 0.55220 0.03290 0.32070
H11 H 0.65670 -0.12300 0.52080
H12 H 0.56050 -0.31060 0.41090
H13 H 0.39070 -0.32080 0.09350
H14 H -0.30000 -0.34000 -0.13000
H15 H -0.26000 -0.36000 -0.40000
H16 H -0.17500 -0.40000 -0.13000
H17 H 0.02000 0.14000 -0.12000
loop_
_geom_bond_atom_site_label_1
_geom_bond_atom_site_label_2
_geom_bond_site_symmetry_1
_geom_bond_site_symmetry_2
Cl1 C2 1_555 1_555
O1 C1 1_555 1_555
O2 C3 1_555 1_555
O3 C1 1_555 1_555
O4 C4 1_555 1_555
O5 C6 1_555 1_555
C1 C2 1_555 1_555
C2 C3 1_555 1_555
C3 C4 1_555 1_555
C4 C5 1_555 1_555
C5 O3 1_555 1_555
C6 C5 1_555 1_555
C7 O4 1_555 1_555
C8 C7 1_555 1_555
C9 C8 1_555 1_555
C10 C9 1_555 1_555
C11 C10 1_555 1_555
C12 C11 1_555 1_555
C13 C8 1_555 1_555
C14 O1 1_555 1_555
H1 C2 1_555 1_555
H2 C1 1_555 1_555
H3 C3 1_555 1_555
H4 C4 1_555 1_555
H5 C5 1_555 1_555
H6 C6 1_555 1_555
H7 C6 1_555 1_555
H8 C7 1_555 1_555
H9 C9 1_555 1_555
H10 C10 1_555 1_555
H11 C11 1_555 1_555
H12 C12 1_555 1_555
H13 C13 1_555 1_555
H14 C14 1_555 1_555
H15 C14 1_555 1_555
H16 C14 1_555 1_555
H17 O2 1_555 1_555
O5 C7 1_555 1_555
C12 C13 1_555 1_555

#END
