
#######################################################################
#
#                 Cambridge Crystallographic Data Centre
#                                CCDC 
#
#######################################################################
#
# If this CIF has been generated from an entry in the Cambridge 
# Structural Database, then it will include bibliographic, chemical, 
# crystal, experimental, refinement or atomic coordinate data resulting 
# from the CCDC's data processing and validation procedures.
#
#######################################################################

data_IDURUV
_chemical_formula_moiety         'C20 H21 Cl1 N2 O6'
_chemical_name_systematic        
'Diethyl 2-((3-chlorophenylamino)(3-nitrophenyl)methyl)malonate'
_symmetry_cell_setting           triclinic
_symmetry_space_group_name_H-M   'P -1'
_symmetry_Int_Tables_number      2
_space_group_name_Hall           '-P 1'
loop_
_symmetry_equiv_pos_site_id
_symmetry_equiv_pos_as_xyz
1 x,y,z
2 -x,-y,-z
_cell_length_a                   9.0765(11)
_cell_length_b                   11.0454(13)
_cell_length_c                   12.0174(14)
_cell_angle_alpha                101.010(2)
_cell_angle_beta                 111.271(2)
_cell_angle_gamma                102.040(2)
_cell_volume                     1049.96
_exptl_crystal_colour            green
_exptl_crystal_description       block
_cell_formula_units_Z            2
_exptl_crystal_recrystallization_method hexane/dichloromethane
loop_
_atom_site_label
_atom_site_type_symbol
_atom_site_fract_x
_atom_site_fract_y
_atom_site_fract_z
Cl1 Cl 0.93356(15) 1.00508(8) 0.13524(8)
O1 O 0.5318(3) 0.34678(19) 0.10309(16)
O2 O 0.6216(3) 0.22400(17) 0.22175(16)
O3 O 1.0358(2) 0.38330(19) 0.38547(15)
O4 O 0.9534(2) 0.39161(16) 0.18906(13)
O5 O 0.5615(2) 0.6578(2) 0.59488(17)
O6 O 0.3207(3) 0.6669(3) 0.4953(2)
N1 N 0.9522(2) 0.66038(18) 0.36555(16)
H1 H 0.9762 0.6430 0.4375
N2 N 0.4562(3) 0.6653(2) 0.5027(2)
C1 C 0.7861(3) 0.4381(2) 0.29155(18)
H2 H 0.7817 0.4422 0.3724
C2 C 0.7926(3) 0.5714(2) 0.27161(18)
H3 H 0.7901 0.5673 0.1887
C3 C 0.6458(3) 0.6128(2) 0.27812(19)
C4 C 0.6215(3) 0.6266(2) 0.38694(19)
H4 H 0.6957 0.6121 0.4565
C5 C 0.4865(3) 0.6618(2) 0.3905(2)
C6 C 0.3757(3) 0.6886(3) 0.2925(2)
H5 H 0.2865 0.7138 0.2982
C7 C 0.4018(3) 0.6766(3) 0.1854(2)
H6 H 0.3290 0.6938 0.1171
C8 C 0.5338(3) 0.6396(2) 0.1787(2)
H7 H 0.5490 0.6322 0.1055
C9 C 1.0072(3) 0.7877(2) 0.3664(2)
C10 C 1.1314(3) 0.8765(2) 0.4765(2)
H8 H 1.1733 0.8505 0.5478
C11 C 1.1923(4) 1.0037(3) 0.4791(3)
H9 H 1.2748 1.0624 0.5531
C12 C 1.1342(4) 1.0448(3) 0.3760(3)
H10 H 1.1764 1.1301 0.3785
C13 C 1.0123(4) 0.9570(3) 0.2693(2)
C14 C 0.9476(3) 0.8293(2) 0.2619(2)
H11 H 0.8647 0.7719 0.1874
C15 C 0.6321(3) 0.3326(2) 0.1923(2)
C16 C 0.4704(5) 0.1175(3) 0.1397(4)
H12 H 0.3745 0.1487 0.1236
H13 H 0.4746 0.0840 0.0606
C17 C 0.4561(8) 0.0195(5) 0.1966(5)
H14 H 0.5427 -0.0193 0.2016
H15 H 0.3501 -0.0450 0.1481
H16 H 0.4656 0.0554 0.2791
C18 C 0.9393(3) 0.4019(2) 0.2965(2)
C19 C 1.0984(3) 0.3590(3) 0.1841(2)
H17 H 1.1047 0.2807 0.2082
H18 H 1.1985 0.4285 0.2411
C20 C 1.0823(4) 0.3394(4) 0.0539(3)
H19 H 0.9849 0.2686 -0.0013
H20 H 1.1785 0.3202 0.0487
H21 H 1.0733 0.4166 0.0302
loop_
_geom_bond_atom_site_label_1
_geom_bond_atom_site_label_2
_geom_bond_site_symmetry_1
_geom_bond_site_symmetry_2
Cl1 C13 1_555 1_555
O1 C15 1_555 1_555
O2 C15 1_555 1_555
O3 C18 1_555 1_555
O4 C18 1_555 1_555
O5 N2 1_555 1_555
O6 N2 1_555 1_555
N1 H1 1_555 1_555
N2 C5 1_555 1_555
C1 H2 1_555 1_555
C2 N1 1_555 1_555
H3 C2 1_555 1_555
C3 C2 1_555 1_555
C4 C3 1_555 1_555
H4 C4 1_555 1_555
C5 C4 1_555 1_555
C6 C5 1_555 1_555
H5 C6 1_555 1_555
C7 C6 1_555 1_555
H6 C7 1_555 1_555
C8 C3 1_555 1_555
H7 C8 1_555 1_555
C9 N1 1_555 1_555
C10 C9 1_555 1_555
H8 C10 1_555 1_555
C11 C10 1_555 1_555
H9 C11 1_555 1_555
C12 C11 1_555 1_555
H10 C12 1_555 1_555
C13 C12 1_555 1_555
C14 C9 1_555 1_555
H11 C14 1_555 1_555
C15 C1 1_555 1_555
C16 O2 1_555 1_555
H12 C16 1_555 1_555
H13 C16 1_555 1_555
C17 C16 1_555 1_555
H14 C17 1_555 1_555
H15 C17 1_555 1_555
H16 C17 1_555 1_555
C18 C1 1_555 1_555
C19 O4 1_555 1_555
H17 C19 1_555 1_555
H18 C19 1_555 1_555
C20 C19 1_555 1_555
H19 C20 1_555 1_555
H20 C20 1_555 1_555
H21 C20 1_555 1_555
C1 C2 1_555 1_555
C7 C8 1_555 1_555
C13 C14 1_555 1_555

#END
