
#######################################################################
#
#                 Cambridge Crystallographic Data Centre
#                                CCDC 
#
#######################################################################
#
# If this CIF has been generated from an entry in the Cambridge 
# Structural Database, then it will include bibliographic, chemical, 
# crystal, experimental, refinement or atomic coordinate data resulting 
# from the CCDC's data processing and validation procedures.
#
#######################################################################

data_IDUYEM02
_chemical_formula_moiety         'C7 H17 Cl1 N1 1+,H2 O1,Cl1 1-'
_chemical_name_systematic        
'N-(chloromethyl)-N,N-diethylethanaminium chloride monohydrate'
_symmetry_cell_setting           monoclinic
_symmetry_space_group_name_H-M   'P 21/n'
_symmetry_Int_Tables_number      14
_space_group_name_Hall           '-P 2yn'
loop_
_symmetry_equiv_pos_site_id
_symmetry_equiv_pos_as_xyz
1 x,y,z
2 1/2-x,1/2+y,1/2-z
3 -x,-y,-z
4 1/2+x,1/2-y,1/2+z
_cell_length_a                   11.248(2)
_cell_length_b                   8.0588(16)
_cell_length_c                   12.511(3)
_cell_angle_alpha                90
_cell_angle_beta                 106.56(3)
_cell_angle_gamma                90
_cell_volume                     1087.03
_exptl_crystal_colour            colorless
_exptl_crystal_description       block
_cell_formula_units_Z            4
loop_
_atom_site_label
_atom_site_type_symbol
_atom_site_fract_x
_atom_site_fract_y
_atom_site_fract_z
C1 C 0.4049(3) 0.4960(4) 0.1422(2)
H1 H 0.4170 0.4320 0.0805
H2 H 0.4198 0.6116 0.1286
C2 C 0.2707(3) 0.4774(6) 0.1428(3)
H3 H 0.2475 0.3624 0.1343
H4 H 0.2181 0.5400 0.0823
H5 H 0.2616 0.5180 0.2122
C3 C 0.4927(3) 0.5439(4) 0.3486(2)
H6 H 0.4151 0.5179 0.3642
H7 H 0.5593 0.5094 0.4129
C4 C 0.5004(3) 0.7295(4) 0.3367(3)
H8 H 0.5746 0.7571 0.3172
H9 H 0.5021 0.7819 0.4061
H10 H 0.4294 0.7678 0.2793
C5 C 0.4806(4) 0.2609(4) 0.2713(3)
H11 H 0.4751 0.1981 0.2039
H12 H 0.4014 0.2509 0.2871
C6 C 0.5814(4) 0.1802(4) 0.3685(3)
H13 H 0.6596 0.1823 0.3519
H14 H 0.5588 0.0674 0.3778
H15 H 0.5881 0.2409 0.4360
C7 C 0.6282(3) 0.4729(4) 0.2334(2)
H16 H 0.6906 0.4566 0.3042
H17 H 0.6332 0.5874 0.2110
Cl1 Cl 0.66039(9) 0.34139(14) 0.13318(8)
N1 N 0.50054(19) 0.4414(3) 0.24833(17)
Cl2 Cl 0.70303(7) 0.04124(12) 0.93409(7)
O1 O 0.4128(2) 0.1595(4) 0.9013(3)
H18 H 0.4765 0.1072 0.9028
H19 H 0.3755 0.1133 0.9413
loop_
_geom_bond_atom_site_label_1
_geom_bond_atom_site_label_2
_geom_bond_site_symmetry_1
_geom_bond_site_symmetry_2
C1 H1 1_555 1_555
H2 C1 1_555 1_555
C2 C1 1_555 1_555
H3 C2 1_555 1_555
H4 C2 1_555 1_555
H5 C2 1_555 1_555
C3 H6 1_555 1_555
H7 C3 1_555 1_555
C4 C3 1_555 1_555
H8 C4 1_555 1_555
H9 C4 1_555 1_555
H10 C4 1_555 1_555
C5 H11 1_555 1_555
H12 C5 1_555 1_555
C6 C5 1_555 1_555
H13 C6 1_555 1_555
H14 C6 1_555 1_555
H15 C6 1_555 1_555
C7 H16 1_555 1_555
H17 C7 1_555 1_555
Cl1 C7 1_555 1_555
N1 C1 1_555 1_555
O1 H18 1_555 1_555
H19 O1 1_555 1_555
C3 N1 1_555 1_555
C5 N1 1_555 1_555
C7 N1 1_555 1_555

#END
