
#######################################################################
#
#                 Cambridge Crystallographic Data Centre
#                                CCDC 
#
#######################################################################
#
# If this CIF has been generated from an entry in the Cambridge 
# Structural Database, then it will include bibliographic, chemical, 
# crystal, experimental, refinement or atomic coordinate data resulting 
# from the CCDC's data processing and validation procedures.
#
#######################################################################

data_IFAWES
_chemical_formula_moiety         'C19 H17 F2 N3 O1 S1'
_chemical_name_systematic        
2-(2-((2,4-Difluorophenyl)imino)-3-methyl-2,3-dihydro-1,3-thiazol-4-yl)-N-(4-methylphenyl)acetamide
_chemical_properties_biological  
'potential fungicidal activity against Magnaporthe grisea, Rhizoctonia solani, Botrytis cinerea, Phytophthora infestans, Puccinia recondite and Erysiphe graminis f. sp. hordei'
_symmetry_cell_setting           monoclinic
_symmetry_space_group_name_H-M   'P 21/a'
_symmetry_Int_Tables_number      14
_space_group_name_Hall           '-P 2yab'
loop_
_symmetry_equiv_pos_site_id
_symmetry_equiv_pos_as_xyz
1 x,y,z
2 1/2-x,1/2+y,-z
3 -x,-y,-z
4 1/2+x,1/2-y,z
_cell_length_a                   9.3487(5)
_cell_length_b                   13.6039(8)
_cell_length_c                   14.0791(8)
_cell_angle_alpha                90
_cell_angle_beta                 94.072(2)
_cell_angle_gamma                90
_cell_volume                     1786.04
_exptl_crystal_colour            colorless
_exptl_crystal_description       block
_cell_formula_units_Z            4
loop_
_atom_site_label
_atom_site_type_symbol
_atom_site_fract_x
_atom_site_fract_y
_atom_site_fract_z
S1 S 0.81058(6) 0.24715(3) 0.57633(3)
F1 F 1.1246(2) 0.0152(1) 0.9196(1)
F2 F 0.7134(1) -0.0663(1) 0.7273(1)
O1 O 0.7075(1) 0.1981(1) 0.23987(9)
N1 N 0.6685(2) 0.1347(1) 0.4582(1)
N2 N 0.7896(2) 0.0443(1) 0.5798(1)
N3 N 0.4778(1) 0.2240(1) 0.1786(1)
C1 C 0.4952(2) 0.2014(1) 0.0812(1)
C2 C 0.7584(2) 0.1275(1) 0.5397(1)
C3 C 0.7040(2) 0.2987(1) 0.4829(1)
C4 C 0.6372(2) 0.2305(1) 0.4281(1)
C5 C 0.5824(2) 0.2211(1) 0.2497(1)
C6 C 0.5310(2) 0.2500(1) 0.3460(1)
C7 C 0.8798(2) 0.0416(1) 0.6647(1)
C8 C 0.5903(2) 0.1057(1) -0.0421(1)
C9 C 0.5806(2) 0.1253(1) 0.0540(1)
C10 C 0.8385(2) -0.0171(1) 0.7389(1)
C11 C 0.4292(3) 0.2342(2) -0.0835(1)
C12 C 0.5159(2) 0.1600(2) -0.1123(1)
C13 C 1.0443(3) 0.0222(2) 0.8356(1)
C14 C 0.6176(3) 0.0467(1) 0.4070(1)
C15 C 0.4182(3) 0.2560(2) 0.0118(2)
C16 C 0.9187(3) -0.0268(1) 0.8250(1)
C17 C 1.0115(2) 0.0878(2) 0.6793(2)
C18 C 1.0946(2) 0.0792(2) 0.7649(2)
C19 C 0.5286(3) 0.1384(2) -0.2158(2)
H1 H 0.6487 0.0545 -0.0598
H2 H 0.6315 0.0873 0.0998
H3 H 0.3764 0.2710 -0.1293
H4 H 0.3594 0.3071 0.0292
H5 H 0.8871 -0.0658 0.8736
H6 H 1.0453 0.1256 0.6306
H7 H 1.1823 0.1114 0.7739
H8 H 0.6834 0.0297 0.3603
H9 H 0.5246 0.0591 0.3759
H10 H 0.6113 -0.0067 0.4511
H11 H 0.6058 0.1763 -0.2386
H12 H 0.4406 0.1554 -0.2512
H13 H 0.5477 0.0697 -0.2239
H14 H 0.5079 0.3195 0.3449
H15 H 0.4435 0.2143 0.3559
H16 H 0.6947 0.3660 0.4725
H17 H 0.3992 0.2454 0.1936
loop_
_geom_bond_atom_site_label_1
_geom_bond_atom_site_label_2
_geom_bond_site_symmetry_1
_geom_bond_site_symmetry_2
S1 C2 1_555 1_555
F1 C13 1_555 1_555
F2 C10 1_555 1_555
O1 C5 1_555 1_555
N1 C2 1_555 1_555
N2 C2 1_555 1_555
N3 C1 1_555 1_555
C1 C9 1_555 1_555
C3 S1 1_555 1_555
C4 N1 1_555 1_555
C5 N3 1_555 1_555
C6 C4 1_555 1_555
C7 N2 1_555 1_555
C8 C9 1_555 1_555
C9 H2 1_555 1_555
C10 C7 1_555 1_555
C11 C12 1_555 1_555
C12 C8 1_555 1_555
C13 C16 1_555 1_555
C14 N1 1_555 1_555
C15 C1 1_555 1_555
C16 C10 1_555 1_555
C17 C7 1_555 1_555
C18 C13 1_555 1_555
C19 C12 1_555 1_555
H1 C8 1_555 1_555
H3 C11 1_555 1_555
H4 C15 1_555 1_555
H5 C16 1_555 1_555
H6 C17 1_555 1_555
H7 C18 1_555 1_555
H8 C14 1_555 1_555
H9 C14 1_555 1_555
H10 C14 1_555 1_555
H11 C19 1_555 1_555
H12 C19 1_555 1_555
H13 C19 1_555 1_555
H14 C6 1_555 1_555
H15 C6 1_555 1_555
H16 C3 1_555 1_555
H17 N3 1_555 1_555
C3 C4 1_555 1_555
C5 C6 1_555 1_555
C11 C15 1_555 1_555
C17 C18 1_555 1_555

#END
