
#######################################################################
#
#                 Cambridge Crystallographic Data Centre
#                                CCDC 
#
#######################################################################
#
# If this CIF has been generated from an entry in the Cambridge 
# Structural Database, then it will include bibliographic, chemical, 
# crystal, experimental, refinement or atomic coordinate data resulting 
# from the CCDC's data processing and validation procedures.
#
#######################################################################

data_IFAWOC
_chemical_formula_moiety         'C24 H27 N1 O5'
_chemical_name_systematic        
2-Dispiro(cyclohexane-1,3'-(1,2,4)trioxolane-5',2''-tricyclo(3.3.1.1^3,7^)decan)-4-yl-1H-isoindole-1,3(2H)-dione
_symmetry_cell_setting           orthorhombic
_symmetry_space_group_name_H-M   'P 21 21 21'
_symmetry_Int_Tables_number      19
_space_group_name_Hall           'P 2ac 2ab'
loop_
_symmetry_equiv_pos_site_id
_symmetry_equiv_pos_as_xyz
1 x,y,z
2 1/2-x,-y,1/2+z
3 -x,1/2+y,1/2-z
4 1/2+x,1/2-y,-z
_cell_length_a                   6.992
_cell_length_b                   11.596(2)
_cell_length_c                   24.4980(10)
_cell_angle_alpha                90
_cell_angle_beta                 90
_cell_angle_gamma                90
_cell_volume                     1986.28
_exptl_crystal_colour            colorless
_exptl_crystal_description       'rectangular needle'
_cell_formula_units_Z            4
loop_
_atom_site_label
_atom_site_type_symbol
_atom_site_fract_x
_atom_site_fract_y
_atom_site_fract_z
O1 O 0.2447(6) 0.0802(2) 0.13372(10)
N1 N 0.2698(7) 0.5093(3) 0.02341(13)
C1 C 0.2581(9) 0.1986(3) 0.11990(17)
O2 O 0.2827(7) 0.6023(3) 0.10740(12)
C2 C 0.2758(8) 0.7089(4) 0.02156(18)
C3 C 0.2612(8) 0.3887(3) 0.04097(17)
H1 H 0.2498 0.3412 0.0080
C4 C 0.2659(9) 0.5437(4) -0.03120(19)
O3 O 0.2881(6) 0.2561(3) 0.17084(12)
O4 O 0.2605(7) 0.4785(3) -0.06964(12)
C5 C 0.2645(9) 0.8651(4) -0.0619(2)
H2 H 0.2584 0.9194 -0.0898
C6 C 0.4102(8) 0.0310(5) 0.2181(2)
H3 H 0.5161 0.0817 0.2076
C7 C 0.4337(8) 0.2241(4) 0.0859(2)
H4 H 0.4307 0.1777 0.0530
H5 H 0.5473 0.2032 0.1064
C8 C 0.0888(8) 0.3654(4) 0.0755(2)
H6 H -0.0254 0.3862 0.0553
H7 H 0.0941 0.4132 0.1080
C9 C 0.2636(9) -0.1719(4) 0.27577(19)
H8 H 0.1597 -0.2227 0.2863
H9 H 0.3803 -0.2001 0.2925
C10 C 0.2798(8) 0.6056(4) 0.05796(18)
C11 C 0.0759(8) 0.2375(5) 0.0926(2)
H10 H -0.0305 0.2273 0.1176
H11 H 0.0524 0.1903 0.0607
O5 O 0.1732(6) 0.1865(3) 0.20748(12)
C12 C 0.4435(8) 0.3513(4) 0.0706(2)
H12 H 0.4598 0.3973 0.1033
H13 H 0.5531 0.3644 0.0471
C13 C 0.1011(8) -0.1274(5) 0.1884(2)
H14 H -0.0036 -0.1777 0.1988
H15 H 0.1116 -0.1286 0.1490
C14 C 0.4471(8) -0.0922(5) 0.1978(2)
H16 H 0.4613 -0.0915 0.1584
H17 H 0.5653 -0.1207 0.2135
C15 C 0.3880(9) 0.0299(5) 0.2796(2)
H18 H 0.3621 0.1073 0.2927
H19 H 0.5054 0.0032 0.2965
C16 C 0.0584(8) -0.0050(4) 0.2074(2)
H20 H -0.0597 0.0232 0.1905
C17 C 0.2252(8) 0.0715(4) 0.19169(16)
C18 C 0.2704(8) 0.6709(4) -0.03160(18)
C19 C 0.2227(9) -0.0503(4) 0.29519(19)
H21 H 0.2093 -0.0509 0.3350
C20 C 0.2791(8) 0.8240(4) 0.0345(2)
H22 H 0.2852 0.8489 0.0706
C21 C 0.2651(9) 0.7487(4) -0.07478(19)
H23 H 0.2622 0.7236 -0.1108
C22 C 0.2727(8) 0.9015(4) -0.0087(2)
H24 H 0.2741 0.9801 -0.0013
C23 C 0.2850(8) -0.1714(4) 0.2133(2)
H25 H 0.3114 -0.2496 0.2002
C24 C 0.0385(9) -0.0048(5) 0.2701(2)
H26 H 0.0140 0.0729 0.2830
H27 H -0.0681 -0.0533 0.2809
loop_
_geom_bond_atom_site_label_1
_geom_bond_atom_site_label_2
_geom_bond_site_symmetry_1
_geom_bond_site_symmetry_2
O1 C1 1_555 1_555
N1 C3 1_555 1_555
C1 O3 1_555 1_555
O2 C10 1_555 1_555
C2 C10 1_555 1_555
C3 H1 1_555 1_555
C4 N1 1_555 1_555
O3 O5 1_555 1_555
O4 C4 1_555 1_555
C5 H2 1_555 1_555
C6 H3 1_555 1_555
C7 C1 1_555 1_555
H4 C7 1_555 1_555
H5 C7 1_555 1_555
C8 C3 1_555 1_555
H6 C8 1_555 1_555
H7 C8 1_555 1_555
C9 H8 1_555 1_555
H9 C9 1_555 1_555
C10 N1 1_555 1_555
C11 C1 1_555 1_555
H10 C11 1_555 1_555
H11 C11 1_555 1_555
O5 C17 1_555 1_555
C12 C3 1_555 1_555
H12 C12 1_555 1_555
H13 C12 1_555 1_555
C13 H14 1_555 1_555
H15 C13 1_555 1_555
C14 C6 1_555 1_555
H16 C14 1_555 1_555
H17 C14 1_555 1_555
C15 C6 1_555 1_555
H18 C15 1_555 1_555
H19 C15 1_555 1_555
C16 C13 1_555 1_555
H20 C16 1_555 1_555
C17 O1 1_555 1_555
C18 C2 1_555 1_555
C19 C9 1_555 1_555
H21 C19 1_555 1_555
C20 C2 1_555 1_555
H22 C20 1_555 1_555
C21 C5 1_555 1_555
H23 C21 1_555 1_555
C22 C5 1_555 1_555
H24 C22 1_555 1_555
C23 C9 1_555 1_555
H25 C23 1_555 1_555
C24 C16 1_555 1_555
H26 C24 1_555 1_555
H27 C24 1_555 1_555
C4 C18 1_555 1_555
C6 C17 1_555 1_555
C7 C12 1_555 1_555
C8 C11 1_555 1_555
C13 C23 1_555 1_555
C14 C23 1_555 1_555
C15 C19 1_555 1_555
C16 C17 1_555 1_555
C18 C21 1_555 1_555
C19 C24 1_555 1_555
C20 C22 1_555 1_555

#END
