
#######################################################################
#
#                 Cambridge Crystallographic Data Centre
#                                CCDC 
#
#######################################################################
#
# If this CIF has been generated from an entry in the Cambridge 
# Structural Database, then it will include bibliographic, chemical, 
# crystal, experimental, refinement or atomic coordinate data resulting 
# from the CCDC's data processing and validation procedures.
#
#######################################################################

data_IFAYUL
_chemical_formula_moiety         'C21 H26 N4 O1'
_chemical_name_systematic        1,3-Dimesityl-N-nitrosoimidazolidin-2-imine
_symmetry_cell_setting           monoclinic
_symmetry_space_group_name_H-M   'C 2/c'
_symmetry_Int_Tables_number      15
_space_group_name_Hall           '-C 2yn'
loop_
_symmetry_equiv_pos_site_id
_symmetry_equiv_pos_as_xyz
1 x,y,z
2 -x,y,1/2-z
3 1/2+x,1/2+y,z
4 1/2-x,1/2+y,1/2-z
5 -x,-y,-z
6 x,-y,1/2+z
7 1/2-x,1/2-y,-z
8 1/2+x,1/2-y,1/2+z
_cell_length_a                   31.635(5)
_cell_length_b                   8.4919(9)
_cell_length_c                   15.6720(19)
_cell_angle_alpha                90
_cell_angle_beta                 112.954(15)
_cell_angle_gamma                90
_cell_volume                     3876.78
_exptl_crystal_colour            yellow
_exptl_crystal_description       prismatic
_cell_formula_units_Z            8
loop_
_atom_site_label
_atom_site_type_symbol
_atom_site_fract_x
_atom_site_fract_y
_atom_site_fract_z
O1 O 0.37352(5) 0.36788(18) 0.19983(10)
N1 N 0.39062(6) 0.4561(2) -0.03022(11)
N2 N 0.31706(5) 0.52149(19) -0.09703(11)
N3 N 0.34067(5) 0.42171(19) 0.05404(11)
N4 N 0.37950(6) 0.4187(2) 0.13076(11)
C1 C 0.35010(6) 0.4650(2) -0.01981(13)
C2 C 0.38571(7) 0.5170(3) -0.12237(15)
H1 H 0.3983(8) 0.438(3) -0.1559(17)
H2 H 0.4040(9) 0.623(3) -0.1152(18)
C3 C 0.33375(7) 0.5450(3) -0.17197(14)
H3 H 0.3268(7) 0.654(3) -0.1970(14)
H4 H 0.3202(8) 0.469(3) -0.2246(18)
C4 C 0.42955(6) 0.3600(2) 0.02342(13)
C5 C 0.42644(7) 0.1967(2) 0.00937(14)
C6 C 0.46442(8) 0.1045(3) 0.06159(16)
H5 H 0.4625(8) -0.009(3) 0.0556(16)
C7 C 0.50414(7) 0.1714(3) 0.12598(14)
C8 C 0.50645(7) 0.3343(3) 0.13746(14)
H6 H 0.5331(8) 0.379(3) 0.1837(16)
C9 C 0.46969(7) 0.4319(2) 0.08607(13)
C10 C 0.38267(8) 0.1212(3) -0.05764(18)
H7 H 0.3876(8) 0.005(3) -0.0671(17)
H8 H 0.3724(9) 0.169(3) -0.121(2)
H9 H 0.3581(9) 0.131(3) -0.0340(19)
C11 C 0.54383(9) 0.0678(4) 0.18520(19)
H10 H 0.5430(13) 0.039(5) 0.240(3)
H11 H 0.5734(12) 0.121(4) 0.205(2)
H12 H 0.5459(12) -0.031(4) 0.153(2)
C12 C 0.47256(8) 0.6075(3) 0.09990(18)
H13 H 0.4728(10) 0.663(4) 0.047(2)
H14 H 0.5018(10) 0.638(3) 0.156(2)
H15 H 0.4469(9) 0.645(3) 0.1146(18)
C13 C 0.27015(6) 0.5555(2) -0.11013(12)
C14 C 0.25661(7) 0.7139(2) -0.11255(13)
C15 C 0.21095(7) 0.7453(2) -0.12640(13)
H16 H 0.2012(7) 0.856(3) -0.1247(15)
C16 C 0.17929(7) 0.6252(2) -0.13878(13)
C17 C 0.19349(7) 0.4686(2) -0.13737(14)
H17 H 0.1722(7) 0.382(3) -0.1482(14)
C18 C 0.23899(7) 0.4312(2) -0.12276(13)
C19 C 0.28990(8) 0.8485(3) -0.09971(16)
H18 H 0.3223(8) 0.819(3) -0.0609(16)
H19 H 0.2819(8) 0.934(3) -0.0663(17)
H20 H 0.2879(8) 0.888(3) -0.1608(18)
C20 C 0.13010(7) 0.6630(3) -0.15278(18)
H21 H 0.1286(10) 0.758(4) -0.119(2)
H22 H 0.1163(9) 0.574(3) -0.1358(18)
H23 H 0.1105(10) 0.685(3) -0.219(2)
C21 C 0.25373(8) 0.2612(2) -0.11930(15)
H24 H 0.2262(8) 0.189(3) -0.1342(16)
H25 H 0.2770(8) 0.236(3) -0.0579(17)
H26 H 0.2671(9) 0.239(3) -0.1665(18)
loop_
_geom_bond_atom_site_label_1
_geom_bond_atom_site_label_2
_geom_bond_site_symmetry_1
_geom_bond_site_symmetry_2
O1 N4 1_555 1_555
N1 C1 1_555 1_555
N2 C1 1_555 1_555
N3 N4 1_555 1_555
C1 N3 1_555 1_555
C2 N1 1_555 1_555
H1 C2 1_555 1_555
H2 C2 1_555 1_555
C3 N2 1_555 1_555
H3 C3 1_555 1_555
H4 C3 1_555 1_555
C4 N1 1_555 1_555
C5 C4 1_555 1_555
C6 C5 1_555 1_555
H5 C6 1_555 1_555
C7 C6 1_555 1_555
C8 C7 1_555 1_555
H6 C8 1_555 1_555
C9 C4 1_555 1_555
C10 C5 1_555 1_555
H7 C10 1_555 1_555
H8 C10 1_555 1_555
H9 C10 1_555 1_555
C11 C7 1_555 1_555
H10 C11 1_555 1_555
H11 C11 1_555 1_555
H12 C11 1_555 1_555
C12 C9 1_555 1_555
H13 C12 1_555 1_555
H14 C12 1_555 1_555
H15 C12 1_555 1_555
C13 N2 1_555 1_555
C14 C13 1_555 1_555
C15 C14 1_555 1_555
H16 C15 1_555 1_555
C16 C15 1_555 1_555
C17 C16 1_555 1_555
H17 C17 1_555 1_555
C18 C13 1_555 1_555
C19 C14 1_555 1_555
H18 C19 1_555 1_555
H19 C19 1_555 1_555
H20 C19 1_555 1_555
C20 C16 1_555 1_555
H21 C20 1_555 1_555
H22 C20 1_555 1_555
H23 C20 1_555 1_555
C21 C18 1_555 1_555
H24 C21 1_555 1_555
H25 C21 1_555 1_555
H26 C21 1_555 1_555
C2 C3 1_555 1_555
C8 C9 1_555 1_555
C17 C18 1_555 1_555

#END
