
#######################################################################
#
#                 Cambridge Crystallographic Data Centre
#                                CCDC 
#
#######################################################################
#
# If this CIF has been generated from an entry in the Cambridge 
# Structural Database, then it will include bibliographic, chemical, 
# crystal, experimental, refinement or atomic coordinate data resulting 
# from the CCDC's data processing and validation procedures.
#
#######################################################################

data_IFICIM
_chemical_formula_moiety         'C15 H16 N2 O2'
_chemical_name_systematic        
'6-{[2-(propan-2-yl)phenyl]amino}pyridine-3-carboxylic acid'
_symmetry_cell_setting           orthorhombic
_symmetry_space_group_name_H-M   'P c a 21'
_symmetry_Int_Tables_number      29
_space_group_name_Hall           'P 2c -2ac'
loop_
_symmetry_equiv_pos_site_id
_symmetry_equiv_pos_as_xyz
1 x,y,z
2 -x,-y,1/2+z
3 1/2-x,y,1/2+z
4 1/2+x,-y,z
_cell_length_a                   28.3815(12)
_cell_length_b                   5.3804(2)
_cell_length_c                   8.5880(4)
_cell_angle_alpha                90
_cell_angle_beta                 90
_cell_angle_gamma                90
_cell_volume                     1311.42
_exptl_crystal_colour            colorless
_exptl_crystal_description       plate
_cell_formula_units_Z            4
loop_
_atom_site_label
_atom_site_type_symbol
_atom_site_fract_x
_atom_site_fract_y
_atom_site_fract_z
N1 N 0.78371(8) 0.5365(5) 0.3894(3)
C1 C 0.76048(10) 0.3742(6) 0.3009(4)
H1 H 0.727258 0.391894 0.293210
C2 C 0.78144(10) 0.1813(5) 0.2193(3)
C3 C 0.83048(10) 0.1569(6) 0.2343(3)
H2 H 0.846458 0.027151 0.180998
C4 C 0.85528(10) 0.3186(5) 0.3249(4)
H3 H 0.888407 0.300731 0.336109
C5 C 0.83130(9) 0.5128(5) 0.4018(3)
N2 N 0.85240(8) 0.6819(5) 0.4953(3)
H4 H 0.8310(11) 0.807(6) 0.553(4)
C6 C 0.90175(10) 0.7027(5) 0.5234(3)
C7 C 0.91848(10) 0.6881(5) 0.6773(4)
C8 C 0.96665(10) 0.7248(6) 0.7008(4)
H5 H 0.978850 0.717454 0.803739
C9 C 0.99710(11) 0.7716(6) 0.5786(4)
H6 H 1.029703 0.796547 0.598270
C10 C 0.98010(11) 0.7822(6) 0.4272(4)
H7 H 1.000958 0.811124 0.342611
C11 C 0.93222(11) 0.7500(6) 0.4011(4)
H8 H 0.920225 0.760672 0.298041
C12 C 0.75170(11) 0.0121(5) 0.1291(3)
O1 O 0.70846(7) 0.0225(4) 0.1336(2)
O2 O 0.77463(7) -0.1528(4) 0.0431(2)
H9 H 0.7505(14) -0.264(7) -0.010(4)
C13 C 0.88534(10) 0.6166(6) 0.8088(4)
H10 H 0.854258 0.698322 0.789126
C14 C 0.87780(11) 0.3341(6) 0.8052(4)
H11 H 0.857334 0.285184 0.891786
H12 H 0.908272 0.249892 0.814991
H13 H 0.862996 0.287042 0.706386
C15 C 0.90214(12) 0.6942(6) 0.9698(3)
H14 H 0.931916 0.610127 0.993661
H15 H 0.878411 0.647928 1.047493
H16 H 0.906932 0.874547 0.972109
loop_
_geom_bond_atom_site_label_1
_geom_bond_atom_site_label_2
_geom_bond_site_symmetry_1
_geom_bond_site_symmetry_2
N1 C1 1_555 1_555
C1 H1 1_555 1_555
C2 C1 1_555 1_555
C3 C2 1_555 1_555
H2 C3 1_555 1_555
C4 C3 1_555 1_555
H3 C4 1_555 1_555
C5 N1 1_555 1_555
N2 C5 1_555 1_555
H4 N2 1_555 1_555
C6 N2 1_555 1_555
C7 C6 1_555 1_555
C8 C7 1_555 1_555
H5 C8 1_555 1_555
C9 C8 1_555 1_555
H6 C9 1_555 1_555
C10 C9 1_555 1_555
H7 C10 1_555 1_555
C11 C6 1_555 1_555
H8 C11 1_555 1_555
C12 C2 1_555 1_555
O1 C12 1_555 1_555
O2 C12 1_555 1_555
H9 O2 1_555 1_555
C13 C7 1_555 1_555
H10 C13 1_555 1_555
C14 C13 1_555 1_555
H11 C14 1_555 1_555
H12 C14 1_555 1_555
H13 C14 1_555 1_555
C15 C13 1_555 1_555
H14 C15 1_555 1_555
H15 C15 1_555 1_555
H16 C15 1_555 1_555
C4 C5 1_555 1_555
C10 C11 1_555 1_555

#END
