
#######################################################################
#
#                 Cambridge Crystallographic Data Centre
#                                CCDC 
#
#######################################################################
#
# If this CIF has been generated from an entry in the Cambridge 
# Structural Database, then it will include bibliographic, chemical, 
# crystal, experimental, refinement or atomic coordinate data resulting 
# from the CCDC's data processing and validation procedures.
#
#######################################################################

data_IFINIV
_chemical_name_common            
'4-Bromobenzo-18-crown-6 2,4-dithiouracil clathrate monohydrate'
_chemical_formula_moiety         'C16 H23 Br1 O6,C4 H4 N2 S2,H2 O1'
_chemical_name_systematic        
'18-Bromo-2,3,5,6,8,9,11,12,14,15-decahydro-1,4,7,10,13,16-benzohexaoxacyclooctadecine pyrimidine-2,4(1H,3H)-dithione clathrate monohydrate'
_symmetry_cell_setting           triclinic
_symmetry_space_group_name_H-M   'P -1'
_symmetry_Int_Tables_number      2
_space_group_name_Hall           '-P 1'
loop_
_symmetry_equiv_pos_site_id
_symmetry_equiv_pos_as_xyz
1 x,y,z
2 -x,-y,-z
_cell_length_a                   8.8461(18)
_cell_length_b                   9.4941(19)
_cell_length_c                   15.663(3)
_cell_angle_alpha                104.21(3)
_cell_angle_beta                 90.10(3)
_cell_angle_gamma                101.47(3)
_cell_volume                     1247.98
_exptl_crystal_colour            yellow
_exptl_crystal_description       prism
_chemical_melting_point          '260-262 deg.C(dec.)'
_cell_formula_units_Z            2
loop_
_atom_site_label
_atom_site_type_symbol
_atom_site_fract_x
_atom_site_fract_y
_atom_site_fract_z
Br1 Br 0.48427(12) 0.13476(11) 0.93480(7)
C1 C 0.8143(9) 0.5464(9) 0.8823(6)
C2 C 0.7326(10) 0.4389(11) 0.8116(8)
C3 C 0.6282(8) 0.3183(8) 0.8285(6)
H1 H 0.5685 0.2482 0.7824
C4 C 0.6145(9) 0.3040(10) 0.9134(6)
C5 C 0.6945(10) 0.4058(10) 0.9829(6)
H2 H 0.6816 0.3931 1.0397
C6 C 0.7956(11) 0.5287(10) 0.9695(6)
H3 H 0.8509 0.5991 1.0171
O1 O 0.7583(4) 0.4599(4) 0.7265(3)
O2 O 0.6900(5) 0.5495(5) 0.5707(3)
O3 O 0.8337(5) 0.8430(5) 0.5577(3)
O4 O 0.8615(4) 1.0796(4) 0.7210(3)
O5 O 0.9865(4) 0.9669(4) 0.8645(3)
O6 O 0.9052(5) 0.6590(5) 0.8574(3)
C13 C 0.6606(9) 0.3685(7) 0.6551(5)
H9 H 0.5554 0.3826 0.6633
H10 H 0.6616 0.2650 0.6507
C14 C 0.7197(9) 0.4111(7) 0.5707(5)
H11 H 0.8298 0.4142 0.5683
H12 H 0.6682 0.3374 0.5193
C15 C 0.7343(9) 0.5894(9) 0.4907(5)
H13 H 0.6678 0.5237 0.4418
H14 H 0.8397 0.5785 0.4797
C16 C 0.7218(8) 0.7473(9) 0.4974(4)
H15 H 0.7354 0.7686 0.4401
H16 H 0.6202 0.7614 0.5159
C17 C 0.8286(8) 0.9944(8) 0.5646(4)
H17 H 0.7236 1.0088 0.5728
H18 H 0.8628 1.0214 0.5109
C18 C 0.9351(8) 1.0930(7) 0.6439(4)
H19 H 1.0329 1.0615 0.6435
H20 H 0.9551 1.1956 0.6406
C19 C 0.9538(7) 1.1599(6) 0.7999(4)
H21 H 0.8863 1.1806 0.8480
H22 H 1.0089 1.2543 0.7915
C20 C 1.0676(7) 1.0783(7) 0.8246(4)
H23 H 1.1163 1.0325 0.7725
H24 H 1.1472 1.1462 0.8656
C21 C 1.0852(8) 0.8863(7) 0.8910(4)
H25 H 1.1622 0.9517 0.9348
H26 H 1.1381 0.8401 0.8409
C22 C 0.9909(8) 0.7702(7) 0.9291(4)
H27 H 1.0575 0.7270 0.9599
H28 H 0.9212 0.8133 0.9705
S1 S 0.7759(2) 0.4955(2) 0.23958(14)
S2 S 0.6104(2) 0.02722(19) 0.36698(12)
N1 N 0.6666(5) 0.2547(5) 0.2949(3)
H7 H 0.759(4) 0.273(7) 0.324(4)
N2 N 0.4203(5) 0.1206(5) 0.2732(4)
H8 H 0.339(5) 0.043(5) 0.253(4)
C23 C 0.6406(7) 0.3535(6) 0.2462(4)
C24 C 0.4872(8) 0.3183(8) 0.2079(5)
H29 H 0.4605 0.3752 0.1720
C25 C 0.3824(7) 0.2082(7) 0.2217(4)
H30 H 0.2827 0.1895 0.1967
C26 C 0.5639(6) 0.1376(6) 0.3094(3)
O7 O -0.0159(5) 0.2886(5) 0.3347(3)
H31 H -0.006(10) 0.286(8) 0.388(2)
H32 H 0.022(5) 0.370(5) 0.322(4)
Br2? Br 0.5669(7) 0.2841(8) 1.0300(5)
C7? C 0.789(3) 0.499(3) 0.850(2)
C8? C 0.710(4) 0.398(4) 0.7759(16)
C9? C 0.597(3) 0.279(3) 0.7856(17)
H4? H 0.5446 0.2117 0.7361
C10? C 0.563(3) 0.261(3) 0.869(2)
H5? H 0.4880 0.1813 0.8759
C11? C 0.642(4) 0.362(4) 0.9433(16)
C12? C 0.755(4) 0.481(3) 0.9336(18)
H6? H 0.8075 0.5484 0.9831
loop_
_geom_bond_atom_site_label_1
_geom_bond_atom_site_label_2
_geom_bond_site_symmetry_1
_geom_bond_site_symmetry_2
Br1 C4 1_555 1_555
C1 C2 1_555 1_555
C2 C3 1_555 1_555
C3 H1 1_555 1_555
C4 C3 1_555 1_555
C5 C4 1_555 1_555
H2 C5 1_555 1_555
C6 C1 1_555 1_555
H3 C6 1_555 1_555
S1 C23 1_555 1_555
S2 C26 1_555 1_555
O1 C2 1_555 1_555
O2 C14 1_555 1_555
O3 C16 1_555 1_555
O4 C18 1_555 1_555
O5 C20 1_555 1_555
O6 C1 1_555 1_555
N1 H7 1_555 1_555
N2 H8 1_555 1_555
C13 O1 1_555 1_555
H9 C13 1_555 1_555
H10 C13 1_555 1_555
C14 C13 1_555 1_555
H11 C14 1_555 1_555
H12 C14 1_555 1_555
C15 O2 1_555 1_555
H13 C15 1_555 1_555
H14 C15 1_555 1_555
C16 C15 1_555 1_555
H15 C16 1_555 1_555
H16 C16 1_555 1_555
C17 O3 1_555 1_555
H17 C17 1_555 1_555
H18 C17 1_555 1_555
C18 C17 1_555 1_555
H19 C18 1_555 1_555
H20 C18 1_555 1_555
C19 O4 1_555 1_555
H21 C19 1_555 1_555
H22 C19 1_555 1_555
C20 C19 1_555 1_555
H23 C20 1_555 1_555
H24 C20 1_555 1_555
C21 O5 1_555 1_555
H25 C21 1_555 1_555
H26 C21 1_555 1_555
C22 O6 1_555 1_555
H27 C22 1_555 1_555
H28 C22 1_555 1_555
C23 N1 1_555 1_555
C24 C23 1_555 1_555
H29 C24 1_555 1_555
C25 N2 1_555 1_555
H30 C25 1_555 1_555
C26 N1 1_555 1_555
O7 H31 1_555 1_555
H32 O7 1_555 1_555
C5 C6 1_555 1_555
N2 C26 1_555 1_555
C21 C22 1_555 1_555
C24 C25 1_555 1_555

#END
