
#######################################################################
#
#                 Cambridge Crystallographic Data Centre
#                                CCDC 
#
#######################################################################
#
# If this CIF has been generated from an entry in the Cambridge 
# Structural Database, then it will include bibliographic, chemical, 
# crystal, experimental, refinement or atomic coordinate data resulting 
# from the CCDC's data processing and validation procedures.
#
#######################################################################

data_IFOMEX
_chemical_formula_moiety         'C70,C34 H22 S4'
_chemical_name_systematic        
'2,13-Diphenyl-23,24,25,26-tetrathiapentacyclo[18.2.1.1^3,6^.1^9,12^.1^14,17^]hexacosa-1,3,5,7,9,11,13,15,17,19,21-undecaene C70 fullerene'
_symmetry_cell_setting           monoclinic
_symmetry_space_group_name_H-M   'P 21/c'
_symmetry_Int_Tables_number      14
_space_group_name_Hall           '-P 2ybc'
loop_
_symmetry_equiv_pos_site_id
_symmetry_equiv_pos_as_xyz
1 x,y,z
2 -x,1/2+y,1/2-z
3 -x,-y,-z
4 x,1/2-y,1/2+z
_cell_length_a                   15.761(3)
_cell_length_b                   14.146(3)
_cell_length_c                   27.681(9)
_cell_angle_alpha                90
_cell_angle_beta                 110.48(3)
_cell_angle_gamma                90
_cell_volume                     5781.54
_exptl_crystal_colour            black
_exptl_crystal_description       plate
_cell_formula_units_Z            4
loop_
_atom_site_label
_atom_site_type_symbol
_atom_site_fract_x
_atom_site_fract_y
_atom_site_fract_z
S1 S 0.41061(17) 0.10808(17) 0.01068(9)
S2 S 0.41812(16) -0.10443(16) 0.02437(9)
C1 C 0.4469(7) 0.2959(7) -0.0134(4)
H1 H 0.4248 0.3583 -0.0131
C2 C 0.4038(6) 0.2313(6) 0.0087(3)
C3 C 0.3407(6) 0.2593(7) 0.0325(4)
H2 H 0.3266 0.3238 0.0357
C4 C 0.3022(7) 0.1876(7) 0.0501(4)
H3 H 0.2589 0.1979 0.0664
C5 C 0.3320(6) 0.0956(7) 0.0423(3)
C6 C 0.3057(7) 0.0095(7) 0.0587(3)
C7 C 0.2381(7) 0.0165(7) 0.0860(4)
C8 C 0.1495(6) 0.0433(7) 0.0573(4)
H4 H 0.1331 0.0584 0.0217
C9 C 0.0853(9) 0.0477(8) 0.0814(5)
H5 H 0.0246 0.0648 0.0620
C10 C 0.1094(8) 0.0275(8) 0.1330(5)
H6 H 0.0653 0.0312 0.1492
C11 C 0.1963(7) 0.0020(7) 0.1613(4)
H7 H 0.2125 -0.0120 0.1969
C12 C 0.2607(7) -0.0033(7) 0.1380(4)
H8 H 0.3211 -0.0208 0.1579
C13 C 0.3392(6) -0.0796(6) 0.0547(3)
C14 C 0.3218(7) -0.1651(7) 0.0760(4)
H9 H 0.2795 -0.1688 0.0934
C15 C 0.3697(7) -0.2417(7) 0.0700(4)
H10 H 0.3631 -0.3023 0.0830
C16 C 0.4297(6) -0.2251(7) 0.0433(3)
C17 C 0.4880(7) -0.2930(7) 0.0350(4)
H11 H 0.4798 -0.3530 0.0480
S1B S 0.58939(17) -0.10808(17) -0.01068(9)
S2B S 0.58188(16) 0.10443(16) -0.02437(9)
C1B C 0.5531(7) -0.2959(7) 0.0134(4)
H1B H 0.5752 -0.3583 0.0131
C2B C 0.5962(6) -0.2313(6) -0.0087(3)
C3B C 0.6593(6) -0.2593(7) -0.0325(4)
H2B H 0.6734 -0.3238 -0.0357
C4B C 0.6978(7) -0.1876(7) -0.0501(4)
H3B H 0.7411 -0.1979 -0.0664
C5B C 0.6680(6) -0.0956(7) -0.0423(3)
C6B C 0.6943(7) -0.0095(7) -0.0587(3)
C7B C 0.7619(7) -0.0165(7) -0.0860(4)
C8B C 0.8505(6) -0.0433(7) -0.0573(4)
H4B H 0.8669 -0.0584 -0.0217
C9B C 0.9147(9) -0.0477(8) -0.0814(5)
H5B H 0.9754 -0.0648 -0.0620
C10B C 0.8906(8) -0.0275(8) -0.1330(5)
H6B H 0.9347 -0.0312 -0.1492
C11B C 0.8037(7) -0.0020(7) -0.1613(4)
H7B H 0.7875 0.0120 -0.1969
C12B C 0.7393(7) 0.0033(7) -0.1380(4)
H8B H 0.6789 0.0208 -0.1579
C13B C 0.6608(6) 0.0796(6) -0.0547(3)
C14B C 0.6782(7) 0.1651(7) -0.0760(4)
H9B H 0.7205 0.1688 -0.0934
C15B C 0.6303(7) 0.2417(7) -0.0700(4)
H10B H 0.6369 0.3023 -0.0830
C16B C 0.5703(6) 0.2251(7) -0.0433(3)
C17B C 0.5120(7) 0.2930(7) -0.0350(4)
H11B H 0.5202 0.3530 -0.0480
S3 S 0.92409(16) 0.61049(17) 0.02468(9)
S4 S 0.90484(16) 0.39813(17) 0.00973(9)
C18 C 1.0023(7) 0.7931(7) 0.0366(4)
H12 H 0.9972 0.8534 0.0505
C19 C 0.9394(7) 0.7279(6) 0.0441(3)
C20 C 0.8803(7) 0.7509(7) 0.0701(4)
H13 H 0.8762 0.8126 0.0826
C21 C 0.8300(7) 0.6783(7) 0.0759(4)
H14 H 0.7874 0.6849 0.0929
C22 C 0.8447(6) 0.5913(6) 0.0549(3)
C23 C 0.8073(7) 0.5019(7) 0.0594(4)
C24 C 0.7423(7) 0.4994(7) 0.0877(4)
C25 C 0.7715(7) 0.5207(7) 0.1402(4)
H15 H 0.8328 0.5375 0.1582
C26 C 0.7099(8) 0.5172(7) 0.1663(4)
H16 H 0.7300 0.5326 0.2019
C27 C 0.6199(8) 0.4915(7) 0.1414(4)
H17 H 0.5789 0.4901 0.1596
C28 C 0.5918(9) 0.4686(8) 0.0909(5)
H18 H 0.5309 0.4491 0.0739
C29 C 0.6506(7) 0.4734(7) 0.0637(4)
H19 H 0.6286 0.4587 0.0279
C30 C 0.8280(7) 0.4148(7) 0.0431(4)
C31 C 0.7949(6) 0.3257(7) 0.0503(4)
H20 H 0.7514 0.3182 0.0666
C32 C 0.8293(7) 0.2502(7) 0.0322(4)
H21 H 0.8132 0.1865 0.0357
C33 C 0.8908(6) 0.2761(6) 0.0079(3)
C34 C 0.9311(6) 0.2071(6) -0.0147(4)
H22 H 0.9061 0.1460 -0.0147
S3B S 1.07591(16) 0.38951(17) -0.02468(9)
S4B S 1.09516(16) 0.60187(17) -0.00973(9)
C18B C 0.9977(7) 0.2069(7) -0.0366(4)
H12B H 1.0028 0.1466 -0.0505
C19B C 1.0606(7) 0.2721(6) -0.0441(3)
C20B C 1.1197(7) 0.2491(7) -0.0701(4)
H13B H 1.1238 0.1874 -0.0826
C21B C 1.1700(7) 0.3217(7) -0.0759(4)
H14B H 1.2126 0.3151 -0.0929
C22B C 1.1553(6) 0.4087(6) -0.0549(3)
C23B C 1.1927(7) 0.4981(7) -0.0594(4)
C24B C 1.2577(7) 0.5006(7) -0.0877(4)
C25B C 1.2285(7) 0.4793(7) -0.1402(4)
H15B H 1.1672 0.4625 -0.1582
C26B C 1.2901(8) 0.4828(7) -0.1663(4)
H16B H 1.2700 0.4674 -0.2019
C27B C 1.3801(8) 0.5085(7) -0.1414(4)
H17B H 1.4211 0.5099 -0.1596
C28B C 1.4082(9) 0.5314(8) -0.0909(5)
H18B H 1.4691 0.5509 -0.0739
C29B C 1.3494(7) 0.5266(7) -0.0637(4)
H19B H 1.3714 0.5413 -0.0279
C30B C 1.1720(7) 0.5852(7) -0.0431(4)
C31B C 1.2051(6) 0.6743(7) -0.0503(4)
H20B H 1.2486 0.6818 -0.0666
C32B C 1.1707(7) 0.7498(7) -0.0322(4)
H21B H 1.1868 0.8135 -0.0357
C33B C 1.1092(6) 0.7239(6) -0.0079(3)
C34B C 1.0689(6) 0.7929(6) 0.0147(4)
H22B H 1.0939 0.8540 0.0147
C35 C 0.3561(7) 0.6896(8) 0.1985(4)
C36 C 0.3531(9) 0.7478(9) 0.2404(5)
C37 C 0.4010(9) 0.7273(9) 0.2883(5)
C38 C 0.4588(9) 0.6467(9) 0.3001(5)
C39 C 0.4701(8) 0.5888(8) 0.2614(5)
C40 C 0.4154(7) 0.6128(8) 0.2070(4)
C41 C 0.3903(8) 0.5388(9) 0.1708(4)
C42 C 0.3004(10) 0.5314(10) 0.1320(5)
C43 C 0.2386(9) 0.6008(9) 0.1305(4)
C44 C 0.2647(9) 0.6812(9) 0.1587(5)
C45 C 0.2086(9) 0.7421(9) 0.1783(5)
C46 C 0.2571(10) 0.7813(10) 0.2263(6)
C47 C 0.2241(11) 0.7926(10) 0.2648(6)
C48 C 0.2777(11) 0.7683(10) 0.3175(6)
C49 C 0.3642(10) 0.7379(10) 0.3299(6)
C50 C 0.3956(9) 0.6662(9) 0.3642(5)
C51 C 0.4529(9) 0.6072(10) 0.3479(5)
C52 C 0.4629(10) 0.5107(10) 0.3537(5)
C53 C 0.4892(10) 0.4522(10) 0.3224(5)
C54 C 0.4925(9) 0.4947(9) 0.2738(5)
C55 C 0.4711(9) 0.4239(10) 0.2352(6)
C56 C 0.4537(10) 0.3313(10) 0.2585(6)
C57 C 0.4651(10) 0.3527(11) 0.3095(6)
C58 C 0.4094(11) 0.3134(11) 0.3338(6)
C59 C 0.3772(9) 0.3674(9) 0.3656(5)
C60 C 0.4002(10) 0.4643(10) 0.3796(5)
C61 C 0.3394(11) 0.5197(11) 0.3922(5)
C62 C 0.3425(10) 0.6173(10) 0.3864(5)
C63 C 0.2495(11) 0.6507(11) 0.3740(6)
C64 C 0.1951(11) 0.5681(11) 0.3720(6)
C65 C 0.2460(10) 0.4876(10) 0.3820(5)
C66 C 0.2208(9) 0.4004(9) 0.3606(4)
C67 C 0.2834(9) 0.3365(9) 0.3572(5)
C68 C 0.2629(9) 0.2657(9) 0.3210(5)
C69 C 0.3433(9) 0.2480(9) 0.3046(5)
C70 C 0.3261(10) 0.2243(10) 0.2520(6)
C71 C 0.3913(11) 0.2720(11) 0.2275(6)
C72 C 0.3421(12) 0.2898(12) 0.1802(7)
C73 C 0.2447(11) 0.2596(11) 0.1664(6)
C74 C 0.2446(13) 0.2186(12) 0.2153(7)
C75 C 0.1695(11) 0.2327(10) 0.2289(6)
C76 C 0.0905(9) 0.2907(9) 0.1931(5)
C77 C 0.0950(11) 0.3339(12) 0.1512(6)
C78 C 0.1755(11) 0.3161(11) 0.1351(6)
C79 C 0.1883(10) 0.4020(11) 0.1129(5)
C80 C 0.2792(9) 0.4267(10) 0.1232(5)
C81 C 0.3543(9) 0.3740(9) 0.1552(5)
C82 C 0.4208(10) 0.4424(10) 0.1845(5)
C83 C 0.1254(9) 0.4731(10) 0.1133(5)
C84 C 0.0628(10) 0.4233(10) 0.1381(5)
C85 C 0.0229(9) 0.4784(10) 0.1665(5)
C86 C 0.0311(9) 0.5795(10) 0.1658(5)
C87 C 0.0901(9) 0.6254(10) 0.1412(5)
C88 C 0.1404(10) 0.5703(10) 0.1214(5)
C89 C 0.1202(8) 0.7118(8) 0.1681(4)
C90 C 0.0775(10) 0.7196(10) 0.2065(6)
C91 C 0.0224(10) 0.6349(11) 0.2031(6)
C92 C 0.0214(9) 0.6015(9) 0.2505(5)
C93 C 0.0724(9) 0.6404(10) 0.2982(5)
C94 C 0.1269(11) 0.7194(11) 0.3022(6)
C95 C 0.1306(10) 0.7618(10) 0.2554(5)
C96 C 0.2163(10) 0.7276(10) 0.3377(5)
C97 C 0.1088(10) 0.5636(10) 0.3353(5)
C98 C 0.0751(8) 0.4745(9) 0.3070(5)
C99 C 0.1266(8) 0.3912(9) 0.3200(5)
C100 C 0.1100(8) 0.3234(8) 0.2806(5)
C101 C 0.0567(8) 0.3468(9) 0.2273(5)
C102 C 0.0196(8) 0.4363(9) 0.2143(5)
C103 C 0.0203(8) 0.4949(8) 0.2547(5)
C104 C 0.1795(9) 0.2555(9) 0.2816(5)
loop_
_geom_bond_atom_site_label_1
_geom_bond_atom_site_label_2
_geom_bond_site_symmetry_1
_geom_bond_site_symmetry_2
S1 C2 1_555 1_555
S2 C13 1_555 1_555
C1 H1 1_555 1_555
C2 C1 1_555 1_555
C3 C2 1_555 1_555
H2 C3 1_555 1_555
C4 C3 1_555 1_555
H3 C4 1_555 1_555
C5 S1 1_555 1_555
C6 C5 1_555 1_555
C7 C6 1_555 1_555
C8 C7 1_555 1_555
H4 C8 1_555 1_555
C9 C8 1_555 1_555
H5 C9 1_555 1_555
C10 C9 1_555 1_555
H6 C10 1_555 1_555
C11 C10 1_555 1_555
H7 C11 1_555 1_555
C12 C7 1_555 1_555
H8 C12 1_555 1_555
C13 C6 1_555 1_555
C14 C13 1_555 1_555
H9 C14 1_555 1_555
C15 C14 1_555 1_555
H10 C15 1_555 1_555
C16 S2 1_555 1_555
C17 C16 1_555 1_555
H11 C17 1_555 1_555
S3 C19 1_555 1_555
S4 C30 1_555 1_555
C18 H12 1_555 1_555
C19 C18 1_555 1_555
C20 C19 1_555 1_555
H13 C20 1_555 1_555
C21 C20 1_555 1_555
H14 C21 1_555 1_555
C22 S3 1_555 1_555
C23 C22 1_555 1_555
C24 C23 1_555 1_555
C25 C24 1_555 1_555
H15 C25 1_555 1_555
C26 C25 1_555 1_555
H16 C26 1_555 1_555
C27 C26 1_555 1_555
H17 C27 1_555 1_555
C28 C27 1_555 1_555
H18 C28 1_555 1_555
C29 C24 1_555 1_555
H19 C29 1_555 1_555
C30 C23 1_555 1_555
C31 C30 1_555 1_555
H20 C31 1_555 1_555
C32 C31 1_555 1_555
H21 C32 1_555 1_555
C33 S4 1_555 1_555
C34 C33 1_555 1_555
H22 C34 1_555 1_555
C35 C36 1_555 1_555
C36 C37 1_555 1_555
C37 C38 1_555 1_555
C38 C39 1_555 1_555
C39 C40 1_555 1_555
C40 C35 1_555 1_555
C41 C40 1_555 1_555
C42 C41 1_555 1_555
C43 C42 1_555 1_555
C44 C35 1_555 1_555
C45 C44 1_555 1_555
C46 C36 1_555 1_555
C47 C46 1_555 1_555
C48 C47 1_555 1_555
C49 C37 1_555 1_555
C50 C49 1_555 1_555
C51 C38 1_555 1_555
C52 C51 1_555 1_555
C53 C52 1_555 1_555
C54 C39 1_555 1_555
C55 C54 1_555 1_555
C56 C55 1_555 1_555
C57 C53 1_555 1_555
C58 C57 1_555 1_555
C59 C58 1_555 1_555
C60 C52 1_555 1_555
C61 C60 1_555 1_555
C62 C50 1_555 1_555
C63 C62 1_555 1_555
C64 C63 1_555 1_555
C65 C61 1_555 1_555
C66 C65 1_555 1_555
C67 C59 1_555 1_555
C68 C67 1_555 1_555
C69 C58 1_555 1_555
C70 C69 1_555 1_555
C71 C56 1_555 1_555
C72 C71 1_555 1_555
C73 C72 1_555 1_555
C74 C70 1_555 1_555
C75 C74 1_555 1_555
C76 C75 1_555 1_555
C77 C76 1_555 1_555
C78 C73 1_555 1_555
C79 C78 1_555 1_555
C80 C42 1_555 1_555
C81 C72 1_555 1_555
C82 C41 1_555 1_555
C83 C79 1_555 1_555
C84 C77 1_555 1_555
C85 C84 1_555 1_555
C86 C85 1_555 1_555
C87 C86 1_555 1_555
C88 C43 1_555 1_555
C89 C45 1_555 1_555
C90 C89 1_555 1_555
C91 C86 1_555 1_555
C92 C91 1_555 1_555
C93 C92 1_555 1_555
C94 C93 1_555 1_555
C95 C47 1_555 1_555
C96 C48 1_555 1_555
C97 C64 1_555 1_555
C98 C97 1_555 1_555
C99 C66 1_555 1_555
C100 C99 1_555 1_555
C101 C76 1_555 1_555
C102 C85 1_555 1_555
C103 C92 1_555 1_555
C104 C68 1_555 1_555
S1B C2B 1_555 1_555
S2B C13B 1_555 1_555
C1B C17 1_555 1_555
H1B C1B 1_555 1_555
C2B C1B 1_555 1_555
C3B C2B 1_555 1_555
H2B C3B 1_555 1_555
C4B C3B 1_555 1_555
H3B C4B 1_555 1_555
C5B S1B 1_555 1_555
C6B C5B 1_555 1_555
C7B C6B 1_555 1_555
C8B C7B 1_555 1_555
H4B C8B 1_555 1_555
C9B C8B 1_555 1_555
H5B C9B 1_555 1_555
C10B C9B 1_555 1_555
H6B C10B 1_555 1_555
C11B C10B 1_555 1_555
H7B C11B 1_555 1_555
C12B C7B 1_555 1_555
H8B C12B 1_555 1_555
C13B C6B 1_555 1_555
C14B C13B 1_555 1_555
H9B C14B 1_555 1_555
C15B C14B 1_555 1_555
H10B C15B 1_555 1_555
C16B S2B 1_555 1_555
C17B C1 1_555 1_555
H11B C17B 1_555 1_555
S3B C19B 1_555 1_555
S4B C30B 1_555 1_555
C18B C34 1_555 1_555
H12B C18B 1_555 1_555
C19B C18B 1_555 1_555
C20B C19B 1_555 1_555
H13B C20B 1_555 1_555
C21B C20B 1_555 1_555
H14B C21B 1_555 1_555
C22B S3B 1_555 1_555
C23B C22B 1_555 1_555
C24B C23B 1_555 1_555
C25B C24B 1_555 1_555
H15B C25B 1_555 1_555
C26B C25B 1_555 1_555
H16B C26B 1_555 1_555
C27B C26B 1_555 1_555
H17B C27B 1_555 1_555
C28B C27B 1_555 1_555
H18B C28B 1_555 1_555
C29B C24B 1_555 1_555
H19B C29B 1_555 1_555
C30B C23B 1_555 1_555
C31B C30B 1_555 1_555
H20B C31B 1_555 1_555
C32B C31B 1_555 1_555
H21B C32B 1_555 1_555
C33B S4B 1_555 1_555
C34B C18 1_555 1_555
H22B C34B 1_555 1_555
C4 C5 1_555 1_555
C11 C12 1_555 1_555
C15 C16 1_555 1_555
C21 C22 1_555 1_555
C28 C29 1_555 1_555
C32 C33 1_555 1_555
C43 C44 1_555 1_555
C45 C46 1_555 1_555
C48 C49 1_555 1_555
C50 C51 1_555 1_555
C53 C54 1_555 1_555
C55 C82 1_555 1_555
C56 C57 1_555 1_555
C59 C60 1_555 1_555
C61 C62 1_555 1_555
C63 C96 1_555 1_555
C64 C65 1_555 1_555
C66 C67 1_555 1_555
C68 C69 1_555 1_555
C70 C71 1_555 1_555
C73 C74 1_555 1_555
C75 C104 1_555 1_555
C77 C78 1_555 1_555
C79 C80 1_555 1_555
C80 C81 1_555 1_555
C81 C82 1_555 1_555
C83 C84 1_555 1_555
C83 C88 1_555 1_555
C87 C88 1_555 1_555
C87 C89 1_555 1_555
C90 C91 1_555 1_555
C90 C95 1_555 1_555
C93 C97 1_555 1_555
C94 C95 1_555 1_555
C94 C96 1_555 1_555
C98 C99 1_555 1_555
C98 C103 1_555 1_555
C100 C101 1_555 1_555
C100 C104 1_555 1_555
C101 C102 1_555 1_555
C102 C103 1_555 1_555
C4B C5B 1_555 1_555
C11B C12B 1_555 1_555
C15B C16B 1_555 1_555
C16B C17B 1_555 1_555
C21B C22B 1_555 1_555
C28B C29B 1_555 1_555
C32B C33B 1_555 1_555
C33B C34B 1_555 1_555

#END
