
#######################################################################
#
#                 Cambridge Crystallographic Data Centre
#                                CCDC 
#
#######################################################################
#
# If this CIF has been generated from an entry in the Cambridge 
# Structural Database, then it will include bibliographic, chemical, 
# crystal, experimental, refinement or atomic coordinate data resulting 
# from the CCDC's data processing and validation procedures.
#
#######################################################################

data_IFOREC
_chemical_name_common            
9,9'-(5-Methyl-1,3-phenylene)bis(9H-carbazole)
_chemical_formula_moiety         'C31 H22 N2'
_chemical_name_systematic        9-[3-(Carbazol-9-yl)-5-methylphenyl]carbazole
_symmetry_cell_setting           monoclinic
_symmetry_space_group_name_H-M   'P 21/n'
_symmetry_Int_Tables_number      14
_space_group_name_Hall           '-P 2yn'
loop_
_symmetry_equiv_pos_site_id
_symmetry_equiv_pos_as_xyz
1 x,y,z
2 1/2-x,1/2+y,1/2-z
3 -x,-y,-z
4 1/2+x,1/2-y,1/2+z
_cell_length_a                   9.25030(10)
_cell_length_b                   29.3854(4)
_cell_length_c                   16.2616(2)
_cell_angle_alpha                90
_cell_angle_beta                 96.9010(10)
_cell_angle_gamma                90
_cell_volume                     4388.27
_exptl_crystal_colour            colorless
_exptl_crystal_description       block
_cell_formula_units_Z            8
loop_
_atom_site_label
_atom_site_type_symbol
_atom_site_fract_x
_atom_site_fract_y
_atom_site_fract_z
N1 N 0.27690(14) 0.62649(4) 0.76286(8)
N2 N 0.33297(14) 0.47722(4) 0.89106(8)
C1 C 0.41194(17) 0.64001(5) 0.74124(9)
C2 C 0.52539(18) 0.61396(6) 0.71889(10)
H1 H 0.5201 0.5817 0.7181
C3 C 0.64689(19) 0.63649(7) 0.69772(10)
H2 H 0.7256 0.6193 0.6814
C4 C 0.6567(2) 0.68386(7) 0.69976(11)
H3 H 0.7417 0.6984 0.6852
C5 C 0.5443(2) 0.70945(6) 0.72263(10)
H4 H 0.5512 0.7417 0.7241
C6 C 0.41973(18) 0.68787(5) 0.74376(9)
C7 C 0.28475(19) 0.70389(6) 0.76935(10)
C8 C 0.2317(2) 0.74691(6) 0.78619(11)
H5 H 0.2878 0.7734 0.7793
C9 C 0.0967(2) 0.75024(7) 0.81284(11)
H6 H 0.0606 0.7793 0.8258
C10 C 0.0120(2) 0.71195(7) 0.82116(11)
H7 H -0.0820 0.7154 0.8382
C11 C 0.06163(19) 0.66884(6) 0.80515(11)
H8 H 0.0038 0.6426 0.8114
C12 C 0.19901(18) 0.66530(5) 0.77966(10)
C13 C 0.22740(16) 0.58089(5) 0.77080(9)
C14 C 0.09856(17) 0.56694(6) 0.72562(10)
H9 H 0.0448 0.5877 0.6890
C15 C 0.04736(17) 0.52304(6) 0.73321(10)
C16 C 0.12611(17) 0.49316(6) 0.78761(10)
H10 H 0.0922 0.4629 0.7933
C17 C 0.25452(16) 0.50739(5) 0.83373(9)
C18 C 0.30585(16) 0.55118(5) 0.82526(9)
H11 H 0.3940 0.5608 0.8565
C19 C 0.27761(17) 0.45455(5) 0.95570(9)
C20 C 0.14002(18) 0.45643(6) 0.98060(10)
H12 H 0.0660 0.4751 0.9526
C21 C 0.1141(2) 0.43014(7) 1.04771(11)
H13 H 0.0208 0.4310 1.0665
C22 C 0.2218(2) 0.40240(7) 1.08835(11)
H14 H 0.2004 0.3844 1.1338
C23 C 0.35877(19) 0.40069(6) 1.06370(10)
H15 H 0.4317 0.3816 1.0917
C24 C 0.38880(17) 0.42728(5) 0.99720(9)
C25 C 0.51718(17) 0.43418(5) 0.95646(10)
C26 C 0.65750(18) 0.41636(6) 0.96810(11)
H16 H 0.6850 0.3955 1.0118
C27 C 0.75564(19) 0.42934(6) 0.91567(12)
H17 H 0.8517 0.4173 0.9232
C28 C 0.7160(2) 0.45993(7) 0.85166(12)
H18 H 0.7860 0.4685 0.8163
C29 C 0.57758(19) 0.47825(6) 0.83807(11)
H19 H 0.5511 0.4989 0.7939
C30 C 0.47897(17) 0.46520(5) 0.89147(10)
C31 C -0.0906(2) 0.50771(8) 0.68137(13)
H20 H -0.0960 0.5216 0.6263
H21 H -0.1752 0.5171 0.7082
H22 H -0.0901 0.4745 0.6761
N3 N 0.57996(13) 0.61483(4) 0.44472(8)
N4 N 0.16834(14) 0.66661(4) 0.25357(8)
C32 C 0.71967(16) 0.62901(5) 0.47688(9)
C33 C 0.77012(18) 0.67215(6) 0.49994(10)
H23 H 0.7071 0.6978 0.4953
C34 C 0.91550(18) 0.67640(6) 0.52998(11)
H24 H 0.9522 0.7055 0.5471
C35 C 1.01002(18) 0.63939(6) 0.53595(11)
H25 H 1.1094 0.6435 0.5573
C36 C 0.95993(17) 0.59695(6) 0.51104(10)
H26 H 1.0247 0.5717 0.5141
C37 C 0.81306(17) 0.59115(5) 0.48111(9)
C38 C 0.72705(17) 0.55249(6) 0.45035(9)
C39 C 0.75808(19) 0.50671(6) 0.44074(11)
H27 H 0.8549 0.4958 0.4534
C40 C 0.6475(2) 0.47731(6) 0.41274(11)
H28 H 0.6679 0.4459 0.4060
C41 C 0.50542(19) 0.49329(6) 0.39419(10)
H29 H 0.4300 0.4723 0.3761
C42 C 0.47147(18) 0.53863(6) 0.40137(10)
H30 H 0.3746 0.5493 0.3879
C43 C 0.58400(17) 0.56821(5) 0.42906(9)
C44 C 0.45648(16) 0.64348(5) 0.42645(9)
C45 C 0.37372(16) 0.64064(5) 0.34928(9)
H31 H 0.3985 0.6195 0.3090
C46 C 0.25485(16) 0.66907(5) 0.33223(9)
C47 C 0.22033(17) 0.70061(5) 0.39003(10)
H32 H 0.1394 0.7203 0.3769
C48 C 0.30322(16) 0.70377(5) 0.46735(10)
C49 C 0.41995(16) 0.67422(5) 0.48516(9)
H33 H 0.4754 0.6751 0.5382
C50 C 0.21311(17) 0.67856(5) 0.17760(9)
C51 C 0.34967(18) 0.69130(6) 0.15945(10)
H34 H 0.4302 0.6931 0.2015
C52 C 0.3645(2) 0.70125(6) 0.07790(11)
H35 H 0.4574 0.7097 0.0635
C53 C 0.2460(2) 0.69919(6) 0.01607(11)
H36 H 0.2591 0.7067 -0.0394
C54 C 0.11100(19) 0.68644(6) 0.03460(10)
H37 H 0.0309 0.6849 -0.0078
C55 C 0.09246(17) 0.67578(5) 0.11612(9)
C56 C -0.02945(17) 0.66053(5) 0.15654(9)
C57 C -0.17423(17) 0.64988(5) 0.12858(10)
H38 H -0.2104 0.6531 0.0717
C58 C -0.26369(18) 0.63463(6) 0.18442(10)
H39 H -0.3625 0.6276 0.1659
C59 C -0.21114(18) 0.62944(6) 0.26783(10)
H40 H -0.2747 0.6185 0.3051
C60 C -0.06856(17) 0.63980(5) 0.29759(10)
H41 H -0.0333 0.6364 0.3546
C61 C 0.02111(16) 0.65531(5) 0.24095(9)
C62 C 0.26782(18) 0.73838(6) 0.53012(11)
H42 H 0.3574 0.7538 0.5535
H43 H 0.2237 0.7231 0.5745
H44 H 0.1994 0.7608 0.5032
loop_
_geom_bond_atom_site_label_1
_geom_bond_atom_site_label_2
_geom_bond_site_symmetry_1
_geom_bond_site_symmetry_2
N1 C1 1_555 1_555
N2 C17 1_555 1_555
C1 C2 1_555 1_555
C2 H1 1_555 1_555
C3 C2 1_555 1_555
H2 C3 1_555 1_555
C4 C3 1_555 1_555
H3 C4 1_555 1_555
C5 C4 1_555 1_555
H4 C5 1_555 1_555
C6 C1 1_555 1_555
C7 C6 1_555 1_555
C8 C7 1_555 1_555
H5 C8 1_555 1_555
C9 C8 1_555 1_555
H6 C9 1_555 1_555
C10 C9 1_555 1_555
H7 C10 1_555 1_555
C11 C10 1_555 1_555
H8 C11 1_555 1_555
C12 N1 1_555 1_555
C13 N1 1_555 1_555
C14 C13 1_555 1_555
H9 C14 1_555 1_555
C15 C14 1_555 1_555
C16 C15 1_555 1_555
H10 C16 1_555 1_555
C17 C16 1_555 1_555
C18 C13 1_555 1_555
H11 C18 1_555 1_555
C19 N2 1_555 1_555
C20 C19 1_555 1_555
H12 C20 1_555 1_555
C21 C20 1_555 1_555
H13 C21 1_555 1_555
C22 C21 1_555 1_555
H14 C22 1_555 1_555
C23 C22 1_555 1_555
H15 C23 1_555 1_555
C24 C19 1_555 1_555
C25 C24 1_555 1_555
C26 C25 1_555 1_555
H16 C26 1_555 1_555
C27 C26 1_555 1_555
H17 C27 1_555 1_555
C28 C27 1_555 1_555
H18 C28 1_555 1_555
C29 C28 1_555 1_555
H19 C29 1_555 1_555
C30 N2 1_555 1_555
C31 C15 1_555 1_555
H20 C31 1_555 1_555
H21 C31 1_555 1_555
H22 C31 1_555 1_555
N3 C32 1_555 1_555
N4 C46 1_555 1_555
C32 C33 1_555 1_555
C33 H23 1_555 1_555
C34 C33 1_555 1_555
H24 C34 1_555 1_555
C35 C34 1_555 1_555
H25 C35 1_555 1_555
C36 C35 1_555 1_555
H26 C36 1_555 1_555
C37 C32 1_555 1_555
C38 C37 1_555 1_555
C39 C38 1_555 1_555
H27 C39 1_555 1_555
C40 C39 1_555 1_555
H28 C40 1_555 1_555
C41 C40 1_555 1_555
H29 C41 1_555 1_555
C42 C41 1_555 1_555
H30 C42 1_555 1_555
C43 N3 1_555 1_555
C44 N3 1_555 1_555
C45 C44 1_555 1_555
H31 C45 1_555 1_555
C46 C45 1_555 1_555
C47 C46 1_555 1_555
H32 C47 1_555 1_555
C48 C47 1_555 1_555
C49 C44 1_555 1_555
H33 C49 1_555 1_555
C50 N4 1_555 1_555
C51 C50 1_555 1_555
H34 C51 1_555 1_555
C52 C51 1_555 1_555
H35 C52 1_555 1_555
C53 C52 1_555 1_555
H36 C53 1_555 1_555
C54 C53 1_555 1_555
H37 C54 1_555 1_555
C55 C50 1_555 1_555
C56 C55 1_555 1_555
C57 C56 1_555 1_555
H38 C57 1_555 1_555
C58 C57 1_555 1_555
H39 C58 1_555 1_555
C59 C58 1_555 1_555
H40 C59 1_555 1_555
C60 C59 1_555 1_555
H41 C60 1_555 1_555
C61 N4 1_555 1_555
C62 C48 1_555 1_555
H42 C62 1_555 1_555
H43 C62 1_555 1_555
H44 C62 1_555 1_555
C5 C6 1_555 1_555
C7 C12 1_555 1_555
C11 C12 1_555 1_555
C17 C18 1_555 1_555
C23 C24 1_555 1_555
C25 C30 1_555 1_555
C29 C30 1_555 1_555
C36 C37 1_555 1_555
C38 C43 1_555 1_555
C42 C43 1_555 1_555
C48 C49 1_555 1_555
C54 C55 1_555 1_555
C56 C61 1_555 1_555
C60 C61 1_555 1_555

#END
