
#######################################################################
#
#                 Cambridge Crystallographic Data Centre
#                                CCDC 
#
#######################################################################
#
# If this CIF has been generated from an entry in the Cambridge 
# Structural Database, then it will include bibliographic, chemical, 
# crystal, experimental, refinement or atomic coordinate data resulting 
# from the CCDC's data processing and validation procedures.
#
#######################################################################

data_IFOVEF
_chemical_formula_moiety         'C32 H32 O8,3(C12 H8 N2),3(H2 O1)'
_chemical_name_systematic        
'(2,8,14,20-Tetramethyl-4,6,10,12,16,18,22,24-octahydroxycalix[4]arene) tris(1,10-phenanthroline) trihydrate'
_symmetry_cell_setting           orthorhombic
_symmetry_space_group_name_H-M   'P n n a'
_symmetry_Int_Tables_number      52
_space_group_name_Hall           '-P 2a 2bc'
loop_
_symmetry_equiv_pos_site_id
_symmetry_equiv_pos_as_xyz
1 x,y,z
2 1/2-x,-y,z
3 1/2-x,1/2+y,1/2-z
4 x,1/2-y,1/2-z
5 -x,-y,-z
6 1/2+x,y,-z
7 1/2+x,1/2-y,1/2+z
8 -x,1/2+y,1/2+z
_cell_length_a                   20.9968(6)
_cell_length_b                   18.4732(4)
_cell_length_c                   14.6674(3)
_cell_angle_alpha                90
_cell_angle_beta                 90
_cell_angle_gamma                90
_cell_volume                     5689.16
_exptl_crystal_colour            yellow
_exptl_crystal_description       block
_cell_formula_units_Z            4
_exptl_crystal_recrystallization_method ethanol
loop_
_atom_site_label
_atom_site_type_symbol
_atom_site_fract_x
_atom_site_fract_y
_atom_site_fract_z
O1 O 0.14025(4) 0.09779(5) 0.61329(6)
H1 H 0.1459 0.0679 0.6538
O2 O 0.36865(4) 0.10814(5) 0.61325(6)
H2 H 0.3655 0.0773 0.6532
O3 O 0.50801(4) 0.12545(5) 0.39297(6)
H3 H 0.5462 0.1163 0.3912
O4 O 0.49999(4) -0.13457(5) 0.39217(6)
H4 H 0.5387 -0.1287 0.3903
C2 C 0.13727(6) 0.17854(7) 0.33523(9)
H5 H 0.0959 0.1829 0.3078
H6 H 0.1649 0.1520 0.2952
H7 H 0.1546 0.2259 0.3456
C3 C 0.13148(6) 0.13829(7) 0.42660(9)
C4 C 0.19490(6) 0.12876(6) 0.47547(9)
C5 C 0.25354(6) 0.13915(7) 0.43201(9)
H8 H 0.2533 0.1514 0.3705
C6 C 0.31250(6) 0.13218(6) 0.47543(9)
C7 C 0.31163(6) 0.11459(7) 0.56825(9)
C8 C 0.25440(6) 0.10334(7) 0.61425(9)
H9 H 0.2547 0.0917 0.6759
C9 C 0.19664(6) 0.10960(7) 0.56771(9)
C10 C 0.36931(6) 0.17796(7) 0.33302(9)
H10 H 0.3489 0.2240 0.3416
H11 H 0.3442 0.1488 0.2925
H12 H 0.4108 0.1852 0.3072
C11 C 0.37573(6) 0.13943(7) 0.42534(9)
H13 H 0.4037 0.1692 0.4635
C12 C 0.40818(6) 0.06597(7) 0.41333(8)
C13 C 0.47397(6) 0.06199(7) 0.39747(8)
C14 C 0.50448(6) -0.00443(7) 0.38780(8)
H14 H 0.5478 -0.0060 0.3748
C15 C 0.47034(6) -0.06842(7) 0.39750(8)
C16 C 0.09563(6) 0.06717(7) 0.41366(8)
C17 C 0.37510(6) 0.00047(6) 0.41997(8)
H15 H 0.3313 0.0021 0.4291
H26 H 0.1055(8) 0.1692(9) 0.4659(11)
O1A O 0.35975(4) -0.09779(5) 0.61329(6)
H1A H 0.3541 -0.0679 0.6538
O2A O 0.13135(4) -0.10814(5) 0.61325(6)
H2A H 0.1345 -0.0773 0.6532
O3A O -0.00801(4) -0.12545(5) 0.39297(6)
H3A H -0.0462 -0.1163 0.3912
O4A O 0.00001(4) 0.13457(5) 0.39217(6)
H4A H -0.0387 0.1287 0.3903
C2A C 0.36273(6) -0.17854(7) 0.33523(9)
H5A H 0.4041 -0.1829 0.3078
H6A H 0.3351 -0.1520 0.2952
H7A H 0.3454 -0.2259 0.3456
C3A C 0.36852(6) -0.13829(7) 0.42660(9)
C4A C 0.30510(6) -0.12876(6) 0.47547(9)
C5A C 0.24646(6) -0.13915(7) 0.43201(9)
H8A H 0.2467 -0.1514 0.3705
C6A C 0.18750(6) -0.13218(6) 0.47543(9)
C7A C 0.18837(6) -0.11459(7) 0.56825(9)
C8A C 0.24560(6) -0.10334(7) 0.61425(9)
H9A H 0.2453 -0.0917 0.6759
C9A C 0.30336(6) -0.10960(7) 0.56771(9)
C10A C 0.13069(6) -0.17796(7) 0.33302(9)
H10A H 0.1511 -0.2240 0.3416
H11A H 0.1558 -0.1488 0.2925
H12A H 0.0892 -0.1852 0.3072
C11A C 0.12427(6) -0.13943(7) 0.42534(9)
H13A H 0.0963 -0.1692 0.4635
C12A C 0.09182(6) -0.06597(7) 0.41333(8)
C13A C 0.02603(6) -0.06199(7) 0.39747(8)
C14A C -0.00448(6) 0.00443(7) 0.38780(8)
H14A H -0.0478 0.0060 0.3748
C15A C 0.02966(6) 0.06842(7) 0.39750(8)
C16A C 0.40437(6) -0.06717(7) 0.41366(8)
C17A C 0.12490(6) -0.00047(6) 0.41997(8)
H15A H 0.1687 -0.0021 0.4291
H26A H 0.3945(8) -0.1692(9) 0.4659(11)
O5 O 0.35044(5) -0.00046(6) 0.74930(7)
H28 H 0.3797(10) -0.0195(13) 0.7920(16)
H30 H 0.3125(8) 0.0032(12) 0.7800(16)
N1 N 0.07763(6) 0.08353(6) 0.86805(8)
N2 N 0.09685(6) -0.04657(7) 0.95540(9)
C18 C 0.06666(7) 0.14612(8) 0.82675(10)
H16 H 0.0724 0.1483 0.7639
C19 C 0.04703(7) 0.20908(8) 0.87162(11)
H17 H 0.0389 0.2513 0.8391
C20 C 0.04011(7) 0.20724(8) 0.96425(10)
H18 H 0.0273 0.2484 0.9958
C21 C 0.05265(6) 0.14236(8) 1.01146(9)
C22 C 0.07037(6) 0.08056(7) 0.95983(9)
C23 C 0.08064(6) 0.01208(7) 1.00593(10)
C24 C 0.07281(7) 0.00976(8) 1.10203(10)
C25 C 0.08167(7) -0.05742(9) 1.14568(11)
H19 H 0.0767 -0.0615 1.2085
C26 C 0.09760(7) -0.11635(9) 1.09476(12)
H20 H 0.1035 -0.1612 1.1223
C27 C 0.10497(7) -0.10845(8) 1.00030(12)
H21 H 0.1163 -0.1492 0.9668
C28 C 0.05632(8) 0.07366(9) 1.15156(10)
H22 H 0.0519 0.0713 1.2146
C29 C 0.04703(8) 0.13731(9) 1.10857(10)
H23 H 0.0369 0.1783 1.1423
C1 C 0.24580(6) 0.03902(8) 0.95454(10)
C30 C 0.22920(8) 0.18609(9) 0.95323(13)
H24 H 0.2233 0.2359 0.9501
C31 C 0.23598(8) 0.14476(9) 0.87377(12)
H25 H 0.2347 0.1687 0.8181
N3 N 0.24414(6) 0.07346(7) 0.87298(9)
C32 C 0.23143(8) 0.15140(10) 1.03548(13)
C33 C 0.24019(7) 0.07581(9) 1.03858(11)
C34 C 0.24488(8) 0.03597(11) 1.12239(12)
H27 H 0.2407(11) 0.0619(13) 1.1802(18)
H29 H 0.2292(11) 0.1754(13) 1.0914(16)
C1A C 0.25420(6) -0.03902(8) 0.95454(10)
C30A C 0.27080(8) -0.18609(9) 0.95323(13)
H24A H 0.2767 -0.2359 0.9501
C31A C 0.26402(8) -0.14476(9) 0.87377(12)
H25A H 0.2653 -0.1687 0.8181
N3A N 0.25586(6) -0.07346(7) 0.87298(9)
C32A C 0.26857(8) -0.15140(10) 1.03548(13)
C33A C 0.25981(7) -0.07581(9) 1.03858(11)
C34A C 0.25512(8) -0.03597(11) 1.12239(12)
H27A H 0.2593(11) -0.0619(13) 1.1802(18)
H29A H 0.2708(11) -0.1754(13) 1.0914(16)
O6 O 0.37875(12) 0.14469(13) 0.78657(17)
O7? O 0.4052(5) 0.2182(4) 0.7912(5)
O8? O 0.3801(5) 0.2364(5) 0.7748(5)
loop_
_geom_bond_atom_site_label_1
_geom_bond_atom_site_label_2
_geom_bond_site_symmetry_1
_geom_bond_site_symmetry_2
O1 H1 1_555 1_555
O2 H2 1_555 1_555
O3 H3 1_555 1_555
O4 H4 1_555 1_555
O5 H28 1_555 1_555
N1 C18 1_555 1_555
N2 C23 1_555 1_555
C1 N3 1_555 1_555
C2 H5 1_555 1_555
H6 C2 1_555 1_555
H7 C2 1_555 1_555
C3 C2 1_555 1_555
C4 C3 1_555 1_555
C5 C4 1_555 1_555
H8 C5 1_555 1_555
C6 C5 1_555 1_555
C7 O2 1_555 1_555
C8 C7 1_555 1_555
H9 C8 1_555 1_555
C9 O1 1_555 1_555
C10 H10 1_555 1_555
H11 C10 1_555 1_555
H12 C10 1_555 1_555
C11 C6 1_555 1_555
H13 C11 1_555 1_555
C12 C11 1_555 1_555
C13 O3 1_555 1_555
C14 C13 1_555 1_555
H14 C14 1_555 1_555
C15 O4 1_555 1_555
C16 C3 1_555 1_555
C17 C12 1_555 1_555
H15 C17 1_555 1_555
C18 H16 1_555 1_555
C19 C18 1_555 1_555
H17 C19 1_555 1_555
C20 C19 1_555 1_555
H18 C20 1_555 1_555
C21 C20 1_555 1_555
C22 N1 1_555 1_555
C23 C22 1_555 1_555
C24 C23 1_555 1_555
C25 C24 1_555 1_555
H19 C25 1_555 1_555
C26 C25 1_555 1_555
H20 C26 1_555 1_555
C27 N2 1_555 1_555
H21 C27 1_555 1_555
C28 C24 1_555 1_555
H22 C28 1_555 1_555
C29 C21 1_555 1_555
H23 C29 1_555 1_555
C30 H24 1_555 1_555
C31 C30 1_555 1_555
H25 C31 1_555 1_555
N3 C31 1_555 1_555
C32 C30 1_555 1_555
C33 C1 1_555 1_555
C34 C33 1_555 1_555
H26 C3 1_555 1_555
H27 C34 1_555 1_555
H29 C32 1_555 1_555
H30 O5 1_555 1_555
O1A H1A 1_555 1_555
O2A H2A 1_555 1_555
O3A H3A 1_555 1_555
O4A H4A 1_555 1_555
C1A C1 1_555 1_555
C2A H5A 1_555 1_555
H6A C2A 1_555 1_555
H7A C2A 1_555 1_555
C3A C2A 1_555 1_555
C4A C3A 1_555 1_555
C5A C4A 1_555 1_555
H8A C5A 1_555 1_555
C6A C5A 1_555 1_555
C7A O2A 1_555 1_555
C8A C7A 1_555 1_555
H9A C8A 1_555 1_555
C9A O1A 1_555 1_555
C10A H10A 1_555 1_555
H11A C10A 1_555 1_555
H12A C10A 1_555 1_555
C11A C6A 1_555 1_555
H13A C11A 1_555 1_555
C12A C11A 1_555 1_555
C13A O3A 1_555 1_555
C14A C13A 1_555 1_555
H14A C14A 1_555 1_555
C15A C16 1_555 1_555
C16A C15 1_555 1_555
C17A C16 1_555 1_555
H15A C17A 1_555 1_555
C30A H24A 1_555 1_555
C31A C30A 1_555 1_555
H25A C31A 1_555 1_555
N3A C1A 1_555 1_555
C32A C30A 1_555 1_555
C33A C1A 1_555 1_555
C34A C34 1_555 1_555
H26A C3A 1_555 1_555
H27A C34A 1_555 1_555
H29A C32A 1_555 1_555
C4 C9 1_555 1_555
C6 C7 1_555 1_555
C8 C9 1_555 1_555
C10 C11 1_555 1_555
C12 C13 1_555 1_555
C14 C15 1_555 1_555
C17 C16A 1_555 1_555
C21 C22 1_555 1_555
C26 C27 1_555 1_555
C28 C29 1_555 1_555
C32 C33 1_555 1_555
O4A C15A 1_555 1_555
C3A C16A 1_555 1_555
C4A C9A 1_555 1_555
C6A C7A 1_555 1_555
C8A C9A 1_555 1_555
C10A C11A 1_555 1_555
C12A C13A 1_555 1_555
C12A C17A 1_555 1_555
C14A C15A 1_555 1_555
C31A N3A 1_555 1_555
C32A C33A 1_555 1_555
C33A C34A 1_555 1_555

#END
