
#######################################################################
#
#                 Cambridge Crystallographic Data Centre
#                                CCDC 
#
#######################################################################
#
# If this CIF has been generated from an entry in the Cambridge 
# Structural Database, then it will include bibliographic, chemical, 
# crystal, experimental, refinement or atomic coordinate data resulting 
# from the CCDC's data processing and validation procedures.
#
#######################################################################

data_IFOVUV
_chemical_formula_moiety         'C32 H32 O8,C12 H10 N2,H2 O1'
_chemical_name_systematic        
'(2,8,14,20-Tetramethyl-4,6,10,12,16,18,22,24-octahydroxycalix[4]arene) (1,2-bis(4-pyridyl)ethene) monohydrate'
_symmetry_cell_setting           monoclinic
_symmetry_space_group_name_H-M   'P 2/c'
_symmetry_Int_Tables_number      13
_space_group_name_Hall           '-P 2yc'
loop_
_symmetry_equiv_pos_site_id
_symmetry_equiv_pos_as_xyz
1 x,y,z
2 -x,y,1/2-z
3 -x,-y,-z
4 x,-y,1/2+z
_cell_length_a                   16.383(1)
_cell_length_b                   12.5886(8)
_cell_length_c                   18.0899(11)
_cell_angle_alpha                90
_cell_angle_beta                 94.745(2)
_cell_angle_gamma                90
_cell_volume                     3718.06
_exptl_crystal_colour            colorless
_exptl_crystal_description       plate
_cell_formula_units_Z            4
_exptl_crystal_recrystallization_method ethanol
loop_
_atom_site_label
_atom_site_type_symbol
_atom_site_fract_x
_atom_site_fract_y
_atom_site_fract_z
O1 O 0.43703(13) 0.70830(16) 0.43789(11)
O2 O 0.64138(12) 1.14490(16) 0.48429(11)
H1 H 0.6165 1.1860 0.5095
O3 O 0.56079(13) 0.94120(18) 0.30158(11)
H2 H 0.5281 0.9340 0.2651
O4 O 0.88993(13) 0.52096(17) 0.17466(11)
O5 O 0.51232(13) 0.8950(2) 0.63559(11)
H3 H 0.4938 0.9513 0.6497
O6 O 0.68892(14) 0.67013(16) 0.17281(10)
O7 O 0.75846(14) 0.25930(18) 0.31878(13)
C1 C 0.62656(18) 0.8050(2) 0.23796(14)
H4 H 0.5782 0.7921 0.2087
C2 C 0.63268(16) 0.8573(2) 0.47639(14)
H5 H 0.6518 0.8028 0.4477
C3 C 0.57797(17) 1.0188(2) 0.56135(15)
H6 H 0.5600 1.0733 0.5908
C4 C 0.84141(18) 0.6890(2) 0.26263(15)
H7 H 0.8545 0.6948 0.2109
C5 C 0.70182(17) 0.9045(2) 0.33643(14)
C6 C 0.50278(18) 0.6410(2) 0.43175(15)
C7 C 0.50309(19) 0.5749(2) 0.37008(15)
H8 H 0.4607 0.5786 0.3327
C8 C 0.70178(16) 0.9917(2) 0.39415(14)
H9 H 0.6735 1.0524 0.3697
C9 C 0.56655(18) 0.7154(2) 0.55387(15)
H10 H 0.5108 0.7151 0.5698
C10 C 0.62913(19) 0.5672(2) 0.48014(16)
H11 H 0.6721 0.5646 0.5171
C11 C 0.76900(17) 0.7616(2) 0.27230(14)
C12 C 0.63039(17) 0.8839(2) 0.29197(14)
C13 C 0.82394(17) 0.3877(2) 0.24515(15)
H12 H 0.8414 0.3340 0.2149
O8 O 0.56443(17) 0.44150(18) 0.30165(13)
H13 H 0.5715 0.3792 0.3136
C14 C 0.76961(17) 0.8419(2) 0.32527(14)
H14 H 0.8179 0.8543 0.3547
C15 C 0.6990(2) 0.4160(3) 0.41400(18)
H15 H 0.6729 0.3470 0.4035
C16 C 0.62325(17) 1.0424(2) 0.50240(15)
C17 C 0.56674(18) 0.6405(2) 0.48775(14)
C18 C 0.69590(18) 0.7462(2) 0.22865(14)
C19 C 0.65236(16) 0.9614(2) 0.45865(14)
C21 C 0.58615(17) 0.8300(2) 0.53452(15)
C22 C 0.55922(17) 0.9140(3) 0.57684(15)
C23 C 0.84447(17) 0.4930(2) 0.23121(14)
C24 C 0.81815(18) 0.5743(2) 0.27601(15)
C25 C 0.77794(19) 0.3622(2) 0.30345(16)
C26 C 0.7501(2) 0.4420(3) 0.34933(17)
C27 C 0.5665(2) 0.5040(2) 0.36464(15)
C29 C 0.7711(2) 0.5458(2) 0.33355(16)
H18 H 0.7526 0.5996 0.3632
C30 C 0.78714(17) 1.0309(2) 0.42167(15)
H19 H 0.8167 1.0501 0.3800
H20 H 0.8160 0.9755 0.4493
H21 H 0.7824 1.0918 0.4530
C31 C 0.6310(2) 0.4971(3) 0.42007(17)
C33 C 0.6238(2) 0.6802(3) 0.62071(16)
H23 H 0.6208 0.7302 0.6604
H24 H 0.6791 0.6770 0.6067
H25 H 0.6076 0.6112 0.6368
C35 C 0.7553(3) 0.4040(4) 0.4850(2)
H27 H 0.7232 0.3862 0.5254
H28 H 0.7836 0.4697 0.4958
H29 H 0.7943 0.3486 0.4787
C36 C 0.91898(19) 0.7176(3) 0.31174(17)
H30 H 0.9621 0.6691 0.3021
H31 H 0.9081 0.7128 0.3630
H32 H 0.9354 0.7887 0.3009
H43 H 0.906(2) 0.456(3) 0.147(2)
H44 H 0.398(2) 0.689(3) 0.405(2)
H45 H 0.772(2) 0.215(3) 0.281(2)
H46 H 0.722(2) 0.622(3) 0.182(2)
N1 N 1.18944(15) -0.1131(2) -0.22003(13)
N2 N 0.93981(17) 0.3522(2) 0.09818(16)
C20 C 1.20947(19) 0.0338(2) -0.13651(15)
H16 H 1.2458 0.0808 -0.1115
C28 C 1.23846(19) -0.0438(2) -0.18224(16)
H17 H 1.2945 -0.0476 -0.1867
C32 C 1.10927(19) -0.1045(3) -0.21279(17)
H22 H 1.0743 -0.1515 -0.2394
C34 C 1.07502(19) -0.0305(3) -0.16844(17)
H26 H 1.0186 -0.0284 -0.1654
C37 C 1.12604(18) 0.0411(2) -0.12822(16)
C38 C 1.0487(2) 0.2512(3) 0.0539(2)
H33 H 1.1046 0.2372 0.0557
C39 C 1.0196(2) 0.3282(3) 0.0991(2)
H34 H 1.0567 0.3649 0.1314
C40 C 0.8868(3) 0.2943(5) 0.0568(3)
H35 H 0.8312 0.3075 0.0589
C41 C 1.0945(3) 0.1168(4) -0.0750(3)
C42 C 0.9941(3) 0.1943(3) 0.0053(2)
C43 C 1.0206(3) 0.1174(5) -0.0483(3)
C44 C 0.9103(2) 0.2148(4) 0.0102(2)
H36 H 0.8710 0.1752 -0.0177
H37 H 0.983(2) 0.069(3) -0.068(2)
H38 H 1.138(2) 0.174(3) -0.055(2)
O9 O 0.5827(2) 0.2335(3) 0.2974(2)
C45? C 1.0385(11) 0.3182(14) -0.0055(10)
H39? H 1.0817 0.3403 -0.0321
C46? C 1.0038(11) 0.3872(15) 0.0442(10)
H40? H 1.0200 0.4580 0.0449
C47? C 0.9423(17) 0.197(2) 0.0199(14)
H41? H 0.9186 0.1301 0.0127
C48? C 0.9050(19) 0.270(2) 0.0675(17)
H42? H 0.8511 0.2562 0.0772
C49? C 1.0075(17) 0.218(2) -0.0138(14)
C50? C 1.040(2) 0.132(3) -0.0605(18)
C51? C 1.109(2) 0.138(3) -0.0857(19)
loop_
_geom_bond_atom_site_label_1
_geom_bond_atom_site_label_2
_geom_bond_site_symmetry_1
_geom_bond_site_symmetry_2
O1 C6 1_555 1_555
O2 H1 1_555 1_555
O3 H2 1_555 1_555
O4 C23 1_555 1_555
O5 H3 1_555 1_555
O6 C18 1_555 1_555
O7 C25 1_555 1_555
C1 H4 1_555 1_555
C2 H5 1_555 1_555
C3 H6 1_555 1_555
C4 H7 1_555 1_555
C5 C8 1_555 1_555
C6 C7 1_555 1_555
N1 C28 1_555 1_555
C7 H8 1_555 1_555
C8 H9 1_555 1_555
C9 H10 1_555 1_555
C10 H11 1_555 1_555
C11 C4 1_555 1_555
C12 O3 1_555 1_555
C13 H12 1_555 1_555
O8 H13 1_555 1_555
C14 C5 1_555 1_555
H14 C14 1_555 1_555
C15 H15 1_555 1_555
C16 O2 1_555 1_555
N2 C39 1_555 1_555
C17 C6 1_555 1_555
C18 C1 1_555 1_555
C19 C2 1_555 1_555
C20 H16 1_555 1_555
C21 C2 1_555 1_555
C22 O5 1_555 1_555
C23 C13 1_555 1_555
C24 C4 1_555 1_555
C25 C13 1_555 1_555
C26 C15 1_555 1_555
C27 C7 1_555 1_555
C28 C20 1_555 1_555
H17 C28 1_555 1_555
C29 C24 1_555 1_555
H18 C29 1_555 1_555
C30 C8 1_555 1_555
H19 C30 1_555 1_555
H20 C30 1_555 1_555
H21 C30 1_555 1_555
C31 C10 1_555 1_555
C32 N1 1_555 1_555
H22 C32 1_555 1_555
C33 C9 1_555 1_555
H23 C33 1_555 1_555
H24 C33 1_555 1_555
H25 C33 1_555 1_555
C34 C32 1_555 1_555
H26 C34 1_555 1_555
C35 C15 1_555 1_555
H27 C35 1_555 1_555
H28 C35 1_555 1_555
H29 C35 1_555 1_555
C36 C4 1_555 1_555
H30 C36 1_555 1_555
H31 C36 1_555 1_555
H32 C36 1_555 1_555
C37 C20 1_555 1_555
C38 H33 1_555 1_555
C39 C38 1_555 1_555
H34 C39 1_555 1_555
C40 N2 1_555 1_555
H35 C40 1_555 1_555
C41 C37 1_555 1_555
C42 C38 1_555 1_555
C43 C41 1_555 1_555
C44 C40 1_555 1_555
H36 C44 1_555 1_555
H37 C43 1_555 1_555
H38 C41 1_555 1_555
H43 O4 1_555 1_555
H44 O1 1_555 1_555
H45 O7 1_555 1_555
H46 O6 1_555 1_555
C1 C12 1_555 1_555
C3 C16 1_555 1_555
C3 C22 1_555 1_555
C5 C12 1_555 1_555
C8 C19 1_555 1_555
C9 C17 1_555 1_555
C9 C21 1_555 1_555
C10 C17 1_555 1_555
C11 C14 1_555 1_555
C11 C18 1_555 1_555
O8 C27 1_555 1_555
C15 C31 1_555 1_555
C16 C19 1_555 1_555
C21 C22 1_555 1_555
C23 C24 1_555 1_555
C25 C26 1_555 1_555
C26 C29 1_555 1_555
C27 C31 1_555 1_555
C34 C37 1_555 1_555
C42 C43 1_555 1_555
C42 C44 1_555 1_555

#END
