
#######################################################################
#
#                 Cambridge Crystallographic Data Centre
#                                CCDC 
#
#######################################################################
#
# If this CIF has been generated from an entry in the Cambridge 
# Structural Database, then it will include bibliographic, chemical, 
# crystal, experimental, refinement or atomic coordinate data resulting 
# from the CCDC's data processing and validation procedures.
#
#######################################################################

data_IFOWEH
_chemical_formula_moiety         'C41 H32 N6 O2 S1'
_chemical_name_systematic        
1-Allyl-6'-(1,3-diphenyl-1H-pyrazol-4-yl)-7'-(1H-indol-3-ylcarbonyl)-2-oxo-1,1',2,6',7',7a'-hexahydrospiro[indole-3,5'-pyrrolo[1,2-c][1,3]thiazole]-7'-carbonitrile
_chemical_properties_biological  'Antimicrobial activity'
_symmetry_cell_setting           monoclinic
_symmetry_space_group_name_H-M   'P 21/n'
_symmetry_Int_Tables_number      14
_space_group_name_Hall           '-P 2yn'
loop_
_symmetry_equiv_pos_site_id
_symmetry_equiv_pos_as_xyz
1 x,y,z
2 1/2-x,1/2+y,1/2-z
3 -x,-y,-z
4 1/2+x,1/2-y,1/2+z
_cell_length_a                   10.7396(10)
_cell_length_b                   16.3471(14)
_cell_length_c                   20.112(2)
_cell_angle_alpha                90
_cell_angle_beta                 105.485(4)
_cell_angle_gamma                90
_cell_volume                     3402.72
_exptl_crystal_colour            colorless
_exptl_crystal_description       block
_cell_formula_units_Z            4
loop_
_atom_site_label
_atom_site_type_symbol
_atom_site_fract_x
_atom_site_fract_y
_atom_site_fract_z
C1 C 0.4320(3) 0.18987(19) 0.66619(17)
C2 C 0.5399(4) 0.1990(2) 0.6438(2)
H1 H 0.5475 0.1718 0.6045
C3 C 0.6388(4) 0.2494(3) 0.6804(3)
H2 H 0.7128 0.2561 0.6653
C4 C 0.6281(5) 0.2889(3) 0.7378(3)
H3 H 0.6957 0.3221 0.7617
C5 C 0.5211(4) 0.2813(3) 0.7615(2)
H4 H 0.5141 0.3087 0.8009
C6 C 0.4237(4) 0.2312(2) 0.72452(19)
C7 C 0.2358(3) 0.1605(2) 0.69221(17)
C8 C 0.3155(3) 0.13548(19) 0.64258(15)
C9 C 0.2343(4) 0.2121(2) 0.53083(18)
H5 H 0.2792 0.2563 0.5597
H6 H 0.1472 0.2301 0.5084
C10 C 0.3350(3) 0.0798(2) 0.49222(17)
H7 H 0.3173 0.0440 0.4523
H8 H 0.4214 0.0687 0.5209
C11 C 0.2359(3) 0.06800(19) 0.53247(14)
H9 H 0.1510 0.0583 0.5003
C12 C 0.2648(3) -0.00061(18) 0.58780(14)
C13 C 0.3580(3) 0.04386(17) 0.64941(13)
H10 H 0.4431 0.0424 0.6402
C14 C 0.3774(3) 0.00947(18) 0.72085(14)
C15 C 0.2870(3) -0.01129(19) 0.75412(15)
H11 H 0.1981 -0.0129 0.7348
C16 C 0.4967(3) 0.00417(19) 0.77203(15)
C17 C 0.2943(3) -0.04999(18) 0.87456(15)
C18 C 0.1634(3) -0.0618(2) 0.86197(17)
H12 H 0.1106 -0.0585 0.8171
C19 C 0.1106(4) -0.0784(2) 0.9156(2)
H13 H 0.0219 -0.0861 0.9070
C20 C 0.1878(4) -0.0837(2) 0.98147(19)
H14 H 0.1520 -0.0946 1.0179
C21 C 0.3172(4) -0.0731(2) 0.99347(17)
H15 H 0.3698 -0.0770 1.0383
C22 C 0.3720(3) -0.0566(2) 0.94067(15)
H16 H 0.4609 -0.0499 0.9496
C23 C 0.6270(3) 0.0243(2) 0.76733(16)
C24 C 0.7013(4) 0.0793(3) 0.81318(19)
H17 H 0.6691 0.1022 0.8475
C25 C 0.8227(4) 0.1005(3) 0.8086(2)
H18 H 0.8719 0.1377 0.8398
C26 C 0.8714(4) 0.0672(3) 0.7582(3)
H19 H 0.9536 0.0815 0.7552
C27 C 0.7988(4) 0.0127(3) 0.7123(2)
H20 H 0.8314 -0.0096 0.6778
C28 C 0.6776(3) -0.0092(2) 0.71694(18)
H21 H 0.6292 -0.0468 0.6859
C29 C 0.3280(3) -0.07809(19) 0.56533(15)
C30 C 0.2501(3) -0.12852(19) 0.51135(16)
C31 C 0.1356(3) -0.1070(2) 0.46489(17)
H22 H 0.0976 -0.0556 0.4623
C32 C 0.2721(3) -0.21251(19) 0.49676(16)
C33 C 0.3645(3) -0.2707(2) 0.5256(2)
H23 H 0.4361 -0.2570 0.5614
C34 C 0.3477(4) -0.3495(2) 0.5000(3)
H24 H 0.4091 -0.3891 0.5190
C35 C 0.2419(5) -0.3710(3) 0.4468(3)
H25 H 0.2336 -0.4247 0.4312
C36 C 0.1504(4) -0.3159(2) 0.4171(2)
H26 H 0.0799 -0.3304 0.3809
C37 C 0.1658(3) -0.2367(2) 0.44285(18)
C38 C 0.1446(3) -0.02590(19) 0.60293(14)
N1 N 0.2303(2) 0.14115(16) 0.57223(13)
N2 N 0.0520(3) -0.04893(18) 0.61364(14)
N3 N 0.3494(2) -0.02919(15) 0.82025(12)
N4 N 0.4784(2) -0.01928(16) 0.83205(12)
N5 N 0.0868(3) -0.1700(2) 0.42411(16)
N6 N 0.3063(3) 0.2139(2) 0.73847(15)
O1 O 0.1263(2) 0.13763(15) 0.68978(12)
O2 O 0.4379(2) -0.09462(15) 0.59576(13)
S1 S 0.31860(13) 0.18539(7) 0.46628(6)
C39 C 0.2629(10) 0.2521(5) 0.7937(4)
H27 H 0.1693 0.2519 0.7825
H28 H 0.2925 0.3084 0.7999
C40 C 0.3168(9) 0.2052(6) 0.8568(3)
H29 H 0.2549 0.1675 0.8617
C41 C 0.4063(9) 0.1972(8) 0.9026(6)
H30 H 0.4784 0.2301 0.9063
H31 H 0.4066 0.1578 0.9360
H32 H 0.010(4) -0.166(2) 0.390(2)
C42? C 0.263(5) 0.227(3) 0.8005(14)
H33? H 0.3337 0.2456 0.8381
H34? H 0.2294 0.1763 0.8143
C43? C 0.161(3) 0.2890(18) 0.7835(14)
H35? H 0.1931 0.3408 0.7790
C44? C 0.035(3) 0.2896(15) 0.7732(13)
H36? H -0.0086 0.2413 0.7763
H37? H -0.0104 0.3384 0.7627
loop_
_geom_bond_atom_site_label_1
_geom_bond_atom_site_label_2
_geom_bond_site_symmetry_1
_geom_bond_site_symmetry_2
C1 C2 1_555 1_555
C2 H1 1_555 1_555
C3 C2 1_555 1_555
H2 C3 1_555 1_555
C4 C3 1_555 1_555
H3 C4 1_555 1_555
C5 C4 1_555 1_555
H4 C5 1_555 1_555
C6 C1 1_555 1_555
C7 C8 1_555 1_555
C8 C1 1_555 1_555
C9 H5 1_555 1_555
H6 C9 1_555 1_555
C10 H7 1_555 1_555
H8 C10 1_555 1_555
C11 C10 1_555 1_555
H9 C11 1_555 1_555
C12 C11 1_555 1_555
C13 C8 1_555 1_555
H10 C13 1_555 1_555
C14 C13 1_555 1_555
C15 C14 1_555 1_555
H11 C15 1_555 1_555
C16 C14 1_555 1_555
C17 C18 1_555 1_555
C18 H12 1_555 1_555
C19 C18 1_555 1_555
H13 C19 1_555 1_555
C20 C19 1_555 1_555
H14 C20 1_555 1_555
C21 C20 1_555 1_555
H15 C21 1_555 1_555
C22 C17 1_555 1_555
H16 C22 1_555 1_555
C23 C16 1_555 1_555
C24 C23 1_555 1_555
H17 C24 1_555 1_555
C25 C24 1_555 1_555
H18 C25 1_555 1_555
C26 C25 1_555 1_555
H19 C26 1_555 1_555
C27 C26 1_555 1_555
H20 C27 1_555 1_555
C28 C23 1_555 1_555
H21 C28 1_555 1_555
C29 C12 1_555 1_555
C30 C29 1_555 1_555
C31 C30 1_555 1_555
H22 C31 1_555 1_555
C32 C30 1_555 1_555
C33 C32 1_555 1_555
H23 C33 1_555 1_555
C34 C33 1_555 1_555
H24 C34 1_555 1_555
C35 C34 1_555 1_555
H25 C35 1_555 1_555
C36 C35 1_555 1_555
H26 C36 1_555 1_555
C37 C32 1_555 1_555
C38 C12 1_555 1_555
N1 C8 1_555 1_555
N2 C38 1_555 1_555
N3 C15 1_555 1_555
N4 C16 1_555 1_555
N5 C31 1_555 1_555
N6 C6 1_555 1_555
O1 C7 1_555 1_555
O2 C29 1_555 1_555
S1 C9 1_555 1_555
C39 N6 1_555 1_555
H27 C39 1_555 1_555
H28 C39 1_555 1_555
C40 C39 1_555 1_555
H29 C40 1_555 1_555
C41 C40 1_555 1_555
H30 C41 1_555 1_555
H31 C41 1_555 1_555
H32 N5 1_555 1_555
C5 C6 1_555 1_555
C7 N6 1_555 1_555
C9 N1 1_555 1_555
C10 S1 1_555 1_555
C11 N1 1_555 1_555
C12 C13 1_555 1_555
C17 N3 1_555 1_555
C21 C22 1_555 1_555
C27 C28 1_555 1_555
C36 C37 1_555 1_555
C37 N5 1_555 1_555
N3 N4 1_555 1_555

#END
