
#######################################################################
#
#                 Cambridge Crystallographic Data Centre
#                                CCDC 
#
#######################################################################
#
# If this CIF has been generated from an entry in the Cambridge 
# Structural Database, then it will include bibliographic, chemical, 
# crystal, experimental, refinement or atomic coordinate data resulting 
# from the CCDC's data processing and validation procedures.
#
#######################################################################

data_IFOWOR
_chemical_formula_moiety         'C16 H13 O3 1-,H4 N1 1+,2(H2 O1)'
_chemical_name_systematic        
'Ammonium 2-(3,4-dimethylbenzoyl)benzoate dihydrate'
_symmetry_cell_setting           triclinic
_symmetry_space_group_name_H-M   'P -1'
_symmetry_Int_Tables_number      2
_space_group_name_Hall           '-P 1'
loop_
_symmetry_equiv_pos_site_id
_symmetry_equiv_pos_as_xyz
1 x,y,z
2 -x,-y,-z
_cell_length_a                   7.5039(15)
_cell_length_b                   7.7458(15)
_cell_length_c                   14.439(3)
_cell_angle_alpha                81.63(3)
_cell_angle_beta                 79.15(3)
_cell_angle_gamma                78.67(3)
_cell_volume                     803.028
_exptl_crystal_colour            colorless
_exptl_crystal_description       block
_cell_formula_units_Z            2
loop_
_atom_site_label
_atom_site_type_symbol
_atom_site_fract_x
_atom_site_fract_y
_atom_site_fract_z
C1 C 0.8894(3) 0.3453(3) 0.37419(13)
C2 C 1.0501(3) 0.4382(2) 0.33412(13)
C3 C 1.0619(3) 0.5954(3) 0.36741(15)
H1 H 0.9645 0.6478 0.4100
C4 C 1.2161(3) 0.6742(3) 0.33795(17)
H2 H 1.2218 0.7789 0.3608
C5 C 1.3603(3) 0.5986(3) 0.27530(17)
H3 H 1.4644 0.6514 0.2560
C6 C 1.3514(3) 0.4435(3) 0.24053(16)
H4 H 1.4501 0.3921 0.1982
C7 C 1.1961(3) 0.3644(2) 0.26844(13)
C8 C 1.1918(3) 0.2019(3) 0.22316(13)
C9 C 1.0404(3) 0.2066(2) 0.16934(12)
C10 C 0.9867(3) 0.0489(3) 0.15866(13)
H5 H 1.0460 -0.0577 0.1862
C11 C 0.8476(3) 0.0471(3) 0.10814(13)
C12 C 0.7643(3) 0.2059(3) 0.06282(14)
C13 C 0.8184(3) 0.3637(3) 0.07373(14)
H6 H 0.7633 0.4702 0.0441
C14 C 0.9519(3) 0.3644(3) 0.12749(14)
H7 H 0.9825 0.4712 0.1357
C15 C 0.7866(3) -0.1259(3) 0.10343(17)
H8 H 0.8145 -0.1540 0.0391
H9 H 0.6563 -0.1148 0.1251
H10 H 0.8504 -0.2188 0.1431
C16 C 0.6165(3) 0.2111(3) 0.00431(17)
H11 H 0.5107 0.1731 0.0444
H12 H 0.6623 0.1335 -0.0442
H13 H 0.5823 0.3298 -0.0245
O1 O 1.3187(2) 0.07641(19) 0.22420(10)
O2 O 0.91984(18) 0.17891(17) 0.37486(9)
O3 O 0.7384(2) 0.4340(2) 0.40630(12)
N1 N 0.5486(2) 0.7384(2) 0.49120(13)
H14 H 0.6138 0.7907 0.5245
H15 H 0.6234 0.6452 0.4616
H16 H 0.4464 0.6937 0.5318
H17 H 0.5135 0.8306 0.4423
O4 O 0.7770(2) 0.9592(2) 0.53226(11)
H18 H 0.8648 0.9304 0.5697
H19 H 0.8282 1.0201 0.4789
O5 O 0.6084(2) 0.0140(3) 0.33873(12)
H20 H 0.5287 0.0395 0.3001
H21 H 0.6978 0.0708 0.3198
loop_
_geom_bond_atom_site_label_1
_geom_bond_atom_site_label_2
_geom_bond_site_symmetry_1
_geom_bond_site_symmetry_2
C1 C2 1_555 1_555
C2 C3 1_555 1_555
C3 H1 1_555 1_555
C4 C3 1_555 1_555
H2 C4 1_555 1_555
C5 C4 1_555 1_555
H3 C5 1_555 1_555
C6 C5 1_555 1_555
H4 C6 1_555 1_555
C7 C2 1_555 1_555
C8 C7 1_555 1_555
C9 C8 1_555 1_555
C10 C9 1_555 1_555
H5 C10 1_555 1_555
C11 C10 1_555 1_555
C12 C11 1_555 1_555
C13 C12 1_555 1_555
H6 C13 1_555 1_555
C14 C9 1_555 1_555
H7 C14 1_555 1_555
C15 C11 1_555 1_555
H8 C15 1_555 1_555
H9 C15 1_555 1_555
H10 C15 1_555 1_555
C16 C12 1_555 1_555
H11 C16 1_555 1_555
H12 C16 1_555 1_555
H13 C16 1_555 1_555
O1 C8 1_555 1_555
O2 C1 1_555 1_555
O3 C1 1_555 1_555
N1 H14 1_555 1_555
H15 N1 1_555 1_555
H16 N1 1_555 1_555
H17 N1 1_555 1_555
O4 H18 1_555 1_555
H19 O4 1_555 1_555
O5 H20 1_555 1_555
H21 O5 1_555 1_555
C6 C7 1_555 1_555
C13 C14 1_555 1_555

#END
