
#######################################################################
#
#                 Cambridge Crystallographic Data Centre
#                                CCDC 
#
#######################################################################
#
# If this CIF has been generated from an entry in the Cambridge 
# Structural Database, then it will include bibliographic, chemical, 
# crystal, experimental, refinement or atomic coordinate data resulting 
# from the CCDC's data processing and validation procedures.
#
#######################################################################

data_IFUGUL
_chemical_formula_moiety         'C20 H36 P6'
_chemical_name_systematic        
2,3a,5,7-Tetra-t-butyl-3aH,5H-1,4,5-phosphanetriyl(1,2,4)triphospholo(1,5-a)(1,3,5)triphosphinine
_symmetry_cell_setting           triclinic
_symmetry_space_group_name_H-M   'P -1'
_symmetry_Int_Tables_number      2
_space_group_name_Hall           '-P 1'
loop_
_symmetry_equiv_pos_site_id
_symmetry_equiv_pos_as_xyz
1 x,y,z
2 -x,-y,-z
_cell_length_a                   10.050(1)
_cell_length_b                   11.118(1)
_cell_length_c                   12.003(2)
_cell_angle_alpha                92.37(1)
_cell_angle_beta                 102.43(1)
_cell_angle_gamma                104.83(1)
_cell_volume                     1259.48
_exptl_crystal_colour            yellow
_cell_formula_units_Z            2
_exptl_crystal_recrystallization_method n-hexane
loop_
_atom_site_label
_atom_site_type_symbol
_atom_site_fract_x
_atom_site_fract_y
_atom_site_fract_z
P1 P 0.01250(7) -0.63041(6) -0.85330(5)
P2 P -0.01397(7) -0.78925(6) -0.62960(6)
P3 P 0.06898(7) -0.50290(6) -0.69909(5)
P4 P -0.14691(7) -0.50990(6) -0.67626(5)
P5 P -0.23438(7) -0.53515(6) -0.93787(5)
P6 P -0.26705(7) -0.69687(6) -0.75724(5)
C1 C 0.0823(3) -0.6708(2) -0.7051(2)
C2 C -0.1857(3) -0.7931(2) -0.6605(2)
C3 C -0.2015(3) -0.4454(2) -0.8134(2)
C4 C -0.1855(2) -0.6797(2) -0.88367(19)
C5 C 0.2406(3) -0.6781(3) -0.6851(2)
C6 C 0.2403(4) -0.8054(3) -0.7396(3)
C7 C 0.3341(3) -0.5754(4) -0.7387(3)
C8 C 0.3077(3) -0.6634(4) -0.5557(3)
C9 C -0.2877(3) -0.8799(2) -0.5999(2)
C10 C -0.2171(4) -0.9619(3) -0.5222(3)
C11 C -0.3465(4) -0.7980(3) -0.5281(3)
C12 C -0.4122(3) -0.9659(3) -0.6897(3)
C13 C -0.2261(3) -0.3155(2) -0.8089(2)
C14 C -0.3593(4) -0.3239(3) -0.7637(3)
C15 C -0.2483(4) -0.2690(3) -0.9283(3)
C16 C -0.0980(4) -0.2236(3) -0.7277(3)
C17 C -0.2483(3) -0.7917(2) -0.9819(2)
C18 C -0.4096(3) -0.8283(3) -1.0088(3)
C19 C -0.2020(4) -0.7555(3) -1.0927(2)
C20 C -0.1963(4) -0.9053(3) -0.9451(3)
H1 H 0.201(4) -0.811(4) -0.819(4)
H2 H 0.175(4) -0.876(4) -0.713(3)
H3 H 0.335(4) -0.813(4) -0.727(3)
H4 H 0.428(4) -0.589(4) -0.726(3)
H5 H 0.336(4) -0.489(4) -0.701(3)
H6 H 0.300(4) -0.580(4) -0.817(4)
H7 H 0.304(4) -0.582(4) -0.523(3)
H8 H 0.261(4) -0.735(4) -0.515(3)
H9 H 0.412(4) -0.664(4) -0.537(3)
H10 H -0.281(4) -1.013(4) -0.486(3)
H11 H -0.174(4) -1.018(4) -0.565(3)
H12 H -0.139(4) -0.916(4) -0.466(4)
H13 H -0.273(4) -0.752(4) -0.468(4)
H14 H -0.413(4) -0.846(4) -0.490(3)
H15 H -0.397(4) -0.739(4) -0.578(3)
H16 H -0.477(4) -1.019(4) -0.649(3)
H17 H -0.380(4) -1.016(4) -0.729(4)
H18 H -0.464(4) -0.922(4) -0.746(3)
H19 H -0.442(4) -0.379(4) -0.817(4)
H20 H -0.370(4) -0.242(4) -0.753(3)
H21 H -0.352(4) -0.355(4) -0.684(3)
H22 H -0.339(4) -0.323(4) -0.983(3)
H23 H -0.259(4) -0.185(4) -0.926(3)
H24 H -0.166(4) -0.261(4) -0.960(3)
H25 H -0.084(4) -0.239(4) -0.646(4)
H26 H -0.112(4) -0.140(4) -0.729(3)
H27 H -0.016(4) -0.217(4) -0.761(3)
H28 H -0.444(4) -0.894(4) -1.063(4)
H29 H -0.451(4) -0.861(4) -0.942(4)
H30 H -0.442(4) -0.759(4) -1.022(3)
H31 H -0.242(4) -0.832(4) -1.155(3)
H32 H -0.241(4) -0.691(4) -1.126(3)
H33 H -0.099(5) -0.728(4) -1.085(3)
H34 H -0.231(4) -0.935(4) -0.885(4)
H35 H -0.089(5) -0.889(4) -0.936(3)
H36 H -0.240(4) -0.971(4) -1.008(3)
loop_
_geom_bond_atom_site_label_1
_geom_bond_atom_site_label_2
_geom_bond_site_symmetry_1
_geom_bond_site_symmetry_2
P1 P3 1_555 1_555
P2 C1 1_555 1_555
P3 P4 1_555 1_555
P4 P6 1_555 1_555
P5 C3 1_555 1_555
P6 C2 1_555 1_555
C1 P1 1_555 1_555
C2 P2 1_555 1_555
C3 P4 1_555 1_555
C4 P1 1_555 1_555
C5 C1 1_555 1_555
C6 C5 1_555 1_555
C7 C5 1_555 1_555
C8 C5 1_555 1_555
C9 C2 1_555 1_555
C10 C9 1_555 1_555
C11 C9 1_555 1_555
C12 C9 1_555 1_555
C13 C3 1_555 1_555
C14 C13 1_555 1_555
C15 C13 1_555 1_555
C16 C13 1_555 1_555
C17 C4 1_555 1_555
C18 C17 1_555 1_555
C19 C17 1_555 1_555
C20 C17 1_555 1_555
H1 C6 1_555 1_555
H2 C6 1_555 1_555
H3 C6 1_555 1_555
H4 C7 1_555 1_555
H5 C7 1_555 1_555
H6 C7 1_555 1_555
H7 C8 1_555 1_555
H8 C8 1_555 1_555
H9 C8 1_555 1_555
H10 C10 1_555 1_555
H11 C10 1_555 1_555
H12 C10 1_555 1_555
H13 C11 1_555 1_555
H14 C11 1_555 1_555
H15 C11 1_555 1_555
H16 C12 1_555 1_555
H17 C12 1_555 1_555
H18 C12 1_555 1_555
H19 C14 1_555 1_555
H20 C14 1_555 1_555
H21 C14 1_555 1_555
H22 C15 1_555 1_555
H23 C15 1_555 1_555
H24 C15 1_555 1_555
H25 C16 1_555 1_555
H26 C16 1_555 1_555
H27 C16 1_555 1_555
H28 C18 1_555 1_555
H29 C18 1_555 1_555
H30 C18 1_555 1_555
H31 C19 1_555 1_555
H32 C19 1_555 1_555
H33 C19 1_555 1_555
H34 C20 1_555 1_555
H35 C20 1_555 1_555
H36 C20 1_555 1_555
P3 C1 1_555 1_555
P5 C4 1_555 1_555
P6 C4 1_555 1_555

#END
