
#######################################################################
#
#                 Cambridge Crystallographic Data Centre
#                                CCDC 
#
#######################################################################
#
# If this CIF has been generated from an entry in the Cambridge 
# Structural Database, then it will include bibliographic, chemical, 
# crystal, experimental, refinement or atomic coordinate data resulting 
# from the CCDC's data processing and validation procedures.
#
#######################################################################

data_IFUPOQ
_chemical_formula_moiety         'C37 H41 N1 O6'
_chemical_name_systematic        
Diphenyl(1-(3-phenyl-1-(2,2,7,7-tetramethyltetrahydro-3aH-bis[1,3]dioxolo[4,5-b:4',5'-d]pyran-5-yl)prop-2-yn-1-yl)pyrrolidin-2-yl)methanol
_symmetry_cell_setting           orthorhombic
_symmetry_space_group_name_H-M   'P 21 21 21'
_symmetry_Int_Tables_number      19
_space_group_name_Hall           'P 2ac 2ab'
loop_
_symmetry_equiv_pos_site_id
_symmetry_equiv_pos_as_xyz
1 x,y,z
2 1/2-x,-y,1/2+z
3 -x,1/2+y,1/2-z
4 1/2+x,1/2-y,-z
_cell_length_a                   10.9583(3)
_cell_length_b                   16.9062(6)
_cell_length_c                   17.5588(5)
_cell_angle_alpha                90
_cell_angle_beta                 90
_cell_angle_gamma                90
_cell_volume                     3253
_exptl_crystal_colour            colorless
_exptl_crystal_description       prism
_cell_formula_units_Z            4
_exptl_crystal_recrystallization_method dichloromethane/n-hexane
loop_
_atom_site_label
_atom_site_type_symbol
_atom_site_fract_x
_atom_site_fract_y
_atom_site_fract_z
O1 O 0.71498(9) 0.64968(6) 0.48099(6)
O2 O 0.68820(10) 0.76184(8) 0.55512(7)
O3 O 0.49293(10) 0.72023(7) 0.57012(6)
O4 O 0.48305(10) 0.64680(8) 0.37748(6)
O5 O 0.55809(10) 0.52734(7) 0.41219(6)
O6 O 0.64212(8) 0.36213(7) 0.41973(6)
H1 H 0.6302 0.4100 0.4221
N1 N 0.68281(10) 0.44699(8) 0.54868(7)
C1 C 0.65531(13) 0.58769(10) 0.52103(9)
H2 H 0.6386 0.6051 0.5732
C2 C 0.65659(15) 0.72313(10) 0.48664(11)
H3 H 0.6808 0.7563 0.4434
C3 C 0.51791(14) 0.71871(11) 0.48994(10)
H4 H 0.4813 0.7646 0.4646
C4 C 0.46769(14) 0.64308(10) 0.45783(9)
H5 H 0.3809 0.6383 0.4704
C5 C 0.53542(13) 0.56838(10) 0.48189(9)
H6 H 0.4839 0.5362 0.5154
C6 C 0.58164(18) 0.77185(12) 0.60204(11)
C7 C 0.6119(2) 0.74347(14) 0.68207(11)
H7 H 0.6387 0.6895 0.6801
H8 H 0.5404 0.7472 0.7135
H9 H 0.6755 0.7758 0.7031
C8 C 0.54096(19) 0.85708(12) 0.59969(13)
H10 H 0.5248 0.8721 0.5479
H11 H 0.6041 0.8902 0.6202
H12 H 0.4681 0.8632 0.6295
C9 C 0.49959(16) 0.56874(12) 0.35121(10)
C10 C 0.37754(15) 0.52991(13) 0.33433(11)
H13 H 0.3280 0.5304 0.3794
H14 H 0.3907 0.4762 0.3184
H15 H 0.3369 0.5585 0.2945
C11 C 0.58349(17) 0.57042(14) 0.28355(10)
H16 H 0.6587 0.5957 0.2974
H17 H 0.5456 0.5993 0.2429
H18 H 0.5997 0.5173 0.2671
C12 C 0.74592(13) 0.51832(10) 0.52322(9)
H19 H 0.7750 0.5091 0.4712
C13 C 0.85244(14) 0.54232(10) 0.57048(9)
C14 C 0.93153(15) 0.56901(11) 0.60754(9)
C15 C 1.02842(14) 0.60418(10) 0.65137(10)
C16 C 1.14816(15) 0.59516(12) 0.62967(10)
H20 H 1.1671 0.5644 0.5874
C17 C 1.24059(17) 0.63137(12) 0.67018(11)
H21 H 1.3214 0.6247 0.6552
C18 C 1.21373(19) 0.67675(14) 0.73191(13)
H22 H 1.2765 0.7007 0.7591
C19 C 1.0973(2) 0.68734(15) 0.75415(12)
H23 H 1.0798 0.7187 0.7963
C20 C 1.00347(18) 0.65122(13) 0.71393(11)
H24 H 0.9230 0.6587 0.7292
C21 C 0.64032(16) 0.45138(11) 0.62841(9)
H25 H 0.5652 0.4815 0.6317
H26 H 0.7014 0.4766 0.6602
C22 C 0.61967(17) 0.36758(11) 0.65334(10)
H27 H 0.5333 0.3578 0.6611
H28 H 0.6624 0.3572 0.7007
C23 C 0.66874(15) 0.31502(11) 0.59010(10)
H29 H 0.6025 0.2923 0.5607
H30 H 0.7181 0.2725 0.6109
C24 C 0.74621(14) 0.37029(10) 0.54078(9)
H31 H 0.8285 0.3744 0.5623
C25 C 0.75477(13) 0.34352(10) 0.45602(9)
C26 C 0.86185(14) 0.38177(10) 0.41331(9)
C27 C 0.84695(16) 0.41038(13) 0.34130(10)
H32 H 0.7700 0.4096 0.3190
C28 C 0.94458(19) 0.44052(15) 0.30101(11)
H33 H 0.9318 0.4599 0.2521
C29 C 1.05817(18) 0.44256(12) 0.33084(11)
H34 H 1.1233 0.4627 0.3029
C30 C 1.07512(18) 0.41447(13) 0.40272(12)
H35 H 1.1525 0.4154 0.4245
C31 C 0.97800(14) 0.38466(12) 0.44330(10)
H36 H 0.9911 0.3659 0.4924
C32 C 0.76932(13) 0.25421(10) 0.44951(9)
C33 C 0.70146(17) 0.21236(12) 0.39700(11)
H37 H 0.6459 0.2388 0.3661
C34 C 0.71543(19) 0.13104(13) 0.38990(12)
H38 H 0.6668 0.1034 0.3556
C35 C 0.79911(16) 0.09107(13) 0.43240(12)
H39 H 0.8093 0.0368 0.4266
C36 C 0.86759(15) 0.13231(11) 0.48367(12)
H40 H 0.9250 0.1057 0.5131
C37 C 0.85314(15) 0.21280(11) 0.49259(11)
H41 H 0.9005 0.2396 0.5282
loop_
_geom_bond_atom_site_label_1
_geom_bond_atom_site_label_2
_geom_bond_site_symmetry_1
_geom_bond_site_symmetry_2
O1 C1 1_555 1_555
O2 C2 1_555 1_555
O3 C3 1_555 1_555
O4 C4 1_555 1_555
O5 C5 1_555 1_555
O6 H1 1_555 1_555
N1 C12 1_555 1_555
C1 H2 1_555 1_555
C2 O1 1_555 1_555
H3 C2 1_555 1_555
C3 C2 1_555 1_555
H4 C3 1_555 1_555
C4 C3 1_555 1_555
H5 C4 1_555 1_555
C5 C1 1_555 1_555
H6 C5 1_555 1_555
C6 O2 1_555 1_555
C7 C6 1_555 1_555
H7 C7 1_555 1_555
H8 C7 1_555 1_555
H9 C7 1_555 1_555
C8 C6 1_555 1_555
H10 C8 1_555 1_555
H11 C8 1_555 1_555
H12 C8 1_555 1_555
C9 O4 1_555 1_555
C10 C9 1_555 1_555
H13 C10 1_555 1_555
H14 C10 1_555 1_555
H15 C10 1_555 1_555
C11 C9 1_555 1_555
H16 C11 1_555 1_555
H17 C11 1_555 1_555
H18 C11 1_555 1_555
C12 C1 1_555 1_555
H19 C12 1_555 1_555
C13 C12 1_555 1_555
C14 C13 1_555 1_555
C15 C14 1_555 1_555
C16 C15 1_555 1_555
H20 C16 1_555 1_555
C17 C16 1_555 1_555
H21 C17 1_555 1_555
C18 C17 1_555 1_555
H22 C18 1_555 1_555
C19 C18 1_555 1_555
H23 C19 1_555 1_555
C20 C15 1_555 1_555
H24 C20 1_555 1_555
C21 N1 1_555 1_555
H25 C21 1_555 1_555
H26 C21 1_555 1_555
C22 C21 1_555 1_555
H27 C22 1_555 1_555
H28 C22 1_555 1_555
C23 C22 1_555 1_555
H29 C23 1_555 1_555
H30 C23 1_555 1_555
C24 N1 1_555 1_555
H31 C24 1_555 1_555
C25 O6 1_555 1_555
C26 C25 1_555 1_555
C27 C26 1_555 1_555
H32 C27 1_555 1_555
C28 C27 1_555 1_555
H33 C28 1_555 1_555
C29 C28 1_555 1_555
H34 C29 1_555 1_555
C30 C29 1_555 1_555
H35 C30 1_555 1_555
C31 C26 1_555 1_555
H36 C31 1_555 1_555
C32 C25 1_555 1_555
C33 C32 1_555 1_555
H37 C33 1_555 1_555
C34 C33 1_555 1_555
H38 C34 1_555 1_555
C35 C34 1_555 1_555
H39 C35 1_555 1_555
C36 C35 1_555 1_555
H40 C36 1_555 1_555
C37 C32 1_555 1_555
H41 C37 1_555 1_555
O3 C6 1_555 1_555
O5 C9 1_555 1_555
C4 C5 1_555 1_555
C19 C20 1_555 1_555
C23 C24 1_555 1_555
C24 C25 1_555 1_555
C30 C31 1_555 1_555
C36 C37 1_555 1_555

#END
