
#######################################################################
#
#                 Cambridge Crystallographic Data Centre
#                                CCDC 
#
#######################################################################
#
# If this CIF has been generated from an entry in the Cambridge 
# Structural Database, then it will include bibliographic, chemical, 
# crystal, experimental, refinement or atomic coordinate data resulting 
# from the CCDC's data processing and validation procedures.
#
#######################################################################

data_IFUQAD
_chemical_formula_moiety         'C25 H33 N1 O6'
_chemical_name_systematic        
(1-(3-Phenyl-1-(2,2,7,7-tetramethyltetrahydro-3aH-bis[1,3]dioxolo[4,5-b:4',5'-d]pyran-5-yl)prop-2-yn-1-yl)pyrrolidin-2-yl)methanol
_symmetry_cell_setting           orthorhombic
_symmetry_space_group_name_H-M   'P 21 21 21'
_symmetry_Int_Tables_number      19
_space_group_name_Hall           'P 2ac 2ab'
loop_
_symmetry_equiv_pos_site_id
_symmetry_equiv_pos_as_xyz
1 x,y,z
2 1/2-x,-y,1/2+z
3 -x,1/2+y,1/2-z
4 1/2+x,1/2-y,-z
_cell_length_a                   10.4489(2)
_cell_length_b                   11.3785(2)
_cell_length_c                   20.6070(5)
_cell_angle_alpha                90
_cell_angle_beta                 90
_cell_angle_gamma                90
_cell_volume                     2450.02
_exptl_crystal_colour            colorless
_exptl_crystal_description       prism
_cell_formula_units_Z            4
loop_
_atom_site_label
_atom_site_type_symbol
_atom_site_fract_x
_atom_site_fract_y
_atom_site_fract_z
O1 O 0.27560(8) 0.32070(9) 0.54893(5)
O2 O 0.25859(10) 0.52426(9) 0.54666(6)
O3 O 0.07766(9) 0.50522(9) 0.48756(5)
O4 O 0.18822(9) 0.23253(9) 0.41918(5)
O5 O 0.10017(9) 0.12421(8) 0.49985(5)
O6 O 0.07600(17) -0.07342(11) 0.58472(7)
H1 H 0.0763 -0.0113 0.5645
N1 N 0.04399(11) 0.15271(10) 0.64536(6)
C1 C 0.14992(13) 0.28893(13) 0.57104(7)
H2 H 0.1082 0.3582 0.5897
C2 C 0.27602(14) 0.42209(14) 0.50892(8)
H3 H 0.3578 0.4271 0.4858
C3 C 0.16706(14) 0.42449(13) 0.46027(8)
H4 H 0.1978 0.4538 0.4184
C4 C 0.10056(14) 0.30838(13) 0.45134(7)
H5 H 0.0228 0.3183 0.4253
C5 C 0.07012(13) 0.24359(13) 0.51443(7)
H6 H -0.0212 0.2510 0.5245
C6 C 0.15190(15) 0.58961(13) 0.52251(8)
C7 C 0.15454(14) 0.11540(13) 0.43626(8)
C8 C 0.16857(13) 0.19702(14) 0.62388(7)
H7 H 0.2140 0.1308 0.6041
C9 C 0.25072(15) 0.24197(14) 0.67676(8)
C10 C 0.31890(15) 0.27389(14) 0.71978(9)
C11 C 0.40867(15) 0.31210(15) 0.76815(8)
C12 C 0.47690(18) 0.23013(19) 0.80353(9)
H8 H 0.4610 0.1505 0.7972
C13 C 0.5666(2) 0.2637(2) 0.84728(11)
H9 H 0.6113 0.2070 0.8707
C14 C 0.5917(2) 0.3790(2) 0.85713(11)
H10 H 0.6547 0.4009 0.8866
C15 C 0.5252(2) 0.4637(2) 0.82404(10)
H11 H 0.5420 0.5429 0.8314
C16 C 0.43189(18) 0.43021(17) 0.77903(9)
H12 H 0.3857 0.4870 0.7565
C17 C -0.03363(15) 0.23776(15) 0.68175(9)
H13 H -0.0802 0.2891 0.6525
H14 H 0.0197 0.2853 0.7099
C18 C -0.12374(19) 0.16339(18) 0.72056(10)
H15 H -0.1960 0.1378 0.6946
H16 H -0.1550 0.2052 0.7584
C19 C -0.0399(3) 0.0611(2) 0.73967(12)
H17 H 0.0076 0.0791 0.7789
H18 H -0.0913 -0.0086 0.7473
C20 C 0.04986(17) 0.04215(14) 0.68349(8)
H19 H 0.1371 0.0292 0.6994
C21 C 0.0088(2) -0.05918(15) 0.64174(11)
H20 H 0.0165 -0.1308 0.6669
H21 H -0.0810 -0.0491 0.6311
C22 C 0.07467(18) 0.63272(16) 0.57846(10)
H22 H 0.0467 0.5670 0.6040
H23 H 0.0015 0.6749 0.5626
H24 H 0.1261 0.6840 0.6047
C23 C 0.19805(19) 0.68722(16) 0.47876(10)
H25 H 0.2462 0.6544 0.4435
H26 H 0.2515 0.7399 0.5031
H27 H 0.1258 0.7295 0.4619
C24 C 0.27387(16) 0.04230(15) 0.43991(12)
H28 H 0.3333 0.0782 0.4694
H29 H 0.3120 0.0371 0.3976
H30 H 0.2527 -0.0351 0.4550
C25 C 0.05654(16) 0.06642(16) 0.39009(9)
H31 H -0.0178 0.1160 0.3901
H32 H 0.0329 -0.0113 0.4036
H33 H 0.0920 0.0634 0.3472
loop_
_geom_bond_atom_site_label_1
_geom_bond_atom_site_label_2
_geom_bond_site_symmetry_1
_geom_bond_site_symmetry_2
O1 C1 1_555 1_555
O2 C2 1_555 1_555
O3 C3 1_555 1_555
O4 C4 1_555 1_555
O5 C5 1_555 1_555
O6 H1 1_555 1_555
N1 C8 1_555 1_555
C1 H2 1_555 1_555
C2 O1 1_555 1_555
H3 C2 1_555 1_555
C3 C2 1_555 1_555
H4 C3 1_555 1_555
C4 C3 1_555 1_555
H5 C4 1_555 1_555
C5 C1 1_555 1_555
H6 C5 1_555 1_555
C6 O2 1_555 1_555
C7 O4 1_555 1_555
C8 C1 1_555 1_555
H7 C8 1_555 1_555
C9 C8 1_555 1_555
C10 C9 1_555 1_555
C11 C10 1_555 1_555
C12 C11 1_555 1_555
H8 C12 1_555 1_555
C13 C12 1_555 1_555
H9 C13 1_555 1_555
C14 C13 1_555 1_555
H10 C14 1_555 1_555
C15 C14 1_555 1_555
H11 C15 1_555 1_555
C16 C11 1_555 1_555
H12 C16 1_555 1_555
C17 N1 1_555 1_555
H13 C17 1_555 1_555
H14 C17 1_555 1_555
C18 C17 1_555 1_555
H15 C18 1_555 1_555
H16 C18 1_555 1_555
C19 C18 1_555 1_555
H17 C19 1_555 1_555
H18 C19 1_555 1_555
C20 N1 1_555 1_555
H19 C20 1_555 1_555
C21 O6 1_555 1_555
H20 C21 1_555 1_555
H21 C21 1_555 1_555
C22 C6 1_555 1_555
H22 C22 1_555 1_555
H23 C22 1_555 1_555
H24 C22 1_555 1_555
C23 C6 1_555 1_555
H25 C23 1_555 1_555
H26 C23 1_555 1_555
H27 C23 1_555 1_555
C24 C7 1_555 1_555
H28 C24 1_555 1_555
H29 C24 1_555 1_555
H30 C24 1_555 1_555
C25 C7 1_555 1_555
H31 C25 1_555 1_555
H32 C25 1_555 1_555
H33 C25 1_555 1_555
O3 C6 1_555 1_555
O5 C7 1_555 1_555
C4 C5 1_555 1_555
C15 C16 1_555 1_555
C19 C20 1_555 1_555
C20 C21 1_555 1_555

#END
