
#######################################################################
#
#                 Cambridge Crystallographic Data Centre
#                                CCDC 
#
#######################################################################
#
# If this CIF has been generated from an entry in the Cambridge 
# Structural Database, then it will include bibliographic, chemical, 
# crystal, experimental, refinement or atomic coordinate data resulting 
# from the CCDC's data processing and validation procedures.
#
#######################################################################

data_IFUQOR
_chemical_formula_moiety         'C18 H25 N1 O1'
_chemical_name_systematic        
(1-(5-Methyl-1-phenylhex-1-yn-3-yl)pyrrolidin-2-yl)methanol
_symmetry_cell_setting           orthorhombic
_symmetry_space_group_name_H-M   'P 21 21 21'
_symmetry_Int_Tables_number      19
_space_group_name_Hall           'P 2ac 2ab'
loop_
_symmetry_equiv_pos_site_id
_symmetry_equiv_pos_as_xyz
1 x,y,z
2 1/2-x,-y,1/2+z
3 -x,1/2+y,1/2-z
4 1/2+x,1/2-y,-z
_cell_length_a                   6.1651(2)
_cell_length_b                   8.8118(3)
_cell_length_c                   30.7776(10)
_cell_angle_alpha                90
_cell_angle_beta                 90
_cell_angle_gamma                90
_cell_volume                     1672.01
_exptl_crystal_colour            colorless
_exptl_crystal_description       block
_cell_formula_units_Z            4
loop_
_atom_site_label
_atom_site_type_symbol
_atom_site_fract_x
_atom_site_fract_y
_atom_site_fract_z
O1 O 0.8466(3) 0.6565(2) 0.49412(5)
H1 H 0.947(6) 0.728(4) 0.5124(11)
N1 N 0.4616(3) 0.6329(2) 0.43826(5)
C1 C 0.5677(4) 0.5060(2) 0.46134(7)
H2 H 0.699(4) 0.463(3) 0.4410(9)
C2 C 0.3845(6) 0.3950(4) 0.46966(11)
H3 H 0.4371 0.2915 0.4678
H4 H 0.3238 0.4110 0.4984
C3 C 0.2234(6) 0.4221(4) 0.43697(18)
H5 H 0.0798 0.4194 0.4498
H6 H 0.2312 0.3441 0.4148
C4 C 0.2630(4) 0.5708(4) 0.41766(9)
H7 H 0.3595 0.5900 0.3903
H8 H 0.1232 0.6374 0.4238
C5 C 0.6761(4) 0.5570(3) 0.50327(7)
H9 H 0.7732 0.4806 0.5161
H10 H 0.5288 0.6154 0.5228
C6 C 0.6060(4) 0.7148(2) 0.40820(6)
H11 H 0.7597 0.7366 0.4211
C7 C 0.5021(5) 0.8633(3) 0.39305(7)
H12 H 0.4251 0.9055 0.4162
H13 H 0.4090 0.8398 0.3682
C8 C 0.6456(5) 0.9643(3) 0.36485(8)
H14 H 0.7184 0.9028 0.3392
C9 C 0.8536(7) 1.0119(5) 0.38678(15)
H15 H 0.8420 1.1156 0.3960
H16 H 0.9720 1.0020 0.3667
H17 H 0.8792 0.9483 0.4116
C10 C 0.5189(9) 1.0996(4) 0.34935(12)
H18 H 0.6103 1.1625 0.3316
H19 H 0.4689 1.1568 0.3739
H20 H 0.3967 1.0659 0.3326
C11 C 0.6731(4) 0.6201(3) 0.37087(7)
C12 C 0.7239(4) 0.5403(3) 0.34081(7)
C13 C 0.7773(4) 0.4459(2) 0.30455(7)
C14 C 0.6313(5) 0.4248(3) 0.27107(8)
H21 H 0.4972 0.4731 0.2718
C15 C 0.6841(6) 0.3318(4) 0.23641(9)
H22 H 0.5847 0.3176 0.2141
C16 C 0.8787(7) 0.2615(3) 0.23471(9)
H23 H 0.9365 0.1892 0.2136
C17 C 1.0302(6) 0.2803(4) 0.26783(11)
H24 H 1.1649 0.2331 0.2664
C18 C 0.9751(4) 0.3717(3) 0.30317(9)
H25 H 1.0724 0.3829 0.3260
loop_
_geom_bond_atom_site_label_1
_geom_bond_atom_site_label_2
_geom_bond_site_symmetry_1
_geom_bond_site_symmetry_2
O1 H1 1_555 1_555
N1 C1 1_555 1_555
C1 H2 1_555 1_555
C2 C1 1_555 1_555
H3 C2 1_555 1_555
H4 C2 1_555 1_555
C3 C2 1_555 1_555
H5 C3 1_555 1_555
H6 C3 1_555 1_555
C4 N1 1_555 1_555
H7 C4 1_555 1_555
H8 C4 1_555 1_555
C5 O1 1_555 1_555
H9 C5 1_555 1_555
H10 C5 1_555 1_555
C6 N1 1_555 1_555
H11 C6 1_555 1_555
C7 C6 1_555 1_555
H12 C7 1_555 1_555
H13 C7 1_555 1_555
C8 C7 1_555 1_555
H14 C8 1_555 1_555
C9 C8 1_555 1_555
H15 C9 1_555 1_555
H16 C9 1_555 1_555
H17 C9 1_555 1_555
C10 C8 1_555 1_555
H18 C10 1_555 1_555
H19 C10 1_555 1_555
H20 C10 1_555 1_555
C11 C6 1_555 1_555
C12 C11 1_555 1_555
C13 C12 1_555 1_555
C14 C13 1_555 1_555
H21 C14 1_555 1_555
C15 C14 1_555 1_555
H22 C15 1_555 1_555
C16 C15 1_555 1_555
H23 C16 1_555 1_555
C17 C16 1_555 1_555
H24 C17 1_555 1_555
C18 C13 1_555 1_555
H25 C18 1_555 1_555
C1 C5 1_555 1_555
C3 C4 1_555 1_555
C17 C18 1_555 1_555

#END
