
#######################################################################
#
#                 Cambridge Crystallographic Data Centre
#                                CCDC 
#
#######################################################################
#
# If this CIF has been generated from an entry in the Cambridge 
# Structural Database, then it will include bibliographic, chemical, 
# crystal, experimental, refinement or atomic coordinate data resulting 
# from the CCDC's data processing and validation procedures.
#
#######################################################################

data_IFUSAE
_chemical_formula_moiety         'C22 H15 Cl1 O4'
_chemical_name_systematic        
13c-(2-Chloroethoxy)-1,13c-dihydro-2,3-epoxydibenzo(a,kl)xanthan-1-one
_symmetry_cell_setting           orthorhombic
_symmetry_space_group_name_H-M   'P 21 21 21'
_symmetry_Int_Tables_number      19
_space_group_name_Hall           'P 2ac 2ab'
loop_
_symmetry_equiv_pos_site_id
_symmetry_equiv_pos_as_xyz
1 x,y,z
2 1/2-x,-y,1/2+z
3 -x,1/2+y,1/2-z
4 1/2+x,1/2-y,-z
_cell_length_a                   7.7966(13)
_cell_length_b                   10.4468(18)
_cell_length_c                   21.349(4)
_cell_angle_alpha                90
_cell_angle_beta                 90
_cell_angle_gamma                90
_cell_volume                     1738.87
_exptl_crystal_colour            white
_exptl_crystal_description       block
_chemical_melting_point          '527-529 K'
_cell_formula_units_Z            4
_exptl_crystal_recrystallization_method acetone
loop_
_atom_site_label
_atom_site_type_symbol
_atom_site_fract_x
_atom_site_fract_y
_atom_site_fract_z
Cl1 Cl 0.46182(15) 0.38912(11) 0.01032(4)
O1 O -0.1176(2) 0.3230(2) -0.16123(9)
O2 O 0.2117(3) 0.0809(2) -0.15674(11)
O3 O 0.3149(3) 0.5535(3) -0.24976(11)
O4 O 0.2976(2) 0.31516(16) -0.11496(8)
C1 C 0.0243(3) 0.2781(2) -0.16079(11)
C2 C 0.0484(4) 0.1375(3) -0.16874(14)
H1 H -0.0548 0.0821 -0.1626
C3 C 0.1656(4) 0.1034(3) -0.22079(15)
H2 H 0.1337 0.0264 -0.2460
C4 C 0.2524(4) 0.2067(4) -0.25451(14)
C5 C 0.3171(5) 0.1828(5) -0.31363(17)
H3 H 0.3128 0.0983 -0.3300
C6 C 0.3871(5) 0.2784(7) -0.34885(19)
H4 H 0.4346 0.2595 -0.3888
C7 C 0.3890(5) 0.4024(6) -0.32672(18)
H5 H 0.4359 0.4696 -0.3513
C8 C 0.3208(4) 0.4275(4) -0.26739(15)
C9 C 0.2571(3) 0.3325(3) -0.22965(13)
C10 C 0.1881(3) 0.3613(2) -0.16413(11)
C11 C 0.1543(3) 0.5025(3) -0.15546(13)
C12 C 0.2211(4) 0.5882(3) -0.19788(16)
C13 C 0.1977(6) 0.7205(4) -0.1912(2)
H6 H 0.2446 0.7775 -0.2213
C14 C 0.1084(6) 0.7670(4) -0.1419(3)
H7 H 0.0913 0.8567 -0.1382
C15 C 0.0399(5) 0.6845(3) -0.09575(19)
C16 C -0.0529(6) 0.7314(5) -0.0437(3)
H8 H -0.0749 0.8206 -0.0407
C17 C -0.1110(5) 0.6531(6) 0.0017(3)
H9 H -0.1753 0.6875 0.0355
C18 C -0.0773(4) 0.5204(4) -0.00048(18)
H10 H -0.1155 0.4656 0.0322
C19 C 0.0119(4) 0.4717(3) -0.05086(14)
H11 H 0.0361 0.3827 -0.0523
C20 C 0.0683(4) 0.5505(3) -0.10016(15)
C21 C 0.4673(3) 0.3628(3) -0.11653(14)
H12 H 0.4656 0.4573 -0.1196
H13 H 0.5282 0.3285 -0.1536
C22 C 0.5569(4) 0.3234(4) -0.05865(15)
H14 H 0.6781 0.3511 -0.0610
H15 H 0.5555 0.2288 -0.0557
loop_
_geom_bond_atom_site_label_1
_geom_bond_atom_site_label_2
_geom_bond_site_symmetry_1
_geom_bond_site_symmetry_2
Cl1 C22 1_555 1_555
O1 C1 1_555 1_555
O2 C2 1_555 1_555
O3 C8 1_555 1_555
O4 C10 1_555 1_555
C1 C2 1_555 1_555
C2 H1 1_555 1_555
C3 O2 1_555 1_555
H2 C3 1_555 1_555
C4 C3 1_555 1_555
C5 C4 1_555 1_555
H3 C5 1_555 1_555
C6 C5 1_555 1_555
H4 C6 1_555 1_555
C7 C6 1_555 1_555
H5 C7 1_555 1_555
C8 C7 1_555 1_555
C9 C4 1_555 1_555
C10 C1 1_555 1_555
C11 C10 1_555 1_555
C12 O3 1_555 1_555
C13 C12 1_555 1_555
H6 C13 1_555 1_555
C14 C13 1_555 1_555
H7 C14 1_555 1_555
C15 C14 1_555 1_555
C16 C15 1_555 1_555
H8 C16 1_555 1_555
C17 C16 1_555 1_555
H9 C17 1_555 1_555
C18 C17 1_555 1_555
H10 C18 1_555 1_555
C19 C18 1_555 1_555
H11 C19 1_555 1_555
C20 C11 1_555 1_555
C21 O4 1_555 1_555
H12 C21 1_555 1_555
H13 C21 1_555 1_555
C22 C21 1_555 1_555
H14 C22 1_555 1_555
H15 C22 1_555 1_555
C2 C3 1_555 1_555
C8 C9 1_555 1_555
C9 C10 1_555 1_555
C11 C12 1_555 1_555
C15 C20 1_555 1_555
C19 C20 1_555 1_555

#END
