
#######################################################################
#
#                 Cambridge Crystallographic Data Centre
#                                CCDC 
#
#######################################################################
#
# If this CIF has been generated from an entry in the Cambridge 
# Structural Database, then it will include bibliographic, chemical, 
# crystal, experimental, refinement or atomic coordinate data resulting 
# from the CCDC's data processing and validation procedures.
#
#######################################################################

data_IFUTAH
_chemical_formula_moiety         'C40 H42 N2 O6'
_chemical_name_systematic        
2,7-bis[4-(heptyloxy)phenyl]benzo[lmn][3,8]phenanthroline-1,3,6,8(2H,7H)-tetrone
_symmetry_cell_setting           monoclinic
_symmetry_space_group_name_H-M   'P 21/n'
_symmetry_Int_Tables_number      14
_space_group_name_Hall           '-P 2yn'
loop_
_symmetry_equiv_pos_site_id
_symmetry_equiv_pos_as_xyz
1 x,y,z
2 1/2-x,1/2+y,1/2-z
3 -x,-y,-z
4 1/2+x,1/2-y,1/2+z
_cell_length_a                   4.2455(15)
_cell_length_b                   46.493(15)
_cell_length_c                   8.218(2)
_cell_angle_alpha                90
_cell_angle_beta                 93.584(8)
_cell_angle_gamma                90
_cell_volume                     1618.95
_exptl_crystal_colour            orange
_cell_formula_units_Z            2
loop_
_atom_site_label
_atom_site_type_symbol
_atom_site_fract_x
_atom_site_fract_y
_atom_site_fract_z
C1 C 0.0244(4) 0.56423(3) 0.11935(18)
C2 C 0.3694(4) 0.53158(3) 0.29004(17)
C3 C 0.2636(3) 0.50699(3) 0.18511(17)
C4 C 0.0485(3) 0.51176(3) 0.05043(17)
C5 C 0.3747(4) 0.47976(3) 0.22018(18)
H1 H 0.5191 0.4767 0.3116
C6 C 0.2754(4) 0.45642(3) 0.12126(18)
H2 H 0.3514 0.4376 0.1469
C7 C 0.0689(4) 0.46055(3) -0.01256(17)
C8 C 0.2723(4) 0.58048(3) 0.38177(17)
C9 C 0.1485(4) 0.57662(3) 0.53163(18)
H3 H 0.0238 0.5601 0.5506
C10 C 0.2058(4) 0.59677(3) 0.65477(18)
H4 H 0.1214 0.5941 0.7581
C11 C 0.3873(4) 0.62083(3) 0.62563(18)
C12 C 0.5033(4) 0.62485(3) 0.47251(19)
H5 H 0.6218 0.6416 0.4515
C13 C 0.4475(4) 0.60467(3) 0.35118(19)
H6 H 0.5291 0.6074 0.2472
C14 C 0.3314(4) 0.63948(3) 0.89363(18)
H7 H 0.3980 0.6213 0.9484
H8 H 0.0982 0.6396 0.8791
C15 C 0.4459(4) 0.66503(3) 0.99568(19)
H9 H 0.6775 0.6636 1.0165
H10 H 0.3497 0.6642 1.1023
C16 C 0.3668(4) 0.69386(3) 0.91572(19)
H11 H 0.1360 0.6949 0.8904
H12 H 0.4708 0.6950 0.8114
C17 C 0.4689(4) 0.71965(3) 1.0210(2)
H13 H 0.3589 0.7189 1.1237
H14 H 0.6983 0.7182 1.0497
C18 C 0.4000(4) 0.74844(3) 0.9386(2)
H15 H 0.1702 0.7499 0.9112
H16 H 0.5077 0.7491 0.8353
C19 C 0.5052(4) 0.77420(3) 1.0427(2)
H17 H 0.3981 0.7735 1.1463
H18 H 0.7352 0.7727 1.0698
C20 C 0.4352(5) 0.80289(4) 0.9605(3)
H19 H 0.5446 0.8040 0.8591
H20 H 0.5085 0.8185 1.0334
H21 H 0.2073 0.8047 0.9357
N1 N 0.2178(3) 0.55807(3) 0.25954(14)
O1 O -0.0634(3) 0.58852(2) 0.08799(13)
O2 O 0.5762(3) 0.52918(2) 0.39739(13)
O3 O 0.4663(3) 0.64160(2) 0.73836(13)
C1B C -0.0244(4) 0.43577(3) -0.11935(18)
C2B C -0.3694(4) 0.46842(3) -0.29004(17)
C3B C -0.2636(3) 0.49301(3) -0.18511(17)
C4B C -0.0485(3) 0.48824(3) -0.05043(17)
C5B C -0.3747(4) 0.52024(3) -0.22018(18)
H1B H -0.5191 0.5233 -0.3116
C6B C -0.2754(4) 0.54358(3) -0.12126(18)
H2B H -0.3514 0.5624 -0.1469
C7B C -0.0689(4) 0.53945(3) 0.01256(17)
C8B C -0.2723(4) 0.41952(3) -0.38177(17)
C9B C -0.1485(4) 0.42338(3) -0.53163(18)
H3B H -0.0238 0.4399 -0.5506
C10B C -0.2058(4) 0.40323(3) -0.65477(18)
H4B H -0.1214 0.4059 -0.7581
C11B C -0.3873(4) 0.37917(3) -0.62563(18)
C12B C -0.5033(4) 0.37515(3) -0.47251(19)
H5B H -0.6218 0.3584 -0.4515
C13B C -0.4475(4) 0.39533(3) -0.35118(19)
H6B H -0.5291 0.3926 -0.2472
C14B C -0.3314(4) 0.36052(3) -0.89363(18)
H7B H -0.3980 0.3787 -0.9484
H8B H -0.0982 0.3604 -0.8791
C15B C -0.4459(4) 0.33497(3) -0.99568(19)
H9B H -0.6775 0.3364 -1.0165
H10B H -0.3497 0.3358 -1.1023
C16B C -0.3668(4) 0.30614(3) -0.91572(19)
H11B H -0.1360 0.3051 -0.8904
H12B H -0.4708 0.3050 -0.8114
C17B C -0.4689(4) 0.28035(3) -1.0210(2)
H13B H -0.3589 0.2811 -1.1237
H14B H -0.6983 0.2818 -1.0497
C18B C -0.4000(4) 0.25156(3) -0.9386(2)
H15B H -0.1702 0.2501 -0.9112
H16B H -0.5077 0.2509 -0.8353
C19B C -0.5052(4) 0.22580(3) -1.0427(2)
H17B H -0.3981 0.2265 -1.1463
H18B H -0.7352 0.2273 -1.0698
C20B C -0.4352(5) 0.19711(4) -0.9605(3)
H19B H -0.5446 0.1960 -0.8591
H20B H -0.5085 0.1815 -1.0334
H21B H -0.2073 0.1953 -0.9357
N1B N -0.2178(3) 0.44193(3) -0.25954(14)
O1B O 0.0634(3) 0.41148(2) -0.08799(13)
O2B O -0.5762(3) 0.47082(2) -0.39739(13)
O3B O -0.4663(3) 0.35840(2) -0.73836(13)
loop_
_geom_bond_atom_site_label_1
_geom_bond_atom_site_label_2
_geom_bond_site_symmetry_1
_geom_bond_site_symmetry_2
C1 N1 1_555 1_555
C2 C3 1_555 1_555
C3 C4 1_555 1_555
C4 C4B 1_555 1_555
C5 C3 1_555 1_555
H1 C5 1_555 1_555
C6 C5 1_555 1_555
H2 C6 1_555 1_555
C7 C6 1_555 1_555
C8 C9 1_555 1_555
C9 H3 1_555 1_555
C10 C9 1_555 1_555
H4 C10 1_555 1_555
C11 C10 1_555 1_555
C12 C11 1_555 1_555
H5 C12 1_555 1_555
C13 C8 1_555 1_555
H6 C13 1_555 1_555
C14 H7 1_555 1_555
H8 C14 1_555 1_555
C15 C14 1_555 1_555
H9 C15 1_555 1_555
H10 C15 1_555 1_555
C16 C15 1_555 1_555
H11 C16 1_555 1_555
H12 C16 1_555 1_555
C17 C16 1_555 1_555
H13 C17 1_555 1_555
H14 C17 1_555 1_555
C18 C17 1_555 1_555
H15 C18 1_555 1_555
H16 C18 1_555 1_555
C19 C18 1_555 1_555
H17 C19 1_555 1_555
H18 C19 1_555 1_555
C20 C19 1_555 1_555
H19 C20 1_555 1_555
H20 C20 1_555 1_555
H21 C20 1_555 1_555
N1 C2 1_555 1_555
O1 C1 1_555 1_555
O2 C2 1_555 1_555
O3 C11 1_555 1_555
C1B C7 1_555 1_555
C2B C3B 1_555 1_555
C3B C4B 1_555 1_555
C4B C7 1_555 1_555
C5B C3B 1_555 1_555
H1B C5B 1_555 1_555
C6B C5B 1_555 1_555
H2B C6B 1_555 1_555
C7B C1 1_555 1_555
C8B C9B 1_555 1_555
C9B H3B 1_555 1_555
C10B C9B 1_555 1_555
H4B C10B 1_555 1_555
C11B C10B 1_555 1_555
C12B C11B 1_555 1_555
H5B C12B 1_555 1_555
C13B C8B 1_555 1_555
H6B C13B 1_555 1_555
C14B H7B 1_555 1_555
H8B C14B 1_555 1_555
C15B C14B 1_555 1_555
H9B C15B 1_555 1_555
H10B C15B 1_555 1_555
C16B C15B 1_555 1_555
H11B C16B 1_555 1_555
H12B C16B 1_555 1_555
C17B C16B 1_555 1_555
H13B C17B 1_555 1_555
H14B C17B 1_555 1_555
C18B C17B 1_555 1_555
H15B C18B 1_555 1_555
H16B C18B 1_555 1_555
C19B C18B 1_555 1_555
H17B C19B 1_555 1_555
H18B C19B 1_555 1_555
C20B C19B 1_555 1_555
H19B C20B 1_555 1_555
H20B C20B 1_555 1_555
H21B C20B 1_555 1_555
N1B C1B 1_555 1_555
O1B C1B 1_555 1_555
O2B C2B 1_555 1_555
O3B C11B 1_555 1_555
C4 C7B 1_555 1_555
C8 N1 1_555 1_555
C12 C13 1_555 1_555
C14 O3 1_555 1_555
C2B N1B 1_555 1_555
C6B C7B 1_555 1_555
C8B N1B 1_555 1_555
C12B C13B 1_555 1_555
C14B O3B 1_555 1_555

#END
