
#######################################################################
#
#                 Cambridge Crystallographic Data Centre
#                                CCDC 
#
#######################################################################
#
# If this CIF has been generated from an entry in the Cambridge 
# Structural Database, then it will include bibliographic, chemical, 
# crystal, experimental, refinement or atomic coordinate data resulting 
# from the CCDC's data processing and validation procedures.
#
#######################################################################

data_IFUWOW
_chemical_formula_moiety         'C20 H19 N1 O1'
_chemical_name_systematic        (Anthracen-9-yl)(piperidin-1-yl)methanone
_chemical_properties_biological  
'The compound is a substructure of CP-640186, a potent inhibitor of mammalian acetyl-coenzyme A carboxylases'
_symmetry_cell_setting           monoclinic
_symmetry_space_group_name_H-M   'C 2/c'
_symmetry_Int_Tables_number      15
_space_group_name_Hall           '-C 2yn'
loop_
_symmetry_equiv_pos_site_id
_symmetry_equiv_pos_as_xyz
1 x,y,z
2 1/2+x,1/2+y,z
3 -x,y,1/2-z
4 1/2-x,1/2+y,1/2-z
5 -x,-y,-z
6 1/2-x,1/2-y,-z
7 x,-y,1/2+z
8 1/2+x,1/2-y,1/2+z
_cell_length_a                   26.393(5)
_cell_length_b                   7.3950(15)
_cell_length_c                   18.213(4)
_cell_angle_alpha                90
_cell_angle_beta                 120.29(3)
_cell_angle_gamma                90
_cell_volume                     3069.46
_exptl_crystal_colour            yellow
_exptl_crystal_description       block
_cell_formula_units_Z            8
_exptl_crystal_recrystallization_method 'acetone/petroleum ether'
loop_
_atom_site_label
_atom_site_type_symbol
_atom_site_fract_x
_atom_site_fract_y
_atom_site_fract_z
C1 C 0.83354(17) 0.1537(5) 0.6866(3)
H1 H 0.8709 0.1589 0.6936
C2 C 0.78453(17) 0.1309(5) 0.6048(3)
H2 H 0.7896 0.1254 0.5579
C3 C 0.72989(15) 0.1169(5) 0.5938(2)
H3 H 0.6980 0.0993 0.5394
C4 C 0.72079(13) 0.1286(4) 0.66384(19)
C5 C 0.77079(14) 0.1544(4) 0.7464(2)
C6 C 0.82684(15) 0.1679(5) 0.7541(2)
H4 H 0.8596 0.1871 0.8074
C7 C 0.66500(13) 0.1159(4) 0.65502(19)
C8 C 0.65705(14) 0.1315(4) 0.7257(2)
C9 C 0.70746(15) 0.1503(4) 0.8081(2)
C10 C 0.76293(14) 0.1644(4) 0.8162(2)
H5 H 0.7956 0.1809 0.8699
C11 C 0.60162(16) 0.1229(5) 0.7191(3)
H6 H 0.5682 0.1098 0.6658
C12 C 0.59630(19) 0.1335(5) 0.7889(3)
H7 H 0.5591 0.1308 0.7826
C13 C 0.6455(2) 0.1485(5) 0.8706(3)
H8 H 0.6409 0.1535 0.9180
C14 C 0.69916(19) 0.1556(5) 0.8799(2)
H9 H 0.7317 0.1642 0.9343
C15 C 0.61267(14) 0.0678(5) 0.5689(2)
C16 C 0.59033(17) 0.3956(5) 0.5392(2)
H10 H 0.6271 0.4108 0.5922
H11 H 0.5593 0.4463 0.5465
C17 C 0.5933(2) 0.4948(6) 0.4705(3)
H12 H 0.6274 0.4549 0.4680
H13 H 0.5975 0.6232 0.4831
C18 C 0.5372(2) 0.4617(6) 0.3833(3)
H14 H 0.5036 0.5164 0.3828
H15 H 0.5416 0.5166 0.3384
C19 C 0.52736(19) 0.2577(7) 0.3679(2)
H16 H 0.4905 0.2372 0.3156
H17 H 0.5585 0.2072 0.3607
C20 C 0.52607(17) 0.1630(6) 0.4382(2)
H18 H 0.4917 0.2008 0.4406
H19 H 0.5233 0.0337 0.4281
N1 N 0.57930(13) 0.2033(4) 0.51987(17)
O1 O 0.60244(11) -0.0901(3) 0.54889(16)
loop_
_geom_bond_atom_site_label_1
_geom_bond_atom_site_label_2
_geom_bond_site_symmetry_1
_geom_bond_site_symmetry_2
C1 H1 1_555 1_555
C2 C1 1_555 1_555
H2 C2 1_555 1_555
C3 C2 1_555 1_555
H3 C3 1_555 1_555
C4 C3 1_555 1_555
C5 C4 1_555 1_555
C6 C1 1_555 1_555
H4 C6 1_555 1_555
C7 C4 1_555 1_555
C8 C7 1_555 1_555
C9 C8 1_555 1_555
C10 C5 1_555 1_555
H5 C10 1_555 1_555
C11 C8 1_555 1_555
H6 C11 1_555 1_555
C12 C11 1_555 1_555
H7 C12 1_555 1_555
C13 C12 1_555 1_555
H8 C13 1_555 1_555
C14 C9 1_555 1_555
H9 C14 1_555 1_555
C15 C7 1_555 1_555
C16 H10 1_555 1_555
H11 C16 1_555 1_555
C17 C16 1_555 1_555
H12 C17 1_555 1_555
H13 C17 1_555 1_555
C18 C17 1_555 1_555
H14 C18 1_555 1_555
H15 C18 1_555 1_555
C19 C18 1_555 1_555
H16 C19 1_555 1_555
H17 C19 1_555 1_555
C20 C19 1_555 1_555
H18 C20 1_555 1_555
H19 C20 1_555 1_555
N1 C15 1_555 1_555
O1 C15 1_555 1_555
C5 C6 1_555 1_555
C9 C10 1_555 1_555
C13 C14 1_555 1_555
C16 N1 1_555 1_555
C20 N1 1_555 1_555

#END
