
#######################################################################
#
#                 Cambridge Crystallographic Data Centre
#                                CCDC 
#
#######################################################################
#
# If this CIF has been generated from an entry in the Cambridge 
# Structural Database, then it will include bibliographic, chemical, 
# crystal, experimental, refinement or atomic coordinate data resulting 
# from the CCDC's data processing and validation procedures.
#
#######################################################################

data_IFUZUH
_chemical_formula_moiety         'C44 H50 N2 O6'
_chemical_name_systematic        
2,7-bis[4-(nonyloxy)phenyl]benzo[lmn][3,8]phenanthroline-1,3,6,8(2H,7H)-tetrone
_symmetry_cell_setting           monoclinic
_symmetry_space_group_name_H-M   'P 21/n'
_symmetry_Int_Tables_number      14
_space_group_name_Hall           '-P 2yn'
loop_
_symmetry_equiv_pos_site_id
_symmetry_equiv_pos_as_xyz
1 x,y,z
2 1/2-x,1/2+y,1/2-z
3 -x,-y,-z
4 1/2+x,1/2-y,1/2+z
_cell_length_a                   4.154(2)
_cell_length_b                   51.72(2)
_cell_length_c                   8.253(3)
_cell_angle_alpha                90
_cell_angle_beta                 93.663(12)
_cell_angle_gamma                90
_cell_volume                     1769.49
_exptl_crystal_colour            orange
_cell_formula_units_Z            2
loop_
_atom_site_label
_atom_site_type_symbol
_atom_site_fract_x
_atom_site_fract_y
_atom_site_fract_z
C1 C 0.0369(5) 0.44197(3) 0.1146(2)
C2 C 0.3758(4) 0.47162(3) 0.2892(2)
C3 C 0.2655(4) 0.49376(3) 0.1857(2)
C4 C 0.0507(4) 0.48934(3) 0.0497(2)
C5 C 0.3718(4) 0.51835(3) 0.2239(2)
H1 H 0.5158 0.5211 0.3164
C6 C 0.2676(4) 0.53946(4) 0.1264(2)
H2 H 0.3400 0.5564 0.1541
C7 C 0.0605(4) 0.53567(3) -0.0093(2)
C8 C 0.2845(4) 0.42735(3) 0.3774(2)
C9 C 0.1621(5) 0.43085(4) 0.5279(2)
H3 H 0.0368 0.4457 0.5480
C10 C 0.2224(4) 0.41253(3) 0.6501(2)
H4 H 0.1403 0.4150 0.7539
C11 C 0.4033(4) 0.39075(3) 0.6190(2)
C12 C 0.5174(5) 0.38705(4) 0.4649(2)
H5 H 0.6357 0.3719 0.4428
C13 C 0.4591(5) 0.40532(3) 0.3451(2)
H6 H 0.5382 0.4028 0.2408
C14 C 0.3518(5) 0.37389(3) 0.8867(2)
H7 H 0.1133 0.3743 0.8735
H8 H 0.4266 0.3900 0.9422
C15 C 0.4638(5) 0.35046(3) 0.9859(2)
H9 H 0.3637 0.3509 1.0915
H10 H 0.7005 0.3515 1.0080
C16 C 0.3806(5) 0.32484(3) 0.9024(2)
H11 H 0.4884 0.3241 0.7989
H12 H 0.1450 0.3242 0.8759
C17 C 0.4794(5) 0.30109(3) 1.0039(2)
H13 H 0.7137 0.3020 1.0341
H14 H 0.3646 0.3013 1.1053
C18 C 0.4055(5) 0.27573(3) 0.9149(2)
H15 H 0.1711 0.2749 0.8851
H16 H 0.5189 0.2757 0.8130
C19 C 0.5028(5) 0.25161(3) 1.0122(2)
H17 H 0.7369 0.2524 1.0426
H18 H 0.3879 0.2515 1.1137
C20 C 0.4290(5) 0.22652(3) 0.9205(2)
H19 H 0.1945 0.2256 0.8911
H20 H 0.5421 0.2267 0.8185
C21 C 0.5300(5) 0.20252(3) 1.0180(2)
H21 H 0.7648 0.2034 1.0467
H22 H 0.4183 0.2025 1.1204
C22 C 0.4558(5) 0.17726(4) 0.9286(3)
H23 H 0.2225 0.1758 0.9046
H24 H 0.5318 0.1627 0.9968
H25 H 0.5654 0.1771 0.8270
N1 N 0.2278(4) 0.44757(3) 0.25619(17)
O1 O -0.0458(3) 0.42002(2) 0.08059(15)
O2 O 0.5858(3) 0.47391(2) 0.39785(15)
O3 O 0.4861(3) 0.37193(2) 0.73043(15)
C1B C -0.0369(5) 0.55803(3) -0.1146(2)
C2B C -0.3758(4) 0.52838(3) -0.2892(2)
C3B C -0.2655(4) 0.50624(3) -0.1857(2)
C4B C -0.0507(4) 0.51066(3) -0.0497(2)
C5B C -0.3718(4) 0.48165(3) -0.2239(2)
H1B H -0.5158 0.4789 -0.3164
C6B C -0.2676(4) 0.46054(4) -0.1264(2)
H2B H -0.3400 0.4436 -0.1541
C7B C -0.0605(4) 0.46433(3) 0.0093(2)
C8B C -0.2845(4) 0.57265(3) -0.3774(2)
C9B C -0.1621(5) 0.56915(4) -0.5279(2)
H3B H -0.0368 0.5543 -0.5480
C10B C -0.2224(4) 0.58747(3) -0.6501(2)
H4B H -0.1403 0.5850 -0.7539
C11B C -0.4033(4) 0.60925(3) -0.6190(2)
C12B C -0.5174(5) 0.61295(4) -0.4649(2)
H5B H -0.6357 0.6281 -0.4428
C13B C -0.4591(5) 0.59468(3) -0.3451(2)
H6B H -0.5382 0.5972 -0.2408
C14B C -0.3518(5) 0.62611(3) -0.8867(2)
H7B H -0.1133 0.6257 -0.8735
H8B H -0.4266 0.6100 -0.9422
C15B C -0.4638(5) 0.64954(3) -0.9859(2)
H9B H -0.3637 0.6491 -1.0915
H10B H -0.7005 0.6485 -1.0080
C16B C -0.3806(5) 0.67516(3) -0.9024(2)
H11B H -0.4884 0.6759 -0.7989
H12B H -0.1450 0.6758 -0.8759
C17B C -0.4794(5) 0.69891(3) -1.0039(2)
H13B H -0.7137 0.6980 -1.0341
H14B H -0.3646 0.6987 -1.1053
C18B C -0.4055(5) 0.72427(3) -0.9149(2)
H15B H -0.1711 0.7251 -0.8851
H16B H -0.5189 0.7243 -0.8130
C19B C -0.5028(5) 0.74839(3) -1.0122(2)
H17B H -0.7369 0.7476 -1.0426
H18B H -0.3879 0.7485 -1.1137
C20B C -0.4290(5) 0.77348(3) -0.9205(2)
H19B H -0.1945 0.7744 -0.8911
H20B H -0.5421 0.7733 -0.8185
C21B C -0.5300(5) 0.79748(3) -1.0180(2)
H21B H -0.7648 0.7966 -1.0467
H22B H -0.4183 0.7975 -1.1204
C22B C -0.4558(5) 0.82274(4) -0.9286(3)
H23B H -0.2225 0.8242 -0.9046
H24B H -0.5318 0.8373 -0.9968
H25B H -0.5654 0.8229 -0.8270
N1B N -0.2278(4) 0.55243(3) -0.25619(17)
O1B O 0.0458(3) 0.57998(2) -0.08059(15)
O2B O -0.5858(3) 0.52609(2) -0.39785(15)
O3B O -0.4861(3) 0.62807(2) -0.73043(15)
loop_
_geom_bond_atom_site_label_1
_geom_bond_atom_site_label_2
_geom_bond_site_symmetry_1
_geom_bond_site_symmetry_2
C1 N1 1_555 1_555
C2 C3 1_555 1_555
C3 C4 1_555 1_555
C4 C4B 1_555 1_555
C5 C3 1_555 1_555
H1 C5 1_555 1_555
C6 C5 1_555 1_555
H2 C6 1_555 1_555
C7 C6 1_555 1_555
C8 C9 1_555 1_555
C9 H3 1_555 1_555
C10 C9 1_555 1_555
H4 C10 1_555 1_555
C11 C10 1_555 1_555
C12 C11 1_555 1_555
H5 C12 1_555 1_555
C13 C8 1_555 1_555
H6 C13 1_555 1_555
C14 H7 1_555 1_555
H8 C14 1_555 1_555
C15 C14 1_555 1_555
H9 C15 1_555 1_555
H10 C15 1_555 1_555
C16 C15 1_555 1_555
H11 C16 1_555 1_555
H12 C16 1_555 1_555
C17 C16 1_555 1_555
H13 C17 1_555 1_555
H14 C17 1_555 1_555
C18 C17 1_555 1_555
H15 C18 1_555 1_555
H16 C18 1_555 1_555
C19 C18 1_555 1_555
H17 C19 1_555 1_555
H18 C19 1_555 1_555
C20 C19 1_555 1_555
H19 C20 1_555 1_555
H20 C20 1_555 1_555
C21 C20 1_555 1_555
H21 C21 1_555 1_555
H22 C21 1_555 1_555
C22 C21 1_555 1_555
H23 C22 1_555 1_555
H24 C22 1_555 1_555
H25 C22 1_555 1_555
N1 C2 1_555 1_555
O1 C1 1_555 1_555
O2 C2 1_555 1_555
O3 C11 1_555 1_555
C1B C7 1_555 1_555
C2B C3B 1_555 1_555
C3B C4B 1_555 1_555
C4B C7 1_555 1_555
C5B C3B 1_555 1_555
H1B C5B 1_555 1_555
C6B C5B 1_555 1_555
H2B C6B 1_555 1_555
C7B C1 1_555 1_555
C8B C9B 1_555 1_555
C9B H3B 1_555 1_555
C10B C9B 1_555 1_555
H4B C10B 1_555 1_555
C11B C10B 1_555 1_555
C12B C11B 1_555 1_555
H5B C12B 1_555 1_555
C13B C8B 1_555 1_555
H6B C13B 1_555 1_555
C14B H7B 1_555 1_555
H8B C14B 1_555 1_555
C15B C14B 1_555 1_555
H9B C15B 1_555 1_555
H10B C15B 1_555 1_555
C16B C15B 1_555 1_555
H11B C16B 1_555 1_555
H12B C16B 1_555 1_555
C17B C16B 1_555 1_555
H13B C17B 1_555 1_555
H14B C17B 1_555 1_555
C18B C17B 1_555 1_555
H15B C18B 1_555 1_555
H16B C18B 1_555 1_555
C19B C18B 1_555 1_555
H17B C19B 1_555 1_555
H18B C19B 1_555 1_555
C20B C19B 1_555 1_555
H19B C20B 1_555 1_555
H20B C20B 1_555 1_555
C21B C20B 1_555 1_555
H21B C21B 1_555 1_555
H22B C21B 1_555 1_555
C22B C21B 1_555 1_555
H23B C22B 1_555 1_555
H24B C22B 1_555 1_555
H25B C22B 1_555 1_555
N1B C1B 1_555 1_555
O1B C1B 1_555 1_555
O2B C2B 1_555 1_555
O3B C11B 1_555 1_555
C4 C7B 1_555 1_555
C8 N1 1_555 1_555
C12 C13 1_555 1_555
C14 O3 1_555 1_555
C2B N1B 1_555 1_555
C6B C7B 1_555 1_555
C8B N1B 1_555 1_555
C12B C13B 1_555 1_555
C14B O3B 1_555 1_555

#END
