
#######################################################################
#
#                 Cambridge Crystallographic Data Centre
#                                CCDC 
#
#######################################################################
#
# If this CIF has been generated from an entry in the Cambridge 
# Structural Database, then it will include bibliographic, chemical, 
# crystal, experimental, refinement or atomic coordinate data resulting 
# from the CCDC's data processing and validation procedures.
#
#######################################################################

data_IGAJUY
_chemical_formula_moiety         'C25 H23 N1 O2'
_chemical_name_systematic        
2'-phenyl-3-(2,4,6-trimethylphenyl)spiro[1,3-benzoxazine-4,1'-cyclopropan]-2(3H)-one
_symmetry_cell_setting           monoclinic
_symmetry_space_group_name_H-M   'P 21/c'
_symmetry_Int_Tables_number      14
_space_group_name_Hall           '-P 2ybc'
loop_
_symmetry_equiv_pos_site_id
_symmetry_equiv_pos_as_xyz
1 x,y,z
2 -x,1/2+y,1/2-z
3 -x,-y,-z
4 x,1/2-y,1/2+z
_cell_length_a                   9.8105(7)
_cell_length_b                   8.9661(6)
_cell_length_c                   22.8714(18)
_cell_angle_alpha                90
_cell_angle_beta                 97.957(4)
_cell_angle_gamma                90
_cell_volume                     1992.44
_exptl_crystal_colour            colorless
_exptl_crystal_description       block
_cell_formula_units_Z            4
_exptl_crystal_recrystallization_method chloroform/pentane
loop_
_atom_site_label
_atom_site_type_symbol
_atom_site_fract_x
_atom_site_fract_y
_atom_site_fract_z
O1 O 0.22150(18) 0.3095(2) 0.41143(8)
O2 O 0.05249(18) 0.2048(2) 0.35095(8)
N1 N 0.25867(19) 0.2380(2) 0.31821(9)
C1 C 0.1699(3) 0.2463(3) 0.35806(12)
C2 C 0.4054(2) 0.2699(3) 0.33552(11)
C3 C 0.4229(2) 0.4012(3) 0.37484(11)
C4 C 0.5243(3) 0.5103(3) 0.37635(13)
H1 H 0.5924 0.5033 0.3507
C5 C 0.5263(3) 0.6283(3) 0.41489(14)
H2 H 0.5960 0.7021 0.4158
C6 C 0.4277(3) 0.6407(3) 0.45235(15)
H3 H 0.4301 0.7223 0.4789
C7 C 0.3266(3) 0.5353(3) 0.45110(12)
H4 H 0.2579 0.5433 0.4764
C8 C 0.3260(3) 0.4170(3) 0.41243(11)
C9 C 0.2054(2) 0.2038(3) 0.25746(11)
C10 C 0.1919(2) 0.3215(3) 0.21736(12)
C11 C 0.1473(3) 0.2886(4) 0.15842(13)
H5 H 0.1399 0.3671 0.1303
C12 C 0.1135(3) 0.1457(4) 0.13948(14)
C13 C 0.1224(3) 0.0333(4) 0.18102(15)
H6 H 0.0952 -0.0647 0.1686
C14 C 0.1698(2) 0.0579(3) 0.24064(13)
C15 C 0.2202(3) 0.4795(3) 0.23673(13)
H7 H 0.1748 0.5004 0.2714
H8 H 0.1845 0.5474 0.2046
H9 H 0.3197 0.4942 0.2468
C16 C 0.1776(3) -0.0701(3) 0.28385(14)
H10 H 0.2737 -0.1013 0.2941
H11 H 0.1229 -0.1539 0.2659
H12 H 0.1413 -0.0381 0.3196
C17 C 0.0661(4) 0.1136(5) 0.07515(15)
H13 H 0.0581 0.0056 0.0692
H14 H 0.1331 0.1539 0.0513
H15 H -0.0237 0.1605 0.0633
C18 C 0.5028(2) 0.2353(3) 0.29336(11)
H16 H 0.5834 0.3016 0.2933
H17 H 0.4638 0.1968 0.2540
C19 C 0.5011(2) 0.1337(3) 0.34516(11)
H18 H 0.4524 0.0375 0.3345
C20 C 0.6131(2) 0.1185(3) 0.39542(11)
C21 C 0.5970(3) 0.0143(3) 0.43856(13)
H19 H 0.5139 -0.0413 0.4355
C22 C 0.6971(3) -0.0113(3) 0.48564(14)
H20 H 0.6832 -0.0844 0.5143
C23 C 0.8174(3) 0.0691(4) 0.49124(13)
H21 H 0.8864 0.0535 0.5241
C24 C 0.8369(3) 0.1723(3) 0.44871(13)
H22 H 0.9205 0.2271 0.4519
C25 C 0.7356(3) 0.1970(3) 0.40137(12)
H23 H 0.7505 0.2690 0.3724
loop_
_geom_bond_atom_site_label_1
_geom_bond_atom_site_label_2
_geom_bond_site_symmetry_1
_geom_bond_site_symmetry_2
O1 C1 1_555 1_555
O2 C1 1_555 1_555
N1 C1 1_555 1_555
C2 N1 1_555 1_555
C3 C2 1_555 1_555
C4 C3 1_555 1_555
H1 C4 1_555 1_555
C5 C4 1_555 1_555
H2 C5 1_555 1_555
C6 C5 1_555 1_555
H3 C6 1_555 1_555
C7 C6 1_555 1_555
H4 C7 1_555 1_555
C8 O1 1_555 1_555
C9 N1 1_555 1_555
C10 C9 1_555 1_555
C11 C10 1_555 1_555
H5 C11 1_555 1_555
C12 C11 1_555 1_555
C13 C12 1_555 1_555
H6 C13 1_555 1_555
C14 C9 1_555 1_555
C15 C10 1_555 1_555
H7 C15 1_555 1_555
H8 C15 1_555 1_555
H9 C15 1_555 1_555
C16 C14 1_555 1_555
H10 C16 1_555 1_555
H11 C16 1_555 1_555
H12 C16 1_555 1_555
C17 C12 1_555 1_555
H13 C17 1_555 1_555
H14 C17 1_555 1_555
H15 C17 1_555 1_555
C18 C2 1_555 1_555
H16 C18 1_555 1_555
H17 C18 1_555 1_555
C19 C2 1_555 1_555
H18 C19 1_555 1_555
C20 C19 1_555 1_555
C21 C20 1_555 1_555
H19 C21 1_555 1_555
C22 C21 1_555 1_555
H20 C22 1_555 1_555
C23 C22 1_555 1_555
H21 C23 1_555 1_555
C24 C23 1_555 1_555
H22 C24 1_555 1_555
C25 C20 1_555 1_555
H23 C25 1_555 1_555
C3 C8 1_555 1_555
C7 C8 1_555 1_555
C13 C14 1_555 1_555
C18 C19 1_555 1_555
C24 C25 1_555 1_555

#END
