
#######################################################################
#
#                 Cambridge Crystallographic Data Centre
#                                CCDC 
#
#######################################################################
#
# If this CIF has been generated from an entry in the Cambridge 
# Structural Database, then it will include bibliographic, chemical, 
# crystal, experimental, refinement or atomic coordinate data resulting 
# from the CCDC's data processing and validation procedures.
#
#######################################################################

data_IGAJUW
_chemical_formula_moiety         'C25 H19 N1 O2'
_chemical_name_systematic        
(E)-N-(2-(2-(4-Biphenylyl)vinyl)phenyl)-2-furamide
_symmetry_cell_setting           monoclinic
_symmetry_space_group_name_H-M   'P 21/c'
_symmetry_Int_Tables_number      14
_space_group_name_Hall           '-P 2ybc'
loop_
_symmetry_equiv_pos_site_id
_symmetry_equiv_pos_as_xyz
1 x,y,z
2 -x,1/2+y,1/2-z
3 -x,-y,-z
4 x,1/2-y,1/2+z
_cell_length_a                   10.9271(2)
_cell_length_b                   19.7960(4)
_cell_length_c                   8.79690(10)
_cell_angle_alpha                90
_cell_angle_beta                 92.3740(10)
_cell_angle_gamma                90
_cell_volume                     1901.25
_exptl_crystal_colour            colorless
_exptl_crystal_description       Prism
_cell_formula_units_Z            4
_exptl_crystal_recrystallization_method 'petroleum ether/dichloromethane'
loop_
_atom_site_label
_atom_site_type_symbol
_atom_site_fract_x
_atom_site_fract_y
_atom_site_fract_z
O1 O 0.69066(8) 0.17866(4) 0.88070(9)
O2 O 0.56344(8) 0.18549(4) 0.50228(9)
N1 N 0.52573(9) 0.25519(5) 0.70226(11)
H1 H 0.5441 0.2651 0.7981
C1 C 0.76833(12) 0.13051(7) 0.93850(15)
H2 H 0.8056 0.1316 1.0380
C2 C 0.78542(12) 0.08127(7) 0.83672(16)
H3 H 0.8347 0.0421 0.8510
C3 C 0.71470(11) 0.09950(6) 0.70252(15)
H4 H 0.7080 0.0751 0.6096
C4 C 0.65936(11) 0.15860(6) 0.73503(13)
C5 C 0.57830(10) 0.20106(6) 0.63762(13)
C6 C 0.44068(11) 0.29656(6) 0.61664(13)
C7 C 0.34268(11) 0.26554(6) 0.53871(14)
H5 H 0.3306 0.2183 0.5488
C8 C 0.26273(11) 0.30299(7) 0.44657(14)
H6 H 0.1971 0.2814 0.3914
C9 C 0.27890(12) 0.37245(7) 0.43514(14)
H7 H 0.2252 0.3984 0.3707
C10 C 0.37337(11) 0.40363(6) 0.51779(14)
H8 H 0.3821 0.4513 0.5114
C11 C 0.45663(11) 0.36676(6) 0.61073(13)
C12 C 0.55685(11) 0.40039(6) 0.69725(13)
H9 H 0.6298 0.3755 0.7193
C13 C 0.55134(11) 0.46414(6) 0.74683(13)
H10 H 0.4776 0.4882 0.7240
C14 C 0.64845(11) 0.50049(6) 0.83315(13)
C15 C 0.61548(11) 0.55136(6) 0.93372(13)
H11 H 0.5313 0.5613 0.9446
C16 C 0.70291(11) 0.58746(6) 1.01760(13)
H12 H 0.6778 0.6198 1.0896
C17 C 0.82804(11) 0.57700(6) 0.99805(13)
C18 C 0.86116(11) 0.52600(6) 0.89750(13)
H13 H 0.9454 0.5175 0.8830
C19 C 0.77344(11) 0.48767(6) 0.81860(13)
H14 H 0.7984 0.4523 0.7539
C20 C 0.91995(11) 0.62106(6) 1.07784(13)
C21 C 1.02722(11) 0.64044(6) 1.00799(14)
H15 H 1.0433 0.6235 0.9098
C22 C 1.11036(11) 0.68399(6) 1.07977(14)
H16 H 1.1832 0.6962 1.0312
C23 C 1.08758(12) 0.70986(7) 1.22235(15)
H17 H 1.1436 0.7405 1.2706
C24 C 0.98214(13) 0.69059(7) 1.29408(15)
H18 H 0.9665 0.7078 1.3922
C25 C 0.89957(11) 0.64639(7) 1.22295(14)
H19 H 0.8282 0.6332 1.2735
loop_
_geom_bond_atom_site_label_1
_geom_bond_atom_site_label_2
_geom_bond_site_symmetry_1
_geom_bond_site_symmetry_2
O1 C1 1_555 1_555
O2 C5 1_555 1_555
N1 H1 1_555 1_555
C1 H2 1_555 1_555
C2 C1 1_555 1_555
H3 C2 1_555 1_555
C3 C2 1_555 1_555
H4 C3 1_555 1_555
C4 O1 1_555 1_555
C5 N1 1_555 1_555
C6 N1 1_555 1_555
C7 C6 1_555 1_555
H5 C7 1_555 1_555
C8 C7 1_555 1_555
H6 C8 1_555 1_555
C9 C8 1_555 1_555
H7 C9 1_555 1_555
C10 C9 1_555 1_555
H8 C10 1_555 1_555
C11 C6 1_555 1_555
C12 C11 1_555 1_555
H9 C12 1_555 1_555
C13 C12 1_555 1_555
H10 C13 1_555 1_555
C14 C13 1_555 1_555
C15 C14 1_555 1_555
H11 C15 1_555 1_555
C16 C15 1_555 1_555
H12 C16 1_555 1_555
C17 C16 1_555 1_555
C18 C17 1_555 1_555
H13 C18 1_555 1_555
C19 C14 1_555 1_555
H14 C19 1_555 1_555
C20 C17 1_555 1_555
C21 C20 1_555 1_555
H15 C21 1_555 1_555
C22 C21 1_555 1_555
H16 C22 1_555 1_555
C23 C22 1_555 1_555
H17 C23 1_555 1_555
C24 C23 1_555 1_555
H18 C24 1_555 1_555
C25 C20 1_555 1_555
H19 C25 1_555 1_555
C3 C4 1_555 1_555
C4 C5 1_555 1_555
C10 C11 1_555 1_555
C18 C19 1_555 1_555
C24 C25 1_555 1_555

#END
