
#######################################################################
#
#                 Cambridge Crystallographic Data Centre
#                                CCDC 
#
#######################################################################
#
# If this CIF has been generated from an entry in the Cambridge 
# Structural Database, then it will include bibliographic, chemical, 
# crystal, experimental, refinement or atomic coordinate data resulting 
# from the CCDC's data processing and validation procedures.
#
#######################################################################

data_IGAREO
_chemical_formula_moiety         'C13 H15 N3 O3 S1'
_chemical_name_systematic        
N-(4-Acetyl-5-(3-methoxyphenyl)-4,5-dihydro-1,3,4-thiadiazol-2-yl)acetamide
_symmetry_cell_setting           monoclinic
_symmetry_space_group_name_H-M   'P 21'
_symmetry_Int_Tables_number      4
_space_group_name_Hall           'P 2yb'
loop_
_symmetry_equiv_pos_site_id
_symmetry_equiv_pos_as_xyz
1 x,y,z
2 -x,1/2+y,-z
_cell_length_a                   11.3790(4)
_cell_length_b                   10.5993(3)
_cell_length_c                   11.9596(2)
_cell_angle_alpha                90
_cell_angle_beta                 108.225(2)
_cell_angle_gamma                90
_cell_volume                     1370.08
_exptl_crystal_colour            colorless
_exptl_crystal_description       prism
_cell_formula_units_Z            4
_exptl_crystal_recrystallization_method ethanol
loop_
_atom_site_label
_atom_site_type_symbol
_atom_site_fract_x
_atom_site_fract_y
_atom_site_fract_z
C1 C 0.5868(2) -0.7228(3) -0.0384(2)
C2 C 0.6404(3) -0.6487(3) -0.1046(3)
H1 H 0.6025 -0.6403 -0.1852
C3 C 0.7500(3) -0.5877(3) -0.0502(3)
H2 H 0.7862 -0.5381 -0.0946
C4 C 0.8070(2) -0.5993(3) 0.0697(2)
H3 H 0.8809 -0.5571 0.1056
C5 C 0.7547(2) -0.6732(3) 0.1360(2)
C6 C 0.64252(19) -0.7336(2) 0.0813(2)
H4 H 0.6051 -0.7814 0.1259
C7 C 0.8125(2) -0.6888(3) 0.2677(2)
C8 C 0.9342(2) -0.4984(3) 0.3382(2)
C9 C 1.0569(2) -0.4353(3) 0.3707(3)
H5 H 1.0462 -0.3459 0.3759
H6 H 1.0958 -0.4527 0.3118
H7 H 1.1079 -0.4667 0.4454
C10 C 1.0095(2) -0.8108(3) 0.3301(2)
C11 C 1.0880(3) -1.0246(3) 0.3708(2)
C12 C 1.1970(3) -1.1058(3) 0.3769(3)
H8 H 1.1898 -1.1374 0.2998
H9 H 1.1999 -1.1753 0.4292
H10 H 1.2714 -1.0570 0.4057
C13 C 0.4197(2) -0.8575(3) -0.0385(3)
H11 H 0.3981 -0.8077 0.0192
H12 H 0.4743 -0.9243 0.0001
H13 H 0.3462 -0.8928 -0.0927
N1 N 0.92954(17) -0.6222(2) 0.31327(19)
N2 N 1.03605(18) -0.6942(2) 0.3278(2)
N3 N 1.0999(2) -0.9007(2) 0.3434(2)
O1 O 0.47967(17) -0.7804(2) -0.10059(17)
O2 O 0.83930(17) -0.4412(2) 0.3297(2)
O3 O 0.99396(18) -1.0622(2) 0.3878(2)
S1 S 0.85561(5) -0.85173(6) 0.31233(6)
H28 H 0.755(2) -0.659(3) 0.301(2)
H30 H 1.157(2) -0.882(3) 0.335(2)
C14 C 0.8901(2) -1.2174(3) 0.0336(2)
C15 C 0.8398(3) -1.1563(3) 0.1092(3)
H14 H 0.8732 -1.1680 0.1900
C16 C 0.7400(3) -1.0777(3) 0.0648(3)
H15 H 0.7053 -1.0376 0.1161
C17 C 0.6904(2) -1.0574(3) -0.0546(2)
H16 H 0.6234 -1.0033 -0.0836
C18 C 0.7411(2) -1.1180(3) -0.1308(2)
C19 C 0.8416(2) -1.1982(2) -0.0865(2)
H17 H 0.8762 -1.2390 -0.1375
C20 C 0.6864(2) -1.1035(3) -0.2617(2)
C21 C 0.5698(2) -1.2984(3) -0.3295(2)
C22 C 0.4487(2) -1.3662(4) -0.3689(3)
H18 H 0.4272 -1.3938 -0.3014
H19 H 0.4552 -1.4381 -0.4155
H20 H 0.3858 -1.3104 -0.4153
C23 C 0.4849(2) -0.9881(3) -0.3370(2)
C24 C 0.4060(2) -0.7750(3) -0.3825(2)
C25 C 0.2950(2) -0.6947(3) -0.3933(3)
H21 H 0.2630 -0.6632 -0.4723
H22 H 0.3181 -0.6251 -0.3395
H23 H 0.2327 -0.7441 -0.3751
C26 C 1.0400(3) -1.3640(4) 0.0114(3)
H24 H 1.0731 -1.3064 -0.0330
H25 H 0.9777 -1.4155 -0.0416
H26 H 1.1052 -1.4167 0.0589
N4 N 0.57045(17) -1.1750(2) -0.3073(2)
N5 N 0.46132(18) -1.1045(2) -0.33213(19)
N6 N 0.39171(19) -0.8998(2) -0.3601(2)
O4 O 0.9872(2) -1.2954(3) 0.0847(2)
O5 O 0.66892(17) -1.3537(2) -0.3139(2)
O6 O 0.50079(17) -0.7347(2) -0.39303(19)
S2 S 0.63983(5) -0.94303(6) -0.31157(6)
H27 H 0.742(3) -1.129(4) -0.297(3)
H29 H 0.325(3) -0.923(3) -0.346(2)
loop_
_geom_bond_atom_site_label_1
_geom_bond_atom_site_label_2
_geom_bond_site_symmetry_1
_geom_bond_site_symmetry_2
C1 C2 1_555 1_555
C2 H1 1_555 1_555
C3 C2 1_555 1_555
H2 C3 1_555 1_555
C4 C3 1_555 1_555
H3 C4 1_555 1_555
C5 C4 1_555 1_555
C6 C1 1_555 1_555
H4 C6 1_555 1_555
C7 C5 1_555 1_555
C8 C9 1_555 1_555
C9 H5 1_555 1_555
H6 C9 1_555 1_555
H7 C9 1_555 1_555
C10 N2 1_555 1_555
C11 C12 1_555 1_555
C12 H8 1_555 1_555
H9 C12 1_555 1_555
H10 C12 1_555 1_555
C13 H11 1_555 1_555
H12 C13 1_555 1_555
H13 C13 1_555 1_555
C14 C15 1_555 1_555
C15 H14 1_555 1_555
C16 C15 1_555 1_555
H15 C16 1_555 1_555
C17 C16 1_555 1_555
H16 C17 1_555 1_555
C18 C17 1_555 1_555
C19 C14 1_555 1_555
H17 C19 1_555 1_555
C20 C18 1_555 1_555
C21 C22 1_555 1_555
C22 H18 1_555 1_555
H19 C22 1_555 1_555
H20 C22 1_555 1_555
C23 N5 1_555 1_555
C24 C25 1_555 1_555
C25 H21 1_555 1_555
H22 C25 1_555 1_555
H23 C25 1_555 1_555
C26 H24 1_555 1_555
H25 C26 1_555 1_555
H26 C26 1_555 1_555
N1 C7 1_555 1_555
N2 N1 1_555 1_555
N3 C10 1_555 1_555
N4 C20 1_555 1_555
N5 N4 1_555 1_555
N6 C23 1_555 1_555
O1 C1 1_555 1_555
O2 C8 1_555 1_555
O3 C11 1_555 1_555
O4 C14 1_555 1_555
O5 C21 1_555 1_555
O6 C24 1_555 1_555
S1 C7 1_555 1_555
S2 C20 1_555 1_555
H27 C20 1_555 1_555
H28 C7 1_555 1_555
H29 N6 1_555 1_555
H30 N3 1_555 1_555
C5 C6 1_555 1_555
C8 N1 1_555 1_555
C10 S1 1_555 1_555
C11 N3 1_555 1_555
C13 O1 1_555 1_555
C18 C19 1_555 1_555
C21 N4 1_555 1_555
C23 S2 1_555 1_555
C24 N6 1_555 1_555
C26 O4 1_555 1_555

#END
