
#######################################################################
#
#                 Cambridge Crystallographic Data Centre
#                                CCDC 
#
#######################################################################
#
# If this CIF has been generated from an entry in the Cambridge 
# Structural Database, then it will include bibliographic, chemical, 
# crystal, experimental, refinement or atomic coordinate data resulting 
# from the CCDC's data processing and validation procedures.
#
#######################################################################

data_IGASIS
_chemical_name_common            
N,N-diethyl-2,2-bis(2-nitrophenylthio)ethenamine
_chemical_formula_moiety         'C18 H19 N3 O4 S2'
_chemical_name_systematic        
1-(N,N-Diethylamino)-2,2-bis(2-nitrophenylthio)ethene
_symmetry_cell_setting           monoclinic
_symmetry_space_group_name_H-M   'P 21/a'
_symmetry_Int_Tables_number      14
_space_group_name_Hall           '-P 2yab'
loop_
_symmetry_equiv_pos_site_id
_symmetry_equiv_pos_as_xyz
1 x,y,z
2 1/2+x,1/2-y,z
3 -x,-y,-z
4 1/2-x,1/2+y,-z
_cell_length_a                   15.5206(4)
_cell_length_b                   7.6958(2)
_cell_length_c                   15.7137(3)
_cell_angle_alpha                90
_cell_angle_beta                 92.580(7)
_cell_angle_gamma                90
_cell_volume                     1875
_exptl_crystal_colour            red
_exptl_crystal_description       block
_chemical_melting_point          '194-196 deg.C'
_cell_formula_units_Z            4
_exptl_crystal_recrystallization_method ethanol
loop_
_atom_site_label
_atom_site_type_symbol
_atom_site_fract_x
_atom_site_fract_y
_atom_site_fract_z
S1 S 0.02952(3) 0.34709(6) 0.22954(3)
S2 S -0.05900(3) 0.04176(6) 0.30537(3)
C1 C -0.03212(12) 0.3422(2) 0.13153(12)
C2 C -0.04823(13) 0.1846(2) 0.08885(12)
H1 H -0.0255 0.0801 0.1129
C3 C -0.09642(15) 0.1772(3) 0.01249(13)
H2 H -0.1053 0.0685 -0.0151
C4 C -0.13174(15) 0.3260(3) -0.02401(14)
H3 H -0.1650 0.3198 -0.0762
C5 C -0.11814(14) 0.4829(3) 0.01605(13)
H4 H -0.1424 0.5861 -0.0080
C6 C -0.06847(13) 0.4899(2) 0.09246(12)
N1 N -0.05440(13) 0.6611(2) 0.12998(12)
O1 O -0.10030(12) 0.7813(2) 0.10507(12)
O2 O 0.00342(11) 0.67773(19) 0.18526(10)
C7 C -0.05829(12) 0.1449(2) 0.40761(12)
C8 C 0.01747(14) 0.2097(2) 0.44584(12)
H5 H 0.0699 0.1975 0.4174
C9 C 0.01856(16) 0.2919(3) 0.52471(13)
H6 H 0.0719 0.3326 0.5493
C10 C -0.05570(19) 0.3158(3) 0.56815(14)
H7 H -0.0543 0.3733 0.6217
C11 C -0.13116(17) 0.2548(3) 0.53210(14)
H8 H -0.1835 0.2707 0.5602
C12 C -0.13169(13) 0.1687(3) 0.45345(13)
N2 N -0.21339(12) 0.1014(3) 0.41899(13)
O3 O -0.27852(12) 0.1730(3) 0.44140(14)
O4 O -0.21286(10) -0.0242(2) 0.37039(10)
C13 C 0.03307(12) 0.1277(2) 0.26083(12)
C14 C 0.10030(12) 0.0170(2) 0.25612(12)
H9 H 0.0949 -0.0850 0.2895
N3 N 0.17283(11) 0.0232(2) 0.21364(11)
C15 C 0.19169(14) 0.1582(3) 0.14895(14)
H10 H 0.1365 0.2006 0.1225
H11 H 0.2249 0.1042 0.1036
C16 C 0.24160(16) 0.3104(3) 0.18521(18)
H12 H 0.2108 0.3605 0.2325
H13 H 0.2477 0.3984 0.1408
H14 H 0.2989 0.2716 0.2060
C17 C 0.23766(14) -0.1118(3) 0.23238(15)
H15 H 0.2671 -0.1389 0.1794
H16 H 0.2077 -0.2186 0.2501
C18 C 0.30504(16) -0.0647(3) 0.30074(16)
H17 H 0.3378 0.0364 0.2824
H18 H 0.3443 -0.1631 0.3107
H19 H 0.2768 -0.0368 0.3536
loop_
_geom_bond_atom_site_label_1
_geom_bond_atom_site_label_2
_geom_bond_site_symmetry_1
_geom_bond_site_symmetry_2
S1 C1 1_555 1_555
S2 C7 1_555 1_555
C1 C2 1_555 1_555
C2 H1 1_555 1_555
C3 C2 1_555 1_555
H2 C3 1_555 1_555
C4 C3 1_555 1_555
H3 C4 1_555 1_555
C5 C4 1_555 1_555
H4 C5 1_555 1_555
C6 C1 1_555 1_555
N1 C6 1_555 1_555
O1 N1 1_555 1_555
O2 N1 1_555 1_555
C7 C8 1_555 1_555
C8 H5 1_555 1_555
C9 C8 1_555 1_555
H6 C9 1_555 1_555
C10 C9 1_555 1_555
H7 C10 1_555 1_555
C11 C10 1_555 1_555
H8 C11 1_555 1_555
C12 C7 1_555 1_555
N2 C12 1_555 1_555
O3 N2 1_555 1_555
O4 N2 1_555 1_555
C13 S1 1_555 1_555
C14 C13 1_555 1_555
H9 C14 1_555 1_555
N3 C14 1_555 1_555
C15 N3 1_555 1_555
H10 C15 1_555 1_555
H11 C15 1_555 1_555
C16 C15 1_555 1_555
H12 C16 1_555 1_555
H13 C16 1_555 1_555
H14 C16 1_555 1_555
C17 N3 1_555 1_555
H15 C17 1_555 1_555
H16 C17 1_555 1_555
C18 C17 1_555 1_555
H17 C18 1_555 1_555
H18 C18 1_555 1_555
H19 C18 1_555 1_555
S2 C13 1_555 1_555
C5 C6 1_555 1_555
C11 C12 1_555 1_555

#END
