
#######################################################################
#
#                 Cambridge Crystallographic Data Centre
#                                CCDC 
#
#######################################################################
#
# If this CIF has been generated from an entry in the Cambridge 
# Structural Database, then it will include bibliographic, chemical, 
# crystal, experimental, refinement or atomic coordinate data resulting 
# from the CCDC's data processing and validation procedures.
#
#######################################################################

data_IGEFEH
_chemical_compound_source        'whole plant of Teucrium viscidum'
_chemical_name_common            
2alpha,11,12-Trihydroxy-7beta,20-epoxy-8,11,13-abietatriene
_chemical_formula_moiety         'C20 H28 O4'
_chemical_name_systematic        7,20-Epoxyabi\h-8,11,13-triene-2,11,12-triol
_symmetry_cell_setting           orthorhombic
_symmetry_space_group_name_H-M   'P 21 21 21'
_symmetry_Int_Tables_number      19
_space_group_name_Hall           'P 2ac 2ab'
loop_
_symmetry_equiv_pos_site_id
_symmetry_equiv_pos_as_xyz
1 x,y,z
2 1/2-x,-y,1/2+z
3 1/2+x,1/2-y,-z
4 -x,1/2+y,1/2-z
_cell_length_a                   10.734(7)
_cell_length_b                   12.344(4)
_cell_length_c                   13.282(5)
_cell_angle_alpha                90
_cell_angle_beta                 90
_cell_angle_gamma                90
_cell_volume                     1759.87
_exptl_crystal_colour            yellow
_exptl_crystal_description       block
_chemical_melting_point          '238-239 deg.C'
_cell_formula_units_Z            4
loop_
_atom_site_label
_atom_site_type_symbol
_atom_site_fract_x
_atom_site_fract_y
_atom_site_fract_z
O1 O 1.03759(11) 0.99302(8) 0.95403(7)
H1 H 1.0578 1.0321 0.9068
O2 O 0.89839(9) 0.62234(8) 0.70382(8)
O3 O 0.68663(11) 0.98005(7) 0.74831(9)
H2 H 0.6366 1.0220 0.7227
O4 O 0.48137(11) 0.95478(8) 0.64778(7)
H3 H 0.4744 0.9630 0.5868
C1 C 0.90009(12) 0.89327(10) 0.84251(9)
H4 H 0.9269 0.9344 0.7842
H5 H 0.8319 0.9325 0.8736
C2 C 1.00751(12) 0.88686(10) 0.91695(9)
H6 H 1.0806 0.8553 0.8839
C3 C 0.97105(13) 0.81808(11) 1.00688(9)
H7 H 0.8999 0.8510 1.0399
H8 H 1.0395 0.8172 1.0546
C4 C 0.93823(13) 0.70102(11) 0.97836(10)
C5 C 0.83208(11) 0.70468(10) 0.89869(9)
H9 H 0.7591 0.7330 0.9344
C6 C 0.79283(13) 0.59180(10) 0.85967(10)
H10 H 0.8560 0.5387 0.8768
H11 H 0.7150 0.5701 0.8909
C7 C 0.77706(12) 0.59715(10) 0.74631(10)
H12 H 0.7474 0.5274 0.7206
C8 C 0.68815(13) 0.68527(10) 0.71790(10)
C9 C 0.72849(11) 0.78717(9) 0.75105(9)
C10 C 0.85226(11) 0.78253(10) 0.80728(9)
C11 C 0.65552(13) 0.87582(10) 0.72336(9)
C12 C 0.54723(13) 0.86098(10) 0.66705(9)
C13 C 0.50557(13) 0.75904(11) 0.63619(9)
C14 C 0.58035(13) 0.67086(11) 0.66259(10)
H13 H 0.5573 0.6015 0.6427
C15 C 1.05683(15) 0.64023(13) 0.94624(14)
H14 H 1.1000 0.6816 0.8960
H15 H 1.0345 0.5708 0.9190
H16 H 1.1099 0.6303 1.0037
C16 C 0.88594(17) 0.64419(14) 1.07220(12)
H17 H 0.9482 0.6433 1.1241
H18 H 0.8632 0.5712 1.0554
H19 H 0.8138 0.6825 1.0957
C17 C 0.94163(13) 0.72906(11) 0.73159(10)
H20 H 0.9478 0.7739 0.6718
H21 H 1.0240 0.7236 0.7612
C18 C 0.38463(14) 0.74868(12) 0.57755(11)
H22 H 0.3843 0.8056 0.5261
C19 C 0.27206(16) 0.76757(19) 0.64557(17)
H23 H 0.2666 0.7102 0.6941
H24 H 0.1976 0.7688 0.6055
H25 H 0.2812 0.8356 0.6798
C20 C 0.37130(17) 0.64039(14) 0.52341(13)
H26 H 0.4438 0.6276 0.4828
H27 H 0.2987 0.6420 0.4812
H28 H 0.3630 0.5834 0.5721
loop_
_geom_bond_atom_site_label_1
_geom_bond_atom_site_label_2
_geom_bond_site_symmetry_1
_geom_bond_site_symmetry_2
O1 H1 1_555 1_555
O2 C7 1_555 1_555
O3 H2 1_555 1_555
O4 H3 1_555 1_555
C1 H4 1_555 1_555
H5 C1 1_555 1_555
C2 O1 1_555 1_555
H6 C2 1_555 1_555
C3 C2 1_555 1_555
H7 C3 1_555 1_555
H8 C3 1_555 1_555
C4 C3 1_555 1_555
C5 C4 1_555 1_555
H9 C5 1_555 1_555
C6 C5 1_555 1_555
H10 C6 1_555 1_555
H11 C6 1_555 1_555
C7 C6 1_555 1_555
H12 C7 1_555 1_555
C8 C7 1_555 1_555
C9 C8 1_555 1_555
C10 C1 1_555 1_555
C11 O3 1_555 1_555
C12 O4 1_555 1_555
C13 C12 1_555 1_555
C14 C8 1_555 1_555
H13 C14 1_555 1_555
C15 C4 1_555 1_555
H14 C15 1_555 1_555
H15 C15 1_555 1_555
H16 C15 1_555 1_555
C16 C4 1_555 1_555
H17 C16 1_555 1_555
H18 C16 1_555 1_555
H19 C16 1_555 1_555
C17 O2 1_555 1_555
H20 C17 1_555 1_555
H21 C17 1_555 1_555
C18 C13 1_555 1_555
H22 C18 1_555 1_555
C19 C18 1_555 1_555
H23 C19 1_555 1_555
H24 C19 1_555 1_555
H25 C19 1_555 1_555
C20 C18 1_555 1_555
H26 C20 1_555 1_555
H27 C20 1_555 1_555
H28 C20 1_555 1_555
C1 C2 1_555 1_555
C5 C10 1_555 1_555
C9 C10 1_555 1_555
C9 C11 1_555 1_555
C10 C17 1_555 1_555
C11 C12 1_555 1_555
C13 C14 1_555 1_555

#END
