
#######################################################################
#
#                 Cambridge Crystallographic Data Centre
#                                CCDC 
#
#######################################################################
#
# If this CIF has been generated from an entry in the Cambridge 
# Structural Database, then it will include bibliographic, chemical, 
# crystal, experimental, refinement or atomic coordinate data resulting 
# from the CCDC's data processing and validation procedures.
#
#######################################################################

data_IGEPUF
_chemical_formula_moiety         'C9 H29 B10 N1'
_chemical_name_systematic        
nido-7-Cyclohexyl(dimethyl)amino-7-carbadodecaborane(12)
_symmetry_cell_setting           orthorhombic
_symmetry_space_group_name_H-M   'P 21 21 21'
_symmetry_Int_Tables_number      19
_space_group_name_Hall           'P 2ac 2ab'
loop_
_symmetry_equiv_pos_site_id
_symmetry_equiv_pos_as_xyz
1 x,y,z
2 1/2-x,-y,1/2+z
3 -x,1/2+y,1/2-z
4 1/2+x,1/2-y,-z
_cell_length_a                   9.200(4)
_cell_length_b                   11.114(4)
_cell_length_c                   15.636(6)
_cell_angle_alpha                90
_cell_angle_beta                 90
_cell_angle_gamma                90
_cell_volume                     1598.76
_exptl_crystal_colour            colorless
_exptl_crystal_description       rhomb
_cell_formula_units_Z            4
loop_
_atom_site_label
_atom_site_type_symbol
_atom_site_fract_x
_atom_site_fract_y
_atom_site_fract_z
N1 N 0.41910(18) 0.39399(14) 0.62111(10)
C1 C 0.4059(2) 0.47849(17) 0.54169(12)
H1 H 0.4728 0.4467 0.4967
C2 C 0.4519(2) 0.60856(17) 0.56044(13)
H2 H 0.5505 0.6096 0.5858
H3 H 0.3837 0.6452 0.6019
C3 C 0.4519(2) 0.68096(19) 0.47672(14)
H4 H 0.5265 0.6478 0.4377
H5 H 0.4783 0.7654 0.4894
C4 C 0.3045(3) 0.6783(2) 0.43219(15)
H6 H 0.2326 0.7229 0.4670
H7 H 0.3123 0.7188 0.3760
C5 C 0.2522(3) 0.5490(2) 0.41936(14)
H8 H 0.3169 0.5079 0.3781
H9 H 0.1529 0.5499 0.3949
C6 C 0.2518(2) 0.4790(2) 0.50397(13)
H10 H 0.2191 0.3954 0.4938
H11 H 0.1835 0.5173 0.5446
C7 C 0.5731(2) 0.40359(17) 0.66063(12)
C8 C 0.3909(3) 0.26679(19) 0.59177(14)
H12 H 0.4073(17) 0.2128(8) 0.6379(8)
H13 H 0.4548(15) 0.2478(6) 0.5460(10)
H14 H 0.2930(16) 0.2597(4) 0.5729(10)
C9 C 0.3016(2) 0.4241(2) 0.68529(13)
H15 H 0.2083(13) 0.4074(12) 0.6610(5)
H16 H 0.3074(10) 0.5076(12) 0.6999(7)
H17 H 0.3149(9) 0.3765(11) 0.7356(8)
B1 B 0.7881(3) 0.2982(2) 0.75874(17)
H18 H 0.819(3) 0.221(2) 0.7944(16)
B2 B 0.6029(3) 0.3408(2) 0.75909(15)
H19 H 0.510(3) 0.297(2) 0.7919(14)
B3 B 0.6808(3) 0.2767(2) 0.66734(16)
H20 H 0.650(3) 0.195(2) 0.6416(15)
B4 B 0.8598(3) 0.3318(2) 0.65379(16)
H21 H 0.943(3) 0.275(2) 0.6248(16)
B5 B 0.8942(3) 0.4286(2) 0.74317(16)
H22 H 0.999(3) 0.441(3) 0.7718(17)
B6 B 0.7333(3) 0.4376(2) 0.80757(15)
H23 H 0.735(3) 0.451(2) 0.8763(15)
B7 B 0.7152(3) 0.4018(2) 0.59500(15)
H24 H 0.702(3) 0.388(2) 0.5267(15)
B8 B 0.8693(3) 0.4916(2) 0.64061(16)
H25 H 0.952(3) 0.532(3) 0.6050(17)
H26 H 0.763(3) 0.510(3) 0.6035(16)
B9 B 0.7884(3) 0.5601(2) 0.74062(16)
H27 H 0.823(3) 0.643(2) 0.7711(16)
H28 H 0.684(3) 0.586(2) 0.7017(16)
B10 B 0.5980(3) 0.5024(2) 0.73950(14)
H29 H 0.505(3) 0.550(2) 0.7686(15)
loop_
_geom_bond_atom_site_label_1
_geom_bond_atom_site_label_2
_geom_bond_site_symmetry_1
_geom_bond_site_symmetry_2
N1 C1 1_555 1_555
C1 H1 1_555 1_555
C2 C1 1_555 1_555
H2 C2 1_555 1_555
H3 C2 1_555 1_555
C3 C2 1_555 1_555
H4 C3 1_555 1_555
H5 C3 1_555 1_555
C4 C3 1_555 1_555
H6 C4 1_555 1_555
H7 C4 1_555 1_555
C5 C4 1_555 1_555
H8 C5 1_555 1_555
H9 C5 1_555 1_555
C6 C1 1_555 1_555
H10 C6 1_555 1_555
H11 C6 1_555 1_555
C7 N1 1_555 1_555
C8 N1 1_555 1_555
H12 C8 1_555 1_555
H13 C8 1_555 1_555
H14 C8 1_555 1_555
C9 N1 1_555 1_555
H15 C9 1_555 1_555
H16 C9 1_555 1_555
H17 C9 1_555 1_555
B1 H18 1_555 1_555
B2 C7 1_555 1_555
H19 B2 1_555 1_555
B3 C7 1_555 1_555
H20 B3 1_555 1_555
B4 B1 1_555 1_555
H21 B4 1_555 1_555
B5 B1 1_555 1_555
H22 B5 1_555 1_555
B6 B1 1_555 1_555
H23 B6 1_555 1_555
B7 C7 1_555 1_555
H24 B7 1_555 1_555
B8 B4 1_555 1_555
H25 B8 1_555 1_555
H26 B7 1_555 1_555
B9 B5 1_555 1_555
H27 B9 1_555 1_555
H28 B9 1_555 1_555
B10 C7 1_555 1_555
H29 B10 1_555 1_555
C5 C6 1_555 1_555
B1 B2 1_555 1_555
B1 B3 1_555 1_555
B2 B3 1_555 1_555
B2 B6 1_555 1_555
B2 B10 1_555 1_555
B3 B4 1_555 1_555
B3 B7 1_555 1_555
B4 B5 1_555 1_555
B4 B7 1_555 1_555
B5 B6 1_555 1_555
B5 B8 1_555 1_555
B6 B9 1_555 1_555
B6 B10 1_555 1_555
B7 B8 1_555 1_555
B8 H26 1_555 1_555
B8 B9 1_555 1_555
B9 B10 1_555 1_555
H28 B10 1_555 1_555

#END
