
#######################################################################
#
#                 Cambridge Crystallographic Data Centre
#                                CCDC 
#
#######################################################################
#
# If this CIF has been generated from an entry in the Cambridge 
# Structural Database, then it will include bibliographic, chemical, 
# crystal, experimental, refinement or atomic coordinate data resulting 
# from the CCDC's data processing and validation procedures.
#
#######################################################################

data_IHANUC
_chemical_formula_moiety         'C21 H28 N3 P1 S1'
_chemical_name_systematic        
'N-(3-(amino(cyano)methyl)heptan-3-yl)-P,P-diphenylphosphinothioic amide'
_symmetry_cell_setting           monoclinic
_symmetry_space_group_name_H-M   'P 21'
_symmetry_Int_Tables_number      4
_space_group_name_Hall           'P 2yb'
loop_
_symmetry_equiv_pos_site_id
_symmetry_equiv_pos_as_xyz
1 x,y,z
2 -x,1/2+y,-z
_cell_length_a                   10.6234(6)
_cell_length_b                   7.7297(4)
_cell_length_c                   12.9472(7)
_cell_angle_alpha                90
_cell_angle_beta                 95.477(7)
_cell_angle_gamma                90
_cell_volume                     1058.31
_exptl_crystal_colour            colorless
_exptl_crystal_description       block
_cell_formula_units_Z            2
loop_
_atom_site_label
_atom_site_type_symbol
_atom_site_fract_x
_atom_site_fract_y
_atom_site_fract_z
S1 S 0.11989(16) 0.2442(2) 0.75911(12)
P1 P 0.22468(16) 0.4527(2) 0.76866(12)
N1 N 0.3782(5) 0.4298(7) 0.8036(4)
N2 N 0.5024(6) 0.2254(8) 1.0356(4)
N3 N 0.3861(7) 0.0222(8) 0.8133(5)
C1 C 0.2045(6) 0.5752(9) 0.6493(5)
C2 C 0.1914(6) 0.5241(10) 0.9717(5)
C3 C 0.2727(6) 0.7293(10) 0.6380(5)
C4 C 0.1419(6) 0.7624(9) 0.8579(5)
C5 C 0.1632(7) 0.7755(9) 0.4705(5)
C6 C 0.1834(6) 0.5934(8) 0.8720(5)
C7 C 0.4983(6) 0.1974(8) 0.9493(6)
C8 C 0.4869(7) 0.1439(9) 0.8371(5)
C9 C 0.4754(6) 0.3113(10) 0.7688(5)
C10 C 0.6040(6) 0.4041(9) 0.7852(5)
C11 C 0.4392(6) 0.2613(10) 0.6552(5)
C12 C 0.1160(7) 0.7918(9) 1.0382(5)
C13 C 0.0975(7) 0.6220(10) 0.4787(5)
C14 C 0.1196(6) 0.5240(9) 0.5689(5)
C15 C 0.2493(7) 0.8270(9) 0.5495(5)
C16 C 0.1094(7) 0.8588(10) 0.9402(6)
C17 C 0.7556(8) 0.6422(12) 0.7501(6)
C18 C 0.5272(7) 0.1330(10) 0.6098(6)
C19 C 0.6257(7) 0.5623(11) 0.7210(6)
C20 C 0.7929(9) 0.7826(13) 0.6803(8)
C21 C 0.1576(6) 0.6230(10) 1.0541(5)
H1 H 0.40771 0.50222 0.85245
H2 H 0.22005 0.40871 0.98335
H3 H 0.33462 0.76557 0.69142
H4 H 0.13576 0.81199 0.79042
H5 H 0.1483 0.84488 0.41001
H6 H 0.56766 0.08514 0.8238
H7 H 0.61763 0.438 0.85919
H8 H 0.67036 0.31867 0.77281
H9 H 0.35297 0.21158 0.64939
H10 H 0.43621 0.36789 0.61262
H11 H 0.09248 0.85967 1.09449
H12 H 0.03843 0.58418 0.42364
H13 H 0.07449 0.4189 0.57483
H14 H 0.29393 0.93243 0.54323
H15 H 0.08178 0.97475 0.92876
H16 H 0.75736 0.68918 0.82138
H17 H 0.81976 0.54922 0.75131
H18 H 0.49668 0.10905 0.53743
H19 H 0.61262 0.18191 0.61298
H20 H 0.52918 0.02523 0.64984
H21 H 0.55957 0.64919 0.73117
H22 H 0.61823 0.53002 0.6467
H23 H 0.87716 0.82542 0.70524
H24 H 0.79428 0.73728 0.60973
H25 H 0.73171 0.8776 0.67998
H26 H 0.16304 0.5748 1.12185
H27 H 0.4002 -0.08699 0.84856
H28 H 0.30569 0.08333 0.82503
loop_
_geom_bond_atom_site_label_1
_geom_bond_atom_site_label_2
_geom_bond_site_symmetry_1
_geom_bond_site_symmetry_2
S1 P1 1_555 1_555
P1 N1 1_555 1_555
N1 C9 1_555 1_555
N2 C7 1_555 1_555
N3 C8 1_555 1_555
C1 P1 1_555 1_555
C2 C6 1_555 1_555
C3 C1 1_555 1_555
C4 C6 1_555 1_555
C5 C13 1_555 1_555
C6 P1 1_555 1_555
C7 C8 1_555 1_555
C8 C9 1_555 1_555
C9 C10 1_555 1_555
C10 C19 1_555 1_555
C11 C9 1_555 1_555
C12 C16 1_555 1_555
C13 C14 1_555 1_555
C14 C1 1_555 1_555
C15 C3 1_555 1_555
C16 C4 1_555 1_555
C17 C19 1_555 1_555
C18 C11 1_555 1_555
C19 H21 1_555 1_555
C20 C17 1_555 1_555
C21 C2 1_555 1_555
H1 N1 1_555 1_555
H2 C2 1_555 1_555
H3 C3 1_555 1_555
H4 C4 1_555 1_555
H5 C5 1_555 1_555
H6 C8 1_555 1_555
H7 C10 1_555 1_555
H8 C10 1_555 1_555
H9 C11 1_555 1_555
H10 C11 1_555 1_555
H11 C12 1_555 1_555
H12 C13 1_555 1_555
H13 C14 1_555 1_555
H14 C15 1_555 1_555
H15 C16 1_555 1_555
H16 C17 1_555 1_555
H17 C17 1_555 1_555
H18 C18 1_555 1_555
H19 C18 1_555 1_555
H20 C18 1_555 1_555
H22 C19 1_555 1_555
H23 C20 1_555 1_555
H24 C20 1_555 1_555
H25 C20 1_555 1_555
H26 C21 1_555 1_555
H27 N3 1_555 1_555
H28 N3 1_555 1_555
C5 C15 1_555 1_555
C12 C21 1_555 1_555

#END
