
#######################################################################
#
#                 Cambridge Crystallographic Data Centre
#                                CCDC 
#
#######################################################################
#
# If this CIF has been generated from an entry in the Cambridge 
# Structural Database, then it will include bibliographic, chemical, 
# crystal, experimental, refinement or atomic coordinate data resulting 
# from the CCDC's data processing and validation procedures.
#
#######################################################################

data_IHANIO
_chemical_name_common            
'(1R,3S)-Camphoramic acid mandelic acid monohydrate'
_chemical_formula_moiety         'C10 H17 N1 O3,C8 H8 O3,H2 O1'
_chemical_name_systematic        
'(1R,3S)-1,2,2-Trimethyl-3-carbamoyl-1-cyclopentanecarboxylic acid \a-hydroxy(phenyl)acetic acid monohydrate'
_symmetry_cell_setting           orthorhombic
_symmetry_space_group_name_H-M   'P 21 21 21'
_symmetry_Int_Tables_number      19
_space_group_name_Hall           'P 2ac 2ab'
loop_
_symmetry_equiv_pos_site_id
_symmetry_equiv_pos_as_xyz
1 x,y,z
2 1/2-x,-y,1/2+z
3 -x,1/2+y,1/2-z
4 1/2+x,1/2-y,-z
_cell_length_a                   8.015(2)
_cell_length_b                   11.041(2)
_cell_length_c                   21.781(4)
_cell_angle_alpha                90
_cell_angle_beta                 90
_cell_angle_gamma                90
_cell_volume                     1927.48
_exptl_crystal_colour            colorless
_exptl_crystal_description       prism
_cell_formula_units_Z            4
_exptl_crystal_recrystallization_method ethanol/water
loop_
_atom_site_label
_atom_site_type_symbol
_atom_site_fract_x
_atom_site_fract_y
_atom_site_fract_z
O1 O 0.2136(5) 0.9339(4) 0.1929(2)
O2 O 0.0668(5) 0.7711(4) 0.1698(2)
O3 O -0.3464(5) 1.1458(4) 0.3154(2)
N1 N -0.5571(6) 1.0254(5) 0.2859(2)
C1 C -0.0777(6) 0.9581(5) 0.1693(2)
C2 C -0.2021(7) 0.9349(5) 0.2232(2)
C3 C -0.3241(7) 1.0465(5) 0.2168(2)
C4 C -0.2188(8) 1.1496(5) 0.1893(3)
C5 C -0.0498(7) 1.0947(5) 0.1723(3)
C6 C -0.1508(8) 0.9255(7) 0.1059(3)
C7 C 0.0832(7) 0.8872(6) 0.1785(3)
C8 C -0.1095(8) 0.9368(6) 0.2849(2)
C9 C -0.3006(8) 0.8166(5) 0.2188(4)
C10 C -0.4087(6) 1.0772(5) 0.2759(3)
H1 H -0.6036 0.9751 0.2575
H2 H -0.6128 1.0406 0.3208
H3 H 0.1625 0.7362 0.1755
H4 H -0.4089 1.0263 0.1873
H7 H -0.2052 1.2128 0.2203
H8 H -0.2728 1.1837 0.1548
H10 H -0.0102 1.1253 0.1339
H11 H 0.0347 1.1126 0.2033
H12 H -0.0708 0.9426 0.0738
H13 H -0.1800 0.8415 0.1044
H14 H -0.2503 0.9734 0.0977
H15 H -0.0336 0.8694 0.2872
H16 H -0.0418 1.0112 0.2874
H17 H -0.1845 0.9357 0.3183
H18 H -0.2272 0.7477 0.2222
H19 H -0.3845 0.8117 0.2501
H20 H -0.3563 0.8116 0.1789
O4 O -1.0808(7) 1.0676(8) 0.4398(3)
O6 O -0.6748(7) 1.1019(6) 0.4890(3)
O7 O -0.7684(6) 1.0685(7) 0.3958(2)
C11 C -0.7881(8) 1.0772(6) 0.4493(4)
C12 C -0.9568(8) 1.0517(8) 0.4793(4)
C13 C -0.9572(7) 0.9325(6) 0.5127(3)
C14 C -0.8914(8) 0.9247(7) 0.5707(3)
C15 C -0.8888(8) 0.8163(9) 0.6011(3)
C16 C -0.9489(11) 0.7131(8) 0.5735(5)
C17 C -1.0139(11) 0.7186(8) 0.5164(5)
C18 C -1.0170(9) 0.8286(8) 0.4857(3)
H5 H -1.0539 1.1252 0.4146
H9 H -0.5751 1.1158 0.4767
H21 H -0.9742 1.1134 0.5107
H23 H -0.8437 0.9964 0.5893
H24 H -0.8478 0.8119 0.6433
H25 H -0.9334 0.6342 0.5925
H26 H -1.0672 0.6482 0.4986
H27 H -1.0640 0.8342 0.4449
O8 O -0.4005(5) 1.1641(5) 0.4389(2)
H28 H -0.3854 1.2013 0.3983
H29 H -0.3071 1.1206 0.4487
O5? O -1.0513(21) 1.1348(16) 0.4893(10)
H6? H -1.1395 1.1044 0.5062
H22? H -1.0127 1.0252 0.4429
loop_
_geom_bond_atom_site_label_1
_geom_bond_atom_site_label_2
_geom_bond_site_symmetry_1
_geom_bond_site_symmetry_2
O1 C7 1_555 1_555
O2 C7 1_555 1_555
O3 C10 1_555 1_555
O4 C12 1_555 1_555
O6 C11 1_555 1_555
O7 C11 1_555 1_555
O8 H28 1_555 1_555
N1 C10 1_555 1_555
C1 C2 1_555 1_555
C2 C3 1_555 1_555
C3 C4 1_555 1_555
C4 C5 1_555 1_555
C5 C1 1_555 1_555
C6 C1 1_555 1_555
C7 C1 1_555 1_555
C8 C2 1_555 1_555
C9 C2 1_555 1_555
C10 C3 1_555 1_555
C11 C12 1_555 1_555
C12 C13 1_555 1_555
C13 C14 1_555 1_555
C14 C15 1_555 1_555
C15 C16 1_555 1_555
C16 C17 1_555 1_555
C17 C18 1_555 1_555
C18 C13 1_555 1_555
H1 N1 1_555 1_555
H2 N1 1_555 1_555
H3 O2 1_555 1_555
H4 C3 1_555 1_555
H5 O4 1_555 1_555
H7 C4 1_555 1_555
H8 C4 1_555 1_555
H9 O6 1_555 1_555
H10 C5 1_555 1_555
H11 C5 1_555 1_555
H12 C6 1_555 1_555
H13 C6 1_555 1_555
H14 C6 1_555 1_555
H15 C8 1_555 1_555
H16 C8 1_555 1_555
H17 C8 1_555 1_555
H18 C9 1_555 1_555
H19 C9 1_555 1_555
H20 C9 1_555 1_555
H21 C12 1_555 1_555
H23 C14 1_555 1_555
H24 C15 1_555 1_555
H25 C16 1_555 1_555
H26 C17 1_555 1_555
H27 C18 1_555 1_555
H29 O8 1_555 1_555

#END
