
#######################################################################
#
#                 Cambridge Crystallographic Data Centre
#                                CCDC 
#
#######################################################################
#
# If this CIF has been generated from an entry in the Cambridge 
# Structural Database, then it will include bibliographic, chemical, 
# crystal, experimental, refinement or atomic coordinate data resulting 
# from the CCDC's data processing and validation procedures.
#
#######################################################################

data_IHAXUM
_chemical_name_common            'vinyl terminated bis(benzodithiolyl)bithienyl'
_chemical_formula_moiety         'C46 H40 O2 S6'
_chemical_name_systematic        
1',8'-bis(4-(hex-5-en-1-yloxy)phenyl)dispiro[1,3-benzodithiole-2,4'-thieno[3,2-e][1]benzothiophene-5',2''-[1,3]benzodithiole]
_symmetry_cell_setting           monoclinic
_symmetry_space_group_name_H-M   'C 2/c'
_symmetry_Int_Tables_number      15
_space_group_name_Hall           '-C 2yn'
loop_
_symmetry_equiv_pos_site_id
_symmetry_equiv_pos_as_xyz
1 x,y,z
2 -x,y,1/2-z
3 1/2+x,1/2+y,z
4 1/2-x,1/2+y,1/2-z
5 -x,-y,-z
6 x,-y,1/2+z
7 1/2-x,1/2-y,-z
8 1/2+x,1/2-y,1/2+z
_cell_length_a                   22.2284(14)
_cell_length_b                   18.6647(6)
_cell_length_c                   13.5647(9)
_cell_angle_alpha                90
_cell_angle_beta                 135.013(2)
_cell_angle_gamma                90
_cell_volume                     3978.56
_exptl_crystal_colour            colorless
_exptl_crystal_description       prism
_cell_formula_units_Z            4
_exptl_crystal_recrystallization_method toluene/hexane
loop_
_atom_site_label
_atom_site_type_symbol
_atom_site_fract_x
_atom_site_fract_y
_atom_site_fract_z
C1 C 0.96888(12) 0.08621(10) 0.61878(19)
C2 C 0.97447(12) 0.02193(10) 0.67406(18)
C3 C 0.92772(13) -0.03405(11) 0.57108(19)
C4 C 0.89382(13) -0.00930(11) 0.44442(19)
H1 H 0.8624 -0.0387 0.3639
C5 C 1.00595(12) 0.15536(10) 0.69898(18)
C6 C 1.12327(13) 0.24770(11) 0.7629(2)
C7 C 1.04496(13) 0.28171(11) 0.6582(2)
C8 C 1.04112(15) 0.35043(11) 0.6161(2)
H2 H 0.9877 0.3731 0.544
C9 C 1.11642(16) 0.38623(13) 0.6803(3)
H3 H 1.1144 0.4334 0.6517
C10 C 1.19417(16) 0.35315(13) 0.7856(2)
H4 H 1.2452 0.3781 0.8297
C11 C 1.19833(14) 0.28391(13) 0.8274(2)
H5 H 1.2519 0.2614 0.8994
C12 C 0.90887(14) -0.10663(11) 0.5852(2)
C13 C 0.88839(16) -0.11966(12) 0.6605(2)
H6 H 0.886 -0.0807 0.7026
C14 C 0.87183(18) -0.18765(13) 0.6744(3)
H7 H 0.859 -0.1953 0.7271
C15 C 0.87371(17) -0.24556(12) 0.6118(2)
C16 C 0.89020(17) -0.23347(12) 0.5318(2)
H8 H 0.8893 -0.2721 0.4852
C17 C 0.90795(16) -0.16481(12) 0.5203(2)
H9 H 0.9199 -0.1572 0.4664
C18 C 0.8665(2) -0.37190(14) 0.5789(3)
H10 H 0.9166 -0.3667 0.5934
H11 H 0.8149 -0.3744 0.4774
C19 C 0.8746(3) -0.43963(19) 0.6489(4)
H12 H 0.8233 -0.4448 0.6312
H13 H 0.9244 -0.4351 0.7508
C20 C 0.8848(3) -0.50656(19) 0.5985(4)
H14 H 0.9067 -0.5456 0.6663
H15 H 0.9278 -0.4972 0.5966
C21 C 0.8023(3) -0.53174(19) 0.4536(5)
H16 H 0.7557 -0.5327 0.4486
H17 H 0.7863 -0.498 0.3819
C22 C 0.81481(18) -0.60472(15) 0.4261(3)
H18 H 0.8342 -0.6414 0.4916
C23 C 0.80107(19) -0.62156(18) 0.3191(3)
H19 H 0.7816 -0.5862 0.2515
H20 H 0.8104 -0.6693 0.3081
O1 O 0.86100(14) -0.31169(9) 0.6375(2)
S1 S 0.91372(3) 0.07934(3) 0.44628(5)
S2 S 1.12046(3) 0.15881(3) 0.80170(5)
S3 S 0.95333(3) 0.23171(3) 0.58010(5)
C1A C 1.03112(12) 0.08621(10) 0.88122(19)
C2A C 1.02553(12) 0.02193(10) 0.82594(18)
C3A C 1.07228(13) -0.03405(11) 0.92892(19)
C4A C 1.10618(13) -0.00930(11) 1.05558(19)
H1A H 1.1376 -0.0387 1.1361
C5A C 0.99405(12) 0.15536(10) 0.80102(18)
C6A C 0.87673(13) 0.24770(11) 0.7371(2)
C7A C 0.95504(13) 0.28171(11) 0.8418(2)
C8A C 0.95888(15) 0.35043(11) 0.8839(2)
H2A H 1.0123 0.3731 0.956
C9A C 0.88358(16) 0.38623(13) 0.8197(3)
H3A H 0.8856 0.4334 0.8483
C10A C 0.80583(16) 0.35315(13) 0.7144(2)
H4A H 0.7548 0.3781 0.6703
C11A C 0.80167(14) 0.28391(13) 0.6726(2)
H5A H 0.7481 0.2614 0.6006
C12A C 1.09113(14) -0.10663(11) 0.9148(2)
C13A C 1.11161(16) -0.11966(12) 0.8395(2)
H6A H 1.114 -0.0807 0.7974
C14A C 1.12817(18) -0.18765(13) 0.8256(3)
H7A H 1.141 -0.1953 0.7729
C15A C 1.12629(17) -0.24556(12) 0.8882(2)
C16A C 1.10980(17) -0.23347(12) 0.9682(2)
H8A H 1.1107 -0.2721 1.0148
C17A C 1.09205(16) -0.16481(12) 0.9797(2)
H9A H 1.0801 -0.1572 1.0336
C18A C 1.1335(2) -0.37190(14) 0.9211(3)
H10A H 1.0834 -0.3667 0.9066
H11A H 1.1851 -0.3744 1.0226
C19A C 1.1254(3) -0.43963(19) 0.8511(4)
H12A H 1.1767 -0.4448 0.8688
H13A H 1.0756 -0.4351 0.7492
C20A C 1.1152(3) -0.50656(19) 0.9015(4)
H14A H 1.0933 -0.5456 0.8337
H15A H 1.0722 -0.4972 0.9034
C21A C 1.1977(3) -0.53174(19) 1.0464(5)
H16A H 1.2443 -0.5327 1.0514
H17A H 1.2137 -0.498 1.1181
C22A C 1.18519(18) -0.60472(15) 1.0739(3)
H18A H 1.1658 -0.6414 1.0084
C23A C 1.19893(19) -0.62156(18) 1.1809(3)
H19A H 1.2184 -0.5862 1.2485
H20A H 1.1896 -0.6693 1.1919
O1A O 1.13900(14) -0.31169(9) 0.8625(2)
S1A S 1.08628(3) 0.07934(3) 1.05372(5)
S2A S 0.87954(3) 0.15881(3) 0.69830(5)
S3A S 1.04667(3) 0.23171(3) 0.91990(5)
H21? H 0.9261 -0.3874 0.6371
H22? H 0.8384 -0.3629 0.4822
C24? C 0.8133(10) -0.4292(6) 0.5868(14)
H23? H 0.8497 -0.4431 0.6853
H24? H 0.7625 -0.4046 0.5548
C25? C 0.7847(8) -0.4967(6) 0.5005(13)
H25? H 0.7635 -0.5314 0.5254
H26? H 0.7366 -0.4844 0.4007
C26? C 0.8536(10) -0.5322(8) 0.5199(18)
H27? H 0.9028 -0.5442 0.6194
H28? H 0.8733 -0.4992 0.4903
H29? H 0.7985 -0.6401 0.4537
loop_
_geom_bond_atom_site_label_1
_geom_bond_atom_site_label_2
_geom_bond_site_symmetry_1
_geom_bond_site_symmetry_2
C1 C2 1_555 1_555
C2 C3 1_555 1_555
C3 C4 1_555 1_555
C4 H1 1_555 1_555
C5 C1 1_555 1_555
C6 C7 1_555 1_555
C7 C8 1_555 1_555
C8 H2 1_555 1_555
C9 C8 1_555 1_555
H3 C9 1_555 1_555
C10 C9 1_555 1_555
H4 C10 1_555 1_555
C11 C6 1_555 1_555
H5 C11 1_555 1_555
C12 C3 1_555 1_555
C13 C12 1_555 1_555
H6 C13 1_555 1_555
C14 C13 1_555 1_555
H7 C14 1_555 1_555
C15 C14 1_555 1_555
C16 C15 1_555 1_555
H8 C16 1_555 1_555
C17 C12 1_555 1_555
H9 C17 1_555 1_555
C18 H10 1_555 1_555
H11 C18 1_555 1_555
C19 C18 1_555 1_555
H12 C19 1_555 1_555
H13 C19 1_555 1_555
C20 C19 1_555 1_555
H14 C20 1_555 1_555
H15 C20 1_555 1_555
C21 C20 1_555 1_555
H16 C21 1_555 1_555
H17 C21 1_555 1_555
C22 C21 1_555 1_555
H18 C22 1_555 1_555
C23 C22 1_555 1_555
H19 C23 1_555 1_555
H20 C23 1_555 1_555
O1 C15 1_555 1_555
S1 C1 1_555 1_555
S2 C5 1_555 1_555
S3 C5 1_555 1_555
C1A C2A 1_555 1_555
C2A C2 1_555 1_555
C3A C2A 1_555 1_555
C4A C3A 1_555 1_555
H1A C4A 1_555 1_555
C5A C5 1_555 1_555
C6A C7A 1_555 1_555
C7A C8A 1_555 1_555
C8A H2A 1_555 1_555
C9A C8A 1_555 1_555
H3A C9A 1_555 1_555
C10A C9A 1_555 1_555
H4A C10A 1_555 1_555
C11A C6A 1_555 1_555
H5A C11A 1_555 1_555
C12A C3A 1_555 1_555
C13A C12A 1_555 1_555
H6A C13A 1_555 1_555
C14A C13A 1_555 1_555
H7A C14A 1_555 1_555
C15A C14A 1_555 1_555
C16A C15A 1_555 1_555
H8A C16A 1_555 1_555
C17A C12A 1_555 1_555
H9A C17A 1_555 1_555
C18A H10A 1_555 1_555
H11A C18A 1_555 1_555
C19A C18A 1_555 1_555
H12A C19A 1_555 1_555
H13A C19A 1_555 1_555
C20A C19A 1_555 1_555
H14A C20A 1_555 1_555
H15A C20A 1_555 1_555
C21A C20A 1_555 1_555
H16A C21A 1_555 1_555
H17A C21A 1_555 1_555
C22A C21A 1_555 1_555
H18A C22A 1_555 1_555
C23A C22A 1_555 1_555
H19A C23A 1_555 1_555
H20A C23A 1_555 1_555
O1A C15A 1_555 1_555
S1A C1A 1_555 1_555
S2A C5A 1_555 1_555
S3A C5A 1_555 1_555
C4 S1 1_555 1_555
C6 S2 1_555 1_555
C7 S3 1_555 1_555
C10 C11 1_555 1_555
C16 C17 1_555 1_555
C18 O1 1_555 1_555
C1A C5A 1_555 1_555
C4A S1A 1_555 1_555
C6A S2A 1_555 1_555
C7A S3A 1_555 1_555
C10A C11A 1_555 1_555
C16A C17A 1_555 1_555
C18A O1A 1_555 1_555

#END
