
#######################################################################
#
#                 Cambridge Crystallographic Data Centre
#                                CCDC 
#
#######################################################################
#
# If this CIF has been generated from an entry in the Cambridge 
# Structural Database, then it will include bibliographic, chemical, 
# crystal, experimental, refinement or atomic coordinate data resulting 
# from the CCDC's data processing and validation procedures.
#
#######################################################################

data_IHIDUA
_chemical_formula_moiety         'C21 H20 N2 O3'
_chemical_name_systematic        
14-Methyl-11-(3-methylphenyl)-12-oxa-8,14-diazatetracyclo[8.3.3.0^1,10^.0^2,7^]hexadeca-2,4,6-triene-9,13-dione
_symmetry_cell_setting           monoclinic
_symmetry_space_group_name_H-M   'P 21/c'
_symmetry_Int_Tables_number      14
_space_group_name_Hall           '-P 2ybc'
loop_
_symmetry_equiv_pos_site_id
_symmetry_equiv_pos_as_xyz
1 x,y,z
2 -x,1/2+y,1/2-z
3 -x,-y,-z
4 x,1/2-y,1/2+z
_cell_length_a                   10.4772(7)
_cell_length_b                   8.6834(6)
_cell_length_c                   19.1123(13)
_cell_angle_alpha                90
_cell_angle_beta                 92.490(2)
_cell_angle_gamma                90
_cell_volume                     1737.15
_exptl_crystal_colour            colorless
_exptl_crystal_description       Block
_cell_formula_units_Z            4
_exptl_crystal_recrystallization_method 'ethyl acetate'
loop_
_atom_site_label
_atom_site_type_symbol
_atom_site_fract_x
_atom_site_fract_y
_atom_site_fract_z
O1 O 0.05279(11) 0.22692(16) 0.53826(6)
O2 O 0.43975(13) 0.34579(16) 0.45820(6)
O3 O 0.04279(13) 0.03341(17) 0.61440(7)
N1 N 0.32532(15) -0.00285(17) 0.57673(7)
N2 N 0.43155(15) 0.38257(19) 0.57461(8)
C1 C 0.25355(16) 0.13927(19) 0.58542(8)
C2 C 0.15071(16) 0.32733(19) 0.51218(8)
H1 H 0.1649 0.4112 0.5459
C3 C 0.27021(15) 0.22222(19) 0.51571(8)
C4 C 0.29625(17) 0.2330(2) 0.64871(8)
C5 C 0.38880(16) 0.3193(2) 0.51367(8)
C6 C 0.38303(17) 0.3521(2) 0.64055(9)
C7 C 0.27058(18) 0.0894(2) 0.46208(9)
H2 H 0.1898 0.0847 0.4353
H3 H 0.3389 0.1028 0.4300
C8 C 0.2508(2) 0.2060(3) 0.71465(9)
H4 H 0.1914 0.1280 0.7206
C9 C 0.11100(17) 0.3972(2) 0.44276(9)
C10 C 0.17662(19) 0.5259(2) 0.42071(9)
H5 H 0.2427 0.5654 0.4494
C11 C 0.10628(17) 0.1232(2) 0.58346(9)
C12 C 0.2914(2) -0.0568(2) 0.50569(10)
H6 H 0.2141 -0.1184 0.5052
H7 H 0.3598 -0.1184 0.4876
C13 C 0.1465(2) 0.5974(2) 0.35712(9)
C14 C 0.4237(2) 0.4417(2) 0.69755(10)
H8 H 0.4813 0.5217 0.6918
C15 C 0.0112(2) 0.3400(2) 0.40112(10)
H9 H -0.0334 0.2535 0.4150
C16 C 0.0451(2) 0.5388(3) 0.31651(10)
H10 H 0.0221 0.5854 0.2740
C17 C 0.3779(2) 0.4109(3) 0.76275(10)
H11 H 0.4051 0.4704 0.8010
C18 C 0.2201(3) 0.7356(3) 0.33399(12)
H12 H 0.1865 0.7692 0.2890
H13 H 0.3085 0.7086 0.3307
H14 H 0.2123 0.8171 0.3674
C19 C -0.0220(2) 0.4130(3) 0.33825(11)
H15 H -0.0905 0.3761 0.3105
C20 C 0.2922(2) 0.2928(3) 0.77163(10)
H16 H 0.2624 0.2719 0.8158
C21 C 0.3205(2) -0.1220(2) 0.63015(11)
H17 H 0.3721 -0.2079 0.6171
H18 H 0.2338 -0.1553 0.6343
H19 H 0.3524 -0.0814 0.6742
H20 H 0.488(2) 0.461(3) 0.5713(11)
loop_
_geom_bond_atom_site_label_1
_geom_bond_atom_site_label_2
_geom_bond_site_symmetry_1
_geom_bond_site_symmetry_2
O1 C2 1_555 1_555
O2 C5 1_555 1_555
O3 C11 1_555 1_555
N1 C1 1_555 1_555
N2 C5 1_555 1_555
C1 C3 1_555 1_555
C2 H1 1_555 1_555
C3 C2 1_555 1_555
C4 C1 1_555 1_555
C5 C3 1_555 1_555
C6 N2 1_555 1_555
C7 C3 1_555 1_555
H2 C7 1_555 1_555
H3 C7 1_555 1_555
C8 C4 1_555 1_555
H4 C8 1_555 1_555
C9 C2 1_555 1_555
C10 C9 1_555 1_555
H5 C10 1_555 1_555
C11 O1 1_555 1_555
C12 N1 1_555 1_555
H6 C12 1_555 1_555
H7 C12 1_555 1_555
C13 C10 1_555 1_555
C14 C6 1_555 1_555
H8 C14 1_555 1_555
C15 C9 1_555 1_555
H9 C15 1_555 1_555
C16 C13 1_555 1_555
H10 C16 1_555 1_555
C17 C14 1_555 1_555
H11 C17 1_555 1_555
C18 C13 1_555 1_555
H12 C18 1_555 1_555
H13 C18 1_555 1_555
H14 C18 1_555 1_555
C19 C15 1_555 1_555
H15 C19 1_555 1_555
C20 C8 1_555 1_555
H16 C20 1_555 1_555
C21 N1 1_555 1_555
H17 C21 1_555 1_555
H18 C21 1_555 1_555
H19 C21 1_555 1_555
H20 N2 1_555 1_555
C1 C11 1_555 1_555
C4 C6 1_555 1_555
C7 C12 1_555 1_555
C16 C19 1_555 1_555
C17 C20 1_555 1_555

#END
