
#######################################################################
#
#                 Cambridge Crystallographic Data Centre
#                                CCDC 
#
#######################################################################
#
# If this CIF has been generated from an entry in the Cambridge 
# Structural Database, then it will include bibliographic, chemical, 
# crystal, experimental, refinement or atomic coordinate data resulting 
# from the CCDC's data processing and validation procedures.
#
#######################################################################

data_IHOHAQ
_chemical_formula_moiety         'C17 H21 F4 N1 O4 S1'
_chemical_name_systematic        
2-methyl-N-(2,2,2-trifluoro-1-(2-fluoro-5,6-dimethoxy-1-oxo-2,3-dihydro-1H-inden-2-yl)ethyl)propane-2-sulfinamide
_symmetry_cell_setting           orthorhombic
_symmetry_space_group_name_H-M   'P 21 21 21'
_symmetry_Int_Tables_number      19
_space_group_name_Hall           'P 2ac 2ab'
loop_
_symmetry_equiv_pos_site_id
_symmetry_equiv_pos_as_xyz
1 x,y,z
2 1/2-x,-y,1/2+z
3 -x,1/2+y,1/2-z
4 1/2+x,1/2-y,-z
_cell_length_a                   7.7459(6)
_cell_length_b                   9.8069(8)
_cell_length_c                   25.6020(19)
_cell_angle_alpha                90
_cell_angle_beta                 90
_cell_angle_gamma                90
_cell_volume                     1944.81
_cell_formula_units_Z            4
loop_
_atom_site_label
_atom_site_type_symbol
_atom_site_fract_x
_atom_site_fract_y
_atom_site_fract_z
C1 C -0.0164(3) 0.69493(16) 0.15164(7)
H1 H 0.0105 0.7919 0.1473
C2 C -0.2090(11) 0.6832(10) 0.1452(4)
F1 F -0.2616(12) 0.7421(13) 0.1013(4)
F2 F -0.2627(12) 0.5559(7) 0.1418(5)
F3 F -0.2938(12) 0.7425(15) 0.1830(5)
C3 C 0.0430(3) 0.66573(18) 0.05375(7)
C4 C 0.0902(3) 0.61971(18) 0.10996(7)
C5 C 0.0874(3) 0.46357(18) 0.10927(7)
H2 H 0.2013 0.4266 0.1161
H3 H 0.0074 0.4283 0.1351
C6 C 0.0284(2) 0.42911(17) 0.05461(6)
C7 C 0.0016(3) 0.54356(17) 0.02425(6)
C8 C -0.0547(3) 0.53428(18) -0.02769(7)
H4 H -0.0745 0.6123 -0.0474
C9 C -0.0796(3) 0.40808(18) -0.04843(7)
C10 C -0.0439(2) 0.28898(18) -0.01845(7)
C11 C 0.0070(3) 0.29979(16) 0.03313(7)
H5 H 0.0266 0.2221 0.0531
C12 C 0.2656(3) 0.66503(19) 0.28183(8)
C13 C 0.3633(4) 0.5581(2) 0.25009(10)
H6 H 0.4228 0.6018 0.2218
H7 H 0.2831 0.4926 0.2364
H8 H 0.4454 0.5127 0.2721
C14 C 0.1421(4) 0.6005(2) 0.32033(8)
H9 H 0.0680 0.5377 0.3023
H10 H 0.0734 0.6702 0.3365
H11 H 0.2064 0.5526 0.3466
C15 C 0.3884(4) 0.7619(3) 0.30950(12)
H12 H 0.4576 0.7118 0.3340
H13 H 0.3232 0.8302 0.3278
H14 H 0.4620 0.8051 0.2843
C16 C -0.1909(3) 0.4975(2) -0.12747(8)
H15 H -0.2754 0.5493 -0.1085
H16 H -0.2392 0.4680 -0.1601
H17 H -0.0914 0.5533 -0.1340
C17 C -0.0289(4) 0.04568(19) -0.01731(9)
H18 H 0.0877 0.0469 -0.0046
H19 H -0.0438 -0.0300 -0.0407
H20 H -0.1070 0.0366 0.0116
F4 F 0.25960(16) 0.66488(12) 0.11852(4)
N1 N 0.0372(3) 0.66059(16) 0.20398(6)
H21 H 0.009(3) 0.585(2) 0.2163(8)
O1 O 0.0486(3) 0.78326(14) 0.04000(5)
O2 O 0.0299(2) 0.85943(15) 0.27038(6)
O3 O -0.1415(2) 0.38143(13) -0.09743(5)
O4 O -0.06437(19) 0.17055(12) -0.04457(5)
S1 S 0.14657(7) 0.77714(4) 0.237036(18)
H22? H 0.0091 0.7921 0.1472
C18? C -0.2118(13) 0.6809(12) 0.1467(5)
F5? F -0.2709(14) 0.6955(18) 0.0984(3)
F6? F -0.2705(13) 0.5632(8) 0.1637(8)
F7? F -0.2911(14) 0.7747(9) 0.1752(5)
loop_
_geom_bond_atom_site_label_1
_geom_bond_atom_site_label_2
_geom_bond_site_symmetry_1
_geom_bond_site_symmetry_2
C1 H1 1_555 1_555
C2 C1 1_555 1_555
F1 C2 1_555 1_555
F2 C2 1_555 1_555
F3 C2 1_555 1_555
C3 C4 1_555 1_555
C4 C1 1_555 1_555
C5 C4 1_555 1_555
H2 C5 1_555 1_555
H3 C5 1_555 1_555
C6 C5 1_555 1_555
C7 C3 1_555 1_555
C8 C7 1_555 1_555
H4 C8 1_555 1_555
C9 C8 1_555 1_555
C10 C9 1_555 1_555
C11 C6 1_555 1_555
H5 C11 1_555 1_555
C12 C13 1_555 1_555
C13 H6 1_555 1_555
H7 C13 1_555 1_555
H8 C13 1_555 1_555
C14 C12 1_555 1_555
H9 C14 1_555 1_555
H10 C14 1_555 1_555
H11 C14 1_555 1_555
C15 C12 1_555 1_555
H12 C15 1_555 1_555
H13 C15 1_555 1_555
H14 C15 1_555 1_555
C16 H15 1_555 1_555
H16 C16 1_555 1_555
H17 C16 1_555 1_555
C17 H18 1_555 1_555
H19 C17 1_555 1_555
H20 C17 1_555 1_555
F4 C4 1_555 1_555
N1 C1 1_555 1_555
H21 N1 1_555 1_555
O1 C3 1_555 1_555
O2 S1 1_555 1_555
O3 C9 1_555 1_555
O4 C10 1_555 1_555
S1 C12 1_555 1_555
C6 C7 1_555 1_555
C10 C11 1_555 1_555
C16 O3 1_555 1_555
C17 O4 1_555 1_555
N1 S1 1_555 1_555

#END
