
#######################################################################
#
#                 Cambridge Crystallographic Data Centre
#                                CCDC 
#
#######################################################################
#
# If this CIF has been generated from an entry in the Cambridge 
# Structural Database, then it will include bibliographic, chemical, 
# crystal, experimental, refinement or atomic coordinate data resulting 
# from the CCDC's data processing and validation procedures.
#
#######################################################################

data_IHOHAO
_chemical_formula_moiety         'C20 H20 O3'
_chemical_name_systematic        
1-(Hydroxy(phenyl)methyl)-8-phenyl-6-oxabicyclo(3.2.1)octan-7-one
_symmetry_cell_setting           monoclinic
_symmetry_space_group_name_H-M   'P 21/a'
_symmetry_Int_Tables_number      14
_space_group_name_Hall           '-P 2yab'
loop_
_symmetry_equiv_pos_site_id
_symmetry_equiv_pos_as_xyz
1 x,y,z
2 1/2+x,1/2-y,z
3 -x,-y,-z
4 1/2-x,1/2+y,-z
_cell_length_a                   9.178(4)
_cell_length_b                   12.508(5)
_cell_length_c                   15.109(7)
_cell_angle_alpha                90
_cell_angle_beta                 105.35(4)
_cell_angle_gamma                90
_cell_volume                     1672.61
_exptl_crystal_colour            colorless
_exptl_crystal_description       rod
_chemical_melting_point          '413.2-414.7 K'
_cell_formula_units_Z            4
_exptl_crystal_recrystallization_method 'ethyl acetate/hexanes'
loop_
_atom_site_label
_atom_site_type_symbol
_atom_site_fract_x
_atom_site_fract_y
_atom_site_fract_z
O1 O 0.0436(9) 0.1676(6) 0.3091(5)
O2 O 0.251(1) 0.2462(7) 0.4014(6)
O3 O 0.5144(7) 0.1163(5) 0.4158(4)
C1 C 0.270(1) 0.0719(8) 0.3225(7)
C2 C 0.157(1) 0.0454(8) 0.2292(7)
C3 C 0.010(1) 0.0683(9) 0.2549(8)
C4 C -0.031(1) -0.0174(9) 0.3133(9)
C5 C 0.093(1) -0.0282(9) 0.4050(8)
C6 C 0.251(1) -0.0196(9) 0.3862(7)
C7 C 0.194(1) 0.1685(9) 0.3487(8)
C8 C 0.434(1) 0.0870(8) 0.3246(7)
C9 C 0.507(1) -0.0086(9) 0.2932(8)
C10 C 0.567(1) -0.090(1) 0.3542(8)
C11 C 0.631(1) -0.177(1) 0.324(1)
C12 C 0.635(2) -0.189(1) 0.237(2)
C13 C 0.581(2) -0.106(2) 0.1733(9)
C14 C 0.515(1) -0.017(1) 0.2039(9)
C15 C 0.170(1) 0.110(1) 0.1481(8)
C16 C 0.168(1) 0.056(1) 0.068(1)
C17 C 0.170(2) 0.111(2) -0.011(1)
C18 C 0.182(2) 0.219(2) -0.014(1)
C19 C 0.186(2) 0.273(1) 0.065(1)
C20 C 0.181(2) 0.221(1) 0.1439(9)
H1 H 0.1624 -0.0286 0.2161
H2 H -0.0713 0.0797 0.2012
H3 H -0.1241 0.0001 0.3262
H4 H -0.0411 -0.0836 0.2814
H5 H 0.0819 0.0272 0.4456
H6 H 0.0842 -0.0957 0.4320
H7 H 0.2702 -0.0849 0.3596
H8 H 0.3233 -0.0096 0.4436
H9 H 0.4409 0.1457 0.2853
H10 H 0.5609 -0.0860 0.4164
H11 H 0.6751 -0.2314 0.3679
H12 H 0.6743 -0.2523 0.2175
H13 H 0.5897 -0.1112 0.1117
H14 H 0.4744 0.0389 0.1615
H15 H 0.1664 -0.0200 0.0682
H16 H 0.1626 0.0703 -0.0662
H17 H 0.1867 0.2540 -0.0688
H18 H 0.1920 0.3487 0.0640
H19 H 0.1853 0.2620 0.1979
H20 H 0.6299 0.1756 0.4343
loop_
_geom_bond_atom_site_label_1
_geom_bond_atom_site_label_2
_geom_bond_site_symmetry_1
_geom_bond_site_symmetry_2
O1 C3 1_555 1_555
O2 C7 1_555 1_555
O3 C8 1_555 1_555
C1 C2 1_555 1_555
C2 C3 1_555 1_555
C3 C4 1_555 1_555
C4 C5 1_555 1_555
C5 C6 1_555 1_555
C6 C1 1_555 1_555
C7 O1 1_555 1_555
C8 C1 1_555 1_555
C9 C8 1_555 1_555
C10 C9 1_555 1_555
C11 C10 1_555 1_555
C12 C11 1_555 1_555
C13 C12 1_555 1_555
C14 C9 1_555 1_555
C15 C2 1_555 1_555
C16 C15 1_555 1_555
C17 C16 1_555 1_555
C18 C17 1_555 1_555
C19 C18 1_555 1_555
C20 C15 1_555 1_555
H1 C2 1_555 1_555
H2 C3 1_555 1_555
H3 C4 1_555 1_555
H4 C4 1_555 1_555
H5 C5 1_555 1_555
H6 C5 1_555 1_555
H7 C6 1_555 1_555
H8 C6 1_555 1_555
H9 C8 1_555 1_555
H10 C10 1_555 1_555
H11 C11 1_555 1_555
H12 C12 1_555 1_555
H13 C13 1_555 1_555
H14 C14 1_555 1_555
H15 C16 1_555 1_555
H16 C17 1_555 1_555
H17 C18 1_555 1_555
H18 C19 1_555 1_555
H19 C20 1_555 1_555
H20 O3 1_555 1_555
C1 C7 1_555 1_555
C13 C14 1_555 1_555
C19 C20 1_555 1_555

#END
