
#######################################################################
#
#                 Cambridge Crystallographic Data Centre
#                                CCDC 
#
#######################################################################
#
# If this CIF has been generated from an entry in the Cambridge 
# Structural Database, then it will include bibliographic, chemical, 
# crystal, experimental, refinement or atomic coordinate data resulting 
# from the CCDC's data processing and validation procedures.
#
#######################################################################

data_IHOYIN
_chemical_formula_moiety         'C18 H28 O6'
_chemical_name_systematic        
(6R,14R)-Dimethyl-(7S,15S)-dimethoxy-1,9-dioxacyclohexadeca-(4E,12E)-diene-2,10-dione
_symmetry_cell_setting           monoclinic
_symmetry_space_group_name_H-M   'P 21'
_symmetry_Int_Tables_number      4
_space_group_name_Hall           'P 2yb'
loop_
_symmetry_equiv_pos_site_id
_symmetry_equiv_pos_as_xyz
1 x,y,z
2 -x,1/2+y,-z
_cell_length_a                   9.3989(9)
_cell_length_b                   10.2639(10)
_cell_length_c                   10.2739(10)
_cell_angle_alpha                90
_cell_angle_beta                 102.618(2)
_cell_angle_gamma                90
_cell_volume                     967.179
_exptl_crystal_colour            colorless
_exptl_crystal_description       block
_cell_formula_units_Z            2
_exptl_crystal_recrystallization_method 'hexanes/methylene chloride'
loop_
_atom_site_label
_atom_site_type_symbol
_atom_site_fract_x
_atom_site_fract_y
_atom_site_fract_z
O1 O 0.58744(14) 0.88179(15) 1.15791(15)
O2 O 0.74360(12) 0.91917(14) 0.60879(11)
O3 O 0.37213(12) 0.98506(13) 0.63685(12)
O4 O 0.25861(16) 0.80664(15) 0.68779(14)
O5 O 0.09952(12) 1.02716(13) 1.18552(10)
O6 O 0.46496(11) 1.07026(11) 1.13406(11)
C1 C 0.58088(17) 0.99537(18) 1.12890(15)
C2 C 0.69602(17) 1.0710(2) 1.08029(17)
H1 H 0.7851(19) 1.0191(18) 1.0924(16)
H2 H 0.720(2) 1.143(2) 1.137(2)
C3 C 0.64270(16) 1.11212(18) 0.93708(16)
H3 H 0.5664(17) 1.1720(17) 0.9208(15)
C4 C 0.70173(16) 1.07192(18) 0.83915(16)
H4 H 0.784(2) 1.016(2) 0.8574(18)
C5 C 0.65428(17) 1.11265(19) 0.69600(16)
H5 H 0.5730(19) 1.1627(19) 0.6873(16)
C6 C 0.61544(16) 0.9968(2) 0.60275(16)
H6 H 0.5825(17) 1.0300(19) 0.5124(18)
C7 C 0.50151(18) 0.9067(2) 0.63800(19)
H7 H 0.5337(18) 0.872(2) 0.7266(19)
H8 H 0.4790(19) 0.838(2) 0.5704(18)
C8 C 0.25976(17) 0.9217(2) 0.67106(14)
C9 C 0.14187(17) 1.0150(2) 0.68818(16)
H9 H 0.123(2) 1.067(2) 0.608(2)
H10 H 0.0591(19) 0.9646(19) 0.6952(17)
C10 C 0.19106(16) 1.10045(18) 0.80886(15)
H11 H 0.268(2) 1.159(2) 0.8084(17)
C11 C 0.13517(16) 1.09423(17) 0.91576(15)
H12 H 0.0518(19) 1.0337(18) 0.9120(16)
C12 C 0.17751(16) 1.18023(17) 1.03609(16)
H13 H 0.2578(18) 1.2296(17) 1.0282(15)
C13 C 0.22195(16) 1.10132(17) 1.16460(15)
H14 H 0.2522(17) 1.1612(17) 1.2340(16)
C14 C 0.34123(17) 1.00224(19) 1.16479(17)
H15 H 0.3081(18) 0.9324(18) 1.0932(17)
H16 H 0.3748(19) 0.9570(19) 1.2529(18)
C15 C 0.7722(2) 1.1968(2) 0.6549(2)
H17 H 0.788(3) 1.278(3) 0.706(2)
H18 H 0.859(3) 1.149(2) 0.666(2)
H19 H 0.748(2) 1.213(2) 0.564(2)
C16 C 0.7585(3) 0.8655(4) 0.4868(2)
H20 H 0.676(4) 0.800(4) 0.446(3)
H21 H 0.848(3) 0.825(2) 0.497(2)
H22 H 0.732(4) 0.934(4) 0.423(4)
C17 C 0.05199(19) 1.2717(2) 1.0461(2)
H23 H -0.038(2) 1.221(2) 1.0483(19)
H24 H 0.076(2) 1.316(2) 1.130(2)
H25 H 0.0372(19) 1.333(2) 0.9718(19)
C18 C 0.0700(2) 1.0401(3) 1.31371(19)
H26 H 0.156(3) 1.024(3) 1.384(2)
H27 H -0.008(3) 0.973(3) 1.323(2)
H28 H 0.034(3) 1.131(3) 1.317(2)
loop_
_geom_bond_atom_site_label_1
_geom_bond_atom_site_label_2
_geom_bond_site_symmetry_1
_geom_bond_site_symmetry_2
O1 C1 1_555 1_555
O2 C6 1_555 1_555
O3 C7 1_555 1_555
O4 C8 1_555 1_555
O5 C13 1_555 1_555
O6 C1 1_555 1_555
C1 C2 1_555 1_555
C2 H1 1_555 1_555
H2 C2 1_555 1_555
C3 C2 1_555 1_555
H3 C3 1_555 1_555
C4 C3 1_555 1_555
H4 C4 1_555 1_555
C5 C4 1_555 1_555
H5 C5 1_555 1_555
C6 C5 1_555 1_555
H6 C6 1_555 1_555
C7 C6 1_555 1_555
H7 C7 1_555 1_555
H8 C7 1_555 1_555
C8 O3 1_555 1_555
C9 C8 1_555 1_555
H9 C9 1_555 1_555
H10 C9 1_555 1_555
C10 C9 1_555 1_555
H11 C10 1_555 1_555
C11 C10 1_555 1_555
H12 C11 1_555 1_555
C12 C11 1_555 1_555
H13 C12 1_555 1_555
C13 C12 1_555 1_555
H14 C13 1_555 1_555
C14 O6 1_555 1_555
H15 C14 1_555 1_555
H16 C14 1_555 1_555
C15 C5 1_555 1_555
H17 C15 1_555 1_555
H18 C15 1_555 1_555
H19 C15 1_555 1_555
C16 O2 1_555 1_555
H20 C16 1_555 1_555
H21 C16 1_555 1_555
H22 C16 1_555 1_555
C17 C12 1_555 1_555
H23 C17 1_555 1_555
H24 C17 1_555 1_555
H25 C17 1_555 1_555
C18 O5 1_555 1_555
H26 C18 1_555 1_555
H27 C18 1_555 1_555
H28 C18 1_555 1_555
C13 C14 1_555 1_555

#END
