
#######################################################################
#
#                 Cambridge Crystallographic Data Centre
#                                CCDC 
#
#######################################################################
#
# If this CIF has been generated from an entry in the Cambridge 
# Structural Database, then it will include bibliographic, chemical, 
# crystal, experimental, refinement or atomic coordinate data resulting 
# from the CCDC's data processing and validation procedures.
#
#######################################################################

data_IHOYOT
_chemical_formula_moiety         'C18 H28 O8'
_chemical_name_systematic        
(6,14)-Dimethyl-7,15-dimethoxy-1,9-dioxacyclohexadeca-(4,5:12,13)-bis(epoxy)-2,10-dione
_symmetry_cell_setting           monoclinic
_symmetry_space_group_name_H-M   'P 2'
_symmetry_Int_Tables_number      3
_space_group_name_Hall           'P 2y'
loop_
_symmetry_equiv_pos_site_id
_symmetry_equiv_pos_as_xyz
1 x,y,z
2 -x,y,-z
_cell_length_a                   11.4095(8)
_cell_length_b                   5.3468(4)
_cell_length_c                   15.4399(11)
_cell_angle_alpha                90
_cell_angle_beta                 98.1870(10)
_cell_angle_gamma                90
_cell_volume                     932.301
_exptl_crystal_colour            colorless
_exptl_crystal_description       plate
_chemical_melting_point          168-171deg.C
_cell_formula_units_Z            2
_exptl_crystal_recrystallization_method 'hexanes/methylene chloride'
loop_
_atom_site_label
_atom_site_type_symbol
_atom_site_fract_x
_atom_site_fract_y
_atom_site_fract_z
O1 O 0.67339(10) 0.1345(2) 0.26794(7)
O2 O 0.71544(11) 0.5878(2) 0.54298(8)
O3 O 0.93462(11) -0.0350(2) 0.59609(9)
O4 O 1.08744(9) 0.2260(2) 0.63311(7)
C1 C 0.70737(13) 0.1027(3) 0.36007(10)
H1 H 0.6552(18) -0.021(4) 0.3828(14)
C2 C 0.67918(13) 0.3493(3) 0.40320(10)
H2 H 0.7183(19) 0.483(5) 0.3783(15)
C3 C 0.72097(13) 0.3461(3) 0.50091(10)
H3 H 0.6914(18) 0.219(4) 0.5319(14)
C4 C 0.82908(13) 0.4704(3) 0.54192(10)
H4 H 0.8802(18) 0.555(4) 0.5079(14)
C5 C 0.89323(13) 0.3912(3) 0.63037(10)
H5 H 0.8337(19) 0.344(4) 0.6668(15)
H6 H 0.941(2) 0.529(5) 0.6567(16)
C6 C 0.97154(13) 0.1699(3) 0.61899(9)
C7 C 0.83549(14) 0.0185(3) 0.38181(11)
H7 H 0.8523(19) -0.116(4) 0.3441(15)
H8 H 0.8530(19) -0.023(5) 0.4453(16)
C8 C 0.65429(19) -0.0948(4) 0.22175(13)
H9 H 0.624(3) -0.079(7) 0.158(2)
H10 H 0.605(3) -0.206(6) 0.242(2)
C9 C 0.54635(15) 0.4018(4) 0.38650(12)
H12 H 0.528(2) 0.553(6) 0.4068(19)
H13 H 0.498(2) 0.259(5) 0.4084(19)
H14 H 0.523(2) 0.403(5) 0.3299(19)
C7A C 1.16451(14) 0.0185(3) 0.61819(11)
C1A C 1.29263(13) 0.1027(3) 0.63993(10)
O1A O 1.32661(10) 0.1345(2) 0.73206(7)
C8A C 1.34571(19) -0.0948(4) 0.77825(13)
H9A H 1.376(3) -0.079(7) 0.842(2)
H10A H 1.395(3) -0.206(6) 0.758(2)
H1A H 1.3448(18) -0.021(4) 0.6172(14)
C2A C 1.32082(13) 0.3493(3) 0.59680(10)
H2A H 1.2817(19) 0.483(5) 0.6217(15)
C3A C 1.27903(13) 0.3461(3) 0.49909(10)
O2A O 1.28456(11) 0.5878(2) 0.45702(8)
C4A C 1.17092(13) 0.4704(3) 0.45808(10)
H3A H 1.3086(18) 0.219(4) 0.4681(14)
H4A H 1.1198(18) 0.555(4) 0.4921(14)
C5A C 1.10677(13) 0.3912(3) 0.36963(10)
H5A H 1.1663(19) 0.344(4) 0.3332(15)
H6A H 1.059(2) 0.529(5) 0.3433(16)
C6A C 1.02846(13) 0.1699(3) 0.38101(9)
O3A O 1.06538(11) -0.0350(2) 0.40391(9)
O4A O 0.91256(9) 0.2260(2) 0.36689(7)
C9A C 1.45365(15) 0.4018(4) 0.61350(12)
H12A H 1.472(2) 0.553(6) 0.5932(19)
H13A H 1.502(2) 0.259(5) 0.5916(19)
H14A H 1.477(2) 0.403(5) 0.6701(19)
H7A H 1.1477(19) -0.116(4) 0.6559(15)
H8A H 1.1470(19) -0.023(5) 0.5547(16)
H11 H 0.894(18) -0.11(4) -0.025(17)
O5 O 0.72052(13) 0.1255(3) -0.21641(8)
O6 O 0.72808(11) 0.5905(3) 0.05254(9)
O7 O 1.03567(16) -0.0406(3) -0.18956(12)
O8 O 0.94547(12) 0.2017(3) -0.10166(11)
C10 C 0.73637(15) 0.0936(3) -0.12419(11)
H15 H 0.6833(19) -0.028(5) -0.1062(16)
C11 C 0.70256(14) 0.3428(3) -0.08556(11)
H16 H 0.7507(18) 0.463(4) -0.1090(14)
C12 C 0.73096(13) 0.3445(3) 0.01295(10)
H17 H 0.695(2) 0.221(5) 0.0441(17)
C13 C 0.83874(14) 0.4563(3) 0.06098(10)
H18 H 0.902(2) 0.522(4) 0.0248(16)
C14 C 0.88735(15) 0.3719(3) 0.15267(10)
H19 H 0.831(2) 0.325(5) 0.1785(16)
H20 H 0.930(2) 0.506(5) 0.1822(16)
C15 C 1.03007(14) 0.1526(3) -0.15128(10)
C16 C 0.86134(16) 0.0073(3) -0.09012(14)
H21 H 0.8833(19) -0.130(5) -0.1197(15)
C17 C 0.7058(2) -0.0999(4) -0.26485(14)
H23 H 0.644(3) -0.194(6) -0.246(2)
H24 H 0.694(3) -0.024(8) -0.327(3)
H25 H 0.777(4) -0.218(8) -0.240(3)
C18 C 0.57093(16) 0.3986(5) -0.11178(13)
H26 H 0.533(2) 0.276(5) -0.0806(19)
H27 H 0.551(2) 0.559(6) -0.0952(19)
H28 H 0.555(2) 0.396(5) -0.1653(18)
C14A C 1.11265(15) 0.3719(3) -0.15267(10)
C13A C 1.16126(14) 0.4563(3) -0.06098(10)
O6A O 1.27192(11) 0.5905(3) -0.05254(9)
C12A C 1.26904(13) 0.3445(3) -0.01295(10)
C11A C 1.29744(14) 0.3428(3) 0.08556(11)
C10A C 1.26363(15) 0.0936(3) 0.12419(11)
O5A O 1.27948(13) 0.1255(3) 0.21641(8)
C17A C 1.2942(2) -0.0999(4) 0.26485(14)
H23A H 1.356(3) -0.194(6) 0.246(2)
H24A H 1.306(3) -0.024(8) 0.327(3)
H25A H 1.223(4) -0.218(8) 0.240(3)
H15A H 1.3167(19) -0.028(5) 0.1062(16)
C16A C 1.13866(16) 0.0073(3) 0.09012(14)
H11A H 1.106(18) -0.11(4) 0.025(17)
O8A O 1.05453(12) 0.2017(3) 0.10166(11)
C15A C 0.96993(14) 0.1526(3) 0.15128(10)
O7A O 0.96433(16) -0.0406(3) 0.18956(12)
H21A H 1.1167(19) -0.130(5) 0.1197(15)
H16A H 1.2493(18) 0.463(4) 0.1090(14)
C18A C 1.42907(16) 0.3986(5) 0.11178(13)
H26A H 1.467(2) 0.276(5) 0.0806(19)
H27A H 1.449(2) 0.559(6) 0.0952(19)
H28A H 1.445(2) 0.396(5) 0.1653(18)
H17A H 1.305(2) 0.221(5) -0.0441(17)
H18A H 1.098(2) 0.522(4) -0.0248(16)
H19A H 1.169(2) 0.325(5) -0.1785(16)
H20A H 1.070(2) 0.506(5) -0.1822(16)
H22? H -0.1269(19) -1.013(5) -0.0224(16)
loop_
_geom_bond_atom_site_label_1
_geom_bond_atom_site_label_2
_geom_bond_site_symmetry_1
_geom_bond_site_symmetry_2
O1 C1 1_555 1_555
O2 C3 1_555 1_555
O3 C6 1_555 1_555
O4 C6 1_555 1_555
C1 H1 1_555 1_555
C2 C1 1_555 1_555
H2 C2 1_555 1_555
C3 C2 1_555 1_555
H3 C3 1_555 1_555
C4 O2 1_555 1_555
H4 C4 1_555 1_555
C5 C4 1_555 1_555
H5 C5 1_555 1_555
H6 C5 1_555 1_555
C6 C5 1_555 1_555
C7 C1 1_555 1_555
H7 C7 1_555 1_555
H8 C7 1_555 1_555
C8 O1 1_555 1_555
H9 C8 1_555 1_555
H10 C8 1_555 1_555
H11 C16 1_555 1_555
C9 C2 1_555 1_555
H12 C9 1_555 1_555
H13 C9 1_555 1_555
H14 C9 1_555 1_555
O5 C10 1_555 1_555
O6 C12 1_555 1_555
O7 C15 1_555 1_555
O8 C15 1_555 1_555
C10 H15 1_555 1_555
C11 C10 1_555 1_555
H16 C11 1_555 1_555
C12 C11 1_555 1_555
H17 C12 1_555 1_555
C13 O6 1_555 1_555
H18 C13 1_555 1_555
C14 C13 1_555 1_555
H19 C14 1_555 1_555
H20 C14 1_555 1_555
C15 C14A 1_555 1_555
C16 O8 1_555 1_555
H21 C16 1_555 1_555
C17 O5 1_555 1_555
H23 C17 1_555 1_555
H24 C17 1_555 1_555
H25 C17 1_555 1_555
C18 C11 1_555 1_555
H26 C18 1_555 1_555
H27 C18 1_555 1_555
H28 C18 1_555 1_555
C7A O4 1_555 1_555
C1A C7A 1_555 1_555
O1A C1A 1_555 1_555
C8A O1A 1_555 1_555
H9A C8A 1_555 1_555
H10A C8A 1_555 1_555
H1A C1A 1_555 1_555
C2A C1A 1_555 1_555
H2A C2A 1_555 1_555
C3A C2A 1_555 1_555
O2A C3A 1_555 1_555
C4A C3A 1_555 1_555
H3A C3A 1_555 1_555
H4A C4A 1_555 1_555
C5A C4A 1_555 1_555
H5A C5A 1_555 1_555
H6A C5A 1_555 1_555
C6A C5A 1_555 1_555
O3A C6A 1_555 1_555
O4A C7 1_555 1_555
C9A C2A 1_555 1_555
H12A C9A 1_555 1_555
H13A C9A 1_555 1_555
H14A C9A 1_555 1_555
H7A C7A 1_555 1_555
H8A C7A 1_555 1_555
C14A C13A 1_555 1_555
C13A O6A 1_555 1_555
O6A C12A 1_555 1_555
C12A C13A 1_555 1_555
C11A C12A 1_555 1_555
C10A C11A 1_555 1_555
O5A C10A 1_555 1_555
C17A O5A 1_555 1_555
H23A C17A 1_555 1_555
H24A C17A 1_555 1_555
H25A C17A 1_555 1_555
H15A C10A 1_555 1_555
C16A C10A 1_555 1_555
H11A C16A 1_555 1_555
O8A C16A 1_555 1_555
C15A C14 1_555 1_555
O7A C15A 1_555 1_555
H21A C16A 1_555 1_555
H16A C11A 1_555 1_555
C18A C11A 1_555 1_555
H26A C18A 1_555 1_555
H27A C18A 1_555 1_555
H28A C18A 1_555 1_555
H17A C12A 1_555 1_555
H18A C13A 1_555 1_555
H19A C14A 1_555 1_555
H20A C14A 1_555 1_555
C3 C4 1_555 1_555
C10 C16 1_555 1_555
C12 C13 1_555 1_555
O2A C4A 1_555 1_555
C6A O4A 1_555 1_555
O8A C15A 1_555 1_555

#END
