
#######################################################################
#
#                 Cambridge Crystallographic Data Centre
#                                CCDC 
#
#######################################################################
#
# If this CIF has been generated from an entry in the Cambridge 
# Structural Database, then it will include bibliographic, chemical, 
# crystal, experimental, refinement or atomic coordinate data resulting 
# from the CCDC's data processing and validation procedures.
#
#######################################################################

data_IHOZEK
_chemical_formula_moiety         'C23 H24 N6 O3'
_chemical_name_systematic        
2,6-Diamino-9-(2',3'-dibenzyl-\a-L-threofuranosyl)-5,8-diaza-7,9-dicarbapurine
_symmetry_cell_setting           monoclinic
_symmetry_space_group_name_H-M   'P 21'
_symmetry_Int_Tables_number      4
_space_group_name_Hall           'P 2yb'
loop_
_symmetry_equiv_pos_site_id
_symmetry_equiv_pos_as_xyz
1 x,y,z
2 -x,1/2+y,-z
_cell_length_a                   11.766(2)
_cell_length_b                   7.5236(16)
_cell_length_c                   12.818(3)
_cell_angle_alpha                90
_cell_angle_beta                 104.199(3)
_cell_angle_gamma                90
_cell_volume                     1100.02
_exptl_crystal_colour            colorless
_exptl_crystal_description       parallelepiped
_chemical_melting_point          120deg.C(dec)
_cell_formula_units_Z            2
_exptl_crystal_recrystallization_method methanol
loop_
_atom_site_label
_atom_site_type_symbol
_atom_site_fract_x
_atom_site_fract_y
_atom_site_fract_z
O2 O 0.8859(6) 0.4537(11) 0.2317(5)
O3 O 0.7307(7) 0.941(2) 0.1592(9)
C1 C 0.8070(14) 1.0205(18) 0.123(2)
H1 H 0.8585 0.9377 0.0958
H2 H 0.8549 1.1033 0.1760
O5 O 0.7715(4) 0.6539(5) 0.3818(3)
N1 N 0.9163(3) 1.0285(7) 0.4245(3)
N2 N 0.8153(3) 1.2099(5) 0.5028(3)
N3 N 0.6643(3) 1.3491(5) 0.5613(3)
N4 N 0.6216(3) 1.0829(5) 0.4500(4)
N5 N 0.8524(3) 1.4579(6) 0.6151(3)
H5 H 0.8296 1.5416 0.6534
H6 H 0.9265 1.4507 0.6131
N6 N 0.4818(3) 1.2218(5) 0.5194(5)
H7 H 0.4304 1.1407 0.4888
H8 H 0.4609 1.3077 0.5574
C3 C 0.7886(5) 0.5916(10) 0.2066(5)
H9 H 0.7348 0.5696 0.1343
C4 C 0.8049(4) 0.7905(10) 0.2309(4)
H10 H 0.8901 0.8219 0.2495
C5 C 0.7545(5) 0.8189(7) 0.3260(5)
H11 H 0.6680 0.8352 0.2978
C6 C 0.7374(8) 0.5275(8) 0.2951(5)
H12 H 0.6509 0.5209 0.2704
H13 H 0.7679 0.4078 0.3192
C7 C 0.7988(4) 0.9743(7) 0.3992(4)
C8 C 0.9237(4) 1.1699(8) 0.4867(4)
H14 H 0.9936 1.2344 0.5160
C9 C 0.7350(4) 1.0819(6) 0.4468(4)
C10 C 0.5912(4) 1.2144(6) 0.5081(5)
C11 C 0.7745(4) 1.3417(7) 0.5599(4)
C12 C 0.9352(6) 0.4400(11) 0.1523(5)
H15 H 0.9150 0.4659 0.0742
H16 H 0.8803 0.3473 0.1647
C13 C 1.0556(4) 0.3649(6) 0.1818(4)
C14 C 1.1367(5) 0.4114(7) 0.2751(4)
H17 H 1.1133 0.4891 0.3244
C15 C 1.2488(5) 0.3502(8) 0.2990(5)
H18 H 1.3035 0.3896 0.3622
C16 C 1.2828(5) 0.2295(9) 0.2303(7)
H19 H 1.3605 0.1840 0.2473
C17 C 1.2041(5) 0.1764(8) 0.1382(5)
H20 H 1.2273 0.0933 0.0916
C18 C 1.0913(4) 0.2430(7) 0.1127(5)
H21 H 1.0375 0.2064 0.0482
C19 C 0.7105(5) 1.1290(7) 0.0213(6)
C20 C 0.7130(10) 1.1464(9) -0.0844(9)
H22 H 0.7682 1.0799 -0.1115
C21 C 0.6351(9) 1.2612(9) -0.1533(7)
H23 H 0.6376 1.2732 -0.2265
C22 C 0.5580(6) 1.3527(10) -0.1151(7)
H24 H 0.5037 1.4287 -0.1615
C23 C 0.5562(5) 1.3390(12) -0.0131(7)
H25 H 0.5027 1.4100 0.0134
C24 C 0.6302(4) 1.2242(7) 0.0568(5)
H26 H 0.6243 1.2126 0.1291
O1? O 0.9170(5) 0.5837(12) 0.2028(7)
O4? O 0.7573(12) 0.852(2) 0.1320(9)
C2? C 0.7689(16) 0.974(3) 0.0649(17)
H3? H 0.7726 0.9053 0.0001
H4? H 0.8500 1.0166 0.0950
loop_
_geom_bond_atom_site_label_1
_geom_bond_atom_site_label_2
_geom_bond_site_symmetry_1
_geom_bond_site_symmetry_2
O2 C3 1_555 1_555
O3 C1 1_555 1_555
C1 H1 1_555 1_555
H2 C1 1_555 1_555
O5 C5 1_555 1_555
N1 C7 1_555 1_555
N2 C8 1_555 1_555
N3 C10 1_555 1_555
N4 C9 1_555 1_555
N5 H5 1_555 1_555
H6 N5 1_555 1_555
N6 H7 1_555 1_555
H8 N6 1_555 1_555
C3 H9 1_555 1_555
C4 O3 1_555 1_555
H10 C4 1_555 1_555
C5 C4 1_555 1_555
H11 C5 1_555 1_555
C6 O5 1_555 1_555
H12 C6 1_555 1_555
H13 C6 1_555 1_555
C7 C5 1_555 1_555
C8 N1 1_555 1_555
H14 C8 1_555 1_555
C9 N2 1_555 1_555
C10 N4 1_555 1_555
C11 N2 1_555 1_555
C12 O2 1_555 1_555
H15 C12 1_555 1_555
H16 C12 1_555 1_555
C13 C12 1_555 1_555
C14 C13 1_555 1_555
H17 C14 1_555 1_555
C15 C14 1_555 1_555
H18 C15 1_555 1_555
C16 C15 1_555 1_555
H19 C16 1_555 1_555
C17 C16 1_555 1_555
H20 C17 1_555 1_555
C18 C13 1_555 1_555
H21 C18 1_555 1_555
C19 C1 1_555 1_555
C20 C19 1_555 1_555
H22 C20 1_555 1_555
C21 C20 1_555 1_555
H23 C21 1_555 1_555
C22 C21 1_555 1_555
H24 C22 1_555 1_555
C23 C22 1_555 1_555
H25 C23 1_555 1_555
C24 C19 1_555 1_555
H26 C24 1_555 1_555
N3 C11 1_555 1_555
N5 C11 1_555 1_555
N6 C10 1_555 1_555
C3 C4 1_555 1_555
C3 C6 1_555 1_555
C7 C9 1_555 1_555
C17 C18 1_555 1_555
C23 C24 1_555 1_555

#END
