
#######################################################################
#
#                 Cambridge Crystallographic Data Centre
#                                CCDC 
#
#######################################################################
#
# If this CIF has been generated from an entry in the Cambridge 
# Structural Database, then it will include bibliographic, chemical, 
# crystal, experimental, refinement or atomic coordinate data resulting 
# from the CCDC's data processing and validation procedures.
#
#######################################################################

data_IJAXAU
_chemical_name_common            
"5,5',15,15'-Tetramesityl-8,8',10,10',12,12'-triply linked corrole dimer chloroform solvate"
_chemical_formula_moiety         'C74 H60 N8,4(C1 H1 Cl3)'
_chemical_name_systematic        
'8,17,26,35-Tetramesityl-19,24,39,40,41,44,45,46-octaazadodecacyclo[34.2.1.1^4,7^.1^9,12^.1^13,16^.1^18,21^.1^22,25^.1^27,30^.1^31,34^.0^2,23^.0^3,20^.0^5,38^]hexatetraconta-1(38),2,4,6,8,10,12(45),13,15,17,19,21(43),22(42),23,25,27,29,31(40),32,34,36-henicosaene chloroform solvate'
_symmetry_cell_setting           monoclinic
_symmetry_space_group_name_H-M   'P 21/c'
_symmetry_Int_Tables_number      14
_space_group_name_Hall           '-P 2ybc'
loop_
_symmetry_equiv_pos_site_id
_symmetry_equiv_pos_as_xyz
1 x,y,z
2 -x,1/2+y,1/2-z
3 -x,-y,-z
4 x,1/2-y,1/2+z
_cell_length_a                   17.986(3)
_cell_length_b                   12.2841(16)
_cell_length_c                   18.300(3)
_cell_angle_alpha                90
_cell_angle_beta                 118.021(2)
_cell_angle_gamma                90
_cell_volume                     3569.27
_exptl_crystal_colour            red
_exptl_crystal_description       Prism
_cell_formula_units_Z            2
_exptl_crystal_recrystallization_method 'Vapour Deposition'
loop_
_atom_site_label
_atom_site_type_symbol
_atom_site_fract_x
_atom_site_fract_y
_atom_site_fract_z
Cl1 Cl -0.73385(7) 0.71484(9) -0.47298(5)
Cl2 Cl -0.68402(4) 0.53313(6) -0.35655(5)
Cl3 Cl -0.62575(5) 0.75035(7) -0.29650(5)
C1 C -0.7083(2) 0.6725(3) -0.37092(19)
H1 H -0.7591 0.6846 -0.3631
Cl4 Cl 0.12400(7) 0.23085(7) 0.36108(6)
Cl5 Cl 0.15674(6) 0.45025(7) 0.42591(5)
Cl6 Cl 0.21037(8) 0.26556(9) 0.53958(6)
C2 C 0.1938(3) 0.3159(3) 0.4420(2)
H2 H 0.2492 0.3153 0.4416
N1 N -0.33473(13) 0.51648(19) -0.11871(13)
N2 N -0.28023(13) 0.47494(19) 0.03702(13)
N3 N -0.12534(13) 0.46951(18) 0.06702(13)
N4 N 0.18881(12) 0.47532(18) 0.11024(13)
C3 C -0.37001(16) 0.5421(2) -0.20284(16)
C4 C -0.45774(16) 0.5397(2) -0.23458(16)
H3 H -0.4989 0.5544 -0.2900
C5 C -0.47269(16) 0.5115(2) -0.16906(16)
H4 H -0.5265 0.5031 -0.1720
C6 C -0.39360(15) 0.4973(2) -0.09655(16)
C7 C -0.36218(16) 0.4693(2) -0.00860(16)
C8 C -0.39548(16) 0.4291(2) 0.04365(17)
H5 H -0.4534 0.4172 0.0273
C9 C -0.32919(16) 0.4105(2) 0.12202(17)
H6 H -0.3325 0.3845 0.1693
C10 C -0.25594(16) 0.4383(2) 0.11683(16)
C11 C -0.17080(16) 0.4267(2) 0.17352(16)
C12 C -0.10908(16) 0.4424(2) 0.14857(16)
C13 C -0.02214(15) 0.4295(2) 0.19947(16)
H7 H 0.0061 0.4122 0.2568
C14 C 0.01372(15) 0.4475(2) 0.14764(15)
C15 C -0.05307(15) 0.4744(2) 0.06565(15)
C16 C -0.04092(15) 0.5001(2) -0.00547(15)
C17 C 0.10793(15) 0.4752(2) 0.08754(15)
C18 C 0.09567(15) 0.4462(2) 0.15808(15)
C19 C 0.17396(15) 0.4266(2) 0.22487(16)
H8 H 0.1859 0.4051 0.2792
C20 C 0.23205(15) 0.4453(2) 0.19479(15)
C21 C 0.31966(15) 0.4372(2) 0.24037(16)
C22 C -0.14201(15) 0.3935(2) 0.26269(16)
C23 C -0.13349(16) 0.4722(2) 0.32246(17)
C24 C -0.10011(17) 0.4415(3) 0.40663(17)
H9 H -0.0946 0.4950 0.4464
C25 C -0.07521(17) 0.3350(3) 0.43269(17)
C26 C -0.08380(18) 0.2583(2) 0.37193(18)
H10 H -0.0669 0.1853 0.3885
C27 C -0.11651(17) 0.2855(2) 0.28721(17)
C28 C -0.1555(2) 0.5897(3) 0.29788(18)
H11 H -0.1104 0.6237 0.2902
H12 H -0.1619 0.6282 0.3415
H13 H -0.2084 0.5935 0.2460
C29 C -0.0392(2) 0.3032(3) 0.52396(18)
H14 H -0.0799 0.2572 0.5311
H15 H -0.0282 0.3690 0.5577
H16 H 0.0134 0.2629 0.5414
C30 C -0.1205(2) 0.2006(3) 0.22461(18)
H17 H -0.1714 0.2121 0.1718
H18 H -0.1219 0.1275 0.2455
H19 H -0.0707 0.2075 0.2163
C31 C 0.35628(15) 0.4027(2) 0.33063(15)
C32 C 0.36822(16) 0.4782(2) 0.39369(17)
C33 C 0.39712(18) 0.4413(3) 0.47597(18)
H20 H 0.4059 0.4928 0.5180
C34 C 0.41297(17) 0.3320(3) 0.49704(17)
C35 C 0.40129(17) 0.2589(2) 0.43354(18)
H21 H 0.4120 0.1839 0.4467
C36 C 0.37423(16) 0.2921(2) 0.35085(17)
C37 C 0.3498(2) 0.5975(3) 0.37445(19)
H22 H 0.3648 0.6188 0.3314
H23 H 0.3830 0.6404 0.4246
H24 H 0.2897 0.6110 0.3549
C38 C 0.4412(2) 0.2935(3) 0.58633(19)
H25 H 0.3963 0.2499 0.5879
H26 H 0.4530 0.3569 0.6226
H27 H 0.4922 0.2491 0.6053
C39 C 0.3654(2) 0.2098(3) 0.28501(19)
H28 H 0.4145 0.2150 0.2753
H29 H 0.3141 0.2253 0.2335
H30 H 0.3621 0.1362 0.3039
N1B N 0.33473(13) 0.48352(19) 0.11871(13)
N2B N 0.28023(13) 0.52506(19) -0.03702(13)
N3B N 0.12534(13) 0.53049(18) -0.06702(13)
N4B N -0.18881(12) 0.52468(18) -0.11024(13)
C3B C 0.37001(16) 0.4579(2) 0.20284(16)
C4B C 0.45774(16) 0.4603(2) 0.23458(16)
H3B H 0.4989 0.4456 0.2900
C5B C 0.47269(16) 0.4885(2) 0.16906(16)
H4B H 0.5265 0.4969 0.1720
C6B C 0.39360(15) 0.5027(2) 0.09655(16)
C7B C 0.36218(16) 0.5307(2) 0.00860(16)
C8B C 0.39548(16) 0.5709(2) -0.04365(17)
H5B H 0.4534 0.5828 -0.0273
C9B C 0.32919(16) 0.5895(2) -0.12202(17)
H6B H 0.3325 0.6155 -0.1693
C10B C 0.25594(16) 0.5617(2) -0.11683(16)
C11B C 0.17080(16) 0.5733(2) -0.17352(16)
C12B C 0.10908(16) 0.5576(2) -0.14857(16)
C13B C 0.02214(15) 0.5705(2) -0.19947(16)
H7B H -0.0061 0.5878 -0.2568
C14B C -0.01372(15) 0.5525(2) -0.14764(15)
C15B C 0.05307(15) 0.5256(2) -0.06565(15)
C16B C 0.04092(15) 0.4999(2) 0.00547(15)
C17B C -0.10793(15) 0.5248(2) -0.08754(15)
C18B C -0.09567(15) 0.5538(2) -0.15808(15)
C19B C -0.17396(15) 0.5734(2) -0.22487(16)
H8B H -0.1859 0.5949 -0.2792
C20B C -0.23205(15) 0.5547(2) -0.19479(15)
C21B C -0.31966(15) 0.5628(2) -0.24037(16)
C22B C 0.14201(15) 0.6065(2) -0.26269(16)
C23B C 0.13349(16) 0.5278(2) -0.32246(17)
C24B C 0.10011(17) 0.5585(3) -0.40663(17)
H9B H 0.0946 0.5050 -0.4464
C25B C 0.07521(17) 0.6650(3) -0.43269(17)
C26B C 0.08380(18) 0.7417(2) -0.37193(18)
H10B H 0.0669 0.8147 -0.3885
C27B C 0.11651(17) 0.7145(2) -0.28721(17)
C28B C 0.1555(2) 0.4103(3) -0.29788(18)
H11B H 0.1104 0.3763 -0.2902
H12B H 0.1619 0.3718 -0.3415
H13B H 0.2084 0.4065 -0.2460
C29B C 0.0392(2) 0.6968(3) -0.52396(18)
H14B H 0.0799 0.7428 -0.5311
H15B H 0.0282 0.6310 -0.5577
H16B H -0.0134 0.7371 -0.5414
C30B C 0.1205(2) 0.7994(3) -0.22461(18)
H17B H 0.1714 0.7879 -0.1718
H18B H 0.1219 0.8725 -0.2455
H19B H 0.0707 0.7925 -0.2163
C31B C -0.35628(15) 0.5973(2) -0.33063(15)
C32B C -0.36822(16) 0.5218(2) -0.39369(17)
C33B C -0.39712(18) 0.5587(3) -0.47597(18)
H20B H -0.4059 0.5072 -0.5180
C34B C -0.41297(17) 0.6680(3) -0.49704(17)
C35B C -0.40129(17) 0.7411(2) -0.43354(18)
H21B H -0.4120 0.8161 -0.4467
C36B C -0.37423(16) 0.7079(2) -0.35085(17)
C37B C -0.3498(2) 0.4025(3) -0.37445(19)
H22B H -0.3648 0.3812 -0.3314
H23B H -0.3830 0.3596 -0.4246
H24B H -0.2897 0.3890 -0.3549
C38B C -0.4412(2) 0.7065(3) -0.58633(19)
H25B H -0.3963 0.7501 -0.5879
H26B H -0.4530 0.6431 -0.6226
H27B H -0.4922 0.7509 -0.6053
C39B C -0.3654(2) 0.7902(3) -0.28501(19)
H28B H -0.4145 0.7850 -0.2753
H29B H -0.3141 0.7747 -0.2335
H30B H -0.3621 0.8638 -0.3039
H31? H -0.1753 0.4811 0.0246
H32? H -0.2803 0.5135 -0.0849
loop_
_geom_bond_atom_site_label_1
_geom_bond_atom_site_label_2
_geom_bond_site_symmetry_1
_geom_bond_site_symmetry_2
Cl1 C1 1_555 1_555
Cl2 C1 1_555 1_555
Cl3 C1 1_555 1_555
C1 H1 1_555 1_555
Cl4 C2 1_555 1_555
Cl5 C2 1_555 1_555
Cl6 C2 1_555 1_555
C2 H2 1_555 1_555
N1 C3 1_555 1_555
N2 C7 1_555 1_555
N3 C12 1_555 1_555
N4 C17 1_555 1_555
C3 C4 1_555 1_555
C4 H3 1_555 1_555
C5 C4 1_555 1_555
H4 C5 1_555 1_555
C6 N1 1_555 1_555
C7 C6 1_555 1_555
C8 C7 1_555 1_555
H5 C8 1_555 1_555
C9 C8 1_555 1_555
H6 C9 1_555 1_555
C10 N2 1_555 1_555
C11 C10 1_555 1_555
C12 C11 1_555 1_555
C13 C12 1_555 1_555
H7 C13 1_555 1_555
C14 C13 1_555 1_555
C15 N3 1_555 1_555
C16 C15 1_555 1_555
C17 C18 1_555 1_555
C18 C14 1_555 1_555
C19 C18 1_555 1_555
H8 C19 1_555 1_555
C20 N4 1_555 1_555
C21 C20 1_555 1_555
C22 C11 1_555 1_555
C23 C22 1_555 1_555
C24 C23 1_555 1_555
H9 C24 1_555 1_555
C25 C24 1_555 1_555
C26 C25 1_555 1_555
H10 C26 1_555 1_555
C27 C22 1_555 1_555
C28 C23 1_555 1_555
H11 C28 1_555 1_555
H12 C28 1_555 1_555
H13 C28 1_555 1_555
C29 C25 1_555 1_555
H14 C29 1_555 1_555
H15 C29 1_555 1_555
H16 C29 1_555 1_555
C30 C27 1_555 1_555
H17 C30 1_555 1_555
H18 C30 1_555 1_555
H19 C30 1_555 1_555
C31 C21 1_555 1_555
C32 C31 1_555 1_555
C33 C32 1_555 1_555
H20 C33 1_555 1_555
C34 C33 1_555 1_555
C35 C34 1_555 1_555
H21 C35 1_555 1_555
C36 C31 1_555 1_555
C37 C32 1_555 1_555
H22 C37 1_555 1_555
H23 C37 1_555 1_555
H24 C37 1_555 1_555
C38 C34 1_555 1_555
H25 C38 1_555 1_555
H26 C38 1_555 1_555
H27 C38 1_555 1_555
C39 C36 1_555 1_555
H28 C39 1_555 1_555
H29 C39 1_555 1_555
H30 C39 1_555 1_555
N1B C3B 1_555 1_555
N2B C7B 1_555 1_555
N3B C12B 1_555 1_555
N4B C17B 1_555 1_555
C3B C21 1_555 1_555
C4B C3B 1_555 1_555
H3B C4B 1_555 1_555
C5B C4B 1_555 1_555
H4B C5B 1_555 1_555
C6B N1B 1_555 1_555
C7B C6B 1_555 1_555
C8B C7B 1_555 1_555
H5B C8B 1_555 1_555
C9B C8B 1_555 1_555
H6B C9B 1_555 1_555
C10B N2B 1_555 1_555
C11B C10B 1_555 1_555
C12B C11B 1_555 1_555
C13B C12B 1_555 1_555
H7B C13B 1_555 1_555
C14B C13B 1_555 1_555
C15B N3B 1_555 1_555
C16B C16 1_555 1_555
C17B C16 1_555 1_555
C18B C14B 1_555 1_555
C19B C18B 1_555 1_555
H8B C19B 1_555 1_555
C20B N4B 1_555 1_555
C21B C3 1_555 1_555
C22B C11B 1_555 1_555
C23B C22B 1_555 1_555
C24B C23B 1_555 1_555
H9B C24B 1_555 1_555
C25B C24B 1_555 1_555
C26B C25B 1_555 1_555
H10B C26B 1_555 1_555
C27B C22B 1_555 1_555
C28B C23B 1_555 1_555
H11B C28B 1_555 1_555
H12B C28B 1_555 1_555
H13B C28B 1_555 1_555
C29B C25B 1_555 1_555
H14B C29B 1_555 1_555
H15B C29B 1_555 1_555
H16B C29B 1_555 1_555
C30B C27B 1_555 1_555
H17B C30B 1_555 1_555
H18B C30B 1_555 1_555
H19B C30B 1_555 1_555
C31B C21B 1_555 1_555
C32B C31B 1_555 1_555
C33B C32B 1_555 1_555
H20B C33B 1_555 1_555
C34B C33B 1_555 1_555
C35B C34B 1_555 1_555
H21B C35B 1_555 1_555
C36B C31B 1_555 1_555
C37B C32B 1_555 1_555
H22B C37B 1_555 1_555
H23B C37B 1_555 1_555
H24B C37B 1_555 1_555
C38B C34B 1_555 1_555
H25B C38B 1_555 1_555
H26B C38B 1_555 1_555
H27B C38B 1_555 1_555
C39B C36B 1_555 1_555
H28B C39B 1_555 1_555
H29B C39B 1_555 1_555
H30B C39B 1_555 1_555
C5 C6 1_555 1_555
C9 C10 1_555 1_555
C14 C15 1_555 1_555
C17 C16B 1_555 1_555
C19 C20 1_555 1_555
C26 C27 1_555 1_555
C35 C36 1_555 1_555
C5B C6B 1_555 1_555
C9B C10B 1_555 1_555
C14B C15B 1_555 1_555
C15B C16B 1_555 1_555
C17B C18B 1_555 1_555
C19B C20B 1_555 1_555
C20B C21B 1_555 1_555
C26B C27B 1_555 1_555
C35B C36B 1_555 1_555

#END
