
#######################################################################
#
#                 Cambridge Crystallographic Data Centre
#                                CCDC 
#
#######################################################################
#
# If this CIF has been generated from an entry in the Cambridge 
# Structural Database, then it will include bibliographic, chemical, 
# crystal, experimental, refinement or atomic coordinate data resulting 
# from the CCDC's data processing and validation procedures.
#
#######################################################################

data_IJEDUY
_chemical_formula_moiety         'C42 H22 N4,C9 H12'
_chemical_name_systematic        
'5,13,20,28-tetraazadodecacyclo[30.6.6.2^7,22^.0^2,31^.0^4,29^.0^6,27^.0^11,46^.0^12,21^.0^14,19^.0^26,45^.0^33,38^.0^39,44^]hexatetraconta-2(31),3,5,7(46),8,10,12,14,16,18,20,22(45),23,25,27,29,33,35,37,39,41,43-docosaene mesitylene solvate'
_symmetry_cell_setting           triclinic
_symmetry_space_group_name_H-M   'P -1'
_symmetry_Int_Tables_number      2
_space_group_name_Hall           '-P 1'
loop_
_symmetry_equiv_pos_site_id
_symmetry_equiv_pos_as_xyz
1 x,y,z
2 -x,-y,-z
_cell_length_a                   8.2351(4)
_cell_length_b                   10.3491(8)
_cell_length_c                   22.0227(11)
_cell_angle_alpha                83.380(5)
_cell_angle_beta                 88.033(4)
_cell_angle_gamma                68.996(6)
_cell_volume                     1740.46
_exptl_crystal_colour            yellow
_exptl_crystal_description       needle
_cell_formula_units_Z            2
loop_
_atom_site_label
_atom_site_type_symbol
_atom_site_fract_x
_atom_site_fract_y
_atom_site_fract_z
N1 N 0.8443(2) 0.20311(18) 0.32859(8)
N2 N 0.9825(2) -0.07785(18) 0.30314(8)
N3 N 1.5414(2) -0.25643(19) 0.56906(8)
N4 N 1.3905(2) 0.02095(19) 0.59912(8)
C1 C 1.1505(3) 0.0443(2) 0.45770(9)
C2 C 1.2061(3) 0.0843(2) 0.51007(9)
C3 C 1.1274(3) 0.2208(2) 0.52484(10)
H1 H 1.1651 0.2478 0.5600
C4 C 0.9947(3) 0.3171(2) 0.48841(10)
H2 H 0.9412 0.4093 0.4991
C5 C 0.9397(3) 0.2798(2) 0.43677(9)
H3 H 0.8488 0.3466 0.4122
C6 C 1.0169(3) 0.1444(2) 0.42032(9)
C7 C 0.9612(3) 0.1045(2) 0.36543(9)
C8 C 1.2303(3) -0.0976(2) 0.44192(9)
C9 C 0.7951(3) 0.1631(2) 0.27820(9)
C10 C 0.6780(3) 0.2655(2) 0.23538(9)
H4 H 0.6368 0.3610 0.2419
C11 C 0.6265(3) 0.2248(2) 0.18544(9)
C12 C 0.5107(3) 0.3201(2) 0.13324(9)
H5 H 0.4717 0.4211 0.1392
C13 C 0.6185(3) 0.2849(2) 0.07567(9)
C14 C 0.6698(3) 0.3764(2) 0.03578(9)
H6 H 0.6356 0.4715 0.0425
C15 C 0.7715(3) 0.3277(3) -0.01399(10)
H7 H 0.8070 0.3900 -0.0416
C16 C 0.8220(3) 0.1888(3) -0.02396(10)
H8 H 0.8919 0.1565 -0.0582
C17 C 0.7703(3) 0.0964(2) 0.01618(10)
H9 H 0.8035 0.0016 0.0092
C18 C 0.6709(3) 0.1441(2) 0.06602(9)
C19 C 0.3599(3) 0.2689(2) 0.12843(9)
C20 C 0.1847(3) 0.3465(2) 0.13296(9)
H10 H 0.1480 0.4423 0.1389
C21 C 0.0623(3) 0.2834(3) 0.12871(10)
H11 H -0.0581 0.3362 0.1319
C22 C 0.1159(3) 0.1438(3) 0.11981(10)
H12 H 0.0317 0.1017 0.1166
C23 C 0.2922(3) 0.0646(2) 0.11544(9)
H13 H 0.3285 -0.0312 0.1097
C24 C 0.4137(3) 0.1277(2) 0.11965(9)
C25 C 0.6108(3) 0.0573(2) 0.11634(10)
H14 H 0.6488 -0.0432 0.1098
C26 C 0.6850(3) 0.0813(2) 0.17501(9)
C27 C 0.8001(3) -0.0183(2) 0.21407(9)
H15 H 0.8396 -0.1133 0.2066
C28 C 0.8607(3) 0.0213(2) 0.26615(9)
C29 C 1.0342(3) -0.0360(2) 0.35151(9)
C30 C 1.1725(3) -0.1386(2) 0.39023(9)
C31 C 1.2491(3) -0.2754(2) 0.37644(10)
H16 H 1.2068 -0.3037 0.3427
C32 C 1.3865(3) -0.3710(2) 0.41135(10)
H17 H 1.4400 -0.4632 0.4007
C33 C 1.4448(3) -0.3311(2) 0.46156(10)
H18 H 1.5400 -0.3960 0.4850
C34 C 1.3660(3) -0.1971(2) 0.47827(9)
C35 C 1.4204(3) -0.1578(2) 0.53383(9)
C36 C 1.5921(3) -0.2171(2) 0.61977(9)
C37 C 1.7239(3) -0.3168(3) 0.65818(10)
H19 H 1.7729 -0.4106 0.6492
C38 C 1.7797(3) -0.2772(3) 0.70802(10)
H20 H 1.8690 -0.3437 0.7334
C39 C 1.7070(3) -0.1392(3) 0.72245(10)
H21 H 1.7484 -0.1140 0.7574
C40 C 1.5780(3) -0.0406(3) 0.68719(10)
H22 H 1.5289 0.0520 0.6978
C41 C 1.5180(3) -0.0778(2) 0.63457(9)
C42 C 1.3433(3) -0.0191(2) 0.54944(9)
C43 C 0.4619(3) 0.6729(2) 0.19354(11)
C44 C 0.5402(3) 0.6780(2) 0.13686(11)
H23 H 0.4731 0.6915 0.1008
C45 C 0.7149(3) 0.6636(2) 0.13162(11)
C46 C 0.8091(3) 0.6445(2) 0.18526(12)
H24 H 0.9285 0.6340 0.1825
C47 C 0.7350(3) 0.6403(2) 0.24251(12)
C48 C 0.5599(3) 0.6551(2) 0.24581(11)
H25 H 0.5068 0.6528 0.2847
C49 C 0.2728(3) 0.6863(3) 0.19882(12)
H26 H 0.2240 0.6957 0.1579
H27 H 0.2077 0.7688 0.2192
H28 H 0.2645 0.6031 0.2228
C50 C 0.7965(3) 0.6711(3) 0.06981(12)
H29 H 0.8695 0.5771 0.0611
H30 H 0.8681 0.7291 0.0695
H31 H 0.7050 0.7120 0.0386
C51 C 0.8377(4) 0.6225(3) 0.30051(13)
H32 H 0.8618 0.5286 0.3214
H33 H 0.7702 0.6914 0.3275
H34 H 0.9477 0.6360 0.2903
loop_
_geom_bond_atom_site_label_1
_geom_bond_atom_site_label_2
_geom_bond_site_symmetry_1
_geom_bond_site_symmetry_2
N1 C7 1_555 1_555
N2 C28 1_555 1_555
N3 C35 1_555 1_555
N4 C41 1_555 1_555
C1 C2 1_555 1_555
C2 C3 1_555 1_555
C3 H1 1_555 1_555
C4 C3 1_555 1_555
H2 C4 1_555 1_555
C5 C4 1_555 1_555
H3 C5 1_555 1_555
C6 C1 1_555 1_555
C7 C6 1_555 1_555
C8 C1 1_555 1_555
C9 N1 1_555 1_555
C10 C9 1_555 1_555
H4 C10 1_555 1_555
C11 C10 1_555 1_555
C12 C11 1_555 1_555
H5 C12 1_555 1_555
C13 C12 1_555 1_555
C14 C13 1_555 1_555
H6 C14 1_555 1_555
C15 C14 1_555 1_555
H7 C15 1_555 1_555
C16 C15 1_555 1_555
H8 C16 1_555 1_555
C17 C16 1_555 1_555
H9 C17 1_555 1_555
C18 C13 1_555 1_555
C19 C12 1_555 1_555
C20 C19 1_555 1_555
H10 C20 1_555 1_555
C21 C20 1_555 1_555
H11 C21 1_555 1_555
C22 C21 1_555 1_555
H12 C22 1_555 1_555
C23 C22 1_555 1_555
H13 C23 1_555 1_555
C24 C19 1_555 1_555
C25 C18 1_555 1_555
H14 C25 1_555 1_555
C26 C11 1_555 1_555
C27 C26 1_555 1_555
H15 C27 1_555 1_555
C28 C9 1_555 1_555
C29 N2 1_555 1_555
C30 C8 1_555 1_555
C31 C30 1_555 1_555
H16 C31 1_555 1_555
C32 C31 1_555 1_555
H17 C32 1_555 1_555
C33 C32 1_555 1_555
H18 C33 1_555 1_555
C34 C8 1_555 1_555
C35 C34 1_555 1_555
C36 N3 1_555 1_555
C37 C36 1_555 1_555
H19 C37 1_555 1_555
C38 C37 1_555 1_555
H20 C38 1_555 1_555
C39 C38 1_555 1_555
H21 C39 1_555 1_555
C40 C39 1_555 1_555
H22 C40 1_555 1_555
C41 C36 1_555 1_555
C42 N4 1_555 1_555
C43 C44 1_555 1_555
C44 H23 1_555 1_555
C45 C44 1_555 1_555
C46 C45 1_555 1_555
H24 C46 1_555 1_555
C47 C46 1_555 1_555
C48 C43 1_555 1_555
H25 C48 1_555 1_555
C49 C43 1_555 1_555
H26 C49 1_555 1_555
H27 C49 1_555 1_555
H28 C49 1_555 1_555
C50 C45 1_555 1_555
H29 C50 1_555 1_555
H30 C50 1_555 1_555
H31 C50 1_555 1_555
C51 C47 1_555 1_555
H32 C51 1_555 1_555
H33 C51 1_555 1_555
H34 C51 1_555 1_555
C2 C42 1_555 1_555
C5 C6 1_555 1_555
C7 C29 1_555 1_555
C17 C18 1_555 1_555
C23 C24 1_555 1_555
C24 C25 1_555 1_555
C25 C26 1_555 1_555
C27 C28 1_555 1_555
C29 C30 1_555 1_555
C33 C34 1_555 1_555
C35 C42 1_555 1_555
C40 C41 1_555 1_555
C47 C48 1_555 1_555

#END
