
#######################################################################
#
#                 Cambridge Crystallographic Data Centre
#                                CCDC 
#
#######################################################################
#
# If this CIF has been generated from an entry in the Cambridge 
# Structural Database, then it will include bibliographic, chemical, 
# crystal, experimental, refinement or atomic coordinate data resulting 
# from the CCDC's data processing and validation procedures.
#
#######################################################################

data_IJEDOS
_chemical_formula_moiety         'C50 H38 N4,1.5(C7 H8)'
_chemical_name_systematic        
'9,24-di-t-butyl-5,13,20,28-tetraazadodecacyclo[30.6.6.2^7,22^.0^2,31^.0^4,29^.0^6,27^.0^11,46^.0^12,21^.0^14,19^.0^26,45^.0^33,38^.0^39,44^]hexatetraconta-2(31),3,5,7(46),8,10,12,14,16,18,20,22(45),23,25,27,29,33,35,37,39,41,43-docosaene toluene solvate'
_symmetry_cell_setting           monoclinic
_symmetry_space_group_name_H-M   'P 21/c'
_symmetry_Int_Tables_number      14
_space_group_name_Hall           '-P 2ybc'
loop_
_symmetry_equiv_pos_site_id
_symmetry_equiv_pos_as_xyz
1 x,y,z
2 -x,1/2+y,1/2-z
3 -x,-y,-z
4 x,1/2-y,1/2+z
_cell_length_a                   11.0352(6)
_cell_length_b                   16.7565(9)
_cell_length_c                   24.5352(15)
_cell_angle_alpha                90
_cell_angle_beta                 97.3944(19)
_cell_angle_gamma                90
_cell_volume                     4499.11
_exptl_crystal_colour            yellow
_exptl_crystal_description       plate
_cell_formula_units_Z            4
loop_
_atom_site_label
_atom_site_type_symbol
_atom_site_fract_x
_atom_site_fract_y
_atom_site_fract_z
C1 C 0.7103(3) 0.9090(2) 0.16858(13)
C2 C 0.7246(3) 0.9481(2) 0.11895(13)
C3 C 0.8096(3) 1.0095(2) 0.11881(14)
H1 H 0.8178 1.0356 0.0851
C4 C 0.8834(3) 1.0341(2) 0.16658(13)
C5 C 0.8696(3) 0.9939(2) 0.21480(14)
H2 H 0.9193 1.0089 0.2477
C6 C 0.7859(3) 0.9324(2) 0.21656(13)
C7 C 0.7771(3) 0.8894(2) 0.26809(13)
N1 N 0.8556(3) 0.90806(17) 0.31195(11)
C8 C 0.6245(3) 0.8441(2) 0.16966(13)
C9 C 0.8477(3) 0.8664(2) 0.35832(14)
C10 C 0.9371(3) 0.8781(2) 0.40457(13)
H3 H 1.0027 0.9142 0.4025
C11 C 0.9289(3) 0.8374(2) 0.45200(13)
C12 C 1.0220(3) 0.8383(2) 0.50314(14)
H4 H 1.0924 0.8748 0.5000
C13 C 0.9523(3) 0.8596(2) 0.55063(14)
C14 C 0.9805(3) 0.9200(2) 0.58846(14)
H5 H 1.0486 0.9538 0.5857
C15 C 0.9092(4) 0.9313(2) 0.63032(15)
H6 H 0.9288 0.9728 0.6563
C16 C 0.8102(4) 0.8827(2) 0.63452(15)
H7 H 0.7618 0.8909 0.6634
C17 C 0.7808(3) 0.8217(2) 0.59664(14)
H8 H 0.7120 0.7885 0.5993
C18 C 0.8521(3) 0.8097(2) 0.55534(14)
C19 C 1.0600(3) 0.7515(2) 0.51227(13)
C20 C 1.1766(3) 0.7210(2) 0.51403(13)
H9 H 1.2437 0.7555 0.5111
C21 C 1.1949(3) 0.6394(2) 0.52016(14)
H10 H 1.2745 0.6177 0.5204
C22 C 1.0969(3) 0.5894(2) 0.52594(14)
H11 H 1.1103 0.5338 0.5311
C23 C 0.9797(3) 0.6201(2) 0.52431(14)
H12 H 0.9129 0.5856 0.5282
C24 C 0.9611(3) 0.7007(2) 0.51705(13)
C25 C 0.8385(3) 0.7436(2) 0.51204(13)
H13 H 0.7686 0.7069 0.5158
C26 C 0.8289(3) 0.7838(2) 0.45594(14)
C27 C 0.7438(3) 0.7698(2) 0.41184(14)
H14 H 0.6785 0.7338 0.4148
C28 C 0.7531(3) 0.8092(2) 0.36119(14)
N2 N 0.6753(3) 0.78987(17) 0.31632(11)
C29 C 0.6890(3) 0.8281(2) 0.26967(13)
C30 C 0.6145(3) 0.8021(2) 0.21890(13)
C31 C 0.5367(3) 0.7373(2) 0.21839(14)
H15 H 0.5306 0.7103 0.2520
C32 C 0.4667(3) 0.7101(2) 0.17054(14)
C33 C 0.4739(3) 0.7533(2) 0.12282(14)
H16 H 0.4247 0.7376 0.0899
C34 C 0.5508(3) 0.8189(2) 0.12149(13)
C35 C 0.5643(3) 0.8590(2) 0.06956(13)
N3 N 0.4966(2) 0.83306(17) 0.02423(11)
C36 C 0.5135(3) 0.8686(2) -0.02363(13)
C37 C 0.4433(3) 0.8432(2) -0.07296(14)
H17 H 0.3832 0.8028 -0.0719
C38 C 0.4614(3) 0.8761(2) -0.12170(15)
H18 H 0.4139 0.8587 -0.1546
C39 C 0.5500(3) 0.9360(2) -0.12396(15)
H19 H 0.5620 0.9584 -0.1584
C40 C 0.6187(3) 0.9621(2) -0.07748(14)
H20 H 0.6786 1.0023 -0.0796
C41 C 0.6012(3) 0.9295(2) -0.02591(14)
N4 N 0.6695(3) 0.95639(17) 0.02064(11)
C42 C 0.6516(3) 0.9227(2) 0.06794(13)
C43 C 0.9766(3) 1.1010(2) 0.16389(14)
C44 C 1.0703(4) 1.0752(3) 0.12706(16)
H21 H 1.0285 1.0618 0.0905
H22 H 1.1281 1.1188 0.1240
H23 H 1.1145 1.0282 0.1430
C45 C 0.9109(4) 1.1761(2) 0.13967(17)
H24 H 0.8504 1.1930 0.1632
H25 H 0.9707 1.2189 0.1376
H26 H 0.8697 1.1643 0.1027
C46 C 1.0444(4) 1.1212(3) 0.22037(15)
H27 H 1.0997 1.1662 0.2170
H28 H 1.0918 1.0748 0.2351
H29 H 0.9853 1.1358 0.2453
C47 C 0.3877(3) 0.6352(2) 0.17171(15)
C48 C 0.2915(6) 0.6490(4) 0.2108(3)
H30 H 0.2390 0.6939 0.1975
H31 H 0.2416 0.6009 0.2122
H32 H 0.3326 0.6611 0.2477
C49 C 0.4679(6) 0.5660(4) 0.1926(4)
H33 H 0.5117 0.5792 0.2288
H34 H 0.4172 0.5185 0.1957
H35 H 0.5270 0.5552 0.1669
C50 C 0.3201(7) 0.6145(4) 0.1157(2)
H36 H 0.2679 0.6594 0.1020
H37 H 0.3793 0.6037 0.0900
H38 H 0.2695 0.5671 0.1188
C51 C 1.0261(6) 0.8138(3) 0.1679(2)
H39 H 1.0592 0.7861 0.1379
H40 H 0.9737 0.8579 0.1529
H41 H 0.9781 0.7763 0.1871
C52 C 1.1278(5) 0.8458(3) 0.20698(18)
C53 C 1.1215(4) 0.8484(3) 0.26172(18)
H42 H 1.0482 0.8318 0.2748
C54 C 1.2155(6) 0.8738(4) 0.2985(3)
H43 H 1.2076 0.8729 0.3366
C55 C 1.3183(6) 0.8999(4) 0.2823(3)
H44 H 1.3835 0.9179 0.3084
C56 C 1.3290(6) 0.9005(4) 0.2278(3)
H45 H 1.4025 0.9200 0.2163
C57 C 1.2365(6) 0.8736(3) 0.1883(3)
H46 H 1.2457 0.8739 0.1503
C58? C 0.407(3) 0.5819(13) 0.1219(8)
H47? H 0.4929 0.5662 0.1245
H48? H 0.3557 0.5340 0.1219
H49? H 0.3839 0.6117 0.0878
C59? C 0.2551(13) 0.6582(13) 0.1666(13)
H50? H 0.2353 0.6926 0.1344
H51? H 0.2045 0.6101 0.1623
H52? H 0.2393 0.6871 0.1997
C60? C 0.422(2) 0.5815(14) 0.2216(8)
H53? H 0.5087 0.5673 0.2241
H54? H 0.4071 0.6099 0.2550
H55? H 0.3723 0.5329 0.2177
C61? C 0.587(2) 0.4133(14) 0.0481(12)
H56? H 0.6716 0.4310 0.0594
H57? H 0.5881 0.3662 0.0244
H58? H 0.5490 0.3997 0.0807
C62? C 0.5217(11) 0.4744(7) 0.0192(5)
C63? C 0.5763(8) 0.5447(8) 0.0047(5)
H59? H 0.6609 0.5534 0.0158
C64? C 0.5069(11) 0.6023(6) -0.0259(6)
H60? H 0.5442 0.6503 -0.0358
C65? C 0.3830(10) 0.5895(7) -0.0420(6)
H61? H 0.3356 0.6288 -0.0629
C66? C 0.3285(8) 0.5192(8) -0.0275(5)
H62? H 0.2438 0.5105 -0.0385
C67? C 0.3978(11) 0.4616(6) 0.0031(5)
H63? H 0.3605 0.4135 0.0130
loop_
_geom_bond_atom_site_label_1
_geom_bond_atom_site_label_2
_geom_bond_site_symmetry_1
_geom_bond_site_symmetry_2
C1 C2 1_555 1_555
C2 C3 1_555 1_555
C3 H1 1_555 1_555
C4 C3 1_555 1_555
C5 C4 1_555 1_555
H2 C5 1_555 1_555
C6 C1 1_555 1_555
C7 C6 1_555 1_555
N1 C7 1_555 1_555
C8 C1 1_555 1_555
C9 N1 1_555 1_555
C10 C9 1_555 1_555
H3 C10 1_555 1_555
C11 C10 1_555 1_555
C12 C11 1_555 1_555
H4 C12 1_555 1_555
C13 C12 1_555 1_555
C14 C13 1_555 1_555
H5 C14 1_555 1_555
C15 C14 1_555 1_555
H6 C15 1_555 1_555
C16 C15 1_555 1_555
H7 C16 1_555 1_555
C17 C16 1_555 1_555
H8 C17 1_555 1_555
C18 C13 1_555 1_555
C19 C12 1_555 1_555
C20 C19 1_555 1_555
H9 C20 1_555 1_555
C21 C20 1_555 1_555
H10 C21 1_555 1_555
C22 C21 1_555 1_555
H11 C22 1_555 1_555
C23 C22 1_555 1_555
H12 C23 1_555 1_555
C24 C19 1_555 1_555
C25 C18 1_555 1_555
H13 C25 1_555 1_555
C26 C11 1_555 1_555
C27 C26 1_555 1_555
H14 C27 1_555 1_555
C28 C9 1_555 1_555
N2 C28 1_555 1_555
C29 C7 1_555 1_555
C30 C8 1_555 1_555
C31 C30 1_555 1_555
H15 C31 1_555 1_555
C32 C31 1_555 1_555
C33 C32 1_555 1_555
H16 C33 1_555 1_555
C34 C8 1_555 1_555
C35 C34 1_555 1_555
N3 C35 1_555 1_555
C36 N3 1_555 1_555
C37 C36 1_555 1_555
H17 C37 1_555 1_555
C38 C37 1_555 1_555
H18 C38 1_555 1_555
C39 C38 1_555 1_555
H19 C39 1_555 1_555
C40 C39 1_555 1_555
H20 C40 1_555 1_555
C41 C36 1_555 1_555
N4 C41 1_555 1_555
C42 C2 1_555 1_555
C43 C4 1_555 1_555
C44 C43 1_555 1_555
H21 C44 1_555 1_555
H22 C44 1_555 1_555
H23 C44 1_555 1_555
C45 C43 1_555 1_555
H24 C45 1_555 1_555
H25 C45 1_555 1_555
H26 C45 1_555 1_555
C46 C43 1_555 1_555
H27 C46 1_555 1_555
H28 C46 1_555 1_555
H29 C46 1_555 1_555
C47 C32 1_555 1_555
C48 C47 1_555 1_555
H30 C48 1_555 1_555
H31 C48 1_555 1_555
H32 C48 1_555 1_555
C49 C47 1_555 1_555
H33 C49 1_555 1_555
H34 C49 1_555 1_555
H35 C49 1_555 1_555
C50 C47 1_555 1_555
H36 C50 1_555 1_555
H37 C50 1_555 1_555
H38 C50 1_555 1_555
C51 H39 1_555 1_555
H40 C51 1_555 1_555
H41 C51 1_555 1_555
C52 C51 1_555 1_555
C53 C52 1_555 1_555
H42 C53 1_555 1_555
C54 C53 1_555 1_555
H43 C54 1_555 1_555
C55 C54 1_555 1_555
H44 C55 1_555 1_555
C56 C55 1_555 1_555
H45 C56 1_555 1_555
C57 C52 1_555 1_555
H46 C57 1_555 1_555
C5 C6 1_555 1_555
C17 C18 1_555 1_555
C23 C24 1_555 1_555
C24 C25 1_555 1_555
C25 C26 1_555 1_555
C27 C28 1_555 1_555
N2 C29 1_555 1_555
C29 C30 1_555 1_555
C33 C34 1_555 1_555
C35 C42 1_555 1_555
C40 C41 1_555 1_555
N4 C42 1_555 1_555
C56 C57 1_555 1_555

#END
