
#######################################################################
#
#                 Cambridge Crystallographic Data Centre
#                                CCDC 
#
#######################################################################
#
# If this CIF has been generated from an entry in the Cambridge 
# Structural Database, then it will include bibliographic, chemical, 
# crystal, experimental, refinement or atomic coordinate data resulting 
# from the CCDC's data processing and validation procedures.
#
#######################################################################

data_IJEFAG
_chemical_formula_moiety         'C36 H30 N4'
_chemical_name_systematic        
2,11-di-t-butylquinoxalino[2',3':9,10]phenanthro[4,5-abc]phenazine
_symmetry_cell_setting           triclinic
_symmetry_space_group_name_H-M   'P -1'
_symmetry_Int_Tables_number      2
_space_group_name_Hall           '-P 1'
loop_
_symmetry_equiv_pos_site_id
_symmetry_equiv_pos_as_xyz
1 x,y,z
2 -x,-y,-z
_cell_length_a                   6.0621(11)
_cell_length_b                   12.211(3)
_cell_length_c                   18.318(3)
_cell_angle_alpha                93.418(7)
_cell_angle_beta                 90.863(5)
_cell_angle_gamma                102.404(5)
_cell_volume                     1321.43
_exptl_crystal_colour            yellow
_exptl_crystal_description       needle
_cell_formula_units_Z            2
loop_
_atom_site_label
_atom_site_type_symbol
_atom_site_fract_x
_atom_site_fract_y
_atom_site_fract_z
C1 C 0.9827(5) 0.4488(3) 0.51915(17)
C2 C 1.1464(5) 0.4313(3) 0.57051(17)
C3 C 1.1122(5) 0.3311(3) 0.60534(18)
H1 H 1.2245 0.3202 0.6392
C4 C 0.9186(5) 0.2461(3) 0.59228(18)
C5 C 0.7560(5) 0.2658(3) 0.54320(17)
H2 H 0.6212 0.2100 0.5342
C6 C 0.7853(5) 0.3651(3) 0.50678(17)
C7 C 0.6130(5) 0.3814(3) 0.45400(17)
N1 N 0.4270(4) 0.3003(2) 0.44363(14)
C8 C 0.2711(5) 0.3170(3) 0.39359(17)
C9 C 0.0671(5) 0.2359(3) 0.38275(18)
H3 H 0.0401 0.1709 0.4101
C10 C -0.0913(6) 0.2511(3) 0.33288(18)
H4 H -0.2290 0.1968 0.3259
C11 C -0.0516(6) 0.3469(3) 0.29175(19)
H5 H -0.1621 0.3554 0.2564
C12 C 0.1410(6) 0.4272(3) 0.30150(19)
H6 H 0.1639 0.4917 0.2737
C13 C 0.3089(5) 0.4145(3) 0.35369(18)
N2 N 0.4988(4) 0.4970(2) 0.36482(14)
C14 C 0.6483(5) 0.4811(3) 0.41496(17)
C15 C 0.8853(5) 0.1377(3) 0.63232(18)
C16 C 0.8028(7) 0.1626(3) 0.70946(19)
H7 H 0.7902 0.0959 0.7377
H8 H 0.6547 0.1822 0.7055
H9 H 0.9111 0.2255 0.7343
C17 C 1.1088(6) 0.0982(3) 0.6395(2)
H10 H 1.0824 0.0276 0.6641
H11 H 1.2193 0.1556 0.6683
H12 H 1.1672 0.0864 0.5907
C18 C 0.7115(6) 0.0413(3) 0.5940(2)
H13 H 0.7015 -0.0266 0.6208
H14 H 0.7579 0.0272 0.5439
H15 H 0.5636 0.0615 0.5927
C1A C 1.0173(5) 0.5512(3) 0.48085(17)
C2A C 0.8536(5) 0.5687(3) 0.42949(17)
C3A C 0.8878(5) 0.6689(3) 0.39466(18)
H1A H 0.7755 0.6798 0.3608
C4A C 1.0814(5) 0.7539(3) 0.40772(18)
C5A C 1.2440(5) 0.7342(3) 0.45680(17)
H2A H 1.3788 0.7900 0.4658
C6A C 1.2147(5) 0.6349(3) 0.49322(17)
C7A C 1.3870(5) 0.6186(3) 0.54600(17)
N1A N 1.5730(4) 0.6997(2) 0.55637(14)
C8A C 1.7289(5) 0.6830(3) 0.60641(17)
C9A C 1.9329(5) 0.7641(3) 0.61725(18)
H3A H 1.9599 0.8291 0.5899
C10A C 2.0913(6) 0.7489(3) 0.66712(18)
H4A H 2.2290 0.8032 0.6741
C11A C 2.0516(6) 0.6531(3) 0.70825(19)
H5A H 2.1621 0.6446 0.7436
C12A C 1.8590(6) 0.5728(3) 0.69850(19)
H6A H 1.8361 0.5083 0.7263
C13A C 1.6911(5) 0.5855(3) 0.64631(18)
N2A N 1.5012(4) 0.5030(2) 0.63518(14)
C14A C 1.3517(5) 0.5189(3) 0.58504(17)
C15A C 1.1147(5) 0.8623(3) 0.36768(18)
C16A C 1.1972(7) 0.8374(3) 0.29054(19)
H7A H 1.2098 0.9041 0.2623
H8A H 1.3453 0.8178 0.2945
H9A H 1.0889 0.7745 0.2657
C17A C 0.8912(6) 0.9018(3) 0.3605(2)
H10A H 0.9176 0.9724 0.3359
H11A H 0.7807 0.8444 0.3317
H12A H 0.8328 0.9136 0.4093
C18A C 1.2885(6) 0.9587(3) 0.4060(2)
H13A H 1.2985 1.0266 0.3792
H14A H 1.2421 0.9728 0.4561
H15A H 1.4364 0.9385 0.4073
C19 C 0.4673(5) 0.4485(2) 0.01894(16)
C20 C 0.5836(5) 0.3609(3) 0.00772(16)
C21 C 0.5169(5) 0.2621(3) 0.04362(16)
H16 H 0.5965 0.2037 0.0355
C22 C 0.3370(5) 0.2465(3) 0.09105(16)
C23 C 0.2262(5) 0.3348(3) 0.10269(16)
H17 H 0.1046 0.3266 0.1355
C24 C 0.2878(5) 0.4346(3) 0.06782(16)
C25 C 0.1681(5) 0.5257(3) 0.08075(16)
N3 N 0.0022(4) 0.5119(2) 0.12856(13)
C26 C -0.1064(5) 0.5981(3) 0.13898(17)
C27 C -0.2867(5) 0.5874(3) 0.18871(18)
H18 H -0.3280 0.5216 0.2149
C28 C -0.3996(5) 0.6720(3) 0.19856(18)
H19 H -0.5198 0.6646 0.2318
C29 C -0.3411(5) 0.7702(3) 0.16017(18)
H20 H -0.4231 0.8279 0.1676
C30 C -0.1687(5) 0.7837(3) 0.11260(17)
H21 H -0.1307 0.8501 0.0869
C31 C -0.0461(5) 0.6976(3) 0.10165(16)
N4 N 0.1261(4) 0.7117(2) 0.05380(14)
C32 C 0.2313(5) 0.6265(3) 0.04329(16)
C33 C 0.2684(5) 0.1392(3) 0.13164(17)
C34 C 0.3437(6) 0.0385(3) 0.0934(2)
H22 H 0.2878 -0.0289 0.1199
H23 H 0.5091 0.0537 0.0928
H24 H 0.2824 0.0265 0.0430
C35 C 0.3823(6) 0.1622(3) 0.20855(19)
H25 H 0.3387 0.0952 0.2364
H26 H 0.3337 0.2255 0.2341
H27 H 0.5468 0.1806 0.2040
C36 C 0.0124(5) 0.1066(3) 0.1392(2)
H28 H -0.0269 0.0373 0.1649
H29 H -0.0611 0.0947 0.0905
H30 H -0.0390 0.1671 0.1671
C19A C 0.5327(5) 0.5515(2) -0.01894(16)
C20A C 0.4164(5) 0.6391(3) -0.00772(16)
C21A C 0.4831(5) 0.7379(3) -0.04362(16)
H16A H 0.4035 0.7963 -0.0355
C22A C 0.6630(5) 0.7535(3) -0.09105(16)
C23A C 0.7738(5) 0.6652(3) -0.10269(16)
H17A H 0.8954 0.6734 -0.1355
C24A C 0.7122(5) 0.5654(3) -0.06782(16)
C25A C 0.8319(5) 0.4743(3) -0.08075(16)
N3A N 0.9978(4) 0.4881(2) -0.12856(13)
C26A C 1.1064(5) 0.4019(3) -0.13898(17)
C27A C 1.2867(5) 0.4126(3) -0.18871(18)
H18A H 1.3280 0.4784 -0.2149
C28A C 1.3996(5) 0.3280(3) -0.19856(18)
H19A H 1.5198 0.3354 -0.2318
C29A C 1.3411(5) 0.2298(3) -0.16017(18)
H20A H 1.4231 0.1721 -0.1676
C30A C 1.1687(5) 0.2163(3) -0.11260(17)
H21A H 1.1307 0.1499 -0.0869
C31A C 1.0461(5) 0.3024(3) -0.10165(16)
N4A N 0.8739(4) 0.2883(2) -0.05380(14)
C32A C 0.7687(5) 0.3735(3) -0.04329(16)
C33A C 0.7316(5) 0.8608(3) -0.13164(17)
C34A C 0.6563(6) 0.9615(3) -0.0934(2)
H22A H 0.7122 1.0289 -0.1199
H23A H 0.4909 0.9463 -0.0928
H24A H 0.7176 0.9735 -0.0430
C35A C 0.6177(6) 0.8378(3) -0.20855(19)
H25A H 0.6613 0.9048 -0.2364
H26A H 0.6663 0.7745 -0.2341
H27A H 0.4532 0.8194 -0.2040
C36A C 0.9876(5) 0.8934(3) -0.1392(2)
H28A H 1.0269 0.9627 -0.1649
H29A H 1.0611 0.9053 -0.0905
H30A H 1.0390 0.8329 -0.1671
loop_
_geom_bond_atom_site_label_1
_geom_bond_atom_site_label_2
_geom_bond_site_symmetry_1
_geom_bond_site_symmetry_2
C1 C2 1_555 1_555
C2 C3 1_555 1_555
C3 H1 1_555 1_555
C4 C3 1_555 1_555
C5 C4 1_555 1_555
H2 C5 1_555 1_555
C6 C1 1_555 1_555
C7 C6 1_555 1_555
N1 C7 1_555 1_555
C8 N1 1_555 1_555
C9 C8 1_555 1_555
H3 C9 1_555 1_555
C10 C9 1_555 1_555
H4 C10 1_555 1_555
C11 C10 1_555 1_555
H5 C11 1_555 1_555
C12 C11 1_555 1_555
H6 C12 1_555 1_555
C13 C8 1_555 1_555
N2 C13 1_555 1_555
C14 C7 1_555 1_555
C15 C4 1_555 1_555
C16 C15 1_555 1_555
H7 C16 1_555 1_555
H8 C16 1_555 1_555
H9 C16 1_555 1_555
C17 C15 1_555 1_555
H10 C17 1_555 1_555
H11 C17 1_555 1_555
H12 C17 1_555 1_555
C18 C15 1_555 1_555
H13 C18 1_555 1_555
H14 C18 1_555 1_555
H15 C18 1_555 1_555
C19 C20 1_555 1_555
C20 C21 1_555 1_555
C21 H16 1_555 1_555
C22 C21 1_555 1_555
C23 C22 1_555 1_555
H17 C23 1_555 1_555
C24 C19 1_555 1_555
C25 C24 1_555 1_555
N3 C25 1_555 1_555
C26 N3 1_555 1_555
C27 C26 1_555 1_555
H18 C27 1_555 1_555
C28 C27 1_555 1_555
H19 C28 1_555 1_555
C29 C28 1_555 1_555
H20 C29 1_555 1_555
C30 C29 1_555 1_555
H21 C30 1_555 1_555
C31 C26 1_555 1_555
N4 C31 1_555 1_555
C32 C25 1_555 1_555
C33 C22 1_555 1_555
C34 C33 1_555 1_555
H22 C34 1_555 1_555
H23 C34 1_555 1_555
H24 C34 1_555 1_555
C35 C33 1_555 1_555
H25 C35 1_555 1_555
H26 C35 1_555 1_555
H27 C35 1_555 1_555
C36 C33 1_555 1_555
H28 C36 1_555 1_555
H29 C36 1_555 1_555
H30 C36 1_555 1_555
C1A C1 1_555 1_555
C2A C14 1_555 1_555
C3A C2A 1_555 1_555
H1A C3A 1_555 1_555
C4A C3A 1_555 1_555
C5A C4A 1_555 1_555
H2A C5A 1_555 1_555
C6A C1A 1_555 1_555
C7A C6A 1_555 1_555
N1A C7A 1_555 1_555
C8A N1A 1_555 1_555
C9A C8A 1_555 1_555
H3A C9A 1_555 1_555
C10A C9A 1_555 1_555
H4A C10A 1_555 1_555
C11A C10A 1_555 1_555
H5A C11A 1_555 1_555
C12A C11A 1_555 1_555
H6A C12A 1_555 1_555
C13A C8A 1_555 1_555
N2A C13A 1_555 1_555
C14A C2 1_555 1_555
C15A C4A 1_555 1_555
C16A C15A 1_555 1_555
H7A C16A 1_555 1_555
H8A C16A 1_555 1_555
H9A C16A 1_555 1_555
C17A C15A 1_555 1_555
H10A C17A 1_555 1_555
H11A C17A 1_555 1_555
H12A C17A 1_555 1_555
C18A C15A 1_555 1_555
H13A C18A 1_555 1_555
H14A C18A 1_555 1_555
H15A C18A 1_555 1_555
C19A C19 1_555 1_555
C20A C32 1_555 1_555
C21A C20A 1_555 1_555
H16A C21A 1_555 1_555
C22A C21A 1_555 1_555
C23A C22A 1_555 1_555
H17A C23A 1_555 1_555
C24A C19A 1_555 1_555
C25A C24A 1_555 1_555
N3A C25A 1_555 1_555
C26A N3A 1_555 1_555
C27A C26A 1_555 1_555
H18A C27A 1_555 1_555
C28A C27A 1_555 1_555
H19A C28A 1_555 1_555
C29A C28A 1_555 1_555
H20A C29A 1_555 1_555
C30A C29A 1_555 1_555
H21A C30A 1_555 1_555
C31A C26A 1_555 1_555
N4A C31A 1_555 1_555
C32A C20 1_555 1_555
C33A C22A 1_555 1_555
C34A C33A 1_555 1_555
H22A C34A 1_555 1_555
H23A C34A 1_555 1_555
H24A C34A 1_555 1_555
C35A C33A 1_555 1_555
H25A C35A 1_555 1_555
H26A C35A 1_555 1_555
H27A C35A 1_555 1_555
C36A C33A 1_555 1_555
H28A C36A 1_555 1_555
H29A C36A 1_555 1_555
H30A C36A 1_555 1_555
C5 C6 1_555 1_555
C12 C13 1_555 1_555
N2 C14 1_555 1_555
C23 C24 1_555 1_555
C30 C31 1_555 1_555
N4 C32 1_555 1_555
C1A C2A 1_555 1_555
C5A C6A 1_555 1_555
C7A C14A 1_555 1_555
C12A C13A 1_555 1_555
N2A C14A 1_555 1_555
C19A C20A 1_555 1_555
C23A C24A 1_555 1_555
C25A C32A 1_555 1_555
C30A C31A 1_555 1_555
N4A C32A 1_555 1_555

#END
