
#######################################################################
#
#                 Cambridge Crystallographic Data Centre
#                                CCDC 
#
#######################################################################
#
# If this CIF has been generated from an entry in the Cambridge 
# Structural Database, then it will include bibliographic, chemical, 
# crystal, experimental, refinement or atomic coordinate data resulting 
# from the CCDC's data processing and validation procedures.
#
#######################################################################

data_IJEJUE
_chemical_formula_moiety         'C16 H15 F3 N2 O6 S1'
_chemical_name_systematic        
'2-Methyl-5-(2-nitrophenyl)-9-oxo-2-azabicyclo[3.3.1]non-6-en-6-yl trifluoromethanesulfonate'
_symmetry_cell_setting           monoclinic
_symmetry_space_group_name_H-M   'P 21/c'
_symmetry_Int_Tables_number      14
_space_group_name_Hall           '-P 2ybc'
loop_
_symmetry_equiv_pos_site_id
_symmetry_equiv_pos_as_xyz
1 x,y,z
2 -x,1/2+y,1/2-z
3 -x,-y,-z
4 x,1/2-y,1/2+z
_cell_length_a                   11.8112(17)
_cell_length_b                   12.8229(8)
_cell_length_c                   12.0343(7)
_cell_angle_alpha                90
_cell_angle_beta                 104.475(8)
_cell_angle_gamma                90
_cell_volume                     1764.78
_exptl_crystal_colour            colorless
_exptl_crystal_description       prism
_cell_formula_units_Z            4
loop_
_atom_site_label
_atom_site_type_symbol
_atom_site_fract_x
_atom_site_fract_y
_atom_site_fract_z
S1 S -0.72981(4) -0.02322(4) -0.08622(4)
O1 O -0.62312(12) 0.16336(10) -0.50660(12)
O2 O -0.74038(13) -0.03697(11) -0.48658(13)
O3 O -0.83010(15) 0.03172(14) -0.65067(14)
O4 O -0.74230(11) -0.00396(10) -0.21823(11)
O5 O -0.62942(13) 0.02587(14) -0.01676(13)
O6 O -0.75784(15) -0.12915(11) -0.06990(14)
F1 F -0.87267(12) 0.03390(11) 0.03261(11)
F2 F -0.95212(11) 0.02536(12) -0.15050(12)
F3 F -0.83767(13) 0.15400(10) -0.08099(12)
N1 N -0.42274(14) 0.20651(12) -0.27205(14)
N2 N -0.80528(15) 0.02886(13) -0.54493(15)
C1 C -0.66741(16) 0.13530(13) -0.32212(16)
C2 C -0.61614(17) 0.22263(14) -0.23175(17)
H1 H -0.6322 0.2917 -0.2691
H2 H -0.6565 0.2198 -0.1690
C3 C -0.48477(17) 0.21149(14) -0.18090(16)
H3 H -0.4558 0.2717 -0.1303
H4 H -0.4690 0.1473 -0.1339
C4 C -0.46095(16) 0.11616(14) -0.34909(16)
H5 H -0.4161 0.1168 -0.4094
C5 C -0.44745(17) 0.00680(14) -0.29207(17)
H6 H -0.4382 -0.0455 -0.3497
H7 H -0.3750 0.0061 -0.2293
C6 C -0.54831(16) -0.02542(14) -0.24391(16)
H8 H -0.5423 -0.0878 -0.2003
C7 C -0.64468(16) 0.03065(13) -0.26065(16)
C8 C -0.58829(16) 0.13890(13) -0.40625(16)
C9 C -0.29537(17) 0.21012(16) -0.22701(19)
H9 H -0.2732 0.2762 -0.1865
H10 H -0.2577 0.2046 -0.2906
H11 H -0.2702 0.1519 -0.1738
C10 C -0.79724(16) 0.15411(14) -0.38129(16)
C11 C -0.85928(17) 0.10726(15) -0.48427(18)
C12 C -0.97640(18) 0.12898(16) -0.5362(2)
H12 H -1.0142 0.0971 -0.6070
C13 C -1.03718(19) 0.19805(17) -0.4828(2)
H13 H -1.1176 0.2121 -0.5156
C14 C -0.97970(19) 0.24570(16) -0.3821(2)
H14 H -1.0208 0.2928 -0.3454
C15 C -0.86172(18) 0.22561(15) -0.33344(18)
H15 H -0.8235 0.2616 -0.2654
C16 C -0.85714(19) 0.05278(16) -0.07145(19)
loop_
_geom_bond_atom_site_label_1
_geom_bond_atom_site_label_2
_geom_bond_site_symmetry_1
_geom_bond_site_symmetry_2
S1 O4 1_555 1_555
O1 C8 1_555 1_555
O2 N2 1_555 1_555
O3 N2 1_555 1_555
O4 C7 1_555 1_555
O5 S1 1_555 1_555
O6 S1 1_555 1_555
F1 C16 1_555 1_555
F2 C16 1_555 1_555
F3 C16 1_555 1_555
N1 C3 1_555 1_555
N2 C11 1_555 1_555
C1 C2 1_555 1_555
C2 H1 1_555 1_555
H2 C2 1_555 1_555
C3 C2 1_555 1_555
H3 C3 1_555 1_555
H4 C3 1_555 1_555
C4 N1 1_555 1_555
H5 C4 1_555 1_555
C5 C4 1_555 1_555
H6 C5 1_555 1_555
H7 C5 1_555 1_555
C6 C5 1_555 1_555
H8 C6 1_555 1_555
C7 C1 1_555 1_555
C8 C1 1_555 1_555
C9 N1 1_555 1_555
H9 C9 1_555 1_555
H10 C9 1_555 1_555
H11 C9 1_555 1_555
C10 C1 1_555 1_555
C11 C10 1_555 1_555
C12 C11 1_555 1_555
H12 C12 1_555 1_555
C13 C12 1_555 1_555
H13 C13 1_555 1_555
C14 C13 1_555 1_555
H14 C14 1_555 1_555
C15 C10 1_555 1_555
H15 C15 1_555 1_555
C16 S1 1_555 1_555
C4 C8 1_555 1_555
C6 C7 1_555 1_555
C14 C15 1_555 1_555

#END
