
#######################################################################
#
#                 Cambridge Crystallographic Data Centre
#                                CCDC 
#
#######################################################################
#
# If this CIF has been generated from an entry in the Cambridge 
# Structural Database, then it will include bibliographic, chemical, 
# crystal, experimental, refinement or atomic coordinate data resulting 
# from the CCDC's data processing and validation procedures.
#
#######################################################################

data_IJELIS
_chemical_formula_moiety         'C44 H37 N3 O2,0.75(C4 H10 O1)'
_chemical_name_systematic        
"1-Benzyl-5-(1-naphthylmethylene)piperidine-spiro-3,3'-1'-methyl-4'-(1-naphthyl)pyrrolidine-spiro-2',3''-indole-2'',4-dione diethyl ether solvate"
_symmetry_cell_setting           orthorhombic
_symmetry_space_group_name_H-M   'P b c a'
_symmetry_Int_Tables_number      61
_space_group_name_Hall           '-P 2ac 2ab'
loop_
_symmetry_equiv_pos_site_id
_symmetry_equiv_pos_as_xyz
1 x,y,z
2 1/2+x,y,1/2-z
3 x,1/2-y,1/2+z
4 1/2-x,1/2+y,z
5 -x,-y,-z
6 1/2-x,-y,1/2+z
7 -x,1/2+y,1/2-z
8 1/2+x,1/2-y,-z
_cell_length_a                   12.958(3)
_cell_length_b                   24.556(5)
_cell_length_c                   25.753(6)
_cell_angle_alpha                90
_cell_angle_beta                 90
_cell_angle_gamma                90
_cell_volume                     8194.52
_exptl_crystal_colour            colorless
_exptl_crystal_description       plate
_chemical_melting_point          '439-440 K'
_cell_formula_units_Z            8
_exptl_crystal_recrystallization_method chloroform/ether
loop_
_atom_site_label
_atom_site_type_symbol
_atom_site_fract_x
_atom_site_fract_y
_atom_site_fract_z
N1 N 0.16261(18) 0.20071(10) 0.22102(9)
H1 H 0.1020 0.2030 0.2076
N2 N 0.42783(17) 0.20977(9) 0.21698(8)
N3 N 0.29246(17) 0.34608(9) 0.33256(8)
O1 O 0.23842(16) 0.27239(9) 0.17882(7)
O2 O 0.47679(14) 0.22641(8) 0.34005(6)
C1 C 0.1926(2) 0.16026(11) 0.25612(10)
C2 C 0.1375(3) 0.11465(13) 0.27052(13)
H2 H 0.0700 0.1092 0.2594
C3 C 0.1867(3) 0.07742(14) 0.30218(14)
H3 H 0.1516 0.0463 0.3128
C4 C 0.2869(3) 0.08549(13) 0.31828(12)
H4 H 0.3187 0.0597 0.3394
C5 C 0.3408(2) 0.13149(12) 0.30336(10)
H5 H 0.4088 0.1365 0.3139
C6 C 0.2928(2) 0.16989(11) 0.27267(9)
C7 C 0.33345(19) 0.22102(11) 0.24649(9)
C8 C 0.2404(2) 0.23591(12) 0.21077(10)
C9 C 0.36363(19) 0.27208(11) 0.28045(9)
C10 C 0.4608(2) 0.29667(11) 0.25103(9)
H6 H 0.5213 0.2876 0.2722
C11 C 0.4687(2) 0.26246(12) 0.20183(10)
H7 H 0.4280 0.2783 0.1740
H8 H 0.5398 0.2594 0.1905
C12 C 0.4151(3) 0.17226(14) 0.17385(11)
H9 H 0.3846 0.1391 0.1861
H10 H 0.4813 0.1645 0.1588
H11 H 0.3711 0.1884 0.1481
C13 C 0.27366(19) 0.31197(11) 0.28750(10)
H12 H 0.2668 0.3345 0.2568
H13 H 0.2099 0.2919 0.2921
C14 C 0.2684(2) 0.31480(12) 0.37912(10)
H14 H 0.1949 0.3077 0.3806
H15 H 0.2874 0.3356 0.4097
C15 C 0.3264(2) 0.26205(11) 0.37848(9)
C16 C 0.3967(2) 0.25207(11) 0.33406(9)
C17 C 0.4636(2) 0.35759(12) 0.24275(10)
C18 C 0.4109(3) 0.38086(14) 0.20213(12)
H16 H 0.3704 0.3588 0.1810
C19 C 0.4161(3) 0.43655(17) 0.19150(16)
H17 H 0.3800 0.4509 0.1635
C20 C 0.4735(3) 0.46950(16) 0.22186(18)
H18 H 0.4773 0.5065 0.2142
C21 C 0.5276(3) 0.44894(15) 0.26476(15)
C22 C 0.5870(4) 0.48356(17) 0.2973(2)
H19 H 0.5911 0.5206 0.2898
C23 C 0.6375(4) 0.4634(2) 0.3388(2)
H20 H 0.6751 0.4866 0.3601
C24 C 0.6336(3) 0.40747(18) 0.35018(17)
H21 H 0.6691 0.3938 0.3788
C25 C 0.5778(2) 0.37305(14) 0.31937(12)
H22 H 0.5758 0.3362 0.3275
C26 C 0.5232(2) 0.39215(13) 0.27544(12)
C27 C 0.2329(3) 0.39688(13) 0.33008(11)
H23 H 0.1598 0.3883 0.3305
H24 H 0.2480 0.4154 0.2977
C28 C 0.2574(3) 0.43425(12) 0.37483(11)
C29 C 0.1801(3) 0.45802(15) 0.40362(14)
H25 H 0.1116 0.4508 0.3954
C30 C 0.2028(5) 0.49227(19) 0.44436(18)
H26 H 0.1497 0.5080 0.4635
C31 C 0.3041(5) 0.50332(17) 0.45688(16)
H27 H 0.3196 0.5262 0.4846
C32 C 0.3818(4) 0.48035(16) 0.42812(16)
H28 H 0.4503 0.4879 0.4361
C33 C 0.3587(3) 0.44609(14) 0.38744(13)
H29 H 0.4120 0.4307 0.3682
C34 C 0.3155(2) 0.22317(13) 0.41379(9)
H30 H 0.3523 0.1912 0.4084
C35 C 0.2503(3) 0.22580(13) 0.46112(10)
C36 C 0.2760(3) 0.26089(17) 0.49995(12)
H31 H 0.3302 0.2852 0.4951
C37 C 0.2221(4) 0.2609(2) 0.54705(14)
H32 H 0.2421 0.2844 0.5735
C38 C 0.1425(4) 0.2275(2) 0.55427(13)
H33 H 0.1075 0.2282 0.5858
C39 C 0.1102(3) 0.19131(16) 0.51520(12)
C40 C 0.0262(3) 0.1553(2) 0.52138(18)
H34 H -0.0094 0.1547 0.5527
C41 C -0.0033(3) 0.1218(2) 0.4829(2)
H35 H -0.0603 0.0994 0.4876
C42 C 0.0502(3) 0.12041(17) 0.43635(16)
H36 H 0.0299 0.0965 0.4103
C43 C 0.1329(3) 0.15416(14) 0.42875(13)
H37 H 0.1682 0.1531 0.3973
C44 C 0.1654(2) 0.19039(13) 0.46772(10)
O3 O 0.5465(11) 0.1139(7) 0.4767(6)
C45 C 0.4665(13) 0.1589(6) 0.5541(5)
H38 H 0.5114 0.1450 0.5806
H39 H 0.3996 0.1659 0.5687
H40 H 0.4945 0.1921 0.5404
C46 C 0.4567(14) 0.1169(8) 0.5103(7)
H41 H 0.4450 0.0813 0.5256
H42 H 0.3968 0.1258 0.4894
C47 C 0.5411(13) 0.0926(10) 0.4258(6)
H43 H 0.4964 0.1162 0.4056
H44 H 0.5080 0.0573 0.4277
C48 C 0.6436(17) 0.0858(11) 0.3955(8)
H45 H 0.6478 0.1130 0.3688
H46 H 0.6458 0.0502 0.3800
H47 H 0.7008 0.0898 0.4189
O4? O 0.4931(18) 0.1034(10) 0.4781(8)
C49? C 0.3834(16) 0.1240(9) 0.5544(7)
H48? H 0.3582 0.1543 0.5742
H49? H 0.4076 0.0961 0.5775
H50? H 0.3286 0.1097 0.5333
C50? C 0.473(2) 0.1430(10) 0.5192(10)
H51? H 0.4557 0.1778 0.5038
H52? H 0.5348 0.1478 0.5400
C51? C 0.576(2) 0.1143(12) 0.4425(12)
H53? H 0.6378 0.1218 0.4623
H54? H 0.5590 0.1470 0.4231
C52? C 0.599(3) 0.0686(16) 0.4039(14)
H55? H 0.5844 0.0808 0.3693
H56? H 0.5573 0.0375 0.4119
H57? H 0.6708 0.0588 0.4064
loop_
_geom_bond_atom_site_label_1
_geom_bond_atom_site_label_2
_geom_bond_site_symmetry_1
_geom_bond_site_symmetry_2
N1 H1 1_555 1_555
N2 C7 1_555 1_555
N3 C13 1_555 1_555
O1 C8 1_555 1_555
O2 C16 1_555 1_555
C1 N1 1_555 1_555
C2 C1 1_555 1_555
H2 C2 1_555 1_555
C3 C2 1_555 1_555
H3 C3 1_555 1_555
C4 C3 1_555 1_555
H4 C4 1_555 1_555
C5 C4 1_555 1_555
H5 C5 1_555 1_555
C6 C1 1_555 1_555
C7 C6 1_555 1_555
C8 N1 1_555 1_555
C9 C7 1_555 1_555
C10 C9 1_555 1_555
H6 C10 1_555 1_555
C11 N2 1_555 1_555
H7 C11 1_555 1_555
H8 C11 1_555 1_555
C12 N2 1_555 1_555
H9 C12 1_555 1_555
H10 C12 1_555 1_555
H11 C12 1_555 1_555
C13 C9 1_555 1_555
H12 C13 1_555 1_555
H13 C13 1_555 1_555
C14 N3 1_555 1_555
H14 C14 1_555 1_555
H15 C14 1_555 1_555
C15 C14 1_555 1_555
C16 C9 1_555 1_555
C17 C10 1_555 1_555
C18 C17 1_555 1_555
H16 C18 1_555 1_555
C19 C18 1_555 1_555
H17 C19 1_555 1_555
C20 C19 1_555 1_555
H18 C20 1_555 1_555
C21 C20 1_555 1_555
C22 C21 1_555 1_555
H19 C22 1_555 1_555
C23 C22 1_555 1_555
H20 C23 1_555 1_555
C24 C23 1_555 1_555
H21 C24 1_555 1_555
C25 C24 1_555 1_555
H22 C25 1_555 1_555
C26 C17 1_555 1_555
C27 N3 1_555 1_555
H23 C27 1_555 1_555
H24 C27 1_555 1_555
C28 C27 1_555 1_555
C29 C28 1_555 1_555
H25 C29 1_555 1_555
C30 C29 1_555 1_555
H26 C30 1_555 1_555
C31 C30 1_555 1_555
H27 C31 1_555 1_555
C32 C31 1_555 1_555
H28 C32 1_555 1_555
C33 C28 1_555 1_555
H29 C33 1_555 1_555
C34 C15 1_555 1_555
H30 C34 1_555 1_555
C35 C34 1_555 1_555
C36 C35 1_555 1_555
H31 C36 1_555 1_555
C37 C36 1_555 1_555
H32 C37 1_555 1_555
C38 C37 1_555 1_555
H33 C38 1_555 1_555
C39 C38 1_555 1_555
C40 C39 1_555 1_555
H34 C40 1_555 1_555
C41 C40 1_555 1_555
H35 C41 1_555 1_555
C42 C41 1_555 1_555
H36 C42 1_555 1_555
C43 C42 1_555 1_555
H37 C43 1_555 1_555
C44 C35 1_555 1_555
O3 C46 1_555 1_555
C45 H38 1_555 1_555
H39 C45 1_555 1_555
H40 C45 1_555 1_555
C46 C45 1_555 1_555
H41 C46 1_555 1_555
H42 C46 1_555 1_555
C47 O3 1_555 1_555
H43 C47 1_555 1_555
H44 C47 1_555 1_555
C48 C47 1_555 1_555
H45 C48 1_555 1_555
H46 C48 1_555 1_555
H47 C48 1_555 1_555
C5 C6 1_555 1_555
C7 C8 1_555 1_555
C10 C11 1_555 1_555
C15 C16 1_555 1_555
C21 C26 1_555 1_555
C25 C26 1_555 1_555
C32 C33 1_555 1_555
C39 C44 1_555 1_555
C43 C44 1_555 1_555

#END
