
#######################################################################
#
#                 Cambridge Crystallographic Data Centre
#                                CCDC 
#
#######################################################################
#
# If this CIF has been generated from an entry in the Cambridge 
# Structural Database, then it will include bibliographic, chemical, 
# crystal, experimental, refinement or atomic coordinate data resulting 
# from the CCDC's data processing and validation procedures.
#
#######################################################################

data_IJEMEP
_chemical_formula_moiety         'C6 H4 Cl1 N1 O4 S1'
_chemical_name_systematic        '3-Nitrobenzenesulfonyl chloride'
_symmetry_cell_setting           monoclinic
_symmetry_space_group_name_H-M   'P 21/n'
_symmetry_Int_Tables_number      14
_space_group_name_Hall           '-P 2yn'
loop_
_symmetry_equiv_pos_site_id
_symmetry_equiv_pos_as_xyz
1 x,y,z
2 1/2+x,1/2-y,1/2+z
3 -x,-y,-z
4 1/2-x,1/2+y,1/2-z
_cell_length_a                   7.8868(4)
_cell_length_b                   9.4298(4)
_cell_length_c                   11.8789(5)
_cell_angle_alpha                90
_cell_angle_beta                 107.318(2)
_cell_angle_gamma                90
_cell_volume                     843.396
_exptl_crystal_colour            colorless
_exptl_crystal_description       block
_chemical_melting_point          333-335K
_cell_formula_units_Z            4
_exptl_crystal_recrystallization_method 'petroleum ether/acetone'
loop_
_atom_site_label
_atom_site_type_symbol
_atom_site_fract_x
_atom_site_fract_y
_atom_site_fract_z
Cl1 Cl 0.32306(8) 0.43025(6) 0.53772(6)
S1 S 0.10523(7) 0.30523(5) 0.49511(4)
O1 O 0.3023(3) -0.28186(18) 0.32733(16)
O2 O 0.1028(3) -0.13592(19) 0.22689(15)
O3 O 0.0254(2) 0.32696(18) 0.58608(16)
O4 O 0.0094(3) 0.3315(2) 0.37543(16)
N1 N 0.2148(3) -0.17316(19) 0.31766(16)
C1 C 0.2439(3) -0.0821(2) 0.42233(18)
C2 C 0.3410(3) -0.1353(2) 0.5311(2)
C3 C 0.3635(3) -0.0513(2) 0.6308(2)
C4 C 0.2911(3) 0.0838(2) 0.61985(19)
C5 C 0.1983(3) 0.1340(2) 0.50833(18)
C6 C 0.1716(3) 0.0529(2) 0.40713(18)
H1 H 0.386(4) -0.224(3) 0.540(2)
H2 H 0.429(4) -0.082(3) 0.706(3)
H3 H 0.303(3) 0.139(3) 0.685(2)
H4 H 0.108(4) 0.086(3) 0.330(2)
loop_
_geom_bond_atom_site_label_1
_geom_bond_atom_site_label_2
_geom_bond_site_symmetry_1
_geom_bond_site_symmetry_2
Cl1 S1 1_555 1_555
S1 O3 1_555 1_555
O1 N1 1_555 1_555
O2 N1 1_555 1_555
O4 S1 1_555 1_555
N1 C1 1_555 1_555
C1 C2 1_555 1_555
C2 C3 1_555 1_555
C3 C4 1_555 1_555
C4 C5 1_555 1_555
C5 S1 1_555 1_555
C6 C1 1_555 1_555
H1 C2 1_555 1_555
H2 C3 1_555 1_555
H3 C4 1_555 1_555
H4 C6 1_555 1_555
C5 C6 1_555 1_555

#END
