
#######################################################################
#
#                 Cambridge Crystallographic Data Centre
#                                CCDC 
#
#######################################################################
#
# If this CIF has been generated from an entry in the Cambridge 
# Structural Database, then it will include bibliographic, chemical, 
# crystal, experimental, refinement or atomic coordinate data resulting 
# from the CCDC's data processing and validation procedures.
#
#######################################################################

data_IJEQUL
_chemical_formula_moiety         'C62 H62 O2'
_chemical_name_systematic        
1,10-bis(hexyloxy)-7,16-dimesityldibenzo[de,qr]hexacene
_symmetry_cell_setting           monoclinic
_symmetry_space_group_name_H-M   'P 21/c'
_symmetry_Int_Tables_number      14
_space_group_name_Hall           '-P 2ybc'
loop_
_symmetry_equiv_pos_site_id
_symmetry_equiv_pos_as_xyz
1 x,y,z
2 -x,1/2+y,1/2-z
3 -x,-y,-z
4 x,1/2-y,1/2+z
_cell_length_a                   8.3105(3)
_cell_length_b                   9.6129(3)
_cell_length_c                   28.8543(10)
_cell_angle_alpha                90
_cell_angle_beta                 96.657(2)
_cell_angle_gamma                90
_cell_volume                     2289.57
_exptl_crystal_colour            'dark red'
_exptl_crystal_description       'prism frag'
_cell_formula_units_Z            2
loop_
_atom_site_label
_atom_site_type_symbol
_atom_site_fract_x
_atom_site_fract_y
_atom_site_fract_z
O1 O 0.57098(15) 0.06842(13) 0.43615(4)
C1 C 0.6755(2) 0.02598(19) 0.47345(7)
C2 C 0.7372(2) -0.1090(2) 0.47537(7)
H1 H 0.7058 -0.1717 0.4505
C3 C 0.8419(2) -0.1525(2) 0.51242(7)
H2 H 0.8809 -0.2454 0.5133
C4 C 0.8925(2) -0.0617(2) 0.54917(7)
C5 C 0.9977(2) -0.1077(2) 0.58831(7)
H3 H 1.0344 -0.2014 0.5897
C6 C 1.0467(2) -0.0181(2) 0.62409(7)
H4 H 1.1145 -0.0503 0.6507
C7 C 0.9969(2) 0.1200(2) 0.62139(7)
H5 H 1.0352 0.1818 0.6459
C8 C 0.8924(2) 0.17077(19) 0.58376(7)
C9 C 0.8423(2) 0.31443(19) 0.58171(7)
C10 C 0.9151(2) 0.40966(19) 0.61945(7)
C11 C 0.8425(2) 0.4220(2) 0.66075(7)
C12 C 0.9167(2) 0.5035(2) 0.69687(7)
H6 H 0.8688 0.5095 0.7251
C13 C 1.0584(2) 0.5762(2) 0.69288(7)
C14 C 1.1273(2) 0.5645(2) 0.65141(7)
H7 H 1.2241 0.6143 0.6481
C15 C 1.0590(2) 0.4823(2) 0.61468(7)
C16 C 0.7248(2) 0.36022(19) 0.54701(7)
C17 C 0.6539(2) 0.26608(19) 0.51024(7)
C18 C 0.7194(2) 0.1238(2) 0.50902(7)
C19 C 0.8338(2) 0.07764(19) 0.54698(7)
C20 C 0.5261(2) -0.0265(2) 0.39818(7)
H8 H 0.4657 -0.1067 0.4090
H9 H 0.6239 -0.0618 0.3854
C21 C 0.4209(2) 0.0539(2) 0.36140(7)
H10 H 0.3231 0.0867 0.3747
H11 H 0.3851 -0.0090 0.3351
C22 C 0.5068(2) 0.1779(2) 0.34313(7)
H12 H 0.6096 0.1456 0.3326
H13 H 0.5345 0.2439 0.3692
C23 C 0.4106(3) 0.2555(2) 0.30310(8)
H14 H 0.3053 0.2839 0.3130
H15 H 0.4701 0.3412 0.2967
C24 C 0.3795(3) 0.1732(3) 0.25893(8)
H16 H 0.2990 0.0998 0.2632
H17 H 0.4812 0.1267 0.2528
C25 C 0.3173(3) 0.2608(3) 0.21643(8)
H18 H 0.2127 0.3021 0.2212
H19 H 0.3040 0.2016 0.1886
H20 H 0.3953 0.3349 0.2122
C26 C 0.6644(2) 0.4989(2) 0.54808(7)
H21 H 0.7147 0.5611 0.5709
C27 C 0.5367(2) 0.54690(19) 0.51761(7)
C28 C 0.4731(2) 0.68370(19) 0.52016(7)
H22 H 0.5208 0.7437 0.5441
C29 C 0.6853(2) 0.3493(2) 0.66559(7)
H23 H 0.6529 0.3681 0.6966
H24 H 0.6990 0.2489 0.6617
H25 H 0.6014 0.3836 0.6416
C30 C 1.1323(3) 0.6684(2) 0.73204(8)
H26 H 1.2485 0.6789 0.7300
H27 H 1.1162 0.6261 0.7621
H28 H 1.0801 0.7599 0.7295
C31 C 1.1384(3) 0.4732(2) 0.57042(8)
H29 H 1.2382 0.5283 0.5738
H30 H 1.0643 0.5094 0.5443
H31 H 1.1642 0.3759 0.5644
O1B O 0.42902(15) 0.93158(13) 0.56385(4)
C1B C 0.3245(2) 0.97402(19) 0.52655(7)
C2B C 0.2628(2) 1.1090(2) 0.52463(7)
H1B H 0.2942 1.1717 0.5495
C3B C 0.1581(2) 1.1525(2) 0.48758(7)
H2B H 0.1191 1.2454 0.4867
C4B C 0.1075(2) 1.0617(2) 0.45083(7)
C5B C 0.0023(2) 1.1077(2) 0.41169(7)
H3B H -0.0344 1.2014 0.4103
C6B C -0.0467(2) 1.0181(2) 0.37591(7)
H4B H -0.1145 1.0503 0.3493
C7B C 0.0031(2) 0.8800(2) 0.37861(7)
H5B H -0.0352 0.8182 0.3541
C8B C 0.1076(2) 0.82923(19) 0.41624(7)
C9B C 0.1577(2) 0.68557(19) 0.41829(7)
C10B C 0.0849(2) 0.59034(19) 0.38055(7)
C11B C 0.1575(2) 0.5780(2) 0.33925(7)
C12B C 0.0833(2) 0.4965(2) 0.30313(7)
H6B H 0.1312 0.4905 0.2749
C13B C -0.0584(2) 0.4238(2) 0.30712(7)
C14B C -0.1273(2) 0.4355(2) 0.34859(7)
H7B H -0.2241 0.3857 0.3519
C15B C -0.0590(2) 0.5177(2) 0.38532(7)
C16B C 0.2752(2) 0.63978(19) 0.45299(7)
C17B C 0.3461(2) 0.73392(19) 0.48976(7)
C18B C 0.2806(2) 0.8762(2) 0.49098(7)
C19B C 0.1662(2) 0.92236(19) 0.45302(7)
C20B C 0.4739(2) 1.0265(2) 0.60182(7)
H8B H 0.5343 1.1067 0.5910
H9B H 0.3761 1.0618 0.6146
C21B C 0.5791(2) 0.9461(2) 0.63860(7)
H10B H 0.6769 0.9133 0.6253
H11B H 0.6149 1.0090 0.6649
C22B C 0.4932(2) 0.8221(2) 0.65687(7)
H12B H 0.3904 0.8544 0.6674
H13B H 0.4655 0.7561 0.6308
C23B C 0.5894(3) 0.7445(2) 0.69690(8)
H14B H 0.6947 0.7161 0.6870
H15B H 0.5299 0.6588 0.7033
C24B C 0.6205(3) 0.8268(3) 0.74107(8)
H16B H 0.7010 0.9002 0.7368
H17B H 0.5188 0.8733 0.7472
C25B C 0.6827(3) 0.7392(3) 0.78357(8)
H18B H 0.7873 0.6979 0.7788
H19B H 0.6960 0.7984 0.8114
H20B H 0.6047 0.6651 0.7878
C26B C 0.3356(2) 0.5011(2) 0.45192(7)
H21B H 0.2853 0.4389 0.4291
C27B C 0.4633(2) 0.45310(19) 0.48239(7)
C28B C 0.5269(2) 0.31630(19) 0.47984(7)
H22B H 0.4792 0.2563 0.4559
C29B C 0.3147(2) 0.6507(2) 0.33441(7)
H23B H 0.3471 0.6319 0.3034
H24B H 0.3010 0.7511 0.3383
H25B H 0.3986 0.6164 0.3584
C30B C -0.1323(3) 0.3316(2) 0.26796(8)
H26B H -0.2485 0.3211 0.2700
H27B H -0.1162 0.3739 0.2379
H28B H -0.0801 0.2401 0.2705
C31B C -0.1384(3) 0.5268(2) 0.42958(8)
H29B H -0.2382 0.4717 0.4262
H30B H -0.0643 0.4906 0.4557
H31B H -0.1642 0.6241 0.4356
loop_
_geom_bond_atom_site_label_1
_geom_bond_atom_site_label_2
_geom_bond_site_symmetry_1
_geom_bond_site_symmetry_2
O1 C1 1_555 1_555
C1 C2 1_555 1_555
C2 H1 1_555 1_555
C3 C2 1_555 1_555
H2 C3 1_555 1_555
C4 C3 1_555 1_555
C5 C4 1_555 1_555
H3 C5 1_555 1_555
C6 C5 1_555 1_555
H4 C6 1_555 1_555
C7 C6 1_555 1_555
H5 C7 1_555 1_555
C8 C7 1_555 1_555
C9 C8 1_555 1_555
C10 C9 1_555 1_555
C11 C10 1_555 1_555
C12 C11 1_555 1_555
H6 C12 1_555 1_555
C13 C12 1_555 1_555
C14 C13 1_555 1_555
H7 C14 1_555 1_555
C15 C10 1_555 1_555
C16 C9 1_555 1_555
C17 C16 1_555 1_555
C18 C1 1_555 1_555
C19 C4 1_555 1_555
C20 O1 1_555 1_555
H8 C20 1_555 1_555
H9 C20 1_555 1_555
C21 C20 1_555 1_555
H10 C21 1_555 1_555
H11 C21 1_555 1_555
C22 C21 1_555 1_555
H12 C22 1_555 1_555
H13 C22 1_555 1_555
C23 C22 1_555 1_555
H14 C23 1_555 1_555
H15 C23 1_555 1_555
C24 C23 1_555 1_555
H16 C24 1_555 1_555
H17 C24 1_555 1_555
C25 C24 1_555 1_555
H18 C25 1_555 1_555
H19 C25 1_555 1_555
H20 C25 1_555 1_555
C26 C16 1_555 1_555
H21 C26 1_555 1_555
C27 C26 1_555 1_555
C28 C27 1_555 1_555
H22 C28 1_555 1_555
C29 C11 1_555 1_555
H23 C29 1_555 1_555
H24 C29 1_555 1_555
H25 C29 1_555 1_555
C30 C13 1_555 1_555
H26 C30 1_555 1_555
H27 C30 1_555 1_555
H28 C30 1_555 1_555
C31 C15 1_555 1_555
H29 C31 1_555 1_555
H30 C31 1_555 1_555
H31 C31 1_555 1_555
O1B C1B 1_555 1_555
C1B C2B 1_555 1_555
C2B H1B 1_555 1_555
C3B C2B 1_555 1_555
H2B C3B 1_555 1_555
C4B C3B 1_555 1_555
C5B C4B 1_555 1_555
H3B C5B 1_555 1_555
C6B C5B 1_555 1_555
H4B C6B 1_555 1_555
C7B C6B 1_555 1_555
H5B C7B 1_555 1_555
C8B C7B 1_555 1_555
C9B C8B 1_555 1_555
C10B C9B 1_555 1_555
C11B C10B 1_555 1_555
C12B C11B 1_555 1_555
H6B C12B 1_555 1_555
C13B C12B 1_555 1_555
C14B C13B 1_555 1_555
H7B C14B 1_555 1_555
C15B C10B 1_555 1_555
C16B C9B 1_555 1_555
C17B C28 1_555 1_555
C18B C1B 1_555 1_555
C19B C4B 1_555 1_555
C20B O1B 1_555 1_555
H8B C20B 1_555 1_555
H9B C20B 1_555 1_555
C21B C20B 1_555 1_555
H10B C21B 1_555 1_555
H11B C21B 1_555 1_555
C22B C21B 1_555 1_555
H12B C22B 1_555 1_555
H13B C22B 1_555 1_555
C23B C22B 1_555 1_555
H14B C23B 1_555 1_555
H15B C23B 1_555 1_555
C24B C23B 1_555 1_555
H16B C24B 1_555 1_555
H17B C24B 1_555 1_555
C25B C24B 1_555 1_555
H18B C25B 1_555 1_555
H19B C25B 1_555 1_555
H20B C25B 1_555 1_555
C26B C16B 1_555 1_555
H21B C26B 1_555 1_555
C27B C27 1_555 1_555
C28B C17 1_555 1_555
H22B C28B 1_555 1_555
C29B C11B 1_555 1_555
H23B C29B 1_555 1_555
H24B C29B 1_555 1_555
H25B C29B 1_555 1_555
C30B C13B 1_555 1_555
H26B C30B 1_555 1_555
H27B C30B 1_555 1_555
H28B C30B 1_555 1_555
C31B C15B 1_555 1_555
H29B C31B 1_555 1_555
H30B C31B 1_555 1_555
H31B C31B 1_555 1_555
C8 C19 1_555 1_555
C14 C15 1_555 1_555
C17 C18 1_555 1_555
C18 C19 1_555 1_555
C8B C19B 1_555 1_555
C14B C15B 1_555 1_555
C16B C17B 1_555 1_555
C17B C18B 1_555 1_555
C18B C19B 1_555 1_555
C26B C27B 1_555 1_555
C27B C28B 1_555 1_555

#END
