
#######################################################################
#
#                 Cambridge Crystallographic Data Centre
#                                CCDC 
#
#######################################################################
#
# If this CIF has been generated from an entry in the Cambridge 
# Structural Database, then it will include bibliographic, chemical, 
# crystal, experimental, refinement or atomic coordinate data resulting 
# from the CCDC's data processing and validation procedures.
#
#######################################################################

data_IJESIA
_chemical_formula_moiety         'C36 H59 Li1 N2 O3 Si1'
_chemical_name_systematic        
(1-(2-((2,6-Di-isopropylphenyl)amino)-2-phenylvinyl)-N,N,1,1-tetramethylsilanaminato)-(tris(tetrahydrofuran))-lithium
_symmetry_cell_setting           monoclinic
_symmetry_space_group_name_H-M   'P 21/n'
_symmetry_Int_Tables_number      14
_space_group_name_Hall           '-P 2yn'
loop_
_symmetry_equiv_pos_site_id
_symmetry_equiv_pos_as_xyz
1 x,y,z
2 1/2-x,1/2+y,1/2-z
3 -x,-y,-z
4 1/2+x,1/2-y,1/2+z
_cell_length_a                   11.153(7)
_cell_length_b                   19.631(13)
_cell_length_c                   17.963(11)
_cell_angle_alpha                90
_cell_angle_beta                 105.160(11)
_cell_angle_gamma                90
_cell_volume                     3796.03
_exptl_crystal_colour            colorless
_exptl_crystal_description       plate
_cell_formula_units_Z            4
loop_
_atom_site_label
_atom_site_type_symbol
_atom_site_fract_x
_atom_site_fract_y
_atom_site_fract_z
Li1 Li 0.1256(6) 0.7877(3) 0.3535(4)
N1 N 0.0922(2) 0.88110(13) 0.30657(14)
N2 N -0.2693(4) 0.9881(2) 0.1265(2)
O1 O 0.0295(3) 0.75563(16) 0.42536(18)
O2 O 0.2988(3) 0.77547(18) 0.42587(19)
O3 O 0.1269(4) 0.70370(16) 0.2888(3)
Si1 Si -0.16289(10) 1.03018(6) 0.19681(7)
C1 C 0.2032(3) 0.91822(16) 0.31571(18)
C2 C 0.2553(3) 0.9544(2) 0.3841(2)
C3 C 0.3733(4) 0.9815(2) 0.3969(2)
H1 H 0.4076 1.0049 0.4433
C4 C 0.4426(4) 0.9753(2) 0.3433(3)
H2 H 0.5242 0.9922 0.3541
C5 C 0.3896(3) 0.9438(2) 0.2743(2)
H3 H 0.4343 0.9411 0.2367
C6 C 0.2711(3) 0.91590(18) 0.2587(2)
C7 C 0.2148(4) 0.8838(2) 0.1810(2)
H4 H 0.1317 0.8659 0.1808
C8 C 0.1986(6) 0.9368(3) 0.1164(3)
H5 H 0.1512 0.9751 0.1275
H6 H 0.1547 0.9163 0.0677
H7 H 0.2795 0.9524 0.1131
C9 C 0.2956(5) 0.8236(3) 0.1665(3)
H8 H 0.3761 0.8405 0.1639
H9 H 0.2548 0.8015 0.1183
H10 H 0.3066 0.7911 0.2084
C10 C 0.1807(4) 0.9649(3) 0.4435(2)
H11 H 0.1019 0.9393 0.4257
C11 C 0.1486(7) 1.0396(4) 0.4498(4)
H12 H 0.2237 1.0650 0.4729
H13 H 0.0911 1.0440 0.4817
H14 H 0.1105 1.0576 0.3987
C12 C 0.2491(6) 0.9372(4) 0.5223(3)
H15 H 0.2726 0.8902 0.5171
H16 H 0.1952 0.9394 0.5567
H17 H 0.3230 0.9642 0.5432
C13 C -0.0139(3) 0.91473(17) 0.27274(18)
C14 C -0.1294(3) 0.87313(17) 0.26815(19)
C15 C -0.2072(4) 0.8874(2) 0.3147(3)
H18 H -0.1901 0.9248 0.3485
C16 C -0.3088(5) 0.8475(3) 0.3119(4)
H19 H -0.3599 0.8573 0.3446
C17 C -0.3374(5) 0.7932(3) 0.2618(5)
H20 H -0.4076 0.7662 0.2602
C18 C -0.2649(5) 0.7795(3) 0.2161(4)
H21 H -0.2839 0.7427 0.1815
C19 C -0.1602(4) 0.8195(2) 0.2193(3)
H22 H -0.1096 0.8089 0.1865
C20 C -0.0262(4) 0.98024(19) 0.2451(2)
H23 H 0.0494 1.0037 0.2523
C21 C -0.0985(5) 1.1035(3) 0.1517(4)
H24 H -0.0598 1.0864 0.1130
H25 H -0.0372 1.1276 0.1912
H26 H -0.1654 1.1344 0.1277
C22 C -0.2525(6) 1.0686(3) 0.2613(3)
H27 H -0.3064 1.1043 0.2337
H28 H -0.1952 1.0878 0.3066
H29 H -0.3024 1.0337 0.2769
C23 C -0.2294(7) 0.9508(4) 0.0679(3)
H30 H -0.2396 0.9023 0.0750
H31 H -0.1426 0.9606 0.0721
H32 H -0.2792 0.9643 0.0173
C24 C -0.3959(5) 0.9769(4) 0.1242(5)
H33 H -0.4484 1.0010 0.0805
H34 H -0.4121 0.9935 0.1715
H35 H -0.4139 0.9285 0.1190
C25 C 0.0046(6) 0.7978(3) 0.4836(4)
H36 H -0.0304 0.8413 0.4615
H37 H 0.0816 0.8070 0.5235
C26 C -0.0837(9) 0.7625(5) 0.5173(6)
H38 H -0.0529 0.7611 0.5737
H39 H -0.1642 0.7858 0.5038
C27 C -0.0955(8) 0.6954(5) 0.4862(4)
H40 H -0.1831 0.6819 0.4706
H41 H -0.0503 0.6629 0.5250
C28 C -0.0429(6) 0.6958(4) 0.4186(3)
H42 H 0.0087 0.6554 0.4188
H43 H -0.1095 0.6964 0.3706
C29 C 0.3278(5) 0.7352(3) 0.4952(3)
H44 H 0.2689 0.6974 0.4905
H45 H 0.3229 0.7633 0.5395
C30 C 0.4525(5) 0.7094(4) 0.5060(3)
H46 H 0.4516 0.6640 0.4829
H47 H 0.4961 0.7068 0.5609
C31 C 0.5125(5) 0.7605(4) 0.4652(4)
H48 H 0.5547 0.7958 0.5012
H49 H 0.5735 0.7383 0.4427
C32 C 0.4125(5) 0.7900(4) 0.4050(4)
H50 H 0.4240 0.8393 0.4019
H51 H 0.4106 0.7698 0.3549
C33 C 0.0703(7) 0.6981(4) 0.2091(5)
H52 H 0.0693 0.7429 0.1848
H53 H -0.0159 0.6830 0.2012
C34 C 0.1348(11) 0.6509(4) 0.1732(5)
H54 H 0.1673 0.6734 0.1339
H55 H 0.0802 0.6135 0.1491
C35 C 0.2354(7) 0.6261(4) 0.2361(6)
H56 H 0.3126 0.6510 0.2391
H57 H 0.2498 0.5773 0.2307
C36 C 0.1862(9) 0.6402(4) 0.3065(5)
H58 H 0.1273 0.6049 0.3127
H59 H 0.2542 0.6428 0.3538
loop_
_geom_bond_atom_site_label_1
_geom_bond_atom_site_label_2
_geom_bond_site_symmetry_1
_geom_bond_site_symmetry_2
Li1 N1 1_555 1_555
N1 C1 1_555 1_555
N2 Si1 1_555 1_555
O1 Li1 1_555 1_555
O2 Li1 1_555 1_555
O3 Li1 1_555 1_555
Si1 C20 1_555 1_555
C1 C2 1_555 1_555
C2 C3 1_555 1_555
C3 H1 1_555 1_555
C4 C3 1_555 1_555
H2 C4 1_555 1_555
C5 C4 1_555 1_555
H3 C5 1_555 1_555
C6 C1 1_555 1_555
C7 C6 1_555 1_555
H4 C7 1_555 1_555
C8 C7 1_555 1_555
H5 C8 1_555 1_555
H6 C8 1_555 1_555
H7 C8 1_555 1_555
C9 C7 1_555 1_555
H8 C9 1_555 1_555
H9 C9 1_555 1_555
H10 C9 1_555 1_555
C10 C2 1_555 1_555
H11 C10 1_555 1_555
C11 C10 1_555 1_555
H12 C11 1_555 1_555
H13 C11 1_555 1_555
H14 C11 1_555 1_555
C12 C10 1_555 1_555
H15 C12 1_555 1_555
H16 C12 1_555 1_555
H17 C12 1_555 1_555
C13 N1 1_555 1_555
C14 C13 1_555 1_555
C15 C14 1_555 1_555
H18 C15 1_555 1_555
C16 C15 1_555 1_555
H19 C16 1_555 1_555
C17 C16 1_555 1_555
H20 C17 1_555 1_555
C18 C17 1_555 1_555
H21 C18 1_555 1_555
C19 C14 1_555 1_555
H22 C19 1_555 1_555
C20 C13 1_555 1_555
H23 C20 1_555 1_555
C21 Si1 1_555 1_555
H24 C21 1_555 1_555
H25 C21 1_555 1_555
H26 C21 1_555 1_555
C22 Si1 1_555 1_555
H27 C22 1_555 1_555
H28 C22 1_555 1_555
H29 C22 1_555 1_555
C23 N2 1_555 1_555
H30 C23 1_555 1_555
H31 C23 1_555 1_555
H32 C23 1_555 1_555
C24 N2 1_555 1_555
H33 C24 1_555 1_555
H34 C24 1_555 1_555
H35 C24 1_555 1_555
C25 O1 1_555 1_555
H36 C25 1_555 1_555
H37 C25 1_555 1_555
C26 C25 1_555 1_555
H38 C26 1_555 1_555
H39 C26 1_555 1_555
C27 C26 1_555 1_555
H40 C27 1_555 1_555
H41 C27 1_555 1_555
C28 O1 1_555 1_555
H42 C28 1_555 1_555
H43 C28 1_555 1_555
C29 O2 1_555 1_555
H44 C29 1_555 1_555
H45 C29 1_555 1_555
C30 C29 1_555 1_555
H46 C30 1_555 1_555
H47 C30 1_555 1_555
C31 C30 1_555 1_555
H48 C31 1_555 1_555
H49 C31 1_555 1_555
C32 O2 1_555 1_555
H50 C32 1_555 1_555
H51 C32 1_555 1_555
C33 O3 1_555 1_555
H52 C33 1_555 1_555
H53 C33 1_555 1_555
C34 C33 1_555 1_555
H54 C34 1_555 1_555
H55 C34 1_555 1_555
C35 C34 1_555 1_555
H56 C35 1_555 1_555
H57 C35 1_555 1_555
C36 O3 1_555 1_555
H58 C36 1_555 1_555
H59 C36 1_555 1_555
C5 C6 1_555 1_555
C18 C19 1_555 1_555
C27 C28 1_555 1_555
C31 C32 1_555 1_555
C35 C36 1_555 1_555

#END
