
#######################################################################
#
#                 Cambridge Crystallographic Data Centre
#                                CCDC 
#
#######################################################################
#
# If this CIF has been generated from an entry in the Cambridge 
# Structural Database, then it will include bibliographic, chemical, 
# crystal, experimental, refinement or atomic coordinate data resulting 
# from the CCDC's data processing and validation procedures.
#
#######################################################################

data_IJIHOZ
_chemical_name_common            "ibuprofen hemikis(4,4'-bipyridine)"
_chemical_formula_moiety         'C13 H18 O2,0.5(C10 H8 N2)'
_chemical_name_systematic        
"2-(4-Isobutylphenyl)propanoic acid hemikis(4,4'-bipyridine)"
_symmetry_cell_setting           triclinic
_symmetry_space_group_name_H-M   'P 1'
_symmetry_Int_Tables_number      1
_space_group_name_Hall           'P 1'
loop_
_symmetry_equiv_pos_site_id
_symmetry_equiv_pos_as_xyz
1 x,y,z
_cell_length_a                   5.721(3)
_cell_length_b                   11.617(5)
_cell_length_c                   24.595(11)
_cell_angle_alpha                93.910(8)
_cell_angle_beta                 90.624(8)
_cell_angle_gamma                103.852(8)
_cell_volume                     1582.75
_cell_formula_units_Z            4
loop_
_atom_site_label
_atom_site_type_symbol
_atom_site_fract_x
_atom_site_fract_y
_atom_site_fract_z
C1 C 0.9725(11) 0.9787(5) 1.0186(3)
N1 N 0.8438(9) 1.2647(5) 1.1247(2)
N2 N 1.0561(11) 0.7942(5) 0.9501(2)
C2 C 0.7079(12) 1.2242(6) 1.0801(3)
H1 H 0.5806 1.2583 1.0729
C3 C 0.7430(12) 1.1359(6) 1.0441(2)
H2 H 0.6480 1.1146 1.0124
C4 C 0.9242(11) 1.0770(6) 1.0554(3)
C5 C 1.0622(11) 1.1142(6) 1.1034(3)
H3 H 1.1806 1.0766 1.1135
C6 C 1.0166(14) 1.2094(7) 1.1357(3)
H4 H 1.1129 1.2362 1.1669
C7 C 0.8861(14) 0.8475(6) 0.9386(3)
H5 H 0.7925 0.8220 0.9069
C8 C 0.8412(14) 0.9387(6) 0.9711(3)
H6 H 0.7199 0.9745 0.9610
C9 C 1.1507(11) 0.9246(5) 1.0308(3)
H7 H 1.2480 0.9503 1.0620
C10 C 1.1867(12) 0.8290(6) 0.9957(3)
H8 H 1.3041 0.7899 1.0049
C11 C -0.0782(11) 0.5752(5) 1.0569(3)
N3 N -0.1675(9) 0.7524(5) 1.1291(2)
N4 N 0.0708(11) 0.3029(5) 0.9457(2)
C12 C -0.3034(12) 0.7163(6) 1.0832(3)
H9 H -0.4319 0.7501 1.0766
C13 C -0.2605(11) 0.6335(6) 1.0465(2)
H10 H -0.3517 0.6147 1.0142
C14 C 0.0566(11) 0.6098(6) 1.1052(3)
H11 H 0.1781 0.5733 1.1144
C15 C 0.0062(12) 0.6984(6) 1.1386(3)
H12 H 0.1003 0.7227 1.1702
C16 C -0.1040(14) 0.3553(6) 0.9346(3)
H13 H -0.1960 0.3308 0.9026
C17 C -0.1547(13) 0.4463(6) 0.9693(3)
H14 H -0.2748 0.4833 0.9597
C18 C -0.0267(11) 0.4811(5) 1.0179(3)
C19 C 0.1557(12) 0.4263(5) 1.0290(3)
H15 H 0.2525 0.4495 1.0604
C20 C 0.1932(11) 0.3340(5) 0.9919(3)
H16 H 0.3096 0.2940 1.0006
O1 O -0.5404(9) 0.9382(5) 1.1534(2)
O2 O -0.2285(9) 0.9168(4) 1.2011(2)
C21 C -0.4080(14) 0.9597(6) 1.1947(3)
C22 C -0.4318(17) 1.0467(8) 1.2419(4)
H17 H -0.269(16) 1.094(8) 1.252(3)
C23 C -0.5762(17) 1.1303(8) 1.2287(4)
H18 H -0.5865 1.1813 1.2606
H19 H -0.7351 1.0868 1.2168
H20 H -0.5016 1.1775 1.2002
C24 C -0.5268(13) 0.9757(5) 1.2908(3)
C25 C -0.3846(14) 0.9743(6) 1.3346(3)
H21 H -0.2238 1.0154 1.3344
C26 C -0.4678(16) 0.9144(8) 1.3798(3)
H22 H -0.3612 0.9137 1.4085
C27 C -0.7004(16) 0.8571(7) 1.3829(3)
C28 C -0.8527(13) 0.8536(6) 1.3382(4)
H23 H -1.0120 0.8104 1.3385
C29 C -0.7666(17) 0.9154(7) 1.2923(4)
H24 H -0.8707 0.9156 1.2630
C30 C -0.800(2) 0.7959(7) 1.4336(4)
H25 H -0.9585 0.8093 1.4404
H26 H -0.6958 0.8303 1.4648
C31 C -0.818(3) 0.6579(14) 1.4264(7)
C32 C -0.562(4) 0.6384(19) 1.4248(8)
C33 C -0.878(7) 0.596(4) 1.3904(14)
O3 O 0.4604(10) 1.4480(5) 1.1550(2)
O4 O 0.7854(8) 1.4274(4) 1.19910(19)
C34 C 0.5972(12) 1.4683(6) 1.1957(3)
C35 C 0.5637(18) 1.5349(7) 1.2480(4)
H27 H 0.723(16) 1.582(7) 1.261(4)
C36 C 0.4071(17) 1.6218(7) 1.2380(4)
H28 H 0.2436 1.5782 1.2306
H29 H 0.4656 1.6662 1.2074
H30 H 0.4140 1.6754 1.2698
C37 C 0.4740(13) 1.4472(6) 1.2904(3)
C38 C 0.6366(14) 1.4295(7) 1.3262(3)
H31 H 0.7943 1.4752 1.3268
C39 C 0.5654(14) 1.3395(7) 1.3634(3)
H32 H 0.6800 1.3225 1.3866
C40 C 0.3351(15) 1.2792(6) 1.3652(3)
C41 C 0.1704(13) 1.3030(8) 1.3288(4)
H33 H 0.0094 1.2625 1.3298
C42 C 0.2403(14) 1.3847(7) 1.2914(3)
H34 H 0.1279 1.3979 1.2665
C43 C 0.263(2) 1.1813(8) 1.4055(3)
H35 H 0.1030 1.1345 1.3948
H36 H 0.3718 1.1290 1.4009
C44 C 0.261(3) 1.2175(13) 1.4646(6)
C45 C 0.391(3) 1.3187(18) 1.4908(8)
C46 C 0.109(7) 1.098(3) 1.4916(12)
O5 O 0.1403(11) 0.1419(5) 0.8731(2)
O6 O 0.4458(11) 0.1201(5) 0.9237(2)
C47 C 0.3354(16) 0.1002(6) 0.8832(3)
C48 C 0.326(3) 0.0069(9) 0.8340(5)
H37 H 0.16(2) -0.037(11) 0.823(5)
C49 C 0.492(3) -0.0731(9) 0.8495(5)
H38 H 0.4309 -0.1139 0.8809
H39 H 0.6513 -0.0251 0.8576
H40 H 0.4959 -0.1301 0.8196
C50 C 0.466(2) 0.0898(8) 0.7867(3)
C51 C 0.3007(18) 0.0901(8) 0.7450(4)
H41 H 0.1389 0.0531 0.7483
C52 C 0.3789(18) 0.1455(7) 0.6988(3)
H42 H 0.2697 0.1410 0.6700
C53 C 0.6224(18) 0.2099(7) 0.6935(3)
C54 C 0.7713(19) 0.2094(9) 0.7360(4)
H43 H 0.9311 0.2515 0.7347
C55 C 0.697(2) 0.1490(8) 0.7815(4)
H44 H 0.8084 0.1490 0.8093
C56 C 0.705(2) 0.2730(8) 0.6438(4)
H45 H 0.8533 0.2538 0.6323
H46 H 0.5850 0.2440 0.6147
C57 C 0.744(4) 0.4009(9) 0.6518(5)
C58 C 0.580(6) 0.4459(13) 0.6666(7)
C59 C 0.803(9) 0.427(3) 0.586(2)
O7 O 1.1225(10) 0.6304(5) 0.8750(2)
O8 O 1.4416(10) 0.6085(5) 0.9212(2)
C60 C 1.3238(16) 0.5934(6) 0.8814(3)
C61 C 1.444(3) 0.5340(16) 0.8327(7)
H47 H 1.61(2) 0.528(11) 0.843(5)
C62 C 1.288(4) 0.4198(10) 0.8177(6)
H48 H 1.3438 0.3864 0.7849
H49 H 1.1275 0.4283 0.8114
H50 H 1.2889 0.3682 0.8465
C63 C 1.448(2) 0.6108(7) 0.7861(3)
C64 C 1.2854(19) 0.6330(9) 0.7490(4)
H51 H 1.1259 0.5905 0.7504
C65 C 1.342(2) 0.7124(9) 0.7110(3)
H52 H 1.2238 0.7205 0.6864
C66 C 1.5769(18) 0.7831(7) 0.7078(3)
C67 C 1.744(2) 0.7648(7) 0.7441(3)
H53 H 1.9011 0.8104 0.7437
C68 C 1.679(2) 0.6758(9) 0.7830(3)
H54 H 1.7975 0.6626 0.8063
C69 C 1.640(2) 0.8740(8) 0.6684(4)
H55 H 1.5090 0.9136 0.6664
H56 H 1.7811 0.9329 0.6826
C70 C 1.688(4) 0.8342(10) 0.6133(4)
C71 C 1.841(5) 0.9231(14) 0.5804(6)
H57 H 1.7409 0.9565 0.5577
H58 H 1.9417 0.8854 0.5580
H59 H 1.9402 0.9850 0.6042
C72 C 1.590(6) 0.7317(16) 0.5859(6)
H60 H 1.5739 0.6684 0.6097
H61 H 1.6900 0.7189 0.5562
H62 H 1.4333 0.7336 0.5719
C73? C -0.919(6) 0.608(3) 1.4886(12)
C74? C -0.735(6) 0.631(3) 1.4955(11)
C75? C -0.639(7) 0.613(3) 1.4042(15)
C76? C -1.001(5) 0.584(2) 1.4651(13)
C77? C 0.257(3) 1.1118(15) 1.4995(7)
C78? C 0.140(18) 1.245(7) 1.481(3)
C79? C 0.556(6) 0.391(3) 0.6381(13)
C80? C 0.914(6) 0.461(2) 0.6039(10)
C81? C 0.160(5) 1.256(2) 1.4603(10)
C82? C 0.027(7) 1.261(3) 1.4727(14)
C83? C 1.329(2) 0.5124(13) 0.8281(7)
C84? C 1.513(3) 0.4350(11) 0.8349(6)
C85? C 1.623(5) 0.947(3) 0.5738(11)
C86? C 1.885(5) 0.789(3) 0.6061(11)
H63? H 1.17(2) 0.465(13) 0.816(6)
H64? H 1.6675 0.4854 0.8462
H65? H 1.5279 0.3924 0.8008
H66? H 1.4588 0.3795 0.8619
H67? H 1.4542 0.9445 0.5755
H68? H 1.6639 0.9328 0.5366
H69? H 1.7150 1.0232 0.5881
H70? H 1.8639 0.7380 0.5731
H71? H 1.9043 0.7437 0.6365
H72? H 2.0256 0.8526 0.6038
loop_
_geom_bond_atom_site_label_1
_geom_bond_atom_site_label_2
_geom_bond_site_symmetry_1
_geom_bond_site_symmetry_2
C1 C4 1_555 1_555
N1 C2 1_555 1_555
N2 C7 1_555 1_555
C2 H1 1_555 1_555
C3 C2 1_555 1_555
H2 C3 1_555 1_555
C4 C3 1_555 1_555
C5 C4 1_555 1_555
H3 C5 1_555 1_555
C6 N1 1_555 1_555
H4 C6 1_555 1_555
C7 H5 1_555 1_555
C8 C1 1_555 1_555
H6 C8 1_555 1_555
C9 C1 1_555 1_555
H7 C9 1_555 1_555
C10 N2 1_555 1_555
H8 C10 1_555 1_555
C11 C13 1_555 1_555
N3 C12 1_555 1_555
N4 C16 1_555 1_555
C12 H9 1_555 1_555
C13 C12 1_555 1_555
H10 C13 1_555 1_555
C14 C11 1_555 1_555
H11 C14 1_555 1_555
C15 N3 1_555 1_555
H12 C15 1_555 1_555
C16 H13 1_555 1_555
C17 C16 1_555 1_555
H14 C17 1_555 1_555
C18 C11 1_555 1_555
C19 C18 1_555 1_555
H15 C19 1_555 1_555
C20 N4 1_555 1_555
H16 C20 1_555 1_555
O1 C21 1_555 1_555
O2 C21 1_555 1_555
C21 C22 1_555 1_555
C22 H17 1_555 1_555
C23 C22 1_555 1_555
H18 C23 1_555 1_555
H19 C23 1_555 1_555
H20 C23 1_555 1_555
C24 C22 1_555 1_555
C25 C24 1_555 1_555
H21 C25 1_555 1_555
C26 C25 1_555 1_555
H22 C26 1_555 1_555
C27 C26 1_555 1_555
C28 C27 1_555 1_555
H23 C28 1_555 1_555
C29 C24 1_555 1_555
H24 C29 1_555 1_555
C30 C27 1_555 1_555
H25 C30 1_555 1_555
H26 C30 1_555 1_555
C31 C30 1_555 1_555
C32 C31 1_555 1_555
C33 C31 1_555 1_555
O3 C34 1_555 1_555
O4 C34 1_555 1_555
C34 C35 1_555 1_555
C35 H27 1_555 1_555
C36 C35 1_555 1_555
H28 C36 1_555 1_555
H29 C36 1_555 1_555
H30 C36 1_555 1_555
C37 C35 1_555 1_555
C38 C37 1_555 1_555
H31 C38 1_555 1_555
C39 C38 1_555 1_555
H32 C39 1_555 1_555
C40 C39 1_555 1_555
C41 C40 1_555 1_555
H33 C41 1_555 1_555
C42 C37 1_555 1_555
H34 C42 1_555 1_555
C43 C40 1_555 1_555
H35 C43 1_555 1_555
H36 C43 1_555 1_555
C44 C43 1_555 1_555
C45 C44 1_555 1_555
C46 C44 1_555 1_555
O5 C47 1_555 1_555
O6 C47 1_555 1_555
C47 C48 1_555 1_555
C48 H37 1_555 1_555
C49 C48 1_555 1_555
H38 C49 1_555 1_555
H39 C49 1_555 1_555
H40 C49 1_555 1_555
C50 C48 1_555 1_555
C51 C50 1_555 1_555
H41 C51 1_555 1_555
C52 C51 1_555 1_555
H42 C52 1_555 1_555
C53 C52 1_555 1_555
C54 C53 1_555 1_555
H43 C54 1_555 1_555
C55 C50 1_555 1_555
H44 C55 1_555 1_555
C56 C53 1_555 1_555
H45 C56 1_555 1_555
H46 C56 1_555 1_555
C57 C56 1_555 1_555
C58 C57 1_555 1_555
C59 C57 1_555 1_555
O7 C60 1_555 1_555
O8 C60 1_555 1_555
C60 C61 1_555 1_555
C61 H47 1_555 1_555
C62 C61 1_555 1_555
H48 C62 1_555 1_555
H49 C62 1_555 1_555
H50 C62 1_555 1_555
C63 C61 1_555 1_555
C64 C63 1_555 1_555
H51 C64 1_555 1_555
C65 C64 1_555 1_555
H52 C65 1_555 1_555
C66 C65 1_555 1_555
C67 C66 1_555 1_555
H53 C67 1_555 1_555
C68 C63 1_555 1_555
H54 C68 1_555 1_555
C69 C66 1_555 1_555
H55 C69 1_555 1_555
H56 C69 1_555 1_555
C70 C69 1_555 1_555
C71 C70 1_555 1_555
H57 C71 1_555 1_555
H58 C71 1_555 1_555
H59 C71 1_555 1_555
C72 C70 1_555 1_555
H60 C72 1_555 1_555
H61 C72 1_555 1_555
H62 C72 1_555 1_555
C5 C6 1_555 1_555
C7 C8 1_555 1_555
C9 C10 1_555 1_555
C14 C15 1_555 1_555
C17 C18 1_555 1_555
C19 C20 1_555 1_555
C28 C29 1_555 1_555
C41 C42 1_555 1_555
C54 C55 1_555 1_555
C67 C68 1_555 1_555

#END
