
#######################################################################
#
#                 Cambridge Crystallographic Data Centre
#                                CCDC 
#
#######################################################################
#
# If this CIF has been generated from an entry in the Cambridge 
# Structural Database, then it will include bibliographic, chemical, 
# crystal, experimental, refinement or atomic coordinate data resulting 
# from the CCDC's data processing and validation procedures.
#
#######################################################################

data_IJIJUI
_chemical_formula_moiety         'C26 H21 N1 O4 S2 Se1'
_chemical_name_systematic        
N-(1-Phenyl-2-(phenylselanyl)vinyl)-N-(phenylsulfonyl)benzenesulfonamide
_symmetry_cell_setting           orthorhombic
_symmetry_space_group_name_H-M   'P b c a'
_symmetry_Int_Tables_number      61
_space_group_name_Hall           '-P 2ac 2ab'
loop_
_symmetry_equiv_pos_site_id
_symmetry_equiv_pos_as_xyz
1 x,y,z
2 1/2-x,-y,1/2+z
3 1/2+x,1/2-y,-z
4 -x,1/2+y,1/2-z
5 -x,-y,-z
6 1/2+x,y,1/2-z
7 1/2-x,1/2+y,z
8 x,1/2-y,1/2+z
_cell_length_a                   16.485
_cell_length_b                   12.822
_cell_length_c                   23.163
_cell_angle_alpha                90
_cell_angle_beta                 90
_cell_angle_gamma                90
_cell_volume                     4895.98
_exptl_crystal_colour            colorless
_exptl_crystal_description       block
_cell_formula_units_Z            8
loop_
_atom_site_label
_atom_site_type_symbol
_atom_site_fract_x
_atom_site_fract_y
_atom_site_fract_z
Se1 Se 0.64657(4) 0.13939(4) 0.53058(2)
S1 S 0.40570(7) 0.21457(9) 0.39337(5)
S2 S 0.55229(8) 0.30938(10) 0.34250(5)
O1 O 0.39529(19) 0.1391(3) 0.43748(14)
C1 C 0.5580(3) 0.1550(4) 0.42223(19)
O2 O 0.6223(2) 0.2619(3) 0.31838(16)
O3 O 0.4896(2) 0.3481(3) 0.30589(16)
N1 N 0.5081(2) 0.2193(3) 0.38435(15)
O4 O 0.3761(2) 0.3176(3) 0.40228(17)
C2 C 0.5801(3) 0.1976(4) 0.47200(19)
H1 H 0.5605 0.2644 0.4791
C3 C 0.3668(3) 0.1644(4) 0.3287(2)
C4 C 0.5754(3) 0.0472(4) 0.40187(19)
C5 C 0.6455(4) 0.4222(5) 0.6570(3)
H2 H 0.6452 0.4780 0.6826
C6 C 0.6068(3) -0.1567(4) 0.3648(2)
H3 H 0.6176 -0.2245 0.3526
C7 C 0.6462(3) 0.2577(4) 0.5815(2)
C8 C 0.6939(3) 0.4985(4) 0.4352(3)
H4 H 0.7488 0.5052 0.4435
C9 C 0.5974(3) -0.1348(4) 0.4228(2)
H5 H 0.6023 -0.1880 0.4498
C10 C 0.6046(3) 0.2488(5) 0.6327(2)
H6 H 0.5771 0.1875 0.6417
C11 C 0.6002(3) -0.0774(4) 0.3257(2)
H7 H 0.6067 -0.0919 0.2866
C12 C 0.5839(3) 0.0237(4) 0.3428(2)
H8 H 0.5787 0.0762 0.3153
C13 C 0.3219(3) 0.2270(5) 0.2927(3)
H9 H 0.3138 0.2972 0.3012
C14 C 0.6677(3) 0.4169(4) 0.4017(2)
H10 H 0.7041 0.3671 0.3883
C15 C 0.5808(3) -0.0346(4) 0.4411(2)
H11 H 0.5731 -0.0217 0.4802
C16 C 0.5856(3) 0.4100(4) 0.3881(2)
C17 C 0.6402(4) 0.5703(4) 0.4566(3)
H12 H 0.6583 0.6245 0.4798
C18 C 0.6041(4) 0.3330(5) 0.6710(3)
H13 H 0.5759 0.3286 0.7057
C19 C 0.3788(3) 0.0595(5) 0.3170(3)
H14 H 0.4090 0.0178 0.3419
C20 C 0.6887(3) 0.3481(4) 0.5688(2)
H15 H 0.7183 0.3532 0.5347
C21 C 0.2887(4) 0.1824(9) 0.2432(3)
H16 H 0.2576 0.2232 0.2184
C22 C 0.6867(4) 0.4306(5) 0.6070(3)
H17 H 0.7139 0.4922 0.5983
C23 C 0.3448(4) 0.0184(7) 0.2673(3)
H18 H 0.3517 -0.0519 0.2588
C24 C 0.5318(3) 0.4812(4) 0.4091(3)
H19 H 0.4768 0.4758 0.4005
C25 C 0.5600(4) 0.5614(5) 0.4434(4)
H20 H 0.5236 0.6104 0.4578
C26 C 0.3011(5) 0.0807(10) 0.2306(3)
H21 H 0.2799 0.0527 0.1968
loop_
_geom_bond_atom_site_label_1
_geom_bond_atom_site_label_2
_geom_bond_site_symmetry_1
_geom_bond_site_symmetry_2
Se1 C2 1_555 1_555
S1 O1 1_555 1_555
S2 O2 1_555 1_555
C1 N1 1_555 1_555
O3 S2 1_555 1_555
N1 S1 1_555 1_555
O4 S1 1_555 1_555
C2 C1 1_555 1_555
H1 C2 1_555 1_555
C3 S1 1_555 1_555
C4 C1 1_555 1_555
C5 H2 1_555 1_555
C6 H3 1_555 1_555
C7 Se1 1_555 1_555
C8 H4 1_555 1_555
C9 C6 1_555 1_555
H5 C9 1_555 1_555
C10 C7 1_555 1_555
H6 C10 1_555 1_555
C11 C6 1_555 1_555
H7 C11 1_555 1_555
C12 C4 1_555 1_555
H8 C12 1_555 1_555
C13 C3 1_555 1_555
H9 C13 1_555 1_555
C14 C8 1_555 1_555
H10 C14 1_555 1_555
C15 C4 1_555 1_555
H11 C15 1_555 1_555
C16 S2 1_555 1_555
C17 C8 1_555 1_555
H12 C17 1_555 1_555
C18 C5 1_555 1_555
H13 C18 1_555 1_555
C19 C3 1_555 1_555
H14 C19 1_555 1_555
C20 C7 1_555 1_555
H15 C20 1_555 1_555
C21 C13 1_555 1_555
H16 C21 1_555 1_555
C22 C5 1_555 1_555
H17 C22 1_555 1_555
C23 C19 1_555 1_555
H18 C23 1_555 1_555
C24 C16 1_555 1_555
H19 C24 1_555 1_555
C25 C17 1_555 1_555
H20 C25 1_555 1_555
C26 C21 1_555 1_555
H21 C26 1_555 1_555
S2 N1 1_555 1_555
C9 C15 1_555 1_555
C10 C18 1_555 1_555
C11 C12 1_555 1_555
C14 C16 1_555 1_555
C20 C22 1_555 1_555
C23 C26 1_555 1_555
C24 C25 1_555 1_555

#END
