
#######################################################################
#
#                 Cambridge Crystallographic Data Centre
#                                CCDC 
#
#######################################################################
#
# If this CIF has been generated from an entry in the Cambridge 
# Structural Database, then it will include bibliographic, chemical, 
# crystal, experimental, refinement or atomic coordinate data resulting 
# from the CCDC's data processing and validation procedures.
#
#######################################################################

data_IJILET
_chemical_name_common            
'2,3[bis(3-methylimidazolio)methyl]-quinoxaline dibromide dihydrate'
_chemical_formula_moiety         'C18 H20 N6 2+,2(Br1 1-),2(H2 O1)'
_chemical_name_systematic        
"1,1'-(Quinoxaline-2,3-diylbis(methylene))bis(3-methyl-1H-imidazol-3-ium) dibromide dihydrate"
_symmetry_cell_setting           triclinic
_symmetry_space_group_name_H-M   'P -1'
_symmetry_Int_Tables_number      2
_space_group_name_Hall           '-P 1'
loop_
_symmetry_equiv_pos_site_id
_symmetry_equiv_pos_as_xyz
1 x,y,z
2 -x,-y,-z
_cell_length_a                   8.722(4)
_cell_length_b                   10.556(7)
_cell_length_c                   13.441(7)
_cell_angle_alpha                67.031(12)
_cell_angle_beta                 86.912(14)
_cell_angle_gamma                69.485(13)
_cell_volume                     1062.19
_cell_formula_units_Z            2
loop_
_atom_site_label
_atom_site_type_symbol
_atom_site_fract_x
_atom_site_fract_y
_atom_site_fract_z
Br1 Br 0.12942(7) 0.25440(8) 0.30828(5)
Br2 Br 0.62586(8) 0.65278(7) 0.03972(5)
N1 N 0.7825(5) 0.4493(4) 0.6371(3)
N2 N 0.4903(5) 0.6932(5) 0.5766(3)
N3 N 0.8910(5) 0.2733(5) 0.8483(3)
N4 N 1.1281(5) 0.1029(5) 0.8824(3)
N5 N 0.3587(5) 0.8315(5) 0.7059(3)
N6 N 0.1377(5) 1.0101(5) 0.6263(3)
C1 C 0.7225(6) 0.5236(6) 0.5322(4)
C2 C 0.8070(6) 0.4843(6) 0.4509(4)
H1 H 0.9091 0.4084 0.4691
C3 C 0.7421(7) 0.5551(7) 0.3460(4)
H2 H 0.7990 0.5268 0.2932
C4 C 0.5879(7) 0.6721(7) 0.3165(4)
H3 H 0.5430 0.7187 0.2446
C5 C 0.5055(7) 0.7165(7) 0.3921(4)
H4 H 0.4058 0.7955 0.3720
C6 C 0.5713(5) 0.6424(5) 0.5016(4)
C7 C 0.5560(5) 0.6219(5) 0.6759(4)
C8 C 0.7017(5) 0.4944(5) 0.7081(4)
C9 C 0.7614(6) 0.4146(6) 0.8270(4)
H5 H 0.8025 0.4743 0.8498
H6 H 0.6705 0.3995 0.8688
C10 C 1.0497(6) 0.2400(6) 0.8704(4)
H7 H 1.0977 0.3030 0.8764
C11 C 0.8708(7) 0.1502(6) 0.8470(4)
H8 H 0.7719 0.1427 0.8328
C12 C 1.0181(7) 0.0443(6) 0.8695(4)
H9 H 1.0416 -0.0515 0.8754
C13 C 1.3055(7) 0.0261(9) 0.9087(6)
H10 H 1.3595 0.0484 0.8433
H11 H 1.3295 -0.0782 0.9430
H12 H 1.3441 0.0578 0.9572
C14 C 0.4735(6) 0.6817(6) 0.7592(4)
H13 H 0.4155 0.6198 0.8044
H14 H 0.5565 0.6796 0.8057
C15 C 0.1994(6) 0.8703(6) 0.6849(4)
H15 H 0.1405 0.8072 0.7085
C16 C 0.3979(7) 0.9553(7) 0.6552(5)
H16 H 0.5022 0.9605 0.6553
C17 C 0.2617(7) 1.0642(7) 0.6071(5)
H17 H 0.2510 1.1616 0.5666
C18 C -0.0360(6) 1.0975(6) 0.5880(5)
H18 H -0.0991 1.0344 0.6114
H19 H -0.0479 1.1440 0.5101
H20 H -0.0747 1.1716 0.6173
O1 O 0.6982(6) 0.9329(5) 0.8438(4)
H21 H 0.6939 1.0085 0.7869
H22 H 0.7926 0.8626 0.8552
O2 O 0.8964(7) 0.3167(6) 0.0769(4)
H23 H 0.9037 0.3995 0.0376
H24 H 0.8030 0.3147 0.0643
loop_
_geom_bond_atom_site_label_1
_geom_bond_atom_site_label_2
_geom_bond_site_symmetry_1
_geom_bond_site_symmetry_2
N1 C1 1_555 1_555
N2 C6 1_555 1_555
N3 C9 1_555 1_555
N4 C10 1_555 1_555
N5 C14 1_555 1_555
N6 C15 1_555 1_555
C1 C2 1_555 1_555
C2 H1 1_555 1_555
C3 C2 1_555 1_555
H2 C3 1_555 1_555
C4 C3 1_555 1_555
H3 C4 1_555 1_555
C5 C4 1_555 1_555
H4 C5 1_555 1_555
C6 C1 1_555 1_555
C7 N2 1_555 1_555
C8 N1 1_555 1_555
C9 C8 1_555 1_555
H5 C9 1_555 1_555
H6 C9 1_555 1_555
C10 N3 1_555 1_555
H7 C10 1_555 1_555
C11 N3 1_555 1_555
H8 C11 1_555 1_555
C12 N4 1_555 1_555
H9 C12 1_555 1_555
C13 N4 1_555 1_555
H10 C13 1_555 1_555
H11 C13 1_555 1_555
H12 C13 1_555 1_555
C14 C7 1_555 1_555
H13 C14 1_555 1_555
H14 C14 1_555 1_555
C15 N5 1_555 1_555
H15 C15 1_555 1_555
C16 N5 1_555 1_555
H16 C16 1_555 1_555
C17 N6 1_555 1_555
H17 C17 1_555 1_555
C18 N6 1_555 1_555
H18 C18 1_555 1_555
H19 C18 1_555 1_555
H20 C18 1_555 1_555
O1 H21 1_555 1_555
H22 O1 1_555 1_555
O2 H23 1_555 1_555
H24 O2 1_555 1_555
C5 C6 1_555 1_555
C7 C8 1_555 1_555
C11 C12 1_555 1_555
C16 C17 1_555 1_555

#END
