
#######################################################################
#
#                 Cambridge Crystallographic Data Centre
#                                CCDC 
#
#######################################################################
#
# If this CIF has been generated from an entry in the Cambridge 
# Structural Database, then it will include bibliographic, chemical, 
# crystal, experimental, refinement or atomic coordinate data resulting 
# from the CCDC's data processing and validation procedures.
#
#######################################################################

data_IJINOE
_chemical_formula_moiety         'C20 H32 O2'
_chemical_name_systematic        3\b,17\b-Dihydroxy-7\b-methylandrost-5-ene
_symmetry_cell_setting           monoclinic
_symmetry_space_group_name_H-M   'P 21'
_symmetry_Int_Tables_number      4
_space_group_name_Hall           'P 2yb'
loop_
_symmetry_equiv_pos_site_id
_symmetry_equiv_pos_as_xyz
1 x,y,z
2 -x,1/2+y,-z
_cell_length_a                   5.8776(6)
_cell_length_b                   23.747(2)
_cell_length_c                   12.4970(12)
_cell_angle_alpha                90
_cell_angle_beta                 96.546(2)
_cell_angle_gamma                90
_cell_volume                     1732.9
_exptl_crystal_colour            white
_chemical_melting_point          185-187deg.C
_cell_formula_units_Z            4
_exptl_crystal_recrystallization_method 'ethyl acetate'
loop_
_atom_site_label
_atom_site_type_symbol
_atom_site_fract_x
_atom_site_fract_y
_atom_site_fract_z
O1 O 0.2153(6) 0.1629(1) 0.4484(2)
O2 O 0.2537(6) 0.6288(1) 0.5187(2)
C1 C 0.1348(6) 0.3104(1) 0.5483(3)
C2 C 0.1471(7) 0.2470(1) 0.5548(3)
C3 C 0.1926(6) 0.2233(1) 0.4468(3)
C4 C 0.4101(7) 0.2469(2) 0.4145(3)
C5 C 0.4091(5) 0.3102(1) 0.4122(2)
C6 C 0.4559(5) 0.3380(2) 0.3256(3)
C7 C 0.4776(6) 0.3999(1) 0.3129(2)
C8 C 0.4572(5) 0.4320(1) 0.4182(2)
C9 C 0.2864(5) 0.4020(1) 0.4856(2)
C10 C 0.3467(5) 0.3400(1) 0.5124(2)
C11 C 0.2404(6) 0.4360(1) 0.5851(3)
C12 C 0.1637(7) 0.4961(2) 0.5577(3)
C13 C 0.3386(5) 0.5264(1) 0.4983(2)
C14 C 0.3729(5) 0.4923(1) 0.3967(2)
C15 C 0.5023(8) 0.5338(2) 0.3308(3)
C16 C 0.4097(8) 0.5918(2) 0.3561(3)
C17 C 0.2569(6) 0.5824(2) 0.4461(3)
C18 C 0.5601(6) 0.5360(2) 0.5732(3)
C19 C 0.5469(7) 0.3354(2) 0.6031(3)
C20 C 0.7030(8) 0.4111(2) 0.2653(4)
H1 H -0.0010(50) 0.3211(12) 0.4980(20)
H2 H 0.1010(40) 0.3285(10) 0.6170(18)
H3 H 0.2650(50) 0.2345(12) 0.6080(20)
H4 H -0.0110(50) 0.2330(11) 0.5750(20)
H5 H 0.0440(40) 0.2356(10) 0.3920(20)
H6 H 0.4460(40) 0.2344(11) 0.3510(20)
H7 H 0.5320(40) 0.2341(12) 0.4670(20)
H8 H 0.4840(40) 0.3164(10) 0.2643(19)
H9 H 0.3370(40) 0.4143(11) 0.2583(19)
H10 H 0.6130(40) 0.4309(10) 0.4662(18)
H11 H 0.1350(40) 0.4019(12) 0.4360(20)
H12 H 0.1250(40) 0.4182(11) 0.6158(18)
H13 H 0.4060(60) 0.4394(16) 0.6590(30)
H14 H 0.1390(40) 0.5172(11) 0.6250(20)
H15 H 0.0230(50) 0.4931(11) 0.5130(20)
H16 H 0.2110(50) 0.4904(10) 0.3548(19)
H17 H 0.4820(50) 0.5220(13) 0.2570(20)
H18 H 0.6640(50) 0.5302(13) 0.3450(20)
H19 H 0.3230(50) 0.6091(12) 0.2940(30)
H20 H 0.5380(50) 0.6197(13) 0.3760(20)
H21 H 0.0810(50) 0.5736(12) 0.4140(20)
H22 H 0.6800(40) 0.5594(11) 0.5430(20)
H23 H 0.5310(50) 0.5592(13) 0.6450(30)
H24 H 0.6140(50) 0.5024(13) 0.5940(20)
H25 H 0.6910(50) 0.3633(16) 0.5970(20)
H26 H 0.5200(40) 0.3476(12) 0.6680(20)
H27 H 0.5960(40) 0.2966(12) 0.6128(19)
H28 H 0.8340(50) 0.3954(14) 0.3160(20)
H29 H 0.7380(60) 0.4523(15) 0.2500(30)
H30 H 0.6990(50) 0.3942(13) 0.2040(20)
H31 H 0.1010(50) 0.1489(14) 0.4590(30)
H32 H 0.3760(60) 0.6322(18) 0.5440(30)
O3 O 0.3052(5) -0.0864(1) 0.1456(2)
O4 O 0.2370(8) 0.3613(2) -0.1300(3)
C21 C 0.3916(5) 0.0468(1) -0.0123(3)
C22 C 0.3817(7) -0.0163(2) 0.0110(3)
C23 C 0.3253(7) -0.0269(1) 0.1240(3)
C24 C 0.1024(7) -0.0001(2) 0.1387(3)
C25 C 0.0975(5) 0.0625(1) 0.1117(2)
C26 C 0.0399(5) 0.1003(1) 0.1812(3)
C27 C 0.0158(5) 0.1622(1) 0.1657(2)
C28 C 0.0393(5) 0.1803(1) 0.0494(2)
C29 C 0.2155(5) 0.1431(1) -0.0011(2)
C30 C 0.1663(5) 0.0786(1) 0.0028(2)
C31 C 0.2586(7) 0.1639(2) -0.1134(3)
C32 C 0.3323(6) 0.2254(2) -0.1147(3)
C33 C 0.1563(5) 0.2635(1) -0.0689(2)
C34 C 0.1199(5) 0.2419(1) 0.0439(2)
C35 C -0.0094(7) 0.2899(2) 0.0929(3)
C36 C 0.0898(8) 0.3437(2) 0.0449(3)
C37 C 0.2342(6) 0.3234(2) -0.0407(3)
C38 C -0.0669(6) 0.2654(2) -0.1455(3)
C39 C -0.0210(6) 0.0614(2) -0.0878(3)
C40 C -0.2121(7) 0.1801(2) 0.2049(3)
H33 H 0.4400(40) 0.0537(9) -0.0891(19)
H34 H 0.5240(50) 0.0670(12) 0.0390(20)
H35 H 0.2840(40) -0.0343(11) -0.0385(19)
H36 H 0.5240(50) -0.0343(12) -0.0010(20)
H37 H 0.4740(60) -0.0072(13) 0.1840(20)
H38 H 0.0810(50) -0.0057(12) 0.2090(20)
H39 H -0.0180(40) -0.0198(11) 0.0980(20)
H40 H -0.0060(40) 0.0853(12) 0.2480(20)
H41 H 0.1410(40) 0.1796(11) 0.2170(20)
H42 H -0.1140(40) 0.1726(10) 0.0046(19)
H43 H 0.3510(40) 0.1492(9) 0.0450(18)
H44 H 0.3900(50) 0.1414(14) -0.1360(20)
H45 H 0.1180(50) 0.1594(11) -0.1720(20)
H46 H 0.3560(40) 0.2415(11) -0.1960(20)
H47 H 0.4690(40) 0.2279(11) -0.0720(20)
H48 H 0.2730(40) 0.2404(11) 0.0860(20)
H49 H 0.0080(40) 0.2862(13) 0.1760(20)
H50 H -0.1680(40) 0.2833(10) 0.0689(19)
H51 H 0.1550(80) 0.3680(20) 0.1120(40)
H52 H -0.0300(50) 0.3651(14) 0.0110(20)
H53 H 0.3920(50) 0.3222(11) -0.0090(20)
H54 H -0.1290(40) 0.2260(13) -0.1620(20)
H55 H -0.0330(50) 0.2772(13) -0.2130(30)
H56 H -0.1950(40) 0.2881(12) -0.1210(20)
H57 H -0.0810(40) 0.0237(13) -0.0820(20)
H58 H 0.0280(40) 0.0651(10) -0.1660(20)
H59 H -0.1520(40) 0.0840(11) -0.0820(20)
H60 H -0.2210(40) 0.1700(10) 0.2800(20)
H61 H -0.2310(40) 0.2198(12) 0.2040(20)
H62 H -0.3200(50) 0.1624(14) 0.1650(30)
H63 H 0.4350(60) -0.1009(16) 0.1520(30)
H64 H 0.1470(80) 0.3710(20) -0.1460(40)
loop_
_geom_bond_atom_site_label_1
_geom_bond_atom_site_label_2
_geom_bond_site_symmetry_1
_geom_bond_site_symmetry_2
O1 C3 1_555 1_555
O2 C17 1_555 1_555
O3 C23 1_555 1_555
O4 C37 1_555 1_555
C1 C2 1_555 1_555
C2 C3 1_555 1_555
C3 C4 1_555 1_555
C4 C5 1_555 1_555
C5 C6 1_555 1_555
C6 C7 1_555 1_555
C7 C8 1_555 1_555
C8 C9 1_555 1_555
C9 C10 1_555 1_555
C10 C1 1_555 1_555
C11 C9 1_555 1_555
C12 C11 1_555 1_555
C13 C12 1_555 1_555
C14 C8 1_555 1_555
C15 C14 1_555 1_555
C16 C15 1_555 1_555
C17 C13 1_555 1_555
C18 C13 1_555 1_555
C19 C10 1_555 1_555
C20 C7 1_555 1_555
C21 C22 1_555 1_555
C22 C23 1_555 1_555
C23 C24 1_555 1_555
C24 C25 1_555 1_555
C25 C26 1_555 1_555
C26 C27 1_555 1_555
C27 C28 1_555 1_555
C28 C29 1_555 1_555
C29 C30 1_555 1_555
C30 C21 1_555 1_555
C31 C29 1_555 1_555
C32 C31 1_555 1_555
C33 C32 1_555 1_555
C34 C28 1_555 1_555
C35 C34 1_555 1_555
C36 C35 1_555 1_555
C37 C33 1_555 1_555
C38 C33 1_555 1_555
C39 C30 1_555 1_555
C40 C27 1_555 1_555
H1 C1 1_555 1_555
H2 C1 1_555 1_555
H3 C2 1_555 1_555
H4 C2 1_555 1_555
H5 C3 1_555 1_555
H6 C4 1_555 1_555
H7 C4 1_555 1_555
H8 C6 1_555 1_555
H9 C7 1_555 1_555
H10 C8 1_555 1_555
H11 C9 1_555 1_555
H12 C11 1_555 1_555
H13 C11 1_555 1_555
H14 C12 1_555 1_555
H15 C12 1_555 1_555
H16 C14 1_555 1_555
H17 C15 1_555 1_555
H18 C15 1_555 1_555
H19 C16 1_555 1_555
H20 C16 1_555 1_555
H21 C17 1_555 1_555
H22 C18 1_555 1_555
H23 C18 1_555 1_555
H24 C18 1_555 1_555
H25 C19 1_555 1_555
H26 C19 1_555 1_555
H27 C19 1_555 1_555
H28 C20 1_555 1_555
H29 C20 1_555 1_555
H30 C20 1_555 1_555
H31 O1 1_555 1_555
H32 O2 1_555 1_555
H33 C21 1_555 1_555
H34 C21 1_555 1_555
H35 C22 1_555 1_555
H36 C22 1_555 1_555
H37 C23 1_555 1_555
H38 C24 1_555 1_555
H39 C24 1_555 1_555
H40 C26 1_555 1_555
H41 C27 1_555 1_555
H42 C28 1_555 1_555
H43 C29 1_555 1_555
H44 C31 1_555 1_555
H45 C31 1_555 1_555
H46 C32 1_555 1_555
H47 C32 1_555 1_555
H48 C34 1_555 1_555
H49 C35 1_555 1_555
H50 C35 1_555 1_555
H51 C36 1_555 1_555
H52 C36 1_555 1_555
H53 C37 1_555 1_555
H54 C38 1_555 1_555
H55 C38 1_555 1_555
H56 C38 1_555 1_555
H57 C39 1_555 1_555
H58 C39 1_555 1_555
H59 C39 1_555 1_555
H60 C40 1_555 1_555
H61 C40 1_555 1_555
H62 C40 1_555 1_555
H63 O3 1_555 1_555
H64 O4 1_555 1_555
C5 C10 1_555 1_555
C13 C14 1_555 1_555
C16 C17 1_555 1_555
C25 C30 1_555 1_555
C33 C34 1_555 1_555
C36 C37 1_555 1_555

#END
