
#######################################################################
#
#                 Cambridge Crystallographic Data Centre
#                                CCDC 
#
#######################################################################
#
# If this CIF has been generated from an entry in the Cambridge 
# Structural Database, then it will include bibliographic, chemical, 
# crystal, experimental, refinement or atomic coordinate data resulting 
# from the CCDC's data processing and validation procedures.
#
#######################################################################

data_IJINIA
_chemical_formula_moiety         'C22 H30 N2 Si2'
_chemical_name_systematic        
4-(2,5-bis((Trimethylsilyl)ethynyl)-1H-pyrrol-1-yl)-N,N-dimethylaniline
_symmetry_cell_setting           monoclinic
_symmetry_space_group_name_H-M   'P 21/c'
_symmetry_Int_Tables_number      14
_space_group_name_Hall           '-P 2ybc'
loop_
_symmetry_equiv_pos_site_id
_symmetry_equiv_pos_as_xyz
1 x,y,z
2 -x,1/2+y,1/2-z
3 -x,-y,-z
4 x,1/2-y,1/2+z
_cell_length_a                   10.5633(4)
_cell_length_b                   9.3981(4)
_cell_length_c                   23.6512(11)
_cell_angle_alpha                90
_cell_angle_beta                 96.195(4)
_cell_angle_gamma                90
_cell_volume                     2334.26
_exptl_crystal_colour            colorless
_exptl_crystal_description       block
_cell_formula_units_Z            4
loop_
_atom_site_label
_atom_site_type_symbol
_atom_site_fract_x
_atom_site_fract_y
_atom_site_fract_z
C1 C 0.21036(17) 0.18794(19) 0.31620(9)
C2 C 0.11817(18) 0.1917(2) 0.35332(9)
H1 H 0.0307 0.1858 0.3435
C3 C 0.17987(19) 0.2059(2) 0.40832(9)
H2 H 0.1405 0.2119 0.4416
C4 C 0.30931(19) 0.2097(2) 0.40475(9)
C5 C 0.19879(17) 0.18359(19) 0.25587(9)
C6 C 0.18532(17) 0.1836(2) 0.20469(9)
C7 C 0.3275(2) 0.2159(3) 0.10415(11)
H3 H 0.3695 0.2982 0.1214
H4 H 0.3213 0.2250 0.0635
H5 H 0.3756 0.1322 0.1156
C8 C 0.0743(2) 0.3668(3) 0.10983(12)
H6 H -0.0089 0.3575 0.1222
H7 H 0.0665 0.3825 0.0695
H8 H 0.1178 0.4458 0.1289
C9 C 0.0815(14) 0.0430(14) 0.0963(7)
H9 H 0.1351 -0.0391 0.1027
H10 H 0.0603 0.0566 0.0561
H11 H 0.0049 0.0293 0.1141
C10 C 0.4156(2) 0.2182(2) 0.44655(9)
C11 C 0.5099(2) 0.2243(2) 0.48002(9)
C12 C 0.7113(3) 0.4260(3) 0.52481(13)
H12 H 0.7123 0.4624 0.4869
H13 H 0.7945 0.4357 0.5452
H14 H 0.6508 0.4787 0.5440
C13 C 0.7737(2) 0.1283(4) 0.48225(11)
H15 H 0.7501 0.0299 0.4840
H16 H 0.8598 0.1402 0.4992
H17 H 0.7670 0.1586 0.4433
C14 C 0.6592(2) 0.1660(3) 0.59413(10)
H18 H 0.6186 0.2343 0.6164
H19 H 0.7441 0.1482 0.6115
H20 H 0.6115 0.0789 0.5921
C15 C 0.44957(17) 0.19567(19) 0.32562(8)
C16 C 0.52312(18) 0.31682(19) 0.32656(9)
H21 H 0.4945 0.4006 0.3418
C17 C 0.63964(18) 0.31407(19) 0.30485(9)
H22 H 0.6877 0.3970 0.3051
C18 C 0.68683(17) 0.18932(19) 0.28253(9)
C19 C 0.60938(17) 0.06763(19) 0.28173(9)
H23 H 0.6369 -0.0168 0.2666
C20 C 0.49245(17) 0.0720(2) 0.30327(8)
H24 H 0.4425 -0.0096 0.3026
C21 C 0.86308(18) 0.3195(2) 0.24898(9)
H25 H 0.8077 0.3690 0.2207
H26 H 0.9432 0.3017 0.2347
H27 H 0.8766 0.3766 0.2827
C22 C 0.83564(18) 0.0651(2) 0.22794(10)
H28 H 0.8323 -0.0209 0.2497
H29 H 0.9197 0.0768 0.2167
H30 H 0.7751 0.0596 0.1947
N1 N 0.32779(14) 0.19910(16) 0.34786(7)
N2 N 0.80526(14) 0.18541(15) 0.26229(8)
Si1 Si 0.16640(5) 0.20134(7) 0.12697(3)
Si2 Si 0.66579(5) 0.23689(7) 0.52151(3)
C23? C 0.0805(11) 0.0415(10) 0.0963(4)
H31? H -0.0002 0.0336 0.1113
H32? H 0.1303 -0.0420 0.1062
H33? H 0.0669 0.0504 0.0557
loop_
_geom_bond_atom_site_label_1
_geom_bond_atom_site_label_2
_geom_bond_site_symmetry_1
_geom_bond_site_symmetry_2
C1 C2 1_555 1_555
C2 H1 1_555 1_555
C3 C2 1_555 1_555
H2 C3 1_555 1_555
C4 C3 1_555 1_555
C5 C1 1_555 1_555
C6 C5 1_555 1_555
C7 H3 1_555 1_555
H4 C7 1_555 1_555
H5 C7 1_555 1_555
C8 H6 1_555 1_555
H7 C8 1_555 1_555
H8 C8 1_555 1_555
C9 H9 1_555 1_555
H10 C9 1_555 1_555
H11 C9 1_555 1_555
C10 C4 1_555 1_555
C11 C10 1_555 1_555
C12 H12 1_555 1_555
H13 C12 1_555 1_555
H14 C12 1_555 1_555
C13 H15 1_555 1_555
H16 C13 1_555 1_555
H17 C13 1_555 1_555
C14 H18 1_555 1_555
H19 C14 1_555 1_555
H20 C14 1_555 1_555
C15 C16 1_555 1_555
C16 H21 1_555 1_555
C17 C16 1_555 1_555
H22 C17 1_555 1_555
C18 C17 1_555 1_555
C19 C18 1_555 1_555
H23 C19 1_555 1_555
C20 C15 1_555 1_555
H24 C20 1_555 1_555
C21 H25 1_555 1_555
H26 C21 1_555 1_555
H27 C21 1_555 1_555
C22 H28 1_555 1_555
H29 C22 1_555 1_555
H30 C22 1_555 1_555
N1 C1 1_555 1_555
N2 C18 1_555 1_555
Si1 C6 1_555 1_555
Si2 C11 1_555 1_555
C4 N1 1_555 1_555
C7 Si1 1_555 1_555
C8 Si1 1_555 1_555
C9 Si1 1_555 1_555
C12 Si2 1_555 1_555
C13 Si2 1_555 1_555
C14 Si2 1_555 1_555
C15 N1 1_555 1_555
C19 C20 1_555 1_555
C21 N2 1_555 1_555
C22 N2 1_555 1_555

#END
