
#######################################################################
#
#                 Cambridge Crystallographic Data Centre
#                                CCDC 
#
#######################################################################
#
# If this CIF has been generated from an entry in the Cambridge 
# Structural Database, then it will include bibliographic, chemical, 
# crystal, experimental, refinement or atomic coordinate data resulting 
# from the CCDC's data processing and validation procedures.
#
#######################################################################

data_IJITEA
_chemical_formula_moiety         'C19 H21 N1 O2 Se1'
_chemical_name_systematic        
N-(5-Phenylselenopentyl)-3-hydroxyphthalimidine
_symmetry_cell_setting           monoclinic
_symmetry_space_group_name_H-M   'P 21/c'
_symmetry_Int_Tables_number      14
_space_group_name_Hall           '-P 2ybc'
loop_
_symmetry_equiv_pos_site_id
_symmetry_equiv_pos_as_xyz
1 x,y,z
2 -x,1/2+y,1/2-z
3 -x,-y,-z
4 x,1/2-y,1/2+z
_cell_length_a                   18.379(5)
_cell_length_b                   8.653(2)
_cell_length_c                   11.047(3)
_cell_angle_alpha                90
_cell_angle_beta                 100.381(4)
_cell_angle_gamma                90
_cell_volume                     1728.09
_chemical_melting_point          '98-99 deg.C'
_cell_formula_units_Z            4
_exptl_crystal_recrystallization_method acetone
loop_
_atom_site_label
_atom_site_type_symbol
_atom_site_fract_x
_atom_site_fract_y
_atom_site_fract_z
Se1 Se 0.4828(1) 0.2538(1) 0.9118(1)
N1 N 0.1548(2) 0.1842(5) 0.4543(3)
O1 O 0.1042(2) 0.4080(4) 0.5292(3)
O2 O 0.1626(2) 0.0576(4) 0.2735(3)
C1 C 0.0990(3) 0.2467(5) 0.5179(4)
C2 C 0.0288(3) 0.1952(5) 0.4369(4)
C3 C -0.0443(3) 0.2192(5) 0.4492(5)
C4 C -0.0992(3) 0.1576(6) 0.3588(4)
C5 C -0.0824(3) 0.0762(5) 0.2624(4)
C6 C -0.0096(3) 0.0541(5) 0.2485(4)
C7 C 0.0453(2) 0.1150(5) 0.3391(4)
C8 C 0.1263(3) 0.1132(5) 0.3485(4)
C9 C 0.2326(3) 0.2086(6) 0.4986(5)
C10 C 0.2613(3) 0.1312(6) 0.6207(4)
C11 C 0.3430(3) 0.1565(7) 0.6653(5)
C12 C 0.3757(3) 0.0533(8) 0.7696(6)
C13 C 0.4593(3) 0.0738(7) 0.8123(5)
C14 C 0.5879(3) 0.2341(6) 0.9612(6)
C15 C 0.6213(4) 0.3251(9) 1.0574(6)
C16 C 0.6981(6) 0.3168(13) 1.0909(7)
C17 C 0.7401(5) 0.2209(13) 1.0336(10)
C18 C 0.7055(4) 0.1320(9) 0.9365(8)
C19 C 0.6298(3) 0.1366(7) 0.9021(5)
loop_
_geom_bond_atom_site_label_1
_geom_bond_atom_site_label_2
_geom_bond_site_symmetry_1
_geom_bond_site_symmetry_2
Se1 C13 1_555 1_555
N1 C1 1_555 1_555
O1 C1 1_555 1_555
O2 C8 1_555 1_555
C1 C2 1_555 1_555
C2 C3 1_555 1_555
C3 C4 1_555 1_555
C4 C5 1_555 1_555
C5 C6 1_555 1_555
C6 C7 1_555 1_555
C7 C2 1_555 1_555
C8 N1 1_555 1_555
C9 N1 1_555 1_555
C10 C9 1_555 1_555
C11 C10 1_555 1_555
C12 C11 1_555 1_555
C13 C12 1_555 1_555
C14 Se1 1_555 1_555
C15 C14 1_555 1_555
C16 C15 1_555 1_555
C17 C16 1_555 1_555
C18 C17 1_555 1_555
C19 C14 1_555 1_555
C7 C8 1_555 1_555
C18 C19 1_555 1_555

#END
