
#######################################################################
#
#                 Cambridge Crystallographic Data Centre
#                                CCDC 
#
#######################################################################
#
# If this CIF has been generated from an entry in the Cambridge 
# Structural Database, then it will include bibliographic, chemical, 
# crystal, experimental, refinement or atomic coordinate data resulting 
# from the CCDC's data processing and validation procedures.
#
#######################################################################

data_IJOLAU
_chemical_formula_moiety         'C42 H36 N6 O8'
_chemical_name_systematic        
N,N,N',N'-tetrakis(2-(1,2-dioxo-1,3-dihydroisoindol-2-yl)ethyl)-1,2-ethylenediamine
_symmetry_cell_setting           triclinic
_symmetry_space_group_name_H-M   'P -1'
_symmetry_Int_Tables_number      2
_space_group_name_Hall           '-P 1'
loop_
_symmetry_equiv_pos_site_id
_symmetry_equiv_pos_as_xyz
1 x,y,z
2 -x,-y,-z
_cell_length_a                   9.7730(14)
_cell_length_b                   11.7552(13)
_cell_length_c                   9.0341(8)
_cell_angle_alpha                111.740(9)
_cell_angle_beta                 94.236(9)
_cell_angle_gamma                81.307(11)
_cell_volume                     952.795
_exptl_crystal_colour            colorless
_exptl_crystal_description       plate
_cell_formula_units_Z            1
_exptl_crystal_recrystallization_method dichloromethane/ethanol
loop_
_atom_site_label
_atom_site_type_symbol
_atom_site_fract_x
_atom_site_fract_y
_atom_site_fract_z
O1 O 0.01924(19) 0.80645(14) 0.4237(2)
O2 O 0.09343(16) 0.40515(14) 0.08954(17)
O3 O 0.48182(19) 0.72840(14) -0.1725(2)
O4 O 0.3785(2) 1.04717(15) 0.2949(2)
N1 N 0.08393(16) 0.61204(14) 0.24140(18)
N2 N 0.43700(15) 0.65356(14) 0.15610(19)
N3 N 0.45634(17) 0.87546(14) 0.0808(2)
C1 C 0.0039(2) 0.69876(18) 0.3642(2)
C2 C -0.09653(18) 0.63131(17) 0.4009(2)
C3 C -0.2009(2) 0.6720(2) 0.5114(2)
H1 H -0.2178 0.7542 0.5790
C4 C -0.2800(2) 0.5838(3) 0.5168(3)
H2 H -0.3502 0.6077 0.5906
C5 C -0.2560(2) 0.4633(3) 0.4157(3)
H3 H -0.3108 0.4070 0.4215
C6 C -0.1528(2) 0.4236(2) 0.3058(2)
H4 H -0.1371 0.3416 0.2372
C7 C -0.07347(18) 0.50914(17) 0.3004(2)
C8 C 0.04256(19) 0.49569(17) 0.1956(2)
C9 C 0.19218(19) 0.6415(2) 0.1653(3)
H5 H 0.1708 0.7268 0.1728
H6 H 0.1939 0.5895 0.0532
C10 C 0.3331(2) 0.6237(2) 0.2391(2)
H7 H 0.3330 0.6767 0.3508
H8 H 0.3555 0.5386 0.2322
C11 C 0.5068(2) 0.75760(18) 0.2577(3)
H9 H 0.5819 0.7280 0.3161
H10 H 0.4419 0.8164 0.3346
C12 C 0.5643(2) 0.82262(19) 0.1647(3)
H11 H 0.6135 0.8878 0.2372
H12 H 0.6300 0.7642 0.0883
C13 C 0.4226(2) 0.82287(18) -0.0800(3)
C14 C 0.3036(2) 0.90670(17) -0.1096(3)
C15 C 0.2293(3) 0.9017(2) -0.2471(3)
H13 H 0.2498 0.8366 -0.3431
C16 C 0.1232(3) 0.9965(2) -0.2381(3)
H14 H 0.0705 0.9943 -0.3289
C17 C 0.0953(3) 1.0921(2) -0.0991(4)
H15 H 0.0248 1.1554 -0.0967
C18 C 0.1687(3) 1.0980(2) 0.0388(3)
H16 H 0.1488 1.1640 0.1341
C19 C 0.2727(2) 1.00293(17) 0.0309(3)
C20 C 0.3696(2) 0.98383(18) 0.1558(3)
C21 C 0.53459(18) 0.54504(16) 0.0701(2)
H17 H 0.5784 0.5003 0.1442
H18 H 0.6175 0.5800 0.0366
C21A C 0.46541(18) 0.45496(16) -0.0701(2)
N2A N 0.56300(15) 0.34644(14) -0.15610(19)
C10A C 0.6669(2) 0.3763(2) -0.2391(2)
C9A C 0.80782(19) 0.3585(2) -0.1653(3)
N1A N 0.91607(16) 0.38796(14) -0.24140(18)
C1A C 0.9961(2) 0.30124(18) -0.3642(2)
O1A O 0.98076(19) 0.19355(14) -0.4237(2)
C2A C 1.09653(18) 0.36869(17) -0.4009(2)
C3A C 1.2009(2) 0.3280(2) -0.5114(2)
H1A H 1.2178 0.2458 -0.5790
C4A C 1.2800(2) 0.4162(3) -0.5168(3)
H2A H 1.3502 0.3923 -0.5906
C5A C 1.2560(2) 0.5367(3) -0.4157(3)
H3A H 1.3108 0.5930 -0.4215
C6A C 1.1528(2) 0.5764(2) -0.3058(2)
H4A H 1.1371 0.6584 -0.2372
C7A C 1.07347(18) 0.49086(17) -0.3004(2)
C8A C 0.95744(19) 0.50431(17) -0.1956(2)
O2A O 0.90657(16) 0.59485(14) -0.08954(17)
H5A H 0.8292 0.2732 -0.1728
H6A H 0.8061 0.4105 -0.0532
H7A H 0.6670 0.3233 -0.3508
H8A H 0.6445 0.4614 -0.2322
C11A C 0.4932(2) 0.24240(18) -0.2577(3)
H9A H 0.4181 0.2720 -0.3161
H10A H 0.5581 0.1836 -0.3346
C12A C 0.4357(2) 0.17738(19) -0.1647(3)
N3A N 0.54366(17) 0.12454(14) -0.0808(2)
C13A C 0.5774(2) 0.17713(18) 0.0800(3)
O3A O 0.51818(19) 0.27160(14) 0.1725(2)
C14A C 0.6964(2) 0.09330(17) 0.1096(3)
C15A C 0.7707(3) 0.0983(2) 0.2471(3)
H13A H 0.7502 0.1634 0.3431
C16A C 0.8768(3) 0.0035(2) 0.2381(3)
H14A H 0.9295 0.0057 0.3289
C17A C 0.9047(3) -0.0921(2) 0.0991(4)
H15A H 0.9752 -0.1554 0.0967
C18A C 0.8313(3) -0.0980(2) -0.0388(3)
H16A H 0.8512 -0.1640 -0.1341
C19A C 0.7273(2) -0.00293(17) -0.0309(3)
C20A C 0.6304(2) 0.01617(18) -0.1558(3)
O4A O 0.6215(2) -0.04717(15) -0.2949(2)
H11A H 0.3865 0.1122 -0.2372
H12A H 0.3700 0.2358 -0.0883
H17A H 0.4216 0.4997 -0.1442
H18A H 0.3825 0.4200 -0.0366
loop_
_geom_bond_atom_site_label_1
_geom_bond_atom_site_label_2
_geom_bond_site_symmetry_1
_geom_bond_site_symmetry_2
O1 C1 1_555 1_555
O2 C8 1_555 1_555
O3 C13 1_555 1_555
O4 C20 1_555 1_555
N1 C1 1_555 1_555
N2 C10 1_555 1_555
N3 C12 1_555 1_555
C1 C2 1_555 1_555
C2 C3 1_555 1_555
C3 H1 1_555 1_555
C4 C3 1_555 1_555
H2 C4 1_555 1_555
C5 C4 1_555 1_555
H3 C5 1_555 1_555
C6 C5 1_555 1_555
H4 C6 1_555 1_555
C7 C2 1_555 1_555
C8 N1 1_555 1_555
C9 N1 1_555 1_555
H5 C9 1_555 1_555
H6 C9 1_555 1_555
C10 C9 1_555 1_555
H7 C10 1_555 1_555
H8 C10 1_555 1_555
C11 N2 1_555 1_555
H9 C11 1_555 1_555
H10 C11 1_555 1_555
C12 C11 1_555 1_555
H11 C12 1_555 1_555
H12 C12 1_555 1_555
C13 N3 1_555 1_555
C14 C13 1_555 1_555
C15 C14 1_555 1_555
H13 C15 1_555 1_555
C16 C15 1_555 1_555
H14 C16 1_555 1_555
C17 C16 1_555 1_555
H15 C17 1_555 1_555
C18 C17 1_555 1_555
H16 C18 1_555 1_555
C19 C14 1_555 1_555
C20 N3 1_555 1_555
C21 N2 1_555 1_555
H17 C21 1_555 1_555
H18 C21 1_555 1_555
C21A C21 1_555 1_555
N2A C21A 1_555 1_555
C10A N2A 1_555 1_555
C9A C10A 1_555 1_555
N1A C9A 1_555 1_555
C1A N1A 1_555 1_555
O1A C1A 1_555 1_555
C2A C1A 1_555 1_555
C3A C2A 1_555 1_555
H1A C3A 1_555 1_555
C4A C3A 1_555 1_555
H2A C4A 1_555 1_555
C5A C4A 1_555 1_555
H3A C5A 1_555 1_555
C6A C5A 1_555 1_555
H4A C6A 1_555 1_555
C7A C2A 1_555 1_555
C8A N1A 1_555 1_555
O2A C8A 1_555 1_555
H5A C9A 1_555 1_555
H6A C9A 1_555 1_555
H7A C10A 1_555 1_555
H8A C10A 1_555 1_555
C11A N2A 1_555 1_555
H9A C11A 1_555 1_555
H10A C11A 1_555 1_555
C12A C11A 1_555 1_555
N3A C12A 1_555 1_555
C13A N3A 1_555 1_555
O3A C13A 1_555 1_555
C14A C13A 1_555 1_555
C15A C14A 1_555 1_555
H13A C15A 1_555 1_555
C16A C15A 1_555 1_555
H14A C16A 1_555 1_555
C17A C16A 1_555 1_555
H15A C17A 1_555 1_555
C18A C17A 1_555 1_555
H16A C18A 1_555 1_555
C19A C14A 1_555 1_555
C20A N3A 1_555 1_555
O4A C20A 1_555 1_555
H11A C12A 1_555 1_555
H12A C12A 1_555 1_555
H17A C21A 1_555 1_555
H18A C21A 1_555 1_555
C6 C7 1_555 1_555
C7 C8 1_555 1_555
C18 C19 1_555 1_555
C19 C20 1_555 1_555
C6A C7A 1_555 1_555
C7A C8A 1_555 1_555
C18A C19A 1_555 1_555
C19A C20A 1_555 1_555

#END
