
#######################################################################
#
#                 Cambridge Crystallographic Data Centre
#                                CCDC 
#
#######################################################################
#
# If this CIF has been generated from an entry in the Cambridge 
# Structural Database, then it will include bibliographic, chemical, 
# crystal, experimental, refinement or atomic coordinate data resulting 
# from the CCDC's data processing and validation procedures.
#
#######################################################################

data_IJUCIA
_chemical_formula_moiety         'C32 H25 N1 O2 S2'
_chemical_name_systematic        
4'-(2,2'-Bithiophen-5-yl)-1'-methyl-3'-(4-methylbenzoyl)-2H-spiro[acenaphthylene-1,2'-pyrrolidin]-2-one
_symmetry_cell_setting           monoclinic
_symmetry_space_group_name_H-M   'P 21/n'
_symmetry_Int_Tables_number      14
_space_group_name_Hall           '-P 2yn'
loop_
_symmetry_equiv_pos_site_id
_symmetry_equiv_pos_as_xyz
1 x,y,z
2 1/2-x,1/2+y,1/2-z
3 -x,-y,-z
4 1/2+x,1/2-y,1/2+z
_cell_length_a                   10.2188(5)
_cell_length_b                   10.0191(5)
_cell_length_c                   24.8192(11)
_cell_angle_alpha                90
_cell_angle_beta                 96.115(2)
_cell_angle_gamma                90
_cell_volume                     2526.61
_exptl_crystal_colour            colorless
_exptl_crystal_description       block
_cell_formula_units_Z            4
loop_
_atom_site_label
_atom_site_type_symbol
_atom_site_fract_x
_atom_site_fract_y
_atom_site_fract_z
C1 C 0.3304(2) 0.1779(2) 0.70015(8)
C2 C 0.4379(2) 0.1287(2) 0.67042(8)
C3 C 0.5595(2) 0.0752(2) 0.68669(11)
H1 H 0.5867 0.0600 0.7231
C4 C 0.6408(2) 0.0445(3) 0.64671(13)
H2 H 0.7224 0.0061 0.6572
C5 C 0.6064(2) 0.0679(3) 0.59330(12)
H3 H 0.6654 0.0484 0.5684
C6 C 0.4809(2) 0.1221(2) 0.57501(9)
C7 C 0.4291(3) 0.1523(3) 0.52189(10)
H4 H 0.4794 0.1372 0.4934
C8 C 0.3062(3) 0.2032(2) 0.51176(9)
H5 H 0.2749 0.2240 0.4762
C9 C 0.2238(2) 0.2262(2) 0.55289(8)
H6 H 0.1395 0.2606 0.5446
C10 C 0.2702(2) 0.1968(2) 0.60496(8)
C11 C 0.3991(2) 0.1476(2) 0.61535(8)
C12 C 0.2087(2) 0.2050(2) 0.65756(7)
C13 C 0.10321(19) 0.0952(2) 0.66736(7)
H7 H 0.1418 0.0338 0.6954
C14 C -0.0093(2) 0.1721(2) 0.68969(8)
H8 H -0.0801 0.1834 0.6602
C15 C 0.0487(2) 0.3089(2) 0.70413(9)
H9 H -0.0190 0.3771 0.7016
H10 H 0.0948 0.3094 0.7404
C16 C 0.2182(3) 0.4476(2) 0.66936(11)
H11 H 0.2715 0.4458 0.7036
H12 H 0.1621 0.5246 0.6677
H13 H 0.2740 0.4516 0.6406
C17 C 0.0632(2) 0.0156(2) 0.61614(8)
C18 C 0.1546(2) -0.0889(2) 0.60031(8)
C19 C 0.2411(2) -0.1560(2) 0.63759(9)
H14 H 0.2444 -0.1342 0.6741
C20 C 0.3225(2) -0.2549(2) 0.62147(10)
H15 H 0.3790 -0.2991 0.6474
C21 C 0.3219(2) -0.2891(2) 0.56801(10)
C22 C 0.2383(2) -0.2199(2) 0.53054(9)
H16 H 0.2383 -0.2397 0.4939
C23 C 0.1546(2) -0.1218(2) 0.54609(8)
H17 H 0.0982 -0.0779 0.5201
C24 C 0.4083(3) -0.3996(3) 0.55094(13)
H18 H 0.4895 -0.4007 0.5743
H19 H 0.4264 -0.3850 0.5142
H20 H 0.3642 -0.4836 0.5534
C25 C -0.06508(19) 0.1024(2) 0.73551(8)
C26 C -0.0606(2) -0.0272(2) 0.75010(9)
H21 H -0.0153 -0.0915 0.7324
C27 C -0.1308(2) -0.0565(2) 0.79456(9)
H22 H -0.1363 -0.1417 0.8089
C28 C -0.1894(2) 0.0515(2) 0.81428(8)
C29 C -0.2731(2) 0.0571(2) 0.85757(9)
C30 C -0.3873(3) 0.0005(3) 0.93282(12)
H23 H -0.4091 -0.0482 0.9625
C31 C -0.4376(3) 0.1141(3) 0.91528(12)
H24 H -0.5047 0.1544 0.9320
N1 N 0.13862(18) 0.32821(16) 0.66354(7)
O1 O 0.33278(17) 0.19761(17) 0.74813(6)
O2 O -0.03837(15) 0.04042(19) 0.58800(6)
S1 S -0.15669(5) 0.19129(5) 0.77771(2)
S2 S -0.3801(3) 0.1833(4) 0.86351(12)
C32 C -0.2931(13) -0.0330(12) 0.8975(5)
H25 H -0.2465 -0.1129 0.9011
C33? C -0.3667(15) 0.1454(14) 0.8715(6)
H26? H -0.3827 0.2245 0.8523
S3? S -0.2696(4) -0.0663(5) 0.90273(15)
loop_
_geom_bond_atom_site_label_1
_geom_bond_atom_site_label_2
_geom_bond_site_symmetry_1
_geom_bond_site_symmetry_2
C1 C2 1_555 1_555
C2 C3 1_555 1_555
C3 H1 1_555 1_555
C4 C3 1_555 1_555
H2 C4 1_555 1_555
C5 C4 1_555 1_555
H3 C5 1_555 1_555
C6 C5 1_555 1_555
C7 C6 1_555 1_555
H4 C7 1_555 1_555
C8 C7 1_555 1_555
H5 C8 1_555 1_555
C9 C8 1_555 1_555
H6 C9 1_555 1_555
C10 C9 1_555 1_555
C11 C2 1_555 1_555
C12 C1 1_555 1_555
C13 C12 1_555 1_555
H7 C13 1_555 1_555
C14 C13 1_555 1_555
H8 C14 1_555 1_555
C15 C14 1_555 1_555
H9 C15 1_555 1_555
H10 C15 1_555 1_555
C16 H11 1_555 1_555
H12 C16 1_555 1_555
H13 C16 1_555 1_555
C17 C13 1_555 1_555
C18 C17 1_555 1_555
C19 C18 1_555 1_555
H14 C19 1_555 1_555
C20 C19 1_555 1_555
H15 C20 1_555 1_555
C21 C20 1_555 1_555
C22 C21 1_555 1_555
H16 C22 1_555 1_555
C23 C18 1_555 1_555
H17 C23 1_555 1_555
C24 C21 1_555 1_555
H18 C24 1_555 1_555
H19 C24 1_555 1_555
H20 C24 1_555 1_555
C25 C14 1_555 1_555
C26 C25 1_555 1_555
H21 C26 1_555 1_555
C27 C26 1_555 1_555
H22 C27 1_555 1_555
C28 C27 1_555 1_555
C29 C28 1_555 1_555
C30 H23 1_555 1_555
C31 C30 1_555 1_555
H24 C31 1_555 1_555
N1 C12 1_555 1_555
O1 C1 1_555 1_555
O2 C17 1_555 1_555
S1 C25 1_555 1_555
S2 C29 1_555 1_555
C32 C29 1_555 1_555
H25 C32 1_555 1_555
C6 C11 1_555 1_555
C10 C11 1_555 1_555
C10 C12 1_555 1_555
C15 N1 1_555 1_555
C16 N1 1_555 1_555
C22 C23 1_555 1_555
C28 S1 1_555 1_555
C30 C32 1_555 1_555
C31 S2 1_555 1_555

#END
