
#######################################################################
#
#                 Cambridge Crystallographic Data Centre
#                                CCDC 
#
#######################################################################
#
# If this CIF has been generated from an entry in the Cambridge 
# Structural Database, then it will include bibliographic, chemical, 
# crystal, experimental, refinement or atomic coordinate data resulting 
# from the CCDC's data processing and validation procedures.
#
#######################################################################

data_IJUCOG
_chemical_formula_moiety         'C31 H22 Cl1 N1 O2 S2'
_chemical_name_systematic        
4'-(2,2'-Bithiophen-5-yl)-3'-(4-chlorobenzoyl)-1'-methyl-2H-spiro[acenaphthylene-1,2'-pyrrolidin]-2-one
_symmetry_cell_setting           orthorhombic
_symmetry_space_group_name_H-M   'P 21 21 21'
_symmetry_Int_Tables_number      19
_space_group_name_Hall           'P 2ac 2ab'
loop_
_symmetry_equiv_pos_site_id
_symmetry_equiv_pos_as_xyz
1 x,y,z
2 1/2-x,-y,1/2+z
3 1/2+x,1/2-y,-z
4 -x,1/2+y,1/2-z
_cell_length_a                   12.6858(13)
_cell_length_b                   13.6733(13)
_cell_length_c                   15.2782(17)
_cell_angle_alpha                90
_cell_angle_beta                 90
_cell_angle_gamma                90
_cell_volume                     2650.11
_exptl_crystal_colour            colorless
_exptl_crystal_description       block
_cell_formula_units_Z            4
loop_
_atom_site_label
_atom_site_type_symbol
_atom_site_fract_x
_atom_site_fract_y
_atom_site_fract_z
C1 C 1.3937(4) -0.2222(3) 0.0631(3)
C2 C 1.3483(5) -0.2581(3) 0.1358(4)
H1 H 1.3714 -0.3174 0.1586
C3 C 1.2680(4) -0.2083(3) 0.1769(3)
H2 H 1.2359 -0.2350 0.2261
C4 C 1.2353(3) -0.1191(3) 0.1455(2)
C5 C 1.2854(4) -0.0835(3) 0.0728(3)
H3 H 1.2662 -0.0223 0.0514
C6 C 1.3632(4) -0.1351(3) 0.0302(3)
H4 H 1.3942 -0.1104 -0.0204
C7 C 1.1509(3) -0.0646(2) 0.1911(2)
C8 C 1.1575(3) 0.0467(2) 0.1911(2)
H5 H 1.1689 0.0684 0.1307
C9 C 1.2525(3) 0.0844(2) 0.2484(2)
C10 C 1.3424(3) 0.1227(3) 0.1863(2)
C11 C 1.4414(3) 0.0747(3) 0.2121(2)
C12 C 1.5430(4) 0.0814(4) 0.1802(3)
H6 H 1.5600 0.1236 0.1346
C13 C 1.6186(4) 0.0224(5) 0.2192(4)
H7 H 1.6874 0.0257 0.1985
C14 C 1.5970(4) -0.0401(4) 0.2861(4)
H8 H 1.6512 -0.0773 0.3101
C15 C 1.4942(4) -0.0495(3) 0.3196(3)
C16 C 1.4591(5) -0.1096(3) 0.3881(3)
H9 H 1.5067 -0.1504 0.4166
C17 C 1.3559(5) -0.1086(3) 0.4134(3)
H10 H 1.3347 -0.1489 0.4592
C18 C 1.2801(3) -0.0481(3) 0.3719(2)
H11 H 1.2103 -0.0486 0.3905
C19 C 1.3106(3) 0.0107(2) 0.3048(2)
C20 C 1.4180(3) 0.0097(3) 0.2798(2)
C21 C 1.2724(4) 0.2350(3) 0.3369(3)
H12 H 1.2967 0.2752 0.2895
H13 H 1.3318 0.2051 0.3653
H14 H 1.2348 0.2746 0.3783
C22 C 1.1089(3) 0.1941(2) 0.2613(2)
H15 H 1.1251 0.2389 0.2139
H16 H 1.0624 0.2262 0.3027
C23 C 1.0607(3) 0.1006(2) 0.2272(2)
H17 H 1.0329 0.0634 0.2769
C24 C 0.9739(3) 0.1152(2) 0.1621(2)
C25 C 0.9350(3) 0.1998(3) 0.1294(2)
H18 H 0.9606 0.2610 0.1453
C26 C 0.8532(3) 0.1871(3) 0.0695(3)
H19 H 0.8194 0.2393 0.0423
C27 C 0.8272(3) 0.0943(3) 0.0545(2)
C28 C 0.7479(3) 0.0563(3) -0.0029(2)
C29 C 0.6091(4) 0.0442(3) -0.1079(3)
H20 H 0.5593 0.0565 -0.1511
C30 C 0.6363(4) -0.0460(4) -0.0872(4)
H21 H 0.6068 -0.1032 -0.1091
N1 N 1.2030(2) 0.1596(2) 0.30319(19)
O1 O 1.3271(2) 0.1816(2) 0.1289(2)
O2 O 1.0810(2) -0.10617(19) 0.23110(18)
S1 S 0.90714(8) 0.01840(7) 0.11587(6)
S2 S 0.6657(4) 0.1332(3) -0.0552(3)
C31 C 0.7190(17) -0.0390(8) -0.0252(15)
H22 H 0.7515 -0.0937 -0.0011
Cl1 Cl 1.49143(12) -0.28892(10) 0.00879(10)
C32? C 0.686(2) 0.1034(13) -0.0665(19)
H23? H 0.6957 0.1690 -0.0806
S3? S 0.7253(10) -0.0658(7) -0.0140(8)
loop_
_geom_bond_atom_site_label_1
_geom_bond_atom_site_label_2
_geom_bond_site_symmetry_1
_geom_bond_site_symmetry_2
C1 C2 1_555 1_555
C2 H1 1_555 1_555
C3 C2 1_555 1_555
H2 C3 1_555 1_555
C4 C3 1_555 1_555
C5 C4 1_555 1_555
H3 C5 1_555 1_555
C6 C1 1_555 1_555
H4 C6 1_555 1_555
C7 C4 1_555 1_555
C8 C7 1_555 1_555
H5 C8 1_555 1_555
C9 C8 1_555 1_555
C10 C9 1_555 1_555
C11 C10 1_555 1_555
C12 C11 1_555 1_555
H6 C12 1_555 1_555
C13 C12 1_555 1_555
H7 C13 1_555 1_555
C14 C13 1_555 1_555
H8 C14 1_555 1_555
C15 C14 1_555 1_555
C16 C15 1_555 1_555
H9 C16 1_555 1_555
C17 C16 1_555 1_555
H10 C17 1_555 1_555
C18 C17 1_555 1_555
H11 C18 1_555 1_555
C19 C9 1_555 1_555
C20 C11 1_555 1_555
C21 H12 1_555 1_555
H13 C21 1_555 1_555
H14 C21 1_555 1_555
C22 H15 1_555 1_555
H16 C22 1_555 1_555
C23 C8 1_555 1_555
H17 C23 1_555 1_555
C24 C23 1_555 1_555
C25 C24 1_555 1_555
H18 C25 1_555 1_555
C26 C25 1_555 1_555
H19 C26 1_555 1_555
C27 C26 1_555 1_555
C28 C27 1_555 1_555
C29 H20 1_555 1_555
C30 C29 1_555 1_555
H21 C30 1_555 1_555
N1 C9 1_555 1_555
O1 C10 1_555 1_555
O2 C7 1_555 1_555
S1 C24 1_555 1_555
S2 C28 1_555 1_555
C31 C28 1_555 1_555
H22 C31 1_555 1_555
Cl1 C1 1_555 1_555
C5 C6 1_555 1_555
C15 C20 1_555 1_555
C18 C19 1_555 1_555
C19 C20 1_555 1_555
C21 N1 1_555 1_555
C22 C23 1_555 1_555
C22 N1 1_555 1_555
C27 S1 1_555 1_555
C29 S2 1_555 1_555
C30 C31 1_555 1_555

#END
