
#######################################################################
#
#                 Cambridge Crystallographic Data Centre
#                                CCDC 
#
#######################################################################
#
# If this CIF has been generated from an entry in the Cambridge 
# Structural Database, then it will include bibliographic, chemical, 
# crystal, experimental, refinement or atomic coordinate data resulting 
# from the CCDC's data processing and validation procedures.
#
#######################################################################

data_IJUHAX
_chemical_formula_moiety         'C10 H12 Br4'
_chemical_name_systematic        1,3,5,7-Tetrabromoadamantane
_symmetry_cell_setting           monoclinic
_symmetry_space_group_name_H-M   'P 21/n'
_symmetry_Int_Tables_number      14
_space_group_name_Hall           '-P 2yn'
loop_
_symmetry_equiv_pos_site_id
_symmetry_equiv_pos_as_xyz
1 x,y,z
2 1/2-x,1/2+y,1/2-z
3 -x,-y,-z
4 1/2+x,1/2-y,1/2+z
_cell_length_a                   11.7669(4)
_cell_length_b                   9.0612(3)
_cell_length_c                   12.1493(4)
_cell_angle_alpha                90
_cell_angle_beta                 98.529(2)
_cell_angle_gamma                90
_cell_volume                     1281.06
_exptl_crystal_colour            colorless
_exptl_crystal_description       block
_cell_formula_units_Z            4
loop_
_atom_site_label
_atom_site_type_symbol
_atom_site_fract_x
_atom_site_fract_y
_atom_site_fract_z
Br1 Br 1.09687(5) 0.62981(5) 0.32537(5)
Br2 Br 1.16582(4) 0.01485(5) 0.39605(5)
Br3 Br 0.71851(4) 0.26097(6) 0.35978(5)
Br4 Br 0.94466(5) 0.22452(6) -0.02140(4)
C1 C 1.0321(4) 0.4324(5) 0.2896(4)
C2 C 1.1152(4) 0.3177(5) 0.3482(4)
H1 H 1.1892 0.3251 0.3226
H2 H 1.1262 0.3336 0.4280
C3 C 1.0625(3) 0.1664(4) 0.3203(4)
C4 C 0.9471(4) 0.1532(5) 0.3643(4)
H3 H 0.9144 0.0558 0.3487
H4 H 0.9576 0.1691 0.4441
C5 C 0.8681(4) 0.2707(5) 0.3050(4)
C6 C 0.9174(4) 0.4244(5) 0.3321(4)
H5 H 0.8656 0.4991 0.2963
H6 H 0.9279 0.4411 0.4118
C7 C 0.8488(3) 0.2456(5) 0.1789(4)
H7 H 0.8154 0.1490 0.1614
H8 H 0.7971 0.3198 0.1422
C8 C 0.9661(4) 0.2567(4) 0.1403(4)
C9 C 1.0165(4) 0.4106(5) 0.1642(4)
H9 H 1.0899 0.4188 0.1373
H10 H 0.9650 0.4848 0.1274
C10 C 1.0470(4) 0.1384(4) 0.1955(4)
H11 H 1.1204 0.1438 0.1685
H12 H 1.0145 0.0411 0.1787
loop_
_geom_bond_atom_site_label_1
_geom_bond_atom_site_label_2
_geom_bond_site_symmetry_1
_geom_bond_site_symmetry_2
Br1 C1 1_555 1_555
Br2 C3 1_555 1_555
Br3 C5 1_555 1_555
Br4 C8 1_555 1_555
C1 C2 1_555 1_555
C2 H1 1_555 1_555
H2 C2 1_555 1_555
C3 C2 1_555 1_555
C4 C3 1_555 1_555
H3 C4 1_555 1_555
H4 C4 1_555 1_555
C5 C4 1_555 1_555
C6 C1 1_555 1_555
H5 C6 1_555 1_555
H6 C6 1_555 1_555
C7 C5 1_555 1_555
H7 C7 1_555 1_555
H8 C7 1_555 1_555
C8 C7 1_555 1_555
C9 C1 1_555 1_555
H9 C9 1_555 1_555
H10 C9 1_555 1_555
C10 C3 1_555 1_555
H11 C10 1_555 1_555
H12 C10 1_555 1_555
C5 C6 1_555 1_555
C8 C9 1_555 1_555
C8 C10 1_555 1_555

#END
