
#######################################################################
#
#                 Cambridge Crystallographic Data Centre
#                                CCDC 
#
#######################################################################
#
# If this CIF has been generated from an entry in the Cambridge 
# Structural Database, then it will include bibliographic, chemical, 
# crystal, experimental, refinement or atomic coordinate data resulting 
# from the CCDC's data processing and validation procedures.
#
#######################################################################

data_IJUTUD
_chemical_formula_moiety         'C6 H5 Cl2 N1'
_chemical_name_systematic        2-Chloro-5-(chloromethyl)pyridine
_symmetry_cell_setting           monoclinic
_symmetry_space_group_name_H-M   'P 21/c'
_symmetry_Int_Tables_number      14
_space_group_name_Hall           '-P 2ybc'
loop_
_symmetry_equiv_pos_site_id
_symmetry_equiv_pos_as_xyz
1 x,y,z
2 -x,1/2+y,1/2-z
3 -x,-y,-z
4 x,1/2-y,1/2+z
_cell_length_a                   4.0770(8)
_cell_length_b                   10.322(2)
_cell_length_c                   16.891(3)
_cell_angle_alpha                90
_cell_angle_beta                 95.95(3)
_cell_angle_gamma                90
_cell_volume                     706.991
_exptl_crystal_colour            colorless
_exptl_crystal_description       block
_cell_formula_units_Z            4
loop_
_atom_site_label
_atom_site_type_symbol
_atom_site_fract_x
_atom_site_fract_y
_atom_site_fract_z
N1 N 0.1376(5) 0.3311(2) 0.19100(11)
Cl1 Cl 0.2101(2) 0.54073(7) 0.11039(4)
C1 C 0.1642(6) 0.2038(2) 0.20387(12)
H1 H 0.0900 0.1710 0.2501
Cl2 Cl 0.11280(19) -0.12135(6) 0.09764(4)
C2 C 0.2433(6) 0.3739(2) 0.12537(14)
C3 C 0.3774(7) 0.2985(2) 0.06990(14)
H2 H 0.4474 0.3344 0.0240
C4 C 0.4038(6) 0.1686(2) 0.08483(13)
H3 H 0.4954 0.1144 0.0491
C5 C 0.2944(5) 0.1178(2) 0.15315(12)
C6 C 0.3244(6) -0.0224(2) 0.17406(15)
H4 H 0.2322 -0.0375 0.2239
H5 H 0.5556 -0.0464 0.1812
loop_
_geom_bond_atom_site_label_1
_geom_bond_atom_site_label_2
_geom_bond_site_symmetry_1
_geom_bond_site_symmetry_2
N1 C1 1_555 1_555
Cl1 C2 1_555 1_555
C1 H1 1_555 1_555
Cl2 C6 1_555 1_555
C2 N1 1_555 1_555
C3 C2 1_555 1_555
H2 C3 1_555 1_555
C4 C3 1_555 1_555
H3 C4 1_555 1_555
C5 C1 1_555 1_555
C6 C5 1_555 1_555
H4 C6 1_555 1_555
H5 C6 1_555 1_555
C4 C5 1_555 1_555

#END
