
#######################################################################
#
#                 Cambridge Crystallographic Data Centre
#                                CCDC 
#
#######################################################################
#
# If this CIF has been generated from an entry in the Cambridge 
# Structural Database, then it will include bibliographic, chemical, 
# crystal, experimental, refinement or atomic coordinate data resulting 
# from the CCDC's data processing and validation procedures.
#
#######################################################################

data_IKADUV
_chemical_formula_moiety         'C42 H26 N2'
_chemical_name_systematic        
9-Phenyl-14-(pyren-1-yl)-9,14-dihydrodibenzo[a,c]phenazine
_symmetry_cell_setting           monoclinic
_symmetry_space_group_name_H-M   'P 21/n'
_symmetry_Int_Tables_number      14
_space_group_name_Hall           '-P 2yn'
loop_
_symmetry_equiv_pos_site_id
_symmetry_equiv_pos_as_xyz
1 x,y,z
2 1/2-x,1/2+y,1/2-z
3 -x,-y,-z
4 1/2+x,1/2-y,1/2+z
_cell_length_a                   11.4684(6)
_cell_length_b                   18.0050(9)
_cell_length_c                   13.8450(7)
_cell_angle_alpha                90
_cell_angle_beta                 92.9890(10)
_cell_angle_gamma                90
_cell_volume                     2854.94
_exptl_crystal_colour            green
_exptl_crystal_description       prismatic
_cell_formula_units_Z            4
loop_
_atom_site_label
_atom_site_type_symbol
_atom_site_fract_x
_atom_site_fract_y
_atom_site_fract_z
N1 N 0.70601(13) 0.03770(7) 0.70359(9)
N2 N 0.76415(13) 0.14648(7) 0.57526(10)
C1 C 0.68565(16) 0.11392(9) 0.72760(12)
C2 C 0.63814(19) 0.13499(11) 0.81374(14)
H1 H 0.6245 0.0995 0.8606
C3 C 0.6111(2) 0.20859(12) 0.82998(16)
H2 H 0.5810 0.2224 0.8884
C4 C 0.6282(2) 0.26150(11) 0.76085(17)
H3 H 0.6074 0.3106 0.7717
C5 C 0.67604(19) 0.24193(10) 0.67579(14)
H4 H 0.6866 0.2775 0.6284
C6 C 0.70878(16) 0.16851(9) 0.66061(12)
C7 C 0.69586(15) 0.02278(9) 0.60212(12)
C8 C 0.72027(15) 0.07709(9) 0.53860(12)
C9 C 0.69752(15) 0.06869(9) 0.43614(12)
C10 C 0.72148(18) 0.12637(11) 0.37156(13)
H5 H 0.7502 0.1715 0.3954
C11 C 0.7029(2) 0.11665(13) 0.27373(14)
H6 H 0.7200 0.1547 0.2314
C12 C 0.65844(19) 0.05002(14) 0.23826(14)
H7 H 0.6461 0.0435 0.1719
C13 C 0.63249(18) -0.00628(12) 0.29964(14)
H8 H 0.6015 -0.0503 0.2743
C14 C 0.65157(15) 0.00078(10) 0.40017(12)
C15 C 0.62620(15) -0.05839(9) 0.46760(13)
C16 C 0.57737(18) -0.12663(11) 0.43659(15)
H9 H 0.5611 -0.1345 0.3709
C17 C 0.55344(19) -0.18134(11) 0.50049(17)
H10 H 0.5210 -0.2259 0.4781
C18 C 0.57714(19) -0.17093(10) 0.59859(16)
H11 H 0.5622 -0.2088 0.6419
C19 C 0.62243(17) -0.10514(9) 0.63193(14)
H12 H 0.6368 -0.0985 0.6981
C20 C 0.64783(14) -0.04735(9) 0.56832(12)
C21 C 0.88461(17) 0.16282(10) 0.56666(12)
C22 C 0.95643(19) 0.11608(12) 0.51632(15)
H13 H 0.9249 0.0736 0.4871
C23 C 1.0728(2) 0.13125(15) 0.50871(18)
H14 H 1.1191 0.0988 0.4751
C24 C 1.1215(2) 0.19374(18) 0.5501(2)
H15 H 1.2005 0.2040 0.5454
C25 C 1.0513(3) 0.24099(16) 0.59876(18)
H16 H 1.0834 0.2839 0.6265
C26 C 0.9343(2) 0.22635(12) 0.60743(14)
H17 H 0.8886 0.2593 0.6408
C27 C 0.79687(16) -0.00028(9) 0.76171(12)
C28 C 0.90996(17) 0.00072(10) 0.73290(14)
H18 H 0.9260 0.0225 0.6741
C29 C 1.00063(17) -0.03029(10) 0.79023(14)
H19 H 1.0763 -0.0296 0.7691
C30 C 0.97897(17) -0.06212(9) 0.87860(13)
C31 C 0.86241(16) -0.06554(8) 0.90808(12)
C32 C 0.76985(16) -0.03553(9) 0.84794(12)
C33 C 0.65264(17) -0.04425(10) 0.87873(13)
H20 H 0.5906 -0.0265 0.8394
C34 C 0.6307(2) -0.07749(11) 0.96302(14)
H21 H 0.5537 -0.0827 0.9798
C35 C 0.7221(2) -0.10491(10) 1.02735(13)
C36 C 0.7014(2) -0.13790(12) 1.11575(15)
H22 H 0.6250 -0.1439 1.1338
C37 C 0.7921(3) -0.16169(13) 1.17675(16)
H23 H 0.7767 -0.1822 1.2364
C38 C 0.9056(3) -0.15544(12) 1.15027(15)
H24 H 0.9659 -0.1716 1.1925
C39 C 0.9320(2) -0.12508(10) 1.06070(13)
C40 C 0.83879(18) -0.09874(9) 0.99869(12)
C41 C 1.0474(2) -0.11926(11) 1.03003(16)
H25 H 1.1089 -0.1359 1.0709
C42 C 1.07134(19) -0.09026(11) 0.94293(15)
H26 H 1.1481 -0.0885 0.9245
loop_
_geom_bond_atom_site_label_1
_geom_bond_atom_site_label_2
_geom_bond_site_symmetry_1
_geom_bond_site_symmetry_2
N1 C1 1_555 1_555
N2 C6 1_555 1_555
C1 C2 1_555 1_555
C2 H1 1_555 1_555
C3 C2 1_555 1_555
H2 C3 1_555 1_555
C4 C3 1_555 1_555
H3 C4 1_555 1_555
C5 C4 1_555 1_555
H4 C5 1_555 1_555
C6 C1 1_555 1_555
C7 N1 1_555 1_555
C8 N2 1_555 1_555
C9 C8 1_555 1_555
C10 C9 1_555 1_555
H5 C10 1_555 1_555
C11 C10 1_555 1_555
H6 C11 1_555 1_555
C12 C11 1_555 1_555
H7 C12 1_555 1_555
C13 C12 1_555 1_555
H8 C13 1_555 1_555
C14 C9 1_555 1_555
C15 C14 1_555 1_555
C16 C15 1_555 1_555
H9 C16 1_555 1_555
C17 C16 1_555 1_555
H10 C17 1_555 1_555
C18 C17 1_555 1_555
H11 C18 1_555 1_555
C19 C18 1_555 1_555
H12 C19 1_555 1_555
C20 C7 1_555 1_555
C21 N2 1_555 1_555
C22 C21 1_555 1_555
H13 C22 1_555 1_555
C23 C22 1_555 1_555
H14 C23 1_555 1_555
C24 C23 1_555 1_555
H15 C24 1_555 1_555
C25 C24 1_555 1_555
H16 C25 1_555 1_555
C26 C21 1_555 1_555
H17 C26 1_555 1_555
C27 N1 1_555 1_555
C28 C27 1_555 1_555
H18 C28 1_555 1_555
C29 C28 1_555 1_555
H19 C29 1_555 1_555
C30 C29 1_555 1_555
C31 C30 1_555 1_555
C32 C27 1_555 1_555
C33 C32 1_555 1_555
H20 C33 1_555 1_555
C34 C33 1_555 1_555
H21 C34 1_555 1_555
C35 C34 1_555 1_555
C36 C35 1_555 1_555
H22 C36 1_555 1_555
C37 C36 1_555 1_555
H23 C37 1_555 1_555
C38 C37 1_555 1_555
H24 C38 1_555 1_555
C39 C38 1_555 1_555
C40 C31 1_555 1_555
C41 C39 1_555 1_555
H25 C41 1_555 1_555
C42 C30 1_555 1_555
H26 C42 1_555 1_555
C5 C6 1_555 1_555
C7 C8 1_555 1_555
C13 C14 1_555 1_555
C15 C20 1_555 1_555
C19 C20 1_555 1_555
C25 C26 1_555 1_555
C31 C32 1_555 1_555
C35 C40 1_555 1_555
C39 C40 1_555 1_555
C41 C42 1_555 1_555

#END
