
#######################################################################
#
#                 Cambridge Crystallographic Data Centre
#                                CCDC 
#
#######################################################################
#
# If this CIF has been generated from an entry in the Cambridge 
# Structural Database, then it will include bibliographic, chemical, 
# crystal, experimental, refinement or atomic coordinate data resulting 
# from the CCDC's data processing and validation procedures.
#
#######################################################################

data_IKAHEI
_chemical_compound_source        'Delphinium delavayi Franch'
_chemical_name_common            
'6beta,10-dihydroxy-1alpha,14alpha,16beta-trimethoxy-4-methyl-7beta,8-(methylenedioxy)-20-ethylaconitan-6-yl acetate'
_chemical_formula_moiety         'C27 H41 N1 O8'
_chemical_name_systematic        
'14-Ethyl-2-hydroxy-4,6,19-trimethoxy-16-methyl-9,11-dioxa-14-azaheptacyclo[10.7.2.1^2,5^.0^1,13^.0^3,8^.0^8,12^.0^16,20^]docos-21-yl acetate'
_chemical_properties_biological  'analgesic properties'
_symmetry_cell_setting           orthorhombic
_symmetry_space_group_name_H-M   'P 21 21 21'
_symmetry_Int_Tables_number      19
_space_group_name_Hall           'P 2ac 2ab'
loop_
_symmetry_equiv_pos_site_id
_symmetry_equiv_pos_as_xyz
1 x,y,z
2 1/2-x,-y,1/2+z
3 -x,1/2+y,1/2-z
4 1/2+x,1/2-y,-z
_cell_length_a                   8.5708(3)
_cell_length_b                   16.3149(5)
_cell_length_c                   18.5346(6)
_cell_angle_alpha                90
_cell_angle_beta                 90
_cell_angle_gamma                90
_cell_volume                     2591.73
_exptl_crystal_colour            colorless
_exptl_crystal_description       block
_cell_formula_units_Z            4
loop_
_atom_site_label
_atom_site_type_symbol
_atom_site_fract_x
_atom_site_fract_y
_atom_site_fract_z
O1 O 0.7652(2) 0.55926(11) 0.35593(8)
O2 O 0.81403(19) 0.35689(10) 0.45254(9)
H1 H 0.7998 0.3319 0.4904
O3 O 0.5153(2) 0.37548(9) 0.59848(8)
O4 O 0.3323(3) 0.40578(13) 0.68055(10)
O5 O 0.2499(2) 0.48750(10) 0.51066(10)
O6 O 0.26769(19) 0.34658(10) 0.50243(9)
O7 O 0.4062(2) 0.22164(10) 0.38831(8)
O8 O 0.2868(3) 0.34153(14) 0.26162(10)
N1 N 0.5100(3) 0.61054(12) 0.47244(11)
C1 C 0.8052(3) 0.53466(15) 0.42806(12)
H2 H 0.8947 0.4974 0.4248
C2 C 0.8586(3) 0.61099(16) 0.46832(13)
H3 H 0.9647 0.6238 0.4541
H4 H 0.7929 0.6567 0.4543
C3 C 0.8527(4) 0.60159(17) 0.54915(14)
H5 H 0.8757 0.6539 0.5716
H6 H 0.9318 0.5627 0.5643
C4 C 0.6923(4) 0.57172(16) 0.57444(12)
C5 C 0.6682(3) 0.48456(14) 0.54468(12)
H7 H 0.7477 0.4469 0.5632
C6 C 0.5037(3) 0.45582(14) 0.56507(13)
H8 H 0.4612 0.4941 0.6007
C7 C 0.4063(3) 0.46357(14) 0.49505(12)
C8 C 0.3806(3) 0.38400(14) 0.45413(12)
C9 C 0.5323(3) 0.33528(13) 0.44938(12)
H9 H 0.5529 0.3063 0.4947
C10 C 0.6707(3) 0.39470(14) 0.43015(11)
C11 C 0.6670(3) 0.48566(13) 0.46105(12)
C12 C 0.6726(3) 0.39351(15) 0.34574(11)
H10 H 0.6541 0.4481 0.3269
H11 H 0.7729 0.3745 0.3283
C13 C 0.5428(3) 0.33514(15) 0.32151(12)
H12 H 0.5727 0.3059 0.2774
C14 C 0.5350(3) 0.27644(14) 0.38592(12)
H13 H 0.6318 0.2445 0.3877
C15 C 0.2966(3) 0.39366(16) 0.38029(13)
H14 H 0.2111 0.3547 0.3792
H15 H 0.2509 0.4480 0.3790
C16 C 0.3906(3) 0.38237(17) 0.31056(13)
H16 H 0.4155 0.4366 0.2909
C17 C 0.5051(3) 0.52438(13) 0.45053(12)
H17 H 0.4752 0.5207 0.3996
C18 C 0.6936(4) 0.57254(18) 0.65786(13)
H18 H 0.7808 0.5412 0.6751
H19 H 0.5985 0.5489 0.6756
H20 H 0.7022 0.6280 0.6747
C19 C 0.5582(4) 0.62569(15) 0.54695(13)
H21 H 0.4687 0.6176 0.5781
H22 H 0.5894 0.6826 0.5512
C20 C 0.3743(4) 0.65879(16) 0.45265(16)
H23 H 0.3870 0.7139 0.4715
H24 H 0.2829 0.6351 0.4754
C21 C 0.3462(5) 0.6638(2) 0.37278(19)
H25 H 0.2639 0.7023 0.3633
H26 H 0.3170 0.6108 0.3549
H27 H 0.4399 0.6817 0.3491
C22 C 0.1671(3) 0.41198(16) 0.52121(15)
H28 H 0.1351 0.4069 0.5712
H29 H 0.0744 0.4108 0.4912
C23 C 0.8951(4) 0.5746(2) 0.31168(15)
H30 H 0.9430 0.6253 0.3258
H31 H 0.8619 0.5783 0.2623
H32 H 0.9689 0.5308 0.3166
C24 C 0.4242(3) 0.35893(17) 0.65548(13)
C25 C 0.4585(4) 0.27508(17) 0.68280(14)
H33 H 0.4412 0.2359 0.6450
H34 H 0.3911 0.2630 0.7228
H35 H 0.5653 0.2723 0.6983
C26 C 0.3097(7) 0.3587(3) 0.19060(18)
H36 H 0.2695 0.4123 0.1800
H37 H 0.2565 0.3188 0.1616
H38 H 0.4194 0.3572 0.1801
C27 C 0.4061(4) 0.16616(17) 0.32879(13)
H39 H 0.3288 0.1245 0.3366
H40 H 0.5071 0.1411 0.3245
H41 H 0.3824 0.1955 0.2853
loop_
_geom_bond_atom_site_label_1
_geom_bond_atom_site_label_2
_geom_bond_site_symmetry_1
_geom_bond_site_symmetry_2
O1 C1 1_555 1_555
O2 H1 1_555 1_555
O3 C6 1_555 1_555
O4 C24 1_555 1_555
O5 C7 1_555 1_555
O6 C8 1_555 1_555
O7 C14 1_555 1_555
O8 C16 1_555 1_555
N1 C17 1_555 1_555
C1 H2 1_555 1_555
C2 C1 1_555 1_555
H3 C2 1_555 1_555
H4 C2 1_555 1_555
C3 C2 1_555 1_555
H5 C3 1_555 1_555
H6 C3 1_555 1_555
C4 C3 1_555 1_555
C5 C4 1_555 1_555
H7 C5 1_555 1_555
C6 C5 1_555 1_555
H8 C6 1_555 1_555
C7 C6 1_555 1_555
C8 C7 1_555 1_555
C9 C8 1_555 1_555
H9 C9 1_555 1_555
C10 O2 1_555 1_555
C11 C1 1_555 1_555
C12 C10 1_555 1_555
H10 C12 1_555 1_555
H11 C12 1_555 1_555
C13 C12 1_555 1_555
H12 C13 1_555 1_555
C14 C9 1_555 1_555
H13 C14 1_555 1_555
C15 C8 1_555 1_555
H14 C15 1_555 1_555
H15 C15 1_555 1_555
C16 C13 1_555 1_555
H16 C16 1_555 1_555
C17 C7 1_555 1_555
H17 C17 1_555 1_555
C18 C4 1_555 1_555
H18 C18 1_555 1_555
H19 C18 1_555 1_555
H20 C18 1_555 1_555
C19 N1 1_555 1_555
H21 C19 1_555 1_555
H22 C19 1_555 1_555
C20 N1 1_555 1_555
H23 C20 1_555 1_555
H24 C20 1_555 1_555
C21 C20 1_555 1_555
H25 C21 1_555 1_555
H26 C21 1_555 1_555
H27 C21 1_555 1_555
C22 O5 1_555 1_555
H28 C22 1_555 1_555
H29 C22 1_555 1_555
C23 O1 1_555 1_555
H30 C23 1_555 1_555
H31 C23 1_555 1_555
H32 C23 1_555 1_555
C24 O3 1_555 1_555
C25 C24 1_555 1_555
H33 C25 1_555 1_555
H34 C25 1_555 1_555
H35 C25 1_555 1_555
C26 O8 1_555 1_555
H36 C26 1_555 1_555
H37 C26 1_555 1_555
H38 C26 1_555 1_555
C27 O7 1_555 1_555
H39 C27 1_555 1_555
H40 C27 1_555 1_555
H41 C27 1_555 1_555
O6 C22 1_555 1_555
C4 C19 1_555 1_555
C5 C11 1_555 1_555
C9 C10 1_555 1_555
C10 C11 1_555 1_555
C11 C17 1_555 1_555
C13 C14 1_555 1_555
C15 C16 1_555 1_555

#END
