
#######################################################################
#
#                 Cambridge Crystallographic Data Centre
#                                CCDC 
#
#######################################################################
#
# If this CIF has been generated from an entry in the Cambridge 
# Structural Database, then it will include bibliographic, chemical, 
# crystal, experimental, refinement or atomic coordinate data resulting 
# from the CCDC's data processing and validation procedures.
#
#######################################################################

data_IKAQUH
_chemical_name_common            
2,2'-((4-Hydroxy-3,5-dimethoxyphenyl)methylene)bis(3-hydroxy-5,5-dimethylcyclohex-2-en-1-one)
_chemical_formula_moiety         'C25 H32 O7'
_chemical_name_systematic        
3-Hydroxy-2-[(4-hydroxy-3,5-dimethoxyphenyl)(2-hydroxy-4,4-dimethyl-6-oxocyclohex-1-en-1-yl)methyl]-5,5-dimethylcyclohex-2-en-1-one
_symmetry_cell_setting           triclinic
_symmetry_space_group_name_H-M   'P -1'
_symmetry_Int_Tables_number      2
_space_group_name_Hall           '-P 1'
loop_
_symmetry_equiv_pos_site_id
_symmetry_equiv_pos_as_xyz
1 x,y,z
2 -x,-y,-z
_cell_length_a                   9.1620(18)
_cell_length_b                   10.979(2)
_cell_length_c                   13.120(3)
_cell_angle_alpha                100.82(3)
_cell_angle_beta                 109.04(3)
_cell_angle_gamma                104.16(3)
_cell_volume                     1156.96
_exptl_crystal_colour            colorless
_exptl_crystal_description       block
_cell_formula_units_Z            2
loop_
_atom_site_label
_atom_site_type_symbol
_atom_site_fract_x
_atom_site_fract_y
_atom_site_fract_z
C1 C 0.3616(3) 0.2008(3) 0.8305(2)
H1 H 0.4668 0.2361 0.8339
O1 O 0.1583(3) 0.0314(2) 0.98624(19)
H2 H 0.2420 0.0296 1.0380
C2 C 0.3382(3) 0.1413(3) 0.9100(2)
O2 O -0.0996(3) 0.0423(2) 0.82596(19)
O3 O 0.4598(3) 0.1312(2) 0.99870(18)
C3 C 0.1799(4) 0.0880(3) 0.9058(2)
O4 O 0.1863(2) 0.1972(2) 0.42127(16)
C4 C 0.0503(3) 0.0955(3) 0.8216(2)
O5 O 0.0426(2) 0.4150(2) 0.69521(17)
H3 H 0.1400 0.4341 0.7342
C5 C 0.0728(3) 0.1532(3) 0.7405(2)
H4 H -0.0172 0.1550 0.6823
O6 O 0.3409(2) 0.49561(19) 0.84537(16)
C6 C 0.2298(3) 0.2087(2) 0.7456(2)
O7 O 0.4945(2) 0.3343(2) 0.55456(17)
H5 H 0.3958 0.2967 0.5204
C7 C 0.6237(4) 0.1861(4) 1.0097(3)
H6 H 0.6968 0.1721 1.0744
H7 H 0.6486 0.2787 1.0189
H8 H 0.6362 0.1447 0.9433
C8 C -0.2392(4) 0.0506(4) 0.7457(3)
H9 H -0.3340 0.0092 0.7586
H10 H -0.2507 0.0070 0.6715
H11 H -0.2284 0.1412 0.7521
C9 C 0.2629(3) 0.2702(2) 0.6556(2)
H12 H 0.2940 0.2056 0.6123
C10 C 0.1132(3) 0.2811(3) 0.5686(2)
C11 C 0.0111(3) 0.3455(3) 0.5945(2)
C12 C -0.1474(3) 0.3377(3) 0.5066(3)
H13 H -0.1317 0.4185 0.4855
H14 H -0.2283 0.3320 0.5398
C13 C -0.2147(3) 0.2233(3) 0.4010(2)
C14 C -0.0754(3) 0.2221(3) 0.3619(2)
H15 H -0.1097 0.1414 0.3020
H16 H -0.0545 0.2947 0.3306
C15 C 0.0812(3) 0.2323(3) 0.4535(2)
C16 C -0.3548(4) 0.2419(4) 0.3101(3)
H17 H -0.4423 0.2417 0.3352
H18 H -0.3937 0.1715 0.2420
H19 H -0.3166 0.3241 0.2961
C17 C -0.2806(4) 0.0945(3) 0.4246(3)
H20 H -0.1942 0.0812 0.4818
H21 H -0.3222 0.0231 0.3568
H22 H -0.3670 0.0981 0.4500
C18 C 0.4135(3) 0.3933(3) 0.7051(2)
C19 C 0.5225(3) 0.4114(3) 0.6525(2)
C20 C 0.6797(3) 0.5237(3) 0.7034(3)
H23 H 0.6617 0.5971 0.6760
H24 H 0.7593 0.4981 0.6785
C21 C 0.7493(3) 0.5682(3) 0.8309(2)
C22 C 0.6138(3) 0.5941(3) 0.8669(2)
H25 H 0.6463 0.6024 0.9467
H26 H 0.6044 0.6775 0.8566
C23 C 0.4487(3) 0.4906(3) 0.8044(2)
C24 C 0.8977(4) 0.6928(4) 0.8753(3)
H27 H 0.8658 0.7605 0.8463
H28 H 0.9806 0.6748 0.8513
H29 H 0.9400 0.7214 0.9562
C25 C 0.8023(4) 0.4613(4) 0.8764(3)
H30 H 0.7096 0.3828 0.8496
H31 H 0.8466 0.4903 0.9573
H32 H 0.8841 0.4436 0.8510
loop_
_geom_bond_atom_site_label_1
_geom_bond_atom_site_label_2
_geom_bond_site_symmetry_1
_geom_bond_site_symmetry_2
C1 H1 1_555 1_555
O1 H2 1_555 1_555
C2 C1 1_555 1_555
O2 C4 1_555 1_555
O3 C2 1_555 1_555
C3 O1 1_555 1_555
O4 C15 1_555 1_555
C4 C3 1_555 1_555
O5 H3 1_555 1_555
C5 C4 1_555 1_555
H4 C5 1_555 1_555
O6 C23 1_555 1_555
C6 C1 1_555 1_555
O7 H5 1_555 1_555
C7 O3 1_555 1_555
H6 C7 1_555 1_555
H7 C7 1_555 1_555
H8 C7 1_555 1_555
C8 O2 1_555 1_555
H9 C8 1_555 1_555
H10 C8 1_555 1_555
H11 C8 1_555 1_555
C9 C6 1_555 1_555
H12 C9 1_555 1_555
C10 C9 1_555 1_555
C11 O5 1_555 1_555
C12 C11 1_555 1_555
H13 C12 1_555 1_555
H14 C12 1_555 1_555
C13 C12 1_555 1_555
C14 C13 1_555 1_555
H15 C14 1_555 1_555
H16 C14 1_555 1_555
C15 C10 1_555 1_555
C16 C13 1_555 1_555
H17 C16 1_555 1_555
H18 C16 1_555 1_555
H19 C16 1_555 1_555
C17 C13 1_555 1_555
H20 C17 1_555 1_555
H21 C17 1_555 1_555
H22 C17 1_555 1_555
C18 C9 1_555 1_555
C19 O7 1_555 1_555
C20 C19 1_555 1_555
H23 C20 1_555 1_555
H24 C20 1_555 1_555
C21 C20 1_555 1_555
C22 C21 1_555 1_555
H25 C22 1_555 1_555
H26 C22 1_555 1_555
C23 C18 1_555 1_555
C24 C21 1_555 1_555
H27 C24 1_555 1_555
H28 C24 1_555 1_555
H29 C24 1_555 1_555
C25 C21 1_555 1_555
H30 C25 1_555 1_555
H31 C25 1_555 1_555
H32 C25 1_555 1_555
C2 C3 1_555 1_555
C5 C6 1_555 1_555
C10 C11 1_555 1_555
C14 C15 1_555 1_555
C18 C19 1_555 1_555
C22 C23 1_555 1_555

#END
