
#######################################################################
#
#                 Cambridge Crystallographic Data Centre
#                                CCDC 
#
#######################################################################
#
# If this CIF has been generated from an entry in the Cambridge 
# Structural Database, then it will include bibliographic, chemical, 
# crystal, experimental, refinement or atomic coordinate data resulting 
# from the CCDC's data processing and validation procedures.
#
#######################################################################

data_IKASOD01
_chemical_formula_moiety         'C16 H14 N2 2+,2(F6 P1 1-)'
_chemical_name_systematic        
'2,7-Dimethyl-2,7-dihydrobenzo[lmn][3,8]phenanthrolinediium bis(hexafluorophosphate)'
_symmetry_cell_setting           monoclinic
_symmetry_space_group_name_H-M   'P 21/n'
_symmetry_Int_Tables_number      14
_space_group_name_Hall           '-P 2yn'
loop_
_symmetry_equiv_pos_site_id
_symmetry_equiv_pos_as_xyz
1 x,y,z
2 1/2-x,1/2+y,1/2-z
3 -x,-y,-z
4 1/2+x,1/2-y,1/2+z
_cell_length_a                   6.7733(5)
_cell_length_b                   10.6708(6)
_cell_length_c                   13.4177(6)
_cell_angle_alpha                90
_cell_angle_beta                 91.054(5)
_cell_angle_gamma                90
_cell_volume                     969.621
_exptl_crystal_colour            yellow
_exptl_crystal_description       block
_cell_formula_units_Z            2
loop_
_atom_site_label
_atom_site_type_symbol
_atom_site_fract_x
_atom_site_fract_y
_atom_site_fract_z
P1 P 0.76338(13) 0.37726(9) 0.82516(7)
F1 F 0.7152(6) 0.4813(3) 0.7458(3)
F2 F 0.9891(4) 0.3794(3) 0.7976(2)
F3 F 0.7991(5) 0.4818(4) 0.9055(3)
F4 F 0.5362(4) 0.3753(3) 0.8519(2)
F5 F 0.7230(5) 0.2775(3) 0.7405(3)
F6 F 0.8055(4) 0.2715(3) 0.9040(2)
N1 N -0.1912(4) 0.7582(3) 0.3799(2)
C1 C -0.2772(7) 0.8718(4) 0.3320(3)
H1 H -0.3710 0.8473 0.2812
H2 H -0.1739 0.9202 0.3026
H3 H -0.3422 0.9214 0.3813
C2 C -0.2953(5) 0.6516(3) 0.3787(2)
H4 H -0.4171 0.6492 0.3456
C3 C -0.2248(5) 0.5450(3) 0.4258(2)
C4 C -0.0387(4) 0.5533(3) 0.4752(2)
C5 C 0.0682(5) 0.6661(3) 0.4751(2)
C6 C -0.0145(5) 0.7682(3) 0.4262(2)
H5 H 0.0527 0.8442 0.4255
C7 C 0.2562(5) 0.6725(3) 0.5267(3)
H6 H 0.3266 0.7473 0.5275
C8 C 0.3309(5) 0.5710(3) 0.5737(3)
H7 H 0.4530 0.5763 0.6063
N1B N 0.1912(4) 0.2418(3) 0.6201(2)
C1B C 0.2772(7) 0.1282(4) 0.6680(3)
H1B H 0.3710 0.1527 0.7188
H2B H 0.1739 0.0798 0.6974
H3B H 0.3422 0.0786 0.6187
C2B C 0.2953(5) 0.3484(3) 0.6213(2)
H4B H 0.4171 0.3508 0.6544
C3B C 0.2248(5) 0.4550(3) 0.5742(2)
C4B C 0.0387(4) 0.4467(3) 0.5248(2)
C5B C -0.0682(5) 0.3339(3) 0.5249(2)
C6B C 0.0145(5) 0.2318(3) 0.5738(2)
H5B H -0.0527 0.1558 0.5745
C7B C -0.2562(5) 0.3275(3) 0.4733(3)
H6B H -0.3266 0.2527 0.4725
C8B C -0.3309(5) 0.4290(3) 0.4263(3)
H7B H -0.4530 0.4237 0.3937
loop_
_geom_bond_atom_site_label_1
_geom_bond_atom_site_label_2
_geom_bond_site_symmetry_1
_geom_bond_site_symmetry_2
P1 F1 1_555 1_555
F2 P1 1_555 1_555
F3 P1 1_555 1_555
F4 P1 1_555 1_555
F5 P1 1_555 1_555
F6 P1 1_555 1_555
N1 C1 1_555 1_555
C1 H1 1_555 1_555
H2 C1 1_555 1_555
H3 C1 1_555 1_555
C2 N1 1_555 1_555
H4 C2 1_555 1_555
C3 C2 1_555 1_555
C4 C3 1_555 1_555
C5 C4 1_555 1_555
C6 N1 1_555 1_555
H5 C6 1_555 1_555
C7 C5 1_555 1_555
H6 C7 1_555 1_555
C8 C7 1_555 1_555
H7 C8 1_555 1_555
N1B C1B 1_555 1_555
C1B H1B 1_555 1_555
H2B C1B 1_555 1_555
H3B C1B 1_555 1_555
C2B N1B 1_555 1_555
H4B C2B 1_555 1_555
C3B C8 1_555 1_555
C4B C4 1_555 1_555
C5B C4B 1_555 1_555
C6B N1B 1_555 1_555
H5B C6B 1_555 1_555
C7B C5B 1_555 1_555
H6B C7B 1_555 1_555
C8B C3 1_555 1_555
H7B C8B 1_555 1_555
C5 C6 1_555 1_555
C2B C3B 1_555 1_555
C3B C4B 1_555 1_555
C5B C6B 1_555 1_555
C7B C8B 1_555 1_555

#END
