
#######################################################################
#
#                 Cambridge Crystallographic Data Centre
#                                CCDC 
#
#######################################################################
#
# If this CIF has been generated from an entry in the Cambridge 
# Structural Database, then it will include bibliographic, chemical, 
# crystal, experimental, refinement or atomic coordinate data resulting 
# from the CCDC's data processing and validation procedures.
#
#######################################################################

data_IKAXID
_chemical_formula_moiety         'C8 H11 N5 O1'
_chemical_name_systematic        1-(6-Amino-3H-purin-3-yl)propan-2-ol
_symmetry_cell_setting           orthorhombic
_symmetry_space_group_name_H-M   'C 2 2 21'
_symmetry_Int_Tables_number      20
_space_group_name_Hall           'C 2n 2'
loop_
_symmetry_equiv_pos_site_id
_symmetry_equiv_pos_as_xyz
1 x,y,z
2 -x,-y,1/2+z
3 -x,y,1/2-z
4 x,-y,-z
5 1/2+x,1/2+y,z
6 1/2-x,1/2-y,1/2+z
7 1/2-x,1/2+y,1/2-z
8 1/2+x,1/2-y,-z
_cell_length_a                   7.6356(15)
_cell_length_b                   8.3100(17)
_cell_length_c                   28.937(6)
_cell_angle_alpha                90
_cell_angle_beta                 90
_cell_angle_gamma                90
_cell_volume                     1836.11
_exptl_crystal_colour            colorless
_exptl_crystal_description       block
_cell_formula_units_Z            8
loop_
_atom_site_label
_atom_site_type_symbol
_atom_site_fract_x
_atom_site_fract_y
_atom_site_fract_z
O1 O -0.13659(15) 0.86255(15) 0.42820(4)
H1 H -0.1872 0.8421 0.4039
N1 N -0.13951(17) 0.68090(16) 0.29503(4)
N2 N 0.01096(17) 0.62038(14) 0.36418(4)
N3 N -0.10892(17) 0.24118(16) 0.31760(4)
N4 N 0.04336(16) 0.33387(16) 0.38093(4)
N5 N -0.26646(19) 0.48846(15) 0.24899(5)
H2 H -0.3025 0.5650 0.2314
H3 H -0.2907 0.3901 0.2423
C1 C 0.0924(2) 0.6802(2) 0.40692(5)
H4 H 0.1637 0.7735 0.3998
H5 H 0.1687 0.5976 0.4194
C2 C -0.0524(2) 0.72099(18) 0.33176(5)
H6 H -0.0315 0.8302 0.3361
C3 C -0.0429(2) 0.72572(19) 0.44304(5)
H7 H -0.1239 0.6358 0.4478
C4 C 0.0481(3) 0.7662(3) 0.48811(6)
H8 H -0.0378 0.7947 0.5109
H9 H 0.1264 0.8551 0.4834
H10 H 0.1133 0.6744 0.4986
C5 C -0.01410(19) 0.45903(17) 0.35593(5)
C6 C -0.10647(18) 0.40717(17) 0.31728(5)
C7 C -0.17400(19) 0.52189(18) 0.28620(5)
C8 C -0.0184(2) 0.20801(18) 0.35560(5)
H11 H 0.0022 0.1023 0.3646
loop_
_geom_bond_atom_site_label_1
_geom_bond_atom_site_label_2
_geom_bond_site_symmetry_1
_geom_bond_site_symmetry_2
O1 H1 1_555 1_555
N1 C2 1_555 1_555
N2 C1 1_555 1_555
N3 C6 1_555 1_555
N4 C5 1_555 1_555
N5 H2 1_555 1_555
H3 N5 1_555 1_555
C1 H4 1_555 1_555
H5 C1 1_555 1_555
C2 N2 1_555 1_555
H6 C2 1_555 1_555
C3 O1 1_555 1_555
H7 C3 1_555 1_555
C4 C3 1_555 1_555
H8 C4 1_555 1_555
H9 C4 1_555 1_555
H10 C4 1_555 1_555
C5 N2 1_555 1_555
C6 C5 1_555 1_555
C7 N1 1_555 1_555
C8 N3 1_555 1_555
H11 C8 1_555 1_555
N4 C8 1_555 1_555
N5 C7 1_555 1_555
C1 C3 1_555 1_555
C6 C7 1_555 1_555

#END
