
#######################################################################
#
#                 Cambridge Crystallographic Data Centre
#                                CCDC 
#
#######################################################################
#
# If this CIF has been generated from an entry in the Cambridge 
# Structural Database, then it will include bibliographic, chemical, 
# crystal, experimental, refinement or atomic coordinate data resulting 
# from the CCDC's data processing and validation procedures.
#
#######################################################################

data_IKECAD
_chemical_formula_moiety         'C22 H23 F1 N2 O1 S1'
_chemical_name_systematic        
1-((2-(4-Fluorophenyl)-4-(4-methoxyphenyl)-1,3-thiazol-5-yl)methyl)piperidine
_symmetry_cell_setting           triclinic
_symmetry_space_group_name_H-M   'P -1'
_symmetry_Int_Tables_number      2
_space_group_name_Hall           '-P 1'
loop_
_symmetry_equiv_pos_site_id
_symmetry_equiv_pos_as_xyz
1 x,y,z
2 -x,-y,-z
_cell_length_a                   10.7565(2)
_cell_length_b                   10.8846(2)
_cell_length_c                   11.0179(2)
_cell_angle_alpha                67.0350(10)
_cell_angle_beta                 63.8810(10)
_cell_angle_gamma                60.7680(10)
_cell_volume                     985.158
_exptl_crystal_colour            colorless
_exptl_crystal_description       block
_cell_formula_units_Z            2
loop_
_atom_site_label
_atom_site_type_symbol
_atom_site_fract_x
_atom_site_fract_y
_atom_site_fract_z
S1 S 0.33888(5) 0.75870(4) 0.04214(4)
F1 F 0.59060(15) 0.58770(13) -0.56262(10)
O1 O 0.17330(14) 1.58657(12) -0.00821(13)
N1 N 0.36970(13) 0.98214(12) -0.14604(12)
C1 C 0.22778(19) 0.90522(17) 0.24743(15)
H1 H 0.3087 0.8712 0.2844
H2 H 0.1614 1.0019 0.2622
C2 C 0.1157(2) 1.70549(18) -0.1103(2)
H3 H 0.1916 1.7013 -0.1992
H4 H 0.0863 1.7941 -0.0869
H5 H 0.0302 1.7014 -0.1139
C3 C 0.20949(16) 1.45111(16) -0.01833(16)
C4 C 0.25260(17) 1.33858(17) 0.08932(15)
H6 H 0.2557 1.3581 0.1627
C5 C 0.29100(16) 1.19791(16) 0.08885(15)
H7 H 0.3210 1.1236 0.1614
C6 C 0.28547(15) 1.16533(15) -0.01895(14)
C7 C 0.24580(18) 1.27941(16) -0.12758(15)
H8 H 0.2446 1.2603 -0.2022
C8 C 0.20801(19) 1.42074(17) -0.12818(16)
H9 H 0.1817 1.4950 -0.2023
C9 C 0.31552(15) 1.01781(15) -0.01896(14)
C10 C 0.38848(16) 0.84914(15) -0.12873(14)
C11 C 0.44413(15) 0.77917(15) -0.24329(14)
C12 C 0.43754(18) 0.86279(17) -0.37501(15)
H10 H 0.3992 0.9629 -0.3906
C13 C 0.4874(2) 0.79865(19) -0.48320(16)
H11 H 0.4839 0.8544 -0.5715
C14 C 0.5419(2) 0.65120(19) -0.45685(16)
C15 C 0.5508(2) 0.56486(18) -0.32943(17)
H12 H 0.5890 0.4648 -0.3150
C16 C 0.50171(18) 0.63000(16) -0.22271(16)
H13 H 0.5073 0.5729 -0.1353
C17 C 0.29129(17) 0.90992(15) 0.09436(14)
N2 N 0.14491(14) 0.80983(13) 0.32118(12)
C18 C 0.00257(19) 0.87436(18) 0.29190(16)
H14 H 0.0214 0.9003 0.1924
H15 H -0.0614 0.9618 0.3268
C19 C -0.0763(2) 0.7702(2) 0.35887(19)
H16 H -0.0150 0.6851 0.3199
H17 H -0.1707 0.8155 0.3394
C20 C -0.1053(2) 0.7259(2) 0.51460(19)
H18 H -0.1780 0.8084 0.5555
H19 H -0.1464 0.6517 0.5548
C21 C 0.0389(2) 0.6692(2) 0.54608(18)
H20 H 0.1047 0.5777 0.5188
H21 H 0.0171 0.6521 0.6452
C22 C 0.11816(19) 0.77385(18) 0.47077(15)
H22 H 0.0575 0.8615 0.5057
H23 H 0.2131 0.7310 0.4888
loop_
_geom_bond_atom_site_label_1
_geom_bond_atom_site_label_2
_geom_bond_site_symmetry_1
_geom_bond_site_symmetry_2
S1 C10 1_555 1_555
F1 C14 1_555 1_555
O1 C2 1_555 1_555
N1 C9 1_555 1_555
C1 H1 1_555 1_555
H2 C1 1_555 1_555
C2 H3 1_555 1_555
H4 C2 1_555 1_555
H5 C2 1_555 1_555
C3 O1 1_555 1_555
C4 C3 1_555 1_555
H6 C4 1_555 1_555
C5 C4 1_555 1_555
H7 C5 1_555 1_555
C6 C5 1_555 1_555
C7 C6 1_555 1_555
H8 C7 1_555 1_555
C8 C3 1_555 1_555
H9 C8 1_555 1_555
C9 C6 1_555 1_555
C10 N1 1_555 1_555
C11 C10 1_555 1_555
C12 C11 1_555 1_555
H10 C12 1_555 1_555
C13 C12 1_555 1_555
H11 C13 1_555 1_555
C14 C13 1_555 1_555
C15 C14 1_555 1_555
H12 C15 1_555 1_555
C16 C11 1_555 1_555
H13 C16 1_555 1_555
C17 S1 1_555 1_555
N2 C1 1_555 1_555
C18 N2 1_555 1_555
H14 C18 1_555 1_555
H15 C18 1_555 1_555
C19 C18 1_555 1_555
H16 C19 1_555 1_555
H17 C19 1_555 1_555
C20 C19 1_555 1_555
H18 C20 1_555 1_555
H19 C20 1_555 1_555
C21 C20 1_555 1_555
H20 C21 1_555 1_555
H21 C21 1_555 1_555
C22 N2 1_555 1_555
H22 C22 1_555 1_555
H23 C22 1_555 1_555
C1 C17 1_555 1_555
C7 C8 1_555 1_555
C9 C17 1_555 1_555
C15 C16 1_555 1_555
C21 C22 1_555 1_555

#END
