
#######################################################################
#
#                 Cambridge Crystallographic Data Centre
#                                CCDC 
#
#######################################################################
#
# If this CIF has been generated from an entry in the Cambridge 
# Structural Database, then it will include bibliographic, chemical, 
# crystal, experimental, refinement or atomic coordinate data resulting 
# from the CCDC's data processing and validation procedures.
#
#######################################################################

data_IKEDOS
_chemical_name_common            N-(4-Butyryl-3-hydroxyphenyl)butanamide
_chemical_formula_moiety         'C14 H19 N1 O3'
_chemical_name_systematic        N-(4-Butanoyl-3-hydroxyphenyl)butanamide
_symmetry_cell_setting           monoclinic
_symmetry_space_group_name_H-M   'P 21/n'
_symmetry_Int_Tables_number      14
_space_group_name_Hall           '-P 2yn'
loop_
_symmetry_equiv_pos_site_id
_symmetry_equiv_pos_as_xyz
1 x,y,z
2 1/2-x,1/2+y,1/2-z
3 -x,-y,-z
4 1/2+x,1/2-y,1/2+z
_cell_length_a                   6.2870(13)
_cell_length_b                   10.008(2)
_cell_length_c                   21.680(4)
_cell_angle_alpha                90
_cell_angle_beta                 97.96(3)
_cell_angle_gamma                90
_cell_volume                     1350.97
_exptl_crystal_colour            colorless
_exptl_crystal_description       plate
_chemical_melting_point          '381 K'
_cell_formula_units_Z            4
loop_
_atom_site_label
_atom_site_type_symbol
_atom_site_fract_x
_atom_site_fract_y
_atom_site_fract_z
N1 N 0.1152(3) 0.62012(16) 0.25206(8)
H1 H 0.1438 0.7034 0.2480
O1 O 0.2269(3) 0.41334(15) 0.22806(8)
O2 O -0.3406(3) 0.31968(14) 0.34457(8)
H2 H -0.4387 0.3191 0.3659
O3 O -0.6164(3) 0.41920(16) 0.40749(9)
C1 C 0.1729(6) 0.5577(3) 0.07966(14)
H3 H 0.1779 0.5148 0.0403
H4 H 0.1475 0.6515 0.0732
H5 H 0.0590 0.5196 0.0992
C2 C 0.3834(5) 0.5374(2) 0.12083(11)
H6 H 0.4978 0.5753 0.1006
H7 H 0.4104 0.4423 0.1259
C3 C 0.3882(4) 0.6008(2) 0.18464(11)
H8 H 0.5332 0.5959 0.2067
H9 H 0.3502 0.6945 0.1795
C4 C 0.2373(3) 0.5346(2) 0.22330(10)
C5 C -0.0507(3) 0.59311(17) 0.28740(9)
C6 C -0.1165(3) 0.46492(18) 0.29964(10)
H10 H -0.0497 0.3914 0.2844
C7 C -0.2832(3) 0.44685(19) 0.33483(9)
C8 C -0.3858(3) 0.55602(19) 0.35889(9)
C9 C -0.3162(3) 0.6842(2) 0.34437(9)
H11 H -0.3830 0.7585 0.3589
C10 C -0.1537(3) 0.70308(19) 0.30956(9)
H12 H -0.1116 0.7892 0.3006
C11 C -0.5560(3) 0.5341(2) 0.39762(10)
C12 C -0.6540(3) 0.6497(2) 0.42757(10)
H13 H -0.7122 0.7119 0.3953
H14 H -0.5417 0.6957 0.4547
C13 C -0.8299(4) 0.6116(3) 0.46512(10)
H15 H -0.7728 0.5484 0.4971
H16 H -0.9440 0.5673 0.4380
C14 C -0.9232(5) 0.7300(3) 0.49570(12)
H17 H -1.0325 0.6996 0.5192
H18 H -0.9846 0.7916 0.4642
H19 H -0.8115 0.7738 0.5231
loop_
_geom_bond_atom_site_label_1
_geom_bond_atom_site_label_2
_geom_bond_site_symmetry_1
_geom_bond_site_symmetry_2
N1 H1 1_555 1_555
O1 C4 1_555 1_555
O2 H2 1_555 1_555
O3 C11 1_555 1_555
C1 H3 1_555 1_555
H4 C1 1_555 1_555
H5 C1 1_555 1_555
C2 C1 1_555 1_555
H6 C2 1_555 1_555
H7 C2 1_555 1_555
C3 C2 1_555 1_555
H8 C3 1_555 1_555
H9 C3 1_555 1_555
C4 N1 1_555 1_555
C5 N1 1_555 1_555
C6 C5 1_555 1_555
H10 C6 1_555 1_555
C7 O2 1_555 1_555
C8 C7 1_555 1_555
C9 C8 1_555 1_555
H11 C9 1_555 1_555
C10 C5 1_555 1_555
H12 C10 1_555 1_555
C11 C8 1_555 1_555
C12 C11 1_555 1_555
H13 C12 1_555 1_555
H14 C12 1_555 1_555
C13 C12 1_555 1_555
H15 C13 1_555 1_555
H16 C13 1_555 1_555
C14 C13 1_555 1_555
H17 C14 1_555 1_555
H18 C14 1_555 1_555
H19 C14 1_555 1_555
C3 C4 1_555 1_555
C6 C7 1_555 1_555
C9 C10 1_555 1_555

#END
