
#######################################################################
#
#                 Cambridge Crystallographic Data Centre
#                                CCDC 
#
#######################################################################
#
# If this CIF has been generated from an entry in the Cambridge 
# Structural Database, then it will include bibliographic, chemical, 
# crystal, experimental, refinement or atomic coordinate data resulting 
# from the CCDC's data processing and validation procedures.
#
#######################################################################

data_IKEGAH
_chemical_formula_moiety         'C5 H7 N3 O1'
_chemical_name_systematic        1H-Pyrrole-2-carbohydrazide
_symmetry_cell_setting           orthorhombic
_symmetry_space_group_name_H-M   'P b c a'
_symmetry_Int_Tables_number      61
_space_group_name_Hall           '-P 2ac 2ab'
loop_
_symmetry_equiv_pos_site_id
_symmetry_equiv_pos_as_xyz
1 x,y,z
2 1/2-x,-y,1/2+z
3 -x,1/2+y,1/2-z
4 1/2+x,1/2-y,-z
5 -x,-y,-z
6 1/2+x,y,1/2-z
7 x,1/2-y,1/2+z
8 1/2-x,1/2+y,z
_cell_length_a                   9.9789(16)
_cell_length_b                   8.5633(14)
_cell_length_c                   13.657(2)
_cell_angle_alpha                90
_cell_angle_beta                 90
_cell_angle_gamma                90
_cell_volume                     1167.02
_exptl_crystal_colour            colorless
_exptl_crystal_description       block
_cell_formula_units_Z            8
loop_
_atom_site_label
_atom_site_type_symbol
_atom_site_fract_x
_atom_site_fract_y
_atom_site_fract_z
N1 N 0.55417(12) 0.04787(18) 0.64606(11)
H1 H 0.6352 0.0752 0.6332
N2 N 0.34109(14) 0.28224(17) 0.48978(11)
H2 H 0.2667 0.2414 0.5087
N3 N 0.33807(16) 0.3955(2) 0.41573(15)
O1 O 0.56366(11) 0.29286(15) 0.50912(10)
C1 C 0.5178(2) -0.0654(2) 0.71020(14)
H3 H 0.5761 -0.1266 0.7470
C2 C 0.3816(2) -0.0744(2) 0.71164(14)
H4 H 0.3304 -0.1421 0.7495
C3 C 0.33310(17) 0.0371(2) 0.64571(14)
H5 H 0.2435 0.0573 0.6318
C4 C 0.44238(15) 0.1116(2) 0.60516(13)
C5 C 0.45432(16) 0.2352(2) 0.53214(13)
H6 H 0.394(3) 0.359(3) 0.3665(19)
H7 H 0.380(3) 0.483(3) 0.4387(19)
loop_
_geom_bond_atom_site_label_1
_geom_bond_atom_site_label_2
_geom_bond_site_symmetry_1
_geom_bond_site_symmetry_2
N1 H1 1_555 1_555
N2 H2 1_555 1_555
N3 N2 1_555 1_555
O1 C5 1_555 1_555
C1 N1 1_555 1_555
H3 C1 1_555 1_555
C2 C1 1_555 1_555
H4 C2 1_555 1_555
C3 C2 1_555 1_555
H5 C3 1_555 1_555
C4 N1 1_555 1_555
C5 N2 1_555 1_555
H6 N3 1_555 1_555
H7 N3 1_555 1_555
C3 C4 1_555 1_555
C4 C5 1_555 1_555

#END
