
#######################################################################
#
#                 Cambridge Crystallographic Data Centre
#                                CCDC 
#
#######################################################################
#
# If this CIF has been generated from an entry in the Cambridge 
# Structural Database, then it will include bibliographic, chemical, 
# crystal, experimental, refinement or atomic coordinate data resulting 
# from the CCDC's data processing and validation procedures.
#
#######################################################################

data_IKEHOV
_chemical_formula_moiety         'C20 H22 O6'
_chemical_name_systematic        
3-(4-Hydroxy-3-methoxybenzyl)-4-(3-hydroxy-4-methoxybenzyl)-tetrahydrofuran-2-one
_symmetry_cell_setting           monoclinic
_symmetry_space_group_name_H-M   'P 21/c'
_symmetry_Int_Tables_number      14
_space_group_name_Hall           '-P 2ybc'
loop_
_symmetry_equiv_pos_site_id
_symmetry_equiv_pos_as_xyz
1 x,y,z
2 -x,1/2+y,1/2-z
3 -x,-y,-z
4 x,1/2-y,1/2+z
_cell_length_a                   16.3567(8)
_cell_length_b                   9.9319(7)
_cell_length_c                   10.6879(15)
_cell_angle_alpha                90
_cell_angle_beta                 91.379(3)
_cell_angle_gamma                90
_cell_volume                     1735.78
_cell_formula_units_Z            4
loop_
_atom_site_label
_atom_site_type_symbol
_atom_site_fract_x
_atom_site_fract_y
_atom_site_fract_z
C1 C 0.26641(19) 0.1989(3) 0.6468(3)
C2 C 0.32135(19) 0.1527(3) 0.7389(3)
C3 C 0.29457(17) 0.0676(3) 0.8304(2)
C4 C 0.21294(17) 0.0298(3) 0.8324(2)
C5 C 0.15874(18) 0.0747(3) 0.7407(2)
C6 C 0.18500(17) 0.1594(3) 0.6452(2)
C7 C 0.1106(2) -0.1021(4) 0.9327(3)
C8 C 0.12597(19) 0.2014(3) 0.5421(3)
C9 C 0.10881(16) 0.0899(3) 0.4466(2)
C10 C 0.04212(18) 0.1290(3) 0.3539(3)
C11 C 0.13299(19) 0.0011(3) 0.2452(3)
C12 C 0.17849(17) 0.0489(3) 0.3629(2)
C13 C 0.23754(19) -0.0579(3) 0.4139(3)
C14 C 0.30238(16) -0.0921(3) 0.3210(2)
C15 C 0.29779(18) -0.2055(3) 0.2469(3)
C16 C 0.35797(18) -0.2352(3) 0.1618(3)
C17 C 0.42399(17) -0.1507(3) 0.1510(2)
C18 C 0.42917(17) -0.0341(3) 0.2228(2)
C19 C 0.36913(18) -0.0053(3) 0.3060(3)
C20 C 0.4861(2) -0.2846(4) -0.0064(3)
O1 O 0.34911(12) 0.0206(2) 0.92073(19)
O2 O 0.19347(11) -0.05284(18) 0.93005(16)
O3 O -0.01827(12) 0.1949(2) 0.37106(18)
O4 O 0.05652(11) 0.07715(19) 0.24017(16)
O5 O 0.48914(12) -0.1702(2) 0.07491(17)
O6 O 0.49452(13) 0.0507(2) 0.2139(2)
H1 H 0.320(2) -0.036(4) 0.972(3)
H2 H 0.2847(16) 0.258(3) 0.582(2)
H3 H 0.3781(16) 0.183(2) 0.738(2)
H4 H 0.5294(19) 0.012(3) 0.158(3)
H5 H 0.1016(15) 0.047(2) 0.743(2)
H6 H 0.0985(18) -0.150(3) 0.852(3)
H7 H 0.0702(18) -0.024(3) 0.943(2)
H8 H 0.1081(15) -0.159(3) 1.006(3)
H9 H 0.0698(16) 0.226(2) 0.577(2)
H10 H 0.1478(16) 0.279(3) 0.490(2)
H11 H 0.0877(16) 0.012(3) 0.489(2)
H12 H 0.1172(16) -0.094(3) 0.250(2)
H13 H 0.1622(17) 0.021(3) 0.167(3)
H14 H 0.2097(14) 0.130(2) 0.344(2)
H15 H 0.2040(16) -0.141(3) 0.438(2)
H16 H 0.2663(16) -0.026(2) 0.496(2)
H17 H 0.2515(15) -0.270(2) 0.257(2)
H18 H 0.3546(16) -0.316(3) 0.117(2)
H19 H 0.3725(15) 0.073(3) 0.353(2)
H20 H 0.5403(18) -0.280(3) -0.053(3)
H21 H 0.436(2) -0.275(3) -0.069(3)
H22 H 0.4821(19) -0.378(4) 0.046(3)
loop_
_geom_bond_atom_site_label_1
_geom_bond_atom_site_label_2
_geom_bond_site_symmetry_1
_geom_bond_site_symmetry_2
C1 C2 1_555 1_555
C2 C3 1_555 1_555
C3 C4 1_555 1_555
C4 C5 1_555 1_555
C5 C6 1_555 1_555
C6 C1 1_555 1_555
C7 O2 1_555 1_555
C8 C6 1_555 1_555
C9 C8 1_555 1_555
C10 C9 1_555 1_555
C11 C12 1_555 1_555
C12 C9 1_555 1_555
C13 C12 1_555 1_555
C14 C13 1_555 1_555
C15 C14 1_555 1_555
C16 C15 1_555 1_555
C17 C16 1_555 1_555
C18 C17 1_555 1_555
C19 C14 1_555 1_555
C20 O5 1_555 1_555
O1 C3 1_555 1_555
O2 C4 1_555 1_555
O3 C10 1_555 1_555
O4 C10 1_555 1_555
O5 C17 1_555 1_555
O6 C18 1_555 1_555
H1 O1 1_555 1_555
H2 C1 1_555 1_555
H3 C2 1_555 1_555
H4 O6 1_555 1_555
H5 C5 1_555 1_555
H6 C7 1_555 1_555
H7 C7 1_555 1_555
H8 C7 1_555 1_555
H9 C8 1_555 1_555
H10 C8 1_555 1_555
H11 C9 1_555 1_555
H12 C11 1_555 1_555
H13 C11 1_555 1_555
H14 C12 1_555 1_555
H15 C13 1_555 1_555
H16 C13 1_555 1_555
H17 C15 1_555 1_555
H18 C16 1_555 1_555
H19 C19 1_555 1_555
H20 C20 1_555 1_555
H21 C20 1_555 1_555
H22 C20 1_555 1_555
C11 O4 1_555 1_555
C18 C19 1_555 1_555

#END
