
#######################################################################
#
#                 Cambridge Crystallographic Data Centre
#                                CCDC 
#
#######################################################################
#
# If this CIF has been generated from an entry in the Cambridge 
# Structural Database, then it will include bibliographic, chemical, 
# crystal, experimental, refinement or atomic coordinate data resulting 
# from the CCDC's data processing and validation procedures.
#
#######################################################################

data_IKENOD
_chemical_formula_moiety         'C15 H13 F3 N2 O1 S1'
_chemical_name_systematic        
1-(4-methoxyphenyl)-3-(3-(trifluoromethyl)phenyl)thiourea
_chemical_properties_biological  
'Antinociceptive activity; anticonvulsant activity'
_symmetry_cell_setting           orthorhombic
_symmetry_space_group_name_H-M   'P n a 21'
_symmetry_Int_Tables_number      33
_space_group_name_Hall           'P 2c -2n'
loop_
_symmetry_equiv_pos_site_id
_symmetry_equiv_pos_as_xyz
1 x,y,z
2 -x,-y,1/2+z
3 1/2+x,1/2-y,z
4 1/2-x,1/2+y,1/2+z
_cell_length_a                   13.538(3)
_cell_length_b                   14.789(2)
_cell_length_c                   7.2930(10)
_cell_angle_alpha                90
_cell_angle_beta                 90
_cell_angle_gamma                90
_cell_volume                     1460.16
_exptl_crystal_colour            colorless
_exptl_crystal_description       plate
_chemical_melting_point          '416-417.5 K'
_cell_formula_units_Z            4
loop_
_atom_site_label
_atom_site_type_symbol
_atom_site_fract_x
_atom_site_fract_y
_atom_site_fract_z
F1 F 0.1106(2) 0.09634(16) 0.2811(4)
F2 F 0.10944(18) 0.09134(14) -0.0039(4)
F3 F 0.00504(15) 0.01484(11) 0.1494(6)
O1 O 0.31362(10) 0.83896(9) 0.2249(2)
C1 C 0.27494(16) 0.92748(11) 0.2472(3)
H1 H 0.2408 0.9458 0.1347
H2 H 0.3291 0.9697 0.2724
H3 H 0.2283 0.9280 0.3499
S1 S 0.13263(3) 0.42867(2) 0.27730(7)
C2 C -0.14543(13) 0.31957(13) 0.1318(3)
H4 H -0.1889 0.3700 0.1295
N1 N -0.01580(11) 0.41939(9) 0.0342(2)
H5 H -0.0475 0.4442 -0.0584
C3 C 0.12646(11) 0.62567(12) 0.1011(2)
C4 C 0.01719(13) 0.25781(12) 0.0861(2)
H6 H 0.0844 0.2651 0.0520
C5 C 0.22838(13) 0.61392(12) 0.1104(3)
H7 H 0.2567 0.5562 0.0882
C6 C 0.28796(12) 0.68689(13) 0.1522(3)
H8 H 0.3575 0.6790 0.1597
N2 N 0.06111(10) 0.55465(10) 0.0480(2)
H9 H 0.0177 0.5685 -0.0372
C7 C 0.24730(13) 0.77178(11) 0.1834(2)
C8 C 0.04945(14) 0.09414(13) 0.1395(3)
C9 C -0.11771(13) 0.16148(13) 0.1834(3)
H10 H -0.1415 0.1036 0.2184
C10 C 0.05718(11) 0.46920(11) 0.1113(2)
C11 C 0.08608(12) 0.71047(12) 0.1311(2)
H11 H 0.0165 0.7183 0.1243
C12 C -0.04667(13) 0.33105(11) 0.0875(2)
C13 C 0.14588(13) 0.78402(12) 0.1709(3)
H12 H 0.1177 0.8422 0.1893
C14 C -0.01951(14) 0.17280(12) 0.1360(3)
C15 C -0.18100(13) 0.23488(13) 0.1797(3)
H13 H -0.2488 0.2273 0.2098
F4? F 0.1309(11) 0.1097(11) 0.113(3)
F5? F 0.0552(15) 0.0644(11) 0.312(2)
F6? F 0.0129(14) 0.0255(14) 0.072(2)
loop_
_geom_bond_atom_site_label_1
_geom_bond_atom_site_label_2
_geom_bond_site_symmetry_1
_geom_bond_site_symmetry_2
F1 C8 1_555 1_555
F2 C8 1_555 1_555
F3 C8 1_555 1_555
O1 C1 1_555 1_555
C1 H1 1_555 1_555
H2 C1 1_555 1_555
H3 C1 1_555 1_555
S1 C10 1_555 1_555
C2 H4 1_555 1_555
N1 H5 1_555 1_555
C3 C5 1_555 1_555
C4 H6 1_555 1_555
C5 H7 1_555 1_555
C6 C5 1_555 1_555
H8 C6 1_555 1_555
N2 C3 1_555 1_555
H9 N2 1_555 1_555
C7 O1 1_555 1_555
C8 C14 1_555 1_555
C9 H10 1_555 1_555
C10 N1 1_555 1_555
C11 C3 1_555 1_555
H11 C11 1_555 1_555
C12 C2 1_555 1_555
C13 C7 1_555 1_555
H12 C13 1_555 1_555
C14 C4 1_555 1_555
C15 C2 1_555 1_555
H13 C15 1_555 1_555
N1 C12 1_555 1_555
C4 C12 1_555 1_555
C6 C7 1_555 1_555
N2 C10 1_555 1_555
C9 C14 1_555 1_555
C9 C15 1_555 1_555
C11 C13 1_555 1_555

#END
