
#######################################################################
#
#                 Cambridge Crystallographic Data Centre
#                                CCDC 
#
#######################################################################
#
# If this CIF has been generated from an entry in the Cambridge 
# Structural Database, then it will include bibliographic, chemical, 
# crystal, experimental, refinement or atomic coordinate data resulting 
# from the CCDC's data processing and validation procedures.
#
#######################################################################

data_IKIGIU
_chemical_formula_moiety         'C23 H15 Br1 N2 O3'
_chemical_name_systematic        
1-(4-Bromophenyl)-3-(4-methoxyphenyl)isochromeno[4,3-c]pyrazol-5(1H)-one
_symmetry_cell_setting           triclinic
_symmetry_space_group_name_H-M   'P -1'
_symmetry_Int_Tables_number      2
_space_group_name_Hall           '-P 1'
loop_
_symmetry_equiv_pos_site_id
_symmetry_equiv_pos_as_xyz
1 x,y,z
2 -x,-y,-z
_cell_length_a                   7.2159(16)
_cell_length_b                   15.205(3)
_cell_length_c                   16.617(4)
_cell_angle_alpha                89.997(3)
_cell_angle_beta                 91.116(3)
_cell_angle_gamma                89.985(3)
_cell_volume                     1822.83
_exptl_crystal_colour            yellow
_exptl_crystal_description       Needle
_cell_formula_units_Z            4
loop_
_atom_site_label
_atom_site_type_symbol
_atom_site_fract_x
_atom_site_fract_y
_atom_site_fract_z
Br1 Br 0.21385(8) 0.56200(3) 1.09928(3)
O1 O 0.3800(4) -0.26176(18) 1.16479(17)
O2 O 0.2069(4) 0.00146(17) 0.85367(18)
O3 O 0.1929(6) -0.0288(2) 0.72508(19)
N1 N 0.1816(5) 0.1896(2) 0.9740(2)
N2 N 0.2136(5) 0.1286(2) 1.0331(2)
C1 C 0.1863(7) 0.4481(3) 1.0551(3)
C2 C 0.2943(6) 0.4257(3) 0.9904(3)
H1 H 0.3680 0.4677 0.9658
C3 C 0.2909(6) 0.3400(3) 0.9627(3)
H2 H 0.3658 0.3236 0.9203
C4 C 0.1773(6) 0.2791(3) 0.9975(2)
C5 C 0.2272(6) 0.0508(3) 0.9959(3)
C6 C 0.2655(6) -0.0295(3) 1.0416(3)
C7 C 0.2761(6) -0.1110(3) 1.0043(3)
H3 H 0.2586 -0.1146 0.9488
C8 C 0.3115(6) -0.1858(3) 1.0472(3)
H4 H 0.3152 -0.2396 1.0206
C9 C 0.3417(6) -0.1831(3) 1.1290(3)
C10 C 0.4203(7) -0.2639(3) 1.2492(3)
H5 H 0.5280 -0.2287 1.2608
H6 H 0.4434 -0.3235 1.2657
H7 H 0.3166 -0.2410 1.2778
C11 C 0.2032(6) 0.0641(3) 0.9134(2)
C12 C 0.1795(7) 0.0275(3) 0.7751(3)
C13 C 0.1373(6) 0.1200(3) 0.7588(3)
C14 C 0.0972(6) 0.1436(3) 0.6791(3)
H8 H 0.0991 0.1010 0.6390
C15 C 0.0552(6) 0.2287(3) 0.6595(3)
H9 H 0.0272 0.2439 0.6065
C16 C 0.0548(6) 0.2918(3) 0.7190(3)
H10 H 0.0295 0.3500 0.7053
C17 C 0.0910(6) 0.2706(3) 0.7983(3)
H11 H 0.0867 0.3140 0.8378
C18 C 0.1340(6) 0.1845(3) 0.8196(2)
C19 C 0.1744(6) 0.1514(2) 0.8994(2)
C20 C 0.3315(6) -0.1030(3) 1.1689(3)
H12 H 0.3502 -0.1000 1.2243
C21 C 0.2931(6) -0.0276(3) 1.1246(3)
H13 H 0.2855 0.0260 1.1513
C22 C 0.0629(6) 0.3039(3) 1.0597(2)
H14 H -0.0183 0.2635 1.0817
C23 C 0.0700(6) 0.3888(3) 1.0887(3)
H15 H -0.0045 0.4054 1.1311
Br2 Br 0.28599(8) 1.06199(3) 0.40074(3)
O4 O 0.1197(4) 0.23818(18) 0.33508(17)
O5 O 0.2933(4) 0.50156(17) 0.64621(17)
O6 O 0.3082(6) 0.4709(2) 0.7754(2)
N3 N 0.3183(5) 0.6896(2) 0.5261(2)
N4 N 0.2869(5) 0.6288(2) 0.4668(2)
C24 C 0.3129(6) 0.9486(3) 0.4453(3)
C25 C 0.4300(7) 0.8884(3) 0.4117(2)
H16 H 0.5054 0.9050 0.3695
C26 C 0.4362(6) 0.8040(3) 0.4400(3)
H17 H 0.5161 0.7634 0.4174
C27 C 0.3230(6) 0.7793(2) 0.5023(2)
C28 C 0.2724(6) 0.5509(3) 0.5038(3)
C29 C 0.2348(6) 0.4708(3) 0.4583(3)
C30 C 0.2061(6) 0.4725(3) 0.3754(3)
H18 H 0.2128 0.5260 0.3485
C31 C 0.1679(6) 0.3970(3) 0.3316(3)
H19 H 0.1495 0.3999 0.2761
C32 C 0.1573(6) 0.3173(3) 0.3710(3)
C33 C 0.0796(7) 0.2358(3) 0.2514(2)
H20 H -0.0199 0.2757 0.2389
H21 H 0.0440 0.1773 0.2360
H22 H 0.1877 0.2528 0.2224
C34 C 0.2069(6) 0.9250(3) 0.5101(3)
H23 H 0.1337 0.9669 0.5350
C35 C 0.2089(6) 0.8398(3) 0.5380(3)
H24 H 0.1342 0.8233 0.5804
C36 C 0.2248(6) 0.3896(3) 0.4956(3)
H25 H 0.2431 0.3860 0.5511
C37 C 0.1883(7) 0.3139(3) 0.4526(3)
H26 H 0.1846 0.2600 0.4790
C38 C 0.2967(6) 0.5640(3) 0.5866(3)
C39 C 0.3195(7) 0.5271(3) 0.7250(3)
C40 C 0.3631(6) 0.6197(3) 0.7410(3)
C41 C 0.3662(6) 0.6846(3) 0.6805(2)
C42 C 0.4087(6) 0.7706(3) 0.7020(3)
H27 H 0.4129 0.8139 0.6626
C43 C 0.4445(6) 0.7921(3) 0.7809(3)
H28 H 0.4694 0.8502 0.7947
C44 C 0.4439(6) 0.7283(3) 0.8404(3)
H29 H 0.4709 0.7433 0.8936
C45 C 0.4038(6) 0.6433(3) 0.8204(3)
H30 H 0.4034 0.6005 0.8604
C46 C 0.3254(6) 0.6516(2) 0.6007(2)
loop_
_geom_bond_atom_site_label_1
_geom_bond_atom_site_label_2
_geom_bond_site_symmetry_1
_geom_bond_site_symmetry_2
Br1 C1 1_555 1_555
O1 C9 1_555 1_555
O2 C11 1_555 1_555
O3 C12 1_555 1_555
N1 N2 1_555 1_555
N2 C5 1_555 1_555
C1 C2 1_555 1_555
C2 H1 1_555 1_555
C3 C2 1_555 1_555
H2 C3 1_555 1_555
C4 N1 1_555 1_555
C5 C6 1_555 1_555
C6 C7 1_555 1_555
C7 H3 1_555 1_555
C8 C7 1_555 1_555
H4 C8 1_555 1_555
C9 C8 1_555 1_555
C10 O1 1_555 1_555
H5 C10 1_555 1_555
H6 C10 1_555 1_555
H7 C10 1_555 1_555
C11 C5 1_555 1_555
C12 O2 1_555 1_555
C13 C12 1_555 1_555
C14 C13 1_555 1_555
H8 C14 1_555 1_555
C15 C14 1_555 1_555
H9 C15 1_555 1_555
C16 C15 1_555 1_555
H10 C16 1_555 1_555
C17 C16 1_555 1_555
H11 C17 1_555 1_555
C18 C13 1_555 1_555
C19 N1 1_555 1_555
C20 C9 1_555 1_555
H12 C20 1_555 1_555
C21 C6 1_555 1_555
H13 C21 1_555 1_555
C22 C4 1_555 1_555
H14 C22 1_555 1_555
C23 C1 1_555 1_555
H15 C23 1_555 1_555
Br2 C24 1_555 1_555
O4 C32 1_555 1_555
O5 C38 1_555 1_555
O6 C39 1_555 1_555
N3 N4 1_555 1_555
N4 C28 1_555 1_555
C24 C25 1_555 1_555
C25 H16 1_555 1_555
C26 C25 1_555 1_555
H17 C26 1_555 1_555
C27 N3 1_555 1_555
C28 C29 1_555 1_555
C29 C30 1_555 1_555
C30 H18 1_555 1_555
C31 C30 1_555 1_555
H19 C31 1_555 1_555
C32 C31 1_555 1_555
C33 O4 1_555 1_555
H20 C33 1_555 1_555
H21 C33 1_555 1_555
H22 C33 1_555 1_555
C34 C24 1_555 1_555
H23 C34 1_555 1_555
C35 C27 1_555 1_555
H24 C35 1_555 1_555
C36 C29 1_555 1_555
H25 C36 1_555 1_555
C37 C32 1_555 1_555
H26 C37 1_555 1_555
C38 C28 1_555 1_555
C39 O5 1_555 1_555
C40 C39 1_555 1_555
C41 C40 1_555 1_555
C42 C41 1_555 1_555
H27 C42 1_555 1_555
C43 C42 1_555 1_555
H28 C43 1_555 1_555
C44 C43 1_555 1_555
H29 C44 1_555 1_555
C45 C40 1_555 1_555
H30 C45 1_555 1_555
C46 N3 1_555 1_555
C3 C4 1_555 1_555
C11 C19 1_555 1_555
C17 C18 1_555 1_555
C18 C19 1_555 1_555
C20 C21 1_555 1_555
C22 C23 1_555 1_555
C26 C27 1_555 1_555
C34 C35 1_555 1_555
C36 C37 1_555 1_555
C38 C46 1_555 1_555
C41 C46 1_555 1_555
C44 C45 1_555 1_555

#END
