
#######################################################################
#
#                 Cambridge Crystallographic Data Centre
#                                CCDC 
#
#######################################################################
#
# If this CIF has been generated from an entry in the Cambridge 
# Structural Database, then it will include bibliographic, chemical, 
# crystal, experimental, refinement or atomic coordinate data resulting 
# from the CCDC's data processing and validation procedures.
#
#######################################################################

data_IKIVEF
_chemical_formula_moiety         'C22 H13 Cl1 N2 O2'
_chemical_name_systematic        
3-(2-chlorophenyl)-1-phenylisochromeno[4,3-c]pyrazol-5(1H)-one
_symmetry_cell_setting           monoclinic
_symmetry_space_group_name_H-M   'C 2/c'
_symmetry_Int_Tables_number      15
_space_group_name_Hall           '-C 2yn'
loop_
_symmetry_equiv_pos_site_id
_symmetry_equiv_pos_as_xyz
1 x,y,z
2 -x,y,1/2-z
3 1/2+x,1/2+y,z
4 1/2-x,1/2+y,1/2-z
5 -x,-y,-z
6 x,-y,1/2+z
7 1/2-x,1/2-y,-z
8 1/2+x,1/2-y,1/2+z
_cell_length_a                   19.531(4)
_cell_length_b                   10.1414(19)
_cell_length_c                   17.395(3)
_cell_angle_alpha                90
_cell_angle_beta                 94.944(6)
_cell_angle_gamma                90
_cell_volume                     3432.64
_exptl_crystal_colour            yellow
_exptl_crystal_description       needle
_cell_formula_units_Z            8
loop_
_atom_site_label
_atom_site_type_symbol
_atom_site_fract_x
_atom_site_fract_y
_atom_site_fract_z
Cl1 Cl 0.78222(2) 0.25635(4) 0.09709(2)
O1 O 0.90178(6) 0.41255(11) 0.18671(7)
O2 O 0.88454(8) 0.62221(14) 0.20852(11)
C1 C 1.22247(10) 0.1090(2) 0.04919(13)
C2 C 1.16427(11) 0.0603(2) 0.00831(12)
C3 C 1.21693(8) 0.19610(19) 0.10902(11)
H1 H 1.2563 0.2295 0.1361
C4 C 1.15272(8) 0.23396(16) 0.12879(9)
H2 H 1.1486 0.2919 0.1696
C5 C 1.09455(7) 0.18457(15) 0.08706(8)
N1 N 1.02815(6) 0.22019(13) 0.10953(7)
N2 N 0.98466(6) 0.12162(12) 0.12740(7)
C6 C 0.93152(7) 0.18122(15) 0.15670(8)
C7 C 0.87452(7) 0.10402(14) 0.18486(8)
C8 C 0.80550(7) 0.13466(14) 0.16520(8)
C9 C 0.75298(8) 0.06627(17) 0.19578(9)
H3 H 0.7074 0.0900 0.1831
C10 C 0.76891(9) -0.03774(18) 0.24549(10)
H4 H 0.7339 -0.0834 0.2669
C11 C 1.04963(11) 0.74172(19) 0.08584(14)
H5 H 1.0586 0.8303 0.0773
C12 C 1.09117(9) 0.6460(2) 0.05765(11)
H6 H 1.1277 0.6711 0.0299
C13 C 1.07939(8) 0.51361(18) 0.07001(10)
H7 H 1.1077 0.4502 0.0506
C14 C 1.02453(7) 0.47531(15) 0.11199(8)
C15 C 0.98152(8) 0.57345(16) 0.13923(10)
C16 C 0.99512(10) 0.70666(18) 0.12642(12)
H8 H 0.9673 0.7714 0.1453
C17 C 0.92037(8) 0.54244(17) 0.18058(11)
C18 C 0.94266(7) 0.31742(15) 0.15844(8)
C19 C 1.00344(7) 0.34164(15) 0.12707(8)
C20 C 1.09956(9) 0.09810(17) 0.02655(10)
H9 H 1.0603 0.0660 -0.0013
C21 C 0.83648(9) -0.07411(17) 0.26348(11)
H10 H 0.8469 -0.1464 0.2953
C22 C 0.88880(8) -0.00266(16) 0.23402(10)
H11 H 0.9343 -0.0264 0.2473
H12 H 1.2676(13) 0.085(2) 0.0372(14)
H13 H 1.1661(13) -0.005(3) -0.0336(15)
loop_
_geom_bond_atom_site_label_1
_geom_bond_atom_site_label_2
_geom_bond_site_symmetry_1
_geom_bond_site_symmetry_2
Cl1 C8 1_555 1_555
O1 C17 1_555 1_555
O2 C17 1_555 1_555
C1 C2 1_555 1_555
C2 C20 1_555 1_555
C3 C1 1_555 1_555
H1 C3 1_555 1_555
C4 C3 1_555 1_555
H2 C4 1_555 1_555
C5 C4 1_555 1_555
N1 C5 1_555 1_555
N2 N1 1_555 1_555
C6 N2 1_555 1_555
C7 C6 1_555 1_555
C8 C7 1_555 1_555
C9 C8 1_555 1_555
H3 C9 1_555 1_555
C10 C9 1_555 1_555
H4 C10 1_555 1_555
C11 H5 1_555 1_555
C12 C11 1_555 1_555
H6 C12 1_555 1_555
C13 C12 1_555 1_555
H7 C13 1_555 1_555
C14 C13 1_555 1_555
C15 C14 1_555 1_555
C16 C11 1_555 1_555
H8 C16 1_555 1_555
C17 C15 1_555 1_555
C18 O1 1_555 1_555
C19 N1 1_555 1_555
C20 C5 1_555 1_555
H9 C20 1_555 1_555
C21 C10 1_555 1_555
H10 C21 1_555 1_555
C22 C7 1_555 1_555
H11 C22 1_555 1_555
H12 C1 1_555 1_555
H13 C2 1_555 1_555
C6 C18 1_555 1_555
C14 C19 1_555 1_555
C15 C16 1_555 1_555
C18 C19 1_555 1_555
C21 C22 1_555 1_555

#END
