
#######################################################################
#
#                 Cambridge Crystallographic Data Centre
#                                CCDC 
#
#######################################################################
#
# If this CIF has been generated from an entry in the Cambridge 
# Structural Database, then it will include bibliographic, chemical, 
# crystal, experimental, refinement or atomic coordinate data resulting 
# from the CCDC's data processing and validation procedures.
#
#######################################################################

data_IKIZOR
_chemical_formula_moiety         'C88 H112 N4 O8,2(C1 H4 O1)'
_chemical_name_systematic        
"5,11,17,23-tetrakis(N-t-Butylaminoxyl)-25,26,27,28-tetrakis(4'-t-butylbenzyloxy)calix(4)arene methanol solvate"
_symmetry_cell_setting           triclinic
_symmetry_space_group_name_H-M   'P -1'
_symmetry_Int_Tables_number      2
_space_group_name_Hall           '-P 1'
loop_
_symmetry_equiv_pos_site_id
_symmetry_equiv_pos_as_xyz
1 x,y,z
2 -x,-y,-z
_cell_length_a                   10.260(2)
_cell_length_b                   13.106(4)
_cell_length_c                   32.814(11)
_cell_angle_alpha                95.487(9)
_cell_angle_beta                 90.497(15)
_cell_angle_gamma                100.881(15)
_cell_volume                     4311.62
_exptl_crystal_colour            orange
_exptl_crystal_description       needle
_cell_formula_units_Z            2
loop_
_atom_site_label
_atom_site_type_symbol
_atom_site_fract_x
_atom_site_fract_y
_atom_site_fract_z
O1 O 0.7676(4) 0.3547(3) 0.75434(11)
O2 O 0.5970(6) 0.1195(4) 0.58056(16)
N1 N 0.6106(6) 0.2351(4) 0.58810(15)
C1 C 0.7303(6) 0.3242(4) 0.71263(16)
C2 C 0.6629(6) 0.3889(4) 0.69171(17)
C3 C 0.6255(6) 0.3566(5) 0.65036(17)
H1 H 0.5776 0.3974 0.6357
C4 C 0.6569(6) 0.2673(5) 0.63072(17)
C5 C 0.7200(7) 0.2025(5) 0.65256(18)
H2 H 0.7379 0.1393 0.6392
C6 C 0.7572(6) 0.2305(4) 0.69444(17)
C7 C 0.8119(6) 0.1524(4) 0.71856(17)
H3 H 0.9023 0.1469 0.7095
H4 H 0.8171 0.1765 0.7482
C8 C 0.7038(7) 0.2786(5) 0.55547(18)
C9 C 0.8338(8) 0.2389(7) 0.5575(2)
H5 H 0.8850 0.2724 0.5822
H6 H 0.8851 0.2558 0.5332
H7 H 0.8147 0.1631 0.5585
C10 C 0.6325(8) 0.2396(6) 0.51329(19)
H8 H 0.5450 0.2593 0.5131
H9 H 0.6219 0.1635 0.5087
H10 H 0.6857 0.2716 0.4915
C11 C 0.7275(8) 0.3971(5) 0.5606(2)
H11 H 0.7706 0.4229 0.5874
H12 H 0.6424 0.4203 0.5589
H13 H 0.7848 0.4247 0.5389
C12 C 0.8825(6) 0.4380(4) 0.75882(16)
H14 H 0.8720 0.4928 0.7410
H15 H 0.9632 0.4106 0.7508
C13 C 0.8958(5) 0.4832(4) 0.80325(17)
C14 C 0.8861(6) 0.5850(5) 0.81440(17)
H16 H 0.8710 0.6280 0.7938
C15 C 0.8981(6) 0.6274(5) 0.85574(18)
H17 H 0.8931 0.6985 0.8627
C16 C 0.9178(6) 0.5634(5) 0.88689(17)
C17 C 0.9291(6) 0.4616(5) 0.87548(18)
H18 H 0.9436 0.4184 0.8961
C18 C 0.9197(6) 0.4198(4) 0.83439(17)
H19 H 0.9293 0.3497 0.8273
C19 C 0.9245(8) 0.6048(5) 0.93329(18)
C20 C 0.8068(9) 0.5412(6) 0.9540(2)
H20 H 0.8089 0.5656 0.9832
H21 H 0.8129 0.4672 0.9507
H22 H 0.7236 0.5504 0.9413
C21 C 1.0540(8) 0.5857(6) 0.9534(2)
H23 H 1.0586 0.6126 0.9824
H24 H 1.1308 0.6220 0.9395
H25 H 1.0544 0.5107 0.9510
C22 C 0.9219(8) 0.7198(6) 0.9401(2)
H26 H 0.9262 0.7417 0.9696
H27 H 0.8396 0.7331 0.9282
H28 H 0.9982 0.7594 0.9271
O4 O 0.5607(4) 0.1042(3) 0.75813(11)
O5 O 0.7699(5) -0.2606(4) 0.65933(13)
N2 N 0.6900(5) -0.2064(4) 0.64482(14)
C23 C 0.5915(6) 0.0312(4) 0.72779(16)
C24 C 0.7192(6) 0.0457(4) 0.71098(16)
C25 C 0.7497(6) -0.0344(4) 0.68400(17)
H29 H 0.8369 -0.0287 0.6738
C26 C 0.6541(6) -0.1231(4) 0.67160(16)
C27 C 0.5245(6) -0.1314(4) 0.68571(16)
H30 H 0.4587 -0.1906 0.6765
C28 C 0.4920(6) -0.0533(4) 0.71302(16)
C29 C 0.3468(6) -0.0518(4) 0.72454(17)
H31 H 0.3423 -0.0305 0.7542
H32 H 0.2920 -0.1225 0.7185
C30 C 0.6729(7) -0.2149(5) 0.59841(17)
C31 C 0.6348(8) -0.3305(5) 0.5835(2)
H33 H 0.5506 -0.3603 0.5955
H34 H 0.7044 -0.3668 0.5919
H35 H 0.6249 -0.3388 0.5536
C32 C 0.8078(7) -0.1663(7) 0.5819(2)
H36 H 0.8030 -0.1739 0.5519
H37 H 0.8765 -0.2021 0.5913
H38 H 0.8299 -0.0921 0.5918
C33 C 0.5652(7) -0.1569(5) 0.58677(19)
H39 H 0.4816 -0.1865 0.5991
H40 H 0.5532 -0.1639 0.5569
H41 H 0.5912 -0.0828 0.5968
C34 C 0.6013(7) 0.0750(5) 0.79776(17)
H42 H 0.6993 0.0908 0.8009
H43 H 0.5705 -0.0008 0.7992
C35 C 0.5403(6) 0.1366(5) 0.83185(17)
C36 C 0.6159(6) 0.2286(5) 0.85208(17)
H44 H 0.7040 0.2531 0.8439
C37 C 0.5630(6) 0.2839(5) 0.88387(18)
H45 H 0.6147 0.3468 0.8967
C38 C 0.4354(7) 0.2491(5) 0.89745(18)
C39 C 0.3595(7) 0.1586(5) 0.87688(19)
H46 H 0.2708 0.1351 0.8847
C40 C 0.4125(7) 0.1025(5) 0.84505(19)
H47 H 0.3604 0.0399 0.8321
C41 C 0.3779(8) 0.3071(6) 0.93376(19)
C42 C 0.247(2) 0.254(2) 0.9462(8)
H48 H 0.1794 0.2599 0.9258
H49 H 0.2262 0.2870 0.9729
H50 H 0.2486 0.1803 0.9484
C43 C 0.386(2) 0.4198(16) 0.9271(6)
H51 H 0.3144 0.4260 0.9080
H52 H 0.4718 0.4470 0.9157
H53 H 0.3761 0.4599 0.9534
C44 C 0.4787(16) 0.3109(14) 0.9728(4)
H54 H 0.5592 0.3632 0.9699
H55 H 0.5024 0.2422 0.9739
H56 H 0.4349 0.3297 0.9981
O6 O 0.1895(4) 0.0987(3) 0.75900(11)
O7 O 0.3406(6) 0.2193(4) 0.58193(16)
N3 N 0.3252(5) 0.1090(4) 0.59163(14)
C48 C 0.2262(6) 0.1003(4) 0.71722(16)
C49 C 0.2930(6) 0.0263(4) 0.69938(16)
C50 C 0.3250(6) 0.0299(5) 0.65755(17)
H66 H 0.3724 -0.0192 0.6446
C51 C 0.2865(6) 0.1064(5) 0.63528(16)
C52 C 0.2304(6) 0.1834(5) 0.65462(17)
H67 H 0.2125 0.2384 0.6398
C53 C 0.1984(6) 0.1826(4) 0.69639(17)
C54 C 0.1494(6) 0.2771(4) 0.71736(18)
H68 H 0.0588 0.2778 0.7070
H69 H 0.1455 0.2718 0.7472
C55 C 0.2201(6) 0.0482(5) 0.56073(17)
C56 C 0.0930(7) 0.0922(6) 0.5621(2)
H70 H 0.0551 0.0872 0.5893
H71 H 0.0290 0.0521 0.5415
H72 H 0.1129 0.1655 0.5565
C57 C 0.2825(8) 0.0565(5) 0.51851(18)
H73 H 0.3663 0.0309 0.5185
H74 H 0.2995 0.1296 0.5125
H75 H 0.2215 0.0142 0.4976
C58 C 0.1916(8) -0.0668(5) 0.5697(2)
H76 H 0.1552 -0.0720 0.5971
H77 H 0.2742 -0.0941 0.5685
H78 H 0.1273 -0.1076 0.5493
C59 C 0.0782(6) 0.0174(4) 0.76515(17)
H79 H 0.1063 -0.0511 0.7624
H80 H 0.0080 0.0158 0.7441
C60 C 0.0239(6) 0.0367(4) 0.80737(17)
C61 C -0.0288(9) -0.0462(5) 0.8295(2)
H81 H -0.0283 -0.1156 0.8181
C62 C -0.0824(9) -0.0304(6) 0.8680(2)
H82 H -0.1144 -0.0889 0.8826
C63 C -0.0902(7) 0.0698(5) 0.88570(17)
C64 C -0.0395(7) 0.1519(5) 0.86325(17)
H83 H -0.0424 0.2212 0.8742
C65 C 0.0161(6) 0.1359(5) 0.82478(18)
H84 H 0.0492 0.1944 0.8103
C66 C -0.1539(7) 0.0843(5) 0.92830(18)
C67 C -0.0771(8) 0.0377(6) 0.9603(2)
H85 H -0.1119 0.0519 0.9875
H86 H 0.0174 0.0695 0.9602
H87 H -0.0879 -0.0379 0.9534
C68 C -0.1495(7) 0.2006(5) 0.94310(19)
H88 H -0.1926 0.2332 0.9224
H89 H -0.0568 0.2366 0.9473
H90 H -0.1961 0.2058 0.9689
C69 C -0.2986(8) 0.0286(6) 0.9268(2)
H91 H -0.3509 0.0640 0.9096
H92 H -0.3331 0.0300 0.9545
H93 H -0.3049 -0.0440 0.9152
O9 O 0.4333(4) 0.3295(3) 0.74251(11)
C70 C 0.3789(6) 0.3956(4) 0.72039(16)
C71 C 0.2419(6) 0.3778(4) 0.70916(17)
C72 C 0.1956(6) 0.4486(4) 0.68611(18)
H94 H 0.1036 0.4387 0.6794
C73 C 0.4192(6) 0.5467(4) 0.68167(17)
H95 H 0.4789 0.6027 0.6716
C74 C 0.4687(6) 0.4778(4) 0.70531(17)
C75 C 0.6171(6) 0.4845(5) 0.71290(17)
H96 H 0.6362 0.4890 0.7427
H97 H 0.6670 0.5484 0.7024
C76 C 0.2822(6) 0.5339(5) 0.67274(19)
N5 N 0.2361(6) 0.6062(4) 0.64942(18)
O12 O 0.3185(8) 0.6645(5) 0.6289(2)
C82 C 0.1022(9) 0.6473(6) 0.6614(3)
C83 C 0.0856(11) 0.6616(7) 0.7077(3)
H111 H 0.0030 0.6868 0.7136
H112 H 0.1609 0.7126 0.7203
H113 H 0.0822 0.5946 0.7190
C84 C 0.1087(11) 0.7512(7) 0.6434(3)
H114 H 0.0286 0.7790 0.6504
H115 H 0.1144 0.7405 0.6136
H116 H 0.1872 0.8009 0.6547
C85 C -0.0119(11) 0.5674(11) 0.6415(4)
H117 H -0.0897 0.5999 0.6389
H118 H -0.0332 0.5090 0.6584
H119 H 0.0135 0.5416 0.6142
C88 C 0.3937(6) 0.3262(5) 0.78608(18)
H128 H 0.3031 0.2839 0.7869
H129 H 0.4548 0.2912 0.8007
C89 C 0.3955(7) 0.4314(5) 0.80778(17)
C90 C 0.2785(7) 0.4701(5) 0.81308(18)
H130 H 0.1972 0.4277 0.8028
C91 C 0.2767(7) 0.5687(5) 0.83284(19)
H131 H 0.1947 0.5918 0.8359
C92 C 0.3946(7) 0.6345(5) 0.84839(19)
C93 C 0.5107(7) 0.5940(5) 0.84358(18)
H132 H 0.5919 0.6359 0.8541
C94 C 0.5135(7) 0.4959(5) 0.82425(18)
H133 H 0.5951 0.4719 0.8221
C95 C 0.3952(8) 0.7428(5) 0.8701(2)
C96 C 0.4441(10) 0.7472(6) 0.9153(2)
H134 H 0.3850 0.6945 0.9292
H135 H 0.4435 0.8167 0.9292
H136 H 0.5346 0.7332 0.9159
C97 C 0.2623(9) 0.7788(6) 0.8694(3)
H137 H 0.1967 0.7314 0.8837
H138 H 0.2320 0.7784 0.8410
H139 H 0.2728 0.8497 0.8832
C98 C 0.4954(9) 0.8235(5) 0.8483(2)
H140 H 0.4730 0.8159 0.8190
H141 H 0.5856 0.8109 0.8524
H142 H 0.4906 0.8943 0.8600
O13 O 0.2415(19) 0.5406(16) 0.5518(5)
H120 H 0.2646 0.5773 0.5745
C86 C 0.279(3) 0.4391(17) 0.5566(8)
H121 H 0.2508 0.3911 0.5320
H122 H 0.2354 0.4098 0.5805
H123 H 0.3754 0.4488 0.5605
O14 O 0.0066(19) 0.5450(14) 0.5082(5)
H124 H 0.0545 0.5269 0.5262
C87 C -0.0472(19) 0.6330(14) 0.5253(5)
H125 H -0.1277 0.6370 0.5097
H126 H 0.0186 0.6973 0.5238
H127 H -0.0690 0.6247 0.5539
O15 O 0.8266(6) -0.2407(5) 0.74442(16)
H143 H 0.8083 -0.2466 0.7192
C99 C 0.7142(9) -0.2254(7) 0.7664(2)
H144 H 0.7275 -0.2365 0.7952
H145 H 0.6362 -0.2751 0.7548
H146 H 0.7002 -0.1540 0.7647
O3? O 0.4848(19) 0.2902(15) 0.5796(5)
C45? C 0.2434(17) 0.3361(19) 0.9185(6)
H57? H 0.1898 0.2751 0.9027
H58? H 0.2635 0.3937 0.9013
H59? H 0.1938 0.3572 0.9423
C46? C 0.4613(15) 0.4065(13) 0.9518(5)
H60? H 0.4702 0.4581 0.9318
H61? H 0.5494 0.3943 0.9593
H62? H 0.4193 0.4329 0.9763
C47? C 0.339(3) 0.2280(16) 0.9674(5)
H63? H 0.2780 0.1658 0.9552
H64? H 0.2968 0.2617 0.9901
H65? H 0.4199 0.2075 0.9776
O8? O 0.4402(17) 0.0497(13) 0.5836(4)
N4? N 0.2361(6) 0.6062(4) 0.64942(18)
O10? O 0.307(3) 0.6918(14) 0.6428(7)
C77? C 0.1248(18) 0.5668(12) 0.6120(5)
C78? C 0.117(3) 0.4551(13) 0.5926(7)
H98? H 0.0420 0.4370 0.5728
H99? H 0.1038 0.4070 0.6139
H100? H 0.1994 0.4496 0.5785
C79? C 0.149(3) 0.6388(18) 0.5776(7)
H101? H 0.0773 0.6177 0.5567
H102? H 0.2341 0.6337 0.5651
H103? H 0.1503 0.7110 0.5889
C80? C -0.009(2) 0.579(3) 0.6302(12)
H104? H -0.0694 0.5897 0.6085
H105? H 0.0040 0.6384 0.6511
H106? H -0.0473 0.5150 0.6427
O11? O 0.1101(17) 0.7648(12) 0.7678(4)
H107? H 0.0580 0.7839 0.7513
C81? C 0.169(2) 0.6871(17) 0.7475(7)
H108? H 0.2607 0.6944 0.7579
H109? H 0.1695 0.6942 0.7181
H110? H 0.1188 0.6182 0.7524
loop_
_geom_bond_atom_site_label_1
_geom_bond_atom_site_label_2
_geom_bond_site_symmetry_1
_geom_bond_site_symmetry_2
O1 C1 1_555 1_555
O2 N1 1_555 1_555
N1 C4 1_555 1_555
C1 C2 1_555 1_555
C2 C3 1_555 1_555
C3 H1 1_555 1_555
C4 C3 1_555 1_555
C5 C4 1_555 1_555
H2 C5 1_555 1_555
C6 C1 1_555 1_555
C7 C6 1_555 1_555
H3 C7 1_555 1_555
H4 C7 1_555 1_555
C8 N1 1_555 1_555
C9 C8 1_555 1_555
H5 C9 1_555 1_555
H6 C9 1_555 1_555
H7 C9 1_555 1_555
C10 C8 1_555 1_555
H8 C10 1_555 1_555
H9 C10 1_555 1_555
H10 C10 1_555 1_555
C11 C8 1_555 1_555
H11 C11 1_555 1_555
H12 C11 1_555 1_555
H13 C11 1_555 1_555
C12 O1 1_555 1_555
H14 C12 1_555 1_555
H15 C12 1_555 1_555
C13 C12 1_555 1_555
C14 C13 1_555 1_555
H16 C14 1_555 1_555
C15 C14 1_555 1_555
H17 C15 1_555 1_555
C16 C15 1_555 1_555
C17 C16 1_555 1_555
H18 C17 1_555 1_555
C18 C13 1_555 1_555
H19 C18 1_555 1_555
C19 C16 1_555 1_555
C20 C19 1_555 1_555
H20 C20 1_555 1_555
H21 C20 1_555 1_555
H22 C20 1_555 1_555
C21 C19 1_555 1_555
H23 C21 1_555 1_555
H24 C21 1_555 1_555
H25 C21 1_555 1_555
C22 C19 1_555 1_555
H26 C22 1_555 1_555
H27 C22 1_555 1_555
H28 C22 1_555 1_555
O4 C23 1_555 1_555
O5 N2 1_555 1_555
N2 C26 1_555 1_555
C23 C24 1_555 1_555
C24 C7 1_555 1_555
C25 C24 1_555 1_555
H29 C25 1_555 1_555
C26 C25 1_555 1_555
C27 C26 1_555 1_555
H30 C27 1_555 1_555
C28 C23 1_555 1_555
C29 C28 1_555 1_555
H31 C29 1_555 1_555
H32 C29 1_555 1_555
C30 N2 1_555 1_555
C31 C30 1_555 1_555
H33 C31 1_555 1_555
H34 C31 1_555 1_555
H35 C31 1_555 1_555
C32 C30 1_555 1_555
H36 C32 1_555 1_555
H37 C32 1_555 1_555
H38 C32 1_555 1_555
C33 C30 1_555 1_555
H39 C33 1_555 1_555
H40 C33 1_555 1_555
H41 C33 1_555 1_555
C34 O4 1_555 1_555
H42 C34 1_555 1_555
H43 C34 1_555 1_555
C35 C34 1_555 1_555
C36 C35 1_555 1_555
H44 C36 1_555 1_555
C37 C36 1_555 1_555
H45 C37 1_555 1_555
C38 C37 1_555 1_555
C39 C38 1_555 1_555
H46 C39 1_555 1_555
C40 C35 1_555 1_555
H47 C40 1_555 1_555
C41 C38 1_555 1_555
C42 C41 1_555 1_555
H48 C42 1_555 1_555
H49 C42 1_555 1_555
H50 C42 1_555 1_555
C43 C41 1_555 1_555
H51 C43 1_555 1_555
H52 C43 1_555 1_555
H53 C43 1_555 1_555
C44 C41 1_555 1_555
H54 C44 1_555 1_555
H55 C44 1_555 1_555
H56 C44 1_555 1_555
O6 C48 1_555 1_555
O7 N3 1_555 1_555
N3 C51 1_555 1_555
C48 C49 1_555 1_555
C49 C29 1_555 1_555
C50 C49 1_555 1_555
H66 C50 1_555 1_555
C51 C50 1_555 1_555
C52 C51 1_555 1_555
H67 C52 1_555 1_555
C53 C48 1_555 1_555
C54 C53 1_555 1_555
H68 C54 1_555 1_555
H69 C54 1_555 1_555
C55 N3 1_555 1_555
C56 C55 1_555 1_555
H70 C56 1_555 1_555
H71 C56 1_555 1_555
H72 C56 1_555 1_555
C57 C55 1_555 1_555
H73 C57 1_555 1_555
H74 C57 1_555 1_555
H75 C57 1_555 1_555
C58 C55 1_555 1_555
H76 C58 1_555 1_555
H77 C58 1_555 1_555
H78 C58 1_555 1_555
C59 O6 1_555 1_555
H79 C59 1_555 1_555
H80 C59 1_555 1_555
C60 C59 1_555 1_555
C61 C60 1_555 1_555
H81 C61 1_555 1_555
C62 C61 1_555 1_555
H82 C62 1_555 1_555
C63 C62 1_555 1_555
C64 C63 1_555 1_555
H83 C64 1_555 1_555
C65 C60 1_555 1_555
H84 C65 1_555 1_555
C66 C63 1_555 1_555
C67 C66 1_555 1_555
H85 C67 1_555 1_555
H86 C67 1_555 1_555
H87 C67 1_555 1_555
C68 C66 1_555 1_555
H88 C68 1_555 1_555
H89 C68 1_555 1_555
H90 C68 1_555 1_555
C69 C66 1_555 1_555
H91 C69 1_555 1_555
H92 C69 1_555 1_555
H93 C69 1_555 1_555
O9 C70 1_555 1_555
C70 C71 1_555 1_555
C71 C54 1_555 1_555
C72 C71 1_555 1_555
H94 C72 1_555 1_555
C73 H95 1_555 1_555
C74 C70 1_555 1_555
C75 C2 1_555 1_555
H96 C75 1_555 1_555
H97 C75 1_555 1_555
C76 C72 1_555 1_555
N5 C76 1_555 1_555
O12 N5 1_555 1_555
C82 N5 1_555 1_555
C83 C82 1_555 1_555
H111 C83 1_555 1_555
H112 C83 1_555 1_555
H113 C83 1_555 1_555
C84 C82 1_555 1_555
H114 C84 1_555 1_555
H115 C84 1_555 1_555
H116 C84 1_555 1_555
C85 C82 1_555 1_555
H117 C85 1_555 1_555
H118 C85 1_555 1_555
H119 C85 1_555 1_555
O13 H120 1_555 1_555
C86 O13 1_555 1_555
H121 C86 1_555 1_555
H122 C86 1_555 1_555
H123 C86 1_555 1_555
O14 H124 1_555 1_555
C87 O14 1_555 1_555
H125 C87 1_555 1_555
H126 C87 1_555 1_555
H127 C87 1_555 1_555
C88 O9 1_555 1_555
H128 C88 1_555 1_555
H129 C88 1_555 1_555
C89 C88 1_555 1_555
C90 C89 1_555 1_555
H130 C90 1_555 1_555
C91 C90 1_555 1_555
H131 C91 1_555 1_555
C92 C91 1_555 1_555
C93 C92 1_555 1_555
H132 C93 1_555 1_555
C94 C89 1_555 1_555
H133 C94 1_555 1_555
C95 C92 1_555 1_555
C96 C95 1_555 1_555
H134 C96 1_555 1_555
H135 C96 1_555 1_555
H136 C96 1_555 1_555
C97 C95 1_555 1_555
H137 C97 1_555 1_555
H138 C97 1_555 1_555
H139 C97 1_555 1_555
C98 C95 1_555 1_555
H140 C98 1_555 1_555
H141 C98 1_555 1_555
H142 C98 1_555 1_555
O15 H143 1_555 1_555
C99 O15 1_555 1_555
H144 C99 1_555 1_555
H145 C99 1_555 1_555
H146 C99 1_555 1_555
C5 C6 1_555 1_555
C17 C18 1_555 1_555
C27 C28 1_555 1_555
C39 C40 1_555 1_555
C52 C53 1_555 1_555
C64 C65 1_555 1_555
C73 C74 1_555 1_555
C73 C76 1_555 1_555
C74 C75 1_555 1_555
C93 C94 1_555 1_555

#END
