
#######################################################################
#
#                 Cambridge Crystallographic Data Centre
#                                CCDC 
#
#######################################################################
#
# If this CIF has been generated from an entry in the Cambridge 
# Structural Database, then it will include bibliographic, chemical, 
# crystal, experimental, refinement or atomic coordinate data resulting 
# from the CCDC's data processing and validation procedures.
#
#######################################################################

data_IKOSUY
_chemical_formula_moiety         'C28 H22 S2'
_chemical_name_systematic        2,6-bis(4-(Methylsulfanyl)phenyl)anthracene
_symmetry_cell_setting           triclinic
_symmetry_space_group_name_H-M   'P -1'
_symmetry_Int_Tables_number      2
_space_group_name_Hall           '-P 1'
loop_
_symmetry_equiv_pos_site_id
_symmetry_equiv_pos_as_xyz
1 x,y,z
2 -x,-y,-z
_cell_length_a                   6.0345(3)
_cell_length_b                   7.6843(4)
_cell_length_c                   22.6054(16)
_cell_angle_alpha                92.827(7)
_cell_angle_beta                 96.554(7)
_cell_angle_gamma                90.103(6)
_cell_volume                     1040.09
_exptl_crystal_colour            colorless
_exptl_crystal_description       block
_chemical_melting_point          '370 K'
_cell_formula_units_Z            2
_exptl_crystal_recrystallization_method Sublimation
loop_
_atom_site_label
_atom_site_type_symbol
_atom_site_fract_x
_atom_site_fract_y
_atom_site_fract_z
S1 S 0.5171(3) 0.4198(2) 0.07539(6)
C1 C 0.2547(12) 0.5257(14) 0.0717(3)
H1 H 0.1649 0.4750 0.0988
H2 H 0.1804 0.5118 0.0318
H3 H 0.2771 0.6474 0.0823
C2 C 0.6267(8) 0.4495(7) 0.1507(2)
C3 C 0.8189(9) 0.3570(8) 0.1681(2)
H4 H 0.8818 0.2863 0.1400
C4 C 0.9183(8) 0.3682(7) 0.2263(2)
H5 H 1.0458 0.3036 0.2367
C5 C 0.8317(7) 0.4744(6) 0.2701(2)
C6 C 0.9351(7) 0.4792(6) 0.3331(2)
C7 C 1.1554(7) 0.4139(6) 0.3475(2)
H6 H 1.2387 0.3810 0.3167
C8 C 1.2465(7) 0.3985(6) 0.4047(2)
H7 H 1.3900 0.3546 0.4121
C9 C 1.1265(7) 0.4484(6) 0.4539(2)
C10 C 1.2113(7) 0.4270(6) 0.5123(2)
H8 H 1.3513 0.3775 0.5205
C11 C 0.9091(7) 0.5219(6) 0.4402(2)
C12 C 0.8197(7) 0.5341(6) 0.3794(2)
H9 H 0.6784 0.5809 0.3709
C13 C 0.6410(9) 0.5671(7) 0.2517(2)
H10 H 0.5795 0.6397 0.2796
C14 C 0.5395(9) 0.5563(8) 0.1942(2)
H11 H 0.4115 0.6206 0.1840
S1A S 1.4829(3) 0.5802(2) 0.92461(6)
C1A C 1.7453(12) 0.4743(14) 0.9283(3)
H1A H 1.8351 0.5250 0.9012
H2A H 1.8196 0.4882 0.9682
H3A H 1.7229 0.3526 0.9177
C2A C 1.3733(8) 0.5505(7) 0.8493(2)
C3A C 1.1811(9) 0.6430(8) 0.8319(2)
H4A H 1.1182 0.7137 0.8600
C4A C 1.0817(8) 0.6318(7) 0.7737(2)
H5A H 0.9542 0.6964 0.7633
C5A C 1.1683(7) 0.5256(6) 0.7299(2)
C6A C 1.0649(7) 0.5208(6) 0.6669(2)
C7A C 0.8446(7) 0.5861(6) 0.6525(2)
H6A H 0.7613 0.6190 0.6833
C8A C 0.7535(7) 0.6015(6) 0.5953(2)
H7A H 0.6100 0.6454 0.5879
C9A C 0.8735(7) 0.5516(6) 0.5461(2)
C10A C 0.7887(7) 0.5730(6) 0.4877(2)
H8A H 0.6487 0.6225 0.4795
C11A C 1.0909(7) 0.4781(6) 0.5598(2)
C12A C 1.1803(7) 0.4659(6) 0.6206(2)
H9A H 1.3216 0.4191 0.6291
C13A C 1.3590(9) 0.4329(7) 0.7483(2)
H10A H 1.4205 0.3603 0.7204
C14A C 1.4605(9) 0.4437(8) 0.8058(2)
H11A H 1.5885 0.3794 0.8160
S2 S 0.0219(3) -0.0237(2) 0.07513(6)
C15 C -0.2388(12) -0.1280(13) 0.0688(3)
H12 H -0.2181 -0.2518 0.0694
H13 H -0.3232 -0.1002 0.0319
H14 H -0.3177 -0.0893 0.1015
C16 C 0.1282(8) -0.0359(7) 0.1504(2)
C17 C 0.3225(9) 0.0596(7) 0.1688(2)
H15 H 0.3880 0.1225 0.1412
C18 C 0.4200(8) 0.0630(7) 0.2271(2)
H16 H 0.5485 0.1295 0.2379
C19 C 0.3308(7) -0.0307(6) 0.2704(2)
C20 C 0.4346(7) -0.0202(6) 0.33330(19)
C21 C 0.3198(7) -0.0648(6) 0.3790(2)
H17 H 0.1789 -0.1151 0.3701
C22 C 0.4089(7) -0.0369(6) 0.44028(19)
C23 C 0.2881(7) -0.0756(6) 0.4871(2)
H18 H 0.1478 -0.1272 0.4787
C24 C 0.6261(7) 0.0382(5) 0.45405(19)
C25 C 0.1369(8) -0.1275(7) 0.2511(2)
H19 H 0.0731 -0.1921 0.2786
C26 C 0.0363(9) -0.1311(8) 0.1929(2)
H20 H -0.0927 -0.1969 0.1820
C27 C 0.7467(7) 0.0773(6) 0.4050(2)
H21 H 0.8903 0.1233 0.4127
C28 C 0.6557(7) 0.0487(7) 0.3479(2)
H22 H 0.7391 0.0744 0.3173
S2A S 0.9781(3) 0.0237(2) 0.92487(6)
C15A C 1.2388(12) 0.1280(13) 0.9312(3)
H12A H 1.2181 0.2518 0.9306
H13A H 1.3232 0.1002 0.9681
H14A H 1.3177 0.0893 0.8985
C16A C 0.8718(8) 0.0359(7) 0.8496(2)
C17A C 0.6775(9) -0.0596(7) 0.8312(2)
H15A H 0.6120 -0.1225 0.8588
C18A C 0.5800(8) -0.0630(7) 0.7729(2)
H16A H 0.4515 -0.1295 0.7621
C19A C 0.6692(7) 0.0307(6) 0.7296(2)
C20A C 0.5654(7) 0.0202(6) 0.66670(19)
C21A C 0.6802(7) 0.0648(6) 0.6210(2)
H17A H 0.8211 0.1151 0.6299
C22A C 0.5911(7) 0.0369(6) 0.55972(19)
C23A C 0.7119(7) 0.0756(6) 0.5129(2)
H18A H 0.8522 0.1272 0.5213
C24A C 0.3739(7) -0.0382(5) 0.54595(19)
C25A C 0.8631(8) 0.1275(7) 0.7489(2)
H19A H 0.9269 0.1921 0.7214
C26A C 0.9637(9) 0.1311(8) 0.8071(2)
H20A H 1.0927 0.1969 0.8180
C27A C 0.2533(7) -0.0773(6) 0.5950(2)
H21A H 0.1097 -0.1233 0.5873
C28A C 0.3443(7) -0.0487(7) 0.6521(2)
H22A H 0.2609 -0.0744 0.6827
loop_
_geom_bond_atom_site_label_1
_geom_bond_atom_site_label_2
_geom_bond_site_symmetry_1
_geom_bond_site_symmetry_2
S1 C1 1_555 1_555
C1 H1 1_555 1_555
H2 C1 1_555 1_555
H3 C1 1_555 1_555
C2 S1 1_555 1_555
C3 C2 1_555 1_555
H4 C3 1_555 1_555
C4 C3 1_555 1_555
H5 C4 1_555 1_555
C5 C4 1_555 1_555
C6 C5 1_555 1_555
C7 C6 1_555 1_555
H6 C7 1_555 1_555
C8 C7 1_555 1_555
H7 C8 1_555 1_555
C9 C8 1_555 1_555
C10 C9 1_555 1_555
H8 C10 1_555 1_555
C11 C9 1_555 1_555
C12 C6 1_555 1_555
H9 C12 1_555 1_555
C13 C5 1_555 1_555
H10 C13 1_555 1_555
C14 C2 1_555 1_555
H11 C14 1_555 1_555
S2 C15 1_555 1_555
C15 H12 1_555 1_555
H13 C15 1_555 1_555
H14 C15 1_555 1_555
C16 S2 1_555 1_555
C17 C16 1_555 1_555
H15 C17 1_555 1_555
C18 C17 1_555 1_555
H16 C18 1_555 1_555
C19 C18 1_555 1_555
C20 C19 1_555 1_555
C21 C20 1_555 1_555
H17 C21 1_555 1_555
C22 C21 1_555 1_555
C23 C22 1_555 1_555
H18 C23 1_555 1_555
C24 C22 1_555 1_555
C25 C19 1_555 1_555
H19 C25 1_555 1_555
C26 C16 1_555 1_555
H20 C26 1_555 1_555
C27 C24 1_555 1_555
H21 C27 1_555 1_555
C28 C20 1_555 1_555
H22 C28 1_555 1_555
S1A C1A 1_555 1_555
C1A H1A 1_555 1_555
H2A C1A 1_555 1_555
H3A C1A 1_555 1_555
C2A S1A 1_555 1_555
C3A C2A 1_555 1_555
H4A C3A 1_555 1_555
C4A C3A 1_555 1_555
H5A C4A 1_555 1_555
C5A C4A 1_555 1_555
C6A C5A 1_555 1_555
C7A C6A 1_555 1_555
H6A C7A 1_555 1_555
C8A C7A 1_555 1_555
H7A C8A 1_555 1_555
C9A C8A 1_555 1_555
C10A C11 1_555 1_555
H8A C10A 1_555 1_555
C11A C10 1_555 1_555
C12A C6A 1_555 1_555
H9A C12A 1_555 1_555
C13A C5A 1_555 1_555
H10A C13A 1_555 1_555
C14A C2A 1_555 1_555
H11A C14A 1_555 1_555
S2A C15A 1_555 1_555
C15A H12A 1_555 1_555
H13A C15A 1_555 1_555
H14A C15A 1_555 1_555
C16A S2A 1_555 1_555
C17A C16A 1_555 1_555
H15A C17A 1_555 1_555
C18A C17A 1_555 1_555
H16A C18A 1_555 1_555
C19A C18A 1_555 1_555
C20A C19A 1_555 1_555
C21A C20A 1_555 1_555
H17A C21A 1_555 1_555
C22A C21A 1_555 1_555
C23A C24 1_555 1_555
H18A C23A 1_555 1_555
C24A C23 1_555 1_555
C25A C19A 1_555 1_555
H19A C25A 1_555 1_555
C26A C16A 1_555 1_555
H20A C26A 1_555 1_555
C27A C24A 1_555 1_555
H21A C27A 1_555 1_555
C28A C20A 1_555 1_555
H22A C28A 1_555 1_555
C11 C12 1_555 1_555
C13 C14 1_555 1_555
C25 C26 1_555 1_555
C27 C28 1_555 1_555
C9A C10A 1_555 1_555
C9A C11A 1_555 1_555
C11A C12A 1_555 1_555
C13A C14A 1_555 1_555
C22A C23A 1_555 1_555
C22A C24A 1_555 1_555
C25A C26A 1_555 1_555
C27A C28A 1_555 1_555

#END
