
#######################################################################
#
#                 Cambridge Crystallographic Data Centre
#                                CCDC 
#
#######################################################################
#
# If this CIF has been generated from an entry in the Cambridge 
# Structural Database, then it will include bibliographic, chemical, 
# crystal, experimental, refinement or atomic coordinate data resulting 
# from the CCDC's data processing and validation procedures.
#
#######################################################################

data_IKOTEJ
_chemical_formula_moiety         'C30 H26'
_chemical_name_systematic        2,6-bis(4-Ethylphenyl)anthracene
_symmetry_cell_setting           monoclinic
_symmetry_space_group_name_H-M   'P 21/c'
_symmetry_Int_Tables_number      14
_space_group_name_Hall           '-P 2ybc'
loop_
_symmetry_equiv_pos_site_id
_symmetry_equiv_pos_as_xyz
1 x,y,z
2 -x,1/2+y,1/2-z
3 -x,-y,-z
4 x,1/2-y,1/2+z
_cell_length_a                   22.6620(15)
_cell_length_b                   7.71880(10)
_cell_length_c                   6.04260(10)
_cell_angle_alpha                90
_cell_angle_beta                 92.479(7)
_cell_angle_gamma                90
_cell_volume                     1056
_exptl_crystal_colour            colorless
_exptl_crystal_description       prism
_chemical_melting_point          '309 K'
_cell_formula_units_Z            2
_exptl_crystal_recrystallization_method Sublimation
loop_
_atom_site_label
_atom_site_type_symbol
_atom_site_fract_x
_atom_site_fract_y
_atom_site_fract_z
C1 C 0.95195(6) 0.04769(16) -0.1435(2)
C2 C 0.94186(6) -0.02933(17) 0.0689(2)
C3 C 1.00943(6) 0.07558(17) -0.2052(2)
H1 H 1.0157 0.1267 -0.3416
C4 C 0.88282(7) -0.05028(18) 0.1341(2)
H2 H 0.8764 -0.1025 0.2696
C5 C 0.83500(7) 0.00341(17) 0.0054(2)
C6 C 0.77383(7) -0.00346(18) 0.0853(2)
C7 C 0.90147(7) 0.09428(18) -0.2783(2)
H3 H 0.9068 0.1402 -0.4183
C8 C 0.84618(7) 0.07377(18) -0.2090(2)
H4 H 0.8144 0.1060 -0.3025
C9 C 0.70396(9) -0.0942(2) 0.3536(3)
H5 H 0.6968 -0.1546 0.4830
C10 C 0.76020(8) -0.0920(2) 0.2769(3)
H6 H 0.7900 -0.1516 0.3554
C11 C 0.72753(8) 0.0827(3) -0.0237(3)
H7 H 0.7347 0.1449 -0.1516
C12 C 0.65788(9) -0.0093(3) 0.2437(4)
C13 C 0.67106(9) 0.0787(3) 0.0530(4)
H8 H 0.6410 0.1369 -0.0260
C14 C 0.5980(4) -0.0107(14) 0.3304(11)
H9 H 0.5881 -0.1313 0.3549
H10 H 0.6012 0.0434 0.4753
C15 C 0.5514(3) 0.060(2) 0.2249(15)
H11 H 0.5571 0.1828 0.2135
H12 H 0.5166 0.0371 0.3057
H13 H 0.5467 0.0110 0.0792
C1B C 1.04805(6) -0.04769(16) 0.1435(2)
C2B C 1.05814(6) 0.02933(17) -0.0689(2)
C3B C 0.99057(6) -0.07558(17) 0.2052(2)
H1B H 0.9843 -0.1267 0.3416
C4B C 1.11718(7) 0.05028(18) -0.1341(2)
H2B H 1.1236 0.1025 -0.2696
C5B C 1.16500(7) -0.00341(17) -0.0054(2)
C6B C 1.22617(7) 0.00346(18) -0.0853(2)
C7B C 1.09853(7) -0.09428(18) 0.2783(2)
H3B H 1.0932 -0.1402 0.4183
C8B C 1.15382(7) -0.07377(18) 0.2090(2)
H4B H 1.1856 -0.1060 0.3025
C9B C 1.29604(9) 0.0942(2) -0.3536(3)
H5B H 1.3032 0.1546 -0.4830
C10B C 1.23980(8) 0.0920(2) -0.2769(3)
H6B H 1.2100 0.1516 -0.3554
C11B C 1.27247(8) -0.0827(3) 0.0237(3)
H7B H 1.2653 -0.1449 0.1516
C12B C 1.34212(9) 0.0093(3) -0.2437(4)
C13B C 1.32894(9) -0.0787(3) -0.0530(4)
H8B H 1.3590 -0.1369 0.0260
C14B C 1.4020(4) 0.0107(14) -0.3304(11)
H9B H 1.4119 0.1313 -0.3549
H10B H 1.3988 -0.0434 -0.4753
C15B C 1.4486(3) -0.060(2) -0.2249(15)
H11B H 1.4429 -0.1828 -0.2135
H12B H 1.4834 -0.0371 -0.3057
H13B H 1.4533 -0.0110 -0.0792
C16? C 0.5932(6) -0.013(2) 0.356(2)
H14? H 0.5981 -0.0382 0.5132
H15? H 0.5741 0.0991 0.3392
C17? C 0.5598(4) -0.1360(19) 0.254(2)
H16? H 0.5580 -0.1153 0.0976
H17? H 0.5207 -0.1329 0.3091
H18? H 0.5771 -0.2477 0.2840
loop_
_geom_bond_atom_site_label_1
_geom_bond_atom_site_label_2
_geom_bond_site_symmetry_1
_geom_bond_site_symmetry_2
C1 C2 1_555 1_555
C2 C4 1_555 1_555
C3 C1 1_555 1_555
H1 C3 1_555 1_555
C4 H2 1_555 1_555
C5 C4 1_555 1_555
C6 C5 1_555 1_555
C7 C1 1_555 1_555
H3 C7 1_555 1_555
C8 C5 1_555 1_555
H4 C8 1_555 1_555
C9 H5 1_555 1_555
C10 C6 1_555 1_555
H6 C10 1_555 1_555
C11 C6 1_555 1_555
H7 C11 1_555 1_555
C12 C9 1_555 1_555
C13 C11 1_555 1_555
H8 C13 1_555 1_555
C14 C12 1_555 1_555
H9 C14 1_555 1_555
H10 C14 1_555 1_555
C15 C14 1_555 1_555
H11 C15 1_555 1_555
H12 C15 1_555 1_555
H13 C15 1_555 1_555
C1B C2B 1_555 1_555
C2B C3 1_555 1_555
C3B C2 1_555 1_555
H1B C3B 1_555 1_555
C4B C2B 1_555 1_555
H2B C4B 1_555 1_555
C5B C4B 1_555 1_555
C6B C5B 1_555 1_555
C7B C1B 1_555 1_555
H3B C7B 1_555 1_555
C8B C5B 1_555 1_555
H4B C8B 1_555 1_555
C9B H5B 1_555 1_555
C10B C6B 1_555 1_555
H6B C10B 1_555 1_555
C11B C6B 1_555 1_555
H7B C11B 1_555 1_555
C12B C9B 1_555 1_555
C13B C11B 1_555 1_555
H8B C13B 1_555 1_555
C14B C12B 1_555 1_555
H9B C14B 1_555 1_555
H10B C14B 1_555 1_555
C15B C14B 1_555 1_555
H11B C15B 1_555 1_555
H12B C15B 1_555 1_555
H13B C15B 1_555 1_555
C7 C8 1_555 1_555
C9 C10 1_555 1_555
C12 C13 1_555 1_555
C1B C3B 1_555 1_555
C7B C8B 1_555 1_555
C9B C10B 1_555 1_555
C12B C13B 1_555 1_555

#END
