
#######################################################################
#
#                 Cambridge Crystallographic Data Centre
#                                CCDC 
#
#######################################################################
#
# If this CIF has been generated from an entry in the Cambridge 
# Structural Database, then it will include bibliographic, chemical, 
# crystal, experimental, refinement or atomic coordinate data resulting 
# from the CCDC's data processing and validation procedures.
#
#######################################################################

data_IKUJIJ
_chemical_name_common            salprzelactone
_chemical_formula_moiety         'C18 H16 O4'
_chemical_name_systematic        
6-methyl-3-(4-methyl-2-oxotetrahydrofuran-3-yl)naphtho[1,2-c]furan-1(3H)-one
_symmetry_cell_setting           orthorhombic
_symmetry_space_group_name_H-M   'P 21 21 21'
_symmetry_Int_Tables_number      19
_space_group_name_Hall           'P 2ac 2ab'
loop_
_symmetry_equiv_pos_site_id
_symmetry_equiv_pos_as_xyz
1 x,y,z
2 1/2-x,-y,1/2+z
3 -x,1/2+y,1/2-z
4 1/2+x,1/2-y,-z
_cell_length_a                   7.453(9)
_cell_length_b                   8.876(11)
_cell_length_c                   21.43(3)
_cell_angle_alpha                90
_cell_angle_beta                 90
_cell_angle_gamma                90
_cell_volume                     1417.66
_exptl_crystal_colour            colorless
_exptl_crystal_description       block
_cell_formula_units_Z            4
loop_
_atom_site_label
_atom_site_type_symbol
_atom_site_fract_x
_atom_site_fract_y
_atom_site_fract_z
C1 C 0.0438(7) 0.7625(5) 0.7831(2)
H1 H 0.1534 0.8125 0.7838
C2 C -0.0619(8) 0.7696(6) 0.7322(2)
H2 H -0.0256 0.8266 0.6981
C3 C -0.2218(8) 0.6942(6) 0.7300(2)
H3 H -0.2904 0.6999 0.6938
C4 C -0.2845(7) 0.6114(6) 0.7786(2)
C5 C -0.1782(6) 0.6044(5) 0.8326(2)
C6 C -0.2356(6) 0.5241(5) 0.8858(2)
H4 H -0.3452 0.4740 0.8845
C7 C -0.1377(5) 0.5178(5) 0.9379(2)
H5 H -0.1797 0.4652 0.9725
C8 C 0.0251(5) 0.5893(4) 0.9401(2)
C9 C 0.0862(5) 0.6676(5) 0.8904(2)
C10 C -0.0128(6) 0.6795(5) 0.8345(2)
C11 C 0.1527(5) 0.6061(5) 0.99180(18)
H6 H 0.0937 0.6617 1.0255
C12 C 0.2540(7) 0.7370(5) 0.9069(3)
C13 C 0.2327(5) 0.4662(4) 1.01839(18)
H7 H 0.1351 0.3964 1.0285
C14 C 0.3444(5) 0.4898(5) 1.07649(19)
H8 H 0.3961 0.5913 1.0752
C15 C 0.4917(6) 0.3778(6) 1.0686(2)
H9 H 0.6035 0.4178 1.0848
H10 H 0.4635 0.2856 1.0909
C16 C 0.3571(6) 0.3898(5) 0.9737(2)
C17 C -0.4601(7) 0.5317(7) 0.7739(2)
H11 H -0.5060 0.5413 0.7322
H12 H -0.5435 0.5755 0.8028
H13 H -0.4438 0.4270 0.7836
C18 C 0.2419(7) 0.4722(6) 1.1360(2)
H14 H 0.3222 0.4830 1.1708
H15 H 0.1874 0.3743 1.1372
H16 H 0.1504 0.5481 1.1383
O1 O 0.3379(4) 0.3660(4) 0.91993(15)
O2 O 0.5069(4) 0.3487(3) 1.00360(15)
O3 O 0.2934(4) 0.6987(3) 0.96648(15)
O4 O 0.3513(5) 0.8173(4) 0.87921(16)
loop_
_geom_bond_atom_site_label_1
_geom_bond_atom_site_label_2
_geom_bond_site_symmetry_1
_geom_bond_site_symmetry_2
C1 H1 1_555 1_555
C2 C1 1_555 1_555
H2 C2 1_555 1_555
C3 C2 1_555 1_555
H3 C3 1_555 1_555
C4 C3 1_555 1_555
C5 C4 1_555 1_555
C6 C5 1_555 1_555
H4 C6 1_555 1_555
C7 C6 1_555 1_555
H5 C7 1_555 1_555
C8 C7 1_555 1_555
C9 C8 1_555 1_555
C10 C1 1_555 1_555
C11 C8 1_555 1_555
H6 C11 1_555 1_555
C12 C9 1_555 1_555
C13 C11 1_555 1_555
H7 C13 1_555 1_555
C14 C13 1_555 1_555
H8 C14 1_555 1_555
C15 C14 1_555 1_555
H9 C15 1_555 1_555
H10 C15 1_555 1_555
C16 C13 1_555 1_555
C17 C4 1_555 1_555
H11 C17 1_555 1_555
H12 C17 1_555 1_555
H13 C17 1_555 1_555
C18 C14 1_555 1_555
H14 C18 1_555 1_555
H15 C18 1_555 1_555
H16 C18 1_555 1_555
O1 C16 1_555 1_555
O2 C15 1_555 1_555
O3 C11 1_555 1_555
O4 C12 1_555 1_555
C5 C10 1_555 1_555
C9 C10 1_555 1_555
C12 O3 1_555 1_555
C16 O2 1_555 1_555

#END
