
#######################################################################
#
#                 Cambridge Crystallographic Data Centre
#                                CCDC 
#
#######################################################################
#
# If this CIF has been generated from an entry in the Cambridge 
# Structural Database, then it will include bibliographic, chemical, 
# crystal, experimental, refinement or atomic coordinate data resulting 
# from the CCDC's data processing and validation procedures.
#
#######################################################################

data_IKUJOP
_chemical_formula_moiety         'C19 H26 O3'
_chemical_name_systematic        
10-hydroxy-11b-(hydroxymethyl)-4,4,8-trimethyl-1,2,3,4,4a,5,6,11b-octahydro-9H-cyclohepta[a]naphthalen-9-one
_symmetry_cell_setting           monoclinic
_symmetry_space_group_name_H-M   'P 21'
_symmetry_Int_Tables_number      4
_space_group_name_Hall           'P 2yb'
loop_
_symmetry_equiv_pos_site_id
_symmetry_equiv_pos_as_xyz
1 x,y,z
2 -x,1/2+y,-z
_cell_length_a                   7.380(8)
_cell_length_b                   10.816(11)
_cell_length_c                   10.184(10)
_cell_angle_alpha                90
_cell_angle_beta                 91.694(9)
_cell_angle_gamma                90
_cell_volume                     812.553
_exptl_crystal_colour            colorless
_exptl_crystal_description       block
_cell_formula_units_Z            2
loop_
_atom_site_label
_atom_site_type_symbol
_atom_site_fract_x
_atom_site_fract_y
_atom_site_fract_z
C1 C 0.1193(3) 0.20747(18) 0.5802(2)
H1 H 0.0336 0.2038 0.6505
H2 H 0.1652 0.2914 0.5762
C2 C 0.0214(3) 0.1768(2) 0.4512(2)
H3 H -0.0321 0.0952 0.4568
H4 H -0.0757 0.2359 0.4352
C3 C 0.1481(4) 0.1802(2) 0.3397(2)
H5 H 0.1987 0.2627 0.3333
H6 H 0.0803 0.1634 0.2586
C4 C 0.3030(3) 0.0872(2) 0.3538(2)
C5 C 0.3983(3) 0.10513(18) 0.49071(18)
H7 H 0.4623 0.1842 0.4844
C6 C 0.5478(3) 0.0095(2) 0.5170(2)
H8 H 0.4977 -0.0724 0.5025
H9 H 0.6424 0.0218 0.4542
C7 C 0.6306(3) 0.0154(2) 0.6532(2)
H10 H 0.7612 0.0198 0.6457
H11 H 0.6038 -0.0617 0.6972
C8 C 0.5732(2) 0.11990(18) 0.74067(18)
C9 C 0.4015(2) 0.16946(16) 0.72517(17)
C10 C 0.2782(2) 0.11899(16) 0.61250(18)
C11 C 0.3311(3) 0.25987(19) 0.80682(19)
H12 H 0.2106 0.2795 0.7872
C12 C 0.4048(3) 0.32542(19) 0.91020(19)
C13 C 0.5819(3) 0.3218(2) 0.97270(19)
C14 C 0.7163(3) 0.2354(2) 0.93803(19)
C15 C 0.7059(2) 0.15165(17) 0.83765(18)
H13 H 0.8108 0.1045 0.8318
C16 C 0.1973(3) -0.00408(18) 0.66020(18)
H14 H 0.1092 -0.0338 0.5951
H15 H 0.2931 -0.0652 0.6688
C17 C 0.8866(3) 0.2392(3) 1.0217(3)
H16 H 0.9663 0.1741 0.9958
H17 H 0.8573 0.2284 1.1122
H18 H 0.9455 0.3175 1.0109
C18 C 0.2309(4) -0.0440(2) 0.3306(2)
H19 H 0.1412 -0.0626 0.3941
H20 H 0.3291 -0.1020 0.3394
H21 H 0.1774 -0.0497 0.2438
C19 C 0.4403(5) 0.1139(3) 0.2475(2)
H22 H 0.3817 0.1069 0.1624
H23 H 0.5380 0.0553 0.2546
H24 H 0.4874 0.1960 0.2589
O1 O 0.11286(18) 0.00897(16) 0.78192(14)
H25 H 0.1815 -0.0157 0.8411
O2 O 0.2953(2) 0.40998(17) 0.96393(18)
H26 H 0.3555 0.4557 1.0124
O3 O 0.6086(2) 0.40039(17) 1.06334(15)
loop_
_geom_bond_atom_site_label_1
_geom_bond_atom_site_label_2
_geom_bond_site_symmetry_1
_geom_bond_site_symmetry_2
C1 H1 1_555 1_555
H2 C1 1_555 1_555
C2 C1 1_555 1_555
H3 C2 1_555 1_555
H4 C2 1_555 1_555
C3 C2 1_555 1_555
H5 C3 1_555 1_555
H6 C3 1_555 1_555
C4 C3 1_555 1_555
C5 C4 1_555 1_555
H7 C5 1_555 1_555
C6 C5 1_555 1_555
H8 C6 1_555 1_555
H9 C6 1_555 1_555
C7 C6 1_555 1_555
H10 C7 1_555 1_555
H11 C7 1_555 1_555
C8 C7 1_555 1_555
C9 C8 1_555 1_555
C10 C1 1_555 1_555
C11 C9 1_555 1_555
H12 C11 1_555 1_555
C12 C11 1_555 1_555
C13 C12 1_555 1_555
C14 C13 1_555 1_555
C15 C8 1_555 1_555
H13 C15 1_555 1_555
C16 C10 1_555 1_555
H14 C16 1_555 1_555
H15 C16 1_555 1_555
C17 C14 1_555 1_555
H16 C17 1_555 1_555
H17 C17 1_555 1_555
H18 C17 1_555 1_555
C18 C4 1_555 1_555
H19 C18 1_555 1_555
H20 C18 1_555 1_555
H21 C18 1_555 1_555
C19 C4 1_555 1_555
H22 C19 1_555 1_555
H23 C19 1_555 1_555
H24 C19 1_555 1_555
O1 C16 1_555 1_555
H25 O1 1_555 1_555
O2 C12 1_555 1_555
H26 O2 1_555 1_555
O3 C13 1_555 1_555
C5 C10 1_555 1_555
C9 C10 1_555 1_555
C14 C15 1_555 1_555

#END
