
#######################################################################
#
#                 Cambridge Crystallographic Data Centre
#                                CCDC 
#
#######################################################################
#
# If this CIF has been generated from an entry in the Cambridge 
# Structural Database, then it will include bibliographic, chemical, 
# crystal, experimental, refinement or atomic coordinate data resulting 
# from the CCDC's data processing and validation procedures.
#
#######################################################################

data_IKUZAR
_chemical_formula_moiety         'C3 Br1 I2 N1 S1'
_chemical_name_systematic        2-bromo-4,5-diiodo-1,3-thiazole
_symmetry_cell_setting           orthorhombic
_symmetry_space_group_name_H-M   'P 21 21 21'
_symmetry_Int_Tables_number      19
_space_group_name_Hall           'P 2ac 2ab'
loop_
_symmetry_equiv_pos_site_id
_symmetry_equiv_pos_as_xyz
1 x,y,z
2 1/2-x,-y,1/2+z
3 -x,1/2+y,1/2-z
4 1/2+x,1/2-y,-z
_cell_length_a                   4.2100(4)
_cell_length_b                   13.2907(10)
_cell_length_c                   14.1228(11)
_cell_angle_alpha                90
_cell_angle_beta                 90
_cell_angle_gamma                90
_cell_volume                     790.225
_exptl_crystal_colour            colorless
_exptl_crystal_description       plate
_cell_formula_units_Z            4
_exptl_crystal_recrystallization_method dichloromethane
loop_
_atom_site_label
_atom_site_type_symbol
_atom_site_fract_x
_atom_site_fract_y
_atom_site_fract_z
I1 I 0.32122(14) 0.47890(5) 0.65693(5)
I2 I 0.03018(15) 0.36109(5) 0.41909(5)
Br1 Br 0.6140(3) 0.73539(7) 0.29776(7)
S1 S 0.5776(6) 0.64409(18) 0.50185(17)
N1 N 0.3243(19) 0.5551(6) 0.3584(6)
C1 C 0.382(2) 0.5311(7) 0.5203(7)
C2 C 0.488(2) 0.6341(7) 0.3841(6)
C3 C 0.267(2) 0.4972(7) 0.4370(7)
loop_
_geom_bond_atom_site_label_1
_geom_bond_atom_site_label_2
_geom_bond_site_symmetry_1
_geom_bond_site_symmetry_2
I1 C1 1_555 1_555
I2 C3 1_555 1_555
Br1 C2 1_555 1_555
S1 C1 1_555 1_555
N1 C2 1_555 1_555
C1 C3 1_555 1_555
C2 S1 1_555 1_555
C3 N1 1_555 1_555

#END
