
#######################################################################
#
#                 Cambridge Crystallographic Data Centre
#                                CCDC 
#
#######################################################################
#
# If this CIF has been generated from an entry in the Cambridge 
# Structural Database, then it will include bibliographic, chemical, 
# crystal, experimental, refinement or atomic coordinate data resulting 
# from the CCDC's data processing and validation procedures.
#
#######################################################################

data_ILEGOW
_chemical_formula_moiety         'C56 H80 N4,2(C4 H8 O1)'
_chemical_name_systematic        
"N,N',N'',N'''-tetrakis(2,6-Di-isopropylphenyl)cyclohexane-1,4-dicarboximidamide tetrahydrofuran solvate"
_symmetry_cell_setting           rhombohedral
_symmetry_space_group_name_H-M   'R -3'
_symmetry_Int_Tables_number      148
_space_group_name_Hall           '-R 3'
loop_
_symmetry_equiv_pos_site_id
_symmetry_equiv_pos_as_xyz
1 x,y,z
2 -y,x-y,z
3 -x+y,-x,z
4 2/3+x,1/3+y,1/3+z
5 2/3-y,1/3+x-y,1/3+z
6 2/3-x+y,1/3-x,1/3+z
7 1/3+x,2/3+y,2/3+z
8 1/3-y,2/3+x-y,2/3+z
9 1/3-x+y,2/3-x,2/3+z
10 -x,-y,-z
11 y,-x+y,-z
12 x-y,x,-z
13 1/3-x,2/3-y,2/3-z
14 1/3+y,2/3-x+y,2/3-z
15 1/3+x-y,2/3+x,2/3-z
16 2/3-x,1/3-y,1/3-z
17 2/3+y,1/3-x+y,1/3-z
18 2/3+x-y,1/3+x,1/3-z
_cell_length_a                   30.603(4)
_cell_length_b                   30.603(4)
_cell_length_c                   17.212(3)
_cell_angle_alpha                90
_cell_angle_beta                 90
_cell_angle_gamma                120
_cell_volume                     13960.1
_exptl_crystal_colour            colorless
_exptl_crystal_description       block
_cell_formula_units_Z            9
_exptl_crystal_recrystallization_method toluene
loop_
_atom_site_label
_atom_site_type_symbol
_atom_site_fract_x
_atom_site_fract_y
_atom_site_fract_z
N1 N 0.22290(15) 0.11001(17) 0.7771(2)
H1 H 0.2205 0.1195 0.7310
N2 N 0.27086(15) 0.09485(15) 0.8633(2)
C1 C 0.26684(18) 0.11253(17) 0.7972(3)
C2 C 0.18003(18) 0.0925(2) 0.8278(3)
C3 C 0.1440(2) 0.0408(2) 0.8305(3)
C4 C 0.1016(2) 0.0264(3) 0.8756(4)
H2 H 0.0768 -0.0074 0.8780
C5 C 0.0957(3) 0.0614(3) 0.9170(4)
H3 H 0.0669 0.0510 0.9472
C6 C 0.1309(2) 0.1108(3) 0.9143(4)
H4 H 0.1260 0.1338 0.9428
C7 C 0.1740(2) 0.1279(2) 0.8704(3)
C8 C 0.1507(2) 0.0023(2) 0.7852(4)
H5 H 0.1856 0.0192 0.7664
C9 C 0.1169(5) -0.0156(6) 0.7149(7)
H6 H 0.1268 -0.0343 0.6816
H7 H 0.1198 0.0130 0.6872
H8 H 0.0826 -0.0368 0.7311
C10 C 0.1434(5) -0.0410(4) 0.8348(6)
H9 H 0.1651 -0.0284 0.8793
H10 H 0.1514 -0.0627 0.8053
H11 H 0.1089 -0.0597 0.8517
C11 C 0.2126(3) 0.1843(2) 0.8674(4)
H12 H 0.2449 0.1875 0.8524
C12 C 0.1991(4) 0.2097(3) 0.8058(6)
H13 H 0.1675 0.2074 0.8183
H14 H 0.1964 0.1936 0.7568
H15 H 0.2249 0.2446 0.8025
C13 C 0.2208(4) 0.2110(3) 0.9447(5)
H16 H 0.2453 0.2461 0.9387
H17 H 0.2327 0.1961 0.9821
H18 H 0.1895 0.2076 0.9624
C14 C 0.31699(19) 0.10052(19) 0.8907(3)
C15 C 0.3436(2) 0.1374(2) 0.9479(3)
C16 C 0.3873(3) 0.1420(3) 0.9779(4)
H19 H 0.4053 0.1669 1.0147
C17 C 0.4052(3) 0.1105(3) 0.9547(4)
H20 H 0.4345 0.1138 0.9763
C18 C 0.3793(3) 0.0747(3) 0.9001(4)
H21 H 0.3916 0.0539 0.8839
C19 C 0.3343(2) 0.0682(2) 0.8676(3)
C20 C 0.3239(3) 0.1709(2) 0.9785(4)
H22 H 0.2974 0.1676 0.9428
C21 C 0.3001(5) 0.1529(4) 1.0558(6)
H23 H 0.2851 0.1169 1.0584
H24 H 0.2746 0.1620 1.0635
H25 H 0.3254 0.1682 1.0956
C22 C 0.3628(4) 0.2252(3) 0.9817(7)
H26 H 0.3468 0.2450 0.9899
H27 H 0.3811 0.2350 0.9337
H28 H 0.3857 0.2308 1.0237
C23 C 0.3055(2) 0.0254(2) 0.8102(3)
H29 H 0.2801 0.0310 0.7845
C24 C 0.3394(3) 0.0225(4) 0.7472(4)
H30 H 0.3555 0.0536 0.7186
H31 H 0.3193 -0.0049 0.7125
H32 H 0.3646 0.0170 0.7710
C25 C 0.2782(4) -0.0243(3) 0.8529(5)
H33 H 0.3020 -0.0290 0.8829
H34 H 0.2619 -0.0513 0.8161
H35 H 0.2534 -0.0242 0.8868
C26 C 0.30927(18) 0.13809(18) 0.7381(3)
H36 H 0.3377 0.1347 0.7566
C27 C 0.3276(2) 0.19454(18) 0.7316(3)
H37 H 0.3003 0.1993 0.7132
H38 H 0.3378 0.2101 0.7824
C28 C 0.3719(2) 0.21955(19) 0.6756(3)
H39 H 0.3999 0.2165 0.6958
H40 H 0.3829 0.2552 0.6714
N1O N 0.44377(15) 0.22332(17) 0.5562(2)
H1O H 0.4462 0.2138 0.6023
N2O N 0.39581(15) 0.23848(15) 0.4700(2)
C1O C 0.39983(18) 0.22080(17) 0.5361(3)
C2O C 0.48664(18) 0.2408(2) 0.5055(3)
C3O C 0.5227(2) 0.2925(2) 0.5028(3)
C4O C 0.5651(2) 0.3069(3) 0.4577(4)
H2O H 0.5899 0.3407 0.4553
C5O C 0.5710(3) 0.2719(3) 0.4163(4)
H3O H 0.5998 0.2823 0.3861
C6O C 0.5358(2) 0.2225(3) 0.4190(4)
H4O H 0.5407 0.1995 0.3905
C7O C 0.4927(2) 0.2054(2) 0.4629(3)
C8O C 0.5160(2) 0.3310(2) 0.5481(4)
H5O H 0.4811 0.3141 0.5669
C9O C 0.5498(5) 0.3489(6) 0.6184(7)
H6O H 0.5399 0.3676 0.6517
H7O H 0.5469 0.3203 0.6461
H8O H 0.5841 0.3701 0.6022
C10O C 0.5233(5) 0.3743(4) 0.4985(6)
H9O H 0.5016 0.3617 0.4540
H10O H 0.5153 0.3960 0.5280
H11O H 0.5578 0.3930 0.4816
C11O C 0.4541(3) 0.1490(2) 0.4659(4)
H12O H 0.4218 0.1458 0.4809
C12O C 0.4676(4) 0.1236(3) 0.5275(6)
H13O H 0.4992 0.1259 0.5150
H14O H 0.4703 0.1397 0.5765
H15O H 0.4418 0.0887 0.5308
C13O C 0.4459(4) 0.1223(3) 0.3886(5)
H16O H 0.4214 0.0872 0.3946
H17O H 0.4340 0.1372 0.3512
H18O H 0.4772 0.1257 0.3709
C14O C 0.34968(19) 0.23281(19) 0.4426(3)
C15O C 0.3231(2) 0.1959(2) 0.3854(3)
C16O C 0.2794(3) 0.1913(3) 0.3554(4)
H19O H 0.2614 0.1664 0.3186
C17O C 0.2615(3) 0.2228(3) 0.3786(4)
H20O H 0.2322 0.2195 0.3570
C18O C 0.2874(3) 0.2586(3) 0.4332(4)
H21O H 0.2751 0.2794 0.4494
C19O C 0.3324(2) 0.2651(2) 0.4657(3)
C20O C 0.3428(3) 0.1624(2) 0.3548(4)
H22O H 0.3693 0.1657 0.3905
C21O C 0.3666(5) 0.1804(4) 0.2775(6)
H23O H 0.3816 0.2164 0.2749
H24O H 0.3921 0.1713 0.2698
H25O H 0.3413 0.1651 0.2377
C22O C 0.3039(4) 0.1081(3) 0.3516(7)
H26O H 0.3199 0.0883 0.3434
H27O H 0.2856 0.0983 0.3996
H28O H 0.2810 0.1025 0.3096
C23O C 0.3612(2) 0.3079(2) 0.5231(3)
H29O H 0.3866 0.3023 0.5488
C24O C 0.3273(3) 0.3108(4) 0.5861(4)
H30O H 0.3112 0.2797 0.6147
H31O H 0.3474 0.3382 0.6208
H32O H 0.3021 0.3163 0.5623
C25O C 0.3885(4) 0.3576(3) 0.4804(5)
H33O H 0.3647 0.3623 0.4504
H34O H 0.4048 0.3846 0.5172
H35O H 0.4133 0.3575 0.4465
C26O C 0.35740(18) 0.19524(18) 0.5952(3)
H36O H 0.3290 0.1986 0.5767
C27O C 0.3391(2) 0.13879(18) 0.6017(3)
H37O H 0.3664 0.1340 0.6201
H38O H 0.3289 0.1232 0.5509
C28O C 0.2948(2) 0.11378(19) 0.6577(3)
H39O H 0.2668 0.1168 0.6375
H40O H 0.2838 0.0781 0.6619
O1 O 0.1871(3) 0.1329(3) 0.6279(5)
C29 C 0.2048(6) 0.1603(6) 0.5604(10)
H41 H 0.2153 0.1430 0.5242
H42 H 0.2336 0.1933 0.5713
C30 C 0.1624(6) 0.1656(6) 0.5263(10)
H43 H 0.1730 0.2008 0.5175
H44 H 0.1512 0.1476 0.4774
C31 C 0.1227(7) 0.1440(7) 0.5832(11)
H45 H 0.0902 0.1251 0.5578
H46 H 0.1227 0.1704 0.6144
H47 H 0.1238 0.1103 0.6876
H48 H 0.1171 0.0758 0.6151
C32 C 0.1331(6) 0.1092(6) 0.6341(10)
loop_
_geom_bond_atom_site_label_1
_geom_bond_atom_site_label_2
_geom_bond_site_symmetry_1
_geom_bond_site_symmetry_2
N1 H1 1_555 1_555
N2 C1 1_555 1_555
C1 N1 1_555 1_555
C2 N1 1_555 1_555
C3 C2 1_555 1_555
C4 C3 1_555 1_555
H2 C4 1_555 1_555
C5 C4 1_555 1_555
H3 C5 1_555 1_555
C6 C5 1_555 1_555
H4 C6 1_555 1_555
C7 C2 1_555 1_555
C8 C3 1_555 1_555
H5 C8 1_555 1_555
C9 C8 1_555 1_555
H6 C9 1_555 1_555
H7 C9 1_555 1_555
H8 C9 1_555 1_555
C10 C8 1_555 1_555
H9 C10 1_555 1_555
H10 C10 1_555 1_555
H11 C10 1_555 1_555
C11 C7 1_555 1_555
H12 C11 1_555 1_555
C12 C11 1_555 1_555
H13 C12 1_555 1_555
H14 C12 1_555 1_555
H15 C12 1_555 1_555
C13 C11 1_555 1_555
H16 C13 1_555 1_555
H17 C13 1_555 1_555
H18 C13 1_555 1_555
C14 N2 1_555 1_555
C15 C14 1_555 1_555
C16 C15 1_555 1_555
H19 C16 1_555 1_555
C17 C16 1_555 1_555
H20 C17 1_555 1_555
C18 C17 1_555 1_555
H21 C18 1_555 1_555
C19 C14 1_555 1_555
C20 C15 1_555 1_555
H22 C20 1_555 1_555
C21 C20 1_555 1_555
H23 C21 1_555 1_555
H24 C21 1_555 1_555
H25 C21 1_555 1_555
C22 C20 1_555 1_555
H26 C22 1_555 1_555
H27 C22 1_555 1_555
H28 C22 1_555 1_555
C23 C19 1_555 1_555
H29 C23 1_555 1_555
C24 C23 1_555 1_555
H30 C24 1_555 1_555
H31 C24 1_555 1_555
H32 C24 1_555 1_555
C25 C23 1_555 1_555
H33 C25 1_555 1_555
H34 C25 1_555 1_555
H35 C25 1_555 1_555
C26 C1 1_555 1_555
H36 C26 1_555 1_555
C27 C26 1_555 1_555
H37 C27 1_555 1_555
H38 C27 1_555 1_555
C28 C27 1_555 1_555
H39 C28 1_555 1_555
H40 C28 1_555 1_555
O1 C29 1_555 1_555
C29 H41 1_555 1_555
H42 C29 1_555 1_555
C30 C29 1_555 1_555
H43 C30 1_555 1_555
H44 C30 1_555 1_555
C31 C30 1_555 1_555
H45 C31 1_555 1_555
H46 C31 1_555 1_555
H47 C32 1_555 1_555
H48 C32 1_555 1_555
C32 O1 1_555 1_555
N1O H1O 1_555 1_555
N2O C1O 1_555 1_555
C1O N1O 1_555 1_555
C2O N1O 1_555 1_555
C3O C2O 1_555 1_555
C4O C3O 1_555 1_555
H2O C4O 1_555 1_555
C5O C4O 1_555 1_555
H3O C5O 1_555 1_555
C6O C5O 1_555 1_555
H4O C6O 1_555 1_555
C7O C2O 1_555 1_555
C8O C3O 1_555 1_555
H5O C8O 1_555 1_555
C9O C8O 1_555 1_555
H6O C9O 1_555 1_555
H7O C9O 1_555 1_555
H8O C9O 1_555 1_555
C10O C8O 1_555 1_555
H9O C10O 1_555 1_555
H10O C10O 1_555 1_555
H11O C10O 1_555 1_555
C11O C7O 1_555 1_555
H12O C11O 1_555 1_555
C12O C11O 1_555 1_555
H13O C12O 1_555 1_555
H14O C12O 1_555 1_555
H15O C12O 1_555 1_555
C13O C11O 1_555 1_555
H16O C13O 1_555 1_555
H17O C13O 1_555 1_555
H18O C13O 1_555 1_555
C14O N2O 1_555 1_555
C15O C14O 1_555 1_555
C16O C15O 1_555 1_555
H19O C16O 1_555 1_555
C17O C16O 1_555 1_555
H20O C17O 1_555 1_555
C18O C17O 1_555 1_555
H21O C18O 1_555 1_555
C19O C14O 1_555 1_555
C20O C15O 1_555 1_555
H22O C20O 1_555 1_555
C21O C20O 1_555 1_555
H23O C21O 1_555 1_555
H24O C21O 1_555 1_555
H25O C21O 1_555 1_555
C22O C20O 1_555 1_555
H26O C22O 1_555 1_555
H27O C22O 1_555 1_555
H28O C22O 1_555 1_555
C23O C19O 1_555 1_555
H29O C23O 1_555 1_555
C24O C23O 1_555 1_555
H30O C24O 1_555 1_555
H31O C24O 1_555 1_555
H32O C24O 1_555 1_555
C25O C23O 1_555 1_555
H33O C25O 1_555 1_555
H34O C25O 1_555 1_555
H35O C25O 1_555 1_555
C26O C28 1_555 1_555
H36O C26O 1_555 1_555
C27O C26O 1_555 1_555
H37O C27O 1_555 1_555
H38O C27O 1_555 1_555
C28O C26 1_555 1_555
H39O C28O 1_555 1_555
H40O C28O 1_555 1_555
C6 C7 1_555 1_555
C18 C19 1_555 1_555
C31 C32 1_555 1_555
C1O C26O 1_555 1_555
C6O C7O 1_555 1_555
C18O C19O 1_555 1_555
C27O C28O 1_555 1_555

#END
