
#######################################################################
#
#                 Cambridge Crystallographic Data Centre
#                                CCDC 
#
#######################################################################
#
# If this CIF has been generated from an entry in the Cambridge 
# Structural Database, then it will include bibliographic, chemical, 
# crystal, experimental, refinement or atomic coordinate data resulting 
# from the CCDC's data processing and validation procedures.
#
#######################################################################

data_ILETIE
_chemical_formula_moiety         'C30 H31 N1 P2'
_chemical_name_systematic        
'N-Cyclohexyl-N-(diphenylphosphino)-P,P-diphenylphosphinous amide'
_symmetry_cell_setting           monoclinic
_symmetry_space_group_name_H-M   'P 21/n'
_symmetry_Int_Tables_number      14
_space_group_name_Hall           '-P 2yn'
loop_
_symmetry_equiv_pos_site_id
_symmetry_equiv_pos_as_xyz
1 x,y,z
2 1/2-x,1/2+y,1/2-z
3 -x,-y,-z
4 1/2+x,1/2-y,1/2+z
_cell_length_a                   15.8251(19)
_cell_length_b                   10.3667(12)
_cell_length_c                   15.900(2)
_cell_angle_alpha                90
_cell_angle_beta                 107.225(3)
_cell_angle_gamma                90
_cell_volume                     2491.47
_exptl_crystal_colour            colorless
_exptl_crystal_description       block
_cell_formula_units_Z            4
loop_
_atom_site_label
_atom_site_type_symbol
_atom_site_fract_x
_atom_site_fract_y
_atom_site_fract_z
P1 P 0.25311(2) 0.27024(4) -0.15952(2)
P2 P 0.24260(2) 0.33002(4) 0.02011(2)
N1 N 0.19833(8) 0.34013(11) -0.09196(8)
C1 C 0.35635(10) 0.36090(14) -0.13673(9)
C2 C 0.36406(10) 0.48882(15) -0.10942(11)
H1 H 0.3170 0.5285 -0.0932
C3 C 0.43980(11) 0.55940(17) -0.10556(12)
H2 H 0.4440 0.6468 -0.0869
C4 C 0.50880(11) 0.50372(18) -0.12861(12)
H3 H 0.5607 0.5521 -0.1252
C5 C 0.50209(11) 0.37705(18) -0.15668(12)
H4 H 0.5493 0.3382 -0.1730
C6 C 0.42652(11) 0.30673(17) -0.16106(12)
H5 H 0.4223 0.2199 -0.1810
C7 C 0.29205(10) 0.11333(15) -0.10958(10)
C8 C 0.24135(12) 0.00628(16) -0.14739(11)
H6 H 0.1902 0.0179 -0.1964
C9 C 0.26464(14) -0.11676(17) -0.11433(12)
H7 H 0.2296 -0.1887 -0.1406
C10 C 0.33862(13) -0.13446(17) -0.04339(12)
H8 H 0.3543 -0.2186 -0.0205
C11 C 0.39000(12) -0.03012(17) -0.00550(12)
H9 H 0.4413 -0.0428 0.0432
C12 C 0.36711(11) 0.09349(16) -0.03817(11)
H10 H 0.4028 0.1648 -0.0117
C13 C 0.15777(9) 0.24342(14) 0.05630(9)
C14 C 0.16179(10) 0.10848(14) 0.05834(9)
H11 H 0.2077 0.0657 0.0421
C15 C 0.09970(11) 0.03661(15) 0.08383(10)
H12 H 0.1027 -0.0549 0.0839
C16 C 0.03341(11) 0.09730(16) 0.10917(10)
H13 H -0.0086 0.0478 0.1273
C17 C 0.02855(10) 0.23042(16) 0.10803(11)
H14 H -0.0170 0.2724 0.1254
C18 C 0.09000(10) 0.30297(15) 0.08161(10)
H15 H 0.0858 0.3944 0.0808
C19 C 0.23179(9) 0.49151(14) 0.06269(9)
C20 C 0.26633(10) 0.50792(16) 0.15393(10)
H16 H 0.2870 0.4348 0.1902
C21 C 0.27096(10) 0.62842(16) 0.19237(10)
H17 H 0.2949 0.6375 0.2544
C22 C 0.24078(10) 0.73571(16) 0.14054(11)
H18 H 0.2448 0.8188 0.1666
C23 C 0.20472(11) 0.72139(15) 0.05066(11)
H19 H 0.1824 0.7946 0.0151
C24 C 0.20092(10) 0.60052(15) 0.01199(10)
H20 H 0.1769 0.5922 -0.0500
C25 C 0.10196(9) 0.36463(14) -0.13511(9)
H21 H 0.0776 0.4051 -0.0901
C26 C 0.08620(10) 0.45907(15) -0.21243(10)
H22 H 0.1173 0.5412 -0.1917
H23 H 0.1105 0.4224 -0.2579
C27 C -0.01297(10) 0.48507(16) -0.25257(11)
H24 H -0.0362 0.5274 -0.2082
H25 H -0.0220 0.5445 -0.3032
C28 C -0.06356(11) 0.36054(17) -0.28315(11)
H26 H -0.0439 0.3216 -0.3310
H27 H -0.1276 0.3794 -0.3066
C29 C -0.04762(10) 0.26594(17) -0.20664(11)
H28 H -0.0726 0.3017 -0.1614
H29 H -0.0784 0.1838 -0.2280
C30 C 0.05078(10) 0.23986(15) -0.16541(10)
H30 H 0.0746 0.1963 -0.2090
H31 H 0.0591 0.1814 -0.1144
loop_
_geom_bond_atom_site_label_1
_geom_bond_atom_site_label_2
_geom_bond_site_symmetry_1
_geom_bond_site_symmetry_2
P1 N1 1_555 1_555
P2 N1 1_555 1_555
N1 C25 1_555 1_555
C1 P1 1_555 1_555
C2 C1 1_555 1_555
H1 C2 1_555 1_555
C3 C2 1_555 1_555
H2 C3 1_555 1_555
C4 C3 1_555 1_555
H3 C4 1_555 1_555
C5 C4 1_555 1_555
H4 C5 1_555 1_555
C6 C1 1_555 1_555
H5 C6 1_555 1_555
C7 P1 1_555 1_555
C8 C7 1_555 1_555
H6 C8 1_555 1_555
C9 C8 1_555 1_555
H7 C9 1_555 1_555
C10 C9 1_555 1_555
H8 C10 1_555 1_555
C11 C10 1_555 1_555
H9 C11 1_555 1_555
C12 C7 1_555 1_555
H10 C12 1_555 1_555
C13 P2 1_555 1_555
C14 C13 1_555 1_555
H11 C14 1_555 1_555
C15 C14 1_555 1_555
H12 C15 1_555 1_555
C16 C15 1_555 1_555
H13 C16 1_555 1_555
C17 C16 1_555 1_555
H14 C17 1_555 1_555
C18 C13 1_555 1_555
H15 C18 1_555 1_555
C19 P2 1_555 1_555
C20 C19 1_555 1_555
H16 C20 1_555 1_555
C21 C20 1_555 1_555
H17 C21 1_555 1_555
C22 C21 1_555 1_555
H18 C22 1_555 1_555
C23 C22 1_555 1_555
H19 C23 1_555 1_555
C24 C19 1_555 1_555
H20 C24 1_555 1_555
C25 H21 1_555 1_555
C26 C25 1_555 1_555
H22 C26 1_555 1_555
H23 C26 1_555 1_555
C27 C26 1_555 1_555
H24 C27 1_555 1_555
H25 C27 1_555 1_555
C28 C27 1_555 1_555
H26 C28 1_555 1_555
H27 C28 1_555 1_555
C29 C28 1_555 1_555
H28 C29 1_555 1_555
H29 C29 1_555 1_555
C30 C25 1_555 1_555
H30 C30 1_555 1_555
H31 C30 1_555 1_555
C5 C6 1_555 1_555
C11 C12 1_555 1_555
C17 C18 1_555 1_555
C23 C24 1_555 1_555
C29 C30 1_555 1_555

#END
