
#######################################################################
#
#                 Cambridge Crystallographic Data Centre
#                                CCDC 
#
#######################################################################
#
# If this CIF has been generated from an entry in the Cambridge 
# Structural Database, then it will include bibliographic, chemical, 
# crystal, experimental, refinement or atomic coordinate data resulting 
# from the CCDC's data processing and validation procedures.
#
#######################################################################

data_ILINIA
_chemical_formula_moiety         'C24 H27 N1 O4'
_chemical_name_systematic        
3,3,6,6-Tetramethyl-9-(3,4-methylenedioxylphenyl)-1,2,3,4,5,6,7,8,9,10-decahydroacridine-1,8-dione
_symmetry_cell_setting           orthorhombic
_symmetry_space_group_name_H-M   'P c a 21'
_symmetry_Int_Tables_number      29
_space_group_name_Hall           'P 2c -2ac'
loop_
_symmetry_equiv_pos_site_id
_symmetry_equiv_pos_as_xyz
1 x,y,z
2 -x,-y,1/2+z
3 1/2+x,-y,z
4 1/2-x,y,1/2+z
_cell_length_a                   14.080(2)
_cell_length_b                   15.158(3)
_cell_length_c                   20.233(4)
_cell_angle_alpha                90
_cell_angle_beta                 90
_cell_angle_gamma                90
_cell_volume                     4318.22
_exptl_crystal_colour            yellow
_exptl_crystal_description       block
_chemical_melting_point          'above 300deg.C'
_cell_formula_units_Z            8
_exptl_crystal_recrystallization_method ethanol
loop_
_atom_site_label
_atom_site_type_symbol
_atom_site_fract_x
_atom_site_fract_y
_atom_site_fract_z
O1 O 0.4793(2) 0.2161(2) 0.44293(19)
O2 O 0.33067(19) 0.4685(2) 0.57109(19)
O3 O 0.3241(3) 0.5267(3) 0.2536(2)
O4 O 0.2272(2) 0.4378(3) 0.3172(2)
N1 N 0.6570(2) 0.4546(2) 0.52459(19)
H1 H 0.7111 0.4808 0.5268
C1 C 0.6500(3) 0.3748(3) 0.4906(2)
C2 C 0.7422(3) 0.3323(3) 0.4734(2)
H2 H 0.7691 0.3060 0.5129
H3 H 0.7860 0.3773 0.4580
C3 C 0.7324(3) 0.2609(3) 0.4198(2)
C4 C 0.6481(3) 0.2036(3) 0.4379(3)
H4 H 0.6370 0.1624 0.4020
H5 H 0.6647 0.1692 0.4767
C5 C 0.5570(3) 0.2518(3) 0.4519(2)
C6 C 0.5638(3) 0.3400(3) 0.4786(2)
C7 C 0.4738(3) 0.3920(3) 0.4911(2)
H6 H 0.4261 0.3511 0.5086
C8 C 0.4924(3) 0.4616(3) 0.5437(2)
C9 C 0.4127(3) 0.4955(3) 0.5813(3)
C10 C 0.4331(3) 0.5600(3) 0.6346(2)
H7 H 0.4474 0.5280 0.6749
H8 H 0.3765 0.5950 0.6426
C11 C 0.5152(3) 0.6218(3) 0.6193(2)
C12 C 0.6019(3) 0.5658(3) 0.6022(2)
H9 H 0.6503 0.6034 0.5830
H10 H 0.6275 0.5406 0.6425
C13 C 0.5794(3) 0.4926(3) 0.5547(3)
C14 C 0.4343(3) 0.4316(3) 0.4275(2)
C15 C 0.4914(4) 0.4881(3) 0.3900(3)
H11 H 0.5517 0.5030 0.4052
C16 C 0.4592(4) 0.5224(4) 0.3299(3)
H12 H 0.4976 0.5584 0.3040
C17 C 0.3701(4) 0.5013(3) 0.3109(3)
C18 C 0.3138(3) 0.4497(3) 0.3477(3)
C19 C 0.3430(3) 0.4130(3) 0.4066(3)
H13 H 0.3029 0.3770 0.4313
C20 C 0.2341(5) 0.4888(4) 0.2581(3)
H14 H 0.2229 0.4514 0.2200
H15 H 0.1862 0.5348 0.2583
C21 C 0.8233(3) 0.2053(3) 0.4181(3)
H16 H 0.8321 0.1772 0.4602
H17 H 0.8767 0.2428 0.4089
H18 H 0.8180 0.1613 0.3842
C22 C 0.7149(4) 0.3041(3) 0.3522(3)
H19 H 0.7022 0.2592 0.3199
H20 H 0.7702 0.3370 0.3393
H21 H 0.6614 0.3432 0.3552
C23 C 0.5382(3) 0.6786(3) 0.6812(3)
H22 H 0.4831 0.7121 0.6935
H23 H 0.5896 0.7180 0.6712
H24 H 0.5561 0.6406 0.7171
C24 C 0.4876(3) 0.6818(3) 0.5619(2)
H25 H 0.4765 0.6467 0.5232
H26 H 0.5380 0.7228 0.5534
H27 H 0.4308 0.7135 0.5731
O5 O 0.0994(2) 0.9777(2) 0.0301(2)
O6 O 0.2455(2) 0.7192(2) 0.1562(2)
O7 O 0.0666(3) 1.0093(3) 0.3454(2)
O8 O -0.0227(3) 0.9229(3) 0.2744(2)
N2 N 0.4239(2) 0.9612(2) 0.08287(18)
H28 H 0.4780 0.9875 0.0825
C25 C 0.3478(3) 1.0003(3) 0.0527(3)
C26 C 0.3717(3) 1.0765(3) 0.0078(2)
H29 H 0.3995 1.0536 -0.0325
H30 H 0.4191 1.1131 0.0293
C27 C 0.2859(3) 1.1337(3) -0.0100(2)
C28 C 0.2049(3) 1.0716(3) -0.0289(2)
H31 H 0.1485 1.1065 -0.0375
H32 H 0.2217 1.0416 -0.0696
C29 C 0.1819(3) 1.0041(3) 0.0225(3)
C30 C 0.2599(3) 0.9688(3) 0.0612(2)
C31 C 0.2390(3) 0.8954(3) 0.1097(2)
H33 H 0.1939 0.8546 0.0889
C32 C 0.3298(3) 0.8451(3) 0.1242(2)
C33 C 0.3226(3) 0.7555(3) 0.1503(3)
C34 C 0.4127(3) 0.7069(3) 0.1662(3)
H34 H 0.4316 0.6728 0.1279
H35 H 0.4002 0.6657 0.2019
C35 C 0.4948(3) 0.7665(3) 0.1863(2)
C36 C 0.5077(3) 0.8371(3) 0.1323(2)
H36 H 0.5518 0.8816 0.1480
H37 H 0.5351 0.8099 0.0934
C37 C 0.4158(3) 0.8806(3) 0.1138(2)
C38 C 0.1940(3) 0.9301(3) 0.1736(2)
C39 C 0.2447(4) 0.9844(4) 0.2154(3)
H38 H 0.3059 1.0014 0.2037
C40 C 0.2067(4) 1.0144(4) 0.2744(3)
H39 H 0.2411 1.0513 0.3022
C41 C 0.1183(4) 0.9884(4) 0.2900(3)
C42 C 0.0665(3) 0.9365(3) 0.2489(3)
C43 C 0.1022(3) 0.9070(3) 0.1897(3)
H40 H 0.0656 0.8727 0.1614
C44 C -0.0221(4) 0.9649(5) 0.3375(3)
H41 H -0.0303 0.9214 0.3721
H42 H -0.0739 1.0069 0.3403
C45 C 0.3115(4) 1.1947(3) -0.0677(3)
H43 H 0.3311 1.1599 -0.1049
H44 H 0.3624 1.2331 -0.0548
H45 H 0.2570 1.2294 -0.0796
C46 C 0.2543(3) 1.1896(3) 0.0494(3)
H46 H 0.2019 1.2264 0.0367
H47 H 0.3062 1.2260 0.0638
H48 H 0.2352 1.1515 0.0848
C47 C 0.5879(3) 0.7133(3) 0.1917(3)
H49 H 0.5815 0.6695 0.2257
H50 H 0.6393 0.7524 0.2025
H51 H 0.6008 0.6849 0.1503
C48 C 0.4752(3) 0.8089(3) 0.2534(3)
H52 H 0.4189 0.8444 0.2506
H53 H 0.5280 0.8453 0.2658
H54 H 0.4663 0.7635 0.2860
loop_
_geom_bond_atom_site_label_1
_geom_bond_atom_site_label_2
_geom_bond_site_symmetry_1
_geom_bond_site_symmetry_2
O1 C5 1_555 1_555
O2 C9 1_555 1_555
O3 C17 1_555 1_555
O4 C18 1_555 1_555
N1 H1 1_555 1_555
C1 N1 1_555 1_555
C2 C1 1_555 1_555
H2 C2 1_555 1_555
H3 C2 1_555 1_555
C3 C2 1_555 1_555
C4 C3 1_555 1_555
H4 C4 1_555 1_555
H5 C4 1_555 1_555
C5 C4 1_555 1_555
C6 C1 1_555 1_555
C7 C6 1_555 1_555
H6 C7 1_555 1_555
C8 C7 1_555 1_555
C9 C8 1_555 1_555
C10 C9 1_555 1_555
H7 C10 1_555 1_555
H8 C10 1_555 1_555
C11 C10 1_555 1_555
C12 C11 1_555 1_555
H9 C12 1_555 1_555
H10 C12 1_555 1_555
C13 N1 1_555 1_555
C14 C7 1_555 1_555
C15 C14 1_555 1_555
H11 C15 1_555 1_555
C16 C15 1_555 1_555
H12 C16 1_555 1_555
C17 C16 1_555 1_555
C18 C17 1_555 1_555
C19 C14 1_555 1_555
H13 C19 1_555 1_555
C20 O3 1_555 1_555
H14 C20 1_555 1_555
H15 C20 1_555 1_555
C21 C3 1_555 1_555
H16 C21 1_555 1_555
H17 C21 1_555 1_555
H18 C21 1_555 1_555
C22 C3 1_555 1_555
H19 C22 1_555 1_555
H20 C22 1_555 1_555
H21 C22 1_555 1_555
C23 C11 1_555 1_555
H22 C23 1_555 1_555
H23 C23 1_555 1_555
H24 C23 1_555 1_555
C24 C11 1_555 1_555
H25 C24 1_555 1_555
H26 C24 1_555 1_555
H27 C24 1_555 1_555
O5 C29 1_555 1_555
O6 C33 1_555 1_555
O7 C41 1_555 1_555
O8 C42 1_555 1_555
N2 H28 1_555 1_555
C25 N2 1_555 1_555
C26 C25 1_555 1_555
H29 C26 1_555 1_555
H30 C26 1_555 1_555
C27 C26 1_555 1_555
C28 C27 1_555 1_555
H31 C28 1_555 1_555
H32 C28 1_555 1_555
C29 C28 1_555 1_555
C30 C25 1_555 1_555
C31 C30 1_555 1_555
H33 C31 1_555 1_555
C32 C31 1_555 1_555
C33 C32 1_555 1_555
C34 C33 1_555 1_555
H34 C34 1_555 1_555
H35 C34 1_555 1_555
C35 C34 1_555 1_555
C36 C35 1_555 1_555
H36 C36 1_555 1_555
H37 C36 1_555 1_555
C37 N2 1_555 1_555
C38 C31 1_555 1_555
C39 C38 1_555 1_555
H38 C39 1_555 1_555
C40 C39 1_555 1_555
H39 C40 1_555 1_555
C41 C40 1_555 1_555
C42 C41 1_555 1_555
C43 C38 1_555 1_555
H40 C43 1_555 1_555
C44 O7 1_555 1_555
H41 C44 1_555 1_555
H42 C44 1_555 1_555
C45 C27 1_555 1_555
H43 C45 1_555 1_555
H44 C45 1_555 1_555
H45 C45 1_555 1_555
C46 C27 1_555 1_555
H46 C46 1_555 1_555
H47 C46 1_555 1_555
H48 C46 1_555 1_555
C47 C35 1_555 1_555
H49 C47 1_555 1_555
H50 C47 1_555 1_555
H51 C47 1_555 1_555
C48 C35 1_555 1_555
H52 C48 1_555 1_555
H53 C48 1_555 1_555
H54 C48 1_555 1_555
O4 C20 1_555 1_555
C5 C6 1_555 1_555
C8 C13 1_555 1_555
C12 C13 1_555 1_555
C18 C19 1_555 1_555
O8 C44 1_555 1_555
C29 C30 1_555 1_555
C32 C37 1_555 1_555
C36 C37 1_555 1_555
C42 C43 1_555 1_555

#END
