
#######################################################################
#
#                 Cambridge Crystallographic Data Centre
#                                CCDC 
#
#######################################################################
#
# If this CIF has been generated from an entry in the Cambridge 
# Structural Database, then it will include bibliographic, chemical, 
# crystal, experimental, refinement or atomic coordinate data resulting 
# from the CCDC's data processing and validation procedures.
#
#######################################################################

data_ILIQEZ
_chemical_compound_source        'Aspergillus clavatus, strain BYY-1'
_chemical_name_common            Clavatol
_chemical_formula_moiety         'C10 H12 O3'
_chemical_name_systematic        1-(2,4-Dihydroxy-3,5-dimethylphenyl)ethanone
_chemical_properties_biological  
'exhibits antifungal activity towards Candida albicans and Aspergillus niger and moderate antitumour activity against Raji, KB and A549 cancer cell lines'
_symmetry_cell_setting           monoclinic
_symmetry_space_group_name_H-M   'P 21/c'
_symmetry_Int_Tables_number      14
_space_group_name_Hall           '-P 2ybc'
loop_
_symmetry_equiv_pos_site_id
_symmetry_equiv_pos_as_xyz
1 x,y,z
2 x,1/2-y,1/2+z
3 -x,-y,-z
4 -x,1/2+y,1/2-z
_cell_length_a                   8.3180(10)
_cell_length_b                   15.200(3)
_cell_length_c                   7.2040(10)
_cell_angle_alpha                90
_cell_angle_beta                 96.896(3)
_cell_angle_gamma                90
_cell_volume                     904.238
_exptl_crystal_colour            colorless
_exptl_crystal_description       block
_cell_formula_units_Z            4
_exptl_crystal_recrystallization_method methanol
loop_
_atom_site_label
_atom_site_type_symbol
_atom_site_fract_x
_atom_site_fract_y
_atom_site_fract_z
O1 O 0.69574(13) 0.24726(7) 0.17498(18)
O2 O 0.51388(12) 0.37873(7) 0.08559(18)
O3 O -0.01831(11) 0.32842(7) -0.17279(16)
C1 C 0.42724(15) 0.22866(9) 0.04071(18)
C2 C 0.39759(14) 0.31959(9) 0.02716(18)
C3 C 0.24782(15) 0.35241(9) -0.04823(18)
C4 C 0.12568(14) 0.29264(10) -0.10492(18)
C5 C 0.14846(15) 0.20111(9) -0.09173(17)
C6 C 0.29907(15) 0.17190(9) -0.02101(18)
C7 C 0.58499(15) 0.19577(10) 0.11649(19)
C8 C 0.61857(19) 0.09957(12) 0.1245(3)
C9 C 0.2196(2) 0.44927(11) -0.0692(3)
C10 C 0.01309(18) 0.13858(11) -0.1530(2)
H1 H 0.5968 0.3527 0.1273
H2 H -0.0826 0.2891 -0.2071
H3 H 0.3172 0.1116 -0.0136
H4 H 0.7302 0.0899 0.1713
H5 H 0.5966 0.0749 0.0014
H6 H 0.5506 0.0719 0.2061
H7 H 0.1592 0.4611 -0.1887
H8 H 0.3219 0.4792 -0.0608
H9 H 0.1598 0.4697 0.0282
H10 H 0.0507 0.0792 -0.1338
H11 H -0.0231 0.1476 -0.2832
H12 H -0.0751 0.1489 -0.0811
loop_
_geom_bond_atom_site_label_1
_geom_bond_atom_site_label_2
_geom_bond_site_symmetry_1
_geom_bond_site_symmetry_2
O1 C7 1_555 1_555
O2 C2 1_555 1_555
O3 C4 1_555 1_555
C1 C2 1_555 1_555
C2 C3 1_555 1_555
C3 C4 1_555 1_555
C4 C5 1_555 1_555
C5 C6 1_555 1_555
C6 C1 1_555 1_555
C7 C1 1_555 1_555
C8 C7 1_555 1_555
C9 C3 1_555 1_555
C10 C5 1_555 1_555
H1 O2 1_555 1_555
H2 O3 1_555 1_555
H3 C6 1_555 1_555
H4 C8 1_555 1_555
H5 C8 1_555 1_555
H6 C8 1_555 1_555
H7 C9 1_555 1_555
H8 C9 1_555 1_555
H9 C9 1_555 1_555
H10 C10 1_555 1_555
H11 C10 1_555 1_555
H12 C10 1_555 1_555

#END
