
#######################################################################
#
#                 Cambridge Crystallographic Data Centre
#                                CCDC 
#
#######################################################################
#
# If this CIF has been generated from an entry in the Cambridge 
# Structural Database, then it will include bibliographic, chemical, 
# crystal, experimental, refinement or atomic coordinate data resulting 
# from the CCDC's data processing and validation procedures.
#
#######################################################################

data_ILIWUX
_chemical_formula_moiety         'C23 H17 N1 O2'
_chemical_name_systematic        2-(4-(Benzylamino)phenyl)-1,4-naphthoquinone
_symmetry_cell_setting           monoclinic
_symmetry_space_group_name_H-M   'P 21/c'
_symmetry_Int_Tables_number      14
_space_group_name_Hall           '-P 2ybc'
loop_
_symmetry_equiv_pos_site_id
_symmetry_equiv_pos_as_xyz
1 x,y,z
2 -x,1/2+y,1/2-z
3 -x,-y,-z
4 x,1/2-y,1/2+z
_cell_length_a                   10.0901(6)
_cell_length_b                   18.4990(8)
_cell_length_c                   9.1073(4)
_cell_angle_alpha                90
_cell_angle_beta                 97.460(4)
_cell_angle_gamma                90
_cell_volume                     1685.55
_exptl_crystal_colour            black
_exptl_crystal_description       parallelepiped
_cell_formula_units_Z            4
loop_
_atom_site_label
_atom_site_type_symbol
_atom_site_fract_x
_atom_site_fract_y
_atom_site_fract_z
O1 O 0.5840(3) 0.15314(12) 1.0119(3)
O2 O 0.8965(3) 0.30930(12) 0.7021(3)
N1 N 0.8233(4) -0.15184(15) 0.8467(3)
C1 C 0.6532(4) 0.18846(17) 0.9399(3)
C2 C 0.6440(4) 0.26907(16) 0.9369(3)
C3 C 0.5535(4) 0.30338(17) 1.0154(4)
H1 H 0.4982 0.2754 1.0704
C4 C 0.5426(4) 0.37826(18) 1.0147(4)
H2 H 0.4798 0.4012 1.0685
C5 C 0.6233(4) 0.41922(18) 0.9356(4)
H3 H 0.6170 0.4705 0.9362
C6 C 0.7122(4) 0.38593(18) 0.8564(4)
H4 H 0.7659 0.4142 0.8001
C7 C 0.7246(4) 0.31041(16) 0.8576(3)
C8 C 0.8247(4) 0.27405(16) 0.7749(3)
C9 C 0.8321(4) 0.19533(16) 0.7806(3)
H5 H 0.8961 0.1722 0.7287
C10 C 0.7534(4) 0.15286(16) 0.8552(3)
C11 C 0.7653(4) 0.07356(16) 0.8550(3)
C12 C 0.8913(4) 0.04264(16) 0.8442(3)
H6 H 0.9659 0.0735 0.8397
C13 C 0.9092(4) -0.03105(16) 0.8400(3)
H7 H 0.9959 -0.0500 0.8346
C14 C 0.8010(4) -0.07883(16) 0.8436(3)
C15 C 0.6749(4) -0.04853(16) 0.8504(4)
H8 H 0.5991 -0.0791 0.8498
C16 C 0.6600(4) 0.02570(16) 0.8581(3)
H9 H 0.5737 0.0447 0.8658
C17 C 0.7178(4) -0.20435(16) 0.8143(4)
H10 H 0.6770 -0.1987 0.7101
H11 H 0.6475 -0.1950 0.8784
C18 C 0.7675(4) -0.28083(16) 0.8383(4)
C19 C 0.8575(4) -0.29958(17) 0.9622(4)
H12 H 0.8902 -0.2633 1.0314
C20 C 0.8993(4) -0.37020(17) 0.9855(4)
H13 H 0.9606 -0.3821 1.0702
C21 C 0.8523(4) -0.42385(17) 0.8857(4)
H14 H 0.8797 -0.4726 0.9032
C22 C 0.7661(4) -0.40632(18) 0.7614(4)
H15 H 0.7353 -0.4427 0.6916
C23 C 0.7237(4) -0.33482(17) 0.7378(4)
H16 H 0.6640 -0.3230 0.6517
H17 H 0.891(5) -0.165(2) 0.833(5)
loop_
_geom_bond_atom_site_label_1
_geom_bond_atom_site_label_2
_geom_bond_site_symmetry_1
_geom_bond_site_symmetry_2
O1 C1 1_555 1_555
O2 C8 1_555 1_555
N1 C14 1_555 1_555
C1 C2 1_555 1_555
C2 C3 1_555 1_555
C3 H1 1_555 1_555
C4 C3 1_555 1_555
H2 C4 1_555 1_555
C5 C4 1_555 1_555
H3 C5 1_555 1_555
C6 C5 1_555 1_555
H4 C6 1_555 1_555
C7 C2 1_555 1_555
C8 C7 1_555 1_555
C9 C8 1_555 1_555
H5 C9 1_555 1_555
C10 C1 1_555 1_555
C11 C10 1_555 1_555
C12 C11 1_555 1_555
H6 C12 1_555 1_555
C13 C12 1_555 1_555
H7 C13 1_555 1_555
C14 C13 1_555 1_555
C15 C14 1_555 1_555
H8 C15 1_555 1_555
C16 C11 1_555 1_555
H9 C16 1_555 1_555
C17 N1 1_555 1_555
H10 C17 1_555 1_555
H11 C17 1_555 1_555
C18 C17 1_555 1_555
C19 C18 1_555 1_555
H12 C19 1_555 1_555
C20 C19 1_555 1_555
H13 C20 1_555 1_555
C21 C20 1_555 1_555
H14 C21 1_555 1_555
C22 C21 1_555 1_555
H15 C22 1_555 1_555
C23 C18 1_555 1_555
H16 C23 1_555 1_555
H17 N1 1_555 1_555
C6 C7 1_555 1_555
C9 C10 1_555 1_555
C15 C16 1_555 1_555
C22 C23 1_555 1_555

#END
