
#######################################################################
#
#                 Cambridge Crystallographic Data Centre
#                                CCDC 
#
#######################################################################
#
# If this CIF has been generated from an entry in the Cambridge 
# Structural Database, then it will include bibliographic, chemical, 
# crystal, experimental, refinement or atomic coordinate data resulting 
# from the CCDC's data processing and validation procedures.
#
#######################################################################

data_ILIXEG
_chemical_formula_moiety         'C45 H72 N2 O34 S1,15.5(H2 O1)'
_chemical_name_systematic        
'(3-Deoxy-3-(2-imidazolylthio))-altro-\b-cyclodextrin hydrate'
_symmetry_cell_setting           tetragonal
_symmetry_space_group_name_H-M   'P 41 21 2'
_symmetry_Int_Tables_number      92
_space_group_name_Hall           'P 4abw 2nw'
loop_
_symmetry_equiv_pos_site_id
_symmetry_equiv_pos_as_xyz
1 x,y,z
2 1/2+x,1/2-y,3/4-z
3 -x,-y,1/2+z
4 1/2-x,1/2+y,1/4-z
5 y,x,-z
6 1/2+y,1/2-x,3/4+z
7 1/2-y,1/2+x,1/4+z
8 -y,-x,1/2-z
_cell_length_a                   15.7589(8)
_cell_length_b                   15.7589(8)
_cell_length_c                   53.461(5)
_cell_angle_alpha                90
_cell_angle_beta                 90
_cell_angle_gamma                90
_cell_volume                     13276.7
_exptl_crystal_colour            colorless
_exptl_crystal_description       prism
_cell_formula_units_Z            8
loop_
_atom_site_label
_atom_site_type_symbol
_atom_site_fract_x
_atom_site_fract_y
_atom_site_fract_z
O1 O 0.9017(3) -0.1505(3) 0.24823(11)
C1 C 0.9123(5) -0.1508(5) 0.22267(17)
H1 H 0.9499 -0.1990 0.2176
C2 C 0.9542(5) -0.0641(5) 0.21522(14)
H2 H 0.9202 -0.0163 0.2224
O2 O 1.0389(3) -0.0611(3) 0.22490(9)
H3 H 1.0472 -0.0140 0.2319
C3 C 0.9576(5) -0.0558(5) 0.18711(14)
H4 H 0.9944 -0.1036 0.1812
C4 C 0.8700(5) -0.0709(5) 0.17489(15)
H5 H 0.8751 -0.0717 0.1562
C5 C 0.8333(5) -0.1554(5) 0.18456(15)
H6 H 0.7726 -0.1565 0.1791
O3 O 0.8318(3) -0.1587(3) 0.21107(10)
C6 C 0.8755(5) -0.2327(5) 0.17234(17)
H7 H 0.8803 -0.2237 0.1541
H8 H 0.9334 -0.2405 0.1792
O4 O 0.8250(4) -0.3069(3) 0.17732(11)
H9 H 0.7907 -0.3145 0.1655
O5 O 0.8168(3) -0.0006(3) 0.18298(9)
C7 C 0.7436(5) 0.0093(5) 0.16810(14)
H10 H 0.7570 -0.0109 0.1508
C8 C 0.7221(5) 0.1026(5) 0.16678(14)
H11 H 0.6714 0.1092 0.1557
O6 O 0.7886(3) 0.1517(3) 0.15659(9)
H12 H 0.7706 0.1786 0.1441
C9 C 0.6977(5) 0.1340(5) 0.19303(14)
H13 H 0.7468 0.1298 0.2048
O7 O 0.6688(3) 0.2213(3) 0.19065(11)
H14 H 0.6438 0.2360 0.2038
C10 C 0.6245(5) 0.0789(5) 0.20169(14)
H15 H 0.5742 0.0883 0.1906
C11 C 0.6477(5) -0.0152(5) 0.20193(15)
H16 H 0.6947 -0.0256 0.2141
O8 O 0.6747(3) -0.0380(3) 0.17718(9)
C12 C 0.5735(6) -0.0723(6) 0.20779(18)
H17 H 0.5913 -0.1322 0.2057
H18 H 0.5568 -0.0641 0.2255
O9 O 0.5024(4) -0.0567(4) 0.19230(11)
H19 H 0.5130 -0.0732 0.1777
O10 O 0.6048(3) 0.1068(3) 0.22700(9)
C13 C 0.5182(6) 0.1260(7) 0.23298(17)
H20 H 0.4859 0.1278 0.2169
C14 C 0.5145(7) 0.2105(7) 0.24392(18)
H21 H 0.4534 0.2272 0.2450
O11 O 0.5571(5) 0.2726(4) 0.22870(12)
H22 H 0.5282 0.3174 0.2283
C15 C 0.5502(6) 0.2114(5) 0.27026(16)
H23 H 0.6135 0.2067 0.2697
O12 O 0.5267(5) 0.2886(4) 0.28167(12)
H24 H 0.5677 0.3226 0.2811
C16 C 0.5147(5) 0.1412(6) 0.28503(15)
H25 H 0.4538 0.1531 0.2889
C17 C 0.5221(6) 0.0574(7) 0.27238(16)
H26 H 0.5837 0.0447 0.2700
O13 O 0.4821(4) 0.0623(5) 0.24775(12)
C18 C 0.4796(8) -0.0215(8) 0.2850(2)
H27 H 0.4882 -0.0722 0.2743
H28 H 0.5066 -0.0324 0.3014
O14 O 0.3937(6) -0.0075(6) 0.28823(18)
H29 H 0.3674 -0.0229 0.2753
O15 O 0.5638(3) 0.1396(3) 0.30809(10)
C19 C 0.5166(5) 0.1444(7) 0.33124(14)
H30 H 0.4560 0.1575 0.3273
C20 C 0.5525(6) 0.2155(6) 0.34644(17)
H31 H 0.5130 0.2254 0.3608
O16 O 0.5543(4) 0.2936(4) 0.33151(10)
H32 H 0.5304 0.3328 0.3395
C21 C 0.6392(5) 0.1982(5) 0.35725(15)
H33 H 0.6820 0.1979 0.3434
O17 O 0.6617(3) 0.2611(3) 0.37502(10)
H34 H 0.6970 0.2946 0.3686
C22 C 0.6396(5) 0.1146(5) 0.36978(15)
H35 H 0.6034 0.1177 0.3851
C23 C 0.6052(6) 0.0453(5) 0.35264(16)
H36 H 0.6441 0.0284 0.3387
O18 O 0.5196(4) 0.0694(5) 0.34467(11)
O20 O 0.7246(3) 0.0892(3) 0.37692(9)
C25 C 0.7461(5) 0.1010(5) 0.40190(16)
H40 H 0.7105 0.1474 0.4092
C26 C 0.8375(5) 0.1233(5) 0.40434(16)
H41 H 0.8513 0.1264 0.4226
O21 O 0.8546(3) 0.2035(3) 0.39368(10)
H42 H 0.9004 0.2014 0.3857
C27 C 0.8913(5) 0.0530(5) 0.39284(16)
H43 H 0.8787 0.0482 0.3746
O22 O 0.9797(3) 0.0739(3) 0.39644(11)
H44 H 1.0097 0.0435 0.3870
C28 C 0.8715(5) -0.0291(5) 0.40563(16)
H45 H 0.8951 -0.0279 0.4230
C29 C 0.7783(5) -0.0493(5) 0.40674(16)
H46 H 0.7583 -0.0631 0.3895
O23 O 0.7319(3) 0.0232(3) 0.41559(9)
C30 C 0.7492(5) -0.1197(6) 0.42440(19)
H47 H 0.6864 -0.1218 0.4244
H48 H 0.7702 -0.1748 0.4180
O24 O 0.7777(4) -0.1087(4) 0.44897(13)
H49 H 0.7790 -0.0567 0.4524
O25 O 0.9195(3) -0.0918(3) 0.39044(9)
C31 C 0.9235(6) -0.1774(5) 0.39766(17)
H50 H 0.9208 -0.1813 0.4163
C32 C 1.0055(6) -0.2158(6) 0.38858(16)
H51 H 1.0091 -0.2758 0.3946
O26 O 1.0746(4) -0.1686(4) 0.39892(11)
H52 H 1.1167 -0.2007 0.4008
C33 C 1.0078(6) -0.2153(5) 0.36041(16)
H53 H 1.0100 -0.1553 0.3544
O27 O 1.0816(4) -0.2580(4) 0.35269(11)
H54 H 1.0699 -0.2905 0.3407
C34 C 0.9304(6) -0.2576(6) 0.34996(16)
H55 H 0.9312 -0.3196 0.3540
C35 C 0.8480(6) -0.2167(7) 0.36002(18)
H56 H 0.8514 -0.1548 0.3561
O28 O 0.8537(4) -0.2245(4) 0.38696(13)
C36 C 0.7561(11) -0.2468(9) 0.3524(3)
H57 H 0.7113 -0.2215 0.3631
H58 H 0.7433 -0.2366 0.3346
O29 O 0.7705(7) -0.3351(10) 0.3579(3)
H59 H 0.7881 -0.3598 0.3450
O30 O 0.9323(4) -0.2456(3) 0.32314(10)
C37 C 0.9131(7) -0.3147(6) 0.30760(16)
H60 H 0.9100 -0.3672 0.3181
C38 C 0.9814(6) -0.3253(5) 0.28873(17)
H61 H 0.9704 -0.3782 0.2789
O31 O 1.0618(4) -0.3334(4) 0.30130(12)
H62 H 1.0931 -0.3668 0.2933
C39 C 0.9873(5) -0.2510(5) 0.27086(15)
H63 H 1.0097 -0.1998 0.2797
O32 O 1.0407(4) -0.2717(3) 0.25018(11)
H64 H 1.0881 -0.2479 0.2520
C40 C 0.8983(6) -0.2326(6) 0.26013(16)
H65 H 0.8818 -0.2773 0.2478
C41 C 0.8336(6) -0.2256(7) 0.28021(19)
H66 H 0.8412 -0.1733 0.2906
O33 O 0.8342(4) -0.3031(4) 0.29537(12)
C42 C 0.7443(11) -0.231(3) 0.2684(5)
H67 H 0.7398 -0.1926 0.2538
H68 H 0.7319 -0.2897 0.2629
O34 O 0.6855(10) -0.2048(15) 0.2883(3)
H69 H 0.6354 -0.2089 0.2831
S1 S 1.00927(14) 0.04111(14) 0.17613(4)
C43 C 0.9710(5) 0.1180(5) 0.19685(17)
N1 N 1.0027(5) 0.1328(4) 0.21980(14)
C44 C 0.9615(6) 0.2010(6) 0.22878(18)
H70 H 0.9701 0.2260 0.2448
C45 C 0.9062(6) 0.2281(5) 0.21137(18)
H71 H 0.8690 0.2752 0.2129
N2 N 0.9131(4) 0.1759(4) 0.19108(13)
H72 H 0.8847 0.1799 0.1770
C47 C 0.6099(14) -0.0498(10) 0.3595(3)
H76 H 0.5792 -0.0849 0.3471
H77 H 0.6695 -0.0693 0.3605
O52 O 0.5696(11) -0.0533(13) 0.3834(3)
H78 H 0.6054 -0.0425 0.3946
O35 O 0.9091(4) -0.2364(4) 0.10361(12)
O36 O 0.5076(7) 0.1263(5) 0.1266(2)
O37 O 0.8355(4) 0.2070(5) 0.46670(13)
O38 O 0.8005(7) 0.0389(6) 0.4766(2)
O39 O 0.6631(6) -0.3422(6) 0.4505(2)
O40 O 0.7002(9) -0.3780(8) 0.4068(2)
O41 O 0.7041(6) -0.1999(16) 0.4875(2)
O42 O 1.1121(3) -0.0145(4) 0.37629(13)
O43 O 0.5676(13) 0.4324(13) 0.2500
O44 O 0.8415(10) -0.3937(9) 0.4214(4)
O45 O 0.6988(17) -0.4156(12) 0.3079(3)
O46 O 0.8761(15) -0.2593(16) 0.4579(4)
O47 O 1.0736(12) -0.176(2) 0.4502(4)
O48 O 0.5035(18) 0.4432(17) 0.2010(6)
O49 O 0.488(4) 0.549(3) 0.2294(4)
O50 O 0.253(3) 0.007(2) 0.0188(6)
C24? C 0.5776(16) -0.0276(13) 0.3698(4)
H37? H 0.5516 -0.0710 0.3588
H38? H 0.6304 -0.0529 0.3765
O19? O 0.5212(8) -0.0176(12) 0.3908(3)
H39? H 0.5188 0.0338 0.3948
C46? C 0.7420(14) -0.2043(16) 0.2730(8)
H73? H 0.7122 -0.1771 0.2872
H74? H 0.7408 -0.1650 0.2586
O51? O 0.7019(12) -0.2841(12) 0.2666(4)
H75? H 0.6501 -0.2820 0.2703
loop_
_geom_bond_atom_site_label_1
_geom_bond_atom_site_label_2
_geom_bond_site_symmetry_1
_geom_bond_site_symmetry_2
O1 C1 1_555 1_555
C1 H1 1_555 1_555
C2 C1 1_555 1_555
H2 C2 1_555 1_555
O2 C2 1_555 1_555
H3 O2 1_555 1_555
C3 C2 1_555 1_555
H4 C3 1_555 1_555
C4 C3 1_555 1_555
H5 C4 1_555 1_555
C5 C4 1_555 1_555
H6 C5 1_555 1_555
O3 C1 1_555 1_555
C6 C5 1_555 1_555
H7 C6 1_555 1_555
H8 C6 1_555 1_555
O4 C6 1_555 1_555
H9 O4 1_555 1_555
O5 C4 1_555 1_555
C7 O5 1_555 1_555
H10 C7 1_555 1_555
C8 C7 1_555 1_555
H11 C8 1_555 1_555
O6 C8 1_555 1_555
H12 O6 1_555 1_555
C9 C8 1_555 1_555
H13 C9 1_555 1_555
O7 C9 1_555 1_555
H14 O7 1_555 1_555
C10 C9 1_555 1_555
H15 C10 1_555 1_555
C11 C10 1_555 1_555
H16 C11 1_555 1_555
O8 C7 1_555 1_555
C12 C11 1_555 1_555
H17 C12 1_555 1_555
H18 C12 1_555 1_555
O9 C12 1_555 1_555
H19 O9 1_555 1_555
O10 C10 1_555 1_555
C13 O10 1_555 1_555
H20 C13 1_555 1_555
C14 C13 1_555 1_555
H21 C14 1_555 1_555
O11 C14 1_555 1_555
H22 O11 1_555 1_555
C15 C14 1_555 1_555
H23 C15 1_555 1_555
O12 C15 1_555 1_555
H24 O12 1_555 1_555
C16 C15 1_555 1_555
H25 C16 1_555 1_555
C17 C16 1_555 1_555
H26 C17 1_555 1_555
O13 C13 1_555 1_555
C18 C17 1_555 1_555
H27 C18 1_555 1_555
H28 C18 1_555 1_555
O14 C18 1_555 1_555
H29 O14 1_555 1_555
O15 C16 1_555 1_555
C19 O15 1_555 1_555
H30 C19 1_555 1_555
C20 C19 1_555 1_555
H31 C20 1_555 1_555
O16 C20 1_555 1_555
H32 O16 1_555 1_555
C21 C20 1_555 1_555
H33 C21 1_555 1_555
O17 C21 1_555 1_555
H34 O17 1_555 1_555
C22 C21 1_555 1_555
H35 C22 1_555 1_555
C23 C22 1_555 1_555
H36 C23 1_555 1_555
O18 C19 1_555 1_555
O20 C22 1_555 1_555
C25 O20 1_555 1_555
H40 C25 1_555 1_555
C26 C25 1_555 1_555
H41 C26 1_555 1_555
O21 C26 1_555 1_555
H42 O21 1_555 1_555
C27 C26 1_555 1_555
H43 C27 1_555 1_555
O22 C27 1_555 1_555
H44 O22 1_555 1_555
C28 C27 1_555 1_555
H45 C28 1_555 1_555
C29 C28 1_555 1_555
H46 C29 1_555 1_555
O23 C25 1_555 1_555
C30 C29 1_555 1_555
H47 C30 1_555 1_555
H48 C30 1_555 1_555
O24 C30 1_555 1_555
H49 O24 1_555 1_555
O25 C28 1_555 1_555
C31 O25 1_555 1_555
H50 C31 1_555 1_555
C32 C31 1_555 1_555
H51 C32 1_555 1_555
O26 C32 1_555 1_555
H52 O26 1_555 1_555
C33 C32 1_555 1_555
H53 C33 1_555 1_555
O27 C33 1_555 1_555
H54 O27 1_555 1_555
C34 C33 1_555 1_555
H55 C34 1_555 1_555
C35 C34 1_555 1_555
H56 C35 1_555 1_555
O28 C31 1_555 1_555
C36 C35 1_555 1_555
H57 C36 1_555 1_555
H58 C36 1_555 1_555
O29 C36 1_555 1_555
H59 O29 1_555 1_555
O30 C34 1_555 1_555
C37 O30 1_555 1_555
H60 C37 1_555 1_555
C38 C37 1_555 1_555
H61 C38 1_555 1_555
O31 C38 1_555 1_555
H62 O31 1_555 1_555
C39 C38 1_555 1_555
H63 C39 1_555 1_555
O32 C39 1_555 1_555
H64 O32 1_555 1_555
C40 O1 1_555 1_555
H65 C40 1_555 1_555
C41 C40 1_555 1_555
H66 C41 1_555 1_555
O33 C37 1_555 1_555
C42 C41 1_555 1_555
H67 C42 1_555 1_555
H68 C42 1_555 1_555
O34 C42 1_555 1_555
H69 O34 1_555 1_555
S1 C3 1_555 1_555
C43 S1 1_555 1_555
N1 C43 1_555 1_555
C44 N1 1_555 1_555
H70 C44 1_555 1_555
C45 C44 1_555 1_555
H71 C45 1_555 1_555
N2 C43 1_555 1_555
H72 N2 1_555 1_555
C47 C23 1_555 1_555
H76 C47 1_555 1_555
H77 C47 1_555 1_555
O52 C47 1_555 1_555
H78 O52 1_555 1_555
C5 O3 1_555 1_555
C11 O8 1_555 1_555
C17 O13 1_555 1_555
C23 O18 1_555 1_555
C29 O23 1_555 1_555
C35 O28 1_555 1_555
C39 C40 1_555 1_555
C41 O33 1_555 1_555
C45 N2 1_555 1_555

#END
