
#######################################################################
#
#                 Cambridge Crystallographic Data Centre
#                                CCDC 
#
#######################################################################
#
# If this CIF has been generated from an entry in the Cambridge 
# Structural Database, then it will include bibliographic, chemical, 
# crystal, experimental, refinement or atomic coordinate data resulting 
# from the CCDC's data processing and validation procedures.
#
#######################################################################

data_ILOSAF
_chemical_formula_moiety         'C33 H25 N1 O1'
_chemical_name_systematic        8-(4-methoxyphenyl)-1,3,6-triphenylindolizine
_symmetry_cell_setting           triclinic
_symmetry_space_group_name_H-M   'P -1'
_symmetry_Int_Tables_number      2
_space_group_name_Hall           '-P 1'
loop_
_symmetry_equiv_pos_site_id
_symmetry_equiv_pos_as_xyz
1 x,y,z
2 -x,-y,-z
_cell_length_a                   9.5214(14)
_cell_length_b                   10.2787(16)
_cell_length_c                   12.4442(19)
_cell_angle_alpha                83.817(4)
_cell_angle_beta                 81.424(3)
_cell_angle_gamma                88.874(4)
_cell_volume                     1197.25
_exptl_crystal_colour            colorless
_exptl_crystal_description       prismatic
_cell_formula_units_Z            2
loop_
_atom_site_label
_atom_site_type_symbol
_atom_site_fract_x
_atom_site_fract_y
_atom_site_fract_z
N1 N 0.41560(15) 0.75536(15) 0.83831(13)
O1 O 0.99822(17) 0.83641(16) 1.21982(13)
C1 C 0.28718(19) 0.6911(2) 0.86635(17)
C2 C 0.2729(2) 0.6557(2) 0.97642(17)
H1 H 0.1955 0.6108 1.0172
C3 C 0.39053(19) 0.69613(19) 1.01968(16)
C4 C 0.48135(19) 0.75931(18) 0.93198(16)
C5 C 0.61717(19) 0.82044(18) 0.91718(16)
C6 C 0.6728(2) 0.87328(19) 0.81490(17)
H2 H 0.7609 0.9138 0.8055
C7 C 0.60330(19) 0.86965(19) 0.72203(16)
C8 C 0.4745(2) 0.81189(19) 0.73725(16)
H3 H 0.4251 0.8105 0.6783
C9 C 0.19180(19) 0.66665(19) 0.78860(17)
C10 C 0.2386(2) 0.6180(2) 0.69012(18)
H4 H 0.3350 0.6016 0.6706
C11 C 0.1451(2) 0.5933(3) 0.6203(2)
H5 H 0.1789 0.5617 0.5540
C12 C 0.0027(3) 0.6151(3) 0.6481(2)
H6 H -0.0605 0.5987 0.6009
C13 C -0.0456(2) 0.6610(2) 0.7456(3)
H7 H -0.1424 0.6747 0.7654
C14 C 0.0469(2) 0.6875(2) 0.8153(2)
H8 H 0.0120 0.7197 0.8811
C15 C 0.67377(19) 0.9203(2) 0.61170(17)
C16 C 0.7727(2) 1.0188(2) 0.59780(19)
H9 H 0.7947 1.0546 0.6588
C17 C 0.8394(3) 1.0651(3) 0.4964(2)
H10 H 0.9052 1.1323 0.4894
C18 C 0.8110(3) 1.0144(3) 0.4058(2)
H11 H 0.8560 1.0470 0.3369
C19 C 0.7153(3) 0.9146(3) 0.4172(2)
H12 H 0.6963 0.8776 0.3559
C20 C 0.6471(2) 0.8688(3) 0.51903(19)
H13 H 0.5815 0.8015 0.5256
C21 C 0.40621(19) 0.6704(2) 1.13551(16)
C22 C 0.3831(2) 0.5445(2) 1.18863(18)
H14 H 0.3626 0.4772 1.1492
C23 C 0.3901(2) 0.5182(3) 1.2981(2)
H15 H 0.3730 0.4338 1.3321
C24 C 0.4219(2) 0.6150(3) 1.3575(2)
H16 H 0.4276 0.5966 1.4315
C25 C 0.4456(2) 0.7402(3) 1.3065(2)
H17 H 0.4670 0.8066 1.3465
C26 C 0.4377(2) 0.7672(2) 1.19759(18)
H18 H 0.4537 0.8522 1.1645
C27 C 0.70540(19) 0.82178(19) 1.00539(15)
C28 C 0.74502(19) 0.70870(19) 1.06309(16)
H19 H 0.7060 0.6296 1.0527
C29 C 0.8404(2) 0.7092(2) 1.13555(16)
H20 H 0.8651 0.6311 1.1733
C30 C 0.8993(2) 0.8246(2) 1.15241(17)
C31 C 0.8588(2) 0.9400(2) 1.09750(18)
H21 H 0.8962 1.0191 1.1098
C32 C 0.7637(2) 0.9387(2) 1.02504(17)
H22 H 0.7378 1.0170 0.9884
C33 C 1.0346(3) 0.7214(3) 1.2837(2)
H23 H 0.9523 0.6893 1.3329
H24 H 1.1077 0.7411 1.3248
H25 H 1.0684 0.6559 1.2365
loop_
_geom_bond_atom_site_label_1
_geom_bond_atom_site_label_2
_geom_bond_site_symmetry_1
_geom_bond_site_symmetry_2
N1 C1 1_555 1_555
O1 C30 1_555 1_555
C1 C2 1_555 1_555
C2 H1 1_555 1_555
C3 C2 1_555 1_555
C4 N1 1_555 1_555
C5 C4 1_555 1_555
C6 C5 1_555 1_555
H2 C6 1_555 1_555
C7 C6 1_555 1_555
C8 N1 1_555 1_555
H3 C8 1_555 1_555
C9 C1 1_555 1_555
C10 C9 1_555 1_555
H4 C10 1_555 1_555
C11 C10 1_555 1_555
H5 C11 1_555 1_555
C12 C11 1_555 1_555
H6 C12 1_555 1_555
C13 C12 1_555 1_555
H7 C13 1_555 1_555
C14 C9 1_555 1_555
H8 C14 1_555 1_555
C15 C7 1_555 1_555
C16 C15 1_555 1_555
H9 C16 1_555 1_555
C17 C16 1_555 1_555
H10 C17 1_555 1_555
C18 C17 1_555 1_555
H11 C18 1_555 1_555
C19 C18 1_555 1_555
H12 C19 1_555 1_555
C20 C15 1_555 1_555
H13 C20 1_555 1_555
C21 C3 1_555 1_555
C22 C21 1_555 1_555
H14 C22 1_555 1_555
C23 C22 1_555 1_555
H15 C23 1_555 1_555
C24 C23 1_555 1_555
H16 C24 1_555 1_555
C25 C24 1_555 1_555
H17 C25 1_555 1_555
C26 C21 1_555 1_555
H18 C26 1_555 1_555
C27 C5 1_555 1_555
C28 C27 1_555 1_555
H19 C28 1_555 1_555
C29 C28 1_555 1_555
H20 C29 1_555 1_555
C30 C29 1_555 1_555
C31 C30 1_555 1_555
H21 C31 1_555 1_555
C32 C27 1_555 1_555
H22 C32 1_555 1_555
C33 O1 1_555 1_555
H23 C33 1_555 1_555
H24 C33 1_555 1_555
H25 C33 1_555 1_555
C3 C4 1_555 1_555
C7 C8 1_555 1_555
C13 C14 1_555 1_555
C19 C20 1_555 1_555
C25 C26 1_555 1_555
C31 C32 1_555 1_555

#END
