
#######################################################################
#
#                 Cambridge Crystallographic Data Centre
#                                CCDC 
#
#######################################################################
#
# If this CIF has been generated from an entry in the Cambridge 
# Structural Database, then it will include bibliographic, chemical, 
# crystal, experimental, refinement or atomic coordinate data resulting 
# from the CCDC's data processing and validation procedures.
#
#######################################################################

data_ILOVUC
_chemical_formula_moiety         'C41 H40 Cl4 N2 O2'
_chemical_name_systematic        
(S,E)-N,N,N',N'-tetrakis(4-chlorobenzyl)-5-(3,4-dimethoxyphenyl)pent-4-ene-1,3-diamine
_symmetry_cell_setting           triclinic
_symmetry_space_group_name_H-M   'P 1'
_symmetry_Int_Tables_number      1
_space_group_name_Hall           'P 1'
loop_
_symmetry_equiv_pos_site_id
_symmetry_equiv_pos_as_xyz
1 x,y,z
_cell_length_a                   11.208(6)
_cell_length_b                   13.107(6)
_cell_length_c                   14.164(7)
_cell_angle_alpha                78.649(9)
_cell_angle_beta                 72.073(8)
_cell_angle_gamma                77.763(9)
_cell_volume                     1915.27
_exptl_crystal_colour            'light yellow'
_exptl_crystal_description       block
_cell_formula_units_Z            2
loop_
_atom_site_label
_atom_site_type_symbol
_atom_site_fract_x
_atom_site_fract_y
_atom_site_fract_z
Cl1 Cl 0.3236(2) -0.9283(2) -0.97765(19)
Cl2 Cl -0.6242(3) -0.5853(4) -0.4919(3)
Cl3 Cl -0.5255(2) -0.2195(3) -0.96985(18)
Cl4 Cl -0.6088(3) -0.4020(3) -0.1348(2)
O1 O 0.1394(5) -0.6506(6) -0.1059(4)
O2 O -0.0684(6) -0.6211(6) 0.0331(4)
N1 N -0.2297(6) -0.2856(5) -0.6016(4)
N2 N 0.0176(5) -0.6394(5) -0.5974(4)
C1 C 0.1846(4) -0.7570(4) -0.7078(3)
C2 C 0.2614(4) -0.8552(4) -0.7038(3)
H1 H 0.2851 -0.8851 -0.6457
C3 C 0.3030(5) -0.9086(3) -0.7867(4)
H2 H 0.3544 -0.9742 -0.7840
C4 C 0.2676(5) -0.8638(4) -0.8735(3)
C5 C 0.1907(5) -0.7657(4) -0.8775(3)
H3 H 0.1671 -0.7357 -0.9357
C6 C 0.1492(4) -0.7123(3) -0.7947(3)
H4 H 0.0978 -0.6466 -0.7974
C7 C 0.1498(7) -0.6927(7) -0.6216(6)
H5 H 0.1647 -0.7391 -0.5625
H6 H 0.2053 -0.6402 -0.6390
C8 C -0.0645(7) -0.7191(7) -0.5355(6)
H7 H -0.0516 -0.7354 -0.4692
H8 H -0.0368 -0.7835 -0.5657
C9 C -0.2905(5) -0.6815(5) -0.4299(3)
H9 H -0.2609 -0.6997 -0.3733
C10 C -0.4199(4) -0.6514(5) -0.4197(3)
H10 H -0.4769 -0.6494 -0.3563
C11 C -0.4642(4) -0.6243(5) -0.5043(4)
C12 C -0.3790(5) -0.6273(6) -0.5992(4)
H11 H -0.4086 -0.6092 -0.6558
C13 C -0.2496(5) -0.6574(5) -0.6094(3)
H12 H -0.1926 -0.6594 -0.6728
C14 C -0.2053(4) -0.6845(4) -0.5248(3)
C15 C -0.0013(6) -0.5407(6) -0.5565(5)
H13 H 0.0722 -0.5069 -0.5961
C16 C -0.1167(7) -0.4635(6) -0.5776(5)
H14 H -0.1162 -0.4649 -0.6460
H15 H -0.1929 -0.4891 -0.5337
C17 C -0.1256(7) -0.3508(6) -0.5645(5)
H16 H -0.1410 -0.3458 -0.4942
H17 H -0.0462 -0.3260 -0.6014
C18 C -0.1878(7) -0.2393(7) -0.7072(6)
H18 H -0.1107 -0.2827 -0.7406
H19 H -0.1682 -0.1698 -0.7107
C19 C -0.2873(4) -0.2300(4) -0.7615(3)
C20 C -0.3261(5) -0.3212(3) -0.7694(4)
H20 H -0.3006 -0.3852 -0.7334
C21 C -0.4030(5) -0.3167(4) -0.8312(4)
H21 H -0.4289 -0.3777 -0.8365
C22 C -0.4411(4) -0.2210(5) -0.8849(3)
C23 C -0.4023(5) -0.1299(4) -0.8770(3)
H22 H -0.4278 -0.0659 -0.9130
C24 C -0.3255(5) -0.1343(4) -0.8153(4)
H23 H -0.2995 -0.0734 -0.8100
C25 C -0.3057(8) -0.2096(6) -0.5369(6)
H24 H -0.3657 -0.1631 -0.5693
H25 H -0.2509 -0.1669 -0.5269
C26 C -0.5170(5) -0.3504(5) -0.2517(3)
C27 C -0.4452(6) -0.2741(5) -0.2565(3)
H26 H -0.4439 -0.2530 -0.1979
C28 C -0.3754(6) -0.2292(5) -0.3489(4)
H27 H -0.3274 -0.1782 -0.3521
C29 C -0.3774(5) -0.2607(4) -0.4365(3)
C30 C -0.4492(5) -0.3369(5) -0.4317(3)
H28 H -0.4505 -0.3580 -0.4903
C31 C -0.5190(5) -0.3818(4) -0.3393(4)
H29 H -0.5670 -0.4328 -0.3361
C32 C 0.0070(7) -0.5581(6) -0.4496(5)
H30 H 0.0864 -0.5854 -0.4395
C33 C -0.0877(7) -0.5382(6) -0.3697(5)
H31 H -0.1659 -0.5074 -0.3808
C34 C -0.0833(6) -0.5595(5) -0.2650(5)
C35 C 0.0310(6) -0.5969(6) -0.2377(5)
H32 H 0.1069 -0.6086 -0.2877
C36 C 0.0331(7) -0.6162(7) -0.1400(6)
C37 C -0.0808(8) -0.6026(7) -0.0618(5)
C38 C -0.1921(8) -0.5628(8) -0.0868(6)
H33 H -0.2671 -0.5475 -0.0368
C39 C -0.1935(7) -0.5451(7) -0.1874(6)
H34 H -0.2709 -0.5229 -0.2025
C40 C -0.1776(11) -0.6060(12) 0.1131(7)
H35 H -0.2241 -0.6631 0.1249
H36 H -0.2300 -0.5407 0.0971
H37 H -0.1538 -0.6039 0.1722
C41 C 0.2600(9) -0.6574(12) -0.1820(8)
H38 H 0.2698 -0.5889 -0.2200
H39 H 0.2628 -0.7056 -0.2259
H40 H 0.3276 -0.6821 -0.1507
Cl5 Cl 0.4507(2) 0.0253(3) -0.2591(2)
Cl6 Cl 0.2527(2) -0.3338(3) 0.24129(18)
Cl7 Cl -0.5380(2) 0.3782(2) 0.19547(19)
Cl8 Cl 0.3588(3) -0.1426(3) -0.59851(19)
O3 O -0.1603(5) 0.0824(5) -0.7933(4)
O4 O -0.3563(5) 0.1057(5) -0.6426(4)
N3 N -0.0394(5) -0.2536(5) -0.1364(4)
N4 N -0.1912(5) 0.0677(5) -0.1612(4)
C42 C -0.4480(4) 0.2803(4) -0.0715(3)
H41 H -0.4644 0.3054 -0.1332
C43 C -0.5000(4) 0.3399(3) 0.0069(4)
H42 H -0.5512 0.4047 -0.0023
C44 C -0.4755(5) 0.3024(4) 0.0991(3)
C45 C -0.3990(5) 0.2055(4) 0.1128(3)
H43 H -0.3826 0.1804 0.1745
C46 C -0.3469(4) 0.1459(3) 0.0344(3)
H44 H -0.2957 0.0811 0.0436
C47 C -0.3714(4) 0.1834(4) -0.0577(3)
C48 C -0.3261(6) 0.1154(6) -0.1416(5)
H45 H -0.3770 0.0596 -0.1244
H46 H -0.3401 0.1583 -0.2025
C49 C -0.1114(6) 0.1493(6) -0.2137(6)
H47 H -0.1397 0.2093 -0.1772
H48 H -0.1242 0.1730 -0.2798
C50 C 0.0292(3) 0.1133(4) -0.2255(3)
C51 C 0.0731(4) 0.0469(4) -0.1495(3)
H49 H 0.0156 0.0214 -0.0912
C52 C 0.2029(4) 0.0186(4) -0.1608(3)
H50 H 0.2323 -0.0258 -0.1100
C53 C 0.2889(3) 0.0567(5) -0.2481(4)
C54 C 0.2450(4) 0.1230(5) -0.3240(3)
H51 H 0.3025 0.1485 -0.3824
C55 C 0.1152(4) 0.1513(4) -0.3127(3)
H52 H 0.0858 0.1957 -0.3636
C56 C -0.1575(6) -0.0245(6) -0.2161(5)
H53 H -0.0660 -0.0488 -0.2266
C57 C -0.1807(7) 0.0008(6) -0.3191(5)
H54 H -0.2632 0.0291 -0.3217
C58 C -0.0953(6) -0.0135(6) -0.4045(5)
H55 H -0.0132 -0.0417 -0.4006
C59 C -0.1125(6) 0.0093(6) -0.5050(5)
C60 C -0.0073(7) -0.0080(7) -0.5874(5)
H56 H 0.0718 -0.0377 -0.5775
C61 C -0.0200(7) 0.0189(7) -0.6851(5)
H57 H 0.0517 0.0116 -0.7395
C62 C -0.1368(6) 0.0559(6) -0.7012(5)
C63 C -0.2445(6) 0.0674(6) -0.6182(5)
C64 C -0.2298(6) 0.0477(6) -0.5235(5)
H58 H -0.3009 0.0605 -0.4696
C65 C -0.2247(6) -0.1153(6) -0.1511(5)
H59 H -0.2356 -0.1124 -0.0810
H60 H -0.3083 -0.1074 -0.1608
C66 C -0.1486(7) -0.2223(6) -0.1778(5)
H61 H -0.2036 -0.2754 -0.1522
H62 H -0.1188 -0.2188 -0.2502
C67 C -0.0819(7) -0.3029(7) -0.0286(5)
H63 H -0.0995 -0.3728 -0.0266
H64 H -0.1604 -0.2610 0.0048
C68 C 0.0168(4) -0.3121(4) 0.0292(3)
C69 C 0.0596(5) -0.4094(4) 0.0780(4)
H65 H 0.0376 -0.4704 0.0685
C70 C 0.1354(6) -0.4156(4) 0.1409(4)
H66 H 0.1641 -0.4807 0.1736
C71 C 0.1684(5) -0.3244(5) 0.1551(4)
C72 C 0.1255(5) -0.2271(4) 0.1064(4)
H67 H 0.1475 -0.1661 0.1159
C73 C 0.0497(5) -0.2210(3) 0.0434(4)
H68 H 0.0211 -0.1558 0.0108
C74 C 0.0610(8) -0.3277(7) -0.1946(5)
H69 H 0.0234 -0.3846 -0.2024
H70 H 0.1224 -0.3582 -0.1571
C75 C 0.1954(5) -0.1970(4) -0.3043(3)
H71 H 0.1931 -0.1712 -0.2470
C76 C 0.2650(5) -0.1545(4) -0.3978(4)
H72 H 0.3093 -0.1002 -0.4031
C77 C 0.2685(5) -0.1931(5) -0.4834(3)
C78 C 0.2023(6) -0.2743(5) -0.4755(3)
H73 H 0.2046 -0.3002 -0.5327
C79 C 0.1326(6) -0.3169(4) -0.3819(4)
H74 H 0.0884 -0.3712 -0.3766
C80 C 0.1292(5) -0.2782(4) -0.2963(3)
C81 C -0.4705(8) 0.1129(9) -0.5617(7)
H75 H -0.4630 0.1535 -0.5150
H76 H -0.4841 0.0434 -0.5284
H77 H -0.5411 0.1466 -0.5875
C82 C -0.0531(9) 0.0823(10) -0.8780(6)
H78 H -0.0142 0.0109 -0.8870
H79 H 0.0069 0.1188 -0.8682
H80 H -0.0792 0.1171 -0.9364
H81? H -0.2863 -0.3341 -0.5995
H82? H -0.0045 -0.6197 -0.6611
H83? H -0.0045 -0.1903 -0.1387
H84? H -0.1740 0.0428 -0.0961
loop_
_geom_bond_atom_site_label_1
_geom_bond_atom_site_label_2
_geom_bond_site_symmetry_1
_geom_bond_site_symmetry_2
Cl1 C4 1_555 1_555
Cl2 C11 1_555 1_555
Cl3 C22 1_555 1_555
Cl4 C26 1_555 1_555
O1 C36 1_555 1_555
O2 C37 1_555 1_555
N1 C17 1_555 1_555
N2 C7 1_555 1_555
C1 C2 1_555 1_555
C2 H1 1_555 1_555
C3 C2 1_555 1_555
H2 C3 1_555 1_555
C4 C3 1_555 1_555
C5 C4 1_555 1_555
H3 C5 1_555 1_555
C6 C1 1_555 1_555
H4 C6 1_555 1_555
C7 C1 1_555 1_555
H5 C7 1_555 1_555
H6 C7 1_555 1_555
C8 N2 1_555 1_555
H7 C8 1_555 1_555
H8 C8 1_555 1_555
C9 H9 1_555 1_555
C10 C9 1_555 1_555
H10 C10 1_555 1_555
C11 C10 1_555 1_555
C12 C11 1_555 1_555
H11 C12 1_555 1_555
C13 C12 1_555 1_555
H12 C13 1_555 1_555
C14 C8 1_555 1_555
C15 N2 1_555 1_555
H13 C15 1_555 1_555
C16 C15 1_555 1_555
H14 C16 1_555 1_555
H15 C16 1_555 1_555
C17 C16 1_555 1_555
H16 C17 1_555 1_555
H17 C17 1_555 1_555
C18 N1 1_555 1_555
H18 C18 1_555 1_555
H19 C18 1_555 1_555
C19 C18 1_555 1_555
C20 C19 1_555 1_555
H20 C20 1_555 1_555
C21 C20 1_555 1_555
H21 C21 1_555 1_555
C22 C21 1_555 1_555
C23 C22 1_555 1_555
H22 C23 1_555 1_555
C24 C19 1_555 1_555
H23 C24 1_555 1_555
C25 N1 1_555 1_555
H24 C25 1_555 1_555
H25 C25 1_555 1_555
C26 C27 1_555 1_555
C27 H26 1_555 1_555
C28 C27 1_555 1_555
H27 C28 1_555 1_555
C29 C25 1_555 1_555
C30 C29 1_555 1_555
H28 C30 1_555 1_555
C31 C26 1_555 1_555
H29 C31 1_555 1_555
C32 C15 1_555 1_555
H30 C32 1_555 1_555
C33 C32 1_555 1_555
H31 C33 1_555 1_555
C34 C33 1_555 1_555
C35 C34 1_555 1_555
H32 C35 1_555 1_555
C36 C35 1_555 1_555
C37 C36 1_555 1_555
C38 C37 1_555 1_555
H33 C38 1_555 1_555
C39 C34 1_555 1_555
H34 C39 1_555 1_555
C40 O2 1_555 1_555
H35 C40 1_555 1_555
H36 C40 1_555 1_555
H37 C40 1_555 1_555
C41 O1 1_555 1_555
H38 C41 1_555 1_555
H39 C41 1_555 1_555
H40 C41 1_555 1_555
Cl5 C53 1_555 1_555
Cl6 C71 1_555 1_555
Cl7 C44 1_555 1_555
Cl8 C77 1_555 1_555
O3 C62 1_555 1_555
O4 C63 1_555 1_555
N3 C66 1_555 1_555
N4 C48 1_555 1_555
C42 H41 1_555 1_555
C43 C42 1_555 1_555
H42 C43 1_555 1_555
C44 C43 1_555 1_555
C45 C44 1_555 1_555
H43 C45 1_555 1_555
C46 C45 1_555 1_555
H44 C46 1_555 1_555
C47 C42 1_555 1_555
C48 C47 1_555 1_555
H45 C48 1_555 1_555
H46 C48 1_555 1_555
C49 N4 1_555 1_555
H47 C49 1_555 1_555
H48 C49 1_555 1_555
C50 C49 1_555 1_555
C51 C50 1_555 1_555
H49 C51 1_555 1_555
C52 C51 1_555 1_555
H50 C52 1_555 1_555
C53 C52 1_555 1_555
C54 C53 1_555 1_555
H51 C54 1_555 1_555
C55 C50 1_555 1_555
H52 C55 1_555 1_555
C56 N4 1_555 1_555
H53 C56 1_555 1_555
C57 C56 1_555 1_555
H54 C57 1_555 1_555
C58 C57 1_555 1_555
H55 C58 1_555 1_555
C59 C58 1_555 1_555
C60 C59 1_555 1_555
H56 C60 1_555 1_555
C61 C60 1_555 1_555
H57 C61 1_555 1_555
C62 C61 1_555 1_555
C63 C62 1_555 1_555
C64 C59 1_555 1_555
H58 C64 1_555 1_555
C65 C56 1_555 1_555
H59 C65 1_555 1_555
H60 C65 1_555 1_555
C66 C65 1_555 1_555
H61 C66 1_555 1_555
H62 C66 1_555 1_555
C67 N3 1_555 1_555
H63 C67 1_555 1_555
H64 C67 1_555 1_555
C68 C67 1_555 1_555
C69 C68 1_555 1_555
H65 C69 1_555 1_555
C70 C69 1_555 1_555
H66 C70 1_555 1_555
C71 C70 1_555 1_555
C72 C71 1_555 1_555
H67 C72 1_555 1_555
C73 C68 1_555 1_555
H68 C73 1_555 1_555
C74 N3 1_555 1_555
H69 C74 1_555 1_555
H70 C74 1_555 1_555
C75 H71 1_555 1_555
C76 C75 1_555 1_555
H72 C76 1_555 1_555
C77 C76 1_555 1_555
C78 C77 1_555 1_555
H73 C78 1_555 1_555
C79 C78 1_555 1_555
H74 C79 1_555 1_555
C80 C74 1_555 1_555
C81 O4 1_555 1_555
H75 C81 1_555 1_555
H76 C81 1_555 1_555
H77 C81 1_555 1_555
C82 O3 1_555 1_555
H78 C82 1_555 1_555
H79 C82 1_555 1_555
H80 C82 1_555 1_555
C5 C6 1_555 1_555
C9 C14 1_555 1_555
C13 C14 1_555 1_555
C23 C24 1_555 1_555
C28 C29 1_555 1_555
C30 C31 1_555 1_555
C38 C39 1_555 1_555
C46 C47 1_555 1_555
C54 C55 1_555 1_555
C63 C64 1_555 1_555
C72 C73 1_555 1_555
C75 C80 1_555 1_555
C79 C80 1_555 1_555

#END
