
#######################################################################
#
#                 Cambridge Crystallographic Data Centre
#                                CCDC 
#
#######################################################################
#
# If this CIF has been generated from an entry in the Cambridge 
# Structural Database, then it will include bibliographic, chemical, 
# crystal, experimental, refinement or atomic coordinate data resulting 
# from the CCDC's data processing and validation procedures.
#
#######################################################################

data_ILOXEO
_chemical_formula_moiety         'C24 H21 N1 O3'
_chemical_name_systematic        
'Ethyl 1-ethoxy-3-phenylbenzo[g]isoquinoline-4-carboxylate'
_symmetry_cell_setting           monoclinic
_symmetry_space_group_name_H-M   'P 21/c'
_symmetry_Int_Tables_number      14
_space_group_name_Hall           '-P 2ybc'
loop_
_symmetry_equiv_pos_site_id
_symmetry_equiv_pos_as_xyz
1 x,y,z
2 -x,1/2+y,1/2-z
3 -x,-y,-z
4 x,1/2-y,1/2+z
_cell_length_a                   11.4140(19)
_cell_length_b                   22.478(4)
_cell_length_c                   7.5849(12)
_cell_angle_alpha                90
_cell_angle_beta                 105.181(3)
_cell_angle_gamma                90
_cell_volume                     1878.1
_exptl_crystal_colour            colorless
_exptl_crystal_description       prismatic
_cell_formula_units_Z            4
loop_
_atom_site_label
_atom_site_type_symbol
_atom_site_fract_x
_atom_site_fract_y
_atom_site_fract_z
N1 N 0.71824(15) 0.28814(7) 0.4888(2)
O1 O 0.68569(12) 0.18861(6) 0.4410(2)
O2 O 0.43369(13) 0.44309(6) 0.3424(2)
O3 O 0.59561(13) 0.45289(6) 0.22840(19)
C1 C 0.29282(18) 0.27471(10) 0.0725(3)
C2 C 0.17279(19) 0.28410(10) -0.0389(3)
H1 H 0.1421 0.3235 -0.0592
C3 C 0.1016(2) 0.23776(11) -0.1166(3)
H2 H 0.0216 0.2449 -0.1898
C4 C 0.1462(2) 0.17881(11) -0.0888(3)
H3 H 0.0958 0.1467 -0.1441
C5 C 0.26035(19) 0.16762(10) 0.0160(3)
H4 H 0.2892 0.1278 0.0321
C6 C 0.33674(18) 0.21500(9) 0.1017(3)
C7 C 0.45423(18) 0.20529(9) 0.2138(3)
H5 H 0.4845 0.1658 0.2347
C8 C 0.52664(18) 0.25263(9) 0.2945(3)
C9 C 0.48402(18) 0.31224(9) 0.2636(3)
C10 C 0.36732(18) 0.32159(9) 0.1528(3)
H6 H 0.3377 0.3611 0.1314
C11 C 0.64763(18) 0.24504(9) 0.4118(3)
C12 C 0.56498(18) 0.35957(9) 0.3468(3)
C13 C 0.67790(18) 0.34614(9) 0.4574(3)
C14 C 0.76837(18) 0.39091(9) 0.5510(3)
C15 C 0.89192(19) 0.37810(10) 0.5785(3)
H7 H 0.9158 0.3406 0.5418
C16 C 0.9792(2) 0.41926(10) 0.6582(3)
H8 H 1.0626 0.4099 0.6754
C17 C 0.9464(2) 0.47405(10) 0.7134(3)
H9 H 1.0069 0.5026 0.7657
C18 C 0.8250(2) 0.48700(10) 0.6919(3)
H10 H 0.8019 0.5243 0.7315
C19 C 0.73671(19) 0.44540(9) 0.6121(3)
H11 H 0.6536 0.4544 0.5993
C20 C 0.80806(18) 0.18035(9) 0.5559(3)
H12 H 0.8163 0.1989 0.6769
H13 H 0.8676 0.1991 0.4987
C21 C 0.8305(2) 0.11470(9) 0.5764(3)
H14 H 0.7697 0.0965 0.6299
H15 H 0.9118 0.1076 0.6565
H16 H 0.8247 0.0971 0.4563
C22 C 0.52314(18) 0.42198(9) 0.3087(3)
C23 C 0.5797(2) 0.51708(9) 0.2213(3)
H17 H 0.5811 0.5329 0.3436
H18 H 0.5014 0.5279 0.1350
C24 C 0.6843(2) 0.54150(10) 0.1572(3)
H19 H 0.7610 0.5299 0.2432
H20 H 0.6787 0.5850 0.1507
H21 H 0.6813 0.5255 0.0359
loop_
_geom_bond_atom_site_label_1
_geom_bond_atom_site_label_2
_geom_bond_site_symmetry_1
_geom_bond_site_symmetry_2
N1 C11 1_555 1_555
O1 C11 1_555 1_555
O2 C22 1_555 1_555
O3 C22 1_555 1_555
C1 C2 1_555 1_555
C2 H1 1_555 1_555
C3 C2 1_555 1_555
H2 C3 1_555 1_555
C4 C3 1_555 1_555
H3 C4 1_555 1_555
C5 C4 1_555 1_555
H4 C5 1_555 1_555
C6 C1 1_555 1_555
C7 C6 1_555 1_555
H5 C7 1_555 1_555
C8 C7 1_555 1_555
C9 C8 1_555 1_555
C10 C1 1_555 1_555
H6 C10 1_555 1_555
C11 C8 1_555 1_555
C12 C9 1_555 1_555
C13 N1 1_555 1_555
C14 C13 1_555 1_555
C15 C14 1_555 1_555
H7 C15 1_555 1_555
C16 C15 1_555 1_555
H8 C16 1_555 1_555
C17 C16 1_555 1_555
H9 C17 1_555 1_555
C18 C17 1_555 1_555
H10 C18 1_555 1_555
C19 C14 1_555 1_555
H11 C19 1_555 1_555
C20 O1 1_555 1_555
H12 C20 1_555 1_555
H13 C20 1_555 1_555
C21 C20 1_555 1_555
H14 C21 1_555 1_555
H15 C21 1_555 1_555
H16 C21 1_555 1_555
C22 C12 1_555 1_555
C23 O3 1_555 1_555
H17 C23 1_555 1_555
H18 C23 1_555 1_555
C24 C23 1_555 1_555
H19 C24 1_555 1_555
H20 C24 1_555 1_555
H21 C24 1_555 1_555
C5 C6 1_555 1_555
C9 C10 1_555 1_555
C12 C13 1_555 1_555
C18 C19 1_555 1_555

#END
