
#######################################################################
#
#                 Cambridge Crystallographic Data Centre
#                                CCDC 
#
#######################################################################
#
# If this CIF has been generated from an entry in the Cambridge 
# Structural Database, then it will include bibliographic, chemical, 
# crystal, experimental, refinement or atomic coordinate data resulting 
# from the CCDC's data processing and validation procedures.
#
#######################################################################

data_ILUBIC
_chemical_formula_moiety         'C24 H26 B1 F10 N1 O1'
_chemical_name_systematic        
Hydroxy(3-(2,2,6,6-tetramethylpiperidinio)propyl)bis(pentafluorophenyl)borate
_symmetry_cell_setting           triclinic
_symmetry_space_group_name_H-M   'P -1'
_symmetry_Int_Tables_number      2
_space_group_name_Hall           '-P 1'
loop_
_symmetry_equiv_pos_site_id
_symmetry_equiv_pos_as_xyz
1 x,y,z
2 -x,-y,-z
_cell_length_a                   10.9865(2)
_cell_length_b                   11.3039(2)
_cell_length_c                   12.1268(3)
_cell_angle_alpha                111.608(1)
_cell_angle_beta                 90.925(1)
_cell_angle_gamma                116.464(1)
_cell_volume                     1223.73
_exptl_crystal_colour            colorless
_exptl_crystal_description       prism
_cell_formula_units_Z            2
loop_
_atom_site_label
_atom_site_type_symbol
_atom_site_fract_x
_atom_site_fract_y
_atom_site_fract_z
O1 O 0.34780(17) 0.81576(16) 0.27651(15)
H1 H 0.424(4) 0.871(4) 0.327(3)
N1 N 0.17690(19) 0.89327(19) 0.19529(16)
H2 H 0.241(2) 0.879(2) 0.229(2)
C1 C 0.0430(2) 0.7497(2) 0.1501(2)
H3 H 0.0278 0.7013 0.0615
H4 H -0.0340 0.7702 0.1680
C2 C 0.0358(2) 0.6437(2) 0.2022(2)
H5 H -0.0603 0.5638 0.1767
H6 H 0.0561 0.6943 0.2909
C3 C 0.1325(2) 0.5766(2) 0.1682(2)
H7 H 0.1499 0.5715 0.0880
H8 H 0.0834 0.4766 0.1612
C4 C 0.2399(2) 0.9312(3) 0.0912(2)
C5 C 0.3783(3) 1.0712(3) 0.1498(3)
H9 H 0.4441 1.0503 0.1836
H10 H 0.4152 1.1021 0.0863
C6 C 0.3728(3) 1.1965(3) 0.2493(3)
H11 H 0.3145 1.2255 0.2157
H12 H 0.4667 1.2803 0.2842
C7 C 0.3129(3) 1.1496(3) 0.3468(3)
H13 H 0.3087 1.2309 0.4106
H14 H 0.3761 1.1280 0.3835
C8 C 0.1681(3) 1.0169(2) 0.3010(2)
C9 C 0.2695(3) 0.8095(3) 0.0129(2)
H15 H 0.3221 0.8375 -0.0450
H16 H 0.1821 0.7208 -0.0304
H17 H 0.3229 0.7932 0.0646
C10 C 0.1413(3) 0.9430(3) 0.0106(3)
H18 H 0.1716 0.9381 -0.0649
H19 H 0.1422 1.0351 0.0523
H20 H 0.0476 0.8635 -0.0068
C11 C 0.0590(3) 1.0524(3) 0.2632(3)
H21 H 0.0378 1.1076 0.3352
H22 H -0.0252 0.9626 0.2140
H23 H 0.0953 1.1094 0.2166
C12 C 0.1303(3) 0.9682(3) 0.4033(2)
H24 H 0.1895 0.9304 0.4184
H25 H 0.0336 0.8927 0.3800
H26 H 0.1437 1.0506 0.4765
B1 B 0.2816(3) 0.6623(3) 0.2623(2)
C13 C 0.2569(2) 0.6509(2) 0.3949(2)
F1 F 0.14762(18) 0.39329(14) 0.29852(14)
C14 C 0.1879(3) 0.5169(2) 0.4006(2)
F2 F 0.0868(2) 0.36322(18) 0.50111(17)
C15 C 0.1561(3) 0.4979(3) 0.5043(3)
F3 F 0.1608(2) 0.6019(2) 0.71323(15)
C16 C 0.1938(3) 0.6176(3) 0.6114(2)
F4 F 0.30230(18) 0.87158(17) 0.71792(13)
C17 C 0.2647(3) 0.7532(3) 0.6131(2)
F5 F 0.37115(15) 0.90602(14) 0.52058(12)
C18 C 0.2961(2) 0.7668(2) 0.5073(2)
C19 C 0.3867(2) 0.5926(2) 0.21485(19)
F6 F 0.57334(14) 0.79972(15) 0.37079(13)
C20 C 0.5253(2) 0.6692(2) 0.2741(2)
F7 F 0.75520(16) 0.7054(2) 0.30522(17)
C21 C 0.6220(2) 0.6232(3) 0.2433(2)
F8 F 0.67209(17) 0.44329(19) 0.11449(17)
C22 C 0.5809(3) 0.4916(3) 0.1472(2)
F9 F 0.40310(16) 0.27984(15) -0.00944(13)
C23 C 0.4451(2) 0.4091(2) 0.0852(2)
F10 F 0.22054(14) 0.36949(14) 0.05222(14)
C24 C 0.3520(2) 0.4602(2) 0.1195(2)
loop_
_geom_bond_atom_site_label_1
_geom_bond_atom_site_label_2
_geom_bond_site_symmetry_1
_geom_bond_site_symmetry_2
O1 H1 1_555 1_555
N1 H2 1_555 1_555
C1 N1 1_555 1_555
H3 C1 1_555 1_555
H4 C1 1_555 1_555
C2 C1 1_555 1_555
H5 C2 1_555 1_555
H6 C2 1_555 1_555
C3 C2 1_555 1_555
H7 C3 1_555 1_555
H8 C3 1_555 1_555
C4 N1 1_555 1_555
C5 C4 1_555 1_555
H9 C5 1_555 1_555
H10 C5 1_555 1_555
C6 C5 1_555 1_555
H11 C6 1_555 1_555
H12 C6 1_555 1_555
C7 C6 1_555 1_555
H13 C7 1_555 1_555
H14 C7 1_555 1_555
C8 N1 1_555 1_555
C9 C4 1_555 1_555
H15 C9 1_555 1_555
H16 C9 1_555 1_555
H17 C9 1_555 1_555
C10 C4 1_555 1_555
H18 C10 1_555 1_555
H19 C10 1_555 1_555
H20 C10 1_555 1_555
C11 C8 1_555 1_555
H21 C11 1_555 1_555
H22 C11 1_555 1_555
H23 C11 1_555 1_555
C12 C8 1_555 1_555
H24 C12 1_555 1_555
H25 C12 1_555 1_555
H26 C12 1_555 1_555
B1 O1 1_555 1_555
C13 B1 1_555 1_555
F1 C14 1_555 1_555
C14 C13 1_555 1_555
F2 C15 1_555 1_555
C15 C14 1_555 1_555
F3 C16 1_555 1_555
C16 C15 1_555 1_555
F4 C17 1_555 1_555
C17 C16 1_555 1_555
F5 C18 1_555 1_555
C18 C13 1_555 1_555
C19 B1 1_555 1_555
F6 C20 1_555 1_555
C20 C19 1_555 1_555
F7 C21 1_555 1_555
C21 C20 1_555 1_555
F8 C22 1_555 1_555
C22 C21 1_555 1_555
F9 C23 1_555 1_555
C23 C22 1_555 1_555
F10 C24 1_555 1_555
C24 C19 1_555 1_555
C3 B1 1_555 1_555
C7 C8 1_555 1_555
C17 C18 1_555 1_555
C23 C24 1_555 1_555

#END
