
#######################################################################
#
#                 Cambridge Crystallographic Data Centre
#                                CCDC 
#
#######################################################################
#
# If this CIF has been generated from an entry in the Cambridge 
# Structural Database, then it will include bibliographic, chemical, 
# crystal, experimental, refinement or atomic coordinate data resulting 
# from the CCDC's data processing and validation procedures.
#
#######################################################################

data_ILUBUO
_chemical_formula_moiety         'C36 H25 B2 F20 N1,C1 H2 Cl2'
_chemical_name_systematic        
'(3-(2,2,6,6-Tetramethylpiperidinio)propylidene)(\m-hydrido)tetrakis(pentafluorophenyl)diborate dichloromethane solvate'
_symmetry_cell_setting           monoclinic
_symmetry_space_group_name_H-M   'P 21/n'
_symmetry_Int_Tables_number      14
_space_group_name_Hall           '-P 2yn'
loop_
_symmetry_equiv_pos_site_id
_symmetry_equiv_pos_as_xyz
1 x,y,z
2 1/2-x,1/2+y,1/2-z
3 -x,-y,-z
4 1/2+x,1/2-y,1/2+z
_cell_length_a                   12.3941(4)
_cell_length_b                   19.3768(6)
_cell_length_c                   17.7912(7)
_cell_angle_alpha                90
_cell_angle_beta                 99.3700(10)
_cell_angle_gamma                90
_cell_volume                     4215.69
_exptl_crystal_colour            colorless
_exptl_crystal_description       prism
_cell_formula_units_Z            4
loop_
_atom_site_label
_atom_site_type_symbol
_atom_site_fract_x
_atom_site_fract_y
_atom_site_fract_z
N1 N 1.0227(3) 0.1806(2) 0.8027(2)
H1 H 1.010(4) 0.226(3) 0.772(3)
C1 C 0.9148(3) 0.1410(2) 0.7839(3)
H2 H 0.9246 0.1021 0.7505
H3 H 0.8952 0.1222 0.8310
C2 C 0.8227(3) 0.1857(2) 0.7455(3)
H4 H 0.8449 0.2089 0.7015
H5 H 0.8060 0.2212 0.7811
C3 C 0.7220(3) 0.1427(2) 0.7195(3)
H6 H 0.7383 0.1027 0.6886
C4 C 1.1105(4) 0.1568(2) 0.7538(3)
C5 C 1.2101(4) 0.2033(3) 0.7745(4)
H7 H 1.2683 0.1867 0.7479
H8 H 1.1906 0.2501 0.7560
C6 C 1.2540(4) 0.2069(3) 0.8584(4)
H9 H 1.3180 0.2374 0.8672
H10 H 1.2767 0.1609 0.8775
C7 C 1.1657(4) 0.2345(3) 0.9006(4)
H11 H 1.1469 0.2816 0.8831
H12 H 1.1950 0.2368 0.9551
C8 C 1.0609(4) 0.1905(3) 0.8893(3)
C9 C 1.0594(5) 0.1684(3) 0.6711(3)
H13 H 1.0304 0.2149 0.6650
H14 H 1.0007 0.1354 0.6568
H15 H 1.1145 0.1622 0.6387
C10 C 1.1406(4) 0.0800(3) 0.7682(4)
H16 H 1.1774 0.0631 0.7277
H17 H 1.0746 0.0534 0.7692
H18 H 1.1888 0.0754 0.8167
C11 C 0.9714(5) 0.2319(3) 0.9177(3)
H19 H 0.9054 0.2042 0.9134
H20 H 0.9565 0.2733 0.8873
H21 H 0.9950 0.2445 0.9706
C12 C 1.0795(5) 0.1223(3) 0.9312(4)
H22 H 1.1037 0.1309 0.9851
H23 H 1.1350 0.0961 0.9109
H24 H 1.0118 0.0962 0.9245
B1 B 0.6059(4) 0.1759(2) 0.6873(3)
H25 H 0.552(4) 0.159(2) 0.747(3)
C13 C 0.5872(3) 0.2589(2) 0.6802(2)
F1 F 0.4255(2) 0.25693(14) 0.73387(18)
C14 C 0.4994(4) 0.2926(2) 0.7026(3)
F2 F 0.3949(2) 0.39206(16) 0.7186(2)
C15 C 0.4814(4) 0.3628(2) 0.6946(3)
F3 F 0.5367(3) 0.47096(13) 0.6550(2)
C16 C 0.5527(4) 0.4031(2) 0.6625(3)
F4 F 0.7105(3) 0.40987(14) 0.60463(18)
C17 C 0.6397(4) 0.3717(2) 0.6382(3)
F5 F 0.7384(2) 0.27536(13) 0.61489(16)
C18 C 0.6544(4) 0.3017(2) 0.6452(3)
C19 C 0.5356(4) 0.1359(2) 0.6156(3)
F6 F 0.3753(2) 0.12331(16) 0.67118(18)
C20 C 0.4284(4) 0.1144(2) 0.6111(3)
F7 F 0.2648(3) 0.06307(19) 0.5492(2)
C21 C 0.3675(4) 0.0829(3) 0.5480(3)
F8 F 0.3590(3) 0.04264(18) 0.42258(19)
C22 C 0.4142(5) 0.0729(3) 0.4847(3)
F9 F 0.5686(3) 0.08359(18) 0.42294(18)
C23 C 0.5207(5) 0.0931(3) 0.4856(3)
F10 F 0.6820(2) 0.14318(16) 0.54531(17)
C24 C 0.5785(4) 0.1238(2) 0.5496(3)
B2 B 0.6453(4) 0.1217(2) 0.7794(3)
C25 C 0.6799(16) 0.1503(6) 0.8655(5)
F11 F 0.6059(10) 0.2626(4) 0.8474(4)
C26 C 0.6570(9) 0.2140(4) 0.8943(4)
F12 F 0.6632(9) 0.2974(3) 0.9920(4)
C27 C 0.6859(9) 0.2333(4) 0.9694(4)
F13 F 0.7556(11) 0.2013(6) 1.0979(5)
C28 C 0.7417(12) 0.1883(5) 1.0205(5)
F14 F 0.8282(9) 0.0813(5) 1.0444(5)
C29 C 0.7680(13) 0.1246(5) 0.9955(5)
F15 F 0.7757(8) 0.0468(4) 0.8980(6)
C30 C 0.7375(15) 0.1079(6) 0.9204(5)
C31 C 0.5912(3) 0.0447(2) 0.7741(3)
F16 F 0.4358(2) 0.08540(14) 0.82174(19)
C32 C 0.4902(4) 0.0329(2) 0.7949(3)
F17 F 0.3410(3) -0.0387(2) 0.8125(3)
C33 C 0.4384(4) -0.0308(3) 0.7911(4)
F18 F 0.4476(3) -0.14953(16) 0.7624(3)
C34 C 0.4947(5) -0.0866(3) 0.7673(3)
F19 F 0.6464(3) -0.13362(14) 0.7248(2)
C35 C 0.5948(4) -0.0780(2) 0.7480(3)
F20 F 0.7435(2) -0.01078(13) 0.73462(17)
C36 C 0.6412(4) -0.0139(2) 0.7527(3)
C37? C 0.662(4) 0.1460(16) 0.8679(9)
F21? F 0.5615(17) 0.2506(10) 0.8547(11)
C38? C 0.621(2) 0.2033(11) 0.8992(9)
F22? F 0.608(2) 0.2799(11) 1.0007(10)
C39? C 0.647(3) 0.2210(12) 0.9746(10)
F23? F 0.780(2) 0.2140(15) 1.0874(15)
C40? C 0.718(3) 0.1829(12) 1.0253(14)
F24? F 0.794(2) 0.0724(12) 1.0500(14)
C41? C 0.747(4) 0.1198(13) 0.9997(11)
F25? F 0.746(2) 0.0393(11) 0.9055(15)
C42? C 0.721(5) 0.1048(16) 0.9237(11)
loop_
_geom_bond_atom_site_label_1
_geom_bond_atom_site_label_2
_geom_bond_site_symmetry_1
_geom_bond_site_symmetry_2
N1 H1 1_555 1_555
C1 N1 1_555 1_555
H2 C1 1_555 1_555
H3 C1 1_555 1_555
C2 C1 1_555 1_555
H4 C2 1_555 1_555
H5 C2 1_555 1_555
C3 C2 1_555 1_555
H6 C3 1_555 1_555
C4 N1 1_555 1_555
C5 C4 1_555 1_555
H7 C5 1_555 1_555
H8 C5 1_555 1_555
C6 C5 1_555 1_555
H9 C6 1_555 1_555
H10 C6 1_555 1_555
C7 C6 1_555 1_555
H11 C7 1_555 1_555
H12 C7 1_555 1_555
C8 N1 1_555 1_555
C9 C4 1_555 1_555
H13 C9 1_555 1_555
H14 C9 1_555 1_555
H15 C9 1_555 1_555
C10 C4 1_555 1_555
H16 C10 1_555 1_555
H17 C10 1_555 1_555
H18 C10 1_555 1_555
C11 C8 1_555 1_555
H19 C11 1_555 1_555
H20 C11 1_555 1_555
H21 C11 1_555 1_555
C12 C8 1_555 1_555
H22 C12 1_555 1_555
H23 C12 1_555 1_555
H24 C12 1_555 1_555
B1 C3 1_555 1_555
H25 B1 1_555 1_555
C13 B1 1_555 1_555
F1 C14 1_555 1_555
C14 C13 1_555 1_555
F2 C15 1_555 1_555
C15 C14 1_555 1_555
F3 C16 1_555 1_555
C16 C15 1_555 1_555
F4 C17 1_555 1_555
C17 C16 1_555 1_555
F5 C18 1_555 1_555
C18 C13 1_555 1_555
C19 B1 1_555 1_555
F6 C20 1_555 1_555
C20 C19 1_555 1_555
F7 C21 1_555 1_555
C21 C20 1_555 1_555
F8 C22 1_555 1_555
C22 C21 1_555 1_555
F9 C23 1_555 1_555
C23 C22 1_555 1_555
F10 C24 1_555 1_555
C24 C19 1_555 1_555
B2 C3 1_555 1_555
C25 B2 1_555 1_555
F11 C26 1_555 1_555
C26 C25 1_555 1_555
F12 C27 1_555 1_555
C27 C26 1_555 1_555
F13 C28 1_555 1_555
C28 C27 1_555 1_555
F14 C29 1_555 1_555
C29 C28 1_555 1_555
F15 C30 1_555 1_555
C30 C25 1_555 1_555
C31 B2 1_555 1_555
F16 C32 1_555 1_555
C32 C31 1_555 1_555
F17 C33 1_555 1_555
C33 C32 1_555 1_555
F18 C34 1_555 1_555
C34 C33 1_555 1_555
F19 C35 1_555 1_555
C35 C34 1_555 1_555
F20 C36 1_555 1_555
C36 C31 1_555 1_555
C7 C8 1_555 1_555
H25 B2 1_555 1_555
C17 C18 1_555 1_555
C23 C24 1_555 1_555
C29 C30 1_555 1_555
C35 C36 1_555 1_555

#END
