
#######################################################################
#
#                 Cambridge Crystallographic Data Centre
#                                CCDC 
#
#######################################################################
#
# If this CIF has been generated from an entry in the Cambridge 
# Structural Database, then it will include bibliographic, chemical, 
# crystal, experimental, refinement or atomic coordinate data resulting 
# from the CCDC's data processing and validation procedures.
#
#######################################################################

data_ILUFAY
_chemical_formula_moiety         'C20 H21 B1 F2 N2 O2'
_chemical_name_systematic        
2-(5,5-Difluoro-1,3,7,9-tetramethyl-5H-4\l^5^,5\l^5^-dipyrrolo[1,2-c:2',1'-f][1,3,2]diazaborinin-10-yl)-5-methoxyphenol
_symmetry_cell_setting           monoclinic
_symmetry_space_group_name_H-M   'P 21/n'
_symmetry_Int_Tables_number      14
_space_group_name_Hall           '-P 2yn'
loop_
_symmetry_equiv_pos_site_id
_symmetry_equiv_pos_as_xyz
1 x,y,z
2 1/2-x,1/2+y,1/2-z
3 -x,-y,-z
4 1/2+x,1/2-y,1/2+z
_cell_length_a                   10.8262(4)
_cell_length_b                   13.6218(3)
_cell_length_c                   13.6098(5)
_cell_angle_alpha                90
_cell_angle_beta                 110.908(4)
_cell_angle_gamma                90
_cell_volume                     1874.91
_exptl_crystal_colour            'black red'
_exptl_crystal_description       block
_cell_formula_units_Z            4
loop_
_atom_site_label
_atom_site_type_symbol
_atom_site_fract_x
_atom_site_fract_y
_atom_site_fract_z
B1 B 1.0455(5) 0.3539(4) 0.0270(5)
F1 F 1.0745(3) 0.4170(2) -0.0432(2)
F2 F 1.1108(3) 0.2660(2) 0.0296(3)
N1 N 1.0945(3) 0.4011(3) 0.1371(3)
N2 N 0.8993(4) 0.3384(3) -0.0033(4)
O1 O 0.7792(5) 0.5896(3) 0.1644(4)
H1 H 0.8230 0.5676 0.1312
O2 O 0.5904(3) 0.4964(3) 0.4136(3)
C1 C 1.2207(5) 0.4343(4) 0.1928(4)
C2 C 1.2235(5) 0.4696(4) 0.2896(5)
H2 H 1.2977 0.4955 0.3417
C3 C 1.1022(5) 0.4606(4) 0.2967(4)
C4 C 1.0170(4) 0.4160(3) 0.1978(4)
C5 C 0.8852(4) 0.3965(3) 0.1618(4)
C6 C 0.8232(4) 0.3536(3) 0.0593(4)
C7 C 0.6893(5) 0.3300(4) 0.0008(4)
C8 C 0.6891(5) 0.2973(4) -0.0955(5)
H3 H 0.6153 0.2747 -0.1504
C9 C 0.8147(5) 0.3034(4) -0.0973(5)
C10 C 1.3287(5) 0.4316(4) 0.1482(4)
H4 H 1.3243 0.4896 0.1070
H5 H 1.3182 0.3746 0.1045
H6 H 1.4129 0.4289 0.2046
C11 C 1.0680(6) 0.4897(5) 0.3907(5)
H7 H 1.1467 0.5099 0.4468
H8 H 1.0293 0.4348 0.4133
H9 H 1.0060 0.5431 0.3719
C12 C 0.5697(5) 0.3353(5) 0.0346(5)
H10 H 0.4930 0.3114 -0.0212
H11 H 0.5553 0.4022 0.0501
H12 H 0.5852 0.2957 0.0962
C13 C 0.8616(6) 0.2797(5) -0.1845(5)
H13 H 0.9104 0.3344 -0.1965
H14 H 0.7870 0.2665 -0.2473
H15 H 0.9177 0.2229 -0.1663
C14 C 0.8020(4) 0.4226(3) 0.2243(4)
C15 C 0.7575(5) 0.5165(4) 0.2265(4)
C16 C 0.6853(4) 0.5446(4) 0.2849(4)
H16 H 0.6539 0.6086 0.2811
C17 C 0.6592(4) 0.4769(4) 0.3498(4)
C18 C 0.7010(5) 0.3802(4) 0.3502(4)
H17 H 0.6801 0.3342 0.3922
C19 C 0.7731(4) 0.3512(4) 0.2890(4)
H18 H 0.8018 0.2867 0.2903
C20 C 0.5555(5) 0.5969(4) 0.4211(5)
H19 H 0.6336 0.6368 0.4414
H20 H 0.5145 0.6027 0.4729
H21 H 0.4948 0.6185 0.3541
loop_
_geom_bond_atom_site_label_1
_geom_bond_atom_site_label_2
_geom_bond_site_symmetry_1
_geom_bond_site_symmetry_2
B1 F1 1_555 1_555
F2 B1 1_555 1_555
N1 B1 1_555 1_555
N2 B1 1_555 1_555
O1 H1 1_555 1_555
O2 C17 1_555 1_555
C1 N1 1_555 1_555
C2 C1 1_555 1_555
H2 C2 1_555 1_555
C3 C2 1_555 1_555
C4 N1 1_555 1_555
C5 C4 1_555 1_555
C6 N2 1_555 1_555
C7 C6 1_555 1_555
C8 C7 1_555 1_555
H3 C8 1_555 1_555
C9 N2 1_555 1_555
C10 C1 1_555 1_555
H4 C10 1_555 1_555
H5 C10 1_555 1_555
H6 C10 1_555 1_555
C11 C3 1_555 1_555
H7 C11 1_555 1_555
H8 C11 1_555 1_555
H9 C11 1_555 1_555
C12 C7 1_555 1_555
H10 C12 1_555 1_555
H11 C12 1_555 1_555
H12 C12 1_555 1_555
C13 C9 1_555 1_555
H13 C13 1_555 1_555
H14 C13 1_555 1_555
H15 C13 1_555 1_555
C14 C5 1_555 1_555
C15 O1 1_555 1_555
C16 C15 1_555 1_555
H16 C16 1_555 1_555
C17 C16 1_555 1_555
C18 C17 1_555 1_555
H17 C18 1_555 1_555
C19 C14 1_555 1_555
H18 C19 1_555 1_555
C20 O2 1_555 1_555
H19 C20 1_555 1_555
H20 C20 1_555 1_555
H21 C20 1_555 1_555
C3 C4 1_555 1_555
C5 C6 1_555 1_555
C8 C9 1_555 1_555
C14 C15 1_555 1_555
C18 C19 1_555 1_555

#END
