
#######################################################################
#
#                 Cambridge Crystallographic Data Centre
#                                CCDC 
#
#######################################################################
#
# If this CIF has been generated from an entry in the Cambridge 
# Structural Database, then it will include bibliographic, chemical, 
# crystal, experimental, refinement or atomic coordinate data resulting 
# from the CCDC's data processing and validation procedures.
#
#######################################################################

data_ILUVOC
_chemical_formula_moiety         'C23 H24 B1 F2 N3'
_chemical_name_systematic        
7-(4-Ethyl-3,5-dimethyl-1H-pyrrol-2-yl)-5,5-difluoro-1,3-dimethyl-5H-6\l^5^,5\l^5^-pyrrolo[1',2':3,4][1,3,2]diazaborinino[6,1-a]isoindole
_symmetry_cell_setting           triclinic
_symmetry_space_group_name_H-M   'P -1'
_symmetry_Int_Tables_number      2
_space_group_name_Hall           '-P 1'
loop_
_symmetry_equiv_pos_site_id
_symmetry_equiv_pos_as_xyz
1 x,y,z
2 -x,-y,-z
_cell_length_a                   7.4751(9)
_cell_length_b                   11.1726(14)
_cell_length_c                   13.0125(16)
_cell_angle_alpha                67.7810(10)
_cell_angle_beta                 85.089(2)
_cell_angle_gamma                87.239(2)
_cell_volume                     1002.22
_exptl_crystal_colour            colorless
_exptl_crystal_description       block
_cell_formula_units_Z            2
_chemical_properties_physical    Efflorescent
_exptl_crystal_preparation       Luminescent
loop_
_atom_site_label
_atom_site_type_symbol
_atom_site_fract_x
_atom_site_fract_y
_atom_site_fract_z
B1 B 0.2262(3) 0.79160(19) 0.11539(16)
C1 C 0.2623(2) 0.55483(16) 0.45802(13)
F1 F 0.07671(15) 0.72316(10) 0.17312(8)
N1 N 0.30605(19) 0.65028(13) 0.35881(11)
H1 H 0.3552 0.6380 0.3013
C2 C 0.1865(2) 0.61160(18) 0.52890(14)
F2 F 0.37530(15) 0.70544(10) 0.13276(8)
N2 N 0.26483(19) 0.89975(13) 0.15943(11)
C3 C 0.1847(2) 0.74678(17) 0.46985(14)
N3 N 0.2007(2) 0.85485(14) -0.00890(11)
C4 C 0.2612(2) 0.76966(16) 0.36242(13)
C5 C 0.2822(2) 0.88781(16) 0.26644(13)
C6 C 0.3245(2) 1.01285(16) 0.26487(14)
C7 C 0.3728(3) 1.05387(19) 0.34792(17)
H2 H 0.3792 0.9956 0.4209
C8 C 0.4101(3) 1.1817(2) 0.31900(19)
H3 H 0.4412 1.2105 0.3733
C9 C 0.4023(3) 1.2697(2) 0.2095(2)
H4 H 0.4235 1.3566 0.1930
C10 C 0.3640(3) 1.23094(18) 0.12567(18)
H5 H 0.3632 1.2895 0.0525
C11 C 0.3263(2) 1.10054(17) 0.15385(15)
C12 C 0.2895(2) 1.02861(16) 0.08774(14)
C13 C 0.2723(2) 1.06842(17) -0.02458(14)
H6 H 0.2897 1.1551 -0.0691
C14 C 0.2302(2) 0.98435(17) -0.07388(13)
C15 C 0.2035(3) 1.00452(19) -0.18524(14)
C16 C 0.1559(3) 0.8864(2) -0.18472(15)
H7 H 0.1286 0.8704 -0.2467
C17 C 0.1553(3) 0.7955(2) -0.07714(15)
C18 C 0.2965(3) 0.41660(17) 0.47557(16)
H8 H 0.3118 0.4076 0.4048
H9 H 0.1964 0.3662 0.5188
H10 H 0.4034 0.3866 0.5145
C19 C 0.1168(3) 0.5400(2) 0.64776(15)
H11 H 0.0640 0.4600 0.6532
H12 H 0.0223 0.5919 0.6673
C20 C 0.2576(3) 0.5086(3) 0.73101(17)
H13 H 0.3521 0.4574 0.7124
H14 H 0.2042 0.4611 0.8042
H15 H 0.3061 0.5874 0.7294
C21 C 0.0940(3) 0.8428(2) 0.51316(17)
H16 H 0.1709 0.8602 0.5612
H17 H -0.0169 0.8082 0.5542
H18 H 0.0701 0.9216 0.4519
C22 C 0.2242(3) 1.1302(2) -0.28228(15)
H19 H 0.2924 1.1162 -0.3428
H20 H 0.2858 1.1899 -0.2612
H21 H 0.1079 1.1652 -0.3051
C23 C 0.1159(4) 0.6552(2) -0.03569(18)
H22 H 0.2210 0.6057 -0.0058
H23 H 0.0819 0.6336 -0.0960
H24 H 0.0195 0.6356 0.0215
loop_
_geom_bond_atom_site_label_1
_geom_bond_atom_site_label_2
_geom_bond_site_symmetry_1
_geom_bond_site_symmetry_2
B1 F1 1_555 1_555
C1 N1 1_555 1_555
N1 H1 1_555 1_555
C2 C1 1_555 1_555
F2 B1 1_555 1_555
N2 B1 1_555 1_555
C3 C2 1_555 1_555
N3 B1 1_555 1_555
C4 N1 1_555 1_555
C5 N2 1_555 1_555
C6 C5 1_555 1_555
C7 C6 1_555 1_555
H2 C7 1_555 1_555
C8 C7 1_555 1_555
H3 C8 1_555 1_555
C9 C8 1_555 1_555
H4 C9 1_555 1_555
C10 C9 1_555 1_555
H5 C10 1_555 1_555
C11 C6 1_555 1_555
C12 N2 1_555 1_555
C13 C12 1_555 1_555
H6 C13 1_555 1_555
C14 N3 1_555 1_555
C15 C14 1_555 1_555
C16 C15 1_555 1_555
H7 C16 1_555 1_555
C17 N3 1_555 1_555
C18 C1 1_555 1_555
H8 C18 1_555 1_555
H9 C18 1_555 1_555
H10 C18 1_555 1_555
C19 C2 1_555 1_555
H11 C19 1_555 1_555
H12 C19 1_555 1_555
C20 C19 1_555 1_555
H13 C20 1_555 1_555
H14 C20 1_555 1_555
H15 C20 1_555 1_555
C21 C3 1_555 1_555
H16 C21 1_555 1_555
H17 C21 1_555 1_555
H18 C21 1_555 1_555
C22 C15 1_555 1_555
H19 C22 1_555 1_555
H20 C22 1_555 1_555
H21 C22 1_555 1_555
C23 C17 1_555 1_555
H22 C23 1_555 1_555
H23 C23 1_555 1_555
H24 C23 1_555 1_555
C3 C4 1_555 1_555
C4 C5 1_555 1_555
C10 C11 1_555 1_555
C11 C12 1_555 1_555
C13 C14 1_555 1_555
C16 C17 1_555 1_555

#END
