
#######################################################################
#
#                 Cambridge Crystallographic Data Centre
#                                CCDC 
#
#######################################################################
#
# If this CIF has been generated from an entry in the Cambridge 
# Structural Database, then it will include bibliographic, chemical, 
# crystal, experimental, refinement or atomic coordinate data resulting 
# from the CCDC's data processing and validation procedures.
#
#######################################################################

data_IMASIZ
_chemical_formula_moiety         'C34 H40 N4 Se2'
_chemical_name_systematic        
'10,11,12,13,14,15,16,26,27,28,29,30,31,32-tetradecahydrotetrabenzo [b,k,n,w][1,13,5,9,17,21]diselena-tetraazacyclotetracosine'
_symmetry_cell_setting           monoclinic
_symmetry_space_group_name_H-M   'P 21/c'
_symmetry_Int_Tables_number      14
_space_group_name_Hall           '-P 2ybc'
loop_
_symmetry_equiv_pos_site_id
_symmetry_equiv_pos_as_xyz
1 x,y,z
2 -x,1/2+y,1/2-z
3 -x,-y,-z
4 x,1/2-y,1/2+z
_cell_length_a                   9.7112(6)
_cell_length_b                   5.8603(3)
_cell_length_c                   26.4561(15)
_cell_angle_alpha                90
_cell_angle_beta                 94.5000(10)
_cell_angle_gamma                90
_cell_volume                     1500.99
_exptl_crystal_colour            colorless
_exptl_crystal_description       needle
_cell_formula_units_Z            2
loop_
_atom_site_label
_atom_site_type_symbol
_atom_site_fract_x
_atom_site_fract_y
_atom_site_fract_z
Se1 Se 0.094356(18) 0.82544(3) 0.412063(7)
N1 N 0.3163(2) 0.4983(3) 0.47815(7)
H1 H 0.372(3) 0.544(6) 0.4878(12)
N2 N -0.16268(16) 1.0954(3) 0.43755(6)
H2 H -0.146(2) 1.176(4) 0.4630(9)
C1 C 0.25934(18) 0.7707(3) 0.37724(7)
C2 C 0.2990(2) 0.9292(3) 0.34197(7)
H3 H 0.2453 1.0609 0.3354
C3 C 0.4162(2) 0.8956(4) 0.31643(8)
H4 H 0.4413 1.0030 0.2924
C4 C 0.4964(2) 0.7036(4) 0.32635(8)
H5 H 0.5758 0.6792 0.3089
C5 C 0.45944(19) 0.5478(4) 0.36197(7)
H6 H 0.5149 0.4182 0.3687
C6 C 0.34111(18) 0.5779(3) 0.38842(7)
C7 C 0.3042(2) 0.4044(3) 0.42690(7)
H7 H 0.2092 0.3522 0.4186
H8 H 0.3655 0.2721 0.4254
C8 C 0.2642(2) 0.3443(3) 0.51599(8)
H9 H 0.1667 0.3116 0.5064
H10 H 0.2697 0.4220 0.5489
C9 C -0.02735(18) 0.8750(3) 0.35196(6)
C10 C -0.0270(2) 0.7204(4) 0.31224(7)
H11 H 0.0319 0.5930 0.3151
C11 C -0.1124(2) 0.7519(4) 0.26854(8)
H12 H -0.1110 0.6470 0.2417
C12 C -0.2002(2) 0.9382(4) 0.26436(7)
H13 H -0.2579 0.9612 0.2346
C13 C -0.20257(19) 1.0901(4) 0.30410(8)
H14 H -0.2631 1.2154 0.3010
C14 C -0.11765(18) 1.0629(3) 0.34873(7)
C15 C -0.1254(2) 1.2223(3) 0.39307(7)
H15 H -0.0358 1.2970 0.4006
H16 H -0.1946 1.3408 0.3846
C16 C -0.30653(18) 1.0221(3) 0.43342(7)
H17 H -0.3244 0.9321 0.4024
H18 H -0.3664 1.1568 0.4307
C17 C 0.34276(19) 0.1194(3) 0.52165(7)
H19 H 0.4420 0.1520 0.5251
H20 H 0.3236 0.0295 0.4907
Se1B Se -0.094356(18) 0.17456(3) 0.587937(7)
N1B N -0.3163(2) 0.5017(3) 0.52185(7)
H1B H -0.372(3) 0.456(6) 0.5122(12)
N2B N 0.16268(16) -0.0954(3) 0.56245(6)
H2B H 0.146(2) -0.176(4) 0.5370(9)
C1B C -0.25934(18) 0.2293(3) 0.62276(7)
C2B C -0.2990(2) 0.0708(3) 0.65803(7)
H3B H -0.2453 -0.0609 0.6646
C3B C -0.4162(2) 0.1044(4) 0.68357(8)
H4B H -0.4413 -0.0030 0.7076
C4B C -0.4964(2) 0.2964(4) 0.67365(8)
H5B H -0.5758 0.3208 0.6911
C5B C -0.45944(19) 0.4522(4) 0.63803(7)
H6B H -0.5149 0.5818 0.6313
C6B C -0.34111(18) 0.4221(3) 0.61158(7)
C7B C -0.3042(2) 0.5956(3) 0.57310(7)
H7B H -0.2092 0.6478 0.5814
H8B H -0.3655 0.7279 0.5746
C8B C -0.2642(2) 0.6557(3) 0.48401(8)
H9B H -0.1667 0.6884 0.4936
H10B H -0.2697 0.5780 0.4511
C9B C 0.02735(18) 0.1250(3) 0.64804(6)
C10B C 0.0270(2) 0.2796(4) 0.68776(7)
H11B H -0.0319 0.4070 0.6849
C11B C 0.1124(2) 0.2481(4) 0.73146(8)
H12B H 0.1110 0.3530 0.7583
C12B C 0.2002(2) 0.0618(4) 0.73564(7)
H13B H 0.2579 0.0388 0.7654
C13B C 0.20257(19) -0.0901(4) 0.69590(8)
H14B H 0.2631 -0.2154 0.6990
C14B C 0.11765(18) -0.0629(3) 0.65127(7)
C15B C 0.1254(2) -0.2223(3) 0.60693(7)
H15B H 0.0358 -0.2970 0.5994
H16B H 0.1946 -0.3408 0.6154
C16B C 0.30653(18) -0.0221(3) 0.56658(7)
H17B H 0.3244 0.0679 0.5976
H18B H 0.3664 -0.1568 0.5693
C17B C -0.34276(19) 0.8806(3) 0.47835(7)
H19B H -0.4420 0.8480 0.4749
H20B H -0.3236 0.9705 0.5093
loop_
_geom_bond_atom_site_label_1
_geom_bond_atom_site_label_2
_geom_bond_site_symmetry_1
_geom_bond_site_symmetry_2
Se1 C1 1_555 1_555
N1 H1 1_555 1_555
N2 H2 1_555 1_555
C1 C2 1_555 1_555
C2 H3 1_555 1_555
C3 C2 1_555 1_555
H4 C3 1_555 1_555
C4 C3 1_555 1_555
H5 C4 1_555 1_555
C5 C4 1_555 1_555
H6 C5 1_555 1_555
C6 C1 1_555 1_555
C7 N1 1_555 1_555
H7 C7 1_555 1_555
H8 C7 1_555 1_555
C8 N1 1_555 1_555
H9 C8 1_555 1_555
H10 C8 1_555 1_555
C9 Se1 1_555 1_555
C10 C9 1_555 1_555
H11 C10 1_555 1_555
C11 C10 1_555 1_555
H12 C11 1_555 1_555
C12 C11 1_555 1_555
H13 C12 1_555 1_555
C13 C12 1_555 1_555
H14 C13 1_555 1_555
C14 C9 1_555 1_555
C15 N2 1_555 1_555
H15 C15 1_555 1_555
H16 C15 1_555 1_555
C16 N2 1_555 1_555
H17 C16 1_555 1_555
H18 C16 1_555 1_555
C17 C8 1_555 1_555
H19 C17 1_555 1_555
H20 C17 1_555 1_555
Se1B C1B 1_555 1_555
N1B H1B 1_555 1_555
N2B H2B 1_555 1_555
C1B C2B 1_555 1_555
C2B H3B 1_555 1_555
C3B C2B 1_555 1_555
H4B C3B 1_555 1_555
C4B C3B 1_555 1_555
H5B C4B 1_555 1_555
C5B C4B 1_555 1_555
H6B C5B 1_555 1_555
C6B C1B 1_555 1_555
C7B N1B 1_555 1_555
H7B C7B 1_555 1_555
H8B C7B 1_555 1_555
C8B N1B 1_555 1_555
H9B C8B 1_555 1_555
H10B C8B 1_555 1_555
C9B Se1B 1_555 1_555
C10B C9B 1_555 1_555
H11B C10B 1_555 1_555
C11B C10B 1_555 1_555
H12B C11B 1_555 1_555
C12B C11B 1_555 1_555
H13B C12B 1_555 1_555
C13B C12B 1_555 1_555
H14B C13B 1_555 1_555
C14B C9B 1_555 1_555
C15B N2B 1_555 1_555
H15B C15B 1_555 1_555
H16B C15B 1_555 1_555
C16B C17 1_555 1_555
H17B C16B 1_555 1_555
H18B C16B 1_555 1_555
C17B C16 1_555 1_555
H19B C17B 1_555 1_555
H20B C17B 1_555 1_555
C5 C6 1_555 1_555
C6 C7 1_555 1_555
C13 C14 1_555 1_555
C14 C15 1_555 1_555
N2B C16B 1_555 1_555
C5B C6B 1_555 1_555
C6B C7B 1_555 1_555
C8B C17B 1_555 1_555
C13B C14B 1_555 1_555
C14B C15B 1_555 1_555

#END
