
#######################################################################
#
#                 Cambridge Crystallographic Data Centre
#                                CCDC 
#
#######################################################################
#
# If this CIF has been generated from an entry in the Cambridge 
# Structural Database, then it will include bibliographic, chemical, 
# crystal, experimental, refinement or atomic coordinate data resulting 
# from the CCDC's data processing and validation procedures.
#
#######################################################################

data_IMEFEN
_chemical_formula_moiety         'C23 H16 F2 N4 O2'
_chemical_name_systematic        
6-(Azido(4-fluorophenyl)methyl)-5-(4-fluorophenyl)-3-phenyl-5,6-dihydro-2H-1,4-oxazin-2-one
_symmetry_cell_setting           monoclinic
_symmetry_space_group_name_H-M   'P 21'
_symmetry_Int_Tables_number      4
_space_group_name_Hall           'P 2yb'
loop_
_symmetry_equiv_pos_site_id
_symmetry_equiv_pos_as_xyz
1 x,y,z
2 -x,1/2+y,-z
_cell_length_a                   7.8577(6)
_cell_length_b                   14.9042(8)
_cell_length_c                   9.3787(7)
_cell_angle_alpha                90
_cell_angle_beta                 113.529(9)
_cell_angle_gamma                90
_cell_volume                     1007.05
_exptl_crystal_colour            'dark yellow'
_exptl_crystal_description       block
_cell_formula_units_Z            2
loop_
_atom_site_label
_atom_site_type_symbol
_atom_site_fract_x
_atom_site_fract_y
_atom_site_fract_z
F1 F 0.2581(2) 0.31066(14) -0.53787(15)
F2 F 0.2920(2) -0.08476(11) 0.4576(2)
O1 O 0.23409(18) 0.26440(9) 0.13029(16)
O2 O -0.04394(19) 0.32253(12) 0.05974(19)
N1 N 0.3620(2) 0.44272(11) 0.13684(18)
N2 N 0.7248(3) 0.22042(15) 0.2568(3)
N3 N 0.8304(3) 0.15775(17) 0.2623(3)
N4 N 0.9410(4) 0.1068(2) 0.2768(4)
C1 C 0.4587(3) 0.36606(13) 0.1044(2)
H1 H 0.5917 0.3798 0.1495
C2 C 0.4296(3) 0.28448(13) 0.1906(2)
H2 H 0.4700 0.3004 0.3007
C3 C 0.1211(3) 0.33393(14) 0.1132(2)
C4 C 0.2088(3) 0.42621(14) 0.1491(2)
C5 C 0.1055(3) 0.49844(15) 0.1867(2)
C6 C -0.0152(3) 0.48039(17) 0.2585(3)
H3 H -0.0377 0.4214 0.2782
C7 C -0.1014(4) 0.5496(2) 0.3006(3)
H4 H -0.1815 0.5373 0.3491
C8 C -0.0693(4) 0.6372(2) 0.2711(3)
H5 H -0.1272 0.6838 0.3005
C9 C 0.0473(4) 0.65611(18) 0.1987(3)
H6 H 0.0672 0.7153 0.1779
C10 C 0.1350(3) 0.58728(15) 0.1570(2)
H7 H 0.2148 0.6003 0.1085
C11 C 0.4008(3) 0.35281(13) -0.0706(2)
C12 C 0.2387(3) 0.38809(16) -0.1801(3)
H8 H 0.1604 0.4212 -0.1476
C13 C 0.1910(3) 0.37492(19) -0.3378(3)
H9 H 0.0824 0.3994 -0.4111
C14 C 0.3060(3) 0.32550(17) -0.3828(2)
C15 C 0.4678(3) 0.28977(16) -0.2794(3)
H10 H 0.5442 0.2564 -0.3136
C16 C 0.5158(3) 0.30421(16) -0.1223(2)
H11 H 0.6268 0.2810 -0.0504
C17 C 0.5247(3) 0.19701(15) 0.1807(2)
H12 H 0.4935 0.1825 0.0712
C18 C 0.4692(3) 0.11998(14) 0.2568(2)
C19 C 0.3502(3) 0.05472(15) 0.1663(2)
H13 H 0.3103 0.0574 0.0587
C20 C 0.2893(3) -0.01416(16) 0.2317(3)
H14 H 0.2094 -0.0580 0.1702
C21 C 0.3505(3) -0.01598(16) 0.3907(3)
C22 C 0.4695(3) 0.04563(18) 0.4850(3)
H15 H 0.5102 0.0416 0.5925
C23 C 0.5286(3) 0.11451(17) 0.4173(2)
H16 H 0.6092 0.1578 0.4799
loop_
_geom_bond_atom_site_label_1
_geom_bond_atom_site_label_2
_geom_bond_site_symmetry_1
_geom_bond_site_symmetry_2
F1 C14 1_555 1_555
F2 C21 1_555 1_555
O1 C2 1_555 1_555
O2 C3 1_555 1_555
N1 C1 1_555 1_555
N2 N3 1_555 1_555
N3 N4 1_555 1_555
C1 H1 1_555 1_555
C2 C1 1_555 1_555
H2 C2 1_555 1_555
C3 O1 1_555 1_555
C4 N1 1_555 1_555
C5 C4 1_555 1_555
C6 C5 1_555 1_555
H3 C6 1_555 1_555
C7 C6 1_555 1_555
H4 C7 1_555 1_555
C8 C7 1_555 1_555
H5 C8 1_555 1_555
C9 C8 1_555 1_555
H6 C9 1_555 1_555
C10 C5 1_555 1_555
H7 C10 1_555 1_555
C11 C1 1_555 1_555
C12 C11 1_555 1_555
H8 C12 1_555 1_555
C13 C12 1_555 1_555
H9 C13 1_555 1_555
C14 C13 1_555 1_555
C15 C14 1_555 1_555
H10 C15 1_555 1_555
C16 C11 1_555 1_555
H11 C16 1_555 1_555
C17 N2 1_555 1_555
H12 C17 1_555 1_555
C18 C17 1_555 1_555
C19 C18 1_555 1_555
H13 C19 1_555 1_555
C20 C19 1_555 1_555
H14 C20 1_555 1_555
C21 C20 1_555 1_555
C22 C21 1_555 1_555
H15 C22 1_555 1_555
C23 C18 1_555 1_555
H16 C23 1_555 1_555
C2 C17 1_555 1_555
C3 C4 1_555 1_555
C9 C10 1_555 1_555
C15 C16 1_555 1_555
C22 C23 1_555 1_555

#END
