
#######################################################################
#
#                 Cambridge Crystallographic Data Centre
#                                CCDC 
#
#######################################################################
#
# If this CIF has been generated from an entry in the Cambridge 
# Structural Database, then it will include bibliographic, chemical, 
# crystal, experimental, refinement or atomic coordinate data resulting 
# from the CCDC's data processing and validation procedures.
#
#######################################################################

data_IMESEY
_chemical_formula_moiety         
'3(C10 H8 S8 1+),2(C10 H8 S8),3(Cl1 1-),5(H2 O1)'
_chemical_name_systematic        
'pentakis(bis(Ethylenedithio)tetrathiafulvalenium) trichloride pentahydrate'
_symmetry_cell_setting           triclinic
_symmetry_space_group_name_H-M   'P -1'
_symmetry_Int_Tables_number      2
_space_group_name_Hall           '-P 1'
loop_
_symmetry_equiv_pos_site_id
_symmetry_equiv_pos_as_xyz
1 x,y,z
2 -x,-y,-z
_cell_length_a                   6.7304(2)
_cell_length_b                   17.2428(7)
_cell_length_c                   18.5955(8)
_cell_angle_alpha                106.184(2)
_cell_angle_beta                 97.342(2)
_cell_angle_gamma                90.108(2)
_cell_volume                     2053.92
_exptl_crystal_colour            black
_exptl_crystal_description       block
_cell_formula_units_Z            1
loop_
_atom_site_label
_atom_site_type_symbol
_atom_site_fract_x
_atom_site_fract_y
_atom_site_fract_z
Cl1 Cl -0.1762(6) 0.0357(2) 0.5237(3)
Cl2 Cl 0.4849(5) 0.01245(19) 0.3852(2)
Cl3 Cl 0.4812(6) 0.0210(2) 0.2348(2)
O1 O 0.0797(9) 0.0555(2) 0.1380(2)
O2 O -0.3166(10) -0.0419(4) 0.0042(6)
O3 O -0.213(2) 0.0245(8) 0.1314(8)
S1 S -0.46356(17) 0.54336(7) 0.40764(8)
S2 S -0.04537(17) 0.58700(7) 0.40279(8)
S3 S -0.33581(17) 0.36291(7) 0.40737(8)
S4 S 0.07597(17) 0.40384(7) 0.39199(8)
S5 S -0.6185(2) 0.70186(9) 0.40816(11)
S6 S -0.11758(18) 0.75673(7) 0.40729(8)
S7 S -0.2687(2) 0.19227(8) 0.39650(9)
S8 S 0.2229(2) 0.24055(9) 0.37889(10)
C1 C -0.2175(6) 0.5129(3) 0.4045(3)
C2 C -0.1660(6) 0.4363(3) 0.4025(3)
C3 C -0.4107(7) 0.6422(3) 0.4067(3)
C4 C -0.2179(6) 0.6628(3) 0.4051(3)
C5 C -0.1642(6) 0.2858(3) 0.3998(3)
C6 C 0.0244(7) 0.3055(3) 0.3928(3)
C7 C -0.5059(10) 0.7989(4) 0.4260(6)
H1 H -0.5989 0.8278 0.3997
H2 H -0.5075 0.8243 0.4795
C8 C -0.3311(10) 0.8165(4) 0.4126(7)
H3 H -0.2882 0.8669 0.4505
H4 H -0.3539 0.8294 0.3647
C9 C -0.0653(10) 0.1287(3) 0.3784(5)
H5 H 0.0007 0.1253 0.4269
H6 H -0.1211 0.0751 0.3512
C10 C 0.0866(10) 0.1463(4) 0.3381(4)
H7 H 0.0249 0.1453 0.2877
H8 H 0.1813 0.1034 0.3327
S9 S -0.53120(17) 0.48481(8) 0.18815(8)
S10 S -0.11034(17) 0.44103(8) 0.19501(8)
S11 S -0.39786(17) 0.66644(7) 0.19332(8)
S12 S 0.02365(17) 0.62459(8) 0.20845(8)
S13 S -0.6878(2) 0.32913(10) 0.19526(13)
S14 S -0.18875(19) 0.27402(8) 0.19982(8)
S15 S -0.31776(19) 0.83914(8) 0.21130(9)
S16 S 0.18542(19) 0.78834(9) 0.22825(10)
C11 C -0.2824(7) 0.5149(3) 0.1938(3)
C12 C -0.2264(6) 0.5922(3) 0.1973(3)
C13 C -0.4792(7) 0.3879(3) 0.1942(3)
C14 C -0.2859(7) 0.3674(3) 0.1967(3)
C15 C -0.2207(7) 0.7442(3) 0.2050(3)
C16 C -0.0262(7) 0.7244(3) 0.2118(3)
C17 C -0.5904(10) 0.2347(4) 0.1862(7)
H9 H -0.6236 0.2195 0.2297
H10 H -0.6728 0.1993 0.1428
C18 C -0.4139(11) 0.2120(4) 0.1794(7)
H11 H -0.4183 0.1802 0.1271
H12 H -0.3909 0.1742 0.2094
C19 C -0.0986(11) 0.9008(4) 0.2453(8)
H13 H -0.1050 0.9383 0.2148
H14 H -0.1194 0.9326 0.2955
C20 C 0.0816(10) 0.8831(4) 0.2520(6)
H15 H 0.1312 0.9067 0.3051
H16 H 0.1469 0.9141 0.2249
S17 S -0.27355(16) 0.42720(7) -0.01116(8)
S18 S 0.15049(16) 0.38812(7) -0.00059(8)
S19 S -0.42653(18) 0.26456(8) -0.02330(9)
S20 S 0.08093(18) 0.21551(7) -0.01455(9)
C21 C -0.0250(6) 0.4607(3) -0.0021(3)
C22 C -0.2174(7) 0.3277(3) -0.0141(3)
C23 C -0.0237(6) 0.3086(3) -0.0102(3)
C24 C -0.3209(7) 0.1663(3) -0.0480(3)
H17 H -0.4176 0.1269 -0.0431
H18 H -0.3000 0.1526 -0.1007
C25 C -0.1286(7) 0.1591(3) -0.0019(3)
H19 H -0.0964 0.1025 -0.0138
H20 H -0.1475 0.1765 0.0509
C21A C 0.0250(6) 0.5393(3) 0.0021(3)
S17A S 0.27355(16) 0.57280(7) 0.01116(8)
C22A C 0.2174(7) 0.6723(3) 0.0141(3)
S19A S 0.42653(18) 0.73544(8) 0.02330(9)
C24A C 0.3209(7) 0.8337(3) 0.0480(3)
H17A H 0.4176 0.8731 0.0431
H18A H 0.3000 0.8474 0.1007
C25A C 0.1286(7) 0.8409(3) 0.0019(3)
S20A S -0.08093(18) 0.78449(7) 0.01455(9)
C23A C 0.0237(6) 0.6914(3) 0.0102(3)
S18A S -0.15049(16) 0.61188(7) 0.00059(8)
H19A H 0.0964 0.8975 0.0138
H20A H 0.1475 0.8235 -0.0509
loop_
_geom_bond_atom_site_label_1
_geom_bond_atom_site_label_2
_geom_bond_site_symmetry_1
_geom_bond_site_symmetry_2
S1 C1 1_555 1_555
S2 C1 1_555 1_555
S3 C2 1_555 1_555
S4 C2 1_555 1_555
S5 C3 1_555 1_555
S6 C4 1_555 1_555
S7 C5 1_555 1_555
S8 C6 1_555 1_555
S9 C11 1_555 1_555
S10 C11 1_555 1_555
S11 C12 1_555 1_555
S12 C12 1_555 1_555
S13 C13 1_555 1_555
S14 C14 1_555 1_555
S15 C15 1_555 1_555
S16 C16 1_555 1_555
S17 C21 1_555 1_555
S18 C21 1_555 1_555
S19 C22 1_555 1_555
S20 C23 1_555 1_555
C1 C2 1_555 1_555
C3 S1 1_555 1_555
C4 S2 1_555 1_555
C5 S3 1_555 1_555
C6 S4 1_555 1_555
C7 S5 1_555 1_555
H1 C7 1_555 1_555
H2 C7 1_555 1_555
C8 S6 1_555 1_555
H3 C8 1_555 1_555
H4 C8 1_555 1_555
C9 S7 1_555 1_555
H5 C9 1_555 1_555
H6 C9 1_555 1_555
C10 S8 1_555 1_555
H7 C10 1_555 1_555
H8 C10 1_555 1_555
C11 C12 1_555 1_555
C13 S9 1_555 1_555
C14 S10 1_555 1_555
C15 S11 1_555 1_555
C16 S12 1_555 1_555
C17 S13 1_555 1_555
H9 C17 1_555 1_555
H10 C17 1_555 1_555
C18 S14 1_555 1_555
H11 C18 1_555 1_555
H12 C18 1_555 1_555
C19 S15 1_555 1_555
H13 C19 1_555 1_555
H14 C19 1_555 1_555
C20 S16 1_555 1_555
H15 C20 1_555 1_555
H16 C20 1_555 1_555
C21 C21A 1_555 1_555
C22 S17 1_555 1_555
C23 S18 1_555 1_555
C24 S19 1_555 1_555
H17 C24 1_555 1_555
H18 C24 1_555 1_555
C25 S20 1_555 1_555
H19 C25 1_555 1_555
H20 C25 1_555 1_555
C21A S17A 1_555 1_555
S17A C22A 1_555 1_555
C22A S19A 1_555 1_555
S19A C24A 1_555 1_555
C24A H17A 1_555 1_555
H18A C24A 1_555 1_555
C25A C24A 1_555 1_555
S20A C25A 1_555 1_555
C23A C22A 1_555 1_555
S18A C21A 1_555 1_555
H19A C25A 1_555 1_555
H20A C25A 1_555 1_555
C3 C4 1_555 1_555
C5 C6 1_555 1_555
C7 C8 1_555 1_555
C9 C10 1_555 1_555
C13 C14 1_555 1_555
C15 C16 1_555 1_555
C17 C18 1_555 1_555
C19 C20 1_555 1_555
C22 C23 1_555 1_555
C24 C25 1_555 1_555
S20A C23A 1_555 1_555
C23A S18A 1_555 1_555

#END
