
#######################################################################
#
#                 Cambridge Crystallographic Data Centre
#                                CCDC 
#
#######################################################################
#
# If this CIF has been generated from an entry in the Cambridge 
# Structural Database, then it will include bibliographic, chemical, 
# crystal, experimental, refinement or atomic coordinate data resulting 
# from the CCDC's data processing and validation procedures.
#
#######################################################################

data_IMIJUK
_chemical_formula_moiety         'C27 H36 Cl3 N2 P1'
_chemical_name_systematic        
Trichloro(1,3-bis(2,6-di-isopropylphenyl)imidazol-2-ylidene)phosphine
_symmetry_cell_setting           monoclinic
_symmetry_space_group_name_H-M   'P 21/n'
_symmetry_Int_Tables_number      14
_space_group_name_Hall           '-P 2yn'
loop_
_symmetry_equiv_pos_site_id
_symmetry_equiv_pos_as_xyz
1 x,y,z
2 1/2-x,1/2+y,1/2-z
3 -x,-y,-z
4 1/2+x,1/2-y,1/2+z
_cell_length_a                   10.6288(6)
_cell_length_b                   13.9767(7)
_cell_length_c                   19.8632(11)
_cell_angle_alpha                90
_cell_angle_beta                 103.2150(10)
_cell_angle_gamma                90
_cell_volume                     2872.65
_exptl_crystal_colour            colorless
_exptl_crystal_description       plate
_cell_formula_units_Z            4
loop_
_atom_site_label
_atom_site_type_symbol
_atom_site_fract_x
_atom_site_fract_y
_atom_site_fract_z
P2 P 0.5635(4) 0.8486(3) 0.2217(2)
Cl4 Cl 0.48050(12) 0.84056(9) 0.11825(6)
Cl5 Cl 0.3776(5) 0.7586(3) 0.2417(2)
Cl6 Cl 0.7108(5) 0.9428(4) 0.1901(3)
N1 N 0.3968(2) 1.02040(16) 0.21830(11)
N2 N 0.5140(2) 0.98344(17) 0.31883(11)
C1 C 0.4875(2) 0.95790(18) 0.25156(13)
C2 C 0.3657(3) 1.0843(2) 0.26492(16)
H1 H 0.3061 1.1340 0.2551
C3 C 0.4391(3) 1.0606(2) 0.32781(17)
H2 H 0.4389 1.0909 0.3695
C4 C 0.6111(3) 0.9438(2) 0.37616(14)
C5 C 0.7349(3) 0.9831(2) 0.39017(17)
C6 C 0.8245(4) 0.9468(3) 0.4464(2)
H3 H 0.9089 0.9698 0.4563
C7 C 0.7897(6) 0.8771(4) 0.4879(2)
H4 H 0.8510 0.8538 0.5255
C8 C 0.6656(6) 0.8414(3) 0.4746(2)
H5 H 0.6438 0.7947 0.5033
C9 C 0.5715(4) 0.8754(2) 0.41780(16)
C10 C 0.4340(6) 0.8386(5) 0.4073(3)
H6 H 0.3862 0.8548 0.3604
C11 C 0.3698(10) 0.8860(8) 0.4586(5)
H7 H 0.2864 0.8578 0.4556
H8 H 0.3600 0.9531 0.4484
H9 H 0.4221 0.8774 0.5044
C12 C 0.4354(11) 0.7272(5) 0.4161(4)
H10 H 0.3482 0.7038 0.4069
H11 H 0.4789 0.7109 0.4625
H12 H 0.4798 0.6986 0.3841
C13 C 0.7709(4) 1.0665(3) 0.3482(2)
H13 H 0.7114 1.0671 0.3026
C14 C 0.7564(5) 1.1613(3) 0.3853(3)
H14 H 0.6692 1.1675 0.3905
H15 H 0.7766 1.2139 0.3585
H16 H 0.8145 1.1616 0.4301
C15 C 0.9108(4) 1.0548(5) 0.3386(3)
H17 H 0.9170 0.9968 0.3137
H18 H 0.9697 1.0521 0.3831
H19 H 0.9323 1.1083 0.3131
C16 C 0.3449(3) 1.0296(2) 0.14432(14)
C17 C 0.4107(4) 1.0877(3) 0.1071(2)
C18 C 0.3573(6) 1.0929(4) 0.0345(3)
H20 H 0.3976 1.1296 0.0065
C19 C 0.2448(7) 1.0430(5) 0.0057(2)
H21 H 0.2115 1.0465 -0.0418
C20 C 0.1817(5) 0.9890(4) 0.0446(2)
H22 H 0.1067 0.9564 0.0235
C21 C 0.2290(3) 0.9824(2) 0.11577(16)
C22 C 0.1528(4) 0.9300(3) 0.1593(2)
H23 H 0.2115 0.9130 0.2034
C23 C 0.0897(5) 0.8370(3) 0.1247(3)
H24 H 0.0423 0.8065 0.1545
H25 H 0.1557 0.7945 0.1168
H26 H 0.0319 0.8523 0.0814
C24 C 0.0473(4) 0.9965(4) 0.1746(3)
H27 H -0.0008 0.9634 0.2028
H28 H -0.0099 1.0152 0.1319
H29 H 0.0868 1.0524 0.1985
C25 C 0.5256(18) 1.1424(17) 0.1517(13)
H30 H 0.5566 1.1088 0.1957
C26 C 0.641(3) 1.161(2) 0.117(2)
H31 H 0.7067 1.1967 0.1479
H32 H 0.6111 1.1964 0.0750
H33 H 0.6759 1.1008 0.1066
C27 C 0.476(3) 1.2435(16) 0.1658(19)
H34 H 0.5470 1.2811 0.1909
H35 H 0.4118 1.2375 0.1926
H36 H 0.4389 1.2742 0.1226
P1? P 0.5412(8) 0.8561(7) 0.2037(4)
Cl1? Cl 0.6663(3) 0.7859(2) 0.27928(16)
Cl2? Cl 0.3583(10) 0.7640(7) 0.2310(6)
Cl3? Cl 0.7295(7) 0.9281(7) 0.2051(6)
C28? C 0.4152(19) 0.867(2) 0.3891(19)
C29? C 0.343(7) 0.926(3) 0.434(2)
C30? C 0.386(4) 0.761(2) 0.410(2)
C31? C 0.5290(13) 1.1466(11) 0.1357(12)
C32? C 0.6181(17) 1.1418(16) 0.0835(13)
C33? C 0.497(3) 1.2532(14) 0.145(2)
H37? H 0.3861 0.8797 0.3395
H38? H 0.2533 0.9079 0.4236
H39? H 0.3506 0.9926 0.4250
H40? H 0.3800 0.9132 0.4822
H41? H 0.4270 0.7163 0.3852
H42? H 0.2940 0.7503 0.3982
H43? H 0.4181 0.7524 0.4586
H44? H 0.5747 1.1202 0.1802
H45? H 0.6942 1.1794 0.1006
H46? H 0.5726 1.1664 0.0396
H47? H 0.6423 1.0765 0.0783
H48? H 0.5746 1.2875 0.1643
H49? H 0.4384 1.2579 0.1753
H50? H 0.4566 1.2801 0.1007
loop_
_geom_bond_atom_site_label_1
_geom_bond_atom_site_label_2
_geom_bond_site_symmetry_1
_geom_bond_site_symmetry_2
P2 Cl4 1_555 1_555
Cl5 P2 1_555 1_555
Cl6 P2 1_555 1_555
N1 C1 1_555 1_555
N2 C1 1_555 1_555
C1 P2 1_555 1_555
C2 N1 1_555 1_555
H1 C2 1_555 1_555
C3 N2 1_555 1_555
H2 C3 1_555 1_555
C4 N2 1_555 1_555
C5 C4 1_555 1_555
C6 C5 1_555 1_555
H3 C6 1_555 1_555
C7 C6 1_555 1_555
H4 C7 1_555 1_555
C8 C7 1_555 1_555
H5 C8 1_555 1_555
C9 C4 1_555 1_555
C10 C9 1_555 1_555
H6 C10 1_555 1_555
C11 C10 1_555 1_555
H7 C11 1_555 1_555
H8 C11 1_555 1_555
H9 C11 1_555 1_555
C12 C10 1_555 1_555
H10 C12 1_555 1_555
H11 C12 1_555 1_555
H12 C12 1_555 1_555
C13 C5 1_555 1_555
H13 C13 1_555 1_555
C14 C13 1_555 1_555
H14 C14 1_555 1_555
H15 C14 1_555 1_555
H16 C14 1_555 1_555
C15 C13 1_555 1_555
H17 C15 1_555 1_555
H18 C15 1_555 1_555
H19 C15 1_555 1_555
C16 N1 1_555 1_555
C17 C16 1_555 1_555
C18 C17 1_555 1_555
H20 C18 1_555 1_555
C19 C18 1_555 1_555
H21 C19 1_555 1_555
C20 C19 1_555 1_555
H22 C20 1_555 1_555
C21 C16 1_555 1_555
C22 C21 1_555 1_555
H23 C22 1_555 1_555
C23 C22 1_555 1_555
H24 C23 1_555 1_555
H25 C23 1_555 1_555
H26 C23 1_555 1_555
C24 C22 1_555 1_555
H27 C24 1_555 1_555
H28 C24 1_555 1_555
H29 C24 1_555 1_555
C25 C17 1_555 1_555
H30 C25 1_555 1_555
C26 C25 1_555 1_555
H31 C26 1_555 1_555
H32 C26 1_555 1_555
H33 C26 1_555 1_555
C27 C25 1_555 1_555
H34 C27 1_555 1_555
H35 C27 1_555 1_555
H36 C27 1_555 1_555
C2 C3 1_555 1_555
C8 C9 1_555 1_555
C20 C21 1_555 1_555

#END
