
#######################################################################
#
#                 Cambridge Crystallographic Data Centre
#                                CCDC 
#
#######################################################################
#
# If this CIF has been generated from an entry in the Cambridge 
# Structural Database, then it will include bibliographic, chemical, 
# crystal, experimental, refinement or atomic coordinate data resulting 
# from the CCDC's data processing and validation procedures.
#
#######################################################################

data_IMIJUL
_chemical_formula_moiety         'C15 H19 N4 O1 1+,Cl1 1-'
_chemical_name_systematic        
'3-((1H-indazol-3-ylcarbonyl)amino)-1-azoniabicyclo[2.2.2]octane chloride'
_symmetry_cell_setting           monoclinic
_symmetry_space_group_name_H-M   'P 21'
_symmetry_Int_Tables_number      4
_space_group_name_Hall           'P 2yb'
loop_
_symmetry_equiv_pos_site_id
_symmetry_equiv_pos_as_xyz
1 x,y,z
2 -x,1/2+y,-z
_cell_length_a                   9.7497(11)
_cell_length_b                   7.1350(4)
_cell_length_c                   11.2008(12)
_cell_angle_alpha                90
_cell_angle_beta                 105.056(5)
_cell_angle_gamma                90
_cell_volume                     752.427
_exptl_crystal_description       plate
_cell_formula_units_Z            2
loop_
_atom_site_label
_atom_site_type_symbol
_atom_site_fract_x
_atom_site_fract_y
_atom_site_fract_z
Cl1 Cl 1.16188(5) 1.12875(8) 1.63345(4)
O1 O 0.66567(15) 1.17780(18) 0.94921(13)
N1 N 0.67686(16) 1.6622(2) 1.02368(15)
N2 N 0.6219(2) 1.8007(3) 0.94333(19)
N3 N 0.76895(17) 1.3117(2) 1.13408(16)
N4 N 1.05460(15) 1.1294(3) 1.35769(14)
C1 C 0.6426(2) 1.5027(3) 0.9616(2)
C2 C 0.5549(2) 1.7334(3) 0.8286(2)
C3 C 0.4885(2) 1.8276(3) 0.7194(2)
C4 C 0.4327(3) 1.7177(4) 0.6178(2)
C5 C 0.4395(3) 1.5206(4) 0.6238(2)
C6 C 0.5032(2) 1.4285(3) 0.7320(2)
C7 C 0.5645(2) 1.5370(3) 0.8369(2)
C8 C 0.6921(2) 1.3186(3) 1.01629(19)
C9 C 0.83807(18) 1.1352(3) 1.18341(15)
C10 C 0.89574(17) 1.1385(4) 1.32481(15)
C11 C 1.1048(3) 0.9450(3) 1.3211(2)
C12 C 1.0323(3) 0.9096(3) 1.1838(2)
C13 C 0.9629(2) 1.0919(3) 1.12657(18)
C14 C 1.1120(3) 1.2859(3) 1.2967(2)
C15 C 1.0694(2) 1.2525(4) 1.1565(2)
H1 H 0.637(3) 1.916(4) 0.961(2)
H2 H 0.4824 1.9605 0.7158
H3 H 0.3884 1.7761 0.5413
H4 H 0.3991 1.4496 0.5514
H5 H 0.5057 1.2954 0.7356
H6 H 0.783(3) 1.412(4) 1.182(2)
H7 H 0.7668 1.0318 1.1607
H8 H 1.087(3) 1.141(5) 1.449(3)
H9 H 0.9269 1.0774 1.0349
H10 H 0.8650 1.2548 1.3585
H11 H 0.8577 1.0303 1.3614
H12 H 1.0805 0.8433 1.3722
H13 H 1.2092 0.9471 1.3345
H14 H 1.1034 0.8677 1.1404
H15 H 0.9595 0.8103 1.1756
H16 H 1.2167 1.2906 1.3275
H17 H 1.0729 1.4069 1.3160
H18 H 1.0265 1.3677 1.1132
H19 H 1.1546 1.2211 1.1279
loop_
_geom_bond_atom_site_label_1
_geom_bond_atom_site_label_2
_geom_bond_site_symmetry_1
_geom_bond_site_symmetry_2
O1 C8 1_555 1_555
N1 N2 1_555 1_555
N2 C2 1_555 1_555
N3 C8 1_555 1_555
N4 C10 1_555 1_555
C1 N1 1_555 1_555
C2 C3 1_555 1_555
C3 C4 1_555 1_555
C4 C5 1_555 1_555
C5 C6 1_555 1_555
C6 C7 1_555 1_555
C7 C1 1_555 1_555
C8 C1 1_555 1_555
C9 N3 1_555 1_555
C10 C9 1_555 1_555
C11 N4 1_555 1_555
C12 C11 1_555 1_555
C13 C9 1_555 1_555
C14 N4 1_555 1_555
C15 C13 1_555 1_555
H1 N2 1_555 1_555
H2 C3 1_555 1_555
H3 C4 1_555 1_555
H4 C5 1_555 1_555
H5 C6 1_555 1_555
H6 N3 1_555 1_555
H7 C9 1_555 1_555
H8 N4 1_555 1_555
H9 C13 1_555 1_555
H10 C10 1_555 1_555
H11 C10 1_555 1_555
H12 C11 1_555 1_555
H13 C11 1_555 1_555
H14 C12 1_555 1_555
H15 C12 1_555 1_555
H16 C14 1_555 1_555
H17 C14 1_555 1_555
H18 C15 1_555 1_555
H19 C15 1_555 1_555
C2 C7 1_555 1_555
C12 C13 1_555 1_555
C14 C15 1_555 1_555

#END
