
#######################################################################
#
#                 Cambridge Crystallographic Data Centre
#                                CCDC 
#
#######################################################################
#
# If this CIF has been generated from an entry in the Cambridge 
# Structural Database, then it will include bibliographic, chemical, 
# crystal, experimental, refinement or atomic coordinate data resulting 
# from the CCDC's data processing and validation procedures.
#
#######################################################################

data_IMIKOE
_chemical_formula_moiety         'C24 H20 Cl1 N3'
_chemical_name_systematic        
9-Chloro-5,5-dimethyl-2,3-diphenyl-2,3-dihydroimidazo(1,2-c)quinazoline
_symmetry_cell_setting           monoclinic
_symmetry_space_group_name_H-M   'P 21/c'
_symmetry_Int_Tables_number      14
_space_group_name_Hall           '-P 2ybc'
loop_
_symmetry_equiv_pos_site_id
_symmetry_equiv_pos_as_xyz
1 x,y,z
2 x,1/2-y,1/2+z
3 -x,-y,-z
4 -x,1/2+y,1/2-z
_cell_length_a                   8.9550(10)
_cell_length_b                   17.568(2)
_cell_length_c                   13.075(2)
_cell_angle_alpha                90
_cell_angle_beta                 90.260(10)
_cell_angle_gamma                90
_cell_volume                     2056.96
_exptl_crystal_colour            colorless
_exptl_crystal_description       block
_chemical_melting_point          '528-529 K'
_cell_formula_units_Z            4
_exptl_crystal_recrystallization_method ethanol
loop_
_atom_site_label
_atom_site_type_symbol
_atom_site_fract_x
_atom_site_fract_y
_atom_site_fract_z
Cl1 Cl -0.11045(7) 0.13738(4) 0.66073(5)
N1 N 0.3543(2) 0.23663(11) 0.37295(13)
N2 N 0.47713(17) 0.30756(9) 0.50021(10)
N3 N 0.37643(18) 0.33335(9) 0.65197(10)
C1 C 0.1390(2) 0.21436(12) 0.60900(15)
H1 H 0.1401 0.2318 0.6761
C2 C 0.0285(2) 0.16538(13) 0.57644(16)
C3 C 0.0253(2) 0.13869(13) 0.47695(17)
H2 H -0.0505 0.1061 0.4556
C4 C 0.1349(2) 0.16072(13) 0.40960(15)
H3 H 0.1329 0.1426 0.3428
C5 C 0.2487(2) 0.20974(11) 0.44020(14)
C6 C 0.2495(2) 0.23767(11) 0.54083(13)
C7 C 0.3644(2) 0.29243(11) 0.56692(13)
C8 C 0.5708(2) 0.36003(11) 0.54719(13)
C9 C 0.5057(2) 0.37580(10) 0.64006(13)
C10 C 0.4997(2) 0.26178(12) 0.40585(14)
C11 C 0.5714(3) 0.30461(17) 0.32071(16)
H4 H 0.5706 0.2739 0.2599
H5 H 0.6726 0.3166 0.3391
H6 H 0.5171 0.3508 0.3083
C12 C 0.5973(3) 0.19289(15) 0.4383(2)
H7 H 0.5490 0.1659 0.4927
H8 H 0.6931 0.2107 0.4614
H9 H 0.6103 0.1595 0.3809
C13 C 0.7092(2) 0.38984(11) 0.50028(13)
C14 C 0.8417(2) 0.34988(13) 0.50629(16)
H10 H 0.8458 0.3050 0.5439
C15 C 0.9675(3) 0.37547(15) 0.45752(19)
H11 H 1.0553 0.3472 0.4609
C16 C 0.9642(3) 0.44236(16) 0.40407(17)
H12 H 1.0492 0.4592 0.3703
C17 C 0.8347(3) 0.48496(15) 0.40018(16)
H13 H 0.8329 0.5312 0.3656
C18 C 0.7076(2) 0.45824(12) 0.44809(14)
H14 H 0.6201 0.4867 0.4451
C19 C 0.5533(2) 0.43030(11) 0.71944(14)
C20 C 0.4484(3) 0.46209(12) 0.78496(14)
H15 H 0.3482 0.4491 0.7774
C21 C 0.4899(3) 0.51254(13) 0.86102(16)
H16 H 0.4179 0.5332 0.9039
C22 C 0.6370(4) 0.53227(14) 0.87335(17)
H17 H 0.6650 0.5662 0.9246
C23 C 0.7431(3) 0.50165(15) 0.80955(18)
H18 H 0.8429 0.5151 0.8176
C24 C 0.7015(3) 0.45071(13) 0.73311(16)
H19 H 0.7740 0.4301 0.6907
H20 H 0.352(2) 0.2143(12) 0.3114(17)
loop_
_geom_bond_atom_site_label_1
_geom_bond_atom_site_label_2
_geom_bond_site_symmetry_1
_geom_bond_site_symmetry_2
Cl1 C2 1_555 1_555
N1 C5 1_555 1_555
N2 C7 1_555 1_555
N3 C7 1_555 1_555
C1 H1 1_555 1_555
C2 C1 1_555 1_555
C3 C2 1_555 1_555
H2 C3 1_555 1_555
C4 C3 1_555 1_555
H3 C4 1_555 1_555
C5 C4 1_555 1_555
C6 C1 1_555 1_555
C7 C6 1_555 1_555
C8 N2 1_555 1_555
C9 N3 1_555 1_555
C10 N1 1_555 1_555
C11 C10 1_555 1_555
H4 C11 1_555 1_555
H5 C11 1_555 1_555
H6 C11 1_555 1_555
C12 C10 1_555 1_555
H7 C12 1_555 1_555
H8 C12 1_555 1_555
H9 C12 1_555 1_555
C13 C8 1_555 1_555
C14 C13 1_555 1_555
H10 C14 1_555 1_555
C15 C14 1_555 1_555
H11 C15 1_555 1_555
C16 C15 1_555 1_555
H12 C16 1_555 1_555
C17 C16 1_555 1_555
H13 C17 1_555 1_555
C18 C13 1_555 1_555
H14 C18 1_555 1_555
C19 C9 1_555 1_555
C20 C19 1_555 1_555
H15 C20 1_555 1_555
C21 C20 1_555 1_555
H16 C21 1_555 1_555
C22 C21 1_555 1_555
H17 C22 1_555 1_555
C23 C22 1_555 1_555
H18 C23 1_555 1_555
C24 C19 1_555 1_555
H19 C24 1_555 1_555
H20 N1 1_555 1_555
N2 C10 1_555 1_555
C5 C6 1_555 1_555
C8 C9 1_555 1_555
C17 C18 1_555 1_555
C23 C24 1_555 1_555

#END
