
#######################################################################
#
#                 Cambridge Crystallographic Data Centre
#                                CCDC 
#
#######################################################################
#
# If this CIF has been generated from an entry in the Cambridge 
# Structural Database, then it will include bibliographic, chemical, 
# crystal, experimental, refinement or atomic coordinate data resulting 
# from the CCDC's data processing and validation procedures.
#
#######################################################################

data_IMOGOG
_chemical_formula_moiety         'C16 H25 N3 O9 S1'
_chemical_name_systematic        
'N-(2,3,4,6-Tetra-O-acetyl-\b-D-glycosyl)thiocarbamoyl methylene diamine'
_symmetry_cell_setting           monoclinic
_symmetry_space_group_name_H-M   'P 21'
_symmetry_Int_Tables_number      4
_space_group_name_Hall           'P 2yb'
loop_
_symmetry_equiv_pos_site_id
_symmetry_equiv_pos_as_xyz
1 x,y,z
2 -x,1/2+y,-z
_cell_length_a                   7.6560(2)
_cell_length_b                   10.3113(3)
_cell_length_c                   14.1813(1)
_cell_angle_alpha                90
_cell_angle_beta                 100.879(2)
_cell_angle_gamma                90
_cell_volume                     1099.4
_exptl_crystal_colour            colorless
_cell_formula_units_Z            2
_exptl_crystal_recrystallization_method 'ethyl acetate/petroleum ether(1:3)'
loop_
_atom_site_label
_atom_site_type_symbol
_atom_site_fract_x
_atom_site_fract_y
_atom_site_fract_z
S1 S 0.5492(3) 0.4633(2) 0.1892(2)
O1 O 0.2987(5) 1.0119(4) 0.0414(3)
O2 O 0.0425(7) 1.0920(5) -0.0372(4)
O3 O -0.0118(5) 0.9377(4) 0.1737(3)
O4 O 0.0187(8) 1.1512(5) 0.1975(6)
O5 O 0.1733(5) 0.9540(4) 0.3753(3)
O6 O -0.0964(8) 0.8744(8) 0.3778(5)
O7 O 0.4094(6) 0.7424(4) 0.4242(3)
O8 O 0.5845(10) 0.8888(7) 0.5064(4)
O9 O 0.4252(5) 0.8019(3) 0.1719(3)
N1 N 0.6288(6) 0.6850(5) 0.2819(4)
N2 N 0.8536(6) 0.5578(5) 0.2795(4)
N3 N 1.1138(13) 0.4453(12) 0.2842(10)
C1 C 0.4484(8) 0.7289(6) 0.2596(4)
C2 C 0.2412(7) 0.8282(5) 0.1362(4)
C3 C 0.1772(7) 0.9189(5) 0.2071(4)
C4 C 0.2079(8) 0.8601(5) 0.3074(4)
C5 C 0.3996(8) 0.8148(6) 0.3376(4)
C6 C 0.6830(9) 0.5725(6) 0.2513(5)
C7 C 0.9372(12) 0.4411(10) 0.2587(6)
C8 C 0.2229(9) 0.8840(6) 0.0379(4)
C9 C 0.1945(10) 1.1095(7) -0.0005(5)
C10 C 0.2925(10) 1.2342(8) 0.0079(7)
C11 C -0.0760(10) 1.0622(7) 0.1725(6)
C12 C -0.2681(9) 1.0657(7) 0.1361(7)
C13 C 0.0152(10) 0.9565(8) 0.4046(5)
C14 C 0.0054(12) 1.0649(10) 0.4698(6)
C15 C 0.5077(11) 0.7881(9) 0.5053(6)
C16 C 0.4998(11) 0.7054(8) 0.5915(5)
loop_
_geom_bond_atom_site_label_1
_geom_bond_atom_site_label_2
_geom_bond_site_symmetry_1
_geom_bond_site_symmetry_2
S1 C6 1_555 1_555
O1 C8 1_555 1_555
O2 C9 1_555 1_555
O3 C3 1_555 1_555
O4 C11 1_555 1_555
O5 C4 1_555 1_555
O6 C13 1_555 1_555
O7 C5 1_555 1_555
O8 C15 1_555 1_555
O9 C1 1_555 1_555
N1 C1 1_555 1_555
N2 C6 1_555 1_555
N3 C7 1_555 1_555
C1 C5 1_555 1_555
C2 O9 1_555 1_555
C3 C2 1_555 1_555
C4 C3 1_555 1_555
C5 C4 1_555 1_555
C6 N1 1_555 1_555
C7 N2 1_555 1_555
C8 C2 1_555 1_555
C9 O1 1_555 1_555
C10 C9 1_555 1_555
C11 O3 1_555 1_555
C12 C11 1_555 1_555
C13 O5 1_555 1_555
C14 C13 1_555 1_555
C15 O7 1_555 1_555
C16 C15 1_555 1_555

#END
