
#######################################################################
#
#                 Cambridge Crystallographic Data Centre
#                                CCDC 
#
#######################################################################
#
# If this CIF has been generated from an entry in the Cambridge 
# Structural Database, then it will include bibliographic, chemical, 
# crystal, experimental, refinement or atomic coordinate data resulting 
# from the CCDC's data processing and validation procedures.
#
#######################################################################

data_IMOLOL
_chemical_formula_moiety         'C20 H24 O11 S2'
_chemical_name_systematic        'Tetra-O-acetylglycosyl phenylthiosulfonate'
_symmetry_cell_setting           monoclinic
_symmetry_space_group_name_H-M   'P 21'
_symmetry_Int_Tables_number      4
_space_group_name_Hall           'P 2yb'
loop_
_symmetry_equiv_pos_site_id
_symmetry_equiv_pos_as_xyz
1 x,y,z
2 -x,1/2+y,-z
_cell_length_a                   10.7470(3)
_cell_length_b                   8.3113(2)
_cell_length_c                   13.5613(4)
_cell_angle_alpha                90
_cell_angle_beta                 100.4321(12)
_cell_angle_gamma                90
_cell_volume                     1191.29
_exptl_crystal_colour            colorless
_cell_formula_units_Z            2
loop_
_atom_site_label
_atom_site_type_symbol
_atom_site_fract_x
_atom_site_fract_y
_atom_site_fract_z
O1 O 0.22336(17) 0.1065(2) 0.21698(13)
C1 C 0.3348(2) 0.2003(4) 0.2232(2)
C2 C 0.3256(2) 0.3445(3) 0.2911(2)
C3 C 0.3080(2) 0.2892(3) 0.39476(19)
C4 C 0.1986(2) 0.1711(3) 0.3861(2)
C5 C 0.2133(2) 0.0366(4) 0.3121(2)
S1 S 0.34526(8) 0.27211(12) 0.09878(6)
S2 S 0.39905(7) 0.05903(12) 0.03654(6)
O2 O 0.4797(2) -0.0269(3) 0.11365(19)
O3 O 0.4435(3) 0.1116(4) -0.0514(2)
C6 C 0.2598(3) -0.0526(4) -0.0006(2)
C7 C 0.2400(4) -0.1853(5) 0.0535(3)
C8 C 0.1295(5) -0.2721(7) 0.0255(4)
C9 C 0.0427(4) -0.2275(9) -0.0554(4)
C10 C 0.0640(4) -0.0956(7) -0.1100(4)
C11 C 0.1740(3) -0.0031(5) -0.0837(2)
O4 O 0.44155(15) 0.4336(2) 0.29907(14)
C12 C 0.4338(3) 0.5963(3) 0.28954(19)
O5 O 0.3351(2) 0.6669(3) 0.2788(2)
C13 C 0.5613(3) 0.6698(4) 0.2952(2)
O6 O 0.27377(15) 0.4272(2) 0.44855(14)
C14 C 0.3662(2) 0.5080(4) 0.5112(2)
O7 O 0.47348(18) 0.4613(3) 0.53123(17)
C15 C 0.3169(3) 0.6575(4) 0.5477(3)
O8 O 0.19953(17) 0.0973(3) 0.48230(14)
C16 C 0.0938(3) 0.1131(5) 0.5247(3)
O9 O 0.0049(3) 0.1897(6) 0.4872(4)
C17 C 0.1038(4) 0.0176(5) 0.6183(3)
C18 C 0.1025(3) -0.0780(4) 0.2928(2)
O10 O -0.00972(18) 0.0183(3) 0.2596(2)
C19 C -0.1157(3) -0.0546(5) 0.2315(3)
O11 O -0.1203(4) -0.1949(5) 0.2331(5)
C20 C -0.2249(3) 0.0525(7) 0.2000(3)
H1 H 0.4111 0.1345 0.2508
H2 H 0.2512 0.4127 0.2623
H3 H 0.3881 0.2375 0.4295
H4 H 0.1181 0.2312 0.3625
H5 H 0.2904 -0.0251 0.3431
H6 H 0.3044 -0.2193 0.1126
H7 H 0.1134 -0.3688 0.0652
H8 H -0.0368 -0.2913 -0.0750
H9 H -0.0002 -0.0644 -0.1700
H10 H 0.1897 0.0941 -0.1231
H11 H 0.5526 0.7892 0.2880
H12 H 0.6150 0.6435 0.3614
H13 H 0.6018 0.6260 0.2400
H14 H 0.3865 0.7143 0.5935
H15 H 0.2474 0.6311 0.5850
H16 H 0.2834 0.7285 0.4895
H17 H 0.0251 0.0321 0.6470
H18 H 0.1786 0.0552 0.6679
H19 H 0.1144 -0.0987 0.6030
H20 H 0.0950 -0.1369 0.3558
H21 H 0.1140 -0.1572 0.2397
H22 H -0.3031 -0.0137 0.1795
H23 H -0.2358 0.1241 0.2571
H24 H -0.2101 0.1197 0.1421
loop_
_geom_bond_atom_site_label_1
_geom_bond_atom_site_label_2
_geom_bond_site_symmetry_1
_geom_bond_site_symmetry_2
O1 C1 1_555 1_555
C1 C2 1_555 1_555
C2 C3 1_555 1_555
C3 C4 1_555 1_555
C4 C5 1_555 1_555
C5 O1 1_555 1_555
S1 C1 1_555 1_555
S2 S1 1_555 1_555
O2 S2 1_555 1_555
O3 S2 1_555 1_555
C6 S2 1_555 1_555
C7 C6 1_555 1_555
C8 C7 1_555 1_555
C9 C8 1_555 1_555
C10 C9 1_555 1_555
C11 C6 1_555 1_555
O4 C2 1_555 1_555
C12 O4 1_555 1_555
O5 C12 1_555 1_555
C13 C12 1_555 1_555
O6 C3 1_555 1_555
C14 O6 1_555 1_555
O7 C14 1_555 1_555
C15 C14 1_555 1_555
O8 C4 1_555 1_555
C16 O8 1_555 1_555
O9 C16 1_555 1_555
C17 C16 1_555 1_555
C18 C5 1_555 1_555
O10 C18 1_555 1_555
C19 O10 1_555 1_555
O11 C19 1_555 1_555
C20 C19 1_555 1_555
H1 C1 1_555 1_555
H2 C2 1_555 1_555
H3 C3 1_555 1_555
H4 C4 1_555 1_555
H5 C5 1_555 1_555
H6 C7 1_555 1_555
H7 C8 1_555 1_555
H8 C9 1_555 1_555
H9 C10 1_555 1_555
H10 C11 1_555 1_555
H11 C13 1_555 1_555
H12 C13 1_555 1_555
H13 C13 1_555 1_555
H14 C15 1_555 1_555
H15 C15 1_555 1_555
H16 C15 1_555 1_555
H17 C17 1_555 1_555
H18 C17 1_555 1_555
H19 C17 1_555 1_555
H20 C18 1_555 1_555
H21 C18 1_555 1_555
H22 C20 1_555 1_555
H23 C20 1_555 1_555
H24 C20 1_555 1_555
C10 C11 1_555 1_555

#END
