
#######################################################################
#
#                 Cambridge Crystallographic Data Centre
#                                CCDC 
#
#######################################################################
#
# If this CIF has been generated from an entry in the Cambridge 
# Structural Database, then it will include bibliographic, chemical, 
# crystal, experimental, refinement or atomic coordinate data resulting 
# from the CCDC's data processing and validation procedures.
#
#######################################################################

data_INAGUB
_chemical_formula_moiety         'C19 H19 N1 O1'
_chemical_name_systematic        
'(1S, 3S)-3,10-dimethyl-1-phenyl-3,4-dihydro-1H-[1,4]oxazino[4,3-a]indole'
_chemical_properties_biological  
'neuroprotective properties tested against A 25 35-induced neurotoxicity in SH-SY5Y cells'
_symmetry_cell_setting           orthorhombic
_symmetry_space_group_name_H-M   'P 21 21 21'
_symmetry_Int_Tables_number      19
_space_group_name_Hall           'P 2ac 2ab'
loop_
_symmetry_equiv_pos_site_id
_symmetry_equiv_pos_as_xyz
1 x,y,z
2 1/2+x,1/2-y,-z
3 -x,1/2+y,1/2-z
4 1/2-x,-y,1/2+z
_cell_length_a                   7.3525(11)
_cell_length_b                   8.4593(13)
_cell_length_c                   24.712(4)
_cell_angle_alpha                90
_cell_angle_beta                 90
_cell_angle_gamma                90
_cell_volume                     1537.01
_exptl_crystal_colour            colorless
_exptl_crystal_description       block
_cell_formula_units_Z            4
loop_
_atom_site_label
_atom_site_type_symbol
_atom_site_fract_x
_atom_site_fract_y
_atom_site_fract_z
O1 O 0.06809(15) 0.80901(13) 0.16451(4)
N1 N 0.14447(16) 0.81758(13) 0.05607(5)
C1 C 0.1735(2) 0.7938(2) -0.09255(7)
H1 H 0.1966 0.7260 -0.1214
C2 C 0.1774(2) 0.7352(2) -0.04051(6)
H2 H 0.2002 0.6289 -0.0337
C3 C 0.14599(18) 0.84120(17) 0.00117(6)
C4 C 0.1027(2) 0.95858(17) 0.08137(6)
C5 C 0.0930(2) 0.96463(19) 0.14195(7)
H3 H -0.0170 1.0246 0.1509
C6 C 0.2501(2) 1.05133(18) 0.16836(6)
C7 C 0.2221(4) 1.1220(2) 0.21837(7)
H4 H 0.1090 1.1146 0.2350
C8 C 0.3619(5) 1.2033(3) 0.24350(10)
H5 H 0.3417 1.2499 0.2771
C9 C 0.5278(5) 1.2160(3) 0.21998(12)
H6 H 0.6201 1.2723 0.2371
C10 C 0.1359(2) 0.9522(2) -0.10297(7)
H7 H 0.1334 0.9879 -0.1386
C11 C 0.1023(2) 1.0567(2) -0.06159(7)
H8 H 0.0766 1.1621 -0.0690
C12 C 0.10743(19) 1.00255(18) -0.00816(6)
C13 C 0.0815(2) 1.07487(18) 0.04353(7)
C14 C 0.1562(2) 0.66704(17) 0.08393(6)
H9 H 0.2534 0.6042 0.0684
H10 H 0.0431 0.6094 0.0796
C15 C 0.1928(2) 0.69454(18) 0.14333(6)
H11 H 0.3176 0.7327 0.1481
C16 C 0.5586(3) 1.1457(2) 0.17091(11)
H12 H 0.6731 1.1517 0.1550
C17 C 0.4181(3) 1.0648(2) 0.14476(8)
H13 H 0.4388 1.0196 0.1110
C18 C 0.1670(3) 0.5434(2) 0.17515(7)
H14 H 0.1941 0.5625 0.2126
H15 H 0.2473 0.4635 0.1614
H16 H 0.0434 0.5084 0.1717
C19 C 0.0484(3) 1.24814(19) 0.05384(9)
H17 H 0.0039 1.2622 0.0900
H18 H -0.0400 1.2871 0.0285
H19 H 0.1602 1.3054 0.0495
loop_
_geom_bond_atom_site_label_1
_geom_bond_atom_site_label_2
_geom_bond_site_symmetry_1
_geom_bond_site_symmetry_2
O1 C5 1_555 1_555
N1 C3 1_555 1_555
C1 H1 1_555 1_555
C2 C1 1_555 1_555
H2 C2 1_555 1_555
C3 C2 1_555 1_555
C4 N1 1_555 1_555
C5 C4 1_555 1_555
H3 C5 1_555 1_555
C6 C5 1_555 1_555
C7 C6 1_555 1_555
H4 C7 1_555 1_555
C8 C7 1_555 1_555
H5 C8 1_555 1_555
C9 C8 1_555 1_555
H6 C9 1_555 1_555
C10 C1 1_555 1_555
H7 C10 1_555 1_555
C11 C10 1_555 1_555
H8 C11 1_555 1_555
C12 C3 1_555 1_555
C13 C4 1_555 1_555
C14 N1 1_555 1_555
H9 C14 1_555 1_555
H10 C14 1_555 1_555
C15 O1 1_555 1_555
H11 C15 1_555 1_555
C16 C9 1_555 1_555
H12 C16 1_555 1_555
C17 C6 1_555 1_555
H13 C17 1_555 1_555
C18 C15 1_555 1_555
H14 C18 1_555 1_555
H15 C18 1_555 1_555
H16 C18 1_555 1_555
C19 C13 1_555 1_555
H17 C19 1_555 1_555
H18 C19 1_555 1_555
H19 C19 1_555 1_555
C11 C12 1_555 1_555
C12 C13 1_555 1_555
C14 C15 1_555 1_555
C16 C17 1_555 1_555

#END
