
#######################################################################
#
#                 Cambridge Crystallographic Data Centre
#                                CCDC 
#
#######################################################################
#
# If this CIF has been generated from an entry in the Cambridge 
# Structural Database, then it will include bibliographic, chemical, 
# crystal, experimental, refinement or atomic coordinate data resulting 
# from the CCDC's data processing and validation procedures.
#
#######################################################################

data_INAJUE
_chemical_formula_moiety         'C13 H14 N5 1+,2(H2 O1),Br1 1-'
_chemical_name_systematic        
'2-(2-(quinolin-2-ylmethylene)hydrazino)-4,5-dihydro-1H-imidazol-3-ium bromide dihydrate'
_symmetry_cell_setting           triclinic
_symmetry_space_group_name_H-M   'P -1'
_symmetry_Int_Tables_number      2
_space_group_name_Hall           '-P 1'
loop_
_symmetry_equiv_pos_site_id
_symmetry_equiv_pos_as_xyz
1 x,y,z
2 -x,-y,-z
_cell_length_a                   6.9962(6)
_cell_length_b                   9.1873(8)
_cell_length_c                   12.8747(11)
_cell_angle_alpha                92.075(7)
_cell_angle_beta                 104.073(7)
_cell_angle_gamma                101.850(7)
_cell_volume                     782.352
_exptl_crystal_colour            colorless
_exptl_crystal_description       rod
_cell_formula_units_Z            2
loop_
_atom_site_label
_atom_site_type_symbol
_atom_site_fract_x
_atom_site_fract_y
_atom_site_fract_z
N1 N 0.26272(19) 0.53635(13) 0.42396(10)
N2 N 0.25276(19) 0.63496(14) 0.68916(10)
N3 N 0.2727(2) 0.76614(15) 0.74922(10)
H1 H 0.299(3) 0.846(2) 0.7259(16)
N4 N 0.2445(2) 0.63220(15) 0.89914(11)
H2 H 0.236(3) 0.552(3) 0.8693(17)
N5 N 0.2907(2) 0.87730(16) 0.91874(11)
H3 H 0.267(3) 0.954(2) 0.8951(17)
C1 C 0.2487(2) 0.51311(16) 0.52268(12)
C2 C 0.2190(2) 0.36896(17) 0.56117(13)
H4 H 0.2098 0.3572 0.6322
C3 C 0.2041(3) 0.24852(18) 0.49240(14)
H5 H 0.1837 0.1521 0.5157
C4 C 0.2056(3) 0.14822(19) 0.31056(16)
H6 H 0.1853 0.0498 0.3302
C5 C 0.2217(3) 0.1750(2) 0.20923(16)
H7 H 0.2109 0.0945 0.1594
C6 C 0.2543(3) 0.3211(2) 0.17832(14)
H8 H 0.2665 0.3378 0.1084
C7 C 0.2685(3) 0.43981(19) 0.24970(13)
H9 H 0.2908 0.5375 0.2286
C8 C 0.2496(2) 0.41542(16) 0.35474(12)
C9 C 0.2192(2) 0.26808(17) 0.38643(13)
C10 C 0.2661(2) 0.64754(16) 0.59271(12)
H10 H 0.2868 0.7422 0.5666
C11 C 0.2682(2) 0.75735(16) 0.85139(12)
C12 C 0.2491(3) 0.66304(18) 1.01202(13)
H11 H 0.3697 0.6408 1.0599
H12 H 0.1285 0.6049 1.0292
C13 C 0.2538(3) 0.83082(19) 1.02088(13)
H13 H 0.1247 0.8491 1.0290
H14 H 0.3625 0.8835 1.0819
Br1 Br 0.80557(3) 0.75891(2) 0.13865(2)
O1 O 0.3694(3) 0.04993(15) 0.69482(12)
H15 H 0.330(4) 0.106(3) 0.7282(19)
H16 H 0.479(3) 0.087(3) 0.693(2)
O2 O 0.2592(2) 0.80268(15) 0.32132(14)
H17 H 0.256(4) 0.725(2) 0.3503(18)
H18 H 0.153(3) 0.788(3) 0.2750(19)
loop_
_geom_bond_atom_site_label_1
_geom_bond_atom_site_label_2
_geom_bond_site_symmetry_1
_geom_bond_site_symmetry_2
N1 C1 1_555 1_555
N2 N3 1_555 1_555
N3 H1 1_555 1_555
N4 H2 1_555 1_555
N5 H3 1_555 1_555
C1 C2 1_555 1_555
C2 H4 1_555 1_555
C3 C2 1_555 1_555
H5 C3 1_555 1_555
C4 H6 1_555 1_555
C5 C4 1_555 1_555
H7 C5 1_555 1_555
C6 C5 1_555 1_555
H8 C6 1_555 1_555
C7 C6 1_555 1_555
H9 C7 1_555 1_555
C8 N1 1_555 1_555
C9 C3 1_555 1_555
C10 N2 1_555 1_555
H10 C10 1_555 1_555
C11 N3 1_555 1_555
C12 N4 1_555 1_555
H11 C12 1_555 1_555
H12 C12 1_555 1_555
C13 N5 1_555 1_555
H13 C13 1_555 1_555
H14 C13 1_555 1_555
O1 H15 1_555 1_555
H16 O1 1_555 1_555
O2 H17 1_555 1_555
H18 O2 1_555 1_555
N4 C11 1_555 1_555
N5 C11 1_555 1_555
C1 C10 1_555 1_555
C4 C9 1_555 1_555
C7 C8 1_555 1_555
C8 C9 1_555 1_555
C12 C13 1_555 1_555

#END
