
#######################################################################
#
#                 Cambridge Crystallographic Data Centre
#                                CCDC 
#
#######################################################################
#
# If this CIF has been generated from an entry in the Cambridge 
# Structural Database, then it will include bibliographic, chemical, 
# crystal, experimental, refinement or atomic coordinate data resulting 
# from the CCDC's data processing and validation procedures.
#
#######################################################################

data_INAQUL
_chemical_formula_moiety         'C29 H27 N1 O1'
_chemical_name_systematic        
3-((2,6-dimethylphenyl)imino)-1,1,3-triphenylpropan-1-ol
_symmetry_cell_setting           orthorhombic
_symmetry_space_group_name_H-M   'P b c a'
_symmetry_Int_Tables_number      61
_space_group_name_Hall           '-P 2ac 2ab'
loop_
_symmetry_equiv_pos_site_id
_symmetry_equiv_pos_as_xyz
1 x,y,z
2 1/2-x,-y,1/2+z
3 -x,1/2+y,1/2-z
4 1/2+x,1/2-y,-z
5 -x,-y,-z
6 1/2+x,y,1/2-z
7 x,1/2-y,1/2+z
8 1/2-x,1/2+y,z
_cell_length_a                   12.8761(10)
_cell_length_b                   15.9653(13)
_cell_length_c                   22.0727(18)
_cell_angle_alpha                90
_cell_angle_beta                 90
_cell_angle_gamma                90
_cell_volume                     4537.5
_exptl_crystal_colour            colorless
_exptl_crystal_description       block
_cell_formula_units_Z            8
loop_
_atom_site_label
_atom_site_type_symbol
_atom_site_fract_x
_atom_site_fract_y
_atom_site_fract_z
N1 N 0.19635(13) 0.03301(12) 0.57770(8)
O1 O -0.01744(11) 0.04146(11) 0.58375(7)
H1 H 0.0340 0.0162 0.5716
C1 C 0.28497(16) -0.01321(15) 0.55769(11)
C2 C 0.31581(18) -0.00692(15) 0.49750(12)
C3 C 0.3964(2) -0.05750(17) 0.47826(13)
H2 H 0.4175 -0.0551 0.4380
C4 C 0.4464(2) -0.11136(17) 0.51724(16)
H3 H 0.5018 -0.1435 0.5036
C5 C 0.41395(19) -0.11741(15) 0.57641(14)
H4 H 0.4481 -0.1537 0.6027
C6 C 0.33066(18) -0.06993(15) 0.59755(12)
C7 C 0.2636(2) 0.05197(18) 0.45407(12)
H5 H 0.1896 0.0482 0.4590
H6 H 0.2819 0.0371 0.4133
H7 H 0.2858 0.1083 0.4622
C8 C 0.2901(2) -0.08110(17) 0.66086(12)
H8 H 0.3103 -0.0340 0.6852
H9 H 0.3183 -0.1315 0.6780
H10 H 0.2157 -0.0849 0.6599
C9 C 0.20019(16) 0.11048(15) 0.59178(9)
C10 C 0.29578(15) 0.16344(14) 0.59349(10)
C11 C 0.38173(17) 0.14137(15) 0.62753(10)
H11 H 0.3824 0.0905 0.6481
C12 C 0.46616(18) 0.19376(17) 0.63132(11)
H12 H 0.5233 0.1782 0.6545
C13 C 0.46675(19) 0.26898(16) 0.60111(12)
H13 H 0.5239 0.3044 0.6039
C14 C 0.38252(19) 0.29155(15) 0.56688(12)
H14 H 0.3829 0.3420 0.5458
C15 C 0.29730(18) 0.23966(15) 0.56357(11)
H15 H 0.2399 0.2560 0.5409
C16 C 0.09969(15) 0.15413(14) 0.60799(10)
H16 H 0.0750 0.1838 0.5724
H17 H 0.1145 0.1957 0.6389
C17 C 0.01203(16) 0.09780(13) 0.63094(10)
C18 C 0.04441(17) 0.04823(14) 0.68730(10)
C19 C 0.11776(18) 0.07709(16) 0.72785(11)
H18 H 0.1512 0.1277 0.7206
C20 C 0.1421(2) 0.0312(2) 0.77950(13)
H19 H 0.1911 0.0515 0.8068
C21 C 0.0939(3) -0.0436(2) 0.79005(15)
H20 H 0.1102 -0.0746 0.8244
C22 C 0.0221(3) -0.0726(2) 0.75029(18)
H21 H -0.0099 -0.1239 0.7574
C23 C -0.0039(2) -0.02711(17) 0.69959(13)
H22 H -0.0546 -0.0473 0.6733
C24 C -0.08269(16) 0.15188(14) 0.64499(10)
C25 C -0.15990(18) 0.16288(17) 0.60281(11)
H23 H -0.1555 0.1352 0.5658
C26 C -0.2441(2) 0.21430(19) 0.61428(14)
H24 H -0.2954 0.2210 0.5850
C27 C -0.2522(2) 0.25510(17) 0.66831(15)
H25 H -0.3084 0.2902 0.6759
C28 C -0.1773(2) 0.24405(17) 0.71093(13)
H26 H -0.1828 0.2711 0.7481
C29 C -0.09301(18) 0.19292(16) 0.69947(12)
H27 H -0.0423 0.1861 0.7291
loop_
_geom_bond_atom_site_label_1
_geom_bond_atom_site_label_2
_geom_bond_site_symmetry_1
_geom_bond_site_symmetry_2
N1 C1 1_555 1_555
O1 H1 1_555 1_555
C1 C2 1_555 1_555
C2 C3 1_555 1_555
C3 H2 1_555 1_555
C4 C3 1_555 1_555
H3 C4 1_555 1_555
C5 C4 1_555 1_555
H4 C5 1_555 1_555
C6 C1 1_555 1_555
C7 C2 1_555 1_555
H5 C7 1_555 1_555
H6 C7 1_555 1_555
H7 C7 1_555 1_555
C8 C6 1_555 1_555
H8 C8 1_555 1_555
H9 C8 1_555 1_555
H10 C8 1_555 1_555
C9 N1 1_555 1_555
C10 C9 1_555 1_555
C11 C10 1_555 1_555
H11 C11 1_555 1_555
C12 C11 1_555 1_555
H12 C12 1_555 1_555
C13 C12 1_555 1_555
H13 C13 1_555 1_555
C14 C13 1_555 1_555
H14 C14 1_555 1_555
C15 C10 1_555 1_555
H15 C15 1_555 1_555
C16 C9 1_555 1_555
H16 C16 1_555 1_555
H17 C16 1_555 1_555
C17 O1 1_555 1_555
C18 C17 1_555 1_555
C19 C18 1_555 1_555
H18 C19 1_555 1_555
C20 C19 1_555 1_555
H19 C20 1_555 1_555
C21 C20 1_555 1_555
H20 C21 1_555 1_555
C22 C21 1_555 1_555
H21 C22 1_555 1_555
C23 C18 1_555 1_555
H22 C23 1_555 1_555
C24 C17 1_555 1_555
C25 C24 1_555 1_555
H23 C25 1_555 1_555
C26 C25 1_555 1_555
H24 C26 1_555 1_555
C27 C26 1_555 1_555
H25 C27 1_555 1_555
C28 C27 1_555 1_555
H26 C28 1_555 1_555
C29 C24 1_555 1_555
H27 C29 1_555 1_555
C5 C6 1_555 1_555
C14 C15 1_555 1_555
C16 C17 1_555 1_555
C22 C23 1_555 1_555
C28 C29 1_555 1_555

#END
