
#######################################################################
#
#                 Cambridge Crystallographic Data Centre
#                                CCDC 
#
#######################################################################
#
# If this CIF has been generated from an entry in the Cambridge 
# Structural Database, then it will include bibliographic, chemical, 
# crystal, experimental, refinement or atomic coordinate data resulting 
# from the CCDC's data processing and validation procedures.
#
#######################################################################

data_INASUL
_chemical_formula_moiety         'C31 H18 O1'
_chemical_name_systematic        
7-Phenyl-11b,12-dihydro-13H-benzo(2,3)azuleno(6,7,8,1-mnoa)fluoranthen-13-one
_symmetry_cell_setting           triclinic
_symmetry_space_group_name_H-M   'P -1'
_symmetry_Int_Tables_number      2
_space_group_name_Hall           '-P 1'
loop_
_symmetry_equiv_pos_site_id
_symmetry_equiv_pos_as_xyz
1 x,y,z
2 -x,-y,-z
_cell_length_a                   8.4090(10)
_cell_length_b                   9.978(2)
_cell_length_c                   12.7640(10)
_cell_angle_alpha                76.200(10)
_cell_angle_beta                 73.360(10)
_cell_angle_gamma                85.560(10)
_cell_volume                     996.447
_exptl_crystal_colour            orange
_chemical_melting_point          323-325deg.C
_cell_formula_units_Z            2
loop_
_atom_site_label
_atom_site_type_symbol
_atom_site_fract_x
_atom_site_fract_y
_atom_site_fract_z
O1 O 0.3263(5) 0.8925(3) 0.3157(3)
C1 C 0.3937(20) 0.7667(9) 0.4778(6)
H1 H 0.4927(20) 0.7094(9) 0.4641(6)
H2 H 0.4287(20) 0.8575(9) 0.4767(6)
C2 C 0.2863(18) 0.7075(9) 0.5932(7)
H3 H 0.1776(18) 0.7539(9) 0.6039(7)
C5 C 0.3557(6) 0.7088(4) 0.6926(3)
C6 C 0.4230(6) 0.8180(4) 0.7132(4)
H7 H 0.4454(6) 0.9006(4) 0.6595(4)
C7 C 0.4565(6) 0.8023(5) 0.8152(4)
H8 H 0.5001(6) 0.8758(5) 0.8309(4)
C8 C 0.4266(6) 0.6799(5) 0.8939(4)
H9 H 0.4517(6) 0.6712(5) 0.9616(4)
C9 C 0.3592(5) 0.5686(4) 0.8740(3)
H10 H 0.3386(5) 0.4861(4) 0.9279(3)
C10 C 0.3235(5) 0.5826(4) 0.7730(3)
C11 C 0.2624(5) 0.4828(4) 0.7246(3)
C12 C 0.2182(5) 0.3439(4) 0.7645(3)
C13 C 0.1829(5) 0.2723(4) 0.6880(3)
C14 C 0.1404(5) 0.1309(4) 0.7085(4)
H11 H 0.1280(5) 0.0740(4) 0.7796(4)
C15 C 0.1178(6) 0.0786(5) 0.6233(4)
H12 H 0.0909(6) -0.0141(5) 0.6391(4)
C16 C 0.1330(6) 0.1573(5) 0.5139(4)
H13 H 0.1194(6) 0.1172(5) 0.4584(4)
C17 C 0.1685(5) 0.2949(4) 0.4912(4)
C18 C 0.1947(5) 0.4121(4) 0.3924(3)
C19 C 0.1886(6) 0.4246(5) 0.2827(4)
H14 H 0.1640(6) 0.3490(5) 0.2596(4)
C20 C 0.2203(6) 0.5533(5) 0.2083(4)
H15 H 0.2151(6) 0.5627(5) 0.1351(4)
C21 C 0.2592(6) 0.6669(5) 0.2398(4)
H16 H 0.2787(6) 0.7512(5) 0.1879(4)
C22 C 0.2696(5) 0.6567(4) 0.3494(3)
C23 C 0.3171(5) 0.7809(5) 0.3795(4)
C24 C 0.2630(6) 0.5532(4) 0.6130(4)
C25 C 0.1917(5) 0.3476(4) 0.5795(3)
C26 C 0.2348(5) 0.5293(4) 0.4237(3)
C27 C 0.2313(5) 0.4880(4) 0.5411(3)
C28 C 0.2041(5) 0.2672(4) 0.8826(3)
C29 C 0.0843(6) 0.3057(4) 0.9702(4)
H17 H 0.0159(6) 0.3814(4) 0.9549(4)
C30 C 0.0643(6) 0.2336(5) 1.0803(4)
H18 H -0.0173(6) 0.2604(5) 1.1383(4)
C31 C 0.1652(6) 0.1227(5) 1.1031(4)
H19 H 0.1528(6) 0.0743(5) 1.1768(4)
C32 C 0.2838(6) 0.0830(5) 1.0179(4)
H20 H 0.3511(6) 0.0068(5) 1.0339(4)
C33 C 0.3052(6) 0.1556(4) 0.9072(4)
H21 H 0.3878(6) 0.1288(4) 0.8498(4)
C3? C 0.2795(53) 0.7896(21) 0.5014(23)
H4? H 0.1615(53) 0.7760(21) 0.5363(23)
H5? H 0.3051(53) 0.8819(21) 0.5034(23)
C4? C 0.3785(45) 0.6808(22) 0.5745(20)
H6? H 0.4934(45) 0.6633(22) 0.5344(20)
loop_
_geom_bond_atom_site_label_1
_geom_bond_atom_site_label_2
_geom_bond_site_symmetry_1
_geom_bond_site_symmetry_2
O1 C23 1_555 1_555
C1 H1 1_555 1_555
H2 C1 1_555 1_555
C2 C1 1_555 1_555
H3 C2 1_555 1_555
C5 C2 1_555 1_555
C6 C5 1_555 1_555
H7 C6 1_555 1_555
C7 C6 1_555 1_555
H8 C7 1_555 1_555
C8 C7 1_555 1_555
H9 C8 1_555 1_555
C9 C8 1_555 1_555
H10 C9 1_555 1_555
C10 C5 1_555 1_555
C11 C10 1_555 1_555
C12 C11 1_555 1_555
C13 C12 1_555 1_555
C14 C13 1_555 1_555
H11 C14 1_555 1_555
C15 C14 1_555 1_555
H12 C15 1_555 1_555
C16 C15 1_555 1_555
H13 C16 1_555 1_555
C17 C16 1_555 1_555
C18 C17 1_555 1_555
C19 C18 1_555 1_555
H14 C19 1_555 1_555
C20 C19 1_555 1_555
H15 C20 1_555 1_555
C21 C20 1_555 1_555
H16 C21 1_555 1_555
C22 C21 1_555 1_555
C23 C1 1_555 1_555
C24 C2 1_555 1_555
C25 C13 1_555 1_555
C26 C18 1_555 1_555
C27 C24 1_555 1_555
C28 C12 1_555 1_555
C29 C28 1_555 1_555
H17 C29 1_555 1_555
C30 C29 1_555 1_555
H18 C30 1_555 1_555
C31 C30 1_555 1_555
H19 C31 1_555 1_555
C32 C31 1_555 1_555
H20 C32 1_555 1_555
C33 C28 1_555 1_555
H21 C33 1_555 1_555
C9 C10 1_555 1_555
C11 C24 1_555 1_555
C17 C25 1_555 1_555
C22 C23 1_555 1_555
C22 C26 1_555 1_555
C25 C27 1_555 1_555
C26 C27 1_555 1_555
C32 C33 1_555 1_555

#END
