
#######################################################################
#
#                 Cambridge Crystallographic Data Centre
#                                CCDC 
#
#######################################################################
#
# If this CIF has been generated from an entry in the Cambridge 
# Structural Database, then it will include bibliographic, chemical, 
# crystal, experimental, refinement or atomic coordinate data resulting 
# from the CCDC's data processing and validation procedures.
#
#######################################################################

data_INEVEE
_chemical_name_common            2-(1-[(4-methoxylphenyl)imino]ethyl)pyrrole
_chemical_formula_moiety         'C13 H14 N2 O1'
_chemical_name_systematic        
N-(4-methoxyphenyl)-1-(1H-pyrrol-2-yl)ethanimine
_symmetry_cell_setting           triclinic
_symmetry_space_group_name_H-M   'P -1'
_symmetry_Int_Tables_number      2
_space_group_name_Hall           '-P 1'
loop_
_symmetry_equiv_pos_site_id
_symmetry_equiv_pos_as_xyz
1 x,y,z
2 -x,-y,-z
_cell_length_a                   6.820(3)
_cell_length_b                   9.281(4)
_cell_length_c                   10.386(4)
_cell_angle_alpha                73.834(6)
_cell_angle_beta                 72.703(6)
_cell_angle_gamma                88.371(6)
_cell_volume                     601.788
_cell_formula_units_Z            2
loop_
_atom_site_label
_atom_site_type_symbol
_atom_site_fract_x
_atom_site_fract_y
_atom_site_fract_z
N1 N -0.2166(2) 0.83825(15) 0.67272(14)
N2 N 0.1648(2) 0.82098(15) 0.47546(15)
O1 O 0.95442(19) 0.81440(18) 0.10728(15)
C1 C 0.9819(4) 0.7950(4) -0.0279(3)
H1 H 0.9127 0.7021 -0.0181
H2 H 1.1260 0.7929 -0.0744
H3 H 0.9255 0.8770 -0.0826
C2 C 0.7561(3) 0.8180(2) 0.19079(19)
C3 C 0.7356(3) 0.8332(2) 0.32364(19)
H4 H 0.8524 0.8447 0.3494
C4 C 0.5428(3) 0.8314(2) 0.41767(19)
H5 H 0.5311 0.8406 0.5065
C5 C 0.3647(2) 0.81566(18) 0.38042(18)
C6 C 0.3869(3) 0.8066(2) 0.24601(19)
H6 H 0.2703 0.8005 0.2184
C7 C 0.5805(3) 0.8062(2) 0.1514(2)
H7 H 0.5924 0.7982 0.0622
C8 C 0.0834(3) 0.70041(18) 0.57480(17)
C9 C -0.1201(3) 0.70532(18) 0.67144(17)
C10 C -0.2561(3) 0.5907(2) 0.7701(2)
H8 H -0.2321 0.4889 0.7925
C11 C -0.4360(3) 0.6552(2) 0.8302(2)
H9 H -0.5529 0.6042 0.8991
C12 C -0.4080(3) 0.8071(2) 0.76905(18)
H10 H -0.5033 0.8775 0.7895
C13 C 0.1841(4) 0.5516(2) 0.5977(3)
H11 H 0.2674 0.5409 0.5088
H12 H 0.0798 0.4710 0.6414
H13 H 0.2689 0.5488 0.6573
loop_
_geom_bond_atom_site_label_1
_geom_bond_atom_site_label_2
_geom_bond_site_symmetry_1
_geom_bond_site_symmetry_2
N1 C9 1_555 1_555
N2 C5 1_555 1_555
O1 C1 1_555 1_555
C1 H1 1_555 1_555
H2 C1 1_555 1_555
H3 C1 1_555 1_555
C2 O1 1_555 1_555
C3 C2 1_555 1_555
H4 C3 1_555 1_555
C4 C3 1_555 1_555
H5 C4 1_555 1_555
C5 C4 1_555 1_555
C6 C5 1_555 1_555
H6 C6 1_555 1_555
C7 C2 1_555 1_555
H7 C7 1_555 1_555
C8 N2 1_555 1_555
C9 C8 1_555 1_555
C10 C9 1_555 1_555
H8 C10 1_555 1_555
C11 C10 1_555 1_555
H9 C11 1_555 1_555
C12 N1 1_555 1_555
H10 C12 1_555 1_555
C13 C8 1_555 1_555
H11 C13 1_555 1_555
H12 C13 1_555 1_555
H13 C13 1_555 1_555
C6 C7 1_555 1_555
C11 C12 1_555 1_555

#END
