
#######################################################################
#
#                 Cambridge Crystallographic Data Centre
#                                CCDC 
#
#######################################################################
#
# If this CIF has been generated from an entry in the Cambridge 
# Structural Database, then it will include bibliographic, chemical, 
# crystal, experimental, refinement or atomic coordinate data resulting 
# from the CCDC's data processing and validation procedures.
#
#######################################################################

data_INOLON
_chemical_name_common            1,4-bis(2,2-bis(4-Ethoxyphenyl)vinyl)benzene
_chemical_formula_moiety         'C42 H42 O4'
_chemical_name_systematic        
1,1',1'',1'''-(1,4-Phenylenediethene-2,1,1-triyl)tetrakis(4-ethoxybenzene)
_symmetry_cell_setting           monoclinic
_symmetry_space_group_name_H-M   'P 21/n'
_symmetry_Int_Tables_number      14
_space_group_name_Hall           '-P 2yn'
loop_
_symmetry_equiv_pos_site_id
_symmetry_equiv_pos_as_xyz
1 x,y,z
2 1/2-x,1/2+y,1/2-z
3 -x,-y,-z
4 1/2+x,1/2-y,1/2+z
_cell_length_a                   22.952(3)
_cell_length_b                   7.0269(9)
_cell_length_c                   23.009(3)
_cell_angle_alpha                90
_cell_angle_beta                 112.606(7)
_cell_angle_gamma                90
_cell_volume                     3425.81
_exptl_crystal_colour            yellow
_exptl_crystal_description       block
_chemical_melting_point          '176-177 deg.C'
_cell_formula_units_Z            4
_exptl_crystal_recrystallization_method acetone/petroleum
loop_
_atom_site_label
_atom_site_type_symbol
_atom_site_fract_x
_atom_site_fract_y
_atom_site_fract_z
C1 C 0.05610(17) 0.9636(5) 0.63113(14)
H1 H 0.0109 0.9694 0.6125
H2 H 0.0721 1.0727 0.6576
H3 H 0.0690 0.8498 0.6559
C2 C 0.08216(15) 0.9617(5) 0.57925(14)
H4 H 0.0700 1.0770 0.5543
H5 H 0.1279 0.9546 0.5975
C3 C 0.07294(13) 0.7696(4) 0.49048(13)
C4 C 0.11482(12) 0.8777(4) 0.47468(12)
H6 H 0.1353 0.9807 0.4995
C5 C 0.12606(11) 0.8311(3) 0.42130(12)
H7 H 0.1545 0.9050 0.4112
C6 C 0.09709(11) 0.6803(3) 0.38235(11)
C7 C 0.05571(13) 0.5752(4) 0.40067(13)
H8 H 0.0352 0.4713 0.3764
C8 C 0.04416(15) 0.6189(5) 0.45297(15)
H9 H 0.0161 0.5444 0.4633
C9 C 0.10598(10) 0.6321(3) 0.32344(11)
C10 C 0.06534(10) 0.4729(3) 0.28653(10)
C11 C 0.00535(10) 0.5059(3) 0.24291(11)
H10 H -0.0080 0.6308 0.2324
C12 C -0.03532(10) 0.3593(3) 0.21438(10)
H11 H -0.0754 0.3853 0.1845
C13 C -0.01647(10) 0.1742(3) 0.23027(10)
C14 C 0.04367(11) 0.1382(3) 0.27255(12)
H12 H 0.0573 0.0133 0.2824
C15 C 0.08350(11) 0.2849(3) 0.30011(11)
H13 H 0.1240 0.2581 0.3289
C16 C -0.11659(11) 0.0417(3) 0.16563(12)
H14 H -0.1188 0.0999 0.1266
H15 H -0.1381 0.1237 0.1849
C17 C -0.14681(12) -0.1513(4) 0.15306(14)
H16 H -0.1219 -0.2359 0.1392
H17 H -0.1885 -0.1415 0.1210
H18 H -0.1494 -0.2001 0.1910
C18 C 0.14595(10) 0.7293(3) 0.30434(11)
H19 H 0.1688 0.8229 0.3325
C19 C 0.16027(10) 0.7160(3) 0.24823(10)
C20 C 0.20196(12) 0.8494(3) 0.24123(12)
H20 H 0.2184 0.9426 0.2719
C21 C 0.21952(12) 0.8477(3) 0.19054(12)
H21 H 0.2475 0.9402 0.1882
C22 C 0.19741(10) 0.7146(3) 0.14291(10)
C23 C 0.15554(10) 0.5810(3) 0.14947(11)
H22 H 0.1392 0.4881 0.1187
C24 C 0.13769(10) 0.5820(3) 0.19998(11)
H23 H 0.1095 0.4899 0.2021
C25 C 0.22068(10) 0.7267(3) 0.09243(11)
H24 H 0.2520 0.8180 0.0994
C26 C 0.20612(9) 0.6325(3) 0.03772(11)
C27 C 0.15876(10) 0.4744(3) 0.01702(10)
C28 C 0.09648(10) 0.5099(3) -0.02090(10)
H25 H 0.0831 0.6353 -0.0301
C29 C 0.05355(10) 0.3648(3) -0.04558(10)
H26 H 0.0118 0.3923 -0.0708
C30 C 0.07320(10) 0.1779(3) -0.03251(10)
C31 C 0.13481(10) 0.1401(3) 0.00600(10)
H27 H 0.1481 0.0148 0.0156
C32 C 0.17688(10) 0.2864(3) 0.03032(10)
H28 H 0.2184 0.2586 0.0562
C33 C -0.02799(10) 0.0505(3) -0.09663(11)
H29 H -0.0299 0.1228 -0.1332
H30 H -0.0506 0.1199 -0.0754
C34 C -0.05658(11) -0.1446(3) -0.11604(11)
H31 H -0.0347 -0.2097 -0.1383
H32 H -0.1003 -0.1318 -0.1429
H33 H -0.0528 -0.2162 -0.0792
C35 C 0.23521(10) 0.6825(3) -0.00788(11)
C36 C 0.22248(11) 0.5765(3) -0.06214(12)
H34 H 0.1967 0.4699 -0.0686
C37 C 0.24614(12) 0.6217(4) -0.10672(12)
H35 H 0.2366 0.5459 -0.1423
C38 C 0.28395(13) 0.7786(4) -0.09889(13)
C39 C 0.29863(13) 0.8862(4) -0.04502(14)
H36 H 0.3249 0.9915 -0.0386
C40 C 0.27466(12) 0.8384(3) -0.00083(13)
H37 H 0.2852 0.9130 0.0352
C41 C 0.33642(19) 0.9867(5) -0.14525(17)
H38 H 0.3779 0.9835 -0.1116
H39 H 0.3132 1.0935 -0.1381
C42 C 0.3420(3) 1.0059(7) -0.2052(2)
H40 H 0.3544 0.8862 -0.2170
H41 H 0.3732 1.1005 -0.2022
H42 H 0.3021 1.0439 -0.2365
O1 O 0.05708(9) 0.8016(3) 0.54121(9)
O2 O -0.05287(7) 0.0159(2) 0.20675(7)
O3 O 0.03596(7) 0.02126(19) -0.05515(7)
O4 O 0.30397(11) 0.8150(3) -0.14660(9)
loop_
_geom_bond_atom_site_label_1
_geom_bond_atom_site_label_2
_geom_bond_site_symmetry_1
_geom_bond_site_symmetry_2
C1 H1 1_555 1_555
H2 C1 1_555 1_555
H3 C1 1_555 1_555
C2 C1 1_555 1_555
H4 C2 1_555 1_555
H5 C2 1_555 1_555
C3 C4 1_555 1_555
C4 H6 1_555 1_555
C5 C4 1_555 1_555
H7 C5 1_555 1_555
C6 C5 1_555 1_555
C7 C6 1_555 1_555
H8 C7 1_555 1_555
C8 C3 1_555 1_555
H9 C8 1_555 1_555
C9 C6 1_555 1_555
C10 C9 1_555 1_555
C11 C10 1_555 1_555
H10 C11 1_555 1_555
C12 C11 1_555 1_555
H11 C12 1_555 1_555
C13 C12 1_555 1_555
C14 C13 1_555 1_555
H12 C14 1_555 1_555
C15 C10 1_555 1_555
H13 C15 1_555 1_555
C16 H14 1_555 1_555
H15 C16 1_555 1_555
C17 C16 1_555 1_555
H16 C17 1_555 1_555
H17 C17 1_555 1_555
H18 C17 1_555 1_555
C18 C9 1_555 1_555
H19 C18 1_555 1_555
C19 C18 1_555 1_555
C20 C19 1_555 1_555
H20 C20 1_555 1_555
C21 C20 1_555 1_555
H21 C21 1_555 1_555
C22 C21 1_555 1_555
C23 C22 1_555 1_555
H22 C23 1_555 1_555
C24 C19 1_555 1_555
H23 C24 1_555 1_555
C25 C22 1_555 1_555
H24 C25 1_555 1_555
C26 C25 1_555 1_555
C27 C26 1_555 1_555
C28 C27 1_555 1_555
H25 C28 1_555 1_555
C29 C28 1_555 1_555
H26 C29 1_555 1_555
C30 C29 1_555 1_555
C31 C30 1_555 1_555
H27 C31 1_555 1_555
C32 C27 1_555 1_555
H28 C32 1_555 1_555
C33 H29 1_555 1_555
H30 C33 1_555 1_555
C34 C33 1_555 1_555
H31 C34 1_555 1_555
H32 C34 1_555 1_555
H33 C34 1_555 1_555
C35 C26 1_555 1_555
C36 C35 1_555 1_555
H34 C36 1_555 1_555
C37 C36 1_555 1_555
H35 C37 1_555 1_555
C38 C37 1_555 1_555
C39 C38 1_555 1_555
H36 C39 1_555 1_555
C40 C35 1_555 1_555
H37 C40 1_555 1_555
C41 H38 1_555 1_555
H39 C41 1_555 1_555
C42 C41 1_555 1_555
H40 C42 1_555 1_555
H41 C42 1_555 1_555
H42 C42 1_555 1_555
O1 C2 1_555 1_555
O2 C13 1_555 1_555
O3 C30 1_555 1_555
O4 C38 1_555 1_555
C3 O1 1_555 1_555
C7 C8 1_555 1_555
C14 C15 1_555 1_555
C16 O2 1_555 1_555
C23 C24 1_555 1_555
C31 C32 1_555 1_555
C33 O3 1_555 1_555
C39 C40 1_555 1_555
C41 O4 1_555 1_555

#END
