
#######################################################################
#
#                 Cambridge Crystallographic Data Centre
#                                CCDC 
#
#######################################################################
#
# If this CIF has been generated from an entry in the Cambridge 
# Structural Database, then it will include bibliographic, chemical, 
# crystal, experimental, refinement or atomic coordinate data resulting 
# from the CCDC's data processing and validation procedures.
#
#######################################################################

data_INOMII
_chemical_name_common            
1,4-bis(2,2-bis(4-n-Heptyloxyphenyl)vinyl)benzene
_chemical_formula_moiety         'C62 H82 O4'
_chemical_name_systematic        
1,1',1'',1'''-(1,4-Phenylenediethene-2,1,1-triyl)tetrakis(4-(n-heptyloxy)benzene)
_symmetry_cell_setting           triclinic
_symmetry_space_group_name_H-M   'P -1'
_symmetry_Int_Tables_number      2
_space_group_name_Hall           '-P 1'
loop_
_symmetry_equiv_pos_site_id
_symmetry_equiv_pos_as_xyz
1 x,y,z
2 -x,-y,-z
_cell_length_a                   9.247(8)
_cell_length_b                   15.350(13)
_cell_length_c                   19.998(18)
_cell_angle_alpha                78.927(11)
_cell_angle_beta                 87.884(11)
_cell_angle_gamma                86.674(11)
_cell_volume                     2780.05
_exptl_crystal_colour            colorless
_exptl_crystal_description       block
_cell_formula_units_Z            2
_exptl_crystal_recrystallization_method dichloromethane/petroleum
loop_
_atom_site_label
_atom_site_type_symbol
_atom_site_fract_x
_atom_site_fract_y
_atom_site_fract_z
C1 C 1.1279(4) 0.8876(2) 1.0475(2)
C2 C 1.0010(4) 0.8697(2) 1.0951(2)
C3 C 1.1250(4) 0.8507(2) 0.9849(2)
O1 O 1.0650(4) 0.7622(2) 0.80461(15)
C6 C 1.1084(4) 0.7613(3) 0.9855(2)
H1 H 1.1092 0.7217 1.0271
C7 C 1.0879(4) 0.7863(3) 0.8651(2)
O3 O 0.6398(3) 0.8463(2) 1.22680(16)
C11 C 1.0909(4) 0.7294(3) 0.9272(2)
H4 H 1.0810 0.6689 0.9295
C12 C 1.1258(4) 0.9063(3) 0.9218(2)
H5 H 1.1399 0.9663 0.9191
C16 C 0.7528(5) 0.8527(3) 1.1810(2)
C17 C 0.7463(4) 0.8410(3) 1.1150(2)
H8 H 0.6597 0.8265 1.0987
C18 C 1.3650(4) 0.9692(3) 1.0283(2)
C19 C 0.8853(5) 0.8699(3) 1.2055(2)
H9 H 0.8925 0.8759 1.2507
C23 C 1.2276(4) 0.9421(3) 1.0613(2)
H12 H 1.2039 0.9672 1.0994
C24 C 1.0051(4) 0.8778(3) 1.1625(2)
H13 H 1.0928 0.8892 1.1796
C25 C 1.1065(4) 0.8754(3) 0.8630(2)
H14 H 1.1060 0.9148 0.8214
C26 C 1.4268(4) 1.0421(3) 1.0457(2)
H15 H 1.3778 1.0713 1.0772
C29 C 0.8689(4) 0.8507(3) 1.0723(2)
H18 H 0.8619 0.8442 1.0272
C30 C 1.4435(4) 0.9276(3) 0.9814(2)
H19 H 1.4071 0.8783 0.9683
C35 C 1.0290(6) 0.6730(3) 0.8053(2)
H23 H 0.9556 0.6552 0.8404
H24 H 1.1140 0.6331 0.8148
C36 C 0.5058(5) 0.8219(4) 1.2048(3)
H25 H 0.5156 0.7623 1.1949
H26 H 0.4755 0.8628 1.1639
C39 C 0.9716(8) 0.6689(5) 0.7350(4)
H30 H 0.9395 0.6096 0.7358
H31 H 0.8881 0.7102 0.7260
C41 C 0.3977(6) 0.8255(6) 1.2617(3)
H34 H 0.3115 0.7969 1.2528
H35 H 0.4379 0.7920 1.3036
C42 C 0.2246(10) 0.9192(9) 1.3250(5)
H36 H 0.1530 0.8785 1.3177
H37 H 0.2602 0.8995 1.3707
C43 C 1.0749(10) 0.6892(5) 0.6820(4)
H38 H 1.1613 0.6506 0.6921
H39 H 1.1016 0.7502 0.6784
C44 C 1.0116(12) 0.6766(8) 0.6106(4)
H40 H 0.9814 0.6163 0.6150
H41 H 0.9270 0.7167 0.6000
C46 C 0.3563(8) 0.9153(7) 1.2713(4)
H43 H 0.3292 0.9513 1.2278
H44 H 0.4394 0.9410 1.2868
C51 C 0.1535(17) 1.0104(10) 1.3195(8)
H52 H 0.1304 1.0332 1.2722
H53 H 0.2221 1.0491 1.3326
C52 C 0.0101(18) 1.0146(15) 1.3650(10)
H54 H -0.0765 0.9910 1.3568
C53 C 1.1218(15) 0.6949(9) 0.5534(6)
H55 H 1.2130 0.6633 0.5673
H56 H 1.1380 0.7580 0.5428
C55 C 1.068(2) 0.6643(16) 0.4881(6)
H58 H 1.0783 0.6001 0.4937
H59 H 0.9671 0.6828 0.4808
C60 C 0.028(2) 1.0531(18) 1.4127(9)
H69 H -0.0216 1.1108 1.4036
H70 H 0.1292 1.0594 1.4174
H71 H -0.0112 1.0190 1.4541
C62 C 1.160(4) 0.707(3) 0.4290(10)
H75 H 1.1074 0.7575 0.4039
H76 H 1.1836 0.6646 0.3999
H77 H 1.2473 0.7249 0.4454
C1A C 1.8721(4) 1.1124(2) 0.9525(2)
C2A C 1.9990(4) 1.1303(2) 0.9049(2)
C3A C 1.8750(4) 1.1493(2) 1.0151(2)
O1A O 1.9350(4) 1.2378(2) 1.19539(15)
C6A C 1.8916(4) 1.2387(3) 1.0145(2)
H1A H 1.8908 1.2783 0.9729
C7A C 1.9121(4) 1.2137(3) 1.1349(2)
O3A O 2.3602(3) 1.1537(2) 0.77320(16)
C11A C 1.9091(4) 1.2706(3) 1.0728(2)
H4A H 1.9190 1.3311 1.0705
C12A C 1.8742(4) 1.0937(3) 1.0782(2)
H5A H 1.8601 1.0337 1.0809
C16A C 2.2472(5) 1.1473(3) 0.8190(2)
C17A C 2.2537(4) 1.1590(3) 0.8850(2)
H8A H 2.3403 1.1735 0.9013
C18A C 1.6350(4) 1.0308(3) 0.9717(2)
C19A C 2.1147(5) 1.1301(3) 0.7945(2)
H9A H 2.1075 1.1241 0.7493
C23A C 1.7724(4) 1.0579(3) 0.9387(2)
H12A H 1.7961 1.0328 0.9006
C24A C 1.9949(4) 1.1222(3) 0.8375(2)
H13A H 1.9072 1.1108 0.8204
C25A C 1.8935(4) 1.1246(3) 1.1370(2)
H14A H 1.8940 1.0852 1.1786
C26A C 1.5732(4) 0.9579(3) 0.9543(2)
H15A H 1.6222 0.9287 0.9228
C29A C 2.1311(4) 1.1493(3) 0.9277(2)
H18A H 2.1381 1.1558 0.9728
C30A C 1.5565(4) 1.0724(3) 1.0186(2)
H19A H 1.5929 1.1217 1.0317
C35A C 1.9710(6) 1.3270(3) 1.1947(2)
H23A H 2.0444 1.3448 1.1596
H24A H 1.8860 1.3669 1.1852
C36A C 2.4942(5) 1.1781(4) 0.7952(3)
H25A H 2.4844 1.2377 0.8051
H26A H 2.5245 1.1372 0.8361
C39A C 2.0284(8) 1.3311(5) 1.2650(4)
H30A H 2.0605 1.3904 1.2642
H31A H 2.1119 1.2898 1.2740
C41A C 2.6023(6) 1.1745(6) 0.7383(3)
H34A H 2.6885 1.2031 0.7472
H35A H 2.5621 1.2080 0.6964
C42A C 2.7754(10) 1.0808(9) 0.6750(5)
H36A H 2.8470 1.1215 0.6823
H37A H 2.7398 1.1005 0.6293
C43A C 1.9251(10) 1.3108(5) 1.3180(4)
H38A H 1.8387 1.3494 1.3079
H39A H 1.8984 1.2498 1.3216
C44A C 1.9884(12) 1.3234(8) 1.3894(4)
H40A H 2.0186 1.3837 1.3850
H41A H 2.0730 1.2833 1.4000
C46A C 2.6437(8) 1.0847(7) 0.7287(4)
H43A H 2.6708 1.0487 0.7722
H44A H 2.5606 1.0590 0.7132
C51A C 2.8465(17) 0.9896(10) 0.6805(8)
H52A H 2.8696 0.9668 0.7278
H53A H 2.7779 0.9509 0.6674
C52A C 2.9899(18) 0.9854(15) 0.6350(10)
H54A H 3.0765 1.0090 0.6432
C53A C 1.8782(15) 1.3051(9) 1.4466(6)
H55A H 1.7870 1.3367 1.4327
H56A H 1.8620 1.2420 1.4572
C55A C 1.932(2) 1.3357(16) 1.5119(6)
H58A H 1.9217 1.3999 1.5063
H59A H 2.0329 1.3172 1.5192
C60A C 2.972(2) 0.9469(18) 0.5873(9)
H69A H 3.0216 0.8892 0.5964
H70A H 2.8708 0.9406 0.5826
H71A H 3.0112 0.9810 0.5459
C62A C 1.840(4) 1.293(3) 1.5710(10)
H75A H 1.8926 1.2425 1.5961
H76A H 1.8164 1.3354 1.6001
H77A H 1.7527 1.2751 1.5546
C4 C 0.6214(4) 0.5951(3) 1.0544(2)
O2 O 0.1308(3) 0.5734(2) 1.23149(15)
C5 C 0.6057(4) 0.6507(2) 0.9867(2)
C8 C 0.8737(4) 0.5263(2) 1.0345(2)
C9 C 0.8681(4) 0.5066(2) 0.9702(2)
H2 H 0.7790 0.5102 0.9494
C10 C 0.4786(4) 0.6560(3) 0.9518(2)
H3 H 0.4013 0.6237 0.9721
C13 C 0.2819(4) 0.6628(3) 1.1475(2)
H6 H 0.2228 0.7137 1.1482
C14 C 0.4945(4) 0.5923(3) 1.1024(2)
C15 C 1.0098(4) 0.5181(2) 1.0639(2)
H7 H 1.0177 0.5297 1.1075
C20 C 0.4027(4) 0.6670(3) 1.1042(2)
H10 H 0.4227 0.7206 1.0758
C21 C 0.4592(4) 0.5149(3) 1.1462(2)
H11 H 0.5193 0.4641 1.1469
C22 C 0.2485(4) 0.5850(3) 1.1890(2)
C27 C 0.7445(4) 0.5470(3) 1.0745(2)
H16 H 0.7478 0.5234 1.1209
C28 C 0.7151(4) 0.7037(3) 0.9556(2)
H17 H 0.8006 0.7042 0.9785
C31 C 0.4627(5) 0.7071(3) 0.8882(2)
H20 H 0.3760 0.7085 0.8658
C32 C 0.3398(5) 0.5103(3) 1.1883(2)
H21 H 0.3194 0.4567 1.2168
C33 C 0.7002(5) 0.7551(3) 0.8920(3)
H22 H 0.7758 0.7894 0.8720
O4 O 0.5679(4) 0.8075(3) 0.7926(2)
C34 C 0.5739(6) 0.7563(3) 0.8576(3)
C37 C 0.0399(6) 0.6499(4) 1.2368(3)
H27 H -0.0064 0.6724 1.1938
H28 H 0.0976 0.6961 1.2473
C38 C -0.0722(8) 0.6263(5) 1.2915(4)
H29 H -0.0634 0.6369 1.3354
C40 C -0.1887(9) 0.5881(6) 1.2721(5)
H32 H -0.1581 0.5322 1.2588
H33 H -0.2326 0.6268 1.2332
C45 C -0.3044(11) 0.5709(10) 1.3341(6)
H42 H -0.2820 0.5830 1.3763
C47 C 0.4360(8) 0.8114(7) 0.7563(4)
H45 H 0.3602 0.8419 0.7793
H46 H 0.4071 0.7514 0.7576
C48 C -0.5335(13) 0.5196(12) 1.3879(7)
H47 H -0.4788 0.4917 1.4275
H48 H -0.5747 0.5757 1.3972
C49 C 0.5183(16) 0.8060(9) 0.6386(7)
H49 H 0.4676 0.7520 0.6403
H50 H 0.6171 0.7891 0.6524
C50 C -0.4212(11) 0.5421(11) 1.3267(6)
H51 H -0.4449 0.5332 1.2838
C54 C 0.4483(13) 0.8570(8) 0.6853(6)
H57 H 0.4131 0.9153 0.6711
C56 C 0.599(2) 0.8095(13) 0.5168(9)
H60 H 0.5488 0.7554 0.5186
H61 H 0.6939 0.7920 0.5357
C57 C 0.520(2) 0.8610(11) 0.5626(7)
H62 H 0.4214 0.8749 0.5476
H63 H 0.5661 0.9166 0.5611
C58 C 0.623(2) 0.8509(15) 0.4417(8)
H64 H 0.6634 0.9086 0.4372
H65 H 0.5313 0.8585 0.4183
C59 C 0.728(4) 0.787(3) 0.4113(14)
H66 H 0.6909 0.7775 0.3691
H67 H 0.7369 0.7312 0.4426
H68 H 0.8207 0.8121 0.4030
C61 C -0.6427(19) 0.4691(14) 1.3845(9)
H72 H -0.7076 0.4989 1.3500
H73 H -0.6936 0.4580 1.4277
H74 H -0.6064 0.4137 1.3732
C4A C 1.3786(4) 0.4049(3) 0.9456(2)
O2A O 1.8692(3) 0.4266(2) 0.76851(15)
C5A C 1.3943(4) 0.3493(2) 1.0133(2)
C8A C 1.1263(4) 0.4737(2) 0.9655(2)
C9A C 1.1319(4) 0.4934(2) 1.0298(2)
H2A H 1.2210 0.4898 1.0506
C10A C 1.5214(4) 0.3440(3) 1.0482(2)
H3A H 1.5987 0.3763 1.0279
C13A C 1.7181(4) 0.3372(3) 0.8525(2)
H6A H 1.7772 0.2863 0.8518
C14A C 1.5055(4) 0.4077(3) 0.8976(2)
C15A C 0.9902(4) 0.4819(2) 0.9361(2)
H7A H 0.9823 0.4703 0.8925
C20A C 1.5973(4) 0.3330(3) 0.8958(2)
H10A H 1.5773 0.2794 0.9242
C21A C 1.5408(4) 0.4851(3) 0.8538(2)
H11A H 1.4807 0.5359 0.8531
C22A C 1.7515(4) 0.4150(3) 0.8110(2)
C27A C 1.2555(4) 0.4530(3) 0.9255(2)
H16A H 1.2522 0.4766 0.8791
C28A C 1.2849(4) 0.2963(3) 1.0444(2)
H17A H 1.1994 0.2958 1.0215
C31A C 1.5373(5) 0.2929(3) 1.1118(2)
H20A H 1.6240 0.2915 1.1342
C32A C 1.6602(5) 0.4897(3) 0.8117(2)
H21A H 1.6806 0.5433 0.7832
C33A C 1.2998(5) 0.2449(3) 1.1080(3)
H22A H 1.2242 0.2106 1.1280
O4A O 1.4321(4) 0.1925(3) 1.2074(2)
C34A C 1.4261(6) 0.2437(3) 1.1424(3)
C37A C 1.9601(6) 0.3501(4) 0.7632(3)
H27A H 2.0064 0.3276 0.8062
H28A H 1.9024 0.3039 0.7527
C38A C 2.0722(8) 0.3737(5) 0.7085(4)
H29A H 2.0634 0.3631 0.6646
C40A C 2.1887(9) 0.4119(6) 0.7279(5)
H32A H 2.1581 0.4678 0.7412
H33A H 2.2326 0.3732 0.7668
C45A C 2.3044(11) 0.4291(10) 0.6659(6)
H42A H 2.2820 0.4170 0.6237
C47A C 1.5640(8) 0.1886(7) 1.2437(4)
H45A H 1.6398 0.1581 1.2207
H46A H 1.5929 0.2486 1.2424
C48A C 2.5335(13) 0.4804(12) 0.6121(7)
H47A H 2.4788 0.5083 0.5725
H48A H 2.5747 0.4243 0.6028
C49A C 1.4817(16) 0.1940(9) 1.3614(7)
H49A H 1.5324 0.2480 1.3597
H50A H 1.3829 0.2109 1.3476
C50A C 2.4212(11) 0.4579(11) 0.6733(6)
H51A H 2.4449 0.4668 0.7162
C54A C 1.5517(13) 0.1430(8) 1.3147(6)
H57A H 1.5869 0.0847 1.3289
C56A C 1.401(2) 0.1905(13) 1.4832(9)
H60A H 1.4512 0.2446 1.4814
H61A H 1.3061 0.2080 1.4643
C57A C 1.480(2) 0.1390(11) 1.4374(7)
H62A H 1.5786 0.1251 1.4524
H63A H 1.4339 0.0834 1.4389
C58A C 1.377(2) 0.1491(15) 1.5583(8)
H64A H 1.3366 0.0914 1.5628
H65A H 1.4687 0.1415 1.5817
C59A C 1.272(4) 0.213(3) 1.5887(14)
H66A H 1.3091 0.2225 1.6309
H67A H 1.2631 0.2688 1.5574
H68A H 1.1793 0.1879 1.5970
C61A C 2.6427(19) 0.5309(14) 0.6155(9)
H72A H 2.7076 0.5011 0.6500
H73A H 2.6936 0.5420 0.5723
H74A H 2.6064 0.5863 0.6268
loop_
_geom_bond_atom_site_label_1
_geom_bond_atom_site_label_2
_geom_bond_site_symmetry_1
_geom_bond_site_symmetry_2
C1 C2 1_555 1_555
C2 C24 1_555 1_555
C3 C1 1_555 1_555
O1 C7 1_555 1_555
C4 C5 1_555 1_555
O2 C22 1_555 1_555
C5 C10 1_555 1_555
C6 C3 1_555 1_555
H1 C6 1_555 1_555
C7 C11 1_555 1_555
O3 C16 1_555 1_555
C8 C9 1_555 1_555
C9 H2 1_555 1_555
C10 H3 1_555 1_555
C11 C6 1_555 1_555
H4 C11 1_555 1_555
C12 C3 1_555 1_555
H5 C12 1_555 1_555
C13 H6 1_555 1_555
C14 C4 1_555 1_555
C15 C8 1_555 1_555
H7 C15 1_555 1_555
C16 C17 1_555 1_555
C17 H8 1_555 1_555
C18 C23 1_555 1_555
C19 C16 1_555 1_555
H9 C19 1_555 1_555
C20 C13 1_555 1_555
H10 C20 1_555 1_555
C21 C14 1_555 1_555
H11 C21 1_555 1_555
C22 C13 1_555 1_555
C23 C1 1_555 1_555
H12 C23 1_555 1_555
C24 C19 1_555 1_555
H13 C24 1_555 1_555
C25 C7 1_555 1_555
H14 C25 1_555 1_555
C26 C18 1_555 1_555
H15 C26 1_555 1_555
C27 C4 1_555 1_555
H16 C27 1_555 1_555
C28 C5 1_555 1_555
H17 C28 1_555 1_555
C29 C2 1_555 1_555
H18 C29 1_555 1_555
C30 C18 1_555 1_555
H19 C30 1_555 1_555
C31 C10 1_555 1_555
H20 C31 1_555 1_555
C32 C21 1_555 1_555
H21 C32 1_555 1_555
C33 C28 1_555 1_555
H22 C33 1_555 1_555
O4 C34 1_555 1_555
C34 C31 1_555 1_555
C35 O1 1_555 1_555
H23 C35 1_555 1_555
H24 C35 1_555 1_555
C36 O3 1_555 1_555
H25 C36 1_555 1_555
H26 C36 1_555 1_555
C37 O2 1_555 1_555
H27 C37 1_555 1_555
H28 C37 1_555 1_555
C38 C37 1_555 1_555
H29 C38 1_555 1_555
C39 C35 1_555 1_555
H30 C39 1_555 1_555
H31 C39 1_555 1_555
C40 C38 1_555 1_555
H32 C40 1_555 1_555
H33 C40 1_555 1_555
C41 C36 1_555 1_555
H34 C41 1_555 1_555
H35 C41 1_555 1_555
C42 H36 1_555 1_555
H37 C42 1_555 1_555
C43 C39 1_555 1_555
H38 C43 1_555 1_555
H39 C43 1_555 1_555
C44 C43 1_555 1_555
H40 C44 1_555 1_555
H41 C44 1_555 1_555
C45 C40 1_555 1_555
H42 C45 1_555 1_555
C46 C41 1_555 1_555
H43 C46 1_555 1_555
H44 C46 1_555 1_555
C47 O4 1_555 1_555
H45 C47 1_555 1_555
H46 C47 1_555 1_555
C48 H47 1_555 1_555
H48 C48 1_555 1_555
C49 H49 1_555 1_555
H50 C49 1_555 1_555
C50 C45 1_555 1_555
H51 C50 1_555 1_555
C51 C42 1_555 1_555
H52 C51 1_555 1_555
H53 C51 1_555 1_555
C52 C51 1_555 1_555
H54 C52 1_555 1_555
C53 C44 1_555 1_555
H55 C53 1_555 1_555
H56 C53 1_555 1_555
C54 C47 1_555 1_555
H57 C54 1_555 1_555
C55 C53 1_555 1_555
H58 C55 1_555 1_555
H59 C55 1_555 1_555
C56 H60 1_555 1_555
H61 C56 1_555 1_555
C57 C49 1_555 1_555
H62 C57 1_555 1_555
H63 C57 1_555 1_555
C58 C56 1_555 1_555
H64 C58 1_555 1_555
H65 C58 1_555 1_555
C59 C58 1_555 1_555
H66 C59 1_555 1_555
H67 C59 1_555 1_555
H68 C59 1_555 1_555
C60 C52 1_555 1_555
H69 C60 1_555 1_555
H70 C60 1_555 1_555
H71 C60 1_555 1_555
C61 C48 1_555 1_555
H72 C61 1_555 1_555
H73 C61 1_555 1_555
H74 C61 1_555 1_555
C62 C55 1_555 1_555
H75 C62 1_555 1_555
H76 C62 1_555 1_555
H77 C62 1_555 1_555
C1A C2A 1_555 1_555
C2A C24A 1_555 1_555
C3A C1A 1_555 1_555
O1A C7A 1_555 1_555
C4A C5A 1_555 1_555
O2A C22A 1_555 1_555
C5A C10A 1_555 1_555
C6A C3A 1_555 1_555
H1A C6A 1_555 1_555
C7A C11A 1_555 1_555
O3A C16A 1_555 1_555
C8A C9A 1_555 1_555
C9A C15 1_555 1_555
H2A C9A 1_555 1_555
C10A H3A 1_555 1_555
C11A C6A 1_555 1_555
H4A C11A 1_555 1_555
C12A C3A 1_555 1_555
H5A C12A 1_555 1_555
C13A H6A 1_555 1_555
C14A C4A 1_555 1_555
C15A C9 1_555 1_555
H7A C15A 1_555 1_555
C16A C17A 1_555 1_555
C17A H8A 1_555 1_555
C18A C23A 1_555 1_555
C19A C16A 1_555 1_555
H9A C19A 1_555 1_555
C20A C13A 1_555 1_555
H10A C20A 1_555 1_555
C21A C14A 1_555 1_555
H11A C21A 1_555 1_555
C22A C13A 1_555 1_555
C23A C1A 1_555 1_555
H12A C23A 1_555 1_555
C24A C19A 1_555 1_555
H13A C24A 1_555 1_555
C25A C7A 1_555 1_555
H14A C25A 1_555 1_555
C26A C30 1_555 1_555
H15A C26A 1_555 1_555
C27A C4A 1_555 1_555
H16A C27A 1_555 1_555
C28A C5A 1_555 1_555
H17A C28A 1_555 1_555
C29A C2A 1_555 1_555
H18A C29A 1_555 1_555
C30A C26 1_555 1_555
H19A C30A 1_555 1_555
C31A C10A 1_555 1_555
H20A C31A 1_555 1_555
C32A C21A 1_555 1_555
H21A C32A 1_555 1_555
C33A C28A 1_555 1_555
H22A C33A 1_555 1_555
O4A C34A 1_555 1_555
C34A C31A 1_555 1_555
C35A O1A 1_555 1_555
H23A C35A 1_555 1_555
H24A C35A 1_555 1_555
C36A O3A 1_555 1_555
H25A C36A 1_555 1_555
H26A C36A 1_555 1_555
C37A O2A 1_555 1_555
H27A C37A 1_555 1_555
H28A C37A 1_555 1_555
C38A C37A 1_555 1_555
H29A C38A 1_555 1_555
C39A C35A 1_555 1_555
H30A C39A 1_555 1_555
H31A C39A 1_555 1_555
C40A C38A 1_555 1_555
H32A C40A 1_555 1_555
H33A C40A 1_555 1_555
C41A C36A 1_555 1_555
H34A C41A 1_555 1_555
H35A C41A 1_555 1_555
C42A H36A 1_555 1_555
H37A C42A 1_555 1_555
C43A C39A 1_555 1_555
H38A C43A 1_555 1_555
H39A C43A 1_555 1_555
C44A C43A 1_555 1_555
H40A C44A 1_555 1_555
H41A C44A 1_555 1_555
C45A C40A 1_555 1_555
H42A C45A 1_555 1_555
C46A C41A 1_555 1_555
H43A C46A 1_555 1_555
H44A C46A 1_555 1_555
C47A O4A 1_555 1_555
H45A C47A 1_555 1_555
H46A C47A 1_555 1_555
C48A H47A 1_555 1_555
H48A C48A 1_555 1_555
C49A H49A 1_555 1_555
H50A C49A 1_555 1_555
C50A C45A 1_555 1_555
H51A C50A 1_555 1_555
C51A C42A 1_555 1_555
H52A C51A 1_555 1_555
H53A C51A 1_555 1_555
C52A C51A 1_555 1_555
H54A C52A 1_555 1_555
C53A C44A 1_555 1_555
H55A C53A 1_555 1_555
H56A C53A 1_555 1_555
C54A C47A 1_555 1_555
H57A C54A 1_555 1_555
C55A C53A 1_555 1_555
H58A C55A 1_555 1_555
H59A C55A 1_555 1_555
C56A H60A 1_555 1_555
H61A C56A 1_555 1_555
C57A C49A 1_555 1_555
H62A C57A 1_555 1_555
H63A C57A 1_555 1_555
C58A C56A 1_555 1_555
H64A C58A 1_555 1_555
H65A C58A 1_555 1_555
C59A C58A 1_555 1_555
H66A C59A 1_555 1_555
H67A C59A 1_555 1_555
H68A C59A 1_555 1_555
C60A C52A 1_555 1_555
H69A C60A 1_555 1_555
H70A C60A 1_555 1_555
H71A C60A 1_555 1_555
C61A C48A 1_555 1_555
H72A C61A 1_555 1_555
H73A C61A 1_555 1_555
H74A C61A 1_555 1_555
C62A C55A 1_555 1_555
H75A C62A 1_555 1_555
H76A C62A 1_555 1_555
H77A C62A 1_555 1_555
C8 C27 1_555 1_555
C12 C25 1_555 1_555
C14 C20 1_555 1_555
C17 C29 1_555 1_555
C22 C32 1_555 1_555
C33 C34 1_555 1_555
C42 C46 1_555 1_555
C48 C50 1_555 1_555
C49 C54 1_555 1_555
C56 C57 1_555 1_555
C8A C15A 1_555 1_555
C8A C27A 1_555 1_555
C12A C25A 1_555 1_555
C14A C20A 1_555 1_555
C17A C29A 1_555 1_555
C18A C26A 1_555 1_555
C18A C30A 1_555 1_555
C22A C32A 1_555 1_555
C33A C34A 1_555 1_555
C42A C46A 1_555 1_555
C48A C50A 1_555 1_555
C49A C54A 1_555 1_555
C56A C57A 1_555 1_555

#END
