
#######################################################################
#
#                 Cambridge Crystallographic Data Centre
#                                CCDC 
#
#######################################################################
#
# If this CIF has been generated from an entry in the Cambridge 
# Structural Database, then it will include bibliographic, chemical, 
# crystal, experimental, refinement or atomic coordinate data resulting 
# from the CCDC's data processing and validation procedures.
#
#######################################################################

data_INOMAA
_chemical_name_common            
1,4-bis(2,2-bis(4-n-Pentyloxyphenyl)vinyl)benzene
_chemical_formula_moiety         'C54 H66 O4'
_chemical_name_systematic        
1,1',1'',1'''-(1,4-Phenylenediethene-2,1,1-triyl)tetrakis(4-(pentoxy)benzene)
_symmetry_cell_setting           triclinic
_symmetry_space_group_name_H-M   'P -1'
_symmetry_Int_Tables_number      2
_space_group_name_Hall           '-P 1'
loop_
_symmetry_equiv_pos_site_id
_symmetry_equiv_pos_as_xyz
1 x,y,z
2 -x,-y,-z
_cell_length_a                   9.1618(17)
_cell_length_b                   15.607(3)
_cell_length_c                   17.154(4)
_cell_angle_alpha                101.382(10)
_cell_angle_beta                 91.325(11)
_cell_angle_gamma                92.182(10)
_cell_volume                     2401.66
_exptl_crystal_colour            yellow
_exptl_crystal_description       block
_chemical_melting_point          '109-110 deg.C'
_cell_formula_units_Z            2
_exptl_crystal_recrystallization_method acetone/petroleum
loop_
_atom_site_label
_atom_site_type_symbol
_atom_site_fract_x
_atom_site_fract_y
_atom_site_fract_z
C1 C 0.5903(4) 0.7687(3) 1.1515(4)
C2 C 0.5988(5) 0.6807(4) 1.1510(3)
H1 H 0.5941 0.6602 1.1983
C3 C 0.6143(5) 0.6230(3) 1.0794(4)
H2 H 0.6203 0.5637 1.0797
C4 C 0.6212(4) 0.6504(3) 1.0076(3)
C5 C 0.6127(4) 0.7399(3) 1.0110(3)
H3 H 0.6167 0.7612 0.9641
C6 C 0.5986(4) 0.7975(3) 1.0814(3)
H4 H 0.5947 0.8570 1.0816
C7 C 0.6287(5) 0.5864(3) 0.9323(3)
C8 C 0.7345(5) 0.5274(3) 0.9170(3)
H5 H 0.7186 0.4861 0.8702
C9 C 0.8691(5) 0.5174(3) 0.9612(3)
C10 C 0.9415(5) 0.5809(3) 1.0183(3)
H6 H 0.9033 0.6361 1.0318
C11 C 0.9319(5) 0.4360(3) 0.9449(3)
H7 H 0.8856 0.3914 0.9075
C12 C 0.5032(5) 0.5818(3) 0.8752(3)
C13 C 0.3680(5) 0.6126(3) 0.8999(3)
H8 H 0.3585 0.6405 0.9526
C14 C 0.2486(6) 0.6031(3) 0.8493(4)
H9 H 0.1595 0.6232 0.8685
C15 C 0.2578(6) 0.5643(4) 0.7708(4)
C16 C 0.3919(7) 0.5342(3) 0.7438(3)
H10 H 0.4011 0.5082 0.6906
C17 C 0.5110(6) 0.5427(3) 0.7954(4)
H11 H 0.5996 0.5215 0.7763
C18 C 0.5402(7) 0.9089(4) 1.2287(4)
H12 H 0.4586 0.9125 1.1926
H13 H 0.6235 0.9416 1.2137
C19 C 0.5008(9) 0.9466(4) 1.3133(4)
H14 H 0.5800 0.9382 1.3492
H15 H 0.4893 1.0091 1.3190
C20 C 0.3615(9) 0.9046(6) 1.3365(5)
H16 H 0.3686 0.8415 1.3253
H17 H 0.2800 0.9188 1.3050
C21 C 0.3337(14) 0.9358(12) 1.4240(6)
H18 H 0.3089 0.8861 1.4481
H19 H 0.4212 0.9655 1.4509
C22 C 0.216(2) 0.9945(12) 1.4322(8)
H20 H 0.2540 1.0499 1.4236
H21 H 0.1794 1.0013 1.4850
H22 H 0.1379 0.9733 1.3941
C23 C 0.0115(7) 0.5923(5) 0.7380(4)
H23 H 0.0292 0.6535 0.7623
H24 H -0.0342 0.5629 0.7765
C24 C -0.0869(10) 0.5837(7) 0.6649(6)
H25 H -0.1723 0.6178 0.6783
H26 H -0.0353 0.6075 0.6246
C25 C -0.1330(10) 0.4949(7) 0.6329(7)
H27 H -0.1849 0.4697 0.6722
H28 H -0.0494 0.4601 0.6167
C26 C -0.2398(18) 0.4974(10) 0.5568(8)
H29 H -0.3058 0.5452 0.5666
H30 H -0.1868 0.4985 0.5087
C27 C -0.3141(18) 0.4115(12) 0.5565(11)
H31 H -0.2839 0.3696 0.5116
H32 H -0.4179 0.4168 0.5531
H33 H -0.2885 0.3923 0.6047
O1 O 0.5746(4) 0.8200(2) 1.2246(2)
O2 O 0.1464(5) 0.5532(3) 0.7140(2)
C1A C 1.4097(4) 0.2313(3) 0.8485(4)
C2A C 1.4012(5) 0.3193(4) 0.8490(3)
H1A H 1.4059 0.3398 0.8017
C3A C 1.3857(5) 0.3770(3) 0.9206(4)
H2A H 1.3797 0.4363 0.9203
C4A C 1.3788(4) 0.3496(3) 0.9924(3)
C5A C 1.3873(4) 0.2601(3) 0.9890(3)
H3A H 1.3833 0.2388 1.0359
C6A C 1.4014(4) 0.2025(3) 0.9186(3)
H4A H 1.4053 0.1430 0.9184
C7A C 1.3713(5) 0.4136(3) 1.0677(3)
C8A C 1.2655(5) 0.4726(3) 1.0830(3)
H5A H 1.2814 0.5139 1.1298
C9A C 1.1309(5) 0.4826(3) 1.0388(3)
C10A C 1.0585(5) 0.4191(3) 0.9817(3)
H6A H 1.0967 0.3639 0.9682
C11A C 1.0681(5) 0.5640(3) 1.0551(3)
H7A H 1.1144 0.6086 1.0925
C12A C 1.4968(5) 0.4182(3) 1.1248(3)
C13A C 1.6320(5) 0.3874(3) 1.1001(3)
H8A H 1.6415 0.3595 1.0474
C14A C 1.7514(6) 0.3969(3) 1.1507(4)
H9A H 1.8405 0.3768 1.1315
C15A C 1.7422(6) 0.4357(4) 1.2292(4)
C16A C 1.6081(7) 0.4658(3) 1.2562(3)
H10A H 1.5989 0.4918 1.3094
C17A C 1.4890(6) 0.4573(3) 1.2046(4)
H11A H 1.4004 0.4785 1.2237
C18A C 1.4598(7) 0.0911(4) 0.7713(4)
H12A H 1.5414 0.0875 0.8074
H13A H 1.3765 0.0584 0.7863
C19A C 1.4992(9) 0.0534(4) 0.6867(4)
H14A H 1.4200 0.0618 0.6508
H15A H 1.5107 -0.0091 0.6810
C20A C 1.6385(9) 0.0954(6) 0.6635(5)
H16A H 1.6314 0.1585 0.6747
H17A H 1.7200 0.0812 0.6950
C21A C 1.6663(14) 0.0642(12) 0.5760(6)
H18A H 1.6911 0.1139 0.5519
H19A H 1.5788 0.0345 0.5491
C22A C 1.784(2) 0.0055(12) 0.5678(8)
H20A H 1.7460 -0.0499 0.5764
H21A H 1.8206 -0.0013 0.5150
H22A H 1.8621 0.0267 0.6059
C23A C 1.9885(7) 0.4077(5) 1.2620(4)
H23A H 1.9708 0.3465 1.2377
H24A H 2.0342 0.4371 1.2235
C24A C 2.0869(10) 0.4163(7) 1.3351(6)
H25A H 2.1723 0.3822 1.3217
H26A H 2.0353 0.3925 1.3754
C25A C 2.1330(10) 0.5051(7) 1.3671(7)
H27A H 2.1849 0.5303 1.3278
H28A H 2.0494 0.5399 1.3833
C26A C 2.2398(18) 0.5026(10) 1.4432(8)
H29A H 2.3058 0.4548 1.4334
H30A H 2.1868 0.5015 1.4913
C27A C 2.3141(18) 0.5885(12) 1.4435(11)
H31A H 2.2839 0.6304 1.4884
H32A H 2.4179 0.5832 1.4469
H33A H 2.2885 0.6077 1.3953
O1A O 1.4254(4) 0.1800(2) 0.7754(2)
O2A O 1.8536(5) 0.4468(3) 1.2860(2)
C28 C 0.2571(5) 0.1741(3) 0.2273(3)
C29 C 0.1692(5) 0.0983(3) 0.2252(3)
H34 H 0.1927 0.0592 0.2576
C30 C 0.0478(5) 0.0820(3) 0.1750(3)
H35 H -0.0105 0.0319 0.1748
C31 C 0.0096(4) 0.1363(3) 0.1254(2)
C32 C 0.0984(4) 0.2113(3) 0.1290(2)
H36 H 0.0750 0.2499 0.0961
C33 C 0.2192(5) 0.2308(3) 0.1791(3)
H37 H 0.2750 0.2821 0.1804
C34 C -0.1210(4) 0.1164(2) 0.0692(2)
C35 C -0.2406(4) 0.0757(3) 0.0907(2)
H38 H -0.2408 0.0700 0.1436
C36 C -0.3717(4) 0.0389(2) 0.0425(3)
C37 C -0.5073(4) 0.0434(2) 0.0772(2)
H39 H -0.5139 0.0718 0.1299
C38 C -0.3669(4) -0.0067(2) -0.0354(3)
H40 H -0.2775 -0.0128 -0.0601
C39 C -0.1098(4) 0.1442(2) -0.0079(3)
C40 C 0.0148(4) 0.1325(2) -0.0523(3)
H41 H 0.0930 0.1050 -0.0337
C41 C 0.0260(5) 0.1606(3) -0.1240(3)
H42 H 0.1097 0.1507 -0.1536
C42 C -0.0874(5) 0.2029(3) -0.1508(3)
C43 C -0.2112(5) 0.2161(3) -0.1088(3)
H43 H -0.2880 0.2444 -0.1277
C44 C -0.2227(4) 0.1871(3) -0.0378(3)
H44 H -0.3078 0.1965 -0.0094
C45 C 0.0419(6) 0.2289(5) -0.2640(4)
H45 H 0.0578 0.1677 -0.2851
H46 H 0.1253 0.2528 -0.2296
C46 C 0.0307(9) 0.2761(6) -0.3301(5)
H47 H 0.0218 0.3380 -0.3089
H48 H -0.0563 0.2550 -0.3626
C47 C 0.1709(11) 0.2622(9) -0.3833(6)
H49 H 0.2558 0.2826 -0.3490
H50 H 0.1788 0.1997 -0.4018
C48 C 0.1805(16) 0.3022(12) -0.4510(10)
H51 H 0.1800 0.3656 -0.4372
H52 H 0.1058 0.2798 -0.4917
C49 C 0.3329(17) 0.2683(11) -0.4733(10)
H53 H 0.3639 0.2886 -0.5199
H54 H 0.3282 0.2055 -0.4840
H55 H 0.4013 0.2898 -0.4300
C50 C 0.4738(6) 0.2580(4) 0.2813(3)
H56 H 0.4198 0.3110 0.2947
H57 H 0.5175 0.2568 0.2301
C51 C 0.5905(8) 0.2568(5) 0.3437(4)
H58 H 0.6429 0.3133 0.3556
H59 H 0.5452 0.2475 0.3921
C52 C 0.6954(9) 0.1879(6) 0.3187(5)
H60 H 0.7397 0.1944 0.2693
H61 H 0.6475 0.1303 0.3116
C53 C 0.8146(18) 0.2020(10) 0.3895(9)
H62 H 0.8859 0.2482 0.3848
H63 H 0.7693 0.2166 0.4407
C54 C 0.8836(15) 0.1163(10) 0.3798(7)
H64 H 0.8498 0.0860 0.4199
H65 H 0.9879 0.1255 0.3851
H66 H 0.8579 0.0821 0.3281
O3 O 0.3780(4) 0.1830(2) 0.27745(18)
O4 O -0.0854(4) 0.2357(2) -0.2193(2)
C28A C -1.2571(5) -0.1741(3) -0.2273(3)
C29A C -1.1692(5) -0.0983(3) -0.2252(3)
H34A H -1.1927 -0.0592 -0.2576
C30A C -1.0478(5) -0.0820(3) -0.1750(3)
H35A H -0.9895 -0.0319 -0.1748
C31A C -1.0096(4) -0.1363(3) -0.1254(2)
C32A C -1.0984(4) -0.2113(3) -0.1290(2)
H36A H -1.0750 -0.2499 -0.0961
C33A C -1.2192(5) -0.2308(3) -0.1791(3)
H37A H -1.2750 -0.2821 -0.1804
C34A C -0.8790(4) -0.1164(2) -0.0692(2)
C35A C -0.7594(4) -0.0757(3) -0.0907(2)
H38A H -0.7592 -0.0700 -0.1436
C36A C -0.6283(4) -0.0389(2) -0.0425(3)
C37A C -0.4927(4) -0.0434(2) -0.0772(2)
H39A H -0.4861 -0.0718 -0.1299
C38A C -0.6331(4) 0.0067(2) 0.0354(3)
H40A H -0.7225 0.0128 0.0601
C39A C -0.8902(4) -0.1442(2) 0.0079(3)
C40A C -1.0148(4) -0.1325(2) 0.0523(3)
H41A H -1.0930 -0.1050 0.0337
C41A C -1.0260(5) -0.1606(3) 0.1240(3)
H42A H -1.1097 -0.1507 0.1536
C42A C -0.9126(5) -0.2029(3) 0.1508(3)
C43A C -0.7888(5) -0.2161(3) 0.1088(3)
H43A H -0.7120 -0.2444 0.1277
C44A C -0.7773(4) -0.1871(3) 0.0378(3)
H44A H -0.6922 -0.1965 0.0094
C45A C -1.0419(6) -0.2289(5) 0.2640(4)
H45A H -1.0578 -0.1677 0.2851
H46A H -1.1253 -0.2528 0.2296
C46A C -1.0307(9) -0.2761(6) 0.3301(5)
H47A H -1.0218 -0.3380 0.3089
H48A H -0.9437 -0.2550 0.3626
C47A C -1.1709(11) -0.2622(9) 0.3833(6)
H49A H -1.2558 -0.2826 0.3490
H50A H -1.1788 -0.1997 0.4018
C48A C -1.1805(16) -0.3022(12) 0.4510(10)
H51A H -1.1800 -0.3656 0.4372
H52A H -1.1058 -0.2798 0.4917
C49A C -1.3329(17) -0.2683(11) 0.4733(10)
H53A H -1.3639 -0.2886 0.5199
H54A H -1.3282 -0.2055 0.4840
H55A H -1.4013 -0.2898 0.4300
C50A C -1.4738(6) -0.2580(4) -0.2813(3)
H56A H -1.4198 -0.3110 -0.2947
H57A H -1.5175 -0.2568 -0.2301
C51A C -1.5905(8) -0.2568(5) -0.3437(4)
H58A H -1.6429 -0.3133 -0.3556
H59A H -1.5452 -0.2475 -0.3921
C52A C -1.6954(9) -0.1879(6) -0.3187(5)
H60A H -1.7397 -0.1944 -0.2693
H61A H -1.6475 -0.1303 -0.3116
C53A C -1.8146(18) -0.2020(10) -0.3895(9)
H62A H -1.8859 -0.2482 -0.3848
H63A H -1.7693 -0.2166 -0.4407
C54A C -1.8836(15) -0.1163(10) -0.3798(7)
H64A H -1.8498 -0.0860 -0.4199
H65A H -1.9879 -0.1255 -0.3851
H66A H -1.8579 -0.0821 -0.3281
O3A O -1.3780(4) -0.1830(2) -0.27745(18)
O4A O -0.9146(4) -0.2357(2) 0.2193(2)
loop_
_geom_bond_atom_site_label_1
_geom_bond_atom_site_label_2
_geom_bond_site_symmetry_1
_geom_bond_site_symmetry_2
C1 C2 1_555 1_555
C2 H1 1_555 1_555
C3 C2 1_555 1_555
H2 C3 1_555 1_555
C4 C3 1_555 1_555
C5 C4 1_555 1_555
H3 C5 1_555 1_555
C6 C1 1_555 1_555
H4 C6 1_555 1_555
C7 C4 1_555 1_555
C8 C7 1_555 1_555
H5 C8 1_555 1_555
C9 C8 1_555 1_555
C10 C9 1_555 1_555
H6 C10 1_555 1_555
C11 C9 1_555 1_555
H7 C11 1_555 1_555
C12 C7 1_555 1_555
C13 C12 1_555 1_555
H8 C13 1_555 1_555
C14 C13 1_555 1_555
H9 C14 1_555 1_555
C15 C14 1_555 1_555
C16 C15 1_555 1_555
H10 C16 1_555 1_555
C17 C12 1_555 1_555
H11 C17 1_555 1_555
C18 H12 1_555 1_555
H13 C18 1_555 1_555
C19 C18 1_555 1_555
H14 C19 1_555 1_555
H15 C19 1_555 1_555
C20 C19 1_555 1_555
H16 C20 1_555 1_555
H17 C20 1_555 1_555
C21 C20 1_555 1_555
H18 C21 1_555 1_555
H19 C21 1_555 1_555
C22 C21 1_555 1_555
H20 C22 1_555 1_555
H21 C22 1_555 1_555
H22 C22 1_555 1_555
C23 H23 1_555 1_555
H24 C23 1_555 1_555
C24 C23 1_555 1_555
H25 C24 1_555 1_555
H26 C24 1_555 1_555
C25 C24 1_555 1_555
H27 C25 1_555 1_555
H28 C25 1_555 1_555
C26 C25 1_555 1_555
H29 C26 1_555 1_555
H30 C26 1_555 1_555
C27 C26 1_555 1_555
H31 C27 1_555 1_555
H32 C27 1_555 1_555
H33 C27 1_555 1_555
C28 C29 1_555 1_555
C29 H34 1_555 1_555
C30 C29 1_555 1_555
H35 C30 1_555 1_555
C31 C30 1_555 1_555
C32 C31 1_555 1_555
H36 C32 1_555 1_555
C33 C28 1_555 1_555
H37 C33 1_555 1_555
C34 C31 1_555 1_555
C35 C34 1_555 1_555
H38 C35 1_555 1_555
C36 C35 1_555 1_555
C37 C36 1_555 1_555
H39 C37 1_555 1_555
C38 C36 1_555 1_555
H40 C38 1_555 1_555
C39 C34 1_555 1_555
C40 C39 1_555 1_555
H41 C40 1_555 1_555
C41 C40 1_555 1_555
H42 C41 1_555 1_555
C42 C41 1_555 1_555
C43 C42 1_555 1_555
H43 C43 1_555 1_555
C44 C39 1_555 1_555
H44 C44 1_555 1_555
C45 H45 1_555 1_555
H46 C45 1_555 1_555
C46 C45 1_555 1_555
H47 C46 1_555 1_555
H48 C46 1_555 1_555
C47 C46 1_555 1_555
H49 C47 1_555 1_555
H50 C47 1_555 1_555
C48 C47 1_555 1_555
H51 C48 1_555 1_555
H52 C48 1_555 1_555
C49 C48 1_555 1_555
H53 C49 1_555 1_555
H54 C49 1_555 1_555
H55 C49 1_555 1_555
C50 H56 1_555 1_555
H57 C50 1_555 1_555
C51 C50 1_555 1_555
H58 C51 1_555 1_555
H59 C51 1_555 1_555
C52 C51 1_555 1_555
H60 C52 1_555 1_555
H61 C52 1_555 1_555
C53 C52 1_555 1_555
H62 C53 1_555 1_555
H63 C53 1_555 1_555
C54 C53 1_555 1_555
H64 C54 1_555 1_555
H65 C54 1_555 1_555
H66 C54 1_555 1_555
O1 C1 1_555 1_555
O2 C15 1_555 1_555
O3 C28 1_555 1_555
O4 C42 1_555 1_555
C1A C2A 1_555 1_555
C2A H1A 1_555 1_555
C3A C2A 1_555 1_555
H2A C3A 1_555 1_555
C4A C3A 1_555 1_555
C5A C4A 1_555 1_555
H3A C5A 1_555 1_555
C6A C1A 1_555 1_555
H4A C6A 1_555 1_555
C7A C4A 1_555 1_555
C8A C7A 1_555 1_555
H5A C8A 1_555 1_555
C9A C8A 1_555 1_555
C10A C11 1_555 1_555
H6A C10A 1_555 1_555
C11A C10 1_555 1_555
H7A C11A 1_555 1_555
C12A C7A 1_555 1_555
C13A C12A 1_555 1_555
H8A C13A 1_555 1_555
C14A C13A 1_555 1_555
H9A C14A 1_555 1_555
C15A C14A 1_555 1_555
C16A C15A 1_555 1_555
H10A C16A 1_555 1_555
C17A C12A 1_555 1_555
H11A C17A 1_555 1_555
C18A H12A 1_555 1_555
H13A C18A 1_555 1_555
C19A C18A 1_555 1_555
H14A C19A 1_555 1_555
H15A C19A 1_555 1_555
C20A C19A 1_555 1_555
H16A C20A 1_555 1_555
H17A C20A 1_555 1_555
C21A C20A 1_555 1_555
H18A C21A 1_555 1_555
H19A C21A 1_555 1_555
C22A C21A 1_555 1_555
H20A C22A 1_555 1_555
H21A C22A 1_555 1_555
H22A C22A 1_555 1_555
C23A H23A 1_555 1_555
H24A C23A 1_555 1_555
C24A C23A 1_555 1_555
H25A C24A 1_555 1_555
H26A C24A 1_555 1_555
C25A C24A 1_555 1_555
H27A C25A 1_555 1_555
H28A C25A 1_555 1_555
C26A C25A 1_555 1_555
H29A C26A 1_555 1_555
H30A C26A 1_555 1_555
C27A C26A 1_555 1_555
H31A C27A 1_555 1_555
H32A C27A 1_555 1_555
H33A C27A 1_555 1_555
C28A C29A 1_555 1_555
C29A H34A 1_555 1_555
C30A C29A 1_555 1_555
H35A C30A 1_555 1_555
C31A C30A 1_555 1_555
C32A C31A 1_555 1_555
H36A C32A 1_555 1_555
C33A C28A 1_555 1_555
H37A C33A 1_555 1_555
C34A C31A 1_555 1_555
C35A C34A 1_555 1_555
H38A C35A 1_555 1_555
C36A C35A 1_555 1_555
C37A C38 1_555 1_555
H39A C37A 1_555 1_555
C38A C37 1_555 1_555
H40A C38A 1_555 1_555
C39A C34A 1_555 1_555
C40A C39A 1_555 1_555
H41A C40A 1_555 1_555
C41A C40A 1_555 1_555
H42A C41A 1_555 1_555
C42A C41A 1_555 1_555
C43A C42A 1_555 1_555
H43A C43A 1_555 1_555
C44A C39A 1_555 1_555
H44A C44A 1_555 1_555
C45A H45A 1_555 1_555
H46A C45A 1_555 1_555
C46A C45A 1_555 1_555
H47A C46A 1_555 1_555
H48A C46A 1_555 1_555
C47A C46A 1_555 1_555
H49A C47A 1_555 1_555
H50A C47A 1_555 1_555
C48A C47A 1_555 1_555
H51A C48A 1_555 1_555
H52A C48A 1_555 1_555
C49A C48A 1_555 1_555
H53A C49A 1_555 1_555
H54A C49A 1_555 1_555
H55A C49A 1_555 1_555
C50A H56A 1_555 1_555
H57A C50A 1_555 1_555
C51A C50A 1_555 1_555
H58A C51A 1_555 1_555
H59A C51A 1_555 1_555
C52A C51A 1_555 1_555
H60A C52A 1_555 1_555
H61A C52A 1_555 1_555
C53A C52A 1_555 1_555
H62A C53A 1_555 1_555
H63A C53A 1_555 1_555
C54A C53A 1_555 1_555
H64A C54A 1_555 1_555
H65A C54A 1_555 1_555
H66A C54A 1_555 1_555
O1A C1A 1_555 1_555
O2A C15A 1_555 1_555
O3A C28A 1_555 1_555
O4A C42A 1_555 1_555
C5 C6 1_555 1_555
C16 C17 1_555 1_555
C18 O1 1_555 1_555
C23 O2 1_555 1_555
C32 C33 1_555 1_555
C43 C44 1_555 1_555
C45 O4 1_555 1_555
C50 O3 1_555 1_555
C5A C6A 1_555 1_555
C9A C10A 1_555 1_555
C9A C11A 1_555 1_555
C16A C17A 1_555 1_555
C18A O1A 1_555 1_555
C23A O2A 1_555 1_555
C32A C33A 1_555 1_555
C36A C37A 1_555 1_555
C36A C38A 1_555 1_555
C43A C44A 1_555 1_555
C45A O4A 1_555 1_555
C50A O3A 1_555 1_555

#END
