
#######################################################################
#
#                 Cambridge Crystallographic Data Centre
#                                CCDC 
#
#######################################################################
#
# If this CIF has been generated from an entry in the Cambridge 
# Structural Database, then it will include bibliographic, chemical, 
# crystal, experimental, refinement or atomic coordinate data resulting 
# from the CCDC's data processing and validation procedures.
#
#######################################################################

data_INOYUH
_chemical_formula_moiety         'C20 H14 F1 N1'
_chemical_name_systematic        
3-fluoro-12b-methyl-8,12b-dihydroindeno[1,2,3-kl]acridine
_symmetry_cell_setting           monoclinic
_symmetry_space_group_name_H-M   'P 21/c'
_symmetry_Int_Tables_number      14
_space_group_name_Hall           '-P 2ybc'
loop_
_symmetry_equiv_pos_site_id
_symmetry_equiv_pos_as_xyz
1 x,y,z
2 -x,1/2+y,1/2-z
3 -x,-y,-z
4 x,1/2-y,1/2+z
_cell_length_a                   8.9782(5)
_cell_length_b                   18.2579(10)
_cell_length_c                   17.6665(10)
_cell_angle_alpha                90
_cell_angle_beta                 101.906(2)
_cell_angle_gamma                90
_cell_volume                     2833.65
_exptl_crystal_colour            colorless
_exptl_crystal_description       block
_cell_formula_units_Z            8
loop_
_atom_site_label
_atom_site_type_symbol
_atom_site_fract_x
_atom_site_fract_y
_atom_site_fract_z
F1 F -0.20058(14) 0.71539(7) 0.19035(8)
N1 N 0.45038(15) 0.40289(7) 0.21130(8)
H1 H 0.4943 0.3608 0.2143
C1 C 0.48993(16) 0.45892(8) 0.16396(8)
C2 C 0.63674(17) 0.46183(9) 0.14990(9)
H2 H 0.7076 0.4264 0.1711
C3 C 0.67775(18) 0.51665(9) 0.10488(9)
H3 H 0.7761 0.5179 0.0957
C4 C 0.57441(18) 0.56985(9) 0.07322(9)
H4 H 0.6027 0.6070 0.0430
C5 C 0.42805(17) 0.56733(8) 0.08692(9)
H5 H 0.3583 0.6031 0.0655
C6 C 0.38337(15) 0.51257(8) 0.13183(8)
C7 C 0.22120(15) 0.50279(7) 0.14331(8)
C8 C 0.23153(15) 0.46978(8) 0.22202(8)
C9 C 0.33821(17) 0.41780(8) 0.25293(9)
C10 C 0.32848(19) 0.38799(10) 0.32463(10)
H6 H 0.3939 0.3505 0.3461
C11 C 0.2205(2) 0.41475(11) 0.36336(10)
H7 H 0.2122 0.3931 0.4100
C12 C 0.12409(19) 0.47260(10) 0.33541(10)
H8 H 0.0566 0.4916 0.3638
C13 C 0.13231(16) 0.50109(8) 0.26316(9)
C14 C 0.06078(16) 0.56367(8) 0.21697(9)
C15 C -0.04602(17) 0.61353(9) 0.23244(10)
H9 H -0.0831 0.6112 0.2778
C16 C -0.09424(18) 0.66642(9) 0.17752(11)
C17 C -0.04314(19) 0.67193(9) 0.10971(11)
H10 H -0.0794 0.7088 0.0743
C18 C 0.06336(17) 0.62181(9) 0.09452(10)
H11 H 0.0980 0.6243 0.0485
C19 C 0.11742(15) 0.56808(8) 0.14854(9)
C20 C 0.13909(18) 0.44968(9) 0.07990(9)
H12 H 0.1986 0.4059 0.0804
H13 H 0.1269 0.4728 0.0302
H14 H 0.0409 0.4374 0.0898
F2 F 0.72882(15) 0.50044(7) 0.34305(8)
N2 N 0.07002(17) 0.80990(8) 0.30822(10)
H15 H 0.0219 0.8509 0.3021
C21 C 0.18121(18) 0.79329(8) 0.26631(10)
C22 C 0.1835(2) 0.81744(9) 0.19138(10)
H16 H 0.1135 0.8520 0.1672
C23 C 0.2912(2) 0.78916(10) 0.15382(10)
H17 H 0.2950 0.8071 0.1050
C24 C 0.39411(19) 0.73521(9) 0.18563(9)
H18 H 0.4618 0.7152 0.1579
C25 C 0.39238(16) 0.71207(8) 0.26049(9)
C26 C 0.29416(17) 0.74553(8) 0.30074(9)
C27 C 0.31235(17) 0.71843(8) 0.38230(9)
C28 C 0.15198(18) 0.70700(9) 0.39609(9)
C29 C 0.03932(19) 0.75690(9) 0.36110(10)
C30 C -0.1061(2) 0.75293(11) 0.37718(12)
H19 H -0.1802 0.7865 0.3549
C31 C -0.1403(2) 0.69938(12) 0.42599(13)
H20 H -0.2372 0.6974 0.4370
C32 C -0.0324(2) 0.64887(12) 0.45846(12)
H21 H -0.0568 0.6122 0.4904
C33 C 0.1132(2) 0.65274(10) 0.44346(10)
H22 H 0.1858 0.6184 0.4655
C34 C 0.41910(17) 0.65397(8) 0.38069(9)
C35 C 0.46975(16) 0.65304(8) 0.31029(9)
C36 C 0.57442(18) 0.60114(9) 0.29650(10)
H23 H 0.6077 0.6000 0.2500
C37 C 0.62622(19) 0.55184(9) 0.35444(11)
C38 C 0.5832(2) 0.55254(10) 0.42492(12)
H24 H 0.6229 0.5185 0.4629
C39 C 0.4796(2) 0.60489(10) 0.43844(10)
H25 H 0.4511 0.6069 0.4861
C40 C 0.3931(2) 0.77665(10) 0.44007(10)
H26 H 0.4888 0.7894 0.4274
H27 H 0.4104 0.7572 0.4916
H28 H 0.3303 0.8195 0.4370
loop_
_geom_bond_atom_site_label_1
_geom_bond_atom_site_label_2
_geom_bond_site_symmetry_1
_geom_bond_site_symmetry_2
F1 C16 1_555 1_555
N1 H1 1_555 1_555
C1 N1 1_555 1_555
C2 C1 1_555 1_555
H2 C2 1_555 1_555
C3 C2 1_555 1_555
H3 C3 1_555 1_555
C4 C3 1_555 1_555
H4 C4 1_555 1_555
C5 C4 1_555 1_555
H5 C5 1_555 1_555
C6 C1 1_555 1_555
C7 C6 1_555 1_555
C8 C7 1_555 1_555
C9 N1 1_555 1_555
C10 C9 1_555 1_555
H6 C10 1_555 1_555
C11 C10 1_555 1_555
H7 C11 1_555 1_555
C12 C11 1_555 1_555
H8 C12 1_555 1_555
C13 C8 1_555 1_555
C14 C13 1_555 1_555
C15 C14 1_555 1_555
H9 C15 1_555 1_555
C16 C15 1_555 1_555
C17 C16 1_555 1_555
H10 C17 1_555 1_555
C18 C17 1_555 1_555
H11 C18 1_555 1_555
C19 C7 1_555 1_555
C20 C7 1_555 1_555
H12 C20 1_555 1_555
H13 C20 1_555 1_555
H14 C20 1_555 1_555
F2 C37 1_555 1_555
N2 H15 1_555 1_555
C21 N2 1_555 1_555
C22 C21 1_555 1_555
H16 C22 1_555 1_555
C23 C22 1_555 1_555
H17 C23 1_555 1_555
C24 C23 1_555 1_555
H18 C24 1_555 1_555
C25 C24 1_555 1_555
C26 C21 1_555 1_555
C27 C26 1_555 1_555
C28 C27 1_555 1_555
C29 N2 1_555 1_555
C30 C29 1_555 1_555
H19 C30 1_555 1_555
C31 C30 1_555 1_555
H20 C31 1_555 1_555
C32 C31 1_555 1_555
H21 C32 1_555 1_555
C33 C28 1_555 1_555
H22 C33 1_555 1_555
C34 C27 1_555 1_555
C35 C25 1_555 1_555
C36 C35 1_555 1_555
H23 C36 1_555 1_555
C37 C36 1_555 1_555
C38 C37 1_555 1_555
H24 C38 1_555 1_555
C39 C34 1_555 1_555
H25 C39 1_555 1_555
C40 C27 1_555 1_555
H26 C40 1_555 1_555
H27 C40 1_555 1_555
H28 C40 1_555 1_555
C5 C6 1_555 1_555
C8 C9 1_555 1_555
C12 C13 1_555 1_555
C14 C19 1_555 1_555
C18 C19 1_555 1_555
C25 C26 1_555 1_555
C28 C29 1_555 1_555
C32 C33 1_555 1_555
C34 C35 1_555 1_555
C38 C39 1_555 1_555

#END
