
#######################################################################
#
#                 Cambridge Crystallographic Data Centre
#                                CCDC 
#
#######################################################################
#
# If this CIF has been generated from an entry in the Cambridge 
# Structural Database, then it will include bibliographic, chemical, 
# crystal, experimental, refinement or atomic coordinate data resulting 
# from the CCDC's data processing and validation procedures.
#
#######################################################################

data_INUHUV
_chemical_formula_moiety         'C27 H24 Cl1 N1 O5 S1'
_chemical_name_systematic        
8-Chloro-4-ethoxy-2-p-tosyl-3-phenyl-2,3,3a,9b-tetrahydro-1H-benzo[e]isoindole-6,9-dione
_symmetry_cell_setting           monoclinic
_symmetry_space_group_name_H-M   'P 21/c'
_symmetry_Int_Tables_number      14
_space_group_name_Hall           '-P 2ybc'
loop_
_symmetry_equiv_pos_site_id
_symmetry_equiv_pos_as_xyz
1 x,y,z
2 -x,1/2+y,1/2-z
3 -x,-y,-z
4 x,1/2-y,1/2+z
_cell_length_a                   16.495(3)
_cell_length_b                   10.5143(19)
_cell_length_c                   15.330(3)
_cell_angle_alpha                90
_cell_angle_beta                 93.735(2)
_cell_angle_gamma                90
_cell_volume                     2653.09
_exptl_crystal_colour            colorless
_exptl_crystal_description       platelet
_cell_formula_units_Z            4
loop_
_atom_site_label
_atom_site_type_symbol
_atom_site_fract_x
_atom_site_fract_y
_atom_site_fract_z
Cl1 Cl -0.08698(3) 0.29709(6) 0.25523(5)
S1 S 0.36739(3) 0.29659(5) 0.02244(3)
O1 O 0.33728(9) 0.16905(13) 0.01325(9)
O2 O 0.45225(8) 0.32056(14) 0.04279(9)
O3 O 0.27406(9) 0.69360(13) 0.03487(9)
O4 O -0.03298(9) 0.64315(15) 0.04141(10)
O5 O 0.08992(10) 0.28453(16) 0.25615(12)
N1 N 0.31890(10) 0.35949(16) 0.10144(10)
C1 C 0.27191(12) 0.34186(19) -0.12741(13)
H1 H 0.2383 0.2746 -0.1094
C2 C 0.25375(12) 0.4045(2) -0.20642(13)
H2 H 0.2072 0.3797 -0.2422
C3 C 0.30270(13) 0.5030(2) -0.23385(13)
C4 C 0.36967(13) 0.5397(2) -0.17984(14)
H3 H 0.4031 0.6074 -0.1975
C5 C 0.38854(12) 0.4791(2) -0.10056(13)
H4 H 0.4342 0.5057 -0.0641
C6 C 0.34023(12) 0.37953(19) -0.07514(12)
C7 C 0.34122(11) 0.48981(18) 0.13195(13)
H5 H 0.3658 0.5379 0.0839
C8 C 0.39907(11) 0.49019(19) 0.21307(12)
C9 C 0.40771(12) 0.3883(2) 0.27058(13)
H6 H 0.3785 0.3118 0.2583
C10 C 0.45863(12) 0.3975(2) 0.34572(13)
H7 H 0.4647 0.3270 0.3844
C11 C 0.50101(13) 0.5095(2) 0.36482(14)
H8 H 0.5351 0.5163 0.4170
C12 C 0.49330(13) 0.6111(2) 0.30744(14)
H9 H 0.5226 0.6875 0.3199
C13 C 0.44293(12) 0.6012(2) 0.23200(14)
H10 H 0.4382 0.6710 0.1926
C14 C 0.25753(12) 0.54913(19) 0.15046(13)
H11 H 0.2642 0.6050 0.2032
C15 C 0.21865(12) 0.62460(18) 0.07482(13)
C16 C 0.13779(12) 0.62562(19) 0.05714(13)
H12 H 0.1146 0.6775 0.0113
C17 C 0.08602(12) 0.54779(19) 0.10783(13)
C18 C 0.11583(12) 0.45701(19) 0.16374(13)
C19 C 0.20580(11) 0.43252(18) 0.17170(13)
H13 H 0.2221 0.4013 0.2319
C20 C 0.23090(12) 0.33435(19) 0.10367(14)
H14 H 0.2204 0.2463 0.1228
H15 H 0.2021 0.3492 0.0459
C21 C -0.00402(12) 0.56707(19) 0.09462(14)
C22 C -0.05705(13) 0.4873(2) 0.14606(14)
H16 H -0.1140 0.5016 0.1420
C23 C -0.02616(13) 0.3960(2) 0.19793(14)
C24 C 0.06333(13) 0.3718(2) 0.21036(14)
C25 C 0.24613(14) 0.7731(2) -0.03801(15)
H17 H 0.2038 0.8326 -0.0201
H18 H 0.2227 0.7201 -0.0867
C26 C 0.31844(15) 0.8458(2) -0.06626(16)
H19 H 0.3372 0.9050 -0.0199
H20 H 0.3030 0.8935 -0.1197
H21 H 0.3622 0.7861 -0.0776
C27 C 0.28527(14) 0.5644(2) -0.32210(14)
H22 H 0.3183 0.6414 -0.3260
H23 H 0.2276 0.5868 -0.3295
H24 H 0.2986 0.5047 -0.3682
loop_
_geom_bond_atom_site_label_1
_geom_bond_atom_site_label_2
_geom_bond_site_symmetry_1
_geom_bond_site_symmetry_2
Cl1 C23 1_555 1_555
S1 O1 1_555 1_555
O2 S1 1_555 1_555
O3 C15 1_555 1_555
O4 C21 1_555 1_555
O5 C24 1_555 1_555
N1 S1 1_555 1_555
C1 H1 1_555 1_555
C2 C1 1_555 1_555
H2 C2 1_555 1_555
C3 C2 1_555 1_555
C4 C3 1_555 1_555
H3 C4 1_555 1_555
C5 C4 1_555 1_555
H4 C5 1_555 1_555
C6 S1 1_555 1_555
C7 N1 1_555 1_555
H5 C7 1_555 1_555
C8 C7 1_555 1_555
C9 C8 1_555 1_555
H6 C9 1_555 1_555
C10 C9 1_555 1_555
H7 C10 1_555 1_555
C11 C10 1_555 1_555
H8 C11 1_555 1_555
C12 C11 1_555 1_555
H9 C12 1_555 1_555
C13 C8 1_555 1_555
H10 C13 1_555 1_555
C14 C7 1_555 1_555
H11 C14 1_555 1_555
C15 C14 1_555 1_555
C16 C15 1_555 1_555
H12 C16 1_555 1_555
C17 C16 1_555 1_555
C18 C17 1_555 1_555
C19 C14 1_555 1_555
H13 C19 1_555 1_555
C20 N1 1_555 1_555
H14 C20 1_555 1_555
H15 C20 1_555 1_555
C21 C17 1_555 1_555
C22 C21 1_555 1_555
H16 C22 1_555 1_555
C23 C22 1_555 1_555
C24 C18 1_555 1_555
C25 O3 1_555 1_555
H17 C25 1_555 1_555
H18 C25 1_555 1_555
C26 C25 1_555 1_555
H19 C26 1_555 1_555
H20 C26 1_555 1_555
H21 C26 1_555 1_555
C27 C3 1_555 1_555
H22 C27 1_555 1_555
H23 C27 1_555 1_555
H24 C27 1_555 1_555
C1 C6 1_555 1_555
C5 C6 1_555 1_555
C12 C13 1_555 1_555
C18 C19 1_555 1_555
C19 C20 1_555 1_555
C23 C24 1_555 1_555

#END
