
#######################################################################
#
#                 Cambridge Crystallographic Data Centre
#                                CCDC 
#
#######################################################################
#
# If this CIF has been generated from an entry in the Cambridge 
# Structural Database, then it will include bibliographic, chemical, 
# crystal, experimental, refinement or atomic coordinate data resulting 
# from the CCDC's data processing and validation procedures.
#
#######################################################################

data_INUJAC
_chemical_formula_moiety         'C30 H28 N4 O4,C2 H4 O2'
_chemical_name_systematic        
'8,16-Dioxa-3,5,11,13-tetra-aza-1,7,9,15(1,4)-tetrabenzenahexadecaphane-4,12-dione acetic acid clathrate'
_symmetry_cell_setting           monoclinic
_symmetry_space_group_name_H-M   'P 21/c'
_symmetry_Int_Tables_number      14
_space_group_name_Hall           '-P 2ybc'
loop_
_symmetry_equiv_pos_site_id
_symmetry_equiv_pos_as_xyz
1 x,y,z
2 x,1/2-y,1/2+z
3 -x,-y,-z
4 -x,1/2+y,1/2-z
_cell_length_a                   9.3219(4)
_cell_length_b                   21.8875(10)
_cell_length_c                   13.9573(7)
_cell_angle_alpha                90
_cell_angle_beta                 100.8530(10)
_cell_angle_gamma                90
_cell_volume                     2796.81
_exptl_crystal_colour            colorless
_exptl_crystal_description       needle
_cell_formula_units_Z            4
loop_
_atom_site_label
_atom_site_type_symbol
_atom_site_fract_x
_atom_site_fract_y
_atom_site_fract_z
C1 C 0.3630(4) 0.41121(16) 0.8160(2)
C2 C 0.4116(4) 0.35162(17) 0.8359(3)
H1 H 0.4394 0.3389 0.9019
C3 C 0.4204(4) 0.31082(16) 0.7629(3)
H2 H 0.4543 0.2704 0.7785
C4 C 0.3799(4) 0.32845(15) 0.6665(2)
C5 C 0.3291(4) 0.38687(15) 0.6442(2)
H3 H 0.2991 0.3991 0.5782
C6 C 0.3224(4) 0.42757(16) 0.7192(2)
H4 H 0.2888 0.4680 0.7035
C7 C 0.3423(4) 0.29933(15) 0.4988(3)
C8 C 0.2023(4) 0.28243(16) 0.4578(3)
H5 H 0.1419 0.2628 0.4961
C9 C 0.1503(4) 0.29416(16) 0.3610(3)
H6 H 0.0534 0.2823 0.3331
C10 C 0.2347(4) 0.32270(15) 0.3025(3)
C11 C 0.3752(4) 0.34024(16) 0.3458(3)
H7 H 0.4352 0.3607 0.3079
C12 C 0.4288(4) 0.32835(16) 0.4430(2)
H8 H 0.5255 0.3402 0.4715
C13 C 0.1463(4) 0.59009(16) 0.1756(2)
C14 C 0.0141(4) 0.61871(16) 0.1764(2)
H9 H -0.0648 0.6124 0.1234
C15 C -0.0058(4) 0.65605(16) 0.2521(3)
H10 H -0.0982 0.6744 0.2520
C16 C 0.1093(4) 0.66659(15) 0.3280(2)
C17 C 0.2438(4) 0.63964(15) 0.3287(2)
H11 H 0.3233 0.6472 0.3809
C18 C 0.2613(4) 0.60147(15) 0.2526(2)
H12 H 0.3534 0.5828 0.2531
C19 C 0.1471(4) 0.69663(15) 0.4960(2)
C20 C 0.1919(4) 0.74574(16) 0.5546(3)
H13 H 0.1898 0.7857 0.5277
C21 C 0.2403(4) 0.73671(16) 0.6534(3)
H14 H 0.2693 0.7710 0.6941
C22 C 0.2476(4) 0.67886(16) 0.6947(2)
C23 C 0.2035(4) 0.62981(16) 0.6332(2)
H15 H 0.2081 0.5896 0.6594
C24 C 0.1531(4) 0.63840(15) 0.5346(2)
H16 H 0.1227 0.6044 0.4934
O1 O 0.3969(3) 0.28534(10) 0.59668(18)
O2 O 0.0882(3) 0.70877(10) 0.39875(17)
C30 C 0.3578(4) 0.45491(18) 0.8990(3)
H27 H 0.3136 0.4332 0.9485
H28 H 0.4595 0.4651 0.9298
N3 N 0.2824(5) 0.5091(2) 0.8768(3)
H29 H 0.1877 0.5097 0.8759
C31 C 0.3492(7) 0.5619(3) 0.8561(12)
O6 O 0.4787(4) 0.56469(18) 0.8527(3)
N4 N 0.2584(5) 0.6115(2) 0.8416(3)
H30 H 0.1706 0.6077 0.8556
C32 C 0.2985(4) 0.67079(17) 0.8038(3)
H31 H 0.4061 0.6751 0.8193
H32 H 0.2562 0.7039 0.8380
C36 C 0.1787(4) 0.33227(18) 0.1946(3)
H39 H 0.2106 0.2975 0.1584
H40 H 0.0706 0.3321 0.1823
N7 N 0.2290(6) 0.3897(2) 0.1562(3)
H41 H 0.3167 0.3896 0.1414
C37 C 0.1508(8) 0.4432(3) 0.1413(9)
O8 O 0.0212(4) 0.44646(17) 0.1433(3)
N8 N 0.2305(5) 0.4918(2) 0.1179(3)
H42 H 0.3245 0.4871 0.1186
C38 C 0.1655(4) 0.54799(18) 0.0931(3)
H43 H 0.0680 0.5406 0.0525
H44 H 0.2245 0.5698 0.0518
C25 C 0.1417(7) 0.4809(2) 0.3887(4)
H17 H 0.0773 0.4930 0.4333
H18 H 0.1287 0.4373 0.3736
H19 H 0.1174 0.5047 0.3283
C26 C 0.2963(8) 0.49267(18) 0.4354(3)
O3 O 0.3948(4) 0.48232(13) 0.3805(2)
O4 O 0.3297(4) 0.50987(13) 0.5196(2)
H20 H 0.4148 0.5109 0.5570
C27? C 0.3578(4) 0.45491(18) 0.8990(3)
H21? H 0.2585 0.4541 0.9147
H22? H 0.4271 0.4408 0.9575
N1? N 0.3938(12) 0.5175(4) 0.8772(6)
H23? H 0.4874 0.5250 0.8807
C28? C 0.3019(14) 0.5669(7) 0.852(3)
O5? O 0.1714(7) 0.5643(4) 0.8440(5)
N2? N 0.3768(9) 0.6188(3) 0.8348(6)
H24? H 0.4728 0.6188 0.8436
C29? C 0.2985(4) 0.67079(17) 0.8038(3)
H25? H 0.3594 0.7065 0.8286
H26? H 0.2113 0.6716 0.8348
C33? C 0.1787(4) 0.33227(18) 0.1946(3)
H33? H 0.2620 0.3268 0.1607
H34? H 0.1077 0.2993 0.1717
N5? N 0.1140(10) 0.3863(3) 0.1652(6)
H35? H 0.0201 0.3913 0.1643
C34? C 0.1948(16) 0.4333(6) 0.137(2)
O7? O 0.3249(7) 0.4289(3) 0.1372(5)
N6? N 0.1157(12) 0.4863(4) 0.1146(6)
H36? H 0.0213 0.4829 0.1133
C35? C 0.1655(4) 0.54799(18) 0.0931(3)
H37? H 0.1075 0.5630 0.0308
H38? H 0.2696 0.5467 0.0870
loop_
_geom_bond_atom_site_label_1
_geom_bond_atom_site_label_2
_geom_bond_site_symmetry_1
_geom_bond_site_symmetry_2
C1 C2 1_555 1_555
C2 H1 1_555 1_555
C3 C2 1_555 1_555
H2 C3 1_555 1_555
C4 C3 1_555 1_555
C5 C4 1_555 1_555
H3 C5 1_555 1_555
C6 C1 1_555 1_555
H4 C6 1_555 1_555
C7 C8 1_555 1_555
C8 H5 1_555 1_555
C9 C8 1_555 1_555
H6 C9 1_555 1_555
C10 C9 1_555 1_555
C11 C10 1_555 1_555
H7 C11 1_555 1_555
C12 C7 1_555 1_555
H8 C12 1_555 1_555
C13 C14 1_555 1_555
C14 H9 1_555 1_555
C15 C14 1_555 1_555
H10 C15 1_555 1_555
C16 C15 1_555 1_555
C17 C16 1_555 1_555
H11 C17 1_555 1_555
C18 C13 1_555 1_555
H12 C18 1_555 1_555
C19 C20 1_555 1_555
C20 H13 1_555 1_555
C21 C20 1_555 1_555
H14 C21 1_555 1_555
C22 C21 1_555 1_555
C23 C22 1_555 1_555
H15 C23 1_555 1_555
C24 C19 1_555 1_555
H16 C24 1_555 1_555
C25 H17 1_555 1_555
H18 C25 1_555 1_555
H19 C25 1_555 1_555
C26 C25 1_555 1_555
O1 C4 1_555 1_555
O2 C16 1_555 1_555
O3 C26 1_555 1_555
O4 C26 1_555 1_555
H20 O4 1_555 1_555
C30 C1 1_555 1_555
H27 C30 1_555 1_555
H28 C30 1_555 1_555
N3 C30 1_555 1_555
H29 N3 1_555 1_555
C31 N3 1_555 1_555
O6 C31 1_555 1_555
N4 C31 1_555 1_555
H30 N4 1_555 1_555
C32 C22 1_555 1_555
H31 C32 1_555 1_555
H32 C32 1_555 1_555
C36 C10 1_555 1_555
H39 C36 1_555 1_555
H40 C36 1_555 1_555
N7 C36 1_555 1_555
H41 N7 1_555 1_555
C37 N7 1_555 1_555
O8 C37 1_555 1_555
N8 C37 1_555 1_555
H42 N8 1_555 1_555
C38 C13 1_555 1_555
H43 C38 1_555 1_555
H44 C38 1_555 1_555
C5 C6 1_555 1_555
C7 O1 1_555 1_555
C11 C12 1_555 1_555
C17 C18 1_555 1_555
C19 O2 1_555 1_555
C23 C24 1_555 1_555
N4 C32 1_555 1_555
N8 C38 1_555 1_555

#END
