
#######################################################################
#
#                 Cambridge Crystallographic Data Centre
#                                CCDC 
#
#######################################################################
#
# If this CIF has been generated from an entry in the Cambridge 
# Structural Database, then it will include bibliographic, chemical, 
# crystal, experimental, refinement or atomic coordinate data resulting 
# from the CCDC's data processing and validation procedures.
#
#######################################################################

data_INUKUY
_chemical_formula_moiety         'C34 H34 N2 O5 S2'
_chemical_name_systematic        
1,6-bis(p-Tosyl)-2,7-diphenyloctahydro-1,6-naphthyridin-4(1H)-one
_symmetry_cell_setting           orthorhombic
_symmetry_space_group_name_H-M   'P 21 21 21'
_symmetry_Int_Tables_number      19
_space_group_name_Hall           'P 2ac 2ab'
loop_
_symmetry_equiv_pos_site_id
_symmetry_equiv_pos_as_xyz
1 x,y,z
2 1/2-x,-y,1/2+z
3 -x,1/2+y,1/2-z
4 1/2+x,1/2-y,-z
_cell_length_a                   6.8896(17)
_cell_length_b                   14.746(4)
_cell_length_c                   30.691(8)
_cell_angle_alpha                90
_cell_angle_beta                 90
_cell_angle_gamma                90
_cell_volume                     3118.02
_exptl_crystal_colour            colorless
_exptl_crystal_description       platelet
_cell_formula_units_Z            4
loop_
_atom_site_label
_atom_site_type_symbol
_atom_site_fract_x
_atom_site_fract_y
_atom_site_fract_z
S1 S 1.00064(9) 0.89553(4) 0.774547(19)
S2 S 1.27276(8) 1.15260(4) 0.924392(19)
O1 O 0.9042(3) 0.97625(12) 0.76023(6)
O2 O 1.1958(3) 0.87747(14) 0.76096(6)
O3 O 0.6239(3) 0.94389(15) 0.92755(7)
O4 O 1.4040(3) 1.13434(12) 0.88935(6)
O5 O 1.3464(3) 1.17713(13) 0.96625(6)
N1 N 1.0042(3) 0.89669(14) 0.82718(6)
N2 N 1.1422(3) 1.06076(13) 0.93167(6)
C1 C 0.6680(4) 0.82219(18) 0.74208(9)
H1 H 0.6217 0.8814 0.7406
C2 C 0.5536(4) 0.7508(2) 0.72858(10)
H2 H 0.4307 0.7627 0.7175
C3 C 0.6164(4) 0.6624(2) 0.73109(9)
C4 C 0.8005(5) 0.64651(18) 0.74701(9)
H3 H 0.8457 0.5872 0.7488
C5 C 0.9195(4) 0.71687(18) 0.76034(9)
H4 H 1.0435 0.7049 0.7709
C6 C 0.8525(4) 0.80485(16) 0.75785(7)
C7 C 0.4889(6) 0.5848(2) 0.71633(12)
H5 H 0.5276 0.5658 0.6877
H6 H 0.3560 0.6043 0.7157
H7 H 0.5022 0.5349 0.7362
C8 C 1.1726(3) 0.86231(16) 0.85256(7)
H8 H 1.2905 0.8851 0.8384
C9 C 1.1877(4) 0.75979(17) 0.85402(8)
C10 C 1.3522(5) 0.7176(2) 0.83819(9)
H9 H 1.4545 0.7524 0.8277
C11 C 1.3665(7) 0.6243(2) 0.83779(12)
H10 H 1.4772 0.5969 0.8265
C12 C 1.2210(8) 0.5722(2) 0.85366(13)
H11 H 1.2314 0.5094 0.8532
C13 C 1.0588(7) 0.6124(2) 0.87039(14)
H12 H 0.9597 0.5770 0.8820
C14 C 1.0421(5) 0.7065(2) 0.87011(11)
H13 H 0.9302 0.7335 0.8810
C15 C 1.1621(3) 0.90581(15) 0.89807(7)
H14 H 1.0722 0.8722 0.9163
H15 H 1.2890 0.9042 0.9117
C16 C 0.8742(3) 1.00418(17) 0.88188(8)
H16 H 0.8454 1.0608 0.8665
C17 C 0.8305(3) 0.92457(17) 0.85107(8)
H17 H 0.7818 0.8737 0.8678
H18 H 0.7305 0.9424 0.8305
C18 C 1.0944(3) 1.00333(15) 0.89358(7)
H19 H 1.1635 1.0291 0.8686
C19 C 1.0142(4) 1.05653(17) 0.97043(7)
H20 H 1.0476 1.1081 0.9891
C20 C 0.8009(4) 1.06896(19) 0.95614(8)
H21 H 0.7160 1.0621 0.9811
H22 H 0.7828 1.1294 0.9444
C21 C 0.7501(3) 1.00024(18) 0.92240(8)
C22 C 1.0540(4) 0.96978(18) 0.99655(7)
C23 C 1.2438(4) 0.9406(2) 1.00190(8)
H23 H 1.3450 0.9739 0.9898
C24 C 1.2843(5) 0.8620(2) 1.02510(10)
H24 H 1.4121 0.8429 1.0283
C25 C 1.1365(7) 0.8125(3) 1.04325(12)
H25 H 1.1637 0.7592 1.0583
C26 C 0.9498(6) 0.8416(3) 1.03917(12)
H26 H 0.8497 0.8088 1.0520
C27 C 0.9079(5) 0.9198(2) 1.01601(10)
H27 H 0.7798 0.9389 1.0135
C28 C 1.1104(4) 1.23761(16) 0.90771(7)
C29 C 1.0622(5) 1.24633(19) 0.86392(8)
H28 H 1.1276 1.2127 0.8429
C30 C 0.9165(5) 1.3054(2) 0.85198(10)
H29 H 0.8823 1.3101 0.8228
C31 C 0.8200(5) 1.3577(2) 0.88251(11)
C32 C 0.8740(6) 1.3496(2) 0.92523(11)
H30 H 0.8111 1.3846 0.9461
C33 C 1.0189(5) 1.2911(2) 0.93820(9)
H31 H 1.0546 1.2877 0.9674
C34 C 0.6540(8) 1.4176(3) 0.86841(16)
H32 H 0.6260 1.4607 0.8910
H33 H 0.5413 1.3810 0.8631
H34 H 0.6891 1.4492 0.8422
loop_
_geom_bond_atom_site_label_1
_geom_bond_atom_site_label_2
_geom_bond_site_symmetry_1
_geom_bond_site_symmetry_2
S1 O1 1_555 1_555
S2 O4 1_555 1_555
O2 S1 1_555 1_555
O3 C21 1_555 1_555
O5 S2 1_555 1_555
N1 S1 1_555 1_555
N2 S2 1_555 1_555
C1 H1 1_555 1_555
C2 C1 1_555 1_555
H2 C2 1_555 1_555
C3 C2 1_555 1_555
C4 C3 1_555 1_555
H3 C4 1_555 1_555
C5 C4 1_555 1_555
H4 C5 1_555 1_555
C6 S1 1_555 1_555
C7 C3 1_555 1_555
H5 C7 1_555 1_555
H6 C7 1_555 1_555
H7 C7 1_555 1_555
C8 N1 1_555 1_555
H8 C8 1_555 1_555
C9 C8 1_555 1_555
C10 C9 1_555 1_555
H9 C10 1_555 1_555
C11 C10 1_555 1_555
H10 C11 1_555 1_555
C12 C11 1_555 1_555
H11 C12 1_555 1_555
C13 C12 1_555 1_555
H12 C13 1_555 1_555
C14 C9 1_555 1_555
H13 C14 1_555 1_555
C15 C8 1_555 1_555
H14 C15 1_555 1_555
H15 C15 1_555 1_555
C16 H16 1_555 1_555
C17 N1 1_555 1_555
H17 C17 1_555 1_555
H18 C17 1_555 1_555
C18 N2 1_555 1_555
H19 C18 1_555 1_555
C19 N2 1_555 1_555
H20 C19 1_555 1_555
C20 C19 1_555 1_555
H21 C20 1_555 1_555
H22 C20 1_555 1_555
C21 C16 1_555 1_555
C22 C19 1_555 1_555
C23 C22 1_555 1_555
H23 C23 1_555 1_555
C24 C23 1_555 1_555
H24 C24 1_555 1_555
C25 C24 1_555 1_555
H25 C25 1_555 1_555
C26 C25 1_555 1_555
H26 C26 1_555 1_555
C27 C22 1_555 1_555
H27 C27 1_555 1_555
C28 S2 1_555 1_555
C29 C28 1_555 1_555
H28 C29 1_555 1_555
C30 C29 1_555 1_555
H29 C30 1_555 1_555
C31 C30 1_555 1_555
C32 C31 1_555 1_555
H30 C32 1_555 1_555
C33 C28 1_555 1_555
H31 C33 1_555 1_555
C34 C31 1_555 1_555
H32 C34 1_555 1_555
H33 C34 1_555 1_555
H34 C34 1_555 1_555
C1 C6 1_555 1_555
C5 C6 1_555 1_555
C13 C14 1_555 1_555
C15 C18 1_555 1_555
C16 C17 1_555 1_555
C16 C18 1_555 1_555
C20 C21 1_555 1_555
C26 C27 1_555 1_555
C32 C33 1_555 1_555

#END
