
#######################################################################
#
#                 Cambridge Crystallographic Data Centre
#                                CCDC 
#
#######################################################################
#
# If this CIF has been generated from an entry in the Cambridge 
# Structural Database, then it will include bibliographic, chemical, 
# crystal, experimental, refinement or atomic coordinate data resulting 
# from the CCDC's data processing and validation procedures.
#
#######################################################################

data_INULUA
_chemical_formula_moiety         'C14 H9 Br1 I1 N1 O2'
_chemical_name_systematic        
1-(4-amino-3-iodophenyl)-2-(4-bromophenyl)ethane-1,2-dione
_symmetry_cell_setting           monoclinic
_symmetry_space_group_name_H-M   'P 21/n'
_symmetry_Int_Tables_number      14
_space_group_name_Hall           '-P 2yn'
loop_
_symmetry_equiv_pos_site_id
_symmetry_equiv_pos_as_xyz
1 x,y,z
2 1/2-x,1/2+y,1/2-z
3 -x,-y,-z
4 1/2+x,1/2-y,1/2+z
_cell_length_a                   8.4169(15)
_cell_length_b                   13.403(2)
_cell_length_c                   13.054(2)
_cell_angle_alpha                90
_cell_angle_beta                 107.974(2)
_cell_angle_gamma                90
_cell_volume                     1400.77
_exptl_crystal_colour            colorless
_exptl_crystal_description       block
_cell_formula_units_Z            4
loop_
_atom_site_label
_atom_site_type_symbol
_atom_site_fract_x
_atom_site_fract_y
_atom_site_fract_z
Br1 Br 1.40388(6) -0.07879(3) 0.09509(4)
C1 C 1.2639(4) 0.0348(3) 0.0571(3)
C2 C 1.1634(5) 0.0467(3) -0.0488(3)
H1 H 1.1654 0.0002 -0.1012
C3 C 1.0611(5) 0.1289(3) -0.0745(3)
H2 H 0.9934 0.1376 -0.1451
C4 C 1.0563(4) 0.1990(2) 0.0024(3)
C5 C 1.1591(5) 0.1852(3) 0.1081(3)
H3 H 1.1576 0.2318 0.1606
C6 C 1.2626(4) 0.1034(3) 0.1353(3)
H4 H 1.3310 0.0946 0.2058
C7 C 0.9435(4) 0.2850(3) -0.0284(3)
C8 C 0.9604(4) 0.3711(2) 0.0516(3)
C9 C 0.8176(4) 0.4054(2) 0.0814(2)
C10 C 0.6702(4) 0.3494(2) 0.0619(2)
H5 H 0.6610 0.2880 0.0273
C11 C 0.5397(4) 0.3848(2) 0.0936(2)
H6 H 0.4445 0.3457 0.0820
C12 C 0.5458(4) 0.4780(2) 0.1429(2)
C13 C 0.6941(4) 0.5341(2) 0.1606(2)
C14 C 0.8255(4) 0.4982(2) 0.1308(2)
H7 H 0.9219 0.5364 0.1438
I1 I 0.71335(4) 0.676478(19) 0.22881(2)
O1 O 0.8440(4) 0.2967(2) -0.1183(2)
O2 O 1.0980(3) 0.4110(2) 0.0813(3)
N1 N 0.4152(4) 0.5112(2) 0.1732(2)
H8 H 0.3273 0.4748 0.1622
H9 H 0.4201 0.5686 0.2035
loop_
_geom_bond_atom_site_label_1
_geom_bond_atom_site_label_2
_geom_bond_site_symmetry_1
_geom_bond_site_symmetry_2
Br1 C1 1_555 1_555
C1 C2 1_555 1_555
C2 H1 1_555 1_555
C3 C2 1_555 1_555
H2 C3 1_555 1_555
C4 C3 1_555 1_555
C5 C4 1_555 1_555
H3 C5 1_555 1_555
C6 C1 1_555 1_555
H4 C6 1_555 1_555
C7 C4 1_555 1_555
C8 C7 1_555 1_555
C9 C8 1_555 1_555
C10 C9 1_555 1_555
H5 C10 1_555 1_555
C11 C10 1_555 1_555
H6 C11 1_555 1_555
C12 C11 1_555 1_555
C13 C12 1_555 1_555
C14 C9 1_555 1_555
H7 C14 1_555 1_555
I1 C13 1_555 1_555
O1 C7 1_555 1_555
O2 C8 1_555 1_555
N1 C12 1_555 1_555
H8 N1 1_555 1_555
H9 N1 1_555 1_555
C5 C6 1_555 1_555
C13 C14 1_555 1_555

#END
