
#######################################################################
#
#                 Cambridge Crystallographic Data Centre
#                                CCDC 
#
#######################################################################
#
# If this CIF has been generated from an entry in the Cambridge 
# Structural Database, then it will include bibliographic, chemical, 
# crystal, experimental, refinement or atomic coordinate data resulting 
# from the CCDC's data processing and validation procedures.
#
#######################################################################

data_INUQEN
_chemical_formula_moiety         'C14 H22 N2 O7'
_chemical_name_systematic        
(+-)-2,6-[1',11'-(3',9'-diaza-4',8'-dioxo-6'-oxaundeca-1,11-diyl)]-cis-1,3,5,7-tetraoxadecalin
_symmetry_cell_setting           monoclinic
_symmetry_space_group_name_H-M   'P 21'
_symmetry_Int_Tables_number      4
_space_group_name_Hall           'P 2yb'
loop_
_symmetry_equiv_pos_site_id
_symmetry_equiv_pos_as_xyz
1 x,y,z
2 -x,1/2+y,-z
_cell_length_a                   9.1660(10)
_cell_length_b                   8.293(2)
_cell_length_c                   10.5860(10)
_cell_angle_alpha                90
_cell_angle_beta                 91.660(10)
_cell_angle_gamma                90
_cell_volume                     804.343
_exptl_crystal_colour            colorless
_exptl_crystal_description       prisms
_chemical_melting_point          208-209deg.C
_cell_formula_units_Z            2
loop_
_atom_site_label
_atom_site_type_symbol
_atom_site_fract_x
_atom_site_fract_y
_atom_site_fract_z
O1 O 0.8230(2) 0.3442(3) 0.44394(14)
C1 C 0.8870(3) 0.4890(4) 0.4031(2)
H1 H 0.8626 0.5767 0.4608
O2 O 0.8398(2) 0.5294(2) 0.27814(15)
C2 C 0.6851(3) 0.5476(4) 0.2669(2)
H2 H 0.6569 0.5667 0.1792
H3 H 0.6554 0.6403 0.3158
O3 O 0.6383(2) 0.2713(2) 0.22733(14)
C3 C 0.5720(3) 0.1256(4) 0.2644(2)
H4 H 0.4661 0.1404 0.2687
O4 O 0.6292(2) 0.0731(3) 0.3831(2)
C4 C 0.6074(3) 0.1893(4) 0.4789(2)
H5 H 0.6552 0.1531 0.5568
H6 H 0.5038 0.1987 0.4937
C5 C 0.6670(3) 0.3532(4) 0.4440(2)
H7 H 0.6367 0.4337 0.5057
C6 C 0.6095(3) 0.4000(3) 0.3132(2)
H8 H 0.5042 0.4196 0.3153
C7 C 1.0502(3) 0.4669(6) 0.4026(3)
H9 H 1.0933 0.5634 0.3676
H10 H 1.0861 0.4570 0.4893
C8 C 1.1020(3) 0.3243(6) 0.3297(3)
H11 H 1.2078 0.3208 0.3352
H12 H 1.0656 0.2267 0.3683
N1 N 1.0555(2) 0.3268(4) 0.1977(2)
H13 H 0.9600 0.3531 0.1766
C9 C 1.1300(3) 0.2604(4) 0.1059(3)
O5 O 1.2516(2) 0.1992(4) 0.1220(3)
C10 C 1.0601(3) 0.2564(4) -0.0230(3)
H14 H 1.1290 0.2960 -0.0836
H15 H 1.0367 0.1456 -0.0449
O6 O 0.9316(2) 0.3501(3) -0.0319(2)
C11 C 0.8449(3) 0.3174(4) -0.1421(2)
H16 H 0.9081 0.2801 -0.2079
H17 H 0.7999 0.4172 -0.1710
C12 C 0.7265(3) 0.1934(4) -0.1240(2)
O7 O 0.6603(3) 0.1386(4) -0.2152(2)
N2 N 0.7015(2) 0.1530(4) -0.0052(2)
H18 H 0.7400 0.2036 0.0676
C13 C 0.5836(3) 0.0478(4) 0.0331(2)
H19 H 0.5803 -0.0470 -0.0207
H20 H 0.4912 0.1039 0.0226
C14 C 0.6053(3) -0.0034(4) 0.1696(3)
H21 H 0.5434 -0.0959 0.1849
H22 H 0.7058 -0.0375 0.1831
loop_
_geom_bond_atom_site_label_1
_geom_bond_atom_site_label_2
_geom_bond_site_symmetry_1
_geom_bond_site_symmetry_2
O1 C1 1_555 1_555
C1 H1 1_555 1_555
O2 C1 1_555 1_555
C2 O2 1_555 1_555
H2 C2 1_555 1_555
H3 C2 1_555 1_555
O3 C3 1_555 1_555
C3 H4 1_555 1_555
O4 C3 1_555 1_555
C4 O4 1_555 1_555
H5 C4 1_555 1_555
H6 C4 1_555 1_555
C5 O1 1_555 1_555
H7 C5 1_555 1_555
C6 C2 1_555 1_555
H8 C6 1_555 1_555
C7 C1 1_555 1_555
H9 C7 1_555 1_555
H10 C7 1_555 1_555
C8 C7 1_555 1_555
H11 C8 1_555 1_555
H12 C8 1_555 1_555
N1 C8 1_555 1_555
H13 N1 1_555 1_555
C9 N1 1_555 1_555
O5 C9 1_555 1_555
C10 C9 1_555 1_555
H14 C10 1_555 1_555
H15 C10 1_555 1_555
O6 C10 1_555 1_555
C11 O6 1_555 1_555
H16 C11 1_555 1_555
H17 C11 1_555 1_555
C12 C11 1_555 1_555
O7 C12 1_555 1_555
N2 C12 1_555 1_555
H18 N2 1_555 1_555
C13 N2 1_555 1_555
H19 C13 1_555 1_555
H20 C13 1_555 1_555
C14 C3 1_555 1_555
H21 C14 1_555 1_555
H22 C14 1_555 1_555
O3 C6 1_555 1_555
C4 C5 1_555 1_555
C5 C6 1_555 1_555
C13 C14 1_555 1_555

#END
