
#######################################################################
#
#                 Cambridge Crystallographic Data Centre
#                                CCDC 
#
#######################################################################
#
# If this CIF has been generated from an entry in the Cambridge 
# Structural Database, then it will include bibliographic, chemical, 
# crystal, experimental, refinement or atomic coordinate data resulting 
# from the CCDC's data processing and validation procedures.
#
#######################################################################

data_INUTES
_chemical_formula_moiety         'C18 H14 I1 N3 S1'
_chemical_name_systematic        
1-benzyl-7-iodo-6-phenyl-1,4-dihydrothiopyrano[3,4-d][1,2,3]triazole
_symmetry_cell_setting           triclinic
_symmetry_space_group_name_H-M   'P -1'
_symmetry_Int_Tables_number      2
_space_group_name_Hall           '-P 1'
loop_
_symmetry_equiv_pos_site_id
_symmetry_equiv_pos_as_xyz
1 x,y,z
2 -x,-y,-z
_cell_length_a                   8.0454(5)
_cell_length_b                   9.1035(5)
_cell_length_c                   11.6624(8)
_cell_angle_alpha                91.647(2)
_cell_angle_beta                 96.901(2)
_cell_angle_gamma                93.582(2)
_cell_volume                     845.758
_exptl_crystal_colour            yellow
_exptl_crystal_description       needle
_cell_formula_units_Z            2
loop_
_atom_site_label
_atom_site_type_symbol
_atom_site_fract_x
_atom_site_fract_y
_atom_site_fract_z
I1 I 0.56822(2) 0.63491(2) 0.86295(2)
S1 S 0.11887(5) 0.94444(4) 0.83275(4)
N1 N 0.13733(15) 0.47487(13) 0.83078(11)
N2 N -0.02282(16) 0.43815(14) 0.84780(11)
N3 N -0.08629(16) 0.55816(14) 0.88514(11)
C1 C 0.32522(18) 0.71466(16) 0.84165(13)
C2 C 0.17733(18) 0.62050(16) 0.85649(13)
C3 C 0.03274(18) 0.67038(16) 0.89141(13)
C4 C 0.0155(2) 0.82565(16) 0.92931(15)
H1 H 0.0686 0.8439 1.0099
H2 H -0.1045 0.8456 0.9256
C5 C 0.31001(18) 0.85999(16) 0.82547(14)
C6 C 0.44356(19) 0.96505(16) 0.79276(14)
C7 C 0.5108(2) 0.94149(19) 0.68966(16)
H3 H 0.4722 0.8576 0.6412
C8 C 0.6341(3) 1.0401(2) 0.65750(18)
H4 H 0.6790 1.0241 0.5868
C9 C 0.6918(2) 1.16238(19) 0.72868(18)
H5 H 0.7766 1.2294 0.7068
C10 C 0.6260(2) 1.18645(18) 0.83088(16)
H6 H 0.6664 1.2696 0.8797
C11 C 0.5007(2) 1.08927(17) 0.86265(15)
H7 H 0.4538 1.1075 0.9322
C12 C 0.22992(19) 0.35897(16) 0.78144(14)
H8 H 0.1953 0.2630 0.8121
H9 H 0.3514 0.3792 0.8063
C13 C 0.2001(2) 0.34897(17) 0.65138(14)
C14 C 0.2697(3) 0.4545(2) 0.58503(18)
H10 H 0.3378 0.5354 0.6219
C15 C 0.2414(3) 0.4437(3) 0.46566(19)
H11 H 0.2894 0.5173 0.4212
C16 C 0.1440(3) 0.3268(2) 0.41131(18)
H12 H 0.1257 0.3189 0.3293
C17 C 0.0731(3) 0.2211(2) 0.47583(18)
H13 H 0.0046 0.1407 0.4384
C18 C 0.1017(2) 0.2320(2) 0.59544(16)
H14 H 0.0532 0.1584 0.6396
loop_
_geom_bond_atom_site_label_1
_geom_bond_atom_site_label_2
_geom_bond_site_symmetry_1
_geom_bond_site_symmetry_2
I1 C1 1_555 1_555
S1 C4 1_555 1_555
N1 N2 1_555 1_555
N2 N3 1_555 1_555
N3 C3 1_555 1_555
C1 C2 1_555 1_555
C2 N1 1_555 1_555
C3 C2 1_555 1_555
C4 C3 1_555 1_555
H1 C4 1_555 1_555
H2 C4 1_555 1_555
C5 S1 1_555 1_555
C6 C5 1_555 1_555
C7 C6 1_555 1_555
H3 C7 1_555 1_555
C8 C7 1_555 1_555
H4 C8 1_555 1_555
C9 C8 1_555 1_555
H5 C9 1_555 1_555
C10 C9 1_555 1_555
H6 C10 1_555 1_555
C11 C6 1_555 1_555
H7 C11 1_555 1_555
C12 N1 1_555 1_555
H8 C12 1_555 1_555
H9 C12 1_555 1_555
C13 C12 1_555 1_555
C14 C13 1_555 1_555
H10 C14 1_555 1_555
C15 C14 1_555 1_555
H11 C15 1_555 1_555
C16 C15 1_555 1_555
H12 C16 1_555 1_555
C17 C16 1_555 1_555
H13 C17 1_555 1_555
C18 C13 1_555 1_555
H14 C18 1_555 1_555
C1 C5 1_555 1_555
C10 C11 1_555 1_555
C17 C18 1_555 1_555

#END
