
#######################################################################
#
#                 Cambridge Crystallographic Data Centre
#                                CCDC 
#
#######################################################################
#
# If this CIF has been generated from an entry in the Cambridge 
# Structural Database, then it will include bibliographic, chemical, 
# crystal, experimental, refinement or atomic coordinate data resulting 
# from the CCDC's data processing and validation procedures.
#
#######################################################################

data_INUVOE
_chemical_formula_moiety         'C21 H22 Br1 N1 O3 S1'
_chemical_name_systematic        
4-bromo-1-((4-methylphenyl)sulfonyl)-3-phenyloctahydro-2H-indol-2-one
_symmetry_cell_setting           orthorhombic
_symmetry_space_group_name_H-M   'P n a 21'
_symmetry_Int_Tables_number      33
_space_group_name_Hall           'P 2c -2n'
loop_
_symmetry_equiv_pos_site_id
_symmetry_equiv_pos_as_xyz
1 x,y,z
2 -x,-y,1/2+z
3 1/2+x,1/2-y,z
4 1/2-x,1/2+y,1/2+z
_cell_length_a                   23.544(2)
_cell_length_b                   6.9600(5)
_cell_length_c                   24.234(2)
_cell_angle_alpha                90
_cell_angle_beta                 90
_cell_angle_gamma                90
_cell_volume                     3971.13
_exptl_crystal_colour            colorless
_exptl_crystal_description       prism
_cell_formula_units_Z            8
loop_
_atom_site_label
_atom_site_type_symbol
_atom_site_fract_x
_atom_site_fract_y
_atom_site_fract_z
C1 C 0.7636(3) 0.7720(10) 0.3549(3)
C2 C 0.7827(3) 0.6232(10) 0.3232(3)
H1 H 0.8190 0.6281 0.3062
C3 C 0.7474(3) 0.4639(10) 0.3163(3)
H2 H 0.7603 0.3574 0.2953
C4 C 0.6933(3) 0.4591(10) 0.3400(3)
C5 C 0.6562(3) 0.2845(11) 0.3322(4)
H3 H 0.6758 0.1914 0.3086
H4 H 0.6204 0.3228 0.3147
H5 H 0.6483 0.2260 0.3682
C6 C 0.6757(3) 0.6151(10) 0.3709(4)
H6 H 0.6386 0.6142 0.3863
C7 C 0.7099(3) 0.7710(9) 0.3800(4)
H7 H 0.6978 0.8749 0.4025
C8 C 0.9194(2) 0.8541(9) 0.3977(3)
H8 H 0.9248 0.8255 0.3576
C9 C 0.9504(3) 1.0372(10) 0.4129(3)
H9 H 0.9359 1.0849 0.4487
H10 H 0.9425 1.1363 0.3846
C10 C 1.0148(3) 1.0068(10) 0.4171(3)
H11 H 1.0304 0.9730 0.3804
H12 H 1.0333 1.1267 0.4297
C11 C 1.0266(3) 0.8456(11) 0.4579(3)
H13 H 1.0681 0.8245 0.4598
H14 H 1.0137 0.8866 0.4949
C12 C 0.9983(3) 0.6594(10) 0.4437(3)
H15 H 1.0037 0.5677 0.4750
C13 C 0.9352(2) 0.6787(10) 0.4322(3)
H16 H 0.9224 0.5612 0.4119
C14 C 0.8979(2) 0.7012(9) 0.4847(3)
H17 H 0.9158 0.7992 0.5093
C15 C 0.8902(3) 0.5173(10) 0.5170(3)
C16 C 0.9290(3) 0.4742(10) 0.5595(3)
H18 H 0.9572 0.5650 0.5698
C17 C 0.9258(3) 0.2956(11) 0.5866(3)
H19 H 0.9529 0.2630 0.6141
C18 C 0.8835(3) 0.1689(11) 0.5733(3)
H20 H 0.8809 0.0496 0.5921
C19 C 0.8441(3) 0.2140(10) 0.5322(3)
H21 H 0.8145 0.1263 0.5234
C20 C 0.8484(3) 0.3856(9) 0.5045(3)
H22 H 0.8219 0.4142 0.4761
C21 C 0.8438(3) 0.7865(9) 0.4604(3)
N1 N 0.8575(2) 0.8691(8) 0.4108(2)
O1 O 0.77989(18) 1.1131(7) 0.39789(19)
O2 O 0.84090(19) 1.0148(7) 0.3199(2)
O3 O 0.79679(19) 0.7836(7) 0.4808(2)
S1 S 0.80953(6) 0.9680(2) 0.36842(7)
Br1 Br 1.03412(3) 0.55006(11) 0.37687(3)
C22 C 0.4844(3) 0.2375(9) 0.2193(3)
C23 C 0.4660(3) 0.3942(10) 0.2498(3)
H23 H 0.4291 0.3942 0.2656
C24 C 0.5009(3) 0.5477(10) 0.2570(3)
H24 H 0.4875 0.6551 0.2774
C25 C 0.5553(3) 0.5522(10) 0.2356(3)
C26 C 0.5940(3) 0.7225(11) 0.2428(3)
H25 H 0.6303 0.6972 0.2244
H26 H 0.6006 0.7445 0.2823
H27 H 0.5763 0.8367 0.2266
C27 C 0.5738(3) 0.3906(10) 0.2062(3)
H28 H 0.6116 0.3877 0.1922
C28 C 0.5386(3) 0.2360(10) 0.1970(3)
H29 H 0.5512 0.1297 0.1758
C29 C 0.3294(2) 0.1767(9) 0.1789(3)
H30 H 0.3251 0.2044 0.2192
C30 C 0.2954(3) -0.0016(9) 0.1629(3)
H31 H 0.3031 -0.1054 0.1898
H32 H 0.3080 -0.0467 0.1261
C31 C 0.2315(3) 0.0396(10) 0.1614(3)
H33 H 0.2183 0.0765 0.1987
H34 H 0.2108 -0.0777 0.1501
C32 C 0.2191(3) 0.2028(10) 0.1205(3)
H35 H 0.2300 0.1617 0.0828
H36 H 0.1778 0.2300 0.1204
C33 C 0.2510(3) 0.3836(10) 0.1353(3)
H37 H 0.2456 0.4789 0.1048
C34 C 0.3146(2) 0.3561(9) 0.1443(3)
H38 H 0.3295 0.4716 0.1641
C35 C 0.3496(2) 0.3295(9) 0.0912(3)
H39 H 0.3298 0.2332 0.0673
C36 C 0.3574(3) 0.5122(9) 0.0583(3)
C37 C 0.3208(3) 0.5570(10) 0.0160(3)
H40 H 0.2923 0.4669 0.0059
C38 C 0.3242(4) 0.7289(12) -0.0119(4)
H41 H 0.2970 0.7599 -0.0395
C39 C 0.3669(3) 0.8543(11) 0.0005(3)
H42 H 0.3708 0.9697 -0.0201
C40 C 0.4048(3) 0.8142(10) 0.0431(4)
H43 H 0.4336 0.9037 0.0526
C41 C 0.3999(3) 0.6433(9) 0.0714(3)
H44 H 0.4259 0.6146 0.1002
C42 C 0.4039(3) 0.2390(8) 0.1132(3)
N2 N 0.39026(19) 0.1535(8) 0.1643(2)
O4 O 0.40663(19) -0.0033(7) 0.2536(2)
O5 O 0.46685(19) -0.0966(7) 0.1746(2)
O6 O 0.45057(19) 0.2382(6) 0.0930(2)
S2 S 0.43770(6) 0.0488(2) 0.20495(7)
Br2 Br 0.21892(3) 0.49484(11) 0.20446(4)
loop_
_geom_bond_atom_site_label_1
_geom_bond_atom_site_label_2
_geom_bond_site_symmetry_1
_geom_bond_site_symmetry_2
C1 C2 1_555 1_555
C2 H1 1_555 1_555
C3 C2 1_555 1_555
H2 C3 1_555 1_555
C4 C3 1_555 1_555
C5 C4 1_555 1_555
H3 C5 1_555 1_555
H4 C5 1_555 1_555
H5 C5 1_555 1_555
C6 C4 1_555 1_555
H6 C6 1_555 1_555
C7 C1 1_555 1_555
H7 C7 1_555 1_555
C8 H8 1_555 1_555
C9 C8 1_555 1_555
H9 C9 1_555 1_555
H10 C9 1_555 1_555
C10 C9 1_555 1_555
H11 C10 1_555 1_555
H12 C10 1_555 1_555
C11 C10 1_555 1_555
H13 C11 1_555 1_555
H14 C11 1_555 1_555
C12 C11 1_555 1_555
H15 C12 1_555 1_555
C13 C8 1_555 1_555
H16 C13 1_555 1_555
C14 C13 1_555 1_555
H17 C14 1_555 1_555
C15 C14 1_555 1_555
C16 C15 1_555 1_555
H18 C16 1_555 1_555
C17 C16 1_555 1_555
H19 C17 1_555 1_555
C18 C17 1_555 1_555
H20 C18 1_555 1_555
C19 C18 1_555 1_555
H21 C19 1_555 1_555
C20 C15 1_555 1_555
H22 C20 1_555 1_555
C21 C14 1_555 1_555
N1 C8 1_555 1_555
O1 S1 1_555 1_555
O2 S1 1_555 1_555
O3 C21 1_555 1_555
S1 C1 1_555 1_555
Br1 C12 1_555 1_555
C22 C23 1_555 1_555
C23 H23 1_555 1_555
C24 C23 1_555 1_555
H24 C24 1_555 1_555
C25 C24 1_555 1_555
C26 C25 1_555 1_555
H25 C26 1_555 1_555
H26 C26 1_555 1_555
H27 C26 1_555 1_555
C27 C25 1_555 1_555
H28 C27 1_555 1_555
C28 C22 1_555 1_555
H29 C28 1_555 1_555
C29 H30 1_555 1_555
C30 C29 1_555 1_555
H31 C30 1_555 1_555
H32 C30 1_555 1_555
C31 C30 1_555 1_555
H33 C31 1_555 1_555
H34 C31 1_555 1_555
C32 C31 1_555 1_555
H35 C32 1_555 1_555
H36 C32 1_555 1_555
C33 C32 1_555 1_555
H37 C33 1_555 1_555
C34 C29 1_555 1_555
H38 C34 1_555 1_555
C35 C34 1_555 1_555
H39 C35 1_555 1_555
C36 C35 1_555 1_555
C37 C36 1_555 1_555
H40 C37 1_555 1_555
C38 C37 1_555 1_555
H41 C38 1_555 1_555
C39 C38 1_555 1_555
H42 C39 1_555 1_555
C40 C39 1_555 1_555
H43 C40 1_555 1_555
C41 C36 1_555 1_555
H44 C41 1_555 1_555
C42 C35 1_555 1_555
N2 C29 1_555 1_555
O4 S2 1_555 1_555
O5 S2 1_555 1_555
O6 C42 1_555 1_555
S2 C22 1_555 1_555
Br2 C33 1_555 1_555
C6 C7 1_555 1_555
C12 C13 1_555 1_555
C19 C20 1_555 1_555
C21 N1 1_555 1_555
N1 S1 1_555 1_555
C27 C28 1_555 1_555
C33 C34 1_555 1_555
C40 C41 1_555 1_555
C42 N2 1_555 1_555
N2 S2 1_555 1_555

#END
