
#######################################################################
#
#                 Cambridge Crystallographic Data Centre
#                                CCDC 
#
#######################################################################
#
# If this CIF has been generated from an entry in the Cambridge 
# Structural Database, then it will include bibliographic, chemical, 
# crystal, experimental, refinement or atomic coordinate data resulting 
# from the CCDC's data processing and validation procedures.
#
#######################################################################

data_INUYIZ
_chemical_formula_moiety         'C19 H21 N9 O2 S2,H2 O1'
_chemical_name_systematic        
'2,6-bis(6-Amino-2-(ethylthio)pyrimidin-4-ylaminocarbonyl)pyridine monohydrate'
_symmetry_cell_setting           monoclinic
_symmetry_space_group_name_H-M   'C 2/c'
_symmetry_Int_Tables_number      15
_space_group_name_Hall           '-C 2yn'
loop_
_symmetry_equiv_pos_site_id
_symmetry_equiv_pos_as_xyz
1 x,y,z
2 x,-y,1/2+z
3 1/2+x,1/2+y,z
4 1/2+x,1/2-y,1/2+z
5 -x,-y,-z
6 -x,y,1/2-z
7 1/2-x,1/2-y,-z
8 1/2-x,1/2+y,1/2-z
_cell_length_a                   11.4672(3)
_cell_length_b                   29.3393(8)
_cell_length_c                   7.8434(3)
_cell_angle_alpha                90
_cell_angle_beta                 120.210(5)
_cell_angle_gamma                90
_cell_volume                     2280.44
_exptl_crystal_colour            colorless
_exptl_crystal_description       prism
_cell_formula_units_Z            4
loop_
_atom_site_label
_atom_site_type_symbol
_atom_site_fract_x
_atom_site_fract_y
_atom_site_fract_z
C1 C 0.8024(4) 0.2969(1) 0.8258(5)
C2 C 0.8556(4) 0.24867(9) 0.8563(5)
S1 S 0.72296(9) 0.21112(2) 0.6875(1)
C3 C 0.7990(3) 0.15704(8) 0.7553(4)
N1 N 0.9160(2) 0.15300(7) 0.9213(3)
C4 C 0.9663(3) 0.11034(8) 0.9660(4)
C5 C 0.8976(3) 0.07298(8) 0.8502(4)
C6 C 0.7765(3) 0.08189(8) 0.6821(4)
N2 N 0.7253(2) 0.12443(7) 0.6292(3)
N3 N 1.0880(3) 0.10549(7) 1.1282(4)
N4 N 0.6943(2) 0.04840(7) 0.5466(3)
C7 C 0.7075(3) 0.00268(8) 0.5667(4)
O1 O 0.7984(2) -0.01647(6) 0.7101(3)
C8 C 0.5970(3) -0.02424(8) 0.3997(4)
C9 C 0.6005(3) -0.07110(8) 0.4062(4)
C10 C 0.5000 -0.0951(1) 0.2500
N5 N 0.5000 -0.00055(9) 0.2500
H1 H 1.1165 0.1298 1.2081
H2 H 1.1160 0.0775 1.1662
H3 H 0.6297 0.0585 0.4439
H4 H 0.8722 0.3167 0.9146
H5 H 0.7726 0.3061 0.6940
H6 H 0.7291 0.2982 0.8497
H7 H 0.8854 0.2395 0.9881
H8 H 0.9290 0.2473 0.8324
H9 H 0.9323 0.0429 0.8852
H10 H 0.6709 -0.0867 0.5161
H11 H 0.5000 -0.1274 0.2500
C9E C 0.3995(3) -0.07110(8) 0.0938(4)
C8E C 0.4030(3) -0.02424(8) 0.1003(4)
C7E C 0.2925(3) 0.00268(8) -0.0667(4)
N4E N 0.3057(2) 0.04840(7) -0.0466(3)
C6E C 0.2235(3) 0.08189(8) -0.1821(4)
C5E C 0.1024(3) 0.07298(8) -0.3502(4)
C4E C 0.0337(3) 0.11034(8) -0.4660(4)
N1E N 0.0840(2) 0.15300(7) -0.4213(3)
C3E C 0.2010(3) 0.15704(8) -0.2553(4)
S1E S 0.27704(9) 0.21112(2) -0.1875(1)
C2E C 0.1444(4) 0.24867(9) -0.3563(5)
C1E C 0.1976(4) 0.2969(1) -0.3258(5)
H4E H 0.1278 0.3167 -0.4146
H5E H 0.2274 0.3061 -0.1940
H6E H 0.2709 0.2982 -0.3497
H7E H 0.1146 0.2395 -0.4881
H8E H 0.0710 0.2473 -0.3324
N2E N 0.2747(2) 0.12443(7) -0.1292(3)
N3E N -0.0880(3) 0.10549(7) -0.6282(4)
H1E H -0.1165 0.1298 -0.7081
H2E H -0.1160 0.0775 -0.6662
H9E H 0.0677 0.0429 -0.3852
H3E H 0.3703 0.0585 0.0561
O1E O 0.2016(2) -0.01647(6) -0.2101(3)
H10E H 0.3291 -0.0867 -0.0161
O2 O 0.5000 0.1128(1) 0.2500
loop_
_geom_bond_atom_site_label_1
_geom_bond_atom_site_label_2
_geom_bond_site_symmetry_1
_geom_bond_site_symmetry_2
C1 C2 1_555 1_555
C2 S1 1_555 1_555
S1 C3 1_555 1_555
C3 N1 1_555 1_555
N1 C4 1_555 1_555
C4 C5 1_555 1_555
C5 C6 1_555 1_555
C6 N2 1_555 1_555
N2 C3 1_555 1_555
N3 C4 1_555 1_555
N4 C6 1_555 1_555
C7 N4 1_555 1_555
O1 C7 1_555 1_555
C8 C7 1_555 1_555
C9 C8 1_555 1_555
C10 C9 1_555 1_555
N5 C8 1_555 1_555
H1 N3 1_555 1_555
H2 N3 1_555 1_555
H3 N4 1_555 1_555
H4 C1 1_555 1_555
H5 C1 1_555 1_555
H6 C1 1_555 1_555
H7 C2 1_555 1_555
H8 C2 1_555 1_555
H9 C5 1_555 1_555
H10 C9 1_555 1_555
H11 C10 1_555 1_555
C9E C10 1_555 1_555
C8E N5 1_555 1_555
C7E C8E 1_555 1_555
N4E C7E 1_555 1_555
C6E N4E 1_555 1_555
C5E C6E 1_555 1_555
C4E C5E 1_555 1_555
N1E C4E 1_555 1_555
C3E N1E 1_555 1_555
S1E C3E 1_555 1_555
C2E S1E 1_555 1_555
C1E C2E 1_555 1_555
H4E C1E 1_555 1_555
H5E C1E 1_555 1_555
H6E C1E 1_555 1_555
H7E C2E 1_555 1_555
H8E C2E 1_555 1_555
N2E C6E 1_555 1_555
N3E C4E 1_555 1_555
H1E N3E 1_555 1_555
H2E N3E 1_555 1_555
H9E C5E 1_555 1_555
H3E N4E 1_555 1_555
O1E C7E 1_555 1_555
H10E C9E 1_555 1_555
C9E C8E 1_555 1_555
C3E N2E 1_555 1_555

#END
