
#######################################################################
#
#                 Cambridge Crystallographic Data Centre
#                                CCDC 
#
#######################################################################
#
# If this CIF has been generated from an entry in the Cambridge 
# Structural Database, then it will include bibliographic, chemical, 
# crystal, experimental, refinement or atomic coordinate data resulting 
# from the CCDC's data processing and validation procedures.
#
#######################################################################

data_IPAQIB
_chemical_formula_moiety         'C12 H15 F3 N2 O1'
_chemical_name_systematic        N'-(1,1,1-trifluoropentan-2-yl)benzohydrazide
_symmetry_cell_setting           triclinic
_symmetry_space_group_name_H-M   'P 1'
_symmetry_Int_Tables_number      1
_space_group_name_Hall           'P 1'
loop_
_symmetry_equiv_pos_site_id
_symmetry_equiv_pos_as_xyz
1 x,y,z
_cell_length_a                   9.1932(8)
_cell_length_b                   10.1850(9)
_cell_length_c                   11.2426(9)
_cell_angle_alpha                99.374(7)
_cell_angle_beta                 99.826(7)
_cell_angle_gamma                107.479(6)
_cell_volume                     963.319
_exptl_crystal_colour            colorless
_exptl_crystal_description       prism
_cell_formula_units_Z            3
loop_
_atom_site_label
_atom_site_type_symbol
_atom_site_fract_x
_atom_site_fract_y
_atom_site_fract_z
F1 F -0.4515(5) -0.5012(4) -0.9090(4)
F2 F -0.6397(4) -0.4771(4) -0.8284(4)
F3 F -0.5944(6) -0.3870(5) -0.9826(4)
O1 O -0.3647(4) -0.0713(4) -0.5187(3)
N1 N -0.5779(5) -0.2031(5) -0.6696(4)
H1 H -0.6768 -0.2581 -0.6902
N2 N -0.4943(5) -0.1753(5) -0.7621(4)
H2 H -0.4347 -0.0885 -0.7474
C1 C -0.5332(7) -0.1064(6) -0.3332(5)
H3 H -0.4331 -0.0347 -0.3120
C2 C -0.6131(8) -0.1394(7) -0.2417(6)
H4 H -0.5671 -0.0905 -0.1577
C3 C -0.7597(8) -0.2435(7) -0.2725(6)
H5 H -0.8141 -0.2659 -0.2099
C4 C -0.8262(8) -0.3143(7) -0.3947(7)
H6 H -0.9267 -0.3856 -0.4158
C5 C -0.7483(7) -0.2826(7) -0.4862(6)
H7 H -0.7955 -0.3315 -0.5701
C6 C -0.6008(6) -0.1794(6) -0.4564(5)
C7 C -0.5052(6) -0.1450(5) -0.5499(5)
C8 C -0.5230(8) -0.4075(7) -0.8780(6)
C9 C -0.4121(7) -0.2742(6) -0.7902(5)
H8 H -0.3680 -0.2972 -0.7117
C10 C -0.2771(7) -0.2058(7) -0.8491(5)
H9 H -0.2371 -0.2796 -0.8847
H10 H -0.3189 -0.1680 -0.9180
C11 C -0.1405(8) -0.0862(7) -0.7583(7)
H11 H -0.0673 -0.0388 -0.8057
H12 H -0.1819 -0.0156 -0.7185
C12 C -0.0502(8) -0.1329(9) -0.6585(7)
H13 H -0.0325 -0.2193 -0.6949
H14 H -0.1103 -0.1515 -0.5953
H15 H 0.0510 -0.0583 -0.6202
F4 F -0.6243(5) -0.8496(5) -0.6415(4)
F5 F -0.3949(5) -0.8465(4) -0.6616(3)
F6 F -0.4881(7) -0.6935(5) -0.7238(4)
O2 O -0.1033(5) -0.5622(4) -0.2846(3)
N3 N -0.2516(5) -0.7792(5) -0.3990(4)
H16 H -0.2545 -0.8631 -0.4366
N4 N -0.3907(5) -0.7452(5) -0.4133(4)
H17 H -0.4048 -0.7075 -0.3440
C13 C 0.1637(6) -0.6414(6) -0.2373(5)
H18 H 0.1708 -0.5475 -0.2024
C14 C 0.2949(7) -0.6814(6) -0.2154(6)
H19 H 0.3913 -0.6150 -0.1657
C15 C 0.2865(7) -0.8190(6) -0.2659(5)
H20 H 0.3766 -0.8468 -0.2505
C16 C 0.1459(7) -0.9139(6) -0.3383(5)
H21 H 0.1394 -1.0073 -0.3740
C17 C 0.0144(6) -0.8738(6) -0.3592(5)
H22 H -0.0824 -0.9404 -0.4081
C18 C 0.0231(6) -0.7354(5) -0.3088(4)
C19 C -0.1156(6) -0.6860(5) -0.3291(4)
C20 C -0.4800(9) -0.7649(8) -0.6335(6)
C21 C -0.4068(7) -0.6636(6) -0.5087(5)
H23 H -0.3008 -0.5993 -0.5096
C22 C -0.5088(8) -0.5760(7) -0.4770(6)
H24 H -0.5486 -0.5466 -0.5521
H25 H -0.6005 -0.6362 -0.4530
C23 C -0.4248(10) -0.4459(7) -0.3735(6)
H26 H -0.3849 -0.4752 -0.2984
H27 H -0.5009 -0.3992 -0.3543
C24 C -0.2878(11) -0.3390(8) -0.4044(7)
H28 H -0.3187 -0.3297 -0.4897
H29 H -0.1975 -0.3718 -0.3963
H30 H -0.2596 -0.2470 -0.3471
F7 F -0.4159(4) -0.7921(4) -0.9876(3)
F8 F -0.2618(4) -0.8544(4) -1.0911(3)
F9 F -0.3285(4) -0.6740(4) -1.1173(3)
O3 O 0.1178(4) -0.3354(4) -0.8292(3)
N5 N -0.0120(5) -0.4634(5) -1.0206(4)
H31 H -0.0557 -0.4648 -1.0970
N6 N -0.0173(5) -0.5910(5) -0.9854(4)
H32 H 0.0708 -0.5870 -0.9413
C25 C 0.1910(7) -0.0849(7) -0.9285(5)
H33 H 0.2749 -0.0861 -0.8667
C26 C 0.1946(8) 0.0399(7) -0.9639(6)
H34 H 0.2829 0.1231 -0.9283
C27 C 0.0722(8) 0.0445(7) -1.0496(5)
H35 H 0.0740 0.1311 -1.0714
C28 C -0.0543(8) -0.0779(7) -1.1044(5)
H36 H -0.1390 -0.0753 -1.1645
C29 C -0.0575(7) -0.2055(6) -1.0717(5)
H37 H -0.1436 -0.2895 -1.1104
C30 C 0.0640(6) -0.2092(6) -0.9834(5)
C31 C 0.0594(6) -0.3402(6) -0.9379(5)
C32 C -0.2873(7) -0.7417(6) -1.0306(5)
C33 C -0.1501(6) -0.6467(6) -0.9293(5)
H38 H -0.1779 -0.5661 -0.8879
C34 C -0.1037(7) -0.7251(6) -0.8331(5)
H39 H -0.0473 -0.7857 -0.8672
H40 H -0.1997 -0.7873 -0.8159
C35 C 0.0006(8) -0.6245(7) -0.7120(6)
H41 H 0.0974 -0.5635 -0.7291
H42 H -0.0550 -0.5627 -0.6788
C36 C 0.0447(9) -0.7019(8) -0.6152(6)
H43 H 0.1045 -0.7597 -0.6459
H44 H -0.0507 -0.7630 -0.5983
H45 H 0.1089 -0.6332 -0.5387
loop_
_geom_bond_atom_site_label_1
_geom_bond_atom_site_label_2
_geom_bond_site_symmetry_1
_geom_bond_site_symmetry_2
F1 C8 1_555 1_555
F2 C8 1_555 1_555
F3 C8 1_555 1_555
O1 C7 1_555 1_555
N1 H1 1_555 1_555
N2 N1 1_555 1_555
H2 N2 1_555 1_555
C1 H3 1_555 1_555
C2 C1 1_555 1_555
H4 C2 1_555 1_555
C3 C2 1_555 1_555
H5 C3 1_555 1_555
C4 C3 1_555 1_555
H6 C4 1_555 1_555
C5 C4 1_555 1_555
H7 C5 1_555 1_555
C6 C1 1_555 1_555
C7 N1 1_555 1_555
C8 C9 1_555 1_555
C9 N2 1_555 1_555
H8 C9 1_555 1_555
C10 C9 1_555 1_555
H9 C10 1_555 1_555
H10 C10 1_555 1_555
C11 C10 1_555 1_555
H11 C11 1_555 1_555
H12 C11 1_555 1_555
C12 C11 1_555 1_555
H13 C12 1_555 1_555
H14 C12 1_555 1_555
H15 C12 1_555 1_555
F4 C20 1_555 1_555
F5 C20 1_555 1_555
F6 C20 1_555 1_555
O2 C19 1_555 1_555
N3 H16 1_555 1_555
N4 N3 1_555 1_555
H17 N4 1_555 1_555
C13 H18 1_555 1_555
C14 C13 1_555 1_555
H19 C14 1_555 1_555
C15 C14 1_555 1_555
H20 C15 1_555 1_555
C16 C15 1_555 1_555
H21 C16 1_555 1_555
C17 C16 1_555 1_555
H22 C17 1_555 1_555
C18 C13 1_555 1_555
C19 N3 1_555 1_555
C20 C21 1_555 1_555
C21 N4 1_555 1_555
H23 C21 1_555 1_555
C22 C21 1_555 1_555
H24 C22 1_555 1_555
H25 C22 1_555 1_555
C23 C22 1_555 1_555
H26 C23 1_555 1_555
H27 C23 1_555 1_555
C24 C23 1_555 1_555
H28 C24 1_555 1_555
H29 C24 1_555 1_555
H30 C24 1_555 1_555
F7 C32 1_555 1_555
F8 C32 1_555 1_555
F9 C32 1_555 1_555
O3 C31 1_555 1_555
N5 H31 1_555 1_555
N6 N5 1_555 1_555
H32 N6 1_555 1_555
C25 H33 1_555 1_555
C26 C25 1_555 1_555
H34 C26 1_555 1_555
C27 C26 1_555 1_555
H35 C27 1_555 1_555
C28 C27 1_555 1_555
H36 C28 1_555 1_555
C29 C28 1_555 1_555
H37 C29 1_555 1_555
C30 C25 1_555 1_555
C31 N5 1_555 1_555
C32 C33 1_555 1_555
C33 N6 1_555 1_555
H38 C33 1_555 1_555
C34 C33 1_555 1_555
H39 C34 1_555 1_555
H40 C34 1_555 1_555
C35 C34 1_555 1_555
H41 C35 1_555 1_555
H42 C35 1_555 1_555
C36 C35 1_555 1_555
H43 C36 1_555 1_555
H44 C36 1_555 1_555
H45 C36 1_555 1_555
C5 C6 1_555 1_555
C6 C7 1_555 1_555
C17 C18 1_555 1_555
C18 C19 1_555 1_555
C29 C30 1_555 1_555
C30 C31 1_555 1_555

#END
