
#######################################################################
#
#                 Cambridge Crystallographic Data Centre
#                                CCDC 
#
#######################################################################
#
# If this CIF has been generated from an entry in the Cambridge 
# Structural Database, then it will include bibliographic, chemical, 
# crystal, experimental, refinement or atomic coordinate data resulting 
# from the CCDC's data processing and validation procedures.
#
#######################################################################

data_IPOGOL
_chemical_formula_moiety         'C19 H19 N1 O5'
_chemical_name_systematic        
'2-((4-acetylphenyl)amino)-2-oxoethyl 3-(4-hydroxyphenyl)propanoate'
_symmetry_cell_setting           monoclinic
_symmetry_space_group_name_H-M   'P 21'
_symmetry_Int_Tables_number      4
_space_group_name_Hall           'P 2yb'
loop_
_symmetry_equiv_pos_site_id
_symmetry_equiv_pos_as_xyz
1 x,y,z
2 -x,1/2+y,-z
_cell_length_a                   5.510(3)
_cell_length_b                   14.809(9)
_cell_length_c                   10.824(7)
_cell_angle_alpha                90
_cell_angle_beta                 100.757(7)
_cell_angle_gamma                90
_cell_volume                     867.692
_exptl_crystal_colour            colorless
_exptl_crystal_description       block
_cell_formula_units_Z            2
loop_
_atom_site_label
_atom_site_type_symbol
_atom_site_fract_x
_atom_site_fract_y
_atom_site_fract_z
O1 O 1.0367(8) 1.4286(2) 0.0585(4)
C1 C 0.8795(10) 1.3999(4) 0.1151(5)
C2 C 0.8377(10) 1.3024(3) 0.1253(5)
C3 C 0.7281(11) 1.4662(3) 0.1753(6)
H1 H 0.7711 1.5267 0.1559
H2 H 0.7615 1.4578 0.2648
H3 H 0.5557 1.4562 0.1434
C4 C 0.9784(9) 1.2426(4) 0.0675(5)
H4 H 1.0986 1.2651 0.0258
C5 C 0.9408(10) 1.1512(3) 0.0717(5)
H5 H 1.0375 1.1123 0.0339
C6 C 0.7613(9) 1.1162(3) 0.1315(5)
C7 C 0.6218(11) 1.1739(3) 0.1902(5)
H6 H 0.5016 1.1509 0.2315
C8 C 0.6618(9) 1.2656(3) 0.1872(5)
H7 H 0.5684 1.3039 0.2278
N1 N 0.7347(8) 1.0214(3) 0.1292(4)
H8 H 0.836(9) 0.995(4) 0.089(4)
C9 C 0.5765(10) 0.9683(4) 0.1782(5)
O2 O 0.4168(7) 0.9955(2) 0.2321(4)
C10 C 0.6264(11) 0.8699(3) 0.1599(5)
H9 H 0.6134 0.8570 0.0710
H10 H 0.7923 0.8548 0.2024
O3 O 0.4514(7) 0.8175(2) 0.2098(4)
C11 C 0.4672(17) 0.7263(6) 0.1902(11)
O4 O 0.631(3) 0.6938(5) 0.1497(16)
C12 C 0.2874(14) 0.6724(5) 0.2509(9)
H11 H 0.2446 0.6169 0.2042
H12 H 0.1372 0.7070 0.2487
C13 C 0.4021(15) 0.6501(7) 0.3868(8)
H13 H 0.5659 0.6254 0.3893
H14 H 0.4200 0.7054 0.4356
C14 C 0.2509(13) 0.5829(7) 0.4479(7)
C15 C 0.2881(15) 0.4932(7) 0.4377(8)
H15 H 0.4061 0.4732 0.3928
C16 C 0.0769(17) 0.6103(8) 0.5129(10)
H16 H 0.0479 0.6717 0.5202
C17 C 0.154(2) 0.4300(8) 0.4927(10)
H17 H 0.1837 0.3686 0.4852
C18 C -0.024(2) 0.4599(14) 0.5590(11)
C19 C -0.059(2) 0.5493(11) 0.5684(12)
H18 H -0.1759 0.5704 0.6130
O5 O -0.156(4) 0.389(2) 0.6129(17)
H19 H -0.24(2) 0.420(8) 0.669(14)
C20? C 0.526(5) 0.7305(17) 0.239(2)
O6? O 0.647(11) 0.698(3) 0.164(6)
C21? C 0.344(5) 0.6930(19) 0.317(3)
H20? H 0.3841 0.7156 0.4029
H21? H 0.1770 0.7116 0.2813
C22? C 0.363(4) 0.5920(18) 0.317(2)
H22? H 0.5348 0.5749 0.3420
H23? H 0.3055 0.5702 0.2321
C23? C 0.215(3) 0.5467(15) 0.4037(16)
C24? C 0.256(4) 0.4531(14) 0.412(2)
H24? H 0.3644 0.4259 0.3672
C25? C 0.054(5) 0.5854(17) 0.471(2)
H25? H 0.0273 0.6474 0.4649
C26? C 0.135(5) 0.4023(14) 0.487(2)
H26? H 0.1609 0.3403 0.4942
C27? C -0.024(5) 0.444(3) 0.553(2)
C28? C -0.071(6) 0.535(2) 0.548(3)
H27? H -0.1794 0.5619 0.5932
O7? O -0.135(10) 0.397(6) 0.622(5)
H28? H -0.18(5) 0.439(15) 0.67(3)
loop_
_geom_bond_atom_site_label_1
_geom_bond_atom_site_label_2
_geom_bond_site_symmetry_1
_geom_bond_site_symmetry_2
O1 C1 1_555 1_555
C1 C2 1_555 1_555
C2 C4 1_555 1_555
C3 C1 1_555 1_555
H1 C3 1_555 1_555
H2 C3 1_555 1_555
H3 C3 1_555 1_555
C4 H4 1_555 1_555
C5 C4 1_555 1_555
H5 C5 1_555 1_555
C6 C5 1_555 1_555
C7 C6 1_555 1_555
H6 C7 1_555 1_555
C8 C2 1_555 1_555
H7 C8 1_555 1_555
N1 C6 1_555 1_555
H8 N1 1_555 1_555
C9 N1 1_555 1_555
O2 C9 1_555 1_555
C10 C9 1_555 1_555
H9 C10 1_555 1_555
H10 C10 1_555 1_555
O3 C10 1_555 1_555
C11 O3 1_555 1_555
O4 C11 1_555 1_555
C12 C11 1_555 1_555
H11 C12 1_555 1_555
H12 C12 1_555 1_555
C13 C12 1_555 1_555
H13 C13 1_555 1_555
H14 C13 1_555 1_555
C14 C13 1_555 1_555
C15 C14 1_555 1_555
H15 C15 1_555 1_555
C16 C14 1_555 1_555
H16 C16 1_555 1_555
C17 C15 1_555 1_555
H17 C17 1_555 1_555
C18 C17 1_555 1_555
C19 C16 1_555 1_555
H18 C19 1_555 1_555
O5 C18 1_555 1_555
H19 O5 1_555 1_555
C7 C8 1_555 1_555
C18 C19 1_555 1_555

#END
