
#######################################################################
#
#                 Cambridge Crystallographic Data Centre
#                                CCDC 
#
#######################################################################
#
# If this CIF has been generated from an entry in the Cambridge 
# Structural Database, then it will include bibliographic, chemical, 
# crystal, experimental, refinement or atomic coordinate data resulting 
# from the CCDC's data processing and validation procedures.
#
#######################################################################

data_IPOYES
_chemical_formula_moiety         'C28 H28 N2 O2'
_chemical_name_systematic        
rac-4,4'-(2,2'-Dimethoxy-5,5',6,6'-tetramethylbiphenyl-3,3'-diyl)dipyridine
_symmetry_cell_setting           monoclinic
_symmetry_space_group_name_H-M   'C 2/c'
_symmetry_Int_Tables_number      15
_space_group_name_Hall           '-C 2yn'
loop_
_symmetry_equiv_pos_site_id
_symmetry_equiv_pos_as_xyz
1 x,y,z
2 -x,y,1/2-z
3 1/2+x,1/2+y,z
4 1/2-x,1/2+y,1/2-z
5 -x,-y,-z
6 x,-y,1/2+z
7 1/2-x,1/2-y,-z
8 1/2+x,1/2-y,1/2+z
_cell_length_a                   18.2891(18)
_cell_length_b                   6.7249(7)
_cell_length_c                   19.162(2)
_cell_angle_alpha                90
_cell_angle_beta                 98.169(2)
_cell_angle_gamma                90
_cell_volume                     2332.87
_exptl_crystal_colour            colorless
_exptl_crystal_description       rod-like
_cell_formula_units_Z            4
loop_
_atom_site_label
_atom_site_type_symbol
_atom_site_fract_x
_atom_site_fract_y
_atom_site_fract_z
O1 O 0.00836(9) 0.1537(3) 0.16670(9)
C1 C -0.03662(13) -0.1236(4) 0.22637(11)
C2 C -0.16976(13) -0.0997(4) 0.13827(13)
H1 H -0.2146 -0.0929 0.1087
C3 C -0.11468(13) 0.0333(4) 0.12799(12)
C4 C -0.04785(13) 0.0191(4) 0.17317(12)
C5 C -0.09349(13) -0.2561(4) 0.23539(12)
C6 C -0.12620(13) 0.1835(4) 0.06989(12)
C7 C -0.16097(13) -0.2433(4) 0.19100(13)
C8 C -0.16106(15) 0.1319(5) 0.00308(13)
H2 H -0.1768 0.0019 -0.0062
C9 C -0.22407(16) -0.3813(5) 0.19883(17)
H3 H -0.2665 -0.3438 0.1661
H4 H -0.2357 -0.3729 0.2460
H5 H -0.2102 -0.5153 0.1894
N1 N -0.15182(15) 0.4627(4) -0.04093(13)
C10 C -0.08201(17) -0.4153(4) 0.29106(15)
H6 H -0.1264 -0.4923 0.2898
H7 H -0.0701 -0.3547 0.3366
H8 H -0.0422 -0.5005 0.2823
C11 C -0.17219(17) 0.2732(5) -0.04919(14)
H9 H -0.1955 0.2337 -0.0933
C12 C -0.10475(17) 0.3792(4) 0.07894(14)
H10 H -0.0810 0.4227 0.1224
C13 C 0.05480(17) 0.0982(6) 0.11623(17)
H11 H 0.0919 0.1983 0.1145
H12 H 0.0257 0.0858 0.0706
H13 H 0.0781 -0.0267 0.1296
C14 C -0.11867(19) 0.5107(5) 0.02323(16)
H14 H -0.1038 0.6421 0.0311
O1A O -0.00836(9) 0.1537(3) 0.33330(9)
C1A C 0.03662(13) -0.1236(4) 0.27363(11)
C2A C 0.16976(13) -0.0997(4) 0.36173(13)
H1A H 0.2146 -0.0929 0.3913
C3A C 0.11468(13) 0.0333(4) 0.37201(12)
C4A C 0.04785(13) 0.0191(4) 0.32683(12)
C5A C 0.09349(13) -0.2561(4) 0.26461(12)
C6A C 0.12620(13) 0.1835(4) 0.43011(12)
C7A C 0.16097(13) -0.2433(4) 0.30900(13)
C8A C 0.16106(15) 0.1319(5) 0.49692(13)
H2A H 0.1768 0.0019 0.5062
C9A C 0.22407(16) -0.3813(5) 0.30117(17)
H3A H 0.2665 -0.3438 0.3339
H4A H 0.2357 -0.3729 0.2540
H5A H 0.2102 -0.5153 0.3106
N1A N 0.15182(15) 0.4627(4) 0.54093(13)
C10A C 0.08201(17) -0.4153(4) 0.20894(15)
H6A H 0.1264 -0.4923 0.2102
H7A H 0.0701 -0.3547 0.1634
H8A H 0.0422 -0.5005 0.2177
C11A C 0.17219(17) 0.2732(5) 0.54919(14)
H9A H 0.1955 0.2337 0.5933
C12A C 0.10475(17) 0.3792(4) 0.42106(14)
H10A H 0.0810 0.4227 0.3776
C13A C -0.05480(17) 0.0982(6) 0.38377(17)
H11A H -0.0919 0.1983 0.3855
H12A H -0.0257 0.0858 0.4294
H13A H -0.0781 -0.0267 0.3704
C14A C 0.11867(19) 0.5107(5) 0.47677(16)
H14A H 0.1038 0.6421 0.4689
loop_
_geom_bond_atom_site_label_1
_geom_bond_atom_site_label_2
_geom_bond_site_symmetry_1
_geom_bond_site_symmetry_2
O1 C4 1_555 1_555
C1 C4 1_555 1_555
C2 H1 1_555 1_555
C3 C2 1_555 1_555
C4 C3 1_555 1_555
C5 C1 1_555 1_555
C6 C3 1_555 1_555
C7 C2 1_555 1_555
C8 C6 1_555 1_555
H2 C8 1_555 1_555
C9 C7 1_555 1_555
H3 C9 1_555 1_555
H4 C9 1_555 1_555
H5 C9 1_555 1_555
N1 C11 1_555 1_555
C10 C5 1_555 1_555
H6 C10 1_555 1_555
H7 C10 1_555 1_555
H8 C10 1_555 1_555
C11 C8 1_555 1_555
H9 C11 1_555 1_555
C12 C6 1_555 1_555
H10 C12 1_555 1_555
C13 O1 1_555 1_555
H11 C13 1_555 1_555
H12 C13 1_555 1_555
H13 C13 1_555 1_555
C14 N1 1_555 1_555
H14 C14 1_555 1_555
O1A C4A 1_555 1_555
C1A C1 1_555 1_555
C2A H1A 1_555 1_555
C3A C2A 1_555 1_555
C4A C1A 1_555 1_555
C5A C1A 1_555 1_555
C6A C3A 1_555 1_555
C7A C2A 1_555 1_555
C8A C6A 1_555 1_555
H2A C8A 1_555 1_555
C9A C7A 1_555 1_555
H3A C9A 1_555 1_555
H4A C9A 1_555 1_555
H5A C9A 1_555 1_555
N1A C11A 1_555 1_555
C10A C5A 1_555 1_555
H6A C10A 1_555 1_555
H7A C10A 1_555 1_555
H8A C10A 1_555 1_555
C11A C8A 1_555 1_555
H9A C11A 1_555 1_555
C12A C6A 1_555 1_555
H10A C12A 1_555 1_555
C13A O1A 1_555 1_555
H11A C13A 1_555 1_555
H12A C13A 1_555 1_555
H13A C13A 1_555 1_555
C14A N1A 1_555 1_555
H14A C14A 1_555 1_555
C5 C7 1_555 1_555
C12 C14 1_555 1_555
C3A C4A 1_555 1_555
C5A C7A 1_555 1_555
C12A C14A 1_555 1_555

#END
