
#######################################################################
#
#                 Cambridge Crystallographic Data Centre
#                                CCDC 
#
#######################################################################
#
# If this CIF has been generated from an entry in the Cambridge 
# Structural Database, then it will include bibliographic, chemical, 
# crystal, experimental, refinement or atomic coordinate data resulting 
# from the CCDC's data processing and validation procedures.
#
#######################################################################

data_IPRAMH10
_chemical_formula_moiety         'C3 H9 N1,8(H2 O1)'
_chemical_name_systematic        'Isopropylamine octahydrate clathrate'
_symmetry_cell_setting           hexagonal
_symmetry_space_group_name_H-M   'P 63/m m c'
_symmetry_Int_Tables_number      194
_space_group_name_Hall           "-P 6c 2'c"
loop_
_symmetry_equiv_pos_site_id
_symmetry_equiv_pos_as_xyz
1 x,y,z
2 x-y,x,1/2+z
3 -y,-x,1/2-z
4 -y,x-y,z
5 x-y,-y,-z
6 -x,-y,1/2+z
7 x,x-y,1/2-z
8 -x+y,-x,z
9 y,x,-z
10 y,-x+y,1/2+z
11 -x+y,y,1/2-z
12 -x,-x+y,-z
13 -x,-y,-z
14 -x+y,-x,1/2-z
15 y,x,1/2+z
16 y,-x+y,-z
17 -x+y,y,z
18 x,y,1/2-z
19 -x,-x+y,1/2+z
20 x-y,x,-z
21 -y,-x,z
22 -y,x-y,1/2-z
23 x-y,-y,1/2+z
24 x,x-y,z
_cell_length_a                   12.30(1)
_cell_length_b                   12.30(1)
_cell_length_c                   24.850(2)
_cell_angle_alpha                90
_cell_angle_beta                 90
_cell_angle_gamma                120
_cell_volume                     3255.87
_chemical_melting_point          -4deg.C
_cell_formula_units_Z            12
loop_
_atom_site_label
_atom_site_type_symbol
_atom_site_fract_x
_atom_site_fract_y
_atom_site_fract_z
O2 O 0.3333 0.6667 0.6408(2)
O3 O 0.1215(1) 0.2429(3) 0.3886(1)
O4 O 0.4544(1) 0.9087(1) 0.6015(1)
O5 O 0.2064(2) 0.4127(3) 0.3058(2)
O6 O 0.4692(3) 0.9384(6) 0.3079(2)
O8 O 0.3254(2) 0.2756(2) 0.4486(1)
N1 N 0.2236(12) 0.6581(14) 0.4502(7)
C1 C 0.3333 0.6667 0.4715(7)
N1T N 0.3419(14) 0.7764(12) 0.4502(7)
N1G N 0.4345(18) 0.7764(12) 0.4502(7)
N1P N 0.4345(18) 0.6581(14) 0.4502(7)
N1C N 0.3419(14) 0.5655(18) 0.4502(7)
N1W N 0.2236(12) 0.5655(18) 0.4502(7)
N4 N -0.0949(62) -0.4400(58) 0.2500
O1 O 0.0000 0.0000 0.3519(2)
O7? O 0.4308(11) 0.8616(22) 0.3496(12)
N2? N -0.0311(23) -0.1443(23) 0.2500
C2? C -0.1284(14) 0.2568(28) 0.2500
C3? C -0.1682(3) -0.3364(6) 0.3002(2)
N3? N -0.2011(28) -0.5227(26) 0.2500
C4? C -0.2084(10) -0.4169(20) 0.2500
C5? C -0.1106(35) -0.3321(37) 0.2500
loop_
_geom_bond_atom_site_label_1
_geom_bond_atom_site_label_2
_geom_bond_site_symmetry_1
_geom_bond_site_symmetry_2
N1 C1 1_555 1_555
C1 N1T 1_555 1_555
N1T N1 1_555 1_555
N1G C1 1_555 1_555
N1P C1 1_555 1_555
N1C C1 1_555 1_555
N1W N1 1_555 1_555
C1 N1W 1_555 1_555
N1T N1G 1_555 1_555
N1G N1P 1_555 1_555
N1P N1C 1_555 1_555
N1C N1W 1_555 1_555

#END
