
#######################################################################
#
#                 Cambridge Crystallographic Data Centre
#                                CCDC 
#
#######################################################################
#
# If this CIF has been generated from an entry in the Cambridge 
# Structural Database, then it will include bibliographic, chemical, 
# crystal, experimental, refinement or atomic coordinate data resulting 
# from the CCDC's data processing and validation procedures.
#
#######################################################################

data_IQADIO
_chemical_formula_moiety         'C14 H9 I1 O4'
_chemical_name_systematic        
1-Hydroxy-3-(hydroxymethyl)-2-iodo-9H-xanthen-9-one
_symmetry_cell_setting           monoclinic
_symmetry_space_group_name_H-M   'P 21/c'
_symmetry_Int_Tables_number      14
_space_group_name_Hall           '-P 2ybc'
loop_
_symmetry_equiv_pos_site_id
_symmetry_equiv_pos_as_xyz
1 x,y,z
2 -x,1/2+y,1/2-z
3 -x,-y,-z
4 x,1/2-y,1/2+z
_cell_length_a                   7.7699(4)
_cell_length_b                   4.7912(3)
_cell_length_c                   32.4130(18)
_cell_angle_alpha                90
_cell_angle_beta                 96.533(3)
_cell_angle_gamma                90
_cell_volume                     1198.81
_exptl_crystal_colour            yellow
_exptl_crystal_description       acicular
_cell_formula_units_Z            4
loop_
_atom_site_label
_atom_site_type_symbol
_atom_site_fract_x
_atom_site_fract_y
_atom_site_fract_z
I1 I 0.65421(5) 0.23237(9) 0.058983(13)
O1 O 0.0829(5) 0.9317(9) 0.13060(13)
O2 O 0.5856(6) 1.0114(11) 0.18383(15)
O3 O 0.6756(5) 0.6433(10) 0.13303(14)
O4 O 0.0523(6) 0.2491(12) 0.01796(14)
C1 C -0.0122(8) 1.2762(14) 0.17390(19)
C2 C 0.0209(8) 1.4664(14) 0.20580(19)
C3 C 0.1872(9) 1.5020(14) 0.2265(2)
C4 C 0.3213(8) 1.3450(13) 0.21426(19)
C5 C 0.2919(8) 1.1514(13) 0.18177(18)
C6 C 0.1237(7) 1.1179(12) 0.16216(18)
C7 C 0.2102(7) 0.7733(13) 0.11667(17)
C8 C 0.3841(7) 0.7980(12) 0.13387(17)
C9 C 0.4327(7) 0.9878(13) 0.16781(18)
C10 C 0.5086(7) 0.6292(13) 0.11702(19)
C11 C 0.4589(7) 0.4536(12) 0.08403(18)
C12 C 0.2831(7) 0.4333(13) 0.06741(18)
C13 C 0.1585(7) 0.5906(13) 0.08458(18)
C14 C 0.2326(7) 0.2359(13) 0.03132(17)
H1 H -0.1237 1.2545 0.1604
H2 H -0.0689 1.5784 0.2135
H3 H 0.6730 0.7754 0.1491
H4 H 0.2061 1.6290 0.2484
H5 H 0.0211 0.0995 0.0073
H6 H 0.4337 1.3668 0.2280
H7 H 0.0432 0.5765 0.0743
H8 H 0.2599 0.0477 0.0399
H9 H 0.2967 0.2841 0.0086
H10? H 0.0213 0.3988 0.0074
loop_
_geom_bond_atom_site_label_1
_geom_bond_atom_site_label_2
_geom_bond_site_symmetry_1
_geom_bond_site_symmetry_2
I1 C11 1_555 1_555
O1 C6 1_555 1_555
O2 C9 1_555 1_555
O3 C10 1_555 1_555
O4 C14 1_555 1_555
C1 C2 1_555 1_555
C2 C3 1_555 1_555
C3 C4 1_555 1_555
C4 C5 1_555 1_555
C5 C6 1_555 1_555
C6 C1 1_555 1_555
C7 O1 1_555 1_555
C8 C7 1_555 1_555
C9 C5 1_555 1_555
C10 C8 1_555 1_555
C11 C10 1_555 1_555
C12 C11 1_555 1_555
C13 C7 1_555 1_555
C14 C12 1_555 1_555
H1 C1 1_555 1_555
H2 C2 1_555 1_555
H3 O3 1_555 1_555
H4 C3 1_555 1_555
H5 O4 1_555 1_555
H6 C4 1_555 1_555
H7 C13 1_555 1_555
H8 C14 1_555 1_555
H9 C14 1_555 1_555
C8 C9 1_555 1_555
C12 C13 1_555 1_555

#END
