
#######################################################################
#
#                 Cambridge Crystallographic Data Centre
#                                CCDC 
#
#######################################################################
#
# If this CIF has been generated from an entry in the Cambridge 
# Structural Database, then it will include bibliographic, chemical, 
# crystal, experimental, refinement or atomic coordinate data resulting 
# from the CCDC's data processing and validation procedures.
#
#######################################################################

data_IQAJAN
_chemical_formula_moiety         'C25 H25 N1 O5'
_chemical_name_systematic        
N-(4-(2-methoxyphenyl)-7,7-dimethyl-2,5-dioxo-3,4,5,6,7,8-hexahydro-2H-chromen-3-yl)benzamide
_symmetry_cell_setting           monoclinic
_symmetry_space_group_name_H-M   'P 21'
_symmetry_Int_Tables_number      4
_space_group_name_Hall           'P 2yb'
loop_
_symmetry_equiv_pos_site_id
_symmetry_equiv_pos_as_xyz
1 x,y,z
2 -x,1/2+y,-z
_cell_length_a                   9.46700(10)
_cell_length_b                   9.02990(10)
_cell_length_c                   13.0503(2)
_cell_angle_alpha                90
_cell_angle_beta                 110.7560(10)
_cell_angle_gamma                90
_cell_volume                     1043.21
_exptl_crystal_colour            colorless
_exptl_crystal_description       block
_cell_formula_units_Z            2
loop_
_atom_site_label
_atom_site_type_symbol
_atom_site_fract_x
_atom_site_fract_y
_atom_site_fract_z
O1 O -0.49135(15) -0.21132(19) -0.11813(12)
O2 O -0.41114(19) -0.0322(2) 0.00444(14)
O3 O -0.17089(16) -0.5852(2) -0.16675(12)
O4 O -0.26472(18) -0.0812(2) -0.17879(13)
O5 O -0.23953(18) -0.2816(2) 0.24599(12)
N1 N -0.1432(2) -0.1807(2) 0.12602(14)
H1 H -0.0738 -0.1235 0.1162
C1 C -0.2540(2) -0.2521(3) 0.03329(17)
H2 H -0.2985 -0.3325 0.0650
C2 C -0.1863(2) -0.3310(3) -0.04326(16)
H3 H -0.1302 -0.4189 -0.0018
C3 C -0.3178(2) -0.3916(3) -0.13764(16)
C4 C -0.2933(2) -0.5210(3) -0.19624(17)
C5 C -0.4248(2) -0.5787(3) -0.29325(18)
H4 H -0.4732 -0.6611 -0.2680
H5 H -0.3850 -0.6193 -0.3481
C6 C -0.5458(2) -0.4621(3) -0.34943(17)
C7 C -0.5915(2) -0.3891(3) -0.25907(16)
H6 H -0.6609 -0.3056 -0.2908
H7 H -0.6460 -0.4622 -0.2303
C8 C -0.4569(2) -0.3337(3) -0.16743(17)
C9 C -0.3847(2) -0.1495(3) -0.02555(18)
C10 C -0.4857(3) -0.3452(3) -0.40815(18)
H8 H -0.5648 -0.2719 -0.4422
H9 H -0.4557 -0.3928 -0.4648
H10 H -0.3980 -0.2957 -0.3551
C11 C -0.6825(3) -0.5395(3) -0.43279(18)
H11 H -0.6530 -0.5833 -0.4910
H12 H -0.7633 -0.4672 -0.4647
H13 H -0.7185 -0.6176 -0.3960
C12 C -0.0745(2) -0.2449(3) -0.08013(17)
C13 C -0.1179(3) -0.1252(3) -0.15289(18)
C14 C -0.0154(3) -0.0592(3) -0.19345(19)
H14 H -0.0468 0.0197 -0.2447
C15 C 0.1331(3) -0.1094(3) -0.1585(2)
H15 H 0.2029 -0.0652 -0.1867
C16 C 0.1800(3) -0.2235(3) -0.0829(2)
H16 H 0.2824 -0.2552 -0.0569
C17 C 0.0753(2) -0.2908(3) -0.04575(18)
H17 H 0.1070 -0.3706 0.0047
C18 C -0.3155(3) 0.0468(3) -0.2455(2)
H18 H -0.3116 0.0282 -0.3185
H19 H -0.2503 0.1311 -0.2119
H20 H -0.4197 0.0693 -0.2522
C19 C -0.1458(2) -0.2016(3) 0.22843(17)
C20 C -0.0297(2) -0.1195(3) 0.31953(16)
C21 C 0.0343(2) -0.1921(3) 0.41965(18)
H21 H 0.0109 -0.2931 0.4264
C22 C 0.1323(3) -0.1168(3) 0.50949(19)
H22 H 0.1761 -0.1666 0.5776
C23 C 0.1663(3) 0.0298(4) 0.50033(19)
H23 H 0.2336 0.0810 0.5619
C24 C 0.1018(3) 0.1029(3) 0.40055(18)
H24 H 0.1247 0.2041 0.3942
C25 C 0.0044(2) 0.0280(3) 0.31041(18)
H25 H -0.0390 0.0779 0.2423
loop_
_geom_bond_atom_site_label_1
_geom_bond_atom_site_label_2
_geom_bond_site_symmetry_1
_geom_bond_site_symmetry_2
O1 C8 1_555 1_555
O2 C9 1_555 1_555
O3 C4 1_555 1_555
O4 C13 1_555 1_555
O5 C19 1_555 1_555
N1 H1 1_555 1_555
C1 N1 1_555 1_555
H2 C1 1_555 1_555
C2 C1 1_555 1_555
H3 C2 1_555 1_555
C3 C2 1_555 1_555
C4 C3 1_555 1_555
C5 C4 1_555 1_555
H4 C5 1_555 1_555
H5 C5 1_555 1_555
C6 C5 1_555 1_555
C7 C6 1_555 1_555
H6 C7 1_555 1_555
H7 C7 1_555 1_555
C8 C3 1_555 1_555
C9 O1 1_555 1_555
C10 C6 1_555 1_555
H8 C10 1_555 1_555
H9 C10 1_555 1_555
H10 C10 1_555 1_555
C11 C6 1_555 1_555
H11 C11 1_555 1_555
H12 C11 1_555 1_555
H13 C11 1_555 1_555
C12 C2 1_555 1_555
C13 C12 1_555 1_555
C14 C13 1_555 1_555
H14 C14 1_555 1_555
C15 C14 1_555 1_555
H15 C15 1_555 1_555
C16 C15 1_555 1_555
H16 C16 1_555 1_555
C17 C12 1_555 1_555
H17 C17 1_555 1_555
C18 O4 1_555 1_555
H18 C18 1_555 1_555
H19 C18 1_555 1_555
H20 C18 1_555 1_555
C19 N1 1_555 1_555
C20 C19 1_555 1_555
C21 C20 1_555 1_555
H21 C21 1_555 1_555
C22 C21 1_555 1_555
H22 C22 1_555 1_555
C23 C22 1_555 1_555
H23 C23 1_555 1_555
C24 C23 1_555 1_555
H24 C24 1_555 1_555
C25 C20 1_555 1_555
H25 C25 1_555 1_555
C1 C9 1_555 1_555
C7 C8 1_555 1_555
C16 C17 1_555 1_555
C24 C25 1_555 1_555

#END
