
#######################################################################
#
#                 Cambridge Crystallographic Data Centre
#                                CCDC 
#
#######################################################################
#
# If this CIF has been generated from an entry in the Cambridge 
# Structural Database, then it will include bibliographic, chemical, 
# crystal, experimental, refinement or atomic coordinate data resulting 
# from the CCDC's data processing and validation procedures.
#
#######################################################################

data_IQAXII
_chemical_formula_moiety         'C30 H28 Cl2 N2 O4'
_chemical_name_systematic        
'Isopropyl 2-(4-benzyl-3-methyl-5-oxo-1-phenyl-4,5-dihydro-1H-pyrazol-4-yl)-4-(3,4-dichlorophenyl)-4-oxobutanoate'
_symmetry_cell_setting           monoclinic
_symmetry_space_group_name_H-M   'P 21'
_symmetry_Int_Tables_number      4
_space_group_name_Hall           'P 2yb'
loop_
_symmetry_equiv_pos_site_id
_symmetry_equiv_pos_as_xyz
1 x,y,z
2 -x,1/2+y,-z
_cell_length_a                   11.3327(13)
_cell_length_b                   7.2713(8)
_cell_length_c                   17.688(2)
_cell_angle_alpha                90
_cell_angle_beta                 102.904(12)
_cell_angle_gamma                90
_cell_volume                     1420.74
_exptl_crystal_colour            colorless
_exptl_crystal_description       block
_cell_formula_units_Z            2
loop_
_atom_site_label
_atom_site_type_symbol
_atom_site_fract_x
_atom_site_fract_y
_atom_site_fract_z
Cl1 Cl -0.64715(11) -0.6026(2) -0.00894(7)
Cl2 Cl -0.65677(11) -1.02296(18) 0.03617(6)
O1 O -1.3193(2) -0.1035(3) 0.23727(12)
O2 O -0.9520(2) -0.4771(4) 0.29372(17)
O3 O -1.0237(2) -0.2016(4) 0.30875(17)
O4 O -0.9819(2) -0.3170(4) 0.11350(19)
N1 N -1.2979(2) -0.2808(4) 0.34879(14)
N2 N -1.2562(2) -0.4592(4) 0.37284(15)
C1 C -0.9353(3) -0.8065(6) 0.1065(2)
H1 H -0.9977 -0.8496 0.1281
C2 C -0.8529(3) -0.9309(6) 0.0886(2)
H2 H -0.8586 -1.0555 0.0991
C3 C -0.7621(3) -0.8661(6) 0.0546(2)
C4 C -0.7573(3) -0.6831(6) 0.0366(2)
C5 C -0.8379(3) -0.5633(5) 0.05604(17)
H3 H -0.8332 -0.4393 0.0441
C6 C -0.9272(3) -0.6213(5) 0.09332(18)
C7 C -1.0034(3) -0.4783(6) 0.11956(19)
C8 C -1.1086(3) -0.5383(5) 0.1549(2)
H4 H -1.0874 -0.6511 0.1841
H5 H -1.1794 -0.5623 0.1138
C9 C -1.1382(3) -0.3878(5) 0.20881(18)
H6 H -1.1516 -0.2729 0.1792
C10 C -1.0274(3) -0.3615(5) 0.2747(2)
C11 C -0.9182(4) -0.1600(7) 0.3717(3)
H7 H -0.8671 -0.2699 0.3820
C12 C -0.9625(5) -0.1164(10) 0.4416(3)
H8 H -0.8950 -0.0951 0.4842
H9 H -1.0096 -0.2175 0.4536
H10 H -1.0121 -0.0080 0.4325
C13 C -0.8478(4) -0.0109(10) 0.3457(3)
H11 H -0.8355 -0.0394 0.2951
H12 H -0.7708 0.0007 0.3815
H13 H -0.8914 0.1028 0.3438
C14 C -1.2527(3) -0.4251(4) 0.24174(17)
C15 C -1.2929(3) -0.2453(5) 0.27287(18)
C16 C -1.2304(3) -0.5422(4) 0.31418(19)
C17 C -1.1849(3) -0.7347(5) 0.3220(2)
H14 H -1.2311 -0.8081 0.2807
H15 H -1.1931 -0.7839 0.3709
H16 H -1.1012 -0.7364 0.3194
C18 C -1.3589(2) -0.4965(5) 0.17734(17)
H17 H -1.3729 -0.4097 0.1346
H18 H -1.3352 -0.6125 0.1580
C19 C -1.4767(3) -0.5248(5) 0.20296(17)
C20 C -1.5097(3) -0.6978(6) 0.2209(2)
H19 H -1.4590 -0.7964 0.2174
C21 C -1.6166(3) -0.7295(8) 0.2442(2)
H20 H -1.6375 -0.8483 0.2556
C22 C -1.6903(4) -0.5877(11) 0.2502(2)
H21 H -1.7612 -0.6085 0.2670
C23 C -1.6615(4) -0.4143(9) 0.2319(3)
H22 H -1.7133 -0.3172 0.2357
C24 C -1.5534(3) -0.3813(6) 0.2072(2)
H23 H -1.5343 -0.2631 0.1938
C25 C -1.3315(3) -0.1612(5) 0.40373(18)
C26 C -1.4173(3) -0.0280(6) 0.3804(2)
H24 H -1.4548 -0.0168 0.3281
C27 C -1.4482(4) 0.0893(7) 0.4337(3)
H25 H -1.5053 0.1810 0.4170
C28 C -1.3959(4) 0.0727(7) 0.5109(3)
H26 H -1.4170 0.1522 0.5470
C29 C -1.3121(5) -0.0628(7) 0.5341(2)
H27 H -1.2766 -0.0761 0.5866
C30 C -1.2793(4) -0.1803(6) 0.48108(19)
H28 H -1.2221 -0.2719 0.4977
loop_
_geom_bond_atom_site_label_1
_geom_bond_atom_site_label_2
_geom_bond_site_symmetry_1
_geom_bond_site_symmetry_2
Cl1 C4 1_555 1_555
Cl2 C3 1_555 1_555
O1 C15 1_555 1_555
O2 C10 1_555 1_555
O3 C10 1_555 1_555
O4 C7 1_555 1_555
N1 N2 1_555 1_555
N2 C16 1_555 1_555
C1 H1 1_555 1_555
C2 C1 1_555 1_555
H2 C2 1_555 1_555
C3 C2 1_555 1_555
C4 C3 1_555 1_555
C5 C4 1_555 1_555
H3 C5 1_555 1_555
C6 C1 1_555 1_555
C7 C6 1_555 1_555
C8 C7 1_555 1_555
H4 C8 1_555 1_555
H5 C8 1_555 1_555
C9 C8 1_555 1_555
H6 C9 1_555 1_555
C10 C9 1_555 1_555
C11 O3 1_555 1_555
H7 C11 1_555 1_555
C12 C11 1_555 1_555
H8 C12 1_555 1_555
H9 C12 1_555 1_555
H10 C12 1_555 1_555
C13 C11 1_555 1_555
H11 C13 1_555 1_555
H12 C13 1_555 1_555
H13 C13 1_555 1_555
C14 C9 1_555 1_555
C15 N1 1_555 1_555
C16 C14 1_555 1_555
C17 C16 1_555 1_555
H14 C17 1_555 1_555
H15 C17 1_555 1_555
H16 C17 1_555 1_555
C18 C14 1_555 1_555
H17 C18 1_555 1_555
H18 C18 1_555 1_555
C19 C18 1_555 1_555
C20 C19 1_555 1_555
H19 C20 1_555 1_555
C21 C20 1_555 1_555
H20 C21 1_555 1_555
C22 C21 1_555 1_555
H21 C22 1_555 1_555
C23 C22 1_555 1_555
H22 C23 1_555 1_555
C24 C19 1_555 1_555
H23 C24 1_555 1_555
C25 N1 1_555 1_555
C26 C25 1_555 1_555
H24 C26 1_555 1_555
C27 C26 1_555 1_555
H25 C27 1_555 1_555
C28 C27 1_555 1_555
H26 C28 1_555 1_555
C29 C28 1_555 1_555
H27 C29 1_555 1_555
C30 C25 1_555 1_555
H28 C30 1_555 1_555
C5 C6 1_555 1_555
C14 C15 1_555 1_555
C23 C24 1_555 1_555
C29 C30 1_555 1_555

#END
