
#######################################################################
#
#                 Cambridge Crystallographic Data Centre
#                                CCDC 
#
#######################################################################
#
# If this CIF has been generated from an entry in the Cambridge 
# Structural Database, then it will include bibliographic, chemical, 
# crystal, experimental, refinement or atomic coordinate data resulting 
# from the CCDC's data processing and validation procedures.
#
#######################################################################

data_IQEYIN
_chemical_name_common            
"2,5,8,11,14,21,24,27,30,33-decaoxabicyclo[32.2.2]octatriaconta-1(36),34,37-triene-16,18-diyne 1,1'-dimethyl-4,4'-bipyridinium clathrate bis(hexafluorophosphate)"
_chemical_formula_moiety         'C28 H40 O10,C12 H14 N2 2+,2(F6 P1 1-)'
_chemical_name_systematic        
"[2]-(1,1'-Dimethyl-4,4'-bipyridinium)-(2,5,8,11,14,21,24,27,30,33-decaoxabicyclo[32.2.2]octatriaconta-1(36),34,37-triene-16,18-diyne)-pseudorotaxane bis(hexafluorophosphate)"
_symmetry_cell_setting           monoclinic
_symmetry_space_group_name_H-M   'P 21/n'
_symmetry_Int_Tables_number      14
_space_group_name_Hall           '-P 2yn'
loop_
_symmetry_equiv_pos_site_id
_symmetry_equiv_pos_as_xyz
1 x,y,z
2 1/2-x,1/2+y,1/2-z
3 -x,-y,-z
4 1/2+x,1/2-y,1/2+z
_cell_length_a                   10.6841(14)
_cell_length_b                   27.046(4)
_cell_length_c                   16.537(2)
_cell_angle_alpha                90
_cell_angle_beta                 101.215(2)
_cell_angle_gamma                90
_cell_volume                     4687.32
_cell_formula_units_Z            4
loop_
_atom_site_label
_atom_site_type_symbol
_atom_site_fract_x
_atom_site_fract_y
_atom_site_fract_z
C1 C 0.1890(4) 0.14043(17) 1.0828(2)
C2 C 0.3009(4) 0.12237(18) 1.0660(3)
H1 H 0.3719 0.1429 1.0719
C3 C 0.3097(4) 0.07451(18) 1.0408(3)
H2 H 0.3867 0.0628 1.0301
C4 C 0.2058(4) 0.04360(17) 1.0312(3)
C5 C 0.0928(4) 0.06211(18) 1.0483(3)
H3 H 0.0216 0.0416 1.0425
C6 C 0.0840(4) 0.10950(18) 1.0733(3)
H4 H 0.0071 0.1213 1.0840
C7 C 0.3197(5) -0.02629(19) 0.9955(3)
H5 H 0.3826 -0.0243 1.0463
H6 H 0.3529 -0.0090 0.9528
C8 C 0.2942(6) -0.0785(2) 0.9720(4)
H7 H 0.3745 -0.0954 0.9728
H8 H 0.2523 -0.0943 1.0121
C9 C 0.2553(8) -0.1062(4) 0.8384(6)
H9 H 0.2858 -0.1376 0.8631
H10 H 0.3305 -0.0885 0.8294
C10 C 0.1886(8) -0.1178(3) 0.7608(7)
H11 H 0.2273 -0.0996 0.7215
H12 H 0.2024 -0.1526 0.7518
C11 C -0.0011(7) -0.1365(2) 0.6721(4)
H13 H -0.0894 -0.1408 0.6771
H14 H 0.0370 -0.1692 0.6736
C12 C 0.0010(8) -0.1148(2) 0.5931(4)
H15 H 0.0888 -0.1106 0.5870
H16 H -0.0400 -0.1372 0.5501
C13 C -0.1327(5) -0.0621(2) 0.5060(4)
H17 H -0.2033 -0.0853 0.4968
H18 H -0.0809 -0.0682 0.4649
C14 C -0.1814(5) -0.0116(2) 0.4982(3)
H19 H -0.1112 0.0115 0.5132
H20 H -0.2220 -0.0052 0.4414
C15 C -0.3200(6) 0.0447(2) 0.5436(4)
H21 H -0.3883 0.0471 0.5744
H22 H -0.3556 0.0519 0.4863
C16 C -0.2210(7) 0.0815(3) 0.5753(4)
C17 C -0.1400(7) 0.1099(2) 0.5983(4)
C18 C -0.0436(7) 0.1441(3) 0.6254(3)
C19 C 0.0398(7) 0.1719(2) 0.6465(3)
C20 C 0.1405(6) 0.2081(2) 0.6749(3)
H23 H 0.2176 0.1909 0.7007
H24 H 0.1587 0.2261 0.6278
C21 C 0.0112(6) 0.27570(19) 0.6936(3)
H25 H -0.0576 0.2577 0.6591
H26 H 0.0476 0.2982 0.6588
C22 C -0.0401(5) 0.30438(19) 0.7570(3)
H27 H -0.1091 0.3256 0.7302
H28 H -0.0740 0.2818 0.7930
C23 C 0.0132(6) 0.37808(19) 0.8310(3)
H29 H -0.0364 0.3954 0.7842
H30 H 0.0873 0.3983 0.8524
C24 C -0.0642(5) 0.3738(2) 0.8949(3)
H31 H -0.0946 0.4063 0.9070
H32 H -0.1378 0.3531 0.8751
C25 C -0.0587(5) 0.35156(18) 1.0328(3)
H33 H -0.1338 0.3309 1.0175
H34 H -0.0864 0.3846 1.0438
C26 C 0.0238(5) 0.33154(18) 1.1072(3)
H35 H 0.1034 0.3498 1.1190
H36 H -0.0180 0.3349 1.1540
C27 C 0.1018(7) 0.2575(2) 1.1661(3)
H37 H 0.0567 0.2660 1.2097
H38 H 0.1904 0.2671 1.1833
C28 C 0.0930(7) 0.2035(2) 1.1502(4)
H39 H 0.1057 0.1857 1.2020
H40 H 0.0090 0.1953 1.1190
O1 O 0.2033(3) -0.00415(12) 1.0064(2)
O2 O 0.2172(4) -0.08308(18) 0.8934(4)
O3 O 0.0627(4) -0.10968(14) 0.7416(2)
O4 O -0.0611(5) -0.06895(13) 0.5828(2)
O5 O -0.2704(3) -0.00434(13) 0.5500(2)
O6 O 0.1870(3) 0.18924(11) 1.10533(18)
O7 O 0.0481(3) 0.28181(11) 1.09440(19)
O8 O 0.0091(3) 0.35310(11) 0.9673(2)
O9 O 0.0554(3) 0.33297(13) 0.8032(2)
O10 O 0.1057(3) 0.24214(12) 0.73205(18)
C29 C 0.2473(4) 0.19081(17) 0.8909(3)
H41 H 0.3332 0.1950 0.8893
C30 C 0.1882(4) 0.14879(16) 0.8611(2)
H42 H 0.2334 0.1246 0.8391
C31 C 0.0605(3) 0.14134(14) 0.8630(2)
C32 C -0.0062(3) 0.09545(14) 0.8317(2)
C33 C 0.0574(4) 0.05429(18) 0.8138(3)
H43 H 0.1460 0.0550 0.8215
C34 C -0.0055(5) 0.01237(19) 0.7852(4)
H44 H 0.0406 -0.0150 0.7735
C35 C -0.1994(5) -0.03617(17) 0.7428(3)
H45 H -0.2854 -0.0347 0.7518
H46 H -0.1567 -0.0641 0.7717
H47 H -0.2004 -0.0395 0.6849
C36 C -0.1944(4) 0.0484(2) 0.7913(3)
H48 H -0.2828 0.0465 0.7839
C37 C -0.1362(4) 0.09083(19) 0.8195(3)
H49 H -0.1850 0.1175 0.8310
C38 C -0.0007(4) 0.17913(15) 0.8963(2)
H50 H -0.0866 0.1759 0.8984
C39 C 0.0623(4) 0.22055(15) 0.9259(3)
H51 H 0.0194 0.2452 0.9487
C40 C 0.2527(4) 0.27178(16) 0.9562(3)
H52 H 0.3418 0.2686 0.9550
H53 H 0.2422 0.2766 1.0120
H54 H 0.2181 0.2997 0.9234
N1 N 0.1853(3) 0.22672(12) 0.92286(18)
N2 N -0.1312(3) 0.00969(13) 0.7737(2)
F1 F 0.5092(3) 0.00146(12) 0.7879(2)
F2 F 0.3231(3) 0.08541(15) 0.7076(3)
F3 F 0.5260(3) 0.08014(14) 0.7662(4)
F4 F 0.3031(4) 0.00621(16) 0.7247(3)
F5 F 0.4550(5) 0.0347(2) 0.6636(3)
F6 F 0.3746(4) 0.05202(16) 0.8300(2)
P2 P 0.41514(12) 0.04296(5) 0.74603(8)
F7 F 0.6112(4) 0.27310(14) 0.9741(2)
F8 F 0.6748(3) 0.17865(13) 0.8823(2)
F9 F 0.7271(3) 0.25603(14) 0.8800(2)
F10 F 0.5573(3) 0.19504(14) 0.9789(2)
F11 F 0.7622(3) 0.21445(16) 0.9978(2)
F12 F 0.5217(3) 0.23598(12) 0.85936(17)
P1 P 0.64242(11) 0.22519(5) 0.92906(8)
loop_
_geom_bond_atom_site_label_1
_geom_bond_atom_site_label_2
_geom_bond_site_symmetry_1
_geom_bond_site_symmetry_2
C1 C2 1_555 1_555
C2 H1 1_555 1_555
C3 C2 1_555 1_555
H2 C3 1_555 1_555
C4 C3 1_555 1_555
C5 C4 1_555 1_555
H3 C5 1_555 1_555
C6 C1 1_555 1_555
H4 C6 1_555 1_555
C7 H5 1_555 1_555
H6 C7 1_555 1_555
C8 C7 1_555 1_555
H7 C8 1_555 1_555
H8 C8 1_555 1_555
C9 H9 1_555 1_555
H10 C9 1_555 1_555
C10 C9 1_555 1_555
H11 C10 1_555 1_555
H12 C10 1_555 1_555
C11 H13 1_555 1_555
H14 C11 1_555 1_555
C12 C11 1_555 1_555
H15 C12 1_555 1_555
H16 C12 1_555 1_555
C13 H17 1_555 1_555
H18 C13 1_555 1_555
C14 C13 1_555 1_555
H19 C14 1_555 1_555
H20 C14 1_555 1_555
C15 H21 1_555 1_555
H22 C15 1_555 1_555
C16 C15 1_555 1_555
C17 C16 1_555 1_555
C18 C17 1_555 1_555
C19 C18 1_555 1_555
C20 C19 1_555 1_555
H23 C20 1_555 1_555
H24 C20 1_555 1_555
C21 H25 1_555 1_555
H26 C21 1_555 1_555
C22 C21 1_555 1_555
H27 C22 1_555 1_555
H28 C22 1_555 1_555
C23 H29 1_555 1_555
H30 C23 1_555 1_555
C24 C23 1_555 1_555
H31 C24 1_555 1_555
H32 C24 1_555 1_555
C25 H33 1_555 1_555
H34 C25 1_555 1_555
C26 C25 1_555 1_555
H35 C26 1_555 1_555
H36 C26 1_555 1_555
C27 H37 1_555 1_555
H38 C27 1_555 1_555
C28 C27 1_555 1_555
H39 C28 1_555 1_555
H40 C28 1_555 1_555
C29 H41 1_555 1_555
C30 C29 1_555 1_555
H42 C30 1_555 1_555
C31 C30 1_555 1_555
C32 C31 1_555 1_555
C33 C32 1_555 1_555
H43 C33 1_555 1_555
C34 C33 1_555 1_555
H44 C34 1_555 1_555
C35 H45 1_555 1_555
H46 C35 1_555 1_555
H47 C35 1_555 1_555
C36 H48 1_555 1_555
C37 C32 1_555 1_555
H49 C37 1_555 1_555
C38 C31 1_555 1_555
H50 C38 1_555 1_555
C39 C38 1_555 1_555
H51 C39 1_555 1_555
C40 H52 1_555 1_555
H53 C40 1_555 1_555
H54 C40 1_555 1_555
F1 P2 1_555 1_555
F2 P2 1_555 1_555
F3 P2 1_555 1_555
F4 P2 1_555 1_555
F5 P2 1_555 1_555
F6 P2 1_555 1_555
F7 P1 1_555 1_555
F8 P1 1_555 1_555
F9 P1 1_555 1_555
F10 P1 1_555 1_555
F11 P1 1_555 1_555
F12 P1 1_555 1_555
N1 C29 1_555 1_555
N2 C34 1_555 1_555
O1 C4 1_555 1_555
O2 C8 1_555 1_555
O3 C10 1_555 1_555
O4 C12 1_555 1_555
O5 C14 1_555 1_555
O6 C1 1_555 1_555
O7 C26 1_555 1_555
O8 C24 1_555 1_555
O9 C22 1_555 1_555
O10 C20 1_555 1_555
C5 C6 1_555 1_555
C7 O1 1_555 1_555
C9 O2 1_555 1_555
C11 O3 1_555 1_555
C13 O4 1_555 1_555
C15 O5 1_555 1_555
C21 O10 1_555 1_555
C23 O9 1_555 1_555
C25 O8 1_555 1_555
C27 O7 1_555 1_555
C28 O6 1_555 1_555
C35 N2 1_555 1_555
C36 C37 1_555 1_555
C36 N2 1_555 1_555
C39 N1 1_555 1_555
C40 N1 1_555 1_555

#END
