
#######################################################################
#
#                 Cambridge Crystallographic Data Centre
#                                CCDC 
#
#######################################################################
#
# If this CIF has been generated from an entry in the Cambridge 
# Structural Database, then it will include bibliographic, chemical, 
# crystal, experimental, refinement or atomic coordinate data resulting 
# from the CCDC's data processing and validation procedures.
#
#######################################################################

data_IQEZIP
_chemical_formula_moiety         'C61 H45 N3 O2 S1'
_chemical_name_systematic        
"1-(4-t-butylphenyl)-2-(4'-((4'-(9H-carbazol-9-yl)biphenyl-4-yl)sulfonyl)biphenyl-4-yl)-1H-phenanthro[9,10-d]imidazole unknown solvate"
_symmetry_cell_setting           triclinic
_symmetry_space_group_name_H-M   'P -1'
_symmetry_Int_Tables_number      2
_space_group_name_Hall           '-P 1'
loop_
_symmetry_equiv_pos_site_id
_symmetry_equiv_pos_as_xyz
1 x,y,z
2 -x,-y,-z
_cell_length_a                   10.0674(5)
_cell_length_b                   10.1635(8)
_cell_length_c                   28.2487(8)
_cell_angle_alpha                89.930(4)
_cell_angle_beta                 80.730(3)
_cell_angle_gamma                74.382(6)
_cell_volume                     2744.63
_exptl_crystal_colour            colorless
_exptl_crystal_description       Block
_cell_formula_units_Z            2
loop_
_atom_site_label
_atom_site_type_symbol
_atom_site_fract_x
_atom_site_fract_y
_atom_site_fract_z
C1 C 0.7691(4) 0.0534(3) 0.27299(12)
C2 C 0.7723(4) 0.1789(4) 0.28917(13)
H1 H 0.8065 0.2373 0.2682
C3 C 0.7241(5) 0.2178(4) 0.33694(14)
H2 H 0.7267 0.3031 0.3480
C4 C 0.6720(5) 0.1334(4) 0.36878(14)
C5 C 0.6722(5) 0.0057(5) 0.35148(15)
H3 H 0.6400 -0.0539 0.3724
C6 C 0.7195(5) -0.0346(4) 0.30352(14)
H4 H 0.7178 -0.1199 0.2921
C7 C 0.6160(5) 0.1776(5) 0.42036(15)
C8 C 0.6539(8) 0.0998(7) 0.45619(18)
H5 H 0.7197 0.0156 0.4490
C9 C 0.5994(9) 0.1389(7) 0.50423(19)
H6 H 0.6266 0.0801 0.5283
C10 C 0.5060(6) 0.2636(6) 0.51578(16)
C11 C 0.4650(8) 0.3441(7) 0.47897(19)
H7 H 0.3991 0.4286 0.4857
C12 C 0.5203(8) 0.3011(7) 0.43230(19)
H8 H 0.4918 0.3579 0.4079
C13 C 0.3135(6) 0.3186(5) 0.58713(16)
C14 C 0.2996(7) 0.3669(5) 0.63502(16)
C15 C 0.1723(7) 0.3828(6) 0.66555(18)
H9 H 0.1584 0.4181 0.6969
C16 C 0.0683(8) 0.3448(8) 0.6480(2)
H10 H -0.0155 0.3502 0.6684
C17 C 0.0840(8) 0.2984(8) 0.6004(2)
H11 H 0.0101 0.2763 0.5895
C18 C 0.5203(7) 0.3493(6) 0.59741(17)
C19 C 0.4321(6) 0.3869(5) 0.64109(16)
C20 C 0.4756(8) 0.4375(7) 0.6791(2)
H12 H 0.4164 0.4635 0.7084
C21 C 0.6102(11) 0.4482(8) 0.6720(3)
H13 H 0.6425 0.4815 0.6973
C22 C 0.7000(8) 0.4115(8) 0.6287(3)
H14 H 0.7904 0.4206 0.6253
C23 C 0.6552(8) 0.3607(7) 0.5900(2)
H15 H 0.7139 0.3357 0.5606
C24 C 0.9974(3) -0.0995(3) 0.20841(11)
C25 C 1.0266(4) -0.2376(4) 0.21737(12)
H16 H 0.9538 -0.2774 0.2263
C26 C 1.1621(4) -0.3153(3) 0.21319(13)
H17 H 1.1804 -0.4079 0.2192
C27 C 1.2740(3) -0.2578(3) 0.19996(11)
C28 C 1.2415(4) -0.1188(3) 0.19164(14)
H18 H 1.3142 -0.0786 0.1829
C29 C 1.1060(4) -0.0386(4) 0.19579(14)
H19 H 1.0872 0.0544 0.1903
C30 C 1.4208(3) -0.3406(3) 0.19379(12)
C31 C 1.5253(4) -0.2827(4) 0.20275(16)
H20 H 1.5014 -0.1910 0.2128
C32 C 1.6619(4) -0.3574(4) 0.19719(17)
H21 H 1.7293 -0.3159 0.2036
C33 C 1.7019(3) -0.4944(3) 0.18206(11)
C34 C 1.5995(4) -0.5532(4) 0.17354(15)
H22 H 1.6237 -0.6450 0.1636
C35 C 1.4626(4) -0.4785(4) 0.17949(14)
H23 H 1.3953 -0.5212 0.1738
C36 C 1.8510(3) -0.5699(3) 0.17893(12)
C37 C 2.0679(4) -0.6866(3) 0.14928(13)
C38 C 2.0531(3) -0.6538(3) 0.19721(13)
C39 C 2.1657(4) -0.6985(3) 0.22388(15)
C40 C 2.1468(5) -0.6728(4) 0.27332(17)
H24 H 2.0594 -0.6251 0.2898
C41 C 2.2576(6) -0.7179(6) 0.2979(2)
H25 H 2.2456 -0.6987 0.3308
C42 C 2.3858(6) -0.7912(6) 0.2735(2)
H26 H 2.4596 -0.8236 0.2902
C43 C 2.4064(5) -0.8171(5) 0.2254(3)
H27 H 2.4947 -0.8655 0.2098
C44 C 2.2958(4) -0.7720(4) 0.19819(16)
C45 C 2.2004(4) -0.7558(4) 0.12089(14)
C46 C 2.3147(4) -0.7971(4) 0.14731(18)
C47 C 2.4474(5) -0.8629(5) 0.1199(2)
H28 H 2.5243 -0.8916 0.1355
C48 C 2.4651(7) -0.8850(7) 0.0713(3)
H29 H 2.5536 -0.9287 0.0546
C49 C 2.3549(7) -0.8441(7) 0.0465(2)
H30 H 2.3701 -0.8598 0.0134
C50 C 2.2204(6) -0.7793(5) 0.07062(18)
H31 H 2.1458 -0.7522 0.0539
C51 C 1.8891(4) -0.6454(4) 0.09238(12)
C52 C 1.8603(5) -0.5376(4) 0.06364(14)
H32 H 1.8664 -0.4524 0.0734
C53 C 1.8220(6) -0.5558(5) 0.01971(16)
H33 H 1.8029 -0.4809 0.0005
C54 C 1.8109(5) -0.6776(5) 0.00312(15)
C55 C 1.8414(6) -0.7865(5) 0.03393(15)
H34 H 1.8349 -0.8717 0.0243
C56 C 1.8803(5) -0.7723(4) 0.07733(14)
H35 H 1.9007 -0.8469 0.0966
C57 C 1.7747(9) -0.7006(7) -0.04602(18)
C58 C 1.767(2) -0.5792(16) -0.0744(7)
H36 H 1.7427 -0.5957 -0.1049
H37 H 1.8556 -0.5590 -0.0791
H38 H 1.6965 -0.5030 -0.0576
C59 C 1.6585(19) -0.755(3) -0.0460(9)
H39 H 1.6438 -0.7653 -0.0784
H40 H 1.5764 -0.6944 -0.0276
H41 H 1.6769 -0.8429 -0.0318
C60 C 1.8970(14) -0.7953(16) -0.0740(4)
H42 H 1.8775 -0.8122 -0.1052
H43 H 1.9195 -0.8798 -0.0580
H44 H 1.9748 -0.7563 -0.0772
C61 C 0.2088(7) 0.2850(6) 0.5694(2)
H45 H 0.2204 0.2542 0.5376
S1 S 0.82456(9) 0.00261(9) 0.21185(3)
O1 O 0.8274(3) 0.1225(2) 0.18534(8)
O2 O 0.7422(3) -0.0820(3) 0.19934(10)
N1 N 0.4497(6) 0.3067(5) 0.56446(14)
N2 N 1.9352(3) -0.6329(3) 0.13747(10)
N3 N 1.9189(3) -0.5791(3) 0.21517(10)
C62? C 1.6288(14) -0.6192(19) -0.0439(5)
H46? H 1.5993 -0.6298 -0.0740
H47? H 1.6219 -0.5245 -0.0377
H48? H 1.5700 -0.6501 -0.0187
C63? C 1.760(2) -0.8343(14) -0.0547(9)
H49? H 1.7365 -0.8404 -0.0860
H50? H 1.6880 -0.8511 -0.0309
H51? H 1.8472 -0.9012 -0.0530
C64? C 1.848(2) -0.636(2) -0.0827(5)
H52? H 1.8220 -0.6520 -0.1131
H53? H 1.9468 -0.6744 -0.0844
H54? H 1.8236 -0.5399 -0.0753
H55? H 1.8865 -0.5457 0.2440
loop_
_geom_bond_atom_site_label_1
_geom_bond_atom_site_label_2
_geom_bond_site_symmetry_1
_geom_bond_site_symmetry_2
C1 C2 1_555 1_555
C2 H1 1_555 1_555
C3 C2 1_555 1_555
H2 C3 1_555 1_555
C4 C3 1_555 1_555
C5 C4 1_555 1_555
H3 C5 1_555 1_555
C6 C1 1_555 1_555
H4 C6 1_555 1_555
C7 C4 1_555 1_555
C8 C7 1_555 1_555
H5 C8 1_555 1_555
C9 C8 1_555 1_555
H6 C9 1_555 1_555
C10 C9 1_555 1_555
C11 C10 1_555 1_555
H7 C11 1_555 1_555
C12 C7 1_555 1_555
H8 C12 1_555 1_555
C13 C14 1_555 1_555
C14 C15 1_555 1_555
C15 H9 1_555 1_555
C16 C15 1_555 1_555
H10 C16 1_555 1_555
C17 C16 1_555 1_555
H11 C17 1_555 1_555
C18 C19 1_555 1_555
C19 C14 1_555 1_555
C20 C19 1_555 1_555
H12 C20 1_555 1_555
C21 C20 1_555 1_555
H13 C21 1_555 1_555
C22 C21 1_555 1_555
H14 C22 1_555 1_555
C23 C18 1_555 1_555
H15 C23 1_555 1_555
C24 C25 1_555 1_555
C25 H16 1_555 1_555
C26 C25 1_555 1_555
H17 C26 1_555 1_555
C27 C26 1_555 1_555
C28 C27 1_555 1_555
H18 C28 1_555 1_555
C29 C24 1_555 1_555
H19 C29 1_555 1_555
C30 C27 1_555 1_555
C31 C30 1_555 1_555
H20 C31 1_555 1_555
C32 C31 1_555 1_555
H21 C32 1_555 1_555
C33 C32 1_555 1_555
C34 C33 1_555 1_555
H22 C34 1_555 1_555
C35 C30 1_555 1_555
H23 C35 1_555 1_555
C36 C33 1_555 1_555
C37 C38 1_555 1_555
C38 C39 1_555 1_555
C39 C40 1_555 1_555
C40 H24 1_555 1_555
C41 C40 1_555 1_555
H25 C41 1_555 1_555
C42 C41 1_555 1_555
H26 C42 1_555 1_555
C43 C42 1_555 1_555
H27 C43 1_555 1_555
C44 C39 1_555 1_555
C45 C37 1_555 1_555
C46 C44 1_555 1_555
C47 C46 1_555 1_555
H28 C47 1_555 1_555
C48 C47 1_555 1_555
H29 C48 1_555 1_555
C49 C48 1_555 1_555
H30 C49 1_555 1_555
C50 C45 1_555 1_555
H31 C50 1_555 1_555
C51 C52 1_555 1_555
C52 H32 1_555 1_555
C53 C52 1_555 1_555
H33 C53 1_555 1_555
C54 C53 1_555 1_555
C55 C54 1_555 1_555
H34 C55 1_555 1_555
C56 C51 1_555 1_555
H35 C56 1_555 1_555
C57 C54 1_555 1_555
C58 C57 1_555 1_555
H36 C58 1_555 1_555
H37 C58 1_555 1_555
H38 C58 1_555 1_555
C59 C57 1_555 1_555
H39 C59 1_555 1_555
H40 C59 1_555 1_555
H41 C59 1_555 1_555
C60 C57 1_555 1_555
H42 C60 1_555 1_555
H43 C60 1_555 1_555
H44 C60 1_555 1_555
C61 C13 1_555 1_555
H45 C61 1_555 1_555
S1 C1 1_555 1_555
O1 S1 1_555 1_555
O2 S1 1_555 1_555
N1 C10 1_555 1_555
N2 C36 1_555 1_555
N3 C36 1_555 1_555
C5 C6 1_555 1_555
C11 C12 1_555 1_555
C13 N1 1_555 1_555
C17 C61 1_555 1_555
C18 N1 1_555 1_555
C22 C23 1_555 1_555
C24 S1 1_555 1_555
C28 C29 1_555 1_555
C34 C35 1_555 1_555
C37 N2 1_555 1_555
C38 N3 1_555 1_555
C43 C44 1_555 1_555
C45 C46 1_555 1_555
C49 C50 1_555 1_555
C51 N2 1_555 1_555
C55 C56 1_555 1_555

#END
