
#######################################################################
#
#                 Cambridge Crystallographic Data Centre
#                                CCDC 
#
#######################################################################
#
# If this CIF has been generated from an entry in the Cambridge 
# Structural Database, then it will include bibliographic, chemical, 
# crystal, experimental, refinement or atomic coordinate data resulting 
# from the CCDC's data processing and validation procedures.
#
#######################################################################

data_IQIXIR
_chemical_formula_moiety         'C27 H22'
_chemical_name_systematic        1,2,3-triphenylindane
_symmetry_cell_setting           orthorhombic
_symmetry_space_group_name_H-M   'P n m a'
_symmetry_Int_Tables_number      62
_space_group_name_Hall           '-P 2ac 2n'
loop_
_symmetry_equiv_pos_site_id
_symmetry_equiv_pos_as_xyz
1 x,y,z
2 1/2-x,-y,1/2+z
3 1/2+x,1/2-y,1/2-z
4 -x,1/2+y,-z
5 -x,-y,-z
6 1/2+x,y,1/2-z
7 1/2-x,1/2+y,1/2+z
8 x,1/2-y,z
_cell_length_a                   16.7674(11)
_cell_length_b                   16.1813(12)
_cell_length_c                   7.3641(5)
_cell_angle_alpha                90
_cell_angle_beta                 90
_cell_angle_gamma                90
_cell_volume                     1998.02
_exptl_crystal_colour            colorless
_exptl_crystal_description       Block
_cell_formula_units_Z            4
loop_
_atom_site_label
_atom_site_type_symbol
_atom_site_fract_x
_atom_site_fract_y
_atom_site_fract_z
C1 C 0.35793(16) -0.03267(11) 0.3320(3)
H1 H 0.3386 -0.0768 0.3999
C2 C 0.30637(13) 0.02318(12) 0.2576(3)
H2 H 0.2518 0.0174 0.2762
C3 C 0.33493(10) 0.08826(9) 0.1550(2)
H3 H 0.2991 0.1255 0.1040
C4 C 0.41591(8) 0.09892(7) 0.12689(16)
C5 C 0.45676(9) 0.2500 0.1513(2)
H4 H 0.4108 0.2500 0.2333
C6 C 0.44757(7) 0.17328(7) 0.02514(15)
H5 H 0.5001 0.1593 -0.0245
C7 C 0.46755(11) 0.04198(9) 0.2040(2)
H6 H 0.5222 0.0478 0.1870
C8 C 0.43881(15) -0.02334(11) 0.3058(3)
H7 H 0.4742 -0.0611 0.3567
C9 C 0.39626(7) 0.20702(8) -0.12745(15)
C10 C 0.35412(8) 0.16397(9) -0.25899(16)
H8 H 0.3550 0.1065 -0.2610
C11 C 0.31071(9) 0.20730(11) -0.38721(18)
H9 H 0.2813 0.1788 -0.4740
C12 C 0.60610(11) 0.2500 0.1947(3)
H10 H 0.6120 0.2500 0.0691
C13 C 0.67327(12) 0.2500 0.3040(3)
H11 H 0.7237 0.2500 0.2512
C14 C 0.66606(12) 0.2500 0.4891(3)
H12 H 0.7112 0.2500 0.5625
C15 C 0.59192(12) 0.2500 0.5645(3)
H13 H 0.5866 0.2500 0.6902
C16 C 0.52405(11) 0.2500 0.4560(2)
H14 H 0.4739 0.2500 0.5099
C17 C 0.53034(9) 0.2500 0.2688(2)
C1G C 0.35793(16) 0.53267(11) 0.3320(3)
H1G H 0.3386 0.5768 0.3999
C2G C 0.30637(13) 0.47682(12) 0.2576(3)
H2G H 0.2518 0.4826 0.2762
C3G C 0.33493(10) 0.41174(9) 0.1550(2)
H3G H 0.2991 0.3745 0.1040
C4G C 0.41591(8) 0.40108(7) 0.12689(16)
C6G C 0.44757(7) 0.32672(7) 0.02514(15)
H5G H 0.5001 0.3407 -0.0245
C7G C 0.46755(11) 0.45802(9) 0.2040(2)
H6G H 0.5222 0.4522 0.1870
C8G C 0.43881(15) 0.52334(11) 0.3058(3)
H7G H 0.4742 0.5611 0.3567
C9G C 0.39626(7) 0.29298(8) -0.12745(15)
C10G C 0.35412(8) 0.33603(9) -0.25899(16)
H8G H 0.3550 0.3935 -0.2610
C11G C 0.31071(9) 0.29270(11) -0.38721(18)
H9G H 0.2813 0.3212 -0.4740
loop_
_geom_bond_atom_site_label_1
_geom_bond_atom_site_label_2
_geom_bond_site_symmetry_1
_geom_bond_site_symmetry_2
C1 H1 1_555 1_555
C2 C1 1_555 1_555
H2 C2 1_555 1_555
C3 C2 1_555 1_555
H3 C3 1_555 1_555
C4 C3 1_555 1_555
C5 H4 1_555 1_555
C6 C4 1_555 1_555
H5 C6 1_555 1_555
C7 C4 1_555 1_555
H6 C7 1_555 1_555
C8 C1 1_555 1_555
H7 C8 1_555 1_555
C9 C6 1_555 1_555
C10 C9 1_555 1_555
H8 C10 1_555 1_555
C11 C10 1_555 1_555
H9 C11 1_555 1_555
C12 H10 1_555 1_555
C13 C12 1_555 1_555
H11 C13 1_555 1_555
C14 C13 1_555 1_555
H12 C14 1_555 1_555
C15 C14 1_555 1_555
H13 C15 1_555 1_555
C16 C15 1_555 1_555
H14 C16 1_555 1_555
C17 C5 1_555 1_555
C1G H1G 1_555 1_555
C2G C1G 1_555 1_555
H2G C2G 1_555 1_555
C3G C2G 1_555 1_555
H3G C3G 1_555 1_555
C4G C3G 1_555 1_555
C6G C5 1_555 1_555
H5G C6G 1_555 1_555
C7G C4G 1_555 1_555
H6G C7G 1_555 1_555
C8G C1G 1_555 1_555
H7G C8G 1_555 1_555
C9G C9 1_555 1_555
C10G C9G 1_555 1_555
H8G C10G 1_555 1_555
C11G C11 1_555 1_555
H9G C11G 1_555 1_555
C5 C6 1_555 1_555
C7 C8 1_555 1_555
C12 C17 1_555 1_555
C16 C17 1_555 1_555
C4G C6G 1_555 1_555
C6G C9G 1_555 1_555
C7G C8G 1_555 1_555
C10G C11G 1_555 1_555

#END
