
#######################################################################
#
#                 Cambridge Crystallographic Data Centre
#                                CCDC 
#
#######################################################################
#
# If this CIF has been generated from an entry in the Cambridge 
# Structural Database, then it will include bibliographic, chemical, 
# crystal, experimental, refinement or atomic coordinate data resulting 
# from the CCDC's data processing and validation procedures.
#
#######################################################################

data_IQIXUD
_chemical_formula_moiety         'C30 H23 N1 O2'
_chemical_name_systematic        
2-((1,3-diphenyl-2,3-dihydro-1H-inden-2-yl)methyl)-1H-isoindole-1,3(2H)-dione
_symmetry_cell_setting           monoclinic
_symmetry_space_group_name_H-M   'C 2/c'
_symmetry_Int_Tables_number      15
_space_group_name_Hall           '-C 2yn'
loop_
_symmetry_equiv_pos_site_id
_symmetry_equiv_pos_as_xyz
1 x,y,z
2 -x,y,1/2-z
3 1/2+x,1/2+y,z
4 1/2-x,1/2+y,1/2-z
5 -x,-y,-z
6 x,-y,1/2+z
7 1/2-x,1/2-y,-z
8 1/2+x,1/2-y,1/2+z
_cell_length_a                   22.287(5)
_cell_length_b                   13.429(3)
_cell_length_c                   15.303(3)
_cell_angle_alpha                90
_cell_angle_beta                 103.690(4)
_cell_angle_gamma                90
_cell_volume                     4449.95
_exptl_crystal_colour            colorless
_exptl_crystal_description       block
_cell_formula_units_Z            8
loop_
_atom_site_label
_atom_site_type_symbol
_atom_site_fract_x
_atom_site_fract_y
_atom_site_fract_z
N1 N 0.10279(5) 0.18656(7) 1.07460(7)
O1 O 0.01800(4) 0.28675(7) 1.07179(7)
O2 O 0.20178(4) 0.12234(7) 1.10834(6)
C1 C 0.07245(6) 0.26982(9) 1.09851(8)
C2 C 0.12078(6) 0.32907(9) 1.16045(8)
C3 C 0.11642(7) 0.41933(10) 1.20252(9)
H1 H 0.0787 0.4514 1.1965
C4 C 0.17080(7) 0.45992(10) 1.25420(9)
H2 H 0.1694 0.5205 1.2831
C5 C 0.22707(7) 0.41182(10) 1.26336(9)
H3 H 0.2627 0.4410 1.2978
C6 C 0.23114(6) 0.32024(10) 1.22170(8)
H4 H 0.2687 0.2874 1.2282
C7 C 0.17691(6) 0.28053(9) 1.17033(8)
C8 C 0.16582(6) 0.18713(9) 1.11663(8)
C9 C 0.07565(6) 0.11777(8) 1.00171(8)
H5 H 0.0310 0.1235 0.9881
H6 H 0.0865 0.0500 1.0211
C10 C 0.09837(5) 0.13959(8) 0.91699(7)
H7 H 0.1436 0.1428 0.9338
C11 C 0.07391(5) 0.23750(8) 0.86744(8)
H8 H 0.0291 0.2391 0.8605
C12 C 0.09979(5) 0.33464(8) 0.91001(7)
C13 C 0.05965(6) 0.41180(9) 0.91951(9)
H9 H 0.0172 0.4018 0.9009
C14 C 0.08188(7) 0.50310(9) 0.95628(10)
H10 H 0.0545 0.5535 0.9622
C15 C 0.14489(7) 0.51848(9) 0.98395(9)
H11 H 0.1600 0.5793 1.0088
C16 C 0.18564(6) 0.44291(9) 0.97458(8)
H12 H 0.2280 0.4533 0.9932
C17 C 0.16314(6) 0.35176(9) 0.93731(8)
H13 H 0.1906 0.3019 0.9306
C18 C 0.08604(5) 0.21784(9) 0.77545(7)
C19 C 0.09373(6) 0.28500(9) 0.70998(8)
H14 H 0.0918 0.3532 0.7195
C20 C 0.10444(6) 0.24836(10) 0.62978(8)
H15 H 0.1091 0.2926 0.5851
C21 C 0.10817(7) 0.14640(10) 0.61583(8)
H16 H 0.1159 0.1231 0.5623
C22 C 0.10041(6) 0.07864(9) 0.68188(8)
H17 H 0.1028 0.0104 0.6728
C23 C 0.08902(5) 0.11549(9) 0.76123(7)
C24 C 0.07902(5) 0.05910(8) 0.84258(7)
H18 H 0.0346 0.0471 0.8339
C25 C 0.11183(5) -0.03961(8) 0.86029(7)
C26 C 0.07902(6) -0.12661(9) 0.86704(8)
H19 H 0.0365 -0.1233 0.8607
C27 C 0.10888(7) -0.21848(9) 0.88316(9)
H20 H 0.0864 -0.2758 0.8877
C28 C 0.17197(7) -0.22389(10) 0.89238(9)
H21 H 0.1922 -0.2847 0.9040
C29 C 0.20500(7) -0.13820(10) 0.88419(10)
H22 H 0.2474 -0.1420 0.8893
C30 C 0.17523(6) -0.04673(9) 0.86838(9)
H23 H 0.1979 0.0102 0.8632
loop_
_geom_bond_atom_site_label_1
_geom_bond_atom_site_label_2
_geom_bond_site_symmetry_1
_geom_bond_site_symmetry_2
N1 C1 1_555 1_555
O1 C1 1_555 1_555
O2 C8 1_555 1_555
C1 C2 1_555 1_555
C2 C3 1_555 1_555
C3 H1 1_555 1_555
C4 C3 1_555 1_555
H2 C4 1_555 1_555
C5 C4 1_555 1_555
H3 C5 1_555 1_555
C6 C5 1_555 1_555
H4 C6 1_555 1_555
C7 C2 1_555 1_555
C8 N1 1_555 1_555
C9 N1 1_555 1_555
H5 C9 1_555 1_555
H6 C9 1_555 1_555
C10 C9 1_555 1_555
H7 C10 1_555 1_555
C11 C10 1_555 1_555
H8 C11 1_555 1_555
C12 C11 1_555 1_555
C13 C12 1_555 1_555
H9 C13 1_555 1_555
C14 C13 1_555 1_555
H10 C14 1_555 1_555
C15 C14 1_555 1_555
H11 C15 1_555 1_555
C16 C15 1_555 1_555
H12 C16 1_555 1_555
C17 C12 1_555 1_555
H13 C17 1_555 1_555
C18 C11 1_555 1_555
C19 C18 1_555 1_555
H14 C19 1_555 1_555
C20 C19 1_555 1_555
H15 C20 1_555 1_555
C21 C20 1_555 1_555
H16 C21 1_555 1_555
C22 C21 1_555 1_555
H17 C22 1_555 1_555
C23 C18 1_555 1_555
C24 C10 1_555 1_555
H18 C24 1_555 1_555
C25 C24 1_555 1_555
C26 C25 1_555 1_555
H19 C26 1_555 1_555
C27 C26 1_555 1_555
H20 C27 1_555 1_555
C28 C27 1_555 1_555
H21 C28 1_555 1_555
C29 C28 1_555 1_555
H22 C29 1_555 1_555
C30 C25 1_555 1_555
H23 C30 1_555 1_555
C6 C7 1_555 1_555
C7 C8 1_555 1_555
C16 C17 1_555 1_555
C22 C23 1_555 1_555
C23 C24 1_555 1_555
C29 C30 1_555 1_555

#END
