
#######################################################################
#
#                 Cambridge Crystallographic Data Centre
#                                CCDC 
#
#######################################################################
#
# If this CIF has been generated from an entry in the Cambridge 
# Structural Database, then it will include bibliographic, chemical, 
# crystal, experimental, refinement or atomic coordinate data resulting 
# from the CCDC's data processing and validation procedures.
#
#######################################################################

data_IQOYAQ
_chemical_formula_moiety         'C29 H37 Br1 O3,C1 H2 Cl2'
_chemical_name_systematic        
'(5S,8R,10S,13R,14S,17R)-17-(4-(4-bromophenyl)butan-2-yl)-10,13-dimethyldecahydro-1H-cyclopenta[a]phenanthrene-3,7,12(2H,4H,6H)-trione dichloromethane solvate'
_symmetry_cell_setting           monoclinic
_symmetry_space_group_name_H-M   'C 2'
_symmetry_Int_Tables_number      5
_space_group_name_Hall           'C 2y'
loop_
_symmetry_equiv_pos_site_id
_symmetry_equiv_pos_as_xyz
1 x,y,z
2 -x,y,-z
3 1/2+x,1/2+y,z
4 1/2-x,1/2+y,-z
_cell_length_a                   38.768(6)
_cell_length_b                   6.6812(10)
_cell_length_c                   11.1118(15)
_cell_angle_alpha                90
_cell_angle_beta                 100.947(4)
_cell_angle_gamma                90
_cell_volume                     2825.77
_exptl_crystal_colour            colorless
_exptl_crystal_description       prism
_cell_formula_units_Z            4
loop_
_atom_site_label
_atom_site_type_symbol
_atom_site_fract_x
_atom_site_fract_y
_atom_site_fract_z
Br1 Br 0.51853(2) 0.79298(19) 1.23866(12)
O1 O 0.35017(12) 0.1667(6) 0.5521(3)
O2 O 0.26058(10) 0.8494(5) 0.5413(3)
O3 O 0.22115(12) 0.4951(7) 0.0499(4)
C1 C 0.27974(14) 0.8187(8) 0.2506(5)
H1 H 0.2794 0.9032 0.1761
C2 C 0.35584(14) 0.4875(8) 0.6538(5)
C3 C 0.35342(15) 0.3470(8) 0.5457(5)
C4 C 0.31379(15) 0.6970(8) 0.2707(5)
C5 C 0.24671(17) 0.5291(8) 0.1311(5)
C6 C 0.38809(15) 0.6256(9) 0.6654(5)
H2 H 0.4091 0.5448 0.6639
H3 H 0.3910 0.6996 0.7428
H4 H 0.3847 0.7202 0.5967
C7 C 0.31604(15) 0.7262(8) 0.5055(4)
H5 H 0.3362 0.8216 0.5137
C8 C 0.31789(15) 0.5835(8) 0.3947(4)
H6 H 0.2973 0.4914 0.3874
C9 C 0.32011(14) 0.6056(8) 0.6242(4)
H7 H 0.3008 0.5042 0.6127
C10 C 0.24647(15) 0.6867(9) 0.2256(5)
H8 H 0.2437 0.6215 0.3032
H9 H 0.2258 0.7739 0.1991
C11 C 0.35090(15) 0.4504(9) 0.4225(5)
H10 H 0.3499 0.3485 0.3572
H11 H 0.3721 0.5335 0.4234
C12 C 0.31919(16) 0.7149(8) 0.7435(5)
H12 H 0.2947 0.7448 0.7516
H13 H 0.3326 0.8416 0.7482
C13 C 0.28279(15) 0.8458(8) 0.4766(5)
C14 C 0.27793(16) 0.9614(8) 0.3578(5)
H14 H 0.2965 1.0643 0.3630
H15 H 0.2549 1.0301 0.3435
C15 C 0.38610(14) 0.3101(10) 0.8598(4)
H16 H 0.4024 0.4243 0.8872
C16 C 0.34511(16) 0.8383(9) 0.2691(5)
H17 H 0.3399 0.9251 0.1968
H18 H 0.3662 0.7589 0.2660
H19 H 0.3491 0.9206 0.3434
C17 C 0.40563(17) 0.1564(9) 0.7936(5)
H20 H 0.3898 0.0452 0.7639
H21 H 0.4261 0.1054 0.8509
H22 H 0.4134 0.2211 0.7242
C18 C 0.35282(15) 0.3936(9) 0.7779(5)
H23 H 0.3352 0.2830 0.7617
C19 C 0.33651(16) 0.5666(9) 0.8432(5)
H24 H 0.3188 0.5127 0.8879
H25 H 0.3550 0.6349 0.9026
C20 C 0.40675(18) 0.1415(11) 1.0718(6)
H26 H 0.3976 0.0911 1.1435
H27 H 0.4181 0.0278 1.0374
C21 C 0.31199(17) 0.5542(9) 0.1621(5)
H28 H 0.3113 0.6344 0.0868
H29 H 0.3337 0.4729 0.1748
C22 C 0.37562(17) 0.2140(10) 0.9749(5)
H30 H 0.3621 0.3132 1.0132
H31 H 0.3599 0.0988 0.9486
C23 C 0.43406(16) 0.2976(11) 1.1148(5)
C24 C 0.28043(18) 0.4131(9) 0.1420(5)
H32 H 0.2801 0.3343 0.0663
H33 H 0.2826 0.3186 0.2116
C25 C 0.46896(18) 0.2696(12) 1.1106(6)
H34 H 0.4761 0.1459 1.0809
C26 C 0.4937(2) 0.4132(13) 1.1476(7)
H35 H 0.5175 0.3885 1.1432
C27 C 0.4844(2) 0.5907(12) 1.1905(7)
C28 C 0.4253(2) 0.4803(13) 1.1590(7)
H36 H 0.4015 0.5052 1.1639
C29 C 0.4499(2) 0.6280(14) 1.1964(8)
H37 H 0.4432 0.7529 1.2256
loop_
_geom_bond_atom_site_label_1
_geom_bond_atom_site_label_2
_geom_bond_site_symmetry_1
_geom_bond_site_symmetry_2
Br1 C27 1_555 1_555
O1 C3 1_555 1_555
O2 C13 1_555 1_555
O3 C5 1_555 1_555
C1 H1 1_555 1_555
C2 C3 1_555 1_555
C3 C11 1_555 1_555
C4 C1 1_555 1_555
C5 C10 1_555 1_555
C6 C2 1_555 1_555
H2 C6 1_555 1_555
H3 C6 1_555 1_555
H4 C6 1_555 1_555
C7 H5 1_555 1_555
C8 C4 1_555 1_555
H6 C8 1_555 1_555
C9 C2 1_555 1_555
H7 C9 1_555 1_555
C10 C1 1_555 1_555
H8 C10 1_555 1_555
H9 C10 1_555 1_555
C11 C8 1_555 1_555
H10 C11 1_555 1_555
H11 C11 1_555 1_555
C12 C9 1_555 1_555
H12 C12 1_555 1_555
H13 C12 1_555 1_555
C13 C7 1_555 1_555
C14 C1 1_555 1_555
H14 C14 1_555 1_555
H15 C14 1_555 1_555
C15 H16 1_555 1_555
C16 C4 1_555 1_555
H17 C16 1_555 1_555
H18 C16 1_555 1_555
H19 C16 1_555 1_555
C17 C15 1_555 1_555
H20 C17 1_555 1_555
H21 C17 1_555 1_555
H22 C17 1_555 1_555
C18 C2 1_555 1_555
H23 C18 1_555 1_555
C19 C12 1_555 1_555
H24 C19 1_555 1_555
H25 C19 1_555 1_555
C20 H26 1_555 1_555
H27 C20 1_555 1_555
C21 C4 1_555 1_555
H28 C21 1_555 1_555
H29 C21 1_555 1_555
C22 C15 1_555 1_555
H30 C22 1_555 1_555
H31 C22 1_555 1_555
C23 C20 1_555 1_555
C24 C5 1_555 1_555
H32 C24 1_555 1_555
H33 C24 1_555 1_555
C25 C23 1_555 1_555
H34 C25 1_555 1_555
C26 C25 1_555 1_555
H35 C26 1_555 1_555
C27 C26 1_555 1_555
C28 C23 1_555 1_555
H36 C28 1_555 1_555
C29 C27 1_555 1_555
H37 C29 1_555 1_555
C7 C8 1_555 1_555
C7 C9 1_555 1_555
C13 C14 1_555 1_555
C15 C18 1_555 1_555
C18 C19 1_555 1_555
C20 C22 1_555 1_555
C21 C24 1_555 1_555
C28 C29 1_555 1_555

#END
