
#######################################################################
#
#                 Cambridge Crystallographic Data Centre
#                                CCDC 
#
#######################################################################
#
# If this CIF has been generated from an entry in the Cambridge 
# Structural Database, then it will include bibliographic, chemical, 
# crystal, experimental, refinement or atomic coordinate data resulting 
# from the CCDC's data processing and validation procedures.
#
#######################################################################

data_IQULUC
_chemical_compound_source        'Aspergillus puniceus F02Z-1744'
_chemical_name_common            'Oxepinamide D'
_chemical_formula_moiety         'C19 H17 N3 O4'
_chemical_name_systematic        
(8S,11R)-11-benzyl-11-hydroxy-8-methyl-8,9,10,11-tetrahydro-6H-oxepino[2,3-d]pyrazino[1,2-a]pyrimidine-6,9-dione
_chemical_properties_biological  'LXR agonist'
_symmetry_cell_setting           monoclinic
_symmetry_space_group_name_H-M   'P 21'
_symmetry_Int_Tables_number      4
_space_group_name_Hall           'P 2yb'
loop_
_symmetry_equiv_pos_site_id
_symmetry_equiv_pos_as_xyz
1 x,y,z
2 -x,1/2+y,-z
_cell_length_a                   9.329
_cell_length_b                   10.284
_cell_length_c                   9.457
_cell_angle_alpha                90
_cell_angle_beta                 108.59
_cell_angle_gamma                90
_cell_volume                     859.96
_exptl_crystal_colour            yellow
_exptl_crystal_description       prism
_chemical_melting_point          '100-102 deg.C'
_cell_formula_units_Z            2
_exptl_crystal_recrystallization_method methanol/chloroform
loop_
_atom_site_label
_atom_site_type_symbol
_atom_site_fract_x
_atom_site_fract_y
_atom_site_fract_z
N1 N 0.3736(2) 0.22787(18) 0.42944(19)
H1 H 0.3900 0.1874 0.5127
N2 N 0.45547(18) 0.53704(17) 0.28593(18)
N3 N 0.31022(18) 0.36105(17) 0.16085(17)
O1 O 0.2771(2) 0.04301(15) 0.3073(2)
O2 O 0.58659(15) 0.34865(15) 0.50532(15)
H2 H 0.6209 0.4170 0.5472
O3 O 0.2209(3) 0.3527(2) -0.09418(17)
O4 O 0.49794(18) 0.71554(18) 0.16417(18)
C1 C 0.3009(2) 0.1614(2) 0.3066(2)
C2 C 0.1928(2) 0.4733(2) 0.4709(2)
C3 C 0.0895(3) 0.3984(3) 0.5129(3)
H3 H 0.1235 0.3291 0.5782
C4 C 0.4284(2) 0.36024(19) 0.4391(2)
C5 C -0.0628(3) 0.4255(4) 0.4591(4)
H4 H -0.1308 0.3754 0.4893
C6 C 0.3953(2) 0.4220(2) 0.2854(2)
C7 C -0.1141(3) 0.5254(4) 0.3616(4)
H5 H -0.2172 0.5426 0.3249
C8 C -0.0140(3) 0.6021(4) 0.3162(3)
H6 H -0.0498 0.6696 0.2486
C9 C 0.4285(2) 0.5966(2) 0.1521(2)
C10 C 0.1412(3) 0.5766(3) 0.3733(3)
H7 H 0.2096 0.6287 0.3461
C11 C 0.3999(3) 0.8176(2) 0.0998(3)
H8 H 0.3817 0.8810 0.1620
C12 C 0.3318(3) 0.8282(3) -0.0459(3)
H9 H 0.2803 0.9053 -0.0803
C13 C 0.3306(3) 0.7306(3) -0.1558(3)
H10 H 0.3263 0.7576 -0.2509
C14 C 0.3353(3) 0.6023(3) -0.1273(3)
H11 H 0.3276 0.5463 -0.2067
C15 C 0.3515(2) 0.5432(2) 0.0170(2)
C16 C 0.2887(3) 0.4155(2) 0.0161(2)
C17 C 0.2365(2) 0.2337(2) 0.1617(2)
H12 H 0.2528 0.1803 0.0824
C18 C 0.0655(3) 0.2500(3) 0.1276(3)
H13 H 0.0242 0.2959 0.0351
H14 H 0.0462 0.2984 0.2064
H15 H 0.0189 0.1659 0.1199
C19 C 0.3593(2) 0.4444(2) 0.5363(2)
H16 H 0.3763 0.4007 0.6311
H17 H 0.4135 0.5264 0.5565
loop_
_geom_bond_atom_site_label_1
_geom_bond_atom_site_label_2
_geom_bond_site_symmetry_1
_geom_bond_site_symmetry_2
N1 H1 1_555 1_555
N2 C6 1_555 1_555
N3 C6 1_555 1_555
O1 C1 1_555 1_555
O2 H2 1_555 1_555
O3 C16 1_555 1_555
O4 C9 1_555 1_555
C1 N1 1_555 1_555
C2 C3 1_555 1_555
C3 H3 1_555 1_555
C4 N1 1_555 1_555
C5 C3 1_555 1_555
H4 C5 1_555 1_555
C6 C4 1_555 1_555
C7 C5 1_555 1_555
H5 C7 1_555 1_555
C8 C7 1_555 1_555
H6 C8 1_555 1_555
C9 N2 1_555 1_555
C10 C2 1_555 1_555
H7 C10 1_555 1_555
C11 O4 1_555 1_555
H8 C11 1_555 1_555
C12 C11 1_555 1_555
H9 C12 1_555 1_555
C13 C12 1_555 1_555
H10 C13 1_555 1_555
C14 C13 1_555 1_555
H11 C14 1_555 1_555
C15 C9 1_555 1_555
C16 N3 1_555 1_555
C17 N3 1_555 1_555
H12 C17 1_555 1_555
C18 C17 1_555 1_555
H13 C18 1_555 1_555
H14 C18 1_555 1_555
H15 C18 1_555 1_555
C19 C2 1_555 1_555
H16 C19 1_555 1_555
H17 C19 1_555 1_555
O2 C4 1_555 1_555
C1 C17 1_555 1_555
C4 C19 1_555 1_555
C8 C10 1_555 1_555
C14 C15 1_555 1_555
C15 C16 1_555 1_555

#END
