
#######################################################################
#
#                 Cambridge Crystallographic Data Centre
#                                CCDC 
#
#######################################################################
#
# If this CIF has been generated from an entry in the Cambridge 
# Structural Database, then it will include bibliographic, chemical, 
# crystal, experimental, refinement or atomic coordinate data resulting 
# from the CCDC's data processing and validation procedures.
#
#######################################################################

data_IRADEM
_chemical_formula_moiety         'C19 H26 O3'
_chemical_name_systematic        1\a-hydroxyandrost-4-ene-3,17-dione
_symmetry_cell_setting           orthorhombic
_symmetry_space_group_name_H-M   'P 21 21 21'
_symmetry_Int_Tables_number      19
_space_group_name_Hall           'P 2ac 2ab'
loop_
_symmetry_equiv_pos_site_id
_symmetry_equiv_pos_as_xyz
1 x,y,z
2 1/2-x,-y,1/2+z
3 1/2+x,1/2-y,-z
4 -x,1/2+y,1/2-z
_cell_length_a                   7.6009(4)
_cell_length_b                   11.6956(7)
_cell_length_c                   36.8473(15)
_cell_angle_alpha                90
_cell_angle_beta                 90
_cell_angle_gamma                90
_cell_volume                     3275.62
_cell_formula_units_Z            8
loop_
_atom_site_label
_atom_site_type_symbol
_atom_site_fract_x
_atom_site_fract_y
_atom_site_fract_z
O1 O 0.7074(6) 1.0342(4) 0.3175(1)
O2 O 0.9545(6) 0.6322(4) 0.1840(1)
H1 H 1.0452 0.5960 0.1875
O3 O 0.8603(8) 0.4878(4) 0.0945(1)
C1 C 0.6257(8) 1.0126(5) 0.2900(1)
C2 C 0.4285(8) 0.9998(6) 0.2873(2)
H2 H 0.3701 1.0686 0.2957
H3 H 0.3885 0.9357 0.3018
C3 C 0.3895(8) 0.9792(6) 0.2469(2)
H4 H 0.2903 0.9280 0.2437
H5 H 0.3665 1.0503 0.2342
C4 C 0.5618(7) 0.9239(5) 0.2340(1)
H6 H 0.5656 0.8488 0.2458
C5 C 0.7079(7) 0.9947(5) 0.2524(1)
C6 C 0.7273(9) 1.1158(5) 0.2366(2)
H7 H 0.6150 1.1533 0.2367
H8 H 0.7701 1.1109 0.2121
H9 H 0.8090 1.1587 0.2511
C7 C 0.8801(7) 0.9296(5) 0.2511(1)
H10 H 0.8710 0.8608 0.2657
H11 H 0.9737 0.9765 0.2610
C8 C 0.9234(7) 0.8974(5) 0.2114(1)
H12 H 0.9501 0.9667 0.1980
H13 H 1.0278 0.8497 0.2112
C9 C 0.7738(6) 0.8338(4) 0.1921(1)
H14 H 0.7542 0.7637 0.2061
C10 C 0.6004(7) 0.9010(4) 0.1940(1)
H15 H 0.6148 0.9740 0.1813
C11 C 0.4505(7) 0.8336(5) 0.1763(1)
H16 H 0.4256 0.7664 0.1909
H17 H 0.3454 0.8805 0.1759
C12 C 0.4947(8) 0.7966(6) 0.1378(2)
H18 H 0.4029 0.7461 0.1290
H19 H 0.4973 0.8634 0.1222
C13 C 0.6691(7) 0.7359(5) 0.1355(1)
C14 C 0.8252(6) 0.7946(4) 0.1532(1)
C15 C 0.8786(8) 0.8966(5) 0.1290(1)
H20 H 0.7909 0.9553 0.1307
H21 H 0.8884 0.8715 0.1043
H22 H 0.9898 0.9262 0.1370
C16 C 0.9822(7) 0.7120(5) 0.1557(1)
H23 H 1.0884 0.7563 0.1611
C17 C 1.0125(8) 0.6457(5) 0.1205(1)
H24 H 1.0439 0.6985 0.1013
H25 H 1.1094 0.5928 0.1238
C18 C 0.8500(9) 0.5808(5) 0.1099(1)
C19 C 0.6831(8) 0.6378(5) 0.1170(1)
H26 H 0.5807 0.6041 0.1082
O4 O 0.6278(7) 0.7521(5) 0.3146(1)
O5 O 0.4312(7) 0.3753(4) 0.4551(1)
H27 H 0.3356 0.3437 0.4527
O6 O 0.5848(6) 0.2281(4) 0.5401(1)
C20 C 0.7177(9) 0.7507(5) 0.3414(1)
C21 C 0.6522(7) 0.7343(5) 0.3805(1)
C22 C 0.8057(7) 0.6661(5) 0.3962(1)
H28 H 0.8026 0.5916 0.3840
C23 C 0.9705(8) 0.7261(6) 0.3821(2)
H29 H 1.0710 0.6750 0.3820
H30 H 0.9981 0.7932 0.3964
C24 C 0.9165(9) 0.7590(7) 0.3432(2)
H31 H 0.9546 0.8363 0.3377
H32 H 0.9699 0.7073 0.3258
C25 C 0.6349(10) 0.8557(5) 0.3963(2)
H33 H 0.7461 0.8943 0.3946
H34 H 0.6002 0.8508 0.4213
H35 H 0.5478 0.8975 0.3829
C26 C 0.4845(8) 0.6661(6) 0.3844(2)
H36 H 0.4920 0.5973 0.3697
H37 H 0.3858 0.7110 0.3757
C27 C 0.4545(7) 0.6334(6) 0.4246(2)
H38 H 0.4289 0.7020 0.4384
H39 H 0.3529 0.5835 0.4262
C28 C 0.6137(7) 0.5729(4) 0.4416(1)
H40 H 0.6292 0.5019 0.4278
C29 C 0.7846(7) 0.6407(4) 0.4365(1)
H41 H 0.7739 0.7133 0.4496
C30 C 0.9416(8) 0.5761(5) 0.4515(2)
H42 H 0.9618 0.5085 0.4368
H43 H 1.0454 0.6241 0.4498
C31 C 0.9155(8) 0.5404(5) 0.4906(2)
H44 H 1.0120 0.4914 0.4980
H45 H 0.9176 0.6079 0.5060
C32 C 0.7449(8) 0.4782(5) 0.4963(1)
C33 C 0.5420(9) 0.6403(5) 0.5064(1)
H46 H 0.4279 0.6703 0.5006
H47 H 0.6294 0.6983 0.5025
H48 H 0.5441 0.6171 0.5314
C34 C 0.5818(7) 0.5357(5) 0.4818(1)
C35 C 0.4222(8) 0.4538(5) 0.4837(1)
H49 H 0.3139 0.4986 0.4813
C36 C 0.4177(9) 0.3885(6) 0.5199(2)
H50 H 0.4015 0.4425 0.5397
H51 H 0.3184 0.3364 0.5200
C37 C 0.5820(9) 0.3231(5) 0.5260(1)
C38 C 0.7423(9) 0.3816(6) 0.5158(2)
H52 H 0.8490 0.3505 0.5232
loop_
_geom_bond_atom_site_label_1
_geom_bond_atom_site_label_2
_geom_bond_site_symmetry_1
_geom_bond_site_symmetry_2
O1 C1 1_555 1_555
O2 H1 1_555 1_555
O3 C18 1_555 1_555
C1 C2 1_555 1_555
C2 H2 1_555 1_555
H3 C2 1_555 1_555
C3 C2 1_555 1_555
H4 C3 1_555 1_555
H5 C3 1_555 1_555
C4 C3 1_555 1_555
H6 C4 1_555 1_555
C5 C1 1_555 1_555
C6 C5 1_555 1_555
H7 C6 1_555 1_555
H8 C6 1_555 1_555
H9 C6 1_555 1_555
C7 C5 1_555 1_555
H10 C7 1_555 1_555
H11 C7 1_555 1_555
C8 C7 1_555 1_555
H12 C8 1_555 1_555
H13 C8 1_555 1_555
C9 C8 1_555 1_555
H14 C9 1_555 1_555
C10 C4 1_555 1_555
H15 C10 1_555 1_555
C11 C10 1_555 1_555
H16 C11 1_555 1_555
H17 C11 1_555 1_555
C12 C11 1_555 1_555
H18 C12 1_555 1_555
H19 C12 1_555 1_555
C13 C12 1_555 1_555
C14 C9 1_555 1_555
C15 C14 1_555 1_555
H20 C15 1_555 1_555
H21 C15 1_555 1_555
H22 C15 1_555 1_555
C16 O2 1_555 1_555
H23 C16 1_555 1_555
C17 C16 1_555 1_555
H24 C17 1_555 1_555
H25 C17 1_555 1_555
C18 C17 1_555 1_555
C19 C13 1_555 1_555
H26 C19 1_555 1_555
O4 C20 1_555 1_555
O5 H27 1_555 1_555
O6 C37 1_555 1_555
C20 C21 1_555 1_555
C21 C22 1_555 1_555
C22 H28 1_555 1_555
C23 C22 1_555 1_555
H29 C23 1_555 1_555
H30 C23 1_555 1_555
C24 C20 1_555 1_555
H31 C24 1_555 1_555
H32 C24 1_555 1_555
C25 C21 1_555 1_555
H33 C25 1_555 1_555
H34 C25 1_555 1_555
H35 C25 1_555 1_555
C26 C21 1_555 1_555
H36 C26 1_555 1_555
H37 C26 1_555 1_555
C27 C26 1_555 1_555
H38 C27 1_555 1_555
H39 C27 1_555 1_555
C28 C27 1_555 1_555
H40 C28 1_555 1_555
C29 C22 1_555 1_555
H41 C29 1_555 1_555
C30 C29 1_555 1_555
H42 C30 1_555 1_555
H43 C30 1_555 1_555
C31 C30 1_555 1_555
H44 C31 1_555 1_555
H45 C31 1_555 1_555
C32 C31 1_555 1_555
C33 H46 1_555 1_555
H47 C33 1_555 1_555
H48 C33 1_555 1_555
C34 C28 1_555 1_555
C35 O5 1_555 1_555
H49 C35 1_555 1_555
C36 C35 1_555 1_555
H50 C36 1_555 1_555
H51 C36 1_555 1_555
C37 C36 1_555 1_555
C38 C32 1_555 1_555
H52 C38 1_555 1_555
C4 C5 1_555 1_555
C9 C10 1_555 1_555
C13 C14 1_555 1_555
C14 C16 1_555 1_555
C18 C19 1_555 1_555
C23 C24 1_555 1_555
C28 C29 1_555 1_555
C32 C34 1_555 1_555
C33 C34 1_555 1_555
C34 C35 1_555 1_555
C37 C38 1_555 1_555

#END
