
#######################################################################
#
#                 Cambridge Crystallographic Data Centre
#                                CCDC 
#
#######################################################################
#
# If this CIF has been generated from an entry in the Cambridge 
# Structural Database, then it will include bibliographic, chemical, 
# crystal, experimental, refinement or atomic coordinate data resulting 
# from the CCDC's data processing and validation procedures.
#
#######################################################################

data_IREKAR
_chemical_formula_moiety         'C9 H11 N1 O2,C8 H8 O3'
_chemical_name_systematic        '(R)-Phenylalanine (R)-mandelic acid'
_symmetry_cell_setting           monoclinic
_symmetry_space_group_name_H-M   'C 2'
_symmetry_Int_Tables_number      5
_space_group_name_Hall           'C 2y'
loop_
_symmetry_equiv_pos_site_id
_symmetry_equiv_pos_as_xyz
1 x,y,z
2 -x,y,-z
3 1/2+x,1/2+y,z
4 1/2-x,1/2+y,-z
_cell_length_a                   19.391(3)
_cell_length_b                   5.715(4)
_cell_length_c                   15.755(3)
_cell_angle_alpha                90
_cell_angle_beta                 115.23(1)
_cell_angle_gamma                90
_cell_volume                     1579.4
_exptl_crystal_colour            colorless
_exptl_crystal_description       prismatic
_cell_formula_units_Z            4
loop_
_atom_site_label
_atom_site_type_symbol
_atom_site_fract_x
_atom_site_fract_y
_atom_site_fract_z
O1 O 0.52480(10) 0.7752(3) 0.39144(14)
O2 O 0.63538(9) 0.6384(4) 0.40302(14)
N1 N 0.59640(11) 0.2005(4) 0.43391(16)
C1 C 0.44717(15) 0.4525(6) 0.20537(19)
C2 C 0.4648(2) 0.6417(7) 0.1642(2)
C3 C 0.4087(3) 0.7933(9) 0.1079(3)
C4 C 0.3345(3) 0.7582(12) 0.0916(3)
C5 C 0.3162(2) 0.5682(12) 0.1314(3)
C6 C 0.37164(17) 0.4177(7) 0.1876(2)
C7 C 0.50859(16) 0.2949(6) 0.2711(2)
C8 C 0.53537(15) 0.3658(5) 0.3734(2)
C9 C 0.56830(13) 0.6130(5) 0.39128(17)
H1 H 0.5151 0.6674 0.1748
H2 H 0.4217 0.9205 0.0805
H3 H 0.2969 0.8621 0.0540
H4 H 0.2657 0.5418 0.1199
H5 H 0.3585 0.2902 0.2143
H6 H 0.4911 0.1375 0.2610
H7 H 0.5488 0.2895 0.2490
H8 H 0.4953 0.3556 0.3930
H9 H 0.6368 0.2026 0.4179
H10 H 0.6119 0.2444 0.4982
H11 H 0.5738 0.0517 0.4211
O3 O 0.36794(11) 0.4822(4) 0.40182(15)
O4 O 0.38778(11) 0.8486(4) 0.37037(17)
O5 O 0.24221(10) 0.6337(5) 0.42702(14)
C10 C 0.21516(14) 0.7779(6) 0.2738(2)
C11 C 0.21208(18) 0.9719(7) 0.2194(2)
C12 C 0.1631(2) 0.9751(9) 0.1254(3)
C13 C 0.1163(2) 0.7890(10) 0.0851(2)
C14 C 0.11861(18) 0.5972(9) 0.1381(3)
C15 C 0.16826(16) 0.5896(7) 0.2328(2)
C16 C 0.27052(14) 0.7744(6) 0.37587(19)
C17 C 0.34779(15) 0.6826(5) 0.38446(19)
H12 H 0.2432 1.1003 0.2465
H13 H 0.1619 1.1050 0.0891
H14 H 0.0828 0.7929 0.0217
H15 H 0.0867 0.4707 0.1105
H16 H 0.1699 0.4583 0.2683
H17 H 0.2800 0.9490 0.3955
H18 H 0.4283 0.7957 0.3749
H19 H 0.2752 0.6178 0.4808
loop_
_geom_bond_atom_site_label_1
_geom_bond_atom_site_label_2
_geom_bond_site_symmetry_1
_geom_bond_site_symmetry_2
O1 C9 1_555 1_555
O2 C9 1_555 1_555
N1 C8 1_555 1_555
C1 C2 1_555 1_555
C2 C3 1_555 1_555
C3 C4 1_555 1_555
C4 C5 1_555 1_555
C5 C6 1_555 1_555
C6 C1 1_555 1_555
C7 C1 1_555 1_555
C8 C7 1_555 1_555
C9 C8 1_555 1_555
H1 C2 1_555 1_555
H2 C3 1_555 1_555
H3 C4 1_555 1_555
H4 C5 1_555 1_555
H5 C6 1_555 1_555
H6 C7 1_555 1_555
H7 C7 1_555 1_555
H8 C8 1_555 1_555
H9 N1 1_555 1_555
H10 N1 1_555 1_555
H11 N1 1_555 1_555
O3 C17 1_555 1_555
O4 C17 1_555 1_555
O5 C16 1_555 1_555
C10 C11 1_555 1_555
C11 C12 1_555 1_555
C12 C13 1_555 1_555
C13 C14 1_555 1_555
C14 C15 1_555 1_555
C15 C10 1_555 1_555
C16 C10 1_555 1_555
C17 C16 1_555 1_555
H12 C11 1_555 1_555
H13 C12 1_555 1_555
H14 C13 1_555 1_555
H15 C14 1_555 1_555
H16 C15 1_555 1_555
H17 C16 1_555 1_555
H18 O4 1_555 1_555
H19 O5 1_555 1_555

#END
