
#######################################################################
#
#                 Cambridge Crystallographic Data Centre
#                                CCDC 
#
#######################################################################
#
# If this CIF has been generated from an entry in the Cambridge 
# Structural Database, then it will include bibliographic, chemical, 
# crystal, experimental, refinement or atomic coordinate data resulting 
# from the CCDC's data processing and validation procedures.
#
#######################################################################

data_IREPAY
_chemical_formula_moiety         'C18 H13 N1 O1'
_chemical_name_systematic        6-phenylpyrrolo[1,2-b]isoquinolin-10(5H)-one
_symmetry_cell_setting           monoclinic
_symmetry_space_group_name_H-M   'P 21/c'
_symmetry_Int_Tables_number      14
_space_group_name_Hall           '-P 2ybc'
loop_
_symmetry_equiv_pos_site_id
_symmetry_equiv_pos_as_xyz
1 x,y,z
2 -x,1/2+y,1/2-z
3 -x,-y,-z
4 x,1/2-y,1/2+z
_cell_length_a                   10.016(4)
_cell_length_b                   9.223(3)
_cell_length_c                   13.978(5)
_cell_angle_alpha                90
_cell_angle_beta                 94.662(4)
_cell_angle_gamma                90
_cell_volume                     1286.98
_exptl_crystal_colour            colorless
_exptl_crystal_description       block
_cell_formula_units_Z            4
loop_
_atom_site_label
_atom_site_type_symbol
_atom_site_fract_x
_atom_site_fract_y
_atom_site_fract_z
N1 N 0.58593(12) 0.16747(14) 0.48328(8)
O1 O 0.60711(14) 0.30673(15) 0.72223(8)
C1 C 0.67497(16) 0.08768(19) 0.43898(11)
H1 H 0.6656 0.0577 0.3753
C2 C 0.78211(17) 0.0580(2) 0.50366(12)
H2 H 0.8580 0.0051 0.4915
C3 C 0.75661(17) 0.1208(2) 0.59010(13)
H3 H 0.8118 0.1168 0.6468
C4 C 0.63500(16) 0.19047(18) 0.57721(11)
C5 C 0.56658(17) 0.28644(18) 0.63758(11)
C6 C 0.44666(16) 0.36249(17) 0.59349(11)
C7 C 0.38580(18) 0.46704(19) 0.64650(12)
H4 H 0.4231 0.4909 0.7076
C8 C 0.27111(19) 0.5358(2) 0.60991(13)
H5 H 0.2337 0.6099 0.6441
C9 C 0.21216(18) 0.49324(19) 0.52146(12)
H6 H 0.1324 0.5368 0.4979
C10 C 0.26854(16) 0.38750(17) 0.46691(11)
C11 C 0.39063(15) 0.32500(16) 0.50151(10)
C12 C 0.45694(15) 0.21688(17) 0.44064(10)
H7 H 0.3983 0.1338 0.4297
H8 H 0.4691 0.2604 0.3788
C13 C 0.19272(16) 0.33554(17) 0.37665(11)
C14 C 0.23852(18) 0.3536(2) 0.28673(12)
H9 H 0.3179 0.4036 0.2805
C15 C 0.1676(2) 0.2980(2) 0.20616(13)
H10 H 0.1991 0.3115 0.1460
C16 C 0.0507(2) 0.2228(2) 0.21434(15)
H11 H 0.0045 0.1831 0.1602
C17 C 0.00248(19) 0.2065(2) 0.30301(15)
H12 H -0.0777 0.1575 0.3087
C18 C 0.07275(17) 0.2626(2) 0.38339(14)
H13 H 0.0393 0.2513 0.4431
loop_
_geom_bond_atom_site_label_1
_geom_bond_atom_site_label_2
_geom_bond_site_symmetry_1
_geom_bond_site_symmetry_2
N1 C1 1_555 1_555
O1 C5 1_555 1_555
C1 H1 1_555 1_555
C2 C1 1_555 1_555
H2 C2 1_555 1_555
C3 C2 1_555 1_555
H3 C3 1_555 1_555
C4 N1 1_555 1_555
C5 C4 1_555 1_555
C6 C5 1_555 1_555
C7 C6 1_555 1_555
H4 C7 1_555 1_555
C8 C7 1_555 1_555
H5 C8 1_555 1_555
C9 C8 1_555 1_555
H6 C9 1_555 1_555
C10 C9 1_555 1_555
C11 C6 1_555 1_555
C12 N1 1_555 1_555
H7 C12 1_555 1_555
H8 C12 1_555 1_555
C13 C10 1_555 1_555
C14 C13 1_555 1_555
H9 C14 1_555 1_555
C15 C14 1_555 1_555
H10 C15 1_555 1_555
C16 C15 1_555 1_555
H11 C16 1_555 1_555
C17 C16 1_555 1_555
H12 C17 1_555 1_555
C18 C13 1_555 1_555
H13 C18 1_555 1_555
C3 C4 1_555 1_555
C10 C11 1_555 1_555
C11 C12 1_555 1_555
C17 C18 1_555 1_555

#END
