
#######################################################################
#
#                 Cambridge Crystallographic Data Centre
#                                CCDC 
#
#######################################################################
#
# If this CIF has been generated from an entry in the Cambridge 
# Structural Database, then it will include bibliographic, chemical, 
# crystal, experimental, refinement or atomic coordinate data resulting 
# from the CCDC's data processing and validation procedures.
#
#######################################################################

data_IREXOS
_chemical_compound_source        
'roots and rhizomes of Ligularia lapathifolia (Franch.) Hand.-Mazz'
_chemical_formula_moiety         'C18 H24 O5'
_chemical_name_systematic        
'2-Acetyl-3a-methyl-5-(2-methylbut-2-enoyloxy)-3a,4,5,6,7,7a-hexahydro-1H-indene-4-carboxylic acid'
_symmetry_cell_setting           orthorhombic
_symmetry_space_group_name_H-M   'P 21 21 21'
_symmetry_Int_Tables_number      19
_space_group_name_Hall           'P 2ac 2ab'
loop_
_symmetry_equiv_pos_site_id
_symmetry_equiv_pos_as_xyz
1 x,y,z
2 1/2-x,-y,1/2+z
3 -x,1/2+y,1/2-z
4 1/2+x,1/2-y,-z
_cell_length_a                   8.9184(6)
_cell_length_b                   13.5323(8)
_cell_length_c                   14.4969(9)
_cell_angle_alpha                90
_cell_angle_beta                 90
_cell_angle_gamma                90
_cell_volume                     1749.58
_exptl_crystal_colour            colorless
_exptl_crystal_description       needle
_cell_formula_units_Z            4
loop_
_atom_site_label
_atom_site_type_symbol
_atom_site_fract_x
_atom_site_fract_y
_atom_site_fract_z
O1 O 0.2940(2) 0.56135(11) 0.00901(12)
O2 O 0.19690(17) 0.42555(11) 0.06651(11)
O3 O 0.18205(16) 0.68244(9) 0.17734(8)
O4 O 0.3101(2) 0.81264(11) 0.12571(11)
O5 O -0.48279(18) 0.44001(12) -0.03859(10)
C1 C 0.0510(2) 0.57518(14) 0.07148(13)
C2 C 0.0919(2) 0.68230(15) 0.09345(14)
C3 C -0.0460(3) 0.74517(18) 0.10468(19)
C4 C -0.1536(3) 0.7035(2) 0.1750(2)
C5 C -0.1977(3) 0.59547(16) 0.15587(17)
C6 C -0.3037(3) 0.57606(17) 0.07517(18)
C7 C -0.2678(2) 0.47127(15) 0.04861(14)
C8 C -0.1384(3) 0.44408(16) 0.08536(14)
C9 C -0.0609(2) 0.52616(15) 0.13896(14)
C10 C 0.1865(3) 0.51190(16) 0.05083(14)
C11 C 0.2903(3) 0.75157(15) 0.18452(16)
C12 C 0.3759(3) 0.74053(16) 0.27106(15)
C13 C 0.4779(3) 0.8073(2) 0.29471(18)
C14 C 0.5226(4) 0.9000(2) 0.2489(3)
C15 C 0.3420(5) 0.6517(2) 0.3307(3)
C16 C -0.3598(3) 0.41131(17) -0.01272(14)
C17 C -0.3020(5) 0.3155(3) -0.0480(3)
C18 C 0.0092(4) 0.4894(3) 0.2297(2)
H1 H 0.0020(17) 0.5820(10) 0.0079(10)
H2 H 0.1522(17) 0.7088(10) 0.0395(10)
H3 H -0.018(2) 0.8107(13) 0.1227(11)
H4 H -0.094(2) 0.7512(12) 0.0433(12)
H5 H -0.1036(19) 0.7095(13) 0.2375(12)
H6 H -0.242(2) 0.7439(13) 0.1754(14)
H7 H -0.2390(19) 0.5661(13) 0.2143(12)
H8 H -0.285(2) 0.6230(13) 0.0260(12)
H9 H -0.4087(19) 0.5845(12) 0.0939(10)
H10 H -0.0977(18) 0.3837(12) 0.0776(11)
H11 H 0.378(4) 0.519(2) -0.005(2)
H12 H 0.529(2) 0.7896(14) 0.3532(13)
H13 H 0.451(3) 0.933(2) 0.2217(19)
H14 H 0.574(3) 0.943(2) 0.292(2)
H15 H 0.576(2) 0.8902(17) 0.1881(17)
H16 H 0.406(3) 0.6500(16) 0.3775(17)
H17 H 0.357(3) 0.5883(19) 0.2912(18)
H18 H 0.234(3) 0.6536(18) 0.3512(18)
H19 H -0.380(3) 0.2777(17) -0.0707(16)
H20 H -0.252(3) 0.2807(15) -0.0094(15)
H21 H -0.245(3) 0.323(2) -0.0982(16)
H22 H -0.074(3) 0.4654(16) 0.2674(14)
H23 H 0.088(3) 0.4379(19) 0.2185(17)
H24 H 0.039(2) 0.5424(15) 0.2650(13)
loop_
_geom_bond_atom_site_label_1
_geom_bond_atom_site_label_2
_geom_bond_site_symmetry_1
_geom_bond_site_symmetry_2
O1 C10 1_555 1_555
O2 C10 1_555 1_555
O3 C2 1_555 1_555
O4 C11 1_555 1_555
O5 C16 1_555 1_555
C1 C2 1_555 1_555
C2 C3 1_555 1_555
C3 C4 1_555 1_555
C4 C5 1_555 1_555
C5 C6 1_555 1_555
C6 C7 1_555 1_555
C7 C8 1_555 1_555
C8 C9 1_555 1_555
C9 C1 1_555 1_555
C10 C1 1_555 1_555
C11 O3 1_555 1_555
C12 C11 1_555 1_555
C13 C12 1_555 1_555
C14 C13 1_555 1_555
C15 C12 1_555 1_555
C16 C7 1_555 1_555
C17 C16 1_555 1_555
C18 C9 1_555 1_555
H1 C1 1_555 1_555
H2 C2 1_555 1_555
H3 C3 1_555 1_555
H4 C3 1_555 1_555
H5 C4 1_555 1_555
H6 C4 1_555 1_555
H7 C5 1_555 1_555
H8 C6 1_555 1_555
H9 C6 1_555 1_555
H10 C8 1_555 1_555
H11 O1 1_555 1_555
H12 C13 1_555 1_555
H13 C14 1_555 1_555
H14 C14 1_555 1_555
H15 C14 1_555 1_555
H16 C15 1_555 1_555
H17 C15 1_555 1_555
H18 C15 1_555 1_555
H19 C17 1_555 1_555
H20 C17 1_555 1_555
H21 C17 1_555 1_555
H22 C18 1_555 1_555
H23 C18 1_555 1_555
H24 C18 1_555 1_555
C5 C9 1_555 1_555

#END
