
#######################################################################
#
#                 Cambridge Crystallographic Data Centre
#                                CCDC 
#
#######################################################################
#
# If this CIF has been generated from an entry in the Cambridge 
# Structural Database, then it will include bibliographic, chemical, 
# crystal, experimental, refinement or atomic coordinate data resulting 
# from the CCDC's data processing and validation procedures.
#
#######################################################################

data_IRIDIY
_chemical_formula_moiety         'C14 H14 O6'
_chemical_name_systematic        
'methyl 3-acetyl-7-hydroxy-6-methoxy-2-methyl-1-benzofuran-4-carboxylate'
_symmetry_cell_setting           triclinic
_symmetry_space_group_name_H-M   'P -1'
_symmetry_Int_Tables_number      2
_space_group_name_Hall           '-P 1'
loop_
_symmetry_equiv_pos_site_id
_symmetry_equiv_pos_as_xyz
1 x,y,z
2 -x,-y,-z
_cell_length_a                   7.633(5)
_cell_length_b                   9.663(6)
_cell_length_c                   10.102(8)
_cell_angle_alpha                101.446(10)
_cell_angle_beta                 111.000(7)
_cell_angle_gamma                101.160(7)
_cell_volume                     652.634
_exptl_crystal_colour            colorless
_exptl_crystal_description       block
_cell_formula_units_Z            2
loop_
_atom_site_label
_atom_site_type_symbol
_atom_site_fract_x
_atom_site_fract_y
_atom_site_fract_z
O1 O 1.2121(10) 0.5660(7) 0.4443(8)
O2 O 1.1258(11) 0.9631(7) 0.3238(8)
O3 O 0.7926(11) 0.6932(8) -0.0002(8)
O4 O 0.5948(11) 0.4698(8) -0.1502(8)
O5 O 0.8288(10) 0.0995(7) 0.0974(8)
O6 O 1.1212(11) 0.2563(8) 0.3639(8)
H1 H 1.0479 0.1822 0.3642
C1 C 1.0612(15) 0.4774(11) 0.3142(12)
C2 C 1.2084(14) 0.7070(10) 0.4411(11)
C3 C 1.0658(15) 0.7102(10) 0.3167(11)
C4 C 0.9697(15) 0.5572(10) 0.2267(11)
C5 C 0.8212(14) 0.4831(10) 0.0845(12)
C6 C 0.7748(15) 0.3254(10) 0.0389(12)
H2 H 0.6796 0.2724 -0.0555
C7 C 0.8680(16) 0.2506(11) 0.1319(12)
C8 C 1.0149(16) 0.3229(11) 0.2722(13)
C9 C 1.3690(16) 0.8283(10) 0.5762(12)
H3 H 1.3749 0.9221 0.5570
H4 H 1.4930 0.8089 0.5951
H5 H 1.3395 0.8298 0.6612
C10 C 1.0055(16) 0.8448(10) 0.3024(12)
C11 C 0.8009(18) 0.8395(11) 0.2836(12)
H6 H 0.7934 0.8508 0.3778
H7 H 0.7128 0.7464 0.2158
H8 H 0.7649 0.9179 0.2450
C12 C 0.7408(15) 0.5618(12) -0.0222(13)
C13 C 0.7206(18) 0.0139(10) -0.0565(12)
H9 H 0.5942 0.0304 -0.0940
H10 H 0.7045 -0.0889 -0.0649
H11 H 0.7913 0.0434 -0.1129
C14 C 0.5054(16) 0.5360(11) -0.2633(12)
H12 H 0.4449 0.6038 -0.2269
H13 H 0.4079 0.4604 -0.3498
H14 H 0.6039 0.5878 -0.2884
loop_
_geom_bond_atom_site_label_1
_geom_bond_atom_site_label_2
_geom_bond_site_symmetry_1
_geom_bond_site_symmetry_2
O1 C1 1_555 1_555
O2 C10 1_555 1_555
O3 C12 1_555 1_555
O4 C12 1_555 1_555
O5 C7 1_555 1_555
O6 H1 1_555 1_555
C1 C4 1_555 1_555
C2 O1 1_555 1_555
C3 C2 1_555 1_555
C4 C3 1_555 1_555
C5 C4 1_555 1_555
C6 C5 1_555 1_555
H2 C6 1_555 1_555
C7 C6 1_555 1_555
C8 O6 1_555 1_555
C9 C2 1_555 1_555
H3 C9 1_555 1_555
H4 C9 1_555 1_555
H5 C9 1_555 1_555
C10 C3 1_555 1_555
C11 C10 1_555 1_555
H6 C11 1_555 1_555
H7 C11 1_555 1_555
H8 C11 1_555 1_555
C12 C5 1_555 1_555
C13 O5 1_555 1_555
H9 C13 1_555 1_555
H10 C13 1_555 1_555
H11 C13 1_555 1_555
C14 O4 1_555 1_555
H12 C14 1_555 1_555
H13 C14 1_555 1_555
H14 C14 1_555 1_555
C1 C8 1_555 1_555
C7 C8 1_555 1_555

#END
