
#######################################################################
#
#                 Cambridge Crystallographic Data Centre
#                                CCDC 
#
#######################################################################
#
# If this CIF has been generated from an entry in the Cambridge 
# Structural Database, then it will include bibliographic, chemical, 
# crystal, experimental, refinement or atomic coordinate data resulting 
# from the CCDC's data processing and validation procedures.
#
#######################################################################

data_IRIHOI
_chemical_formula_moiety         'C36 H36 N24 O12,C20 H24 N2 O4,x(H2 O1)'
_chemical_name_systematic        
'[2]-(4-(((4-((4-carboxylatobenzyl)azaniumyl)butyl)azaniumyl)methyl)benzoate)-(cucurbit[6]uril)-pseudorotaxane hydrate'
_symmetry_cell_setting           monoclinic
_symmetry_space_group_name_H-M   'P 21/c'
_symmetry_Int_Tables_number      14
_space_group_name_Hall           '-P 2ybc'
loop_
_symmetry_equiv_pos_site_id
_symmetry_equiv_pos_as_xyz
1 x,y,z
2 -x,1/2+y,1/2-z
3 -x,-y,-z
4 x,1/2-y,1/2+z
_cell_length_a                   12.31380(18)
_cell_length_b                   19.6182(3)
_cell_length_c                   14.3825(2)
_cell_angle_alpha                90
_cell_angle_beta                 97.7497(16)
_cell_angle_gamma                90
_cell_volume                     3442.71
_exptl_crystal_colour            yellow
_exptl_crystal_description       block
_cell_formula_units_Z            2
loop_
_atom_site_label
_atom_site_type_symbol
_atom_site_fract_x
_atom_site_fract_y
_atom_site_fract_z
N13 N 0.30450(19) 0.49236(12) 0.33542(17)
H19 H 0.2676 0.5278 0.3556
H20 H 0.2756 0.4538 0.3556
C19 C 0.4220(2) 0.49709(15) 0.3764(2)
H21 H 0.4614 0.4588 0.3545
H22 H 0.4529 0.5384 0.3539
C20 C 0.4393(2) 0.49750(16) 0.4809(2)
H23 H 0.4092 0.4561 0.5040
H24 H 0.4006 0.5359 0.5035
C21 C 0.1730(3) 0.48957(19) 0.1910(2)
C22 C -0.0424(3) 0.4901(2) 0.1140(2)
C23 C 0.2906(3) 0.4925(2) 0.2306(2)
H25 H 0.3232 0.5335 0.2088
H26 H 0.3286 0.4536 0.2087
C24 C 0.1150(4) 0.5516(2) 0.1729(3)
H27 H 0.1498 0.5931 0.1873
C25 C 0.0091(4) 0.5500(2) 0.1346(3)
H28 H -0.0290 0.5906 0.1222
C26 C -0.1611(4) 0.4901(3) 0.0681(3)
C27 C 0.1212(3) 0.4296(2) 0.1736(3)
H29 H 0.1582 0.3888 0.1875
C28 C 0.0093(4) 0.4295(2) 0.1338(3)
H30 H -0.0281 0.3887 0.1214
O7 O -0.2146(3) 0.5445(3) 0.0599(3)
O8 O -0.2089(3) 0.4327(3) 0.0400(2)
N13B N 0.69550(19) 0.50764(12) 0.66458(17)
H19B H 0.7324 0.4722 0.6444
H20B H 0.7244 0.5462 0.6444
C19B C 0.5780(2) 0.50291(15) 0.6236(2)
H21B H 0.5386 0.5412 0.6455
H22B H 0.5471 0.4616 0.6461
C20B C 0.5607(2) 0.50250(16) 0.5191(2)
H23B H 0.5908 0.5439 0.4960
H24B H 0.5994 0.4641 0.4965
C21B C 0.8270(3) 0.51043(19) 0.8090(2)
C22B C 1.0424(3) 0.5099(2) 0.8860(2)
C23B C 0.7094(3) 0.5075(2) 0.7694(2)
H25B H 0.6768 0.4665 0.7912
H26B H 0.6714 0.5464 0.7913
C24B C 0.8850(4) 0.4484(2) 0.8271(3)
H27B H 0.8502 0.4069 0.8127
C25B C 0.9909(4) 0.4500(2) 0.8654(3)
H28B H 1.0290 0.4094 0.8778
C26B C 1.1611(4) 0.5099(3) 0.9319(3)
C27B C 0.8788(3) 0.5704(2) 0.8264(3)
H29B H 0.8418 0.6112 0.8125
C28B C 0.9907(4) 0.5705(2) 0.8662(3)
H30B H 1.0281 0.6113 0.8786
O7B O 1.2146(3) 0.4555(3) 0.9401(3)
O8B O 1.2089(3) 0.5673(3) 0.9600(2)
O1 O 0.76443(17) 0.37263(11) 0.62537(14)
O2 O 0.11420(16) 0.48121(12) 0.43405(15)
O3 O 0.41826(19) 0.49776(10) 0.79845(16)
O4 O 0.54774(17) 0.35066(11) 0.75649(13)
O5 O 0.26269(16) 0.35340(11) 0.38452(14)
N1 N 0.77715(18) 0.35349(12) 0.46896(15)
O6 O 0.48494(19) 0.34913(11) 0.25114(14)
N2 N 0.25603(18) 0.33372(12) 0.54176(15)
N3 N 0.27722(19) 0.43481(12) 0.71825(16)
N4 N 0.50293(19) 0.28531(11) 0.62367(16)
N5 N 0.14503(17) 0.54040(12) 0.57333(16)
N6 N 0.65789(19) 0.29420(12) 0.53630(16)
N7 N 0.36932(19) 0.32854(12) 0.69319(16)
N8 N 0.54139(19) 0.28887(12) 0.38671(16)
N9 N 0.14214(18) 0.42757(12) 0.57765(16)
N10 N 0.38687(19) 0.28524(12) 0.47435(16)
N11 N 0.2605(2) 0.54741(12) 0.72380(17)
N12 N 0.6662(2) 0.34256(12) 0.31706(16)
C1 C 0.5561(2) 0.32932(14) 0.31217(19)
C2 C 0.4801(2) 0.32498(13) 0.69686(17)
C3 C 0.2986(2) 0.32641(13) 0.45924(18)
C4 C 0.3287(2) 0.49397(13) 0.75202(19)
C5 C 0.7360(2) 0.34297(13) 0.55131(18)
C6 C 0.4054(2) 0.25895(13) 0.56880(19)
H1 H 0.4028 0.2090 0.5702
C7 C 0.3120(2) 0.29134(14) 0.61512(19)
H2 H 0.2632 0.2567 0.6359
C8 C 0.6436(2) 0.26874(13) 0.44144(19)
H3 H 0.6554 0.2194 0.4392
C9 C 0.7299(2) 0.30882(13) 0.39522(19)
H4 H 0.7850 0.2784 0.3744
C10 C 0.13251(18) 0.48302(15) 0.5194(2)
C11 C 0.1658(2) 0.44747(14) 0.67536(18)
H5 H 0.1126 0.4277 0.7127
C12 C 0.1577(2) 0.52577(15) 0.67259(19)
H6 H 0.0952 0.5423 0.7017
C13 C 0.12464(19) 0.60743(15) 0.5353(2)
H7 H 0.0782 0.6318 0.5734
H8 H 0.0850 0.6035 0.4725
C14 C 0.1459(2) 0.35910(15) 0.5436(2)
H9 H 0.1063 0.3571 0.4806
H10 H 0.1086 0.3294 0.5830
C15 C 0.6117(2) 0.26247(14) 0.6134(2)
H11 H 0.6101 0.2135 0.6040
H12 H 0.6596 0.2717 0.6713
C16 C 0.2877(3) 0.61662(15) 0.75222(19)
H13 H 0.3398 0.6154 0.8092
H14 H 0.2219 0.6389 0.7671
C17 C 0.3154(3) 0.36981(14) 0.75671(19)
H15 H 0.2535 0.3446 0.7741
H16 H 0.3661 0.3776 0.8134
C18 C 0.4386(2) 0.25771(14) 0.39767(19)
H17 H 0.4502 0.2092 0.4079
H18 H 0.3891 0.2633 0.3398
O1B O 0.23557(17) 0.62737(11) 0.37463(14)
O2B O 0.88580(16) 0.51879(12) 0.56595(15)
O3B O 0.58174(19) 0.50224(10) 0.20155(16)
O4B O 0.45226(17) 0.64934(11) 0.24351(13)
O5B O 0.73731(16) 0.64660(11) 0.61548(14)
N1B N 0.22285(18) 0.64651(12) 0.53104(15)
O6B O 0.51506(19) 0.65087(11) 0.74886(14)
N2B N 0.74397(18) 0.66628(12) 0.45824(15)
N3B N 0.72278(19) 0.56519(12) 0.28175(16)
N4B N 0.49707(19) 0.71469(11) 0.37633(16)
N5B N 0.85497(17) 0.45960(12) 0.42667(16)
N6B N 0.34211(19) 0.70580(12) 0.46370(16)
N7B N 0.63068(19) 0.67146(12) 0.30681(16)
N8B N 0.45861(19) 0.71113(12) 0.61329(16)
N9B N 0.85786(18) 0.57243(12) 0.42235(16)
N10B N 0.61313(19) 0.71476(12) 0.52565(16)
N11B N 0.7395(2) 0.45259(12) 0.27620(17)
N12B N 0.3338(2) 0.65744(12) 0.68294(16)
C1B C 0.4439(2) 0.67068(14) 0.68783(19)
C2B C 0.5199(2) 0.67502(13) 0.30314(17)
C3B C 0.7014(2) 0.67359(13) 0.54076(18)
C4B C 0.6713(2) 0.50603(13) 0.24798(19)
C5B C 0.2640(2) 0.65703(13) 0.44869(18)
C6B C 0.5946(2) 0.74105(13) 0.43120(19)
H1B H 0.5972 0.7910 0.4298
C7B C 0.6880(2) 0.70866(14) 0.38488(19)
H2B H 0.7368 0.7433 0.3641
C8B C 0.3564(2) 0.73126(13) 0.55856(19)
H3B H 0.3446 0.7806 0.5608
C9B C 0.2701(2) 0.69118(13) 0.60478(19)
H4B H 0.2150 0.7216 0.6256
C10B C 0.86749(18) 0.51698(15) 0.4806(2)
C11B C 0.8342(2) 0.55253(14) 0.32464(18)
H5B H 0.8874 0.5723 0.2873
C12B C 0.8423(2) 0.47423(15) 0.32741(19)
H6B H 0.9048 0.4577 0.2983
C13B C 0.87536(19) 0.39257(15) 0.4647(2)
H7B H 0.9218 0.3682 0.4266
H8B H 0.9150 0.3965 0.5275
C14B C 0.8541(2) 0.64090(15) 0.4564(2)
H9B H 0.8937 0.6429 0.5194
H10B H 0.8914 0.6706 0.4170
C15B C 0.3883(2) 0.73753(14) 0.3866(2)
H11B H 0.3899 0.7865 0.3960
H12B H 0.3404 0.7283 0.3287
C16B C 0.7123(3) 0.38338(15) 0.24778(19)
H13B H 0.6602 0.3846 0.1908
H14B H 0.7781 0.3611 0.2329
C17B C 0.6846(3) 0.63019(14) 0.24329(19)
H15B H 0.7465 0.6554 0.2259
H16B H 0.6339 0.6224 0.1866
C18B C 0.5614(2) 0.74229(14) 0.60233(19)
H17B H 0.5498 0.7908 0.5921
H18B H 0.6109 0.7367 0.6602
loop_
_geom_bond_atom_site_label_1
_geom_bond_atom_site_label_2
_geom_bond_site_symmetry_1
_geom_bond_site_symmetry_2
O1 C5 1_555 1_555
O2 C10 1_555 1_555
O3 C4 1_555 1_555
O4 C2 1_555 1_555
O5 C3 1_555 1_555
N1 C5 1_555 1_555
O6 C1 1_555 1_555
N2 C3 1_555 1_555
N3 C4 1_555 1_555
N4 C2 1_555 1_555
N5 C10 1_555 1_555
N6 C5 1_555 1_555
N7 C2 1_555 1_555
N8 C1 1_555 1_555
N9 C10 1_555 1_555
N10 C3 1_555 1_555
N11 C4 1_555 1_555
N12 C1 1_555 1_555
C6 N4 1_555 1_555
H1 C6 1_555 1_555
C7 N2 1_555 1_555
H2 C7 1_555 1_555
C8 N6 1_555 1_555
H3 C8 1_555 1_555
C9 N1 1_555 1_555
H4 C9 1_555 1_555
C11 N3 1_555 1_555
H5 C11 1_555 1_555
C12 N5 1_555 1_555
H6 C12 1_555 1_555
C13 N5 1_555 1_555
H7 C13 1_555 1_555
H8 C13 1_555 1_555
C14 N2 1_555 1_555
H9 C14 1_555 1_555
H10 C14 1_555 1_555
C15 N4 1_555 1_555
H11 C15 1_555 1_555
H12 C15 1_555 1_555
C16 N11 1_555 1_555
H13 C16 1_555 1_555
H14 C16 1_555 1_555
C17 N3 1_555 1_555
H15 C17 1_555 1_555
H16 C17 1_555 1_555
C18 N8 1_555 1_555
H17 C18 1_555 1_555
H18 C18 1_555 1_555
N13 H19 1_555 1_555
H20 N13 1_555 1_555
C19 N13 1_555 1_555
H21 C19 1_555 1_555
H22 C19 1_555 1_555
C20 C19 1_555 1_555
H23 C20 1_555 1_555
H24 C20 1_555 1_555
C21 C23 1_555 1_555
C22 C25 1_555 1_555
C23 N13 1_555 1_555
H25 C23 1_555 1_555
H26 C23 1_555 1_555
C24 C21 1_555 1_555
H27 C24 1_555 1_555
C25 C24 1_555 1_555
H28 C25 1_555 1_555
C26 C22 1_555 1_555
C27 C21 1_555 1_555
H29 C27 1_555 1_555
C28 C22 1_555 1_555
H30 C28 1_555 1_555
O7 C26 1_555 1_555
O8 C26 1_555 1_555
O1B C5B 1_555 1_555
O2B C10B 1_555 1_555
O3B C4B 1_555 1_555
O4B C2B 1_555 1_555
O5B C3B 1_555 1_555
N1B C13 1_555 1_555
O6B C1B 1_555 1_555
N2B C3B 1_555 1_555
N3B C4B 1_555 1_555
N4B C2B 1_555 1_555
N5B C10B 1_555 1_555
N6B C5B 1_555 1_555
N7B C2B 1_555 1_555
N8B C1B 1_555 1_555
N9B C10B 1_555 1_555
N10B C3B 1_555 1_555
N11B C4B 1_555 1_555
N12B C16 1_555 1_555
C1B N12B 1_555 1_555
C5B N1B 1_555 1_555
C6B N4B 1_555 1_555
H1B C6B 1_555 1_555
C7B N2B 1_555 1_555
H2B C7B 1_555 1_555
C8B N6B 1_555 1_555
H3B C8B 1_555 1_555
C9B N1B 1_555 1_555
H4B C9B 1_555 1_555
C11B N3B 1_555 1_555
H5B C11B 1_555 1_555
C12B N5B 1_555 1_555
H6B C12B 1_555 1_555
C13B N1 1_555 1_555
H7B C13B 1_555 1_555
H8B C13B 1_555 1_555
C14B N2B 1_555 1_555
H9B C14B 1_555 1_555
H10B C14B 1_555 1_555
C15B N4B 1_555 1_555
H11B C15B 1_555 1_555
H12B C15B 1_555 1_555
C16B N12 1_555 1_555
H13B C16B 1_555 1_555
H14B C16B 1_555 1_555
C17B N3B 1_555 1_555
H15B C17B 1_555 1_555
H16B C17B 1_555 1_555
C18B N8B 1_555 1_555
H17B C18B 1_555 1_555
H18B C18B 1_555 1_555
N13B H19B 1_555 1_555
H20B N13B 1_555 1_555
C19B N13B 1_555 1_555
H21B C19B 1_555 1_555
H22B C19B 1_555 1_555
C20B C20 1_555 1_555
H23B C20B 1_555 1_555
H24B C20B 1_555 1_555
C21B C23B 1_555 1_555
C22B C25B 1_555 1_555
C23B N13B 1_555 1_555
H25B C23B 1_555 1_555
H26B C23B 1_555 1_555
C24B C21B 1_555 1_555
H27B C24B 1_555 1_555
C25B C24B 1_555 1_555
H28B C25B 1_555 1_555
C26B C22B 1_555 1_555
C27B C21B 1_555 1_555
H29B C27B 1_555 1_555
C28B C22B 1_555 1_555
H30B C28B 1_555 1_555
O7B C26B 1_555 1_555
O8B C26B 1_555 1_555
N6 C15 1_555 1_555
N7 C7 1_555 1_555
N7 C17 1_555 1_555
N8 C8 1_555 1_555
N9 C11 1_555 1_555
N9 C14 1_555 1_555
N10 C6 1_555 1_555
N10 C18 1_555 1_555
N11 C12 1_555 1_555
N12 C9 1_555 1_555
C6 C7 1_555 1_555
C8 C9 1_555 1_555
C11 C12 1_555 1_555
C27 C28 1_555 1_555
N5B C13B 1_555 1_555
N6B C15B 1_555 1_555
N7B C7B 1_555 1_555
N7B C17B 1_555 1_555
N8B C8B 1_555 1_555
N9B C11B 1_555 1_555
N9B C14B 1_555 1_555
N10B C6B 1_555 1_555
N10B C18B 1_555 1_555
N11B C12B 1_555 1_555
N11B C16B 1_555 1_555
N12B C9B 1_555 1_555
C6B C7B 1_555 1_555
C8B C9B 1_555 1_555
C11B C12B 1_555 1_555
C19B C20B 1_555 1_555
C27B C28B 1_555 1_555

#END
