
#######################################################################
#
#                 Cambridge Crystallographic Data Centre
#                                CCDC 
#
#######################################################################
#
# If this CIF has been generated from an entry in the Cambridge 
# Structural Database, then it will include bibliographic, chemical, 
# crystal, experimental, refinement or atomic coordinate data resulting 
# from the CCDC's data processing and validation procedures.
#
#######################################################################

data_IRILAW
_chemical_formula_moiety         'C27 H14 F2 N2 O3'
_chemical_name_systematic        'bis(2-(2-Benzoxazolyl)-4-fluorophenyl) ketone'
_symmetry_cell_setting           monoclinic
_symmetry_space_group_name_H-M   'P 21/n'
_symmetry_Int_Tables_number      14
_space_group_name_Hall           '-P 2yn'
loop_
_symmetry_equiv_pos_site_id
_symmetry_equiv_pos_as_xyz
1 x,y,z
2 1/2+x,1/2-y,1/2+z
3 -x,-y,-z
4 1/2-x,1/2+y,1/2-z
_cell_length_a                   12.3417(3)
_cell_length_b                   10.9267(3)
_cell_length_c                   15.8504(6)
_cell_angle_alpha                90.00
_cell_angle_beta                 106.5310(13)
_cell_angle_gamma                90.00
_cell_volume                     2049.14
_cell_formula_units_Z            4
loop_
_atom_site_label
_atom_site_type_symbol
_atom_site_fract_x
_atom_site_fract_y
_atom_site_fract_z
O1 O 0.24737(12) 0.95990(12) 0.09739(10)
O2 O -0.09273(12) 0.58365(13) 0.24773(10)
F1 F 0.06634(13) 0.87113(13) 0.50550(9)
N1 N 0.37519(13) 0.90521(14) 0.03121(11)
F2 F 0.63576(11) 0.60894(13) 0.24518(10)
O3 O 0.11591(13) 0.78087(16) 0.12982(10)
N2 N 0.05334(14) 0.55106(14) 0.19530(11)
C1 C 0.37400(16) 0.78599(17) 0.16155(13)
C2 C 0.07269(16) 0.71696(17) 0.30548(13)
C3 C 0.33298(17) 0.88357(17) 0.09554(13)
C4 C -0.12547(18) 0.49018(17) 0.18533(13)
C5 C 0.16016(17) 0.78368(18) 0.28715(13)
C6 C 0.48316(18) 0.73997(19) 0.17271(14)
H1 H 0.522(2) 0.774(2) 0.1358(16)
C7 C 0.04214(18) 0.74745(19) 0.37990(15)
H2 H -0.017(2) 0.705(2) 0.3920(15)
C8 C 0.21576(18) 0.87703(19) 0.34496(15)
H3 H 0.277(2) 0.925(2) 0.3334(16)
C9 C -0.22673(19) 0.4250(2) 0.15668(15)
H4 H -0.287(2) 0.439(2) 0.1790(16)
C10 C 0.18903(17) 0.76800(18) 0.20257(14)
C11 C 0.01437(17) 0.61532(18) 0.24860(14)
C12 C 0.31061(17) 1.00349(17) -0.01607(13)
C13 C 0.31177(17) 0.73737(17) 0.21448(13)
C14 C 0.23095(17) 1.03597(17) 0.02434(13)
C15 C 0.36196(19) 0.64628(19) 0.27613(14)
H5 H 0.3170(18) 0.6112(19) 0.3099(14)
C16 C 0.4708(2) 0.5999(2) 0.28752(15)
H6 H 0.5042(19) 0.5349(19) 0.3301(14)
C17 C -0.03578(17) 0.47019(18) 0.15239(14)
C18 C 0.15748(19) 1.1904(2) -0.08158(15)
H7 H 0.104(2) 1.256(2) -0.1060(16)
C19 C 0.3149(2) 1.06453(19) -0.09133(15)
H8 H 0.367(2) 1.041(2) -0.1213(15)
C20 C 0.15153(19) 1.12816(19) -0.00723(15)
H9 H 0.096(2) 1.148(2) 0.0211(15)
C21 C 0.23752(19) 1.1596(2) -0.12271(15)
H10 H 0.2355(19) 1.207(2) -0.1715(16)
C22 C -0.04510(19) 0.3831(2) 0.08691(15)
H11 H 0.016(2) 0.371(2) 0.0616(17)
C23 C 0.1840(2) 0.9084(2) 0.41840(16)
H12 H 0.220(2) 0.972(2) 0.4564(16)
C24 C -0.14599(19) 0.3164(2) 0.05769(16)
H13 H -0.1550(19) 0.253(2) 0.0109(15)
C25 C -0.2350(2) 0.3369(2) 0.09224(16)
H14 H -0.305(2) 0.290(2) 0.0718(17)
C26 C 0.52848(18) 0.64974(19) 0.23500(15)
C27 C 0.09740(19) 0.8424(2) 0.43346(14)
loop_
_geom_bond_atom_site_label_1
_geom_bond_atom_site_label_2
_geom_bond_site_symmetry_1
_geom_bond_site_symmetry_2
O1 C3 1_555 1_555
O2 C4 1_555 1_555
F1 C27 1_555 1_555
N1 C3 1_555 1_555
F2 C26 1_555 1_555
O3 C10 1_555 1_555
N2 C11 1_555 1_555
C1 C3 1_555 1_555
C2 C5 1_555 1_555
C4 C9 1_555 1_555
C5 C8 1_555 1_555
C6 C1 1_555 1_555
H1 C6 1_555 1_555
C7 C2 1_555 1_555
H2 C7 1_555 1_555
C8 H3 1_555 1_555
C9 H4 1_555 1_555
C10 C5 1_555 1_555
C11 O2 1_555 1_555
C12 N1 1_555 1_555
C13 C1 1_555 1_555
C14 O1 1_555 1_555
C15 C13 1_555 1_555
H5 C15 1_555 1_555
C16 C15 1_555 1_555
H6 C16 1_555 1_555
C17 N2 1_555 1_555
C18 H7 1_555 1_555
C19 C12 1_555 1_555
H8 C19 1_555 1_555
C20 C14 1_555 1_555
H9 C20 1_555 1_555
C21 C18 1_555 1_555
H10 C21 1_555 1_555
C22 C17 1_555 1_555
H11 C22 1_555 1_555
C23 C8 1_555 1_555
H12 C23 1_555 1_555
C24 C22 1_555 1_555
H13 C24 1_555 1_555
C25 C9 1_555 1_555
H14 C25 1_555 1_555
C26 C6 1_555 1_555
C27 C7 1_555 1_555
C2 C11 1_555 1_555
C4 C17 1_555 1_555
C10 C13 1_555 1_555
C12 C14 1_555 1_555
C16 C26 1_555 1_555
C18 C20 1_555 1_555
C19 C21 1_555 1_555
C23 C27 1_555 1_555
C24 C25 1_555 1_555

#END
