
#######################################################################
#
#                 Cambridge Crystallographic Data Centre
#                                CCDC 
#
#######################################################################
#
# If this CIF has been generated from an entry in the Cambridge 
# Structural Database, then it will include bibliographic, chemical, 
# crystal, experimental, refinement or atomic coordinate data resulting 
# from the CCDC's data processing and validation procedures.
#
#######################################################################

data_IRIVAI
_chemical_formula_moiety         'C20 H23 N2 O1 P1 S1'
_chemical_name_systematic        
'P-t-butyl-N-phenyl-N-(phenyl(1,3-thiazol-2-yl)methyl)phosphinic amide'
_symmetry_cell_setting           monoclinic
_symmetry_space_group_name_H-M   'P 21/c'
_symmetry_Int_Tables_number      14
_space_group_name_Hall           '-P 2ybc'
loop_
_symmetry_equiv_pos_site_id
_symmetry_equiv_pos_as_xyz
1 x,y,z
2 -x,1/2+y,1/2-z
3 -x,-y,-z
4 x,1/2-y,1/2+z
_cell_length_a                   9.5379(3)
_cell_length_b                   16.6998(5)
_cell_length_c                   12.5785(5)
_cell_angle_alpha                90
_cell_angle_beta                 105.927(4)
_cell_angle_gamma                90
_cell_volume                     1926.61
_exptl_crystal_colour            yellow
_exptl_crystal_description       parallelepiped
_cell_formula_units_Z            4
loop_
_atom_site_label
_atom_site_type_symbol
_atom_site_fract_x
_atom_site_fract_y
_atom_site_fract_z
S1 S -0.08304(6) 0.27445(3) 0.30261(4)
P1 P -0.09082(5) 0.01060(3) 0.13264(3)
O1 O -0.13963(14) 0.06112(8) 0.03239(9)
N1 N -0.02267(18) 0.14451(10) 0.41361(12)
N2 N 0.04184(15) 0.05338(8) 0.23124(10)
C1 C -0.1260(2) 0.26904(12) 0.42599(16)
H1 H -0.1704 0.3105 0.4570
C2 C -0.0869(2) 0.19683(13) 0.47206(16)
H2 H -0.1024 0.1824 0.5410
C3 C -0.01361(18) 0.17782(10) 0.32282(14)
C4 C 0.04912(18) 0.14200(10) 0.23530(14)
H3 H -0.0144 0.1611 0.1627
C5 C 0.20200(18) 0.17246(10) 0.24244(13)
C6 C 0.2418(2) 0.18269(12) 0.14502(15)
H4 H 0.1735 0.1718 0.0759
C7 C 0.3813(2) 0.20887(13) 0.14825(16)
H5 H 0.4077 0.2161 0.0814
C8 C 0.4814(2) 0.22440(11) 0.24833(17)
H6 H 0.5769 0.2420 0.2505
C9 C 0.4423(2) 0.21426(12) 0.34524(16)
H7 H 0.5112 0.2248 0.4142
C10 C 0.3031(2) 0.18890(11) 0.34263(15)
H8 H 0.2768 0.1827 0.4097
C11 C 0.16563(18) 0.00635(10) 0.29148(13)
C12 C 0.25475(19) -0.02920(10) 0.23428(14)
H9 H 0.2348 -0.0221 0.1566
C13 C 0.37318(19) -0.07514(11) 0.29087(15)
H10 H 0.4328 -0.1004 0.2514
C14 C 0.4048(2) -0.08430(12) 0.40431(16)
H11 H 0.4864 -0.1153 0.4429
C15 C 0.3169(2) -0.04806(13) 0.46118(15)
H12 H 0.3391 -0.0538 0.5392
C16 C 0.1962(2) -0.00323(11) 0.40523(14)
H13 H 0.1351 0.0207 0.4446
C17 C -0.24352(18) -0.01970(11) 0.18470(13)
C18 C -0.1888(2) -0.06426(13) 0.29461(15)
H14 H -0.2721 -0.0801 0.3213
H15 H -0.1244 -0.0291 0.3491
H16 H -0.1348 -0.1121 0.2838
C19 C -0.3369(2) -0.07534(13) 0.09553(16)
H17 H -0.4215 -0.0938 0.1186
H18 H -0.2785 -0.1216 0.0856
H19 H -0.3701 -0.0461 0.0256
C20 C -0.3316(2) 0.05463(12) 0.19799(17)
H20 H -0.4139 0.0386 0.2258
H21 H -0.3684 0.0811 0.1262
H22 H -0.2689 0.0917 0.2505
H23 H -0.0340(17) -0.0583(10) 0.1187(12)
loop_
_geom_bond_atom_site_label_1
_geom_bond_atom_site_label_2
_geom_bond_site_symmetry_1
_geom_bond_site_symmetry_2
S1 C1 1_555 1_555
P1 O1 1_555 1_555
N1 C2 1_555 1_555
N2 P1 1_555 1_555
C1 H1 1_555 1_555
C2 C1 1_555 1_555
H2 C2 1_555 1_555
C3 S1 1_555 1_555
C4 N2 1_555 1_555
H3 C4 1_555 1_555
C5 C4 1_555 1_555
C6 C5 1_555 1_555
H4 C6 1_555 1_555
C7 C6 1_555 1_555
H5 C7 1_555 1_555
C8 C7 1_555 1_555
H6 C8 1_555 1_555
C9 C8 1_555 1_555
H7 C9 1_555 1_555
C10 C5 1_555 1_555
H8 C10 1_555 1_555
C11 N2 1_555 1_555
C12 C11 1_555 1_555
H9 C12 1_555 1_555
C13 C12 1_555 1_555
H10 C13 1_555 1_555
C14 C13 1_555 1_555
H11 C14 1_555 1_555
C15 C14 1_555 1_555
H12 C15 1_555 1_555
C16 C11 1_555 1_555
H13 C16 1_555 1_555
C17 P1 1_555 1_555
C18 C17 1_555 1_555
H14 C18 1_555 1_555
H15 C18 1_555 1_555
H16 C18 1_555 1_555
C19 C17 1_555 1_555
H17 C19 1_555 1_555
H18 C19 1_555 1_555
H19 C19 1_555 1_555
C20 C17 1_555 1_555
H20 C20 1_555 1_555
H21 C20 1_555 1_555
H22 C20 1_555 1_555
H23 P1 1_555 1_555
N1 C3 1_555 1_555
C3 C4 1_555 1_555
C9 C10 1_555 1_555
C15 C16 1_555 1_555

#END
