
#######################################################################
#
#                 Cambridge Crystallographic Data Centre
#                                CCDC 
#
#######################################################################
#
# If this CIF has been generated from an entry in the Cambridge 
# Structural Database, then it will include bibliographic, chemical, 
# crystal, experimental, refinement or atomic coordinate data resulting 
# from the CCDC's data processing and validation procedures.
#
#######################################################################

data_IRIWUB
_chemical_formula_moiety         'C30 H32 N1 P1'
_chemical_name_systematic        
N-(2-Diphenylphosphinophenyl)-2,6-di-isopropylaniline
_symmetry_cell_setting           monoclinic
_symmetry_space_group_name_H-M   'P 21/c'
_symmetry_Int_Tables_number      14
_space_group_name_Hall           '-P 2ybc'
loop_
_symmetry_equiv_pos_site_id
_symmetry_equiv_pos_as_xyz
1 x,y,z
2 x,1/2-y,1/2+z
3 -x,-y,-z
4 -x,1/2+y,1/2-z
_cell_length_a                   12.0940(6)
_cell_length_b                   14.2831(7)
_cell_length_c                   28.7245(14)
_cell_angle_alpha                90
_cell_angle_beta                 91.6930(10)
_cell_angle_gamma                90
_cell_volume                     4959.7
_exptl_crystal_colour            colorless
_exptl_crystal_description       'triangular plate'
_cell_formula_units_Z            8
loop_
_atom_site_label
_atom_site_type_symbol
_atom_site_fract_x
_atom_site_fract_y
_atom_site_fract_z
N1 N 0.30787(13) 0.71326(10) 0.04886(5)
H1 H 0.2882 0.7491 0.0712
P1 P 0.24053(4) 0.91386(3) 0.045649(17)
C1 C 0.53286(18) 0.67540(13) 0.11801(6)
H3 H 0.4704 0.7152 0.1231
H4 H 0.5994 0.7121 0.1192
H5 H 0.5369 0.6281 0.1418
C2 C 0.62339(18) 0.57192(15) 0.05958(7)
H6 H 0.6327 0.5228 0.0822
H7 H 0.6869 0.6122 0.0609
H8 H 0.6156 0.5451 0.0290
C3 C 0.51983(16) 0.62870(13) 0.07013(6)
H9 H 0.5135 0.6787 0.0468
C4 C 0.41379(17) 0.57205(13) 0.06696(6)
C5 C 0.41436(18) 0.47613(13) 0.07606(6)
H10 H 0.4811 0.4460 0.0828
C6 C 0.3172(2) 0.42522(14) 0.07515(6)
H11 H 0.3194 0.3611 0.0808
C7 C 0.2176(2) 0.46827(14) 0.06607(6)
H12 H 0.1529 0.4331 0.0660
C8 C 0.21187(18) 0.56414(14) 0.05693(6)
C9 C 0.0995(2) 0.6105(2) 0.04871(10)
C10 C 0.0792(2) 0.64672(16) 0.00032(7)
H13 H 0.1292 0.6973 -0.0054
H14 H 0.0043 0.6687 -0.0030
H15 H 0.0910 0.5973 -0.0217
C11 C 0.31159(17) 0.61438(12) 0.05713(6)
C12 C 0.33422(15) 0.75463(12) 0.00676(6)
C13 C 0.38159(16) 0.70295(12) -0.02884(6)
H16 H 0.3956 0.6395 -0.0246
C14 C 0.40789(16) 0.74544(13) -0.07048(6)
H17 H 0.4390 0.7102 -0.0940
C15 C 0.38819(15) 0.83937(13) -0.07727(6)
H18 H 0.4065 0.8679 -0.1051
C16 C 0.34085(15) 0.89083(12) -0.04234(6)
H19 H 0.3271 0.9542 -0.0472
C17 C 0.31300(14) 0.85084(12) 0.00006(6)
C18 C 0.34840(16) 0.92204(11) 0.09173(6)
C19 C 0.46071(16) 0.92472(12) 0.08364(6)
H20 H 0.4848 0.9229 0.0532
C20 C 0.53766(17) 0.93000(12) 0.12025(7)
H21 H 0.6127 0.9325 0.1142
C21 C 0.50373(19) 0.93148(13) 0.16549(7)
H22 H 0.5556 0.9353 0.1900
C22 C 0.3932(2) 0.92738(14) 0.17437(7)
H23 H 0.3701 0.9277 0.2050
C23 C 0.31561(18) 0.92269(13) 0.13786(6)
H24 H 0.2407 0.9199 0.1443
C24 C 0.23317(15) 1.03157(12) 0.02072(6)
C25 C 0.31089(16) 1.10183(12) 0.02852(6)
H25 H 0.3710 1.0914 0.0488
C26 C 0.29923(19) 1.18746(14) 0.00620(7)
H26 H 0.3514 1.2344 0.0116
C27 C 0.2105(2) 1.20328(15) -0.02404(8)
H27 H 0.2032 1.2607 -0.0391
C28 C 0.1327(2) 1.13463(16) -0.03208(8)
H28 H 0.0733 1.1451 -0.0527
C29 C 0.14361(17) 1.05010(14) -0.00928(7)
H29 H 0.0897 1.0044 -0.0141
C60 C 0.0007(4) 0.5688(3) 0.07406(19)
H61 H 0.0222 0.5557 0.1058
H62 H -0.0225 0.5119 0.0589
H63 H -0.0594 0.6128 0.0733
H67 H 0.102(4) 0.681(3) 0.0759(15)
N2 N 0.70116(12) 0.20000(9) 0.19347(5)
H2 H 0.7219 0.1822 0.1665
P2 P 0.81690(4) 0.02358(3) 0.164856(17)
C30 C 0.8800(2) 0.45891(17) 0.20159(9)
H30 H 0.8566 0.5134 0.1844
H31 H 0.9585 0.4513 0.1993
H32 H 0.8619 0.4664 0.2337
C31 C 0.84191(19) 0.36631(17) 0.12982(8)
H33 H 0.8102 0.4198 0.1142
H34 H 0.8085 0.3103 0.1175
H35 H 0.9201 0.3647 0.1250
C32 C 0.82126(16) 0.37278(13) 0.18166(7)
H36 H 0.8545 0.3175 0.1967
C33 C 0.69850(16) 0.37077(13) 0.19037(6)
C34 C 0.63765(17) 0.45348(13) 0.19132(6)
H37 H 0.6735 0.5102 0.1868
C35 C 0.52606(17) 0.45340(13) 0.19878(6)
H38 H 0.4874 0.5096 0.1999
C36 C 0.47175(17) 0.37007(13) 0.20452(6)
H39 H 0.3962 0.3706 0.2096
C37 C 0.52705(16) 0.28466(12) 0.20287(6)
C38 C 0.64160(15) 0.28592(12) 0.19615(6)
C39 C 0.46114(16) 0.19511(13) 0.20635(7)
H40 H 0.5128 0.1422 0.2069
C40 C 0.38281(17) 0.18446(14) 0.16396(7)
H41 H 0.3335 0.2371 0.1622
H42 H 0.3407 0.1279 0.1668
H43 H 0.4250 0.1818 0.1362
C41 C 0.39457(19) 0.19177(15) 0.25064(7)
H44 H 0.4436 0.1990 0.2773
H45 H 0.3571 0.1327 0.2524
H46 H 0.3412 0.2415 0.2501
C42 C 0.72814(14) 0.14293(12) 0.23122(6)
C43 C 0.70037(14) 0.16906(13) 0.27608(6)
H47 H 0.6637 0.2253 0.2808
C44 C 0.72695(15) 0.11196(14) 0.31378(6)
H48 H 0.7080 0.1304 0.3436
C45 C 0.78109(15) 0.02825(14) 0.30761(6)
H49 H 0.7982 -0.0102 0.3329
C46 C 0.80957(15) 0.00238(12) 0.26324(6)
H50 H 0.8466 -0.0540 0.2592
C47 C 0.78482(14) 0.05765(12) 0.22436(6)
C48 C 0.93153(15) 0.10295(12) 0.15319(6)
C49 C 0.95424(19) 0.12006(15) 0.10667(7)
H51 H 0.9115 0.0916 0.0832
C50 C 1.0395(2) 0.17867(18) 0.09515(9)
H52 H 1.0550 0.1884 0.0640
C51 C 1.1016(2) 0.22271(18) 0.12927(10)
H53 H 1.1589 0.2625 0.1212
C52 C 1.07930(18) 0.20815(16) 0.17544(9)
H54 H 1.1207 0.2386 0.1986
C53 C 0.99501(16) 0.14803(14) 0.18716(7)
H55 H 0.9808 0.1377 0.2184
C54 C 0.88693(16) -0.08910(13) 0.17362(6)
C55 C 0.99948(19) -0.10005(15) 0.17928(8)
H56 H 1.0453 -0.0478 0.1790
C56 C 1.0456(2) -0.18870(17) 0.18540(9)
H57 H 1.1218 -0.1949 0.1893
C57 C 0.9801(2) -0.26672(16) 0.18581(8)
H58 H 1.0114 -0.3258 0.1898
C58 C 0.8679(2) -0.25676(15) 0.18025(8)
H59 H 0.8225 -0.3093 0.1807
C59 C 0.82206(19) -0.16899(14) 0.17399(7)
H60 H 0.7458 -0.1634 0.1699
C61? C 0.0449(6) 0.6337(6) 0.0839(2)
H64? H 0.0714 0.6927 0.0956
H65? H 0.0539 0.5868 0.1076
H66? H -0.0320 0.6391 0.0750
loop_
_geom_bond_atom_site_label_1
_geom_bond_atom_site_label_2
_geom_bond_site_symmetry_1
_geom_bond_site_symmetry_2
N1 H1 1_555 1_555
N2 H2 1_555 1_555
P1 C17 1_555 1_555
P2 C47 1_555 1_555
C1 H3 1_555 1_555
H4 C1 1_555 1_555
H5 C1 1_555 1_555
C2 H6 1_555 1_555
H7 C2 1_555 1_555
H8 C2 1_555 1_555
C3 C1 1_555 1_555
H9 C3 1_555 1_555
C4 C3 1_555 1_555
C5 C4 1_555 1_555
H10 C5 1_555 1_555
C6 C5 1_555 1_555
H11 C6 1_555 1_555
C7 C6 1_555 1_555
H12 C7 1_555 1_555
C8 C7 1_555 1_555
C9 C8 1_555 1_555
C10 C9 1_555 1_555
H13 C10 1_555 1_555
H14 C10 1_555 1_555
H15 C10 1_555 1_555
C11 N1 1_555 1_555
C12 N1 1_555 1_555
C13 C12 1_555 1_555
H16 C13 1_555 1_555
C14 C13 1_555 1_555
H17 C14 1_555 1_555
C15 C14 1_555 1_555
H18 C15 1_555 1_555
C16 C15 1_555 1_555
H19 C16 1_555 1_555
C17 C12 1_555 1_555
C18 P1 1_555 1_555
C19 C18 1_555 1_555
H20 C19 1_555 1_555
C20 C19 1_555 1_555
H21 C20 1_555 1_555
C21 C20 1_555 1_555
H22 C21 1_555 1_555
C22 C21 1_555 1_555
H23 C22 1_555 1_555
C23 C18 1_555 1_555
H24 C23 1_555 1_555
C24 P1 1_555 1_555
C25 C24 1_555 1_555
H25 C25 1_555 1_555
C26 C25 1_555 1_555
H26 C26 1_555 1_555
C27 C26 1_555 1_555
H27 C27 1_555 1_555
C28 C27 1_555 1_555
H28 C28 1_555 1_555
C29 C24 1_555 1_555
H29 C29 1_555 1_555
C30 H30 1_555 1_555
H31 C30 1_555 1_555
H32 C30 1_555 1_555
C31 H33 1_555 1_555
H34 C31 1_555 1_555
H35 C31 1_555 1_555
C32 C30 1_555 1_555
H36 C32 1_555 1_555
C33 C32 1_555 1_555
C34 C33 1_555 1_555
H37 C34 1_555 1_555
C35 C34 1_555 1_555
H38 C35 1_555 1_555
C36 C35 1_555 1_555
H39 C36 1_555 1_555
C37 C36 1_555 1_555
C38 N2 1_555 1_555
C39 C37 1_555 1_555
H40 C39 1_555 1_555
C40 C39 1_555 1_555
H41 C40 1_555 1_555
H42 C40 1_555 1_555
H43 C40 1_555 1_555
C41 C39 1_555 1_555
H44 C41 1_555 1_555
H45 C41 1_555 1_555
H46 C41 1_555 1_555
C42 N2 1_555 1_555
C43 C42 1_555 1_555
H47 C43 1_555 1_555
C44 C43 1_555 1_555
H48 C44 1_555 1_555
C45 C44 1_555 1_555
H49 C45 1_555 1_555
C46 C45 1_555 1_555
H50 C46 1_555 1_555
C47 C42 1_555 1_555
C48 P2 1_555 1_555
C49 C48 1_555 1_555
H51 C49 1_555 1_555
C50 C49 1_555 1_555
H52 C50 1_555 1_555
C51 C50 1_555 1_555
H53 C51 1_555 1_555
C52 C51 1_555 1_555
H54 C52 1_555 1_555
C53 C48 1_555 1_555
H55 C53 1_555 1_555
C54 P2 1_555 1_555
C55 C54 1_555 1_555
H56 C55 1_555 1_555
C56 C55 1_555 1_555
H57 C56 1_555 1_555
C57 C56 1_555 1_555
H58 C57 1_555 1_555
C58 C57 1_555 1_555
H59 C58 1_555 1_555
C59 C54 1_555 1_555
H60 C59 1_555 1_555
C60 C9 1_555 1_555
H61 C60 1_555 1_555
H62 C60 1_555 1_555
H63 C60 1_555 1_555
H67 C9 1_555 1_555
C2 C3 1_555 1_555
C4 C11 1_555 1_555
C8 C11 1_555 1_555
C16 C17 1_555 1_555
C22 C23 1_555 1_555
C28 C29 1_555 1_555
C31 C32 1_555 1_555
C33 C38 1_555 1_555
C37 C38 1_555 1_555
C46 C47 1_555 1_555
C52 C53 1_555 1_555
C58 C59 1_555 1_555

#END
