
#######################################################################
#
#                 Cambridge Crystallographic Data Centre
#                                CCDC 
#
#######################################################################
#
# If this CIF has been generated from an entry in the Cambridge 
# Structural Database, then it will include bibliographic, chemical, 
# crystal, experimental, refinement or atomic coordinate data resulting 
# from the CCDC's data processing and validation procedures.
#
#######################################################################

data_IROMIN
_chemical_formula_moiety         'C4 H1 N9 O5 2-,2(C1 H6 N3 1+),H2 O1'
_chemical_name_systematic        
'bis(guanidinium) nitro(3-(4-(nitroamido)-1,2,5-oxadiazol-3-yl)-1H-1,2,4-triazol-5-yl)amide monohydrate'
_symmetry_cell_setting           monoclinic
_symmetry_space_group_name_H-M   'C 2/c'
_symmetry_Int_Tables_number      15
_space_group_name_Hall           '-C 2yn'
loop_
_symmetry_equiv_pos_site_id
_symmetry_equiv_pos_as_xyz
1 x,y,z
2 -x,y,1/2-z
3 1/2+x,1/2+y,z
4 1/2-x,1/2+y,1/2-z
5 -x,-y,-z
6 x,-y,1/2+z
7 1/2-x,1/2-y,-z
8 1/2+x,1/2-y,1/2+z
_cell_length_a                   12.408(2)
_cell_length_b                   7.5630(11)
_cell_length_c                   33.577(5)
_cell_angle_alpha                90
_cell_angle_beta                 92.895(6)
_cell_angle_gamma                90
_cell_volume                     3146.9
_exptl_crystal_description       needle
_cell_formula_units_Z            8
loop_
_atom_site_label
_atom_site_type_symbol
_atom_site_fract_x
_atom_site_fract_y
_atom_site_fract_z
C1 C 0.0865(2) 0.5013(3) 0.56714(7)
C2 C 0.1364(2) 0.6666(3) 0.57833(7)
C3 C 0.13255(19) 0.8129(3) 0.67750(7)
C4 C 0.13654(19) 0.7616(3) 0.61610(7)
N1 N 0.10837(17) 0.4650(2) 0.53027(6)
N2 N 0.18597(18) 0.7304(3) 0.54846(6)
N3 N 0.02496(17) 0.4113(2) 0.59356(6)
N4 N -0.01666(17) 0.2596(3) 0.58090(6)
N5 N 0.14725(16) 0.9362(2) 0.61822(6)
N6 N 0.14385(16) 0.9664(2) 0.65793(6)
H1 H 0.1569(19) 1.074(3) 0.6683(7)
N7 N 0.12758(16) 0.6793(2) 0.65146(5)
N8 N 0.12772(16) 0.7754(2) 0.71769(5)
N9 N 0.12664(16) 0.9116(2) 0.74138(6)
O1 O 0.16980(16) 0.6091(2) 0.51824(5)
O2 O 0.00033(15) 0.1903(2) 0.54820(5)
O3 O -0.07763(15) 0.1840(2) 0.60473(5)
O4 O 0.12940(14) 1.0687(2) 0.72974(5)
O5 O 0.12323(13) 0.8785(2) 0.77865(4)
C5 C -0.10205(19) 0.4025(3) 0.70082(7)
N10 N -0.12752(18) 0.4265(3) 0.73793(6)
H2 H -0.128(2) 0.532(3) 0.7479(7)
H3 H -0.132(2) 0.336(3) 0.7536(7)
N11 N -0.08766(19) 0.5403(3) 0.67724(7)
H4 H -0.058(2) 0.523(3) 0.6558(8)
H5 H -0.088(2) 0.646(3) 0.6879(8)
N12 N -0.09267(18) 0.2419(3) 0.68615(7)
H6 H -0.099(2) 0.148(3) 0.7019(7)
H7 H -0.084(2) 0.234(3) 0.6591(8)
C6 C 0.1608(2) 0.2445(3) 0.43817(7)
N13 N 0.10106(19) 0.1807(3) 0.46639(7)
H8 H 0.097(2) 0.239(3) 0.4879(8)
H9 H 0.072(2) 0.076(4) 0.4636(7)
N14 N 0.21316(19) 0.3952(3) 0.44321(7)
H10 H 0.208(2) 0.452(3) 0.4636(8)
H11 H 0.253(2) 0.433(3) 0.4240(7)
N15 N 0.1672(2) 0.1574(3) 0.40427(7)
H12 H 0.217(2) 0.193(3) 0.3852(7)
H13 H 0.135(2) 0.060(3) 0.4025(8)
O6 O 0.30184(15) 0.1737(2) 0.33307(5)
H14 H 0.329(2) 0.079(2) 0.3368(7)
H15 H 0.2548(18) 0.152(3) 0.3153(6)
loop_
_geom_bond_atom_site_label_1
_geom_bond_atom_site_label_2
_geom_bond_site_symmetry_1
_geom_bond_site_symmetry_2
C1 C2 1_555 1_555
C2 C4 1_555 1_555
C3 N6 1_555 1_555
C4 N5 1_555 1_555
N1 C1 1_555 1_555
N2 C2 1_555 1_555
N3 C1 1_555 1_555
N4 N3 1_555 1_555
N5 N6 1_555 1_555
N6 H1 1_555 1_555
N7 C3 1_555 1_555
N8 C3 1_555 1_555
N9 N8 1_555 1_555
O1 N1 1_555 1_555
O2 N4 1_555 1_555
O3 N4 1_555 1_555
O4 N9 1_555 1_555
O5 N9 1_555 1_555
C5 N10 1_555 1_555
N10 H2 1_555 1_555
H3 N10 1_555 1_555
N11 C5 1_555 1_555
H4 N11 1_555 1_555
H5 N11 1_555 1_555
N12 C5 1_555 1_555
H6 N12 1_555 1_555
H7 N12 1_555 1_555
C6 N13 1_555 1_555
N13 H8 1_555 1_555
H9 N13 1_555 1_555
N14 C6 1_555 1_555
H10 N14 1_555 1_555
H11 N14 1_555 1_555
N15 C6 1_555 1_555
H12 N15 1_555 1_555
H13 N15 1_555 1_555
O6 H14 1_555 1_555
H15 O6 1_555 1_555
C4 N7 1_555 1_555
N2 O1 1_555 1_555

#END
