
#######################################################################
#
#                 Cambridge Crystallographic Data Centre
#                                CCDC 
#
#######################################################################
#
# If this CIF has been generated from an entry in the Cambridge 
# Structural Database, then it will include bibliographic, chemical, 
# crystal, experimental, refinement or atomic coordinate data resulting 
# from the CCDC's data processing and validation procedures.
#
#######################################################################

data_IROQIP01
_chemical_formula_moiety         'C14 H12 N2 O3'
_chemical_name_systematic        
2-hydroxy-3-methoxy-5-(phenyldiazenyl)benzaldehyde
_symmetry_cell_setting           monoclinic
_symmetry_space_group_name_H-M   'C c'
_symmetry_Int_Tables_number      9
_space_group_name_Hall           'C -2yc'
loop_
_symmetry_equiv_pos_site_id
_symmetry_equiv_pos_as_xyz
1 x,y,z
2 x,-y,1/2+z
3 1/2+x,1/2+y,z
4 1/2+x,1/2-y,1/2+z
_cell_length_a                   10.7683(4)
_cell_length_b                   13.4401(5)
_cell_length_c                   8.4892(3)
_cell_angle_alpha                90
_cell_angle_beta                 93.755(2)
_cell_angle_gamma                90
_cell_volume                     1225.98
_exptl_crystal_colour            red
_exptl_crystal_description       prismatic
_cell_formula_units_Z            4
loop_
_atom_site_label
_atom_site_type_symbol
_atom_site_fract_x
_atom_site_fract_y
_atom_site_fract_z
C1 C 0.46704(16) 0.30343(15) 0.5853(2)
C2 C 0.43374(17) 0.23263(16) 0.4723(2)
H1 H 0.4458 0.1640 0.4954
O1 O 0.74739(14) 0.20951(12) 1.41856(16)
H2 H 0.7807 0.2578 1.4679
O2 O 0.64996(14) 0.07413(10) 1.22849(16)
O3 O 0.79581(15) 0.39963(12) 1.47338(19)
C3 C 0.36450(18) 0.36033(17) 0.2920(2)
H3 H 0.3295 0.3799 0.1911
C4 C 0.38286(17) 0.26147(17) 0.3255(2)
H4 H 0.3606 0.2126 0.2478
N1 N 0.51673(13) 0.26643(13) 0.73422(17)
N2 N 0.55612(14) 0.33296(13) 0.82796(17)
C5 C 0.3969(2) 0.43174(16) 0.4049(3)
H5 H 0.3839 0.5002 0.3815
C6 C 0.60201(17) 0.29745(13) 0.9786(2)
C7 C 0.60022(17) 0.19713(13) 1.0245(2)
H6 H 0.5655 0.1485 0.9533
C8 C 0.64805(16) 0.16874(14) 1.1709(2)
C9 C 0.70060(16) 0.24032(15) 1.2767(2)
C10 C 0.44822(18) 0.40363(14) 0.5516(2)
H7 H 0.4705 0.4526 0.6291
C11 C 0.65060(16) 0.36827(15) 1.0821(2)
H8 H 0.6500 0.4364 1.0520
C12 C 0.70071(15) 0.34027(15) 1.2313(2)
C13 C 0.5921(2) -0.00064(15) 1.1296(3)
H9 H 0.5057 0.0184 1.1010
H10 H 0.5935 -0.0642 1.1863
H11 H 0.6373 -0.0075 1.0337
C14 C 0.7505(2) 0.41562(17) 1.3398(3)
H12 H 0.7477 0.4827 1.3045
loop_
_geom_bond_atom_site_label_1
_geom_bond_atom_site_label_2
_geom_bond_site_symmetry_1
_geom_bond_site_symmetry_2
C1 C2 1_555 1_555
C2 H1 1_555 1_555
O1 H2 1_555 1_555
O2 C8 1_555 1_555
O3 C14 1_555 1_555
C3 H3 1_555 1_555
C4 C2 1_555 1_555
H4 C4 1_555 1_555
N1 C1 1_555 1_555
N2 N1 1_555 1_555
C5 C3 1_555 1_555
H5 C5 1_555 1_555
C6 N2 1_555 1_555
C7 C6 1_555 1_555
H6 C7 1_555 1_555
C8 C7 1_555 1_555
C9 O1 1_555 1_555
C10 C1 1_555 1_555
H7 C10 1_555 1_555
C11 C6 1_555 1_555
H8 C11 1_555 1_555
C12 C9 1_555 1_555
C13 O2 1_555 1_555
H9 C13 1_555 1_555
H10 C13 1_555 1_555
H11 C13 1_555 1_555
C14 C12 1_555 1_555
H12 C14 1_555 1_555
C3 C4 1_555 1_555
C5 C10 1_555 1_555
C8 C9 1_555 1_555
C11 C12 1_555 1_555

#END
