
#######################################################################
#
#                 Cambridge Crystallographic Data Centre
#                                CCDC 
#
#######################################################################
#
# If this CIF has been generated from an entry in the Cambridge 
# Structural Database, then it will include bibliographic, chemical, 
# crystal, experimental, refinement or atomic coordinate data resulting 
# from the CCDC's data processing and validation procedures.
#
#######################################################################

data_IROVIW
_chemical_formula_moiety         'C23 H15 N3 O4,0.25(H2 O1)'
_chemical_name_systematic        
"5-(4,2':6',4''-terpyridin-4'-yl)isophthalic acid hydrate"
_symmetry_cell_setting           triclinic
_symmetry_space_group_name_H-M   'P -1'
_symmetry_Int_Tables_number      2
_space_group_name_Hall           '-P 1'
loop_
_symmetry_equiv_pos_site_id
_symmetry_equiv_pos_as_xyz
1 x,y,z
2 -x,-y,-z
_cell_length_a                   10.3640(8)
_cell_length_b                   13.1770(9)
_cell_length_c                   14.1757(10)
_cell_angle_alpha                93.058(6)
_cell_angle_beta                 93.508(6)
_cell_angle_gamma                109.427(6)
_cell_volume                     1816.69
_exptl_crystal_colour            colorless
_exptl_crystal_description       block
_cell_formula_units_Z            4
loop_
_atom_site_label
_atom_site_type_symbol
_atom_site_fract_x
_atom_site_fract_y
_atom_site_fract_z
O1 O 0.71485(17) 0.51012(13) 0.20248(13)
H1 H 0.6448 0.5154 0.2228
O2 O 1.18325(17) 0.64422(12) 0.09223(13)
O3 O 0.60368(17) 0.33329(13) 0.21004(13)
O4 O 1.27673(17) 0.51935(13) 0.04900(13)
H2 H 1.3418 0.5724 0.0389
N1 N 0.97690(19) -0.05177(15) 0.11203(13)
N2 N 1.4560(2) -0.03559(16) 0.21347(15)
N3 N 0.5039(2) -0.32083(16) 0.02551(15)
C1 C 1.0882(2) 0.03478(18) 0.13864(16)
C2 C 0.9614(2) 0.15708(18) 0.12135(16)
C3 C 0.8571(2) -0.03551(18) 0.09080(16)
C4 C 1.0844(2) 0.13936(18) 0.14305(17)
H3 H 1.1642 0.1975 0.1605
C5 C 1.1785(2) 0.55097(18) 0.08203(16)
C6 C 0.9536(2) 0.26741(18) 0.12609(16)
C7 C 1.0582(2) 0.45836(18) 0.10676(16)
C8 C 1.2169(2) 0.01178(18) 0.16395(16)
C9 C 0.8460(2) 0.06682(18) 0.09547(16)
H4 H 0.7614 0.0749 0.0813
C10 C 0.8323(2) 0.39149(18) 0.16145(16)
C11 C 0.7048(2) 0.40765(19) 0.19373(16)
C12 C 1.4507(2) 0.06355(19) 0.23008(18)
H5 H 1.5283 0.1171 0.2591
C13 C 0.8381(2) 0.28753(18) 0.15614(16)
H6 H 0.7640 0.2307 0.1728
C14 C 1.0627(2) 0.35377(18) 0.10048(16)
H7 H 1.1396 0.3414 0.0789
C15 C 0.7426(2) -0.23604(19) 0.07814(18)
H8 H 0.8248 -0.2436 0.1006
C16 C 0.7356(2) -0.13443(18) 0.06410(16)
C17 C 0.9431(2) 0.47725(18) 0.13767(16)
H9 H 0.9401 0.5471 0.1425
C18 C 1.3423(2) -0.11134(19) 0.17124(17)
H10 H 1.3444 -0.1807 0.1584
C19 C 1.2226(2) -0.09143(18) 0.14596(17)
H11 H 1.1465 -0.1465 0.1171
C20 C 0.6114(2) -0.12968(19) 0.02689(17)
H12 H 0.6032 -0.0636 0.0138
C21 C 0.4992(3) -0.22343(19) 0.00911(18)
H13 H 0.4166 -0.2182 -0.0155
C22 C 1.3359(2) 0.09039(19) 0.20639(17)
H14 H 1.3376 0.1609 0.2187
C23 C 0.6255(3) -0.32598(19) 0.05818(18)
H15 H 0.6317 -0.3935 0.0680
O5 O 0.67190(17) 0.91770(13) 0.28040(13)
H16 H 0.6080 0.9342 0.2570
O6 O 1.25997(18) 1.24907(13) 0.43946(15)
O7 O 0.76396(18) 1.09579(13) 0.31605(13)
O8 O 1.37436(17) 1.13380(13) 0.45980(14)
H17 H 1.4421 1.1884 0.4609
N4 N 1.04531(19) 0.54590(15) 0.36995(13)
N5 N 0.5906(2) 0.29601(16) 0.44972(14)
N6 N 1.5004(2) 0.54559(16) 0.26677(15)
C24 C 1.1394(2) 1.06086(18) 0.40789(17)
C25 C 0.9094(2) 0.88386(18) 0.34651(16)
H18 H 0.8322 0.8247 0.3257
C26 C 1.0165(2) 1.07521(19) 0.37878(17)
H19 H 1.0114 1.1444 0.3802
C27 C 0.9012(2) 0.98703(19) 0.34757(17)
C28 C 1.0314(2) 0.86745(19) 0.37612(17)
C29 C 0.9281(2) 0.67149(18) 0.40106(17)
H20 H 0.8506 0.6839 0.4213
C30 C 1.0382(2) 0.75683(18) 0.37564(16)
C31 C 0.8161(2) 0.47322(18) 0.41797(16)
C32 C 1.2752(2) 0.60040(18) 0.32069(16)
C33 C 0.9345(2) 0.56784(18) 0.39599(16)
C34 C 1.1532(2) 0.73398(19) 0.34929(16)
H21 H 1.2295 0.7889 0.3327
C35 C 1.1462(2) 0.95732(18) 0.40614(17)
H22 H 1.2286 0.9477 0.4253
C36 C 0.7727(2) 1.00574(19) 0.31364(17)
C37 C 1.1533(2) 0.62817(18) 0.34791(16)
C38 C 0.8215(2) 0.36925(18) 0.40880(16)
H23 H 0.9009 0.3577 0.3914
C39 C 0.7078(2) 0.28331(19) 0.42590(17)
H24 H 0.7126 0.2140 0.4207
C40 C 1.2671(2) 0.49326(19) 0.30662(17)
H25 H 1.1862 0.4379 0.3152
C41 C 1.2642(2) 1.15745(19) 0.43843(18)
C42 C 1.4005(2) 0.67944(19) 0.30993(17)
H26 H 1.4114 0.7522 0.3209
C43 C 0.6948(2) 0.4854(2) 0.44455(18)
H27 H 0.6882 0.5539 0.4530
C44 C 1.5084(2) 0.6485(2) 0.28279(18)
H28 H 1.5912 0.7022 0.2752
C45 C 1.3809(3) 0.4698(2) 0.27961(18)
H29 H 1.3739 0.3977 0.2699
C46 C 0.5846(3) 0.39592(19) 0.45837(18)
H30 H 0.5032 0.4051 0.4743
O9 O 1.5467(8) 1.0596(7) 0.5627(9)
H31 H 1.5502 0.9978 0.5739
H32 H 1.4642 1.0541 0.5463
loop_
_geom_bond_atom_site_label_1
_geom_bond_atom_site_label_2
_geom_bond_site_symmetry_1
_geom_bond_site_symmetry_2
O1 H1 1_555 1_555
O2 C5 1_555 1_555
O3 C11 1_555 1_555
O4 H2 1_555 1_555
N1 C1 1_555 1_555
N2 C12 1_555 1_555
N3 C21 1_555 1_555
C1 C4 1_555 1_555
C2 C4 1_555 1_555
C3 N1 1_555 1_555
C4 H3 1_555 1_555
C5 O4 1_555 1_555
C6 C2 1_555 1_555
C7 C5 1_555 1_555
C8 C1 1_555 1_555
C9 C2 1_555 1_555
H4 C9 1_555 1_555
C10 C11 1_555 1_555
C11 O1 1_555 1_555
C12 H5 1_555 1_555
C13 C6 1_555 1_555
H6 C13 1_555 1_555
C14 C6 1_555 1_555
H7 C14 1_555 1_555
C15 H8 1_555 1_555
C16 C3 1_555 1_555
C17 C7 1_555 1_555
H9 C17 1_555 1_555
C18 N2 1_555 1_555
H10 C18 1_555 1_555
C19 C8 1_555 1_555
H11 C19 1_555 1_555
C20 C16 1_555 1_555
H12 C20 1_555 1_555
C21 C20 1_555 1_555
H13 C21 1_555 1_555
C22 C8 1_555 1_555
H14 C22 1_555 1_555
C23 N3 1_555 1_555
H15 C23 1_555 1_555
O5 H16 1_555 1_555
O6 C41 1_555 1_555
O7 C36 1_555 1_555
O8 H17 1_555 1_555
N4 C33 1_555 1_555
N5 C39 1_555 1_555
N6 C44 1_555 1_555
C24 C26 1_555 1_555
C25 H18 1_555 1_555
C26 H19 1_555 1_555
C27 C25 1_555 1_555
C28 C25 1_555 1_555
C29 H20 1_555 1_555
C30 C28 1_555 1_555
C31 C33 1_555 1_555
C32 C37 1_555 1_555
C33 C29 1_555 1_555
C34 C30 1_555 1_555
H21 C34 1_555 1_555
C35 C24 1_555 1_555
H22 C35 1_555 1_555
C36 O5 1_555 1_555
C37 N4 1_555 1_555
C38 C31 1_555 1_555
H23 C38 1_555 1_555
C39 C38 1_555 1_555
H24 C39 1_555 1_555
C40 C32 1_555 1_555
H25 C40 1_555 1_555
C41 O8 1_555 1_555
C42 C32 1_555 1_555
H26 C42 1_555 1_555
C43 C31 1_555 1_555
H27 C43 1_555 1_555
C44 C42 1_555 1_555
H28 C44 1_555 1_555
C45 N6 1_555 1_555
H29 C45 1_555 1_555
C46 N5 1_555 1_555
H30 C46 1_555 1_555
O9 H31 1_555 1_555
H32 O9 1_555 1_555
C3 C9 1_555 1_555
C7 C14 1_555 1_555
C10 C13 1_555 1_555
C10 C17 1_555 1_555
C12 C22 1_555 1_555
C15 C16 1_555 1_555
C15 C23 1_555 1_555
C18 C19 1_555 1_555
C24 C41 1_555 1_555
C26 C27 1_555 1_555
C27 C36 1_555 1_555
C28 C35 1_555 1_555
C29 C30 1_555 1_555
C34 C37 1_555 1_555
C40 C45 1_555 1_555
C43 C46 1_555 1_555

#END
