
#######################################################################
#
#                 Cambridge Crystallographic Data Centre
#                                CCDC 
#
#######################################################################
#
# If this CIF has been generated from an entry in the Cambridge 
# Structural Database, then it will include bibliographic, chemical, 
# crystal, experimental, refinement or atomic coordinate data resulting 
# from the CCDC's data processing and validation procedures.
#
#######################################################################

data_IRUJOW
_chemical_formula_moiety         'C40 H36 N2,C1 H1 Cl3'
_chemical_name_systematic        
'4-((7-t-butyl-3-((4-(dimethylamino)phenyl)ethynyl)pyren-1-yl)ethynyl)-N,N-dimethylaniline chloroform solvate'
_symmetry_cell_setting           triclinic
_symmetry_space_group_name_H-M   'P -1'
_symmetry_Int_Tables_number      2
_space_group_name_Hall           '-P 1'
loop_
_symmetry_equiv_pos_site_id
_symmetry_equiv_pos_as_xyz
1 x,y,z
2 -x,-y,-z
_cell_length_a                   10.8101(12)
_cell_length_b                   11.1244(12)
_cell_length_c                   14.3383(16)
_cell_angle_alpha                91.4712(18)
_cell_angle_beta                 91.6750(18)
_cell_angle_gamma                101.8031(17)
_cell_volume                     1686.2
_exptl_crystal_colour            orange
_exptl_crystal_description       block
_chemical_melting_point          '494-496 K'
_cell_formula_units_Z            2
_exptl_crystal_recrystallization_method methanol/chloroform
loop_
_atom_site_label
_atom_site_type_symbol
_atom_site_fract_x
_atom_site_fract_y
_atom_site_fract_z
C1 C 0.38763(11) 0.37433(11) 0.52955(8)
C2 C 0.31516(12) 0.37623(11) 0.44509(9)
C3 C 0.21470(12) 0.44069(11) 0.44133(9)
C4 C 0.14791(13) 0.44497(12) 0.35651(10)
H1 H 0.0819(17) 0.4878(16) 0.3535(12)
C5 C 0.17804(13) 0.38828(12) 0.27448(9)
C6 C 0.27702(13) 0.32487(12) 0.27930(9)
H2 H 0.3047(16) 0.2890(16) 0.2216(12)
C7 C 0.34532(12) 0.31663(11) 0.36241(9)
C8 C 0.44792(13) 0.25271(12) 0.36692(9)
H3 H 0.4707(17) 0.2155(16) 0.3060(12)
C9 C 0.51563(13) 0.24942(12) 0.44718(9)
H4 H 0.5832(17) 0.2072(16) 0.4496(12)
C10 C 0.48932(12) 0.31084(11) 0.53113(9)
C11 C 0.56190(12) 0.31140(11) 0.61495(9)
C12 C 0.53433(13) 0.37557(12) 0.69392(9)
H5 H 0.5843(16) 0.3760(15) 0.7500(12)
C13 C 0.43582(12) 0.43993(11) 0.69294(9)
C14 C 0.35927(12) 0.43849(11) 0.61092(9)
C15 C 0.25650(12) 0.50196(12) 0.60556(9)
H6 H 0.2346(17) 0.5489(17) 0.6604(12)
C16 C 0.18772(12) 0.50309(12) 0.52490(9)
H7 H 0.1166(18) 0.5495(17) 0.5212(13)
C17 C 0.11054(14) 0.39837(14) 0.18015(10)
C18 C -0.01114(16) 0.44672(18) 0.19142(13)
H8 H -0.049(2) 0.452(2) 0.1321(15)
H9 H -0.0758(19) 0.3901(18) 0.2320(14)
H10 H 0.002(2) 0.533(2) 0.2189(14)
C19 C 0.0748(2) 0.27116(19) 0.13066(14)
H11 H 0.149(2) 0.244(2) 0.1106(15)
H12 H 0.024(2) 0.277(2) 0.0711(17)
H13 H 0.025(3) 0.205(3) 0.170(2)
C20 C 0.20044(19) 0.4864(2) 0.11981(14)
H14 H 0.160(2) 0.492(2) 0.0570(16)
H15 H 0.286(2) 0.456(2) 0.1108(17)
H16 H 0.220(2) 0.575(2) 0.1505(17)
C21 C 0.66582(13) 0.24902(12) 0.61830(9)
C22 C 0.75357(13) 0.19762(13) 0.62047(10)
C23 C 0.85999(13) 0.13904(12) 0.62049(9)
C24 C 0.97917(14) 0.20302(13) 0.59570(10)
H17 H 0.9899(18) 0.2890(18) 0.5814(13)
C25 C 1.08212(13) 0.14740(13) 0.59360(10)
H18 H 1.1599(18) 0.1944(17) 0.5742(12)
C26 C 1.07138(13) 0.02328(12) 0.61691(9)
C27 C 0.95115(13) -0.04127(12) 0.64210(10)
H19 H 0.9407(15) -0.1266(16) 0.6578(11)
C28 C 0.84884(13) 0.01598(13) 0.64379(10)
H20 H 0.7675(17) -0.0327(16) 0.6620(12)
N1 N 1.17373(12) -0.03176(12) 0.61574(10)
C29 C 1.29573(15) 0.03820(16) 0.59113(13)
H21 H 1.294(2) 0.070(2) 0.5261(15)
H22 H 1.324(2) 0.113(2) 0.6336(15)
H23 H 1.358(2) -0.010(2) 0.5929(15)
C30 C 1.16421(19) -0.15646(17) 0.64433(15)
H24 H 1.141(2) -0.165(2) 0.7090(18)
H25 H 1.097(3) -0.218(3) 0.607(2)
H26 H 1.240(3) -0.180(3) 0.6374(19)
C31 C 0.41915(13) 0.51268(12) 0.77376(9)
C32 C 0.41351(13) 0.57977(12) 0.83973(9)
C33 C 0.41003(13) 0.66616(12) 0.91492(9)
C34 C 0.48862(14) 0.67281(13) 0.99490(10)
H27 H 0.5430(17) 0.6150(16) 1.0011(12)
C35 C 0.48946(15) 0.76062(13) 1.06501(10)
H28 H 0.5484(18) 0.7641(17) 1.1176(13)
C36 C 0.41167(14) 0.84771(12) 1.05836(9)
C37 C 0.33185(15) 0.83985(14) 0.97825(10)
H29 H 0.2792(19) 0.8947(19) 0.9691(13)
C38 C 0.33112(14) 0.75113(14) 0.90910(10)
H30 H 0.2790(19) 0.7496(18) 0.8546(14)
N2 N 0.41280(15) 0.93618(13) 1.12730(9)
C39 C 0.34492(18) 1.03452(14) 1.11523(12)
H31 H 0.3724 1.0785 1.0587
H32 H 0.3624 1.0916 1.1695
H33 H 0.2540 1.0000 1.1094
C40 C 0.5030(2) 0.94898(17) 1.20520(12)
H34 H 0.501(2) 0.874(2) 1.2390(16)
H35 H 0.586(2) 0.978(2) 1.1857(17)
H36 H 0.485(3) 1.006(3) 1.251(2)
C41 C 1.06537(15) 0.17493(14) 0.83736(11)
H37 H 1.0477(16) 0.1495(16) 0.7751(12)
Cl1 Cl 1.19189(4) 0.30179(4) 0.83944(4)
Cl2 Cl 0.92968(4) 0.21747(5) 0.88036(3)
Cl3 Cl 1.10443(6) 0.05496(5) 0.90105(5)
loop_
_geom_bond_atom_site_label_1
_geom_bond_atom_site_label_2
_geom_bond_site_symmetry_1
_geom_bond_site_symmetry_2
C1 C2 1_555 1_555
C2 C3 1_555 1_555
C3 C4 1_555 1_555
C4 H1 1_555 1_555
C5 C4 1_555 1_555
C6 C5 1_555 1_555
H2 C6 1_555 1_555
C7 C2 1_555 1_555
C8 C7 1_555 1_555
H3 C8 1_555 1_555
C9 C8 1_555 1_555
H4 C9 1_555 1_555
C10 C1 1_555 1_555
C11 C10 1_555 1_555
C12 C11 1_555 1_555
H5 C12 1_555 1_555
C13 C12 1_555 1_555
C14 C1 1_555 1_555
C15 C14 1_555 1_555
H6 C15 1_555 1_555
C16 C3 1_555 1_555
H7 C16 1_555 1_555
C17 C5 1_555 1_555
C18 C17 1_555 1_555
H8 C18 1_555 1_555
H9 C18 1_555 1_555
H10 C18 1_555 1_555
C19 C17 1_555 1_555
H11 C19 1_555 1_555
H12 C19 1_555 1_555
H13 C19 1_555 1_555
C20 C17 1_555 1_555
H14 C20 1_555 1_555
H15 C20 1_555 1_555
H16 C20 1_555 1_555
C21 C11 1_555 1_555
C22 C21 1_555 1_555
C23 C22 1_555 1_555
C24 C23 1_555 1_555
H17 C24 1_555 1_555
C25 C24 1_555 1_555
H18 C25 1_555 1_555
C26 C25 1_555 1_555
C27 C26 1_555 1_555
H19 C27 1_555 1_555
C28 C23 1_555 1_555
H20 C28 1_555 1_555
N1 C26 1_555 1_555
C29 N1 1_555 1_555
H21 C29 1_555 1_555
H22 C29 1_555 1_555
H23 C29 1_555 1_555
C30 N1 1_555 1_555
H24 C30 1_555 1_555
H25 C30 1_555 1_555
H26 C30 1_555 1_555
C31 C13 1_555 1_555
C32 C31 1_555 1_555
C33 C32 1_555 1_555
C34 C33 1_555 1_555
H27 C34 1_555 1_555
C35 C34 1_555 1_555
H28 C35 1_555 1_555
C36 C35 1_555 1_555
C37 C36 1_555 1_555
H29 C37 1_555 1_555
C38 C33 1_555 1_555
H30 C38 1_555 1_555
N2 C36 1_555 1_555
C39 N2 1_555 1_555
H31 C39 1_555 1_555
H32 C39 1_555 1_555
H33 C39 1_555 1_555
C40 N2 1_555 1_555
H34 C40 1_555 1_555
H35 C40 1_555 1_555
H36 C40 1_555 1_555
C41 H37 1_555 1_555
Cl1 C41 1_555 1_555
Cl2 C41 1_555 1_555
Cl3 C41 1_555 1_555
C6 C7 1_555 1_555
C9 C10 1_555 1_555
C13 C14 1_555 1_555
C15 C16 1_555 1_555
C27 C28 1_555 1_555
C37 C38 1_555 1_555

#END
