
#######################################################################
#
#                 Cambridge Crystallographic Data Centre
#                                CCDC 
#
#######################################################################
#
# If this CIF has been generated from an entry in the Cambridge 
# Structural Database, then it will include bibliographic, chemical, 
# crystal, experimental, refinement or atomic coordinate data resulting 
# from the CCDC's data processing and validation procedures.
#
#######################################################################

data_IRUKUD
_chemical_formula_moiety         'C26 H28 F7 N3 O1 S1,0.25(C1 H2 Cl2)'
_chemical_name_systematic        
'1-(3,5-bis(trifluoromethyl)phenyl)-3-(1-(2-(4-fluorophenyl)-2-methylpyrrolidin-1-yl)-3,3-dimethyl-1-oxobutan-2-yl)thiourea dichloromethane solvate'
_symmetry_cell_setting           monoclinic
_symmetry_space_group_name_H-M   'C 2'
_symmetry_Int_Tables_number      5
_space_group_name_Hall           'C 2y'
loop_
_symmetry_equiv_pos_site_id
_symmetry_equiv_pos_as_xyz
1 x,y,z
2 -x,y,-z
3 1/2+x,1/2+y,z
4 1/2-x,1/2+y,-z
_cell_length_a                   19.7969(5)
_cell_length_b                   12.4055(3)
_cell_length_c                   14.0366(3)
_cell_angle_alpha                90
_cell_angle_beta                 122.1170(10)
_cell_angle_gamma                90
_cell_volume                     2919.7
_exptl_crystal_colour            colorless
_exptl_crystal_description       needle
_cell_formula_units_Z            4
loop_
_atom_site_label
_atom_site_type_symbol
_atom_site_fract_x
_atom_site_fract_y
_atom_site_fract_z
C1 C 1.0429(2) 0.5808(4) 1.4098(3)
H1 H 1.0701 0.6463 1.4433
C2 C 1.0768(2) 0.4841(4) 1.4631(3)
H2 H 1.1269 0.4830 1.5323
C3 C 1.0375(3) 0.3913(4) 1.4155(3)
C4 C 0.9641(2) 0.3892(3) 1.3117(4)
H3 H 0.9376 0.3231 1.2793
C5 C 0.9320(2) 0.4863(3) 1.2585(3)
H4 H 0.8834 0.4867 1.1872
C6 C 0.9696(2) 0.5838(3) 1.3078(3)
C7 C 0.9289(2) 0.6922(3) 1.2578(3)
C8 C 0.8696(3) 0.7193(4) 1.2931(4)
H5 H 0.8902 0.6955 1.3712
H6 H 0.8591 0.7977 1.2877
C9 C 0.7942(2) 0.6576(3) 1.2104(3)
H7 H 0.7985 0.5808 1.2321
H8 H 0.7468 0.6894 1.2061
C10 C 0.7896(2) 0.6698(3) 1.0992(3)
H9 H 0.7658 0.6049 1.0517
H10 H 0.7574 0.7337 1.0573
C11 C 0.9019(2) 0.6778(3) 1.0654(3)
C12 C 0.8430(2) 0.6815(3) 0.9364(3)
H11 H 0.7925 0.6451 0.9183
C13 C 0.8737(2) 0.5129(3) 0.8763(3)
C14 C 0.9222(2) 0.3608(3) 0.8145(3)
C15 C 0.9899(2) 0.2985(3) 0.8703(3)
H12 H 1.0374 0.3267 0.9332
C16 C 0.9879(2) 0.1933(3) 0.8335(3)
C17 C 0.9194(3) 0.1515(3) 0.7412(4)
H13 H 0.9184 0.0800 0.7162
C18 C 0.8521(2) 0.2166(4) 0.6859(4)
C19 C 0.8524(2) 0.3207(4) 0.7210(3)
H14 H 0.8059 0.3643 0.6823
C20 C 0.9875(3) 0.7862(4) 1.2889(4)
H15 H 1.0102 0.8059 1.3679
H16 H 0.9592 0.8484 1.2409
H17 H 1.0304 0.7645 1.2778
C21 C 0.8218(2) 0.7965(3) 0.8834(3)
C22 C 0.7622(3) 0.7833(4) 0.7572(4)
H18 H 0.7871 0.7424 0.7240
H19 H 0.7462 0.8545 0.7218
H20 H 0.7151 0.7444 0.7449
C23 C 0.7831(3) 0.8640(3) 0.9333(4)
H21 H 0.7308 0.8336 0.9100
H22 H 0.7765 0.9384 0.9062
H23 H 0.8172 0.8632 1.0155
C24 C 0.8967(3) 0.8572(3) 0.9067(4)
H24 H 0.9360 0.8583 0.9878
H25 H 0.8824 0.9313 0.8789
H26 H 0.9195 0.8208 0.8682
C25 C 1.0627(3) 0.1273(4) 0.8934(4)
N1 N 0.87406(19) 0.6835(3) 1.1329(2)
N2 N 0.87848(17) 0.6192(2) 0.8872(2)
H27 H 0.9051 0.6542 0.8628
N3 N 0.92455(18) 0.4691(3) 0.8491(3)
H28 H 0.9618 0.5113 0.8534
O1 O 0.97417(15) 0.6686(2) 1.1028(2)
F1 F 1.06884(16) 0.2957(2) 1.4675(2)
F2 F 1.09851(19) 0.1322(2) 1.0047(2)
F3 F 1.11714(18) 0.1620(3) 0.8704(3)
F4 F 1.0490(2) 0.0233(2) 0.8648(3)
C26 C 0.7781(3) 0.1730(6) 0.5829(4)
F5 F 0.7659(5) 0.0720(9) 0.6067(10)
F6 F 0.7783(4) 0.1796(8) 0.4922(4)
F7 F 0.7116(3) 0.2276(6) 0.5632(6)
S1 S 0.81162(6) 0.43621(7) 0.89639(8)
C27 C 0.6190(15) 0.544(2) 0.607(2)
H29 H 0.6561 0.5260 0.6878
H30 H 0.6340 0.6159 0.5948
Cl1 Cl 0.5294(4) 0.5529(5) 0.5858(5)
Cl2 Cl 0.6361(4) 0.4533(4) 0.5302(5)
F8? F 0.7424(15) 0.092(2) 0.590(3)
F9? F 0.8025(9) 0.1236(19) 0.5142(12)
F10? F 0.7216(10) 0.2337(19) 0.5287(16)
loop_
_geom_bond_atom_site_label_1
_geom_bond_atom_site_label_2
_geom_bond_site_symmetry_1
_geom_bond_site_symmetry_2
C1 H1 1_555 1_555
C2 C1 1_555 1_555
H2 C2 1_555 1_555
C3 C2 1_555 1_555
C4 C3 1_555 1_555
H3 C4 1_555 1_555
C5 C4 1_555 1_555
H4 C5 1_555 1_555
C6 C1 1_555 1_555
C7 C6 1_555 1_555
C8 C7 1_555 1_555
H5 C8 1_555 1_555
H6 C8 1_555 1_555
C9 C8 1_555 1_555
H7 C9 1_555 1_555
H8 C9 1_555 1_555
C10 C9 1_555 1_555
H9 C10 1_555 1_555
H10 C10 1_555 1_555
C11 C12 1_555 1_555
C12 H11 1_555 1_555
C13 N2 1_555 1_555
C14 C15 1_555 1_555
C15 H12 1_555 1_555
C16 C15 1_555 1_555
C17 C16 1_555 1_555
H13 C17 1_555 1_555
C18 C17 1_555 1_555
C19 C14 1_555 1_555
H14 C19 1_555 1_555
C20 C7 1_555 1_555
H15 C20 1_555 1_555
H16 C20 1_555 1_555
H17 C20 1_555 1_555
C21 C12 1_555 1_555
C22 C21 1_555 1_555
H18 C22 1_555 1_555
H19 C22 1_555 1_555
H20 C22 1_555 1_555
C23 C21 1_555 1_555
H21 C23 1_555 1_555
H22 C23 1_555 1_555
H23 C23 1_555 1_555
C24 C21 1_555 1_555
H24 C24 1_555 1_555
H25 C24 1_555 1_555
H26 C24 1_555 1_555
C25 C16 1_555 1_555
N1 C7 1_555 1_555
N2 C12 1_555 1_555
H27 N2 1_555 1_555
N3 C13 1_555 1_555
H28 N3 1_555 1_555
O1 C11 1_555 1_555
F1 C3 1_555 1_555
F2 C25 1_555 1_555
F3 C25 1_555 1_555
F4 C25 1_555 1_555
C26 C18 1_555 1_555
F5 C26 1_555 1_555
F6 C26 1_555 1_555
F7 C26 1_555 1_555
S1 C13 1_555 1_555
C27 H29 1_555 1_555
H30 C27 1_555 1_555
Cl1 C27 1_555 1_555
Cl2 C27 1_555 1_555
C5 C6 1_555 1_555
C10 N1 1_555 1_555
C11 N1 1_555 1_555
C14 N3 1_555 1_555
C18 C19 1_555 1_555

#END
