
#######################################################################
#
#                 Cambridge Crystallographic Data Centre
#                                CCDC 
#
#######################################################################
#
# If this CIF has been generated from an entry in the Cambridge 
# Structural Database, then it will include bibliographic, chemical, 
# crystal, experimental, refinement or atomic coordinate data resulting 
# from the CCDC's data processing and validation procedures.
#
#######################################################################

data_IRULIS
_chemical_formula_moiety         
'C4 H12 N1 1+,Cl1 1-,2(C26 H28 F7 N3 O2),0.5(C1 H1 Cl3)'
_chemical_name_systematic        
'tetramethylammonium chloride bis(1-(3,5-bis(trifluoromethyl)phenyl)-3-(1-(2-(4-fluorophenyl)-2-methylpyrrolidin-1-yl)-3,3-dimethyl-1-oxobutan-2-yl)urea) chloroform solvate'
_symmetry_cell_setting           orthorhombic
_symmetry_space_group_name_H-M   'P 21 21 21'
_symmetry_Int_Tables_number      19
_space_group_name_Hall           'P 2ac 2ab'
loop_
_symmetry_equiv_pos_site_id
_symmetry_equiv_pos_as_xyz
1 x,y,z
2 1/2-x,-y,1/2+z
3 -x,1/2+y,1/2-z
4 1/2+x,1/2-y,-z
_cell_length_a                   14.092(2)
_cell_length_b                   18.525(3)
_cell_length_c                   46.955(7)
_cell_angle_alpha                90
_cell_angle_beta                 90
_cell_angle_gamma                90
_cell_volume                     12257.8
_exptl_crystal_colour            colorless
_exptl_crystal_description       plate
_cell_formula_units_Z            8
loop_
_atom_site_label
_atom_site_type_symbol
_atom_site_fract_x
_atom_site_fract_y
_atom_site_fract_z
C1 C 0.4407(5) 0.1104(6) 0.7164(2)
H1 H 0.3748 0.1134 0.7205
C2 C 0.4793(5) 0.0459(5) 0.7067(2)
H2 H 0.4399 0.0048 0.7042
C3 C 0.5758(5) 0.0415(3) 0.70075(18)
C4 C 0.6336(5) 0.1015(4) 0.70447(17)
H3 H 0.6995 0.0985 0.7004
C5 C 0.5949(7) 0.1660(4) 0.7142(2)
H4 H 0.6344 0.2071 0.7167
C6 C 0.4985(8) 0.1705(5) 0.7201(3)
F1 F 0.6121(6) -0.0214(4) 0.69076(17)
C7 C 0.4443(2) 0.24119(16) 0.72887(7)
C8 C 0.4213(3) 0.23321(18) 0.76083(7)
H5 H 0.3651 0.2625 0.7660
H6 H 0.4088 0.1821 0.7657
C9 C 0.5087(4) 0.2604(2) 0.77585(7)
H7 H 0.5603 0.2242 0.7754
H8 H 0.4948 0.2732 0.7959
C10 C 0.5339(3) 0.3272(2) 0.75824(7)
H9 H 0.4980 0.3700 0.7648
H10 H 0.6027 0.3378 0.7593
C11 C 0.5356(2) 0.33767(16) 0.70462(6)
C12 C 0.5755(2) 0.41418(16) 0.70689(6)
H11 H 0.5959 0.4228 0.7270
C13 C 0.7342(2) 0.37726(15) 0.69309(6)
C14 C 0.8977(2) 0.35915(14) 0.67596(6)
C15 C 0.9145(2) 0.29156(14) 0.68803(6)
H12 H 0.8644 0.2658 0.6969
C16 C 1.0043(2) 0.26239(15) 0.68693(6)
C17 C 1.0802(2) 0.29887(17) 0.67483(6)
H13 H 1.1420 0.2783 0.6745
C18 C 1.0627(2) 0.36630(16) 0.66327(6)
C19 C 0.9737(2) 0.39648(15) 0.66361(6)
H14 H 0.9636 0.4428 0.6554
C20 C 0.3550(2) 0.25451(17) 0.71111(8)
H15 H 0.3719 0.2562 0.6909
H16 H 0.3263 0.3006 0.7167
H17 H 0.3095 0.2153 0.7144
C21 C 0.5004(2) 0.47201(17) 0.69868(7)
C22 C 0.4173(3) 0.4682(2) 0.71974(8)
H18 H 0.3852 0.4215 0.7178
H19 H 0.3723 0.5072 0.7156
H20 H 0.4413 0.4735 0.7392
C23 C 0.4620(3) 0.4606(2) 0.66855(8)
H21 H 0.5150 0.4568 0.6552
H22 H 0.4217 0.5016 0.6632
H23 H 0.4245 0.4161 0.6680
C24 C 0.5454(3) 0.54660(19) 0.70089(10)
H24 H 0.5725 0.5530 0.7199
H25 H 0.4969 0.5836 0.6976
H26 H 0.5957 0.5512 0.6866
C25 C 1.0183(3) 0.18974(17) 0.70042(7)
C26 C 1.1435(2) 0.4093(2) 0.65124(8)
F2 F 1.1875(3) 0.4466(2) 0.67092(7)
F3 F 1.11833(19) 0.45567(19) 0.63128(8)
F4 F 1.2104(2) 0.36821(18) 0.63964(9)
N1 N 0.50555(18) 0.30630(14) 0.72906(5)
N2 N 0.65826(18) 0.42011(14) 0.68850(5)
H27 H 0.6609 0.4576 0.6771
N3 N 0.80889(17) 0.39082(13) 0.67478(5)
H28 H 0.8035 0.4289 0.6637
O1 O 0.52619(15) 0.30824(11) 0.68140(4)
O2 O 0.73522(15) 0.32997(12) 0.71147(5)
F5 F 0.95575(18) 0.14143(10) 0.69115(5)
F6 F 1.00849(18) 0.19245(11) 0.72872(4)
F7 F 1.10413(17) 0.16166(11) 0.69521(4)
C40 C 0.7059(3) 0.26311(18) 0.47684(7)
C41 C 0.8091(3) 0.21859(19) 0.51733(8)
C42 C 0.6224(5) 0.1651(3) 0.52502(18)
H37 H 0.6681 0.1331 0.5171
C43 C 0.5403(6) 0.1377(3) 0.53735(17)
H38 H 0.5298 0.0870 0.5379
C44 C 0.4734(5) 0.1844(4) 0.54892(15)
C45 C 0.4887(5) 0.2585(4) 0.54818(15)
H39 H 0.4430 0.2904 0.5561
C46 C 0.5708(5) 0.2859(3) 0.53586(18)
H40 H 0.5812 0.3365 0.5354
C47 C 0.6377(5) 0.2392(3) 0.52428(19)
C48 C 0.7250(5) 0.2650(3) 0.50893(14)
H41 H 0.7655 0.2557 0.4661
H42 H 0.6608 0.2240 0.4720
H43 H 0.8173 0.2201 0.5380
H44 H 0.8666 0.2370 0.5081
H45 H 0.7978 0.1687 0.5113
F12 F 0.3950(5) 0.1585(4) 0.56084(15)
C49 C 0.6633(3) 0.33688(17) 0.47045(6)
H46 H 0.6717 0.3499 0.4502
H47 H 0.5949 0.3381 0.4752
C50 C 0.7194(2) 0.38700(16) 0.48962(6)
H48 H 0.7787 0.4030 0.4802
H49 H 0.6814 0.4300 0.4949
C51 C 0.76396(18) 0.36632(14) 0.54095(6)
C52 C 0.78836(18) 0.44667(14) 0.54407(6)
H50 H 0.7708 0.4715 0.5259
C53 C 0.63602(18) 0.48001(13) 0.56362(6)
C54 C 0.49058(19) 0.51240(14) 0.58979(6)
C55 C 0.42473(19) 0.47571(15) 0.57344(6)
H51 H 0.4449 0.4407 0.5599
C56 C 0.3290(2) 0.49051(15) 0.57694(6)
C57 C 0.2972(2) 0.54117(17) 0.59618(7)
H52 H 0.2314 0.5510 0.5983
C58 C 0.3643(2) 0.57726(16) 0.61230(6)
C59 C 0.4599(2) 0.56386(14) 0.60938(6)
H53 H 0.5046 0.5895 0.6206
C60 C 0.89513(19) 0.46051(15) 0.54967(6)
C61 C 0.9518(2) 0.4180(2) 0.52732(8)
H54 H 0.9473 0.3663 0.5314
H55 H 1.0185 0.4330 0.5279
H56 H 0.9258 0.4277 0.5083
C62 C 0.9261(2) 0.43776(17) 0.57940(7)
H57 H 0.8954 0.4688 0.5936
H58 H 0.9951 0.4423 0.5811
H59 H 0.9076 0.3875 0.5827
C63 C 0.9144(2) 0.54116(18) 0.54564(8)
H60 H 0.8995 0.5550 0.5260
H61 H 0.9814 0.5512 0.5496
H62 H 0.8746 0.5689 0.5588
C64 C 0.2593(2) 0.44693(19) 0.55994(8)
C65 C 0.3305(3) 0.6323(2) 0.63334(9)
F13 F 0.2654(3) 0.60062(19) 0.65159(8)
F14 F 0.2854(4) 0.6871(2) 0.62215(13)
F15 F 0.3984(2) 0.6568(2) 0.64998(9)
N4 N 0.74011(17) 0.34194(11) 0.51492(5)
N5 N 0.73075(15) 0.47741(11) 0.56696(5)
H63 H 0.7610 0.4829 0.5832
N6 N 0.58829(16) 0.49985(12) 0.58805(5)
H64 H 0.6269 0.5213 0.6000
O3 O 0.76675(15) 0.32667(10) 0.56198(4)
O4 O 0.59622(13) 0.46707(10) 0.54093(4)
F16 F 0.2480(2) 0.38106(13) 0.57078(5)
F17 F 0.28595(14) 0.43732(12) 0.53300(4)
F18 F 0.17385(14) 0.47804(16) 0.55872(6)
C66 C 0.1330(2) 0.82762(15) 0.47241(6)
H70 H 0.1782 0.8612 0.4795
C67 C 0.0494(3) 0.85292(16) 0.46043(7)
H71 H 0.0367 0.9032 0.4591
C68 C -0.0140(2) 0.80297(17) 0.45056(7)
C69 C 0.0009(2) 0.73005(17) 0.45210(7)
H72 H -0.0448 0.6970 0.4450
C70 C 0.0845(2) 0.70584(15) 0.46431(6)
H73 H 0.0958 0.6554 0.4658
C71 C 0.1521(2) 0.75420(14) 0.47435(6)
C72 C 0.2426(2) 0.72872(14) 0.48936(6)
C73 C 0.2281(3) 0.73080(16) 0.52172(6)
H74 H 0.2893 0.7379 0.5317
H75 H 0.1844 0.7704 0.5271
C74 C 0.1853(3) 0.65779(17) 0.52916(6)
H76 H 0.1948 0.6462 0.5495
H77 H 0.1166 0.6565 0.5248
C75 C 0.2402(2) 0.60609(15) 0.51020(6)
H78 H 0.3000 0.5905 0.5194
H79 H 0.2018 0.5629 0.5055
C76 C 0.28099(18) 0.62407(13) 0.45843(6)
C77 C 0.30416(18) 0.54305(13) 0.45552(6)
H80 H 0.2838 0.5182 0.4734
C78 C 0.15226(18) 0.51900(13) 0.43416(6)
C79 C 0.01191(18) 0.53610(13) 0.40374(6)
C80 C -0.05807(18) 0.53741(13) 0.42493(6)
H81 H -0.0446 0.5200 0.4435
C81 C -0.14732(19) 0.56444(14) 0.41844(6)
C82 C -0.1684(2) 0.59111(15) 0.39169(6)
H82 H -0.2294 0.6105 0.3877
C83 C -0.0993(2) 0.58908(14) 0.37088(6)
C84 C -0.0099(2) 0.56121(14) 0.37658(6)
H83 H 0.0365 0.5592 0.3619
C85 C 0.3298(2) 0.77284(16) 0.48084(8)
H84 H 0.3332 0.7761 0.4600
H85 H 0.3871 0.7492 0.4881
H86 H 0.3249 0.8215 0.4889
C86 C 0.41094(18) 0.52822(14) 0.45105(6)
C87 C 0.4652(2) 0.55944(19) 0.47623(7)
H87 H 0.4533 0.6115 0.4775
H88 H 0.5333 0.5509 0.4736
H89 H 0.4440 0.5360 0.4938
C88 C 0.4495(2) 0.56241(17) 0.42348(7)
H90 H 0.4131 0.5445 0.4072
H91 H 0.5165 0.5494 0.4211
H92 H 0.4436 0.6150 0.4246
C89 C 0.4270(2) 0.44702(16) 0.44987(8)
H93 H 0.4072 0.4252 0.4679
H94 H 0.4945 0.4372 0.4467
H95 H 0.3897 0.4264 0.4343
C90 C -0.2235(2) 0.56141(16) 0.44050(6)
C91 C -0.1208(3) 0.6199(2) 0.34229(7)
F23 F -0.1677(5) 0.6799(2) 0.34249(9)
F24 F -0.1838(4) 0.5723(3) 0.32820(9)
F25 F -0.0509(5) 0.6180(4) 0.3236(2)
N7 N 0.25959(16) 0.65003(11) 0.48436(5)
N8 N 0.24760(15) 0.51402(11) 0.43184(5)
H96 H 0.2838 0.5193 0.4168
N9 N 0.10436(16) 0.51129(12) 0.40850(5)
H97 H 0.1445 0.5016 0.3947
O5 O 0.28199(14) 0.66263(9) 0.43706(4)
O6 O 0.11207(13) 0.52906(10) 0.45688(4)
F26 F -0.09689(14) 0.82724(11) 0.43858(5)
F27 F -0.19063(14) 0.56247(15) 0.46687(4)
F28 F -0.28486(15) 0.61575(12) 0.43817(5)
F29 F -0.27576(15) 0.50148(12) 0.43849(5)
C92 C 0.5483(3) 0.8397(2) 0.36040(6)
H98 H 0.5366 0.8855 0.3521
C93 C 0.5439(3) 0.8314(3) 0.38979(6)
H99 H 0.5292 0.8716 0.4015
C94 C 0.5611(2) 0.7643(3) 0.40200(3)
C95 C 0.5827(2) 0.7055(3) 0.38481(5)
H100 H 0.5944 0.6596 0.3932
C96 C 0.5871(3) 0.7137(2) 0.35542(4)
H101 H 0.6018 0.6735 0.3437
C97 C 0.5699(3) 0.78082(18) 0.34321(3)
C98 C 0.5739(2) 0.78934(15) 0.31058(6)
F33 F 0.5532(2) 0.7553(4) 0.43025(5)
C99 C 0.6791(2) 0.79289(19) 0.30099(7)
H102 H 0.7004 0.8437 0.2994
H103 H 0.7204 0.7676 0.3148
C100 C 0.6826(2) 0.75614(18) 0.27237(7)
H104 H 0.6596 0.7885 0.2571
H105 H 0.7477 0.7398 0.2678
C101 C 0.6167(2) 0.69296(15) 0.27650(7)
H106 H 0.5880 0.6780 0.2582
H107 H 0.6507 0.6513 0.2849
C102 C 0.46057(19) 0.68775(14) 0.30282(5)
C103 C 0.44622(19) 0.60978(14) 0.29204(5)
H108 H 0.5047 0.5953 0.2814
C104 C 0.51421(18) 0.52636(14) 0.32667(6)
C105 C 0.55358(19) 0.43315(13) 0.36237(5)
C106 C 0.65185(19) 0.43251(14) 0.35926(6)
H109 H 0.6831 0.4706 0.3495
C107 C 0.70357(19) 0.37573(15) 0.37060(6)
C108 C 0.6611(2) 0.31980(14) 0.38561(6)
H110 H 0.6978 0.2814 0.3932
C109 C 0.5638(2) 0.32164(13) 0.38910(5)
C110 C 0.50988(19) 0.37747(14) 0.37763(5)
H111 H 0.4430 0.3778 0.3802
C111 C 0.5168(3) 0.85160(17) 0.29915(7)
H112 H 0.4500 0.8454 0.3044
H113 H 0.5224 0.8531 0.2784
H114 H 0.5407 0.8969 0.3072
C112 C 0.3609(2) 0.60082(16) 0.27179(6)
C113 C 0.3800(3) 0.6465(2) 0.24490(7)
H115 H 0.3833 0.6976 0.2501
H116 H 0.3285 0.6392 0.2312
H117 H 0.4403 0.6316 0.2363
C114 C 0.2666(2) 0.6251(2) 0.28532(8)
H118 H 0.2546 0.5968 0.3026
H119 H 0.2147 0.6176 0.2717
H120 H 0.2705 0.6764 0.2903
C115 C 0.3537(3) 0.5208(2) 0.26332(8)
H121 H 0.4137 0.5052 0.2547
H122 H 0.3021 0.5145 0.2495
H123 H 0.3407 0.4916 0.2803
C116 C 0.8086(2) 0.37456(18) 0.36650(7)
F34 F 0.85565(15) 0.41037(16) 0.38613(6)
F35 F 0.83517(19) 0.4076(3) 0.34217(8)
F36 F 0.84417(17) 0.30851(14) 0.36585(9)
C117 C 0.5138(2) 0.26208(14) 0.40443(6)
N10 N 0.54307(17) 0.72075(11) 0.29637(5)
N11 N 0.43848(16) 0.56383(12) 0.31699(5)
H124 H 0.3864 0.5655 0.3273
N12 N 0.49502(16) 0.48630(11) 0.35087(4)
H125 H 0.4383 0.4842 0.3585
O7 O 0.40125(14) 0.71552(11) 0.31848(4)
O8 O 0.59133(14) 0.52730(12) 0.31494(5)
F37 F 0.44458(15) 0.23372(10) 0.38864(4)
F38 F 0.47395(19) 0.28373(11) 0.42830(4)
F39 F 0.56991(15) 0.20736(11) 0.41096(6)
C124 C 0.7032(2) 0.18635(16) 0.59874(6)
H133 H 0.7293 0.1391 0.6038
H134 H 0.7543 0.2176 0.5918
H135 H 0.6554 0.1804 0.5837
C125 C 0.5763(2) 0.1744(2) 0.63392(8)
H136 H 0.5312 0.1690 0.6182
H137 H 0.5447 0.1978 0.6501
H138 H 0.5994 0.1268 0.6397
C126 C 0.7282(2) 0.22241(18) 0.64787(6)
H139 H 0.7511 0.1735 0.6519
H140 H 0.6982 0.2424 0.6650
H141 H 0.7818 0.2530 0.6423
C127 C 0.6270(3) 0.29513(19) 0.61767(8)
H142 H 0.6816 0.3233 0.6111
H143 H 0.6004 0.3175 0.6348
H144 H 0.5786 0.2938 0.6027
N13 N 0.65812(17) 0.21985(12) 0.62441(5)
Cl1 Cl 0.74192(5) 0.52612(3) 0.636376(14)
Cl2 Cl 0.27053(5) 0.48732(3) 0.362208(14)
C128 C 0.6737(2) 0.47052(19) 0.25630(8)
H145 H 0.6329 0.4617 0.2734
Cl3 Cl 0.60522(8) 0.51597(5) 0.23066(2)
Cl4 Cl 0.71008(7) 0.38603(5) 0.24266(2)
Cl5 Cl 0.76980(7) 0.52239(5) 0.26680(3)
C129 C 0.6546(2) 0.7263(2) 0.60701(7)
H146 H 0.5916 0.7420 0.6133
H147 H 0.6548 0.6738 0.6046
H148 H 0.6699 0.7496 0.5888
C130 C 0.7322(3) 0.82761(15) 0.63160(7)
H149 H 0.7474 0.8489 0.6130
H150 H 0.7818 0.8403 0.6453
H151 H 0.6710 0.8463 0.6382
C131 C 0.7024(2) 0.71409(16) 0.65685(6)
H152 H 0.6398 0.7313 0.6630
H153 H 0.7501 0.7280 0.6710
H154 H 0.7011 0.6614 0.6550
C132 C 0.8220(2) 0.71971(16) 0.61955(7)
H155 H 0.8199 0.6670 0.6178
H156 H 0.8699 0.7333 0.6337
H157 H 0.8384 0.7409 0.6011
N14 N 0.72677(17) 0.74700(12) 0.62880(5)
C27? C 0.4516(7) 0.1135(9) 0.7098(4)
H29? H 0.3844 0.1113 0.7086
C28? C 0.5058(8) 0.0525(7) 0.7040(3)
H30? H 0.4755 0.0087 0.6987
C29? C 0.6041(8) 0.0558(5) 0.7058(3)
C30? C 0.6484(8) 0.1199(6) 0.7135(3)
H31? H 0.7156 0.1221 0.7148
C31? C 0.5942(11) 0.1808(5) 0.7194(3)
H32? H 0.6245 0.2247 0.7247
C32? C 0.4959(11) 0.1776(7) 0.7176(4)
F8? F 0.6476(8) -0.0050(5) 0.6996(3)
F9? F 1.2214(14) 0.3962(16) 0.6646(6)
F10? F 1.1250(16) 0.4778(9) 0.6511(6)
F11? F 1.1583(18) 0.3889(15) 0.6249(4)
C33? C 0.5941(11) 0.1649(8) 0.5308(4)
H33? H 0.6372 0.1279 0.5255
C34? C 0.5094(11) 0.1473(7) 0.5443(4)
H34? H 0.4947 0.0982 0.5482
C35? C 0.4463(9) 0.2014(9) 0.5521(4)
C36? C 0.4678(10) 0.2732(8) 0.5464(4)
H35? H 0.4246 0.3102 0.5517
C37? C 0.5524(11) 0.2908(7) 0.5329(4)
H36? H 0.5671 0.3399 0.5290
C38? C 0.6156(10) 0.2367(9) 0.5251(4)
C39? C 0.7125(10) 0.2614(7) 0.5109(3)
H65? H 0.7696 0.2582 0.4681
H66? H 0.6645 0.2239 0.4697
H67? H 0.8162 0.2119 0.5379
H68? H 0.8631 0.2464 0.5100
H69? H 0.8072 0.1714 0.5079
F19? F 0.3632(10) 0.1861(9) 0.5661(4)
F20? F 0.3146(16) 0.6204(11) 0.6597(3)
F21? F 0.271(2) 0.6729(14) 0.6194(8)
F22? F 0.4044(10) 0.6871(9) 0.6349(4)
F30? F -0.0984(9) 0.6924(4) 0.34324(18)
F31? F -0.2105(6) 0.6156(6) 0.33429(18)
F32? F -0.0667(11) 0.5988(9) 0.3225(4)
C118? C 0.522(2) 0.8583(16) 0.3559(5)
H126? H 0.5055 0.9002 0.3453
C119? C 0.524(2) 0.861(2) 0.3855(5)
H127? H 0.5091 0.9045 0.3951
C120? C 0.547(2) 0.799(3) 0.4010(3)
C121? C 0.569(2) 0.736(2) 0.3869(5)
H128? H 0.5851 0.6936 0.3974
C122? C 0.567(2) 0.7330(17) 0.3573(5)
H129? H 0.5815 0.6893 0.3476
C123? C 0.543(2) 0.7944(17) 0.3418(3)
F40? F 0.546(3) 0.794(3) 0.4294(4)
H130? H 0.4492 0.8428 0.3026
H131? H 0.5279 0.8563 0.2786
H132? H 0.5361 0.8962 0.3088
F41? F 0.8533(14) 0.3708(14) 0.3909(4)
F42? F 0.8380(17) 0.4386(11) 0.3578(6)
F43? F 0.8333(16) 0.3282(13) 0.3483(6)
loop_
_geom_bond_atom_site_label_1
_geom_bond_atom_site_label_2
_geom_bond_site_symmetry_1
_geom_bond_site_symmetry_2
C1 H1 1_555 1_555
C2 C1 1_555 1_555
H2 C2 1_555 1_555
C3 C2 1_555 1_555
C4 C3 1_555 1_555
H3 C4 1_555 1_555
C5 C4 1_555 1_555
H4 C5 1_555 1_555
C6 C1 1_555 1_555
F1 C3 1_555 1_555
C7 C6 1_555 1_555
C8 C7 1_555 1_555
H5 C8 1_555 1_555
H6 C8 1_555 1_555
C9 C8 1_555 1_555
H7 C9 1_555 1_555
H8 C9 1_555 1_555
C10 C9 1_555 1_555
H9 C10 1_555 1_555
H10 C10 1_555 1_555
C11 C12 1_555 1_555
C12 H11 1_555 1_555
C13 N2 1_555 1_555
C14 C15 1_555 1_555
C15 H12 1_555 1_555
C16 C15 1_555 1_555
C17 C16 1_555 1_555
H13 C17 1_555 1_555
C18 C17 1_555 1_555
C19 C14 1_555 1_555
H14 C19 1_555 1_555
C20 C7 1_555 1_555
H15 C20 1_555 1_555
H16 C20 1_555 1_555
H17 C20 1_555 1_555
C21 C12 1_555 1_555
C22 C21 1_555 1_555
H18 C22 1_555 1_555
H19 C22 1_555 1_555
H20 C22 1_555 1_555
C23 C21 1_555 1_555
H21 C23 1_555 1_555
H22 C23 1_555 1_555
H23 C23 1_555 1_555
C24 C21 1_555 1_555
H24 C24 1_555 1_555
H25 C24 1_555 1_555
H26 C24 1_555 1_555
C25 C16 1_555 1_555
C26 C18 1_555 1_555
F2 C26 1_555 1_555
F3 C26 1_555 1_555
F4 C26 1_555 1_555
N1 C7 1_555 1_555
N2 C12 1_555 1_555
H27 N2 1_555 1_555
N3 C13 1_555 1_555
H28 N3 1_555 1_555
O1 C11 1_555 1_555
O2 C13 1_555 1_555
F5 C25 1_555 1_555
F6 C25 1_555 1_555
F7 C25 1_555 1_555
C40 C48 1_555 1_555
C41 C48 1_555 1_555
C42 H37 1_555 1_555
C43 C42 1_555 1_555
H38 C43 1_555 1_555
C44 C43 1_555 1_555
C45 C44 1_555 1_555
H39 C45 1_555 1_555
C46 C45 1_555 1_555
H40 C46 1_555 1_555
C47 C42 1_555 1_555
C48 C47 1_555 1_555
H41 C40 1_555 1_555
H42 C40 1_555 1_555
H43 C41 1_555 1_555
H44 C41 1_555 1_555
H45 C41 1_555 1_555
F12 C44 1_555 1_555
C49 C40 1_555 1_555
H46 C49 1_555 1_555
H47 C49 1_555 1_555
C50 C49 1_555 1_555
H48 C50 1_555 1_555
H49 C50 1_555 1_555
C51 C52 1_555 1_555
C52 H50 1_555 1_555
C53 N5 1_555 1_555
C54 C55 1_555 1_555
C55 H51 1_555 1_555
C56 C55 1_555 1_555
C57 C56 1_555 1_555
H52 C57 1_555 1_555
C58 C57 1_555 1_555
C59 C54 1_555 1_555
H53 C59 1_555 1_555
C60 C52 1_555 1_555
C61 C60 1_555 1_555
H54 C61 1_555 1_555
H55 C61 1_555 1_555
H56 C61 1_555 1_555
C62 C60 1_555 1_555
H57 C62 1_555 1_555
H58 C62 1_555 1_555
H59 C62 1_555 1_555
C63 C60 1_555 1_555
H60 C63 1_555 1_555
H61 C63 1_555 1_555
H62 C63 1_555 1_555
C64 C56 1_555 1_555
C65 C58 1_555 1_555
F13 C65 1_555 1_555
F14 C65 1_555 1_555
F15 C65 1_555 1_555
N4 C48 1_555 1_555
N5 C52 1_555 1_555
H63 N5 1_555 1_555
N6 C53 1_555 1_555
H64 N6 1_555 1_555
O3 C51 1_555 1_555
O4 C53 1_555 1_555
F16 C64 1_555 1_555
F17 C64 1_555 1_555
F18 C64 1_555 1_555
C66 H70 1_555 1_555
C67 C66 1_555 1_555
H71 C67 1_555 1_555
C68 C67 1_555 1_555
C69 C68 1_555 1_555
H72 C69 1_555 1_555
C70 C69 1_555 1_555
H73 C70 1_555 1_555
C71 C66 1_555 1_555
C72 C71 1_555 1_555
C73 C72 1_555 1_555
H74 C73 1_555 1_555
H75 C73 1_555 1_555
C74 C73 1_555 1_555
H76 C74 1_555 1_555
H77 C74 1_555 1_555
C75 C74 1_555 1_555
H78 C75 1_555 1_555
H79 C75 1_555 1_555
C76 C77 1_555 1_555
C77 H80 1_555 1_555
C78 N8 1_555 1_555
C79 C80 1_555 1_555
C80 H81 1_555 1_555
C81 C80 1_555 1_555
C82 C81 1_555 1_555
H82 C82 1_555 1_555
C83 C82 1_555 1_555
C84 C79 1_555 1_555
H83 C84 1_555 1_555
C85 C72 1_555 1_555
H84 C85 1_555 1_555
H85 C85 1_555 1_555
H86 C85 1_555 1_555
C86 C77 1_555 1_555
C87 C86 1_555 1_555
H87 C87 1_555 1_555
H88 C87 1_555 1_555
H89 C87 1_555 1_555
C88 C86 1_555 1_555
H90 C88 1_555 1_555
H91 C88 1_555 1_555
H92 C88 1_555 1_555
C89 C86 1_555 1_555
H93 C89 1_555 1_555
H94 C89 1_555 1_555
H95 C89 1_555 1_555
C90 C81 1_555 1_555
C91 C83 1_555 1_555
F23 C91 1_555 1_555
F24 C91 1_555 1_555
F25 C91 1_555 1_555
N7 C72 1_555 1_555
N8 C77 1_555 1_555
H96 N8 1_555 1_555
N9 C78 1_555 1_555
H97 N9 1_555 1_555
O5 C76 1_555 1_555
O6 C78 1_555 1_555
F26 C68 1_555 1_555
F27 C90 1_555 1_555
F28 C90 1_555 1_555
F29 C90 1_555 1_555
C92 H98 1_555 1_555
C93 C92 1_555 1_555
H99 C93 1_555 1_555
C94 C93 1_555 1_555
C95 C94 1_555 1_555
H100 C95 1_555 1_555
C96 C95 1_555 1_555
H101 C96 1_555 1_555
C97 C92 1_555 1_555
C98 C97 1_555 1_555
F33 C94 1_555 1_555
C99 C98 1_555 1_555
H102 C99 1_555 1_555
H103 C99 1_555 1_555
C100 C99 1_555 1_555
H104 C100 1_555 1_555
H105 C100 1_555 1_555
C101 C100 1_555 1_555
H106 C101 1_555 1_555
H107 C101 1_555 1_555
C102 C103 1_555 1_555
C103 H108 1_555 1_555
C104 N11 1_555 1_555
C105 C106 1_555 1_555
C106 H109 1_555 1_555
C107 C106 1_555 1_555
C108 C107 1_555 1_555
H110 C108 1_555 1_555
C109 C108 1_555 1_555
C110 C105 1_555 1_555
H111 C110 1_555 1_555
C111 C98 1_555 1_555
H112 C111 1_555 1_555
H113 C111 1_555 1_555
H114 C111 1_555 1_555
C112 C103 1_555 1_555
C113 C112 1_555 1_555
H115 C113 1_555 1_555
H116 C113 1_555 1_555
H117 C113 1_555 1_555
C114 C112 1_555 1_555
H118 C114 1_555 1_555
H119 C114 1_555 1_555
H120 C114 1_555 1_555
C115 C112 1_555 1_555
H121 C115 1_555 1_555
H122 C115 1_555 1_555
H123 C115 1_555 1_555
C116 C107 1_555 1_555
F34 C116 1_555 1_555
F35 C116 1_555 1_555
F36 C116 1_555 1_555
C117 C109 1_555 1_555
N10 C98 1_555 1_555
N11 C103 1_555 1_555
H124 N11 1_555 1_555
N12 C104 1_555 1_555
H125 N12 1_555 1_555
O7 C102 1_555 1_555
O8 C104 1_555 1_555
F37 C117 1_555 1_555
F38 C117 1_555 1_555
F39 C117 1_555 1_555
C124 H133 1_555 1_555
H134 C124 1_555 1_555
H135 C124 1_555 1_555
C125 H136 1_555 1_555
H137 C125 1_555 1_555
H138 C125 1_555 1_555
C126 H139 1_555 1_555
H140 C126 1_555 1_555
H141 C126 1_555 1_555
C127 H142 1_555 1_555
H143 C127 1_555 1_555
H144 C127 1_555 1_555
N13 C124 1_555 1_555
C128 H145 1_555 1_555
Cl3 C128 1_555 1_555
Cl4 C128 1_555 1_555
Cl5 C128 1_555 1_555
C129 H146 1_555 1_555
H147 C129 1_555 1_555
H148 C129 1_555 1_555
C130 H149 1_555 1_555
H150 C130 1_555 1_555
H151 C130 1_555 1_555
C131 H152 1_555 1_555
H153 C131 1_555 1_555
H154 C131 1_555 1_555
C132 H155 1_555 1_555
H156 C132 1_555 1_555
H157 C132 1_555 1_555
N14 C129 1_555 1_555
C5 C6 1_555 1_555
C10 N1 1_555 1_555
C11 N1 1_555 1_555
C14 N3 1_555 1_555
C18 C19 1_555 1_555
C46 C47 1_555 1_555
C50 N4 1_555 1_555
C51 N4 1_555 1_555
C54 N6 1_555 1_555
C58 C59 1_555 1_555
C70 C71 1_555 1_555
C75 N7 1_555 1_555
C76 N7 1_555 1_555
C79 N9 1_555 1_555
C83 C84 1_555 1_555
C96 C97 1_555 1_555
C101 N10 1_555 1_555
C102 N10 1_555 1_555
C105 N12 1_555 1_555
C109 C110 1_555 1_555
C125 N13 1_555 1_555
C126 N13 1_555 1_555
C127 N13 1_555 1_555
C130 N14 1_555 1_555
C131 N14 1_555 1_555
C132 N14 1_555 1_555

#END
