
#######################################################################
#
#                 Cambridge Crystallographic Data Centre
#                                CCDC 
#
#######################################################################
#
# If this CIF has been generated from an entry in the Cambridge 
# Structural Database, then it will include bibliographic, chemical, 
# crystal, experimental, refinement or atomic coordinate data resulting 
# from the CCDC's data processing and validation procedures.
#
#######################################################################

data_IRUNIU
_chemical_formula_moiety         'C21 H33 N1 O2 Si1'
_chemical_name_systematic        
N-methoxy-4,5-dimethyl-2-((triisopropylsilyl)ethynyl)benzamide
_symmetry_cell_setting           monoclinic
_symmetry_space_group_name_H-M   'P 21/n'
_symmetry_Int_Tables_number      14
_space_group_name_Hall           '-P 2yn'
loop_
_symmetry_equiv_pos_site_id
_symmetry_equiv_pos_as_xyz
1 x,y,z
2 1/2-x,1/2+y,1/2-z
3 -x,-y,-z
4 1/2+x,1/2-y,1/2+z
_cell_length_a                   16.5088(9)
_cell_length_b                   8.4395(5)
_cell_length_c                   16.9774(8)
_cell_angle_alpha                90
_cell_angle_beta                 109.4000(10)
_cell_angle_gamma                90
_cell_volume                     2231.09
_exptl_crystal_colour            colorless
_cell_formula_units_Z            4
loop_
_atom_site_label
_atom_site_type_symbol
_atom_site_fract_x
_atom_site_fract_y
_atom_site_fract_z
C1 C 0.35689(12) 0.5749(2) 0.38863(13)
C2 C 0.34429(13) 0.5513(3) 0.46484(14)
H1 H 0.3014 0.4816 0.4668
C3 C 0.39202(14) 0.6258(3) 0.53746(14)
C4 C 0.45903(13) 0.7244(3) 0.53638(14)
C5 C 0.47271(13) 0.7474(3) 0.46148(14)
H2 H 0.5174 0.8137 0.4607
C6 C 0.42313(12) 0.6768(2) 0.38659(13)
C7 C 0.30094(12) 0.4823(3) 0.31631(14)
C8 C 0.2494(2) 0.4575(4) 0.11278(19)
H3 H 0.2566 0.5600 0.0916
H4 H 0.2106 0.3956 0.0689
H5 H 0.3040 0.4049 0.1332
C9 C 0.3716(2) 0.5964(4) 0.61688(16)
H6 H 0.3221 0.5289 0.6049
H7 H 0.3599 0.6955 0.6387
H8 H 0.4197 0.5461 0.6574
C10 C 0.51562(18) 0.8068(4) 0.61387(16)
H9 H 0.4842 0.8916 0.6281
H10 H 0.5653 0.8489 0.6038
H11 H 0.5334 0.7324 0.6592
C11 C 0.44634(13) 0.7096(3) 0.31402(14)
C12 C 0.47446(14) 0.7475(3) 0.25958(15)
C13 C 0.45000(16) 0.9312(3) 0.10086(16)
H12 H 0.4815 0.9739 0.0658
C14 C 0.37845(19) 0.8252(4) 0.0455(2)
H13 H 0.3465 0.7808 0.0782
H14 H 0.4032 0.7413 0.0228
H15 H 0.3408 0.8870 0.0007
C15 C 0.4107(2) 1.0709(4) 0.1319(2)
H16 H 0.3702 1.1237 0.0852
H17 H 0.4552 1.1437 0.1611
H18 H 0.3818 1.0335 0.1689
C16 C 0.58067(18) 0.6471(4) 0.15464(17)
H19 H 0.6332 0.6250 0.2015
C17 C 0.5298(3) 0.4960(4) 0.1401(2)
H20 H 0.4818 0.5046 0.0894
H21 H 0.5094 0.4774 0.1861
H22 H 0.5657 0.4094 0.1356
C18 C 0.6108(2) 0.6883(4) 0.0804(2)
H23 H 0.6391 0.5982 0.0668
H24 H 0.6500 0.7760 0.0951
H25 H 0.5621 0.7163 0.0330
C19 C 0.61248(16) 0.9619(3) 0.25378(18)
H26 H 0.5804 1.0457 0.2704
C20 C 0.6707(2) 0.8890(5) 0.3352(2)
H27 H 0.7068 0.8103 0.3230
H28 H 0.6361 0.8405 0.3642
H29 H 0.7057 0.9703 0.3696
C21 C 0.6642(2) 1.0452(5) 0.2071(3)
H30 H 0.6940 1.1337 0.2394
H31 H 0.6262 1.0822 0.1543
H32 H 0.7050 0.9726 0.1981
N1 N 0.27399(11) 0.5558(2) 0.24360(11)
H33 H 0.2914 0.6496 0.2376
O1 O 0.28029(12) 0.34633(19) 0.32678(11)
O2 O 0.21624(10) 0.4747(2) 0.17711(10)
Si1 Si 0.52898(4) 0.81999(8) 0.18886(4)
loop_
_geom_bond_atom_site_label_1
_geom_bond_atom_site_label_2
_geom_bond_site_symmetry_1
_geom_bond_site_symmetry_2
C1 C2 1_555 1_555
C2 H1 1_555 1_555
C3 C2 1_555 1_555
C4 C3 1_555 1_555
C5 C4 1_555 1_555
H2 C5 1_555 1_555
C6 C1 1_555 1_555
C7 C1 1_555 1_555
C8 H3 1_555 1_555
H4 C8 1_555 1_555
H5 C8 1_555 1_555
C9 C3 1_555 1_555
H6 C9 1_555 1_555
H7 C9 1_555 1_555
H8 C9 1_555 1_555
C10 C4 1_555 1_555
H9 C10 1_555 1_555
H10 C10 1_555 1_555
H11 C10 1_555 1_555
C11 C6 1_555 1_555
C12 C11 1_555 1_555
C13 H12 1_555 1_555
C14 C13 1_555 1_555
H13 C14 1_555 1_555
H14 C14 1_555 1_555
H15 C14 1_555 1_555
C15 C13 1_555 1_555
H16 C15 1_555 1_555
H17 C15 1_555 1_555
H18 C15 1_555 1_555
C16 H19 1_555 1_555
C17 C16 1_555 1_555
H20 C17 1_555 1_555
H21 C17 1_555 1_555
H22 C17 1_555 1_555
C18 C16 1_555 1_555
H23 C18 1_555 1_555
H24 C18 1_555 1_555
H25 C18 1_555 1_555
C19 H26 1_555 1_555
C20 C19 1_555 1_555
H27 C20 1_555 1_555
H28 C20 1_555 1_555
H29 C20 1_555 1_555
C21 C19 1_555 1_555
H30 C21 1_555 1_555
H31 C21 1_555 1_555
H32 C21 1_555 1_555
N1 C7 1_555 1_555
H33 N1 1_555 1_555
O1 C7 1_555 1_555
O2 C8 1_555 1_555
Si1 C12 1_555 1_555
C5 C6 1_555 1_555
C13 Si1 1_555 1_555
C16 Si1 1_555 1_555
C19 Si1 1_555 1_555
N1 O2 1_555 1_555

#END
