
#######################################################################
#
#                 Cambridge Crystallographic Data Centre
#                                CCDC 
#
#######################################################################
#
# If this CIF has been generated from an entry in the Cambridge 
# Structural Database, then it will include bibliographic, chemical, 
# crystal, experimental, refinement or atomic coordinate data resulting 
# from the CCDC's data processing and validation procedures.
#
#######################################################################

data_ISACEK
_chemical_formula_moiety         'C16 H17 N1 O1'
_chemical_name_systematic        
(rac)-N-(4-Methylbenzoyl)-\a-methylbenzylamine
_symmetry_cell_setting           orthorhombic
_symmetry_space_group_name_H-M   'P c a 21'
_symmetry_Int_Tables_number      29
_space_group_name_Hall           'P 2c -2ac'
loop_
_symmetry_equiv_pos_site_id
_symmetry_equiv_pos_as_xyz
1 x,y,z
2 -x,-y,1/2+z
3 1/2-x,y,1/2+z
4 1/2+x,-y,z
_cell_length_a                   12.3320(10)
_cell_length_b                   9.7310(10)
_cell_length_c                   22.9260(10)
_cell_angle_alpha                90
_cell_angle_beta                 90
_cell_angle_gamma                90
_cell_volume                     2751.18
_exptl_crystal_colour            colorless
_exptl_crystal_description       block
_chemical_melting_point          127-128deg.C
_cell_formula_units_Z            8
loop_
_atom_site_label
_atom_site_type_symbol
_atom_site_fract_x
_atom_site_fract_y
_atom_site_fract_z
O1 O 0.5042(3) 0.7083(5) 0.2893(2)
N1 N 0.5763(4) 0.5041(8) 0.3161(2)
C1 C 0.3390(6) 0.3885(7) 0.1431(3)
C2 C 0.4331(5) 0.3324(6) 0.1634(3)
H1 H 0.4592 0.2499 0.1463
C3 C 0.4911(5) 0.3918(7) 0.2078(3)
H2 H 0.5557 0.3493 0.2212
C4 C 0.4564(5) 0.5131(7) 0.2331(3)
C5 C 0.3634(6) 0.5731(7) 0.2110(3)
H3 H 0.3390 0.6582 0.2264
C6 C 0.3053(6) 0.5105(8) 0.1665(3)
H4 H 0.2413 0.5530 0.1522
C7 C 0.5144(5) 0.5849(8) 0.2817(3)
C8 C 0.6444(5) 0.5584(6) 0.3629(3)
H5 H 0.6443 0.6609 0.3594
C9 C 0.7601(5) 0.5099(7) 0.3539(3)
H6 H 0.7631 0.4097 0.3579
H7 H 0.8072 0.5524 0.3832
H8 H 0.7846 0.5362 0.3148
C10 C 0.5972(6) 0.5223(7) 0.4221(3)
C11 C 0.6376(7) 0.4213(9) 0.4567(4)
H9 H 0.6982 0.3705 0.4430
C12 C 0.5955(11) 0.3881(12) 0.5108(5)
H10 H 0.6277 0.3184 0.5341
C13 C 0.5075(11) 0.4573(18) 0.5294(5)
H11 H 0.4760 0.4341 0.5659
C14 C 0.4632(9) 0.5587(15) 0.4973(6)
H12 H 0.4012 0.6064 0.5113
C15 C 0.5095(6) 0.5946(9) 0.4422(4)
H13 H 0.4799 0.6677 0.4199
C16 C 0.2737(6) 0.3201(7) 0.0946(3)
H14 H 0.1999 0.3018 0.1084
H15 H 0.3085 0.2335 0.0835
H16 H 0.2707 0.3813 0.0607
H17 H 0.567(4) 0.408(6) 0.314(2)
O2 O 0.5949(3) 0.2073(5) 0.3170(2)
N2 N 0.5884(5) -0.0168(7) 0.2928(2)
C17 C 0.2745(6) 0.0505(8) 0.4346(3)
C18 C 0.3046(6) -0.0546(7) 0.3988(3)
H18 H 0.2626 -0.1364 0.3983
C19 C 0.3946(6) -0.0455(6) 0.3631(3)
H19 H 0.4139 -0.1210 0.3390
C20 C 0.4569(5) 0.0727(7) 0.3623(3)
C21 C 0.4278(6) 0.1782(6) 0.3990(3)
H20 H 0.4703 0.2596 0.4003
C22 C 0.3372(6) 0.1667(7) 0.4342(3)
H21 H 0.3179 0.2414 0.4587
C23 C 0.5531(5) 0.0934(9) 0.3223(3)
C24 C 0.6774(5) -0.0079(7) 0.2510(3)
H22 H 0.7239 0.0724 0.2616
C25 C 0.7464(5) -0.1397(6) 0.2551(4)
H23 H 0.7707 -0.1526 0.2954
H24 H 0.8097 -0.1312 0.2294
H25 H 0.7028 -0.2189 0.2430
C26 C 0.6365(6) 0.0122(7) 0.1892(3)
C27 C 0.5483(6) -0.0587(7) 0.1681(3)
H26 H 0.5083 -0.1175 0.1933
C28 C 0.5174(7) -0.0447(9) 0.1101(4)
H27 H 0.4564 -0.0933 0.0954
C29 C 0.5760(8) 0.0400(10) 0.0744(4)
H28 H 0.5557 0.0489 0.0346
C30 C 0.6627(7) 0.1116(9) 0.0947(4)
H29 H 0.7027 0.1701 0.0695
C31 C 0.6916(6) 0.0983(7) 0.1521(4)
H30 H 0.7512 0.1498 0.1666
C32 C 0.1731(5) 0.0420(7) 0.4720(3)
H31 H 0.1902 0.0717 0.5118
H32 H 0.1468 -0.0530 0.4727
H33 H 0.1170 0.1019 0.4556
H34 H 0.556(5) -0.094(7) 0.295(3)
loop_
_geom_bond_atom_site_label_1
_geom_bond_atom_site_label_2
_geom_bond_site_symmetry_1
_geom_bond_site_symmetry_2
O1 C7 1_555 1_555
N1 C7 1_555 1_555
C1 C2 1_555 1_555
C2 H1 1_555 1_555
C3 C2 1_555 1_555
H2 C3 1_555 1_555
C4 C3 1_555 1_555
C5 C4 1_555 1_555
H3 C5 1_555 1_555
C6 C1 1_555 1_555
H4 C6 1_555 1_555
C7 C4 1_555 1_555
C8 N1 1_555 1_555
H5 C8 1_555 1_555
C9 C8 1_555 1_555
H6 C9 1_555 1_555
H7 C9 1_555 1_555
H8 C9 1_555 1_555
C10 C8 1_555 1_555
C11 C10 1_555 1_555
H9 C11 1_555 1_555
C12 C11 1_555 1_555
H10 C12 1_555 1_555
C13 C12 1_555 1_555
H11 C13 1_555 1_555
C14 C13 1_555 1_555
H12 C14 1_555 1_555
C15 C10 1_555 1_555
H13 C15 1_555 1_555
C16 C1 1_555 1_555
H14 C16 1_555 1_555
H15 C16 1_555 1_555
H16 C16 1_555 1_555
H17 N1 1_555 1_555
O2 C23 1_555 1_555
N2 C23 1_555 1_555
C17 C18 1_555 1_555
C18 H18 1_555 1_555
C19 C18 1_555 1_555
H19 C19 1_555 1_555
C20 C19 1_555 1_555
C21 C20 1_555 1_555
H20 C21 1_555 1_555
C22 C17 1_555 1_555
H21 C22 1_555 1_555
C23 C20 1_555 1_555
C24 N2 1_555 1_555
H22 C24 1_555 1_555
C25 C24 1_555 1_555
H23 C25 1_555 1_555
H24 C25 1_555 1_555
H25 C25 1_555 1_555
C26 C24 1_555 1_555
C27 C26 1_555 1_555
H26 C27 1_555 1_555
C28 C27 1_555 1_555
H27 C28 1_555 1_555
C29 C28 1_555 1_555
H28 C29 1_555 1_555
C30 C29 1_555 1_555
H29 C30 1_555 1_555
C31 C26 1_555 1_555
H30 C31 1_555 1_555
C32 C17 1_555 1_555
H31 C32 1_555 1_555
H32 C32 1_555 1_555
H33 C32 1_555 1_555
H34 N2 1_555 1_555
C5 C6 1_555 1_555
C14 C15 1_555 1_555
C21 C22 1_555 1_555
C30 C31 1_555 1_555

#END
