
#######################################################################
#
#                 Cambridge Crystallographic Data Centre
#                                CCDC 
#
#######################################################################
#
# If this CIF has been generated from an entry in the Cambridge 
# Structural Database, then it will include bibliographic, chemical, 
# crystal, experimental, refinement or atomic coordinate data resulting 
# from the CCDC's data processing and validation procedures.
#
#######################################################################

data_ISAFUE
_chemical_formula_moiety         'C13 H11 Br1 N2 O1'
_chemical_name_systematic        
4-Bromo-2-(((pyridin-4-ylmethyl)imino)methyl)phenol
_symmetry_cell_setting           monoclinic
_symmetry_space_group_name_H-M   'P 21/c'
_symmetry_Int_Tables_number      14
_space_group_name_Hall           '-P 2ybc'
loop_
_symmetry_equiv_pos_site_id
_symmetry_equiv_pos_as_xyz
1 x,y,z
2 -x,1/2+y,1/2-z
3 -x,-y,-z
4 x,1/2-y,1/2+z
_cell_length_a                   13.9448(17)
_cell_length_b                   6.1164(7)
_cell_length_c                   14.1632(17)
_cell_angle_alpha                90
_cell_angle_beta                 102.771(2)
_cell_angle_gamma                90
_cell_volume                     1178.12
_exptl_crystal_colour            yellow
_exptl_crystal_description       stick
_cell_formula_units_Z            4
_exptl_crystal_recrystallization_method methanol
loop_
_atom_site_label
_atom_site_type_symbol
_atom_site_fract_x
_atom_site_fract_y
_atom_site_fract_z
Br1 Br 0.77538(3) 0.66959(7) 0.42960(3)
O1 O 0.38899(19) 0.1931(4) 0.37631(19)
H1 H 0.346(2) 0.270(6) 0.343(2)
N1 N 0.30334(19) 0.5419(5) 0.2905(2)
N2 N 0.0097(2) 0.7492(5) 0.4243(2)
C1 C 0.4743(2) 0.3053(5) 0.3872(2)
C2 C 0.4769(2) 0.5192(5) 0.3518(2)
C3 C 0.5676(2) 0.6257(5) 0.3643(2)
H2 H 0.5706 0.7694 0.3396
C4 C 0.6523(2) 0.5244(5) 0.4119(2)
C5 C 0.6496(2) 0.3134(6) 0.4476(2)
H3 H 0.7085 0.2444 0.4807
C6 C 0.5613(2) 0.2052(5) 0.4347(2)
H4 H 0.5596 0.0604 0.4585
C7 C 0.3877(2) 0.6331(5) 0.3035(2)
H5 H 0.3923 0.7784 0.2813
C8 C 0.2171(2) 0.6683(6) 0.2415(3)
H6 H 0.1843 0.5921 0.1814
H7 H 0.2385 0.8138 0.2235
C9 C 0.1455(2) 0.6959(6) 0.3063(2)
C10 C 0.1410(2) 0.8873(6) 0.3575(3)
H8 H 0.1845 1.0047 0.3536
C11 C 0.0724(2) 0.9060(6) 0.4143(3)
H9 H 0.0702 1.0392 0.4483
C12 C 0.0156(2) 0.5642(6) 0.3760(3)
H10 H -0.0275 0.4479 0.3830
C13 C 0.0804(2) 0.5314(6) 0.3170(2)
H11 H 0.0804 0.3967 0.2836
loop_
_geom_bond_atom_site_label_1
_geom_bond_atom_site_label_2
_geom_bond_site_symmetry_1
_geom_bond_site_symmetry_2
Br1 C4 1_555 1_555
O1 H1 1_555 1_555
N1 C7 1_555 1_555
N2 C11 1_555 1_555
C1 O1 1_555 1_555
C2 C1 1_555 1_555
C3 C2 1_555 1_555
H2 C3 1_555 1_555
C4 C3 1_555 1_555
C5 C4 1_555 1_555
H3 C5 1_555 1_555
C6 C1 1_555 1_555
H4 C6 1_555 1_555
C7 C2 1_555 1_555
H5 C7 1_555 1_555
C8 N1 1_555 1_555
H6 C8 1_555 1_555
H7 C8 1_555 1_555
C9 C8 1_555 1_555
C10 C9 1_555 1_555
H8 C10 1_555 1_555
C11 C10 1_555 1_555
H9 C11 1_555 1_555
C12 N2 1_555 1_555
H10 C12 1_555 1_555
C13 C9 1_555 1_555
H11 C13 1_555 1_555
C5 C6 1_555 1_555
C12 C13 1_555 1_555

#END
