
#######################################################################
#
#                 Cambridge Crystallographic Data Centre
#                                CCDC 
#
#######################################################################
#
# If this CIF has been generated from an entry in the Cambridge 
# Structural Database, then it will include bibliographic, chemical, 
# crystal, experimental, refinement or atomic coordinate data resulting 
# from the CCDC's data processing and validation procedures.
#
#######################################################################

data_ISAGEP
_chemical_formula_moiety         'C14 H10 O4'
_chemical_name_systematic        "Biphenyl-2,4'-dicarboxylic acid"
_symmetry_cell_setting           triclinic
_symmetry_space_group_name_H-M   'P -1'
_symmetry_Int_Tables_number      2
_space_group_name_Hall           '-P 1'
loop_
_symmetry_equiv_pos_site_id
_symmetry_equiv_pos_as_xyz
1 x,y,z
2 -x,-y,-z
_cell_length_a                   4.8224(9)
_cell_length_b                   7.9498(15)
_cell_length_c                   14.965(3)
_cell_angle_alpha                90.893(3)
_cell_angle_beta                 95.236(4)
_cell_angle_gamma                90.803(4)
_cell_volume                     571.183
_exptl_crystal_colour            colorless
_exptl_crystal_description       block
_cell_formula_units_Z            2
loop_
_atom_site_label
_atom_site_type_symbol
_atom_site_fract_x
_atom_site_fract_y
_atom_site_fract_z
C1 C -0.1049(4) 0.6815(2) 0.28942(11)
C2 C -0.2909(4) 0.7948(2) 0.24896(11)
H1 H -0.3406 0.7841 0.1876
C3 C -0.4047(4) 0.9225(2) 0.29598(12)
H2 H -0.5290 0.9960 0.2665
C4 C -0.3344(4) 0.9412(2) 0.38661(13)
H3 H -0.4135 1.0256 0.4192
C5 C -0.1456(4) 0.8335(2) 0.42878(11)
H4 H -0.0976 0.8465 0.4901
C6 C -0.0244(4) 0.7054(2) 0.38178(11)
C7 C -0.0062(4) 0.5450(2) 0.23179(11)
C8 C 0.1218(4) 0.5865(2) 0.15576(11)
H5 H 0.1417 0.6991 0.1413
C9 C 0.2201(4) 0.4638(2) 0.10114(11)
H6 H 0.3096 0.4944 0.0512
C10 C 0.1863(4) 0.2958(2) 0.12025(11)
C11 C 0.0436(4) 0.2520(2) 0.19333(11)
H7 H 0.0111 0.1392 0.2050
C12 C -0.0497(4) 0.3748(2) 0.24841(11)
H8 H -0.1431 0.3440 0.2975
C13 C 0.2003(4) 0.6104(2) 0.43260(12)
C14 C 0.3102(4) 0.1652(3) 0.06563(12)
O1 O 0.3454(3) 0.50903(16) 0.39053(7)
H9 H 0.518(6) 0.435(3) 0.4378(15)
O2 O 0.2473(3) 0.63945(16) 0.51593(8)
O3 O 0.4476(3) 0.21208(17) 0.00161(9)
H10 H 0.578(5) 0.103(3) -0.0375(15)
O4 O 0.2814(3) 0.01196(18) 0.08520(8)
loop_
_geom_bond_atom_site_label_1
_geom_bond_atom_site_label_2
_geom_bond_site_symmetry_1
_geom_bond_site_symmetry_2
C1 C2 1_555 1_555
C2 H1 1_555 1_555
C3 C2 1_555 1_555
H2 C3 1_555 1_555
C4 C3 1_555 1_555
H3 C4 1_555 1_555
C5 C4 1_555 1_555
H4 C5 1_555 1_555
C6 C1 1_555 1_555
C7 C1 1_555 1_555
C8 C7 1_555 1_555
H5 C8 1_555 1_555
C9 C8 1_555 1_555
H6 C9 1_555 1_555
C10 C9 1_555 1_555
C11 C10 1_555 1_555
H7 C11 1_555 1_555
C12 C7 1_555 1_555
H8 C12 1_555 1_555
C13 C6 1_555 1_555
C14 C10 1_555 1_555
O1 C13 1_555 1_555
H9 O1 1_555 1_555
O2 C13 1_555 1_555
O3 C14 1_555 1_555
H10 O3 1_555 1_555
O4 C14 1_555 1_555
C5 C6 1_555 1_555
C11 C12 1_555 1_555

#END
