
#######################################################################
#
#                 Cambridge Crystallographic Data Centre
#                                CCDC 
#
#######################################################################
#
# If this CIF has been generated from an entry in the Cambridge 
# Structural Database, then it will include bibliographic, chemical, 
# crystal, experimental, refinement or atomic coordinate data resulting 
# from the CCDC's data processing and validation procedures.
#
#######################################################################

data_ISATIH
_chemical_formula_moiety         'C14 H11 Cl1 N2 O2 S1'
_chemical_name_systematic        
'4-(6-chloropyridin-2-yl)-1-methyl-1,2-benzothiazin-3(4H)-one 1-oxide'
_symmetry_cell_setting           monoclinic
_symmetry_space_group_name_H-M   'P 21/c'
_symmetry_Int_Tables_number      14
_space_group_name_Hall           '-P 2ybc'
loop_
_symmetry_equiv_pos_site_id
_symmetry_equiv_pos_as_xyz
1 x,y,z
2 -x,1/2+y,1/2-z
3 -x,-y,-z
4 x,1/2-y,1/2+z
_cell_length_a                   15.5476(9)
_cell_length_b                   10.8589(9)
_cell_length_c                   8.1418(5)
_cell_angle_alpha                90
_cell_angle_beta                 92.296(3)
_cell_angle_gamma                90
_cell_volume                     1373.48
_exptl_crystal_colour            colorless
_exptl_crystal_description       block
_cell_formula_units_Z            4
loop_
_atom_site_label
_atom_site_type_symbol
_atom_site_fract_x
_atom_site_fract_y
_atom_site_fract_z
C1 C 0.85673(14) 0.9919(2) 0.3072(3)
C2 C 0.92311(17) 1.0730(3) 0.3532(4)
H1 H 0.9722 1.0781 0.292
C3 C 0.91461(19) 1.1448(2) 0.4899(4)
H2 H 0.958 1.1998 0.5216
C4 C 0.8419(2) 1.1358(2) 0.5806(3)
H3 H 0.8363 1.1852 0.6729
C5 C 0.77760(18) 1.0545(2) 0.5357(3)
H4 H 0.7295 1.0481 0.5996
C6 C 0.78302(14) 0.98138(18) 0.3964(3)
C7 C 0.70915(13) 0.89866(18) 0.3443(3)
H5 H 0.6858 0.8645 0.4445
C8 C 0.72951(15) 0.79035(19) 0.2331(3)
C9 C 0.63870(13) 0.97490(19) 0.2610(3)
C10 C 0.55543(16) 0.9756(3) 0.3129(3)
H6 H 0.5397 0.9253 0.3991
C11 C 0.49622(18) 1.0516(3) 0.2356(4)
H7 H 0.4399 1.0536 0.27
C12 C 0.51963(19) 1.1243(3) 0.1087(5)
H8 H 0.4808 1.1777 0.056
C13 C 0.60446(17) 1.1149(2) 0.0614(3)
C14 C 0.85113(18) 0.9795(3) -0.0390(3)
H9 H 0.8952 1.041 -0.0458
H10 H 0.7959 1.0187 -0.0365
H11 H 0.8526 0.9263 -0.1331
Cl1 Cl 0.63935(7) 1.20044(8) -0.10333(12)
N1 N 0.66332(11) 1.04412(16) 0.1342(2)
N2 N 0.80073(14) 0.78949(18) 0.1410(3)
O1 O 0.67975(12) 0.70439(15) 0.2258(2)
O2 O 0.95620(12) 0.8484(2) 0.1407(3)
S1 S 0.86896(4) 0.89261(6) 0.14018(8)
loop_
_geom_bond_atom_site_label_1
_geom_bond_atom_site_label_2
_geom_bond_site_symmetry_1
_geom_bond_site_symmetry_2
C1 C2 1_555 1_555
C2 H1 1_555 1_555
C3 C2 1_555 1_555
H2 C3 1_555 1_555
C4 C3 1_555 1_555
H3 C4 1_555 1_555
C5 C4 1_555 1_555
H4 C5 1_555 1_555
C6 C1 1_555 1_555
C7 C6 1_555 1_555
H5 C7 1_555 1_555
C8 C7 1_555 1_555
C9 C7 1_555 1_555
C10 C9 1_555 1_555
H6 C10 1_555 1_555
C11 C10 1_555 1_555
H7 C11 1_555 1_555
C12 C11 1_555 1_555
H8 C12 1_555 1_555
C13 C12 1_555 1_555
C14 H9 1_555 1_555
H10 C14 1_555 1_555
H11 C14 1_555 1_555
Cl1 C13 1_555 1_555
N1 C9 1_555 1_555
N2 C8 1_555 1_555
O1 C8 1_555 1_555
O2 S1 1_555 1_555
S1 C1 1_555 1_555
C5 C6 1_555 1_555
C13 N1 1_555 1_555
C14 S1 1_555 1_555
N2 S1 1_555 1_555

#END
