
#######################################################################
#
#                 Cambridge Crystallographic Data Centre
#                                CCDC 
#
#######################################################################
#
# If this CIF has been generated from an entry in the Cambridge 
# Structural Database, then it will include bibliographic, chemical, 
# crystal, experimental, refinement or atomic coordinate data resulting 
# from the CCDC's data processing and validation procedures.
#
#######################################################################

data_ISAYEH01
_chemical_formula_moiety         'C9 H11 O4 P1'
_chemical_name_systematic        '3-(Hydroxy(phenyl)phosphoryl)propanoic acid'
_symmetry_cell_setting           orthorhombic
_symmetry_space_group_name_H-M   'P 21 21 21'
_symmetry_Int_Tables_number      19
_space_group_name_Hall           'P 2ac 2ab'
loop_
_symmetry_equiv_pos_site_id
_symmetry_equiv_pos_as_xyz
1 x,y,z
2 1/2-x,-y,1/2+z
3 -x,1/2+y,1/2-z
4 1/2+x,1/2-y,-z
_cell_length_a                   6.1741(15)
_cell_length_b                   8.7308(19)
_cell_length_c                   19.844(4)
_cell_angle_alpha                90
_cell_angle_beta                 90
_cell_angle_gamma                90
_cell_volume                     1069.69
_exptl_crystal_colour            colorless
_exptl_crystal_description       block
_cell_formula_units_Z            4
loop_
_atom_site_label
_atom_site_type_symbol
_atom_site_fract_x
_atom_site_fract_y
_atom_site_fract_z
P1 P 0.37137(10) 0.30994(5) 0.07762(2)
C1 C 0.2943(4) 0.3038(3) 0.16448(10)
C2 C 0.4255(5) 0.3675(3) 0.21432(11)
H1 H 0.5568 0.4124 0.2026
C3 C 0.3614(6) 0.3644(4) 0.28125(12)
H2 H 0.4495 0.4071 0.3143
C4 C 0.1681(7) 0.2984(5) 0.29860(14)
H3 H 0.1255 0.2962 0.3435
C5 C 0.0382(6) 0.2362(5) 0.25059(16)
H4 H -0.0931 0.1924 0.2630
C6 C 0.0992(5) 0.2372(4) 0.18286(13)
H5 H 0.0099 0.1936 0.1504
C7 C 0.2817(4) 0.4866(2) 0.03997(11)
H6 H 0.3459 0.4959 -0.0045
H7 H 0.1257 0.4827 0.0343
C8 C 0.3389(4) 0.6269(2) 0.08058(10)
H8 H 0.4884 0.6185 0.0952
H9 H 0.2488 0.6294 0.1206
C9 C 0.3113(4) 0.7760(2) 0.04301(11)
O1 O 0.6226(3) 0.31246(18) 0.08088(7)
H10 H 0.685(4) 0.323(3) 0.0452(7)
O2 O 0.2784(3) 0.17650(16) 0.03892(7)
O3 O 0.3148(3) 0.79083(17) -0.01724(7)
O4 O 0.2882(4) 0.89173(16) 0.08613(8)
H11 H 0.288(5) 0.9748(18) 0.0667(13)
loop_
_geom_bond_atom_site_label_1
_geom_bond_atom_site_label_2
_geom_bond_site_symmetry_1
_geom_bond_site_symmetry_2
P1 C1 1_555 1_555
C1 C2 1_555 1_555
C2 H1 1_555 1_555
C3 C2 1_555 1_555
H2 C3 1_555 1_555
C4 C3 1_555 1_555
H3 C4 1_555 1_555
C5 C4 1_555 1_555
H4 C5 1_555 1_555
C6 C1 1_555 1_555
H5 C6 1_555 1_555
C7 P1 1_555 1_555
H6 C7 1_555 1_555
H7 C7 1_555 1_555
C8 C7 1_555 1_555
H8 C8 1_555 1_555
H9 C8 1_555 1_555
C9 C8 1_555 1_555
O1 P1 1_555 1_555
H10 O1 1_555 1_555
O2 P1 1_555 1_555
O3 C9 1_555 1_555
O4 C9 1_555 1_555
H11 O4 1_555 1_555
C5 C6 1_555 1_555

#END
