
#######################################################################
#
#                 Cambridge Crystallographic Data Centre
#                                CCDC 
#
#######################################################################
#
# If this CIF has been generated from an entry in the Cambridge 
# Structural Database, then it will include bibliographic, chemical, 
# crystal, experimental, refinement or atomic coordinate data resulting 
# from the CCDC's data processing and validation procedures.
#
#######################################################################

data_ISEDER
_chemical_formula_moiety         'C24 H21 Cl1 F3 N1 O4'
_chemical_name_systematic        
't-butyl 5-chloro-3-(1,1,1-trifluoro-4-(4-methoxyphenyl)-4-oxobut-2-en-2-yl)-1H-indole-1-carboxylate'
_symmetry_cell_setting           monoclinic
_symmetry_space_group_name_H-M   'C 2/c'
_symmetry_Int_Tables_number      15
_space_group_name_Hall           '-C 2yn'
loop_
_symmetry_equiv_pos_site_id
_symmetry_equiv_pos_as_xyz
1 x,y,z
2 -x,y,1/2-z
3 1/2+x,1/2+y,z
4 1/2-x,1/2+y,1/2-z
5 -x,-y,-z
6 x,-y,1/2+z
7 1/2-x,1/2-y,-z
8 1/2+x,1/2-y,1/2+z
_cell_length_a                   26.236(3)
_cell_length_b                   8.1806(11)
_cell_length_c                   21.790(3)
_cell_angle_alpha                90
_cell_angle_beta                 100.102(2)
_cell_angle_gamma                90
_cell_volume                     4604.2
_exptl_crystal_colour            yellow
_exptl_crystal_description       block
_cell_formula_units_Z            8
loop_
_atom_site_label
_atom_site_type_symbol
_atom_site_fract_x
_atom_site_fract_y
_atom_site_fract_z
O1 O 0.12849(5) 0.0126(2) 0.51593(7)
O2 O -0.03764(7) 0.4779(2) 0.60498(9)
O3 O 0.32267(6) 0.0900(2) 0.36681(9)
O4 O 0.28142(6) -0.14684(19) 0.33815(8)
Cl1 Cl 0.16735(2) 0.65165(7) 0.48064(3)
N1 N 0.23962(6) 0.0483(2) 0.38029(7)
C1 C 0.23008(7) 0.2015(2) 0.40549(8)
C2 C 0.26327(7) 0.3294(3) 0.42465(9)
H1 H 0.2982 0.3231 0.4220
C3 C 0.24300(8) 0.4666(3) 0.44774(9)
H2 H 0.2643 0.5552 0.4610
C4 C 0.19062(8) 0.4729(3) 0.45133(9)
C5 C 0.15735(7) 0.3461(2) 0.43337(9)
H3 H 0.1225 0.3532 0.4366
C6 C 0.17732(7) 0.2060(2) 0.41009(8)
C7 C 0.15507(7) 0.0516(3) 0.38660(9)
C8 C 0.19338(7) -0.0382(3) 0.36904(9)
H4 H 0.1893 -0.1426 0.3520
C9 C 0.09984(7) 0.0048(3) 0.37963(9)
C10 C 0.07586(9) -0.0547(4) 0.31631(11)
C11 C 0.06949(7) 0.0186(3) 0.42205(9)
H5 H 0.0344 -0.0022 0.4093
C12 C 0.08720(7) 0.0645(3) 0.48818(9)
C13 C 0.05354(7) 0.1704(3) 0.51917(9)
C14 C 0.07062(8) 0.2187(3) 0.57975(10)
H6 H 0.1026 0.1818 0.6005
C15 C 0.04158(9) 0.3208(3) 0.61056(11)
H7 H 0.0538 0.3526 0.6515
C16 C -0.00584(9) 0.3749(3) 0.57979(11)
C17 C -0.02392(8) 0.3278(3) 0.51948(11)
H8 H -0.0561 0.3640 0.4991
C18 C 0.00546(8) 0.2273(3) 0.48934(10)
H9 H -0.0069 0.1965 0.4483
C19 C -0.02162(14) 0.5339(4) 0.66672(15)
H10 H -0.0149 0.4420 0.6943
H11 H -0.0485 0.6000 0.6788
H12 H 0.0093 0.5979 0.6690
C20 C 0.28603(8) 0.0022(3) 0.36160(10)
C21 C 0.32419(9) -0.2221(3) 0.31094(11)
C22 C 0.33379(12) -0.1195(4) 0.25622(13)
H13 H 0.3021 -0.1079 0.2269
H14 H 0.3592 -0.1720 0.2363
H15 H 0.3461 -0.0134 0.2708
C23 C 0.30121(13) -0.3855(4) 0.28973(17)
H16 H 0.2942 -0.4458 0.3251
H17 H 0.3252 -0.4455 0.2699
H18 H 0.2696 -0.3694 0.2607
C24 C 0.37160(10) -0.2404(4) 0.36004(12)
H19 H 0.3854 -0.1343 0.3723
H20 H 0.3971 -0.3031 0.3437
H21 H 0.3627 -0.2955 0.3956
F1 F 0.02712(5) -0.0999(2) 0.31129(7)
F2 F 0.07738(7) 0.0588(3) 0.27273(7)
F3 F 0.10019(7) -0.1830(3) 0.29782(10)
loop_
_geom_bond_atom_site_label_1
_geom_bond_atom_site_label_2
_geom_bond_site_symmetry_1
_geom_bond_site_symmetry_2
O1 C12 1_555 1_555
O2 C16 1_555 1_555
O3 C20 1_555 1_555
O4 C20 1_555 1_555
Cl1 C4 1_555 1_555
N1 C1 1_555 1_555
C1 C2 1_555 1_555
C2 H1 1_555 1_555
C3 C2 1_555 1_555
H2 C3 1_555 1_555
C4 C3 1_555 1_555
C5 C4 1_555 1_555
H3 C5 1_555 1_555
C6 C1 1_555 1_555
C7 C6 1_555 1_555
C8 N1 1_555 1_555
H4 C8 1_555 1_555
C9 C7 1_555 1_555
C10 C9 1_555 1_555
C11 C9 1_555 1_555
H5 C11 1_555 1_555
C12 C11 1_555 1_555
C13 C12 1_555 1_555
C14 C13 1_555 1_555
H6 C14 1_555 1_555
C15 C14 1_555 1_555
H7 C15 1_555 1_555
C16 C15 1_555 1_555
C17 C16 1_555 1_555
H8 C17 1_555 1_555
C18 C13 1_555 1_555
H9 C18 1_555 1_555
C19 O2 1_555 1_555
H10 C19 1_555 1_555
H11 C19 1_555 1_555
H12 C19 1_555 1_555
C20 N1 1_555 1_555
C21 O4 1_555 1_555
C22 C21 1_555 1_555
H13 C22 1_555 1_555
H14 C22 1_555 1_555
H15 C22 1_555 1_555
C23 C21 1_555 1_555
H16 C23 1_555 1_555
H17 C23 1_555 1_555
H18 C23 1_555 1_555
C24 C21 1_555 1_555
H19 C24 1_555 1_555
H20 C24 1_555 1_555
H21 C24 1_555 1_555
F1 C10 1_555 1_555
F2 C10 1_555 1_555
F3 C10 1_555 1_555
C5 C6 1_555 1_555
C7 C8 1_555 1_555
C17 C18 1_555 1_555

#END
