
#######################################################################
#
#                 Cambridge Crystallographic Data Centre
#                                CCDC 
#
#######################################################################
#
# If this CIF has been generated from an entry in the Cambridge 
# Structural Database, then it will include bibliographic, chemical, 
# crystal, experimental, refinement or atomic coordinate data resulting 
# from the CCDC's data processing and validation procedures.
#
#######################################################################

data_ISELEZ
_chemical_formula_moiety         'C31 H27 Cl1 F3 N1 O5 S1'
_chemical_name_systematic        
't-butyl 5-chloro-3-(4-hydroxy-3-(4-methoxybenzoyl)-2-(trifluoromethyl)-3,4-dihydro-2H-thiochromen-2-yl)-1H-indole-1-carboxylate'
_symmetry_cell_setting           monoclinic
_symmetry_space_group_name_H-M   'P 21'
_symmetry_Int_Tables_number      4
_space_group_name_Hall           'P 2yb'
loop_
_symmetry_equiv_pos_site_id
_symmetry_equiv_pos_as_xyz
1 x,y,z
2 -x,1/2+y,-z
_cell_length_a                   10.4656(3)
_cell_length_b                   10.4575(2)
_cell_length_c                   26.8799(5)
_cell_angle_alpha                90
_cell_angle_beta                 89.999(2)
_cell_angle_gamma                90
_cell_volume                     2941.84
_exptl_crystal_colour            'light colorless'
_exptl_crystal_description       block
_cell_formula_units_Z            4
loop_
_atom_site_label
_atom_site_type_symbol
_atom_site_fract_x
_atom_site_fract_y
_atom_site_fract_z
Cl1 Cl -1.08858(12) -0.56401(12) 0.07053(4)
S1 S -0.90139(10) -0.47071(12) -0.11216(4)
F1 F -0.9400(3) -0.2348(3) -0.17572(11)
F2 F -1.1103(3) -0.2963(3) -0.21375(10)
F3 F -0.9371(3) -0.4060(3) -0.21979(10)
O1 O -1.1818(4) -0.7515(3) -0.16512(13)
H1 H -1.1922 -0.8121 -0.1462
O2 O -1.3151(3) -0.5296(4) -0.11109(11)
O3 O -1.6156(3) -0.3401(4) -0.29993(16)
O4 O -1.2509(3) 0.0319(3) -0.10730(12)
O5 O -1.3181(3) -0.0085(3) -0.02885(12)
N1 N -1.2181(3) -0.1619(3) -0.07210(12)
C1 C -0.8626(5) -0.6089(4) -0.14646(15)
C2 C -0.7365(5) -0.6324(5) -0.15888(18)
H2 H -0.6730 -0.5742 -0.1504
C3 C -0.7060(7) -0.7441(7) -0.1842(2)
H3 H -0.6214 -0.7625 -0.1920
C4 C -0.8004(8) -0.8265(7) -0.1976(2)
H4 H -0.7797 -0.8998 -0.2154
C5 C -0.9254(7) -0.8035(5) -0.18530(19)
H5 H -0.9884 -0.8611 -0.1949
C6 C -0.9587(5) -0.6952(4) -0.15873(16)
C7 C -1.0929(5) -0.6648(4) -0.14403(16)
H6 H -1.1003 -0.6664 -0.1077
C8 C -1.1321(4) -0.5327(4) -0.16347(14)
H7 H -1.1214 -0.5340 -0.1997
C9 C -1.0500(4) -0.4175(4) -0.14290(14)
C10 C -1.1164(4) -0.3322(4) -0.10517(14)
C11 C -1.1674(4) -0.2160(4) -0.11429(16)
H8 H -1.1680 -0.1772 -0.1454
C12 C -1.1954(4) -0.2463(4) -0.03221(15)
C13 C -1.2218(4) -0.2341(4) 0.01841(15)
H9 H -1.2613 -0.1613 0.0310
C14 C -1.1875(4) -0.3333(4) 0.04888(15)
H10 H -1.2032 -0.3276 0.0829
C15 C -1.1299(4) -0.4415(4) 0.02991(15)
C16 C -1.1027(4) -0.4547(4) -0.02022(14)
H11 H -1.0646 -0.5287 -0.0324
C17 C -1.1338(4) -0.3545(4) -0.05185(14)
C18 C -1.2630(4) -0.0356(4) -0.07112(18)
C19 C -1.3605(5) 0.1248(5) -0.01673(19)
C20 C -1.2430(6) 0.2073(6) -0.0141(2)
H12 H -1.1827 0.1698 0.0085
H13 H -1.2660 0.2910 -0.0025
H14 H -1.2052 0.2137 -0.0465
C21 C -1.4552(6) 0.1730(7) -0.0550(3)
H15 H -1.4135 0.1809 -0.0867
H16 H -1.4873 0.2550 -0.0449
H17 H -1.5249 0.1137 -0.0578
C22 C -1.4209(6) 0.1077(6) 0.0337(2)
H18 H -1.4925 0.0508 0.0311
H19 H -1.4494 0.1891 0.0460
H20 H -1.3593 0.0724 0.0564
C23 C -1.2745(4) -0.5129(4) -0.15297(16)
C24 C -1.3606(4) -0.4707(5) -0.19355(16)
C25 C -1.3331(5) -0.4873(5) -0.24373(17)
H21 H -1.2573 -0.5272 -0.2530
C26 C -1.4166(5) -0.4454(6) -0.28025(19)
H22 H -1.3971 -0.4577 -0.3137
C27 C -1.5282(5) -0.3858(5) -0.2670(2)
C28 C -1.5583(5) -0.3708(5) -0.2174(2)
H23 H -1.6351 -0.3326 -0.2083
C29 C -1.4749(5) -0.4122(5) -0.18130(19)
H24 H -1.4958 -0.4007 -0.1480
C30 C -1.5880(7) -0.3446(8) -0.3513(2)
H25 H -1.6558 -0.3042 -0.3695
H26 H -1.5801 -0.4320 -0.3617
H27 H -1.5092 -0.3004 -0.3576
C31 C -1.0090(5) -0.3380(5) -0.18783(18)
Cl2 Cl -1.08875(12) -0.85492(12) -0.57058(4)
S2 S -0.90140(11) -0.94820(11) -0.38778(4)
F4 F -0.9373(3) -1.0131(3) -0.28022(10)
F5 F -1.1102(3) -1.1223(3) -0.28622(10)
F6 F -0.9405(3) -1.1844(3) -0.32419(11)
O6 O -1.1815(4) -0.6675(3) -0.33488(12)
H28 H -1.1915 -0.6067 -0.3538
O7 O -1.3154(3) -0.8898(4) -0.38896(11)
O8 O -1.6155(4) -1.0785(4) -0.20043(15)
O9 O -1.2506(3) -1.4510(3) -0.39275(12)
O10 O -1.3182(3) -1.4109(3) -0.47106(12)
N2 N -1.2183(3) -1.2565(3) -0.42803(12)
C32 C -1.0090(5) -1.0816(5) -0.31208(18)
C33 C -0.8628(5) -0.8102(4) -0.35327(16)
C34 C -0.7363(5) -0.7858(6) -0.34117(19)
H29 H -0.6725 -0.8434 -0.3500
C35 C -0.7061(7) -0.6746(7) -0.3158(2)
H30 H -0.6215 -0.6566 -0.3077
C36 C -0.7994(8) -0.5928(7) -0.3028(2)
H31 H -0.7784 -0.5192 -0.2852
C37 C -0.9247(7) -0.6150(5) -0.31494(19)
H32 H -0.9874 -0.5568 -0.3055
C38 C -0.9583(5) -0.7239(4) -0.34126(16)
C39 C -1.0934(4) -0.7543(4) -0.35594(16)
H33 H -1.1010 -0.7523 -0.3923
C40 C -1.1328(4) -0.8870(4) -0.33676(15)
H34 H -1.1223 -0.8858 -0.3005
C41 C -1.0495(4) -1.0009(4) -0.35697(14)
C42 C -1.2752(4) -0.9071(4) -0.34706(16)
C43 C -1.3605(4) -0.9484(4) -0.30655(16)
C44 C -1.4752(5) -1.0067(5) -0.31851(19)
H35 H -1.4964 -1.0180 -0.3518
C45 C -1.5578(5) -1.0480(6) -0.2827(2)
H36 H -1.6345 -1.0863 -0.2918
C46 C -1.5281(5) -1.0332(5) -0.2332(2)
C47 C -1.4163(5) -0.9728(6) -0.21966(18)
H37 H -1.3967 -0.9595 -0.1863
C48 C -1.3342(5) -0.9324(5) -0.25640(17)
H38 H -1.2581 -0.8929 -0.2472
C49 C -1.5883(7) -1.0753(8) -0.1490(2)
H39 H -1.5092 -1.1191 -0.1428
H40 H -1.6559 -1.1167 -0.1310
H41 H -1.5811 -0.9881 -0.1383
C50 C -1.1165(4) -1.0874(4) -0.39467(14)
C51 C -1.1342(4) -1.0647(4) -0.44810(14)
C52 C -1.1021(4) -0.9636(4) -0.47980(14)
H42 H -1.0636 -0.8898 -0.4677
C53 C -1.1297(4) -0.9773(4) -0.52983(14)
C54 C -1.1878(4) -1.0856(4) -0.54905(15)
H43 H -1.2039 -1.0911 -0.5830
C55 C -1.2218(4) -1.1847(4) -0.51855(15)
H44 H -1.2609 -1.2577 -0.5312
C56 C -1.1958(4) -1.1726(4) -0.46774(15)
C57 C -1.1677(4) -1.2026(4) -0.38578(16)
H45 H -1.1688 -1.2415 -0.3547
C58 C -1.2630(4) -1.3831(4) -0.42875(18)
C59 C -1.3602(5) -1.5436(5) -0.4830(2)
C60 C -1.4207(6) -1.5266(6) -0.5337(2)
H46 H -1.4919 -1.4692 -0.5311
H47 H -1.4498 -1.6080 -0.5457
H48 H -1.3588 -1.4920 -0.5563
C61 C -1.2435(6) -1.6268(6) -0.4860(2)
H49 H -1.1807 -1.5863 -0.5067
H50 H -1.2662 -1.7081 -0.5001
H51 H -1.2090 -1.6392 -0.4533
C62 C -1.4552(6) -1.5921(7) -0.4451(3)
H52 H -1.4128 -1.6052 -0.4138
H53 H -1.4908 -1.6716 -0.4564
H54 H -1.5223 -1.5305 -0.4410
loop_
_geom_bond_atom_site_label_1
_geom_bond_atom_site_label_2
_geom_bond_site_symmetry_1
_geom_bond_site_symmetry_2
Cl1 C15 1_555 1_555
S1 C1 1_555 1_555
F1 C31 1_555 1_555
F2 C31 1_555 1_555
F3 C31 1_555 1_555
O1 H1 1_555 1_555
O2 C23 1_555 1_555
O3 C27 1_555 1_555
O4 C18 1_555 1_555
O5 C18 1_555 1_555
N1 C11 1_555 1_555
C1 C2 1_555 1_555
C2 H2 1_555 1_555
C3 C2 1_555 1_555
H3 C3 1_555 1_555
C4 C3 1_555 1_555
H4 C4 1_555 1_555
C5 C4 1_555 1_555
H5 C5 1_555 1_555
C6 C1 1_555 1_555
C7 O1 1_555 1_555
H6 C7 1_555 1_555
C8 C7 1_555 1_555
H7 C8 1_555 1_555
C9 S1 1_555 1_555
C10 C9 1_555 1_555
C11 C10 1_555 1_555
H8 C11 1_555 1_555
C12 N1 1_555 1_555
C13 C12 1_555 1_555
H9 C13 1_555 1_555
C14 C13 1_555 1_555
H10 C14 1_555 1_555
C15 C14 1_555 1_555
C16 C15 1_555 1_555
H11 C16 1_555 1_555
C17 C10 1_555 1_555
C18 N1 1_555 1_555
C19 O5 1_555 1_555
C20 C19 1_555 1_555
H12 C20 1_555 1_555
H13 C20 1_555 1_555
H14 C20 1_555 1_555
C21 C19 1_555 1_555
H15 C21 1_555 1_555
H16 C21 1_555 1_555
H17 C21 1_555 1_555
C22 C19 1_555 1_555
H18 C22 1_555 1_555
H19 C22 1_555 1_555
H20 C22 1_555 1_555
C23 C8 1_555 1_555
C24 C23 1_555 1_555
C25 C24 1_555 1_555
H21 C25 1_555 1_555
C26 C25 1_555 1_555
H22 C26 1_555 1_555
C27 C26 1_555 1_555
C28 C27 1_555 1_555
H23 C28 1_555 1_555
C29 C24 1_555 1_555
H24 C29 1_555 1_555
C30 O3 1_555 1_555
H25 C30 1_555 1_555
H26 C30 1_555 1_555
H27 C30 1_555 1_555
C31 C9 1_555 1_555
Cl2 C53 1_555 1_555
S2 C33 1_555 1_555
F4 C32 1_555 1_555
F5 C32 1_555 1_555
F6 C32 1_555 1_555
O6 H28 1_555 1_555
O7 C42 1_555 1_555
O8 C46 1_555 1_555
O9 C58 1_555 1_555
O10 C58 1_555 1_555
N2 C56 1_555 1_555
C32 C41 1_555 1_555
C33 C34 1_555 1_555
C34 H29 1_555 1_555
C35 C34 1_555 1_555
H30 C35 1_555 1_555
C36 C35 1_555 1_555
H31 C36 1_555 1_555
C37 C36 1_555 1_555
H32 C37 1_555 1_555
C38 C33 1_555 1_555
C39 O6 1_555 1_555
H33 C39 1_555 1_555
C40 C39 1_555 1_555
H34 C40 1_555 1_555
C41 S2 1_555 1_555
C42 C40 1_555 1_555
C43 C42 1_555 1_555
C44 C43 1_555 1_555
H35 C44 1_555 1_555
C45 C44 1_555 1_555
H36 C45 1_555 1_555
C46 C45 1_555 1_555
C47 C46 1_555 1_555
H37 C47 1_555 1_555
C48 C43 1_555 1_555
H38 C48 1_555 1_555
C49 O8 1_555 1_555
H39 C49 1_555 1_555
H40 C49 1_555 1_555
H41 C49 1_555 1_555
C50 C41 1_555 1_555
C51 C50 1_555 1_555
C52 C51 1_555 1_555
H42 C52 1_555 1_555
C53 C52 1_555 1_555
C54 C53 1_555 1_555
H43 C54 1_555 1_555
C55 C54 1_555 1_555
H44 C55 1_555 1_555
C56 C51 1_555 1_555
C57 N2 1_555 1_555
H45 C57 1_555 1_555
C58 N2 1_555 1_555
C59 O10 1_555 1_555
C60 C59 1_555 1_555
H46 C60 1_555 1_555
H47 C60 1_555 1_555
H48 C60 1_555 1_555
C61 C59 1_555 1_555
H49 C61 1_555 1_555
H50 C61 1_555 1_555
H51 C61 1_555 1_555
C62 C59 1_555 1_555
H52 C62 1_555 1_555
H53 C62 1_555 1_555
H54 C62 1_555 1_555
C5 C6 1_555 1_555
C6 C7 1_555 1_555
C8 C9 1_555 1_555
C12 C17 1_555 1_555
C16 C17 1_555 1_555
C28 C29 1_555 1_555
C37 C38 1_555 1_555
C38 C39 1_555 1_555
C40 C41 1_555 1_555
C47 C48 1_555 1_555
C50 C57 1_555 1_555
C55 C56 1_555 1_555

#END
