
#######################################################################
#
#                 Cambridge Crystallographic Data Centre
#                                CCDC 
#
#######################################################################
#
# If this CIF has been generated from an entry in the Cambridge 
# Structural Database, then it will include bibliographic, chemical, 
# crystal, experimental, refinement or atomic coordinate data resulting 
# from the CCDC's data processing and validation procedures.
#
#######################################################################

data_ISIKEC
_chemical_formula_moiety         'C21 H18 N2 O4 S1'
_chemical_name_systematic        
(E)-N-(furan-2-yl(1-methyl-3-oxoindolin-2-ylidene)methyl)-4-methylbenzenesulfonamide
_symmetry_cell_setting           triclinic
_symmetry_space_group_name_H-M   'P -1'
_symmetry_Int_Tables_number      2
_space_group_name_Hall           '-P 1'
loop_
_symmetry_equiv_pos_site_id
_symmetry_equiv_pos_as_xyz
1 x,y,z
2 -x,-y,-z
_cell_length_a                   7.3603(3)
_cell_length_b                   7.5430(4)
_cell_length_c                   17.2163(9)
_cell_angle_alpha                87.384(5)
_cell_angle_beta                 86.032(4)
_cell_angle_gamma                74.912(5)
_cell_volume                     920.286
_exptl_crystal_colour            red
_exptl_crystal_description       plate
_chemical_melting_point          '162-163 deg.C'
_cell_formula_units_Z            2
loop_
_atom_site_label
_atom_site_type_symbol
_atom_site_fract_x
_atom_site_fract_y
_atom_site_fract_z
S1 S 0.65572(7) 0.01007(7) 0.17698(3)
O1 O 0.81308(19) -0.0045(2) 0.38996(9)
O2 O 0.84465(19) -0.1031(2) 0.17038(9)
O3 O 0.6158(2) 0.19799(19) 0.15073(9)
O4 O 0.2362(2) 0.40145(18) 0.26597(9)
N1 N 0.3545(2) 0.2635(2) 0.44010(10)
N2 N 0.5955(2) -0.0039(2) 0.27057(10)
H1 H 0.697(3) -0.052(3) 0.2955(15)
C1 C 0.4483(3) 0.2769(3) 0.50542(12)
C2 C 0.3777(3) 0.3715(3) 0.57298(13)
H2 H 0.2487 0.4365 0.5797
C3 C 0.5022(3) 0.3675(3) 0.63013(13)
H3 H 0.4575 0.4334 0.6763
C4 C 0.6908(3) 0.2700(3) 0.62202(13)
H4 H 0.7715 0.2686 0.6629
C5 C 0.7616(3) 0.1757(3) 0.55532(13)
H5 H 0.8902 0.1092 0.5495
C6 C 0.6385(3) 0.1806(3) 0.49613(12)
C7 C 0.6678(3) 0.0969(3) 0.42098(12)
C8 C 0.4834(3) 0.1590(3) 0.38491(12)
C9 C 0.4534(3) 0.1267(3) 0.31051(12)
C10 C 0.2808(3) 0.2133(3) 0.27139(12)
C11 C 0.1456(3) 0.1512(3) 0.24080(13)
H6 H 0.1425 0.0267 0.2374
C12 C 0.0097(3) 0.3081(3) 0.21486(14)
H7 H -0.1029 0.3091 0.1907
C13 C 0.0693(3) 0.4545(3) 0.23067(14)
H8 H 0.0046 0.5782 0.2190
C14 C 0.1508(3) 0.3200(3) 0.43748(13)
H9 H 0.0929 0.3156 0.4903
H10 H 0.1096 0.2368 0.4046
H11 H 0.1123 0.4456 0.4158
C15 C 0.5088(3) -0.0966(3) 0.13052(12)
C16 C 0.5322(3) -0.2837(3) 0.14186(13)
H12 H 0.6263 -0.3534 0.1741
C17 C 0.4159(3) -0.3678(3) 0.10527(14)
H13 H 0.4299 -0.4960 0.1134
C18 C 0.2797(3) -0.2683(3) 0.05710(13)
C19 C 0.2621(3) -0.0825(3) 0.04588(13)
H14 H 0.1702 -0.0130 0.0126
C20 C 0.3755(3) 0.0047(3) 0.08217(13)
H15 H 0.3618 0.1328 0.0739
C21 C 0.1534(4) -0.3612(4) 0.01830(16)
H16 H 0.0305 -0.3374 0.0473
H17 H 0.2108 -0.4939 0.0177
H18 H 0.1366 -0.3128 -0.0353
loop_
_geom_bond_atom_site_label_1
_geom_bond_atom_site_label_2
_geom_bond_site_symmetry_1
_geom_bond_site_symmetry_2
S1 O2 1_555 1_555
O1 C7 1_555 1_555
O3 S1 1_555 1_555
O4 C10 1_555 1_555
N1 C1 1_555 1_555
N2 S1 1_555 1_555
H1 N2 1_555 1_555
C1 C2 1_555 1_555
C2 H2 1_555 1_555
C3 C2 1_555 1_555
H3 C3 1_555 1_555
C4 C3 1_555 1_555
H4 C4 1_555 1_555
C5 C4 1_555 1_555
H5 C5 1_555 1_555
C6 C1 1_555 1_555
C7 C6 1_555 1_555
C8 N1 1_555 1_555
C9 N2 1_555 1_555
C10 C9 1_555 1_555
C11 C10 1_555 1_555
H6 C11 1_555 1_555
C12 C11 1_555 1_555
H7 C12 1_555 1_555
C13 O4 1_555 1_555
H8 C13 1_555 1_555
C14 N1 1_555 1_555
H9 C14 1_555 1_555
H10 C14 1_555 1_555
H11 C14 1_555 1_555
C15 S1 1_555 1_555
C16 C15 1_555 1_555
H12 C16 1_555 1_555
C17 C16 1_555 1_555
H13 C17 1_555 1_555
C18 C17 1_555 1_555
C19 C18 1_555 1_555
H14 C19 1_555 1_555
C20 C15 1_555 1_555
H15 C20 1_555 1_555
C21 C18 1_555 1_555
H16 C21 1_555 1_555
H17 C21 1_555 1_555
H18 C21 1_555 1_555
C5 C6 1_555 1_555
C7 C8 1_555 1_555
C8 C9 1_555 1_555
C12 C13 1_555 1_555
C19 C20 1_555 1_555

#END
