
#######################################################################
#
#                 Cambridge Crystallographic Data Centre
#                                CCDC 
#
#######################################################################
#
# If this CIF has been generated from an entry in the Cambridge 
# Structural Database, then it will include bibliographic, chemical, 
# crystal, experimental, refinement or atomic coordinate data resulting 
# from the CCDC's data processing and validation procedures.
#
#######################################################################

data_ISODEZ
_chemical_formula_moiety         '2(C16 H36 N1 1+),C5 O5 2-,3(C3 H8 N2 O1)'
_chemical_name_systematic        
'bis(Tetra-n-butylammonium) croconate tris(1,3-dimethylurea) clathrate'
_symmetry_cell_setting           monoclinic
_symmetry_space_group_name_H-M   'C 2/c'
_symmetry_Int_Tables_number      15
_space_group_name_Hall           '-C 2yn'
loop_
_symmetry_equiv_pos_site_id
_symmetry_equiv_pos_as_xyz
1 x,y,z
2 1/2+x,1/2+y,z
3 x,-y,1/2+z
4 1/2+x,1/2-y,1/2+z
5 -x,-y,-z
6 1/2-x,1/2-y,-z
7 -x,y,1/2-z
8 1/2-x,1/2+y,1/2-z
_cell_length_a                   25.211(4)
_cell_length_b                   13.5697(19)
_cell_length_c                   15.775(2)
_cell_angle_alpha                90
_cell_angle_beta                 93.204(18)
_cell_angle_gamma                90
_cell_volume                     5388.28
_exptl_crystal_colour            'pale yellow'
_exptl_crystal_description       block
_chemical_melting_point          150-152deg.C(dec.)
_cell_formula_units_Z            4
loop_
_atom_site_label
_atom_site_type_symbol
_atom_site_fract_x
_atom_site_fract_y
_atom_site_fract_z
O1 O 0.54953(4) 0.76693(7) 0.20510(6)
O2 O 0.57766(4) 0.56160(7) 0.17087(6)
O3 O 0.5000 0.43374(9) 0.2500
C1 C 0.52440(5) 0.69205(9) 0.22728(8)
C2 C 0.53921(5) 0.58947(9) 0.21044(8)
C3 C 0.5000 0.52506(13) 0.2500
C1F C 0.47560(5) 0.69205(9) 0.27272(8)
O1F O 0.45047(4) 0.76693(7) 0.29490(6)
C2F C 0.46079(5) 0.58947(9) 0.28956(8)
O2F O 0.42234(4) 0.56160(7) 0.32913(6)
O4 O 0.5000 1.11442(9) 0.2500
C4 C 0.5000 1.02302(13) 0.2500
C5 C 0.54334(6) 1.01577(11) 0.11580(9)
H1 H 0.5567 0.9662 0.0791
H2 H 0.5718 1.0591 0.1345
H3 H 0.5160 1.0530 0.0854
N1 N 0.52166(5) 0.96924(8) 0.18839(8)
H4 H 0.5225 0.9061 0.1927
N1F N 0.47834(5) 0.96924(8) 0.31161(8)
C5F C 0.45666(6) 1.01577(11) 0.38420(9)
H1F H 0.4433 0.9662 0.4209
H2F H 0.4282 1.0591 0.3655
H3F H 0.4840 1.0530 0.4146
H4F H 0.4775 0.9061 0.3073
O5 O 0.73819(4) 0.77625(10) 0.13091(8)
C6 C 0.69085(6) 0.75659(14) 0.13805(9)
C7 C 0.67422(7) 0.92055(15) 0.19007(12)
H5 H 0.6446 0.9617 0.2020
H6 H 0.6944 0.9513 0.1476
H7 H 0.6964 0.9115 0.2410
C8 C 0.70696(8) 0.58392(16) 0.11267(13)
H8 H 0.6869 0.5244 0.1028
H9 H 0.7297 0.5767 0.1631
H10 H 0.7281 0.5966 0.0651
N2 N 0.65513(5) 0.82607(11) 0.15958(8)
H11 H 0.6216 0.8139 0.1551
N3 N 0.67098(5) 0.66521(11) 0.12317(8)
H12 H 0.6372 0.6556 0.1200
N4 N 0.38958(4) 0.27540(7) 0.13286(6)
C9 C 0.36129(5) 0.18580(9) 0.09437(8)
H13 H 0.3256 0.1839 0.1142
H14 H 0.3582 0.1940 0.0332
C10 C 0.38782(5) 0.08739(9) 0.11424(9)
H15 H 0.3900 0.0768 0.1752
H16 H 0.4237 0.0882 0.0950
C11 C 0.35669(6) 0.00355(10) 0.07085(9)
H17 H 0.3220 -0.0007 0.0942
H18 H 0.3515 0.0180 0.0107
C12 C 0.38474(7) -0.09525(11) 0.08197(11)
H19 H 0.3637 -0.1457 0.0537
H20 H 0.3893 -0.1106 0.1413
H21 H 0.4188 -0.0919 0.0579
C13 C 0.39285(5) 0.27058(9) 0.22935(8)
H22 H 0.4147 0.2146 0.2470
H23 H 0.4106 0.3295 0.2512
C14 C 0.33975(5) 0.26155(11) 0.26932(8)
H24 H 0.3251 0.1965 0.2581
H25 H 0.3152 0.3097 0.2442
C15 C 0.34607(6) 0.27811(14) 0.36441(9)
H26 H 0.3714 0.2310 0.3890
H27 H 0.3602 0.3437 0.3753
C16 C 0.29399(7) 0.26749(17) 0.40716(11)
H28 H 0.2999 0.2786 0.4671
H29 H 0.2802 0.2023 0.3976
H30 H 0.2690 0.3149 0.3839
C17 C 0.35716(5) 0.36402(9) 0.10071(8)
H31 H 0.3602 0.3689 0.0398
H32 H 0.3201 0.3516 0.1105
C18 C 0.37254(5) 0.46277(9) 0.14022(9)
H33 H 0.4089 0.4786 0.1281
H34 H 0.3704 0.4592 0.2014
C19 C 0.33524(5) 0.54308(10) 0.10430(9)
H35 H 0.3389 0.5483 0.0436
H36 H 0.2988 0.5244 0.1133
C20 C 0.34656(6) 0.64275(10) 0.14513(10)
H37 H 0.3223 0.6907 0.1207
H38 H 0.3823 0.6622 0.1354
H39 H 0.3422 0.6383 0.2051
C21 C 0.44679(5) 0.28183(9) 0.10700(8)
H40 H 0.4618 0.3433 0.1285
H41 H 0.4668 0.2287 0.1347
C22 C 0.45472(5) 0.27649(11) 0.01215(9)
H42 H 0.4367 0.3314 -0.0164
H43 H 0.4394 0.2159 -0.0108
C23 C 0.51398(6) 0.27991(10) -0.00370(9)
H44 H 0.5326 0.2335 0.0340
H45 H 0.5190 0.2591 -0.0615
C24 C 0.53838(6) 0.38114(12) 0.00982(11)
H46 H 0.5754 0.3786 -0.0010
H47 H 0.5344 0.4017 0.0673
H48 H 0.5208 0.4273 -0.0283
loop_
_geom_bond_atom_site_label_1
_geom_bond_atom_site_label_2
_geom_bond_site_symmetry_1
_geom_bond_site_symmetry_2
O1 C1 1_555 1_555
O2 C2 1_555 1_555
O3 C3 1_555 1_555
C1 C2 1_555 1_555
C2 C3 1_555 1_555
C3 C2F 1_555 1_555
O4 C4 1_555 1_555
C4 N1 1_555 1_555
C5 H1 1_555 1_555
H2 C5 1_555 1_555
H3 C5 1_555 1_555
N1 C5 1_555 1_555
H4 N1 1_555 1_555
O5 C6 1_555 1_555
C6 N2 1_555 1_555
C7 H5 1_555 1_555
H6 C7 1_555 1_555
H7 C7 1_555 1_555
C8 H8 1_555 1_555
H9 C8 1_555 1_555
H10 C8 1_555 1_555
N2 C7 1_555 1_555
H11 N2 1_555 1_555
N3 C6 1_555 1_555
H12 N3 1_555 1_555
N4 C9 1_555 1_555
C9 H13 1_555 1_555
H14 C9 1_555 1_555
C10 C9 1_555 1_555
H15 C10 1_555 1_555
H16 C10 1_555 1_555
C11 C10 1_555 1_555
H17 C11 1_555 1_555
H18 C11 1_555 1_555
C12 C11 1_555 1_555
H19 C12 1_555 1_555
H20 C12 1_555 1_555
H21 C12 1_555 1_555
C13 N4 1_555 1_555
H22 C13 1_555 1_555
H23 C13 1_555 1_555
C14 C13 1_555 1_555
H24 C14 1_555 1_555
H25 C14 1_555 1_555
C15 C14 1_555 1_555
H26 C15 1_555 1_555
H27 C15 1_555 1_555
C16 C15 1_555 1_555
H28 C16 1_555 1_555
H29 C16 1_555 1_555
H30 C16 1_555 1_555
C17 N4 1_555 1_555
H31 C17 1_555 1_555
H32 C17 1_555 1_555
C18 C17 1_555 1_555
H33 C18 1_555 1_555
H34 C18 1_555 1_555
C19 C18 1_555 1_555
H35 C19 1_555 1_555
H36 C19 1_555 1_555
C20 C19 1_555 1_555
H37 C20 1_555 1_555
H38 C20 1_555 1_555
H39 C20 1_555 1_555
C21 N4 1_555 1_555
H40 C21 1_555 1_555
H41 C21 1_555 1_555
C22 C21 1_555 1_555
H42 C22 1_555 1_555
H43 C22 1_555 1_555
C23 C22 1_555 1_555
H44 C23 1_555 1_555
H45 C23 1_555 1_555
C24 C23 1_555 1_555
H46 C24 1_555 1_555
H47 C24 1_555 1_555
H48 C24 1_555 1_555
C1F C1 1_555 1_555
O1F C1F 1_555 1_555
C2F C1F 1_555 1_555
O2F C2F 1_555 1_555
N1F C4 1_555 1_555
C5F N1F 1_555 1_555
H1F C5F 1_555 1_555
H2F C5F 1_555 1_555
H3F C5F 1_555 1_555
H4F N1F 1_555 1_555
C8 N3 1_555 1_555

#END
