
#######################################################################
#
#                 Cambridge Crystallographic Data Centre
#                                CCDC 
#
#######################################################################
#
# If this CIF has been generated from an entry in the Cambridge 
# Structural Database, then it will include bibliographic, chemical, 
# crystal, experimental, refinement or atomic coordinate data resulting 
# from the CCDC's data processing and validation procedures.
#
#######################################################################

data_ISOFUT
_chemical_formula_moiety         'C13 H12 Cl1 N1 O5'
_chemical_name_systematic        
'(R)-3-chloro-2-(prop-2-yn-1-yloxy)propyl 4-nitrobenzoate'
_symmetry_cell_setting           monoclinic
_symmetry_space_group_name_H-M   'P 21'
_symmetry_Int_Tables_number      4
_space_group_name_Hall           'P 2yb'
loop_
_symmetry_equiv_pos_site_id
_symmetry_equiv_pos_as_xyz
1 x,y,z
2 -x,1/2+y,-z
_cell_length_a                   21.6654(18)
_cell_length_b                   7.8663(5)
_cell_length_c                   22.0558(19)
_cell_angle_alpha                90
_cell_angle_beta                 114.346(10)
_cell_angle_gamma                90
_cell_volume                     3424.62
_exptl_crystal_colour            colorless
_exptl_crystal_description       block
_cell_formula_units_Z            10
_exptl_crystal_recrystallization_method 'ethyl acetate/hexane'
loop_
_atom_site_label
_atom_site_type_symbol
_atom_site_fract_x
_atom_site_fract_y
_atom_site_fract_z
Cl1 Cl 0.52073(7) 0.2625(2) 0.15587(7)
O1 O 0.37067(19) 0.1640(5) 0.0908(2)
O2 O 0.30677(19) 0.4657(6) 0.0509(2)
O3 O 0.3187(2) 0.7042(5) 0.0016(2)
O4 O -0.0284(2) 0.4033(7) -0.1470(3)
O5 O -0.0297(2) 0.6532(7) -0.1871(2)
N1 N -0.0003(3) 0.5325(8) -0.1505(3)
C1 C 0.4581(3) 0.2842(8) 0.1891(3)
H1 H 0.4599 0.1829 0.2165
H2 H 0.4691 0.3849 0.2186
C2 C 0.3868(3) 0.3032(7) 0.1358(3)
H3 H 0.3542 0.3056 0.1573
C3 C 0.3781(3) 0.4634(8) 0.0949(3)
H4 H 0.3907 0.5653 0.1239
H5 H 0.4063 0.4592 0.0693
C4 C 0.3369(3) 0.0287(8) 0.1089(4)
H6 H 0.3612 0.0055 0.1572
H7 H 0.3385 -0.0758 0.0846
C5 C 0.2655(3) 0.0706(9) 0.0937(3)
C6 C 0.2088(4) 0.1021(10) 0.0827(4)
H8 H 0.1630 0.1276 0.0739
C7 C 0.2841(3) 0.5923(8) 0.0065(3)
C8 C 0.2094(3) 0.5745(8) -0.0341(3)
C9 C 0.1772(3) 0.4202(9) -0.0374(3)
H9 H 0.2025 0.3244 -0.0139
C10 C 0.1078(3) 0.4059(9) -0.0752(3)
H10 H 0.0847 0.3017 -0.0776
C11 C 0.0734(3) 0.5492(9) -0.1093(3)
C12 C 0.1047(3) 0.7018(8) -0.1073(3)
H11 H 0.0797 0.7969 -0.1316
C13 C 0.1738(3) 0.7141(8) -0.0688(3)
H12 H 0.1966 0.8188 -0.0664
Cl2 Cl 0.51247(7) 0.2520(3) 0.36103(7)
O6 O 0.3639(2) 0.1423(6) 0.2773(2)
O7 O 0.2956(2) 0.4527(6) 0.2528(2)
O8 O 0.3211(2) 0.6488(7) 0.1921(2)
O9 O -0.0419(2) 0.5130(6) 0.0513(3)
O10 O -0.0201(2) 0.6678(9) -0.0187(3)
N2 N -0.0019(3) 0.5858(8) 0.0339(3)
C14 C 0.4428(3) 0.2415(12) 0.3857(3)
H13 H 0.4438 0.1297 0.4067
H14 H 0.4491 0.3303 0.4196
C15 C 0.3744(3) 0.2651(10) 0.3286(3)
H15 H 0.3383 0.2512 0.3455
C16 C 0.3669(3) 0.4359(9) 0.2966(3)
H16 H 0.3810 0.5268 0.3307
H17 H 0.3950 0.4433 0.2710
C17 C 0.3312(3) -0.0112(10) 0.2859(4)
H18 H 0.3532 -0.0484 0.3329
H19 H 0.3368 -0.1029 0.2578
C18 C 0.2588(3) 0.0183(10) 0.2675(4)
C19 C 0.1998(4) 0.0358(13) 0.2524(5)
H20 H 0.1527 0.0498 0.2404
C20 C 0.2801(3) 0.5621(9) 0.2014(3)
C21 C 0.2062(3) 0.5627(8) 0.1586(3)
C22 C 0.1610(3) 0.4535(9) 0.1694(4)
H21 H 0.1773 0.3738 0.2049
C23 C 0.0923(3) 0.4609(9) 0.1284(4)
H22 H 0.0608 0.3886 0.1355
C24 C 0.0711(3) 0.5784(8) 0.0765(3)
C25 C 0.1140(3) 0.6893(9) 0.0648(4)
H23 H 0.0974 0.7693 0.0295
C26 C 0.1826(3) 0.6803(9) 0.1068(3)
H24 H 0.2137 0.7550 0.1000
Cl3 Cl 0.52439(7) 0.2584(2) 0.56485(7)
O11 O 0.3764(2) 0.1432(7) 0.4851(2)
O12 O 0.3049(2) 0.4424(7) 0.4638(3)
O13 O 0.3199(2) 0.6461(9) 0.4015(3)
O14 O -0.0296(2) 0.3699(8) 0.2728(3)
O15 O -0.0258(2) 0.5644(7) 0.2059(2)
N3 N 0.0012(2) 0.4764(8) 0.2552(3)
C27 C 0.4578(3) 0.2396(13) 0.5929(3)
H25 H 0.4604 0.1263 0.6133
H26 H 0.4643 0.3265 0.6274
C28 C 0.3877(3) 0.2623(12) 0.5360(3)
H27 H 0.3531 0.2429 0.5543
C29 C 0.3769(3) 0.4366(10) 0.5064(4)
H28 H 0.3894 0.5247 0.5415
H29 H 0.4041 0.4539 0.4801
C30 C 0.3460(3) -0.0113(10) 0.4929(4)
H30 H 0.3593 -0.0305 0.5410
H31 H 0.3650 -0.1059 0.4763
C31 C 0.2721(6) -0.0198(15) 0.4591(6)
C32 C 0.2110(7) -0.0186(18) 0.4320(7)
H32 H 0.1629 -0.0177 0.4107
C33 C 0.2837(3) 0.5493(10) 0.4122(4)
C34 C 0.2096(3) 0.5287(9) 0.3716(4)
C35 C 0.1751(4) 0.3927(11) 0.3812(6)
H33 H 0.1985 0.3101 0.4141
C36 C 0.1062(4) 0.3752(11) 0.3428(5)
H34 H 0.0817 0.2818 0.3492
C37 C 0.0745(3) 0.4955(8) 0.2958(3)
C38 C 0.1072(3) 0.6301(10) 0.2852(4)
H35 H 0.0838 0.7115 0.2518
C39 C 0.1759(3) 0.6462(12) 0.3244(4)
H36 H 0.1998 0.7410 0.3182
Cl4 Cl 0.51625(7) 0.2912(2) 0.77071(8)
O16 O 0.3759(2) 0.1443(6) 0.6788(2)
O17 O 0.2946(2) 0.4353(6) 0.6455(2)
O18 O 0.3123(2) 0.6560(7) 0.5909(3)
O19 O -0.0425(3) 0.4227(12) 0.4411(3)
O20 O -0.0311(3) 0.6375(9) 0.3902(4)
N4 N -0.0079(3) 0.5280(11) 0.4322(4)
C42 C 0.4434(3) 0.2621(9) 0.7891(3)
H40 H 0.4467 0.1504 0.8109
H41 H 0.4432 0.3512 0.8207
C43 C 0.3771(3) 0.2705(9) 0.7268(3)
H42 H 0.3387 0.2476 0.7398
C44 C 0.3657(3) 0.4380(8) 0.6928(3)
H43 H 0.3742 0.5319 0.7251
H44 H 0.3957 0.4521 0.6694
C45 C 0.3502(3) -0.0187(10) 0.6862(4)
H45 H 0.3748 -0.0577 0.7327
H46 H 0.3591 -0.1015 0.6569
C46 C 0.2774(3) -0.0154(9) 0.6696(3)
C47 C 0.2187(4) -0.0094(11) 0.6572(4)
H47 H 0.1717 -0.0045 0.6473
C48 C 0.2744(3) 0.5522(8) 0.5970(3)
C49 C 0.2010(3) 0.5389(8) 0.5541(3)
C50 C 0.1631(3) 0.4024(10) 0.5557(4)
H48 H 0.1838 0.3092 0.5842
C51 C 0.0941(4) 0.3995(12) 0.5156(4)
H49 H 0.0673 0.3054 0.5172
C52 C 0.0653(3) 0.5314(10) 0.4745(4)
C53 C 0.1018(4) 0.6702(10) 0.4739(6)
H50 H 0.0807 0.7643 0.4460
C54 C 0.1703(4) 0.6731(10) 0.5144(5)
H51 H 0.1963 0.7704 0.5144
Cl5 Cl 0.50466(7) 0.1571(3) 0.97128(8)
O21 O 0.3578(2) 0.0812(6) 0.8643(2)
O22 O 0.2915(2) 0.3822(6) 0.8764(2)
O23 O 0.3235(2) 0.5358(7) 0.8080(2)
O24 O -0.0414(3) 0.4559(9) 0.6664(3)
O25 O -0.0166(3) 0.5790(9) 0.5926(3)
N5 N -0.0003(3) 0.5129(9) 0.6472(4)
C55 C 0.4311(3) 0.0888(10) 0.9822(3)
H52 H 0.4308 -0.0370 0.9838
H53 H 0.4336 0.1321 1.0252
C56 C 0.3655(3) 0.1500(10) 0.9266(3)
H54 H 0.3268 0.1104 0.9364
C57 C 0.3613(3) 0.3429(9) 0.9189(3)
H55 H 0.3748 0.3982 0.9629
H56 H 0.3916 0.3835 0.8986
C58 C 0.3254(3) -0.0814(10) 0.8505(4)
H57 H 0.3451 -0.1540 0.8906
H58 H 0.3337 -0.1373 0.8143
C59 C 0.2524(3) -0.0655(10) 0.8308(4)
C60 C 0.1933(4) -0.0538(10) 0.8123(4)
H59 H 0.1455 -0.0443 0.7974
C61 C 0.2798(3) 0.4728(9) 0.8205(3)
C62 C 0.2057(3) 0.4796(9) 0.7773(3)
C63 C 0.1588(3) 0.3896(9) 0.7902(3)
H60 H 0.1730 0.3192 0.8285
C64 C 0.0905(3) 0.3997(10) 0.7479(3)
H61 H 0.0574 0.3382 0.7569
C65 C 0.0721(3) 0.5022(10) 0.6923(3)
C66 C 0.1178(3) 0.5935(9) 0.6774(4)
H62 H 0.1033 0.6615 0.6384
C67 C 0.1854(3) 0.5849(9) 0.7201(3)
H63 H 0.2181 0.6488 0.7113
H37? H 0.3740 -0.0657 0.5360
H38? H 0.3407 -0.0918 0.4565
C40? C 0.2762(9) 0.040(3) 0.4902(9)
C41? C 0.2183(11) 0.064(3) 0.4783(10)
H39? H 0.1719 0.0822 0.4687
loop_
_geom_bond_atom_site_label_1
_geom_bond_atom_site_label_2
_geom_bond_site_symmetry_1
_geom_bond_site_symmetry_2
Cl1 C1 1_555 1_555
O1 C2 1_555 1_555
O2 C3 1_555 1_555
O3 C7 1_555 1_555
O4 N1 1_555 1_555
O5 N1 1_555 1_555
N1 C11 1_555 1_555
C1 H1 1_555 1_555
H2 C1 1_555 1_555
C2 C1 1_555 1_555
H3 C2 1_555 1_555
C3 C2 1_555 1_555
H4 C3 1_555 1_555
H5 C3 1_555 1_555
C4 O1 1_555 1_555
H6 C4 1_555 1_555
H7 C4 1_555 1_555
C5 C4 1_555 1_555
C6 C5 1_555 1_555
H8 C6 1_555 1_555
C7 O2 1_555 1_555
C8 C7 1_555 1_555
C9 C8 1_555 1_555
H9 C9 1_555 1_555
C10 C9 1_555 1_555
H10 C10 1_555 1_555
C11 C10 1_555 1_555
C12 C11 1_555 1_555
H11 C12 1_555 1_555
C13 C8 1_555 1_555
H12 C13 1_555 1_555
Cl2 C14 1_555 1_555
O6 C15 1_555 1_555
O7 C16 1_555 1_555
O8 C20 1_555 1_555
O9 N2 1_555 1_555
O10 N2 1_555 1_555
N2 C24 1_555 1_555
C14 H13 1_555 1_555
H14 C14 1_555 1_555
C15 C14 1_555 1_555
H15 C15 1_555 1_555
C16 C15 1_555 1_555
H16 C16 1_555 1_555
H17 C16 1_555 1_555
C17 O6 1_555 1_555
H18 C17 1_555 1_555
H19 C17 1_555 1_555
C18 C17 1_555 1_555
C19 C18 1_555 1_555
H20 C19 1_555 1_555
C20 O7 1_555 1_555
C21 C20 1_555 1_555
C22 C21 1_555 1_555
H21 C22 1_555 1_555
C23 C22 1_555 1_555
H22 C23 1_555 1_555
C24 C23 1_555 1_555
C25 C24 1_555 1_555
H23 C25 1_555 1_555
C26 C21 1_555 1_555
H24 C26 1_555 1_555
Cl3 C27 1_555 1_555
O11 C28 1_555 1_555
O12 C29 1_555 1_555
O13 C33 1_555 1_555
O14 N3 1_555 1_555
O15 N3 1_555 1_555
N3 C37 1_555 1_555
C27 H25 1_555 1_555
H26 C27 1_555 1_555
C28 C27 1_555 1_555
H27 C28 1_555 1_555
C29 C28 1_555 1_555
H28 C29 1_555 1_555
H29 C29 1_555 1_555
C30 O11 1_555 1_555
H30 C30 1_555 1_555
H31 C30 1_555 1_555
C31 C30 1_555 1_555
C32 C31 1_555 1_555
H32 C32 1_555 1_555
C33 O12 1_555 1_555
C34 C33 1_555 1_555
C35 C34 1_555 1_555
H33 C35 1_555 1_555
C36 C35 1_555 1_555
H34 C36 1_555 1_555
C37 C36 1_555 1_555
C38 C37 1_555 1_555
H35 C38 1_555 1_555
C39 C34 1_555 1_555
H36 C39 1_555 1_555
Cl4 C42 1_555 1_555
O16 C43 1_555 1_555
O17 C44 1_555 1_555
O18 C48 1_555 1_555
O19 N4 1_555 1_555
O20 N4 1_555 1_555
N4 C52 1_555 1_555
C42 H40 1_555 1_555
H41 C42 1_555 1_555
C43 C42 1_555 1_555
H42 C43 1_555 1_555
C44 C43 1_555 1_555
H43 C44 1_555 1_555
H44 C44 1_555 1_555
C45 O16 1_555 1_555
H45 C45 1_555 1_555
H46 C45 1_555 1_555
C46 C45 1_555 1_555
C47 C46 1_555 1_555
H47 C47 1_555 1_555
C48 O17 1_555 1_555
C49 C48 1_555 1_555
C50 C49 1_555 1_555
H48 C50 1_555 1_555
C51 C50 1_555 1_555
H49 C51 1_555 1_555
C52 C51 1_555 1_555
C53 C52 1_555 1_555
H50 C53 1_555 1_555
C54 C49 1_555 1_555
H51 C54 1_555 1_555
Cl5 C55 1_555 1_555
O21 C56 1_555 1_555
O22 C57 1_555 1_555
O23 C61 1_555 1_555
O24 N5 1_555 1_555
O25 N5 1_555 1_555
N5 C65 1_555 1_555
C55 H52 1_555 1_555
H53 C55 1_555 1_555
C56 C55 1_555 1_555
H54 C56 1_555 1_555
C57 C56 1_555 1_555
H55 C57 1_555 1_555
H56 C57 1_555 1_555
C58 O21 1_555 1_555
H57 C58 1_555 1_555
H58 C58 1_555 1_555
C59 C58 1_555 1_555
C60 C59 1_555 1_555
H59 C60 1_555 1_555
C61 O22 1_555 1_555
C62 C61 1_555 1_555
C63 C62 1_555 1_555
H60 C63 1_555 1_555
C64 C63 1_555 1_555
H61 C64 1_555 1_555
C65 C64 1_555 1_555
C66 C65 1_555 1_555
H62 C66 1_555 1_555
C67 C62 1_555 1_555
H63 C67 1_555 1_555
C12 C13 1_555 1_555
C25 C26 1_555 1_555
C38 C39 1_555 1_555
C53 C54 1_555 1_555
C66 C67 1_555 1_555

#END
