
#######################################################################
#
#                 Cambridge Crystallographic Data Centre
#                                CCDC 
#
#######################################################################
#
# If this CIF has been generated from an entry in the Cambridge 
# Structural Database, then it will include bibliographic, chemical, 
# crystal, experimental, refinement or atomic coordinate data resulting 
# from the CCDC's data processing and validation procedures.
#
#######################################################################

data_ISUWEA
_chemical_formula_moiety         'C8 H14 B1 N1 O1'
_chemical_name_systematic        
4-methoxy-1,3,5-trimethyl-1,4-dihydro-1,4-azaborinine
_symmetry_cell_setting           orthorhombic
_symmetry_space_group_name_H-M   'P n a 21'
_symmetry_Int_Tables_number      33
_space_group_name_Hall           'P 2c -2n'
loop_
_symmetry_equiv_pos_site_id
_symmetry_equiv_pos_as_xyz
1 x,y,z
2 -x,-y,1/2+z
3 1/2-x,1/2+y,1/2+z
4 1/2+x,1/2-y,z
_cell_length_a                   14.6079(6)
_cell_length_b                   5.9548(2)
_cell_length_c                   9.8618(3)
_cell_angle_alpha                90
_cell_angle_beta                 90
_cell_angle_gamma                90
_cell_volume                     857.85
_exptl_crystal_colour            colorless
_exptl_crystal_description       plate
_cell_formula_units_Z            4
loop_
_atom_site_label
_atom_site_type_symbol
_atom_site_fract_x
_atom_site_fract_y
_atom_site_fract_z
O1 O 0.38161(7) 0.09541(16) 0.08199(11)
N1 N 0.60851(8) 0.46559(19) 0.22729(12)
B1 B 0.46104(11) 0.2038(3) 0.12353(17)
C1 C 0.52065(9) 0.5187(2) 0.26374(16)
C2 C 0.44671(10) 0.4037(2) 0.21904(14)
C3 C 0.56091(10) 0.1517(2) 0.08738(14)
C4 C 0.62598(10) 0.2903(2) 0.14142(15)
C5 C 0.68372(11) 0.6043(2) 0.27837(17)
C6 C 0.35294(11) 0.4771(3) 0.26567(17)
C7 C 0.59647(11) -0.0339(2) -0.00414(16)
C8 C 0.38093(12) -0.0928(3) -0.00725(17)
H1 H 0.5160(11) 0.647(3) 0.321(2)
H2 H 0.6893(11) 0.276(3) 0.1243(19)
H3 H 0.7399(14) 0.545(3) 0.245(2)
H4 H 0.6782(12) 0.759(3) 0.247(2)
H5 H 0.6836(18) 0.599(4) 0.379(3)
H6 H 0.3569(13) 0.606(3) 0.322(2)
H7 H 0.3215(14) 0.355(3) 0.313(2)
H8 H 0.3157(14) 0.524(3) 0.189(2)
H9 H 0.5784(14) -0.010(3) -0.099(2)
H10 H 0.6639(14) -0.035(3) -0.006(2)
H11 H 0.5753(12) -0.184(3) 0.024(2)
H12 H 0.4091(12) -0.057(3) -0.096(2)
H13 H 0.4140(13) -0.216(3) 0.036(2)
H14 H 0.3171(13) -0.125(3) -0.025(2)
loop_
_geom_bond_atom_site_label_1
_geom_bond_atom_site_label_2
_geom_bond_site_symmetry_1
_geom_bond_site_symmetry_2
O1 B1 1_555 1_555
N1 C1 1_555 1_555
B1 C2 1_555 1_555
C1 C2 1_555 1_555
C2 C6 1_555 1_555
C3 B1 1_555 1_555
C4 N1 1_555 1_555
C5 N1 1_555 1_555
C6 H6 1_555 1_555
C7 C3 1_555 1_555
C8 O1 1_555 1_555
H1 C1 1_555 1_555
H2 C4 1_555 1_555
H3 C5 1_555 1_555
H4 C5 1_555 1_555
H5 C5 1_555 1_555
H7 C6 1_555 1_555
H8 C6 1_555 1_555
H9 C7 1_555 1_555
H10 C7 1_555 1_555
H11 C7 1_555 1_555
H12 C8 1_555 1_555
H13 C8 1_555 1_555
H14 C8 1_555 1_555
C3 C4 1_555 1_555

#END
