
#######################################################################
#
#                 Cambridge Crystallographic Data Centre
#                                CCDC 
#
#######################################################################
#
# If this CIF has been generated from an entry in the Cambridge 
# Structural Database, then it will include bibliographic, chemical, 
# crystal, experimental, refinement or atomic coordinate data resulting 
# from the CCDC's data processing and validation procedures.
#
#######################################################################

data_ISUZON
_chemical_formula_moiety         'C18 H29 N1 Si1'
_chemical_name_systematic        1-methyl-2-(tri-isopropylsilyl)-1H-indole
_symmetry_cell_setting           monoclinic
_symmetry_space_group_name_H-M   'C 2/c'
_symmetry_Int_Tables_number      15
_space_group_name_Hall           '-C 2yn'
loop_
_symmetry_equiv_pos_site_id
_symmetry_equiv_pos_as_xyz
1 x,y,z
2 -x,y,1/2-z
3 1/2+x,1/2+y,z
4 1/2-x,1/2+y,1/2-z
5 -x,-y,-z
6 x,-y,1/2+z
7 1/2-x,1/2-y,-z
8 1/2+x,1/2-y,1/2+z
_cell_length_a                   29.545(5)
_cell_length_b                   8.1425(13)
_cell_length_c                   18.909(3)
_cell_angle_alpha                90
_cell_angle_beta                 128.727(2)
_cell_angle_gamma                90
_cell_volume                     3548.79
_exptl_crystal_colour            colorless
_exptl_crystal_description       plate
_cell_formula_units_Z            8
loop_
_atom_site_label
_atom_site_type_symbol
_atom_site_fract_x
_atom_site_fract_y
_atom_site_fract_z
Si1 Si 0.35754(2) 0.10057(7) 0.25794(3)
N1 N 0.37291(7) 0.1534(2) 0.42722(10)
C1 C 0.37917(7) 0.2069(2) 0.36345(12)
C2 C 0.40750(8) 0.3554(2) 0.39377(12)
H1 H 0.4172 0.4196 0.3643
C3 C 0.41966(7) 0.3955(2) 0.47734(12)
C4 C 0.44769(9) 0.5257(3) 0.53869(14)
H2 H 0.4628 0.6129 0.5276
C5 C 0.45246(10) 0.5221(3) 0.61587(15)
H3 H 0.4715 0.6073 0.6576
C6 C 0.42932(10) 0.3933(3) 0.63258(15)
H4 H 0.4328 0.3950 0.6850
C7 C 0.40158(9) 0.2646(3) 0.57393(14)
H5 H 0.3861 0.1790 0.5854
C8 C 0.39732(7) 0.2662(2) 0.49597(12)
C9 C 0.35577(9) 0.2685(3) 0.18718(13)
H6 H 0.3934 0.3242 0.2269
C10 C 0.35131(12) 0.2022(3) 0.10682(16)
H7 H 0.3509 0.2924 0.0737
H8 H 0.3162 0.1398 0.0675
H9 H 0.3841 0.1330 0.1291
C11 C 0.31011(12) 0.4010(3) 0.15425(17)
H10 H 0.3125 0.4809 0.1194
H11 H 0.3168 0.4536 0.2055
H12 H 0.2722 0.3519 0.1171
C12 C 0.28640(9) -0.0131(3) 0.19893(14)
H13 H 0.2942 -0.1014 0.2405
C13 C 0.23759(11) 0.0882(4) 0.1838(2)
H14 H 0.2034 0.0215 0.1546
H15 H 0.2295 0.1809 0.1461
H16 H 0.2492 0.1258 0.2411
C14 C 0.26566(12) -0.0986(4) 0.11136(18)
H17 H 0.2299 -0.1549 0.0857
H18 H 0.2944 -0.1763 0.1243
H19 H 0.2596 -0.0184 0.0690
C15 C 0.41622(9) -0.0497(3) 0.28999(15)
H20 H 0.4043 -0.0991 0.2334
C16 C 0.47428(11) 0.0350(4) 0.3333(2)
H21 H 0.5028 -0.0455 0.3481
H22 H 0.4866 0.0907 0.3875
H23 H 0.4700 0.1132 0.2914
C17 C 0.42437(13) -0.1902(4) 0.3498(2)
H24 H 0.4546 -0.2613 0.3627
H25 H 0.3889 -0.2511 0.3189
H26 H 0.4348 -0.1470 0.4054
C18 C 0.34843(12) 0.0002(3) 0.42800(17)
H27 H 0.3496 -0.0027 0.4798
H28 H 0.3705 -0.0899 0.4310
H29 H 0.3089 -0.0085 0.3737
loop_
_geom_bond_atom_site_label_1
_geom_bond_atom_site_label_2
_geom_bond_site_symmetry_1
_geom_bond_site_symmetry_2
Si1 C1 1_555 1_555
N1 C1 1_555 1_555
C1 C2 1_555 1_555
C2 H1 1_555 1_555
C3 C2 1_555 1_555
C4 C3 1_555 1_555
H2 C4 1_555 1_555
C5 C4 1_555 1_555
H3 C5 1_555 1_555
C6 C5 1_555 1_555
H4 C6 1_555 1_555
C7 C6 1_555 1_555
H5 C7 1_555 1_555
C8 N1 1_555 1_555
C9 Si1 1_555 1_555
H6 C9 1_555 1_555
C10 C9 1_555 1_555
H7 C10 1_555 1_555
H8 C10 1_555 1_555
H9 C10 1_555 1_555
C11 C9 1_555 1_555
H10 C11 1_555 1_555
H11 C11 1_555 1_555
H12 C11 1_555 1_555
C12 Si1 1_555 1_555
H13 C12 1_555 1_555
C13 C12 1_555 1_555
H14 C13 1_555 1_555
H15 C13 1_555 1_555
H16 C13 1_555 1_555
C14 C12 1_555 1_555
H17 C14 1_555 1_555
H18 C14 1_555 1_555
H19 C14 1_555 1_555
C15 Si1 1_555 1_555
H20 C15 1_555 1_555
C16 C15 1_555 1_555
H21 C16 1_555 1_555
H22 C16 1_555 1_555
H23 C16 1_555 1_555
C17 C15 1_555 1_555
H24 C17 1_555 1_555
H25 C17 1_555 1_555
H26 C17 1_555 1_555
C18 N1 1_555 1_555
H27 C18 1_555 1_555
H28 C18 1_555 1_555
H29 C18 1_555 1_555
C3 C8 1_555 1_555
C7 C8 1_555 1_555

#END
