
#######################################################################
#
#                 Cambridge Crystallographic Data Centre
#                                CCDC 
#
#######################################################################
#
# If this CIF has been generated from an entry in the Cambridge 
# Structural Database, then it will include bibliographic, chemical, 
# crystal, experimental, refinement or atomic coordinate data resulting 
# from the CCDC's data processing and validation procedures.
#
#######################################################################

data_ITAPOK
_chemical_name_common            
'3,3 -(4-Methylthiobenzylidene)-bis(4-hydroxycoumarin)'
_chemical_formula_moiety         'C26 H18 O6 S1'
_chemical_name_systematic        
4-hydroxy-3-((4-hydroxy-2-oxo-2H-chromen-3-yl)(4-(methylsulfanyl)phenyl)methyl)-2H-chromen-2-one
_symmetry_cell_setting           triclinic
_symmetry_space_group_name_H-M   'P -1'
_symmetry_Int_Tables_number      2
_space_group_name_Hall           '-P 1'
loop_
_symmetry_equiv_pos_site_id
_symmetry_equiv_pos_as_xyz
1 x,y,z
2 -x,-y,-z
_cell_length_a                   10.947(3)
_cell_length_b                   20.402(7)
_cell_length_c                   20.694(7)
_cell_angle_alpha                109.44(3)
_cell_angle_beta                 90.09(3)
_cell_angle_gamma                93.29(3)
_cell_volume                     4350.09
_exptl_crystal_colour            colorless
_exptl_crystal_description       prism
_cell_formula_units_Z            8
loop_
_atom_site_label
_atom_site_type_symbol
_atom_site_fract_x
_atom_site_fract_y
_atom_site_fract_z
S1 S 0.79006(17) 0.46325(12) 0.47704(10)
C1 C 1.0743(5) 0.6575(3) 0.2269(3)
C2 C 1.1011(5) 0.6124(3) 0.2664(3)
C3 C 1.1975(5) 0.6272(3) 0.3091(3)
C4 C 1.2648(5) 0.6930(3) 0.3226(3)
C5 C 1.2302(5) 0.7379(3) 0.2890(3)
C6 C 1.2855(7) 0.8024(3) 0.3009(4)
H1 H 1.2583 0.8319 0.2788
C7 C 1.3803(7) 0.8218(4) 0.3454(5)
H2 H 1.4194 0.8658 0.3548
C8 C 1.4213(6) 0.7770(4) 0.3779(4)
H3 H 1.4890 0.7910 0.4075
C9 C 1.3637(6) 0.7129(3) 0.3670(3)
H4 H 1.3910 0.6835 0.3893
C10 C 1.0193(4) 0.5470(3) 0.2493(3)
H5 H 0.9459 0.5579 0.2286
C11 C 1.1573(5) 0.4404(3) 0.2085(3)
C12 C 1.0705(5) 0.4843(3) 0.1908(3)
C13 C 1.0362(5) 0.4680(3) 0.1247(3)
C14 C 1.0749(5) 0.4026(3) 0.0730(3)
C15 C 1.0334(6) 0.3791(4) 0.0037(3)
H6 H 0.9847 0.4064 -0.0126
C16 C 1.0674(7) 0.3136(4) -0.0404(4)
H7 H 1.0404 0.2986 -0.0859
C17 C 1.1401(7) 0.2704(4) -0.0183(4)
H8 H 1.1580 0.2271 -0.0487
C18 C 1.1854(6) 0.2917(4) 0.0486(4)
C19 C 1.1478(5) 0.3578(4) 0.0924(3)
C20 C 0.9722(4) 0.5276(3) 0.3095(3)
C21 C 0.9238(4) 0.4598(3) 0.2971(3)
H9 H 0.9293 0.4264 0.2539
C22 C 0.8680(5) 0.4426(3) 0.3491(3)
H10 H 0.8345 0.3975 0.3406
C23 C 0.8607(5) 0.4920(3) 0.4152(3)
C24 C 0.9083(5) 0.5598(3) 0.4282(3)
H11 H 0.9045 0.5929 0.4716
C25 C 0.9612(5) 0.5768(3) 0.3755(3)
H12 H 0.9911 0.6225 0.3835
C26 C 0.8087(6) 0.5351(4) 0.5540(3)
H13 H 0.7712 0.5230 0.5908
H14 H 0.7706 0.5742 0.5487
H15 H 0.8943 0.5468 0.5643
O1 O 1.1343(4) 0.7196(2) 0.2415(2)
O2 O 0.9986(4) 0.6434(2) 0.1805(2)
O3 O 1.2385(3) 0.5858(2) 0.34127(19)
H16 H 1.1996 0.5439 0.3346
O4 O 1.1926(3) 0.3782(2) 0.1595(2)
O5 O 1.2074(3) 0.4539(2) 0.2643(2)
O6 O 0.9660(3) 0.5082(2) 0.1009(2)
H17 H 0.9408 0.5482 0.1304
S2 S 1.29009(17) 0.53661(12) 0.02279(11)
C27 C 1.5732(6) 0.3417(4) 0.2724(4)
C28 C 1.6008(5) 0.3887(3) 0.2341(3)
C29 C 1.6982(5) 0.3730(3) 0.1918(3)
C30 C 1.7656(5) 0.3069(3) 0.1782(3)
C31 C 1.8645(6) 0.2868(3) 0.1329(4)
H18 H 1.8933 0.3162 0.1096
C32 C 1.9209(6) 0.2230(4) 0.1222(4)
H19 H 1.9855 0.2114 0.0921
C33 C 1.8799(7) 0.1784(4) 0.1562(4)
H20 H 1.9158 0.1365 0.1496
C34 C 1.7841(7) 0.1979(4) 0.2002(4)
H21 H 1.7543 0.1682 0.2230
C35 C 1.7294(6) 0.2624(3) 0.2114(4)
C36 C 1.5195(4) 0.4528(3) 0.2507(3)
H22 H 1.4453 0.4373 0.2692
C37 C 1.6586(5) 0.5604(3) 0.2916(3)
C38 C 1.5701(4) 0.5161(3) 0.3101(3)
C39 C 1.5358(5) 0.5326(3) 0.3759(3)
C40 C 1.5747(5) 0.5977(3) 0.4267(3)
C41 C 1.5336(6) 0.6215(4) 0.4965(3)
H23 H 1.4831 0.5923 0.5124
C42 C 1.5690(7) 0.6875(4) 0.5396(4)
H24 H 1.5413 0.7025 0.5843
C43 C 1.6427(7) 0.7302(4) 0.5180(4)
H25 H 1.6660 0.7747 0.5476
C44 C 1.6841(6) 0.7080(4) 0.4516(3)
H26 H 1.7362 0.7375 0.4368
C45 C 1.6493(5) 0.6428(3) 0.4072(3)
C46 C 1.4717(4) 0.4722(3) 0.1909(3)
C47 C 1.4245(4) 0.5386(3) 0.2012(3)
H27 H 1.4311 0.5715 0.2450
C48 C 1.3701(5) 0.5568(3) 0.1505(3)
H28 H 1.3400 0.6006 0.1598
C49 C 1.3607(4) 0.5078(3) 0.0842(3)
C50 C 1.4076(5) 0.4406(3) 0.0721(3)
H29 H 1.4019 0.4078 0.0283
C51 C 1.4613(5) 0.4238(3) 0.1250(3)
H30 H 1.4906 0.3799 0.1163
C52 C 1.3105(6) 0.4648(4) -0.0544(4)
H31 H 1.2747 0.4741 -0.0926
H32 H 1.2713 0.4231 -0.0502
H33 H 1.3963 0.4587 -0.0617
O7 O 1.6343(4) 0.2810(2) 0.2589(2)
O8 O 1.4980(4) 0.3560(2) 0.3196(2)
O9 O 1.7394(3) 0.4144(2) 0.15884(19)
H34 H 1.7034 0.4545 0.1648
O10 O 1.6931(3) 0.6218(2) 0.3404(2)
O11 O 1.7069(3) 0.54649(19) 0.2357(2)
O12 O 1.4659(3) 0.4916(2) 0.3988(2)
H35 H 1.4380 0.4498 0.3697
S3 S 0.7109(2) 0.01227(15) 0.50116(13)
C53 C 0.4306(6) 0.1430(4) 0.2061(4)
C54 C 0.4046(5) 0.1037(3) 0.2522(3)
C55 C 0.3109(5) 0.1235(3) 0.2956(3)
C56 C 0.2428(5) 0.1880(3) 0.3022(3)
C57 C 0.2742(6) 0.2249(3) 0.2615(4)
C58 C 0.2170(7) 0.2864(4) 0.2639(4)
H36 H 0.2430 0.3107 0.2350
C59 C 0.1239(7) 0.3105(4) 0.3084(4)
H37 H 0.0877 0.3512 0.3101
C60 C 0.0853(6) 0.2746(4) 0.3496(4)
H38 H 0.0211 0.2894 0.3793
C61 C 0.1459(6) 0.2124(4) 0.3466(4)
H39 H 0.1198 0.1877 0.3751
C62 C 0.3497(5) -0.0662(3) 0.2141(4)
C63 C 0.4370(5) -0.0267(3) 0.1901(3)
C64 C 0.4687(6) -0.0501(4) 0.1220(4)
C65 C 0.4272(6) -0.1186(4) 0.0769(4)
C66 C 0.4583(7) -0.1465(4) 0.0072(4)
H40 H 0.5049 -0.1194 -0.0131
C67 C 0.4199(8) -0.2137(5) -0.0306(4)
H41 H 0.4402 -0.2320 -0.0765
C68 C 0.3520(9) -0.2533(5) -0.0007(5)
H42 H 0.3293 -0.2993 -0.0262
C69 C 0.3164(7) -0.2271(4) 0.0659(5)
H43 H 0.2678 -0.2539 0.0856
C70 C 0.3555(6) -0.1592(4) 0.1027(4)
C71 C 0.4885(5) 0.0410(3) 0.2426(3)
H44 H 0.5621 0.0535 0.2213
C72 C 0.5363(4) 0.0313(3) 0.3078(3)
C73 C 0.5519(5) 0.0887(3) 0.3679(3)
H45 H 0.5274 0.1319 0.3691
C74 C 0.6039(6) 0.0809(4) 0.4258(4)
H46 H 0.6137 0.1190 0.4659
C75 C 0.6421(6) 0.0156(4) 0.4243(3)
C76 C 0.6307(5) -0.0433(3) 0.3641(4)
H47 H 0.6582 -0.0861 0.3624
C77 C 0.5760(5) -0.0334(3) 0.3073(3)
H48 H 0.5651 -0.0714 0.2672
C78 C 0.7095(7) -0.0733(5) 0.4874(5)
H49 H 0.7450 -0.0811 0.5265
H50 H 0.7561 -0.0952 0.4476
H51 H 0.6267 -0.0928 0.4803
O13 O 0.3676(4) 0.2015(2) 0.2123(2)
O14 O 0.5057(4) 0.1227(2) 0.1571(2)
O15 O 0.2710(3) 0.0891(2) 0.3355(2)
H52 H 0.3070 0.0502 0.3344
O16 O 0.3161(4) -0.1322(2) 0.1719(3)
O17 O 0.3021(3) -0.0456(2) 0.2707(2)
O18 O 0.5372(4) -0.0148(2) 0.0928(2)
H53 H 0.5672 0.0283 0.1175
S4 S 0.7894(2) 0.01236(15) 0.00141(13)
C79 C 1.1489(5) -0.0662(3) -0.2858(3)
C80 C 1.0620(5) -0.0265(3) -0.3106(3)
C81 C 1.0322(6) -0.0506(4) -0.3785(3)
C82 C 1.0729(6) -0.1181(4) -0.4235(4)
C83 C 1.1438(6) -0.1591(4) -0.3968(3)
C84 C 1.1819(7) -0.2276(4) -0.4348(4)
H54 H 1.2285 -0.2525 -0.4145
C85 C 1.1469(9) -0.2532(5) -0.5003(5)
H55 H 1.1668 -0.2980 -0.5261
C86 C 1.0804(9) -0.2146(6) -0.5320(5)
H56 H 1.0614 -0.2334 -0.5786
C87 C 1.0418(7) -0.1475(5) -0.4940(4)
H57 H 0.9964 -0.1231 -0.5154
C88 C 1.0117(5) 0.0402(3) -0.2579(3)
H58 H 0.9389 0.0484 -0.2810
C89 C 1.0704(6) 0.1421(3) -0.2942(4)
C90 C 1.0947(5) 0.1038(3) -0.2483(3)
C91 C 1.1885(5) 0.1236(3) -0.2049(3)
C92 C 1.2566(5) 0.1879(3) -0.1983(3)
C93 C 1.3543(6) 0.2126(3) -0.1524(3)
H59 H 1.3788 0.1880 -0.1245
C94 C 1.4131(6) 0.2741(4) -0.1496(4)
H60 H 1.4785 0.2922 -0.1188
C95 C 1.3774(7) 0.3103(4) -0.1916(5)
H61 H 1.4200 0.3519 -0.1893
C96 C 1.2815(7) 0.2862(4) -0.2360(4)
H62 H 1.2557 0.3112 -0.2633
C97 C 1.2250(5) 0.2253(4) -0.2396(4)
C98 C 0.9632(5) 0.0315(3) -0.1925(3)
C99 C 0.9228(5) -0.0345(3) -0.1939(3)
H63 H 0.9320 -0.0728 -0.2330
C100 C 0.8685(5) -0.0430(4) -0.1366(4)
H64 H 0.8388 -0.0872 -0.1381
C101 C 0.8573(5) 0.0150(4) -0.0749(3)
C102 C 0.8966(6) 0.0802(4) -0.0747(4)
H65 H 0.8882 0.1188 -0.0358
C103 C 0.9475(5) 0.0879(3) -0.1314(4)
H66 H 0.9737 0.1324 -0.1302
C104 C 0.7893(7) -0.0727(4) -0.0127(4)
H67 H 0.7545 -0.0829 0.0257
H68 H 0.8718 -0.0870 -0.0185
H69 H 0.7416 -0.0974 -0.0534
O19 O 1.1833(4) -0.1324(2) -0.3286(2)
O20 O 1.1982(3) -0.0459(2) -0.2292(2)
O21 O 0.9634(4) -0.0153(3) -0.4075(2)
H70 H 0.9372 0.0260 -0.3814
O22 O 1.1314(4) 0.2013(2) -0.2876(2)
O23 O 0.9941(4) 0.1228(2) -0.3422(2)
O24 O 1.2282(3) 0.0888(2) -0.1650(2)
H71 H 1.1894 0.0481 -0.1670
H72? H 1.2741 0.2939 0.0475
H73? H 1.1600 0.2566 0.0688
loop_
_geom_bond_atom_site_label_1
_geom_bond_atom_site_label_2
_geom_bond_site_symmetry_1
_geom_bond_site_symmetry_2
S1 C23 1_555 1_555
C1 C2 1_555 1_555
C2 C3 1_555 1_555
C3 C4 1_555 1_555
C4 C5 1_555 1_555
C5 C6 1_555 1_555
C6 H1 1_555 1_555
C7 C6 1_555 1_555
H2 C7 1_555 1_555
C8 C7 1_555 1_555
H3 C8 1_555 1_555
C9 C4 1_555 1_555
H4 C9 1_555 1_555
C10 C2 1_555 1_555
H5 C10 1_555 1_555
C11 C12 1_555 1_555
C12 C10 1_555 1_555
C13 C12 1_555 1_555
C14 C13 1_555 1_555
C15 C14 1_555 1_555
H6 C15 1_555 1_555
C16 C15 1_555 1_555
H7 C16 1_555 1_555
C17 C16 1_555 1_555
H8 C17 1_555 1_555
C18 C17 1_555 1_555
C19 C14 1_555 1_555
C20 C10 1_555 1_555
C21 C20 1_555 1_555
H9 C21 1_555 1_555
C22 C21 1_555 1_555
H10 C22 1_555 1_555
C23 C22 1_555 1_555
C24 C23 1_555 1_555
H11 C24 1_555 1_555
C25 C20 1_555 1_555
H12 C25 1_555 1_555
C26 S1 1_555 1_555
H13 C26 1_555 1_555
H14 C26 1_555 1_555
H15 C26 1_555 1_555
O1 C1 1_555 1_555
O2 C1 1_555 1_555
O3 C3 1_555 1_555
H16 O3 1_555 1_555
O4 C11 1_555 1_555
O5 C11 1_555 1_555
O6 C13 1_555 1_555
H17 O6 1_555 1_555
S2 C49 1_555 1_555
C27 C28 1_555 1_555
C28 C29 1_555 1_555
C29 C30 1_555 1_555
C30 C31 1_555 1_555
C31 H18 1_555 1_555
C32 C31 1_555 1_555
H19 C32 1_555 1_555
C33 C32 1_555 1_555
H20 C33 1_555 1_555
C34 C33 1_555 1_555
H21 C34 1_555 1_555
C35 C30 1_555 1_555
C36 C28 1_555 1_555
H22 C36 1_555 1_555
C37 C38 1_555 1_555
C38 C36 1_555 1_555
C39 C38 1_555 1_555
C40 C39 1_555 1_555
C41 C40 1_555 1_555
H23 C41 1_555 1_555
C42 C41 1_555 1_555
H24 C42 1_555 1_555
C43 C42 1_555 1_555
H25 C43 1_555 1_555
C44 C43 1_555 1_555
H26 C44 1_555 1_555
C45 C40 1_555 1_555
C46 C36 1_555 1_555
C47 C46 1_555 1_555
H27 C47 1_555 1_555
C48 C47 1_555 1_555
H28 C48 1_555 1_555
C49 C48 1_555 1_555
C50 C49 1_555 1_555
H29 C50 1_555 1_555
C51 C46 1_555 1_555
H30 C51 1_555 1_555
C52 S2 1_555 1_555
H31 C52 1_555 1_555
H32 C52 1_555 1_555
H33 C52 1_555 1_555
O7 C27 1_555 1_555
O8 C27 1_555 1_555
O9 C29 1_555 1_555
H34 O9 1_555 1_555
O10 C37 1_555 1_555
O11 C37 1_555 1_555
O12 C39 1_555 1_555
H35 O12 1_555 1_555
S3 C75 1_555 1_555
C53 C54 1_555 1_555
C54 C55 1_555 1_555
C55 C56 1_555 1_555
C56 C57 1_555 1_555
C57 C58 1_555 1_555
C58 H36 1_555 1_555
C59 C58 1_555 1_555
H37 C59 1_555 1_555
C60 C59 1_555 1_555
H38 C60 1_555 1_555
C61 C56 1_555 1_555
H39 C61 1_555 1_555
C62 C63 1_555 1_555
C63 C64 1_555 1_555
C64 C65 1_555 1_555
C65 C66 1_555 1_555
C66 H40 1_555 1_555
C67 C66 1_555 1_555
H41 C67 1_555 1_555
C68 C67 1_555 1_555
H42 C68 1_555 1_555
C69 C68 1_555 1_555
H43 C69 1_555 1_555
C70 C65 1_555 1_555
C71 C54 1_555 1_555
H44 C71 1_555 1_555
C72 C71 1_555 1_555
C73 C72 1_555 1_555
H45 C73 1_555 1_555
C74 C73 1_555 1_555
H46 C74 1_555 1_555
C75 C74 1_555 1_555
C76 C75 1_555 1_555
H47 C76 1_555 1_555
C77 C72 1_555 1_555
H48 C77 1_555 1_555
C78 S3 1_555 1_555
H49 C78 1_555 1_555
H50 C78 1_555 1_555
H51 C78 1_555 1_555
O13 C53 1_555 1_555
O14 C53 1_555 1_555
O15 C55 1_555 1_555
H52 O15 1_555 1_555
O16 C62 1_555 1_555
O17 C62 1_555 1_555
O18 C64 1_555 1_555
H53 O18 1_555 1_555
S4 C101 1_555 1_555
C79 C80 1_555 1_555
C80 C81 1_555 1_555
C81 C82 1_555 1_555
C82 C83 1_555 1_555
C83 C84 1_555 1_555
C84 H54 1_555 1_555
C85 C84 1_555 1_555
H55 C85 1_555 1_555
C86 C85 1_555 1_555
H56 C86 1_555 1_555
C87 C82 1_555 1_555
H57 C87 1_555 1_555
C88 C80 1_555 1_555
H58 C88 1_555 1_555
C89 C90 1_555 1_555
C90 C88 1_555 1_555
C91 C90 1_555 1_555
C92 C91 1_555 1_555
C93 C92 1_555 1_555
H59 C93 1_555 1_555
C94 C93 1_555 1_555
H60 C94 1_555 1_555
C95 C94 1_555 1_555
H61 C95 1_555 1_555
C96 C95 1_555 1_555
H62 C96 1_555 1_555
C97 C92 1_555 1_555
C98 C88 1_555 1_555
C99 C98 1_555 1_555
H63 C99 1_555 1_555
C100 C99 1_555 1_555
H64 C100 1_555 1_555
C101 C100 1_555 1_555
C102 C101 1_555 1_555
H65 C102 1_555 1_555
C103 C98 1_555 1_555
H66 C103 1_555 1_555
C104 S4 1_555 1_555
H67 C104 1_555 1_555
H68 C104 1_555 1_555
H69 C104 1_555 1_555
O19 C79 1_555 1_555
O20 C79 1_555 1_555
O21 C81 1_555 1_555
H70 O21 1_555 1_555
O22 C89 1_555 1_555
O23 C89 1_555 1_555
O24 C91 1_555 1_555
H71 O24 1_555 1_555
C5 O1 1_555 1_555
C8 C9 1_555 1_555
C18 C19 1_555 1_555
C19 O4 1_555 1_555
C24 C25 1_555 1_555
C34 C35 1_555 1_555
C35 O7 1_555 1_555
C44 C45 1_555 1_555
C45 O10 1_555 1_555
C50 C51 1_555 1_555
C57 O13 1_555 1_555
C60 C61 1_555 1_555
C63 C71 1_555 1_555
C69 C70 1_555 1_555
C70 O16 1_555 1_555
C76 C77 1_555 1_555
C83 O19 1_555 1_555
C86 C87 1_555 1_555
C96 C97 1_555 1_555
C97 O22 1_555 1_555
C102 C103 1_555 1_555

#END
