
#######################################################################
#
#                 Cambridge Crystallographic Data Centre
#                                CCDC 
#
#######################################################################
#
# If this CIF has been generated from an entry in the Cambridge 
# Structural Database, then it will include bibliographic, chemical, 
# crystal, experimental, refinement or atomic coordinate data resulting 
# from the CCDC's data processing and validation procedures.
#
#######################################################################

data_ITAQAX
_chemical_formula_moiety         'C18 H12 F6 N2 O2'
_chemical_name_systematic        
2-amino-4-(3,5-bis(trifluoromethyl)phenyl)-5-oxo-5,6,7,8-tetrahydro-4H-chromene-3-carbonitrile
_symmetry_cell_setting           triclinic
_symmetry_space_group_name_H-M   'P -1'
_symmetry_Int_Tables_number      2
_space_group_name_Hall           '-P 1'
loop_
_symmetry_equiv_pos_site_id
_symmetry_equiv_pos_as_xyz
1 x,y,z
2 -x,-y,-z
_cell_length_a                   8.5762(6)
_cell_length_b                   8.8891(8)
_cell_length_c                   12.1026(8)
_cell_angle_alpha                109.583(7)
_cell_angle_beta                 92.163(6)
_cell_angle_gamma                97.257(7)
_cell_volume                     859.135
_exptl_crystal_colour            colorless
_exptl_crystal_description       prism
_cell_formula_units_Z            2
loop_
_atom_site_label
_atom_site_type_symbol
_atom_site_fract_x
_atom_site_fract_y
_atom_site_fract_z
C1 C 0.4579(4) 0.3917(4) 0.6228(3)
C2 C 0.1661(3) 0.3534(4) 0.6405(3)
H1 H 0.0843 0.3016 0.5753
C3 C 0.3190(4) 0.2925(4) 0.6025(3)
C4 C 0.1873(4) 0.5325(4) 0.6649(3)
C5 C 0.3301(4) 0.6211(4) 0.6866(3)
C6 C 0.3629(4) 0.8001(4) 0.7251(3)
H2 H 0.4004 0.8320 0.6604
H3 H 0.4454 0.8399 0.7894
C7 C 0.2164(5) 0.8755(5) 0.7650(4)
H4 H 0.1968 0.8713 0.8424
H5 H 0.2333 0.9879 0.7707
C8 C 0.0744(5) 0.7869(5) 0.6791(4)
H6 H -0.0188 0.8320 0.7097
H7 H 0.0889 0.8042 0.6049
C9 C 0.0481(4) 0.6095(4) 0.6573(3)
C10 C 0.3144(4) 0.1243(4) 0.5484(3)
C11 C 0.1115(4) 0.3148(4) 0.7485(3)
C12 C -0.0413(4) 0.2427(4) 0.7480(3)
H8 H -0.1113 0.2164 0.6815
C13 C -0.0904(4) 0.2094(5) 0.8462(4)
C14 C 0.0127(5) 0.2454(5) 0.9445(4)
H9 H -0.0203 0.2220 1.0100
C15 C 0.1655(4) 0.3164(4) 0.9449(3)
C16 C 0.2144(4) 0.3506(4) 0.8474(3)
H10 H 0.3177 0.3983 0.8484
C17 C -0.2544(6) 0.1237(8) 0.8407(6)
C18 C 0.2791(6) 0.3487(6) 1.0492(4)
O1 O 0.4667(2) 0.5552(3) 0.6760(2)
O2 O -0.0821(3) 0.5288(3) 0.6284(2)
N1 N 0.5997(3) 0.3519(4) 0.5963(3)
H11 H 0.6103 0.2525 0.5619
H12 H 0.6808 0.4257 0.6135
N2 N 0.3050(4) -0.0132(4) 0.5047(3)
F1 F -0.3605(3) 0.1631(5) 0.7818(3)
F2 F -0.2624(4) -0.0311(6) 0.7913(8)
F3 F -0.3045(4) 0.1473(9) 0.9430(4)
F4 F 0.3626(7) 0.4899(6) 1.0824(4)
F5 F 0.3847(6) 0.2572(7) 1.0298(3)
F6 F 0.2184(5) 0.3369(8) 1.1402(3)
loop_
_geom_bond_atom_site_label_1
_geom_bond_atom_site_label_2
_geom_bond_site_symmetry_1
_geom_bond_site_symmetry_2
C1 C3 1_555 1_555
C2 H1 1_555 1_555
C3 C2 1_555 1_555
C4 C2 1_555 1_555
C5 C4 1_555 1_555
C6 C5 1_555 1_555
H2 C6 1_555 1_555
H3 C6 1_555 1_555
C7 C6 1_555 1_555
H4 C7 1_555 1_555
H5 C7 1_555 1_555
C8 C7 1_555 1_555
H6 C8 1_555 1_555
H7 C8 1_555 1_555
C9 C4 1_555 1_555
C10 C3 1_555 1_555
C11 C2 1_555 1_555
C12 C11 1_555 1_555
H8 C12 1_555 1_555
C13 C12 1_555 1_555
C14 C13 1_555 1_555
H9 C14 1_555 1_555
C15 C14 1_555 1_555
C16 C11 1_555 1_555
H10 C16 1_555 1_555
C17 C13 1_555 1_555
C18 C15 1_555 1_555
O1 C1 1_555 1_555
O2 C9 1_555 1_555
N1 C1 1_555 1_555
H11 N1 1_555 1_555
H12 N1 1_555 1_555
N2 C10 1_555 1_555
F1 C17 1_555 1_555
F2 C17 1_555 1_555
F3 C17 1_555 1_555
F4 C18 1_555 1_555
F5 C18 1_555 1_555
F6 C18 1_555 1_555
C5 O1 1_555 1_555
C8 C9 1_555 1_555
C15 C16 1_555 1_555

#END
