
#######################################################################
#
#                 Cambridge Crystallographic Data Centre
#                                CCDC 
#
#######################################################################
#
# If this CIF has been generated from an entry in the Cambridge 
# Structural Database, then it will include bibliographic, chemical, 
# crystal, experimental, refinement or atomic coordinate data resulting 
# from the CCDC's data processing and validation procedures.
#
#######################################################################

data_ITOGUV
_chemical_formula_moiety         'C26 H21 N1 O1'
_chemical_name_systematic        
(5-(2-methylphenyl)-4-(4-methylphenyl)-2-phenyl-3-furyl)acetonitrile
_symmetry_cell_setting           monoclinic
_symmetry_space_group_name_H-M   'P 21/c'
_symmetry_Int_Tables_number      14
_space_group_name_Hall           '-P 2ybc'
loop_
_symmetry_equiv_pos_site_id
_symmetry_equiv_pos_as_xyz
1 x,y,z
2 -x,1/2+y,1/2-z
3 -x,-y,-z
4 x,1/2-y,1/2+z
_cell_length_a                   16.5230(8)
_cell_length_b                   5.8117(3)
_cell_length_c                   21.7152(10)
_cell_angle_alpha                90
_cell_angle_beta                 103.099(2)
_cell_angle_gamma                90
_cell_volume                     2030.98
_exptl_crystal_colour            yellow
_exptl_crystal_description       block
_cell_formula_units_Z            4
loop_
_atom_site_label
_atom_site_type_symbol
_atom_site_fract_x
_atom_site_fract_y
_atom_site_fract_z
O1 O 0.16511(6) 0.43173(18) 0.24295(5)
C1 C 0.18823(9) 0.4459(3) 0.30764(7)
C2 C 0.29363(9) 0.5716(3) 0.26736(8)
C3 C 0.12352(8) 0.3851(3) 0.34115(7)
C4 C 0.23046(9) 0.5095(3) 0.21927(8)
C5 C 0.31510(9) 0.5639(3) 0.39046(8)
C6 C 0.10671(10) 0.5352(3) 0.38629(8)
H1 H 0.1394 0.6701 0.3967
C7 C 0.35870(10) 0.7655(3) 0.40915(9)
H2 H 0.3581 0.8851 0.3792
C8 C 0.21712(9) 0.4946(3) 0.15054(8)
C9 C 0.26707(9) 0.5307(3) 0.32511(7)
C10 C 0.31809(10) 0.3937(3) 0.43582(8)
H3 H 0.2891 0.2532 0.4245
C11 C 0.17497(11) 0.3070(3) 0.11902(8)
H4 H 0.1574 0.1867 0.1426
C12 C 0.07645(9) 0.1828(3) 0.32677(7)
C13 C 0.38012(9) 0.6357(3) 0.26117(9)
H5 H 0.4208 0.5724 0.2979
H6 H 0.3907 0.5616 0.2227
C14 C 0.24167(10) 0.6674(3) 0.11475(9)
H7 H 0.2707 0.7976 0.1352
C15 C 0.36283(11) 0.4261(4) 0.49742(9)
H8 H 0.3635 0.3075 0.5277
C16 C 0.40636(10) 0.6268(4) 0.51581(9)
C17 C 0.40293(11) 0.7946(4) 0.47061(10)
H9 H 0.4319 0.9349 0.4821
C18 C 0.22422(11) 0.6518(4) 0.04937(10)
H10 H 0.2413 0.7714 0.0253
C19 C 0.09136(12) 0.0131(3) 0.27825(9)
H11 H 0.0651 -0.1339 0.2841
H12 H 0.1513 -0.0098 0.2832
H13 H 0.0675 0.0725 0.2358
C20 C -0.00321(11) 0.2952(4) 0.40227(9)
H14 H -0.0471 0.2643 0.4228
C21 C 0.01375(10) 0.1429(3) 0.35847(9)
H15 H -0.0184 0.0063 0.3496
C22 C 0.18263(12) 0.4653(4) 0.01927(9)
H16 H 0.1706 0.4552 -0.0255
C23 C 0.04305(11) 0.4916(4) 0.41645(8)
H17 H 0.0315 0.5970 0.4468
C24 C 0.39457(11) 0.8814(4) 0.25755(10)
C25 C 0.15843(13) 0.2932(4) 0.05439(9)
H18 H 0.1299 0.1629 0.0337
C26 C 0.45397(12) 0.6614(5) 0.58306(10)
H19 H 0.5136 0.6457 0.5853
H20 H 0.4367 0.5456 0.6103
H21 H 0.4426 0.8155 0.5973
N1 N 0.40697(14) 1.0723(4) 0.25450(13)
loop_
_geom_bond_atom_site_label_1
_geom_bond_atom_site_label_2
_geom_bond_site_symmetry_1
_geom_bond_site_symmetry_2
O1 C1 1_555 1_555
C1 C3 1_555 1_555
C2 C4 1_555 1_555
C3 C6 1_555 1_555
C4 O1 1_555 1_555
C5 C7 1_555 1_555
C6 H1 1_555 1_555
C7 H2 1_555 1_555
C8 C4 1_555 1_555
C9 C1 1_555 1_555
C10 C5 1_555 1_555
H3 C10 1_555 1_555
C11 C8 1_555 1_555
H4 C11 1_555 1_555
C12 C3 1_555 1_555
C13 C2 1_555 1_555
H5 C13 1_555 1_555
H6 C13 1_555 1_555
C14 C8 1_555 1_555
H7 C14 1_555 1_555
C15 C10 1_555 1_555
H8 C15 1_555 1_555
C16 C15 1_555 1_555
C17 C7 1_555 1_555
H9 C17 1_555 1_555
C18 C14 1_555 1_555
H10 C18 1_555 1_555
C19 C12 1_555 1_555
H11 C19 1_555 1_555
H12 C19 1_555 1_555
H13 C19 1_555 1_555
C20 H14 1_555 1_555
C21 C12 1_555 1_555
H15 C21 1_555 1_555
C22 C18 1_555 1_555
H16 C22 1_555 1_555
C23 C6 1_555 1_555
H17 C23 1_555 1_555
C24 C13 1_555 1_555
C25 C11 1_555 1_555
H18 C25 1_555 1_555
C26 C16 1_555 1_555
H19 C26 1_555 1_555
H20 C26 1_555 1_555
H21 C26 1_555 1_555
N1 C24 1_555 1_555
C2 C9 1_555 1_555
C5 C9 1_555 1_555
C16 C17 1_555 1_555
C20 C21 1_555 1_555
C20 C23 1_555 1_555
C22 C25 1_555 1_555

#END
