
#######################################################################
#
#                 Cambridge Crystallographic Data Centre
#                                CCDC 
#
#######################################################################
#
# If this CIF has been generated from an entry in the Cambridge 
# Structural Database, then it will include bibliographic, chemical, 
# crystal, experimental, refinement or atomic coordinate data resulting 
# from the CCDC's data processing and validation procedures.
#
#######################################################################

data_ITOJAE
_chemical_formula_moiety         'C23 H32 N4 O4'
_chemical_name_systematic        
"t-butyl 2-(2-hydroxypropan-2-yl)-3'-(methylcarbamoyl)-2',3',4',9'-tetrahydro-1H-spiro[azetidine]-3,1'-beta[carboline]-1-carboxylate"
_symmetry_cell_setting           orthorhombic
_symmetry_space_group_name_H-M   'P 21 21 21'
_symmetry_Int_Tables_number      19
_space_group_name_Hall           'P 2ac 2ab'
loop_
_symmetry_equiv_pos_site_id
_symmetry_equiv_pos_as_xyz
1 x,y,z
2 1/2-x,-y,1/2+z
3 -x,1/2+y,1/2-z
4 1/2+x,1/2-y,-z
_cell_length_a                   9.24482(4)
_cell_length_b                   13.77957(5)
_cell_length_c                   18.20928(9)
_cell_angle_alpha                90
_cell_angle_beta                 90
_cell_angle_gamma                90
_cell_volume                     2319.67
_exptl_crystal_colour            colorless
_exptl_crystal_description       block
_cell_formula_units_Z            4
loop_
_atom_site_label
_atom_site_type_symbol
_atom_site_fract_x
_atom_site_fract_y
_atom_site_fract_z
C1 C 0.41852(17) 0.47638(11) 0.31786(8)
N1 N 0.46650(15) 0.39746(10) 0.35793(7)
H1 H 0.5412 0.3606 0.3470
C2 C 0.37690(18) 0.38636(12) 0.41813(9)
C3 C 0.3792(2) 0.31670(13) 0.47376(10)
H2 H 0.4522 0.2683 0.4757
C4 C 0.2704(2) 0.32120(14) 0.52604(10)
H3 H 0.2679 0.2740 0.5640
C5 C 0.1640(2) 0.39367(14) 0.52427(9)
H4 H 0.0912 0.3947 0.5611
C6 C 0.16326(19) 0.46355(13) 0.46991(9)
H5 H 0.0915 0.5129 0.4694
C7 C 0.27068(18) 0.46021(11) 0.41534(9)
C8 C 0.30014(17) 0.51649(11) 0.35105(9)
C9 C 0.22250(17) 0.60273(12) 0.32070(9)
H6 H 0.2520 0.6619 0.3477
H7 H 0.1168 0.5943 0.3267
C10 C 0.25972(16) 0.61363(11) 0.23862(9)
H8 H 0.2020 0.5659 0.2095
N2 N 0.41362(14) 0.60066(10) 0.22233(8)
H9 H 0.457(2) 0.6488(17) 0.2445(12)
C11 C 0.47523(16) 0.50771(11) 0.24485(8)
C12 C 0.45895(17) 0.43149(12) 0.18205(9)
H10 H 0.4412 0.3646 0.1997
H11 H 0.3879 0.4501 0.1439
N3 N 0.60935(15) 0.45007(10) 0.16140(8)
C13 C 0.64334(16) 0.50265(11) 0.23033(8)
H12 H 0.6879 0.4563 0.2660
C14 C 0.73946(16) 0.59336(11) 0.22472(9)
O1 O 0.88860(12) 0.56054(8) 0.22066(7)
H13 H 0.8965 0.5186 0.1874
C15 C 0.7333(2) 0.64966(13) 0.29649(11)
H14 H 0.7550 0.6059 0.3375
H15 H 0.6363 0.6771 0.3029
H16 H 0.8047 0.7022 0.2953
C16 C 0.70934(19) 0.65547(13) 0.15745(10)
H17 H 0.7756 0.7110 0.1569
H18 H 0.6093 0.6789 0.1591
H19 H 0.7237 0.6166 0.1130
C17 C 0.68754(19) 0.39072(13) 0.11742(9)
O2 O 0.63441(16) 0.32962(12) 0.07830(8)
O3 O 0.83085(13) 0.41180(9) 0.12167(7)
C18 C 0.9315(2) 0.38108(14) 0.06216(10)
C19 C 1.0734(2) 0.42629(16) 0.08632(12)
H20 H 1.0636 0.4971 0.0871
H21 H 1.1500 0.4080 0.0518
H22 H 1.0981 0.4030 0.1356
C20 C 0.8811(3) 0.4244(2) -0.00938(12)
H23 H 0.7907 0.3932 -0.0245
H24 H 0.9550 0.4140 -0.0472
H25 H 0.8649 0.4942 -0.0030
C21 C 0.9456(3) 0.27175(16) 0.06090(16)
H26 H 0.9632 0.2480 0.1108
H27 H 1.0267 0.2533 0.0292
H28 H 0.8561 0.2431 0.0419
C22 C 0.22038(17) 0.71638(11) 0.21452(9)
O4 O 0.31309(13) 0.78074(8) 0.21131(8)
N4 N 0.08038(15) 0.73221(10) 0.20153(8)
H29 H 0.0190 0.6836 0.2054
C23 C 0.0264(2) 0.82775(14) 0.18117(13)
H30 H 0.0073 0.8294 0.1282
H31 H 0.0988 0.8770 0.1936
H32 H -0.0634 0.8411 0.2080
loop_
_geom_bond_atom_site_label_1
_geom_bond_atom_site_label_2
_geom_bond_site_symmetry_1
_geom_bond_site_symmetry_2
C1 N1 1_555 1_555
N1 H1 1_555 1_555
C2 N1 1_555 1_555
C3 C2 1_555 1_555
H2 C3 1_555 1_555
C4 C3 1_555 1_555
H3 C4 1_555 1_555
C5 C4 1_555 1_555
H4 C5 1_555 1_555
C6 C5 1_555 1_555
H5 C6 1_555 1_555
C7 C2 1_555 1_555
C8 C1 1_555 1_555
C9 C8 1_555 1_555
H6 C9 1_555 1_555
H7 C9 1_555 1_555
C10 C9 1_555 1_555
H8 C10 1_555 1_555
N2 C10 1_555 1_555
H9 N2 1_555 1_555
C11 C1 1_555 1_555
C12 C11 1_555 1_555
H10 C12 1_555 1_555
H11 C12 1_555 1_555
N3 C12 1_555 1_555
C13 C11 1_555 1_555
H12 C13 1_555 1_555
C14 C13 1_555 1_555
O1 C14 1_555 1_555
H13 O1 1_555 1_555
C15 C14 1_555 1_555
H14 C15 1_555 1_555
H15 C15 1_555 1_555
H16 C15 1_555 1_555
C16 C14 1_555 1_555
H17 C16 1_555 1_555
H18 C16 1_555 1_555
H19 C16 1_555 1_555
C17 N3 1_555 1_555
O2 C17 1_555 1_555
O3 C17 1_555 1_555
C18 O3 1_555 1_555
C19 C18 1_555 1_555
H20 C19 1_555 1_555
H21 C19 1_555 1_555
H22 C19 1_555 1_555
C20 C18 1_555 1_555
H23 C20 1_555 1_555
H24 C20 1_555 1_555
H25 C20 1_555 1_555
C21 C18 1_555 1_555
H26 C21 1_555 1_555
H27 C21 1_555 1_555
H28 C21 1_555 1_555
C22 C10 1_555 1_555
O4 C22 1_555 1_555
N4 C22 1_555 1_555
H29 N4 1_555 1_555
C23 N4 1_555 1_555
H30 C23 1_555 1_555
H31 C23 1_555 1_555
H32 C23 1_555 1_555
C6 C7 1_555 1_555
C7 C8 1_555 1_555
N2 C11 1_555 1_555
N3 C13 1_555 1_555

#END
