
#######################################################################
#
#                 Cambridge Crystallographic Data Centre
#                                CCDC 
#
#######################################################################
#
# If this CIF has been generated from an entry in the Cambridge 
# Structural Database, then it will include bibliographic, chemical, 
# crystal, experimental, refinement or atomic coordinate data resulting 
# from the CCDC's data processing and validation procedures.
#
#######################################################################

data_ITUXAY
_chemical_formula_moiety         'C21 H28 N1 O1 P1 S1'
_chemical_name_systematic        
1-((diphenylphosphorothioyl)oxy)-2,2,6,6-tetramethylpiperidine
_symmetry_cell_setting           orthorhombic
_symmetry_space_group_name_H-M   'P n m a'
_symmetry_Int_Tables_number      62
_space_group_name_Hall           '-P 2ac 2n'
loop_
_symmetry_equiv_pos_site_id
_symmetry_equiv_pos_as_xyz
1 x,y,z
2 1/2-x,-y,1/2+z
3 1/2+x,1/2-y,1/2-z
4 -x,1/2+y,-z
5 -x,-y,-z
6 1/2+x,y,1/2-z
7 1/2-x,1/2+y,1/2+z
8 x,1/2-y,z
_cell_length_a                   18.4416(10)
_cell_length_b                   16.3645(9)
_cell_length_c                   6.5056(2)
_cell_angle_alpha                90
_cell_angle_beta                 90
_cell_angle_gamma                90
_cell_volume                     1963.31
_exptl_crystal_colour            colorless
_exptl_crystal_description       plate
_cell_formula_units_Z            4
loop_
_atom_site_label
_atom_site_type_symbol
_atom_site_fract_x
_atom_site_fract_y
_atom_site_fract_z
S1 S 0.17837(3) 0.2500 0.84653(8)
P1 P 0.20449(3) 0.2500 0.55912(8)
O1 O 0.14037(7) 0.2500 0.3883(2)
N1 N 0.06412(9) 0.2500 0.4654(3)
C1 C 0.03096(9) 0.17103(10) 0.3998(2)
C2 C -0.04830(9) 0.17475(11) 0.4742(2)
H1 H -0.0742 0.1255 0.4249
H2 H -0.0489 0.1737 0.6263
C3 C -0.08846(13) 0.2500 0.4008(4)
H3 H -0.0913 0.2500 0.2489
H4 H -0.1385 0.2500 0.4563
C4 C 0.03482(10) 0.15082(11) 0.1692(2)
H5 H 0.0207 0.0937 0.1475
H6 H 0.0845 0.1592 0.1198
H7 H 0.0017 0.1867 0.0934
C5 C 0.06925(9) 0.10405(11) 0.5206(3)
H8 H 0.0717 0.1195 0.6660
H9 H 0.1185 0.0967 0.4669
H10 H 0.0422 0.0528 0.5068
C6 C 0.25888(8) 0.16233(10) 0.4887(2)
C7 C 0.30598(9) 0.12982(11) 0.6350(2)
H11 H 0.3088 0.1539 0.7677
C8 C 0.34867(10) 0.06290(12) 0.5886(3)
H12 H 0.3812 0.0418 0.6886
C9 C 0.34425(9) 0.02640(11) 0.3966(3)
H13 H 0.3728 -0.0204 0.3661
C10 C 0.29802(9) 0.05856(11) 0.2499(3)
H14 H 0.2952 0.0339 0.1180
C11 C 0.25577(9) 0.12638(10) 0.2934(2)
H15 H 0.2247 0.1485 0.1909
C1G C 0.03096(9) 0.32897(10) 0.3998(2)
C2G C -0.04830(9) 0.32525(11) 0.4742(2)
H1G H -0.0742 0.3745 0.4249
H2G H -0.0489 0.3263 0.6263
C4G C 0.03482(10) 0.34918(11) 0.1692(2)
H5G H 0.0207 0.4063 0.1475
H6G H 0.0845 0.3408 0.1198
H7G H 0.0017 0.3133 0.0934
C5G C 0.06925(9) 0.39595(11) 0.5206(3)
H8G H 0.0717 0.3805 0.6660
H9G H 0.1185 0.4033 0.4669
H10G H 0.0422 0.4472 0.5068
C6G C 0.25888(8) 0.33767(10) 0.4887(2)
C7G C 0.30598(9) 0.37018(11) 0.6350(2)
H11G H 0.3088 0.3461 0.7677
C8G C 0.34867(10) 0.43710(12) 0.5886(3)
H12G H 0.3812 0.4582 0.6886
C9G C 0.34425(9) 0.47360(11) 0.3966(3)
H13G H 0.3728 0.5204 0.3661
C10G C 0.29802(9) 0.44144(11) 0.2499(3)
H14G H 0.2952 0.4661 0.1180
C11G C 0.25577(9) 0.37362(10) 0.2934(2)
H15G H 0.2247 0.3515 0.1909
loop_
_geom_bond_atom_site_label_1
_geom_bond_atom_site_label_2
_geom_bond_site_symmetry_1
_geom_bond_site_symmetry_2
S1 P1 1_555 1_555
P1 O1 1_555 1_555
O1 N1 1_555 1_555
N1 C1 1_555 1_555
C1 C2 1_555 1_555
C2 H1 1_555 1_555
H2 C2 1_555 1_555
C3 C2 1_555 1_555
H3 C3 1_555 1_555
H4 C3 1_555 1_555
C4 C1 1_555 1_555
H5 C4 1_555 1_555
H6 C4 1_555 1_555
H7 C4 1_555 1_555
C5 C1 1_555 1_555
H8 C5 1_555 1_555
H9 C5 1_555 1_555
H10 C5 1_555 1_555
C6 P1 1_555 1_555
C7 C6 1_555 1_555
H11 C7 1_555 1_555
C8 C7 1_555 1_555
H12 C8 1_555 1_555
C9 C8 1_555 1_555
H13 C9 1_555 1_555
C10 C9 1_555 1_555
H14 C10 1_555 1_555
C11 C6 1_555 1_555
H15 C11 1_555 1_555
C1G N1 1_555 1_555
C2G C3 1_555 1_555
H1G C2G 1_555 1_555
H2G C2G 1_555 1_555
C4G C1G 1_555 1_555
H5G C4G 1_555 1_555
H6G C4G 1_555 1_555
H7G C4G 1_555 1_555
C5G C1G 1_555 1_555
H8G C5G 1_555 1_555
H9G C5G 1_555 1_555
H10G C5G 1_555 1_555
C6G P1 1_555 1_555
C7G C6G 1_555 1_555
H11G C7G 1_555 1_555
C8G C7G 1_555 1_555
H12G C8G 1_555 1_555
C9G C8G 1_555 1_555
H13G C9G 1_555 1_555
C10G C9G 1_555 1_555
H14G C10G 1_555 1_555
C11G C6G 1_555 1_555
H15G C11G 1_555 1_555
C10 C11 1_555 1_555
C1G C2G 1_555 1_555
C10G C11G 1_555 1_555

#END
