
#######################################################################
#
#                 Cambridge Crystallographic Data Centre
#                                CCDC 
#
#######################################################################
#
# If this CIF has been generated from an entry in the Cambridge 
# Structural Database, then it will include bibliographic, chemical, 
# crystal, experimental, refinement or atomic coordinate data resulting 
# from the CCDC's data processing and validation procedures.
#
#######################################################################

data_ITUXIG
_chemical_formula_moiety         'C9 H20 N1 1+,C12 H10 O1 P1 S1 1-'
_chemical_name_systematic        
'2,2,6,6-tetramethylpiperidinium diphenylphosphinothioate'
_symmetry_cell_setting           monoclinic
_symmetry_space_group_name_H-M   'P 21/c'
_symmetry_Int_Tables_number      14
_space_group_name_Hall           '-P 2ybc'
loop_
_symmetry_equiv_pos_site_id
_symmetry_equiv_pos_as_xyz
1 x,y,z
2 -x,1/2+y,1/2-z
3 -x,-y,-z
4 x,1/2-y,1/2+z
_cell_length_a                   11.796(4)
_cell_length_b                   10.321(4)
_cell_length_c                   17.543(7)
_cell_angle_alpha                90
_cell_angle_beta                 105.269(12)
_cell_angle_gamma                90
_cell_volume                     2060.41
_exptl_crystal_colour            colorless
_exptl_crystal_description       plate
_cell_formula_units_Z            4
loop_
_atom_site_label
_atom_site_type_symbol
_atom_site_fract_x
_atom_site_fract_y
_atom_site_fract_z
C1 C 0.75298(12) 0.18147(13) 0.11641(8)
C2 C 0.84604(13) 0.21848(14) 0.08535(9)
H1 H 0.9041 0.2765 0.1143
C3 C 0.85462(14) 0.17125(15) 0.01253(9)
H2 H 0.9185 0.1966 -0.0077
C4 C 0.76935(15) 0.08690(15) -0.03037(9)
H3 H 0.7747 0.0546 -0.0800
C5 C 0.67613(14) 0.05004(15) -0.00020(10)
H4 H 0.6176 -0.0071 -0.0296
C6 C 0.66829(13) 0.09659(14) 0.07296(9)
H5 H 0.6048 0.0703 0.0933
C7 C 0.88656(13) 0.25453(14) 0.27244(8)
C8 C 0.93085(14) 0.36734(15) 0.31287(9)
H6 H 0.8832 0.4429 0.3066
C9 C 1.04473(15) 0.37042(17) 0.36260(9)
H7 H 1.0739 0.4473 0.3907
C10 C 1.11541(14) 0.26061(17) 0.37092(9)
H8 H 1.1931 0.2629 0.4044
C11 C 1.07282(14) 0.14757(17) 0.33042(10)
H9 H 1.1211 0.0726 0.3361
C12 C 0.95898(14) 0.14488(15) 0.28146(9)
H10 H 0.9299 0.0676 0.2537
O1 O 0.66944(9) 0.14207(10) 0.24379(6)
P1 P 0.73576(3) 0.24285(3) 0.21038(2)
S1 S 0.66782(3) 0.42061(3) 0.19258(2)
C13 C 0.66708(13) -0.01691(14) 0.41776(8)
C14 C 0.80162(13) -0.00888(16) 0.43617(9)
H11 H 0.8230 0.0635 0.4056
H12 H 0.8338 0.0109 0.4930
C15 C 0.85847(14) -0.13332(17) 0.41675(10)
H13 H 0.8426 -0.2050 0.4500
H14 H 0.9446 -0.1214 0.4287
C16 C 0.80970(13) -0.16824(15) 0.32931(9)
H15 H 0.8463 -0.2502 0.3185
H16 H 0.8321 -0.0996 0.2966
C17 C 0.67577(13) -0.18393(14) 0.30457(9)
C18 C 0.62506(14) -0.10556(16) 0.47472(9)
H17 H 0.6377 -0.0626 0.5261
H18 H 0.6694 -0.1869 0.4812
H19 H 0.5412 -0.1239 0.4533
C19 C 0.61264(14) 0.11746(15) 0.41949(9)
H20 H 0.6355 0.1740 0.3812
H21 H 0.6407 0.1545 0.4726
H22 H 0.5268 0.1098 0.4058
C20 C 0.63472(15) -0.30723(14) 0.33775(10)
H23 H 0.6751 -0.3151 0.3940
H24 H 0.6531 -0.3828 0.3093
H25 H 0.5497 -0.3028 0.3312
C21 C 0.62846(15) -0.18472(15) 0.21454(9)
H26 H 0.6593 -0.2604 0.1928
H27 H 0.6533 -0.1055 0.1927
H28 H 0.5424 -0.1888 0.2004
N1 N 0.62263(11) -0.06335(12) 0.33230(7)
H29 H 0.5423(16) -0.0761(16) 0.3215(10)
H30 H 0.6365(15) 0.0034(16) 0.3027(10)
loop_
_geom_bond_atom_site_label_1
_geom_bond_atom_site_label_2
_geom_bond_site_symmetry_1
_geom_bond_site_symmetry_2
C1 C2 1_555 1_555
C2 H1 1_555 1_555
C3 C2 1_555 1_555
H2 C3 1_555 1_555
C4 C3 1_555 1_555
H3 C4 1_555 1_555
C5 C4 1_555 1_555
H4 C5 1_555 1_555
C6 C1 1_555 1_555
H5 C6 1_555 1_555
C7 C8 1_555 1_555
C8 H6 1_555 1_555
C9 C8 1_555 1_555
H7 C9 1_555 1_555
C10 C9 1_555 1_555
H8 C10 1_555 1_555
C11 C10 1_555 1_555
H9 C11 1_555 1_555
C12 C7 1_555 1_555
H10 C12 1_555 1_555
O1 P1 1_555 1_555
P1 C1 1_555 1_555
S1 P1 1_555 1_555
C13 C14 1_555 1_555
C14 H11 1_555 1_555
H12 C14 1_555 1_555
C15 C14 1_555 1_555
H13 C15 1_555 1_555
H14 C15 1_555 1_555
C16 C15 1_555 1_555
H15 C16 1_555 1_555
H16 C16 1_555 1_555
C17 C16 1_555 1_555
C18 C13 1_555 1_555
H17 C18 1_555 1_555
H18 C18 1_555 1_555
H19 C18 1_555 1_555
C19 C13 1_555 1_555
H20 C19 1_555 1_555
H21 C19 1_555 1_555
H22 C19 1_555 1_555
C20 C17 1_555 1_555
H23 C20 1_555 1_555
H24 C20 1_555 1_555
H25 C20 1_555 1_555
C21 C17 1_555 1_555
H26 C21 1_555 1_555
H27 C21 1_555 1_555
H28 C21 1_555 1_555
N1 C13 1_555 1_555
H29 N1 1_555 1_555
H30 N1 1_555 1_555
C5 C6 1_555 1_555
C7 P1 1_555 1_555
C11 C12 1_555 1_555
C17 N1 1_555 1_555

#END
