
#######################################################################
#
#                 Cambridge Crystallographic Data Centre
#                                CCDC 
#
#######################################################################
#
# If this CIF has been generated from an entry in the Cambridge 
# Structural Database, then it will include bibliographic, chemical, 
# crystal, experimental, refinement or atomic coordinate data resulting 
# from the CCDC's data processing and validation procedures.
#
#######################################################################

data_IVANEA
_chemical_formula_moiety         'C36 H32 B1 F12 N1 O1 P1'
_chemical_name_systematic        
'(5,5-bis(3,5-bis(trifluoromethyl)phenyl)-2,2-bis(2,4,6-trimethylphenyl)-1,2,5-azaphosphaborolidin-2-ium-5-id-1-yl)oxidanyl radical'
_symmetry_cell_setting           triclinic
_symmetry_space_group_name_H-M   'P -1'
_symmetry_Int_Tables_number      2
_space_group_name_Hall           '-P 1'
loop_
_symmetry_equiv_pos_site_id
_symmetry_equiv_pos_as_xyz
1 x,y,z
2 -x,-y,-z
_cell_length_a                   9.6116(4)
_cell_length_b                   16.0799(8)
_cell_length_c                   23.3990(10)
_cell_angle_alpha                91.7280(10)
_cell_angle_beta                 90.8450(10)
_cell_angle_gamma                96.537(2)
_cell_volume                     3590.65
_exptl_crystal_colour            'pale green'
_exptl_crystal_description       prism
_cell_formula_units_Z            4
loop_
_atom_site_label
_atom_site_type_symbol
_atom_site_fract_x
_atom_site_fract_y
_atom_site_fract_z
P1 P 0.87351(6) 0.18271(4) 0.69750(2)
B1 B 0.8208(3) 0.28400(16) 0.79086(11)
N1 N 0.75778(18) 0.21071(11) 0.74705(8)
O1 O 0.63633(17) 0.16502(10) 0.75124(7)
C1 C 1.0239(2) 0.24637(14) 0.72941(10)
H1 H 1.0693 0.216 0.7594
H2 H 1.0937 0.2645 0.7003
C2 C 0.9565(2) 0.32152(14) 0.75527(10)
H3 H 0.9277 0.3572 0.7245
H4 H 1.0244 0.3559 0.781
C3 C 0.8552(2) 0.22525(14) 0.62756(10)
C4 C 0.9570(3) 0.20687(15) 0.58729(10)
C5 C 0.9591(3) 0.24569(17) 0.53492(10)
H5 H 1.0266 0.2333 0.5076
C6 C 0.8657(3) 0.30168(17) 0.52152(11)
C7 C 0.7638(3) 0.31665(15) 0.56075(11)
H6 H 0.6977 0.3538 0.5511
C8 C 0.7544(2) 0.27945(14) 0.61372(10)
C9 C 1.0632(3) 0.14635(17) 0.59729(11)
H7 H 1.0175 0.0888 0.593
H8 H 1.1032 0.1557 0.636
H9 H 1.1381 0.1552 0.5694
C10 C 0.8772(4) 0.3463(2) 0.46571(13)
H10 H 0.9653 0.3836 0.4655
H11 H 0.7983 0.3793 0.4614
H12 H 0.8756 0.305 0.434
C11 C 0.6374(3) 0.29933(16) 0.65207(11)
H13 H 0.5786 0.3358 0.6323
H14 H 0.6769 0.3279 0.6873
H15 H 0.5805 0.2473 0.6616
C12 C 0.8645(2) 0.06970(14) 0.69272(9)
C13 C 0.7574(2) 0.02615(14) 0.65751(10)
C14 C 0.7505(2) -0.06066(15) 0.65187(10)
H16 H 0.6792 -0.0898 0.628
C15 C 0.8435(2) -0.10622(15) 0.67968(11)
C16 C 0.9454(2) -0.06263(15) 0.71515(10)
H17 H 1.0078 -0.0933 0.7355
C17 C 0.9597(2) 0.02415(15) 0.72213(10)
C18 C 0.6466(3) 0.06716(15) 0.62562(11)
H18 H 0.6875 0.0936 0.5916
H19 H 0.6112 0.1097 0.6506
H20 H 0.5693 0.0247 0.614
C19 C 0.8362(3) -0.19993(16) 0.67188(13)
H21 H 0.742 -0.2226 0.6585
H22 H 0.8569 -0.2244 0.7085
H23 H 0.9049 -0.2138 0.6436
C20 C 1.0792(3) 0.06232(16) 0.76060(12)
H24 H 1.1277 0.0177 0.7766
H25 H 1.0424 0.095 0.7918
H26 H 1.145 0.099 0.7384
C21 C 0.7140(2) 0.35250(14) 0.80458(9)
C22 C 0.7678(2) 0.43520(14) 0.81809(10)
H27 H 0.8661 0.4503 0.8167
C23 C 0.6825(2) 0.49639(15) 0.83347(10)
C24 C 0.5387(2) 0.47754(15) 0.83437(10)
H28 H 0.4798 0.519 0.8446
C25 C 0.5690(2) 0.33475(15) 0.80620(10)
H29 H 0.5275 0.2792 0.7978
C26 C 0.7485(3) 0.58327(16) 0.84937(12)
C27 C 0.4831(2) 0.39630(16) 0.81984(11)
C28 C 0.3279(4) 0.3783(2) 0.81205(18)
F1 F 0.2573(3) 0.41664(19) 0.85238(15)
F2 F 0.2797(2) 0.4037(2) 0.76257(14)
F3 F 0.2815(9) 0.2990(3) 0.8100(3)
C29 C 0.8644(2) 0.24070(14) 0.84970(9)
C30 C 0.9499(2) 0.28735(15) 0.89095(9)
H30 H 0.9815 0.3443 0.8842
C31 C 0.9898(2) 0.25262(15) 0.94143(10)
C32 C 0.9456(3) 0.16977(16) 0.95297(10)
H31 H 0.9731 0.1461 0.9875
C33 C 0.8604(3) 0.12245(15) 0.91304(10)
C34 C 0.8203(2) 0.15768(15) 0.86245(10)
H32 H 0.7611 0.1241 0.8358
C35 C 1.0827(3) 0.30539(17) 0.98364(11)
F4 F 1.0504(6) 0.3797(3) 0.9923(3)
F5 F 1.2179(3) 0.3185(2) 0.96207(15)
F6 F 1.1062(5) 0.2684(2) 1.03158(12)
C36 C 0.8051(3) 0.03418(17) 0.92465(12)
F7 F 0.85692(16) 0.58252(10) 0.88587(7)
F8 F 0.65980(17) 0.63091(10) 0.87318(9)
F9 F 0.80093(19) 0.62416(10) 0.80368(8)
F10 F 0.67704(19) 0.02820(13) 0.94684(11)
F11 F 0.7943(3) -0.01535(11) 0.87810(8)
F12 F 0.88440(17) -0.00186(10) 0.96200(7)
P2 P 0.36976(6) 0.78314(4) 0.80885(2)
B2 B 0.3301(3) 0.69960(17) 0.70412(11)
N2 N 0.26160(18) 0.75077(12) 0.75340(8)
O2 O 0.13584(18) 0.77783(11) 0.75159(8)
C38 C 0.5282(2) 0.75845(15) 0.77362(10)
H33 H 0.5671 0.8046 0.7494
H34 H 0.6006 0.7462 0.8017
C39 C 0.4727(2) 0.67974(15) 0.73718(10)
H35 H 0.4522 0.6312 0.762
H36 H 0.5436 0.6663 0.7091
C40 C 0.3559(2) 0.71937(15) 0.87170(10)
C41 C 0.2640(2) 0.64493(15) 0.87524(10)
C42 C 0.2626(3) 0.60141(16) 0.92568(11)
H37 H 0.2003 0.5514 0.9283
C43 C 0.3488(3) 0.62822(17) 0.97235(11)
C44 C 0.4407(3) 0.70077(17) 0.96744(11)
H38 H 0.5013 0.7193 0.9988
C45 C 0.4470(3) 0.74714(15) 0.91815(10)
C46 C 0.1641(3) 0.60924(16) 0.82797(11)
H39 H 0.1121 0.557 0.8402
H40 H 0.2172 0.5979 0.7937
H41 H 0.0984 0.6496 0.8193
C47 C 0.3428(4) 0.5799(2) 1.02668(13)
H42 H 0.3055 0.6133 1.0574
H43 H 0.4373 0.5679 1.0374
H44 H 0.2819 0.5272 1.0205
C48 C 0.5514(3) 0.82525(17) 0.91853(11)
H45 H 0.5048 0.8739 0.9305
H46 H 0.5882 0.8335 0.88
H47 H 0.6286 0.8189 0.9453
C49 C 0.3436(2) 0.88936(15) 0.83056(10)
C50 C 0.2357(3) 0.90062(16) 0.86963(10)
C51 C 0.2283(3) 0.98019(17) 0.89331(11)
H48 H 0.157 0.9878 0.92
C52 C 0.3201(3) 1.04865(16) 0.87963(10)
C53 C 0.4181(3) 1.03766(15) 0.83811(10)
H49 H 0.4778 1.0851 0.8265
C54 C 0.4322(2) 0.95968(15) 0.81281(10)
C55 C 0.1260(3) 0.83135(18) 0.88690(13)
H50 H 0.1624 0.8015 0.9187
H51 H 0.103 0.7922 0.8543
H52 H 0.0415 0.8555 0.8988
C56 C 0.3102(4) 1.13364(19) 0.90729(13)
H53 H 0.2414 1.162 0.8863
H54 H 0.4019 1.1672 0.9066
H55 H 0.2809 1.127 0.947
C57 C 0.5413(3) 0.95719(16) 0.76741(12)
H56 H 0.5743 1.0144 0.7567
H57 H 0.5003 0.9252 0.7337
H58 H 0.6203 0.9303 0.7823
C58 C 0.2281(2) 0.61768(14) 0.68149(9)
C59 C 0.2866(3) 0.54870(15) 0.65895(11)
H59 H 0.3852 0.5483 0.6612
C60 C 0.0608(3) 0.47728(15) 0.63100(10)
H60 H 0.0047 0.4301 0.6143
C61 C -0.0002(2) 0.54481(14) 0.65371(10)
C62 C 0.0816(2) 0.61389(15) 0.67795(10)
H61 H 0.0374 0.6598 0.6925
C63 C 0.2046(3) 0.48041(16) 0.63327(12)
C64 C 0.2683(5) 0.4128(3) 0.5999(2)
F19 F 0.4052(5) 0.4304(5) 0.5927(3)
F20 F 0.2505(5) 0.3413(2) 0.62757(19)
F21 F 0.2116(3) 0.3949(2) 0.54774(13)
C65 C -0.1561(3) 0.54305(15) 0.64963(11)
F22 F -0.2213(3) 0.48681(19) 0.68358(17)
F23 F -0.2059(2) 0.5173(2) 0.59732(11)
F24 F -0.2029(2) 0.61389(13) 0.66065(18)
C66 C 0.3625(2) 0.76045(14) 0.65003(10)
C67 C 0.4554(2) 0.73947(15) 0.60770(10)
H62 H 0.5031 0.6914 0.6124
C68 C 0.4806(3) 0.78592(16) 0.55925(10)
C69 C 0.4131(3) 0.85645(16) 0.55071(10)
H63 H 0.4295 0.8884 0.5175
C70 C 0.3205(3) 0.87934(16) 0.59211(11)
C71 C 0.2967(2) 0.83205(15) 0.64076(10)
H64 H 0.2337 0.8491 0.6685
C72 C 0.5840(3) 0.76159(19) 0.51657(12)
F25 F 0.5680(7) 0.6789(2) 0.5067(2)
F26 F 0.5630(8) 0.7951(5) 0.46562(19)
F27 F 0.7158(6) 0.7851(6) 0.5320(3)
C73 C 0.2440(3) 0.95373(19) 0.58461(13)
F28 F 0.2560(2) 1.00570(11) 0.63084(9)
F29 F 0.10638(18) 0.93289(12) 0.57671(9)
F30 F 0.2889(2) 1.00046(13) 0.54115(9)
C37? C 0.3335(12) 0.3700(8) 0.8391(5)
F13? F 0.2595(9) 0.4273(6) 0.8168(6)
F14? F 0.3095(9) 0.3538(7) 0.8921(4)
F15? F 0.283(3) 0.2940(10) 0.8224(9)
F16? F 1.0963(11) 0.3853(5) 0.9752(4)
F17? F 1.1891(9) 0.2806(5) 0.9989(5)
F18? F 1.0020(8) 0.3100(5) 1.0342(2)
C74? C 0.2855(10) 0.4023(6) 0.6272(5)
F31? F 0.4008(16) 0.4270(13) 0.5978(9)
F32? F 0.3282(7) 0.3629(4) 0.6720(4)
F33? F 0.2090(9) 0.3458(6) 0.5943(5)
F34? F -0.2297(11) 0.4766(6) 0.6447(8)
F35? F -0.1946(11) 0.5957(9) 0.6111(6)
F36? F -0.2048(12) 0.5798(11) 0.6980(5)
F37? F 0.635(3) 0.6866(10) 0.5257(10)
F38? F 0.563(2) 0.7645(14) 0.4618(5)
F39? F 0.7043(19) 0.8149(13) 0.5274(10)
loop_
_geom_bond_atom_site_label_1
_geom_bond_atom_site_label_2
_geom_bond_site_symmetry_1
_geom_bond_site_symmetry_2
P1 N1 1_555 1_555
B1 N1 1_555 1_555
N1 O1 1_555 1_555
C1 P1 1_555 1_555
H1 C1 1_555 1_555
H2 C1 1_555 1_555
C2 B1 1_555 1_555
H3 C2 1_555 1_555
H4 C2 1_555 1_555
C3 P1 1_555 1_555
C4 C3 1_555 1_555
C5 C4 1_555 1_555
H5 C5 1_555 1_555
C6 C5 1_555 1_555
C7 C6 1_555 1_555
H6 C7 1_555 1_555
C8 C3 1_555 1_555
C9 C4 1_555 1_555
H7 C9 1_555 1_555
H8 C9 1_555 1_555
H9 C9 1_555 1_555
C10 C6 1_555 1_555
H10 C10 1_555 1_555
H11 C10 1_555 1_555
H12 C10 1_555 1_555
C11 C8 1_555 1_555
H13 C11 1_555 1_555
H14 C11 1_555 1_555
H15 C11 1_555 1_555
C12 P1 1_555 1_555
C13 C12 1_555 1_555
C14 C13 1_555 1_555
H16 C14 1_555 1_555
C15 C14 1_555 1_555
C16 C15 1_555 1_555
H17 C16 1_555 1_555
C17 C12 1_555 1_555
C18 C13 1_555 1_555
H18 C18 1_555 1_555
H19 C18 1_555 1_555
H20 C18 1_555 1_555
C19 C15 1_555 1_555
H21 C19 1_555 1_555
H22 C19 1_555 1_555
H23 C19 1_555 1_555
C20 C17 1_555 1_555
H24 C20 1_555 1_555
H25 C20 1_555 1_555
H26 C20 1_555 1_555
C21 B1 1_555 1_555
C22 C21 1_555 1_555
H27 C22 1_555 1_555
C23 C22 1_555 1_555
C24 C23 1_555 1_555
H28 C24 1_555 1_555
C25 C21 1_555 1_555
H29 C25 1_555 1_555
C26 C23 1_555 1_555
C27 C24 1_555 1_555
C28 C27 1_555 1_555
F1 C28 1_555 1_555
F2 C28 1_555 1_555
F3 C28 1_555 1_555
C29 B1 1_555 1_555
C30 C29 1_555 1_555
H30 C30 1_555 1_555
C31 C30 1_555 1_555
C32 C31 1_555 1_555
H31 C32 1_555 1_555
C33 C32 1_555 1_555
C34 C29 1_555 1_555
H32 C34 1_555 1_555
C35 C31 1_555 1_555
F4 C35 1_555 1_555
F5 C35 1_555 1_555
F6 C35 1_555 1_555
C36 C33 1_555 1_555
F7 C26 1_555 1_555
F8 C26 1_555 1_555
F9 C26 1_555 1_555
F10 C36 1_555 1_555
F11 C36 1_555 1_555
F12 C36 1_555 1_555
P2 N2 1_555 1_555
B2 N2 1_555 1_555
N2 O2 1_555 1_555
C38 P2 1_555 1_555
H33 C38 1_555 1_555
H34 C38 1_555 1_555
C39 B2 1_555 1_555
H35 C39 1_555 1_555
H36 C39 1_555 1_555
C40 P2 1_555 1_555
C41 C40 1_555 1_555
C42 C41 1_555 1_555
H37 C42 1_555 1_555
C43 C42 1_555 1_555
C44 C43 1_555 1_555
H38 C44 1_555 1_555
C45 C40 1_555 1_555
C46 C41 1_555 1_555
H39 C46 1_555 1_555
H40 C46 1_555 1_555
H41 C46 1_555 1_555
C47 C43 1_555 1_555
H42 C47 1_555 1_555
H43 C47 1_555 1_555
H44 C47 1_555 1_555
C48 C45 1_555 1_555
H45 C48 1_555 1_555
H46 C48 1_555 1_555
H47 C48 1_555 1_555
C49 P2 1_555 1_555
C50 C49 1_555 1_555
C51 C50 1_555 1_555
H48 C51 1_555 1_555
C52 C51 1_555 1_555
C53 C52 1_555 1_555
H49 C53 1_555 1_555
C54 C49 1_555 1_555
C55 C50 1_555 1_555
H50 C55 1_555 1_555
H51 C55 1_555 1_555
H52 C55 1_555 1_555
C56 C52 1_555 1_555
H53 C56 1_555 1_555
H54 C56 1_555 1_555
H55 C56 1_555 1_555
C57 C54 1_555 1_555
H56 C57 1_555 1_555
H57 C57 1_555 1_555
H58 C57 1_555 1_555
C58 B2 1_555 1_555
C59 C58 1_555 1_555
H59 C59 1_555 1_555
C60 H60 1_555 1_555
C61 C60 1_555 1_555
C62 C58 1_555 1_555
H61 C62 1_555 1_555
C63 C59 1_555 1_555
C64 C63 1_555 1_555
F19 C64 1_555 1_555
F20 C64 1_555 1_555
F21 C64 1_555 1_555
C65 C61 1_555 1_555
F22 C65 1_555 1_555
F23 C65 1_555 1_555
F24 C65 1_555 1_555
C66 B2 1_555 1_555
C67 C66 1_555 1_555
H62 C67 1_555 1_555
C68 C67 1_555 1_555
C69 C68 1_555 1_555
H63 C69 1_555 1_555
C70 C69 1_555 1_555
C71 C66 1_555 1_555
H64 C71 1_555 1_555
C72 C68 1_555 1_555
F25 C72 1_555 1_555
F26 C72 1_555 1_555
F27 C72 1_555 1_555
C73 C70 1_555 1_555
F28 C73 1_555 1_555
F29 C73 1_555 1_555
F30 C73 1_555 1_555
C1 C2 1_555 1_555
C7 C8 1_555 1_555
C16 C17 1_555 1_555
C25 C27 1_555 1_555
C33 C34 1_555 1_555
C38 C39 1_555 1_555
C44 C45 1_555 1_555
C53 C54 1_555 1_555
C60 C63 1_555 1_555
C61 C62 1_555 1_555
C70 C71 1_555 1_555

#END
