
#######################################################################
#
#                 Cambridge Crystallographic Data Centre
#                                CCDC 
#
#######################################################################
#
# If this CIF has been generated from an entry in the Cambridge 
# Structural Database, then it will include bibliographic, chemical, 
# crystal, experimental, refinement or atomic coordinate data resulting 
# from the CCDC's data processing and validation procedures.
#
#######################################################################

data_IVAWEJ
_chemical_formula_moiety         'C17 H21 F4 N3 O2'
_chemical_name_systematic        
't-butyl 5-(benzylamino)-3,5-bis(difluoromethyl)-4,5-dihydro-1H-pyrazole-1-carboxylate'
_symmetry_cell_setting           triclinic
_symmetry_space_group_name_H-M   'P -1'
_symmetry_Int_Tables_number      2
_space_group_name_Hall           '-P 1'
loop_
_symmetry_equiv_pos_site_id
_symmetry_equiv_pos_as_xyz
1 x,y,z
2 -x,-y,-z
_cell_length_a                   11.2823(11)
_cell_length_b                   18.4017(18)
_cell_length_c                   19.2444(18)
_cell_angle_alpha                94.914(2)
_cell_angle_beta                 104.941(2)
_cell_angle_gamma                103.088(2)
_cell_volume                     3715.74
_exptl_crystal_colour            colorless
_exptl_crystal_description       prism
_cell_formula_units_Z            8
loop_
_atom_site_label
_atom_site_type_symbol
_atom_site_fract_x
_atom_site_fract_y
_atom_site_fract_z
C1 C 0.8296(2) 0.35138(13) 0.67742(12)
C2 C 0.7124(2) 0.37404(14) 0.68126(14)
H1 H 0.6443 0.3565 0.6347
H2 H 0.7296 0.4295 0.6935
C3 C 0.6762(2) 0.33363(13) 0.74318(12)
C4 C 0.9046(3) 0.37408(14) 0.62599(14)
H3 H 0.9771 0.3500 0.6327
C5 C 0.6818(3) 0.38914(15) 0.80754(15)
H4 H 0.6587 0.3623 0.8471
C6 C 0.5313(3) 0.22101(15) 0.66160(14)
H5 H 0.6139 0.2111 0.6613
H6 H 0.4952 0.2367 0.6144
C7 C 0.4431(2) 0.14953(15) 0.66926(13)
C8 C 0.3212(3) 0.14650(17) 0.67215(14)
H7 H 0.2925 0.1912 0.6715
C9 C 0.2406(3) 0.07958(19) 0.67597(15)
H8 H 0.1573 0.0787 0.6785
C10 C 0.2791(3) 0.01450(19) 0.67620(16)
H9 H 0.2221 -0.0318 0.6774
C11 C 0.4004(4) 0.01620(19) 0.6746(2)
H10 H 0.4286 -0.0287 0.6760
C12 C 0.4811(3) 0.08329(18) 0.67116(17)
H11 H 0.5650 0.0841 0.6700
C13 C 0.7886(2) 0.24703(15) 0.81373(13)
C14 C 0.9079(3) 0.15949(16) 0.86691(16)
C15 C 0.9390(4) 0.1986(2) 0.94431(17)
H12 H 1.0007 0.2474 0.9510
H13 H 0.9750 0.1671 0.9782
H14 H 0.8613 0.2066 0.9539
C16 C 0.7946(3) 0.0915(2) 0.8449(3)
H15 H 0.7215 0.1055 0.8553
H16 H 0.8145 0.0513 0.8725
H17 H 0.7745 0.0735 0.7927
C17 C 1.0231(3) 0.13987(16) 0.85259(15)
H18 H 1.0036 0.1194 0.8010
H19 H 1.0468 0.1021 0.8826
H20 H 1.0939 0.1854 0.8649
N1 N 0.78392(19) 0.29697(11) 0.76490(11)
N2 N 0.86731(19) 0.30870(11) 0.72277(10)
N3 N 0.5523(2) 0.28269(12) 0.72064(11)
O1 O 0.71350(17) 0.23699(11) 0.84904(10)
O2 O 0.88339(16) 0.21433(9) 0.81568(8)
F1 F 0.82743(17) 0.35441(10) 0.55631(8)
F2 F 0.94726(16) 0.45029(9) 0.63516(9)
F3 F 0.79929(17) 0.43731(10) 0.83199(10)
F4 F 0.60177(18) 0.43376(9) 0.78383(9)
H21 H 0.539(2) 0.2692(13) 0.7555(13)
C18 C 0.3311(2) 0.14638(14) 1.02810(12)
C19 C 0.4281(2) 0.11020(14) 1.01030(13)
H22 H 0.3902 0.0563 0.9892
H23 H 0.4999 0.1143 1.0540
C20 C 0.4712(2) 0.15720(13) 0.95342(12)
C21 C 0.2600(3) 0.12621(15) 1.08187(13)
H24 H 0.2059 0.1617 1.0860
C22 C 0.4449(3) 0.10743(15) 0.88113(14)
H25 H 0.4773 0.1373 0.8458
C23 C 0.6424(3) 0.24809(18) 1.04618(14)
H26 H 0.6732 0.2211 1.0867
H27 H 0.5682 0.2643 1.0538
C24 C 0.7445(3) 0.31609(16) 1.04791(13)
C25 C 0.8690(3) 0.32388(18) 1.08568(16)
H28 H 0.8922 0.2836 1.1089
C26 C 0.9605(3) 0.3895(2) 1.09028(18)
H29 H 1.0461 0.3945 1.1172
C27 C 0.9281(4) 0.4470(2) 1.05619(18)
H30 H 0.9910 0.4924 1.0597
C28 C 0.8046(4) 0.43950(19) 1.01682(18)
H31 H 0.7822 0.4790 0.9919
C29 C 0.7140(3) 0.37460(19) 1.01373(17)
H32 H 0.6282 0.3700 0.9874
C30 C 0.3806(2) 0.26213(14) 0.90072(12)
C31 C 0.2730(3) 0.35950(14) 0.86063(13)
C32 C 0.3877(3) 0.42663(16) 0.88390(17)
H33 H 0.4086 0.4430 0.9364
H34 H 0.3688 0.4680 0.8578
H35 H 0.4599 0.4124 0.8725
C33 C 0.2381(3) 0.32597(17) 0.78112(14)
H36 H 0.3140 0.3179 0.7692
H37 H 0.2036 0.3607 0.7508
H38 H 0.1741 0.2776 0.7719
C34 C 0.1598(3) 0.37827(16) 0.87903(16)
H39 H 0.0868 0.3340 0.8627
H40 H 0.1392 0.4202 0.8545
H41 H 0.1801 0.3928 0.9318
N4 N 0.38160(19) 0.20735(11) 0.94535(10)
N5 N 0.30689(19) 0.19906(11) 0.99234(10)
N6 N 0.6023(2) 0.19613(13) 0.97725(12)
O3 O 0.45029(16) 0.27027(9) 0.86188(8)
O4 O 0.29745(16) 0.30096(9) 0.90768(8)
F5 F 0.18709(17) 0.05376(9) 1.06106(9)
F6 F 0.34180(18) 0.12717(11) 1.14772(8)
F7 F 0.31693(16) 0.07571(9) 0.85436(8)
F8 F 0.49885(18) 0.04888(9) 0.89179(9)
H42 H 0.621(2) 0.2165(13) 0.9463(13)
C35 C 0.7044(2) 0.65774(13) 0.83883(12)
C36 C 0.6458(3) 0.61703(15) 0.76269(12)
H43 H 0.5567 0.6196 0.7440
H44 H 0.6482 0.5634 0.7598
C37 C 0.7306(2) 0.66047(13) 0.72004(12)
C38 C 0.6613(2) 0.63975(14) 0.90360(13)
H45 H 0.7139 0.6772 0.9476
C39 C 0.7966(3) 0.61051(14) 0.68562(13)
H46 H 0.8517 0.6397 0.6589
C40 C 0.6113(4) 0.7537(2) 0.68867(18)
H47 H 0.6751 0.7862 0.7320
H48 H 0.5352 0.7307 0.7035
C41 C 0.5759(3) 0.80132(18) 0.63138(14)
C42 C 0.4781(3) 0.77168(19) 0.56907(16)
H49 H 0.4339 0.7200 0.5626
C43 C 0.4427(4) 0.8127(3) 0.51705(18)
H50 H 0.3735 0.7901 0.4752
C44 C 0.5034(4) 0.8844(3) 0.5237(2)
H51 H 0.4768 0.9122 0.4858
C45 C 0.6021(4) 0.9199(2) 0.5823(3)
H52 H 0.6448 0.9714 0.5854
C46 C 0.6405(3) 0.8775(2) 0.6398(2)
H53 H 0.7079 0.9007 0.6824
C47 C 0.9160(2) 0.77594(13) 0.77047(13)
C48 C 1.0701(2) 0.89506(14) 0.82934(13)
C49 C 1.1777(3) 0.87524(16) 0.80593(16)
H54 H 1.2065 0.8370 0.8335
H55 H 1.2482 0.9206 0.8152
H56 H 1.1487 0.8552 0.7538
C50 C 1.0063(3) 0.94340(15) 0.78078(15)
H57 H 0.9761 0.9175 0.7304
H58 H 1.0672 0.9918 0.7839
H59 H 0.9342 0.9524 0.7964
C51 C 1.1133(3) 0.93156(17) 0.90835(14)
H60 H 1.0398 0.9390 0.9235
H61 H 1.1743 0.9805 0.9140
H62 H 1.1538 0.8988 0.9387
N7 N 0.8286(2) 0.71570(11) 0.78146(10)
N8 N 0.8028(2) 0.71245(11) 0.84818(10)
N9 N 0.6631(2) 0.69393(13) 0.66338(11)
O5 O 0.93194(17) 0.77921(9) 0.71071(9)
O6 O 0.97361(17) 0.82503(9) 0.83081(8)
F9 F 0.53660(15) 0.63873(10) 0.89017(9)
F10 F 0.66738(16) 0.56849(8) 0.91461(8)
F11 F 0.70705(17) 0.55124(8) 0.64000(8)
F12 F 0.86553(17) 0.57919(9) 0.73769(8)
H63 H 0.711(2) 0.7105(13) 0.6377(13)
C52 C 1.0390(2) 0.83407(14) 0.41755(12)
C53 C 1.0638(3) 0.88524(14) 0.48742(13)
H64 H 1.0315 0.9304 0.4788
H65 H 1.1556 0.9015 0.5136
C54 C 0.9887(2) 0.83405(14) 0.52992(12)
C55 C 1.0993(2) 0.85192(15) 0.35844(13)
H66 H 1.0626 0.8107 0.3157
C56 C 0.8928(3) 0.86982(15) 0.55307(13)
H67 H 0.8485 0.8373 0.5826
C57 C 1.1599(3) 0.7758(2) 0.58136(15)
H68 H 1.2345 0.8117 0.5746
H69 H 1.1208 0.7383 0.5365
C58 C 1.2022(3) 0.73630(18) 0.64459(14)
C59 C 1.3082(3) 0.76948(18) 0.70231(15)
H70 H 1.3574 0.8187 0.7021
C60 C 1.3439(3) 0.7321(2) 0.76054(15)
H71 H 1.4180 0.7556 0.7993
C61 C 1.2749(4) 0.6627(2) 0.76305(19)
H72 H 1.2998 0.6377 0.8035
C62 C 1.1693(4) 0.6288(2) 0.7073(2)
H73 H 1.1194 0.5802 0.7088
C63 C 1.1345(3) 0.6656(2) 0.64779(17)
H74 H 1.0619 0.6409 0.6085
C64 C 0.8425(2) 0.70239(14) 0.48301(13)
C65 C 0.7212(3) 0.57382(15) 0.42699(14)
C66 C 0.7944(3) 0.53386(16) 0.48081(16)
H75 H 0.8733 0.5316 0.4693
H76 H 0.7431 0.4825 0.4782
H77 H 0.8145 0.5614 0.5300
C67 C 0.6008(3) 0.5836(2) 0.44303(19)
H78 H 0.6206 0.6066 0.4939
H79 H 0.5398 0.5342 0.4346
H80 H 0.5640 0.6163 0.4110
C68 C 0.6934(3) 0.53420(17) 0.34977(15)
H81 H 0.6421 0.5595 0.3157
H82 H 0.6467 0.4814 0.3457
H83 H 0.7735 0.5361 0.3381
N10 N 0.9180(2) 0.76746(11) 0.47111(10)
N11 N 0.95896(19) 0.77034(11) 0.40893(10)
N12 N 1.0680(2) 0.81656(13) 0.59351(11)
O7 O 0.81719(17) 0.69947(10) 0.54038(9)
O8 O 0.80517(16) 0.64850(9) 0.42566(8)
F13 F 1.08456(15) 0.91895(8) 0.33834(8)
F14 F 1.22729(15) 0.86190(10) 0.38461(8)
F15 F 0.80813(18) 0.88098(11) 0.49410(9)
F16 F 0.95399(17) 0.93955(9) 0.59198(9)
H84 H 1.027(2) 0.7931(13) 0.6154(12)
loop_
_geom_bond_atom_site_label_1
_geom_bond_atom_site_label_2
_geom_bond_site_symmetry_1
_geom_bond_site_symmetry_2
C1 C2 1_555 1_555
C2 H1 1_555 1_555
H2 C2 1_555 1_555
C3 C2 1_555 1_555
C4 C1 1_555 1_555
H3 C4 1_555 1_555
C5 C3 1_555 1_555
H4 C5 1_555 1_555
C6 H5 1_555 1_555
H6 C6 1_555 1_555
C7 C6 1_555 1_555
C8 C7 1_555 1_555
H7 C8 1_555 1_555
C9 C8 1_555 1_555
H8 C9 1_555 1_555
C10 C9 1_555 1_555
H9 C10 1_555 1_555
C11 C10 1_555 1_555
H10 C11 1_555 1_555
C12 C7 1_555 1_555
H11 C12 1_555 1_555
C13 N1 1_555 1_555
C14 C15 1_555 1_555
C15 H12 1_555 1_555
H13 C15 1_555 1_555
H14 C15 1_555 1_555
C16 C14 1_555 1_555
H15 C16 1_555 1_555
H16 C16 1_555 1_555
H17 C16 1_555 1_555
C17 C14 1_555 1_555
H18 C17 1_555 1_555
H19 C17 1_555 1_555
H20 C17 1_555 1_555
N1 C3 1_555 1_555
N2 C1 1_555 1_555
N3 C3 1_555 1_555
O1 C13 1_555 1_555
O2 C13 1_555 1_555
F1 C4 1_555 1_555
F2 C4 1_555 1_555
F3 C5 1_555 1_555
F4 C5 1_555 1_555
H21 N3 1_555 1_555
C18 C19 1_555 1_555
C19 H22 1_555 1_555
H23 C19 1_555 1_555
C20 C19 1_555 1_555
C21 C18 1_555 1_555
H24 C21 1_555 1_555
C22 C20 1_555 1_555
H25 C22 1_555 1_555
C23 H26 1_555 1_555
H27 C23 1_555 1_555
C24 C23 1_555 1_555
C25 C24 1_555 1_555
H28 C25 1_555 1_555
C26 C25 1_555 1_555
H29 C26 1_555 1_555
C27 C26 1_555 1_555
H30 C27 1_555 1_555
C28 C27 1_555 1_555
H31 C28 1_555 1_555
C29 C24 1_555 1_555
H32 C29 1_555 1_555
C30 N4 1_555 1_555
C31 C32 1_555 1_555
C32 H33 1_555 1_555
H34 C32 1_555 1_555
H35 C32 1_555 1_555
C33 C31 1_555 1_555
H36 C33 1_555 1_555
H37 C33 1_555 1_555
H38 C33 1_555 1_555
C34 C31 1_555 1_555
H39 C34 1_555 1_555
H40 C34 1_555 1_555
H41 C34 1_555 1_555
N4 C20 1_555 1_555
N5 C18 1_555 1_555
N6 C20 1_555 1_555
O3 C30 1_555 1_555
O4 C30 1_555 1_555
F5 C21 1_555 1_555
F6 C21 1_555 1_555
F7 C22 1_555 1_555
F8 C22 1_555 1_555
H42 N6 1_555 1_555
C35 C36 1_555 1_555
C36 H43 1_555 1_555
H44 C36 1_555 1_555
C37 C36 1_555 1_555
C38 C35 1_555 1_555
H45 C38 1_555 1_555
C39 C37 1_555 1_555
H46 C39 1_555 1_555
C40 H47 1_555 1_555
H48 C40 1_555 1_555
C41 C40 1_555 1_555
C42 C41 1_555 1_555
H49 C42 1_555 1_555
C43 C42 1_555 1_555
H50 C43 1_555 1_555
C44 C43 1_555 1_555
H51 C44 1_555 1_555
C45 C44 1_555 1_555
H52 C45 1_555 1_555
C46 C41 1_555 1_555
H53 C46 1_555 1_555
C47 N7 1_555 1_555
C48 C49 1_555 1_555
C49 H54 1_555 1_555
H55 C49 1_555 1_555
H56 C49 1_555 1_555
C50 C48 1_555 1_555
H57 C50 1_555 1_555
H58 C50 1_555 1_555
H59 C50 1_555 1_555
C51 C48 1_555 1_555
H60 C51 1_555 1_555
H61 C51 1_555 1_555
H62 C51 1_555 1_555
N7 C37 1_555 1_555
N8 C35 1_555 1_555
N9 C37 1_555 1_555
O5 C47 1_555 1_555
O6 C47 1_555 1_555
F9 C38 1_555 1_555
F10 C38 1_555 1_555
F11 C39 1_555 1_555
F12 C39 1_555 1_555
H63 N9 1_555 1_555
C52 C53 1_555 1_555
C53 H64 1_555 1_555
H65 C53 1_555 1_555
C54 C53 1_555 1_555
C55 C52 1_555 1_555
H66 C55 1_555 1_555
C56 C54 1_555 1_555
H67 C56 1_555 1_555
C57 H68 1_555 1_555
H69 C57 1_555 1_555
C58 C57 1_555 1_555
C59 C58 1_555 1_555
H70 C59 1_555 1_555
C60 C59 1_555 1_555
H71 C60 1_555 1_555
C61 C60 1_555 1_555
H72 C61 1_555 1_555
C62 C61 1_555 1_555
H73 C62 1_555 1_555
C63 C58 1_555 1_555
H74 C63 1_555 1_555
C64 N10 1_555 1_555
C65 C66 1_555 1_555
C66 H75 1_555 1_555
H76 C66 1_555 1_555
H77 C66 1_555 1_555
C67 C65 1_555 1_555
H78 C67 1_555 1_555
H79 C67 1_555 1_555
H80 C67 1_555 1_555
C68 C65 1_555 1_555
H81 C68 1_555 1_555
H82 C68 1_555 1_555
H83 C68 1_555 1_555
N10 C54 1_555 1_555
N11 C52 1_555 1_555
N12 C54 1_555 1_555
O7 C64 1_555 1_555
O8 C64 1_555 1_555
F13 C55 1_555 1_555
F14 C55 1_555 1_555
F15 C56 1_555 1_555
F16 C56 1_555 1_555
H84 N12 1_555 1_555
C6 N3 1_555 1_555
C11 C12 1_555 1_555
C14 O2 1_555 1_555
N1 N2 1_555 1_555
C23 N6 1_555 1_555
C28 C29 1_555 1_555
C31 O4 1_555 1_555
N4 N5 1_555 1_555
C40 N9 1_555 1_555
C45 C46 1_555 1_555
C48 O6 1_555 1_555
N7 N8 1_555 1_555
C57 N12 1_555 1_555
C62 C63 1_555 1_555
C65 O8 1_555 1_555
N10 N11 1_555 1_555

#END
