
#######################################################################
#
#                 Cambridge Crystallographic Data Centre
#                                CCDC 
#
#######################################################################
#
# If this CIF has been generated from an entry in the Cambridge 
# Structural Database, then it will include bibliographic, chemical, 
# crystal, experimental, refinement or atomic coordinate data resulting 
# from the CCDC's data processing and validation procedures.
#
#######################################################################

data_IVAWOT
_chemical_formula_moiety         'C5 H3 F4 N3 O2,0.5(H2 O1)'
_chemical_name_systematic        
'3,5-bis(difluoromethyl)-4-nitro-1H-pyrazole hemihydrate'
_symmetry_cell_setting           triclinic
_symmetry_space_group_name_H-M   'P -1'
_symmetry_Int_Tables_number      2
_space_group_name_Hall           '-P 1'
loop_
_symmetry_equiv_pos_site_id
_symmetry_equiv_pos_as_xyz
1 x,y,z
2 -x,-y,-z
_cell_length_a                   8.6019(3)
_cell_length_b                   10.1336(6)
_cell_length_c                   10.2945(5)
_cell_angle_alpha                83.209(2)
_cell_angle_beta                 69.620(3)
_cell_angle_gamma                79.864(3)
_cell_volume                     826.474
_exptl_crystal_colour            colorless
_exptl_crystal_description       block
_cell_formula_units_Z            4
loop_
_atom_site_label
_atom_site_type_symbol
_atom_site_fract_x
_atom_site_fract_y
_atom_site_fract_z
C1 C 1.0534(3) 0.2781(2) 0.6862(2)
C2 C 0.9298(3) 0.3851(2) 0.6869(2)
C3 C 0.8376(3) 0.3497(2) 0.6109(2)
C4 C 1.1855(3) 0.2538(3) 0.7534(3)
H1 H 1.2270 0.3393 0.7559
C5 C 0.6851(3) 0.4256(2) 0.5832(3)
H2 H 0.6107 0.4762 0.6654
N1 N 1.0329(2) 0.18634(19) 0.6120(2)
N2 N 0.9016(2) 0.22753(19) 0.56610(19)
N3 N 0.9012(2) 0.5064(2) 0.7545(2)
O1 O 0.9605(2) 0.5066(2) 0.8470(2)
O2 O 0.8170(2) 0.60418(19) 0.7157(2)
F1 F 1.3117(2) 0.16276(18) 0.6827(2)
F2 F 1.1187(3) 0.1978(2) 0.8842(2)
F3 F 0.7327(2) 0.51083(18) 0.46936(18)
F4 F 0.60189(18) 0.33957(16) 0.55241(19)
H3 H 1.0942 0.1025 0.5919
C6 C 0.3950(3) 0.1453(2) 0.1789(2)
C7 C 0.5101(3) 0.2294(2) 0.1038(2)
C8 C 0.6168(3) 0.2303(2) 0.1798(2)
C9 C 0.2458(3) 0.1085(2) 0.1553(2)
H4 H 0.1873 0.1879 0.1147
C10 C 0.7595(3) 0.3080(3) 0.1529(3)
H5 H 0.8290 0.3108 0.0522
N4 N 0.4356(2) 0.09965(19) 0.29112(19)
N5 N 0.5706(2) 0.1498(2) 0.2941(2)
N6 N 0.5158(2) 0.3021(2) -0.0249(2)
O3 O 0.6188(2) 0.3803(2) -0.07227(19)
O4 O 0.4194(3) 0.2818(2) -0.0813(2)
F5 F 0.14110(18) 0.06428(17) 0.27872(16)
F6 F 0.2941(2) 0.00562(19) 0.0710(2)
F7 F 0.85313(19) 0.25220(18) 0.23176(18)
F8 F 0.6946(2) 0.43462(17) 0.1962(2)
H6 H 0.3837 0.0459 0.3761
O5 O 0.25197(18) -0.04428(15) 0.52058(16)
H7 H 0.3035 -0.0790 0.5707
H8 H 0.1952 -0.1060 0.5161
loop_
_geom_bond_atom_site_label_1
_geom_bond_atom_site_label_2
_geom_bond_site_symmetry_1
_geom_bond_site_symmetry_2
C1 C2 1_555 1_555
C2 C3 1_555 1_555
C3 C5 1_555 1_555
C4 C1 1_555 1_555
H1 C4 1_555 1_555
C5 H2 1_555 1_555
N1 C1 1_555 1_555
N2 C3 1_555 1_555
N3 C2 1_555 1_555
O1 N3 1_555 1_555
O2 N3 1_555 1_555
F1 C4 1_555 1_555
F2 C4 1_555 1_555
F3 C5 1_555 1_555
F4 C5 1_555 1_555
H3 N1 1_555 1_555
C6 C7 1_555 1_555
C7 C8 1_555 1_555
C8 C10 1_555 1_555
C9 C6 1_555 1_555
H4 C9 1_555 1_555
C10 H5 1_555 1_555
N4 C6 1_555 1_555
N5 C8 1_555 1_555
N6 C7 1_555 1_555
O3 N6 1_555 1_555
O4 N6 1_555 1_555
F5 C9 1_555 1_555
F6 C9 1_555 1_555
F7 C10 1_555 1_555
F8 C10 1_555 1_555
H6 N4 1_555 1_555
O5 H7 1_555 1_555
H8 O5 1_555 1_555
N1 N2 1_555 1_555
N4 N5 1_555 1_555

#END
