
#######################################################################
#
#                 Cambridge Crystallographic Data Centre
#                                CCDC 
#
#######################################################################
#
# If this CIF has been generated from an entry in the Cambridge 
# Structural Database, then it will include bibliographic, chemical, 
# crystal, experimental, refinement or atomic coordinate data resulting 
# from the CCDC's data processing and validation procedures.
#
#######################################################################

data_IVIYET
_chemical_formula_moiety         'C19 H17 Cl1 N2'
_chemical_name_systematic        
2-(4-chlorophenyl)-1,3-dimethyl-2,3-dihydro-1H-perimidine
_symmetry_cell_setting           orthorhombic
_symmetry_space_group_name_H-M   'P n m a'
_symmetry_Int_Tables_number      62
_space_group_name_Hall           '-P 2ac 2n'
loop_
_symmetry_equiv_pos_site_id
_symmetry_equiv_pos_as_xyz
1 x,y,z
2 1/2-x,-y,1/2+z
3 1/2+x,1/2-y,1/2-z
4 -x,1/2+y,-z
5 -x,-y,-z
6 1/2+x,y,1/2-z
7 1/2-x,1/2+y,1/2+z
8 x,1/2-y,z
_cell_length_a                   11.385(2)
_cell_length_b                   12.170(2)
_cell_length_c                   11.210(2)
_cell_angle_alpha                90
_cell_angle_beta                 90
_cell_angle_gamma                90
_cell_volume                     1553.21
_cell_formula_units_Z            4
loop_
_atom_site_label
_atom_site_type_symbol
_atom_site_fract_x
_atom_site_fract_y
_atom_site_fract_z
Cl1 Cl 0.14620(5) 0.7500 0.22348(6)
N1 N 0.57099(11) 0.65226(11) -0.18254(11)
C1 C 0.72113(16) 0.7500 -0.07452(16)
C2 C 0.82515(17) 0.7500 -0.00478(17)
C3 C 0.36456(18) 0.7500 0.13413(18)
H1 H 0.3894 0.7500 0.2132
C4 C 0.49751(18) 0.7500 -0.17882(18)
C5 C 0.66936(12) 0.64825(12) -0.10903(12)
C6 C 0.29050(17) 0.7500 -0.09903(18)
H2 H 0.2650 0.7500 -0.1779
C7 C 0.20834(18) 0.7500 -0.00883(19)
H3 H 0.1285 0.7500 -0.0262
C8 C 0.87492(14) 0.64849(12) 0.02918(14)
H4 H 0.9434 0.6473 0.0744
C9 C 0.72017(14) 0.55142(13) -0.07230(15)
H5 H 0.6860 0.4847 -0.0930
C10 C 0.41004(17) 0.7500 -0.07571(17)
C11 C 0.44527(18) 0.7500 0.04315(18)
H6 H 0.5250 0.7500 0.0613
C12 C 0.24678(17) 0.7500 0.10743(18)
C13 C 0.82342(15) 0.55280(14) -0.00368(16)
H7 H 0.8571 0.4866 0.0197
C14 C 0.50795(17) 0.55074(18) -0.20729(18)
H8 H 0.4782 0.5208 -0.1341
H9 H 0.5603 0.4988 -0.2437
H10 H 0.4437 0.5656 -0.2604
H11 H 0.449(2) 0.7500 -0.251(2)
N1G N 0.57099(11) 0.84774(11) -0.18254(11)
C5G C 0.66936(12) 0.85175(12) -0.10903(12)
C8G C 0.87492(14) 0.85151(12) 0.02918(14)
H4G H 0.9434 0.8527 0.0744
C9G C 0.72017(14) 0.94858(13) -0.07230(15)
H5G H 0.6860 1.0153 -0.0930
C13G C 0.82342(15) 0.94720(14) -0.00368(16)
H7G H 0.8571 1.0134 0.0197
C14G C 0.50795(17) 0.94926(18) -0.20729(18)
H8G H 0.4782 0.9792 -0.1341
H9G H 0.5603 1.0012 -0.2437
H10G H 0.4437 0.9344 -0.2604
loop_
_geom_bond_atom_site_label_1
_geom_bond_atom_site_label_2
_geom_bond_site_symmetry_1
_geom_bond_site_symmetry_2
Cl1 C12 1_555 1_555
N1 C4 1_555 1_555
C1 C2 1_555 1_555
C2 C8 1_555 1_555
C3 H1 1_555 1_555
C4 C10 1_555 1_555
C5 N1 1_555 1_555
C6 H2 1_555 1_555
C7 C6 1_555 1_555
H3 C7 1_555 1_555
C8 H4 1_555 1_555
C9 C5 1_555 1_555
H5 C9 1_555 1_555
C10 C6 1_555 1_555
C11 C3 1_555 1_555
H6 C11 1_555 1_555
C12 C3 1_555 1_555
C13 C8 1_555 1_555
H7 C13 1_555 1_555
C14 N1 1_555 1_555
H8 C14 1_555 1_555
H9 C14 1_555 1_555
H10 C14 1_555 1_555
H11 C4 1_555 1_555
N1G C4 1_555 1_555
C5G C1 1_555 1_555
C8G C2 1_555 1_555
H4G C8G 1_555 1_555
C9G C5G 1_555 1_555
H5G C9G 1_555 1_555
C13G C8G 1_555 1_555
H7G C13G 1_555 1_555
C14G N1G 1_555 1_555
H8G C14G 1_555 1_555
H9G C14G 1_555 1_555
H10G C14G 1_555 1_555
C1 C5 1_555 1_555
C7 C12 1_555 1_555
C9 C13 1_555 1_555
C10 C11 1_555 1_555
N1G C5G 1_555 1_555
C9G C13G 1_555 1_555

#END
