
#######################################################################
#
#                 Cambridge Crystallographic Data Centre
#                                CCDC 
#
#######################################################################
#
# If this CIF has been generated from an entry in the Cambridge 
# Structural Database, then it will include bibliographic, chemical, 
# crystal, experimental, refinement or atomic coordinate data resulting 
# from the CCDC's data processing and validation procedures.
#
#######################################################################

data_IVOJEK
_chemical_formula_moiety         'C24 H17 N1 O5'
_chemical_name_systematic        
"methyl 1',2-dioxo-1-phenyl-1,1',2,4'-tetrahydrospiro[indole-3,3'-isochromene]-4'-carboxylate"
_symmetry_cell_setting           monoclinic
_symmetry_space_group_name_H-M   'P 21'
_symmetry_Int_Tables_number      4
_space_group_name_Hall           'P 2yb'
loop_
_symmetry_equiv_pos_site_id
_symmetry_equiv_pos_as_xyz
1 x,y,z
2 -x,1/2+y,-z
_cell_length_a                   12.7494(2)
_cell_length_b                   8.59390(10)
_cell_length_c                   18.0788(3)
_cell_angle_alpha                90
_cell_angle_beta                 97.0940(10)
_cell_angle_gamma                90
_cell_volume                     1965.68
_exptl_crystal_colour            colorless
_exptl_crystal_description       block
_cell_formula_units_Z            4
loop_
_atom_site_label
_atom_site_type_symbol
_atom_site_fract_x
_atom_site_fract_y
_atom_site_fract_z
O1 O -0.22587(18) 0.8239(5) 0.07044(13)
O2 O -0.2344(3) 0.4717(5) 0.1396(2)
O3 O -0.1261(4) 0.3727(4) 0.2342(2)
O4 O 0.0146(2) 1.0572(5) 0.14783(19)
O5 O -0.08430(19) 0.9028(3) 0.20726(14)
N1 N -0.33289(19) 0.8274(4) 0.16431(13)
C1 C -0.2395(2) 0.8050(4) 0.13487(16)
C2 C -0.1524(2) 0.7677(4) 0.20053(16)
C3 C -0.0870(2) 0.6220(5) 0.19418(16)
H1 H -0.0415 0.6095 0.2416
C4 C -0.0143(2) 0.6399(6) 0.13305(17)
C5 C 0.0221(3) 0.5091(7) 0.0985(2)
H2 H 0.0003 0.4097 0.1100
C6 C 0.0928(4) 0.5320(12) 0.0460(3)
H3 H 0.1181 0.4463 0.0222
C7 C 0.1253(4) 0.6781(13) 0.0291(3)
H4 H 0.1721 0.6902 -0.0061
C8 C 0.0894(3) 0.8089(10) 0.0638(2)
H5 H 0.1116 0.9079 0.0520
C9 C 0.0192(2) 0.7890(7) 0.11680(19)
C10 C -0.0156(3) 0.9254(6) 0.1552(2)
C11 C -0.1578(3) 0.4809(5) 0.1843(2)
C12 C -0.1899(7) 0.2342(8) 0.2319(6)
H6 H -0.1828 0.1774 0.1871
H7 H -0.2626 0.2625 0.2328
H8 H -0.1668 0.1703 0.2744
C13 C -0.2148(2) 0.7635(4) 0.26608(16)
C14 C -0.3192(2) 0.8019(4) 0.24236(16)
C15 C -0.3943(3) 0.8051(5) 0.29134(18)
H9 H -0.4643 0.8309 0.2754
C16 C -0.3609(3) 0.7680(5) 0.36569(19)
H10 H -0.4093 0.7718 0.4001
C17 C -0.2576(4) 0.7259(6) 0.38945(19)
H11 H -0.2377 0.7002 0.4392
C18 C -0.1836(3) 0.7219(5) 0.33950(18)
H12 H -0.1143 0.6918 0.3550
C19 C -0.4307(2) 0.8676(4) 0.12100(16)
C20 C -0.4662(3) 0.7788(4) 0.05921(17)
H13 H -0.4264 0.6951 0.0457
C21 C -0.5617(3) 0.8158(6) 0.01761(19)
H14 H -0.5853 0.7575 -0.0245
C22 C -0.6215(3) 0.9371(6) 0.0379(2)
H15 H -0.6862 0.9598 0.0102
C23 C -0.5861(3) 1.0245(5) 0.0987(3)
H16 H -0.6269 1.1069 0.1124
C24 C -0.4901(3) 0.9924(4) 0.1406(2)
H17 H -0.4657 1.0541 0.1814
O6 O 0.31703(18) 1.2745(3) 0.43686(12)
O7 O 0.36351(18) 1.0257(3) 0.30362(14)
O8 O 0.22502(19) 0.9248(3) 0.23257(15)
O9 O 0.0707(2) 1.5547(4) 0.36496(16)
O10 O 0.19723(17) 1.4511(3) 0.30951(12)
N2 N 0.44251(19) 1.3410(3) 0.36201(13)
C25 C 0.3426(2) 1.3069(4) 0.37721(14)
C26 C 0.2670(2) 1.3210(3) 0.30257(14)
C27 C 0.2024(2) 1.1740(3) 0.28178(15)
H18 H 0.1616 1.1916 0.2329
C28 C 0.1237(2) 1.1470(4) 0.33790(16)
C29 C 0.0924(3) 1.0007(5) 0.3583(2)
H19 H 0.1191 0.9124 0.3375
C30 C 0.0206(4) 0.9860(6) 0.4101(3)
H20 H 0.0010 0.8876 0.4248
C31 C -0.0211(4) 1.1150(8) 0.4395(3)
H21 H -0.0688 1.1039 0.4741
C32 C 0.0075(3) 1.2625(7) 0.4181(2)
H22 H -0.0229 1.3503 0.4368
C33 C 0.0817(2) 1.2781(5) 0.36837(18)
C34 C 0.1136(3) 1.4360(4) 0.34925(17)
C35 C 0.2746(2) 1.0345(3) 0.27473(15)
C36 C 0.2813(3) 0.7804(4) 0.2263(3)
H23 H 0.2385 0.7107 0.1939
H24 H 0.2967 0.7339 0.2747
H25 H 0.3462 0.8008 0.2062
C37 C 0.3419(2) 1.3665(3) 0.24871(15)
C38 C 0.3224(3) 1.4000(4) 0.17286(17)
H26 H 0.2543 1.3947 0.1477
C39 C 0.4069(3) 1.4412(5) 0.1359(2)
H27 H 0.3954 1.4651 0.0854
C40 C 0.5078(3) 1.4474(5) 0.1730(2)
H28 H 0.5635 1.4738 0.1466
C41 C 0.5291(3) 1.4151(4) 0.2493(2)
H29 H 0.5972 1.4204 0.2745
C42 C 0.4438(2) 1.3748(3) 0.28515(16)
C43 C 0.5349(2) 1.3118(4) 0.41391(17)
C44 C 0.5899(4) 1.1784(6) 0.4082(3)
H30 H 0.5692 1.1090 0.3697
C45 C 0.6775(4) 1.1447(7) 0.4597(4)
H31 H 0.7144 1.0521 0.4564
C46 C 0.7088(4) 1.2495(7) 0.5154(3)
H32 H 0.7673 1.2287 0.5501
C47 C 0.6539(5) 1.3829(7) 0.5194(3)
H33 H 0.6760 1.4546 0.5566
C48 C 0.5653(4) 1.4157(5) 0.4691(2)
H34 H 0.5274 1.5072 0.4731
loop_
_geom_bond_atom_site_label_1
_geom_bond_atom_site_label_2
_geom_bond_site_symmetry_1
_geom_bond_site_symmetry_2
O1 C1 1_555 1_555
O2 C11 1_555 1_555
O3 C11 1_555 1_555
O4 C10 1_555 1_555
O5 C2 1_555 1_555
N1 C1 1_555 1_555
C1 C2 1_555 1_555
C2 C3 1_555 1_555
C3 H1 1_555 1_555
C4 C3 1_555 1_555
C5 C4 1_555 1_555
H2 C5 1_555 1_555
C6 C5 1_555 1_555
H3 C6 1_555 1_555
C7 C6 1_555 1_555
H4 C7 1_555 1_555
C8 C7 1_555 1_555
H5 C8 1_555 1_555
C9 C4 1_555 1_555
C10 O5 1_555 1_555
C11 C3 1_555 1_555
C12 O3 1_555 1_555
H6 C12 1_555 1_555
H7 C12 1_555 1_555
H8 C12 1_555 1_555
C13 C2 1_555 1_555
C14 N1 1_555 1_555
C15 C14 1_555 1_555
H9 C15 1_555 1_555
C16 C15 1_555 1_555
H10 C16 1_555 1_555
C17 C16 1_555 1_555
H11 C17 1_555 1_555
C18 C13 1_555 1_555
H12 C18 1_555 1_555
C19 N1 1_555 1_555
C20 C19 1_555 1_555
H13 C20 1_555 1_555
C21 C20 1_555 1_555
H14 C21 1_555 1_555
C22 C21 1_555 1_555
H15 C22 1_555 1_555
C23 C22 1_555 1_555
H16 C23 1_555 1_555
C24 C19 1_555 1_555
H17 C24 1_555 1_555
O6 C25 1_555 1_555
O7 C35 1_555 1_555
O8 C35 1_555 1_555
O9 C34 1_555 1_555
O10 C26 1_555 1_555
N2 C25 1_555 1_555
C25 C26 1_555 1_555
C26 C27 1_555 1_555
C27 H18 1_555 1_555
C28 C27 1_555 1_555
C29 C28 1_555 1_555
H19 C29 1_555 1_555
C30 C29 1_555 1_555
H20 C30 1_555 1_555
C31 C30 1_555 1_555
H21 C31 1_555 1_555
C32 C31 1_555 1_555
H22 C32 1_555 1_555
C33 C28 1_555 1_555
C34 O10 1_555 1_555
C35 C27 1_555 1_555
C36 O8 1_555 1_555
H23 C36 1_555 1_555
H24 C36 1_555 1_555
H25 C36 1_555 1_555
C37 C26 1_555 1_555
C38 C37 1_555 1_555
H26 C38 1_555 1_555
C39 C38 1_555 1_555
H27 C39 1_555 1_555
C40 C39 1_555 1_555
H28 C40 1_555 1_555
C41 C40 1_555 1_555
H29 C41 1_555 1_555
C42 N2 1_555 1_555
C43 N2 1_555 1_555
C44 C43 1_555 1_555
H30 C44 1_555 1_555
C45 C44 1_555 1_555
H31 C45 1_555 1_555
C46 C45 1_555 1_555
H32 C46 1_555 1_555
C47 C46 1_555 1_555
H33 C47 1_555 1_555
C48 C43 1_555 1_555
H34 C48 1_555 1_555
C8 C9 1_555 1_555
C9 C10 1_555 1_555
C13 C14 1_555 1_555
C17 C18 1_555 1_555
C23 C24 1_555 1_555
C32 C33 1_555 1_555
C33 C34 1_555 1_555
C37 C42 1_555 1_555
C41 C42 1_555 1_555
C47 C48 1_555 1_555

#END
