
#######################################################################
#
#                 Cambridge Crystallographic Data Centre
#                                CCDC 
#
#######################################################################
#
# If this CIF has been generated from an entry in the Cambridge 
# Structural Database, then it will include bibliographic, chemical, 
# crystal, experimental, refinement or atomic coordinate data resulting 
# from the CCDC's data processing and validation procedures.
#
#######################################################################

data_IVULAO
_chemical_formula_moiety         'C49 H41 N1 O1,0.5(C1 H2 Cl2)'
_chemical_name_systematic        
'N-(1,2,3,4-tetraphenyl-9-anthryl)adamantane-1-carboxamide dichloromethane solvate'
_symmetry_cell_setting           monoclinic
_symmetry_space_group_name_H-M   'P 21/c'
_symmetry_Int_Tables_number      14
_space_group_name_Hall           '-P 2ybc'
loop_
_symmetry_equiv_pos_site_id
_symmetry_equiv_pos_as_xyz
1 x,y,z
2 -x,1/2+y,1/2-z
3 -x,-y,-z
4 x,1/2-y,1/2+z
_cell_length_a                   12.6658(10)
_cell_length_b                   31.572(2)
_cell_length_c                   19.6013(16)
_cell_angle_alpha                90
_cell_angle_beta                 105.188(5)
_cell_angle_gamma                90
_cell_volume                     7564.48
_exptl_crystal_colour            colorless
_exptl_crystal_description       block
_cell_formula_units_Z            8
_exptl_crystal_recrystallization_method hexane/dichloromethane
loop_
_atom_site_label
_atom_site_type_symbol
_atom_site_fract_x
_atom_site_fract_y
_atom_site_fract_z
Cl1 Cl 0.46308(10) 0.56215(3) 0.27150(6)
Cl2 Cl 0.52423(10) 0.55737(3) 0.42342(7)
C1 C 0.4176(3) 0.55380(11) 0.3466(2)
H1 H 0.3843 0.5260 0.3441
H2 H 0.3621 0.5747 0.3484
O1 O 0.90895(15) 0.29772(6) 0.42676(10)
N1 N 0.89704(18) 0.27190(6) 0.53258(12)
H3 H 0.9416 0.2500 0.5495
C2 C 0.4769(2) 0.11667(9) 0.38957(17)
H4 H 0.5208 0.1144 0.3584
C3 C 0.3700(3) 0.10153(9) 0.36870(18)
H5 H 0.3426 0.0899 0.3239
C4 C 0.3053(3) 0.10395(10) 0.4151(2)
H6 H 0.2342 0.0936 0.4023
C5 C 0.3468(3) 0.12187(10) 0.4808(2)
H7 H 0.3034 0.1234 0.5123
C6 C 0.4529(2) 0.13763(9) 0.50030(17)
H8 H 0.4792 0.1501 0.5445
C7 C 0.5200(2) 0.13499(8) 0.45494(16)
C8 C 0.6994(3) 0.05496(10) 0.41135(19)
H9 H 0.7211 0.0698 0.3763
C9 C 0.6703(3) 0.01245(11) 0.4007(2)
H10 H 0.6713 -0.0009 0.3586
C10 C 0.6401(3) -0.00954(11) 0.4526(3)
H11 H 0.6197 -0.0378 0.4454
C11 C 0.6397(3) 0.00968(11) 0.5153(2)
H12 H 0.6212 -0.0058 0.5509
C12 C 0.6670(2) 0.05231(10) 0.52577(19)
H13 H 0.6655 0.0654 0.5680
C13 C 0.6966(2) 0.07545(9) 0.47343(18)
C14 C 0.9199(2) 0.10418(9) 0.49786(18)
C15 C 0.9708(3) 0.08213(10) 0.5580(2)
H14 H 0.9516 0.0872 0.5999
C16 C 1.0517(3) 0.05206(11) 0.5564(3)
H15 H 1.0863 0.0372 0.5970
C17 C 1.0792(3) 0.04492(13) 0.4938(3)
H16 H 1.1335 0.0253 0.4928
C18 C 1.0287(3) 0.06594(12) 0.4337(3)
H17 H 1.0467 0.0602 0.3916
C19 C 0.9495(3) 0.09619(10) 0.4359(2)
H18 H 0.9161 0.1112 0.3951
C20 C 0.9787(2) 0.18900(8) 0.52410(15)
C21 C 1.0447(2) 0.18303(8) 0.59223(16)
H19 H 1.0126 0.1760 0.6283
C22 C 1.1568(2) 0.18729(9) 0.60735(17)
H20 H 1.1997 0.1831 0.6532
C23 C 1.2050(3) 0.19773(9) 0.55418(18)
H21 H 1.2806 0.2007 0.5641
C24 C 1.1412(3) 0.20371(9) 0.48640(17)
H22 H 1.1739 0.2106 0.4506
C25 C 1.0287(2) 0.19949(8) 0.47116(16)
H23 H 0.9862 0.2037 0.4252
C26 C 0.8585(2) 0.17871(8) 0.50672(14)
C27 C 0.8316(2) 0.13640(9) 0.49673(15)
C28 C 0.7202(2) 0.12174(8) 0.48164(15)
C29 C 0.6364(2) 0.15002(8) 0.47473(14)
C30 C 0.6604(2) 0.19484(8) 0.48224(14)
C31 C 0.5744(2) 0.22399(8) 0.47054(14)
H24 H 0.5029 0.2140 0.4607
C32 C 0.5922(2) 0.26754(9) 0.47321(14)
C33 C 0.5026(2) 0.29677(9) 0.46190(15)
H25 H 0.4312 0.2867 0.4523
C34 C 0.5218(3) 0.33911(9) 0.46519(16)
H26 H 0.4635 0.3580 0.4572
C35 C 0.6302(3) 0.35454(9) 0.48071(16)
H27 H 0.6422 0.3836 0.4822
C36 C 0.7172(2) 0.32787(8) 0.49346(15)
H28 H 0.7877 0.3389 0.5047
C37 C 0.7018(2) 0.28298(8) 0.48984(14)
C38 C 0.7894(2) 0.25391(8) 0.50457(14)
C39 C 0.7720(2) 0.20981(8) 0.49887(14)
C40 C 0.9479(2) 0.29480(9) 0.49165(16)
C41 C 1.0491(2) 0.32021(8) 0.52965(15)
C42 C 1.1123(2) 0.30273(9) 0.60137(16)
H29 H 1.1370 0.2742 0.5957
H30 H 1.0647 0.3016 0.6329
C43 C 1.2112(3) 0.33112(10) 0.63365(17)
H31 H 1.2517 0.3195 0.6794
C44 C 1.1711(3) 0.37546(11) 0.64437(19)
H32 H 1.2330 0.3936 0.6652
H33 H 1.1243 0.3743 0.6764
C45 C 1.2864(2) 0.33363(10) 0.58478(18)
H34 H 1.3131 0.3056 0.5778
H35 H 1.3489 0.3514 0.6058
C46 C 1.0096(2) 0.36522(9) 0.54077(18)
H36 H 0.9694 0.3770 0.4957
H37 H 0.9608 0.3641 0.5715
C47 C 1.1078(3) 0.39364(10) 0.5740(2)
H38 H 1.0818 0.4221 0.5812
C48 C 1.1812(3) 0.39607(10) 0.52441(19)
H39 H 1.2422 0.4149 0.5439
H40 H 1.1406 0.4074 0.4791
C49 C 1.2237(3) 0.35197(11) 0.51433(17)
H41 H 1.2720 0.3537 0.4827
C50 C 1.1255(2) 0.32326(10) 0.48086(16)
H42 H 1.0859 0.3348 0.4355
H43 H 1.1513 0.2952 0.4730
O2 O 0.91949(15) 0.25661(6) 0.17656(10)
N2 N 0.93569(18) 0.28331(6) 0.28624(12)
H44 H 0.8901 0.3046 0.2896
C51 C 1.2976(2) 0.42333(9) 0.31589(18)
C52 C 1.3681(3) 0.43383(9) 0.3804(2)
H45 H 1.3436 0.4323 0.4212
C53 C 1.4744(3) 0.44652(10) 0.3853(2)
H46 H 1.5212 0.4535 0.4289
C54 C 1.5099(3) 0.44869(11) 0.3251(3)
H47 H 1.5817 0.4568 0.3284
C55 C 1.4419(3) 0.43916(11) 0.2602(2)
H48 H 1.4668 0.4414 0.2197
C56 C 1.3349(3) 0.42607(9) 0.2554(2)
H49 H 1.2885 0.4192 0.2116
C57 C 1.1481(3) 0.49919(10) 0.3907(2)
H50 H 1.1574 0.4815 0.4297
C58 C 1.1606(3) 0.54274(11) 0.4013(2)
H51 H 1.1785 0.5538 0.4469
C59 C 1.1465(3) 0.56902(11) 0.3445(3)
H52 H 1.1537 0.5982 0.3512
C60 C 1.1221(3) 0.55262(11) 0.2783(2)
H53 H 1.1138 0.5706 0.2396
C61 C 1.1091(3) 0.50900(10) 0.2675(2)
H54 H 1.0914 0.4982 0.2218
C62 C 1.1224(2) 0.48178(9) 0.32443(18)
C63 C 0.9036(3) 0.45127(9) 0.3013(2)
C64 C 0.8405(3) 0.46762(10) 0.2385(2)
H55 H 0.8516 0.4587 0.1957
C65 C 0.7597(3) 0.49778(13) 0.2396(3)
H56 H 0.7167 0.5086 0.1973
C66 C 0.7437(4) 0.51134(13) 0.3022(4)
H57 H 0.6901 0.5314 0.3025
C67 C 0.8058(3) 0.49554(12) 0.3640(3)
H58 H 0.7947 0.5051 0.4064
C68 C 0.8865(3) 0.46511(10) 0.3649(2)
H59 H 0.9283 0.4543 0.4076
C69 C 0.8471(2) 0.36663(8) 0.26686(16)
C70 C 0.7966(2) 0.36103(9) 0.19574(17)
H60 H 0.8388 0.3597 0.1635
C71 C 0.6836(3) 0.35733(9) 0.17209(18)
H61 H 0.6507 0.3538 0.1241
C72 C 0.6203(3) 0.35882(9) 0.21926(19)
H62 H 0.5446 0.3567 0.2032
C73 C 0.6693(3) 0.36342(9) 0.29025(19)
H63 H 0.6267 0.3639 0.3223
C74 C 0.7823(2) 0.36733(8) 0.31433(16)
H64 H 0.8148 0.3704 0.3624
C75 C 0.9668(2) 0.37743(9) 0.28906(15)
C76 C 0.9921(2) 0.41977(9) 0.30204(16)
C77 C 1.1019(2) 0.43525(8) 0.31333(16)
C78 C 1.1843(2) 0.40779(9) 0.31073(15)
C79 C 1.1630(2) 0.36277(8) 0.30240(14)
C80 C 1.2494(2) 0.33505(8) 0.30646(15)
H65 H 1.3191 0.3460 0.3112
C81 C 1.2349(2) 0.29128(9) 0.30368(14)
C82 C 1.3254(2) 0.26303(9) 0.31021(15)
H66 H 1.3945 0.2739 0.3126
C83 C 1.3114(3) 0.22061(9) 0.31294(16)
H67 H 1.3708 0.2025 0.3179
C84 C 1.2058(3) 0.20385(9) 0.30822(15)
H68 H 1.1970 0.1747 0.3105
C85 C 1.1181(2) 0.22937(9) 0.30047(15)
H69 H 1.0498 0.2175 0.2973
C86 C 1.1282(2) 0.27453(8) 0.29697(14)
C87 C 1.0398(2) 0.30247(9) 0.28991(14)
C88 C 1.0539(2) 0.34687(8) 0.29264(14)
C89 C 0.8833(2) 0.26000(9) 0.22915(16)
C90 C 0.7803(2) 0.23580(8) 0.23301(15)
C91 C 0.6927(2) 0.24225(9) 0.16310(15)
H70 H 0.6730 0.2720 0.1576
H71 H 0.7220 0.2341 0.1240
C92 C 0.5908(2) 0.21597(10) 0.16121(16)
H72 H 0.5361 0.2205 0.1162
C93 C 0.6224(3) 0.16900(10) 0.16889(18)
H73 H 0.5582 0.1520 0.1678
H74 H 0.6512 0.1603 0.1298
C94 C 0.5439(2) 0.22935(10) 0.22212(17)
H75 H 0.4790 0.2128 0.2213
H76 H 0.5234 0.2590 0.2173
C95 C 0.8108(2) 0.18838(8) 0.24060(17)
H77 H 0.8417 0.1798 0.2024
H78 H 0.8653 0.1836 0.2850
C96 C 0.7085(3) 0.16200(10) 0.23857(19)
H79 H 0.7281 0.1319 0.2435
C97 C 0.6620(3) 0.17547(10) 0.29967(17)
H80 H 0.5982 0.1584 0.2996
H81 H 0.7163 0.1709 0.3442
C98 C 0.6302(3) 0.22224(10) 0.29202(17)
H82 H 0.6004 0.2307 0.3313
C99 C 0.7335(2) 0.24832(9) 0.29430(15)
H83 H 0.7156 0.2782 0.2912
H84 H 0.7877 0.2434 0.3387
loop_
_geom_bond_atom_site_label_1
_geom_bond_atom_site_label_2
_geom_bond_site_symmetry_1
_geom_bond_site_symmetry_2
Cl1 C1 1_555 1_555
Cl2 C1 1_555 1_555
C1 H1 1_555 1_555
H2 C1 1_555 1_555
O1 C40 1_555 1_555
N1 H3 1_555 1_555
C2 H4 1_555 1_555
C3 C2 1_555 1_555
H5 C3 1_555 1_555
C4 C3 1_555 1_555
H6 C4 1_555 1_555
C5 C4 1_555 1_555
H7 C5 1_555 1_555
C6 C5 1_555 1_555
H8 C6 1_555 1_555
C7 C2 1_555 1_555
C8 H9 1_555 1_555
C9 C8 1_555 1_555
H10 C9 1_555 1_555
C10 C9 1_555 1_555
H11 C10 1_555 1_555
C11 C10 1_555 1_555
H12 C11 1_555 1_555
C12 C11 1_555 1_555
H13 C12 1_555 1_555
C13 C8 1_555 1_555
C14 C15 1_555 1_555
C15 H14 1_555 1_555
C16 C15 1_555 1_555
H15 C16 1_555 1_555
C17 C16 1_555 1_555
H16 C17 1_555 1_555
C18 C17 1_555 1_555
H17 C18 1_555 1_555
C19 C14 1_555 1_555
H18 C19 1_555 1_555
C20 C21 1_555 1_555
C21 H19 1_555 1_555
C22 C21 1_555 1_555
H20 C22 1_555 1_555
C23 C22 1_555 1_555
H21 C23 1_555 1_555
C24 C23 1_555 1_555
H22 C24 1_555 1_555
C25 C20 1_555 1_555
H23 C25 1_555 1_555
C26 C20 1_555 1_555
C27 C14 1_555 1_555
C28 C13 1_555 1_555
C29 C7 1_555 1_555
C30 C29 1_555 1_555
C31 C30 1_555 1_555
H24 C31 1_555 1_555
C32 C31 1_555 1_555
C33 C32 1_555 1_555
H25 C33 1_555 1_555
C34 C33 1_555 1_555
H26 C34 1_555 1_555
C35 C34 1_555 1_555
H27 C35 1_555 1_555
C36 C35 1_555 1_555
H28 C36 1_555 1_555
C37 C32 1_555 1_555
C38 N1 1_555 1_555
C39 C26 1_555 1_555
C40 N1 1_555 1_555
C41 C40 1_555 1_555
C42 C41 1_555 1_555
H29 C42 1_555 1_555
H30 C42 1_555 1_555
C43 C42 1_555 1_555
H31 C43 1_555 1_555
C44 C43 1_555 1_555
H32 C44 1_555 1_555
H33 C44 1_555 1_555
C45 C43 1_555 1_555
H34 C45 1_555 1_555
H35 C45 1_555 1_555
C46 C41 1_555 1_555
H36 C46 1_555 1_555
H37 C46 1_555 1_555
C47 C44 1_555 1_555
H38 C47 1_555 1_555
C48 C47 1_555 1_555
H39 C48 1_555 1_555
H40 C48 1_555 1_555
C49 C45 1_555 1_555
H41 C49 1_555 1_555
C50 C41 1_555 1_555
H42 C50 1_555 1_555
H43 C50 1_555 1_555
O2 C89 1_555 1_555
N2 H44 1_555 1_555
C51 C52 1_555 1_555
C52 H45 1_555 1_555
C53 C52 1_555 1_555
H46 C53 1_555 1_555
C54 C53 1_555 1_555
H47 C54 1_555 1_555
C55 C54 1_555 1_555
H48 C55 1_555 1_555
C56 C51 1_555 1_555
H49 C56 1_555 1_555
C57 H50 1_555 1_555
C58 C57 1_555 1_555
H51 C58 1_555 1_555
C59 C58 1_555 1_555
H52 C59 1_555 1_555
C60 C59 1_555 1_555
H53 C60 1_555 1_555
C61 C60 1_555 1_555
H54 C61 1_555 1_555
C62 C57 1_555 1_555
C63 C64 1_555 1_555
C64 H55 1_555 1_555
C65 C64 1_555 1_555
H56 C65 1_555 1_555
C66 C65 1_555 1_555
H57 C66 1_555 1_555
C67 C66 1_555 1_555
H58 C67 1_555 1_555
C68 C63 1_555 1_555
H59 C68 1_555 1_555
C69 C70 1_555 1_555
C70 H60 1_555 1_555
C71 C70 1_555 1_555
H61 C71 1_555 1_555
C72 C71 1_555 1_555
H62 C72 1_555 1_555
C73 C72 1_555 1_555
H63 C73 1_555 1_555
C74 C69 1_555 1_555
H64 C74 1_555 1_555
C75 C69 1_555 1_555
C76 C63 1_555 1_555
C77 C62 1_555 1_555
C78 C51 1_555 1_555
C79 C78 1_555 1_555
C80 C79 1_555 1_555
H65 C80 1_555 1_555
C81 C80 1_555 1_555
C82 C81 1_555 1_555
H66 C82 1_555 1_555
C83 C82 1_555 1_555
H67 C83 1_555 1_555
C84 C83 1_555 1_555
H68 C84 1_555 1_555
C85 C84 1_555 1_555
H69 C85 1_555 1_555
C86 C81 1_555 1_555
C87 N2 1_555 1_555
C88 C75 1_555 1_555
C89 N2 1_555 1_555
C90 C89 1_555 1_555
C91 C90 1_555 1_555
H70 C91 1_555 1_555
H71 C91 1_555 1_555
C92 C91 1_555 1_555
H72 C92 1_555 1_555
C93 C92 1_555 1_555
H73 C93 1_555 1_555
H74 C93 1_555 1_555
C94 C92 1_555 1_555
H75 C94 1_555 1_555
H76 C94 1_555 1_555
C95 C90 1_555 1_555
H77 C95 1_555 1_555
H78 C95 1_555 1_555
C96 C93 1_555 1_555
H79 C96 1_555 1_555
C97 C96 1_555 1_555
H80 C97 1_555 1_555
H81 C97 1_555 1_555
C98 C94 1_555 1_555
H82 C98 1_555 1_555
C99 C90 1_555 1_555
H83 C99 1_555 1_555
H84 C99 1_555 1_555
C6 C7 1_555 1_555
C12 C13 1_555 1_555
C18 C19 1_555 1_555
C24 C25 1_555 1_555
C26 C27 1_555 1_555
C27 C28 1_555 1_555
C28 C29 1_555 1_555
C30 C39 1_555 1_555
C36 C37 1_555 1_555
C37 C38 1_555 1_555
C38 C39 1_555 1_555
C46 C47 1_555 1_555
C48 C49 1_555 1_555
C49 C50 1_555 1_555
C55 C56 1_555 1_555
C61 C62 1_555 1_555
C67 C68 1_555 1_555
C73 C74 1_555 1_555
C75 C76 1_555 1_555
C76 C77 1_555 1_555
C77 C78 1_555 1_555
C79 C88 1_555 1_555
C85 C86 1_555 1_555
C86 C87 1_555 1_555
C87 C88 1_555 1_555
C95 C96 1_555 1_555
C97 C98 1_555 1_555
C98 C99 1_555 1_555

#END
