
#######################################################################
#
#                 Cambridge Crystallographic Data Centre
#                                CCDC 
#
#######################################################################
#
# If this CIF has been generated from an entry in the Cambridge 
# Structural Database, then it will include bibliographic, chemical, 
# crystal, experimental, refinement or atomic coordinate data resulting 
# from the CCDC's data processing and validation procedures.
#
#######################################################################

data_IVULOA
_chemical_formula_moiety         'C28 H33 N3 O4 Si1'
_chemical_name_systematic        
exo-1'-Benzyl-5-((t-butyl(dimethyl)silyl)oxy)-2-phenyl-3a,5,6,6a-tetrahydro-1H-spiro(cyclopenta(c)pyrrolo-4,4'-imidazole)-1,3,5'(1'H,2H)-trione
_symmetry_cell_setting           monoclinic
_symmetry_space_group_name_H-M   'P 21/c'
_symmetry_Int_Tables_number      14
_space_group_name_Hall           '-P 2ybc'
loop_
_symmetry_equiv_pos_site_id
_symmetry_equiv_pos_as_xyz
1 x,y,z
2 x,1/2-y,1/2+z
3 -x,-y,-z
4 -x,1/2+y,1/2-z
_cell_length_a                   22.019(4)
_cell_length_b                   10.433(2)
_cell_length_c                   12.030(2)
_cell_angle_alpha                90.00
_cell_angle_beta                 93.25(3)
_cell_angle_gamma                90.00
_cell_volume                     2759.14
_cell_formula_units_Z            4
loop_
_atom_site_label
_atom_site_type_symbol
_atom_site_fract_x
_atom_site_fract_y
_atom_site_fract_z
Si1 Si 0.36682(4) 0.48809(9) 0.13005(9)
O1 O 0.16430(13) 0.8567(3) 0.3600(3)
O2 O 0.05276(10) 0.5126(2) 0.2380(2)
O3 O 0.30340(9) 0.4978(2) 0.1954(2)
O4 O 0.17739(10) 0.3474(2) 0.0304(2)
N1 N 0.09858(10) 0.6920(2) 0.3149(2)
N2 N 0.17827(11) 0.2792(2) 0.2133(2)
N3 N 0.19476(10) 0.4642(2) 0.3086(2)
C1 C 0.14805(15) 0.7700(3) 0.2987(3)
C2 C 0.09220(13) 0.5925(3) 0.2395(2)
C3 C 0.19218(13) 0.4954(3) 0.1897(2)
C4 C 0.25075(13) 0.5644(3) 0.1588(3)
H1 H 0.25032(13) 0.5749(3) 0.0794(3)
C5 C 0.24482(14) 0.6959(3) 0.2114(3)
H2 H 0.26998(14) 0.7587(3) 0.1780(3)
H3 H 0.25608(14) 0.6903(3) 0.2895(3)
C6 C 0.14481(12) 0.6014(3) 0.1635(3)
H4 H 0.13083(12) 0.6000(3) 0.0865(3)
C7 C 0.17732(13) 0.7266(3) 0.1948(3)
H5 H 0.17132(13) 0.7896(3) 0.1370(3)
C8 C 0.06137(13) 0.7045(3) 0.4094(2)
C9 C 0.06693(14) 0.6149(3) 0.4922(3)
H6 H 0.09604(14) 0.5470(3) 0.4871(3)
C10 C 0.0314(2) 0.6231(4) 0.5829(3)
H7 H 0.0353(2) 0.5604(4) 0.6413(3)
C11 C -0.0095(2) 0.7218(4) 0.5877(3)
H8 H -0.0349(2) 0.7266(4) 0.6497(3)
C12 C -0.0150(2) 0.8128(4) 0.5049(3)
H9 H -0.0437(2) 0.8816(4) 0.5099(3)
C13 C 0.0213(2) 0.8031(4) 0.4141(3)
H10 H 0.0188(2) 0.8663(4) 0.3560(3)
C14 C 0.18125(12) 0.3687(3) 0.1296(3)
C15 C 0.1734(2) 0.1410(3) 0.1986(3)
H11 H 0.1445(2) 0.1240(3) 0.1377(3)
H12 H 0.1583(2) 0.1035(3) 0.2645(3)
C16 C 0.18694(14) 0.3441(3) 0.3135(3)
H13 H 0.18671(14) 0.2998(3) 0.3834(3)
C17 C 0.3733(2) 0.6258(4) 0.0328(4)
H14 H 0.3407(2) 0.6212(4) -0.0236(4)
H15 H 0.3704(2) 0.7045(4) 0.0735(4)
H16 H 0.4116(2) 0.6229(4) -0.0016(4)
C18 C 0.3663(3) 0.3359(4) 0.0517(4)
H17 H 0.3338(3) 0.3384(4) -0.0050(4)
H18 H 0.4043(3) 0.3238(4) 0.0178(4)
H19 H 0.3597(3) 0.2663(4) 0.1018(4)
C19 C 0.4293(2) 0.4902(5) 0.2417(4)
C20 C 0.4262(3) 0.6201(6) 0.3059(5)
H20 H 0.4576(3) 0.6250(6) 0.3644(5)
H21 H 0.4315(3) 0.6881(6) 0.2535(5)
H22 H 0.3872(3) 0.6284(6) 0.3370(5)
C21 C 0.4214(2) 0.3763(6) 0.3216(5)
H23 H 0.4533(2) 0.3773(6) 0.3795(5)
H24 H 0.3827(2) 0.3828(6) 0.3541(5)
H25 H 0.4232(2) 0.2976(6) 0.2805(5)
C22 C 0.4908(2) 0.4794(7) 0.1868(6)
H26 H 0.5237(2) 0.4805(7) 0.2426(6)
H27 H 0.4908(2) 0.3993(7) 0.1474(6)
H28 H 0.4957(2) 0.5485(7) 0.1354(6)
C23 C 0.23336(15) 0.0801(3) 0.1752(3)
C24 C 0.2799(2) 0.0754(4) 0.2559(3)
H29 H 0.2734(2) 0.1068(4) 0.3293(3)
C25 C 0.3354(2) 0.0251(4) 0.2324(4)
H30 H 0.3675(2) 0.0208(4) 0.2897(4)
C26 C 0.3459(2) -0.0184(3) 0.1268(4)
H31 H 0.3851(2) -0.0502(3) 0.1092(4)
C27 C 0.2990(2) -0.0156(3) 0.0483(3)
H32 H 0.3057(2) -0.0481(3) -0.0246(3)
C28 C 0.2433(2) 0.0334(3) 0.0713(3)
H33 H 0.2112(2) 0.0353(3) 0.0139(3)
loop_
_geom_bond_atom_site_label_1
_geom_bond_atom_site_label_2
_geom_bond_site_symmetry_1
_geom_bond_site_symmetry_2
Si1 O3 1_555 1_555
O1 C1 1_555 1_555
O2 C2 1_555 1_555
O3 C4 1_555 1_555
O4 C14 1_555 1_555
N1 C1 1_555 1_555
N2 C14 1_555 1_555
N3 C3 1_555 1_555
C1 C7 1_555 1_555
C2 N1 1_555 1_555
C3 C4 1_555 1_555
C4 H1 1_555 1_555
C5 C4 1_555 1_555
H2 C5 1_555 1_555
H3 C5 1_555 1_555
C6 C2 1_555 1_555
H4 C6 1_555 1_555
C7 C5 1_555 1_555
H5 C7 1_555 1_555
C8 N1 1_555 1_555
C9 C8 1_555 1_555
H6 C9 1_555 1_555
C10 C9 1_555 1_555
H7 C10 1_555 1_555
C11 C10 1_555 1_555
H8 C11 1_555 1_555
C12 C11 1_555 1_555
H9 C12 1_555 1_555
C13 C8 1_555 1_555
H10 C13 1_555 1_555
C14 C3 1_555 1_555
C15 N2 1_555 1_555
H11 C15 1_555 1_555
H12 C15 1_555 1_555
C16 N2 1_555 1_555
H13 C16 1_555 1_555
C17 Si1 1_555 1_555
H14 C17 1_555 1_555
H15 C17 1_555 1_555
H16 C17 1_555 1_555
C18 Si1 1_555 1_555
H17 C18 1_555 1_555
H18 C18 1_555 1_555
H19 C18 1_555 1_555
C19 Si1 1_555 1_555
C20 C19 1_555 1_555
H20 C20 1_555 1_555
H21 C20 1_555 1_555
H22 C20 1_555 1_555
C21 C19 1_555 1_555
H23 C21 1_555 1_555
H24 C21 1_555 1_555
H25 C21 1_555 1_555
C22 C19 1_555 1_555
H26 C22 1_555 1_555
H27 C22 1_555 1_555
H28 C22 1_555 1_555
C23 C15 1_555 1_555
C24 C23 1_555 1_555
H29 C24 1_555 1_555
C25 C24 1_555 1_555
H30 C25 1_555 1_555
C26 C25 1_555 1_555
H31 C26 1_555 1_555
C27 C26 1_555 1_555
H32 C27 1_555 1_555
C28 C23 1_555 1_555
H33 C28 1_555 1_555
N3 C16 1_555 1_555
C3 C6 1_555 1_555
C6 C7 1_555 1_555
C12 C13 1_555 1_555
C27 C28 1_555 1_555

#END
