
#######################################################################
#
#                 Cambridge Crystallographic Data Centre
#                                CCDC 
#
#######################################################################
#
# If this CIF has been generated from an entry in the Cambridge 
# Structural Database, then it will include bibliographic, chemical, 
# crystal, experimental, refinement or atomic coordinate data resulting 
# from the CCDC's data processing and validation procedures.
#
#######################################################################

data_IWADOB
_chemical_formula_moiety         'C26 H23 N5 O1'
_chemical_name_systematic        
1,5-dimethyl-2-phenyl-4-(((1-(pyridin-2-ylmethyl)-1H-indol-3-yl)methylene)amino)-1,2-dihydro-3H-pyrazol-3-one
_symmetry_cell_setting           monoclinic
_symmetry_space_group_name_H-M   'C 2/c'
_symmetry_Int_Tables_number      15
_space_group_name_Hall           '-C 2yn'
loop_
_symmetry_equiv_pos_site_id
_symmetry_equiv_pos_as_xyz
1 x,y,z
2 -x,y,1/2-z
3 1/2+x,1/2+y,z
4 1/2-x,1/2+y,1/2-z
5 -x,-y,-z
6 x,-y,1/2+z
7 1/2-x,1/2-y,-z
8 1/2+x,1/2-y,1/2+z
_cell_length_a                   37.273(3)
_cell_length_b                   7.0209(6)
_cell_length_c                   17.6899(14)
_cell_angle_alpha                90
_cell_angle_beta                 108.451(4)
_cell_angle_gamma                90
_cell_volume                     4391.3
_exptl_crystal_colour            yellow
_exptl_crystal_description       rectangular
_cell_formula_units_Z            8
loop_
_atom_site_label
_atom_site_type_symbol
_atom_site_fract_x
_atom_site_fract_y
_atom_site_fract_z
O1 O 0.73739(3) 0.89561(15) 0.18369(8)
N1 N 0.57473(3) 0.98499(17) 0.21069(7)
N2 N 0.66517(3) 0.63521(17) 0.14241(7)
N3 N 0.76208(3) 0.62934(16) 0.13987(7)
N4 N 0.74735(3) 0.45586(16) 0.10218(7)
N5 N 0.54559(4) 1.16513(19) 0.37704(8)
C1 C 0.58713(4) 0.7135(2) 0.15445(8)
C2 C 0.56190(4) 1.0499(2) 0.33762(8)
C3 C 0.55901(4) 0.8147(2) 0.17550(8)
C4 C 0.62080(4) 0.8287(2) 0.17920(8)
C5 C 0.79434(4) 0.71194(19) 0.12706(8)
C6 C 0.61183(4) 0.9891(2) 0.21351(8)
H1 H 0.6286 1.0872 0.2357
C7 C 0.65772(4) 0.7920(2) 0.17168(8)
H2 H 0.6765 0.8841 0.1884
C8 C 0.73362(4) 0.7309(2) 0.15807(9)
C9 C 0.70138(4) 0.6047(2) 0.13728(8)
C10 C 0.71114(4) 0.4424(2) 0.10642(8)
C11 C 0.55765(4) 1.1149(2) 0.25365(8)
H3 H 0.5310 1.1279 0.2243
H4 H 0.5692 1.2394 0.2559
C12 C 0.52266(4) 0.7443(2) 0.16108(9)
H5 H 0.5045 0.8127 0.1757
C13 C 0.81550(4) 0.8430(2) 0.18211(9)
H6 H 0.8085 0.8754 0.2265
C14 C 0.57779(4) 0.5363(2) 0.11684(9)
H7 H 0.5957 0.4664 0.1021
C15 C 0.80487(5) 0.6638(2) 0.06101(9)
H8 H 0.7902 0.5797 0.0231
C16 C 0.58076(5) 0.8865(2) 0.37110(9)
H9 H 0.5916 0.8079 0.3419
C17 C 0.77290(4) 0.2912(2) 0.12442(10)
H10 H 0.7747 0.2506 0.1773
H11 H 0.7975 0.3266 0.1229
H12 H 0.7632 0.1889 0.0876
C18 C 0.83751(5) 0.7426(3) 0.05217(11)
H13 H 0.8453 0.7067 0.0093
C19 C 0.84701(4) 0.9247(2) 0.17025(11)
H14 H 0.8607 1.0158 0.2060
C20 C 0.54169(5) 0.4678(2) 0.10222(10)
H15 H 0.5353 0.3507 0.0770
C21 C 0.51442(5) 0.5699(3) 0.12439(11)
H16 H 0.4903 0.5190 0.1142
C22 C 0.85832(5) 0.8731(3) 0.10629(12)
H17 H 0.8800 0.9264 0.0997
C23 C 0.58342(5) 0.8411(3) 0.44861(10)
H18 H 0.5960 0.7314 0.4724
C24 C 0.56727(6) 0.9600(3) 0.48985(10)
H19 H 0.5689 0.9337 0.5424
C25 C 0.54868(6) 1.1186(3) 0.45208(10)
H20 H 0.5376 1.1985 0.4802
C26 C 0.68806(5) 0.2690(3) 0.07915(12)
H21 H 0.6848 0.2476 0.0238
H22 H 0.6638 0.2855 0.0862
H23 H 0.7006 0.1615 0.1097
loop_
_geom_bond_atom_site_label_1
_geom_bond_atom_site_label_2
_geom_bond_site_symmetry_1
_geom_bond_site_symmetry_2
O1 C8 1_555 1_555
N1 C3 1_555 1_555
N2 C7 1_555 1_555
N3 N4 1_555 1_555
N4 C10 1_555 1_555
N5 C2 1_555 1_555
C1 C3 1_555 1_555
C2 C11 1_555 1_555
C3 C12 1_555 1_555
C4 C1 1_555 1_555
C5 N3 1_555 1_555
C6 N1 1_555 1_555
H1 C6 1_555 1_555
C7 C4 1_555 1_555
H2 C7 1_555 1_555
C8 N3 1_555 1_555
C9 N2 1_555 1_555
C10 C9 1_555 1_555
C11 N1 1_555 1_555
H3 C11 1_555 1_555
H4 C11 1_555 1_555
C12 H5 1_555 1_555
C13 C5 1_555 1_555
H6 C13 1_555 1_555
C14 C1 1_555 1_555
H7 C14 1_555 1_555
C15 C5 1_555 1_555
H8 C15 1_555 1_555
C16 C2 1_555 1_555
H9 C16 1_555 1_555
C17 N4 1_555 1_555
H10 C17 1_555 1_555
H11 C17 1_555 1_555
H12 C17 1_555 1_555
C18 C15 1_555 1_555
H13 C18 1_555 1_555
C19 C13 1_555 1_555
H14 C19 1_555 1_555
C20 C14 1_555 1_555
H15 C20 1_555 1_555
C21 C12 1_555 1_555
H16 C21 1_555 1_555
C22 C18 1_555 1_555
H17 C22 1_555 1_555
C23 C16 1_555 1_555
H18 C23 1_555 1_555
C24 C23 1_555 1_555
H19 C24 1_555 1_555
C25 N5 1_555 1_555
H20 C25 1_555 1_555
C26 C10 1_555 1_555
H21 C26 1_555 1_555
H22 C26 1_555 1_555
H23 C26 1_555 1_555
C4 C6 1_555 1_555
C8 C9 1_555 1_555
C19 C22 1_555 1_555
C20 C21 1_555 1_555
C24 C25 1_555 1_555

#END
