
#######################################################################
#
#                 Cambridge Crystallographic Data Centre
#                                CCDC 
#
#######################################################################
#
# If this CIF has been generated from an entry in the Cambridge 
# Structural Database, then it will include bibliographic, chemical, 
# crystal, experimental, refinement or atomic coordinate data resulting 
# from the CCDC's data processing and validation procedures.
#
#######################################################################

data_IWARON
_chemical_formula_moiety         'C20 H14 O2,2(C9 H7 N1)'
_chemical_name_systematic        
"2,2'-Dihydroxy-1,1'-binaphthyl bis(quinoline) clathrate"
_symmetry_cell_setting           monoclinic
_symmetry_space_group_name_H-M   'C 2/c'
_symmetry_Int_Tables_number      15
_space_group_name_Hall           '-C 2yn'
loop_
_symmetry_equiv_pos_site_id
_symmetry_equiv_pos_as_xyz
1 x,y,z
2 1/2+x,1/2+y,z
3 x,-y,1/2+z
4 1/2+x,1/2-y,1/2+z
5 -x,-y,-z
6 1/2-x,1/2-y,-z
7 -x,y,1/2-z
8 1/2-x,1/2+y,1/2-z
_cell_length_a                   18.1633(8)
_cell_length_b                   11.0249(5)
_cell_length_c                   14.0928(8)
_cell_angle_alpha                90
_cell_angle_beta                 97.171(2)
_cell_angle_gamma                90
_cell_volume                     2799.99
_exptl_crystal_colour            colorless
_exptl_crystal_description       prism
_cell_formula_units_Z            4
loop_
_atom_site_label
_atom_site_type_symbol
_atom_site_fract_x
_atom_site_fract_y
_atom_site_fract_z
O1 O 0.47260(8) 0.78976(13) 0.37095(11)
C1 C 0.45881(9) 0.64266(15) 0.25022(13)
H1 H 0.4484(16) 0.850(2) 0.4074(19)
C2 C 0.33507(10) 0.56238(16) 0.19074(15)
C3 C 0.41287(10) 0.56434(15) 0.18776(14)
C4 C 0.44240(11) 0.48712(16) 0.12172(14)
H2 H 0.4938 0.4878 0.1185
C5 C 0.29073(11) 0.48250(18) 0.12896(17)
H3 H 0.2392 0.4806 0.1309
C6 C 0.42681(11) 0.71776(16) 0.31149(14)
C7 C 0.34939(11) 0.71662(18) 0.31332(15)
H4 H 0.3283 0.7686 0.3554
C8 C 0.30481(11) 0.64170(17) 0.25533(15)
H5 H 0.2533 0.6422 0.2579
C11 C 0.39814(12) 0.41167(17) 0.06253(16)
H6 H 0.4191 0.3618 0.0189
C12 C 0.32084(12) 0.40851(19) 0.06684(18)
H7 H 0.2904 0.3556 0.0270
C1F C 0.54119(9) 0.64266(15) 0.24978(13)
C3F C 0.58713(10) 0.56434(15) 0.31224(14)
C2F C 0.66493(10) 0.56238(16) 0.30926(15)
C5F C 0.70927(11) 0.48250(18) 0.37104(17)
H3F H 0.7608 0.4806 0.3691
C12F C 0.67916(12) 0.40851(19) 0.43316(18)
C11F C 0.60186(12) 0.41167(17) 0.43747(16)
C4F C 0.55760(11) 0.48712(16) 0.37828(14)
H2F H 0.5062 0.4878 0.3815
H6F H 0.5809 0.3618 0.4811
H7F H 0.7096 0.3556 0.4730
C8F C 0.69519(11) 0.64170(17) 0.24467(15)
C7F C 0.65061(11) 0.71662(18) 0.18668(15)
C6F C 0.57319(11) 0.71776(16) 0.18851(14)
O1F O 0.52740(8) 0.78976(13) 0.12905(11)
H1F H 0.5516(16) 0.850(2) 0.0926(19)
H4F H 0.6717 0.7686 0.1446
H5F H 0.7467 0.6422 0.2421
N1 N 0.40754(9) 0.96350(15) 0.47010(13)
C9 C 0.39890(10) 1.07968(18) 0.43550(14)
C10 C 0.36580(10) 1.17110(17) 0.48600(14)
C13 C 0.34310(12) 1.14019(19) 0.57427(15)
H8 H 0.3215 1.1992 0.6102
C14 C 0.35228(13) 1.0256(2) 0.60774(16)
H9 H 0.3370 1.0038 0.6667
C15 C 0.38494(13) 0.94038(19) 0.55294(17)
H10 H 0.3911 0.8611 0.5771
C16 C 0.35672(13) 1.28849(19) 0.44580(18)
H11 H 0.3350 1.3502 0.4790
C17 C 0.42278(12) 1.1081(2) 0.34660(16)
H12 H 0.4458 1.0485 0.3127
C18 C 0.37911(14) 1.3122(2) 0.3601(2)
H13 H 0.3723 1.3903 0.3336
C19 C 0.41237(14) 1.2219(3) 0.31003(19)
H14 H 0.4277 1.2402 0.2504
loop_
_geom_bond_atom_site_label_1
_geom_bond_atom_site_label_2
_geom_bond_site_symmetry_1
_geom_bond_site_symmetry_2
O1 H1 1_555 1_555
C1 C3 1_555 1_555
C2 C3 1_555 1_555
C3 C4 1_555 1_555
C4 H2 1_555 1_555
C5 C2 1_555 1_555
H3 C5 1_555 1_555
C6 O1 1_555 1_555
N1 C9 1_555 1_555
C7 C6 1_555 1_555
H4 C7 1_555 1_555
C8 C2 1_555 1_555
H5 C8 1_555 1_555
C9 C10 1_555 1_555
C10 C13 1_555 1_555
C11 C4 1_555 1_555
H6 C11 1_555 1_555
C12 C5 1_555 1_555
H7 C12 1_555 1_555
C13 H8 1_555 1_555
C14 C13 1_555 1_555
H9 C14 1_555 1_555
C15 N1 1_555 1_555
H10 C15 1_555 1_555
C16 C10 1_555 1_555
H11 C16 1_555 1_555
C17 C9 1_555 1_555
H12 C17 1_555 1_555
C18 C16 1_555 1_555
H13 C18 1_555 1_555
C19 C17 1_555 1_555
H14 C19 1_555 1_555
C1F C1 1_555 1_555
C3F C1F 1_555 1_555
C2F C3F 1_555 1_555
C5F C2F 1_555 1_555
H3F C5F 1_555 1_555
C12F C5F 1_555 1_555
C11F C12F 1_555 1_555
C4F C3F 1_555 1_555
H2F C4F 1_555 1_555
H6F C11F 1_555 1_555
H7F C12F 1_555 1_555
C8F C2F 1_555 1_555
C7F C8F 1_555 1_555
C6F C1F 1_555 1_555
O1F C6F 1_555 1_555
H1F O1F 1_555 1_555
H4F C7F 1_555 1_555
H5F C8F 1_555 1_555
C1 C6 1_555 1_555
C7 C8 1_555 1_555
C11 C12 1_555 1_555
C14 C15 1_555 1_555
C18 C19 1_555 1_555
C11F C4F 1_555 1_555
C7F C6F 1_555 1_555

#END
