
#######################################################################
#
#                 Cambridge Crystallographic Data Centre
#                                CCDC 
#
#######################################################################
#
# If this CIF has been generated from an entry in the Cambridge 
# Structural Database, then it will include bibliographic, chemical, 
# crystal, experimental, refinement or atomic coordinate data resulting 
# from the CCDC's data processing and validation procedures.
#
#######################################################################

data_IWASEE
_chemical_formula_moiety         'C20 H14 O2,2(C10 H9 N1)'
_chemical_name_systematic        
"2,2'-Dihydroxy-1,1'-binaphthyl bis(8-methylquinoline) clathrate"
_symmetry_cell_setting           monoclinic
_symmetry_space_group_name_H-M   'C 2/c'
_symmetry_Int_Tables_number      15
_space_group_name_Hall           '-C 2yn'
loop_
_symmetry_equiv_pos_site_id
_symmetry_equiv_pos_as_xyz
1 x,y,z
2 1/2+x,1/2+y,z
3 x,-y,1/2+z
4 1/2+x,1/2-y,1/2+z
5 -x,-y,-z
6 1/2-x,1/2-y,-z
7 -x,y,1/2-z
8 1/2-x,1/2+y,1/2-z
_cell_length_a                   14.4495(3)
_cell_length_b                   11.0481(3)
_cell_length_c                   19.6571(6)
_cell_angle_alpha                90
_cell_angle_beta                 105.1000(10)
_cell_angle_gamma                90
_cell_volume                     3029.7
_exptl_crystal_colour            colorless
_exptl_crystal_description       prism
_cell_formula_units_Z            4
loop_
_atom_site_label
_atom_site_type_symbol
_atom_site_fract_x
_atom_site_fract_y
_atom_site_fract_z
C1 C 0.02806(12) 0.53714(15) 0.22273(9)
C2 C 0.15659(13) 0.45283(16) 0.17484(10)
C3 C 0.10369(12) 0.45221(15) 0.22671(9)
C4 C 0.00692(12) 0.61851(16) 0.16791(10)
C5 C 0.12858(13) 0.36455(17) 0.28075(10)
H1 H 0.0948 0.3621 0.3156
C6 C 0.05872(15) 0.61758(18) 0.11575(11)
H2 H 0.0428 0.6730 0.0782
C7 C 0.23164(14) 0.36743(19) 0.18020(12)
H3 H 0.2673 0.3683 0.1464
C8 C 0.20085(14) 0.28319(19) 0.28336(11)
H4 H 0.2155 0.2254 0.3197
C9 C 0.25296(15) 0.2850(2) 0.23278(12)
H5 H 0.3027 0.2290 0.2352
C10 C 0.13105(15) 0.53747(18) 0.11944(11)
H6 H 0.1647 0.5384 0.0845
O1 O -0.06544(10) 0.69967(12) 0.16339(7)
H16 H -0.0607(18) 0.7596(18) 0.1284(10)
C1F C -0.02806(12) 0.53714(15) 0.27727(9)
C3F C -0.10369(12) 0.45221(15) 0.27329(9)
C2F C -0.15659(13) 0.45283(16) 0.32516(10)
C7F C -0.23164(14) 0.36743(19) 0.31980(12)
H3F H -0.2673 0.3683 0.3536
C9F C -0.25296(15) 0.2850(2) 0.26722(12)
C8F C -0.20085(14) 0.28319(19) 0.21664(11)
C5F C -0.12858(13) 0.36455(17) 0.21925(10)
H1F H -0.0948 0.3621 0.1844
H4F H -0.2155 0.2254 0.1803
H5F H -0.3027 0.2290 0.2648
C10F C -0.13105(15) 0.53747(18) 0.38056(11)
C6F C -0.05872(15) 0.61758(18) 0.38425(11)
C4F C -0.00692(12) 0.61851(16) 0.33209(10)
O1F O 0.06544(10) 0.69967(12) 0.33661(7)
H16F H 0.0607(18) 0.7596(18) 0.3716(10)
H2F H -0.0428 0.6730 0.4218
H6F H -0.1647 0.5384 0.4155
C11 C -0.07741(13) 1.00041(16) 0.06149(10)
C12 C -0.13748(14) 1.0769(2) 0.00954(11)
N1 N -0.08652(13) 0.87660(16) 0.05610(10)
C13 C -0.00664(15) 1.0520(2) 0.11715(11)
C14 C -0.12504(16) 1.2037(2) 0.01624(13)
H7 H -0.1650 1.2555 -0.0166
C15 C -0.20433(17) 1.0240(2) -0.04601(12)
H8 H -0.2458 1.0728 -0.0798
C16 C -0.05612(19) 1.2504(2) 0.06952(14)
H9 H -0.0473 1.3347 0.0730
C17 C -0.20992(19) 0.9009(3) -0.05166(13)
H10 H -0.2536 0.8638 -0.0898
C18 C 0.00295(18) 1.1739(2) 0.12011(13)
H11 H 0.0504 1.2087 0.1570
C19 C -0.14953(18) 0.8324(2) 0.00033(13)
H12 H -0.1536 0.7477 -0.0043
C20 C 0.05822(18) 0.9707(3) 0.17100(13)
H13 H 0.1010 1.0200 0.2065
H14 H 0.0956 0.9201 0.1478
H15 H 0.0196 0.9200 0.1932
loop_
_geom_bond_atom_site_label_1
_geom_bond_atom_site_label_2
_geom_bond_site_symmetry_1
_geom_bond_site_symmetry_2
C1 C3 1_555 1_555
C2 C3 1_555 1_555
C3 C5 1_555 1_555
C4 C1 1_555 1_555
C5 H1 1_555 1_555
C6 C4 1_555 1_555
H2 C6 1_555 1_555
C7 C2 1_555 1_555
H3 C7 1_555 1_555
C8 C5 1_555 1_555
H4 C8 1_555 1_555
C9 C7 1_555 1_555
H5 C9 1_555 1_555
C10 C2 1_555 1_555
H6 C10 1_555 1_555
C11 C12 1_555 1_555
C12 C14 1_555 1_555
N1 C11 1_555 1_555
C13 C11 1_555 1_555
C14 H7 1_555 1_555
C15 C12 1_555 1_555
H8 C15 1_555 1_555
C16 C14 1_555 1_555
H9 C16 1_555 1_555
C17 C15 1_555 1_555
H10 C17 1_555 1_555
C18 C13 1_555 1_555
H11 C18 1_555 1_555
C19 N1 1_555 1_555
H12 C19 1_555 1_555
O1 C4 1_555 1_555
C20 C13 1_555 1_555
H13 C20 1_555 1_555
H14 C20 1_555 1_555
H15 C20 1_555 1_555
H16 O1 1_555 1_555
C1F C1 1_555 1_555
C3F C1F 1_555 1_555
C2F C3F 1_555 1_555
C7F C2F 1_555 1_555
H3F C7F 1_555 1_555
C9F C7F 1_555 1_555
C8F C9F 1_555 1_555
C5F C3F 1_555 1_555
H1F C5F 1_555 1_555
H4F C8F 1_555 1_555
H5F C9F 1_555 1_555
C10F C2F 1_555 1_555
C6F C10F 1_555 1_555
C4F C1F 1_555 1_555
O1F C4F 1_555 1_555
H16F O1F 1_555 1_555
H2F C6F 1_555 1_555
H6F C10F 1_555 1_555
C6 C10 1_555 1_555
C8 C9 1_555 1_555
C16 C18 1_555 1_555
C17 C19 1_555 1_555
C8F C5F 1_555 1_555
C6F C4F 1_555 1_555

#END
