
#######################################################################
#
#                 Cambridge Crystallographic Data Centre
#                                CCDC 
#
#######################################################################
#
# If this CIF has been generated from an entry in the Cambridge 
# Structural Database, then it will include bibliographic, chemical, 
# crystal, experimental, refinement or atomic coordinate data resulting 
# from the CCDC's data processing and validation procedures.
#
#######################################################################

data_IWEKAX
_chemical_formula_moiety         'C21 H17 O1 P1'
_chemical_name_systematic        
'((4-Methylphenyl)ethynyl)(diphenyl)phosphine oxide'
_symmetry_cell_setting           monoclinic
_symmetry_space_group_name_H-M   'P 21'
_symmetry_Int_Tables_number      4
_space_group_name_Hall           'P 2yb'
loop_
_symmetry_equiv_pos_site_id
_symmetry_equiv_pos_as_xyz
1 x,y,z
2 -x,1/2+y,-z
_cell_length_a                   16.357(16)
_cell_length_b                   6.144(6)
_cell_length_c                   17.184(16)
_cell_angle_alpha                90
_cell_angle_beta                 96.038(12)
_cell_angle_gamma                90
_cell_volume                     1717.37
_exptl_crystal_colour            yellow
_exptl_crystal_description       stick
_cell_formula_units_Z            4
loop_
_atom_site_label
_atom_site_type_symbol
_atom_site_fract_x
_atom_site_fract_y
_atom_site_fract_z
C1 C 0.2097(4) 0.4031(14) 0.7766(5)
C2 C 0.1853(4) 0.2890(14) 0.8257(5)
C3 C 0.1636(5) 0.1574(17) 0.8886(5)
C4 C 0.1932(4) -0.0457(17) 0.8992(5)
H1 H 0.2254 -0.1000 0.8621
C5 C 0.1795(4) -0.1788(16) 0.9603(5)
H2 H 0.2002 -0.3198 0.9637
C6 C 0.1327(5) -0.0954(15) 1.0183(5)
C7 C 0.0997(5) 0.1100(17) 1.0077(6)
H3 H 0.0660 0.1622 1.0438
C8 C 0.1145(5) 0.2415(14) 0.9458(6)
H4 H 0.0931 0.3817 0.9413
C9 C 0.1184(5) -0.2331(17) 1.0873(5)
H5 H 0.0964 -0.3714 1.0695
H6 H 0.0802 -0.1616 1.1175
H7 H 0.1696 -0.2549 1.1193
C10 C 0.1937(4) 0.4679(17) 0.6142(5)
C11 C 0.1800(5) 0.618(2) 0.5551(6)
H8 H 0.1996 0.7601 0.5607
C12 C 0.1344(8) 0.546(3) 0.4852(7)
H9 H 0.1266 0.6440 0.4437
C13 C 0.1020(7) 0.348(3) 0.4746(8)
H10 H 0.0707 0.3104 0.4282
C14 C 0.1166(6) 0.203(2) 0.5346(7)
H11 H 0.0951 0.0630 0.5292
C15 C 0.1621(5) 0.2606(17) 0.6021(6)
H12 H 0.1723 0.1572 0.6414
C16 C 0.3535(4) 0.4693(14) 0.7059(4)
C17 C 0.3781(4) 0.2601(14) 0.7248(5)
H13 H 0.3394 0.1563 0.7353
C18 C 0.4625(5) 0.2023(16) 0.7283(5)
H14 H 0.4797 0.0627 0.7431
C19 C 0.5188(5) 0.3571(16) 0.7093(5)
H15 H 0.5742 0.3217 0.7113
C20 C 0.4928(4) 0.560(2) 0.6880(5)
H16 H 0.5306 0.6624 0.6742
C21 C 0.4106(4) 0.6181(14) 0.6864(5)
H17 H 0.3941 0.7587 0.6721
O1 O 0.2437(3) 0.7968(10) 0.7133(3)
P1 P 0.24849(11) 0.5580(4) 0.70283(12)
C22 C 0.7164(4) 0.7238(17) 0.7995(5)
C23 C 0.6936(4) 0.8199(16) 0.8531(5)
C24 C 0.6631(4) 0.9502(17) 0.9157(5)
C25 C 0.6317(4) 1.1595(16) 0.9024(5)
H18 H 0.6318 1.2221 0.8531
C26 C 0.6009(5) 1.2732(16) 0.9607(5)
H19 H 0.5808 1.4133 0.9509
C27 C 0.5989(4) 1.1821(18) 1.0351(5)
C28 C 0.6291(5) 0.9773(18) 1.0458(5)
H20 H 0.6286 0.9144 1.0949
C29 C 0.6608(4) 0.8558(15) 0.9877(5)
H21 H 0.6799 0.7148 0.9974
C30 C 0.5657(5) 1.3101(18) 1.0987(5)
H22 H 0.5124 1.3659 1.0802
H23 H 0.6021 1.4289 1.1137
H24 H 0.5613 1.2176 1.1431
C31 C 0.7000(4) 0.6724(14) 0.6369(4)
C32 C 0.6853(5) 0.5335(18) 0.5757(5)
H25 H 0.7051 0.3917 0.5809
C33 C 0.6427(7) 0.595(2) 0.5071(6)
H26 H 0.6360 0.4987 0.4651
C34 C 0.6099(6) 0.798(2) 0.5007(6)
H27 H 0.5772 0.8366 0.4552
C35 C 0.6237(5) 0.942(2) 0.5580(7)
H28 H 0.6030 1.0829 0.5517
C36 C 0.6699(5) 0.8812(16) 0.6289(5)
H29 H 0.6797 0.9809 0.6695
C37 C 0.8605(4) 0.6608(16) 0.7304(4)
C38 C 0.8873(5) 0.8620(17) 0.7512(5)
H30 H 0.8500 0.9676 0.7636
C39 C 0.9710(5) 0.913(2) 0.7544(5)
H31 H 0.9896 1.0500 0.7705
C40 C 1.0232(6) 0.765(2) 0.7344(6)
H32 H 1.0784 0.8036 0.7361
C41 C 1.0011(6) 0.561(3) 0.7114(6)
H33 H 1.0398 0.4614 0.6978
C42 C 0.9167(5) 0.5046(17) 0.7088(5)
H34 H 0.8988 0.3662 0.6930
O2 O 0.7457(3) 0.3335(11) 0.7332(3)
P2 P 0.75501(11) 0.5726(4) 0.72624(12)
loop_
_geom_bond_atom_site_label_1
_geom_bond_atom_site_label_2
_geom_bond_site_symmetry_1
_geom_bond_site_symmetry_2
C1 C2 1_555 1_555
C2 C3 1_555 1_555
C3 C4 1_555 1_555
C4 H1 1_555 1_555
C5 C4 1_555 1_555
H2 C5 1_555 1_555
C6 C5 1_555 1_555
C7 C6 1_555 1_555
H3 C7 1_555 1_555
C8 C3 1_555 1_555
H4 C8 1_555 1_555
C9 C6 1_555 1_555
H5 C9 1_555 1_555
H6 C9 1_555 1_555
H7 C9 1_555 1_555
C10 C11 1_555 1_555
C11 H8 1_555 1_555
C12 C11 1_555 1_555
H9 C12 1_555 1_555
C13 C12 1_555 1_555
H10 C13 1_555 1_555
C14 C13 1_555 1_555
H11 C14 1_555 1_555
C15 C10 1_555 1_555
H12 C15 1_555 1_555
C16 C17 1_555 1_555
C17 H13 1_555 1_555
C18 C17 1_555 1_555
H14 C18 1_555 1_555
C19 C18 1_555 1_555
H15 C19 1_555 1_555
C20 C19 1_555 1_555
H16 C20 1_555 1_555
C21 C16 1_555 1_555
H17 C21 1_555 1_555
C22 C23 1_555 1_555
C23 C24 1_555 1_555
C24 C25 1_555 1_555
C25 H18 1_555 1_555
C26 C25 1_555 1_555
H19 C26 1_555 1_555
C27 C26 1_555 1_555
C28 C27 1_555 1_555
H20 C28 1_555 1_555
C29 C24 1_555 1_555
H21 C29 1_555 1_555
C30 C27 1_555 1_555
H22 C30 1_555 1_555
H23 C30 1_555 1_555
H24 C30 1_555 1_555
C31 C32 1_555 1_555
C32 H25 1_555 1_555
C33 C32 1_555 1_555
H26 C33 1_555 1_555
C34 C33 1_555 1_555
H27 C34 1_555 1_555
C35 C34 1_555 1_555
H28 C35 1_555 1_555
C36 C31 1_555 1_555
H29 C36 1_555 1_555
C37 C38 1_555 1_555
C38 H30 1_555 1_555
C39 C38 1_555 1_555
H31 C39 1_555 1_555
C40 C39 1_555 1_555
H32 C40 1_555 1_555
C41 C40 1_555 1_555
H33 C41 1_555 1_555
C42 C37 1_555 1_555
H34 C42 1_555 1_555
O1 P1 1_555 1_555
O2 P2 1_555 1_555
P1 C1 1_555 1_555
P2 C22 1_555 1_555
C7 C8 1_555 1_555
C10 P1 1_555 1_555
C14 C15 1_555 1_555
C16 P1 1_555 1_555
C20 C21 1_555 1_555
C28 C29 1_555 1_555
C31 P2 1_555 1_555
C35 C36 1_555 1_555
C37 P2 1_555 1_555
C41 C42 1_555 1_555

#END
