
#######################################################################
#
#                 Cambridge Crystallographic Data Centre
#                                CCDC 
#
#######################################################################
#
# If this CIF has been generated from an entry in the Cambridge 
# Structural Database, then it will include bibliographic, chemical, 
# crystal, experimental, refinement or atomic coordinate data resulting 
# from the CCDC's data processing and validation procedures.
#
#######################################################################

data_IWEYOA
_chemical_formula_moiety         'C15 H12 O3'
_chemical_name_systematic        
1-(4-hydroxy-3-methylphenyl)-2-phenylethane-1,2-dione
_symmetry_cell_setting           monoclinic
_symmetry_space_group_name_H-M   'C 2/c'
_symmetry_Int_Tables_number      15
_space_group_name_Hall           '-C 2yn'
loop_
_symmetry_equiv_pos_site_id
_symmetry_equiv_pos_as_xyz
1 x,y,z
2 -x,y,1/2-z
3 1/2+x,1/2+y,z
4 1/2-x,1/2+y,1/2-z
5 -x,-y,-z
6 x,-y,1/2+z
7 1/2-x,1/2-y,-z
8 1/2+x,1/2-y,1/2+z
_cell_length_a                   13.771(5)
_cell_length_b                   8.568(3)
_cell_length_c                   20.892(8)
_cell_angle_alpha                90
_cell_angle_beta                 100.249(6)
_cell_angle_gamma                90
_cell_volume                     2425.71
_exptl_crystal_colour            brown
_exptl_crystal_description       block
_cell_formula_units_Z            8
loop_
_atom_site_label
_atom_site_type_symbol
_atom_site_fract_x
_atom_site_fract_y
_atom_site_fract_z
C1 C 0.4016(2) 0.4694(3) 0.58925(13)
C2 C 0.3697(2) 0.4003(3) 0.52814(13)
H1 H 0.3049 0.4212 0.5054
C3 C 0.4300(2) 0.3031(3) 0.50041(13)
C4 C 0.5263(2) 0.2757(3) 0.53434(13)
C5 C 0.5594(2) 0.3436(3) 0.59487(13)
H2 H 0.6247 0.3243 0.6171
C6 C 0.4975(2) 0.4390(3) 0.62257(13)
H3 H 0.5197 0.4839 0.6642
C7 C 0.3945(2) 0.2225(3) 0.43430(13)
H4 H 0.3282 0.2598 0.4157
H5 H 0.3929 0.1093 0.4406
H6 H 0.4400 0.2473 0.4046
C8 C 0.3357(2) 0.5754(3) 0.61611(14)
C9 C 0.3643(2) 0.6382(3) 0.68530(14)
C10 C 0.3639(2) 0.8092(3) 0.69546(14)
C11 C 0.3649(2) 0.9130(3) 0.64414(14)
H7 H 0.3634 0.8745 0.6013
C12 C 0.3681(2) 1.0724(3) 0.65564(16)
H8 H 0.3695 1.1432 0.6208
C13 C 0.3694(3) 1.1283(4) 0.71801(17)
H9 H 0.3712 1.2376 0.7259
C14 C 0.3681(3) 1.0252(4) 0.76891(17)
H10 H 0.3687 1.0639 0.8116
C15 C 0.3661(2) 0.8666(4) 0.75779(15)
H11 H 0.3662 0.7962 0.7930
O1 O 0.58426(15) 0.1824(2) 0.50555(10)
H12 H 0.6395(13) 0.174(4) 0.5282(15)
O2 O 0.25348(15) 0.6127(2) 0.58706(10)
O3 O 0.37839(16) 0.5436(2) 0.72966(10)
loop_
_geom_bond_atom_site_label_1
_geom_bond_atom_site_label_2
_geom_bond_site_symmetry_1
_geom_bond_site_symmetry_2
C1 C2 1_555 1_555
C2 H1 1_555 1_555
C3 C2 1_555 1_555
C4 C3 1_555 1_555
C5 C4 1_555 1_555
H2 C5 1_555 1_555
C6 C1 1_555 1_555
H3 C6 1_555 1_555
C7 C3 1_555 1_555
H4 C7 1_555 1_555
H5 C7 1_555 1_555
H6 C7 1_555 1_555
C8 C1 1_555 1_555
C9 C8 1_555 1_555
C10 C9 1_555 1_555
C11 C10 1_555 1_555
H7 C11 1_555 1_555
C12 C11 1_555 1_555
H8 C12 1_555 1_555
C13 C12 1_555 1_555
H9 C13 1_555 1_555
C14 C13 1_555 1_555
H10 C14 1_555 1_555
C15 C10 1_555 1_555
H11 C15 1_555 1_555
O1 C4 1_555 1_555
H12 O1 1_555 1_555
O2 C8 1_555 1_555
O3 C9 1_555 1_555
C5 C6 1_555 1_555
C14 C15 1_555 1_555

#END
