
#######################################################################
#
#                 Cambridge Crystallographic Data Centre
#                                CCDC 
#
#######################################################################
#
# If this CIF has been generated from an entry in the Cambridge 
# Structural Database, then it will include bibliographic, chemical, 
# crystal, experimental, refinement or atomic coordinate data resulting 
# from the CCDC's data processing and validation procedures.
#
#######################################################################

data_IWISUC
_chemical_formula_moiety         'C16 H17 N3 O4,0.5(C4 H8 O2)'
_chemical_name_systematic        
'(10bS)-8,9-Dimethoxy-5,6,10b,11-tetrahydro-2H-12-oxa-2,3,4b-triazachrysen-1-one ethyl acetate solvate'
_symmetry_cell_setting           triclinic
_symmetry_space_group_name_H-M   'P -1'
_symmetry_Int_Tables_number      2
_space_group_name_Hall           '-P 1'
loop_
_symmetry_equiv_pos_site_id
_symmetry_equiv_pos_as_xyz
1 x,y,z
2 -x,-y,-z
_cell_length_a                   9.725(6)
_cell_length_b                   9.870(5)
_cell_length_c                   10.034(4)
_cell_angle_alpha                113.69(2)
_cell_angle_beta                 103.18(3)
_cell_angle_gamma                99.22(3)
_cell_volume                     823.763
_exptl_crystal_colour            colorless
_exptl_crystal_description       block
_chemical_melting_point          228-229deg.C
_cell_formula_units_Z            2
loop_
_atom_site_label
_atom_site_type_symbol
_atom_site_fract_x
_atom_site_fract_y
_atom_site_fract_z
O1 O 0.4643(1) 0.8752(1) 0.5360(1)
O2 O -0.1846(1) 0.7199(1) 0.0873(1)
O3 O 0.0483(1) 0.8860(1) 0.0877(1)
O4 O 0.4901(1) 1.0301(1) 0.8378(1)
N1 N 0.3638(2) 0.5478(2) 0.3925(2)
N2 N 0.4268(2) 0.8045(2) 0.8493(2)
N3 N 0.3769(2) 0.6499(2) 0.7893(2)
C1 C 0.2461(2) 0.4023(2) 0.3068(2)
C2 C 0.0974(2) 0.4333(2) 0.2886(2)
C3 C 0.0920(2) 0.5584(2) 0.2392(2)
C4 C -0.0444(2) 0.5801(2) 0.1880(2)
C5 C -0.0560(2) 0.6901(2) 0.1392(2)
C6 C 0.0709(2) 0.7813(2) 0.1393(2)
C7 C 0.2057(2) 0.7612(2) 0.1909(2)
C8 C 0.2180(2) 0.6511(2) 0.2439(2)
C9 C 0.3676(2) 0.6322(2) 0.3017(2)
C10 C 0.4902(2) 0.7816(2) 0.3972(2)
C11 C 0.4332(2) 0.7954(2) 0.6134(2)
C12 C 0.4525(2) 0.8858(2) 0.7708(2)
C13 C 0.3537(2) 0.5718(2) 0.6425(2)
C14 C 0.3820(2) 0.6381(2) 0.5456(2)
C15 C -0.3098(2) 0.6520(2) 0.1136(2)
C16 C 0.1757(2) 0.9820(2) 0.0884(2)
H1 H 0.2543 0.3469 0.2080
H2 H 0.2551 0.3426 0.3610
H3 H 0.4460 0.8624 0.9567
H4 H 0.0237 0.3414 0.2132
H5 H 0.0793 0.4647 0.3842
H6 H -0.1303 0.5178 0.1868
H7 H 0.2914 0.8226 0.1907
H8 H 0.3927 0.5723 0.2145
H9 H 0.4954 0.8368 0.3389
H10 H 0.5809 0.7586 0.4230
H11 H 0.3152 0.4629 0.5969
H12 H -0.2892 0.6844 0.2207
H13 H -0.3916 0.6834 0.0768
H14 H -0.3322 0.5428 0.0608
H15 H 0.2282 0.9192 0.0336
H16 H 0.1462 1.0431 0.0406
H17 H 0.2373 1.0473 0.1915
O5? O 0.0000 1.0000 0.5000
O6? O 0.1489(3) 1.1735(3) 0.4799(3)
C17? C 0.1207(4) 0.9499(4) 0.5640(4)
C18? C 0.0570(5) 0.8352(5) 0.6120(5)
C19? C 0.0270(4) 1.0996(4) 0.4519(4)
C20? C -0.1114(5) 1.1180(5) 0.3691(5)
H18? H 0.1648 0.9032 0.4885
H19? H 0.1925 1.0358 0.6505
H20? H 0.1335 0.8023 0.6568
H21? H 0.0104 0.8819 0.6852
H22? H -0.0133 0.7488 0.5246
H23? H -0.1666 1.1514 0.4369
H24? H -0.0878 1.1923 0.3343
H25? H -0.1680 1.0219 0.2835
loop_
_geom_bond_atom_site_label_1
_geom_bond_atom_site_label_2
_geom_bond_site_symmetry_1
_geom_bond_site_symmetry_2
O1 C10 1_555 1_555
O2 C5 1_555 1_555
O3 C6 1_555 1_555
O4 C12 1_555 1_555
N1 C1 1_555 1_555
N2 N3 1_555 1_555
N3 C13 1_555 1_555
C1 C2 1_555 1_555
C2 C3 1_555 1_555
C3 C4 1_555 1_555
C4 C5 1_555 1_555
C5 C6 1_555 1_555
C6 C7 1_555 1_555
C7 C8 1_555 1_555
C8 C3 1_555 1_555
C9 N1 1_555 1_555
C10 C9 1_555 1_555
C11 O1 1_555 1_555
C12 N2 1_555 1_555
C13 C14 1_555 1_555
C14 N1 1_555 1_555
C15 O2 1_555 1_555
C16 O3 1_555 1_555
H1 C1 1_555 1_555
H2 C1 1_555 1_555
H3 N2 1_555 1_555
H4 C2 1_555 1_555
H5 C2 1_555 1_555
H6 C4 1_555 1_555
H7 C7 1_555 1_555
H8 C9 1_555 1_555
H9 C10 1_555 1_555
H10 C10 1_555 1_555
H11 C13 1_555 1_555
H12 C15 1_555 1_555
H13 C15 1_555 1_555
H14 C15 1_555 1_555
H15 C16 1_555 1_555
H16 C16 1_555 1_555
H17 C16 1_555 1_555
C8 C9 1_555 1_555
C11 C14 1_555 1_555
C11 C12 1_555 1_555

#END
