
#######################################################################
#
#                 Cambridge Crystallographic Data Centre
#                                CCDC 
#
#######################################################################
#
# If this CIF has been generated from an entry in the Cambridge 
# Structural Database, then it will include bibliographic, chemical, 
# crystal, experimental, refinement or atomic coordinate data resulting 
# from the CCDC's data processing and validation procedures.
#
#######################################################################

data_IWOVEX
_chemical_formula_moiety         'C40 H30 B1 N3 O3,0.5(C1 H2 Cl2)'
_chemical_name_systematic        
'methyl 4-((9c-methoxy-3,9-bis(4-methylphenyl)-9cH-8b\l^5^,9b,9d-triaza-9\L^5^-boratricyclopenta[cd,gh,kl]phenalen-6-yl)ethynyl)benzoate dichloromethane solvate'
_symmetry_cell_setting           monoclinic
_symmetry_space_group_name_H-M   'C 2/c'
_symmetry_Int_Tables_number      15
_space_group_name_Hall           '-C 2yn'
loop_
_symmetry_equiv_pos_site_id
_symmetry_equiv_pos_as_xyz
1 x,y,z
2 -x,y,1/2-z
3 1/2+x,1/2+y,z
4 1/2-x,1/2+y,1/2-z
5 -x,-y,-z
6 x,-y,1/2+z
7 1/2-x,1/2-y,-z
8 1/2+x,1/2-y,1/2+z
_cell_length_a                   32.192(7)
_cell_length_b                   13.514(3)
_cell_length_c                   15.266(4)
_cell_angle_alpha                90
_cell_angle_beta                 108.035(6)
_cell_angle_gamma                90
_cell_volume                     6315.06
_exptl_crystal_colour            orange
_exptl_crystal_description       Prism
_cell_formula_units_Z            8
loop_
_atom_site_label
_atom_site_type_symbol
_atom_site_fract_x
_atom_site_fract_y
_atom_site_fract_z
O1 O 0.23767(3) 0.39682(8) 0.13582(8)
O2 O 0.48009(4) 0.02897(10) 0.83533(9)
N1 N 0.21968(4) 0.42565(10) 0.28272(9)
N2 N 0.21281(4) 0.26287(10) 0.21996(9)
O3 O 0.48238(4) 0.18601(10) 0.88388(9)
N3 N 0.16431(4) 0.39018(10) 0.14241(9)
C1 C 0.19991(5) 0.51323(12) 0.29232(11)
C2 C 0.14454(5) 0.47874(11) 0.14538(11)
C3 C 0.16332(5) 0.54542(12) 0.21929(11)
C4 C 0.37078(5) 0.10277(13) 0.60633(12)
H1 H 0.3584 0.0570 0.5581
C5 C 0.28993(5) 0.25695(12) 0.45681(11)
C6 C 0.14185(5) 0.64216(12) 0.22126(11)
C7 C 0.21970(5) 0.54249(12) 0.38711(11)
H2 H 0.2143 0.6024 0.4143
C8 C 0.40716(5) 0.07629(13) 0.67863(12)
H3 H 0.4194 0.0121 0.6800
C9 C 0.26005(5) 0.29198(12) 0.37340(11)
C10 C 0.23900(5) 0.22527(12) 0.30107(11)
C11 C 0.35219(5) 0.19702(13) 0.60410(11)
C12 C 0.40717(5) 0.23634(13) 0.74829(11)
H4 H 0.4197 0.2819 0.7967
C13 C 0.23120(5) 0.12067(12) 0.29763(11)
H5 H 0.2460 0.0736 0.3428
C14 C 0.13252(5) 0.67847(12) 0.29914(11)
H6 H 0.1392 0.6394 0.3535
C15 C 0.42592(5) 0.14302(13) 0.74932(11)
C16 C 0.24663(5) 0.39271(12) 0.36506(11)
C17 C 0.31685(5) 0.22831(13) 0.52611(11)
C18 C 0.14838(5) 0.22151(12) 0.09474(11)
C19 C 0.24766(5) 0.46888(12) 0.43106(11)
H7 H 0.2647 0.4684 0.4942
C20 C 0.13700(5) 0.32406(12) 0.08504(11)
C21 C 0.10260(5) 0.47227(12) 0.07643(11)
H8 H 0.0815 0.5237 0.0597
C22 C 0.13060(5) 0.70113(12) 0.14239(11)
H9 H 0.1358 0.6774 0.0882
C23 C 0.09815(5) 0.37911(12) 0.03879(11)
H10 H 0.0737 0.3552 -0.0093
C24 C 0.19857(5) 0.10079(12) 0.21741(11)
H11 H 0.1866 0.0374 0.1975
C25 C 0.37036(5) 0.26269(13) 0.67688(11)
H12 H 0.3574 0.3257 0.6773
C26 C 0.11233(6) -0.01513(13) -0.03799(12)
H13 H 0.1258 -0.0706 -0.0563
C27 C 0.13828(6) 0.06085(12) 0.01074(11)
H14 H 0.1691 0.0569 0.0246
C28 C 0.10320(5) 0.83059(12) 0.21912(12)
C29 C 0.18556(5) 0.19248(12) 0.16836(11)
C30 C 0.11359(5) 0.77101(13) 0.29753(12)
H15 H 0.1076 0.7943 0.3511
C31 C 0.28049(6) 0.35905(14) 0.15828(13)
H16 H 0.2966 0.3758 0.2223
H17 H 0.2953 0.3881 0.1172
H18 H 0.2794 0.2870 0.1510
C32 C 0.11969(5) 0.14328(12) 0.03978(11)
C33 C 0.07410(6) 0.14581(13) 0.01805(12)
H19 H 0.0605 0.2003 0.0376
C34 C 0.11192(5) 0.79365(12) 0.14166(12)
H20 H 0.1049 0.8326 0.0872
C35 C 0.46520(6) 0.11170(13) 0.82555(12)
C36 C 0.04853(6) 0.06958(14) -0.03176(13)
H21 H 0.0177 0.0734 -0.0464
C37 C 0.06697(6) -0.01222(13) -0.06080(12)
C38 C 0.08340(7) 0.93180(14) 0.21833(14)
H22 H 0.0780 0.9618 0.1574
H23 H 0.1036 0.9736 0.2649
H24 H 0.0558 0.9258 0.2322
C39 C 0.51884(6) 0.15875(17) 0.96265(14)
H25 H 0.5101 0.1050 0.9963
H26 H 0.5280 0.2161 1.0033
H27 H 0.5432 0.1366 0.9418
B1 B 0.21125(6) 0.37019(13) 0.19276(12)
C40 C 0.03903(7) -0.09349(15) -0.11586(14)
H28 H 0.0327 -0.0797 -0.1817
H29 H 0.0116 -0.0971 -0.1009
H30 H 0.0545 -0.1567 -0.1009
Cl1 Cl 0.4909(4) 0.1811(12) 0.1635(6)
C41 C 0.5000 0.2047(13) 0.2500
H31 H 0.5248 0.2499 0.2550
Cl1A Cl 0.5091(4) 0.1811(12) 0.3365(6)
H31A H 0.4752 0.2499 0.2450
Cl2? Cl 0.48991(4) 0.23771(9) 0.15269(7)
C42? C 0.5000 0.1651(9) 0.2500
H32? H 0.4744 0.1221 0.2447
H33? H 0.4744 0.1221 0.2447
H34? H 0.5248 0.2499 0.2550
loop_
_geom_bond_atom_site_label_1
_geom_bond_atom_site_label_2
_geom_bond_site_symmetry_1
_geom_bond_site_symmetry_2
O1 C31 1_555 1_555
O2 C35 1_555 1_555
N1 C1 1_555 1_555
N2 C10 1_555 1_555
O3 C35 1_555 1_555
N3 C2 1_555 1_555
C1 C3 1_555 1_555
C2 C3 1_555 1_555
C3 C6 1_555 1_555
C4 H1 1_555 1_555
C5 C9 1_555 1_555
C6 C14 1_555 1_555
C7 C1 1_555 1_555
H2 C7 1_555 1_555
C8 C4 1_555 1_555
H3 C8 1_555 1_555
C9 C10 1_555 1_555
C10 C13 1_555 1_555
C11 C4 1_555 1_555
C12 H4 1_555 1_555
C13 H5 1_555 1_555
C14 H6 1_555 1_555
C15 C8 1_555 1_555
C16 N1 1_555 1_555
C17 C5 1_555 1_555
C18 C20 1_555 1_555
C19 C7 1_555 1_555
H7 C19 1_555 1_555
C20 N3 1_555 1_555
C21 C2 1_555 1_555
H8 C21 1_555 1_555
C22 C6 1_555 1_555
H9 C22 1_555 1_555
C23 C20 1_555 1_555
H10 C23 1_555 1_555
C24 C13 1_555 1_555
H11 C24 1_555 1_555
C25 C11 1_555 1_555
H12 C25 1_555 1_555
C26 H13 1_555 1_555
C27 C26 1_555 1_555
H14 C27 1_555 1_555
C28 C30 1_555 1_555
C29 N2 1_555 1_555
C30 C14 1_555 1_555
H15 C30 1_555 1_555
C31 H16 1_555 1_555
H17 C31 1_555 1_555
H18 C31 1_555 1_555
C32 C18 1_555 1_555
C33 C32 1_555 1_555
H19 C33 1_555 1_555
C34 C22 1_555 1_555
H20 C34 1_555 1_555
C35 C15 1_555 1_555
C36 C33 1_555 1_555
H21 C36 1_555 1_555
C37 C26 1_555 1_555
C38 C28 1_555 1_555
H22 C38 1_555 1_555
H23 C38 1_555 1_555
H24 C38 1_555 1_555
C39 O3 1_555 1_555
H25 C39 1_555 1_555
H26 C39 1_555 1_555
H27 C39 1_555 1_555
B1 O1 1_555 1_555
C40 C37 1_555 1_555
H28 C40 1_555 1_555
H29 C40 1_555 1_555
H30 C40 1_555 1_555
Cl1 C41 1_555 1_555
C41 H31 1_555 1_555
Cl1A C41 1_555 1_555
H31A C41 1_555 1_555
N1 B1 1_555 1_555
N2 B1 1_555 1_555
N3 B1 1_555 1_555
C9 C16 1_555 1_555
C11 C17 1_555 1_555
C12 C15 1_555 1_555
C12 C25 1_555 1_555
C16 C19 1_555 1_555
C18 C29 1_555 1_555
C21 C23 1_555 1_555
C24 C29 1_555 1_555
C27 C32 1_555 1_555
C28 C34 1_555 1_555
C36 C37 1_555 1_555

#END
