
#######################################################################
#
#                 Cambridge Crystallographic Data Centre
#                                CCDC 
#
#######################################################################
#
# If this CIF has been generated from an entry in the Cambridge 
# Structural Database, then it will include bibliographic, chemical, 
# crystal, experimental, refinement or atomic coordinate data resulting 
# from the CCDC's data processing and validation procedures.
#
#######################################################################

data_IWUKIV
_chemical_formula_moiety         'C19 H13 N3'
_chemical_name_systematic        
1,4-Diphenyl-1,4-dihydropyridine-3,5-dicarbonitrile
_symmetry_cell_setting           monoclinic
_symmetry_space_group_name_H-M   'P 21/n'
_symmetry_Int_Tables_number      14
_space_group_name_Hall           '-P 2yn'
loop_
_symmetry_equiv_pos_site_id
_symmetry_equiv_pos_as_xyz
1 x,y,z
2 1/2-x,1/2+y,1/2-z
3 -x,-y,-z
4 1/2+x,1/2-y,1/2+z
_cell_length_a                   13.657(3)
_cell_length_b                   8.1149(16)
_cell_length_c                   13.751(3)
_cell_angle_alpha                90
_cell_angle_beta                 94.69(3)
_cell_angle_gamma                90
_cell_volume                     1518.85
_exptl_crystal_colour            colorless
_exptl_crystal_description       block
_cell_formula_units_Z            4
loop_
_atom_site_label
_atom_site_type_symbol
_atom_site_fract_x
_atom_site_fract_y
_atom_site_fract_z
C1 C 0.24493(12) 0.0335(2) 0.72009(11)
C2 C 0.29859(12) -0.0037(2) 0.80702(12)
H1 H 0.2667 -0.0350 0.8613
C3 C 0.39921(13) 0.0060(2) 0.81246(12)
H2 H 0.4354 -0.0175 0.8711
C4 C 0.44707(14) 0.0499(2) 0.73227(13)
H3 H 0.5153 0.0550 0.7363
C5 C 0.39331(14) 0.0863(3) 0.64619(13)
H4 H 0.4255 0.1159 0.5918
C6 C 0.29235(14) 0.0793(2) 0.63965(12)
H5 H 0.2564 0.1054 0.5813
N1 N 0.13993(10) 0.02448(18) 0.71470(10)
C7 C 0.08783(13) -0.0660(2) 0.64304(11)
H6 H 0.1216 -0.1118 0.5936
C8 C -0.00864(12) -0.09083(19) 0.64149(11)
C9 C -0.00821(13) 0.0707(2) 0.79147(11)
C10 C 0.08850(13) 0.0889(2) 0.78800(12)
H7 H 0.1230 0.1480 0.8376
C11 C -0.05553(13) -0.1946(2) 0.56776(12)
C12 C -0.05317(14) 0.1419(3) 0.87142(13)
C13 C -0.15448(11) 0.0861(2) 0.66542(11)
C14 C -0.13454(14) 0.2414(2) 0.63207(13)
H8 H -0.0713 0.2837 0.6424
C15 C -0.20774(19) 0.3357(3) 0.58324(15)
H9 H -0.1938 0.4411 0.5617
C16 C -0.30081(18) 0.2726(4) 0.56692(16)
H10 H -0.3502 0.3355 0.5345
C17 C -0.32076(16) 0.1184(4) 0.59811(17)
H11 H -0.3836 0.0751 0.5856
C18 C -0.24881(14) 0.0258(3) 0.64805(14)
H12 H -0.2639 -0.0786 0.6704
C19 C -0.07407(12) -0.0210(2) 0.71515(11)
H13 H -0.1050 -0.1130 0.7472
N2 N -0.09657(13) -0.2785(2) 0.51187(12)
N3 N -0.09056(15) 0.1961(3) 0.93547(14)
loop_
_geom_bond_atom_site_label_1
_geom_bond_atom_site_label_2
_geom_bond_site_symmetry_1
_geom_bond_site_symmetry_2
C1 C2 1_555 1_555
C2 H1 1_555 1_555
C3 C2 1_555 1_555
H2 C3 1_555 1_555
C4 C3 1_555 1_555
H3 C4 1_555 1_555
C5 C4 1_555 1_555
H4 C5 1_555 1_555
C6 C1 1_555 1_555
H5 C6 1_555 1_555
N1 C1 1_555 1_555
C7 N1 1_555 1_555
H6 C7 1_555 1_555
C8 C7 1_555 1_555
C9 C10 1_555 1_555
C10 N1 1_555 1_555
H7 C10 1_555 1_555
C11 C8 1_555 1_555
C12 C9 1_555 1_555
C13 C14 1_555 1_555
C14 H8 1_555 1_555
C15 C14 1_555 1_555
H9 C15 1_555 1_555
C16 C15 1_555 1_555
H10 C16 1_555 1_555
C17 C16 1_555 1_555
H11 C17 1_555 1_555
C18 C13 1_555 1_555
H12 C18 1_555 1_555
C19 C8 1_555 1_555
H13 C19 1_555 1_555
N2 C11 1_555 1_555
N3 C12 1_555 1_555
C5 C6 1_555 1_555
C9 C19 1_555 1_555
C13 C19 1_555 1_555
C17 C18 1_555 1_555

#END
