
#######################################################################
#
#                 Cambridge Crystallographic Data Centre
#                                CCDC 
#
#######################################################################
#
# If this CIF has been generated from an entry in the Cambridge 
# Structural Database, then it will include bibliographic, chemical, 
# crystal, experimental, refinement or atomic coordinate data resulting 
# from the CCDC's data processing and validation procedures.
#
#######################################################################

data_IWUMUJ
_chemical_formula_moiety         'C18 H15 F3 N4'
_chemical_name_systematic        
6-Phenyl-3-(4-(trifluoromethyl)phenyl)-4,5,6,7-tetrahydro[1,2,3]triazolo[1,5-a]pyrazine
_symmetry_cell_setting           monoclinic
_symmetry_space_group_name_H-M   'P 21'
_symmetry_Int_Tables_number      4
_space_group_name_Hall           'P 2yb'
loop_
_symmetry_equiv_pos_site_id
_symmetry_equiv_pos_as_xyz
1 x,y,z
2 -x,1/2+y,-z
_cell_length_a                   7.9258(4)
_cell_length_b                   16.4316(8)
_cell_length_c                   12.9933(6)
_cell_angle_alpha                90
_cell_angle_beta                 105.595(2)
_cell_angle_gamma                90
_cell_volume                     1629.87
_exptl_crystal_colour            colorless
_exptl_crystal_description       needle
_chemical_melting_point          '190-191 deg.C'
_cell_formula_units_Z            4
loop_
_atom_site_label
_atom_site_type_symbol
_atom_site_fract_x
_atom_site_fract_y
_atom_site_fract_z
C1 C 0.7616(4) 0.20573(18) 0.7974(2)
C2 C 0.4392(4) 0.26600(18) 1.0953(2)
H1 H 0.3640 0.2276 1.0459
C3 C 0.7663(5) 0.2037(2) 0.5841(3)
C4 C 0.7569(4) 0.20293(18) 0.9097(2)
C5 C 0.6130(4) 0.2252(2) 1.1464(2)
H2 H 0.6861 0.2605 1.2000
H3 H 0.5945 0.1747 1.1804
C6 C 0.6560(5) 0.2580(2) 0.7243(3)
H4 H 0.5837 0.2945 0.7469
C7 C 0.8728(5) 0.1542(2) 0.7628(3)
H5 H 0.9468 0.1197 0.8114
C8 C 0.6568(4) 0.24409(17) 0.9640(2)
C9 C 0.3510(4) 0.28976(19) 1.1790(2)
C10 C 0.5222(4) 0.31000(19) 0.9391(2)
H6 H 0.5677 0.3562 0.9085
H7 H 0.4185 0.2904 0.8867
C11 C 0.6568(5) 0.2566(2) 0.6181(3)
H8 H 0.5835 0.2913 0.5694
C12 C 0.3979(5) 0.3576(2) 1.2424(3)
H9 H 0.4830 0.3925 1.2304
C13 C 0.1950(6) 0.3233(3) 1.3423(3)
H10 H 0.1455 0.3338 1.3982
C14 C 0.8754(5) 0.1532(2) 0.6564(3)
H11 H 0.9511 0.1184 0.6342
C15 C 0.2212(5) 0.2404(2) 1.1981(3)
H12 H 0.1854 0.1948 1.1554
C16 C 0.1432(6) 0.2572(3) 1.2794(4)
H13 H 0.0560 0.2233 1.2907
C17 C 0.7657(6) 0.2042(3) 0.4692(3)
C18 C 0.3206(6) 0.3748(3) 1.3237(3)
H14 H 0.3535 0.4211 1.3656
N1 N 0.6968(3) 0.20917(15) 1.06110(18)
N2 N 0.8535(4) 0.14572(17) 0.9771(2)
N3 N 0.8162(3) 0.14980(17) 1.0694(2)
N4 N 0.4753(4) 0.33557(15) 1.0344(2)
H29 H 0.4694 0.3855 1.0529
F1 F 0.7959(9) 0.2730(3) 0.4338(3)
F2 F 0.6182(6) 0.1855(4) 0.4050(3)
F3 F 0.8792(9) 0.1575(5) 0.4489(3)
C19 C 0.2641(4) 1.01854(19) 0.8144(2)
C20 C 0.2608(4) 1.01863(18) 0.9270(2)
C21 C 0.1242(4) 0.9900(2) 1.1653(2)
H15 H 0.0740 1.0396 1.1848
H16 H 0.2116 0.9702 1.2277
C22 C 0.1398(4) 0.98743(17) 0.9754(2)
C23 C -0.1212(4) 0.91716(19) 1.2097(2)
C24 C 0.1627(5) 0.9698(2) 0.6335(3)
H17 H 0.0904 0.9354 0.5840
C25 C 0.2727(5) 1.0219(2) 0.6017(3)
C26 C -0.0189(4) 0.92617(17) 1.1278(2)
H18 H 0.0388 0.8740 1.1235
C27 C 0.1579(5) 0.9678(2) 0.7398(3)
H19 H 0.0825 0.9320 0.7607
C28 C -0.0310(4) 0.9439(2) 0.9405(2)
H20 H -0.1013 0.9688 0.8754
H21 H -0.0096 0.8878 0.9244
C29 C 0.3759(6) 1.0713(3) 0.7811(3)
H22 H 0.4498 1.1054 0.8303
C30 C -0.2985(5) 0.9014(3) 1.3650(3)
H23 H -0.3557 0.8969 1.4186
C31 C -0.3254(5) 0.9693(2) 1.3000(3)
H24 H -0.4026 1.0098 1.3083
C32 C -0.2367(5) 0.9765(2) 1.2227(3)
H25 H -0.2551 1.0220 1.1785
C33 C -0.1008(5) 0.8495(2) 1.2734(3)
H26 H -0.0260 0.8081 1.2643
C34 C 0.3772(6) 1.0730(3) 0.6754(3)
H27 H 0.4503 1.1095 0.6536
C35 C -0.1899(6) 0.8415(3) 1.3514(3)
H28 H -0.1749 0.7952 1.3941
C36 C 0.2789(6) 1.0243(3) 0.4891(3)
N5 N 0.2061(3) 1.00674(16) 1.07902(19)
N6 N 0.3901(4) 1.05561(18) 1.0030(2)
N7 N -0.1297(3) 0.94503(16) 1.02083(19)
H30 H -0.2399 0.9556 1.0069
N8 N 0.3568(4) 1.04787(19) 1.0964(2)
F4 F 0.4233(7) 1.0356(6) 0.4746(4)
F5 F 0.1843(12) 1.0671(6) 0.4330(4)
F6 F 0.2528(13) 0.9563(4) 0.4420(4)
loop_
_geom_bond_atom_site_label_1
_geom_bond_atom_site_label_2
_geom_bond_site_symmetry_1
_geom_bond_site_symmetry_2
C1 C4 1_555 1_555
C2 H1 1_555 1_555
C3 C11 1_555 1_555
C4 C8 1_555 1_555
C5 C2 1_555 1_555
H2 C5 1_555 1_555
H3 C5 1_555 1_555
C6 C1 1_555 1_555
H4 C6 1_555 1_555
C7 C1 1_555 1_555
H5 C7 1_555 1_555
C8 C10 1_555 1_555
C9 C2 1_555 1_555
C10 H6 1_555 1_555
H7 C10 1_555 1_555
C11 C6 1_555 1_555
H8 C11 1_555 1_555
C12 C9 1_555 1_555
H9 C12 1_555 1_555
C13 H10 1_555 1_555
C14 C3 1_555 1_555
H11 C14 1_555 1_555
C15 C9 1_555 1_555
H12 C15 1_555 1_555
C16 C13 1_555 1_555
H13 C16 1_555 1_555
C17 C3 1_555 1_555
C18 C12 1_555 1_555
H14 C18 1_555 1_555
C19 C20 1_555 1_555
C20 C22 1_555 1_555
C21 H15 1_555 1_555
H16 C21 1_555 1_555
C22 C28 1_555 1_555
C23 C26 1_555 1_555
C24 H17 1_555 1_555
C25 C24 1_555 1_555
C26 C21 1_555 1_555
H18 C26 1_555 1_555
C27 C19 1_555 1_555
H19 C27 1_555 1_555
C28 H20 1_555 1_555
H21 C28 1_555 1_555
C29 C19 1_555 1_555
H22 C29 1_555 1_555
C30 H23 1_555 1_555
C31 C30 1_555 1_555
H24 C31 1_555 1_555
C32 C23 1_555 1_555
H25 C32 1_555 1_555
C33 C23 1_555 1_555
H26 C33 1_555 1_555
C34 C25 1_555 1_555
H27 C34 1_555 1_555
C35 C30 1_555 1_555
H28 C35 1_555 1_555
C36 C25 1_555 1_555
N1 C5 1_555 1_555
N2 C4 1_555 1_555
N3 N1 1_555 1_555
N4 C2 1_555 1_555
H29 N4 1_555 1_555
N5 C21 1_555 1_555
N6 C20 1_555 1_555
N7 C26 1_555 1_555
H30 N7 1_555 1_555
N8 N5 1_555 1_555
F1 C17 1_555 1_555
F2 C17 1_555 1_555
F3 C17 1_555 1_555
F4 C36 1_555 1_555
F5 C36 1_555 1_555
F6 C36 1_555 1_555
C7 C14 1_555 1_555
C8 N1 1_555 1_555
C10 N4 1_555 1_555
C13 C18 1_555 1_555
C15 C16 1_555 1_555
C22 N5 1_555 1_555
C24 C27 1_555 1_555
C28 N7 1_555 1_555
C29 C34 1_555 1_555
C31 C32 1_555 1_555
C33 C35 1_555 1_555
N2 N3 1_555 1_555
N6 N8 1_555 1_555

#END
