
#######################################################################
#
#                 Cambridge Crystallographic Data Centre
#                                CCDC 
#
#######################################################################
#
# If this CIF has been generated from an entry in the Cambridge 
# Structural Database, then it will include bibliographic, chemical, 
# crystal, experimental, refinement or atomic coordinate data resulting 
# from the CCDC's data processing and validation procedures.
#
#######################################################################

data_IWUSEA
_chemical_formula_moiety         'C54 H33 N1 O2'
_chemical_name_systematic        
2-(2,6-diisopropylphenyl)-1H-benzo[6'',7'']fluorantheno[10'',1'':5',6',7',8']fluoreno[9',1',2':6,5,10]anthra[2,1,9-def]isoquinoline-1,3(2H)-dione
_symmetry_cell_setting           triclinic
_symmetry_space_group_name_H-M   'P -1'
_symmetry_Int_Tables_number      2
_space_group_name_Hall           '-P 1'
loop_
_symmetry_equiv_pos_site_id
_symmetry_equiv_pos_as_xyz
1 x,y,z
2 -x,-y,-z
_cell_length_a                   12.135(4)
_cell_length_b                   12.35(5)
_cell_length_c                   15.956(9)
_cell_angle_alpha                87.44(4)
_cell_angle_beta                 83.49(3)
_cell_angle_gamma                63.48(3)
_cell_volume                     2125.82
_exptl_crystal_colour            black
_exptl_crystal_description       plate
_cell_formula_units_Z            2
loop_
_atom_site_label
_atom_site_type_symbol
_atom_site_fract_x
_atom_site_fract_y
_atom_site_fract_z
O1 O 0.9202(4) 0.3560(3) 0.0882(2)
O2 O 1.1336(4) 0.2256(3) 0.3187(2)
N1 N 1.0265(4) 0.2913(3) 0.2039(2)
C1 C 1.1221(5) 0.1871(4) 0.1567(3)
C2 C 1.1026(6) 0.0847(5) 0.1517(3)
C3 C 1.2011(6) -0.0181(5) 0.1115(4)
H1 H 1.1926 -0.0889 0.1077
C4 C 1.3087(6) -0.0154(6) 0.0782(4)
H2 H 1.3722 -0.0842 0.0520
C5 C 1.3244(6) 0.0884(6) 0.0829(4)
H3 H 1.3985 0.0883 0.0602
C6 C 1.2310(6) 0.1925(5) 0.1211(3)
C7 C 0.9821(6) 0.0812(5) 0.1867(4)
H4 H 0.9250 0.1627 0.2078
C8 C 0.9205(8) 0.0511(8) 0.1175(5)
H5 H 0.9130 0.1048 0.0707
H6 H 0.8398 0.0608 0.1399
H7 H 0.9706 -0.0310 0.0988
C9 C 0.9998(8) -0.0046(7) 0.2610(5)
H8 H 1.0555 -0.0856 0.2426
H9 H 0.9214 -0.0012 0.2829
H10 H 1.0338 0.0190 0.3042
C10 C 1.2459(6) 0.3084(5) 0.1241(4)
H11 H 1.1701 0.3709 0.1533
C11 C 1.2648(7) 0.3527(6) 0.0349(4)
H12 H 1.3402 0.2935 0.0061
H13 H 1.2696 0.4278 0.0382
H14 H 1.1963 0.3645 0.0046
C12 C 1.3557(9) 0.2893(7) 0.1729(5)
H15 H 1.3442 0.2606 0.2286
H16 H 1.3600 0.3646 0.1769
H17 H 1.4313 0.2308 0.1437
C13 C 0.9251(5) 0.3730(4) 0.1622(3)
C14 C 0.8251(5) 0.4712(4) 0.2139(3)
C15 C 0.8366(5) 0.4863(4) 0.2997(3)
C16 C 0.9428(5) 0.4029(4) 0.3376(3)
C17 C 1.0425(5) 0.3004(5) 0.2892(3)
C18 C 0.7217(5) 0.5501(4) 0.1774(3)
H18 H 0.7162 0.5414 0.1207
C19 C 0.6234(5) 0.6445(5) 0.2255(3)
H19 H 0.5532 0.6955 0.2001
C20 C 0.6294(5) 0.6628(4) 0.3098(3)
C21 C 0.7389(5) 0.5835(4) 0.3478(3)
C22 C 0.7552(5) 0.5980(4) 0.4341(3)
C23 C 0.8591(5) 0.5130(4) 0.4688(3)
H20 H 0.8679 0.5206 0.5251
C24 C 0.9505(5) 0.4166(4) 0.4210(3)
H21 H 1.0183 0.3602 0.4464
C25 C 0.5258(5) 0.7574(4) 0.3622(3)
C26 C 0.4107(5) 0.8352(5) 0.3347(3)
H22 H 0.3962 0.8257 0.2801
C27 C 0.3162(5) 0.9272(4) 0.3863(3)
H23 H 0.2409 0.9767 0.3658
C28 C 0.3361(5) 0.9436(4) 0.4676(3)
C29 C 0.4527(5) 0.8677(4) 0.4941(3)
C30 C 0.4641(5) 0.9028(4) 0.5742(3)
C31 C 0.5760(5) 0.8397(4) 0.6059(3)
H24 H 0.5888 0.8634 0.6570
C32 C 0.6727(5) 0.7385(5) 0.5615(3)
H25 H 0.7465 0.6953 0.5855
C33 C 0.6601(5) 0.7020(4) 0.4823(3)
C34 C 0.5480(5) 0.7732(4) 0.4458(3)
C35 C 0.2660(5) 1.0317(4) 0.5367(3)
C36 C 0.1409(5) 1.1233(5) 0.5466(3)
C37 C 0.0307(6) 1.1341(5) 0.5106(3)
H26 H 0.0407 1.0906 0.4619
C38 C -0.0876(6) 1.2068(5) 0.5468(4)
H27 H -0.1549 1.2095 0.5225
C39 C -0.1101(6) 1.2798(5) 0.6222(4)
C40 C -0.2198(7) 1.3309(6) 0.6832(5)
H28 H -0.2962 1.3441 0.6673
C41 C -0.2117(7) 1.3603(6) 0.7652(5)
H29 H -0.2840 1.3945 0.8019
C42 C -0.0959(7) 1.3398(6) 0.7957(5)
C43 C -0.0599(7) 1.3222(6) 0.8808(4)
H30 H -0.1212 1.3523 0.9259
C44 C 0.0620(7) 1.2626(6) 0.8970(4)
H31 H 0.0809 1.2533 0.9526
C45 C 0.1609(6) 1.2141(5) 0.8297(4)
C46 C 0.2848(7) 1.1182(6) 0.8317(4)
H32 H 0.3180 1.0981 0.8831
C47 C 0.3566(6) 1.0547(5) 0.7599(3)
H33 H 0.4366 0.9950 0.7649
C48 C 0.3113(5) 1.0780(5) 0.6779(3)
C49 C 0.3482(5) 1.0078(4) 0.6007(3)
C50 C 0.1168(5) 1.2024(5) 0.6137(4)
C51 C -0.0059(6) 1.2790(5) 0.6486(4)
C52 C 0.0007(6) 1.3086(5) 0.7326(4)
C53 C 0.1261(6) 1.2466(5) 0.7502(4)
C54 C 0.1995(6) 1.1799(5) 0.6760(3)
loop_
_geom_bond_atom_site_label_1
_geom_bond_atom_site_label_2
_geom_bond_site_symmetry_1
_geom_bond_site_symmetry_2
O1 C13 1_555 1_555
O2 C17 1_555 1_555
N1 C1 1_555 1_555
C1 C2 1_555 1_555
C2 C3 1_555 1_555
C3 H1 1_555 1_555
C4 C3 1_555 1_555
H2 C4 1_555 1_555
C5 C4 1_555 1_555
H3 C5 1_555 1_555
C6 C1 1_555 1_555
C7 C2 1_555 1_555
H4 C7 1_555 1_555
C8 C7 1_555 1_555
H5 C8 1_555 1_555
H6 C8 1_555 1_555
H7 C8 1_555 1_555
C9 C7 1_555 1_555
H8 C9 1_555 1_555
H9 C9 1_555 1_555
H10 C9 1_555 1_555
C10 C6 1_555 1_555
H11 C10 1_555 1_555
C11 C10 1_555 1_555
H12 C11 1_555 1_555
H13 C11 1_555 1_555
H14 C11 1_555 1_555
C12 C10 1_555 1_555
H15 C12 1_555 1_555
H16 C12 1_555 1_555
H17 C12 1_555 1_555
C13 N1 1_555 1_555
C14 C13 1_555 1_555
C15 C14 1_555 1_555
C16 C15 1_555 1_555
C17 N1 1_555 1_555
C18 C14 1_555 1_555
H18 C18 1_555 1_555
C19 C18 1_555 1_555
H19 C19 1_555 1_555
C20 C19 1_555 1_555
C21 C15 1_555 1_555
C22 C21 1_555 1_555
C23 C22 1_555 1_555
H20 C23 1_555 1_555
C24 C16 1_555 1_555
H21 C24 1_555 1_555
C25 C20 1_555 1_555
C26 C25 1_555 1_555
H22 C26 1_555 1_555
C27 C26 1_555 1_555
H23 C27 1_555 1_555
C28 C27 1_555 1_555
C29 C28 1_555 1_555
C30 C29 1_555 1_555
C31 C30 1_555 1_555
H24 C31 1_555 1_555
C32 C31 1_555 1_555
H25 C32 1_555 1_555
C33 C22 1_555 1_555
C34 C25 1_555 1_555
C35 C28 1_555 1_555
C36 C35 1_555 1_555
C37 C36 1_555 1_555
H26 C37 1_555 1_555
C38 C37 1_555 1_555
H27 C38 1_555 1_555
C39 C38 1_555 1_555
C40 C39 1_555 1_555
H28 C40 1_555 1_555
C41 C40 1_555 1_555
H29 C41 1_555 1_555
C42 C41 1_555 1_555
C43 C42 1_555 1_555
H30 C43 1_555 1_555
C44 C43 1_555 1_555
H31 C44 1_555 1_555
C45 C44 1_555 1_555
C46 C45 1_555 1_555
H32 C46 1_555 1_555
C47 C46 1_555 1_555
H33 C47 1_555 1_555
C48 C47 1_555 1_555
C49 C30 1_555 1_555
C50 C36 1_555 1_555
C51 C39 1_555 1_555
C52 C42 1_555 1_555
C53 C45 1_555 1_555
C54 C48 1_555 1_555
C5 C6 1_555 1_555
C16 C17 1_555 1_555
C20 C21 1_555 1_555
C23 C24 1_555 1_555
C29 C34 1_555 1_555
C32 C33 1_555 1_555
C33 C34 1_555 1_555
C35 C49 1_555 1_555
C48 C49 1_555 1_555
C50 C51 1_555 1_555
C50 C54 1_555 1_555
C51 C52 1_555 1_555
C52 C53 1_555 1_555
C53 C54 1_555 1_555

#END
