
#######################################################################
#
#                 Cambridge Crystallographic Data Centre
#                                CCDC 
#
#######################################################################
#
# If this CIF has been generated from an entry in the Cambridge 
# Structural Database, then it will include bibliographic, chemical, 
# crystal, experimental, refinement or atomic coordinate data resulting 
# from the CCDC's data processing and validation procedures.
#
#######################################################################

data_IXACAN
_chemical_formula_moiety         'C19 H24 Br1 N1 O4'
_chemical_name_systematic        
'2-((4-bromobenzoyl)oxy)cyclohexyl piperidine-1-carboxylate'
_symmetry_cell_setting           orthorhombic
_symmetry_space_group_name_H-M   'P 21 21 21'
_symmetry_Int_Tables_number      19
_space_group_name_Hall           'P 2ac 2ab'
loop_
_symmetry_equiv_pos_site_id
_symmetry_equiv_pos_as_xyz
1 x,y,z
2 1/2-x,-y,1/2+z
3 -x,1/2+y,1/2-z
4 1/2+x,1/2-y,-z
_cell_length_a                   9.586(4)
_cell_length_b                   10.266(4)
_cell_length_c                   19.842(8)
_cell_angle_alpha                90
_cell_angle_beta                 90
_cell_angle_gamma                90
_cell_volume                     1952.65
_exptl_crystal_colour            colorless
_exptl_crystal_description       needle
_cell_formula_units_Z            4
loop_
_atom_site_label
_atom_site_type_symbol
_atom_site_fract_x
_atom_site_fract_y
_atom_site_fract_z
Br1 Br 0.48466(5) 0.10032(5) 0.00312(2)
O1 O 0.5499(3) 0.1017(2) -0.33610(11)
C1 C 0.5297(4) 0.1238(4) -0.08953(17)
C2 C 0.4942(4) 0.0649(3) -0.20327(16)
H1 H 0.4519 0.0113 -0.2350
O2 O 0.3054(3) 0.1882(2) -0.38836(11)
N1 N 0.1277(3) 0.2205(3) -0.31802(15)
O3 O 0.6794(3) 0.2786(3) -0.31702(15)
C3 C 0.6129(4) 0.1879(4) -0.29661(17)
O4 O 0.1630(3) 0.0200(3) -0.36430(14)
C4 C 0.4648(4) 0.0480(3) -0.13594(17)
H2 H 0.4008 -0.0149 -0.1224
C5 C 0.5407(4) 0.1287(3) -0.40837(18)
H3 H 0.5641 0.2201 -0.4172
C6 C 0.1954(4) 0.1339(4) -0.35627(17)
C7 C 0.1144(5) 0.2883(4) -0.1790(2)
H4 H 0.1513 0.2753 -0.1339
H5 H 0.0406 0.3528 -0.1763
C8 C 0.3925(4) 0.1028(4) -0.42767(17)
H6 H 0.3690 0.0121 -0.4174
C9 C 0.6515(4) 0.2359(3) -0.1753(2)
H7 H 0.7148 0.2998 -0.1883
C10 C 0.5862(3) 0.1610(3) -0.22432(18)
C11 C 0.3720(4) 0.1278(4) -0.5030(2)
H8 H 0.2760 0.1100 -0.5155
H9 H 0.3920 0.2183 -0.5133
C12 C 0.6243(4) 0.2175(4) -0.1079(2)
H10 H 0.6692 0.2675 -0.0754
C13 C 0.0560(5) 0.1638(4) -0.2044(2)
H11 H -0.0234 0.1391 -0.1769
H12 H 0.1259 0.0959 -0.2003
C14 C 0.0111(4) 0.1742(4) -0.2767(2)
H13 H -0.0196 0.0897 -0.2928
H14 H -0.0666 0.2344 -0.2804
C15 C 0.2295(4) 0.3385(4) -0.2246(2)
H15 H 0.2573 0.4248 -0.2100
H16 H 0.3100 0.2817 -0.2210
C16 C 0.1825(5) 0.3444(3) -0.29709(19)
H17 H 0.1113 0.4108 -0.3020
H18 H 0.2608 0.3679 -0.3256
C17 C 0.4694(5) 0.0397(5) -0.5426(2)
H19 H 0.4431 -0.0504 -0.5352
H20 H 0.4596 0.0581 -0.5904
C18 C 0.6390(5) 0.0409(5) -0.4459(2)
H21 H 0.6213 -0.0490 -0.4336
H22 H 0.7345 0.0617 -0.4338
C19 C 0.6189(5) 0.0583(5) -0.5225(2)
H23 H 0.6492 0.1449 -0.5354
H24 H 0.6766 -0.0044 -0.5462
loop_
_geom_bond_atom_site_label_1
_geom_bond_atom_site_label_2
_geom_bond_site_symmetry_1
_geom_bond_site_symmetry_2
Br1 C1 1_555 1_555
O1 C3 1_555 1_555
C1 C4 1_555 1_555
C2 H1 1_555 1_555
O2 C6 1_555 1_555
N1 C6 1_555 1_555
O3 C3 1_555 1_555
C3 C10 1_555 1_555
O4 C6 1_555 1_555
C4 C2 1_555 1_555
H2 C4 1_555 1_555
C5 O1 1_555 1_555
H3 C5 1_555 1_555
C7 H4 1_555 1_555
H5 C7 1_555 1_555
C8 O2 1_555 1_555
H6 C8 1_555 1_555
C9 H7 1_555 1_555
C10 C2 1_555 1_555
C11 C8 1_555 1_555
H8 C11 1_555 1_555
H9 C11 1_555 1_555
C12 C1 1_555 1_555
H10 C12 1_555 1_555
C13 C7 1_555 1_555
H11 C13 1_555 1_555
H12 C13 1_555 1_555
C14 N1 1_555 1_555
H13 C14 1_555 1_555
H14 C14 1_555 1_555
C15 C7 1_555 1_555
H15 C15 1_555 1_555
H16 C15 1_555 1_555
C16 N1 1_555 1_555
H17 C16 1_555 1_555
H18 C16 1_555 1_555
C17 C11 1_555 1_555
H19 C17 1_555 1_555
H20 C17 1_555 1_555
C18 C5 1_555 1_555
H21 C18 1_555 1_555
H22 C18 1_555 1_555
C19 C17 1_555 1_555
H23 C19 1_555 1_555
H24 C19 1_555 1_555
C5 C8 1_555 1_555
C9 C10 1_555 1_555
C9 C12 1_555 1_555
C13 C14 1_555 1_555
C15 C16 1_555 1_555
C18 C19 1_555 1_555

#END
