
#######################################################################
#
#                 Cambridge Crystallographic Data Centre
#                                CCDC 
#
#######################################################################
#
# If this CIF has been generated from an entry in the Cambridge 
# Structural Database, then it will include bibliographic, chemical, 
# crystal, experimental, refinement or atomic coordinate data resulting 
# from the CCDC's data processing and validation procedures.
#
#######################################################################

data_IXACER
_chemical_formula_moiety         'C18 H15 N1 O1'
_chemical_name_systematic        
6-methyl-5-phenyl-2,3-dihydropyrano[2,3,4-ij]isoquinoline
_symmetry_cell_setting           monoclinic
_symmetry_space_group_name_H-M   'P 21/n'
_symmetry_Int_Tables_number      14
_space_group_name_Hall           '-P 2yn'
loop_
_symmetry_equiv_pos_site_id
_symmetry_equiv_pos_as_xyz
1 x,y,z
2 1/2-x,1/2+y,1/2-z
3 -x,-y,-z
4 1/2+x,1/2-y,1/2+z
_cell_length_a                   12.537(4)
_cell_length_b                   7.148(3)
_cell_length_c                   15.862(3)
_cell_angle_alpha                90
_cell_angle_beta                 108.065(17)
_cell_angle_gamma                90
_cell_volume                     1351.39
_exptl_crystal_colour            colorless
_exptl_crystal_description       prism
_cell_formula_units_Z            4
loop_
_atom_site_label
_atom_site_type_symbol
_atom_site_fract_x
_atom_site_fract_y
_atom_site_fract_z
O1 O 0.14115(13) 0.1701(3) 0.37886(12)
N1 N 0.47798(14) 0.1819(3) 0.39875(11)
C1 C 0.2231(2) 0.1187(5) 0.45757(18)
H1 H 0.2260 -0.0168 0.4600
H2 H 0.1984 0.1608 0.5066
C2 C 0.33639(19) 0.1866(4) 0.47251(15)
H3 H 0.3877 0.1133 0.5191
H4 H 0.3411 0.3156 0.4924
C3 C 0.50848(17) 0.1728(3) 0.32302(13)
C4 C 0.43315(17) 0.1622(3) 0.23940(13)
C5 C 0.23048(19) 0.1548(3) 0.14909(15)
H5 H 0.2483 0.1504 0.0964
C6 C 0.1216(2) 0.1575(4) 0.14679(18)
H6 H 0.0657 0.1567 0.0921
C7 C 0.0910(2) 0.1615(4) 0.22353(19)
H7 H 0.0157 0.1632 0.2203
C8 C 0.17238(18) 0.1629(3) 0.30381(16)
C9 C 0.28630(17) 0.1631(3) 0.30898(14)
C10 C 0.37106(17) 0.1755(3) 0.39139(14)
C11 C 0.31689(17) 0.1587(3) 0.23090(14)
C12 C 0.63127(17) 0.1834(3) 0.34080(13)
C13 C 0.69082(18) 0.3283(4) 0.39136(14)
H8 H 0.6530 0.4187 0.4133
C14 C 0.8053(2) 0.3413(5) 0.40993(16)
H9 H 0.8440 0.4405 0.4438
C15 C 0.8624(2) 0.2095(6) 0.37891(19)
H10 H 0.9399 0.2181 0.3917
C16 C 0.8049(2) 0.0648(5) 0.32889(19)
H11 H 0.8433 -0.0252 0.3073
C17 C 0.6901(2) 0.0514(4) 0.31017(16)
H12 H 0.6519 -0.0483 0.2764
C18 C 0.4682(2) 0.1631(4) 0.15676(14)
H13 H 0.5483 0.1745 0.1728
H14 H 0.4337 0.2670 0.1200
H15 H 0.4450 0.0485 0.1248
loop_
_geom_bond_atom_site_label_1
_geom_bond_atom_site_label_2
_geom_bond_site_symmetry_1
_geom_bond_site_symmetry_2
O1 C1 1_555 1_555
N1 C3 1_555 1_555
C1 H1 1_555 1_555
H2 C1 1_555 1_555
C2 C1 1_555 1_555
H3 C2 1_555 1_555
H4 C2 1_555 1_555
C3 C4 1_555 1_555
C4 C11 1_555 1_555
C5 H5 1_555 1_555
C6 C5 1_555 1_555
H6 C6 1_555 1_555
C7 C6 1_555 1_555
H7 C7 1_555 1_555
C8 O1 1_555 1_555
C9 C8 1_555 1_555
C10 N1 1_555 1_555
C11 C5 1_555 1_555
C12 C3 1_555 1_555
C13 C12 1_555 1_555
H8 C13 1_555 1_555
C14 C13 1_555 1_555
H9 C14 1_555 1_555
C15 C14 1_555 1_555
H10 C15 1_555 1_555
C16 C15 1_555 1_555
H11 C16 1_555 1_555
C17 C12 1_555 1_555
H12 C17 1_555 1_555
C18 C4 1_555 1_555
H13 C18 1_555 1_555
H14 C18 1_555 1_555
H15 C18 1_555 1_555
C2 C10 1_555 1_555
C7 C8 1_555 1_555
C9 C10 1_555 1_555
C9 C11 1_555 1_555
C16 C17 1_555 1_555

#END
