
#######################################################################
#
#                 Cambridge Crystallographic Data Centre
#                                CCDC 
#
#######################################################################
#
# If this CIF has been generated from an entry in the Cambridge 
# Structural Database, then it will include bibliographic, chemical, 
# crystal, experimental, refinement or atomic coordinate data resulting 
# from the CCDC's data processing and validation procedures.
#
#######################################################################

data_IXAHIA
_chemical_formula_moiety         'C22 H18 Br1 N1 O4'
_chemical_name_systematic        
"methyl 4-(4-bromophenyl)-1'-methyl-2',6-dioxo-1',2'-dihydrospiro[cyclohex-4-ene-1,3'-indole]-2-carboxylate"
_symmetry_cell_setting           triclinic
_symmetry_space_group_name_H-M   'P -1'
_symmetry_Int_Tables_number      2
_space_group_name_Hall           '-P 1'
loop_
_symmetry_equiv_pos_site_id
_symmetry_equiv_pos_as_xyz
1 x,y,z
2 -x,-y,-z
_cell_length_a                   6.3639(2)
_cell_length_b                   8.9633(2)
_cell_length_c                   17.8417(5)
_cell_angle_alpha                78.2700(10)
_cell_angle_beta                 81.7680(10)
_cell_angle_gamma                71.2150(10)
_cell_volume                     940.065
_exptl_crystal_colour            colorless
_exptl_crystal_description       plate
_cell_formula_units_Z            2
loop_
_atom_site_label
_atom_site_type_symbol
_atom_site_fract_x
_atom_site_fract_y
_atom_site_fract_z
Br1 Br 1.44353(4) 0.33207(3) 0.336696(11)
O1 O 0.2620(2) 0.31759(18) 0.70380(8)
O2 O 0.2964(3) -0.02946(18) 0.80231(9)
O3 O 0.8085(3) -0.13878(18) 0.87035(8)
O4 O 1.0415(2) -0.25179(15) 0.77679(8)
C1 C 1.2464(4) 0.2899(2) 0.42305(11)
C2 C 1.3365(3) 0.1934(2) 0.48862(11)
H1 H 1.4901 0.1539 0.4906
C3 C 1.1957(3) 0.1561(2) 0.55145(11)
H2 H 1.2563 0.0896 0.5953
C4 C 0.9652(3) 0.2165(2) 0.55001(10)
C5 C 0.8186(3) 0.1776(2) 0.61889(10)
C6 C 0.6041(3) 0.2652(2) 0.62888(10)
H3 H 0.5449 0.3465 0.5892
C7 C 0.4584(3) 0.2404(2) 0.69824(11)
C8 C 0.5675(3) 0.1199(2) 0.76679(10)
C9 C 0.6266(3) 0.2152(2) 0.81706(10)
C10 C 0.4879(3) 0.2123(2) 0.88521(11)
C11 C 0.4995(4) 0.2926(3) 0.94270(13)
H4 H 0.4095 0.2885 0.9885
C12 C 0.6508(4) 0.3789(3) 0.92889(15)
H5 H 0.6631 0.4332 0.9665
C13 C 1.0189(4) 0.3515(3) 0.41893(12)
H6 H 0.9598 0.4158 0.3744
C14 C 0.8803(4) 0.3153(3) 0.48276(12)
H7 H 0.7269 0.3578 0.4808
C15 C 0.9230(3) 0.0373(2) 0.67832(10)
H8 H 1.0229 0.0664 0.7049
H9 H 1.0114 -0.0509 0.6525
C16 C 0.7533(3) -0.0186(2) 0.73747(10)
H10 H 0.6821 -0.0735 0.7114
C17 C 0.7834(4) 0.3864(3) 0.86101(16)
H11 H 0.8809 0.4473 0.8531
C18 C 0.7733(3) 0.3034(2) 0.80372(12)
H12 H 0.8634 0.3078 0.7579
N1 N 0.3475(3) 0.1210(2) 0.88453(9)
C19 C 0.1948(4) 0.0803(3) 0.94820(13)
H13 H 0.1169 0.0170 0.9331
H14 H 0.0896 0.1765 0.9621
H15 H 0.2771 0.0205 0.9914
C20 C 0.3872(3) 0.0586(2) 0.81844(11)
C21 C 0.8676(3) -0.1407(2) 0.80352(10)
C22 C 1.1829(4) -0.3628(2) 0.83354(14)
H16 H 1.2750 -0.3109 0.8497
H17 H 1.2754 -0.4538 0.8115
H18 H 1.0920 -0.3973 0.8770
loop_
_geom_bond_atom_site_label_1
_geom_bond_atom_site_label_2
_geom_bond_site_symmetry_1
_geom_bond_site_symmetry_2
Br1 C1 1_555 1_555
O1 C7 1_555 1_555
O2 C20 1_555 1_555
O3 C21 1_555 1_555
O4 C21 1_555 1_555
C1 C2 1_555 1_555
C2 H1 1_555 1_555
C3 C2 1_555 1_555
H2 C3 1_555 1_555
C4 C3 1_555 1_555
C5 C4 1_555 1_555
C6 C5 1_555 1_555
H3 C6 1_555 1_555
C7 C6 1_555 1_555
C8 C7 1_555 1_555
C9 C8 1_555 1_555
C10 C9 1_555 1_555
C11 C10 1_555 1_555
H4 C11 1_555 1_555
C12 C11 1_555 1_555
H5 C12 1_555 1_555
C13 C1 1_555 1_555
H6 C13 1_555 1_555
C14 C4 1_555 1_555
H7 C14 1_555 1_555
C15 C5 1_555 1_555
H8 C15 1_555 1_555
H9 C15 1_555 1_555
C16 C8 1_555 1_555
H10 C16 1_555 1_555
C17 C12 1_555 1_555
H11 C17 1_555 1_555
C18 C9 1_555 1_555
H12 C18 1_555 1_555
N1 C10 1_555 1_555
C19 N1 1_555 1_555
H13 C19 1_555 1_555
H14 C19 1_555 1_555
H15 C19 1_555 1_555
C20 C8 1_555 1_555
C21 C16 1_555 1_555
C22 O4 1_555 1_555
H16 C22 1_555 1_555
H17 C22 1_555 1_555
H18 C22 1_555 1_555
C13 C14 1_555 1_555
C15 C16 1_555 1_555
C17 C18 1_555 1_555
N1 C20 1_555 1_555

#END
