
#######################################################################
#
#                 Cambridge Crystallographic Data Centre
#                                CCDC 
#
#######################################################################
#
# If this CIF has been generated from an entry in the Cambridge 
# Structural Database, then it will include bibliographic, chemical, 
# crystal, experimental, refinement or atomic coordinate data resulting 
# from the CCDC's data processing and validation procedures.
#
#######################################################################

data_IXAJOG
_chemical_formula_moiety         'C21 H21 N3 O3'
_chemical_name_systematic        
'N-((3-Methyl-5-oxo-1-phenyl-4,5-dihydro-1H-pyrazol-4-ylidene)(phenyl)methyl)glycine ethyl ester'
_symmetry_cell_setting           triclinic
_symmetry_space_group_name_H-M   'P -1'
_symmetry_Int_Tables_number      2
_space_group_name_Hall           '-P 1'
loop_
_symmetry_equiv_pos_site_id
_symmetry_equiv_pos_as_xyz
1 x,y,z
2 -x,-y,-z
_cell_length_a                   9.268(3)
_cell_length_b                   9.985(3)
_cell_length_c                   11.193(4)
_cell_angle_alpha                100.386(5)
_cell_angle_beta                 92.652(5)
_cell_angle_gamma                106.543(5)
_cell_volume                     971.42
_exptl_crystal_colour            'pale yellow'
_exptl_crystal_description       block
_cell_formula_units_Z            2
_exptl_crystal_recrystallization_method 'ethyl acetate/ethanol'
loop_
_atom_site_label
_atom_site_type_symbol
_atom_site_fract_x
_atom_site_fract_y
_atom_site_fract_z
N1 N 0.06014(18) -0.23631(18) 0.31920(14)
N2 N -0.06109(19) -0.24993(19) 0.39170(15)
N3 N 0.01170(19) 0.09473(18) 0.16188(15)
H1 H 0.097(2) 0.064(2) 0.1516(18)
O1 O 0.16735(14) -0.09293(15) 0.18269(12)
O2 O 0.24614(18) 0.21423(18) 0.04764(15)
O3 O 0.13754(17) 0.37183(16) -0.00363(15)
C1 C 0.0713(2) -0.1292(2) 0.25479(17)
C2 C -0.1259(2) -0.1539(2) 0.37252(17)
C3 C -0.05131(19) -0.0730(2) 0.28740(16)
C4 C -0.08256(19) 0.0338(2) 0.23553(16)
C5 C 0.1494(2) -0.3304(2) 0.31924(17)
C6 C 0.2898(3) -0.2996(3) 0.2760(2)
H2 H 0.329(3) -0.216(3) 0.241(2)
C7 C 0.3760(3) -0.3926(3) 0.2797(3)
H3 H 0.474(3) -0.367(3) 0.247(2)
C8 C 0.3239(4) -0.5129(3) 0.3280(2)
H4 H 0.391(3) -0.573(3) 0.333(2)
C9 C 0.1848(3) -0.5423(3) 0.3713(2)
H5 H 0.143(3) -0.626(3) 0.407(2)
C10 C 0.0961(3) -0.4527(2) 0.3661(2)
H6 H -0.005(3) -0.473(2) 0.396(2)
C11 C -0.2551(3) -0.1378(4) 0.4432(3)
H7 H -0.292(3) -0.221(3) 0.482(3)
H8 H -0.337(3) -0.137(3) 0.393(2)
H9 H -0.222(4) -0.044(4) 0.500(3)
C12 C -0.2213(2) 0.0791(2) 0.25398(16)
C13 C -0.3460(2) 0.0181(2) 0.16782(19)
H10 H -0.343(2) -0.054(2) 0.096(2)
C14 C -0.4766(2) 0.0561(3) 0.1834(2)
H11 H -0.564(3) 0.011(3) 0.125(2)
C15 C -0.4837(3) 0.1538(3) 0.2843(2)
H12 H -0.574(3) 0.179(2) 0.2963(19)
C16 C -0.3606(3) 0.2157(3) 0.3689(2)
H13 H -0.363(3) 0.286(3) 0.441(2)
C17 C -0.2285(3) 0.1790(2) 0.3544(2)
H14 H -0.143(3) 0.222(2) 0.414(2)
C18 C -0.0026(2) 0.2076(3) 0.1015(2)
H15 H -0.020(2) 0.288(3) 0.159(2)
H16 H -0.085(3) 0.175(2) 0.039(2)
C19 C 0.1419(2) 0.2628(2) 0.04627(18)
C20 C 0.2720(4) 0.4334(4) -0.0612(4)
H17 H 0.366(4) 0.473(4) 0.011(3)
H18 H 0.275(4) 0.371(4) -0.142(4)
C21 C 0.2581(4) 0.5622(4) -0.0951(4)
H19 H 0.1715 0.5392 -0.1539
H20 H 0.3475 0.6070 -0.1299
H21 H 0.2458 0.6262 -0.0239
loop_
_geom_bond_atom_site_label_1
_geom_bond_atom_site_label_2
_geom_bond_site_symmetry_1
_geom_bond_site_symmetry_2
N1 N2 1_555 1_555
N2 C2 1_555 1_555
N3 H1 1_555 1_555
O1 C1 1_555 1_555
O2 C19 1_555 1_555
O3 C19 1_555 1_555
C1 N1 1_555 1_555
C2 C3 1_555 1_555
C3 C1 1_555 1_555
C4 N3 1_555 1_555
C5 N1 1_555 1_555
C6 C5 1_555 1_555
H2 C6 1_555 1_555
C7 C6 1_555 1_555
H3 C7 1_555 1_555
C8 C7 1_555 1_555
H4 C8 1_555 1_555
C9 C8 1_555 1_555
H5 C9 1_555 1_555
C10 C5 1_555 1_555
H6 C10 1_555 1_555
C11 C2 1_555 1_555
H7 C11 1_555 1_555
H8 C11 1_555 1_555
H9 C11 1_555 1_555
C12 C4 1_555 1_555
C13 C12 1_555 1_555
H10 C13 1_555 1_555
C14 C13 1_555 1_555
H11 C14 1_555 1_555
C15 C14 1_555 1_555
H12 C15 1_555 1_555
C16 C15 1_555 1_555
H13 C16 1_555 1_555
C17 C12 1_555 1_555
H14 C17 1_555 1_555
C18 N3 1_555 1_555
H15 C18 1_555 1_555
H16 C18 1_555 1_555
C19 C18 1_555 1_555
C20 O3 1_555 1_555
H17 C20 1_555 1_555
H18 C20 1_555 1_555
C21 C20 1_555 1_555
H19 C21 1_555 1_555
H20 C21 1_555 1_555
H21 C21 1_555 1_555
C3 C4 1_555 1_555
C9 C10 1_555 1_555
C16 C17 1_555 1_555

#END
