
#######################################################################
#
#                 Cambridge Crystallographic Data Centre
#                                CCDC 
#
#######################################################################
#
# If this CIF has been generated from an entry in the Cambridge 
# Structural Database, then it will include bibliographic, chemical, 
# crystal, experimental, refinement or atomic coordinate data resulting 
# from the CCDC's data processing and validation procedures.
#
#######################################################################

data_IXEBAQ
_chemical_formula_moiety         'C20 H14 N6'
_chemical_name_systematic        
3-(4,4'-bipyridin-3-yldiazenyl)-4,4'-bipyridine
_symmetry_cell_setting           monoclinic
_symmetry_space_group_name_H-M   'C 2/c'
_symmetry_Int_Tables_number      15
_space_group_name_Hall           '-C 2yn'
loop_
_symmetry_equiv_pos_site_id
_symmetry_equiv_pos_as_xyz
1 x,y,z
2 -x,y,1/2-z
3 1/2+x,1/2+y,z
4 1/2-x,1/2+y,1/2-z
5 -x,-y,-z
6 x,-y,1/2+z
7 1/2-x,1/2-y,-z
8 1/2+x,1/2-y,1/2+z
_cell_length_a                   18.5226(17)
_cell_length_b                   6.1606(6)
_cell_length_c                   14.5486(13)
_cell_angle_alpha                90
_cell_angle_beta                 107.157(6)
_cell_angle_gamma                90
_cell_volume                     1586.27
_exptl_crystal_colour            'orange yellow'
_exptl_crystal_description       block
_cell_formula_units_Z            4
loop_
_atom_site_label
_atom_site_type_symbol
_atom_site_fract_x
_atom_site_fract_y
_atom_site_fract_z
C1 C 0.46913(6) 0.76840(16) 0.13116(7)
C2 C 0.55013(7) 0.76543(16) 0.13438(8)
C3 C 0.59406(6) 0.58080(17) 0.16444(8)
H1 H 0.5735 0.4578 0.1841
C4 C 0.43525(6) 0.93979(16) 0.16671(8)
C5 C 0.42121(7) 0.59967(17) 0.08714(8)
H2 H 0.4407 0.4805 0.0632
C6 C 0.58456(6) 0.94241(17) 0.10539(9)
H3 H 0.5573 1.0688 0.0841
C7 C 0.35675(6) 0.93903(19) 0.14935(9)
H4 H 0.3346 1.0604 0.1679
C8 C 0.65961(7) 0.9287(2) 0.10850(10)
H5 H 0.6817 1.0492 0.0892
N1 N 0.47166(4) 1.13247(14) 0.21342(7)
C9 C 0.66875(7) 0.5830(2) 0.16465(9)
H6 H 0.6974 0.4584 0.1849
N2 N 0.31210(6) 0.77701(16) 0.10834(7)
N3 N 0.70237(7) 0.75292(17) 0.13760(9)
C10 C 0.34494(7) 0.6082(2) 0.07882(8)
H7 H 0.3149 0.4905 0.0513
C1A C 0.53087(6) 0.76840(16) 0.36884(7)
C2A C 0.44987(7) 0.76543(16) 0.36562(8)
C3A C 0.40594(6) 0.58080(17) 0.33556(8)
H1A H 0.4265 0.4578 0.3159
C4A C 0.56475(6) 0.93979(16) 0.33329(8)
C5A C 0.57879(7) 0.59967(17) 0.41286(8)
H2A H 0.5593 0.4805 0.4368
C6A C 0.41544(6) 0.94241(17) 0.39461(9)
H3A H 0.4427 1.0688 0.4159
C7A C 0.64325(6) 0.93903(19) 0.35065(9)
H4A H 0.6654 1.0604 0.3321
C8A C 0.34039(7) 0.9287(2) 0.39150(10)
H5A H 0.3183 1.0492 0.4108
N1A N 0.52834(4) 1.13247(14) 0.28658(7)
C9A C 0.33125(7) 0.5830(2) 0.33535(9)
H6A H 0.3026 0.4584 0.3151
N2A N 0.68790(6) 0.77701(16) 0.39166(7)
N3A N 0.29763(7) 0.75292(17) 0.36240(9)
C10A C 0.65506(7) 0.6082(2) 0.42118(8)
H7A H 0.6851 0.4905 0.4487
loop_
_geom_bond_atom_site_label_1
_geom_bond_atom_site_label_2
_geom_bond_site_symmetry_1
_geom_bond_site_symmetry_2
C1 C2 1_555 1_555
C2 C3 1_555 1_555
C3 H1 1_555 1_555
C4 C1 1_555 1_555
C5 C1 1_555 1_555
H2 C5 1_555 1_555
C6 C2 1_555 1_555
H3 C6 1_555 1_555
C7 C4 1_555 1_555
H4 C7 1_555 1_555
C8 C6 1_555 1_555
H5 C8 1_555 1_555
N1 C4 1_555 1_555
C9 C3 1_555 1_555
H6 C9 1_555 1_555
N2 C7 1_555 1_555
N3 C8 1_555 1_555
C10 C5 1_555 1_555
H7 C10 1_555 1_555
C1A C2A 1_555 1_555
C2A C3A 1_555 1_555
C3A H1A 1_555 1_555
C4A C1A 1_555 1_555
C5A C1A 1_555 1_555
H2A C5A 1_555 1_555
C6A C2A 1_555 1_555
H3A C6A 1_555 1_555
C7A C4A 1_555 1_555
H4A C7A 1_555 1_555
C8A C6A 1_555 1_555
H5A C8A 1_555 1_555
N1A N1 1_555 1_555
C9A C3A 1_555 1_555
H6A C9A 1_555 1_555
N2A C7A 1_555 1_555
N3A C8A 1_555 1_555
C10A C5A 1_555 1_555
H7A C10A 1_555 1_555
C9 N3 1_555 1_555
N2 C10 1_555 1_555
C4A N1A 1_555 1_555
C9A N3A 1_555 1_555
N2A C10A 1_555 1_555

#END
