
#######################################################################
#
#                 Cambridge Crystallographic Data Centre
#                                CCDC 
#
#######################################################################
#
# If this CIF has been generated from an entry in the Cambridge 
# Structural Database, then it will include bibliographic, chemical, 
# crystal, experimental, refinement or atomic coordinate data resulting 
# from the CCDC's data processing and validation procedures.
#
#######################################################################

data_IXEROU
_chemical_formula_moiety         'C6 H19 B10 N1 O1'
_chemical_name_systematic        
7-(morpholin-4-yl)-1,2-dicarba-closo-dodecaborane(11)
_symmetry_cell_setting           monoclinic
_symmetry_space_group_name_H-M   'P 21/n'
_symmetry_Int_Tables_number      14
_space_group_name_Hall           '-P 2yn'
loop_
_symmetry_equiv_pos_site_id
_symmetry_equiv_pos_as_xyz
1 x,y,z
2 1/2-x,1/2+y,1/2-z
3 -x,-y,-z
4 1/2+x,1/2-y,1/2+z
_cell_length_a                   6.7820(8)
_cell_length_b                   16.6525(19)
_cell_length_c                   12.2196(14)
_cell_angle_alpha                90
_cell_angle_beta                 100.039(4)
_cell_angle_gamma                90
_cell_volume                     1358.92
_exptl_crystal_colour            colorless
_exptl_crystal_description       block
_cell_formula_units_Z            4
loop_
_atom_site_label
_atom_site_type_symbol
_atom_site_fract_x
_atom_site_fract_y
_atom_site_fract_z
O1 O 0.2236(9) 0.5352(2) 0.6195(3)
N1 N 0.2265(6) 0.4184(2) 0.7885(3)
C1 C 0.1572(8) 0.2702(3) 0.8768(4)
H1 H 0.0946 0.2477 0.7933
C2 C 0.2829(9) 0.2111(3) 0.9664(4)
H2 H 0.3085 0.1481 0.9455
C3 C 0.4029(10) 0.4398(4) 0.7453(5)
H3 H 0.4885 0.3930 0.7466
H4 H 0.4764 0.4805 0.7924
C4 C 0.3535(14) 0.4702(4) 0.6314(6)
H5 H 0.4763 0.4860 0.6067
H6 H 0.2936 0.4272 0.5833
C5 C 0.0455(13) 0.5150(4) 0.6612(6)
H7 H -0.0280 0.4746 0.6134
H8 H -0.0386 0.5623 0.6585
C6 C 0.0859(10) 0.4848(4) 0.7743(5)
H9 H 0.1392 0.5281 0.8239
H10 H -0.0389 0.4674 0.7951
B1 B 0.4067(9) 0.2831(3) 0.9061(5)
H11 H 0.5103 0.2710 0.8481
B2 B 0.2440(8) 0.3689(3) 0.8868(4)
B3 B 0.0235(9) 0.3368(3) 0.9348(5)
H12 H -0.1223 0.3609 0.8946
B4 B 0.0479(10) 0.2362(4) 0.9834(5)
H13 H -0.0800 0.1947 0.9754
B5 B 0.4711(9) 0.2606(3) 1.0502(5)
H14 H 0.6174 0.2350 1.0866
B6 B 0.4417(9) 0.3622(3) 1.0034(4)
H15 H 0.5707 0.4031 1.0110
B7 B 0.2015(9) 0.3946(3) 1.0225(4)
H16 H 0.1724 0.4574 1.0429
B8 B 0.0818(10) 0.3143(3) 1.0805(5)
H17 H -0.0248 0.3245 1.1374
B9 B 0.2466(10) 0.2322(3) 1.0968(5)
H18 H 0.2496 0.1877 1.1637
B10 B 0.3377(9) 0.3302(3) 1.1206(4)
H19 H 0.3991 0.3512 1.2050
loop_
_geom_bond_atom_site_label_1
_geom_bond_atom_site_label_2
_geom_bond_site_symmetry_1
_geom_bond_site_symmetry_2
O1 C4 1_555 1_555
N1 C3 1_555 1_555
C1 H1 1_555 1_555
C2 C1 1_555 1_555
H2 C2 1_555 1_555
C3 H3 1_555 1_555
H4 C3 1_555 1_555
C4 C3 1_555 1_555
H5 C4 1_555 1_555
H6 C4 1_555 1_555
C5 O1 1_555 1_555
H7 C5 1_555 1_555
H8 C5 1_555 1_555
C6 N1 1_555 1_555
H9 C6 1_555 1_555
H10 C6 1_555 1_555
B1 C1 1_555 1_555
H11 B1 1_555 1_555
B2 N1 1_555 1_555
B3 C1 1_555 1_555
H12 B3 1_555 1_555
B4 C1 1_555 1_555
H13 B4 1_555 1_555
B5 C2 1_555 1_555
H14 B5 1_555 1_555
B6 B1 1_555 1_555
H15 B6 1_555 1_555
B7 B2 1_555 1_555
H16 B7 1_555 1_555
B8 B3 1_555 1_555
H17 B8 1_555 1_555
B9 C2 1_555 1_555
H18 B9 1_555 1_555
B10 B5 1_555 1_555
H19 B10 1_555 1_555
C1 B2 1_555 1_555
C2 B1 1_555 1_555
C2 B4 1_555 1_555
C5 C6 1_555 1_555
B1 B2 1_555 1_555
B1 B5 1_555 1_555
B2 B3 1_555 1_555
B2 B6 1_555 1_555
B3 B4 1_555 1_555
B3 B7 1_555 1_555
B4 B8 1_555 1_555
B4 B9 1_555 1_555
B5 B6 1_555 1_555
B5 B9 1_555 1_555
B6 B7 1_555 1_555
B6 B10 1_555 1_555
B7 B8 1_555 1_555
B7 B10 1_555 1_555
B8 B9 1_555 1_555
B8 B10 1_555 1_555
B9 B10 1_555 1_555

#END
