
#######################################################################
#
#                 Cambridge Crystallographic Data Centre
#                                CCDC 
#
#######################################################################
#
# If this CIF has been generated from an entry in the Cambridge 
# Structural Database, then it will include bibliographic, chemical, 
# crystal, experimental, refinement or atomic coordinate data resulting 
# from the CCDC's data processing and validation procedures.
#
#######################################################################

data_IXERIO
_chemical_formula_moiety         'C23 H20 N6'
_chemical_name_systematic        
4-(7-(4-(piperidin-1-yl)phenyl)[1,2,4]triazolo[1,5-a]pyrimidin-2-yl)benzonitrile
_symmetry_cell_setting           monoclinic
_symmetry_space_group_name_H-M   'C 2/c'
_symmetry_Int_Tables_number      15
_space_group_name_Hall           '-C 2yn'
loop_
_symmetry_equiv_pos_site_id
_symmetry_equiv_pos_as_xyz
1 x,y,z
2 -x,y,1/2-z
3 1/2+x,1/2+y,z
4 1/2-x,1/2+y,1/2-z
5 -x,-y,-z
6 x,-y,1/2+z
7 1/2-x,1/2-y,-z
8 1/2+x,1/2-y,1/2+z
_cell_length_a                   33.375(3)
_cell_length_b                   8.0465(5)
_cell_length_c                   32.417(4)
_cell_angle_alpha                90
_cell_angle_beta                 115.826(13)
_cell_angle_gamma                90
_cell_volume                     7836.14
_cell_formula_units_Z            16
loop_
_atom_site_label
_atom_site_type_symbol
_atom_site_fract_x
_atom_site_fract_y
_atom_site_fract_z
N1 N 0.67931(11) -0.1975(5) 0.28899(13)
N2 N 0.54513(6) 0.5477(2) 0.30197(6)
N3 N 0.50252(6) 0.3399(2) 0.31060(6)
N4 N 0.48401(6) 0.4914(2) 0.31043(6)
N5 N 0.50053(7) 0.7778(2) 0.30338(7)
N6 N 0.33030(7) 0.0558(3) 0.33743(10)
C1 C 0.62656(8) 0.0218(4) 0.29578(9)
C2 C 0.58924(9) -0.0280(3) 0.30105(9)
H1 H 0.5835 -0.1404 0.3025
C3 C 0.56077(8) 0.0895(3) 0.30414(8)
H2 H 0.5356 0.0562 0.3073
C4 C 0.56937(7) 0.2575(3) 0.30261(7)
C5 C 0.60673(8) 0.3056(3) 0.29718(9)
H3 H 0.6127 0.4179 0.2959
C6 C 0.63500(8) 0.1881(4) 0.29374(9)
H4 H 0.6599 0.2212 0.2900
C7 C 0.65605(10) -0.1004(4) 0.29221(12)
C8 C 0.53880(7) 0.3832(3) 0.30528(7)
C9 C 0.51043(8) 0.6156(3) 0.30509(8)
C10 C 0.46303(10) 0.8108(3) 0.30565(9)
H5 H 0.4548 0.9217 0.3043
C11 C 0.43479(9) 0.6922(3) 0.30987(9)
H6 H 0.4087 0.7265 0.3111
C12 C 0.44443(7) 0.5263(3) 0.31227(7)
C13 C 0.41596(7) 0.3970(3) 0.31680(7)
C14 C 0.43107(7) 0.2446(3) 0.33814(8)
H7 H 0.4610 0.2176 0.3483
C15 C 0.40340(7) 0.1330(3) 0.34466(9)
H8 H 0.4150 0.0331 0.3595
C16 C 0.35799(8) 0.1659(3) 0.32958(9)
C17 C 0.34249(8) 0.3162(3) 0.30687(10)
H9 H 0.3124 0.3414 0.2954
C18 C 0.37060(8) 0.4275(3) 0.30104(9)
H10 H 0.3590 0.5271 0.2860
C19 C 0.26585(11) -0.2032(4) 0.31886(14)
H11 H 0.2636 -0.2076 0.3477
H12 H 0.2463 -0.2864 0.2982
C20 C 0.3135(3) -0.2268(10) 0.3261(3)
H13 H 0.3153 -0.2116 0.2972
H14 H 0.3232 -0.3390 0.3367
C21 C 0.2856(4) 0.1036(15) 0.3339(3)
H15 H 0.2788 0.2188 0.3247
H16 H 0.2839 0.0859 0.3626
C22 C 0.3417(3) -0.1278(11) 0.3362(3)
H17 H 0.3732 -0.1445 0.3556
C23 C 0.2542(3) -0.0348(12) 0.3242(3)
H18 H 0.2608 -0.0135 0.3560
H19 H 0.2227 -0.0164 0.3056
N7 N 0.66040(11) 0.9827(5) 0.53346(11)
N8 N 0.53440(6) 0.2561(3) 0.57134(7)
N9 N 0.48680(6) 0.4654(2) 0.56780(6)
N10 N 0.47108(6) 0.3169(2) 0.57485(7)
N11 N 0.49391(7) 0.0317(3) 0.58404(8)
N12 N 0.30396(6) 0.7783(3) 0.56370(8)
C24 C 0.60790(9) 0.7706(4) 0.54443(9)
C25 C 0.56671(9) 0.8203(4) 0.54070(9)
H20 H 0.5575 0.9301 0.5337
C26 C 0.53952(8) 0.7057(3) 0.54740(9)
H21 H 0.5118 0.7385 0.5448
C27 C 0.55292(7) 0.5424(3) 0.55793(8)
C28 C 0.59386(9) 0.4949(4) 0.56113(10)
H22 H 0.6031 0.3851 0.5679
C29 C 0.62095(10) 0.6082(4) 0.55435(11)
H23 H 0.6485 0.5747 0.5565
C30 C 0.63721(11) 0.8890(5) 0.53827(11)
C31 C 0.52440(7) 0.4200(3) 0.56585(8)
C32 C 0.50070(8) 0.1920(3) 0.57722(9)
C33 C 0.45770(10) 0.0027(4) 0.58937(11)
H24 H 0.4521 -0.1064 0.5948
C34 C 0.42730(8) 0.1229(3) 0.58747(10)
H25 H 0.4024 0.0913 0.5915
C35 C 0.43270(7) 0.2875(3) 0.57983(8)
C36 C 0.40159(7) 0.4192(3) 0.57652(8)
C37 C 0.39780(8) 0.5697(3) 0.55383(9)
H26 H 0.4173 0.5920 0.5410
C38 C 0.36627(8) 0.6860(3) 0.54988(9)
H27 H 0.3648 0.7840 0.5341
C39 C 0.33630(7) 0.6613(3) 0.56895(8)
C40 C 0.34029(8) 0.5121(3) 0.59206(9)
H28 H 0.3212 0.4906 0.6055
C41 C 0.37161(8) 0.3961(3) 0.59554(9)
H29 H 0.3730 0.2978 0.6112
C42 C 0.31223(10) 0.9492(4) 0.55923(13)
H30 H 0.3276 0.9566 0.5398
H31 H 0.3326 0.9899 0.5893
C43 C 0.27458(11) 1.0606(4) 0.54092(15)
H32 H 0.2590 1.0449 0.5080
H33 H 0.2853 1.1743 0.5465
C44 C 0.24241(11) 1.0356(5) 0.56121(15)
H34 H 0.2546 1.0825 0.5918
H35 H 0.2148 1.0929 0.5427
C45 C 0.23336(11) 0.8549(5) 0.56336(15)
H36 H 0.2174 0.8419 0.5820
H37 H 0.2138 0.8178 0.5327
C46 C 0.27180(9) 0.7459(4) 0.58151(11)
H38 H 0.2864 0.7573 0.6146
H39 H 0.2617 0.6318 0.5745
C47? C 0.3443(3) -0.1011(12) 0.3615(3)
H40? H 0.3400 -0.1023 0.3892
H41? H 0.3754 -0.1237 0.3694
C48? C 0.2542(3) -0.0163(13) 0.2960(4)
H42? H 0.2596 -0.0101 0.2690
H43? H 0.2233 0.0113 0.2874
C49? C 0.3150(3) -0.2401(10) 0.3522(3)
H44? H 0.3208 -0.2148 0.3835
H45? H 0.3222 -0.3559 0.3503
C50? C 0.2815(4) 0.0800(17) 0.3090(4)
H46? H 0.2743 0.0583 0.2771
H47? H 0.2737 0.1945 0.3115
H48? H 0.2614 -0.2203 0.2875
H49? H 0.2465 -0.2795 0.3249
H50? H 0.3360 -0.1577 0.3051
loop_
_geom_bond_atom_site_label_1
_geom_bond_atom_site_label_2
_geom_bond_site_symmetry_1
_geom_bond_site_symmetry_2
N1 C7 1_555 1_555
N2 C8 1_555 1_555
N3 N4 1_555 1_555
N4 C9 1_555 1_555
N5 C9 1_555 1_555
N6 C16 1_555 1_555
C1 C2 1_555 1_555
C2 H1 1_555 1_555
C3 C2 1_555 1_555
H2 C3 1_555 1_555
C4 C3 1_555 1_555
C5 C4 1_555 1_555
H3 C5 1_555 1_555
C6 C1 1_555 1_555
H4 C6 1_555 1_555
C7 C1 1_555 1_555
C8 N3 1_555 1_555
C9 N2 1_555 1_555
C10 N5 1_555 1_555
H5 C10 1_555 1_555
C11 C10 1_555 1_555
H6 C11 1_555 1_555
C12 N4 1_555 1_555
C13 C12 1_555 1_555
C14 C13 1_555 1_555
H7 C14 1_555 1_555
C15 C14 1_555 1_555
H8 C15 1_555 1_555
C16 C15 1_555 1_555
C17 C16 1_555 1_555
H9 C17 1_555 1_555
C18 C13 1_555 1_555
H10 C18 1_555 1_555
C19 H11 1_555 1_555
H12 C19 1_555 1_555
C20 C19 1_555 1_555
H13 C20 1_555 1_555
H14 C20 1_555 1_555
C21 N6 1_555 1_555
H15 C21 1_555 1_555
H16 C21 1_555 1_555
C22 N6 1_555 1_555
H17 C22 1_555 1_555
C23 C19 1_555 1_555
H18 C23 1_555 1_555
H19 C23 1_555 1_555
N7 C30 1_555 1_555
N8 C31 1_555 1_555
N9 N10 1_555 1_555
N10 C32 1_555 1_555
N11 C32 1_555 1_555
N12 C39 1_555 1_555
C24 C25 1_555 1_555
C25 H20 1_555 1_555
C26 C25 1_555 1_555
H21 C26 1_555 1_555
C27 C26 1_555 1_555
C28 C27 1_555 1_555
H22 C28 1_555 1_555
C29 C24 1_555 1_555
H23 C29 1_555 1_555
C30 C24 1_555 1_555
C31 N9 1_555 1_555
C32 N8 1_555 1_555
C33 N11 1_555 1_555
H24 C33 1_555 1_555
C34 C33 1_555 1_555
H25 C34 1_555 1_555
C35 N10 1_555 1_555
C36 C35 1_555 1_555
C37 C36 1_555 1_555
H26 C37 1_555 1_555
C38 C37 1_555 1_555
H27 C38 1_555 1_555
C39 C38 1_555 1_555
C40 C39 1_555 1_555
H28 C40 1_555 1_555
C41 C36 1_555 1_555
H29 C41 1_555 1_555
C42 N12 1_555 1_555
H30 C42 1_555 1_555
H31 C42 1_555 1_555
C43 C42 1_555 1_555
H32 C43 1_555 1_555
H33 C43 1_555 1_555
C44 C43 1_555 1_555
H34 C44 1_555 1_555
H35 C44 1_555 1_555
C45 C44 1_555 1_555
H36 C45 1_555 1_555
H37 C45 1_555 1_555
C46 N12 1_555 1_555
H38 C46 1_555 1_555
H39 C46 1_555 1_555
C4 C8 1_555 1_555
C5 C6 1_555 1_555
C11 C12 1_555 1_555
C17 C18 1_555 1_555
C20 C22 1_555 1_555
C21 C23 1_555 1_555
C27 C31 1_555 1_555
C28 C29 1_555 1_555
C34 C35 1_555 1_555
C40 C41 1_555 1_555
C45 C46 1_555 1_555

#END
