
#######################################################################
#
#                 Cambridge Crystallographic Data Centre
#                                CCDC 
#
#######################################################################
#
# If this CIF has been generated from an entry in the Cambridge 
# Structural Database, then it will include bibliographic, chemical, 
# crystal, experimental, refinement or atomic coordinate data resulting 
# from the CCDC's data processing and validation procedures.
#
#######################################################################

data_IXESAH
_chemical_formula_moiety         'C10 H25 B10 N1 O2'
_chemical_name_systematic        
1-methyl-7-(1,4-dioxa-8-azaspiro[4.5]decane-8-yl)-1,2-dicarba-closo-dodecaborane(10)
_symmetry_cell_setting           monoclinic
_symmetry_space_group_name_H-M   'P 21/n'
_symmetry_Int_Tables_number      14
_space_group_name_Hall           '-P 2yn'
loop_
_symmetry_equiv_pos_site_id
_symmetry_equiv_pos_as_xyz
1 x,y,z
2 1/2-x,1/2+y,1/2-z
3 -x,-y,-z
4 1/2+x,1/2-y,1/2+z
_cell_length_a                   8.0349(17)
_cell_length_b                   18.023(4)
_cell_length_c                   12.072(3)
_cell_angle_alpha                90
_cell_angle_beta                 96.799(8)
_cell_angle_gamma                90
_cell_volume                     1735.89
_exptl_crystal_colour            colorless
_exptl_crystal_description       block
_cell_formula_units_Z            4
loop_
_atom_site_label
_atom_site_type_symbol
_atom_site_fract_x
_atom_site_fract_y
_atom_site_fract_z
N1 N 0.8730(4) 0.05179(17) 0.7417(2)
O1 O 1.2027(4) -0.06666(16) 0.8577(3)
O2 O 1.3875(4) 0.01741(19) 0.8097(3)
B1 B 0.7174(6) 0.1911(3) 0.7609(4)
H1 H 0.7661 0.1848 0.8495
B2 B 0.8021(5) 0.1167(2) 0.6864(3)
B3 B 0.6543(5) 0.1080(3) 0.5625(4)
H2 H 0.6650 0.0511 0.5310
B4 B 0.4967(5) 0.1747(3) 0.5646(4)
B5 B 0.7173(7) 0.2736(3) 0.6826(5)
H3 H 0.7685 0.3272 0.7143
B6 B 0.8815(6) 0.2093(2) 0.6819(4)
H4 H 1.0092 0.2219 0.7207
B7 B 0.8424(6) 0.1571(3) 0.5579(4)
H5 H 0.9445 0.1350 0.5143
B8 B 0.6563(6) 0.1907(3) 0.4829(4)
H6 H 0.6720 0.1935 0.3937
B9 B 0.5751(7) 0.2618(3) 0.5608(5)
H7 H 0.5441 0.3132 0.5135
B10 B 0.7937(6) 0.2533(3) 0.5578(4)
H8 H 0.8647 0.2945 0.5153
C1 C 0.5843(4) 0.1345(2) 0.6814(3)
H9 H 0.5598 0.0846 0.7295
C2 C 0.5369(6) 0.2230(3) 0.6843(4)
C3 C 0.4063(12) 0.2469(6) 0.7425(8)
H10 H 0.3950 0.2998 0.7360
H11 H 0.3036 0.2236 0.7117
H12 H 0.4305 0.2336 0.8197
C4 C 0.9453(6) 0.0510(3) 0.8563(3)
H13 H 0.9192 0.0043 0.8900
H14 H 0.8961 0.0905 0.8962
C5 C 1.1332(5) 0.0611(2) 0.8676(3)
H15 H 1.1595 0.1096 0.8398
H16 H 1.1779 0.0585 0.9458
C6 C 1.2130(4) 0.0028(2) 0.8043(3)
C7 C 1.1317(6) -0.0007(3) 0.6861(4)
H17 H 1.1594 0.0438 0.6470
H18 H 1.1756 -0.0429 0.6491
C8 C 0.9453(6) -0.0075(2) 0.6798(4)
H19 H 0.8970 -0.0057 0.6023
H20 H 0.9172 -0.0551 0.7100
C9 C 1.3598(7) -0.0955(3) 0.8849(6)
H21 H 1.3641 -0.1463 0.8587
H22 H 1.3894 -0.0952 0.9652
C10 C 1.4754(7) -0.0490(3) 0.8311(6)
H23 H 1.5784 -0.0408 0.8801
H24 H 1.5022 -0.0715 0.7624
C11? C 0.4967(5) 0.1747(3) 0.5646(4)
B11? B 0.5369(6) 0.2230(3) 0.6843(4)
C12? C 0.3280(11) 0.1579(6) 0.5220(9)
H25? H 0.2972 0.1855 0.4548
H26? H 0.3180 0.1057 0.5062
H27? H 0.2550 0.1710 0.5764
loop_
_geom_bond_atom_site_label_1
_geom_bond_atom_site_label_2
_geom_bond_site_symmetry_1
_geom_bond_site_symmetry_2
N1 B2 1_555 1_555
O1 C6 1_555 1_555
O2 C6 1_555 1_555
B1 H1 1_555 1_555
B2 B1 1_555 1_555
B3 B2 1_555 1_555
H2 B3 1_555 1_555
B4 B3 1_555 1_555
B5 B1 1_555 1_555
H3 B5 1_555 1_555
B6 B1 1_555 1_555
H4 B6 1_555 1_555
B7 B2 1_555 1_555
H5 B7 1_555 1_555
B8 B3 1_555 1_555
H6 B8 1_555 1_555
B9 B4 1_555 1_555
H7 B9 1_555 1_555
B10 B5 1_555 1_555
H8 B10 1_555 1_555
C1 B1 1_555 1_555
H9 C1 1_555 1_555
C2 B1 1_555 1_555
C3 C2 1_555 1_555
H10 C3 1_555 1_555
H11 C3 1_555 1_555
H12 C3 1_555 1_555
C4 N1 1_555 1_555
H13 C4 1_555 1_555
H14 C4 1_555 1_555
C5 C4 1_555 1_555
H15 C5 1_555 1_555
H16 C5 1_555 1_555
C6 C5 1_555 1_555
C7 C6 1_555 1_555
H17 C7 1_555 1_555
H18 C7 1_555 1_555
C8 N1 1_555 1_555
H19 C8 1_555 1_555
H20 C8 1_555 1_555
C9 O1 1_555 1_555
H21 C9 1_555 1_555
H22 C9 1_555 1_555
C10 O2 1_555 1_555
H23 C10 1_555 1_555
H24 C10 1_555 1_555
B2 B6 1_555 1_555
B2 C1 1_555 1_555
B3 B7 1_555 1_555
B3 C1 1_555 1_555
B4 B8 1_555 1_555
B4 C1 1_555 1_555
B4 C2 1_555 1_555
B5 B6 1_555 1_555
B5 B9 1_555 1_555
B5 C2 1_555 1_555
B6 B7 1_555 1_555
B6 B10 1_555 1_555
B7 B8 1_555 1_555
B7 B10 1_555 1_555
B8 B9 1_555 1_555
B8 B10 1_555 1_555
B9 B10 1_555 1_555
B9 C2 1_555 1_555
C1 C2 1_555 1_555
C7 C8 1_555 1_555
C9 C10 1_555 1_555

#END
