
#######################################################################
#
#                 Cambridge Crystallographic Data Centre
#                                CCDC 
#
#######################################################################
#
# If this CIF has been generated from an entry in the Cambridge 
# Structural Database, then it will include bibliographic, chemical, 
# crystal, experimental, refinement or atomic coordinate data resulting 
# from the CCDC's data processing and validation procedures.
#
#######################################################################

data_IXESEL
_chemical_formula_moiety         'C10 H21 B10 N1 O2 S1'
_chemical_name_systematic        
1-methyl-7-(p-toluenesulfonylamino)-1,2-dicarba-closo-dodecaborane(10)
_symmetry_cell_setting           monoclinic
_symmetry_space_group_name_H-M   'C 2/c'
_symmetry_Int_Tables_number      15
_space_group_name_Hall           '-C 2yn'
loop_
_symmetry_equiv_pos_site_id
_symmetry_equiv_pos_as_xyz
1 x,y,z
2 -x,y,1/2-z
3 1/2+x,1/2+y,z
4 1/2-x,1/2+y,1/2-z
5 -x,-y,-z
6 x,-y,1/2+z
7 1/2-x,1/2-y,-z
8 1/2+x,1/2-y,1/2+z
_cell_length_a                   24.2592(12)
_cell_length_b                   7.3926(3)
_cell_length_c                   19.8972(10)
_cell_angle_alpha                90
_cell_angle_beta                 98.5493(16)
_cell_angle_gamma                90
_cell_volume                     3528.69
_exptl_crystal_colour            colorless
_exptl_crystal_description       block
_cell_formula_units_Z            8
loop_
_atom_site_label
_atom_site_type_symbol
_atom_site_fract_x
_atom_site_fract_y
_atom_site_fract_z
S1 S 0.29863(3) 0.36794(9) 0.21877(3)
N1 N 0.28708(8) 0.3140(3) 0.29378(10)
H1 H 0.2551 0.2673 0.2967
O1 O 0.24968(8) 0.3176(3) 0.17334(9)
O2 O 0.31618(8) 0.5523(2) 0.21945(10)
C1 C 0.34119(11) 0.5463(4) 0.39236(13)
H2 H 0.3242 0.6643 0.3625
C2 C 0.34703(11) 0.5485(4) 0.47571(12)
C3 C 0.32879(16) 0.7154(5) 0.50981(18)
H3 H 0.3345 0.6980 0.5582
H4 H 0.3503 0.8173 0.4987
H5 H 0.2900 0.7373 0.4943
C4 C 0.35426(10) 0.2326(3) 0.20099(11)
C5 C 0.34761(11) 0.0468(4) 0.19912(15)
H6 H 0.3145 -0.0048 0.2082
C6 C 0.39013(12) -0.0611(4) 0.18377(16)
H7 H 0.3853 -0.1859 0.1822
C7 C 0.44004(11) 0.0119(4) 0.17064(13)
C8 C 0.44562(12) 0.1975(4) 0.17308(15)
H8 H 0.4788 0.2494 0.1645
C9 C 0.40344(11) 0.3079(4) 0.18783(13)
H9 H 0.4081 0.4328 0.1889
C10 C 0.48624(13) -0.1072(5) 0.15379(19)
H10 H 0.4749 -0.2315 0.1545
H11 H 0.4944 -0.0771 0.1094
H12 H 0.5189 -0.0889 0.1867
B1 B 0.29615(12) 0.4212(4) 0.42917(14)
H13 H 0.2513 0.4504 0.4254
B2 B 0.32558(11) 0.3360(4) 0.35806(14)
B3 B 0.39352(14) 0.4280(7) 0.36589(17)
H14 H 0.4124 0.4602 0.3204
B4 B 0.40573(15) 0.5654(6) 0.43890(17)
H15 H 0.4319 0.6873 0.4410
B5 B 0.33534(15) 0.3386(5) 0.50438(16)
H16 H 0.3162 0.3113 0.5501
B6 B 0.32221(15) 0.2011(5) 0.43097(17)
H17 H 0.2945 0.0829 0.4285
B7 B 0.38367(15) 0.2037(6) 0.3918(2)
H18 H 0.3966 0.0864 0.3640
B8 B 0.43288(15) 0.3453(7) 0.4412(2)
H19 H 0.4780 0.3207 0.4453
B9 B 0.40323(13) 0.4259(4) 0.51022(16)
H20 H 0.4286 0.4551 0.5596
B10 B 0.38899(18) 0.2039(5) 0.4816(2)
H21 H 0.4050 0.0858 0.5120
loop_
_geom_bond_atom_site_label_1
_geom_bond_atom_site_label_2
_geom_bond_site_symmetry_1
_geom_bond_site_symmetry_2
S1 N1 1_555 1_555
N1 H1 1_555 1_555
O1 S1 1_555 1_555
O2 S1 1_555 1_555
C1 H2 1_555 1_555
C2 C1 1_555 1_555
C3 C2 1_555 1_555
H3 C3 1_555 1_555
H4 C3 1_555 1_555
H5 C3 1_555 1_555
C4 S1 1_555 1_555
C5 C4 1_555 1_555
H6 C5 1_555 1_555
C6 C5 1_555 1_555
H7 C6 1_555 1_555
C7 C6 1_555 1_555
C8 C7 1_555 1_555
H8 C8 1_555 1_555
C9 C4 1_555 1_555
H9 C9 1_555 1_555
C10 C7 1_555 1_555
H10 C10 1_555 1_555
H11 C10 1_555 1_555
H12 C10 1_555 1_555
B1 C1 1_555 1_555
H13 B1 1_555 1_555
B2 N1 1_555 1_555
B3 C1 1_555 1_555
H14 B3 1_555 1_555
B4 C1 1_555 1_555
H15 B4 1_555 1_555
B5 C2 1_555 1_555
H16 B5 1_555 1_555
B6 B1 1_555 1_555
H17 B6 1_555 1_555
B7 B2 1_555 1_555
H18 B7 1_555 1_555
B8 B3 1_555 1_555
H19 B8 1_555 1_555
B9 C2 1_555 1_555
H20 B9 1_555 1_555
B10 B5 1_555 1_555
H21 B10 1_555 1_555
C1 B2 1_555 1_555
C2 B1 1_555 1_555
C2 B4 1_555 1_555
C8 C9 1_555 1_555
B1 B2 1_555 1_555
B1 B5 1_555 1_555
B2 B3 1_555 1_555
B2 B6 1_555 1_555
B3 B4 1_555 1_555
B3 B7 1_555 1_555
B4 B8 1_555 1_555
B4 B9 1_555 1_555
B5 B6 1_555 1_555
B5 B9 1_555 1_555
B6 B7 1_555 1_555
B6 B10 1_555 1_555
B7 B8 1_555 1_555
B7 B10 1_555 1_555
B8 B9 1_555 1_555
B8 B10 1_555 1_555
B9 B10 1_555 1_555

#END
