
#######################################################################
#
#                 Cambridge Crystallographic Data Centre
#                                CCDC 
#
#######################################################################
#
# If this CIF has been generated from an entry in the Cambridge 
# Structural Database, then it will include bibliographic, chemical, 
# crystal, experimental, refinement or atomic coordinate data resulting 
# from the CCDC's data processing and validation procedures.
#
#######################################################################

data_IXEWIS
_chemical_formula_moiety         'C12 H14 N2 O1 S1'
_chemical_name_systematic        
1',3'-Dihydrospiro[tetrahydrothiopyran-4,2'-quinazolin]-4'-one
_symmetry_cell_setting           monoclinic
_symmetry_space_group_name_H-M   'P 21/n'
_symmetry_Int_Tables_number      14
_space_group_name_Hall           '-P 2yn'
loop_
_symmetry_equiv_pos_site_id
_symmetry_equiv_pos_as_xyz
1 x,y,z
2 1/2-x,1/2+y,1/2-z
3 -x,-y,-z
4 1/2+x,1/2-y,1/2+z
_cell_length_a                   6.9285(2)
_cell_length_b                   14.9028(4)
_cell_length_c                   10.7454(3)
_cell_angle_alpha                90
_cell_angle_beta                 94.450(2)
_cell_angle_gamma                90
_cell_volume                     1106.16
_exptl_crystal_colour            colorless
_exptl_crystal_description       block
_chemical_melting_point          '510-511 K'
_cell_formula_units_Z            4
loop_
_atom_site_label
_atom_site_type_symbol
_atom_site_fract_x
_atom_site_fract_y
_atom_site_fract_z
S1 S 0.02665(9) -0.11388(4) 0.39037(6)
O1 O 0.6513(2) 0.09879(10) 0.05377(14)
N1 N 0.2351(3) 0.11783(12) 0.29170(17)
N2 N 0.3761(3) 0.04697(13) 0.12686(17)
C1 C 0.5570(3) 0.15858(14) 0.24564(19)
C2 C 0.0641(3) -0.00613(15) 0.18171(19)
H1 H 0.0013 0.0382 0.1262
H2 H 0.0855 -0.0593 0.1326
C3 C 0.3655(3) -0.03741(14) 0.32180(19)
H3 H 0.3871 -0.0922 0.2762
H4 H 0.4910 -0.0132 0.3507
C4 C 0.4020(3) 0.16818(13) 0.3202(2)
C5 C 0.5352(3) 0.09921(14) 0.13537(19)
C6 C 0.2596(3) 0.03057(13) 0.23293(18)
C7 C 0.5870(4) 0.27600(15) 0.4447(2)
H5 H 0.5975 0.3157 0.5116
C8 C 0.4161(3) 0.22922(14) 0.4193(2)
H6 H 0.3120 0.2382 0.4675
C9 C -0.0713(3) -0.02999(15) 0.2815(2)
H7 H -0.1924 -0.0519 0.2412
H8 H -0.0994 0.0239 0.3273
C10 C 0.2542(3) -0.05960(15) 0.4339(2)
H9 H 0.2303 -0.0047 0.4787
H10 H 0.3325 -0.0986 0.4897
C11 C 0.7261(3) 0.20746(15) 0.2725(2)
H11 H 0.8288 0.2012 0.2224
C12 C 0.7426(3) 0.26523(15) 0.3731(2)
H12 H 0.8570 0.2966 0.3925
H13 H 0.156(3) 0.1181(14) 0.347(2)
H14 H 0.366(3) 0.0060(16) 0.068(2)
loop_
_geom_bond_atom_site_label_1
_geom_bond_atom_site_label_2
_geom_bond_site_symmetry_1
_geom_bond_site_symmetry_2
S1 C9 1_555 1_555
O1 C5 1_555 1_555
N1 C4 1_555 1_555
N2 C5 1_555 1_555
C1 C4 1_555 1_555
C2 H1 1_555 1_555
H2 C2 1_555 1_555
C3 H3 1_555 1_555
H4 C3 1_555 1_555
C4 C8 1_555 1_555
C5 C1 1_555 1_555
C6 N1 1_555 1_555
C7 H5 1_555 1_555
C8 C7 1_555 1_555
H6 C8 1_555 1_555
C9 C2 1_555 1_555
H7 C9 1_555 1_555
H8 C9 1_555 1_555
C10 S1 1_555 1_555
H9 C10 1_555 1_555
H10 C10 1_555 1_555
C11 C1 1_555 1_555
H11 C11 1_555 1_555
C12 C7 1_555 1_555
H12 C12 1_555 1_555
H13 N1 1_555 1_555
H14 N2 1_555 1_555
N2 C6 1_555 1_555
C2 C6 1_555 1_555
C3 C6 1_555 1_555
C3 C10 1_555 1_555
C11 C12 1_555 1_555

#END
