
#######################################################################
#
#                 Cambridge Crystallographic Data Centre
#                                CCDC 
#
#######################################################################
#
# If this CIF has been generated from an entry in the Cambridge 
# Structural Database, then it will include bibliographic, chemical, 
# crystal, experimental, refinement or atomic coordinate data resulting 
# from the CCDC's data processing and validation procedures.
#
#######################################################################

data_IXEWOZ
_chemical_formula_moiety         'C32 H35 N3 O5'
_chemical_name_systematic        
2-(4-((2-hydroxybenzylidene)amino)phenyl)-3-(4-(1,4,7,10-tetraoxa-13-azacyclopentadecan-13-yl)phenyl)acrylonitrile
_symmetry_cell_setting           triclinic
_symmetry_space_group_name_H-M   'P -1'
_symmetry_Int_Tables_number      2
_space_group_name_Hall           '-P 1'
loop_
_symmetry_equiv_pos_site_id
_symmetry_equiv_pos_as_xyz
1 x,y,z
2 -x,-y,-z
_cell_length_a                   9.938(2)
_cell_length_b                   10.085(2)
_cell_length_c                   14.230(4)
_cell_angle_alpha                80.194(3)
_cell_angle_beta                 86.588(3)
_cell_angle_gamma                81.534(3)
_cell_volume                     1389.18
_exptl_crystal_colour            red
_exptl_crystal_description       block
_cell_formula_units_Z            2
_exptl_crystal_recrystallization_method ethanol
loop_
_atom_site_label
_atom_site_type_symbol
_atom_site_fract_x
_atom_site_fract_y
_atom_site_fract_z
O1 O -0.1268(4) 0.2355(5) 0.5334(3)
O2 O 1.1875(5) 1.0122(4) 0.1648(3)
O3 O 1.2731(5) 1.2092(4) 0.0017(3)
O4 O 1.3478(4) 0.9838(5) -0.1010(3)
O5 O 1.3624(4) 0.7060(4) -0.0019(3)
N1 N 0.0979(4) 0.2588(4) 0.4326(3)
N2 N 1.2016(4) 0.6432(4) 0.1855(3)
N3 N 0.5432(5) 0.7601(5) 0.3652(4)
C1 C -0.0975(6) 0.0350(6) 0.3417(4)
C2 C -0.0666(5) 0.1183(5) 0.4012(4)
C3 C -0.1545(6) 0.1532(5) 0.4742(4)
C4 C -0.2770(6) 0.1000(6) 0.4876(5)
C5 C -0.3080(6) 0.0156(6) 0.4276(5)
C6 C -0.2205(6) -0.0168(6) 0.3551(5)
C7 C 0.0698(6) 0.1770(6) 0.3829(4)
C8 C 0.2230(5) 0.3134(5) 0.4106(4)
C9 C 0.2272(5) 0.4415(5) 0.4316(4)
C10 C 0.3425(5) 0.5032(5) 0.4111(4)
C11 C 0.4591(5) 0.4382(5) 0.3706(3)
C12 C 0.4554(5) 0.3075(5) 0.3526(4)
C13 C 0.3393(6) 0.2459(6) 0.3719(4)
C14 C 0.5825(5) 0.5073(5) 0.3466(3)
C15 C 0.7019(5) 0.4500(5) 0.3115(4)
C16 C 0.5637(5) 0.6479(6) 0.3578(4)
C17 C 0.8284(5) 0.5046(5) 0.2822(3)
C18 C 0.8683(5) 0.6176(5) 0.3111(4)
C19 C 0.9887(5) 0.6643(5) 0.2787(4)
C20 C 1.0785(5) 0.5994(5) 0.2154(4)
C21 C 1.0372(5) 0.4867(5) 0.1855(4)
C22 C 0.9174(5) 0.4412(5) 0.2196(4)
C23 C 1.2333(5) 0.7728(5) 0.2042(4)
C24 C 1.1088(8) 1.1308(7) 0.1164(6)
C25 C 1.1428(7) 1.1679(7) 0.0138(6)
C26 C 1.3235(8) 1.2203(8) -0.0946(5)
C27 C 1.4176(8) 1.0987(7) -0.1148(5)
C28 C 1.4290(7) 0.8691(7) -0.1303(4)
C29 C 1.3603(7) 0.7466(7) -0.1017(4)
C30 C 1.3043(6) 0.5853(6) 0.0309(5)
C31 C 1.3047(5) 0.5591(6) 0.1374(4)
C32 C 1.1600(6) 0.8918(5) 0.1376(4)
H1 H -0.03660 0.01310 0.29270
H2 H -0.05330 0.26180 0.51740
H3 H -0.33780 0.12120 0.53690
H4 H -0.39000 -0.01970 0.43680
H5 H -0.24280 -0.07320 0.31490
H6 H 0.13060 0.15120 0.33490
H7 H 0.15120 0.48660 0.45990
H8 H 0.34250 0.59020 0.42470
H9 H 0.53270 0.26060 0.32700
H10 H 0.33910 0.15870 0.35890
H11 H 0.70380 0.35960 0.30480
H12 H 0.81190 0.66280 0.35350
H13 H 1.01110 0.74080 0.29930
H14 H 1.09190 0.44220 0.14190
H15 H 0.89490 0.36420 0.19980
H16 H 1.33070 0.77410 0.19620
H17 H 1.20690 0.78210 0.26970
H18 H 1.11920 1.20670 0.14780
H19 H 1.01370 1.11800 0.12340
H20 H 1.14130 1.09040 -0.01800
H21 H 1.07570 1.24120 -0.01470
H22 H 1.37080 1.29930 -0.10940
H23 H 1.24710 1.23500 -0.13630
H24 H 1.45310 1.11490 -0.18010
H25 H 1.49370 1.08200 -0.07280
H26 H 1.51690 0.85450 -0.10130
H27 H 1.44380 0.88530 -0.19910
H28 H 1.26690 0.76630 -0.12180
H29 H 1.40630 0.67330 -0.13290
H30 H 1.35700 0.50950 0.00560
H31 H 1.21190 0.59570 0.00970
H32 H 1.29350 0.46470 0.15920
H33 H 1.39330 0.57160 0.15680
H34 H 1.19180 0.88810 0.07210
H35 H 1.06280 0.88840 0.14190
loop_
_geom_bond_atom_site_label_1
_geom_bond_atom_site_label_2
_geom_bond_site_symmetry_1
_geom_bond_site_symmetry_2
O1 C3 1_555 1_555
O2 C24 1_555 1_555
O3 C25 1_555 1_555
O4 C27 1_555 1_555
O5 C29 1_555 1_555
N1 C7 1_555 1_555
N2 C20 1_555 1_555
N3 C16 1_555 1_555
C1 C2 1_555 1_555
C2 C3 1_555 1_555
C3 C4 1_555 1_555
C4 C5 1_555 1_555
C5 C6 1_555 1_555
C6 C1 1_555 1_555
C7 C2 1_555 1_555
C8 N1 1_555 1_555
C9 C8 1_555 1_555
C10 C9 1_555 1_555
C11 C10 1_555 1_555
C12 C11 1_555 1_555
C13 C8 1_555 1_555
C14 C11 1_555 1_555
C15 C14 1_555 1_555
C16 C14 1_555 1_555
C17 C15 1_555 1_555
C18 C17 1_555 1_555
C19 C18 1_555 1_555
C20 C19 1_555 1_555
C21 C20 1_555 1_555
C22 C17 1_555 1_555
C23 N2 1_555 1_555
C24 C25 1_555 1_555
C25 H20 1_555 1_555
C26 O3 1_555 1_555
C27 C26 1_555 1_555
C28 O4 1_555 1_555
C29 C28 1_555 1_555
C30 O5 1_555 1_555
C31 N2 1_555 1_555
C32 O2 1_555 1_555
H1 C1 1_555 1_555
H2 O1 1_555 1_555
H3 C4 1_555 1_555
H4 C5 1_555 1_555
H5 C6 1_555 1_555
H6 C7 1_555 1_555
H7 C9 1_555 1_555
H8 C10 1_555 1_555
H9 C12 1_555 1_555
H10 C13 1_555 1_555
H11 C15 1_555 1_555
H12 C18 1_555 1_555
H13 C19 1_555 1_555
H14 C21 1_555 1_555
H15 C22 1_555 1_555
H16 C23 1_555 1_555
H17 C23 1_555 1_555
H18 C24 1_555 1_555
H19 C24 1_555 1_555
H21 C25 1_555 1_555
H22 C26 1_555 1_555
H23 C26 1_555 1_555
H24 C27 1_555 1_555
H25 C27 1_555 1_555
H26 C28 1_555 1_555
H27 C28 1_555 1_555
H28 C29 1_555 1_555
H29 C29 1_555 1_555
H30 C30 1_555 1_555
H31 C30 1_555 1_555
H32 C31 1_555 1_555
H33 C31 1_555 1_555
H34 C32 1_555 1_555
H35 C32 1_555 1_555
C12 C13 1_555 1_555
C21 C22 1_555 1_555
C23 C32 1_555 1_555
C30 C31 1_555 1_555

#END
