
#######################################################################
#
#                 Cambridge Crystallographic Data Centre
#                                CCDC 
#
#######################################################################
#
# If this CIF has been generated from an entry in the Cambridge 
# Structural Database, then it will include bibliographic, chemical, 
# crystal, experimental, refinement or atomic coordinate data resulting 
# from the CCDC's data processing and validation procedures.
#
#######################################################################

data_IXIDOK
_chemical_formula_moiety         'C21 H15 F6 N5,0.5(C1 H2 Cl2)'
_chemical_name_systematic        
'4-(2-(3,5-bis(trifluoromethyl)phenyl)[1,2,4]triazolo[1,5-a]pyrimidin-7-yl)-N,N-dimethylaniline dichloromethane solvate'
_symmetry_cell_setting           triclinic
_symmetry_space_group_name_H-M   'P -1'
_symmetry_Int_Tables_number      2
_space_group_name_Hall           '-P 1'
loop_
_symmetry_equiv_pos_site_id
_symmetry_equiv_pos_as_xyz
1 x,y,z
2 -x,-y,-z
_cell_length_a                   7.8375(3)
_cell_length_b                   14.8040(5)
_cell_length_c                   18.7620(6)
_cell_angle_alpha                76.578(3)
_cell_angle_beta                 86.891(3)
_cell_angle_gamma                87.608(3)
_cell_volume                     2113.36
_cell_formula_units_Z            4
loop_
_atom_site_label
_atom_site_type_symbol
_atom_site_fract_x
_atom_site_fract_y
_atom_site_fract_z
C1 C 0.8580(3) 0.62183(19) 0.20149(14)
C2 C 0.9480(3) 0.63313(19) 0.30215(15)
C3 C 1.0753(4) 0.5981(2) 0.40944(15)
H1 H 1.1027 0.6134 0.4538
C4 C 1.1337(4) 0.5124(2) 0.39878(15)
H2 H 1.2004 0.4730 0.4349
C5 C 1.0973(3) 0.48277(19) 0.33660(14)
C6 C 1.1551(3) 0.3937(2) 0.32181(14)
C7 C 1.1633(4) 0.3733(2) 0.25269(15)
H3 H 1.1279 0.4197 0.2117
C8 C 1.2207(4) 0.2885(2) 0.24221(16)
H4 H 1.2239 0.2778 0.1941
C9 C 1.2747(4) 0.2168(2) 0.30027(16)
C10 C 1.2681(4) 0.2378(2) 0.36960(16)
H5 H 1.3050 0.1918 0.4106
C11 C 1.2102(4) 0.3223(2) 0.37979(16)
H6 H 1.2070 0.3331 0.4278
C12 C 0.7799(3) 0.64666(19) 0.12970(14)
C13 C 0.7764(3) 0.58153(19) 0.08669(14)
H7 H 0.8162 0.5194 0.1053
C14 C 0.7148(3) 0.60769(18) 0.01679(14)
C15 C 0.6544(3) 0.69735(19) -0.01089(15)
H8 H 0.6121 0.7148 -0.0588
C16 C 0.6565(3) 0.76162(19) 0.03253(14)
C17 C 0.7186(3) 0.73673(19) 0.10238(14)
H9 H 0.7192 0.7813 0.1316
C18 C 1.3844(5) 0.0583(2) 0.3507(2)
H10 H 1.4649 0.0826 0.3793
H11 H 1.4401 0.0075 0.3319
H12 H 1.2841 0.0351 0.3821
C19 C 1.3139(5) 0.1077(2) 0.21995(19)
H13 H 1.1936 0.1145 0.2073
H14 H 1.3536 0.0432 0.2236
H15 H 1.3828 0.1490 0.1818
C20 C 0.7286(4) 0.5401(2) -0.03150(15)
C21 C 0.5995(4) 0.8591(2) -0.00002(16)
F1 F 0.7067(3) 0.45298(12) 0.00555(10)
F2 F 0.6169(2) 0.55724(13) -0.08402(10)
F3 F 0.8826(2) 0.54114(15) -0.06587(10)
F4 F 0.4561(2) 0.86468(12) -0.03620(11)
F5 F 0.7163(2) 0.90310(12) -0.05038(10)
F6 F 0.5758(3) 0.91117(13) 0.04879(10)
N1 N 0.8581(3) 0.68076(16) 0.24647(12)
N2 N 0.9398(3) 0.53983(15) 0.22348(11)
N3 N 0.9992(3) 0.54690(16) 0.28907(11)
N4 N 0.9846(3) 0.66040(17) 0.36316(12)
N5 N 1.3311(4) 0.13198(19) 0.28969(15)
C22 C 0.6383(3) 0.4660(2) 0.37062(14)
C23 C 0.6142(4) 0.5772(2) 0.42317(15)
C24 C 0.5503(4) 0.7181(2) 0.44323(16)
H16 H 0.5550 0.7621 0.4727
C25 C 0.4681(4) 0.7460(2) 0.37783(16)
H17 H 0.4161 0.8064 0.3656
C26 C 0.4595(3) 0.68802(19) 0.32980(15)
C27 C 0.3793(3) 0.71326(19) 0.25942(15)
C28 C 0.3219(4) 0.8049(2) 0.23304(17)
H18 H 0.3391 0.8490 0.2614
C29 C 0.2419(4) 0.8342(2) 0.16823(17)
H19 H 0.2052 0.8974 0.1529
C30 C 0.2134(3) 0.77193(19) 0.12408(15)
C31 C 0.2723(3) 0.67951(19) 0.14965(15)
H20 H 0.2567 0.6356 0.1210
C32 C 0.3516(3) 0.65139(19) 0.21489(14)
H21 H 0.3887 0.5883 0.2304
C33 C 0.6879(3) 0.37569(19) 0.35551(14)
C34 C 0.7433(4) 0.3037(2) 0.41161(15)
H22 H 0.7463 0.3128 0.4600
C35 C 0.7941(4) 0.2187(2) 0.39746(15)
C36 C 0.7939(4) 0.2044(2) 0.32715(15)
H23 H 0.8299 0.1461 0.3176
C37 C 0.7399(3) 0.27686(19) 0.27087(14)
C38 C 0.6853(3) 0.36157(19) 0.28473(14)
H24 H 0.6460 0.4100 0.2460
C39 C 0.1296(4) 0.7399(2) 0.00872(15)
H25 H 0.2470 0.7255 -0.0068
H26 H 0.0666 0.7713 -0.0343
H27 H 0.0733 0.6822 0.0329
C40 C 0.0821(4) 0.8972(2) 0.03365(17)
H28 H 0.0004 0.9159 0.0694
H29 H 0.0286 0.9057 -0.0136
H30 H 0.1832 0.9355 0.0275
C41 C 0.8452(6) 0.1413(3) 0.45939(19)
C42 C 0.7473(4) 0.2655(2) 0.19392(15)
F7 F 0.7132(4) 0.0957(2) 0.49213(18)
F8 F 0.9172(5) 0.17101(19) 0.51180(14)
F9 F 0.9573(4) 0.08237(17) 0.44053(12)
F10 F 0.6020(3) 0.2864(2) 0.16169(11)
F11 F 0.7950(4) 0.18260(16) 0.18753(11)
F12 F 0.8565(3) 0.32178(18) 0.15083(10)
N6 N 0.6779(3) 0.49052(17) 0.43296(12)
N7 N 0.5536(3) 0.52992(16) 0.32216(12)
N8 N 0.5367(3) 0.60207(16) 0.35579(12)
N9 N 0.6230(3) 0.63505(18) 0.46795(13)
N10 N 0.1325(3) 0.80040(16) 0.05968(13)
C43 C 0.8573(5) 0.8797(3) 0.2826(2)
H31 H 0.9315 0.8318 0.2663
H32 H 0.7768 0.8478 0.3220
Cl1 Cl 0.74369(19) 0.94301(10) 0.20935(8)
Cl2 Cl 0.9842(3) 0.95507(13) 0.31667(13)
H33? H 0.8099 0.8170 0.2996
H34? H 0.9786 0.8724 0.2665
Cl3? Cl 0.8444(6) 0.9358(2) 0.3533(2)
loop_
_geom_bond_atom_site_label_1
_geom_bond_atom_site_label_2
_geom_bond_site_symmetry_1
_geom_bond_site_symmetry_2
C1 C12 1_555 1_555
C2 N1 1_555 1_555
C3 H1 1_555 1_555
C4 C3 1_555 1_555
H2 C4 1_555 1_555
C5 C4 1_555 1_555
C6 C5 1_555 1_555
C7 C6 1_555 1_555
H3 C7 1_555 1_555
C8 C7 1_555 1_555
H4 C8 1_555 1_555
C9 C8 1_555 1_555
C10 C9 1_555 1_555
H5 C10 1_555 1_555
C11 C6 1_555 1_555
H6 C11 1_555 1_555
C12 C13 1_555 1_555
C13 H7 1_555 1_555
C14 C13 1_555 1_555
C15 C14 1_555 1_555
H8 C15 1_555 1_555
C16 C15 1_555 1_555
C17 C12 1_555 1_555
H9 C17 1_555 1_555
C18 H10 1_555 1_555
H11 C18 1_555 1_555
H12 C18 1_555 1_555
C19 H13 1_555 1_555
H14 C19 1_555 1_555
H15 C19 1_555 1_555
C20 C14 1_555 1_555
C21 C16 1_555 1_555
F1 C20 1_555 1_555
F2 C20 1_555 1_555
F3 C20 1_555 1_555
F4 C21 1_555 1_555
F5 C21 1_555 1_555
F6 C21 1_555 1_555
N1 C1 1_555 1_555
N2 C1 1_555 1_555
N3 C2 1_555 1_555
N4 C2 1_555 1_555
N5 C9 1_555 1_555
C22 C33 1_555 1_555
C23 N6 1_555 1_555
C24 H16 1_555 1_555
C25 C24 1_555 1_555
H17 C25 1_555 1_555
C26 C25 1_555 1_555
C27 C26 1_555 1_555
C28 C27 1_555 1_555
H18 C28 1_555 1_555
C29 C28 1_555 1_555
H19 C29 1_555 1_555
C30 C29 1_555 1_555
C31 C30 1_555 1_555
H20 C31 1_555 1_555
C32 C27 1_555 1_555
H21 C32 1_555 1_555
C33 C34 1_555 1_555
C34 H22 1_555 1_555
C35 C34 1_555 1_555
C36 C35 1_555 1_555
H23 C36 1_555 1_555
C37 C36 1_555 1_555
C38 C33 1_555 1_555
H24 C38 1_555 1_555
C39 H25 1_555 1_555
H26 C39 1_555 1_555
H27 C39 1_555 1_555
C40 H28 1_555 1_555
H29 C40 1_555 1_555
H30 C40 1_555 1_555
C41 C35 1_555 1_555
C42 C37 1_555 1_555
F7 C41 1_555 1_555
F8 C41 1_555 1_555
F9 C41 1_555 1_555
F10 C42 1_555 1_555
F11 C42 1_555 1_555
F12 C42 1_555 1_555
N6 C22 1_555 1_555
N7 C22 1_555 1_555
N8 C23 1_555 1_555
N9 C23 1_555 1_555
N10 C30 1_555 1_555
C43 H31 1_555 1_555
H32 C43 1_555 1_555
Cl1 C43 1_555 1_555
Cl2 C43 1_555 1_555
C3 N4 1_555 1_555
C5 N3 1_555 1_555
C10 C11 1_555 1_555
C16 C17 1_555 1_555
C18 N5 1_555 1_555
C19 N5 1_555 1_555
N2 N3 1_555 1_555
C24 N9 1_555 1_555
C26 N8 1_555 1_555
C31 C32 1_555 1_555
C37 C38 1_555 1_555
C39 N10 1_555 1_555
C40 N10 1_555 1_555
N7 N8 1_555 1_555

#END
