
#######################################################################
#
#                 Cambridge Crystallographic Data Centre
#                                CCDC 
#
#######################################################################
#
# If this CIF has been generated from an entry in the Cambridge 
# Structural Database, then it will include bibliographic, chemical, 
# crystal, experimental, refinement or atomic coordinate data resulting 
# from the CCDC's data processing and validation procedures.
#
#######################################################################

data_IXUPUM
_chemical_formula_moiety         'C16 H24 O8'
_chemical_name_systematic        
2,2,2',2'-Tetramethyloctahydro-3a'H-spiro(1,3-dioxolo(4,5)furo(3,2-b)pyran-5,5'-furo(2,3-d)(1,3)dioxol)-6'-ol
_symmetry_cell_setting           orthorhombic
_symmetry_space_group_name_H-M   'P 21 21 21'
_symmetry_Int_Tables_number      19
_space_group_name_Hall           'P 2ac 2ab'
loop_
_symmetry_equiv_pos_site_id
_symmetry_equiv_pos_as_xyz
1 x,y,z
2 1/2-x,-y,1/2+z
3 -x,1/2+y,1/2-z
4 1/2+x,1/2-y,-z
_cell_length_a                   5.5836(11)
_cell_length_b                   16.183(3)
_cell_length_c                   18.320(4)
_cell_angle_alpha                90
_cell_angle_beta                 90
_cell_angle_gamma                90
_cell_volume                     1655.38
_exptl_crystal_colour            colorless
_exptl_crystal_description       prismatic
_chemical_melting_point          180-182deg.C
_cell_formula_units_Z            4
_exptl_crystal_recrystallization_method ethanol
loop_
_atom_site_label
_atom_site_type_symbol
_atom_site_fract_x
_atom_site_fract_y
_atom_site_fract_z
O1 O 0.3896(3) 0.73830(10) 0.57102(11)
O2 O 0.0881(4) 0.76471(12) 0.65242(14)
O3 O -0.0405(5) 0.64097(15) 0.73131(12)
O4 O 0.3214(3) 0.60240(9) 0.60409(10)
O5 O 0.0294(3) 0.51490(10) 0.56867(9)
O6 O 0.0583(4) 0.34032(11) 0.61513(11)
O7 O -0.1022(3) 0.42755(11) 0.45113(10)
O8 O 0.2075(3) 0.35132(11) 0.49734(10)
C1 C 0.2297(4) 0.67284(15) 0.56577(15)
H1 H 0.1928 0.6596 0.5148
C2 C 0.0052(4) 0.69770(15) 0.60797(15)
H2 H -0.1268 0.7139 0.5758
C3 C -0.0580(5) 0.62390(15) 0.65614(15)
H3 H -0.2208 0.6053 0.6448
C4 C 0.1231(4) 0.55782(15) 0.63127(14)
C5 C 0.2083(5) 0.49764(17) 0.68810(15)
H4 H 0.2667 0.5277 0.7303
H5 H 0.3397 0.4652 0.6686
C6 C 0.0058(6) 0.44033(18) 0.71108(15)
H6 H 0.0678 0.3980 0.7434
H7 H -0.1144 0.4716 0.7375
C7 C -0.1064(5) 0.40051(16) 0.64555(16)
H8 H -0.2539 0.3724 0.6605
C8 C -0.1617(4) 0.45847(15) 0.58300(15)
H9 H -0.3140 0.4874 0.5904
C9 C -0.1764(5) 0.39714(15) 0.51965(16)
H10 H -0.3376 0.3735 0.5163
C10 C 0.0044(5) 0.33080(17) 0.54085(16)
H11 H -0.0551 0.2752 0.5300
C11 C 0.1214(5) 0.38945(16) 0.43183(16)
C12 C 0.0734(7) 0.32553(19) 0.37301(18)
H12 H 0.0158 0.3526 0.3298
H13 H -0.0450 0.2871 0.3900
H14 H 0.2189 0.2965 0.3620
C13 C 0.2950(5) 0.45496(19) 0.40918(17)
H15 H 0.2393 0.4810 0.3653
H16 H 0.4490 0.4304 0.4005
H17 H 0.3082 0.4955 0.4472
C14 C 0.3042(4) 0.79672(15) 0.62400(15)
C15 C 0.2545(7) 0.87726(17) 0.5854(2)
H18 H 0.4012 0.8991 0.5661
H19 H 0.1872 0.9160 0.6194
H20 H 0.1433 0.8680 0.5463
C16 C 0.4789(6) 0.8037(3) 0.68394(18)
H21 H 0.6268 0.8255 0.6654
H22 H 0.5067 0.7501 0.7047
H23 H 0.4171 0.8401 0.7208
H24 H 0.030(10) 0.686(2) 0.736(3)
loop_
_geom_bond_atom_site_label_1
_geom_bond_atom_site_label_2
_geom_bond_site_symmetry_1
_geom_bond_site_symmetry_2
O1 C1 1_555 1_555
O2 C2 1_555 1_555
O3 C3 1_555 1_555
O4 C1 1_555 1_555
O5 C4 1_555 1_555
O6 C7 1_555 1_555
O7 C9 1_555 1_555
O8 C10 1_555 1_555
C1 H1 1_555 1_555
C2 C1 1_555 1_555
H2 C2 1_555 1_555
C3 C2 1_555 1_555
H3 C3 1_555 1_555
C4 O4 1_555 1_555
C5 C4 1_555 1_555
H4 C5 1_555 1_555
H5 C5 1_555 1_555
C6 C5 1_555 1_555
H6 C6 1_555 1_555
H7 C6 1_555 1_555
C7 C6 1_555 1_555
H8 C7 1_555 1_555
C8 O5 1_555 1_555
H9 C8 1_555 1_555
C9 C8 1_555 1_555
H10 C9 1_555 1_555
C10 O6 1_555 1_555
H11 C10 1_555 1_555
C11 O7 1_555 1_555
C12 C11 1_555 1_555
H12 C12 1_555 1_555
H13 C12 1_555 1_555
H14 C12 1_555 1_555
C13 C11 1_555 1_555
H15 C13 1_555 1_555
H16 C13 1_555 1_555
H17 C13 1_555 1_555
C14 O1 1_555 1_555
C15 C14 1_555 1_555
H18 C15 1_555 1_555
H19 C15 1_555 1_555
H20 C15 1_555 1_555
C16 C14 1_555 1_555
H21 C16 1_555 1_555
H22 C16 1_555 1_555
H23 C16 1_555 1_555
H24 O3 1_555 1_555
O2 C14 1_555 1_555
O8 C11 1_555 1_555
C3 C4 1_555 1_555
C7 C8 1_555 1_555
C9 C10 1_555 1_555

#END
