
#######################################################################
#
#                 Cambridge Crystallographic Data Centre
#                                CCDC 
#
#######################################################################
#
# If this CIF has been generated from an entry in the Cambridge 
# Structural Database, then it will include bibliographic, chemical, 
# crystal, experimental, refinement or atomic coordinate data resulting 
# from the CCDC's data processing and validation procedures.
#
#######################################################################

data_IYABIV
_chemical_formula_moiety         'C16 H36 N1 1+,C29 H19 N2 1-'
_chemical_name_systematic        
'tetra-n-butylammonium 2-(9-anthryl)-4,5-diphenylimidazol-1-ide'
_symmetry_cell_setting           monoclinic
_symmetry_space_group_name_H-M   'P 21/c'
_symmetry_Int_Tables_number      14
_space_group_name_Hall           '-P 2ybc'
loop_
_symmetry_equiv_pos_site_id
_symmetry_equiv_pos_as_xyz
1 x,y,z
2 -x,1/2+y,1/2-z
3 -x,-y,-z
4 x,1/2-y,1/2+z
_cell_length_a                   9.764(2)
_cell_length_b                   17.408(4)
_cell_length_c                   22.684(5)
_cell_angle_alpha                90
_cell_angle_beta                 100.399(4)
_cell_angle_gamma                90
_cell_volume                     3792.31
_exptl_crystal_colour            black
_exptl_crystal_description       sheet
_cell_formula_units_Z            4
_chemical_properties_physical    Moisture-sensitive
loop_
_atom_site_label
_atom_site_type_symbol
_atom_site_fract_x
_atom_site_fract_y
_atom_site_fract_z
N1 N 0.39543(16) 0.37896(9) 0.19930(7)
N2 N 0.60599(16) 0.43729(9) 0.22751(7)
C1 C 0.48930(19) 0.40929(10) 0.24415(8)
C2 C 0.58387(19) 0.42429(11) 0.16710(8)
C3 C 0.45526(18) 0.38755(11) 0.14998(8)
C4 C 0.4652(2) 0.41282(11) 0.30678(8)
C5 C 0.3335(2) 0.43593(12) 0.31837(9)
C6 C 0.2220(2) 0.45937(13) 0.27266(10)
H1 H 0.2345 0.4581 0.2325
C7 C 0.0972(3) 0.48365(16) 0.28513(12)
H2 H 0.0259 0.4993 0.2538
C8 C 0.0752(3) 0.4853(2) 0.34454(16)
H3 H -0.0114 0.5012 0.3529
C9 C 0.1771(4) 0.4644(2) 0.38945(14)
H4 H 0.1602 0.4659 0.4289
C10 C 0.3104(3) 0.43977(16) 0.37933(11)
C11 C 0.4168(3) 0.42089(18) 0.42568(11)
H5 H 0.4003 0.4231 0.4652
C12 C 0.5467(3) 0.39890(15) 0.41609(9)
C13 C 0.6567(4) 0.38173(19) 0.46429(12)
H6 H 0.6398 0.3839 0.5038
C14 C 0.7851(4) 0.36229(18) 0.45496(12)
H7 H 0.8566 0.3523 0.4877
C15 C 0.8117(3) 0.35703(15) 0.39574(11)
H8 H 0.9009 0.3428 0.3895
C16 C 0.7099(2) 0.37227(13) 0.34783(10)
H9 H 0.7299 0.3682 0.3089
C17 C 0.5734(2) 0.39436(12) 0.35535(9)
C18 C 0.68600(19) 0.45283(11) 0.13147(8)
C19 C 0.6445(2) 0.48938(12) 0.07653(9)
H10 H 0.5490 0.4942 0.0607
C20 C 0.7410(3) 0.51869(14) 0.04485(10)
H11 H 0.7109 0.5440 0.0082
C21 C 0.8813(3) 0.51095(15) 0.06692(11)
H12 H 0.9472 0.5306 0.0453
C22 C 0.9243(2) 0.47420(15) 0.12087(11)
H13 H 1.0199 0.4684 0.1360
C23 C 0.8278(2) 0.44581(13) 0.15295(10)
H14 H 0.8587 0.4214 0.1899
C24 C 0.3892(2) 0.35184(11) 0.09302(8)
C25 C 0.2451(2) 0.34104(12) 0.08034(9)
H15 H 0.1904 0.3593 0.1075
C26 C 0.1819(3) 0.30429(15) 0.02905(11)
H16 H 0.0848 0.2976 0.0215
C27 C 0.2597(3) 0.27714(15) -0.01133(10)
H17 H 0.2160 0.2524 -0.0466
C28 C 0.4019(3) 0.28644(14) 0.00015(10)
H18 H 0.4557 0.2675 -0.0271
C29 C 0.4660(2) 0.32366(13) 0.05168(8)
H19 H 0.5632 0.3300 0.0589
N3 N 0.48284(16) 0.16009(9) 0.24643(7)
C30 C 0.5621(2) 0.11143(12) 0.29700(9)
H20 H 0.4970 0.0749 0.3098
H21 H 0.6327 0.0816 0.2813
C31 C 0.6335(2) 0.15559(14) 0.35144(10)
H22 H 0.6950 0.1944 0.3389
H23 H 0.5631 0.1823 0.3696
C32 C 0.7173(3) 0.10341(15) 0.39725(12)
H24 H 0.7885 0.0774 0.3791
H25 H 0.6559 0.0640 0.4090
C33 C 0.7876(3) 0.14624(17) 0.45260(12)
H26 H 0.8517 0.1838 0.4415
H27 H 0.8383 0.1102 0.4810
H28 H 0.7177 0.1722 0.4707
C34 C 0.5798(2) 0.21492(12) 0.22146(10)
H29 H 0.5228 0.2482 0.1919
H30 H 0.6253 0.2478 0.2543
C35 C 0.6917(2) 0.17897(14) 0.19225(12)
H31 H 0.7448 0.1416 0.2196
H32 H 0.6489 0.1519 0.1556
C36 C 0.7875(2) 0.24110(15) 0.17722(12)
H33 H 0.8353 0.2648 0.2145
H34 H 0.7316 0.2810 0.1536
C37 C 0.8957(3) 0.2116(2) 0.14228(17)
H35 H 0.9497 0.1711 0.1649
H36 H 0.9570 0.2533 0.1357
H37 H 0.8493 0.1915 0.1040
C38 C 0.3745(2) 0.21004(12) 0.26773(10)
H38 H 0.3296 0.2417 0.2340
H39 H 0.4223 0.2449 0.2987
C39 C 0.2618(2) 0.16755(13) 0.29296(10)
H40 H 0.3034 0.1397 0.3293
H41 H 0.2159 0.1302 0.2636
C40 C 0.1554(2) 0.22524(15) 0.30752(11)
H42 H 0.2014 0.2608 0.3384
H43 H 0.1194 0.2553 0.2715
C41 C 0.0352(3) 0.18679(18) 0.32944(13)
H44 H -0.0100 0.1511 0.2993
H45 H -0.0312 0.2254 0.3368
H46 H 0.0697 0.1592 0.3663
C42 C 0.4153(2) 0.10431(12) 0.19855(9)
H47 H 0.4894 0.0769 0.1833
H48 H 0.3635 0.0662 0.2175
C43 C 0.3176(2) 0.13825(13) 0.14566(10)
H49 H 0.3665 0.1772 0.1261
H50 H 0.2387 0.1629 0.1593
C44 C 0.2653(2) 0.07395(14) 0.10122(11)
H51 H 0.3418 0.0578 0.0815
H52 H 0.2392 0.0298 0.1236
C45 C 0.1432(3) 0.09566(17) 0.05409(11)
H53 H 0.0683 0.1142 0.0731
H54 H 0.1118 0.0510 0.0298
H55 H 0.1707 0.1357 0.0289
loop_
_geom_bond_atom_site_label_1
_geom_bond_atom_site_label_2
_geom_bond_site_symmetry_1
_geom_bond_site_symmetry_2
N1 C1 1_555 1_555
N2 C1 1_555 1_555
C1 C4 1_555 1_555
C2 N2 1_555 1_555
C3 N1 1_555 1_555
C4 C5 1_555 1_555
C5 C6 1_555 1_555
C6 H1 1_555 1_555
C7 C6 1_555 1_555
H2 C7 1_555 1_555
C8 C7 1_555 1_555
H3 C8 1_555 1_555
C9 C8 1_555 1_555
H4 C9 1_555 1_555
C10 C5 1_555 1_555
C11 C10 1_555 1_555
H5 C11 1_555 1_555
C12 C11 1_555 1_555
C13 C12 1_555 1_555
H6 C13 1_555 1_555
C14 C13 1_555 1_555
H7 C14 1_555 1_555
C15 C14 1_555 1_555
H8 C15 1_555 1_555
C16 C15 1_555 1_555
H9 C16 1_555 1_555
C17 C4 1_555 1_555
C18 C2 1_555 1_555
C19 C18 1_555 1_555
H10 C19 1_555 1_555
C20 C19 1_555 1_555
H11 C20 1_555 1_555
C21 C20 1_555 1_555
H12 C21 1_555 1_555
C22 C21 1_555 1_555
H13 C22 1_555 1_555
C23 C18 1_555 1_555
H14 C23 1_555 1_555
C24 C3 1_555 1_555
C25 C24 1_555 1_555
H15 C25 1_555 1_555
C26 C25 1_555 1_555
H16 C26 1_555 1_555
C27 C26 1_555 1_555
H17 C27 1_555 1_555
C28 C27 1_555 1_555
H18 C28 1_555 1_555
C29 C24 1_555 1_555
H19 C29 1_555 1_555
N3 C30 1_555 1_555
C30 H20 1_555 1_555
H21 C30 1_555 1_555
C31 C30 1_555 1_555
H22 C31 1_555 1_555
H23 C31 1_555 1_555
C32 C31 1_555 1_555
H24 C32 1_555 1_555
H25 C32 1_555 1_555
C33 C32 1_555 1_555
H26 C33 1_555 1_555
H27 C33 1_555 1_555
H28 C33 1_555 1_555
C34 N3 1_555 1_555
H29 C34 1_555 1_555
H30 C34 1_555 1_555
C35 C34 1_555 1_555
H31 C35 1_555 1_555
H32 C35 1_555 1_555
C36 C35 1_555 1_555
H33 C36 1_555 1_555
H34 C36 1_555 1_555
C37 C36 1_555 1_555
H35 C37 1_555 1_555
H36 C37 1_555 1_555
H37 C37 1_555 1_555
C38 N3 1_555 1_555
H38 C38 1_555 1_555
H39 C38 1_555 1_555
C39 C38 1_555 1_555
H40 C39 1_555 1_555
H41 C39 1_555 1_555
C40 C39 1_555 1_555
H42 C40 1_555 1_555
H43 C40 1_555 1_555
C41 C40 1_555 1_555
H44 C41 1_555 1_555
H45 C41 1_555 1_555
H46 C41 1_555 1_555
C42 N3 1_555 1_555
H47 C42 1_555 1_555
H48 C42 1_555 1_555
C43 C42 1_555 1_555
H49 C43 1_555 1_555
H50 C43 1_555 1_555
C44 C43 1_555 1_555
H51 C44 1_555 1_555
H52 C44 1_555 1_555
C45 C44 1_555 1_555
H53 C45 1_555 1_555
H54 C45 1_555 1_555
H55 C45 1_555 1_555
C2 C3 1_555 1_555
C9 C10 1_555 1_555
C12 C17 1_555 1_555
C16 C17 1_555 1_555
C22 C23 1_555 1_555
C28 C29 1_555 1_555

#END
