
#######################################################################
#
#                 Cambridge Crystallographic Data Centre
#                                CCDC 
#
#######################################################################
#
# If this CIF has been generated from an entry in the Cambridge 
# Structural Database, then it will include bibliographic, chemical, 
# crystal, experimental, refinement or atomic coordinate data resulting 
# from the CCDC's data processing and validation procedures.
#
#######################################################################

data_IYAGEW
_chemical_formula_moiety         'H12 Mg1 O6 2+,2(C4 H2 N11 1-),6(H2 O1)'
_chemical_name_systematic        
'hexaaqua-magnesium bis(5-[4-(1H-tetrazol-5-yl)-1H-1,2,3-triazol-5-yl]tetrazol-1-ide) hexahydrate'
_symmetry_cell_setting           monoclinic
_symmetry_space_group_name_H-M   'C 2/c'
_symmetry_Int_Tables_number      15
_space_group_name_Hall           '-C 2yn'
loop_
_symmetry_equiv_pos_site_id
_symmetry_equiv_pos_as_xyz
1 x,y,z
2 -x,y,1/2-z
3 1/2+x,1/2+y,z
4 1/2-x,1/2+y,1/2-z
5 -x,-y,-z
6 x,-y,1/2+z
7 1/2-x,1/2-y,-z
8 1/2+x,1/2-y,1/2+z
_cell_length_a                   29.046(3)
_cell_length_b                   6.6502(8)
_cell_length_c                   13.9913(19)
_cell_angle_alpha                90
_cell_angle_beta                 94.818(4)
_cell_angle_gamma                90
_cell_volume                     2693.03
_exptl_crystal_description       needle
_cell_formula_units_Z            4
loop_
_atom_site_label
_atom_site_type_symbol
_atom_site_fract_x
_atom_site_fract_y
_atom_site_fract_z
C1 C 0.92602(11) 0.2797(5) 0.4767(2)
C2 C 0.96102(11) 0.2854(5) 0.4168(2)
C3 C 0.92652(11) 0.2379(5) 0.5785(2)
C4 C 1.01085(11) 0.2669(5) 0.4320(2)
N1 N 0.93943(10) 0.3243(5) 0.3299(2)
H1 H 0.9520(11) 0.332(5) 0.274(2)
N2 N 0.89357(10) 0.3422(5) 0.3340(2)
N3 N 0.88533(10) 0.3159(4) 0.4244(2)
N4 N 0.88902(9) 0.2217(4) 0.62626(19)
N5 N 0.90535(10) 0.1788(5) 0.7183(2)
N6 N 0.94989(10) 0.1690(5) 0.7270(2)
N7 N 0.96362(10) 0.2059(5) 0.6388(2)
H2 H 0.9934(9) 0.204(5) 0.627(2)
N8 N 1.03926(10) 0.2928(4) 0.3622(2)
N9 N 1.08183(9) 0.2633(4) 0.40639(19)
N10 N 1.07862(9) 0.2237(4) 0.49769(19)
N11 N 1.03371(9) 0.2254(4) 0.51671(18)
Mg1 Mg 0.2500 0.2500 1.0000
O1 O 0.30043(8) 0.0396(4) 0.98783(17)
H3 H 0.3232(8) 0.092(5) 0.969(2)
H4 H 0.3079(10) -0.041(4) 1.0299(19)
O2 O 0.27265(9) 0.3825(4) 0.87983(18)
H5 H 0.2943(9) 0.461(5) 0.878(2)
H6 H 0.2556(10) 0.398(5) 0.8314(18)
O3 O 0.20356(8) 0.0930(4) 0.90939(19)
H7 H 0.1770(7) 0.138(4) 0.901(3)
H8 H 0.2007(11) -0.029(3) 0.898(3)
O1F O 0.19957(8) 0.4604(4) 1.01217(17)
H3F H 0.1768(8) 0.408(5) 1.031(2)
H4F H 0.1921(10) 0.541(4) 0.9701(19)
O2F O 0.22735(9) 0.1175(4) 1.12017(18)
H5F H 0.2057(9) 0.039(5) 1.122(2)
H6F H 0.2444(10) 0.102(5) 1.1686(18)
O3F O 0.29644(8) 0.4070(4) 1.09061(19)
H7F H 0.3230(7) 0.362(4) 1.099(3)
H8F H 0.2993(11) 0.529(3) 1.102(3)
O4 O 0.28719(10) 1.0322(4) 0.27491(17)
H9 H 0.3009(12) 1.122(4) 0.304(2)
H10 H 0.2805(12) 0.946(4) 0.312(2)
O5 O 0.34224(8) 0.6582(4) 0.86262(17)
H11 H 0.3571(10) 0.640(6) 0.8161(16)
H12 H 0.3602(10) 0.674(6) 0.9093(16)
O6 O 0.17567(8) 0.7099(4) 0.86313(17)
H13 H 0.1823(10) 0.653(5) 0.8138(18)
H14 H 0.1472(6) 0.717(6) 0.858(2)
loop_
_geom_bond_atom_site_label_1
_geom_bond_atom_site_label_2
_geom_bond_site_symmetry_1
_geom_bond_site_symmetry_2
C1 C2 1_555 1_555
C2 C4 1_555 1_555
C3 C1 1_555 1_555
C4 N8 1_555 1_555
N1 C2 1_555 1_555
H1 N1 1_555 1_555
N2 N1 1_555 1_555
N3 C1 1_555 1_555
N4 C3 1_555 1_555
N5 N4 1_555 1_555
N6 N5 1_555 1_555
N7 C3 1_555 1_555
H2 N7 1_555 1_555
N8 N9 1_555 1_555
N9 N10 1_555 1_555
N10 N11 1_555 1_555
N11 C4 1_555 1_555
Mg1 O1 1_555 1_555
O1 H3 1_555 1_555
H4 O1 1_555 1_555
O2 Mg1 1_555 1_555
H5 O2 1_555 1_555
H6 O2 1_555 1_555
O3 Mg1 1_555 1_555
H7 O3 1_555 1_555
H8 O3 1_555 1_555
O4 H9 1_555 1_555
H10 O4 1_555 1_555
O5 H11 1_555 1_555
H12 O5 1_555 1_555
O6 H13 1_555 1_555
H14 O6 1_555 1_555
O1F Mg1 1_555 1_555
H3F O1F 1_555 1_555
H4F O1F 1_555 1_555
O2F Mg1 1_555 1_555
H5F O2F 1_555 1_555
H6F O2F 1_555 1_555
O3F Mg1 1_555 1_555
H7F O3F 1_555 1_555
H8F O3F 1_555 1_555
N2 N3 1_555 1_555
N6 N7 1_555 1_555

#END
