
#######################################################################
#
#                 Cambridge Crystallographic Data Centre
#                                CCDC 
#
#######################################################################
#
# If this CIF has been generated from an entry in the Cambridge 
# Structural Database, then it will include bibliographic, chemical, 
# crystal, experimental, refinement or atomic coordinate data resulting 
# from the CCDC's data processing and validation procedures.
#
#######################################################################

data_IYEJAZ
_chemical_formula_moiety         'C13 H22 N2 O2'
_chemical_name_systematic        
1-(2-((2-hydroxy-2-methylpropyl)imino)pyridin-1(2H)-yl)-2-methylpropan-2-ol
_symmetry_cell_setting           monoclinic
_symmetry_space_group_name_H-M   'P 21/c'
_symmetry_Int_Tables_number      14
_space_group_name_Hall           '-P 2ybc'
loop_
_symmetry_equiv_pos_site_id
_symmetry_equiv_pos_as_xyz
1 x,y,z
2 -x,1/2+y,1/2-z
3 -x,-y,-z
4 x,1/2-y,1/2+z
_cell_length_a                   12.9760(3)
_cell_length_b                   9.0107(2)
_cell_length_c                   12.2487(3)
_cell_angle_alpha                90
_cell_angle_beta                 102.498(2)
_cell_angle_gamma                90
_cell_volume                     1398.22
_exptl_crystal_description       block
_cell_formula_units_Z            4
loop_
_atom_site_label
_atom_site_type_symbol
_atom_site_fract_x
_atom_site_fract_y
_atom_site_fract_z
N1 N 0.22097(9) 0.08149(13) 0.12068(9)
N2 N 0.17086(9) -0.16295(13) 0.09169(9)
C1 C 0.20443(11) 0.22833(16) 0.16327(12)
H1 H 0.1906 0.2189 0.2394
H2 H 0.1416 0.2742 0.1147
C2 C 0.27837(10) -0.19811(16) 0.07818(11)
H3 H 0.2924 -0.3044 0.0956
H4 H 0.3294 -0.1398 0.1335
C3 C 0.00297(11) -0.25376(19) 0.10903(13)
H5 H -0.0465 -0.3327 0.1024
C4 C 0.29834(11) -0.16695(15) -0.03847(11)
C5 C 0.09917(11) -0.27524(17) 0.08596(12)
H6 H 0.1175 -0.3716 0.0651
C6 C 0.29997(11) 0.32839(16) 0.16741(12)
C7 C -0.02208(12) -0.11109(19) 0.14318(13)
H7 H -0.0890 -0.0938 0.1605
C8 C 0.41292(12) -0.20419(19) -0.03765(13)
H8 H 0.4274 -0.1834 -0.1114
H9 H 0.4257 -0.3095 -0.0199
H10 H 0.4594 -0.1436 0.0189
C9 C 0.22425(13) -0.25647(17) -0.12728(12)
H11 H 0.1510 -0.2330 -0.1251
H12 H 0.2370 -0.3626 -0.1129
H13 H 0.2369 -0.2316 -0.2012
C10 C 0.04827(11) 0.00112(17) 0.15146(12)
H14 H 0.0307 0.0953 0.1772
C11 C 0.39729(12) 0.26654(18) 0.24563(13)
H15 H 0.4569 0.3340 0.2478
H16 H 0.4141 0.1690 0.2187
H17 H 0.3837 0.2566 0.3209
C12 C 0.32011(13) 0.35393(17) 0.05112(12)
H18 H 0.2560 0.3930 0.0021
H19 H 0.3396 0.2598 0.0209
H20 H 0.3777 0.4255 0.0554
O1 O 0.28198(8) -0.01300(11) -0.06610(8)
H21 H 0.2687 0.0330 -0.0111
O2 O 0.27426(9) 0.47162(11) 0.20504(8)
H22 H 0.2782 0.4691 0.2744
C13 C 0.14932(11) -0.01820(15) 0.12231(11)
loop_
_geom_bond_atom_site_label_1
_geom_bond_atom_site_label_2
_geom_bond_site_symmetry_1
_geom_bond_site_symmetry_2
N1 C1 1_555 1_555
N2 C2 1_555 1_555
C1 H1 1_555 1_555
H2 C1 1_555 1_555
C2 H3 1_555 1_555
H4 C2 1_555 1_555
C3 H5 1_555 1_555
C4 C2 1_555 1_555
C5 N2 1_555 1_555
H6 C5 1_555 1_555
C6 C1 1_555 1_555
C7 C3 1_555 1_555
H7 C7 1_555 1_555
C8 C4 1_555 1_555
H8 C8 1_555 1_555
H9 C8 1_555 1_555
H10 C8 1_555 1_555
C9 C4 1_555 1_555
H11 C9 1_555 1_555
H12 C9 1_555 1_555
H13 C9 1_555 1_555
C10 C7 1_555 1_555
H14 C10 1_555 1_555
C11 C6 1_555 1_555
H15 C11 1_555 1_555
H16 C11 1_555 1_555
H17 C11 1_555 1_555
C12 C6 1_555 1_555
H18 C12 1_555 1_555
H19 C12 1_555 1_555
H20 C12 1_555 1_555
O1 C4 1_555 1_555
H21 O1 1_555 1_555
O2 C6 1_555 1_555
H22 O2 1_555 1_555
C13 N1 1_555 1_555
N2 C13 1_555 1_555
C3 C5 1_555 1_555
C10 C13 1_555 1_555

#END
