
#######################################################################
#
#                 Cambridge Crystallographic Data Centre
#                                CCDC 
#
#######################################################################
#
# If this CIF has been generated from an entry in the Cambridge 
# Structural Database, then it will include bibliographic, chemical, 
# crystal, experimental, refinement or atomic coordinate data resulting 
# from the CCDC's data processing and validation procedures.
#
#######################################################################

data_IYELIJ
_chemical_formula_moiety         'C19 H15 F2 N6 O1 1+,C7 H7 O3 S1 1-'
_chemical_name_systematic        
'(8S,9R)-5-(5-fluoro-8-(4-fluorophenyl)-3-oxo-2,7,8,9-tetrahydro-3H-pyrido[4,3,2-de]phthalazin-9-yl)-1-methyl-1H-1,2,4-triazol-4-ium 4-methylbenzenesulfonate'
_chemical_properties_biological  'antitumour activity'
_symmetry_cell_setting           monoclinic
_symmetry_space_group_name_H-M   'P 21'
_symmetry_Int_Tables_number      4
_space_group_name_Hall           'P 2yb'
loop_
_symmetry_equiv_pos_site_id
_symmetry_equiv_pos_as_xyz
1 x,y,z
2 -x,1/2+y,-z
_cell_length_a                   11.9122(11)
_cell_length_b                   8.7136(9)
_cell_length_c                   12.2781(10)
_cell_angle_alpha                90
_cell_angle_beta                 99.901(6)
_cell_angle_gamma                90
_cell_volume                     1255.46
_cell_formula_units_Z            2
loop_
_atom_site_label
_atom_site_type_symbol
_atom_site_fract_x
_atom_site_fract_y
_atom_site_fract_z
S1 S 0.04429(10) 0.78412(15) 0.25417(9)
O1 O 0.0949(2) 0.7002(4) 0.1713(2)
O2 O 0.0965(3) 0.9371(4) 0.2779(3)
O3 O 0.0447(2) 0.6955(4) 0.3539(2)
C1 C -0.0985(4) 0.8188(6) 0.1965(3)
C2 C -0.1230(5) 0.9305(6) 0.1144(4)
C3 C -0.2373(5) 0.9607(7) 0.0713(5)
C4 C -0.3251(5) 0.8836(8) 0.1088(5)
C5 C -0.2982(5) 0.7737(9) 0.1876(5)
C6 C -0.1845(5) 0.7408(7) 0.2333(4)
C7 C -0.4480(7) 0.9274(19) 0.0657(9)
F1 F -0.38575(19) 0.3765(3) 0.39659(18)
F2 F 0.5466(2) 0.4053(3) 0.6503(2)
O4 O -0.2948(2) 0.3427(4) 0.0037(2)
N1 N 0.0192(3) 0.3364(5) 0.4449(3)
N2 N -0.1039(3) 0.3164(5) 0.0419(3)
N3 N 0.0033(3) 0.3155(5) 0.1069(3)
N4 N 0.3041(3) 0.3601(5) 0.2152(3)
N5 N 0.3744(3) 0.2646(6) 0.1683(3)
N6 N 0.2199(4) 0.1409(5) 0.1991(3)
C8 C 0.1179(4) 0.3484(7) 0.2869(3)
C9 C 0.1153(4) 0.2714(7) 0.4007(3)
C10 C -0.0864(4) 0.3436(6) 0.3781(3)
C11 C -0.1866(4) 0.3581(6) 0.4210(4)
C12 C -0.2888(4) 0.3652(6) 0.3496(4)
C13 C -0.3022(4) 0.3590(6) 0.2367(4)
C14 C -0.2021(4) 0.3465(6) 0.1936(3)
C15 C -0.2065(4) 0.3372(6) 0.0734(4)
C16 C 0.0041(3) 0.3308(6) 0.2118(3)
C17 C -0.0954(3) 0.3408(5) 0.2617(3)
C18 C 0.2279(4) 0.3067(6) 0.4765(3)
C19 C 0.2492(5) 0.4453(7) 0.5298(4)
C20 C 0.3564(4) 0.4802(7) 0.5910(4)
C21 C 0.4403(4) 0.3728(7) 0.5915(4)
C22 C 0.4245(5) 0.2349(7) 0.5397(4)
C23 C 0.3162(4) 0.2001(6) 0.4813(3)
C24 C 0.2121(4) 0.2862(7) 0.2347(3)
C25 C 0.3402(5) 0.5183(6) 0.2425(5)
C26 C 0.3203(4) 0.1350(7) 0.1590(4)
H1 H 0.128(3) 0.456(5) 0.294(3)
H2 H 0.114(3) 0.146(5) 0.388(3)
H3 H 0.017(3) 0.308(5) 0.511(3)
H4 H -0.183(3) 0.352(4) 0.498(3)
H5 H -0.376(3) 0.348(6) 0.193(3)
loop_
_geom_bond_atom_site_label_1
_geom_bond_atom_site_label_2
_geom_bond_site_symmetry_1
_geom_bond_site_symmetry_2
S1 O1 1_555 1_555
O2 S1 1_555 1_555
O3 S1 1_555 1_555
C1 S1 1_555 1_555
C2 C1 1_555 1_555
C3 C2 1_555 1_555
C4 C3 1_555 1_555
C5 C4 1_555 1_555
C6 C1 1_555 1_555
C7 C4 1_555 1_555
F1 C12 1_555 1_555
F2 C21 1_555 1_555
O4 C15 1_555 1_555
N1 C9 1_555 1_555
N2 N3 1_555 1_555
N3 C16 1_555 1_555
N4 N5 1_555 1_555
N5 C26 1_555 1_555
N6 C24 1_555 1_555
C8 C9 1_555 1_555
C9 C18 1_555 1_555
C10 N1 1_555 1_555
C11 C10 1_555 1_555
C12 C11 1_555 1_555
C13 C12 1_555 1_555
C14 C13 1_555 1_555
C15 N2 1_555 1_555
C16 C8 1_555 1_555
C17 C10 1_555 1_555
C18 C19 1_555 1_555
C19 C20 1_555 1_555
C20 C21 1_555 1_555
C21 C22 1_555 1_555
C22 C23 1_555 1_555
C23 C18 1_555 1_555
C24 N4 1_555 1_555
C25 N4 1_555 1_555
C26 N6 1_555 1_555
H1 C8 1_555 1_555
H2 C9 1_555 1_555
H3 N1 1_555 1_555
H4 C11 1_555 1_555
H5 C13 1_555 1_555
C5 C6 1_555 1_555
C8 C24 1_555 1_555
C14 C15 1_555 1_555
C14 C17 1_555 1_555
C16 C17 1_555 1_555

#END
