
#######################################################################
#
#                 Cambridge Crystallographic Data Centre
#                                CCDC 
#
#######################################################################
#
# If this CIF has been generated from an entry in the Cambridge 
# Structural Database, then it will include bibliographic, chemical, 
# crystal, experimental, refinement or atomic coordinate data resulting 
# from the CCDC's data processing and validation procedures.
#
#######################################################################

data_IYESOV
_chemical_formula_moiety         'C48 H48 N32 O16,7.67(C1 H2 O2),9.62(H2 O1)'
_chemical_name_systematic        'Cucurbit[8]uril acetic acid solvate hydrate'
_symmetry_cell_setting           rhombohedral
_symmetry_space_group_name_H-M   'R -3'
_symmetry_Int_Tables_number      148
_space_group_name_Hall           '-R 3'
loop_
_symmetry_equiv_pos_site_id
_symmetry_equiv_pos_as_xyz
1 x,y,z
2 -y,x-y,z
3 -x+y,-x,z
4 2/3+x,1/3+y,1/3+z
5 2/3-y,1/3+x-y,1/3+z
6 2/3-x+y,1/3-x,1/3+z
7 1/3+x,2/3+y,2/3+z
8 1/3-y,2/3+x-y,2/3+z
9 1/3-x+y,2/3-x,2/3+z
10 -x,-y,-z
11 y,-x+y,-z
12 x-y,x,-z
13 1/3-x,2/3-y,2/3-z
14 1/3+y,2/3-x+y,2/3-z
15 1/3+x-y,2/3+x,2/3-z
16 2/3-x,1/3-y,1/3-z
17 2/3+y,1/3-x+y,1/3-z
18 2/3+x-y,1/3+x,1/3-z
_cell_length_a                   38.7893(16)
_cell_length_b                   38.7893(16)
_cell_length_c                   13.7476(7)
_cell_angle_alpha                90
_cell_angle_beta                 90
_cell_angle_gamma                120
_cell_volume                     17913.5
_exptl_crystal_colour            colorless
_exptl_crystal_description       hexagonal
_cell_formula_units_Z            9
_exptl_crystal_recrystallization_method 'diluted formic acid'
loop_
_atom_site_label
_atom_site_type_symbol
_atom_site_fract_x
_atom_site_fract_y
_atom_site_fract_z
O1 O 0.27367(8) -0.01415(8) 0.6845(2)
O2 O 0.17927(8) -0.00764(8) 0.7379(2)
O3 O 0.10326(9) -0.06035(9) 0.9335(2)
O4 O 0.09286(9) -0.12637(11) 1.1393(3)
O5 O 0.15412(11) -0.17240(10) 1.2298(3)
O6 O 0.25289(9) -0.17539(8) 1.1799(2)
O7 O 0.33061(9) -0.13005(8) 0.9934(2)
O8 O 0.33509(9) -0.06391(9) 0.7881(2)
N1 N 0.28029(10) -0.05256(10) 0.5657(2)
N2 N 0.23267(9) -0.03704(10) 0.5499(2)
N3 N 0.17379(9) -0.03272(9) 0.5834(2)
N4 N 0.11863(9) -0.04742(9) 0.6643(2)
N5 N 0.06823(10) -0.07861(10) 0.7891(2)
N6 N 0.04025(9) -0.11518(10) 0.9197(2)
N7 N 0.03445(9) -0.15879(10) 1.0516(2)
N8 N 0.05249(10) -0.19466(12) 1.1419(3)
N9 N 0.08987(11) -0.22366(12) 1.2057(3)
N10 N 0.13784(10) -0.23794(10) 1.2183(3)
N11 N 0.19816(9) -0.23887(9) 1.1764(2)
N12 N 0.25385(9) -0.22794(9) 1.1048(2)
N13 N 0.30500(10) -0.19780(10) 0.9815(2)
N14 N 0.33150(9) -0.16071(9) 0.8501(2)
N15 N 0.33744(9) -0.11684(10) 0.7185(2)
N16 N 0.31907(10) -0.08135(10) 0.6279(2)
C1 C 0.26314(11) -0.03281(11) 0.6078(3)
C2 C 0.21589(11) -0.01135(11) 0.5599(3)
H1 H 0.2198 0.0034 0.4983
H2 H 0.2304 0.0084 0.6117
C3 C 0.15961(11) -0.02741(10) 0.6694(3)
C4 C 0.09444(13) -0.04243(12) 0.7362(3)
H3 H 0.0781 -0.0327 0.7036
H4 H 0.1121 -0.0218 0.7832
C5 C 0.07381(12) -0.08255(11) 0.8862(3)
C6 C 0.03325(12) -0.12384(12) 1.0219(3)
H5 H 0.0068 -0.1274 1.0387
H6 H 0.0535 -0.1007 1.0591
C7 C 0.06292(12) -0.15692(14) 1.1131(3)
C8 C 0.31926(12) -0.04572(12) 0.5961(3)
H7 H 0.3381 -0.0339 0.5410
H8 H 0.3292 -0.0261 0.6499
C9 C 0.12972(13) -0.20797(14) 1.2183(3)
C10 C 0.17545(12) -0.23309(13) 1.2524(3)
H9 H 0.1916 -0.2060 1.2798
H10 H 0.1701 -0.2524 1.3053
C11 C 0.23636(11) -0.21027(11) 1.1562(3)
C12 C 0.29579(12) -0.20704(13) 1.0832(3)
H11 H 0.3087 -0.1819 1.1208
H12 H 0.3073 -0.2234 1.1053
C13 C 0.32307(11) -0.15976(12) 0.9464(3)
C14 C 0.35736(11) -0.12486(12) 0.7969(3)
H13 H 0.3686 -0.1020 0.8426
H14 H 0.3797 -0.1271 0.7697
C15 C 0.33088(11) -0.08531(12) 0.7185(3)
C16 C 0.06985(16) -0.20165(17) 1.2267(3)
H15 H 0.0891 -0.1757 1.2560
H16 H 0.0486 -0.2165 1.2752
C17 C 0.26458(13) -0.06696(14) 0.4692(3)
H17 H 0.2854 -0.0540 0.4177
C18 C 0.23094(12) -0.05650(13) 0.4591(3)
H18 H 0.2352 -0.0389 0.4018
C19 C 0.14242(11) -0.05476(10) 0.5131(3)
H19 H 0.1464 -0.0388 0.4527
C20 C 0.10442(11) -0.06268(11) 0.5679(3)
H20 H 0.0916 -0.0487 0.5364
C21 C 0.02914(12) -0.10745(12) 0.7556(3)
H21 H 0.0139 -0.0945 0.7326
C22 C 0.00978(11) -0.13364(11) 0.8469(3)
H22 H -0.0152 -0.1338 0.8663
C23 C 0.00080(11) -0.19909(11) 1.0435(3)
H23 H -0.0244 -0.2009 1.0674
C24 C 0.01343(12) -0.22390(12) 1.1075(3)
H24 H -0.0056 -0.2376 1.1621
O1L O 0.05966(8) -0.31918(8) 0.9822(2)
O2L O 0.15406(8) -0.32569(8) 0.9288(2)
O3L O 0.23007(9) -0.27298(9) 0.7332(2)
O4L O 0.24047(9) -0.20696(11) 0.5274(3)
O5L O 0.17921(11) -0.16093(10) 0.4369(3)
O6L O 0.08044(9) -0.15794(8) 0.4868(2)
O7L O 0.00272(9) -0.20328(8) 0.6733(2)
O8L O -0.00176(9) -0.26942(9) 0.8786(2)
N1L N 0.05304(10) -0.28077(10) 1.1010(2)
N2L N 0.10066(9) -0.29629(10) 1.1168(2)
N3L N 0.15954(9) -0.30061(9) 1.0833(2)
N4L N 0.21470(9) -0.28591(9) 1.0024(2)
N5L N 0.26510(10) -0.25472(10) 0.8776(2)
N6L N 0.29308(9) -0.21815(10) 0.7470(2)
N7L N 0.29888(9) -0.17454(10) 0.6151(2)
N8L N 0.28084(10) -0.13867(12) 0.5248(3)
N9L N 0.24346(11) -0.10967(12) 0.4610(3)
N10L N 0.19549(10) -0.09539(10) 0.4484(3)
N11L N 0.13517(9) -0.09446(9) 0.4903(2)
N12L N 0.07948(9) -0.10539(9) 0.5619(2)
N13L N 0.02833(10) -0.13553(10) 0.6852(2)
N14L N 0.00183(9) -0.17262(9) 0.8166(2)
N15L N -0.00411(9) -0.21649(10) 0.9482(2)
N16L N 0.01426(10) -0.25198(10) 1.0388(2)
C1L C 0.07019(11) -0.30052(11) 1.0589(3)
C2L C 0.11744(11) -0.32198(11) 1.1068(3)
H1L H 0.1135 -0.3367 1.1684
H2L H 0.1029 -0.3417 1.0550
C3L C 0.17372(11) -0.30592(10) 0.9973(3)
C4L C 0.23889(13) -0.29090(12) 0.9305(3)
H3L H 0.2552 -0.3006 0.9631
H4L H 0.2212 -0.3115 0.8835
C5L C 0.25952(12) -0.25078(11) 0.7805(3)
C6L C 0.30008(12) -0.20949(12) 0.6448(3)
H5L H 0.3265 -0.2059 0.6280
H6L H 0.2798 -0.2326 0.6076
C7L C 0.27041(12) -0.17641(14) 0.5536(3)
C8L C 0.01407(12) -0.28761(12) 1.0706(3)
H7L H -0.0048 -0.2994 1.1257
H8L H 0.0041 -0.3072 1.0168
C9L C 0.20361(13) -0.12536(14) 0.4484(3)
C10L C 0.15788(12) -0.10024(13) 0.4143(3)
H9L H 0.1417 -0.1273 0.3869
H10L H 0.1632 -0.0809 0.3614
C11L C 0.09697(11) -0.12306(11) 0.5105(3)
C12L C 0.03754(12) -0.12629(13) 0.5835(3)
H11L H 0.0246 -0.1514 0.5459
H12L H 0.0260 -0.1099 0.5614
C13L C 0.01026(11) -0.17357(12) 0.7203(3)
C14L C -0.02403(11) -0.20847(12) 0.8698(3)
H13L H -0.0353 -0.2313 0.8241
H14L H -0.0464 -0.2062 0.8970
C15L C 0.00245(11) -0.24802(12) 0.9482(3)
C16L C 0.26348(16) -0.13168(17) 0.4400(3)
H15L H 0.2442 -0.1576 0.4107
H16L H 0.2847 -0.1168 0.3915
C17L C 0.06875(13) -0.26637(14) 1.1975(3)
H17L H 0.0479 -0.2793 1.2490
C18L C 0.10239(12) -0.27683(13) 1.2076(3)
H18L H 0.0981 -0.2944 1.2649
C19L C 0.19091(11) -0.27857(10) 1.1536(3)
H19L H 0.1869 -0.2945 1.2140
C20L C 0.22891(11) -0.27065(11) 1.0988(3)
H20L H 0.2417 -0.2846 1.1303
C21L C 0.30419(12) -0.22588(12) 0.9111(3)
H21L H 0.3194 -0.2388 0.9341
C22L C 0.32355(11) -0.19969(11) 0.8198(3)
H22L H 0.3485 -0.1995 0.8004
C23L C 0.33253(11) -0.13424(11) 0.6232(3)
H23L H 0.3577 -0.1324 0.5993
C24L C 0.31990(12) -0.10943(12) 0.5592(3)
H24L H 0.3389 -0.0957 0.5046
O12 O 0.5856(4) 0.2956(3) 0.4797(7)
O13 O 0.6026(4) 0.2778(4) 0.7906(18)
O14 O 0.2641(5) 0.1712(7) 0.0389(13)
C25 C 0.5120(6) 0.2639(5) 0.6452(16)
H25 H 0.5120 0.2868 0.6213
O16 O 0.4875(2) 0.2312(2) 0.6083(6)
O17 O 0.5354(3) 0.2689(4) 0.7077(7)
C26 C 0.3161(4) 0.0628(5) 0.5152(10)
H26 H 0.2966 0.0703 0.5268
O18 O 0.3494(3) 0.0806(3) 0.5635(7)
O19 O 0.3090(2) 0.0367(2) 0.4553(6)
C28 C 0.3421(6) 0.1020(5) 0.1349(16)
H28 H 0.3180 0.0782 0.1197
O22 O 0.3547(6) 0.1303(5) 0.0735(14)
O23 O 0.3583(6) 0.1029(6) 0.2116(13)
C29 C 0.2565(4) 0.1082(6) 0.2251(17)
H29 H 0.2539 0.0937 0.2830
O24 O 0.2523(3) 0.1381(4) 0.2284(10)
O25 O 0.2640(5) 0.0974(5) 0.1482(15)
O9? O 0.3109(2) 0.0902(2) 0.5581(6)
O10? O 0.3347(10) 0.1426(15) 0.0104(19)
O11? O 0.273(2) 0.1085(11) 0.271(2)
O15? O 0.5980(6) 0.3020(8) 0.458(2)
C27? C 0.2920(4) 0.0309(5) 0.3307(12)
H27? H 0.2914 0.0357 0.3983
O20? O 0.2848(10) -0.0037(5) 0.302(2)
O21? O 0.2993(3) 0.0572(3) 0.2738(8)
C30? C 0.2841(4) 0.1746(4) -0.0853(8)
H30? H 0.3041 0.1675 -0.0782
O26? O 0.2905(3) 0.1840(3) -0.1691(8)
O27? O 0.2730(6) 0.1678(5) -0.0096(9)
C31? C 0.5095(6) 0.2634(5) 0.6455(14)
H31? H 0.4935 0.2674 0.5999
O28? O 0.5339(4) 0.2938(3) 0.6937(8)
O29? O 0.5042(4) 0.2307(3) 0.6501(8)
O30? O 0.6083(12) 0.2783(15) 0.431(5)
O31? O 0.3044(10) 0.1359(8) -0.0085(16)
loop_
_geom_bond_atom_site_label_1
_geom_bond_atom_site_label_2
_geom_bond_site_symmetry_1
_geom_bond_site_symmetry_2
O1 C1 1_555 1_555
O2 C3 1_555 1_555
O3 C5 1_555 1_555
O4 C7 1_555 1_555
O5 C9 1_555 1_555
O6 C11 1_555 1_555
O7 C13 1_555 1_555
O8 C15 1_555 1_555
N1 C1 1_555 1_555
N2 C1 1_555 1_555
N3 C2 1_555 1_555
N4 C3 1_555 1_555
N5 C4 1_555 1_555
N6 C5 1_555 1_555
N7 C6 1_555 1_555
N8 C7 1_555 1_555
N9 C9 1_555 1_555
N10 C9 1_555 1_555
N11 C10 1_555 1_555
N12 C11 1_555 1_555
N13 C12 1_555 1_555
N14 C13 1_555 1_555
N15 C14 1_555 1_555
N16 C8 1_555 1_555
C2 N2 1_555 1_555
H1 C2 1_555 1_555
H2 C2 1_555 1_555
C3 N3 1_555 1_555
C4 N4 1_555 1_555
H3 C4 1_555 1_555
H4 C4 1_555 1_555
C5 N5 1_555 1_555
C6 N6 1_555 1_555
H5 C6 1_555 1_555
H6 C6 1_555 1_555
C7 N7 1_555 1_555
C8 N1 1_555 1_555
H7 C8 1_555 1_555
H8 C8 1_555 1_555
C10 N10 1_555 1_555
H9 C10 1_555 1_555
H10 C10 1_555 1_555
C11 N11 1_555 1_555
C12 N12 1_555 1_555
H11 C12 1_555 1_555
H12 C12 1_555 1_555
C13 N13 1_555 1_555
C14 N14 1_555 1_555
H13 C14 1_555 1_555
H14 C14 1_555 1_555
C15 N15 1_555 1_555
C16 N8 1_555 1_555
H15 C16 1_555 1_555
H16 C16 1_555 1_555
C17 N1 1_555 1_555
H17 C17 1_555 1_555
C18 N2 1_555 1_555
H18 C18 1_555 1_555
C19 N3 1_555 1_555
H19 C19 1_555 1_555
C20 N4 1_555 1_555
H20 C20 1_555 1_555
C21 N5 1_555 1_555
H21 C21 1_555 1_555
C22 N6 1_555 1_555
H22 C22 1_555 1_555
C23 N7 1_555 1_555
H23 C23 1_555 1_555
C24 N8 1_555 1_555
H24 C24 1_555 1_555
C25 H25 1_555 1_555
O16 C25 1_555 1_555
O17 C25 1_555 1_555
C26 H26 1_555 1_555
O18 C26 1_555 1_555
O19 C26 1_555 1_555
C28 H28 1_555 1_555
O22 C28 1_555 1_555
O23 C28 1_555 1_555
C29 H29 1_555 1_555
O24 C29 1_555 1_555
O25 C29 1_555 1_555
O1L C1L 1_555 1_555
O2L C3L 1_555 1_555
O3L C5L 1_555 1_555
O4L C7L 1_555 1_555
O5L C9L 1_555 1_555
O6L C11L 1_555 1_555
O7L C13L 1_555 1_555
O8L C15L 1_555 1_555
N1L C1L 1_555 1_555
N2L C1L 1_555 1_555
N3L C2L 1_555 1_555
N4L C3L 1_555 1_555
N5L C4L 1_555 1_555
N6L C5L 1_555 1_555
N7L C6L 1_555 1_555
N8L C7L 1_555 1_555
N9L C17 1_555 1_555
N10L C18 1_555 1_555
N11L C19 1_555 1_555
N12L C20 1_555 1_555
N13L C21 1_555 1_555
N14L C22 1_555 1_555
N15L C23 1_555 1_555
N16L C24 1_555 1_555
C2L N2L 1_555 1_555
H1L C2L 1_555 1_555
H2L C2L 1_555 1_555
C3L N3L 1_555 1_555
C4L N4L 1_555 1_555
H3L C4L 1_555 1_555
H4L C4L 1_555 1_555
C5L N5L 1_555 1_555
C6L N6L 1_555 1_555
H5L C6L 1_555 1_555
H6L C6L 1_555 1_555
C7L N7L 1_555 1_555
C8L N1L 1_555 1_555
H7L C8L 1_555 1_555
H8L C8L 1_555 1_555
C9L N9L 1_555 1_555
C10L N10L 1_555 1_555
H9L C10L 1_555 1_555
H10L C10L 1_555 1_555
C11L N11L 1_555 1_555
C12L N12L 1_555 1_555
H11L C12L 1_555 1_555
H12L C12L 1_555 1_555
C13L N13L 1_555 1_555
C14L N14L 1_555 1_555
H13L C14L 1_555 1_555
H14L C14L 1_555 1_555
C15L N15L 1_555 1_555
C16L N8L 1_555 1_555
H15L C16L 1_555 1_555
H16L C16L 1_555 1_555
C17L N9 1_555 1_555
H17L C17L 1_555 1_555
C18L N10 1_555 1_555
H18L C18L 1_555 1_555
C19L N11 1_555 1_555
H19L C19L 1_555 1_555
C20L N12 1_555 1_555
H20L C20L 1_555 1_555
C21L N13 1_555 1_555
H21L C21L 1_555 1_555
C22L N14 1_555 1_555
H22L C22L 1_555 1_555
C23L N15 1_555 1_555
H23L C23L 1_555 1_555
C24L N16 1_555 1_555
H24L C24L 1_555 1_555
N9 C16 1_555 1_555
N16 C15 1_555 1_555
C17 C18 1_555 1_555
C19 C20 1_555 1_555
C21 C22 1_555 1_555
C23 C24 1_555 1_555
N1L C17L 1_555 1_555
N2L C18L 1_555 1_555
N3L C19L 1_555 1_555
N4L C20L 1_555 1_555
N5L C21L 1_555 1_555
N6L C22L 1_555 1_555
N7L C23L 1_555 1_555
N8L C24L 1_555 1_555
N9L C16L 1_555 1_555
N10L C9L 1_555 1_555
N11L C10L 1_555 1_555
N12L C11L 1_555 1_555
N13L C12L 1_555 1_555
N14L C13L 1_555 1_555
N15L C14L 1_555 1_555
N16L C8L 1_555 1_555
N16L C15L 1_555 1_555
C17L C18L 1_555 1_555
C19L C20L 1_555 1_555
C21L C22L 1_555 1_555
C23L C24L 1_555 1_555

#END
