
#######################################################################
#
#                 Cambridge Crystallographic Data Centre
#                                CCDC 
#
#######################################################################
#
# If this CIF has been generated from an entry in the Cambridge 
# Structural Database, then it will include bibliographic, chemical, 
# crystal, experimental, refinement or atomic coordinate data resulting 
# from the CCDC's data processing and validation procedures.
#
#######################################################################

data_IYEYES
_chemical_formula_moiety         'C10 H14 N1 O1 1+,C6 H2 N3 O7 1-'
_chemical_name_systematic        
'(S,R)-4-(hexa-1,5-diyn-3-yl)morpholin-4-ium 2,4,6-trinitrophenolate'
_symmetry_cell_setting           monoclinic
_symmetry_space_group_name_H-M   'P 21/n'
_symmetry_Int_Tables_number      14
_space_group_name_Hall           '-P 2yn'
loop_
_symmetry_equiv_pos_site_id
_symmetry_equiv_pos_as_xyz
1 x,y,z
2 1/2-x,1/2+y,1/2-z
3 -x,-y,-z
4 1/2+x,1/2-y,1/2+z
_cell_length_a                   7.4635(15)
_cell_length_b                   14.599(3)
_cell_length_c                   16.699(3)
_cell_angle_alpha                90
_cell_angle_beta                 94.00(3)
_cell_angle_gamma                90
_cell_volume                     1815.08
_exptl_crystal_colour            colorless
_exptl_crystal_description       prism
_cell_formula_units_Z            4
loop_
_atom_site_label
_atom_site_type_symbol
_atom_site_fract_x
_atom_site_fract_y
_atom_site_fract_z
N1 N 0.7030(3) 0.66467(16) 0.38733(14)
H1 H 0.709(4) 0.728(2) 0.4061(16)
C1 C 0.8643(4) 0.6529(2) 0.33992(18)
H2 H 0.8684 0.5907 0.3197
H3 H 0.9726 0.6637 0.3742
C2 C 0.8561(4) 0.7191(2) 0.27095(18)
H4 H 0.8607 0.7812 0.2917
H5 H 0.9601 0.7101 0.2401
O1 O 0.6977(3) 0.70804(16) 0.21971(12)
C3 C 0.5460(5) 0.7240(2) 0.26485(19)
H6 H 0.4373 0.7194 0.2297
H7 H 0.5523 0.7857 0.2865
C4 C 0.5371(4) 0.6570(2) 0.33227(18)
H8 H 0.4322 0.6694 0.3617
H9 H 0.5266 0.5952 0.3109
C5 C 0.6966(5) 0.6004(2) 0.45835(18)
H10 H 0.5844 0.6126 0.4836
C6 C 0.6906(5) 0.5045(2) 0.4309(2)
C7 C 0.6906(5) 0.4300(3) 0.4085(2)
H11 H 0.6907 0.3698 0.3904
C8 C 0.8495(5) 0.6193(2) 0.52032(19)
H12 H 0.9606 0.5966 0.5008
H13 H 0.8615 0.6849 0.5281
C9 C 0.8204(5) 0.5757(3) 0.5974(2)
C10 C 0.7999(6) 0.5432(3) 0.6577(2)
H14 H 0.7831 0.5166 0.7072
C11 C 0.7369(4) 0.91702(19) 0.46308(18)
C12 C 0.7024(4) 0.9380(2) 0.54400(17)
C13 C 0.7186(4) 1.0245(2) 0.57580(17)
H15 H 0.6992 1.0345 0.6295
C14 C 0.7634(4) 1.09592(19) 0.52818(17)
C15 C 0.7924(4) 1.0832(2) 0.44787(17)
H16 H 0.8225 1.1320 0.4157
C16 C 0.7755(4) 0.9975(2) 0.41803(16)
O2 O 0.7389(4) 0.83908(14) 0.43183(13)
N2 N 0.6553(4) 0.8660(2) 0.59830(18)
O3 O 0.5976(4) 0.79408(17) 0.57020(18)
O4 O 0.6695(4) 0.88147(19) 0.66997(15)
N3 N 0.7820(4) 1.18640(18) 0.56281(16)
O5 O 0.7694(3) 1.19500(16) 0.63519(14)
O6 O 0.8104(4) 1.25034(16) 0.51830(15)
N4 N 0.7995(4) 0.98200(19) 0.33301(15)
O7 O 0.6674(4) 0.9607(2) 0.29063(14)
O8 O 0.9435(4) 0.9937(2) 0.30912(14)
loop_
_geom_bond_atom_site_label_1
_geom_bond_atom_site_label_2
_geom_bond_site_symmetry_1
_geom_bond_site_symmetry_2
N1 H1 1_555 1_555
C1 N1 1_555 1_555
H2 C1 1_555 1_555
H3 C1 1_555 1_555
C2 C1 1_555 1_555
H4 C2 1_555 1_555
H5 C2 1_555 1_555
O1 C2 1_555 1_555
C3 O1 1_555 1_555
H6 C3 1_555 1_555
H7 C3 1_555 1_555
C4 N1 1_555 1_555
H8 C4 1_555 1_555
H9 C4 1_555 1_555
C5 N1 1_555 1_555
H10 C5 1_555 1_555
C6 C5 1_555 1_555
C7 C6 1_555 1_555
H11 C7 1_555 1_555
C8 C5 1_555 1_555
H12 C8 1_555 1_555
H13 C8 1_555 1_555
C9 C8 1_555 1_555
C10 C9 1_555 1_555
H14 C10 1_555 1_555
C11 C12 1_555 1_555
C12 C13 1_555 1_555
C13 H15 1_555 1_555
C14 C13 1_555 1_555
C15 C14 1_555 1_555
H16 C15 1_555 1_555
C16 C11 1_555 1_555
O2 C11 1_555 1_555
N2 C12 1_555 1_555
O3 N2 1_555 1_555
O4 N2 1_555 1_555
N3 C14 1_555 1_555
O5 N3 1_555 1_555
O6 N3 1_555 1_555
N4 C16 1_555 1_555
O7 N4 1_555 1_555
O8 N4 1_555 1_555
C3 C4 1_555 1_555
C15 C16 1_555 1_555

#END
