
#######################################################################
#
#                 Cambridge Crystallographic Data Centre
#                                CCDC 
#
#######################################################################
#
# If this CIF has been generated from an entry in the Cambridge 
# Structural Database, then it will include bibliographic, chemical, 
# crystal, experimental, refinement or atomic coordinate data resulting 
# from the CCDC's data processing and validation procedures.
#
#######################################################################

data_IYIVES
_chemical_formula_moiety         'C18 H18 Br1 N3 O5'
_chemical_name_systematic        
'Diethyl 5-amino-3-(2-bromophenyl)-4-cyano-1-formyl-1,3-dihydro-2H-pyrrole-2,2-dicarboxylate'
_symmetry_cell_setting           monoclinic
_symmetry_space_group_name_H-M   'P 21/n'
_symmetry_Int_Tables_number      14
_space_group_name_Hall           '-P 2yn'
loop_
_symmetry_equiv_pos_site_id
_symmetry_equiv_pos_as_xyz
1 x,y,z
2 1/2-x,1/2+y,1/2-z
3 -x,-y,-z
4 1/2+x,1/2-y,1/2+z
_cell_length_a                   10.36(3)
_cell_length_b                   14.78(4)
_cell_length_c                   13.66(4)
_cell_angle_alpha                90
_cell_angle_beta                 102.50(3)
_cell_angle_gamma                90
_cell_volume                     2042.05
_exptl_crystal_colour            colorless
_exptl_crystal_description       block
_cell_formula_units_Z            4
loop_
_atom_site_label
_atom_site_type_symbol
_atom_site_fract_x
_atom_site_fract_y
_atom_site_fract_z
C1 C 0.0848(4) 0.7771(3) 0.4592(4)
C2 C 0.1996(4) 0.7825(3) 0.3982(4)
C3 C 0.2772(4) 0.8631(3) 0.4495(4)
C4 C 0.2143(4) 0.9087(3) 0.5125(3)
C5 C -0.0539(5) 0.7651(4) 0.3912(4)
C6 C -0.1903(6) 0.6570(5) 0.2863(5)
H1 H -0.1754 0.6094 0.2411
H2 H -0.2255 0.7092 0.2463
C7 C -0.2868(7) 0.6258(7) 0.3445(6)
H3 H -0.2464 0.5809 0.3922
H4 H -0.3622 0.5999 0.2997
H5 H -0.3146 0.6761 0.3792
C8 C 0.1130(6) 0.6965(4) 0.5348(4)
C9 C 0.0408(9) 0.6309(5) 0.6760(6)
H6 H 0.1289 0.6050 0.6906
H7 H 0.0251 0.6582 0.7370
C10 C -0.0567(9) 0.5601(5) 0.6421(6)
H8 H -0.1434 0.5863 0.6255
H9 H -0.0529 0.5163 0.6945
H10 H -0.0378 0.5310 0.5838
C11 C 0.1506(5) 0.7964(3) 0.2839(4)
C12 C 0.1714(5) 0.7325(4) 0.2135(5)
C13 C 0.1237(7) 0.7471(6) 0.1105(6)
H11 H 0.1405 0.7046 0.0645
C14 C 0.0524(7) 0.8234(7) 0.0771(5)
H12 H 0.0173 0.8311 0.0089
C15 C 0.0326(7) 0.8891(5) 0.1448(5)
H13 H -0.0135 0.9417 0.1222
C16 C 0.0827(5) 0.8754(4) 0.2471(4)
H14 H 0.0707 0.9201 0.2922
C17 C 0.3990(5) 0.8911(3) 0.4295(4)
C18 C 0.0027(5) 0.8922(4) 0.5686(4)
H15 H -0.0722 0.8566 0.5651
Br1 Br 0.27013(9) 0.62428(5) 0.25306(7)
N1 N 0.0941(4) 0.8640(2) 0.5159(3)
N2 N 0.5001(5) 0.9122(3) 0.4132(4)
N3 N 0.2491(4) 0.9833(3) 0.5677(3)
H16 H 0.3224 1.0102 0.5665
H17 H 0.1982 1.0043 0.6044
O1 O -0.1375(3) 0.8230(3) 0.3737(3)
O2 O -0.0637(3) 0.6813(2) 0.3543(3)
O3 O 0.1945(4) 0.6393(3) 0.5357(4)
O4 O 0.0306(5) 0.7006(3) 0.5967(3)
O5 O 0.0127(3) 0.9607(3) 0.6199(3)
loop_
_geom_bond_atom_site_label_1
_geom_bond_atom_site_label_2
_geom_bond_site_symmetry_1
_geom_bond_site_symmetry_2
C1 C2 1_555 1_555
C2 C3 1_555 1_555
C3 C4 1_555 1_555
C4 N1 1_555 1_555
C5 C1 1_555 1_555
C6 H1 1_555 1_555
H2 C6 1_555 1_555
C7 C6 1_555 1_555
H3 C7 1_555 1_555
H4 C7 1_555 1_555
H5 C7 1_555 1_555
C8 C1 1_555 1_555
C9 H6 1_555 1_555
H7 C9 1_555 1_555
C10 C9 1_555 1_555
H8 C10 1_555 1_555
H9 C10 1_555 1_555
H10 C10 1_555 1_555
C11 C2 1_555 1_555
C12 C11 1_555 1_555
C13 C12 1_555 1_555
H11 C13 1_555 1_555
C14 C13 1_555 1_555
H12 C14 1_555 1_555
C15 C14 1_555 1_555
H13 C15 1_555 1_555
C16 C11 1_555 1_555
H14 C16 1_555 1_555
C17 C3 1_555 1_555
C18 H15 1_555 1_555
Br1 C12 1_555 1_555
N1 C1 1_555 1_555
N2 C17 1_555 1_555
N3 C4 1_555 1_555
H16 N3 1_555 1_555
H17 N3 1_555 1_555
O1 C5 1_555 1_555
O2 C5 1_555 1_555
O3 C8 1_555 1_555
O4 C8 1_555 1_555
O5 C18 1_555 1_555
C6 O2 1_555 1_555
C9 O4 1_555 1_555
C15 C16 1_555 1_555
C18 N1 1_555 1_555

#END
