
#######################################################################
#
#                 Cambridge Crystallographic Data Centre
#                                CCDC 
#
#######################################################################
#
# If this CIF has been generated from an entry in the Cambridge 
# Structural Database, then it will include bibliographic, chemical, 
# crystal, experimental, refinement or atomic coordinate data resulting 
# from the CCDC's data processing and validation procedures.
#
#######################################################################

data_IYIYIZ
_chemical_formula_moiety         'C15 H20 N6 O7,0.5(C2 H3 N1)'
_chemical_name_systematic        
'Methyl 1-(5-((1-amino-1-oxopropan-2-yl)amino)-2,4-dinitrophenyl)hexahydropyridazine-3-carboxylate acetonitrile solvate'
_symmetry_cell_setting           monoclinic
_symmetry_space_group_name_H-M   'C 2'
_symmetry_Int_Tables_number      5
_space_group_name_Hall           'C 2y'
loop_
_symmetry_equiv_pos_site_id
_symmetry_equiv_pos_as_xyz
1 x,y,z
2 -x,y,-z
3 1/2+x,1/2+y,z
4 1/2-x,1/2+y,-z
_cell_length_a                   53.785(3)
_cell_length_b                   8.0590(4)
_cell_length_c                   18.4575(9)
_cell_angle_alpha                90
_cell_angle_beta                 107.258(3)
_cell_angle_gamma                90
_cell_volume                     7640.27
_exptl_crystal_colour            yellow
_exptl_crystal_description       needle
_cell_formula_units_Z            16
loop_
_atom_site_label
_atom_site_type_symbol
_atom_site_fract_x
_atom_site_fract_y
_atom_site_fract_z
H1 H 0.8112(4) 0.385(3) 0.1559(11)
H4 H 0.6860(4) 0.620(3) -0.0341(12)
H13 H 0.6370(4) 0.235(3) -0.1498(13)
H15 H 0.6616(4) 0.144(3) -0.0965(12)
C31 C 0.84842(3) 0.4026(2) 0.27417(10)
C32 C 0.76167(3) 0.5085(2) 0.13012(10)
C33 C 0.66187(3) 0.3814(3) -0.08662(10)
C34 C 0.76832(3) 0.6798(2) 0.13994(10)
C35 C 0.68631(3) 0.3744(3) -0.01827(10)
H49 H 0.6992 0.2955 -0.0285
C36 C 0.81991(3) 0.3745(2) 0.26464(10)
H50 H 0.8147 0.4427 0.3031
C37 C 0.81500(3) 0.1907(2) 0.27778(10)
H51 H 0.8233 0.1203 0.2476
H52 H 0.8229 0.1629 0.3320
C38 C 0.75249(3) 0.7981(2) 0.09769(10)
H53 H 0.7579 0.9108 0.1030
C39 C 0.67864(4) 0.3173(3) 0.05141(11)
H54 H 0.6941 0.3158 0.0959
H55 H 0.6712 0.2055 0.0425
H56 H 0.6657 0.3941 0.0604
C40 C 0.78588(3) 0.1559(2) 0.25471(10)
H57 H 0.7780 0.2133 0.2900
H58 H 0.7829 0.0353 0.2580
C41 C 0.72853(3) 0.7570(2) 0.04682(10)
C42 C 0.72008(3) 0.5878(2) 0.03791(10)
C43 C 0.77283(3) 0.2154(2) 0.17403(10)
H59 H 0.7794 0.1515 0.1378
H60 H 0.7538 0.1992 0.1608
C44 C 0.88995(3) 0.4312(3) 0.36411(12)
H61 H 0.8979 0.3251 0.3571
H62 H 0.8973 0.4682 0.4167
H63 H 0.8936 0.5143 0.3299
C45 C 0.73796(3) 0.4677(2) 0.07942(10)
H64 H 0.7334 0.3538 0.0719
N13 N 0.80568(3) 0.43389(19) 0.18894(9)
N14 N 0.77882(3) 0.39148(19) 0.17012(8)
N15 N 0.78991(3) 0.73911(19) 0.20222(9)
N16 N 0.71280(3) 0.8919(2) 0.01002(8)
N17 N 0.69692(3) 0.5421(2) -0.00884(9)
N18 N 0.65234(3) 0.2365(2) -0.11594(10)
O15 O 0.85766(2) 0.41311(19) 0.22233(8)
O16 O 0.86189(2) 0.41032(18) 0.34711(7)
O17 O 0.79103(2) 0.69678(16) 0.26721(7)
O18 O 0.80506(2) 0.84001(17) 0.18757(8)
O19 O 0.72203(2) 1.03402(16) 0.01841(7)
O20 O 0.68987(2) 0.86591(17) -0.03054(7)
O21 O 0.65172(3) 0.51536(18) -0.10854(8)
H2 H 0.8199(4) 0.348(3) 0.6073(12)
H3 H 0.7120(4) 0.145(3) 0.3325(14)
H9 H 0.6833(3) 0.622(3) 0.2901(10)
H10 H 0.6581(4) 0.522(2) 0.2396(11)
C16 C 0.74543(3) 0.1631(2) 0.39528(10)
C17 C 0.86863(3) 0.3420(2) 0.66063(10)
C18 C 0.68552(3) 0.3773(3) 0.28298(9)
C19 C 0.75155(4) -0.0077(2) 0.41305(10)
C20 C 0.71488(3) 0.3809(2) 0.32499(10)
H33 H 0.7184 0.4593 0.3689
C21 C 0.85334(3) 0.3664(2) 0.57853(10)
H34 H 0.8613 0.2981 0.5459
C22 C 0.77633(3) -0.0537(2) 0.45690(10)
H35 H 0.7801 -0.1674 0.4689
C23 C 0.72907(3) 0.4395(2) 0.26878(10)
H36 H 0.7479 0.4399 0.2938
H37 H 0.7233 0.5518 0.2514
H38 H 0.7251 0.3640 0.2252
C24 C 0.85402(3) 0.5504(2) 0.55735(11)
H39 H 0.8497 0.6199 0.5961
H40 H 0.8718 0.5801 0.5566
C25 C 0.83474(3) 0.5851(2) 0.47998(11)
H41 H 0.8405 0.5286 0.4402
H42 H 0.8341 0.7059 0.4698
C26 C 0.79529(3) 0.0624(2) 0.48286(10)
C27 C 0.79026(3) 0.2352(2) 0.46925(10)
C28 C 0.80766(3) 0.5235(2) 0.47737(11)
H43 H 0.8010 0.5872 0.5136
H44 H 0.7955 0.5387 0.4258
C29 C 0.76519(3) 0.2794(2) 0.42694(10)
H45 H 0.7612 0.3940 0.4190
C30 C 0.91049(4) 0.3251(3) 0.74742(12)
H46 H 0.9086 0.4286 0.7732
H47 H 0.9287 0.3114 0.7485
H48 H 0.9052 0.2313 0.7734
N7 N 0.82680(3) 0.30758(19) 0.56972(9)
N8 N 0.80960(3) 0.34695(19) 0.49771(8)
N9 N 0.82159(3) -0.00179(19) 0.51805(9)
N10 N 0.73369(3) -0.1402(2) 0.38589(8)
N11 N 0.72181(3) 0.2128(2) 0.35223(9)
N12 N 0.67428(3) 0.5253(2) 0.26943(10)
O8 O 0.85915(2) 0.33854(18) 0.71198(7)
O9 O 0.89407(2) 0.33120(18) 0.66919(7)
O10 O 0.82467(2) -0.10065(16) 0.57019(7)
O11 O 0.83877(2) 0.03906(16) 0.48965(7)
O12 O 0.74116(3) -0.28449(17) 0.40152(8)
O13 O 0.71088(2) -0.10947(17) 0.34712(7)
O14 O 0.67459(2) 0.24563(17) 0.26056(8)
H5 H 0.4368(4) 0.173(3) 0.2925(11)
H8 H 0.5529(5) 0.450(3) 0.5341(14)
H12 H 0.3824(4) 0.558(2) 0.1871(10)
H16 H 0.4078(4) 0.664(3) 0.2308(13)
C1 C 0.41056(4) 0.4119(3) 0.23589(10)
C2 C 0.47126(3) 0.2084(2) 0.35028(10)
C3 C 0.60007(3) 0.4314(3) 0.57157(11)
C4 C 0.44000(3) 0.4177(2) 0.27695(10)
H17 H 0.4437 0.5008 0.3191
C5 C 0.47851(4) 0.0412(2) 0.37103(11)
C6 C 0.58095(3) 0.4446(3) 0.49375(11)
H18 H 0.5865 0.3722 0.4573
C7 C 0.50403(4) 0.0034(3) 0.41332(11)
H19 H 0.5085 -0.1078 0.4289
C8 C 0.57960(4) 0.6264(3) 0.46807(11)
H20 H 0.5783 0.6994 0.5100
H21 H 0.5957 0.6555 0.4556
C9 C 0.45388(3) 0.4682(3) 0.21944(11)
H22 H 0.4727 0.4675 0.2438
H23 H 0.4483 0.5800 0.2005
H24 H 0.4495 0.3897 0.1770
C10 C 0.52253(3) 0.1235(3) 0.43247(10)
C11 C 0.55619(4) 0.6554(3) 0.39883(11)
H25 H 0.5593 0.6017 0.3541
H26 H 0.5541 0.7759 0.3886
C12 C 0.53127(4) 0.5859(2) 0.41043(11)
H27 H 0.5265 0.6502 0.4501
H28 H 0.5168 0.5945 0.3627
C13 C 0.51666(4) 0.2935(3) 0.41537(10)
C14 C 0.49070(3) 0.3302(2) 0.37761(10)
H29 H 0.4858 0.4436 0.3698
C15 C 0.63990(4) 0.3329(3) 0.65010(11)
H30 H 0.6464 0.4453 0.6650
H31 H 0.6544 0.2611 0.6484
H32 H 0.6318 0.2890 0.6872
N1 N 0.55580(3) 0.3866(2) 0.50158(9)
N2 N 0.53559(3) 0.4127(2) 0.43334(9)
N3 N 0.54931(3) 0.0624(2) 0.46370(9)
N4 N 0.46122(3) -0.0971(2) 0.34844(9)
N5 N 0.44731(3) 0.2527(2) 0.30785(9)
N6 N 0.39955(3) 0.5576(2) 0.21369(10)
O1 O 0.59672(3) 0.5004(2) 0.62538(8)
O2 O 0.62077(2) 0.33792(17) 0.57568(7)
O3 O 0.55363(3) -0.03305(18) 0.51835(7)
O4 O 0.56537(2) 0.09843(17) 0.43107(8)
O5 O 0.46939(3) -0.23725(18) 0.37090(9)
O6 O 0.43866(2) -0.07405(17) 0.30784(7)
O7 O 0.39936(2) 0.27710(18) 0.22114(8)
H6 H 0.5916(4) 0.613(3) 0.0678(12)
H7 H 0.4676(4) 0.344(3) -0.1063(14)
H11 H 0.6396(4) 0.224(3) 0.1784(12)
H14 H 0.6162(5) 0.136(3) 0.1271(13)
C46 C 0.51569(4) 0.4927(2) -0.08709(10)
C47 C 0.61776(3) 0.3764(3) 0.11282(10)
C48 C 0.43005(4) 0.3632(3) -0.23328(10)
C49 C 0.50770(3) 0.6626(2) -0.09395(10)
C50 C 0.45884(3) 0.3400(2) -0.22226(10)
H65 H 0.4640 0.4057 -0.2614
C51 C 0.59352(3) 0.3788(3) 0.04394(10)
H66 H 0.5809 0.2928 0.0498
C52 C 0.52295(4) 0.7833(3) -0.05108(10)
H67 H 0.5165 0.8934 -0.0536
C53 C 0.60171(4) 0.3432(3) -0.02721(11)
H68 H 0.5864 0.3482 -0.0721
H69 H 0.6095 0.2324 -0.0233
H70 H 0.6145 0.4262 -0.0318
C54 C 0.46448(4) 0.1560(2) -0.23081(11)
H71 H 0.4565 0.0884 -0.1989
H72 H 0.4568 0.1215 -0.2843
C55 C 0.49387(3) 0.1268(3) -0.20672(11)
H73 H 0.4974 0.0063 -0.2066
H74 H 0.5014 0.1803 -0.2436
C56 C 0.54780(4) 0.7486(2) -0.00381(11)
C57 C 0.55764(3) 0.5834(2) 0.00090(10)
C58 C 0.50657(4) 0.1978(2) -0.12791(11)
H75 H 0.5005 0.1367 -0.0899
H76 H 0.5257 0.1861 -0.1145
C59 C 0.38833(3) 0.3885(3) -0.32018(12)
H77 H 0.3818 0.2859 -0.3039
H78 H 0.3800 0.4052 -0.3746
H79 H 0.3843 0.4825 -0.2919
C60 C 0.54009(4) 0.4588(2) -0.03829(10)
H80 H 0.5454 0.3461 -0.0305
N19 N 0.47235(3) 0.4058(2) -0.14632(9)
N20 N 0.49955(3) 0.3729(2) -0.12801(8)
N21 N 0.48495(3) 0.7210(2) -0.15380(9)
N22 N 0.56255(3) 0.8867(2) 0.03460(8)
N23 N 0.58210(3) 0.5426(2) 0.04097(10)
N24 N 0.62612(3) 0.2240(2) 0.13800(10)
O22 O 0.42083(3) 0.3641(3) -0.18199(8)
O23 O 0.41637(2) 0.37623(18) -0.30557(7)
O24 O 0.48319(2) 0.68292(17) -0.21973(7)
O25 O 0.46990(2) 0.81618(17) -0.13557(8)
O26 O 0.55199(3) 1.02352(18) 0.03117(8)
O27 O 0.58604(2) 0.86801(19) 0.06992(7)
O28 O 0.62898(3) 0.50531(18) 0.13773(8)
C61 C 0.67243(4) -0.1175(3) 0.15552(13)
H81 H 0.6613 -0.0513 0.1139
H82 H 0.6661 -0.1089 0.2000
H83 H 0.6720 -0.2338 0.1398
C62 C 0.69902(5) -0.0557(3) 0.17464(12)
N25 N 0.71984(5) -0.0075(3) 0.18946(11)
C63 C 0.61063(6) -0.1151(4) -0.0912(2)
H84 H 0.6187 -0.0909 -0.1312
H85 H 0.6112 -0.2349 -0.0817
H86 H 0.6201 -0.0568 -0.0446
C64 C 0.58354(7) -0.0594(4) -0.11549(17)
N26 N 0.56266(6) -0.0123(4) -0.13313(15)
loop_
_geom_bond_atom_site_label_1
_geom_bond_atom_site_label_2
_geom_bond_site_symmetry_1
_geom_bond_site_symmetry_2
H1 N13 1_555 1_555
H2 N7 1_555 1_555
H3 N11 1_555 1_555
H4 N17 1_555 1_555
H5 N5 1_555 1_555
H6 N23 1_555 1_555
H7 N19 1_555 1_555
H8 N1 1_555 1_555
H9 N12 1_555 1_555
H10 N12 1_555 1_555
H11 N24 1_555 1_555
H12 N6 1_555 1_555
H13 N18 1_555 1_555
H14 N24 1_555 1_555
H15 N18 1_555 1_555
H16 N6 1_555 1_555
C1 C4 1_555 1_555
C2 C5 1_555 1_555
C3 C6 1_555 1_555
C4 H17 1_555 1_555
C5 C7 1_555 1_555
C6 H18 1_555 1_555
C7 H19 1_555 1_555
C8 C6 1_555 1_555
H20 C8 1_555 1_555
H21 C8 1_555 1_555
C9 C4 1_555 1_555
H22 C9 1_555 1_555
H23 C9 1_555 1_555
H24 C9 1_555 1_555
C10 C7 1_555 1_555
C11 C8 1_555 1_555
H25 C11 1_555 1_555
H26 C11 1_555 1_555
C12 C11 1_555 1_555
H27 C12 1_555 1_555
H28 C12 1_555 1_555
C13 C10 1_555 1_555
C14 C2 1_555 1_555
H29 C14 1_555 1_555
C15 H30 1_555 1_555
H31 C15 1_555 1_555
H32 C15 1_555 1_555
N1 C6 1_555 1_555
N2 C12 1_555 1_555
N3 C10 1_555 1_555
N4 C5 1_555 1_555
N5 C2 1_555 1_555
N6 C1 1_555 1_555
O1 C3 1_555 1_555
O2 C3 1_555 1_555
O3 N3 1_555 1_555
O4 N3 1_555 1_555
O5 N4 1_555 1_555
O6 N4 1_555 1_555
O7 C1 1_555 1_555
C16 C19 1_555 1_555
C17 C21 1_555 1_555
C18 C20 1_555 1_555
C19 C22 1_555 1_555
C20 H33 1_555 1_555
C21 H34 1_555 1_555
C22 H35 1_555 1_555
C23 C20 1_555 1_555
H36 C23 1_555 1_555
H37 C23 1_555 1_555
H38 C23 1_555 1_555
C24 C21 1_555 1_555
H39 C24 1_555 1_555
H40 C24 1_555 1_555
C25 C24 1_555 1_555
H41 C25 1_555 1_555
H42 C25 1_555 1_555
C26 C22 1_555 1_555
C27 C26 1_555 1_555
C28 C25 1_555 1_555
H43 C28 1_555 1_555
H44 C28 1_555 1_555
C29 C16 1_555 1_555
H45 C29 1_555 1_555
C30 H46 1_555 1_555
H47 C30 1_555 1_555
H48 C30 1_555 1_555
N7 C21 1_555 1_555
N8 C27 1_555 1_555
N9 C26 1_555 1_555
N10 C19 1_555 1_555
N11 C16 1_555 1_555
N12 C18 1_555 1_555
O8 C17 1_555 1_555
O9 C17 1_555 1_555
O10 N9 1_555 1_555
O11 N9 1_555 1_555
O12 N10 1_555 1_555
O13 N10 1_555 1_555
O14 C18 1_555 1_555
C31 C36 1_555 1_555
C32 C34 1_555 1_555
C33 C35 1_555 1_555
C34 C38 1_555 1_555
C35 H49 1_555 1_555
C36 H50 1_555 1_555
C37 C36 1_555 1_555
H51 C37 1_555 1_555
H52 C37 1_555 1_555
C38 H53 1_555 1_555
C39 C35 1_555 1_555
H54 C39 1_555 1_555
H55 C39 1_555 1_555
H56 C39 1_555 1_555
C40 C37 1_555 1_555
H57 C40 1_555 1_555
H58 C40 1_555 1_555
C41 C38 1_555 1_555
C42 C41 1_555 1_555
C43 C40 1_555 1_555
H59 C43 1_555 1_555
H60 C43 1_555 1_555
C44 H61 1_555 1_555
H62 C44 1_555 1_555
H63 C44 1_555 1_555
C45 C32 1_555 1_555
H64 C45 1_555 1_555
N13 C36 1_555 1_555
N14 C32 1_555 1_555
N15 C34 1_555 1_555
N16 C41 1_555 1_555
N17 C35 1_555 1_555
N18 C33 1_555 1_555
O15 C31 1_555 1_555
O16 C31 1_555 1_555
O17 N15 1_555 1_555
O18 N15 1_555 1_555
O19 N16 1_555 1_555
O20 N16 1_555 1_555
O21 C33 1_555 1_555
C46 C49 1_555 1_555
C47 C51 1_555 1_555
C48 C50 1_555 1_555
C49 C52 1_555 1_555
C50 H65 1_555 1_555
C51 H66 1_555 1_555
C52 H67 1_555 1_555
C53 C51 1_555 1_555
H68 C53 1_555 1_555
H69 C53 1_555 1_555
H70 C53 1_555 1_555
C54 C50 1_555 1_555
H71 C54 1_555 1_555
H72 C54 1_555 1_555
C55 C54 1_555 1_555
H73 C55 1_555 1_555
H74 C55 1_555 1_555
C56 C52 1_555 1_555
C57 C56 1_555 1_555
C58 C55 1_555 1_555
H75 C58 1_555 1_555
H76 C58 1_555 1_555
C59 H77 1_555 1_555
H78 C59 1_555 1_555
H79 C59 1_555 1_555
C60 C46 1_555 1_555
H80 C60 1_555 1_555
N19 C50 1_555 1_555
N20 C46 1_555 1_555
N21 C49 1_555 1_555
N22 C56 1_555 1_555
N23 C51 1_555 1_555
N24 C47 1_555 1_555
O22 C48 1_555 1_555
O23 C48 1_555 1_555
O24 N21 1_555 1_555
O25 N21 1_555 1_555
O26 N22 1_555 1_555
O27 N22 1_555 1_555
O28 C47 1_555 1_555
C61 H81 1_555 1_555
H82 C61 1_555 1_555
H83 C61 1_555 1_555
C62 C61 1_555 1_555
C63 H84 1_555 1_555
H85 C63 1_555 1_555
H86 C63 1_555 1_555
C64 C63 1_555 1_555
N25 C62 1_555 1_555
N26 C64 1_555 1_555
C4 N5 1_555 1_555
C13 C14 1_555 1_555
C13 N2 1_555 1_555
C15 O2 1_555 1_555
N1 N2 1_555 1_555
C20 N11 1_555 1_555
C27 C29 1_555 1_555
C28 N8 1_555 1_555
C30 O9 1_555 1_555
N7 N8 1_555 1_555
C42 C45 1_555 1_555
C42 N17 1_555 1_555
C43 N14 1_555 1_555
C44 O16 1_555 1_555
N13 N14 1_555 1_555
C57 C60 1_555 1_555
C57 N23 1_555 1_555
C58 N20 1_555 1_555
C59 O23 1_555 1_555
N19 N20 1_555 1_555

#END
