
#######################################################################
#
#                 Cambridge Crystallographic Data Centre
#                                CCDC 
#
#######################################################################
#
# If this CIF has been generated from an entry in the Cambridge 
# Structural Database, then it will include bibliographic, chemical, 
# crystal, experimental, refinement or atomic coordinate data resulting 
# from the CCDC's data processing and validation procedures.
#
#######################################################################

data_IYOCEF
_chemical_formula_moiety         'C26 H22 Cl1 N1 O4'
_chemical_name_systematic        
"Methyl 2'-(4-chlorophenyl)-4-oxo-4'-phenyl-4H-spiro[chromene-3,3'-pyrrolidine]-5'-carboxylate"
_symmetry_cell_setting           orthorhombic
_symmetry_space_group_name_H-M   'P 21 21 21'
_symmetry_Int_Tables_number      19
_space_group_name_Hall           'P 2ac 2ab'
loop_
_symmetry_equiv_pos_site_id
_symmetry_equiv_pos_as_xyz
1 x,y,z
2 1/2-x,-y,1/2+z
3 -x,1/2+y,1/2-z
4 1/2+x,1/2-y,-z
_cell_length_a                   9.960(9)
_cell_length_b                   12.124(11)
_cell_length_c                   18.738(16)
_cell_angle_alpha                90
_cell_angle_beta                 90
_cell_angle_gamma                90
_cell_volume                     2262.71
_exptl_crystal_description       block
_cell_formula_units_Z            4
loop_
_atom_site_label
_atom_site_type_symbol
_atom_site_fract_x
_atom_site_fract_y
_atom_site_fract_z
C1 C 0.8377(4) 0.7480(3) 0.11318(19)
C2 C 0.8746(4) 0.8083(3) 0.1710(2)
H1 H 0.9602 0.8010 0.1903
C3 C 0.7832(4) 0.8807(3) 0.20100(17)
H2 H 0.8081 0.9223 0.2405
C4 C 0.6561(3) 0.8922(2) 0.17328(14)
C5 C 0.6208(3) 0.8285(2) 0.11502(15)
H3 H 0.5349 0.8343 0.0960
C6 C 0.7124(4) 0.7563(2) 0.08479(16)
H4 H 0.6884 0.7138 0.0455
C7 C 0.5618(3) 0.9762(2) 0.20546(13)
H5 H 0.6158 1.0390 0.2217
C8 C 0.3266(3) 0.9840(2) 0.17673(15)
H6 H 0.2811 1.0456 0.2005
C9 C 0.3517(3) 0.8915(2) 0.23019(14)
H7 H 0.3826 0.8279 0.2024
C10 C 0.4752(3) 0.93565(19) 0.27012(13)
C11 C 0.2332(3) 0.8520(2) 0.27310(15)
C12 C 0.1446(4) 0.9204(3) 0.30834(18)
H8 H 0.1555 0.9965 0.3054
C13 C 0.0399(4) 0.8776(3) 0.3479(2)
H9 H -0.0180 0.9250 0.3720
C14 C 0.0207(4) 0.7661(4) 0.3520(2)
H10 H -0.0490 0.7377 0.3794
C15 C 0.1037(4) 0.6970(3) 0.3160(2)
H11 H 0.0899 0.6212 0.3179
C16 C 0.2086(3) 0.7396(3) 0.27649(19)
H12 H 0.2642 0.6916 0.2515
C17 C 0.2468(4) 0.9482(3) 0.11254(16)
C18 C 0.0985(6) 1.0098(4) 0.0237(3)
H13 H 0.1580 0.9991 -0.0160
H14 H 0.0409 1.0717 0.0144
H15 H 0.0449 0.9448 0.0304
C19 C 0.5422(3) 0.8478(2) 0.31592(13)
C20 C 0.6169(3) 0.8874(2) 0.37897(14)
C21 C 0.6814(3) 0.8142(3) 0.42477(15)
H16 H 0.6721 0.7386 0.4179
C22 C 0.7587(4) 0.8531(3) 0.48016(17)
H17 H 0.7987 0.8040 0.5119
C23 C 0.7767(4) 0.9651(3) 0.48847(18)
H18 H 0.8334 0.9908 0.5242
C24 C 0.7128(3) 1.0391(3) 0.44511(17)
H19 H 0.7242 1.1145 0.4518
C25 C 0.6307(3) 0.9998(2) 0.39091(14)
C26 C 0.4449(3) 1.0342(2) 0.31822(14)
H20 H 0.4034 1.0921 0.2901
H21 H 0.3817 1.0120 0.3549
Cl1 Cl 0.95385(13) 0.66002(8) 0.07342(6)
N1 N 0.4618(3) 1.01781(17) 0.15503(12)
H22 H 0.4798 1.0566 0.1178
O1 O 0.2462(3) 0.85963(19) 0.08638(13)
O2 O 0.1764(3) 1.0307(2) 0.08754(14)
O3 O 0.5644(2) 1.07617(14) 0.35126(10)
O4 O 0.5356(2) 0.75059(14) 0.30053(10)
loop_
_geom_bond_atom_site_label_1
_geom_bond_atom_site_label_2
_geom_bond_site_symmetry_1
_geom_bond_site_symmetry_2
C1 C2 1_555 1_555
C2 H1 1_555 1_555
C3 C2 1_555 1_555
H2 C3 1_555 1_555
C4 C3 1_555 1_555
C5 C4 1_555 1_555
H3 C5 1_555 1_555
C6 C1 1_555 1_555
H4 C6 1_555 1_555
C7 C4 1_555 1_555
H5 C7 1_555 1_555
C8 H6 1_555 1_555
C9 C8 1_555 1_555
H7 C9 1_555 1_555
C10 C7 1_555 1_555
C11 C9 1_555 1_555
C12 C11 1_555 1_555
H8 C12 1_555 1_555
C13 C12 1_555 1_555
H9 C13 1_555 1_555
C14 C13 1_555 1_555
H10 C14 1_555 1_555
C15 C14 1_555 1_555
H11 C15 1_555 1_555
C16 C11 1_555 1_555
H12 C16 1_555 1_555
C17 C8 1_555 1_555
C18 H13 1_555 1_555
H14 C18 1_555 1_555
H15 C18 1_555 1_555
C19 C10 1_555 1_555
C20 C19 1_555 1_555
C21 C20 1_555 1_555
H16 C21 1_555 1_555
C22 C21 1_555 1_555
H17 C22 1_555 1_555
C23 C22 1_555 1_555
H18 C23 1_555 1_555
C24 C23 1_555 1_555
H19 C24 1_555 1_555
C25 C20 1_555 1_555
C26 C10 1_555 1_555
H20 C26 1_555 1_555
H21 C26 1_555 1_555
Cl1 C1 1_555 1_555
N1 C7 1_555 1_555
H22 N1 1_555 1_555
O1 C17 1_555 1_555
O2 C17 1_555 1_555
O3 C25 1_555 1_555
O4 C19 1_555 1_555
C5 C6 1_555 1_555
C8 N1 1_555 1_555
C9 C10 1_555 1_555
C15 C16 1_555 1_555
C18 O2 1_555 1_555
C24 C25 1_555 1_555
C26 O3 1_555 1_555

#END
