
#######################################################################
#
#                 Cambridge Crystallographic Data Centre
#                                CCDC 
#
#######################################################################
#
# If this CIF has been generated from an entry in the Cambridge 
# Structural Database, then it will include bibliographic, chemical, 
# crystal, experimental, refinement or atomic coordinate data resulting 
# from the CCDC's data processing and validation procedures.
#
#######################################################################

data_IYOGUZ
_chemical_formula_moiety         'C21 H23 F3 N2 O2'
_chemical_name_systematic        6'-Methoxy-9-(trifluoromethyl)cinchonan-9-ol
_symmetry_cell_setting           triclinic
_symmetry_space_group_name_H-M   'P 1'
_symmetry_Int_Tables_number      1
_space_group_name_Hall           'P 1'
loop_
_symmetry_equiv_pos_site_id
_symmetry_equiv_pos_as_xyz
1 x,y,z
_cell_length_a                   12.440(10)
_cell_length_b                   12.594(10)
_cell_length_c                   12.697(10)
_cell_angle_alpha                90.00
_cell_angle_beta                 100.954(14)
_cell_angle_gamma                90.00
_cell_volume                     1952.99
_cell_formula_units_Z            4
loop_
_atom_site_label
_atom_site_type_symbol
_atom_site_fract_x
_atom_site_fract_y
_atom_site_fract_z
C1 C 0.9024(7) 0.2334(6) 0.2227(7)
H1 H 0.8712 0.2057 0.2797
C2 C 0.9082(7) 0.1697(7) 0.1327(8)
H2 H 0.8808 0.0993 0.1327
C3 C 0.9877(7) 0.3014(6) 0.0500(7)
C4 C 1.0285(6) 0.3346(7) -0.0398(7)
H3 H 1.0295 0.2857 -0.0966
C5 C 1.0667(7) 0.4347(8) -0.0484(8)
H4 H 1.0941 0.4563 -0.1100
C6 C 1.0643(7) 0.5064(7) 0.0386(8)
C7 C 1.0263(6) 0.4780(6) 0.1295(6)
H5 H 1.0268 0.5278 0.1858
C8 C 0.9864(6) 0.3736(6) 0.1382(7)
C9 C 0.9415(6) 0.3343(6) 0.2279(7)
C10 C 1.1103(8) 0.6818(7) 0.1061(8)
H6 H 1.0351 0.7000 0.1122
H7 H 1.1483 0.7458 0.0889
H8 H 1.1488 0.6521 0.1742
C11 C 0.9329(6) 0.3986(6) 0.3328(7)
C12 C 1.0445(7) 0.4177(7) 0.4041(8)
C13 C 0.8720(7) 0.5042(6) 0.3100(6)
H9 H 0.9234 0.5515 0.2801
C14 C 0.8459(6) 0.5653(6) 0.4095(6)
H10 H 0.8403 0.5153 0.4683
H11 H 0.9041 0.6177 0.4359
C15 C 0.7391(6) 0.6200(6) 0.3714(7)
H12 H 0.7234 0.6691 0.4284
C16 C 0.7412(7) 0.6842(7) 0.2661(8)
H13 H 0.6686 0.7204 0.2464
C17 C 0.7475(7) 0.6012(6) 0.1752(6)
H14 H 0.6762 0.5982 0.1249
H15 H 0.8040 0.6235 0.1343
C18 C 0.6844(6) 0.4554(6) 0.2671(7)
H16 H 0.7038 0.3865 0.3032
H17 H 0.6207 0.4438 0.2084
C19 C 0.6523(7) 0.5364(7) 0.3498(8)
H18 H 0.5806 0.5692 0.3202
H19 H 0.6463 0.4994 0.4172
C20 C 0.8259(7) 0.7692(6) 0.2814(6)
H20 H 0.8545 0.7882 0.3537
C21 C 0.8642(8) 0.8185(8) 0.2121(7)
H21 H 0.8392 0.8033 0.1383
H22 H 0.9185 0.8714 0.2331
F1 F 1.1055(4) 0.3305(4) 0.4077(4)
F2 F 1.0418(4) 0.4400(4) 0.5087(4)
F3 F 1.0997(4) 0.4956(4) 0.3675(4)
N1 N 0.9493(5) 0.2000(5) 0.0467(6)
N2 N 0.7754(5) 0.4933(5) 0.2228(5)
O1 O 0.8751(4) 0.3388(4) 0.3998(5)
H89 H 0.9146 0.2884 0.4280
O2 O 1.1081(5) 0.6040(5) 0.0214(6)
C22 C 0.9770(6) 1.0000(6) 0.6354(7)
C23 C 1.0153(6) 0.8952(6) 0.6294(7)
H23 H 1.0180 0.8488 0.6888
C24 C 1.0488(7) 0.8593(7) 0.5383(8)
C25 C 1.0534(7) 0.9241(8) 0.4513(8)
H24 H 1.0815 0.8979 0.3918
C26 C 1.0174(6) 1.0251(7) 0.4521(7)
H25 H 1.0181 1.0693 0.3916
C27 C 0.9780(6) 1.0667(7) 0.5431(7)
C28 C 0.9088(7) 1.2077(6) 0.6206(7)
H26 H 0.8872 1.2801 0.6187
C29 C 0.9018(6) 1.1475(6) 0.7135(7)
H27 H 0.8736 1.1802 0.7699
C30 C 0.9345(6) 1.0435(6) 0.7241(6)
C31 C 1.0904(8) 0.6857(7) 0.6201(9)
H28 H 1.1362 0.7162 0.6843
H29 H 1.1205 0.6170 0.6042
H30 H 1.0157 0.6759 0.6326
C32 C 0.9242(6) 0.9858(6) 0.8328(7)
C33 C 1.0351(7) 0.9625(7) 0.9039(8)
C34 C 0.8578(6) 0.8817(6) 0.8088(7)
H31 H 0.9063 0.8299 0.7807
C35 C 0.8274(6) 0.8315(6) 0.9089(7)
H32 H 0.8813 0.7760 0.9381
H33 H 0.8268 0.8860 0.9649
C36 C 0.7137(7) 0.7827(6) 0.8758(8)
H34 H 0.6950 0.7364 0.9337
C37 C 0.7123(7) 0.7191(7) 0.7706(7)
H35 H 0.6430 0.6787 0.7521
H36 H 0.7737 0.6678 0.7813
C38 C 0.7232(7) 0.7970(7) 0.6757(7)
H37 H 0.7756 0.7676 0.6336
H38 H 0.6513 0.8053 0.6273
C39 C 0.6752(6) 0.9491(6) 0.7661(7)
H39 H 0.6134 0.9673 0.7075
H40 H 0.7025 1.0158 0.8032
C40 C 0.6333(7) 0.8717(6) 0.8487(7)
H41 H 0.5617 0.8408 0.8127
C41 C 0.6148(7) 0.9326(7) 0.9490(8)
H42 H 0.6794 0.9542 0.9969
C42 C 0.5286(8) 0.9572(7) 0.9758(8)
H43 H 0.4608 0.9382 0.9318
H44 H 0.5296 0.9952 1.0406
F4 F 1.1017(4) 1.0442(4) 0.9052(4)
F5 F 1.0847(4) 0.8781(4) 0.8701(5)
F6 F 1.0298(4) 0.9413(4) 1.0067(4)
N3 N 0.9443(6) 1.1683(5) 0.5355(6)
N4 N 0.7621(6) 0.9005(5) 0.7210(6)
O3 O 1.0886(5) 0.7580(5) 0.5288(5)
O4 O 0.8749(4) 1.0534(4) 0.8982(5)
H90 H 0.8122 1.0306 0.9014
C43 C 0.3733(6) -0.1256(6) 0.5555(7)
C44 C 0.3334(6) -0.0204(6) 0.5662(7)
H45 H 0.3348 0.0306 0.5113
C45 C 0.2930(7) 0.0068(8) 0.6563(9)
C46 C 0.2927(7) -0.0626(8) 0.7432(8)
H46 H 0.2675 -0.0395 0.8055
C47 C 0.3294(7) -0.1641(7) 0.7358(8)
H47 H 0.3268 -0.2132 0.7921
C48 C 0.3714(6) -0.1968(6) 0.6443(7)
C49 C 0.4508(7) -0.3298(7) 0.5620(8)
H48 H 0.4790 -0.3999 0.5623
C50 C 0.4565(7) -0.2661(7) 0.4708(7)
H49 H 0.4880 -0.2945 0.4144
C51 C 0.4174(6) -0.1644(6) 0.4632(7)
C52 C 0.2500(8) 0.1837(7) 0.5892(8)
H50 H 0.3248 0.1973 0.5787
H51 H 0.2177 0.2498 0.6093
H52 H 0.2060 0.1564 0.5224
C53 C 0.4281(7) -0.1000(6) 0.3615(7)
C54 C 0.3140(7) -0.0836(7) 0.2909(7)
C55 C 0.4869(6) 0.0049(6) 0.3847(6)
H53 H 0.4355 0.0522 0.4147
C56 C 0.5132(6) 0.0645(6) 0.2837(7)
H54 H 0.5200 0.0132 0.2262
H55 H 0.4544 0.1157 0.2556
C57 C 0.6198(6) 0.1216(7) 0.3207(7)
H56 H 0.6349 0.1713 0.2639
C58 C 0.6195(7) 0.1836(6) 0.4288(7)
H57 H 0.6920 0.2198 0.4491
C59 C 0.6119(7) 0.1005(6) 0.5173(7)
H58 H 0.6828 0.0971 0.5681
H59 H 0.5552 0.1228 0.5578
C60 C 0.6771(6) -0.0428(6) 0.4270(7)
H60 H 0.6600 -0.1126 0.3921
H61 H 0.7406 -0.0521 0.4864
C61 C 0.7078(7) 0.0376(7) 0.3435(8)
H62 H 0.7793 0.0711 0.3725
H63 H 0.7138 0.0000 0.2764
C62 C 0.5345(7) 0.2673(6) 0.4116(6)
H64 H 0.5058 0.2847 0.3389
C63 C 0.4946(8) 0.3194(9) 0.4819(7)
H65 H 0.5198 0.3058 0.5561
H66 H 0.4398 0.3716 0.4598
F7 F 0.3158(4) -0.0597(4) 0.1854(4)
F8 F 0.2522(4) -0.1694(4) 0.2862(4)
F9 F 0.2597(4) -0.0034(4) 0.3264(4)
N5 N 0.5842(5) -0.0066(5) 0.4701(5)
N6 N 0.4098(5) -0.3005(5) 0.6467(6)
O5 O 0.2524(5) 0.1059(5) 0.6737(6)
O6 O 0.4839(4) -0.1609(4) 0.2945(5)
H91 H 0.4417 -0.2078 0.2629
C64 C 0.3828(6) 0.4983(6) 1.0598(7)
C65 C 0.3451(6) 0.3923(6) 1.0663(8)
H67 H 0.3456 0.3450 1.0080
C66 C 0.3079(7) 0.3571(7) 1.1555(8)
C67 C 0.3065(7) 0.4229(8) 1.2437(8)
H68 H 0.2815 0.3955 1.3045
C68 C 0.3401(6) 0.5250(7) 1.2438(7)
H69 H 0.3379 0.5702 1.3032
C69 C 0.3798(6) 0.5635(7) 1.1506(7)
C70 C 0.4505(7) 0.7052(6) 1.0745(7)
H70 H 0.4742 0.7771 1.0778
C71 C 0.4571(6) 0.6459(6) 0.9792(7)
H71 H 0.4847 0.6793 0.9228
C72 C 0.4241(6) 0.5418(6) 0.9683(6)
C73 C 0.2699(8) 0.1844(7) 1.0761(9)
H72 H 0.2222 0.2130 1.0121
H73 H 0.2426 0.1148 1.0935
H74 H 0.3445 0.1768 1.0625
C74 C 0.4357(7) 0.4848(6) 0.8605(7)
C75 C 0.3237(7) 0.4620(8) 0.7916(8)
C76 C 0.5004(7) 0.3816(6) 0.8868(7)
H75 H 0.4519 0.3296 0.9149
C77 C 0.5314(6) 0.3326(6) 0.7817(7)
H76 H 0.4778 0.2774 0.7509
H77 H 0.5330 0.3884 0.7271
C78 C 0.6469(7) 0.2833(7) 0.8184(7)
H78 H 0.6670 0.2377 0.7605
C79 C 0.6463(7) 0.2164(7) 0.9232(8)
H79 H 0.7153 0.1756 0.9425
H80 H 0.5843 0.1658 0.9113
C80 C 0.6345(8) 0.2964(7) 1.0167(8)
H81 H 0.5811 0.2679 1.0581
H82 H 0.7060 0.3039 1.0660
C81 C 0.6869(7) 0.4477(6) 0.9284(7)
H83 H 0.7487 0.4641 0.9876
H84 H 0.6612 0.5152 0.8923
C82 C 0.7276(7) 0.3725(7) 0.8465(7)
H85 H 0.7994 0.3415 0.8818
C83 C 0.7437(7) 0.4295(7) 0.7455(9)
H86 H 0.6783 0.4469 0.6968
C84 C 0.8281(10) 0.4563(7) 0.7175(8)
H87 H 0.8969 0.4416 0.7621
H88 H 0.8251 0.4919 0.6511
F10 F 0.2577(4) 0.5444(4) 0.7881(4)
F11 F 0.3295(4) 0.4420(4) 0.6868(4)
F12 F 0.2736(4) 0.3783(4) 0.8230(5)
N7 N 0.4135(6) 0.6664(5) 1.1584(6)
N8 N 0.5979(6) 0.4003(6) 0.9728(6)
O7 O 0.4871(4) 0.5500(4) 0.7964(5)
H92 H 0.4411 0.5922 0.7620
O8 O 0.2707(5) 0.2565(5) 1.1658(6)
loop_
_geom_bond_atom_site_label_1
_geom_bond_atom_site_label_2
_geom_bond_site_symmetry_1
_geom_bond_site_symmetry_2
C1 H1 1_555 1_555
C2 C1 1_555 1_555
H2 C2 1_555 1_555
C3 C4 1_555 1_555
C4 H3 1_555 1_555
C5 C4 1_555 1_555
H4 C5 1_555 1_555
C6 C5 1_555 1_555
C7 C6 1_555 1_555
H5 C7 1_555 1_555
C8 C3 1_555 1_555
C9 C1 1_555 1_555
C10 H6 1_555 1_555
H7 C10 1_555 1_555
H8 C10 1_555 1_555
C11 C9 1_555 1_555
C12 C11 1_555 1_555
C13 C11 1_555 1_555
H9 C13 1_555 1_555
C14 C13 1_555 1_555
H10 C14 1_555 1_555
H11 C14 1_555 1_555
C15 C14 1_555 1_555
H12 C15 1_555 1_555
C16 C15 1_555 1_555
H13 C16 1_555 1_555
C17 C16 1_555 1_555
H14 C17 1_555 1_555
H15 C17 1_555 1_555
C18 H16 1_555 1_555
H17 C18 1_555 1_555
C19 C15 1_555 1_555
H18 C19 1_555 1_555
H19 C19 1_555 1_555
C20 C16 1_555 1_555
H20 C20 1_555 1_555
C21 C20 1_555 1_555
H21 C21 1_555 1_555
H22 C21 1_555 1_555
C22 C23 1_555 1_555
C23 H23 1_555 1_555
C24 C23 1_555 1_555
C25 C24 1_555 1_555
H24 C25 1_555 1_555
C26 C25 1_555 1_555
H25 C26 1_555 1_555
C27 C22 1_555 1_555
C28 H26 1_555 1_555
C29 C28 1_555 1_555
H27 C29 1_555 1_555
C30 C22 1_555 1_555
C31 H28 1_555 1_555
H29 C31 1_555 1_555
H30 C31 1_555 1_555
C32 C30 1_555 1_555
C33 C32 1_555 1_555
C34 C32 1_555 1_555
H31 C34 1_555 1_555
C35 C34 1_555 1_555
H32 C35 1_555 1_555
H33 C35 1_555 1_555
C36 C35 1_555 1_555
H34 C36 1_555 1_555
C37 C36 1_555 1_555
H35 C37 1_555 1_555
H36 C37 1_555 1_555
C38 C37 1_555 1_555
H37 C38 1_555 1_555
H38 C38 1_555 1_555
C39 H39 1_555 1_555
H40 C39 1_555 1_555
C40 C36 1_555 1_555
H41 C40 1_555 1_555
C41 C40 1_555 1_555
H42 C41 1_555 1_555
C42 C41 1_555 1_555
H43 C42 1_555 1_555
H44 C42 1_555 1_555
C43 C44 1_555 1_555
C44 H45 1_555 1_555
C45 C44 1_555 1_555
C46 C45 1_555 1_555
H46 C46 1_555 1_555
C47 C46 1_555 1_555
H47 C47 1_555 1_555
C48 C43 1_555 1_555
C49 H48 1_555 1_555
C50 C49 1_555 1_555
H49 C50 1_555 1_555
C51 C43 1_555 1_555
C52 H50 1_555 1_555
H51 C52 1_555 1_555
H52 C52 1_555 1_555
C53 C51 1_555 1_555
C54 C53 1_555 1_555
C55 C53 1_555 1_555
H53 C55 1_555 1_555
C56 C55 1_555 1_555
H54 C56 1_555 1_555
H55 C56 1_555 1_555
C57 C56 1_555 1_555
H56 C57 1_555 1_555
C58 C57 1_555 1_555
H57 C58 1_555 1_555
C59 C58 1_555 1_555
H58 C59 1_555 1_555
H59 C59 1_555 1_555
C60 H60 1_555 1_555
H61 C60 1_555 1_555
C61 C57 1_555 1_555
H62 C61 1_555 1_555
H63 C61 1_555 1_555
C62 C58 1_555 1_555
H64 C62 1_555 1_555
C63 C62 1_555 1_555
H65 C63 1_555 1_555
H66 C63 1_555 1_555
C64 C65 1_555 1_555
C65 H67 1_555 1_555
C66 C65 1_555 1_555
C67 C66 1_555 1_555
H68 C67 1_555 1_555
C68 C67 1_555 1_555
H69 C68 1_555 1_555
C69 C64 1_555 1_555
C70 H70 1_555 1_555
C71 C70 1_555 1_555
H71 C71 1_555 1_555
C72 C64 1_555 1_555
C73 H72 1_555 1_555
H73 C73 1_555 1_555
H74 C73 1_555 1_555
C74 C72 1_555 1_555
C75 C74 1_555 1_555
C76 C74 1_555 1_555
H75 C76 1_555 1_555
C77 C76 1_555 1_555
H76 C77 1_555 1_555
H77 C77 1_555 1_555
C78 C77 1_555 1_555
H78 C78 1_555 1_555
C79 C78 1_555 1_555
H79 C79 1_555 1_555
H80 C79 1_555 1_555
C80 C79 1_555 1_555
H81 C80 1_555 1_555
H82 C80 1_555 1_555
C81 H83 1_555 1_555
H84 C81 1_555 1_555
C82 C78 1_555 1_555
H85 C82 1_555 1_555
C83 C82 1_555 1_555
H86 C83 1_555 1_555
C84 C83 1_555 1_555
H87 C84 1_555 1_555
H88 C84 1_555 1_555
F1 C12 1_555 1_555
F2 C12 1_555 1_555
F3 C12 1_555 1_555
F4 C33 1_555 1_555
F5 C33 1_555 1_555
F6 C33 1_555 1_555
F7 C54 1_555 1_555
F8 C54 1_555 1_555
F9 C54 1_555 1_555
F10 C75 1_555 1_555
F11 C75 1_555 1_555
F12 C75 1_555 1_555
N1 C2 1_555 1_555
N2 C13 1_555 1_555
N3 C27 1_555 1_555
N4 C34 1_555 1_555
N5 C55 1_555 1_555
N6 C48 1_555 1_555
N7 C69 1_555 1_555
N8 C76 1_555 1_555
O1 C11 1_555 1_555
H89 O1 1_555 1_555
O2 C6 1_555 1_555
O3 C24 1_555 1_555
O4 C32 1_555 1_555
H90 O4 1_555 1_555
O5 C45 1_555 1_555
O6 C53 1_555 1_555
H91 O6 1_555 1_555
O7 C74 1_555 1_555
H92 O7 1_555 1_555
O8 C66 1_555 1_555
C3 N1 1_555 1_555
C7 C8 1_555 1_555
C8 C9 1_555 1_555
C10 O2 1_555 1_555
C17 N2 1_555 1_555
C18 C19 1_555 1_555
C18 N2 1_555 1_555
C26 C27 1_555 1_555
C28 N3 1_555 1_555
C29 C30 1_555 1_555
C31 O3 1_555 1_555
C38 N4 1_555 1_555
C39 C40 1_555 1_555
C39 N4 1_555 1_555
C47 C48 1_555 1_555
C49 N6 1_555 1_555
C50 C51 1_555 1_555
C52 O5 1_555 1_555
C59 N5 1_555 1_555
C60 C61 1_555 1_555
C60 N5 1_555 1_555
C68 C69 1_555 1_555
C70 N7 1_555 1_555
C71 C72 1_555 1_555
C73 O8 1_555 1_555
C80 N8 1_555 1_555
C81 C82 1_555 1_555
C81 N8 1_555 1_555

#END
