
#######################################################################
#
#                 Cambridge Crystallographic Data Centre
#                                CCDC 
#
#######################################################################
#
# If this CIF has been generated from an entry in the Cambridge 
# Structural Database, then it will include bibliographic, chemical, 
# crystal, experimental, refinement or atomic coordinate data resulting 
# from the CCDC's data processing and validation procedures.
#
#######################################################################

data_IYOMIT
_chemical_formula_moiety         'C20 H26 Cl2 N2 O1'
_chemical_name_systematic        
N-(4-Chlorobenzoyl)-N,N'-dicyclohexylchloroformamidine
_symmetry_cell_setting           monoclinic
_symmetry_space_group_name_H-M   'C 2/c'
_symmetry_Int_Tables_number      15
_space_group_name_Hall           '-C 2yn'
loop_
_symmetry_equiv_pos_site_id
_symmetry_equiv_pos_as_xyz
1 x,y,z
2 1/2+x,1/2+y,z
3 -x,y,1/2-z
4 1/2-x,1/2+y,1/2-z
5 -x,-y,-z
6 1/2-x,1/2-y,-z
7 x,-y,1/2+z
8 1/2+x,1/2-y,1/2+z
_cell_length_a                   28.168(6)
_cell_length_b                   6.0730(11)
_cell_length_c                   23.380(5)
_cell_angle_alpha                90
_cell_angle_beta                 101.283(3)
_cell_angle_gamma                90
_cell_volume                     3922.18
_exptl_crystal_colour            colorless
_exptl_crystal_description       block
_cell_formula_units_Z            8
_exptl_crystal_recrystallization_method 'hexane/diethyl ether'
loop_
_atom_site_label
_atom_site_type_symbol
_atom_site_fract_x
_atom_site_fract_y
_atom_site_fract_z
Cl1 Cl 0.09073(2) 0.78927(10) 0.28016(3)
Cl2 Cl 0.10792(3) 1.11713(13) 0.00068(3)
O1 O 0.24149(5) 0.5800(3) 0.22584(7)
N1 N 0.09792(7) 0.4690(3) 0.20280(8)
N2 N 0.17060(6) 0.5932(3) 0.25909(7)
C1 C 0.04601(8) 0.4836(4) 0.17925(10)
H1 H 0.0302 0.5757 0.2057
C2 C 0.02451(9) 0.2536(4) 0.17500(12)
H2 H 0.0281 0.1894 0.2145
H3 H 0.0422 0.1586 0.1519
C3 C -0.02925(9) 0.2608(5) 0.14605(13)
H4 H -0.0423 0.1090 0.1419
H5 H -0.0474 0.3440 0.1712
C4 C -0.03660(10) 0.3686(6) 0.08670(13)
H6 H -0.0215 0.2764 0.0602
H7 H -0.0717 0.3788 0.0702
C5 C -0.01463(10) 0.5958(5) 0.09036(14)
H8 H -0.0323 0.6928 0.1130
H9 H -0.0181 0.6579 0.0506
C6 C 0.03899(9) 0.5910(5) 0.11936(12)
H10 H 0.0574 0.5077 0.0945
H11 H 0.0518 0.7432 0.1234
C7 C 0.11991(8) 0.5912(4) 0.24173(9)
C8 C 0.19473(8) 0.5237(4) 0.31862(9)
H12 H 0.2260 0.4527 0.3149
C9 C 0.20729(8) 0.7221(4) 0.35882(9)
H13 H 0.2269 0.8280 0.3411
H14 H 0.1772 0.7971 0.3639
C10 C 0.23561(9) 0.6475(4) 0.41795(10)
H15 H 0.2425 0.7763 0.4442
H16 H 0.2669 0.5838 0.4131
C11 C 0.20736(9) 0.4764(4) 0.44535(10)
H17 H 0.1776 0.5445 0.4541
H18 H 0.2273 0.4243 0.4825
C12 C 0.19364(9) 0.2811(4) 0.40442(10)
H19 H 0.2234 0.2029 0.3996
H20 H 0.1736 0.1772 0.4221
C13 C 0.16570(8) 0.3525(4) 0.34478(10)
H21 H 0.1595 0.2231 0.3186
H22 H 0.1341 0.4155 0.3488
C14 C 0.19891(8) 0.6289(4) 0.21766(9)
C15 C 0.17463(8) 0.7468(4) 0.16327(9)
C16 C 0.15619(8) 0.9572(4) 0.16727(10)
H23 H 0.1575 1.0224 0.2045
C17 C 0.13589(8) 1.0727(4) 0.11730(10)
H24 H 0.1238 1.2176 0.1199
C18 C 0.13351(8) 0.9734(4) 0.06359(10)
C19 C 0.15172(8) 0.7637(4) 0.05860(10)
H25 H 0.1496 0.6975 0.0214
C20 C 0.17310(8) 0.6523(4) 0.10875(9)
H26 H 0.1868 0.5107 0.1059
loop_
_geom_bond_atom_site_label_1
_geom_bond_atom_site_label_2
_geom_bond_site_symmetry_1
_geom_bond_site_symmetry_2
Cl1 C7 1_555 1_555
Cl2 C18 1_555 1_555
O1 C14 1_555 1_555
N1 C1 1_555 1_555
N2 C7 1_555 1_555
C1 H1 1_555 1_555
C2 C1 1_555 1_555
H2 C2 1_555 1_555
H3 C2 1_555 1_555
C3 C2 1_555 1_555
H4 C3 1_555 1_555
H5 C3 1_555 1_555
C4 C3 1_555 1_555
H6 C4 1_555 1_555
H7 C4 1_555 1_555
C5 C4 1_555 1_555
H8 C5 1_555 1_555
H9 C5 1_555 1_555
C6 C1 1_555 1_555
H10 C6 1_555 1_555
H11 C6 1_555 1_555
C7 N1 1_555 1_555
C8 N2 1_555 1_555
H12 C8 1_555 1_555
C9 C8 1_555 1_555
H13 C9 1_555 1_555
H14 C9 1_555 1_555
C10 C9 1_555 1_555
H15 C10 1_555 1_555
H16 C10 1_555 1_555
C11 C10 1_555 1_555
H17 C11 1_555 1_555
H18 C11 1_555 1_555
C12 C11 1_555 1_555
H19 C12 1_555 1_555
H20 C12 1_555 1_555
C13 C8 1_555 1_555
H21 C13 1_555 1_555
H22 C13 1_555 1_555
C14 N2 1_555 1_555
C15 C14 1_555 1_555
C16 C15 1_555 1_555
H23 C16 1_555 1_555
C17 C16 1_555 1_555
H24 C17 1_555 1_555
C18 C17 1_555 1_555
C19 C18 1_555 1_555
H25 C19 1_555 1_555
C20 C15 1_555 1_555
H26 C20 1_555 1_555
C5 C6 1_555 1_555
C12 C13 1_555 1_555
C19 C20 1_555 1_555

#END
