
#######################################################################
#
#                 Cambridge Crystallographic Data Centre
#                                CCDC 
#
#######################################################################
#
# If this CIF has been generated from an entry in the Cambridge 
# Structural Database, then it will include bibliographic, chemical, 
# crystal, experimental, refinement or atomic coordinate data resulting 
# from the CCDC's data processing and validation procedures.
#
#######################################################################

data_IYOWAV
_chemical_formula_moiety         'C42 H50 N2 O14,C12 H12 N2 2+,2(F6 P1 1-)'
_chemical_name_systematic        
"(2)-(2,5,8,11,14,20,23,26,29,32-Decaoxatricyclo[31.3.1.1^15,19^]octatriaconta-1(37),15(38),16,18,33,35-hexaene-17,35-diylbis(methylene) dipyridine-2-carboxylate)-(6,7-dihydrodipyrido[1,2-a:2',1'-c]pyrazinedi-ium) pseudorotaxane bis(hexafluorophosphate)"
_symmetry_cell_setting           monoclinic
_symmetry_space_group_name_H-M   'P 21/c'
_symmetry_Int_Tables_number      14
_space_group_name_Hall           '-P 2ybc'
loop_
_symmetry_equiv_pos_site_id
_symmetry_equiv_pos_as_xyz
1 x,y,z
2 -x,1/2+y,1/2-z
3 -x,-y,-z
4 x,1/2-y,1/2+z
_cell_length_a                   10.8701(3)
_cell_length_b                   22.6954(6)
_cell_length_c                   22.8977(6)
_cell_angle_alpha                90
_cell_angle_beta                 100.794(3)
_cell_angle_gamma                90
_cell_volume                     5548.95
_exptl_crystal_colour            yellow
_exptl_crystal_description       block
_cell_formula_units_Z            4
loop_
_atom_site_label
_atom_site_type_symbol
_atom_site_fract_x
_atom_site_fract_y
_atom_site_fract_z
P1 P 0.78636(5) 0.20700(3) 0.51788(3)
F1 F 0.81256(17) 0.18253(9) 0.58381(7)
F2 F 0.65470(16) 0.23167(9) 0.52639(12)
F3 F 0.7595(2) 0.23113(9) 0.45107(8)
F4 F 0.91673(14) 0.18224(8) 0.50871(8)
F5 F 0.85060(15) 0.26805(7) 0.54081(8)
F6 F 0.72030(13) 0.14576(6) 0.49486(6)
P2 P 0.25403(5) 0.21090(2) 0.44340(3)
F7 F 0.39647(13) 0.21718(7) 0.47804(7)
F8 F 0.30085(15) 0.22062(8) 0.38139(7)
F9 F 0.27618(16) 0.14173(6) 0.43807(7)
F10 F 0.21053(15) 0.20114(7) 0.50535(7)
F11 F 0.23598(14) 0.28003(6) 0.44885(8)
F12 F 0.11475(14) 0.20400(7) 0.40812(8)
O1 O 0.9725(2) 0.03787(10) 0.05869(10)
O2 O 0.8685(2) 0.03290(8) 0.13332(9)
O3 O 0.89697(15) 0.07105(7) 0.34200(7)
O4 O 0.78519(14) 0.00657(7) 0.41922(7)
O5 O 0.55402(14) -0.04478(7) 0.42858(7)
O6 O 0.31662(14) -0.00164(7) 0.36379(7)
O7 O 0.21246(14) 0.05956(7) 0.25763(7)
O8 O 0.14613(14) 0.25641(6) 0.18758(7)
O9 O 0.21652(14) 0.37346(7) 0.20100(7)
O10 O 0.43529(15) 0.43238(7) 0.24893(8)
O11 O 0.66339(15) 0.36944(7) 0.25177(8)
O12 O 0.79322(16) 0.26104(7) 0.26012(7)
O13 O 0.46992(16) 0.07085(7) 0.08416(8)
O14 O 0.27283(15) 0.04148(7) 0.04717(7)
N1 N 0.9059(2) -0.08225(10) 0.14632(11)
N2 N 0.3427(2) -0.06910(9) 0.03221(10)
C1 C 0.9307(3) -0.13965(13) 0.15380(16)
H1 H 0.8916 -0.1605 0.1801
C2 C 1.0122(3) -0.16994(14) 0.12412(17)
H2 H 1.0259 -0.2101 0.1303
C3 C 1.0716(3) -0.13967(16) 0.08588(15)
H3 H 1.1282 -0.1586 0.0664
C4 C 1.0458(3) -0.08052(15) 0.07676(13)
H4 H 1.0834 -0.0589 0.0504
C5 C 0.9630(2) -0.05419(12) 0.10763(11)
C6 C 0.9358(2) 0.00976(12) 0.09658(11)
C7 C 0.8478(3) 0.09553(12) 0.12909(13)
H5 H 0.7685 0.1037 0.1030
H6 H 0.9139 0.1142 0.1126
C8 C 0.8463(2) 0.11972(11) 0.18984(11)
C9 C 0.8698(2) 0.08470(10) 0.23973(11)
H7 H 0.8858 0.0447 0.2363
C10 C 0.86948(19) 0.10935(10) 0.29543(10)
C11 C 0.8443(2) 0.16852(10) 0.30138(10)
H8 H 0.8436 0.1848 0.3386
C12 C 0.8200(2) 0.20322(10) 0.25016(11)
C13 C 0.8212(2) 0.17984(11) 0.19436(11)
H9 H 0.8055 0.2036 0.1607
C14 C 0.8919(2) 0.09278(10) 0.40042(10)
H10 H 0.8156 0.1152 0.3998
H11 H 0.9630 0.1182 0.4146
C15 C 0.8946(2) 0.04003(10) 0.43984(11)
H12 H 0.9686 0.0165 0.4385
H13 H 0.8969 0.0523 0.4806
C16 C 0.7772(2) -0.04435(10) 0.45395(10)
H14 H 0.7718 -0.0331 0.4943
H15 H 0.8515 -0.0684 0.4554
C17 C 0.6632(2) -0.07850(10) 0.42663(10)
H16 H 0.6670 -0.0880 0.3857
H17 H 0.6600 -0.1151 0.4481
C18 C 0.4448(2) -0.07974(10) 0.41097(11)
H18 H 0.4460 -0.1127 0.4380
H19 H 0.4429 -0.0953 0.3713
C19 C 0.3307(2) -0.04278(11) 0.41157(11)
H20 H 0.2572 -0.0678 0.4074
H21 H 0.3392 -0.0219 0.4491
C20 C 0.19804(19) 0.02692(10) 0.35508(10)
H22 H 0.1798 0.0393 0.3931
H23 H 0.1331 -0.0003 0.3370
C21 C 0.1992(2) 0.07953(10) 0.31559(9)
H24 H 0.1218 0.1015 0.3130
H25 H 0.2684 0.1053 0.3319
C22 C 0.20472(19) 0.10149(10) 0.21426(10)
C23 C 0.18020(19) 0.16049(10) 0.22275(10)
H26 H 0.1711 0.1742 0.2600
C24 C 0.16936(19) 0.19897(9) 0.17444(10)
C25 C 0.18439(19) 0.17954(9) 0.11873(10)
H27 H 0.1756 0.2055 0.0868
C26 C 0.21304(19) 0.12002(10) 0.11164(10)
C27 C 0.2228(2) 0.08116(10) 0.15853(10)
H28 H 0.2412 0.0417 0.1533
C28 C 0.1187(2) 0.29681(9) 0.13873(10)
H29 H 0.0430 0.2849 0.1118
H30 H 0.1870 0.2976 0.1169
C29 C 0.1015(2) 0.35643(10) 0.16429(10)
H31 H 0.0778 0.3848 0.1325
H32 H 0.0356 0.3550 0.1876
C30 C 0.2125(2) 0.43240(10) 0.22245(11)
H33 H 0.1355 0.4389 0.2371
H34 H 0.2158 0.4603 0.1907
C31 C 0.3233(2) 0.44071(11) 0.27170(11)
H35 H 0.3220 0.4801 0.2881
H36 H 0.3199 0.4125 0.3032
C32 C 0.5421(2) 0.43736(11) 0.29562(12)
H37 H 0.5377 0.4078 0.3258
H38 H 0.5430 0.4759 0.3140
C33 C 0.6582(2) 0.42903(11) 0.27146(12)
H39 H 0.6587 0.4558 0.2385
H40 H 0.7308 0.4375 0.3020
C34 C 0.7769(2) 0.36124(11) 0.23127(12)
H41 H 0.8471 0.3692 0.2632
H42 H 0.7811 0.3885 0.1991
C35 C 0.7848(2) 0.29992(10) 0.21015(11)
H43 H 0.7110 0.2906 0.1807
H44 H 0.8579 0.2954 0.1920
C36 C 0.2279(2) 0.10114(10) 0.05026(10)
H45 H 0.1476 0.1047 0.0237
H46 H 0.2858 0.1278 0.0362
C37 C 0.3964(2) 0.03295(10) 0.06401(10)
C38 C 0.4331(2) -0.02978(10) 0.05534(9)
C39 C 0.5566(2) -0.04379(10) 0.07204(9)
H47 H 0.6154 -0.0153 0.0874
C40 C 0.5915(2) -0.10110(12) 0.06557(11)
H48 H 0.6751 -0.1120 0.0766
C41 C 0.5027(2) -0.14287(11) 0.04259(11)
H49 H 0.5257 -0.1819 0.0384
C42 C 0.3794(2) -0.12552(11) 0.02611(11)
H50 H 0.3197 -0.1534 0.0103
N3 N 0.45808(16) 0.25238(8) 0.22416(8)
N4 N 0.52941(16) 0.18519(8) 0.32842(8)
C43 C 0.5440(2) 0.15362(11) 0.37932(11)
H51 H 0.5512 0.1730 0.4156
C44 C 0.5483(2) 0.09311(11) 0.37784(11)
H52 H 0.5594 0.0715 0.4130
C45 C 0.5362(2) 0.06475(10) 0.32383(12)
H53 H 0.5402 0.0239 0.3222
C46 C 0.5179(2) 0.09766(10) 0.27195(11)
H54 H 0.5075 0.0787 0.2353
C47 C 0.51490(19) 0.15843(10) 0.27429(10)
C48 C 0.49687(18) 0.19570(10) 0.22063(10)
C49 C 0.5165(2) 0.17470(10) 0.16648(10)
H55 H 0.5442 0.1363 0.1633
C50 C 0.4949(2) 0.21093(11) 0.11699(11)
H56 H 0.5064 0.1966 0.0803
C51 C 0.4562(2) 0.26827(11) 0.12208(11)
H57 H 0.4423 0.2930 0.0891
C52 C 0.4385(2) 0.28841(10) 0.17664(11)
H58 H 0.4129 0.3271 0.1807
C53 C 0.4336(2) 0.27431(10) 0.28193(10)
H59 H 0.3517 0.2613 0.2877
H60 H 0.4351 0.3170 0.2825
C54 C 0.5336(2) 0.25043(10) 0.33083(10)
H61 H 0.6153 0.2643 0.3256
H62 H 0.5192 0.2640 0.3692
loop_
_geom_bond_atom_site_label_1
_geom_bond_atom_site_label_2
_geom_bond_site_symmetry_1
_geom_bond_site_symmetry_2
P1 F1 1_555 1_555
F2 P1 1_555 1_555
F3 P1 1_555 1_555
F4 P1 1_555 1_555
F5 P1 1_555 1_555
F6 P1 1_555 1_555
P2 F7 1_555 1_555
F8 P2 1_555 1_555
F9 P2 1_555 1_555
F10 P2 1_555 1_555
F11 P2 1_555 1_555
F12 P2 1_555 1_555
O1 C6 1_555 1_555
O2 C6 1_555 1_555
O3 C10 1_555 1_555
O4 C15 1_555 1_555
O5 C17 1_555 1_555
O6 C19 1_555 1_555
O7 C21 1_555 1_555
O8 C24 1_555 1_555
O9 C29 1_555 1_555
O10 C31 1_555 1_555
O11 C33 1_555 1_555
O12 C12 1_555 1_555
O13 C37 1_555 1_555
O14 C36 1_555 1_555
N1 C1 1_555 1_555
N2 C38 1_555 1_555
C1 H1 1_555 1_555
C2 C1 1_555 1_555
H2 C2 1_555 1_555
C3 C2 1_555 1_555
H3 C3 1_555 1_555
C4 C3 1_555 1_555
H4 C4 1_555 1_555
C5 N1 1_555 1_555
C6 C5 1_555 1_555
C7 O2 1_555 1_555
H5 C7 1_555 1_555
H6 C7 1_555 1_555
C8 C7 1_555 1_555
C9 C8 1_555 1_555
H7 C9 1_555 1_555
C10 C9 1_555 1_555
C11 C10 1_555 1_555
H8 C11 1_555 1_555
C12 C11 1_555 1_555
C13 C8 1_555 1_555
H9 C13 1_555 1_555
C14 O3 1_555 1_555
H10 C14 1_555 1_555
H11 C14 1_555 1_555
C15 C14 1_555 1_555
H12 C15 1_555 1_555
H13 C15 1_555 1_555
C16 O4 1_555 1_555
H14 C16 1_555 1_555
H15 C16 1_555 1_555
C17 C16 1_555 1_555
H16 C17 1_555 1_555
H17 C17 1_555 1_555
C18 O5 1_555 1_555
H18 C18 1_555 1_555
H19 C18 1_555 1_555
C19 C18 1_555 1_555
H20 C19 1_555 1_555
H21 C19 1_555 1_555
C20 O6 1_555 1_555
H22 C20 1_555 1_555
H23 C20 1_555 1_555
C21 C20 1_555 1_555
H24 C21 1_555 1_555
H25 C21 1_555 1_555
C22 O7 1_555 1_555
C23 C22 1_555 1_555
H26 C23 1_555 1_555
C24 C23 1_555 1_555
C25 C24 1_555 1_555
H27 C25 1_555 1_555
C26 C25 1_555 1_555
C27 C22 1_555 1_555
H28 C27 1_555 1_555
C28 O8 1_555 1_555
H29 C28 1_555 1_555
H30 C28 1_555 1_555
C29 C28 1_555 1_555
H31 C29 1_555 1_555
H32 C29 1_555 1_555
C30 O9 1_555 1_555
H33 C30 1_555 1_555
H34 C30 1_555 1_555
C31 C30 1_555 1_555
H35 C31 1_555 1_555
H36 C31 1_555 1_555
C32 O10 1_555 1_555
H37 C32 1_555 1_555
H38 C32 1_555 1_555
C33 C32 1_555 1_555
H39 C33 1_555 1_555
H40 C33 1_555 1_555
C34 O11 1_555 1_555
H41 C34 1_555 1_555
H42 C34 1_555 1_555
C35 O12 1_555 1_555
H43 C35 1_555 1_555
H44 C35 1_555 1_555
C36 C26 1_555 1_555
H45 C36 1_555 1_555
H46 C36 1_555 1_555
C37 O14 1_555 1_555
C38 C37 1_555 1_555
C39 C38 1_555 1_555
H47 C39 1_555 1_555
C40 C39 1_555 1_555
H48 C40 1_555 1_555
C41 C40 1_555 1_555
H49 C41 1_555 1_555
C42 N2 1_555 1_555
H50 C42 1_555 1_555
N3 C48 1_555 1_555
N4 C43 1_555 1_555
C43 H51 1_555 1_555
C44 C43 1_555 1_555
H52 C44 1_555 1_555
C45 C44 1_555 1_555
H53 C45 1_555 1_555
C46 C45 1_555 1_555
H54 C46 1_555 1_555
C47 N4 1_555 1_555
C48 C47 1_555 1_555
C49 C48 1_555 1_555
H55 C49 1_555 1_555
C50 C49 1_555 1_555
H56 C50 1_555 1_555
C51 C50 1_555 1_555
H57 C51 1_555 1_555
C52 N3 1_555 1_555
H58 C52 1_555 1_555
C53 N3 1_555 1_555
H59 C53 1_555 1_555
H60 C53 1_555 1_555
C54 N4 1_555 1_555
H61 C54 1_555 1_555
H62 C54 1_555 1_555
C4 C5 1_555 1_555
C12 C13 1_555 1_555
C26 C27 1_555 1_555
C34 C35 1_555 1_555
C41 C42 1_555 1_555
C46 C47 1_555 1_555
C51 C52 1_555 1_555
C53 C54 1_555 1_555

#END
