
#######################################################################
#
#                 Cambridge Crystallographic Data Centre
#                                CCDC 
#
#######################################################################
#
# If this CIF has been generated from an entry in the Cambridge 
# Structural Database, then it will include bibliographic, chemical, 
# crystal, experimental, refinement or atomic coordinate data resulting 
# from the CCDC's data processing and validation procedures.
#
#######################################################################

data_IYUVUU
_chemical_formula_moiety         'C18 H23 N1 O1'
_chemical_name_systematic        
rac-7,12-Dimethyl-1,2,3,4,4a,5,7a,8-octahydrobenzo[d]carbazol-6(7H)-one
_symmetry_cell_setting           monoclinic
_symmetry_space_group_name_H-M   'P 21/n'
_symmetry_Int_Tables_number      14
_space_group_name_Hall           '-P 2yn'
loop_
_symmetry_equiv_pos_site_id
_symmetry_equiv_pos_as_xyz
1 x,y,z
2 1/2-x,1/2+y,1/2-z
3 -x,-y,-z
4 1/2+x,1/2-y,1/2+z
_cell_length_a                   8.5859(8)
_cell_length_b                   12.1510(11)
_cell_length_c                   13.9568(13)
_cell_angle_alpha                90
_cell_angle_beta                 90.853(2)
_cell_angle_gamma                90
_cell_volume                     1455.91
_exptl_crystal_colour            colorless
_exptl_crystal_description       prismatic
_cell_formula_units_Z            4
loop_
_atom_site_label
_atom_site_type_symbol
_atom_site_fract_x
_atom_site_fract_y
_atom_site_fract_z
N1 N 0.1339(2) 0.14285(16) 0.90563(15)
O1 O 0.13134(19) -0.15548(13) 0.95802(11)
C1 C 0.3608(2) -0.05941(17) 0.91703(14)
H1 H 0.4192 -0.1251 0.9339
H2 H 0.3709 -0.0083 0.9701
C2 C 0.1931(2) -0.08960(17) 0.90483(14)
C3 C 0.1033(2) -0.03326(17) 0.82495(15)
H3 H 0.1280 -0.0714 0.7652
C4 C 0.1624(2) 0.08444(17) 0.81614(15)
H4 H 0.1054 0.1213 0.7639
C5 C 0.3424(2) 0.09942(16) 0.80067(14)
C6 C 0.4335(2) -0.00761(17) 0.82877(14)
H5 H 0.5387 0.0156 0.8480
C7 C 0.4531(3) -0.09376(19) 0.74948(16)
H6 H 0.5346 -0.1448 0.7686
H7 H 0.3570 -0.1352 0.7425
C8 C 0.4936(3) -0.0440(2) 0.65344(16)
H8 H 0.4969 -0.1014 0.6052
H9 H 0.5958 -0.0101 0.6576
C9 C 0.3730(3) 0.0417(2) 0.62465(15)
H10 H 0.3966 0.0703 0.5616
H11 H 0.2707 0.0079 0.6215
C10 C 0.3726(3) 0.13481(19) 0.69658(15)
H12 H 0.2932 0.1875 0.6773
H13 H 0.4724 0.1720 0.6946
C11 C 0.3834(2) 0.19083(16) 0.87197(14)
C12 C 0.2556(3) 0.21086(17) 0.93003(15)
C13 C 0.2598(3) 0.28720(19) 1.00380(18)
H14 H 0.1742 0.2986 1.0426
C14 C 0.3959(4) 0.3454(2) 1.0172(2)
H15 H 0.4016 0.3983 1.0653
C15 C 0.5235(3) 0.3270(2) 0.9612(2)
H16 H 0.6135 0.3680 0.9722
C16 C 0.5217(3) 0.24896(18) 0.88875(16)
C17 C 0.6707(3) 0.2294(2) 0.8352(2)
H17 H 0.6667 0.1584 0.8050
H18 H 0.7576 0.2320 0.8792
H19 H 0.6826 0.2853 0.7872
C18 C -0.0725(3) -0.0399(2) 0.83731(18)
H20 H -0.1032 -0.1156 0.8428
H21 H -0.1240 -0.0075 0.7827
H22 H -0.1011 -0.0009 0.8942
H23 H 0.041(3) 0.1539(18) 0.9296(16)
loop_
_geom_bond_atom_site_label_1
_geom_bond_atom_site_label_2
_geom_bond_site_symmetry_1
_geom_bond_site_symmetry_2
N1 C4 1_555 1_555
O1 C2 1_555 1_555
C1 H1 1_555 1_555
H2 C1 1_555 1_555
C2 C1 1_555 1_555
C3 C2 1_555 1_555
H3 C3 1_555 1_555
C4 C3 1_555 1_555
H4 C4 1_555 1_555
C5 C4 1_555 1_555
C6 C1 1_555 1_555
H5 C6 1_555 1_555
C7 C6 1_555 1_555
H6 C7 1_555 1_555
H7 C7 1_555 1_555
C8 C7 1_555 1_555
H8 C8 1_555 1_555
H9 C8 1_555 1_555
C9 C8 1_555 1_555
H10 C9 1_555 1_555
H11 C9 1_555 1_555
C10 C5 1_555 1_555
H12 C10 1_555 1_555
H13 C10 1_555 1_555
C11 C5 1_555 1_555
C12 N1 1_555 1_555
C13 C12 1_555 1_555
H14 C13 1_555 1_555
C14 C13 1_555 1_555
H15 C14 1_555 1_555
C15 C14 1_555 1_555
H16 C15 1_555 1_555
C16 C11 1_555 1_555
C17 C16 1_555 1_555
H17 C17 1_555 1_555
H18 C17 1_555 1_555
H19 C17 1_555 1_555
C18 C3 1_555 1_555
H20 C18 1_555 1_555
H21 C18 1_555 1_555
H22 C18 1_555 1_555
H23 N1 1_555 1_555
C5 C6 1_555 1_555
C9 C10 1_555 1_555
C11 C12 1_555 1_555
C15 C16 1_555 1_555

#END
