
#######################################################################
#
#                 Cambridge Crystallographic Data Centre
#                                CCDC 
#
#######################################################################
#
# If this CIF has been generated from an entry in the Cambridge 
# Structural Database, then it will include bibliographic, chemical, 
# crystal, experimental, refinement or atomic coordinate data resulting 
# from the CCDC's data processing and validation procedures.
#
#######################################################################

data_IZAJIC
_chemical_name_common            'Methylene blue nitrate dihydrate'
_chemical_formula_moiety         'C16 H18 N3 S1 1+,N1 O3 1-,2(H2 O1)'
_chemical_name_systematic        
'3,7-bis(Dimethylamino)phenothiazinium nitrate dihydrate'
_chemical_properties_biological  
'antimethemoglobinemic, antiseptic and disinfectant properties'
_symmetry_cell_setting           triclinic
_symmetry_space_group_name_H-M   'P -1'
_symmetry_Int_Tables_number      2
_space_group_name_Hall           '-P 1'
loop_
_symmetry_equiv_pos_site_id
_symmetry_equiv_pos_as_xyz
1 x,y,z
2 -x,-y,-z
_cell_length_a                   7.6985(3)
_cell_length_b                   10.9638(3)
_cell_length_c                   11.3244(4)
_cell_angle_alpha                87.081(2)
_cell_angle_beta                 76.032(2)
_cell_angle_gamma                73.524(2)
_cell_volume                     889.325
_exptl_crystal_colour            red
_exptl_crystal_description       prism
_cell_formula_units_Z            2
loop_
_atom_site_label
_atom_site_type_symbol
_atom_site_fract_x
_atom_site_fract_y
_atom_site_fract_z
C1 C 0.3039(4) 0.4163(3) 1.2264(3)
H1 H 0.2291 0.4793 1.2864
C2 C 0.4150(4) 0.3079(3) 1.2620(3)
H2 H 0.4170 0.2967 1.3455
C3 C 0.5295(4) 0.2101(3) 1.1740(3)
N1 N 0.6397(4) 0.1028(3) 1.2068(2)
C4 C 0.6448(5) 0.0733(3) 1.3341(3)
H3 H 0.6506 0.1483 1.3749
H4 H 0.7550 0.0025 1.3368
H5 H 0.5321 0.0495 1.3756
C5 C 0.7498(5) 0.0020(3) 1.1173(3)
H6 H 0.6679 -0.0213 1.0738
H7 H 0.8106 -0.0726 1.1590
H8 H 0.8448 0.0322 1.0592
C6 C 0.5233(4) 0.2303(3) 1.0504(3)
H9 H 0.5982 0.1670 0.9908
S1 S 0.40954(11) 0.35433(7) 0.86311(7)
C7 C 0.2292(4) 0.5433(3) 0.7434(3)
H10 H 0.2934 0.4895 0.6741
C8 C 0.1059(4) 0.6632(3) 0.7289(3)
N2 N 0.0768(4) 0.6987(3) 0.6188(2)
C9 C 0.1732(6) 0.6157(3) 0.5125(3)
H11 H 0.3070 0.6078 0.4951
H12 H 0.1244 0.6520 0.4422
H13 H 0.1531 0.5315 0.5287
C10 C -0.0522(5) 0.8200(3) 0.5977(3)
H14 H -0.1634 0.8390 0.6653
H15 H -0.0887 0.8143 0.5215
H16 H 0.0091 0.8879 0.5923
C11 C 0.0147(4) 0.7430(3) 0.8354(3)
H17 H -0.0662 0.8250 0.8282
C12 C 0.0430(5) 0.7022(3) 0.9465(3)
H18 H -0.0202 0.7566 1.0155
N3 N 0.1816(4) 0.5488(2) 1.0768(2)
C13 C 0.2953(4) 0.4392(3) 1.1023(3)
C14 C 0.4104(4) 0.3402(3) 1.0157(3)
C15 C 0.2576(4) 0.5031(3) 0.8561(3)
C16 C 0.1637(4) 0.5808(3) 0.9632(3)
N4 N 0.7431(4) 0.0916(3) 0.7386(3)
O1 O 0.7351(4) 0.1430(3) 0.6394(3)
O2 O 0.8749(4) 0.0886(3) 0.7856(3)
O3 O 0.6206(5) 0.0440(3) 0.7940(3)
O4 O 0.0499(4) 0.2807(3) 0.7190(2)
H19 H -0.012(6) 0.223(5) 0.738(4)
H20 H -0.022(7) 0.334(5) 0.772(5)
O5 O 0.3966(5) 0.2779(3) 0.5684(2)
H21 H 0.471(8) 0.225(5) 0.597(5)
H22 H 0.306(7) 0.271(5) 0.606(5)
loop_
_geom_bond_atom_site_label_1
_geom_bond_atom_site_label_2
_geom_bond_site_symmetry_1
_geom_bond_site_symmetry_2
C1 H1 1_555 1_555
C2 C1 1_555 1_555
H2 C2 1_555 1_555
C3 C2 1_555 1_555
N1 C3 1_555 1_555
C4 N1 1_555 1_555
H3 C4 1_555 1_555
H4 C4 1_555 1_555
H5 C4 1_555 1_555
C5 N1 1_555 1_555
H6 C5 1_555 1_555
H7 C5 1_555 1_555
H8 C5 1_555 1_555
C6 C3 1_555 1_555
H9 C6 1_555 1_555
S1 C14 1_555 1_555
C7 H10 1_555 1_555
C8 C7 1_555 1_555
N2 C8 1_555 1_555
C9 N2 1_555 1_555
H11 C9 1_555 1_555
H12 C9 1_555 1_555
H13 C9 1_555 1_555
C10 N2 1_555 1_555
H14 C10 1_555 1_555
H15 C10 1_555 1_555
H16 C10 1_555 1_555
C11 C8 1_555 1_555
H17 C11 1_555 1_555
C12 C11 1_555 1_555
H18 C12 1_555 1_555
N3 C13 1_555 1_555
C13 C1 1_555 1_555
C14 C6 1_555 1_555
C15 S1 1_555 1_555
C16 C12 1_555 1_555
N4 O1 1_555 1_555
O2 N4 1_555 1_555
O3 N4 1_555 1_555
O4 H19 1_555 1_555
H20 O4 1_555 1_555
O5 H21 1_555 1_555
H22 O5 1_555 1_555
C7 C15 1_555 1_555
N3 C16 1_555 1_555
C13 C14 1_555 1_555
C15 C16 1_555 1_555

#END
