
#######################################################################
#
#                 Cambridge Crystallographic Data Centre
#                                CCDC 
#
#######################################################################
#
# If this CIF has been generated from an entry in the Cambridge 
# Structural Database, then it will include bibliographic, chemical, 
# crystal, experimental, refinement or atomic coordinate data resulting 
# from the CCDC's data processing and validation procedures.
#
#######################################################################

data_IZAMEB
_chemical_formula_moiety         'C22 H19 N1 O6'
_chemical_name_systematic        
'Ethyl 9-amino-7-(4-methoxyphenyl)-7H-pyrano(3,2-c)coumarin-8-carboxylate'
_symmetry_cell_setting           triclinic
_symmetry_space_group_name_H-M   'P -1'
_symmetry_Int_Tables_number      2
_space_group_name_Hall           '-P 1'
loop_
_symmetry_equiv_pos_site_id
_symmetry_equiv_pos_as_xyz
1 x,y,z
2 -x,-y,-z
_cell_length_a                   7.6490(10)
_cell_length_b                   9.3320(10)
_cell_length_c                   14.725(2)
_cell_angle_alpha                74.340(10)
_cell_angle_beta                 75.770(10)
_cell_angle_gamma                71.160(10)
_cell_volume                     943.213
_exptl_crystal_colour            colorless
_exptl_crystal_description       block
_chemical_melting_point          '433-435 K'
_cell_formula_units_Z            2
_exptl_crystal_recrystallization_method DMF-water
loop_
_atom_site_label
_atom_site_type_symbol
_atom_site_fract_x
_atom_site_fract_y
_atom_site_fract_z
O1 O 0.78691(13) 0.83354(12) 0.58479(7)
O2 O 0.45854(15) 0.69540(12) 0.46071(7)
O3 O 0.20240(15) 0.80176(14) 0.55419(8)
O4 O 0.28936(17) 0.36959(13) 0.98713(8)
O5 O 0.27161(15) 1.05754(12) 0.80048(8)
O6 O 0.54491(16) 1.10572(13) 0.79377(8)
N1 N 0.8398(2) 0.97651(18) 0.66739(11)
C1 C 0.6698(2) 0.79058(16) 0.54721(10)
C2 C 0.7616(2) 0.71743(16) 0.46682(10)
C3 C 0.9533(2) 0.68806(18) 0.43030(11)
H1 H 1.0295 0.7230 0.4548
C4 C 1.0288(3) 0.6072(2) 0.35794(12)
H2 H 1.1564 0.5877 0.3331
C5 C 0.9154(3) 0.5545(2) 0.32193(12)
H3 H 0.9686 0.4978 0.2740
C6 C 0.7256(3) 0.58455(18) 0.35566(11)
H4 H 0.6499 0.5504 0.3303
C7 C 0.6498(2) 0.66661(17) 0.42813(10)
C8 C 0.3712(2) 0.77245(17) 0.53511(10)
C9 C 0.4868(2) 0.81055(16) 0.58365(10)
C10 C 0.3997(2) 0.86795(16) 0.67562(10)
H5 H 0.2773 0.9423 0.6679
C11 C 0.5250(2) 0.94978(16) 0.69423(10)
C12 C 0.7081(2) 0.92441(16) 0.65238(10)
C13 C 0.3705(2) 0.73211(16) 0.75824(10)
C14 C 0.5224(2) 0.61247(17) 0.78598(11)
H6 H 0.6423 0.6151 0.7532
C15 C 0.5019(2) 0.48879(18) 0.86109(11)
H7 H 0.6066 0.4095 0.8778
C16 C 0.3260(2) 0.48436(17) 0.91057(11)
C17 C 0.1720(2) 0.6020(2) 0.88446(12)
H8 H 0.0525 0.5993 0.9178
C18 C 0.1945(2) 0.72422(18) 0.80868(11)
H9 H 0.0893 0.8023 0.7914
C19 C 0.4435(3) 0.2417(2) 1.01375(13)
H10 H 0.5035 0.1918 0.9606
H11 H 0.3989 0.1693 1.0671
H12 H 0.5320 0.2780 1.0314
C20 C 0.4551(2) 1.04440(17) 0.76567(11)
C21 C 0.1856(3) 1.1424(2) 0.87631(12)
H13 H 0.2067 1.2442 0.8571
H14 H 0.2387 1.0877 0.9337
C22 C -0.0205(3) 1.1562(3) 0.89493(14)
H15 H -0.0732 1.2175 0.8393
H16 H -0.0813 1.2049 0.9485
H17 H -0.0390 1.0549 0.9090
H18 H 0.9502(16) 0.956(2) 0.6326(11)
H19 H 0.807(3) 1.0389(18) 0.7071(11)
loop_
_geom_bond_atom_site_label_1
_geom_bond_atom_site_label_2
_geom_bond_site_symmetry_1
_geom_bond_site_symmetry_2
O1 C1 1_555 1_555
O2 C7 1_555 1_555
O3 C8 1_555 1_555
O4 C16 1_555 1_555
O5 C20 1_555 1_555
O6 C20 1_555 1_555
N1 C12 1_555 1_555
C1 C2 1_555 1_555
C2 C3 1_555 1_555
C3 H1 1_555 1_555
C4 C3 1_555 1_555
H2 C4 1_555 1_555
C5 C4 1_555 1_555
H3 C5 1_555 1_555
C6 C5 1_555 1_555
H4 C6 1_555 1_555
C7 C2 1_555 1_555
C8 O2 1_555 1_555
C9 C1 1_555 1_555
C10 C9 1_555 1_555
H5 C10 1_555 1_555
C11 C10 1_555 1_555
C12 O1 1_555 1_555
C13 C10 1_555 1_555
C14 C13 1_555 1_555
H6 C14 1_555 1_555
C15 C14 1_555 1_555
H7 C15 1_555 1_555
C16 C15 1_555 1_555
C17 C16 1_555 1_555
H8 C17 1_555 1_555
C18 C13 1_555 1_555
H9 C18 1_555 1_555
C19 O4 1_555 1_555
H10 C19 1_555 1_555
H11 C19 1_555 1_555
H12 C19 1_555 1_555
C20 C11 1_555 1_555
C21 O5 1_555 1_555
H13 C21 1_555 1_555
H14 C21 1_555 1_555
C22 C21 1_555 1_555
H15 C22 1_555 1_555
H16 C22 1_555 1_555
H17 C22 1_555 1_555
H18 N1 1_555 1_555
H19 N1 1_555 1_555
C6 C7 1_555 1_555
C8 C9 1_555 1_555
C11 C12 1_555 1_555
C17 C18 1_555 1_555

#END
