
#######################################################################
#
#                 Cambridge Crystallographic Data Centre
#                                CCDC 
#
#######################################################################
#
# If this CIF has been generated from an entry in the Cambridge 
# Structural Database, then it will include bibliographic, chemical, 
# crystal, experimental, refinement or atomic coordinate data resulting 
# from the CCDC's data processing and validation procedures.
#
#######################################################################

data_IZANAY
_chemical_formula_moiety         'C12 H14 N2 O1 S1'
_chemical_name_systematic        
3-Phenethyl-2-thioxo-2,3,5,6-tetrahydropyrimidin-4(1H)-one
_symmetry_cell_setting           monoclinic
_symmetry_space_group_name_H-M   'P 21/n'
_symmetry_Int_Tables_number      14
_space_group_name_Hall           '-P 2yn'
loop_
_symmetry_equiv_pos_site_id
_symmetry_equiv_pos_as_xyz
1 x,y,z
2 1/2+x,1/2-y,1/2+z
3 -x,-y,-z
4 1/2-x,1/2+y,1/2-z
_cell_length_a                   7.574(3)
_cell_length_b                   11.104(4)
_cell_length_c                   14.122(5)
_cell_angle_alpha                90
_cell_angle_beta                 91.719(8)
_cell_angle_gamma                90
_cell_volume                     1187.15
_exptl_crystal_colour            colorless
_exptl_crystal_description       prism
_chemical_melting_point          '403 K'
_cell_formula_units_Z            4
_exptl_crystal_recrystallization_method acetone-ethanol
loop_
_atom_site_label
_atom_site_type_symbol
_atom_site_fract_x
_atom_site_fract_y
_atom_site_fract_z
S1 S 0.25659(7) 0.46964(5) 0.91207(4)
O1 O 0.2865(2) 0.02784(13) 0.86529(13)
N1 N 0.27511(18) 0.22895(13) 0.89482(10)
N2 N 0.5202(2) 0.32613(15) 0.95945(12)
H1 H 0.566(3) 0.3903(19) 0.9800(14)
C1 C 0.3576(2) 0.33545(16) 0.92302(12)
C2 C 0.6074(3) 0.21280(18) 0.98140(15)
H2 H 0.5693 0.1828 1.0420
H3 H 0.7343 0.2245 0.9854
C3 C 0.5611(2) 0.12417(18) 0.90501(15)
H4 H 0.6042 0.0450 0.9234
H5 H 0.6180 0.1473 0.8471
C4 C 0.3652(3) 0.11900(17) 0.88748(14)
C5 C 0.0891(2) 0.23063(17) 0.86113(13)
H6 H 0.0266 0.2936 0.8939
H7 H 0.0342 0.1543 0.8761
C6 C 0.0727(2) 0.25233(18) 0.75508(13)
H8 H 0.1387 0.3241 0.7395
H9 H 0.1246 0.1849 0.7222
C7 C -0.1170(2) 0.26742(16) 0.72085(12)
C8 C -0.2011(2) 0.18087(18) 0.66540(13)
H10 H -0.1406 0.1115 0.6487
C9 C -0.3757(3) 0.1970(2) 0.63441(15)
H11 H -0.4314 0.1383 0.5972
C10 C -0.4657(3) 0.2989(2) 0.65844(15)
H12 H -0.5822 0.3094 0.6374
C11 C -0.3846(3) 0.3852(2) 0.71336(17)
H13 H -0.4460 0.4543 0.7298
C12 C -0.2114(3) 0.36967(18) 0.74439(15)
H14 H -0.1571 0.4288 0.7817
loop_
_geom_bond_atom_site_label_1
_geom_bond_atom_site_label_2
_geom_bond_site_symmetry_1
_geom_bond_site_symmetry_2
S1 C1 1_555 1_555
O1 C4 1_555 1_555
N1 C1 1_555 1_555
N2 H1 1_555 1_555
C1 N2 1_555 1_555
C2 N2 1_555 1_555
H2 C2 1_555 1_555
H3 C2 1_555 1_555
C3 C2 1_555 1_555
H4 C3 1_555 1_555
H5 C3 1_555 1_555
C4 N1 1_555 1_555
C5 N1 1_555 1_555
H6 C5 1_555 1_555
H7 C5 1_555 1_555
C6 C5 1_555 1_555
H8 C6 1_555 1_555
H9 C6 1_555 1_555
C7 C6 1_555 1_555
C8 C7 1_555 1_555
H10 C8 1_555 1_555
C9 C8 1_555 1_555
H11 C9 1_555 1_555
C10 C9 1_555 1_555
H12 C10 1_555 1_555
C11 C10 1_555 1_555
H13 C11 1_555 1_555
C12 C7 1_555 1_555
H14 C12 1_555 1_555
C3 C4 1_555 1_555
C11 C12 1_555 1_555

#END
