
#######################################################################
#
#                 Cambridge Crystallographic Data Centre
#                                CCDC 
#
#######################################################################
#
# If this CIF has been generated from an entry in the Cambridge 
# Structural Database, then it will include bibliographic, chemical, 
# crystal, experimental, refinement or atomic coordinate data resulting 
# from the CCDC's data processing and validation procedures.
#
#######################################################################

data_IZAQUX
_chemical_formula_moiety         'C24 H22 Br1 N1 O4 S1'
_chemical_name_systematic        
'ethyl 1-benzyl-9-((2-bromophenyl)sulfanyl)-2,7-dioxo-1-azaspiro[3.5]non-5-ene-3-carboxylate'
_symmetry_cell_setting           orthorhombic
_symmetry_space_group_name_H-M   'P 21 21 21'
_symmetry_Int_Tables_number      19
_space_group_name_Hall           'P 2ac 2ab'
loop_
_symmetry_equiv_pos_site_id
_symmetry_equiv_pos_as_xyz
1 x,y,z
2 1/2-x,-y,1/2+z
3 1/2+x,1/2-y,-z
4 -x,1/2+y,1/2-z
_cell_length_a                   7.02320(10)
_cell_length_b                   9.5875(2)
_cell_length_c                   34.1184(7)
_cell_angle_alpha                90
_cell_angle_beta                 90
_cell_angle_gamma                90
_cell_volume                     2297.36
_exptl_crystal_colour            colorless
_exptl_crystal_description       prism
_cell_formula_units_Z            4
loop_
_atom_site_label
_atom_site_type_symbol
_atom_site_fract_x
_atom_site_fract_y
_atom_site_fract_z
Br1 Br 0.35255(10) 0.42822(7) 0.57882(3)
S1 S 0.81833(19) 0.49991(13) 0.57200(4)
O1 O 1.1991(8) 0.6784(5) 0.65755(15)
O2 O 1.1760(8) 0.9978(5) 0.61510(14)
O3 O 1.1181(6) 0.9512(4) 0.55180(13)
O4 O 0.5757(7) 0.9414(5) 0.50767(14)
N1 N 0.8768(8) 0.7143(5) 0.64321(12)
C1 C 1.0667(10) 0.7148(6) 0.63748(18)
C2 C 1.0495(7) 0.7750(6) 0.59621(16)
H1 H 1.0900 0.7080 0.5754
C3 C 0.8282(8) 0.7705(5) 0.60455(14)
C4 C 0.7564(12) 0.6712(7) 0.67598(17)
H2 H 0.8146 0.5888 0.6887
H3 H 0.6306 0.6426 0.6656
C5 C 0.7275(11) 0.7826(6) 0.70623(17)
C6 C 0.5498(12) 0.8364(8) 0.7134(2)
H4 H 0.4438 0.8053 0.6985
C7 C 0.5245(15) 0.9381(9) 0.7429(3)
H5 H 0.4020 0.9770 0.7474
C8 C 0.6717(18) 0.9792(8) 0.7643(2)
H6 H 0.6537 1.0456 0.7846
C9 C 0.8458(17) 0.9274(11) 0.7575(3)
H7 H 0.9508 0.9588 0.7726
C10 C 0.8739(14) 0.8285(9) 0.7285(2)
H8 H 0.9980 0.7924 0.7241
C11 C 1.1246(7) 0.9205(6) 0.58971(19)
C12 C 1.1693(11) 1.0936(6) 0.5396(2)
H9 H 1.2390 1.1404 0.5611
H10 H 1.2550 1.0889 0.5166
C13 C 1.0056(11) 1.1735(7) 0.5298(2)
H11 H 1.0447 1.2674 0.5218
H12 H 0.9376 1.1283 0.5081
H13 H 0.9215 1.1797 0.5526
C14 C 0.7129(7) 0.6715(5) 0.57850(15)
H14 H 0.5828 0.6602 0.5900
C15 C 0.6942(8) 0.7364(6) 0.53777(15)
H15 H 0.8192 0.7308 0.5244
H16 H 0.6026 0.6805 0.5223
C16 C 0.6293(8) 0.8863(6) 0.53772(19)
C17 C 0.6398(7) 0.9619(5) 0.57504(18)
H17 H 0.5793 1.0502 0.5773
C18 C 0.7316(7) 0.9100(6) 0.60554(17)
H18 H 0.7365 0.9631 0.6290
C19 C 0.7283(8) 0.4003(5) 0.61135(15)
C20 C 0.5372(9) 0.3631(6) 0.6148(2)
C21 C 0.4779(13) 0.2734(8) 0.6441(2)
H19 H 0.3477 0.2476 0.6462
C22 C 0.6097(16) 0.2222(8) 0.6702(2)
H20 H 0.5686 0.1623 0.6907
C23 C 0.7975(15) 0.2552(8) 0.6673(2)
H21 H 0.8867 0.2173 0.6854
C24 C 0.8583(12) 0.3449(6) 0.63771(17)
H22 H 0.9894 0.3682 0.6356
loop_
_geom_bond_atom_site_label_1
_geom_bond_atom_site_label_2
_geom_bond_site_symmetry_1
_geom_bond_site_symmetry_2
Br1 C20 1_555 1_555
S1 C14 1_555 1_555
O1 C1 1_555 1_555
O2 C11 1_555 1_555
O3 C11 1_555 1_555
O4 C16 1_555 1_555
N1 C1 1_555 1_555
C1 C2 1_555 1_555
C2 H1 1_555 1_555
C3 N1 1_555 1_555
C4 N1 1_555 1_555
H2 C4 1_555 1_555
H3 C4 1_555 1_555
C5 C4 1_555 1_555
C6 C5 1_555 1_555
H4 C6 1_555 1_555
C7 C6 1_555 1_555
H5 C7 1_555 1_555
C8 C7 1_555 1_555
H6 C8 1_555 1_555
C9 C8 1_555 1_555
H7 C9 1_555 1_555
C10 C5 1_555 1_555
H8 C10 1_555 1_555
C11 C2 1_555 1_555
C12 O3 1_555 1_555
H9 C12 1_555 1_555
H10 C12 1_555 1_555
C13 C12 1_555 1_555
H11 C13 1_555 1_555
H12 C13 1_555 1_555
H13 C13 1_555 1_555
C14 C3 1_555 1_555
H14 C14 1_555 1_555
C15 C14 1_555 1_555
H15 C15 1_555 1_555
H16 C15 1_555 1_555
C16 C15 1_555 1_555
C17 C16 1_555 1_555
H17 C17 1_555 1_555
C18 C3 1_555 1_555
H18 C18 1_555 1_555
C19 S1 1_555 1_555
C20 C19 1_555 1_555
C21 C20 1_555 1_555
H19 C21 1_555 1_555
C22 C21 1_555 1_555
H20 C22 1_555 1_555
C23 C22 1_555 1_555
H21 C23 1_555 1_555
C24 C19 1_555 1_555
H22 C24 1_555 1_555
C2 C3 1_555 1_555
C9 C10 1_555 1_555
C17 C18 1_555 1_555
C23 C24 1_555 1_555

#END
