
#######################################################################
#
#                 Cambridge Crystallographic Data Centre
#                                CCDC 
#
#######################################################################
#
# If this CIF has been generated from an entry in the Cambridge 
# Structural Database, then it will include bibliographic, chemical, 
# crystal, experimental, refinement or atomic coordinate data resulting 
# from the CCDC's data processing and validation procedures.
#
#######################################################################

data_IZATEJ
_chemical_formula_moiety         'C16 H11 N3'
_chemical_name_systematic        1-(2-pyridyl)-\b-carboline
_symmetry_cell_setting           monoclinic
_symmetry_space_group_name_H-M   'P 21/c'
_symmetry_Int_Tables_number      14
_space_group_name_Hall           '-P 2ybc'
loop_
_symmetry_equiv_pos_site_id
_symmetry_equiv_pos_as_xyz
1 x,y,z
2 -x,1/2+y,1/2-z
3 -x,-y,-z
4 x,1/2-y,1/2+z
_cell_length_a                   15.046(2)
_cell_length_b                   9.8450(13)
_cell_length_c                   16.267(2)
_cell_angle_alpha                90
_cell_angle_beta                 98.773(2)
_cell_angle_gamma                90
_cell_volume                     2381.4
_exptl_crystal_colour            yellow
_exptl_crystal_description       block
_cell_formula_units_Z            8
loop_
_atom_site_label
_atom_site_type_symbol
_atom_site_fract_x
_atom_site_fract_y
_atom_site_fract_z
N1 N 0.17067(9) 0.34985(14) 0.05128(9)
N2 N -0.07177(9) 0.35840(14) 0.06992(9)
N3 N 0.12558(10) 0.54836(15) 0.15623(9)
C1 C 0.20433(11) 0.25463(16) 0.00142(10)
C2 C 0.29317(12) 0.23295(18) -0.00992(11)
H1 H 0.3407 0.2881 0.0170
C3 C 0.30925(13) 0.12794(19) -0.06192(12)
H2 H 0.3694 0.1090 -0.0696
C4 C 0.23953(13) 0.04881(19) -0.10356(12)
H3 H 0.2529 -0.0205 -0.1404
C5 C 0.15157(13) 0.06937(17) -0.09212(11)
H4 H 0.1044 0.0152 -0.1206
C6 C 0.13373(11) 0.17188(17) -0.03759(10)
C7 C 0.05321(11) 0.21845(16) -0.00810(10)
C8 C -0.03646(11) 0.18011(17) -0.02139(11)
H5 H -0.0567 0.1060 -0.0568
C9 C -0.09528(11) 0.25331(18) 0.01856(11)
H6 H -0.1568 0.2276 0.0091
C10 C 0.01456(11) 0.39687(16) 0.08462(10)
C11 C 0.07914(11) 0.32850(16) 0.04621(10)
C12 C 0.03796(11) 0.51336(16) 0.14144(10)
C13 C -0.02773(12) 0.58305(18) 0.17645(11)
H7 H -0.0889 0.5557 0.1654
C14 C -0.00191(13) 0.69278(19) 0.22758(11)
H8 H -0.0452 0.7415 0.2527
C15 C 0.08730(13) 0.7308(2) 0.24176(11)
H9 H 0.1064 0.8066 0.2761
C16 C 0.14814(13) 0.65618(19) 0.20491(11)
H10 H 0.2095 0.6829 0.2147
N4 N 0.41649(9) 0.11144(15) 0.35117(9)
N5 N 0.65381(10) 0.00054(16) 0.37091(10)
N6 N 0.52380(10) 0.20063(16) 0.49578(10)
C17 C 0.35441(11) 0.07718(17) 0.28220(11)
C18 C 0.26285(12) 0.10802(19) 0.26515(12)
H11 H 0.2340 0.1594 0.3028
C19 C 0.21614(13) 0.0604(2) 0.19096(13)
H12 H 0.1538 0.0802 0.1774
C20 C 0.25788(14) -0.0160(2) 0.13550(12)
H13 H 0.2235 -0.0474 0.0852
C21 C 0.34823(13) -0.0466(2) 0.15255(12)
H14 H 0.3764 -0.0986 0.1146
C22 C 0.39757(12) 0.00059(17) 0.22681(11)
C23 C 0.49020(12) -0.01203(17) 0.26459(11)
C24 C 0.56549(13) -0.07637(19) 0.24338(12)
H15 H 0.5626 -0.1256 0.1928
C25 C 0.64466(13) -0.0664(2) 0.29814(12)
H16 H 0.6964 -0.1099 0.2834
C26 C 0.58211(11) 0.06301(17) 0.39367(11)
C27 C 0.49905(11) 0.05808(16) 0.34127(10)
C28 C 0.59509(11) 0.13246(17) 0.47527(11)
C29 C 0.67682(12) 0.12669(18) 0.52793(12)
H17 H 0.7263 0.0793 0.5116
C30 C 0.68532(13) 0.1907(2) 0.60431(13)
H18 H 0.7405 0.1873 0.6414
C31 C 0.61232(13) 0.2597(2) 0.62594(12)
H19 H 0.6161 0.3044 0.6781
C32 C 0.53419(13) 0.2620(2) 0.57003(12)
H20 H 0.4843 0.3102 0.5850
loop_
_geom_bond_atom_site_label_1
_geom_bond_atom_site_label_2
_geom_bond_site_symmetry_1
_geom_bond_site_symmetry_2
N1 C1 1_555 1_555
N2 C9 1_555 1_555
N3 C12 1_555 1_555
N4 C17 1_555 1_555
N5 C25 1_555 1_555
N6 C28 1_555 1_555
C1 C2 1_555 1_555
C2 H1 1_555 1_555
C3 C2 1_555 1_555
H2 C3 1_555 1_555
C4 C3 1_555 1_555
H3 C4 1_555 1_555
C5 C4 1_555 1_555
H4 C5 1_555 1_555
C6 C1 1_555 1_555
C7 C6 1_555 1_555
C8 C7 1_555 1_555
H5 C8 1_555 1_555
C9 C8 1_555 1_555
H6 C9 1_555 1_555
C10 N2 1_555 1_555
C11 N1 1_555 1_555
C12 C10 1_555 1_555
C13 C12 1_555 1_555
H7 C13 1_555 1_555
C14 C13 1_555 1_555
H8 C14 1_555 1_555
C15 C14 1_555 1_555
H9 C15 1_555 1_555
C16 N3 1_555 1_555
H10 C16 1_555 1_555
C17 C18 1_555 1_555
C18 H11 1_555 1_555
C19 C18 1_555 1_555
H12 C19 1_555 1_555
C20 C19 1_555 1_555
H13 C20 1_555 1_555
C21 C20 1_555 1_555
H14 C21 1_555 1_555
C22 C17 1_555 1_555
C23 C22 1_555 1_555
C24 C23 1_555 1_555
H15 C24 1_555 1_555
C25 C24 1_555 1_555
H16 C25 1_555 1_555
C26 N5 1_555 1_555
C27 N4 1_555 1_555
C28 C26 1_555 1_555
C29 C28 1_555 1_555
H17 C29 1_555 1_555
C30 C29 1_555 1_555
H18 C30 1_555 1_555
C31 C30 1_555 1_555
H19 C31 1_555 1_555
C32 N6 1_555 1_555
H20 C32 1_555 1_555
C5 C6 1_555 1_555
C7 C11 1_555 1_555
C10 C11 1_555 1_555
C15 C16 1_555 1_555
C21 C22 1_555 1_555
C23 C27 1_555 1_555
C26 C27 1_555 1_555
C31 C32 1_555 1_555

#END
