
#######################################################################
#
#                 Cambridge Crystallographic Data Centre
#                                CCDC 
#
#######################################################################
#
# If this CIF has been generated from an entry in the Cambridge 
# Structural Database, then it will include bibliographic, chemical, 
# crystal, experimental, refinement or atomic coordinate data resulting 
# from the CCDC's data processing and validation procedures.
#
#######################################################################

data_IZEQEL
_chemical_formula_moiety         'C24 H22 O4'
_chemical_name_systematic        
1-(6-benzoyl-2-(benzyloxy)-3-methoxyphenyl)acetone
_symmetry_cell_setting           monoclinic
_symmetry_space_group_name_H-M   'P 21/n'
_symmetry_Int_Tables_number      14
_space_group_name_Hall           '-P 2yn'
loop_
_symmetry_equiv_pos_site_id
_symmetry_equiv_pos_as_xyz
1 x,y,z
2 1/2-x,1/2+y,1/2-z
3 -x,-y,-z
4 1/2+x,1/2-y,1/2+z
_cell_length_a                   11.5472(5)
_cell_length_b                   9.5808(3)
_cell_length_c                   17.8875(7)
_cell_angle_alpha                90
_cell_angle_beta                 95.831(2)
_cell_angle_gamma                90
_cell_volume                     1968.68
_exptl_crystal_colour            colorless
_cell_formula_units_Z            4
loop_
_atom_site_label
_atom_site_type_symbol
_atom_site_fract_x
_atom_site_fract_y
_atom_site_fract_z
O1 O 0.27401(14) 1.04198(18) 0.13329(9)
O2 O 0.39553(16) 1.23351(16) 0.07030(10)
O3 O 0.31091(17) 0.67482(19) 0.06360(12)
O4 O 0.55827(16) 0.61857(17) 0.15932(11)
C1 C -0.1152(3) 1.2551(4) 0.0855(3)
H1 H -0.1844 1.3026 0.0899
C2 C -0.0867(3) 1.1475(4) 0.1304(2)
H2 H -0.1353 1.1213 0.1663
C3 C 0.0136(2) 1.0754(3) 0.12388(16)
H3 H 0.0312 0.9990 0.1550
C4 C 0.0890(2) 1.1119(2) 0.07295(14)
C5 C 0.1954(2) 1.0292(3) 0.06528(16)
H4 H 0.1750 0.9320 0.0565
H5 H 0.2331 1.0628 0.0227
C6 C 0.3883(2) 1.0111(2) 0.12273(13)
C7 C 0.4363(2) 0.8856(2) 0.14722(12)
C8 C 0.5556(2) 0.8627(2) 0.14009(12)
C9 C 0.6129(2) 0.7274(2) 0.16022(13)
C10 C 0.7415(2) 0.7242(2) 0.18115(13)
C11 C 0.8056(2) 0.6139(3) 0.15683(15)
H6 H 0.7687 0.5455 0.1261
C12 C 0.9230(3) 0.6046(3) 0.17777(18)
H7 H 0.9657 0.5317 0.1599
C13 C 0.9776(2) 0.7024(3) 0.22503(16)
H8 H 1.0569 0.6950 0.2399
C14 C 0.0599(3) 1.2231(3) 0.02673(19)
H9 H 0.1087 1.2503 -0.0089
C15 C -0.0455(4) 1.2967(4) 0.0336(3)
H10 H -0.0661 1.3726 0.0027
C16 C 0.4539(2) 1.1141(2) 0.09021(13)
C17 C 0.4590(3) 1.3432(2) 0.03869(16)
H11 H 0.5184 1.3769 0.0757
H12 H 0.4068 1.4181 0.0230
H13 H 0.4943 1.3083 -0.0039
C18 C 0.5688(2) 1.0894(2) 0.08145(13)
H14 H 0.6124 1.1553 0.0584
C19 C 0.6189(2) 0.9653(2) 0.10737(13)
H15 H 0.6974 0.9500 0.1028
C20 C 0.3623(2) 0.7793(2) 0.18259(15)
H16 H 0.4081 0.7384 0.2255
H17 H 0.2969 0.8271 0.2011
C21 C 0.3163(2) 0.6637(2) 0.13113(17)
C22 C 0.2751(3) 0.5352(3) 0.16753(19)
H18 H 0.2249 0.4832 0.1316
H19 H 0.2330 0.5610 0.2090
H20 H 0.3408 0.4787 0.1854
C23 C 0.9148(2) 0.8114(3) 0.25028(15)
H21 H 0.9516 0.8774 0.2826
C24 C 0.7979(2) 0.8230(2) 0.22800(13)
H22 H 0.7563 0.8981 0.2446
loop_
_geom_bond_atom_site_label_1
_geom_bond_atom_site_label_2
_geom_bond_site_symmetry_1
_geom_bond_site_symmetry_2
O1 C5 1_555 1_555
O2 C16 1_555 1_555
O3 C21 1_555 1_555
O4 C9 1_555 1_555
C1 H1 1_555 1_555
C2 C1 1_555 1_555
H2 C2 1_555 1_555
C3 C2 1_555 1_555
H3 C3 1_555 1_555
C4 C3 1_555 1_555
C5 C4 1_555 1_555
H4 C5 1_555 1_555
H5 C5 1_555 1_555
C6 O1 1_555 1_555
C7 C6 1_555 1_555
C8 C7 1_555 1_555
C9 C8 1_555 1_555
C10 C9 1_555 1_555
C11 C10 1_555 1_555
H6 C11 1_555 1_555
C12 C11 1_555 1_555
H7 C12 1_555 1_555
C13 C12 1_555 1_555
H8 C13 1_555 1_555
C14 C4 1_555 1_555
H9 C14 1_555 1_555
C15 C1 1_555 1_555
H10 C15 1_555 1_555
C16 C6 1_555 1_555
C17 O2 1_555 1_555
H11 C17 1_555 1_555
H12 C17 1_555 1_555
H13 C17 1_555 1_555
C18 C16 1_555 1_555
H14 C18 1_555 1_555
C19 C8 1_555 1_555
H15 C19 1_555 1_555
C20 C7 1_555 1_555
H16 C20 1_555 1_555
H17 C20 1_555 1_555
C21 C20 1_555 1_555
C22 C21 1_555 1_555
H18 C22 1_555 1_555
H19 C22 1_555 1_555
H20 C22 1_555 1_555
C23 C13 1_555 1_555
H21 C23 1_555 1_555
C24 C10 1_555 1_555
H22 C24 1_555 1_555
C14 C15 1_555 1_555
C18 C19 1_555 1_555
C23 C24 1_555 1_555

#END
