
#######################################################################
#
#                 Cambridge Crystallographic Data Centre
#                                CCDC 
#
#######################################################################
#
# If this CIF has been generated from an entry in the Cambridge 
# Structural Database, then it will include bibliographic, chemical, 
# crystal, experimental, refinement or atomic coordinate data resulting 
# from the CCDC's data processing and validation procedures.
#
#######################################################################

data_IZERUB
_chemical_formula_moiety         'C23 H18 N4 O3'
_chemical_name_systematic        
2-(3,4-Dimethoxyphenyl)-5-(5-phenyl-1,3,4-oxadiazol-2-yl)pyrazolo[1,5-a]pyridine
_symmetry_cell_setting           monoclinic
_symmetry_space_group_name_H-M   'P 21/c'
_symmetry_Int_Tables_number      14
_space_group_name_Hall           '-P 2ybc'
loop_
_symmetry_equiv_pos_site_id
_symmetry_equiv_pos_as_xyz
1 x,y,z
2 -x,1/2+y,1/2-z
3 -x,-y,-z
4 x,1/2-y,1/2+z
_cell_length_a                   19.962(8)
_cell_length_b                   11.030(4)
_cell_length_c                   8.856(4)
_cell_angle_alpha                90
_cell_angle_beta                 91.273(7)
_cell_angle_gamma                90
_cell_volume                     1949.44
_exptl_crystal_colour            colorless
_exptl_crystal_description       block
_cell_formula_units_Z            4
loop_
_atom_site_label
_atom_site_type_symbol
_atom_site_fract_x
_atom_site_fract_y
_atom_site_fract_z
O1 O 0.35665(5) 0.52812(9) 0.18843(11)
N1 N 0.24198(6) 0.57364(10) 0.68419(14)
C1 C 0.27052(7) 0.45839(12) 0.68894(16)
N2 N 0.36289(7) 0.34057(11) 0.27418(14)
N3 N 0.20756(7) 0.59979(11) 0.81053(14)
C2 C 0.30600(8) 0.41973(13) 0.56172(16)
C3 C 0.40940(7) 0.50906(12) -0.05594(16)
O2 O 0.06017(6) 0.66881(11) 1.27212(14)
C4 C 0.21378(7) 0.49900(13) 0.89684(17)
C5 C 0.13513(8) 0.58535(14) 1.08467(18)
C6 C 0.38670(7) 0.45523(12) 0.08411(16)
C7 C 0.18994(8) 0.39672(15) 1.14214(18)
C8 C 0.17962(7) 0.49285(13) 1.04316(17)
C9 C 0.30991(7) 0.49373(12) 0.43771(16)
O3 O 0.08062(6) 0.48940(11) 1.45326(14)
N4 N 0.39136(7) 0.34430(11) 0.12995(14)
C10 C 0.10336(8) 0.58256(15) 1.22133(18)
C11 C 0.34370(7) 0.44947(13) 0.30365(16)
C12 C 0.44131(9) 0.43678(15) -0.16194(18)
C13 C 0.25254(7) 0.40991(13) 0.82738(17)
C14 C 0.11459(8) 0.48403(14) 1.32130(17)
C15 C 0.28007(8) 0.61126(14) 0.43938(18)
C16 C 0.40028(9) 0.63163(14) -0.08593(18)
C17 C 0.15732(8) 0.39182(15) 1.27975(19)
C18 C 0.24727(9) 0.64930(15) 0.56186(19)
C19 C 0.42393(10) 0.68211(17) -0.21764(19)
C20 C 0.45583(10) 0.61033(17) -0.3211(2)
C21 C 0.09173(9) 0.39655(18) 1.5624(2)
H1 H 0.0647 0.4117 1.6486
H2 H 0.1382 0.3958 1.5931
H3 H 0.0799 0.3195 1.5191
C22 C 0.46406(10) 0.48799(17) -0.2931(2)
C23 C 0.04833(11) 0.77185(19) 1.1789(2)
H4 H 0.0173 0.8252 1.2268
H5 H 0.0299 0.7462 1.0831
H6 H 0.0898 0.8137 1.1637
H7 H 0.1265(8) 0.6500(16) 1.0173(18)
H8 H 0.2641(7) 0.3270(14) 0.8684(17)
H9 H 0.2195(9) 0.3311(16) 1.1156(19)
H10 H 0.3791(8) 0.6782(15) -0.0178(18)
H11 H 0.3249(8) 0.3400(16) 0.5676(18)
H12 H 0.1664(8) 0.3261(16) 1.3459(19)
H13 H 0.2831(8) 0.6631(15) 0.3535(18)
H14 H 0.4182(9) 0.7698(19) -0.237(2)
H15 H 0.4478(9) 0.3513(17) -0.1419(19)
H16 H 0.2249(8) 0.7239(17) 0.5685(19)
H17 H 0.4749(8) 0.6481(15) -0.4118(19)
H18 H 0.4866(9) 0.4330(16) -0.359(2)
loop_
_geom_bond_atom_site_label_1
_geom_bond_atom_site_label_2
_geom_bond_site_symmetry_1
_geom_bond_site_symmetry_2
O1 C6 1_555 1_555
N1 C1 1_555 1_555
C1 C2 1_555 1_555
N2 N4 1_555 1_555
N3 N1 1_555 1_555
C2 C9 1_555 1_555
C3 C6 1_555 1_555
O2 C10 1_555 1_555
C4 N3 1_555 1_555
C5 C8 1_555 1_555
C6 N4 1_555 1_555
C7 C8 1_555 1_555
C8 C4 1_555 1_555
C9 C11 1_555 1_555
O3 C14 1_555 1_555
C10 C5 1_555 1_555
C11 O1 1_555 1_555
C12 C3 1_555 1_555
C13 C1 1_555 1_555
C14 C10 1_555 1_555
C15 C9 1_555 1_555
C16 C3 1_555 1_555
C17 C7 1_555 1_555
C18 N1 1_555 1_555
C19 C16 1_555 1_555
C20 C19 1_555 1_555
C21 O3 1_555 1_555
H1 C21 1_555 1_555
H2 C21 1_555 1_555
H3 C21 1_555 1_555
C22 C12 1_555 1_555
C23 O2 1_555 1_555
H4 C23 1_555 1_555
H5 C23 1_555 1_555
H6 C23 1_555 1_555
H7 C5 1_555 1_555
H8 C13 1_555 1_555
H9 C7 1_555 1_555
H10 C16 1_555 1_555
H11 C2 1_555 1_555
H12 C17 1_555 1_555
H13 C15 1_555 1_555
H14 C19 1_555 1_555
H15 C12 1_555 1_555
H16 C18 1_555 1_555
H17 C20 1_555 1_555
H18 C22 1_555 1_555
N2 C11 1_555 1_555
C4 C13 1_555 1_555
C14 C17 1_555 1_555
C15 C18 1_555 1_555
C20 C22 1_555 1_555

#END
