
#######################################################################
#
#                 Cambridge Crystallographic Data Centre
#                                CCDC 
#
#######################################################################
#
# If this CIF has been generated from an entry in the Cambridge 
# Structural Database, then it will include bibliographic, chemical, 
# crystal, experimental, refinement or atomic coordinate data resulting 
# from the CCDC's data processing and validation procedures.
#
#######################################################################

data_IZEXAN
_chemical_formula_moiety         'C16 H12 F3 N3 O2'
_chemical_name_systematic        
'Ethyl 4-(5-(trifluoromethyl)-1H-benzotriazol-1-yl)benzoate'
_symmetry_cell_setting           monoclinic
_symmetry_space_group_name_H-M   'P 21/c'
_symmetry_Int_Tables_number      14
_space_group_name_Hall           '-P 2ybc'
loop_
_symmetry_equiv_pos_site_id
_symmetry_equiv_pos_as_xyz
1 x,y,z
2 -x,1/2+y,1/2-z
3 -x,-y,-z
4 x,1/2-y,1/2+z
_cell_length_a                   16.4846(12)
_cell_length_b                   7.6746(5)
_cell_length_c                   13.0858(10)
_cell_angle_alpha                90
_cell_angle_beta                 112.595(9)
_cell_angle_gamma                90
_cell_volume                     1528.45
_exptl_crystal_colour            colorless
_exptl_crystal_description       platelet
_cell_formula_units_Z            4
loop_
_atom_site_label
_atom_site_type_symbol
_atom_site_fract_x
_atom_site_fract_y
_atom_site_fract_z
F1 F 0.88390(13) 0.6191(3) 0.9626(3)
F2 F 0.90134(12) 0.3585(3) 0.9281(2)
F3 F 0.90036(13) 0.4228(4) 1.08258(19)
O1 O 0.19438(15) 0.3327(4) 0.34092(17)
O2 O 0.12622(13) 0.4803(3) 0.43164(16)
N1 N 0.57275(15) 0.3075(3) 0.99281(17)
N2 N 0.49491(14) 0.3125(3) 0.91577(17)
N3 N 0.50112(12) 0.3636(2) 0.81890(15)
C1 C 0.86148(18) 0.4579(4) 0.9756(3)
C2 C 0.76526(17) 0.4321(3) 0.9310(2)
C3 C 0.71839(17) 0.4685(3) 0.8182(2)
H1 H 0.7492 0.5071 0.7760
C4 C 0.62985(16) 0.4493(3) 0.7684(2)
H2 H 0.5993 0.4741 0.6938
C5 C 0.58739(15) 0.3902(3) 0.83592(18)
C6 C 0.63266(16) 0.3554(3) 0.9477(2)
C7 C 0.72321(18) 0.3752(3) 0.9977(2)
H3 H 0.7539 0.3513 1.0724
C8 C 0.42386(15) 0.3802(3) 0.72043(18)
C9 C 0.34759(16) 0.4444(3) 0.7262(2)
H4 H 0.3467 0.4813 0.7934
C10 C 0.27275(16) 0.4533(3) 0.6310(2)
H5 H 0.2209 0.4958 0.6342
C11 C 0.27409(16) 0.3991(3) 0.53009(19)
C12 C 0.35142(16) 0.3370(3) 0.5263(2)
H6 H 0.3528 0.3019 0.4589
C13 C 0.42660(16) 0.3264(3) 0.6207(2)
H7 H 0.4784 0.2837 0.6177
C14 C 0.19528(18) 0.4018(4) 0.4247(2)
C15 C 0.0469(2) 0.4834(6) 0.3292(3)
H8 H 0.0555 0.5639 0.2770
H9 H 0.0368 0.3684 0.2959
C16 C -0.0279(2) 0.5358(6) 0.3513(3)
H10 H -0.0780 0.5456 0.2829
H11 H -0.0164 0.6465 0.3884
H12 H -0.0395 0.4505 0.3976
loop_
_geom_bond_atom_site_label_1
_geom_bond_atom_site_label_2
_geom_bond_site_symmetry_1
_geom_bond_site_symmetry_2
F1 C1 1_555 1_555
F2 C1 1_555 1_555
F3 C1 1_555 1_555
O1 C14 1_555 1_555
O2 C14 1_555 1_555
N1 N2 1_555 1_555
N2 N3 1_555 1_555
N3 C5 1_555 1_555
C1 C2 1_555 1_555
C2 C3 1_555 1_555
C3 H1 1_555 1_555
C4 C3 1_555 1_555
H2 C4 1_555 1_555
C5 C4 1_555 1_555
C6 N1 1_555 1_555
C7 C2 1_555 1_555
H3 C7 1_555 1_555
C8 N3 1_555 1_555
C9 C8 1_555 1_555
H4 C9 1_555 1_555
C10 C9 1_555 1_555
H5 C10 1_555 1_555
C11 C10 1_555 1_555
C12 C11 1_555 1_555
H6 C12 1_555 1_555
C13 C8 1_555 1_555
H7 C13 1_555 1_555
C14 C11 1_555 1_555
C15 O2 1_555 1_555
H8 C15 1_555 1_555
H9 C15 1_555 1_555
C16 C15 1_555 1_555
H10 C16 1_555 1_555
H11 C16 1_555 1_555
H12 C16 1_555 1_555
C5 C6 1_555 1_555
C6 C7 1_555 1_555
C12 C13 1_555 1_555

#END
