
#######################################################################
#
#                 Cambridge Crystallographic Data Centre
#                                CCDC 
#
#######################################################################
#
# If this CIF has been generated from an entry in the Cambridge 
# Structural Database, then it will include bibliographic, chemical, 
# crystal, experimental, refinement or atomic coordinate data resulting 
# from the CCDC's data processing and validation procedures.
#
#######################################################################

data_IZIDAY
_chemical_formula_moiety         'C24 H16 Cl1 N1 O3 S1'
_chemical_name_systematic        
6-(4-chlorophenoxy)-5-((4-methylphenyl)sulfonyl)-2-naphthonitrile
_symmetry_cell_setting           monoclinic
_symmetry_space_group_name_H-M   'P 21/c'
_symmetry_Int_Tables_number      14
_space_group_name_Hall           '-P 2ybc'
loop_
_symmetry_equiv_pos_site_id
_symmetry_equiv_pos_as_xyz
1 x,y,z
2 -x,1/2+y,1/2-z
3 -x,-y,-z
4 x,1/2-y,1/2+z
_cell_length_a                   18.742(2)
_cell_length_b                   15.6215(19)
_cell_length_c                   13.9700(15)
_cell_angle_alpha                90
_cell_angle_beta                 98.216(4)
_cell_angle_gamma                90
_cell_volume                     4048.13
_exptl_crystal_colour            colorless
_exptl_crystal_description       block
_cell_formula_units_Z            8
loop_
_atom_site_label
_atom_site_type_symbol
_atom_site_fract_x
_atom_site_fract_y
_atom_site_fract_z
C1 C 0.54111(19) 0.4280(2) -0.2345(3)
H1 H 0.5360 0.4707 -0.2845
H2 H 0.4969 0.4236 -0.2076
H3 H 0.5520 0.3738 -0.2612
C2 C 0.90468(14) 0.73022(17) 0.06444(17)
C3 C 0.81718(14) 0.61582(16) 0.07675(19)
C4 C 0.97510(14) 0.75902(18) 0.05739(18)
H4 H 0.9842 0.8174 0.0538
C5 C 0.88998(14) 0.64079(17) 0.06944(18)
C6 C 0.78125(15) 0.76567(18) 0.0754(2)
H5 H 0.7453 0.8064 0.0774
C7 C 0.76557(14) 0.67838(18) 0.08178(19)
C8 C 1.03004(14) 0.70170(18) 0.05576(18)
C9 C 0.84898(15) 0.79032(17) 0.06633(19)
H6 H 0.8591 0.8483 0.0612
C10 C 0.94926(15) 0.58409(18) 0.06963(19)
H7 H 0.9418 0.5255 0.0748
C11 C 0.71556(15) 0.49341(17) -0.0095(2)
C12 C 1.01666(15) 0.61346(18) 0.06239(19)
H8 H 1.0543 0.5747 0.0618
C13 C 1.10168(16) 0.73144(19) 0.04680(19)
C14 C 0.59051(16) 0.4675(2) -0.0602(2)
H9 H 0.5438 0.4629 -0.0454
C15 C 0.61511(17) 0.7301(2) -0.0182(2)
H10 H 0.6361 0.7073 -0.0690
C16 C 0.64097(15) 0.70924(19) 0.0755(2)
C17 C 0.64589(15) 0.48770(19) 0.0120(2)
H11 H 0.6366 0.4974 0.0748
C18 C 0.72921(18) 0.4803(2) -0.1035(2)
H12 H 0.7759 0.4842 -0.1185
C19 C 0.55734(17) 0.7855(2) -0.0362(3)
H13 H 0.5388 0.7999 -0.0994
C20 C 0.52750(16) 0.8193(2) 0.0396(3)
C21 C 0.6724(2) 0.4613(2) -0.1739(2)
H14 H 0.6813 0.4532 -0.2371
C22 C 0.61060(18) 0.7419(2) 0.1517(2)
H15 H 0.6283 0.7265 0.2149
C23 C 0.60280(18) 0.4538(2) -0.1542(2)
C24 C 0.55362(19) 0.7976(3) 0.1327(3)
H16 H 0.5328 0.8207 0.1835
Cl1 Cl 0.45570(5) 0.89021(7) 0.01704(9)
N1 N 1.15770(14) 0.75569(18) 0.03880(19)
O1 O 0.84532(11) 0.45221(13) 0.0586(2)
O2 O 0.76435(12) 0.49452(16) 0.17439(16)
O3 O 0.69820(10) 0.65158(13) 0.09650(15)
S1 S 0.78887(4) 0.50705(5) 0.08304(6)
H17 H 0.350(3) 0.511(5) 0.690(5)
H18 H 0.383(3) 0.465(3) 0.630(4)
H19 H 0.333(3) 0.419(4) 0.672(4)
C25 C -0.20021(17) 0.7816(2) 0.3216(2)
C26 C -0.12944(15) 0.74596(18) 0.31864(19)
C27 C -0.07189(15) 0.79748(17) 0.31116(18)
H20 H -0.0781 0.8565 0.3085
C28 C -0.00305(14) 0.76238(16) 0.30748(17)
C29 C 0.00761(14) 0.67176(16) 0.31310(17)
C30 C -0.05411(15) 0.62053(18) 0.3205(2)
H21 H -0.0492 0.5613 0.3239
C31 C -0.12021(15) 0.65615(19) 0.3227(2)
H22 H -0.1597 0.6210 0.3270
C32 C 0.05543(14) 0.81700(17) 0.29790(18)
H23 H 0.0479 0.8758 0.2952
C33 C 0.12223(14) 0.78613(17) 0.29251(19)
H24 H 0.1600 0.8233 0.2860
C34 C 0.13381(14) 0.69699(17) 0.29680(18)
C35 C 0.07899(14) 0.64047(16) 0.30911(18)
C36 C 0.26005(14) 0.71614(17) 0.3012(2)
C37 C 0.29252(16) 0.73567(19) 0.3924(2)
H25 H 0.2730 0.7164 0.4460
C38 C 0.35472(16) 0.7843(2) 0.4042(2)
H26 H 0.3776 0.7979 0.4658
C39 C 0.28837(17) 0.7436(2) 0.2201(2)
H27 H 0.2660 0.7292 0.1585
C40 C 0.35010(16) 0.7925(2) 0.2322(2)
H28 H 0.3697 0.8118 0.1787
C41 C 0.38237(15) 0.81242(19) 0.3238(2)
C42 C 0.3416(2) 0.4713(3) 0.6493(3)
C43 C 0.28400(17) 0.49168(18) 0.5653(2)
C44 C 0.29447(16) 0.47407(19) 0.4705(2)
H29 H 0.3385 0.4521 0.4585
C45 C 0.24040(15) 0.48876(18) 0.3937(2)
H30 H 0.2478 0.4766 0.3307
C46 C 0.17524(15) 0.52184(16) 0.41216(19)
C47 C 0.16361(17) 0.54056(18) 0.5053(2)
H31 H 0.1195 0.5625 0.5170
C48 C 0.21847(17) 0.52623(19) 0.5811(2)
H32 H 0.2113 0.5400 0.6437
Cl2 Cl 0.45947(4) 0.87623(6) 0.33820(7)
N2 N -0.25627(15) 0.8084(2) 0.3241(2)
O4 O 0.04449(10) 0.48152(12) 0.34632(16)
O5 O 0.12778(11) 0.50440(12) 0.22824(14)
O6 O 0.19951(10) 0.66281(12) 0.28750(15)
S2 S 0.10268(4) 0.52988(4) 0.31645(5)
loop_
_geom_bond_atom_site_label_1
_geom_bond_atom_site_label_2
_geom_bond_site_symmetry_1
_geom_bond_site_symmetry_2
C1 H1 1_555 1_555
H2 C1 1_555 1_555
H3 C1 1_555 1_555
C2 C4 1_555 1_555
C3 C5 1_555 1_555
C4 H4 1_555 1_555
C5 C2 1_555 1_555
C6 H5 1_555 1_555
C7 C3 1_555 1_555
C8 C4 1_555 1_555
C9 C2 1_555 1_555
H6 C9 1_555 1_555
C10 C5 1_555 1_555
H7 C10 1_555 1_555
C11 C17 1_555 1_555
C12 C8 1_555 1_555
H8 C12 1_555 1_555
C13 C8 1_555 1_555
C14 H9 1_555 1_555
C15 H10 1_555 1_555
C16 C15 1_555 1_555
C17 C14 1_555 1_555
H11 C17 1_555 1_555
C18 C11 1_555 1_555
H12 C18 1_555 1_555
C19 C15 1_555 1_555
H13 C19 1_555 1_555
C20 C19 1_555 1_555
C21 C18 1_555 1_555
H14 C21 1_555 1_555
C22 C16 1_555 1_555
H15 C22 1_555 1_555
C23 C1 1_555 1_555
C24 C20 1_555 1_555
H16 C24 1_555 1_555
Cl1 C20 1_555 1_555
N1 C13 1_555 1_555
O1 S1 1_555 1_555
O2 S1 1_555 1_555
O3 C7 1_555 1_555
S1 C3 1_555 1_555
H17 C42 1_555 1_555
H18 C42 1_555 1_555
H19 C42 1_555 1_555
C25 C26 1_555 1_555
C26 C27 1_555 1_555
C27 H20 1_555 1_555
C28 C27 1_555 1_555
C29 C28 1_555 1_555
C30 C29 1_555 1_555
H21 C30 1_555 1_555
C31 C26 1_555 1_555
H22 C31 1_555 1_555
C32 C28 1_555 1_555
H23 C32 1_555 1_555
C33 C32 1_555 1_555
H24 C33 1_555 1_555
C34 C33 1_555 1_555
C35 C29 1_555 1_555
C36 C37 1_555 1_555
C37 H25 1_555 1_555
C38 C37 1_555 1_555
H26 C38 1_555 1_555
C39 C36 1_555 1_555
H27 C39 1_555 1_555
C40 C39 1_555 1_555
H28 C40 1_555 1_555
C41 C38 1_555 1_555
C42 C43 1_555 1_555
C43 C44 1_555 1_555
C44 H29 1_555 1_555
C45 C44 1_555 1_555
H30 C45 1_555 1_555
C46 C45 1_555 1_555
C47 C46 1_555 1_555
H31 C47 1_555 1_555
C48 C43 1_555 1_555
H32 C48 1_555 1_555
Cl2 C41 1_555 1_555
N2 C25 1_555 1_555
O4 S2 1_555 1_555
O5 S2 1_555 1_555
O6 C34 1_555 1_555
S2 C35 1_555 1_555
C6 C7 1_555 1_555
C6 C9 1_555 1_555
C10 C12 1_555 1_555
C11 S1 1_555 1_555
C14 C23 1_555 1_555
C16 O3 1_555 1_555
C21 C23 1_555 1_555
C22 C24 1_555 1_555
C30 C31 1_555 1_555
C34 C35 1_555 1_555
C36 O6 1_555 1_555
C40 C41 1_555 1_555
C46 S2 1_555 1_555
C47 C48 1_555 1_555

#END
