
#######################################################################
#
#                 Cambridge Crystallographic Data Centre
#                                CCDC 
#
#######################################################################
#
# If this CIF has been generated from an entry in the Cambridge 
# Structural Database, then it will include bibliographic, chemical, 
# crystal, experimental, refinement or atomic coordinate data resulting 
# from the CCDC's data processing and validation procedures.
#
#######################################################################

data_IZIRIU
_chemical_formula_moiety         'C28 H21 Br2 N1 O7 S1,C1 H2 Cl2'
_chemical_name_systematic        
'dimethyl 3-(2-(benzoyloxy)-5-bromophenyl)-8-bromo-4-sulfanylidene-2,3,3a,9b-tetrahydrochromeno[3,4-c]pyrrole-1,1(4H)-dicarboxylate dichloromethane solvate'
_symmetry_cell_setting           triclinic
_symmetry_space_group_name_H-M   'P -1'
_symmetry_Int_Tables_number      2
_space_group_name_Hall           '-P 1'
loop_
_symmetry_equiv_pos_site_id
_symmetry_equiv_pos_as_xyz
1 x,y,z
2 -x,-y,-z
_cell_length_a                   9.561(7)
_cell_length_b                   11.973(8)
_cell_length_c                   14.769(9)
_cell_angle_alpha                94.018(14)
_cell_angle_beta                 106.912(14)
_cell_angle_gamma                109.068(14)
_cell_volume                     1503.1
_exptl_crystal_colour            colorless
_exptl_crystal_description       prism
_cell_formula_units_Z            2
loop_
_atom_site_label
_atom_site_type_symbol
_atom_site_fract_x
_atom_site_fract_y
_atom_site_fract_z
C1 C 0.2185(5) 0.0201(4) 0.1262(3)
C2 C 0.1302(5) -0.0698(4) 0.0485(3)
H1 H 0.0641 -0.1450 0.0557
C3 C 0.1386(5) -0.0497(3) -0.0402(3)
H2 H 0.0758 -0.1102 -0.0957
C4 C 0.2385(4) 0.0585(3) -0.0484(3)
C5 C 0.3307(4) 0.1485(3) 0.0295(3)
C6 C 0.3182(4) 0.1288(3) 0.1181(3)
H3 H 0.3781 0.1900 0.1735
C7 C 0.3200(5) 0.0293(3) -0.1794(3)
C8 C 0.2957(5) 0.0419(4) -0.2801(3)
C9 C 0.1993(6) 0.0977(4) -0.3283(3)
H4 H 0.1446 0.1304 -0.2962
C10 C 0.1824(7) 0.1058(5) -0.4225(4)
H5 H 0.1167 0.1450 -0.4558
C11 C 0.2599(8) 0.0575(6) -0.4691(4)
H6 H 0.2486 0.0645 -0.5343
C12 C 0.3526(9) -0.0001(6) -0.4231(5)
H7 H 0.4036 -0.0356 -0.4562
C13 C 0.3719(7) -0.0067(5) -0.3278(4)
H8 H 0.4386 -0.0453 -0.2947
C14 C 0.4477(4) 0.2628(3) 0.0183(3)
H9 H 0.4062 0.2825 -0.0465
C15 C 0.6065(4) 0.2472(3) 0.0301(3)
H10 H 0.5881 0.1596 0.0169
C16 C 0.6887(4) 0.3101(3) -0.0352(3)
C17 C 0.9331(4) 0.3471(3) 0.0909(3)
C18 C 1.0891(4) 0.3693(3) 0.1074(3)
H11 H 1.1337 0.3919 0.0587
C19 C 1.1802(5) 0.3587(4) 0.1945(3)
H12 H 1.2882 0.3725 0.2067
C20 C 1.1128(5) 0.3277(4) 0.2639(3)
C21 C 0.9565(4) 0.3079(3) 0.2480(3)
H13 H 0.9123 0.2864 0.2970
C22 C 0.8650(4) 0.3193(3) 0.1608(3)
C23 C 0.6949(4) 0.2965(3) 0.1365(3)
H14 H 0.6516 0.2348 0.1733
C24 C 0.6466(4) 0.4048(3) 0.1558(3)
C25 C 0.7514(4) 0.5191(3) 0.1347(3)
C26 C 0.9966(5) 0.6783(4) 0.1952(4)
H15 H 1.0909 0.7066 0.2525
H16 H 0.9495 0.7400 0.1875
H17 H 1.0249 0.6623 0.1383
C27 C 0.6513(5) 0.4307(4) 0.2594(3)
C28 C 0.6057(6) 0.5613(4) 0.3634(3)
H18 H 0.5733 0.6310 0.3626
H19 H 0.7107 0.5833 0.4109
H20 H 0.5311 0.4955 0.3805
N1 N 0.4845(3) 0.3643(3) 0.0936(2)
H21 H 0.4608 0.4200 0.0591
O1 O 0.2375(3) 0.0793(2) -0.14037(18)
O2 O 0.4021(4) -0.0183(3) -0.1343(2)
O3 O 0.8473(3) 0.3569(2) 0.00006(19)
O4 O 0.7177(3) 0.5569(2) 0.0620(2)
O5 O 0.8844(3) 0.5685(2) 0.2061(2)
O6 O 0.6838(4) 0.3747(3) 0.3198(2)
O7 O 0.6087(3) 0.5237(3) 0.2704(2)
S1 S 0.60573(13) 0.32092(11) -0.14305(8)
Br1 Br 0.20287(6) -0.00246(4) 0.24849(4)
Br2 Br 1.23606(5) 0.30937(5) 0.38310(3)
C29 C 0.1700(9) 0.6076(6) 0.4481(5)
H22 H 0.1073 0.5415 0.3922
H23 H 0.2043 0.5715 0.5049
Cl1 Cl 0.3351(3) 0.7007(2) 0.42604(18)
Cl2 Cl 0.0561(2) 0.68146(19) 0.46822(15)
loop_
_geom_bond_atom_site_label_1
_geom_bond_atom_site_label_2
_geom_bond_site_symmetry_1
_geom_bond_site_symmetry_2
C1 C2 1_555 1_555
C2 H1 1_555 1_555
C3 C2 1_555 1_555
H2 C3 1_555 1_555
C4 C3 1_555 1_555
C5 C4 1_555 1_555
C6 C1 1_555 1_555
H3 C6 1_555 1_555
C7 C8 1_555 1_555
C8 C9 1_555 1_555
C9 H4 1_555 1_555
C10 C9 1_555 1_555
H5 C10 1_555 1_555
C11 C10 1_555 1_555
H6 C11 1_555 1_555
C12 C11 1_555 1_555
H7 C12 1_555 1_555
C13 C8 1_555 1_555
H8 C13 1_555 1_555
C14 C5 1_555 1_555
H9 C14 1_555 1_555
C15 C14 1_555 1_555
H10 C15 1_555 1_555
C16 C15 1_555 1_555
C17 C18 1_555 1_555
C18 H11 1_555 1_555
C19 C18 1_555 1_555
H12 C19 1_555 1_555
C20 C19 1_555 1_555
C21 C20 1_555 1_555
H13 C21 1_555 1_555
C22 C17 1_555 1_555
C23 C15 1_555 1_555
H14 C23 1_555 1_555
C24 C23 1_555 1_555
C25 C24 1_555 1_555
C26 H15 1_555 1_555
H16 C26 1_555 1_555
H17 C26 1_555 1_555
C27 C24 1_555 1_555
C28 H18 1_555 1_555
H19 C28 1_555 1_555
H20 C28 1_555 1_555
N1 C14 1_555 1_555
H21 N1 1_555 1_555
O1 C4 1_555 1_555
O2 C7 1_555 1_555
O3 C16 1_555 1_555
O4 C25 1_555 1_555
O5 C25 1_555 1_555
O6 C27 1_555 1_555
O7 C27 1_555 1_555
S1 C16 1_555 1_555
Br1 C1 1_555 1_555
Br2 C20 1_555 1_555
C29 H22 1_555 1_555
H23 C29 1_555 1_555
Cl1 C29 1_555 1_555
Cl2 C29 1_555 1_555
C5 C6 1_555 1_555
C7 O1 1_555 1_555
C12 C13 1_555 1_555
C17 O3 1_555 1_555
C21 C22 1_555 1_555
C22 C23 1_555 1_555
C24 N1 1_555 1_555
C26 O5 1_555 1_555
C28 O7 1_555 1_555

#END
