
#######################################################################
#
#                 Cambridge Crystallographic Data Centre
#                                CCDC 
#
#######################################################################
#
# If this CIF has been generated from an entry in the Cambridge 
# Structural Database, then it will include bibliographic, chemical, 
# crystal, experimental, refinement or atomic coordinate data resulting 
# from the CCDC's data processing and validation procedures.
#
#######################################################################

data_IZITUH
_chemical_formula_moiety         'C11 H9 Cl2 N1'
_chemical_name_systematic        2-Chloro-3-(chloromethyl)-6-methylquinoline
_symmetry_cell_setting           triclinic
_symmetry_space_group_name_H-M   'P -1'
_symmetry_Int_Tables_number      2
_space_group_name_Hall           '-P 1'
loop_
_symmetry_equiv_pos_site_id
_symmetry_equiv_pos_as_xyz
1 x,y,z
2 -x,-y,-z
_cell_length_a                   6.6003(8)
_cell_length_b                   7.625(1)
_cell_length_c                   11.1333(14)
_cell_angle_alpha                84.018(2)
_cell_angle_beta                 74.507(2)
_cell_angle_gamma                71.764(2)
_cell_volume                     512.7
_exptl_crystal_colour            colorless
_exptl_crystal_description       block
_cell_formula_units_Z            2
loop_
_atom_site_label
_atom_site_type_symbol
_atom_site_fract_x
_atom_site_fract_y
_atom_site_fract_z
C1 C 0.5355(4) 0.0310(3) 0.83028(19)
H1 H 0.6925 -0.0129 0.8183
H2 H 0.4755 -0.0707 0.8543
H3 H 0.4732 0.1210 0.8946
C2 C 0.8477(3) 0.3981(3) 0.17805(17)
H4 H 0.9758 0.4016 0.2036
H5 H 0.7837 0.5191 0.1441
Cl1 Cl 0.93161(8) 0.22853(7) 0.05925(4)
C3 C 0.4810(3) 0.1181(2) 0.71051(16)
C4 C 0.3652(3) 0.2885(2) 0.49165(15)
C5 C 0.6394(3) 0.1483(2) 0.60987(17)
H6 H 0.7852 0.1116 0.6150
C6 C 0.2032(3) 0.2587(3) 0.59568(16)
H7 H 0.0565 0.2953 0.5923
C7 C 0.2599(3) 0.1761(2) 0.70172(16)
H8 H 0.1505 0.1575 0.7698
C8 C 0.5881(3) 0.2336(2) 0.49851(15)
C9 C 0.6837(3) 0.3550(2) 0.28868(15)
C10 C 0.7439(3) 0.2714(2) 0.39335(16)
H9 H 0.8910 0.2385 0.3954
C11 C 0.4560(3) 0.4015(2) 0.29353(15)
Cl2 Cl 0.36700(8) 0.51143(7) 0.16273(4)
N1 N 0.3032(2) 0.37200(19) 0.38656(13)
loop_
_geom_bond_atom_site_label_1
_geom_bond_atom_site_label_2
_geom_bond_site_symmetry_1
_geom_bond_site_symmetry_2
C1 H1 1_555 1_555
H2 C1 1_555 1_555
H3 C1 1_555 1_555
C2 H4 1_555 1_555
H5 C2 1_555 1_555
Cl1 C2 1_555 1_555
C3 C1 1_555 1_555
C4 C6 1_555 1_555
C5 C3 1_555 1_555
H6 C5 1_555 1_555
C6 H7 1_555 1_555
C7 C3 1_555 1_555
H8 C7 1_555 1_555
C8 C4 1_555 1_555
C9 C2 1_555 1_555
C10 C8 1_555 1_555
H9 C10 1_555 1_555
C11 C9 1_555 1_555
Cl2 C11 1_555 1_555
N1 C4 1_555 1_555
C5 C8 1_555 1_555
C6 C7 1_555 1_555
C9 C10 1_555 1_555
C11 N1 1_555 1_555

#END
