
#######################################################################
#
#                 Cambridge Crystallographic Data Centre
#                                CCDC 
#
#######################################################################
#
# If this CIF has been generated from an entry in the Cambridge 
# Structural Database, then it will include bibliographic, chemical, 
# crystal, experimental, refinement or atomic coordinate data resulting 
# from the CCDC's data processing and validation procedures.
#
#######################################################################

data_IZOQIZ
_chemical_formula_moiety         'C140 H160 Ca2 F4 N8 O28,x(C2 H6 O2)'
_chemical_name_systematic        
'bis(\m-atorvastatinate)-bis(atorvastatinate)-tetrakis(ethylene glycol)-di-calcium ethylene glycol solvate'
_chemical_properties_biological  
'atorvastatin is an HMG-coenzyme A reductase inhibitor'
_symmetry_cell_setting           monoclinic
_symmetry_space_group_name_H-M   'P 21'
_symmetry_Int_Tables_number      4
_space_group_name_Hall           'P 2yb'
loop_
_symmetry_equiv_pos_site_id
_symmetry_equiv_pos_as_xyz
1 x,y,z
2 -x,1/2+y,-z
_cell_length_a                   9.6318(3)
_cell_length_b                   69.162(2)
_cell_length_c                   11.1251(4)
_cell_angle_alpha                90
_cell_angle_beta                 106.7875(18)
_cell_angle_gamma                90
_cell_volume                     7095.2
_exptl_crystal_colour            colorless
_exptl_crystal_description       needle
_cell_formula_units_Z            2
loop_
_atom_site_label
_atom_site_type_symbol
_atom_site_fract_x
_atom_site_fract_y
_atom_site_fract_z
Ca1 Ca 0.51229(14) 0.50474(2) 0.81173(11)
O1 O 0.5482(6) 0.47695(8) 0.6977(5)
C1 C 0.5995(8) 0.47126(11) 0.6103(7)
O2 O 0.6575(7) 0.48185(8) 0.5526(5)
C2 C 0.5824(9) 0.44970(12) 0.5782(8)
H1 H 0.6155 0.4473 0.5051
H2 H 0.6437 0.4424 0.6476
C3 C 0.4289(8) 0.44271(10) 0.5519(6)
H3 H 0.3693 0.4495 0.4776
O3 O 0.3720(6) 0.44714(9) 0.6580(5)
H4 H 0.450(5) 0.4490(15) 0.718(4)
C4 C 0.4058(9) 0.42156(10) 0.5305(6)
H5 H 0.3082 0.4185 0.5325
H6 H 0.4721 0.4148 0.6004
C5 C 0.4259(8) 0.41324(9) 0.4074(6)
H7 H 0.5299 0.4128 0.4153
O4 O 0.3557(6) 0.42507(7) 0.3016(4)
H8 H 0.3890 0.4361 0.3128
C6 C 0.3679(9) 0.39268(10) 0.3920(6)
H9 H 0.4166 0.3855 0.4671
H10 H 0.2656 0.3931 0.3864
C7 C 0.3852(7) 0.38179(9) 0.2796(6)
H11 H 0.3271 0.3880 0.2035
H12 H 0.4859 0.3824 0.2797
N1 N 0.3413(5) 0.36153(8) 0.2796(4)
C8 C 0.2194(7) 0.35316(10) 0.1956(6)
C9 C 0.2220(7) 0.33385(9) 0.2209(6)
C10 C 0.3493(7) 0.33015(10) 0.3208(6)
C11 C 0.4203(7) 0.34729(10) 0.3545(6)
C12 C 0.1057(7) 0.36418(10) 0.1016(6)
C13 C 0.0393(8) 0.38081(10) 0.1284(7)
H13 H 0.0714 0.3861 0.2085
C14 C -0.0722(9) 0.38966(13) 0.0400(8)
H14 H -0.1154 0.4008 0.0592
C15 C -0.1185(9) 0.38145(13) -0.0787(8)
C16 C -0.0532(9) 0.36581(12) -0.1097(7)
H15 H -0.0839 0.3609 -0.1909
C17 C 0.0594(8) 0.35720(10) -0.0205(6)
H16 H 0.1053 0.3465 -0.0424
F1 F -0.2315(6) 0.39013(9) -0.1652(5)
C18 C 0.1032(7) 0.31928(9) 0.1626(5)
C19 C 0.1048(9) 0.30844(11) 0.0608(7)
H17 H 0.1772 0.3104 0.0219
C20 C -0.0032(10) 0.29426(11) 0.0141(8)
H18 H -0.0010 0.2866 -0.0540
C21 C -0.1108(10) 0.29201(12) 0.0704(8)
H19 H -0.1830 0.2829 0.0388
C22 C -0.1146(9) 0.30255(14) 0.1690(8)
H20 H -0.1894 0.3009 0.2054
C23 C -0.0040(8) 0.31630(10) 0.2185(6)
H21 H -0.0044 0.3234 0.2896
C24 C 0.4013(7) 0.31064(10) 0.3753(6)
O5 O 0.4237(6) 0.30695(7) 0.4865(4)
N2 N 0.4266(6) 0.29815(8) 0.2904(5)
H22 H 0.423(7) 0.3021(10) 0.203(7)
C25 C 0.4953(8) 0.27980(10) 0.3181(6)
C26 C 0.5821(9) 0.27426(11) 0.2460(7)
H23 H 0.5908 0.2822 0.1810
C27 C 0.6580(10) 0.25668(13) 0.2699(8)
H24 H 0.7171 0.2529 0.2212
C28 C 0.6438(9) 0.24520(15) 0.3659(9)
H25 H 0.6961 0.2338 0.3853
C29 C 0.5533(11) 0.25067(13) 0.4321(7)
H26 H 0.5414 0.2424 0.4944
C30 C 0.4773(10) 0.26786(11) 0.4122(7)
H27 H 0.4164 0.2713 0.4601
C31 C 0.5638(8) 0.35115(11) 0.4490(6)
H28 H 0.5945 0.3642 0.4338
C32 C 0.6829(8) 0.33695(13) 0.4384(8)
H29 H 0.7722 0.3401 0.5007
H30 H 0.6961 0.3379 0.3563
H31 H 0.6548 0.3240 0.4516
C33 C 0.5523(10) 0.35050(14) 0.5847(7)
H32 H 0.6462 0.3528 0.6428
H33 H 0.5174 0.3380 0.6006
H34 H 0.4862 0.3603 0.5950
O6 O 0.4255(6) 0.51521(7) 0.9794(4)
C34 C 0.3429(9) 0.52944(10) 0.9762(6)
O7 O 0.2145(6) 0.52812(8) 0.9763(6)
C35 C 0.4073(9) 0.54959(10) 0.9718(7)
H35 H 0.3383 0.5591 0.9837
H36 H 0.4940 0.5507 1.0423
C36 C 0.4462(8) 0.55476(9) 0.8548(6)
H37 H 0.3583 0.5540 0.7835
O8 O 0.5500(6) 0.54128(7) 0.8344(5)
H38 H 0.5692 0.5332 0.8909
C37 C 0.5048(10) 0.57513(10) 0.8627(7)
H39 H 0.5940 0.5755 0.9311
H40 H 0.4361 0.5835 0.8859
C38 C 0.5362(9) 0.58389(12) 0.7477(7)
H41 H 0.4446 0.5837 0.6801
O9 O 0.6361(9) 0.57220(9) 0.7068(8)
H42 H 0.6069 0.5610 0.6979
C39 C 0.5817(10) 0.60457(10) 0.7664(7)
H43 H 0.6700 0.6052 0.8357
H44 H 0.5076 0.6116 0.7915
C40 C 0.6084(8) 0.61491(10) 0.6553(7)
H45 H 0.7088 0.6131 0.6573
H46 H 0.5482 0.6091 0.5786
N3 N 0.5775(6) 0.63572(8) 0.6530(5)
C41 C 0.4593(7) 0.64478(10) 0.5685(6)
C42 C 0.4708(7) 0.66418(10) 0.5944(6)
C43 C 0.5962(7) 0.66726(10) 0.6938(6)
C44 C 0.6629(7) 0.64947(9) 0.7304(6)
C45 C 0.3488(7) 0.63460(10) 0.4696(6)
C46 C 0.2738(8) 0.61811(9) 0.4942(7)
H47 H 0.2966 0.6129 0.5747
C47 C 0.1660(9) 0.60973(12) 0.3969(8)
H48 H 0.1174 0.5987 0.4105
C48 C 0.1333(9) 0.61812(13) 0.2809(8)
C49 C 0.2004(8) 0.63379(11) 0.2523(7)
H49 H 0.1741 0.6389 0.1717
C50 C 0.3101(8) 0.64194(11) 0.3478(6)
H50 H 0.3595 0.6526 0.3301
F2 F 0.0228(6) 0.60967(8) 0.1844(5)
C51 C 0.3604(7) 0.67926(9) 0.5370(6)
C52 C 0.3578(10) 0.68981(12) 0.4295(7)
H51 H 0.4289 0.6876 0.3896
C53 C 0.2531(11) 0.70331(13) 0.3814(8)
H52 H 0.2568 0.7104 0.3111
C54 C 0.1424(9) 0.70682(12) 0.4337(8)
H53 H 0.0695 0.7157 0.3977
C55 C 0.1426(9) 0.69698(14) 0.5396(8)
H54 H 0.0707 0.6994 0.5782
C56 C 0.2493(8) 0.68341(11) 0.5902(7)
H55 H 0.2466 0.6768 0.6623
C57 C 0.6544(7) 0.68631(10) 0.7536(6)
O10 O 0.6804(6) 0.68955(7) 0.8637(4)
N4 N 0.6777(7) 0.69915(9) 0.6680(6)
H56 H 0.671(9) 0.6963(12) 0.601(7)
C58 C 0.7486(8) 0.71745(9) 0.6950(6)
C59 C 0.8314(9) 0.72356(11) 0.6216(7)
H57 H 0.8396 0.7159 0.5553
C60 C 0.9030(10) 0.74101(13) 0.6451(8)
H58 H 0.9619 0.7449 0.5964
C61 C 0.8875(11) 0.75283(12) 0.7409(8)
H59 H 0.9345 0.7647 0.7565
C62 C 0.8001(11) 0.74659(13) 0.8136(8)
H60 H 0.7893 0.7543 0.8786
C63 C 0.7296(9) 0.72912(11) 0.7901(7)
H61 H 0.6696 0.7252 0.8376
C64 C 0.8018(8) 0.64418(12) 0.8289(6)
H62 H 0.8287 0.6310 0.8116
C65 C 0.9257(8) 0.65785(13) 0.8236(8)
H63 H 1.0128 0.6542 0.8868
H64 H 0.9005 0.6709 0.8384
H65 H 0.9412 0.6570 0.7424
C66 C 0.7817(9) 0.64442(13) 0.9597(7)
H66 H 0.7022 0.6361 0.9613
H67 H 0.7616 0.6574 0.9808
H68 H 0.8687 0.6399 1.0196
O11 O 0.7792(6) 0.50631(8) 0.9107(5)
H69 H 0.792(10) 0.4940(6) 0.946(8)
C67 C 0.8658(9) 0.50684(13) 0.8214(7)
H70 H 0.9646 0.5107 0.8640
H71 H 0.8681 0.4941 0.7851
C68 C 0.7986(9) 0.52078(13) 0.7228(8)
H72 H 0.8061 0.5336 0.7592
H73 H 0.8512 0.5208 0.6604
O12 O 0.6479(6) 0.51651(7) 0.6620(4)
H74 H 0.656(9) 0.5037(4) 0.661(7)
O13 O 0.3166(6) 0.51760(9) 0.6406(5)
H75 H 0.3482 0.5117 0.5902
C69 C 0.1770(11) 0.51138(16) 0.6302(12)
H76 H 0.1142 0.5145 0.5472
H77 H 0.1403 0.5180 0.6915
C70 C 0.1756(12) 0.49119(18) 0.6504(10)
H78 H 0.1969 0.4845 0.5810
H79 H 0.0794 0.4873 0.6521
O14 O 0.2788(7) 0.48550(9) 0.7652(6)
H80 H 0.2623 0.4913 0.8239
Ca2 Ca 0.48008(15) 0.49032(2) 1.15024(11)
O15 O 0.4401(6) 0.51743(8) 1.2632(5)
C71 C 0.4035(9) 0.52325(12) 1.3564(7)
O16 O 0.3488(7) 0.51192(8) 1.4200(5)
C72 C 0.4402(9) 0.54296(11) 1.4032(8)
H81 H 0.3541 0.5491 1.4140
H82 H 0.5117 0.5423 1.4849
C73 C 0.4968(10) 0.55477(12) 1.3207(9)
H83 H 0.4258 0.5546 1.2374
O17 O 0.6320(7) 0.54654(9) 1.3087(7)
H84 H 0.612(8) 0.5354(6) 1.289(11)
C74 C 0.5306(10) 0.57608(10) 1.3592(8)
H85 H 0.4450 0.5822 1.3712
H86 H 0.6072 0.5767 1.4380
C75 C 0.5773(9) 0.58668(10) 1.2591(7)
H87 H 0.5049 0.5841 1.1785
O18 O 0.7152(7) 0.58023(9) 1.2490(7)
H88 H 0.7466 0.5716 1.3005
C76 C 0.5867(9) 0.60832(10) 1.2763(7)
H89 H 0.6608 0.6114 1.3538
H90 H 0.4948 0.6132 1.2832
C77 C 0.6227(9) 0.61825(10) 1.1680(6)
H91 H 0.7254 0.6167 1.1770
H92 H 0.5691 0.6121 1.0899
N5 N 0.5867(6) 0.63898(7) 1.1626(5)
C78 C 0.4682(7) 0.64690(9) 1.0778(6)
C79 C 0.4733(7) 0.66677(10) 1.0993(6)
C80 C 0.6022(7) 0.67023(10) 1.2003(6)
C81 C 0.6707(7) 0.65288(10) 1.2365(6)
C82 C 0.3605(7) 0.63649(9) 0.9771(6)
C83 C 0.2869(8) 0.62019(11) 0.9981(7)
H93 H 0.3080 0.6150 1.0784
C84 C 0.1809(9) 0.61156(12) 0.8992(8)
H94 H 0.1332 0.6004 0.9120
C85 C 0.1495(9) 0.61995(13) 0.7839(7)
C86 C 0.2181(8) 0.63582(12) 0.7583(6)
H95 H 0.1932 0.6410 0.6778
C87 C 0.3268(8) 0.64419(10) 0.8550(6)
H96 H 0.3773 0.6549 0.8388
F3 F 0.0388(6) 0.61213(8) 0.6868(5)
C88 C 0.3594(7) 0.68102(9) 1.0400(6)
C89 C 0.3668(8) 0.69309(10) 0.9408(6)
H97 H 0.4484 0.6928 0.9121
C90 C 0.2528(9) 0.70546(12) 0.8852(7)
H98 H 0.2589 0.7133 0.8192
C91 C 0.1317(10) 0.70624(12) 0.9260(8)
H99 H 0.0551 0.7144 0.8867
C92 C 0.1242(9) 0.69510(13) 1.0239(9)
H100 H 0.0433 0.6959 1.0532
C93 C 0.2349(8) 0.68247(11) 1.0810(7)
H101 H 0.2267 0.6748 1.1474
C94 C 0.6573(7) 0.68976(10) 1.2550(6)
O19 O 0.6806(6) 0.69365(7) 1.3661(4)
N6 N 0.6842(7) 0.70208(9) 1.1706(6)
H102 H 0.689(8) 0.6986(11) 1.093(7)
C95 C 0.7583(8) 0.72020(10) 1.1968(7)
C96 C 0.8445(9) 0.72557(12) 1.1239(7)
H103 H 0.8527 0.7175 1.0597
C97 C 0.9178(11) 0.74252(14) 1.1441(8)
H104 H 0.9780 0.7459 1.0955
C98 C 0.9023(13) 0.75491(14) 1.2385(9)
H105 H 0.9500 0.7668 1.2512
C99 C 0.8154(11) 0.74952(13) 1.3138(8)
H106 H 0.8062 0.7576 1.3778
C100 C 0.7424(9) 0.73186(11) 1.2921(7)
H107 H 0.6839 0.7280 1.3413
C101 C 0.8143(7) 0.64872(11) 1.3340(6)
H108 H 0.8419 0.6355 1.3183
C102 C 0.9325(8) 0.66197(13) 1.3168(8)
H109 H 0.9384 0.6608 1.2324
H110 H 1.0237 0.6584 1.3746
H111 H 0.9103 0.6751 1.3324
C103 C 0.8010(10) 0.64898(14) 1.4669(7)
H112 H 0.7258 0.6402 1.4725
H113 H 0.7774 0.6618 1.4873
H114 H 0.8914 0.6451 1.5247
O20 O 0.5637(5) 0.48014(6) 0.9784(4)
C104 C 0.6566(7) 0.46646(10) 0.9894(6)
O21 O 0.7872(5) 0.46998(7) 0.9898(5)
C105 C 0.6131(8) 0.44607(10) 1.0024(7)
H115 H 0.6825 0.4403 1.0747
H116 H 0.6176 0.4389 0.9288
C106 C 0.4605(7) 0.44391(9) 1.0177(6)
H117 H 0.3910 0.4499 0.9449
O22 O 0.4520(7) 0.45367(7) 1.1272(4)
H118 H 0.5304 0.4587 1.1618
C107 C 0.4209(8) 0.42237(9) 1.0217(6)
H119 H 0.4961 0.4160 1.0868
H120 H 0.3311 0.4214 1.0443
C108 C 0.4028(8) 0.41174(9) 0.8968(6)
H121 H 0.4921 0.4131 0.8722
O23 O 0.2835(5) 0.41978(7) 0.7994(4)
H122 H 0.2974 0.4314 0.7921
C109 C 0.3706(8) 0.39053(10) 0.9055(6)
H123 H 0.2736 0.3890 0.9138
H124 H 0.4385 0.3851 0.9798
C110 C 0.3815(8) 0.37963(10) 0.7908(6)
H125 H 0.3202 0.3860 0.7165
H126 H 0.4807 0.3804 0.7869
N7 N 0.3402(6) 0.35947(8) 0.7879(5)
C111 C 0.2170(7) 0.35150(10) 0.7045(5)
C112 C 0.2195(7) 0.33194(9) 0.7255(6)
C113 C 0.3470(7) 0.32768(10) 0.8243(6)
C114 C 0.4214(7) 0.34500(9) 0.8604(6)
C115 C 0.1099(7) 0.36259(10) 0.6086(6)
C116 C 0.0382(8) 0.37888(11) 0.6372(7)
H127 H 0.0638 0.3838 0.7183
C117 C -0.0731(9) 0.38759(13) 0.5412(9)
H128 H -0.1218 0.3983 0.5594
C118 C -0.1086(10) 0.38062(14) 0.4259(9)
C119 C -0.0397(9) 0.36547(14) 0.3924(7)
H129 H -0.0653 0.3612 0.3097
C120 C 0.0714(8) 0.35629(11) 0.4849(6)
H130 H 0.1198 0.3458 0.4630
F4 F -0.2186(5) 0.38925(9) 0.3362(5)
C121 C 0.1003(7) 0.31775(9) 0.6654(6)
C122 C 0.1055(9) 0.30661(11) 0.5657(7)
H131 H 0.1836 0.3075 0.5328
C123 C -0.0107(10) 0.29351(11) 0.5126(7)
H132 H -0.0091 0.2859 0.4443
C124 C -0.1256(10) 0.29227(12) 0.5636(8)
H133 H -0.2014 0.2837 0.5297
C125 C -0.1275(9) 0.30334(12) 0.6613(8)
H134 H -0.2059 0.3025 0.6941
C126 C -0.0157(8) 0.31603(11) 0.7150(7)
H135 H -0.0183 0.3234 0.7843
C127 C 0.4008(7) 0.30864(9) 0.8769(6)
O24 O 0.4234(6) 0.30469(7) 0.9885(4)
N8 N 0.4275(7) 0.29605(8) 0.7924(5)
H136 H 0.438(8) 0.3010(11) 0.714(7)
C128 C 0.4982(8) 0.27795(10) 0.8202(6)
C129 C 0.5833(9) 0.27255(12) 0.7456(7)
H137 H 0.5919 0.2805 0.6806
C130 C 0.6585(10) 0.25439(14) 0.7703(9)
H138 H 0.7152 0.2504 0.7201
C131 C 0.6473(11) 0.24332(14) 0.8652(9)
H139 H 0.7001 0.2319 0.8835
C132 C 0.5595(10) 0.24860(13) 0.9347(7)
H140 H 0.5497 0.2404 0.9978
C133 C 0.4834(10) 0.26595(10) 0.9150(7)
H141 H 0.4241 0.2694 0.9644
C134 C 0.5665(8) 0.34841(10) 0.9510(6)
H142 H 0.5961 0.3615 0.9359
C135 C 0.6815(8) 0.33460(12) 0.9309(8)
H143 H 0.7734 0.3375 0.9903
H144 H 0.6889 0.3361 0.8472
H145 H 0.6546 0.3215 0.9426
C136 C 0.5641(10) 0.34759(13) 1.0884(6)
H146 H 0.6605 0.3495 1.1428
H147 H 0.5289 0.3352 1.1051
H148 H 0.5015 0.3576 1.1031
O25 O 0.2168(6) 0.49089(8) 1.0541(5)
H149 H 0.1805 0.4992 1.0018
C137 C 0.1350(8) 0.48938(15) 1.1424(9)
H150 H 0.0355 0.4859 1.0992
H151 H 0.1346 0.5017 1.1837
C138 C 0.2019(9) 0.47426(12) 1.2378(9)
H152 H 0.1489 0.4736 1.2998
H153 H 0.1937 0.4618 1.1966
O26 O 0.3490(5) 0.47810(7) 1.2987(4)
H154 H 0.3561 0.4885 1.3351
O27 O 0.7085(6) 0.51065(8) 1.1851(5)
H155 H 0.6371 0.5124 1.2099
C139 C 0.8264(12) 0.50579(19) 1.2862(11)
H156 H 0.9100 0.5043 1.2549
H157 H 0.8461 0.5167 1.3437
C140 C 0.8168(12) 0.48968(18) 1.3530(12)
H158 H 0.8442 0.4932 1.4411
H159 H 0.8884 0.4805 1.3422
O28 O 0.6797(6) 0.47989(9) 1.3246(4)
H160 H 0.6871 0.4692 1.2953
loop_
_geom_bond_atom_site_label_1
_geom_bond_atom_site_label_2
_geom_bond_site_symmetry_1
_geom_bond_site_symmetry_2
Ca1 O1 1_555 1_555
O1 C1 1_555 1_555
C1 O2 1_555 1_555
C2 C1 1_555 1_555
H1 C2 1_555 1_555
H2 C2 1_555 1_555
C3 C2 1_555 1_555
H3 C3 1_555 1_555
O3 C3 1_555 1_555
H4 O3 1_555 1_555
C4 C3 1_555 1_555
H5 C4 1_555 1_555
H6 C4 1_555 1_555
C5 C4 1_555 1_555
H7 C5 1_555 1_555
O4 C5 1_555 1_555
H8 O4 1_555 1_555
C6 C5 1_555 1_555
H9 C6 1_555 1_555
H10 C6 1_555 1_555
C7 C6 1_555 1_555
H11 C7 1_555 1_555
H12 C7 1_555 1_555
N1 C7 1_555 1_555
C8 N1 1_555 1_555
C9 C8 1_555 1_555
C10 C9 1_555 1_555
C11 N1 1_555 1_555
C12 C8 1_555 1_555
C13 C12 1_555 1_555
H13 C13 1_555 1_555
C14 C13 1_555 1_555
H14 C14 1_555 1_555
C15 C14 1_555 1_555
C16 C15 1_555 1_555
H15 C16 1_555 1_555
C17 C12 1_555 1_555
H16 C17 1_555 1_555
F1 C15 1_555 1_555
C18 C9 1_555 1_555
C19 C18 1_555 1_555
H17 C19 1_555 1_555
C20 C19 1_555 1_555
H18 C20 1_555 1_555
C21 C20 1_555 1_555
H19 C21 1_555 1_555
C22 C21 1_555 1_555
H20 C22 1_555 1_555
C23 C18 1_555 1_555
H21 C23 1_555 1_555
C24 C10 1_555 1_555
O5 C24 1_555 1_555
N2 C24 1_555 1_555
H22 N2 1_555 1_555
C25 N2 1_555 1_555
C26 C25 1_555 1_555
H23 C26 1_555 1_555
C27 C26 1_555 1_555
H24 C27 1_555 1_555
C28 C27 1_555 1_555
H25 C28 1_555 1_555
C29 C28 1_555 1_555
H26 C29 1_555 1_555
C30 C25 1_555 1_555
H27 C30 1_555 1_555
C31 C11 1_555 1_555
H28 C31 1_555 1_555
C32 C31 1_555 1_555
H29 C32 1_555 1_555
H30 C32 1_555 1_555
H31 C32 1_555 1_555
C33 C31 1_555 1_555
H32 C33 1_555 1_555
H33 C33 1_555 1_555
H34 C33 1_555 1_555
O6 Ca1 1_555 1_555
C34 O6 1_555 1_555
O7 C34 1_555 1_555
C35 C34 1_555 1_555
H35 C35 1_555 1_555
H36 C35 1_555 1_555
C36 C35 1_555 1_555
H37 C36 1_555 1_555
O8 Ca1 1_555 1_555
H38 O8 1_555 1_555
C37 C36 1_555 1_555
H39 C37 1_555 1_555
H40 C37 1_555 1_555
C38 C37 1_555 1_555
H41 C38 1_555 1_555
O9 C38 1_555 1_555
H42 O9 1_555 1_555
C39 C38 1_555 1_555
H43 C39 1_555 1_555
H44 C39 1_555 1_555
C40 C39 1_555 1_555
H45 C40 1_555 1_555
H46 C40 1_555 1_555
N3 C40 1_555 1_555
C41 N3 1_555 1_555
C42 C41 1_555 1_555
C43 C42 1_555 1_555
C44 N3 1_555 1_555
C45 C41 1_555 1_555
C46 C45 1_555 1_555
H47 C46 1_555 1_555
C47 C46 1_555 1_555
H48 C47 1_555 1_555
C48 C47 1_555 1_555
C49 C48 1_555 1_555
H49 C49 1_555 1_555
C50 C45 1_555 1_555
H50 C50 1_555 1_555
F2 C48 1_555 1_555
C51 C42 1_555 1_555
C52 C51 1_555 1_555
H51 C52 1_555 1_555
C53 C52 1_555 1_555
H52 C53 1_555 1_555
C54 C53 1_555 1_555
H53 C54 1_555 1_555
C55 C54 1_555 1_555
H54 C55 1_555 1_555
C56 C51 1_555 1_555
H55 C56 1_555 1_555
C57 C43 1_555 1_555
O10 C57 1_555 1_555
N4 C57 1_555 1_555
H56 N4 1_555 1_555
C58 N4 1_555 1_555
C59 C58 1_555 1_555
H57 C59 1_555 1_555
C60 C59 1_555 1_555
H58 C60 1_555 1_555
C61 C60 1_555 1_555
H59 C61 1_555 1_555
C62 C61 1_555 1_555
H60 C62 1_555 1_555
C63 C58 1_555 1_555
H61 C63 1_555 1_555
C64 C44 1_555 1_555
H62 C64 1_555 1_555
C65 C64 1_555 1_555
H63 C65 1_555 1_555
H64 C65 1_555 1_555
H65 C65 1_555 1_555
C66 C64 1_555 1_555
H66 C66 1_555 1_555
H67 C66 1_555 1_555
H68 C66 1_555 1_555
O11 Ca1 1_555 1_555
H69 O11 1_555 1_555
C67 O11 1_555 1_555
H70 C67 1_555 1_555
H71 C67 1_555 1_555
C68 C67 1_555 1_555
H72 C68 1_555 1_555
H73 C68 1_555 1_555
O12 Ca1 1_555 1_555
H74 O12 1_555 1_555
O13 Ca1 1_555 1_555
H75 O13 1_555 1_555
C69 O13 1_555 1_555
H76 C69 1_555 1_555
H77 C69 1_555 1_555
C70 C69 1_555 1_555
H78 C70 1_555 1_555
H79 C70 1_555 1_555
O14 Ca1 1_555 1_555
H80 O14 1_555 1_555
Ca2 O6 1_555 1_555
O15 Ca2 1_555 1_555
C71 O15 1_555 1_555
O16 C71 1_555 1_555
C72 C71 1_555 1_555
H81 C72 1_555 1_555
H82 C72 1_555 1_555
C73 C72 1_555 1_555
H83 C73 1_555 1_555
O17 C73 1_555 1_555
H84 O17 1_555 1_555
C74 C73 1_555 1_555
H85 C74 1_555 1_555
H86 C74 1_555 1_555
C75 C74 1_555 1_555
H87 C75 1_555 1_555
O18 C75 1_555 1_555
H88 O18 1_555 1_555
C76 C75 1_555 1_555
H89 C76 1_555 1_555
H90 C76 1_555 1_555
C77 C76 1_555 1_555
H91 C77 1_555 1_555
H92 C77 1_555 1_555
N5 C77 1_555 1_555
C78 N5 1_555 1_555
C79 C78 1_555 1_555
C80 C79 1_555 1_555
C81 N5 1_555 1_555
C82 C78 1_555 1_555
C83 C82 1_555 1_555
H93 C83 1_555 1_555
C84 C83 1_555 1_555
H94 C84 1_555 1_555
C85 C84 1_555 1_555
C86 C85 1_555 1_555
H95 C86 1_555 1_555
C87 C82 1_555 1_555
H96 C87 1_555 1_555
F3 C85 1_555 1_555
C88 C79 1_555 1_555
C89 C88 1_555 1_555
H97 C89 1_555 1_555
C90 C89 1_555 1_555
H98 C90 1_555 1_555
C91 C90 1_555 1_555
H99 C91 1_555 1_555
C92 C91 1_555 1_555
H100 C92 1_555 1_555
C93 C88 1_555 1_555
H101 C93 1_555 1_555
C94 C80 1_555 1_555
O19 C94 1_555 1_555
N6 C94 1_555 1_555
H102 N6 1_555 1_555
C95 N6 1_555 1_555
C96 C95 1_555 1_555
H103 C96 1_555 1_555
C97 C96 1_555 1_555
H104 C97 1_555 1_555
C98 C97 1_555 1_555
H105 C98 1_555 1_555
C99 C98 1_555 1_555
H106 C99 1_555 1_555
C100 C95 1_555 1_555
H107 C100 1_555 1_555
C101 C81 1_555 1_555
H108 C101 1_555 1_555
C102 C101 1_555 1_555
H109 C102 1_555 1_555
H110 C102 1_555 1_555
H111 C102 1_555 1_555
C103 C101 1_555 1_555
H112 C103 1_555 1_555
H113 C103 1_555 1_555
H114 C103 1_555 1_555
O20 Ca1 1_555 1_555
C104 O20 1_555 1_555
O21 C104 1_555 1_555
C105 C104 1_555 1_555
H115 C105 1_555 1_555
H116 C105 1_555 1_555
C106 C105 1_555 1_555
H117 C106 1_555 1_555
O22 Ca2 1_555 1_555
H118 O22 1_555 1_555
C107 C106 1_555 1_555
H119 C107 1_555 1_555
H120 C107 1_555 1_555
C108 C107 1_555 1_555
H121 C108 1_555 1_555
O23 C108 1_555 1_555
H122 O23 1_555 1_555
C109 C108 1_555 1_555
H123 C109 1_555 1_555
H124 C109 1_555 1_555
C110 C109 1_555 1_555
H125 C110 1_555 1_555
H126 C110 1_555 1_555
N7 C110 1_555 1_555
C111 N7 1_555 1_555
C112 C111 1_555 1_555
C113 C112 1_555 1_555
C114 N7 1_555 1_555
C115 C111 1_555 1_555
C116 C115 1_555 1_555
H127 C116 1_555 1_555
C117 C116 1_555 1_555
H128 C117 1_555 1_555
C118 C117 1_555 1_555
C119 C118 1_555 1_555
H129 C119 1_555 1_555
C120 C115 1_555 1_555
H130 C120 1_555 1_555
F4 C118 1_555 1_555
C121 C112 1_555 1_555
C122 C121 1_555 1_555
H131 C122 1_555 1_555
C123 C122 1_555 1_555
H132 C123 1_555 1_555
C124 C123 1_555 1_555
H133 C124 1_555 1_555
C125 C124 1_555 1_555
H134 C125 1_555 1_555
C126 C121 1_555 1_555
H135 C126 1_555 1_555
C127 C113 1_555 1_555
O24 C127 1_555 1_555
N8 C127 1_555 1_555
H136 N8 1_555 1_555
C128 N8 1_555 1_555
C129 C128 1_555 1_555
H137 C129 1_555 1_555
C130 C129 1_555 1_555
H138 C130 1_555 1_555
C131 C130 1_555 1_555
H139 C131 1_555 1_555
C132 C131 1_555 1_555
H140 C132 1_555 1_555
C133 C128 1_555 1_555
H141 C133 1_555 1_555
C134 C114 1_555 1_555
H142 C134 1_555 1_555
C135 C134 1_555 1_555
H143 C135 1_555 1_555
H144 C135 1_555 1_555
H145 C135 1_555 1_555
C136 C134 1_555 1_555
H146 C136 1_555 1_555
H147 C136 1_555 1_555
H148 C136 1_555 1_555
O25 Ca2 1_555 1_555
H149 O25 1_555 1_555
C137 O25 1_555 1_555
H150 C137 1_555 1_555
H151 C137 1_555 1_555
C138 C137 1_555 1_555
H152 C138 1_555 1_555
H153 C138 1_555 1_555
O26 Ca2 1_555 1_555
H154 O26 1_555 1_555
O27 Ca2 1_555 1_555
H155 O27 1_555 1_555
C139 O27 1_555 1_555
H156 C139 1_555 1_555
H157 C139 1_555 1_555
C140 C139 1_555 1_555
H158 C140 1_555 1_555
H159 C140 1_555 1_555
O28 Ca2 1_555 1_555
H160 O28 1_555 1_555
C10 C11 1_555 1_555
C16 C17 1_555 1_555
C22 C23 1_555 1_555
C29 C30 1_555 1_555
C36 O8 1_555 1_555
C43 C44 1_555 1_555
C49 C50 1_555 1_555
C55 C56 1_555 1_555
C62 C63 1_555 1_555
C68 O12 1_555 1_555
C70 O14 1_555 1_555
Ca2 O20 1_555 1_555
C80 C81 1_555 1_555
C86 C87 1_555 1_555
C92 C93 1_555 1_555
C99 C100 1_555 1_555
C106 O22 1_555 1_555
C113 C114 1_555 1_555
C119 C120 1_555 1_555
C125 C126 1_555 1_555
C132 C133 1_555 1_555
C138 O26 1_555 1_555
C140 O28 1_555 1_555

#END
