
#######################################################################
#
#                 Cambridge Crystallographic Data Centre
#                                CCDC 
#
#######################################################################
#
# If this CIF has been generated from an entry in the Cambridge 
# Structural Database, then it will include bibliographic, chemical, 
# crystal, experimental, refinement or atomic coordinate data resulting 
# from the CCDC's data processing and validation procedures.
#
#######################################################################

data_IZOWAX
_chemical_formula_moiety         'C12 H21 F3 N3 O2 P1'
_chemical_name_systematic        
N-(bis(piperidin-1-yl)phosphoryl)-2,2,2-trifluoroacetamide
_symmetry_cell_setting           monoclinic
_symmetry_space_group_name_H-M   'P 21/c'
_symmetry_Int_Tables_number      14
_space_group_name_Hall           '-P 2ybc'
loop_
_symmetry_equiv_pos_site_id
_symmetry_equiv_pos_as_xyz
1 x,y,z
2 -x,1/2+y,1/2-z
3 -x,-y,-z
4 x,1/2-y,1/2+z
_cell_length_a                   8.0441(4)
_cell_length_b                   19.2436(10)
_cell_length_c                   10.0637(5)
_cell_angle_alpha                90
_cell_angle_beta                 110.910(2)
_cell_angle_gamma                90
_cell_volume                     1455.24
_exptl_crystal_colour            colorless
_exptl_crystal_description       block
_cell_formula_units_Z            4
loop_
_atom_site_label
_atom_site_type_symbol
_atom_site_fract_x
_atom_site_fract_y
_atom_site_fract_z
P1 P 0.53725(6) 0.28396(2) 0.24676(5)
F1 F 0.34260(15) 0.04636(6) 0.32228(12)
F2 F 0.61309(16) 0.04493(6) 0.32763(13)
F3 F 0.55104(15) 0.09361(6) 0.49672(11)
O1 O 0.37087(19) 0.14602(7) 0.14228(14)
O2 O 0.59300(16) 0.26989(7) 0.12454(13)
N1 N 0.5386(2) 0.20858(8) 0.33791(16)
H1 H 0.565(3) 0.2096(11) 0.4274(17)
N2 N 0.34036(19) 0.31919(8) 0.19965(15)
N3 N 0.66365(19) 0.33281(8) 0.37722(16)
C1 C 0.4914(2) 0.08387(10) 0.3565(2)
C2 C 0.4590(2) 0.15078(10) 0.26794(19)
C3 C 0.2140(2) 0.31837(10) 0.05260(19)
H2 H 0.1328 0.2781 0.0388
H3 H 0.2795 0.3133 -0.0135
C4 C 0.1062(3) 0.38522(12) 0.0194(2)
H4 H 0.0141 0.3819 -0.0770
H5 H 0.1856 0.4246 0.0197
C5 C 0.0165(3) 0.39923(11) 0.1275(2)
H6 H -0.0428 0.4452 0.1084
H7 H -0.0752 0.3634 0.1183
C6 C 0.1546(2) 0.39798(10) 0.2778(2)
H8 H 0.2390 0.4370 0.2897
H9 H 0.0945 0.4042 0.3474
C7 C 0.2557(2) 0.32982(10) 0.30630(19)
H10 H 0.3478 0.3305 0.4029
H11 H 0.1729 0.2910 0.3016
C8 C 0.6647(2) 0.40823(10) 0.35036(19)
H12 H 0.5457 0.4230 0.2851
H13 H 0.7520 0.4186 0.3043
C9 C 0.7135(2) 0.44815(10) 0.48952(19)
H14 H 0.6218 0.4402 0.5323
H15 H 0.7170 0.4985 0.4708
C10 C 0.8948(2) 0.42467(10) 0.5933(2)
H16 H 0.9888 0.4382 0.5562
H17 H 0.9200 0.4479 0.6862
C11 C 0.8971(2) 0.34620(10) 0.6132(2)
H18 H 1.0187 0.3313 0.6728
H19 H 0.8160 0.3336 0.6637
C12 C 0.8401(2) 0.30817(10) 0.47154(19)
H20 H 0.9286 0.3163 0.4256
H21 H 0.8351 0.2576 0.4877
loop_
_geom_bond_atom_site_label_1
_geom_bond_atom_site_label_2
_geom_bond_site_symmetry_1
_geom_bond_site_symmetry_2
P1 O2 1_555 1_555
F1 C1 1_555 1_555
F2 C1 1_555 1_555
F3 C1 1_555 1_555
O1 C2 1_555 1_555
N1 P1 1_555 1_555
H1 N1 1_555 1_555
N2 P1 1_555 1_555
N3 P1 1_555 1_555
C1 C2 1_555 1_555
C2 N1 1_555 1_555
C3 N2 1_555 1_555
H2 C3 1_555 1_555
H3 C3 1_555 1_555
C4 C3 1_555 1_555
H4 C4 1_555 1_555
H5 C4 1_555 1_555
C5 C4 1_555 1_555
H6 C5 1_555 1_555
H7 C5 1_555 1_555
C6 C5 1_555 1_555
H8 C6 1_555 1_555
H9 C6 1_555 1_555
C7 N2 1_555 1_555
H10 C7 1_555 1_555
H11 C7 1_555 1_555
C8 N3 1_555 1_555
H12 C8 1_555 1_555
H13 C8 1_555 1_555
C9 C8 1_555 1_555
H14 C9 1_555 1_555
H15 C9 1_555 1_555
C10 C9 1_555 1_555
H16 C10 1_555 1_555
H17 C10 1_555 1_555
C11 C10 1_555 1_555
H18 C11 1_555 1_555
H19 C11 1_555 1_555
C12 N3 1_555 1_555
H20 C12 1_555 1_555
H21 C12 1_555 1_555
C6 C7 1_555 1_555
C11 C12 1_555 1_555

#END
