
#######################################################################
#
#                 Cambridge Crystallographic Data Centre
#                                CCDC 
#
#######################################################################
#
# If this CIF has been generated from an entry in the Cambridge 
# Structural Database, then it will include bibliographic, chemical, 
# crystal, experimental, refinement or atomic coordinate data resulting 
# from the CCDC's data processing and validation procedures.
#
#######################################################################

data_IZOXEB
_chemical_name_common            'Dalesconol C methanol solvate pentahydrate'
_chemical_formula_moiety         'C29 H18 O8,2(C1 H4 O1),5(H2 O1)'
_chemical_name_systematic        
"4,6,8,10,15-Pentahydroxy-12a,13-dihydrobenzo-[3,4]naphtho[1',2':1,7]cyclohepta[1,2-a]acenaphthylene-3,11,14(12H)-trione methanol solvate pentahydrate"
_symmetry_cell_setting           monoclinic
_symmetry_space_group_name_H-M   'P 21/n'
_symmetry_Int_Tables_number      14
_space_group_name_Hall           '-P 2yn'
loop_
_symmetry_equiv_pos_site_id
_symmetry_equiv_pos_as_xyz
1 x,y,z
2 1/2-x,1/2+y,1/2-z
3 -x,-y,-z
4 1/2+x,1/2-y,1/2+z
_cell_length_a                   8.4958(16)
_cell_length_b                   23.176(4)
_cell_length_c                   13.392(2)
_cell_angle_alpha                90
_cell_angle_beta                 90.987(4)
_cell_angle_gamma                90
_cell_volume                     2636.48
_chemical_melting_point          306-308deg.C
_cell_formula_units_Z            2
loop_
_atom_site_label
_atom_site_type_symbol
_atom_site_fract_x
_atom_site_fract_y
_atom_site_fract_z
C1 C 0.9777(3) 0.10076(12) 0.4598(2)
C2 C 0.9354(3) 0.10404(12) 0.3599(2)
C3 C 1.0215(4) 0.07101(13) 0.2940(2)
C4 C 1.1455(3) 0.03605(12) 0.3303(2)
H1 H 1.2024 0.0137 0.2859
C5 C 1.1833(4) 0.03469(13) 0.4302(3)
C6 C 1.0994(3) 0.06710(12) 0.4993(2)
C7 C 1.1302(4) 0.06936(13) 0.6046(2)
C8 C 1.0291(4) 0.10585(12) 0.6643(2)
H2 H 1.0456 0.1065 0.7331
C9 C 0.9135(3) 0.13854(12) 0.6252(2)
H3 H 0.8524 0.1612 0.6668
C10 C 0.8834(3) 0.13866(12) 0.5187(2)
C11 C 0.7815(3) 0.16862(12) 0.4570(2)
C12 C 0.7951(3) 0.14487(12) 0.3491(2)
C13 C 0.6433(4) 0.10967(12) 0.3233(2)
H4 H 0.6573 0.0714 0.3532
C14 C 0.4939(3) 0.13583(13) 0.3687(2)
H5 H 0.4032 0.1164 0.3394
H6 H 0.4952 0.1273 0.4397
C15 C 0.4712(4) 0.19945(14) 0.3559(2)
C16 C 0.5578(3) 0.23847(13) 0.4232(2)
C17 C 0.6908(3) 0.22018(12) 0.4804(2)
C18 C 0.7493(3) 0.25649(13) 0.5541(2)
H7 H 0.8383 0.2454 0.5907
C19 C 0.6790(4) 0.30893(13) 0.5749(2)
H8 H 0.7167 0.3314 0.6277
C20 C 0.5545(4) 0.32760(13) 0.5182(2)
H9 H 0.5087 0.3632 0.5315
C21 C 0.4958(3) 0.29367(14) 0.4407(2)
C22 C 0.6236(4) 0.10054(13) 0.2107(2)
H10 H 0.7037 0.0738 0.1888
H11 H 0.5218 0.0829 0.1974
C23 C 0.6351(4) 0.15454(14) 0.1509(2)
C24 C 0.7363(3) 0.19974(12) 0.1860(2)
C25 C 0.7599(3) 0.24942(14) 0.1271(2)
C26 C 0.8677(4) 0.29057(13) 0.1545(2)
H12 H 0.8785 0.3239 0.1166
C27 C 0.9609(4) 0.28210(13) 0.2392(2)
C28 C 0.9376(3) 0.23392(12) 0.2999(2)
H13 H 0.9994 0.2290 0.3573
C29 C 0.8241(3) 0.19386(12) 0.2758(2)
O1 O 0.9843(3) 0.07206(10) 0.19539(15)
H20 H 1.0432 0.0504 0.1654
O2 O 1.3054(3) 0.00078(10) 0.46234(16)
H21 H 1.3206 0.0058 0.5223
O3 O 1.2412(2) 0.04025(9) 0.64341(15)
O4 O 0.3710(3) 0.21762(9) 0.29548(17)
O5 O 0.3749(3) 0.31604(9) 0.38716(18)
H22 H 0.3411 0.2917 0.3478
O6 O 0.5608(2) 0.15791(9) 0.06986(16)
O7 O 0.6784(3) 0.25842(9) 0.04123(16)
H23 H 0.6284 0.2293 0.0265
O8 O 1.0757(3) 0.31920(9) 0.26754(17)
H24 H 1.0687 0.3488 0.2341
C30 C 0.8098(5) 0.04399(18) 0.9232(3)
H14 H 0.7842 0.0512 0.9916
H15 H 0.7317 0.0614 0.8802
H16 H 0.9112 0.0602 0.9095
O9 O 0.8131(4) -0.01416(12) 0.9065(2)
H25 H 0.7486 -0.0301 0.9420
C31 C 0.3392(6) 0.0761(2) 0.8834(3)
H17 H 0.3094 0.1156 0.8723
H18 H 0.2507 0.0514 0.8692
H19 H 0.4241 0.0662 0.8402
O10 O 0.3876(4) 0.06888(12) 0.9828(2)
H26 H 0.4336 0.0980 1.0022
O11 O 0.0500(4) 0.41733(12) 0.1596(3)
H27 H 0.107(3) 0.4395(15) 0.125(3)
H28 H -0.0451(17) 0.429(2) 0.156(5)
loop_
_geom_bond_atom_site_label_1
_geom_bond_atom_site_label_2
_geom_bond_site_symmetry_1
_geom_bond_site_symmetry_2
C1 C2 1_555 1_555
C2 C3 1_555 1_555
C3 C4 1_555 1_555
C4 H1 1_555 1_555
C5 C4 1_555 1_555
C6 C1 1_555 1_555
C7 C6 1_555 1_555
C8 C7 1_555 1_555
H2 C8 1_555 1_555
C9 C8 1_555 1_555
H3 C9 1_555 1_555
C10 C1 1_555 1_555
C11 C10 1_555 1_555
C12 C2 1_555 1_555
C13 C12 1_555 1_555
H4 C13 1_555 1_555
C14 C13 1_555 1_555
H5 C14 1_555 1_555
H6 C14 1_555 1_555
C15 C14 1_555 1_555
C16 C15 1_555 1_555
C17 C11 1_555 1_555
C18 C17 1_555 1_555
H7 C18 1_555 1_555
C19 C18 1_555 1_555
H8 C19 1_555 1_555
C20 C19 1_555 1_555
H9 C20 1_555 1_555
C21 C16 1_555 1_555
C22 C13 1_555 1_555
H10 C22 1_555 1_555
H11 C22 1_555 1_555
C23 C22 1_555 1_555
C24 C23 1_555 1_555
C25 C24 1_555 1_555
C26 C25 1_555 1_555
H12 C26 1_555 1_555
C27 C26 1_555 1_555
C28 C27 1_555 1_555
H13 C28 1_555 1_555
C29 C12 1_555 1_555
C30 H14 1_555 1_555
H15 C30 1_555 1_555
H16 C30 1_555 1_555
C31 H17 1_555 1_555
H18 C31 1_555 1_555
H19 C31 1_555 1_555
O1 C3 1_555 1_555
H20 O1 1_555 1_555
O2 C5 1_555 1_555
H21 O2 1_555 1_555
O3 C7 1_555 1_555
O4 C15 1_555 1_555
O5 C21 1_555 1_555
H22 O5 1_555 1_555
O6 C23 1_555 1_555
O7 C25 1_555 1_555
H23 O7 1_555 1_555
O8 C27 1_555 1_555
H24 O8 1_555 1_555
O9 C30 1_555 1_555
H25 O9 1_555 1_555
O10 C31 1_555 1_555
H26 O10 1_555 1_555
O11 H27 1_555 1_555
H28 O11 1_555 1_555
C5 C6 1_555 1_555
C9 C10 1_555 1_555
C11 C12 1_555 1_555
C16 C17 1_555 1_555
C20 C21 1_555 1_555
C24 C29 1_555 1_555
C28 C29 1_555 1_555

#END
