
#######################################################################
#
#                 Cambridge Crystallographic Data Centre
#                                CCDC 
#
#######################################################################
#
# If this CIF has been generated from an entry in the Cambridge 
# Structural Database, then it will include bibliographic, chemical, 
# crystal, experimental, refinement or atomic coordinate data resulting 
# from the CCDC's data processing and validation procedures.
#
#######################################################################

data_IZUGIV
_chemical_formula_moiety         'C43 H43 N1 Si1,0.5(C1 H2 Cl2)'
_chemical_name_systematic        
'N,N-dimethyl-4-((13-((triisopropylsilyl)ethynyl)pentacen-6-yl)ethynyl)aniline dichloromethane solvate'
_symmetry_cell_setting           monoclinic
_symmetry_space_group_name_H-M   'P 21/c'
_symmetry_Int_Tables_number      14
_space_group_name_Hall           '-P 2ybc'
loop_
_symmetry_equiv_pos_site_id
_symmetry_equiv_pos_as_xyz
1 x,y,z
2 -x,1/2+y,1/2-z
3 -x,-y,-z
4 x,1/2-y,1/2+z
_cell_length_a                   9.2434(3)
_cell_length_b                   26.2155(8)
_cell_length_c                   14.8529(5)
_cell_angle_alpha                90
_cell_angle_beta                 91.4551(4)
_cell_angle_gamma                90
_cell_volume                     3598
_exptl_crystal_colour            blue
_exptl_crystal_description       prism
_cell_formula_units_Z            4
loop_
_atom_site_label
_atom_site_type_symbol
_atom_site_fract_x
_atom_site_fract_y
_atom_site_fract_z
Si1 Si 0.31600(5) 0.394198(17) 0.48034(3)
N1 N -0.09184(16) -0.17049(6) 0.28557(11)
C1 C 0.23823(17) 0.22805(6) 0.43038(10)
C2 C 0.34125(17) 0.19480(6) 0.39171(10)
C3 C 0.47536(18) 0.21270(6) 0.36131(11)
H1 H 0.4966 0.2481 0.3655
C4 C 0.57718(18) 0.18017(6) 0.32544(11)
C5 C 0.71446(19) 0.19780(7) 0.29547(12)
H2 H 0.7366 0.2332 0.2985
C6 C 0.81337(19) 0.16492(7) 0.26287(12)
H3 H 0.9037 0.1775 0.2433
C7 C 0.7832(2) 0.11173(7) 0.25769(13)
H4 H 0.8540 0.0891 0.2352
C8 C 0.65445(19) 0.09308(7) 0.28460(12)
H5 H 0.6357 0.0575 0.2804
C9 C 0.54625(18) 0.12639(6) 0.31934(11)
C10 C 0.41363(17) 0.10865(6) 0.34736(11)
H6 H 0.3930 0.0732 0.3424
C11 C 0.30849(17) 0.14120(6) 0.38291(10)
C12 C 0.17112(17) 0.12250(6) 0.40860(10)
C13 C 0.06798(17) 0.15590(6) 0.44697(10)
C14 C -0.06676(18) 0.13790(7) 0.47496(11)
H7 H -0.0889 0.1027 0.4682
C15 C -0.16806(18) 0.16991(7) 0.51205(11)
C16 C -0.30537(19) 0.15158(8) 0.54104(12)
H8 H -0.3283 0.1164 0.5352
C17 C -0.4028(2) 0.18391(9) 0.57669(14)
H9 H -0.4934 0.1711 0.5954
C18 C -0.3713(2) 0.23659(9) 0.58644(14)
H10 H -0.4411 0.2587 0.6113
C19 C -0.2425(2) 0.25565(8) 0.56067(13)
H11 H -0.2229 0.2910 0.5682
C20 C -0.13546(18) 0.22317(7) 0.52219(11)
C21 C -0.00240(18) 0.24141(7) 0.49565(11)
H12 H 0.0190 0.2766 0.5032
C22 C 0.10203(17) 0.20925(6) 0.45784(10)
C23 C 0.27091(17) 0.28097(6) 0.44252(11)
C24 C 0.29346(18) 0.32576(6) 0.45521(11)
C25 C 0.29163(19) 0.40176(7) 0.60536(11)
H13 H 0.3804 0.3872 0.6353
C26 C 0.1631(2) 0.37207(10) 0.64246(14)
H14 H 0.1592 0.3772 0.7077
H15 H 0.1749 0.3357 0.6296
H16 H 0.0731 0.3844 0.6137
C27 C 0.2851(3) 0.45766(8) 0.63413(14)
H17 H 0.2742 0.4596 0.6995
H18 H 0.2024 0.4743 0.6038
H19 H 0.3747 0.4749 0.6176
C28 C 0.1794(2) 0.42862(7) 0.40674(12)
H20 H 0.1876 0.4134 0.3453
C29 C 0.0233(2) 0.41926(9) 0.43429(15)
H21 H -0.0428 0.4381 0.3938
H22 H 0.0111 0.4310 0.4963
H23 H 0.0018 0.3827 0.4304
C30 C 0.2079(3) 0.48594(8) 0.39556(16)
H24 H 0.1337 0.5007 0.3551
H25 H 0.3035 0.4910 0.3700
H26 H 0.2047 0.5027 0.4544
C31 C 0.50459(19) 0.41301(7) 0.44917(13)
H27 H 0.5163 0.4501 0.4629
C32 C 0.5292(3) 0.40579(10) 0.34821(16)
H28 H 0.6266 0.4175 0.3339
H29 H 0.4574 0.4257 0.3135
H30 H 0.5192 0.3696 0.3327
C33 C 0.6196(2) 0.38420(10) 0.5044(2)
H31 H 0.7159 0.3964 0.4885
H32 H 0.6120 0.3476 0.4915
H33 H 0.6049 0.3901 0.5687
C34 C 0.13384(17) 0.07066(6) 0.39250(11)
C35 C 0.09664(18) 0.02780(6) 0.37467(11)
C36 C 0.04951(17) -0.02252(6) 0.35263(11)
C37 C 0.14109(18) -0.05757(6) 0.31164(11)
H34 H 0.2372 -0.0477 0.2987
C38 C 0.09530(17) -0.10596(6) 0.28972(11)
H35 H 0.1604 -0.1288 0.2620
C39 C -0.04601(17) -0.12234(6) 0.30744(11)
C40 C -0.13865(17) -0.08695(6) 0.34843(11)
H36 H -0.2350 -0.0966 0.3613
C41 C -0.09142(18) -0.03863(6) 0.37007(11)
H37 H -0.1561 -0.0156 0.3976
C42 C 0.0047(2) -0.20633(7) 0.24383(14)
H38 H 0.0371 -0.1923 0.1866
H39 H -0.0464 -0.2386 0.2326
H40 H 0.0887 -0.2124 0.2839
C43 C -0.2358(2) -0.18770(7) 0.30720(14)
H41 H -0.3079 -0.1658 0.2770
H42 H -0.2479 -0.1860 0.3725
H43 H -0.2491 -0.2230 0.2868
Cl1? Cl 0.48211(7) 0.46944(2) 0.08224(5)
C44? C 0.4117(4) 0.51156(18) 0.0082(3)
H44? H 0.3852 0.5426 0.0420
H45? H 0.3208 0.4969 -0.0172
loop_
_geom_bond_atom_site_label_1
_geom_bond_atom_site_label_2
_geom_bond_site_symmetry_1
_geom_bond_site_symmetry_2
Si1 C24 1_555 1_555
N1 C39 1_555 1_555
C1 C2 1_555 1_555
C2 C3 1_555 1_555
C3 H1 1_555 1_555
C4 C3 1_555 1_555
C5 C4 1_555 1_555
H2 C5 1_555 1_555
C6 C5 1_555 1_555
H3 C6 1_555 1_555
C7 C6 1_555 1_555
H4 C7 1_555 1_555
C8 C7 1_555 1_555
H5 C8 1_555 1_555
C9 C4 1_555 1_555
C10 C9 1_555 1_555
H6 C10 1_555 1_555
C11 C2 1_555 1_555
C12 C11 1_555 1_555
C13 C12 1_555 1_555
C14 C13 1_555 1_555
H7 C14 1_555 1_555
C15 C14 1_555 1_555
C16 C15 1_555 1_555
H8 C16 1_555 1_555
C17 C16 1_555 1_555
H9 C17 1_555 1_555
C18 C17 1_555 1_555
H10 C18 1_555 1_555
C19 C18 1_555 1_555
H11 C19 1_555 1_555
C20 C15 1_555 1_555
C21 C20 1_555 1_555
H12 C21 1_555 1_555
C22 C1 1_555 1_555
C23 C1 1_555 1_555
C24 C23 1_555 1_555
C25 Si1 1_555 1_555
H13 C25 1_555 1_555
C26 C25 1_555 1_555
H14 C26 1_555 1_555
H15 C26 1_555 1_555
H16 C26 1_555 1_555
C27 C25 1_555 1_555
H17 C27 1_555 1_555
H18 C27 1_555 1_555
H19 C27 1_555 1_555
C28 Si1 1_555 1_555
H20 C28 1_555 1_555
C29 C28 1_555 1_555
H21 C29 1_555 1_555
H22 C29 1_555 1_555
H23 C29 1_555 1_555
C30 C28 1_555 1_555
H24 C30 1_555 1_555
H25 C30 1_555 1_555
H26 C30 1_555 1_555
C31 Si1 1_555 1_555
H27 C31 1_555 1_555
C32 C31 1_555 1_555
H28 C32 1_555 1_555
H29 C32 1_555 1_555
H30 C32 1_555 1_555
C33 C31 1_555 1_555
H31 C33 1_555 1_555
H32 C33 1_555 1_555
H33 C33 1_555 1_555
C34 C12 1_555 1_555
C35 C34 1_555 1_555
C36 C35 1_555 1_555
C37 C36 1_555 1_555
H34 C37 1_555 1_555
C38 C37 1_555 1_555
H35 C38 1_555 1_555
C39 C38 1_555 1_555
C40 C39 1_555 1_555
H36 C40 1_555 1_555
C41 C36 1_555 1_555
H37 C41 1_555 1_555
C42 N1 1_555 1_555
H38 C42 1_555 1_555
H39 C42 1_555 1_555
H40 C42 1_555 1_555
C43 N1 1_555 1_555
H41 C43 1_555 1_555
H42 C43 1_555 1_555
H43 C43 1_555 1_555
C8 C9 1_555 1_555
C10 C11 1_555 1_555
C13 C22 1_555 1_555
C19 C20 1_555 1_555
C21 C22 1_555 1_555
C40 C41 1_555 1_555

#END
