
#######################################################################
#
#                 Cambridge Crystallographic Data Centre
#                                CCDC 
#
#######################################################################
#
# If this CIF has been generated from an entry in the Cambridge 
# Structural Database, then it will include bibliographic, chemical, 
# crystal, experimental, refinement or atomic coordinate data resulting 
# from the CCDC's data processing and validation procedures.
#
#######################################################################

data_IZUYIL
_chemical_formula_moiety         'C24 H22 O4 S1'
_chemical_name_systematic        
'(E)-Ethyl 3-(p-tolylsulfonyl)-3-((4-phenyl)phenyl)-2-propenoate'
_symmetry_cell_setting           monoclinic
_symmetry_space_group_name_H-M   'P 21/c'
_symmetry_Int_Tables_number      14
_space_group_name_Hall           '-P 2ybc'
loop_
_symmetry_equiv_pos_site_id
_symmetry_equiv_pos_as_xyz
1 x,y,z
2 x,1/2-y,1/2+z
3 -x,-y,-z
4 -x,1/2+y,1/2-z
_cell_length_a                   8.7526(18)
_cell_length_b                   15.231(3)
_cell_length_c                   16.387(3)
_cell_angle_alpha                90
_cell_angle_beta                 102.64(3)
_cell_angle_gamma                90
_cell_volume                     2131.62
_exptl_crystal_colour            colorless
_exptl_crystal_description       Block
_cell_formula_units_Z            4
loop_
_atom_site_label
_atom_site_type_symbol
_atom_site_fract_x
_atom_site_fract_y
_atom_site_fract_z
S1 S 0.53106(6) 0.92420(3) 0.23828(3)
O1 O 0.64998(16) 0.90947(9) 0.19165(9)
O2 O 0.37427(16) 0.94468(9) 0.19380(9)
O3 O 0.90395(17) 1.05822(11) 0.22818(10)
O4 O 0.94752(18) 0.94379(11) 0.31549(11)
C1 C 0.5229(2) 0.83170(12) 0.30136(12)
C2 C 0.6616(3) 0.79569(14) 0.34609(14)
H1 H 0.7574 0.8204 0.3432
C3 C 0.6552(3) 0.72298(15) 0.39472(15)
H2 H 0.7481 0.6995 0.4256
C4 C 0.5145(3) 0.68336(15) 0.39933(14)
C5 C 0.3782(3) 0.72028(15) 0.35374(14)
H3 H 0.2827 0.6944 0.3553
C6 C 0.3804(3) 0.79468(14) 0.30589(13)
H4 H 0.2873 0.8197 0.2770
C7 C 0.5112(4) 0.60312(17) 0.45298(18)
H5 H 0.6163 0.5873 0.4799
H6 H 0.4630 0.5554 0.4185
H7 H 0.4522 0.6157 0.4946
C8 C 0.5951(2) 1.01250(12) 0.30967(11)
C9 C 0.7403(2) 1.04286(13) 0.32042(12)
H8 H 0.7623 1.0931 0.3531
C10 C 0.8724(2) 1.00691(14) 0.28695(13)
C11 C 1.0376(3) 1.0305(3) 0.19264(19)
H9 H 1.1214 1.0726 0.2087
H10 H 1.0748 0.9741 0.2165
C12 C 1.0159(17) 1.0710(8) 0.1132(8)
H11 H 1.0948 1.0534 0.0837
H12 H 1.0070 1.1322 0.1147
H13 H 0.9134 1.0485 0.0767
C14 C 0.4721(2) 1.05435(12) 0.34652(12)
C15 C 0.4384(2) 1.14281(14) 0.33328(14)
H17 H 0.4980 1.1763 0.3043
C16 C 0.3191(3) 1.18199(13) 0.36193(14)
H18 H 0.2998 1.2415 0.3520
C17 C 0.2262(2) 1.13504(12) 0.40549(11)
C18 C 0.2650(2) 1.04782(12) 0.42282(12)
H19 H 0.2093 1.0154 0.4546
C19 C 0.3850(2) 1.00793(13) 0.39384(13)
H20 H 0.4078 0.9491 0.4062
C20 C 0.0878(2) 1.17532(12) 0.42981(11)
C21 C 0.0101(3) 1.24662(14) 0.38703(13)
H21 H 0.0471 1.2709 0.3430
C22 C -0.1209(3) 1.28236(16) 0.40834(15)
H22 H -0.1707 1.3302 0.3786
C23 C -0.1782(3) 1.24776(17) 0.47312(14)
H23 H -0.2673 1.2714 0.4869
C24 C -0.1019(3) 1.17735(15) 0.51766(14)
H24 H -0.1387 1.1540 0.5622
C25 C 0.0287(2) 1.14180(14) 0.49603(12)
H25 H 0.0786 1.0943 0.5263
C13? C 1.0014(13) 1.0227(8) 0.1081(5)
H14? H 1.0919 1.0050 0.0888
H15? H 0.9658 1.0791 0.0838
H16? H 0.9192 0.9806 0.0917
loop_
_geom_bond_atom_site_label_1
_geom_bond_atom_site_label_2
_geom_bond_site_symmetry_1
_geom_bond_site_symmetry_2
S1 O1 1_555 1_555
O2 S1 1_555 1_555
O3 C10 1_555 1_555
O4 C10 1_555 1_555
C1 S1 1_555 1_555
C2 C1 1_555 1_555
H1 C2 1_555 1_555
C3 C2 1_555 1_555
H2 C3 1_555 1_555
C4 C3 1_555 1_555
C5 C4 1_555 1_555
H3 C5 1_555 1_555
C6 C1 1_555 1_555
H4 C6 1_555 1_555
C7 C4 1_555 1_555
H5 C7 1_555 1_555
H6 C7 1_555 1_555
H7 C7 1_555 1_555
C8 S1 1_555 1_555
C9 C8 1_555 1_555
H8 C9 1_555 1_555
C10 C9 1_555 1_555
C11 O3 1_555 1_555
H9 C11 1_555 1_555
H10 C11 1_555 1_555
C12 C11 1_555 1_555
H11 C12 1_555 1_555
H12 C12 1_555 1_555
H13 C12 1_555 1_555
C14 C8 1_555 1_555
C15 C14 1_555 1_555
H17 C15 1_555 1_555
C16 C15 1_555 1_555
H18 C16 1_555 1_555
C17 C16 1_555 1_555
C18 C17 1_555 1_555
H19 C18 1_555 1_555
C19 C14 1_555 1_555
H20 C19 1_555 1_555
C20 C17 1_555 1_555
C21 C20 1_555 1_555
H21 C21 1_555 1_555
C22 C21 1_555 1_555
H22 C22 1_555 1_555
C23 C22 1_555 1_555
H23 C23 1_555 1_555
C24 C23 1_555 1_555
H24 C24 1_555 1_555
C25 C20 1_555 1_555
H25 C25 1_555 1_555
C5 C6 1_555 1_555
C18 C19 1_555 1_555
C24 C25 1_555 1_555

#END
