
#######################################################################
#
#                 Cambridge Crystallographic Data Centre
#                                CCDC 
#
#######################################################################
#
# If this CIF has been generated from an entry in the Cambridge 
# Structural Database, then it will include bibliographic, chemical, 
# crystal, experimental, refinement or atomic coordinate data resulting 
# from the CCDC's data processing and validation procedures.
#
#######################################################################

data_JABXAO
_chemical_formula_moiety         'C24 H24 N2 O1'
_chemical_name_systematic        
cyclohexyl(1-(1H-indol-3-yl)isoquinolin-2(1H)-yl)methanone
_symmetry_cell_setting           orthorhombic
_symmetry_space_group_name_H-M   'P b c a'
_symmetry_Int_Tables_number      61
_space_group_name_Hall           '-P 2ac 2ab'
loop_
_symmetry_equiv_pos_site_id
_symmetry_equiv_pos_as_xyz
1 x,y,z
2 1/2+x,1/2-y,-z
3 -x,1/2+y,1/2-z
4 1/2-x,-y,1/2+z
5 -x,-y,-z
6 1/2-x,1/2+y,z
7 x,1/2-y,1/2+z
8 1/2+x,y,1/2-z
_cell_length_a                   12.4492(5)
_cell_length_b                   17.2515(6)
_cell_length_c                   17.7680(7)
_cell_angle_alpha                90
_cell_angle_beta                 90
_cell_angle_gamma                90
_cell_volume                     3815.99
_exptl_crystal_colour            colorless
_exptl_crystal_description       Tabular
_cell_formula_units_Z            8
loop_
_atom_site_label
_atom_site_type_symbol
_atom_site_fract_x
_atom_site_fract_y
_atom_site_fract_z
O1 O 0.77694(11) -0.07133(7) 0.63387(7)
N1 N 0.86451(13) 0.02725(8) 0.69202(8)
N2 N 0.75929(13) 0.25909(9) 0.60615(9)
H1 H 0.7586 0.3099 0.6103
C1 C 0.50234(16) 0.17693(11) 0.53903(11)
H2 H 0.4322 0.1899 0.5221
C2 C 0.53314(16) 0.09868(11) 0.54169(11)
H3 H 0.4830 0.0597 0.5277
C3 C 0.63502(16) 0.07735(10) 0.56435(11)
H4 H 0.6553 0.0243 0.5657
C4 C 0.70811(15) 0.13553(10) 0.58535(10)
C5 C 0.81892(15) 0.13596(10) 0.60868(10)
C6 C 0.89028(15) 0.06574(10) 0.61873(10)
H5 H 0.8747 0.0284 0.5771
C7 C 0.80004(16) -0.03748(10) 0.69292(10)
C8 C 0.75752(16) -0.06523(11) 0.76774(11)
H6 H 0.7575 -0.0201 0.8031
C9 C 0.64209(16) -0.09429(12) 0.76074(12)
H7 H 0.6398 -0.1401 0.7272
H8 H 0.5964 -0.0533 0.7385
C10 C 0.59967(18) -0.11608(12) 0.83858(13)
H9 H 0.5971 -0.0692 0.8707
H10 H 0.5256 -0.1365 0.8339
C11 C 0.67083(17) -0.17700(13) 0.87559(12)
H11 H 0.6448 -0.1868 0.9274
H12 H 0.6652 -0.2261 0.8471
C12 C 0.57131(15) 0.23525(11) 0.56037(10)
H13 H 0.5498 0.2881 0.5592
C13 C 0.67411(15) 0.21379(11) 0.58373(10)
C14 C 0.84537(16) 0.21205(11) 0.62098(11)
H14 H 0.9137 0.2297 0.6375
C15 C 0.83023(17) -0.12831(12) 0.80142(11)
H15 H 0.8317 -0.1739 0.7676
H16 H 0.9045 -0.1083 0.8063
C16 C 0.78791(18) -0.15213(14) 0.87867(12)
H17 H 0.8318 -0.1955 0.8983
H18 H 0.7953 -0.1080 0.9139
C17 C 0.90926(16) 0.06209(11) 0.75680(10)
H19 H 0.8754 0.0547 0.8042
C18 C 0.99759(16) 0.10495(11) 0.75285(11)
H20 H 1.0218 0.1320 0.7962
C19 C 1.05800(16) 0.11101(10) 0.68282(11)
C20 C 1.16549(16) 0.13477(11) 0.68035(12)
H21 H 1.1998 0.1528 0.7248
C21 C 1.22174(17) 0.13195(11) 0.61328(12)
H22 H 1.2948 0.1479 0.6121
C22 C 1.17317(17) 0.10621(11) 0.54778(12)
H23 H 1.2130 0.1035 0.5022
C23 C 1.06553(16) 0.08424(10) 0.54914(11)
H24 H 1.0313 0.0676 0.5041
C24 C 1.00823(16) 0.08652(10) 0.61586(11)
loop_
_geom_bond_atom_site_label_1
_geom_bond_atom_site_label_2
_geom_bond_site_symmetry_1
_geom_bond_site_symmetry_2
O1 C7 1_555 1_555
N1 C6 1_555 1_555
N2 H1 1_555 1_555
C1 H2 1_555 1_555
C2 C1 1_555 1_555
H3 C2 1_555 1_555
C3 C2 1_555 1_555
H4 C3 1_555 1_555
C4 C3 1_555 1_555
C5 C4 1_555 1_555
C6 C5 1_555 1_555
H5 C6 1_555 1_555
C7 N1 1_555 1_555
C8 C7 1_555 1_555
H6 C8 1_555 1_555
C9 C8 1_555 1_555
H7 C9 1_555 1_555
H8 C9 1_555 1_555
C10 C9 1_555 1_555
H9 C10 1_555 1_555
H10 C10 1_555 1_555
C11 C10 1_555 1_555
H11 C11 1_555 1_555
H12 C11 1_555 1_555
C12 C1 1_555 1_555
H13 C12 1_555 1_555
C13 N2 1_555 1_555
C14 N2 1_555 1_555
H14 C14 1_555 1_555
C15 C8 1_555 1_555
H15 C15 1_555 1_555
H16 C15 1_555 1_555
C16 C11 1_555 1_555
H17 C16 1_555 1_555
H18 C16 1_555 1_555
C17 N1 1_555 1_555
H19 C17 1_555 1_555
C18 C17 1_555 1_555
H20 C18 1_555 1_555
C19 C18 1_555 1_555
C20 C19 1_555 1_555
H21 C20 1_555 1_555
C21 C20 1_555 1_555
H22 C21 1_555 1_555
C22 C21 1_555 1_555
H23 C22 1_555 1_555
C23 C22 1_555 1_555
H24 C23 1_555 1_555
C24 C6 1_555 1_555
C4 C13 1_555 1_555
C5 C14 1_555 1_555
C12 C13 1_555 1_555
C15 C16 1_555 1_555
C19 C24 1_555 1_555
C23 C24 1_555 1_555

#END
