
#######################################################################
#
#                 Cambridge Crystallographic Data Centre
#                                CCDC 
#
#######################################################################
#
# If this CIF has been generated from an entry in the Cambridge 
# Structural Database, then it will include bibliographic, chemical, 
# crystal, experimental, refinement or atomic coordinate data resulting 
# from the CCDC's data processing and validation procedures.
#
#######################################################################

data_JACGUQ
_chemical_formula_moiety         'C36 H24 N6'
_chemical_name_systematic        
1,4-bis(4-(bis(2-Pyridyl)amino)phenyl)butadiyne
_symmetry_cell_setting           monoclinic
_symmetry_space_group_name_H-M   'P 21/n'
_symmetry_Int_Tables_number      14
_space_group_name_Hall           '-P 2yn'
loop_
_symmetry_equiv_pos_site_id
_symmetry_equiv_pos_as_xyz
1 x,y,z
2 1/2-x,1/2+y,1/2-z
3 -x,-y,-z
4 1/2+x,1/2-y,1/2+z
_cell_length_a                   5.8339(10)
_cell_length_b                   16.952(3)
_cell_length_c                   14.493(3)
_cell_angle_alpha                90
_cell_angle_beta                 99.643(3)
_cell_angle_gamma                90
_cell_volume                     1413.05
_chemical_melting_point          275-280deg.C
_cell_formula_units_Z            2
_exptl_crystal_recrystallization_method 'ethyl acetate/hexanes'
loop_
_atom_site_label
_atom_site_type_symbol
_atom_site_fract_x
_atom_site_fract_y
_atom_site_fract_z
N1 N -1.2096(4) -0.1006(2) 0.4000(2)
N2 N -1.0982(4) -0.3428(2) 0.2617(2)
N3 N -1.1475(4) -0.2184(1) 0.3280(2)
C1 C -1.1794(4) -0.1782(2) 0.4095(2)
C2 C -1.1768(5) -0.2172(2) 0.4940(2)
C3 C -1.2098(7) -0.1744(3) 0.5703(3)
C4 C -1.2449(6) -0.0934(3) 0.5615(3)
C5 C -1.2395(5) -0.0600(2) 0.4772(3)
C6 C -1.2253(5) -0.2969(2) 0.3099(2)
C7 C -1.4210(5) -0.3234(2) 0.3394(2)
C8 C -1.4893(5) -0.3988(2) 0.3213(2)
C9 C -1.3601(6) -0.4472(2) 0.2745(2)
C10 C -1.1709(6) -0.4165(2) 0.2439(2)
C11 C -1.0249(5) -0.1800(2) 0.2631(2)
C12 C -1.1239(5) -0.1738(2) 0.1699(2)
C13 C -1.0080(5) -0.1354(2) 0.1072(2)
C14 C -0.7893(5) -0.1023(2) 0.1376(2)
C15 C -0.6924(5) -0.1101(2) 0.2313(2)
C16 C -0.8079(5) -0.1480(2) 0.2935(2)
C17 C -0.6686(5) -0.0594(2) 0.0755(2)
C18 C -0.5613(5) -0.0220(2) 0.0272(2)
H1 H -1.1531 -0.2714 0.4983
H2 H -1.2088 -0.1991 0.6276
H3 H -1.2714 -0.0631 0.6122
H4 H -1.2575 -0.0056 0.4721
H5 H -1.5067 -0.2901 0.3716
H6 H -1.6234 -0.4177 0.3405
H7 H -1.4007 -0.4999 0.2638
H8 H -1.0883 -0.4486 0.2090
H9 H -1.2697 -0.1955 0.1492
H10 H -1.0760 -0.1317 0.0446
H11 H -0.5458 -0.0890 0.2525
H12 H -0.7399 -0.1521 0.3561
C18B C -0.4387(5) 0.0220(2) -0.0272(2)
C17B C -0.3314(5) 0.0594(2) -0.0755(2)
C14B C -0.2107(5) 0.1023(2) -0.1376(2)
C13B C 0.0080(5) 0.1354(2) -0.1072(2)
C12B C 0.1239(5) 0.1738(2) -0.1699(2)
C11B C 0.0249(5) 0.1800(2) -0.2631(2)
N3B N 0.1475(4) 0.2184(1) -0.3280(2)
C1B C 0.1794(4) 0.1782(2) -0.4095(2)
N1B N 0.2096(4) 0.1006(2) -0.4000(2)
C5B C 0.2395(5) 0.0600(2) -0.4772(3)
C4B C 0.2449(6) 0.0934(3) -0.5615(3)
C3B C 0.2098(7) 0.1744(3) -0.5703(3)
C2B C 0.1768(5) 0.2172(2) -0.4940(2)
H1B H 0.1531 0.2714 -0.4983
H2B H 0.2088 0.1991 -0.6276
H3B H 0.2714 0.0631 -0.6122
H4B H 0.2575 0.0056 -0.4721
C6B C 0.2253(5) 0.2969(2) -0.3099(2)
N2B N 0.0982(4) 0.3428(2) -0.2617(2)
C10B C 0.1709(6) 0.4165(2) -0.2439(2)
C9B C 0.3601(6) 0.4472(2) -0.2745(2)
C8B C 0.4893(5) 0.3988(2) -0.3213(2)
C7B C 0.4210(5) 0.3234(2) -0.3394(2)
H5B H 0.5067 0.2901 -0.3716
H6B H 0.6234 0.4177 -0.3405
H7B H 0.4007 0.4999 -0.2638
H8B H 0.0883 0.4486 -0.2090
C16B C -0.1921(5) 0.1480(2) -0.2935(2)
C15B C -0.3076(5) 0.1101(2) -0.2313(2)
H11B H -0.4542 0.0890 -0.2525
H12B H -0.2601 0.1521 -0.3561
H9B H 0.2697 0.1955 -0.1492
H10B H 0.0760 0.1317 -0.0446
loop_
_geom_bond_atom_site_label_1
_geom_bond_atom_site_label_2
_geom_bond_site_symmetry_1
_geom_bond_site_symmetry_2
N1 C1 1_555 1_555
N2 C6 1_555 1_555
N3 C1 1_555 1_555
C1 C2 1_555 1_555
C2 C3 1_555 1_555
C3 C4 1_555 1_555
C4 C5 1_555 1_555
C5 N1 1_555 1_555
C6 N3 1_555 1_555
C7 C6 1_555 1_555
C8 C7 1_555 1_555
C9 C8 1_555 1_555
C10 N2 1_555 1_555
C11 N3 1_555 1_555
C12 C11 1_555 1_555
C13 C12 1_555 1_555
C14 C13 1_555 1_555
C15 C14 1_555 1_555
C16 C11 1_555 1_555
C17 C14 1_555 1_555
C18 C17 1_555 1_555
H1 C2 1_555 1_555
H2 C3 1_555 1_555
H3 C4 1_555 1_555
H4 C5 1_555 1_555
H5 C7 1_555 1_555
H6 C8 1_555 1_555
H7 C9 1_555 1_555
H8 C10 1_555 1_555
H9 C12 1_555 1_555
H10 C13 1_555 1_555
H11 C15 1_555 1_555
H12 C16 1_555 1_555
C18B C18 1_555 1_555
C17B C18B 1_555 1_555
C14B C17B 1_555 1_555
C13B C14B 1_555 1_555
C12B C13B 1_555 1_555
C11B C12B 1_555 1_555
N3B C11B 1_555 1_555
C1B N3B 1_555 1_555
N1B C1B 1_555 1_555
C5B N1B 1_555 1_555
C4B C5B 1_555 1_555
C3B C4B 1_555 1_555
C2B C1B 1_555 1_555
H1B C2B 1_555 1_555
H2B C3B 1_555 1_555
H3B C4B 1_555 1_555
H4B C5B 1_555 1_555
C6B N3B 1_555 1_555
N2B C6B 1_555 1_555
C10B N2B 1_555 1_555
C9B C10B 1_555 1_555
C8B C9B 1_555 1_555
C7B C6B 1_555 1_555
H5B C7B 1_555 1_555
H6B C8B 1_555 1_555
H7B C9B 1_555 1_555
H8B C10B 1_555 1_555
C16B C11B 1_555 1_555
C15B C14B 1_555 1_555
H11B C15B 1_555 1_555
H12B C16B 1_555 1_555
H9B C12B 1_555 1_555
H10B C13B 1_555 1_555
C9 C10 1_555 1_555
C15 C16 1_555 1_555
C3B C2B 1_555 1_555
C8B C7B 1_555 1_555
C16B C15B 1_555 1_555

#END
