
#######################################################################
#
#                 Cambridge Crystallographic Data Centre
#                                CCDC 
#
#######################################################################
#
# If this CIF has been generated from an entry in the Cambridge 
# Structural Database, then it will include bibliographic, chemical, 
# crystal, experimental, refinement or atomic coordinate data resulting 
# from the CCDC's data processing and validation procedures.
#
#######################################################################

data_JACMUW01
_chemical_formula_moiety         'C27 H54 As1 N3 S6'
_chemical_name_systematic        tris(dibutylcarbamodithioato)-arsenic
_symmetry_cell_setting           triclinic
_symmetry_space_group_name_H-M   'P -1'
_symmetry_Int_Tables_number      2
_space_group_name_Hall           '-P 1'
loop_
_symmetry_equiv_pos_site_id
_symmetry_equiv_pos_as_xyz
1 x,y,z
2 -x,-y,-z
_cell_length_a                   10.750(15)
_cell_length_b                   12.143(16)
_cell_length_c                   16.21(3)
_cell_angle_alpha                69.15(2)
_cell_angle_beta                 75.36(3)
_cell_angle_gamma                88.17(2)
_cell_volume                     1909.3
_exptl_crystal_colour            yellow
_exptl_crystal_description       block
_cell_formula_units_Z            2
loop_
_atom_site_label
_atom_site_type_symbol
_atom_site_fract_x
_atom_site_fract_y
_atom_site_fract_z
As1 As 0.74825(8) 0.65781(7) 0.69008(6)
C1 C 0.9199(7) 0.4695(7) 0.6525(5)
C2 C 0.9904(9) 0.2801(7) 0.6352(6)
H1 H 0.9012 0.2665 0.6369
H2 H 1.0446 0.2604 0.5853
C3 C 1.0168(11) 0.2026(8) 0.7238(7)
H3 H 0.9694 0.2280 0.7726
H4 H 1.1079 0.2102 0.7196
C4 C 0.9776(18) 0.0755(10) 0.7455(10)
H5 H 0.8860 0.0697 0.7504
H6 H 1.0220 0.0535 0.6942
C5 C 1.0017(17) -0.0094(15) 0.8270(12)
H7 H 1.0590 0.0264 0.8484
H8 H 1.0403 -0.0756 0.8138
H9 H 0.9219 -0.0357 0.8732
C6 C 1.1468(8) 0.4591(9) 0.5681(6)
H10 H 1.1443 0.5407 0.5293
H11 H 1.1853 0.4152 0.5294
C7 C 1.2308(9) 0.4523(10) 0.6369(8)
H12 H 1.1874 0.4897 0.6792
H13 H 1.2386 0.3702 0.6721
C8 C 1.3548(14) 0.5081(16) 0.5911(11)
H14 H 1.3461 0.5893 0.5544
H15 H 1.3981 0.4692 0.5498
C9 C 1.4412(10) 0.5074(12) 0.6554(10)
H16 H 1.3988 0.5445 0.6973
H17 H 1.5222 0.5498 0.6195
H18 H 1.4558 0.4274 0.6890
C10 C 0.6419(8) 0.6481(7) 0.8813(6)
C11 C 0.7131(12) 0.5982(12) 1.0258(8)
H19 H 0.6681 0.5537 1.0887
H20 H 0.7729 0.5470 1.0039
C12 C 0.7873(16) 0.7025(16) 1.0225(10)
H21 H 0.7253 0.7615 1.0261
H22 H 0.8449 0.7335 0.9616
C13 C 0.873(3) 0.701(3) 1.0919(19)
H23 H 0.9045 0.7796 1.0824
H24 H 0.8267 0.6618 1.1553
C14 C 0.9709(18) 0.6354(17) 1.0635(13)
H25 H 1.0243 0.6136 1.1055
H26 H 1.0220 0.6817 1.0036
H27 H 0.9343 0.5655 1.0618
C15 C 0.4840(11) 0.6564(9) 1.0179(8)
H28 H 0.4656 0.6049 1.0816
H29 H 0.4193 0.6375 0.9920
C16 C 0.4755(14) 0.7874(13) 1.0119(11)
H30 H 0.5234 0.8396 0.9520
H31 H 0.5124 0.7988 1.0573
C17 C 0.3275(17) 0.8169(17) 1.0298(15)
H32 H 0.2934 0.8175 0.9796
H33 H 0.2768 0.7585 1.0858
C18 C 0.323(3) 0.927(3) 1.037(2)
H34 H 0.2373 0.9381 1.0663
H35 H 0.3490 0.9863 0.9765
H36 H 0.3811 0.9327 1.0716
C19 C 0.7422(7) 0.9065(6) 0.5577(6)
C20 C 0.7573(11) 1.1040(8) 0.5625(7)
H37 H 0.8083 1.1712 0.5139
H38 H 0.8090 1.0664 0.6048
C21 C 0.633(2) 1.1484(17) 0.6141(14)
H39 H 0.6604 1.2141 0.6276
H40 H 0.5796 1.1791 0.5721
C22 C 0.5635(17) 1.0754(16) 0.6879(12)
H41 H 0.6174 1.0409 0.7292
H42 H 0.5305 1.0122 0.6743
C23 C 0.4436(18) 1.1293(17) 0.7399(13)
H43 H 0.4747 1.1782 0.7666
H44 H 0.3869 1.0661 0.7870
H45 H 0.3976 1.1757 0.6970
C24 C 0.6762(9) 1.0741(8) 0.4472(7)
H46 H 0.6081 1.1240 0.4613
H47 H 0.6391 1.0131 0.4334
C25 C 0.7809(10) 1.1489(9) 0.3626(8)
H48 H 0.8143 1.2130 0.3750
H49 H 0.8515 1.1002 0.3507
C26 C 0.7297(11) 1.1992(11) 0.2792(8)
H50 H 0.7043 1.1347 0.2636
H51 H 0.6532 1.2403 0.2938
C27 C 0.8233(14) 1.2818(12) 0.1985(10)
H52 H 0.8611 1.3376 0.2161
H53 H 0.7798 1.3231 0.1525
H54 H 0.8896 1.2382 0.1745
N1 N 1.0172(7) 0.4100(6) 0.6188(4)
N2 N 0.6151(7) 0.6335(7) 0.9680(6)
N3 N 0.7253(7) 1.0211(6) 0.5241(5)
S1 S 0.9612(2) 0.61901(18) 0.62821(16)
S2 S 0.7709(2) 0.4134(2) 0.70712(18)
S3 S 0.7961(2) 0.6193(2) 0.83068(16)
S4 S 0.5312(2) 0.6865(3) 0.82120(19)
S5 S 0.8154(2) 0.85545(19) 0.64984(17)
S6 S 0.6983(2) 0.8058(2) 0.51687(18)
loop_
_geom_bond_atom_site_label_1
_geom_bond_atom_site_label_2
_geom_bond_site_symmetry_1
_geom_bond_site_symmetry_2
As1 S1 1_555 1_555
C1 N1 1_555 1_555
C2 H1 1_555 1_555
H2 C2 1_555 1_555
C3 C2 1_555 1_555
H3 C3 1_555 1_555
H4 C3 1_555 1_555
C4 C3 1_555 1_555
H5 C4 1_555 1_555
H6 C4 1_555 1_555
C5 C4 1_555 1_555
H7 C5 1_555 1_555
H8 C5 1_555 1_555
H9 C5 1_555 1_555
C6 H10 1_555 1_555
H11 C6 1_555 1_555
C7 C6 1_555 1_555
H12 C7 1_555 1_555
H13 C7 1_555 1_555
C8 C7 1_555 1_555
H14 C8 1_555 1_555
H15 C8 1_555 1_555
C9 C8 1_555 1_555
H16 C9 1_555 1_555
H17 C9 1_555 1_555
H18 C9 1_555 1_555
C10 N2 1_555 1_555
C11 H19 1_555 1_555
H20 C11 1_555 1_555
C12 C11 1_555 1_555
H21 C12 1_555 1_555
H22 C12 1_555 1_555
C13 C12 1_555 1_555
H23 C13 1_555 1_555
H24 C13 1_555 1_555
C14 C13 1_555 1_555
H25 C14 1_555 1_555
H26 C14 1_555 1_555
H27 C14 1_555 1_555
C15 H28 1_555 1_555
H29 C15 1_555 1_555
C16 C15 1_555 1_555
H30 C16 1_555 1_555
H31 C16 1_555 1_555
C17 C16 1_555 1_555
H32 C17 1_555 1_555
H33 C17 1_555 1_555
C18 C17 1_555 1_555
H34 C18 1_555 1_555
H35 C18 1_555 1_555
H36 C18 1_555 1_555
C19 N3 1_555 1_555
C20 H37 1_555 1_555
H38 C20 1_555 1_555
C21 C20 1_555 1_555
H39 C21 1_555 1_555
H40 C21 1_555 1_555
C22 C21 1_555 1_555
H41 C22 1_555 1_555
H42 C22 1_555 1_555
C23 C22 1_555 1_555
H43 C23 1_555 1_555
H44 C23 1_555 1_555
H45 C23 1_555 1_555
C24 H46 1_555 1_555
H47 C24 1_555 1_555
C25 C24 1_555 1_555
H48 C25 1_555 1_555
H49 C25 1_555 1_555
C26 C25 1_555 1_555
H50 C26 1_555 1_555
H51 C26 1_555 1_555
C27 C26 1_555 1_555
H52 C27 1_555 1_555
H53 C27 1_555 1_555
H54 C27 1_555 1_555
N1 C2 1_555 1_555
N2 C11 1_555 1_555
N3 C20 1_555 1_555
S1 C1 1_555 1_555
S2 As1 1_555 1_555
S3 As1 1_555 1_555
S4 As1 1_555 1_555
S5 As1 1_555 1_555
S6 As1 1_555 1_555
C1 S2 1_555 1_555
C6 N1 1_555 1_555
C10 S3 1_555 1_555
C10 S4 1_555 1_555
C15 N2 1_555 1_555
C19 S5 1_555 1_555
C19 S6 1_555 1_555
C24 N3 1_555 1_555

#END
