
#######################################################################
#
#                 Cambridge Crystallographic Data Centre
#                                CCDC 
#
#######################################################################
#
# If this CIF has been generated from an entry in the Cambridge 
# Structural Database, then it will include bibliographic, chemical, 
# crystal, experimental, refinement or atomic coordinate data resulting 
# from the CCDC's data processing and validation procedures.
#
#######################################################################

data_JADVAL
_chemical_formula_moiety         'C14 H18 N2 O3,H2 O1'
_chemical_name_systematic        'L-Phenylalanyl-L-proline monohydrate'
_symmetry_cell_setting           tetragonal
_symmetry_space_group_name_H-M   'P 43 21 2'
_symmetry_Int_Tables_number      96
_space_group_name_Hall           'P 4nw 2abw'
loop_
_symmetry_equiv_pos_site_id
_symmetry_equiv_pos_as_xyz
1 x,y,z
2 1/2-y,1/2+x,3/4+z
3 -x,-y,1/2+z
4 1/2+y,1/2-x,1/4+z
5 y,x,-z
6 1/2+x,1/2-y,1/4-z
7 -y,-x,1/2-z
8 1/2-x,1/2+y,3/4-z
_cell_length_a                   8.162(4)
_cell_length_b                   8.162(4)
_cell_length_c                   41.41(3)
_cell_angle_alpha                90
_cell_angle_beta                 90
_cell_angle_gamma                90
_cell_volume                     2758.66
_exptl_crystal_colour            colorless
_cell_formula_units_Z            8
loop_
_atom_site_label
_atom_site_type_symbol
_atom_site_fract_x
_atom_site_fract_y
_atom_site_fract_z
C1 C 0.5653(8) -0.1245(8) -0.0992(1)
C2 C 0.6461(8) -0.2277(9) -0.0729(1)
C3 C 0.5531(9) -0.2237(8) -0.0412(1)
C4 C 0.4173(9) -0.3260(9) -0.0371(1)
C5 C 0.3344(10) -0.3214(9) -0.0075(2)
C6 C 0.3841(12) -0.2199(10) 0.0173(2)
C7 C 0.5179(11) -0.1183(10) 0.0131(2)
C8 C 0.6019(9) -0.1197(9) -0.0165(2)
C9 C 0.5350(8) 0.0518(8) -0.0879(1)
C10 C 0.2354(8) -0.0038(9) -0.0768(1)
C11 C 0.1529(9) 0.0670(10) -0.0475(1)
C12 C 0.1880(10) 0.2504(11) -0.0507(2)
C13 C 0.3631(9) 0.2570(9) -0.0630(1)
C14 C 0.1304(8) 0.0110(9) -0.1075(2)
N1 N 0.6785(6) -0.1135(7) -0.1272(1)
N2 N 0.3868(6) 0.0932(6) -0.0780(1)
O1 O 0.6549(6) 0.1464(6) -0.0867(1)
O2 O -0.0068(6) -0.0584(7) -0.1053(1)
O3 O 0.1830(6) 0.0892(6) -0.1313(1)
H1 H 0.467(5) -0.168(5) -0.106(1)
H2 H 0.747(5) -0.186(5) -0.069(1)
H3 H 0.645(6) -0.352(7) -0.082(1)
H4 H 0.377(8) -0.407(8) -0.056(1)
H5 H 0.238(6) -0.390(6) -0.002(1)
H6 H 0.327(8) -0.199(8) 0.038(1)
H7 H 0.557(8) -0.055(8) 0.031(1)
H8 H 0.670(5) -0.058(5) -0.018(1)
H9 H 0.255(6) -0.129(6) -0.075(1)
H10 H 0.205(9) 0.018(9) -0.026(2)
H11 H 0.032(7) 0.050(6) -0.047(1)
H12 H 0.175(7) 0.309(7) -0.030(1)
H13 H 0.105(7) 0.307(7) -0.068(1)
H14 H 0.375(5) 0.333(6) -0.080(1)
H15 H 0.452(8) 0.253(8) -0.041(1)
H16 H 0.691(6) -0.213(6) -0.140(1)
H17 H 0.643(6) -0.058(6) -0.142(1)
H18 H 0.790(7) -0.066(8) -0.123(1)
O4 O 0.0237(6) 0.6081(6) -0.0892(1)
H19 H 0.004(8) 0.711(8) -0.095(1)
H20 H 0.126(7) 0.591(7) -0.099(1)
loop_
_geom_bond_atom_site_label_1
_geom_bond_atom_site_label_2
_geom_bond_site_symmetry_1
_geom_bond_site_symmetry_2
C1 C2 1_555 1_555
C2 C3 1_555 1_555
C3 C4 1_555 1_555
C4 C5 1_555 1_555
C5 C6 1_555 1_555
C6 C7 1_555 1_555
C7 C8 1_555 1_555
C8 C3 1_555 1_555
C9 C1 1_555 1_555
C10 C11 1_555 1_555
C11 C12 1_555 1_555
C12 C13 1_555 1_555
C13 N2 1_555 1_555
C14 C10 1_555 1_555
N1 C1 1_555 1_555
N2 C9 1_555 1_555
O1 C9 1_555 1_555
O2 C14 1_555 1_555
O3 C14 1_555 1_555
O4 H19 1_555 1_555
H1 C1 1_555 1_555
H2 C2 1_555 1_555
H3 C2 1_555 1_555
H4 C4 1_555 1_555
H5 C5 1_555 1_555
H6 C6 1_555 1_555
H7 C7 1_555 1_555
H8 C8 1_555 1_555
H9 C10 1_555 1_555
H10 C11 1_555 1_555
H11 C11 1_555 1_555
H12 C12 1_555 1_555
H13 C12 1_555 1_555
H14 C13 1_555 1_555
H15 C13 1_555 1_555
H16 N1 1_555 1_555
H17 N1 1_555 1_555
H18 N1 1_555 1_555
H20 O4 1_555 1_555
C10 N2 1_555 1_555

#END
