
#######################################################################
#
#                 Cambridge Crystallographic Data Centre
#                                CCDC 
#
#######################################################################
#
# If this CIF has been generated from an entry in the Cambridge 
# Structural Database, then it will include bibliographic, chemical, 
# crystal, experimental, refinement or atomic coordinate data resulting 
# from the CCDC's data processing and validation procedures.
#
#######################################################################

data_JAFMAH
_chemical_formula_moiety         'C24 H17 Br1 O3'
_chemical_name_systematic        
'Methyl 2-(4-bromophenyl)-4,5-diphenyl-3-furoate'
_symmetry_cell_setting           triclinic
_symmetry_space_group_name_H-M   'P -1'
_symmetry_Int_Tables_number      2
_space_group_name_Hall           '-P 1'
loop_
_symmetry_equiv_pos_site_id
_symmetry_equiv_pos_as_xyz
1 x,y,z
2 -x,-y,-z
_cell_length_a                   9.7030(6)
_cell_length_b                   10.0809(10)
_cell_length_c                   11.7856(9)
_cell_angle_alpha                68.569(8)
_cell_angle_beta                 80.101(6)
_cell_angle_gamma                67.458(8)
_cell_volume                     990.435
_exptl_crystal_colour            colorless
_exptl_crystal_description       platelet
_cell_formula_units_Z            2
loop_
_atom_site_label
_atom_site_type_symbol
_atom_site_fract_x
_atom_site_fract_y
_atom_site_fract_z
Br1 Br 0.18041(3) 0.48905(4) 0.47717(3)
O1 O 0.86538(19) 0.4784(2) 0.22121(16)
O2 O 1.0810(2) -0.0362(2) 0.3808(2)
O3 O 0.8402(2) 0.0406(2) 0.34358(19)
C1 C 1.0152(3) 0.4313(3) 0.1877(2)
C2 C 1.0740(3) 0.2774(3) 0.2244(2)
C3 C 0.9521(3) 0.2251(3) 0.2837(2)
C4 C 0.8294(3) 0.3499(3) 0.2807(2)
C5 C 0.6739(3) 0.3816(3) 0.3279(2)
C6 C 0.5600(3) 0.5077(4) 0.2623(3)
H1 H 0.5829 0.5712 0.1876
C7 C 0.4134(3) 0.5406(4) 0.3059(3)
H2 H 0.3381 0.6255 0.2615
C8 C 0.3812(3) 0.4453(3) 0.4163(3)
C9 C 0.4910(3) 0.3208(3) 0.4834(3)
H3 H 0.4672 0.2579 0.5582
C10 C 0.6374(3) 0.2892(3) 0.4394(2)
H4 H 0.7122 0.2050 0.4850
C11 C 1.0745(3) 0.5554(3) 0.1265(2)
C12 C 1.0100(4) 0.6898(4) 0.1520(3)
H5 H 0.9273 0.7024 0.2057
C13 C 1.0672(4) 0.8063(4) 0.0984(3)
H6 H 1.0234 0.8967 0.1162
C14 C 1.1892(4) 0.7874(4) 0.0189(3)
H7 H 1.2278 0.8653 -0.0171
C15 C 1.2538(4) 0.6554(4) -0.0076(3)
H8 H 1.3363 0.6436 -0.0614
C16 C 1.1971(3) 0.5386(4) 0.0454(3)
H9 H 1.2411 0.4490 0.0266
C17 C 1.2310(3) 0.1819(3) 0.2100(2)
C18 C 1.3449(3) 0.1992(4) 0.2536(3)
H10 H 1.3222 0.2720 0.2913
C19 C 1.4916(3) 0.1094(5) 0.2414(3)
H11 H 1.5670 0.1233 0.2699
C20 C 1.5269(4) 0.0006(5) 0.1883(3)
H12 H 1.6259 -0.0603 0.1811
C21 C 1.4147(4) -0.0188(4) 0.1450(3)
H13 H 1.4380 -0.0934 0.1091
C22 C 1.2687(3) 0.0724(4) 0.1550(3)
H14 H 1.1941 0.0601 0.1242
C23 C 0.9675(3) 0.0639(3) 0.3406(2)
C24 C 0.8421(4) -0.1123(4) 0.4130(3)
H15 H 0.9176 -0.1834 0.3787
H16 H 0.7464 -0.1182 0.4099
H17 H 0.8634 -0.1365 0.4962
loop_
_geom_bond_atom_site_label_1
_geom_bond_atom_site_label_2
_geom_bond_site_symmetry_1
_geom_bond_site_symmetry_2
Br1 C8 1_555 1_555
O1 C1 1_555 1_555
O2 C23 1_555 1_555
O3 C23 1_555 1_555
C1 C2 1_555 1_555
C2 C3 1_555 1_555
C3 C4 1_555 1_555
C4 O1 1_555 1_555
C5 C4 1_555 1_555
C6 C5 1_555 1_555
H1 C6 1_555 1_555
C7 C6 1_555 1_555
H2 C7 1_555 1_555
C8 C7 1_555 1_555
C9 C8 1_555 1_555
H3 C9 1_555 1_555
C10 C5 1_555 1_555
H4 C10 1_555 1_555
C11 C1 1_555 1_555
C12 C11 1_555 1_555
H5 C12 1_555 1_555
C13 C12 1_555 1_555
H6 C13 1_555 1_555
C14 C13 1_555 1_555
H7 C14 1_555 1_555
C15 C14 1_555 1_555
H8 C15 1_555 1_555
C16 C11 1_555 1_555
H9 C16 1_555 1_555
C17 C2 1_555 1_555
C18 C17 1_555 1_555
H10 C18 1_555 1_555
C19 C18 1_555 1_555
H11 C19 1_555 1_555
C20 C19 1_555 1_555
H12 C20 1_555 1_555
C21 C20 1_555 1_555
H13 C21 1_555 1_555
C22 C17 1_555 1_555
H14 C22 1_555 1_555
C23 C3 1_555 1_555
C24 O3 1_555 1_555
H15 C24 1_555 1_555
H16 C24 1_555 1_555
H17 C24 1_555 1_555
C9 C10 1_555 1_555
C15 C16 1_555 1_555
C21 C22 1_555 1_555

#END
