
#######################################################################
#
#                 Cambridge Crystallographic Data Centre
#                                CCDC 
#
#######################################################################
#
# If this CIF has been generated from an entry in the Cambridge 
# Structural Database, then it will include bibliographic, chemical, 
# crystal, experimental, refinement or atomic coordinate data resulting 
# from the CCDC's data processing and validation procedures.
#
#######################################################################

data_JAFVOE
_chemical_formula_moiety         'C17 H15 N1'
_chemical_name_systematic        3-Ethyl-4-phenylquinoline
_symmetry_cell_setting           monoclinic
_symmetry_space_group_name_H-M   'P 21/n'
_symmetry_Int_Tables_number      14
_space_group_name_Hall           '-P 2yn'
loop_
_symmetry_equiv_pos_site_id
_symmetry_equiv_pos_as_xyz
1 x,y,z
2 1/2-x,1/2+y,1/2-z
3 -x,-y,-z
4 1/2+x,1/2-y,1/2+z
_cell_length_a                   8.1521(7)
_cell_length_b                   25.648(2)
_cell_length_c                   18.4479(13)
_cell_angle_alpha                90
_cell_angle_beta                 97.064(4)
_cell_angle_gamma                90
_cell_volume                     3827.9
_exptl_crystal_colour            colorless
_exptl_crystal_description       prism
_cell_formula_units_Z            12
loop_
_atom_site_label
_atom_site_type_symbol
_atom_site_fract_x
_atom_site_fract_y
_atom_site_fract_z
C1 C 0.5194(2) 0.44520(6) 0.43196(7)
C2 C 0.5938(2) 0.40015(7) 0.46584(8)
H1 H 0.5263 0.3739 0.4832
C3 C 0.7609(2) 0.39391(7) 0.47389(9)
H2 H 0.8091 0.3634 0.4966
C4 C 0.8626(2) 0.43253(7) 0.44862(9)
H3 H 0.9790 0.4278 0.4538
C5 C 0.7944(2) 0.47683(7) 0.41670(8)
H4 H 0.8645 0.5028 0.4003
C6 C 0.6208(2) 0.48477(6) 0.40753(7)
C7 C 0.5434(2) 0.53052(6) 0.37453(7)
C8 C 0.64758(19) 0.57330(6) 0.34963(7)
C9 C 0.7520(2) 0.60212(6) 0.40041(8)
H5 H 0.7555 0.5947 0.4510
C10 C 0.8502(2) 0.64126(7) 0.37778(9)
H6 H 0.9207 0.6606 0.4129
C11 C 0.8465(2) 0.65247(7) 0.30426(9)
H7 H 0.9141 0.6795 0.2888
C12 C 0.7441(2) 0.62422(7) 0.25338(9)
H8 H 0.7414 0.6318 0.2028
C13 C 0.6457(2) 0.58498(7) 0.27579(8)
H9 H 0.5759 0.5657 0.2404
C14 C 0.3728(2) 0.53380(6) 0.36753(8)
C15 C 0.2732(2) 0.57954(7) 0.33473(8)
H10 H 0.3469 0.6101 0.3338
H11 H 0.1873 0.5883 0.3663
C16 C 0.1900(2) 0.56905(8) 0.25734(9)
H12 H 0.1280 0.6000 0.2389
H13 H 0.1143 0.5394 0.2580
H14 H 0.2745 0.5610 0.2255
C17 C 0.2851(2) 0.49145(7) 0.39366(8)
H15 H 0.1680 0.4942 0.3883
N1 N 0.34995(18) 0.44872(6) 0.42457(7)
C18 C 0.8547(2) 0.23909(6) 0.62401(8)
C19 C 0.7610(2) 0.25243(7) 0.55708(9)
H16 H 0.8075 0.2481 0.5127
C20 C 0.6052(2) 0.27138(7) 0.55543(9)
H17 H 0.5427 0.2796 0.5100
C21 C 0.5359(2) 0.27890(7) 0.62082(10)
H18 H 0.4267 0.2922 0.6192
C22 C 0.6245(2) 0.26726(7) 0.68679(9)
H19 H 0.5768 0.2731 0.7305
C23 C 0.7868(2) 0.24663(6) 0.69050(8)
C24 C 0.8836(2) 0.23130(6) 0.75745(8)
C25 C 0.8158(2) 0.23826(6) 0.82870(8)
C26 C 0.7938(2) 0.28767(7) 0.85684(9)
H20 H 0.8217 0.3176 0.8305
C27 C 0.7317(2) 0.29376(9) 0.92303(10)
H21 H 0.7175 0.3278 0.9416
C28 C 0.6905(2) 0.25104(9) 0.96204(9)
H22 H 0.6485 0.2554 1.0075
C29 C 0.7106(2) 0.20206(8) 0.93460(8)
H23 H 0.6817 0.1724 0.9612
C30 C 0.7730(2) 0.19521(7) 0.86834(8)
H24 H 0.7863 0.1610 0.8501
C31 C 1.0376(2) 0.21022(6) 0.75390(8)
C32 C 1.1556(2) 0.19439(8) 0.81945(9)
H25 H 1.2142 0.1622 0.8078
H26 H 1.0921 0.1865 0.8606
C33 C 1.2805(3) 0.23632(11) 0.84255(11)
H27 H 1.3549 0.2244 0.8851
H28 H 1.2231 0.2680 0.8553
H29 H 1.3447 0.2439 0.8023
C34 C 1.0920(2) 0.20516(7) 0.68412(8)
H30 H 1.1989 0.1908 0.6826
N2 N 1.00851(18) 0.21851(6) 0.62136(7)
C35 C 0.1069(2) -0.07386(7) 0.56681(7)
C36 C 0.1652(2) -0.12182(7) 0.54181(8)
H31 H 0.0887 -0.1482 0.5242
C37 C 0.3305(3) -0.13026(8) 0.54297(9)
H32 H 0.3684 -0.1627 0.5265
C38 C 0.4455(2) -0.09171(7) 0.56811(9)
H33 H 0.5604 -0.0981 0.5683
C39 C 0.3929(2) -0.04513(7) 0.59236(8)
H34 H 0.4720 -0.0193 0.6093
C40 C 0.2220(2) -0.03460(6) 0.59276(7)
C41 C 0.1615(2) 0.01347(6) 0.61765(7)
C42 C 0.28210(19) 0.05477(6) 0.64616(8)
C43 C 0.3550(2) 0.05375(7) 0.71855(9)
H35 H 0.3268 0.0269 0.7502
C44 C 0.4679(2) 0.09153(7) 0.74463(10)
H36 H 0.5158 0.0907 0.7942
C45 C 0.5114(2) 0.13033(7) 0.69917(10)
H37 H 0.5898 0.1560 0.7172
C46 C 0.4405(2) 0.13175(7) 0.62732(9)
H38 H 0.4702 0.1586 0.5959
C47 C 0.3260(2) 0.09415(7) 0.60067(9)
H39 H 0.2776 0.0954 0.5511
C48 C -0.0068(2) 0.02080(7) 0.61426(8)
C49 C -0.0834(2) 0.06968(7) 0.63987(9)
H40 H -0.1981 0.0726 0.6154
H41 H -0.0208 0.1002 0.6252
C50 C -0.0858(2) 0.07096(8) 0.72265(9)
H42 H -0.1371 0.1035 0.7363
H43 H 0.0277 0.0690 0.7472
H44 H -0.1494 0.0412 0.7374
C51 C -0.1096(2) -0.02100(7) 0.58638(8)
H45 H -0.2255 -0.0156 0.5834
N3 N -0.06055(18) -0.06670(6) 0.56422(7)
loop_
_geom_bond_atom_site_label_1
_geom_bond_atom_site_label_2
_geom_bond_site_symmetry_1
_geom_bond_site_symmetry_2
C1 C2 1_555 1_555
C2 H1 1_555 1_555
C3 C2 1_555 1_555
H2 C3 1_555 1_555
C4 C3 1_555 1_555
H3 C4 1_555 1_555
C5 C4 1_555 1_555
H4 C5 1_555 1_555
C6 C1 1_555 1_555
C7 C6 1_555 1_555
C8 C7 1_555 1_555
C9 C8 1_555 1_555
H5 C9 1_555 1_555
C10 C9 1_555 1_555
H6 C10 1_555 1_555
C11 C10 1_555 1_555
H7 C11 1_555 1_555
C12 C11 1_555 1_555
H8 C12 1_555 1_555
C13 C8 1_555 1_555
H9 C13 1_555 1_555
C14 C7 1_555 1_555
C15 C14 1_555 1_555
H10 C15 1_555 1_555
H11 C15 1_555 1_555
C16 C15 1_555 1_555
H12 C16 1_555 1_555
H13 C16 1_555 1_555
H14 C16 1_555 1_555
C17 C14 1_555 1_555
H15 C17 1_555 1_555
N1 C1 1_555 1_555
C18 C19 1_555 1_555
C19 H16 1_555 1_555
C20 C19 1_555 1_555
H17 C20 1_555 1_555
C21 C20 1_555 1_555
H18 C21 1_555 1_555
C22 C21 1_555 1_555
H19 C22 1_555 1_555
C23 C18 1_555 1_555
C24 C23 1_555 1_555
C25 C24 1_555 1_555
C26 C25 1_555 1_555
H20 C26 1_555 1_555
C27 C26 1_555 1_555
H21 C27 1_555 1_555
C28 C27 1_555 1_555
H22 C28 1_555 1_555
C29 C28 1_555 1_555
H23 C29 1_555 1_555
C30 C25 1_555 1_555
H24 C30 1_555 1_555
C31 C24 1_555 1_555
C32 C31 1_555 1_555
H25 C32 1_555 1_555
H26 C32 1_555 1_555
C33 C32 1_555 1_555
H27 C33 1_555 1_555
H28 C33 1_555 1_555
H29 C33 1_555 1_555
C34 C31 1_555 1_555
H30 C34 1_555 1_555
N2 C18 1_555 1_555
C35 C36 1_555 1_555
C36 H31 1_555 1_555
C37 C36 1_555 1_555
H32 C37 1_555 1_555
C38 C37 1_555 1_555
H33 C38 1_555 1_555
C39 C38 1_555 1_555
H34 C39 1_555 1_555
C40 C35 1_555 1_555
C41 C40 1_555 1_555
C42 C41 1_555 1_555
C43 C42 1_555 1_555
H35 C43 1_555 1_555
C44 C43 1_555 1_555
H36 C44 1_555 1_555
C45 C44 1_555 1_555
H37 C45 1_555 1_555
C46 C45 1_555 1_555
H38 C46 1_555 1_555
C47 C42 1_555 1_555
H39 C47 1_555 1_555
C48 C41 1_555 1_555
C49 C48 1_555 1_555
H40 C49 1_555 1_555
H41 C49 1_555 1_555
C50 C49 1_555 1_555
H42 C50 1_555 1_555
H43 C50 1_555 1_555
H44 C50 1_555 1_555
C51 C48 1_555 1_555
H45 C51 1_555 1_555
N3 C35 1_555 1_555
C5 C6 1_555 1_555
C12 C13 1_555 1_555
C17 N1 1_555 1_555
C22 C23 1_555 1_555
C29 C30 1_555 1_555
C34 N2 1_555 1_555
C39 C40 1_555 1_555
C46 C47 1_555 1_555
C51 N3 1_555 1_555

#END
