
#######################################################################
#
#                 Cambridge Crystallographic Data Centre
#                                CCDC 
#
#######################################################################
#
# If this CIF has been generated from an entry in the Cambridge 
# Structural Database, then it will include bibliographic, chemical, 
# crystal, experimental, refinement or atomic coordinate data resulting 
# from the CCDC's data processing and validation procedures.
#
#######################################################################

data_JAGQEQ
_chemical_formula_moiety         'C22 H30 N2 O4 S1'
_chemical_name_systematic        
'4-methylphenyl (1-(diisopropylamino)-2-(4-methoxyphenyl)ethylidene)sulfamate'
_symmetry_cell_setting           monoclinic
_symmetry_space_group_name_H-M   'P 21/c'
_symmetry_Int_Tables_number      14
_space_group_name_Hall           '-P 2ybc'
loop_
_symmetry_equiv_pos_site_id
_symmetry_equiv_pos_as_xyz
1 x,y,z
2 -x,1/2+y,1/2-z
3 -x,-y,-z
4 x,1/2-y,1/2+z
_cell_length_a                   9.6726(2)
_cell_length_b                   10.9946(2)
_cell_length_c                   20.8184(4)
_cell_angle_alpha                90
_cell_angle_beta                 97.108(2)
_cell_angle_gamma                90
_cell_volume                     2196.95
_exptl_crystal_colour            colorless
_exptl_crystal_description       block
_cell_formula_units_Z            4
loop_
_atom_site_label
_atom_site_type_symbol
_atom_site_fract_x
_atom_site_fract_y
_atom_site_fract_z
S1 S 0.43051(4) 0.40004(3) 0.168684(18)
O1 O 0.47944(12) 0.42092(10) 0.23553(5)
O2 O 0.90557(12) 0.88345(10) 0.01042(6)
O3 O 0.56610(12) 0.38534(10) 0.13092(5)
N1 N 0.31757(13) 0.71048(11) 0.10875(6)
N2 N 0.35532(13) 0.51141(12) 0.13155(6)
O4 O 0.34553(13) 0.29506(11) 0.15455(6)
C1 C 0.63668(15) 0.71903(13) 0.12593(7)
C2 C 0.72035(16) 0.81820(14) 0.14676(8)
H1 H 0.7172 0.8500 0.1890
C3 C 0.92993(17) 0.31756(15) 0.18356(8)
H2 H 1.0174 0.3566 0.1829
C4 C 0.40129(15) 0.62559(14) 0.13716(7)
C5 C 0.64223(16) 0.67648(14) 0.06376(8)
H3 H 0.5855 0.6093 0.0486
C6 C 0.81007(18) 0.37868(15) 0.16047(7)
H4 H 0.8144 0.4597 0.1450
C7 C 0.80767(17) 0.87087(15) 0.10700(8)
H5 H 0.8644 0.9380 0.1222
C8 C 0.92612(17) 0.19951(15) 0.20793(8)
C9 C 0.24055(18) 0.90528(15) 0.15186(9)
H6 H 0.1499 0.9038 0.1250
H7 H 0.2685 0.9898 0.1612
H8 H 0.2336 0.8623 0.1926
C10 C 0.54318(15) 0.66244(14) 0.17130(7)
H9 H 0.5900 0.5897 0.1919
H10 H 0.5300 0.7214 0.2060
C11 C 0.81302(15) 0.82623(14) 0.04504(8)
C12 C 0.67418(18) 0.20414(15) 0.18374(8)
H11 H 0.5864 0.1651 0.1833
C13 C 0.72866(16) 0.72925(14) 0.02264(7)
H12 H 0.7298 0.6992 -0.0201
C14 C 0.68327(17) 0.32091(14) 0.16002(7)
C15 C 0.79631(18) 0.14538(15) 0.20818(8)
H13 H 0.7911 0.0659 0.2256
C16 C 1.05836(19) 0.13321(18) 0.23245(9)
H14 H 1.0814 0.1482 0.2790
H15 H 1.1345 0.1626 0.2095
H16 H 1.0453 0.0458 0.2248
C17 C 0.07926(18) 0.61814(18) 0.10734(10)
H17 H -0.0130 0.6179 0.0818
H18 H 0.0749 0.6630 0.1477
H19 H 0.1086 0.5342 0.1174
C18 C 0.91833(18) 0.83795(17) -0.05263(8)
H20 H 0.8290 0.8465 -0.0801
H21 H 0.9447 0.7519 -0.0497
H22 H 0.9901 0.8841 -0.0715
C19 C 0.3617(2) 0.90263(16) 0.05080(10)
H23 H 0.4320 0.8594 0.0294
H24 H 0.3898 0.9878 0.0576
H25 H 0.2717 0.8990 0.0235
C20 C 0.18319(17) 0.67887(15) 0.06885(8)
H26 H 0.1401 0.7580 0.0535
C21 C 0.34877(17) 0.84309(14) 0.11590(8)
H27 H 0.4410 0.8513 0.1431
C22 C 0.2086(2) 0.60952(17) 0.00819(9)
H28 H 0.2474 0.5292 0.0203
H29 H 0.2744 0.6549 -0.0149
H30 H 0.1203 0.5998 -0.0200
loop_
_geom_bond_atom_site_label_1
_geom_bond_atom_site_label_2
_geom_bond_site_symmetry_1
_geom_bond_site_symmetry_2
S1 O1 1_555 1_555
O2 C11 1_555 1_555
O3 S1 1_555 1_555
N1 C4 1_555 1_555
N2 S1 1_555 1_555
O4 S1 1_555 1_555
C1 C2 1_555 1_555
C2 H1 1_555 1_555
C3 H2 1_555 1_555
C4 N2 1_555 1_555
C5 C1 1_555 1_555
H3 C5 1_555 1_555
C6 C3 1_555 1_555
H4 C6 1_555 1_555
C7 C2 1_555 1_555
H5 C7 1_555 1_555
C8 C3 1_555 1_555
C9 H6 1_555 1_555
H7 C9 1_555 1_555
H8 C9 1_555 1_555
C10 C1 1_555 1_555
H9 C10 1_555 1_555
H10 C10 1_555 1_555
C11 C7 1_555 1_555
C12 H11 1_555 1_555
C13 C5 1_555 1_555
H12 C13 1_555 1_555
C14 O3 1_555 1_555
C15 C8 1_555 1_555
H13 C15 1_555 1_555
C16 C8 1_555 1_555
H14 C16 1_555 1_555
H15 C16 1_555 1_555
H16 C16 1_555 1_555
C17 H17 1_555 1_555
H18 C17 1_555 1_555
H19 C17 1_555 1_555
C18 O2 1_555 1_555
H20 C18 1_555 1_555
H21 C18 1_555 1_555
H22 C18 1_555 1_555
C19 H23 1_555 1_555
H24 C19 1_555 1_555
H25 C19 1_555 1_555
C20 N1 1_555 1_555
H26 C20 1_555 1_555
C21 N1 1_555 1_555
H27 C21 1_555 1_555
C22 C20 1_555 1_555
H28 C22 1_555 1_555
H29 C22 1_555 1_555
H30 C22 1_555 1_555
C4 C10 1_555 1_555
C6 C14 1_555 1_555
C9 C21 1_555 1_555
C11 C13 1_555 1_555
C12 C14 1_555 1_555
C12 C15 1_555 1_555
C17 C20 1_555 1_555
C19 C21 1_555 1_555

#END
