
#######################################################################
#
#                 Cambridge Crystallographic Data Centre
#                                CCDC 
#
#######################################################################
#
# If this CIF has been generated from an entry in the Cambridge 
# Structural Database, then it will include bibliographic, chemical, 
# crystal, experimental, refinement or atomic coordinate data resulting 
# from the CCDC's data processing and validation procedures.
#
#######################################################################

data_JAGZIB
_chemical_formula_moiety         'C21 H18 N2 O4'
_chemical_name_systematic        
rac-1-Acetyl-4'-ethyl-2a'-phenyl-2',2a',5',5a'-tetrahydrospiro(1H-indole-3,2'-oxeto(5,4-b)oxazol)-2(3H)one
_symmetry_cell_setting           monoclinic
_symmetry_space_group_name_H-M   'P 21/n'
_symmetry_Int_Tables_number      14
_space_group_name_Hall           '-P 2yn'
loop_
_symmetry_equiv_pos_site_id
_symmetry_equiv_pos_as_xyz
1 x,y,z
2 1/2+x,1/2-y,1/2+z
3 -x,-y,-z
4 1/2-x,1/2+y,1/2-z
_cell_length_a                   10.8569(6)
_cell_length_b                   12.4129(6)
_cell_length_c                   12.9849(6)
_cell_angle_alpha                90
_cell_angle_beta                 97.3860(10)
_cell_angle_gamma                90
_cell_volume                     1735.4
_exptl_crystal_colour            colorless
_exptl_crystal_description       block
_chemical_melting_point          392.0K
_cell_formula_units_Z            4
_exptl_crystal_recrystallization_method 'petroleum ether/acetone'
loop_
_atom_site_label
_atom_site_type_symbol
_atom_site_fract_x
_atom_site_fract_y
_atom_site_fract_z
O1 O 0.33060(10) 0.43585(10) 0.20936(8)
O2 O 0.15416(12) 0.41369(11) 0.29910(9)
O3 O 0.2776(2) 0.68099(15) -0.17305(12)
O4 O 0.20403(12) 0.62977(9) 0.13021(9)
N1 N 0.26945(12) 0.58189(10) -0.02832(10)
N2 N 0.04952(12) 0.42914(11) 0.13637(10)
C1 C 0.34922(14) 0.41368(13) 0.01835(12)
C2 C 0.41497(15) 0.31978(14) 0.00799(16)
H1 H 0.4246 0.2686 0.0607
C3 C 0.46650(17) 0.30404(18) -0.08403(19)
H2 H 0.5117 0.2418 -0.0927
C4 C 0.45093(17) 0.38003(19) -0.16219(16)
H3 H 0.4849 0.3673 -0.2232
C5 C 0.38621(17) 0.47455(18) -0.15234(14)
H4 H 0.3767 0.5256 -0.2052
C6 C 0.33586(14) 0.49036(13) -0.06022(12)
C7 C 0.24238(14) 0.56448(12) 0.07382(11)
C8 C 0.27546(14) 0.44720(12) 0.10211(11)
C9 C 0.23545(15) 0.36518(13) 0.23500(11)
H5 H 0.2644 0.2930 0.2570
C10 C 0.05268(17) 0.44954(17) 0.23200(13)
C11 C 0.16401(13) 0.37062(12) 0.12461(11)
C12 C 0.14160(13) 0.27252(12) 0.05758(11)
C13 C 0.16555(16) 0.16968(13) 0.09640(13)
H6 H 0.1960 0.1600 0.1660
C14 C 0.1441(2) 0.08116(14) 0.03138(15)
H7 H 0.1597 0.0121 0.0577
C15 C 0.0997(2) 0.09501(16) -0.07210(15)
H8 H 0.0856 0.0353 -0.1153
C16 C 0.07611(18) 0.19712(16) -0.11167(13)
H9 H 0.0469 0.2063 -0.1816
C17 C 0.09600(15) 0.28597(14) -0.04718(12)
H10 H 0.0789 0.3547 -0.0737
C18 C 0.24998(17) 0.67809(15) -0.08627(14)
C19 C 0.19732(18) 0.77318(15) -0.03783(16)
H11 H 0.1839 0.8303 -0.0879
H12 H 0.2543 0.7969 0.0204
H13 H 0.1198 0.7538 -0.0148
C20 C -0.0427(3) 0.5096(3) 0.28200(18)
H14 H -0.1206 0.4969 0.2396
H15 H -0.0243 0.5847 0.2750
C21 C -0.0616(8) 0.4970(6) 0.3825(5)
H18 H -0.1126 0.5548 0.4021
H19 H 0.0168 0.4979 0.4260
H20 H -0.1025 0.4295 0.3905
H16? H -0.0835 0.4599 0.3230
H17? H -0.1041 0.5356 0.2278
C22? C -0.0045(4) 0.5913(3) 0.3410(3)
H21? H -0.0740 0.6238 0.3677
H22? H 0.0343 0.6433 0.3009
H23? H 0.0544 0.5667 0.3976
loop_
_geom_bond_atom_site_label_1
_geom_bond_atom_site_label_2
_geom_bond_site_symmetry_1
_geom_bond_site_symmetry_2
O1 C8 1_555 1_555
O2 C9 1_555 1_555
O3 C18 1_555 1_555
O4 C7 1_555 1_555
N1 C6 1_555 1_555
N2 C10 1_555 1_555
C1 C2 1_555 1_555
C2 H1 1_555 1_555
C3 C2 1_555 1_555
H2 C3 1_555 1_555
C4 C3 1_555 1_555
H3 C4 1_555 1_555
C5 C4 1_555 1_555
H4 C5 1_555 1_555
C6 C1 1_555 1_555
C7 N1 1_555 1_555
C8 C1 1_555 1_555
C9 O1 1_555 1_555
H5 C9 1_555 1_555
C10 O2 1_555 1_555
C11 N2 1_555 1_555
C12 C11 1_555 1_555
C13 C12 1_555 1_555
H6 C13 1_555 1_555
C14 C13 1_555 1_555
H7 C14 1_555 1_555
C15 C14 1_555 1_555
H8 C15 1_555 1_555
C16 C15 1_555 1_555
H9 C16 1_555 1_555
C17 C12 1_555 1_555
H10 C17 1_555 1_555
C18 N1 1_555 1_555
C19 C18 1_555 1_555
H11 C19 1_555 1_555
H12 C19 1_555 1_555
H13 C19 1_555 1_555
C20 C10 1_555 1_555
H14 C20 1_555 1_555
H15 C20 1_555 1_555
C21 C20 1_555 1_555
H18 C21 1_555 1_555
H19 C21 1_555 1_555
H20 C21 1_555 1_555
C5 C6 1_555 1_555
C7 C8 1_555 1_555
C8 C11 1_555 1_555
C9 C11 1_555 1_555
C16 C17 1_555 1_555

#END
