
#######################################################################
#
#                 Cambridge Crystallographic Data Centre
#                                CCDC 
#
#######################################################################
#
# If this CIF has been generated from an entry in the Cambridge 
# Structural Database, then it will include bibliographic, chemical, 
# crystal, experimental, refinement or atomic coordinate data resulting 
# from the CCDC's data processing and validation procedures.
#
#######################################################################

data_JAGZEX
_chemical_formula_moiety         'C19 H20 O6'
_chemical_name_systematic        
1-(2-Hydroxy-4-methoxyphenyl)-3-(2,3,4-trimethoxyphenyl)prop-2-en-1-one
_symmetry_cell_setting           monoclinic
_symmetry_space_group_name_H-M   'P 21/c'
_symmetry_Int_Tables_number      14
_space_group_name_Hall           '-P 2ybc'
loop_
_symmetry_equiv_pos_site_id
_symmetry_equiv_pos_as_xyz
1 x,y,z
2 x,1/2-y,1/2+z
3 -x,-y,-z
4 -x,1/2+y,1/2-z
_cell_length_a                   16.6025(6)
_cell_length_b                   8.1908(2)
_cell_length_c                   12.6432(5)
_cell_angle_alpha                90
_cell_angle_beta                 92.3030(10)
_cell_angle_gamma                90
_cell_volume                     1717.93
_exptl_crystal_colour            yellow
_exptl_crystal_description       'rectangular slab'
_cell_formula_units_Z            4
_exptl_crystal_recrystallization_method methanol/chloroform
loop_
_atom_site_label
_atom_site_type_symbol
_atom_site_fract_x
_atom_site_fract_y
_atom_site_fract_z
O1 O 0.41006(8) 0.45417(18) 0.90832(11)
O2 O 0.44967(8) 0.57618(18) 0.72241(12)
O3 O 0.34945(8) 0.53234(17) 0.54318(10)
O4 O 0.10647(9) 0.4475(2) 0.37026(11)
O5 O -0.01395(10) 0.4101(2) 0.24713(11)
H1 H 0.0291 0.4490 0.2690
O6 O -0.22266(8) 0.0603(2) 0.35541(12)
C1 C -0.04430(11) 0.3158(3) 0.32211(14)
C2 C -0.11761(12) 0.2396(3) 0.29813(15)
H2 H -0.1431 0.2541 0.2319
C3 C -0.15199(11) 0.1437(3) 0.37208(16)
C4 C -0.11468(11) 0.1218(3) 0.47215(16)
H3 H -0.1390 0.0579 0.5226
C5 C -0.04217(11) 0.1952(3) 0.49522(14)
H4 H -0.0178 0.1802 0.5620
C6 C -0.00356(10) 0.2920(2) 0.42179(13)
C7 C 0.07524(11) 0.3666(2) 0.44133(14)
C8 C 0.12035(11) 0.3476(3) 0.54290(15)
H5 H 0.0983 0.2888 0.5976
C9 C 0.19256(11) 0.4146(2) 0.55622(15)
H6 H 0.2114 0.4677 0.4971
C10 C 0.24714(11) 0.4178(2) 0.64935(14)
C11 C 0.22606(12) 0.3604(3) 0.74776(16)
H7 H 0.1753 0.3145 0.7547
C12 C 0.27806(12) 0.3694(3) 0.83582(16)
H8 H 0.2624 0.3293 0.9007
C13 C 0.35371(11) 0.4386(2) 0.82676(16)
C14 C 0.37646(10) 0.4990(2) 0.72976(15)
C15 C 0.32412(11) 0.4864(2) 0.64145(14)
C16 C -0.26436(13) 0.0792(4) 0.25545(19)
H9 H -0.3130 0.0158 0.2543
H10 H -0.2307 0.0422 0.2003
H11 H -0.2775 0.1922 0.2443
C17 C 0.39444(15) 0.3741(3) 1.00528(17)
H12 H 0.4380 0.3945 1.0557
H13 H 0.3896 0.2587 0.9932
H14 H 0.3451 0.4149 1.0323
C18 C 0.51275(14) 0.4777(4) 0.6866(3)
H15 H 0.5612 0.5413 0.6843
H16 H 0.4986 0.4374 0.6170
H17 H 0.5214 0.3874 0.7341
C19 C 0.35802(15) 0.7019(3) 0.52485(19)
H18 H 0.3756 0.7192 0.4543
H19 H 0.3972 0.7462 0.5749
H20 H 0.3071 0.7551 0.5330
loop_
_geom_bond_atom_site_label_1
_geom_bond_atom_site_label_2
_geom_bond_site_symmetry_1
_geom_bond_site_symmetry_2
O1 C13 1_555 1_555
O2 C14 1_555 1_555
O3 C15 1_555 1_555
O4 C7 1_555 1_555
O5 H1 1_555 1_555
O6 C3 1_555 1_555
C1 O5 1_555 1_555
C2 C1 1_555 1_555
H2 C2 1_555 1_555
C3 C2 1_555 1_555
C4 C3 1_555 1_555
H3 C4 1_555 1_555
C5 C4 1_555 1_555
H4 C5 1_555 1_555
C6 C1 1_555 1_555
C7 C6 1_555 1_555
C8 C7 1_555 1_555
H5 C8 1_555 1_555
C9 C8 1_555 1_555
H6 C9 1_555 1_555
C10 C9 1_555 1_555
C11 C10 1_555 1_555
H7 C11 1_555 1_555
C12 C11 1_555 1_555
H8 C12 1_555 1_555
C13 C12 1_555 1_555
C14 C13 1_555 1_555
C15 C10 1_555 1_555
C16 O6 1_555 1_555
H9 C16 1_555 1_555
H10 C16 1_555 1_555
H11 C16 1_555 1_555
C17 O1 1_555 1_555
H12 C17 1_555 1_555
H13 C17 1_555 1_555
H14 C17 1_555 1_555
C18 O2 1_555 1_555
H15 C18 1_555 1_555
H16 C18 1_555 1_555
H17 C18 1_555 1_555
C19 O3 1_555 1_555
H18 C19 1_555 1_555
H19 C19 1_555 1_555
H20 C19 1_555 1_555
C5 C6 1_555 1_555
C14 C15 1_555 1_555

#END
