
#######################################################################
#
#                 Cambridge Crystallographic Data Centre
#                                CCDC 
#
#######################################################################
#
# If this CIF has been generated from an entry in the Cambridge 
# Structural Database, then it will include bibliographic, chemical, 
# crystal, experimental, refinement or atomic coordinate data resulting 
# from the CCDC's data processing and validation procedures.
#
#######################################################################

data_JAHNAK
_chemical_compound_source        'rhizomes of Acorus tatarinowii'
_chemical_name_common            'asarolignan D'
_chemical_formula_moiety         'C25 H36 O7'
_chemical_name_systematic        
1,1'-(1-methoxy-2-methylpentane-1,3-diyl)bis(2,4,5-trimethoxybenzene)
_symmetry_cell_setting           monoclinic
_symmetry_space_group_name_H-M   'P 21/c'
_symmetry_Int_Tables_number      14
_space_group_name_Hall           '-P 2ybc'
loop_
_symmetry_equiv_pos_site_id
_symmetry_equiv_pos_as_xyz
1 x,y,z
2 -x,1/2+y,1/2-z
3 -x,-y,-z
4 x,1/2-y,1/2+z
_cell_length_a                   11.7316(5)
_cell_length_b                   25.2812(8)
_cell_length_c                   8.4293(2)
_cell_angle_alpha                90
_cell_angle_beta                 97.814(3)
_cell_angle_gamma                90
_cell_volume                     2476.82
_exptl_crystal_colour            colorless
_exptl_crystal_description       block
_cell_formula_units_Z            4
loop_
_atom_site_label
_atom_site_type_symbol
_atom_site_fract_x
_atom_site_fract_y
_atom_site_fract_z
O1 O 0.29574(18) -0.20042(6) 0.4100(2)
O2 O 0.27488(16) -0.17228(6) 0.10138(19)
O3 O 0.22044(15) 0.01001(6) 0.25870(17)
O4 O 0.19685(14) -0.03779(6) 0.71562(16)
O5 O 0.12675(16) 0.10618(7) 0.80995(19)
O6 O 0.03303(18) 0.20739(7) 0.3207(2)
O7 O 0.2278(2) 0.16806(7) 0.2171(2)
C1 C 0.2764(2) -0.14773(8) 0.3703(3)
C2 C 0.2639(2) -0.11023(8) 0.4856(3)
H1 H 0.2689 -0.1209 0.5920
C3 C 0.24418(19) -0.05737(8) 0.4490(2)
C4 C 0.23698(19) -0.04271(8) 0.2881(2)
C5 C 0.24644(19) -0.08002(8) 0.1696(2)
H2 H 0.2401 -0.0696 0.0629
C6 C 0.26530(19) -0.13262(8) 0.2099(2)
C7 C 0.2537(3) -0.15903(12) -0.0630(3)
H3 H 0.2619 -0.1900 -0.1263
H4 H 0.3079 -0.1327 -0.0865
H5 H 0.1770 -0.1454 -0.0879
C8 C 0.2203(3) 0.02896(10) 0.1018(3)
H6 H 0.1548 0.0151 0.0340
H7 H 0.2895 0.0179 0.0624
H8 H 0.2166 0.0669 0.1019
C9 C 0.23465(19) -0.01544(8) 0.5753(2)
H9 H 0.1775 0.0107 0.5304
C10 C 0.0765(2) -0.04318(12) 0.7015(3)
H10 H 0.0502 -0.0651 0.6109
H11 H 0.0413 -0.0089 0.6871
H12 H 0.0560 -0.0592 0.7969
C11 C 0.34923(19) 0.01345(8) 0.6256(2)
H13 H 0.3808 0.0227 0.5274
C12 C 0.4366(2) -0.02264(10) 0.7235(3)
H14 H 0.4141 -0.0281 0.8277
H15 H 0.5112 -0.0064 0.7346
H16 H 0.4393 -0.0560 0.6700
C13 C 0.32847(19) 0.06566(8) 0.7124(2)
H17 H 0.2910 0.0563 0.8057
C14 C 0.4403(2) 0.09442(10) 0.7759(3)
H18 H 0.4897 0.0705 0.8439
H19 H 0.4799 0.1040 0.6863
C15 C 0.4204(3) 0.14389(13) 0.8704(5)
H20 H 0.3773 0.1691 0.8012
H21 H 0.4932 0.1590 0.9132
H22 H 0.3782 0.1349 0.9565
C16 C 0.24755(19) 0.10241(8) 0.6099(2)
C17 C 0.2709(2) 0.11993(9) 0.4610(3)
H23 H 0.3368 0.1076 0.4229
C18 C 0.2004(2) 0.15481(9) 0.3676(3)
C19 C 0.1014(2) 0.17361(9) 0.4205(3)
C20 C 0.0758(2) 0.15764(9) 0.5690(3)
H24 H 0.0100 0.1702 0.6068
C21 C 0.1490(2) 0.12268(8) 0.6615(2)
C22 C 0.0453(3) 0.13295(17) 0.8832(4)
H25 H -0.0301 0.1251 0.8287
H26 H 0.0591 0.1703 0.8787
H27 H 0.0503 0.1220 0.9929
C23 C -0.0635(3) 0.22972(11) 0.3795(4)
H28 H -0.1036 0.2525 0.2996
H29 H -0.0383 0.2498 0.4745
H30 H -0.1141 0.2020 0.4044
C24 C 0.2708(4) 0.21979(13) 0.2049(4)
H31 H 0.2751 0.2278 0.0946
H32 H 0.3462 0.2222 0.2652
H33 H 0.2204 0.2445 0.2466
C25 C 0.3975(10) -0.2105(4) 0.5167(16)
H34 H 0.4612 -0.1931 0.4789
H35 H 0.4115 -0.2480 0.5223
H36 H 0.3886 -0.1975 0.6213
C26? C 0.4085(16) -0.2146(6) 0.441(2)
H37? H 0.4434 -0.2121 0.3450
H38? H 0.4140 -0.2503 0.4801
H39? H 0.4475 -0.1914 0.5210
loop_
_geom_bond_atom_site_label_1
_geom_bond_atom_site_label_2
_geom_bond_site_symmetry_1
_geom_bond_site_symmetry_2
O1 C1 1_555 1_555
O2 C6 1_555 1_555
O3 C4 1_555 1_555
O4 C9 1_555 1_555
O5 C21 1_555 1_555
O6 C19 1_555 1_555
O7 C18 1_555 1_555
C1 C2 1_555 1_555
C2 H1 1_555 1_555
C3 C2 1_555 1_555
C4 C3 1_555 1_555
C5 C4 1_555 1_555
H2 C5 1_555 1_555
C6 C1 1_555 1_555
C7 O2 1_555 1_555
H3 C7 1_555 1_555
H4 C7 1_555 1_555
H5 C7 1_555 1_555
C8 O3 1_555 1_555
H6 C8 1_555 1_555
H7 C8 1_555 1_555
H8 C8 1_555 1_555
C9 C3 1_555 1_555
H9 C9 1_555 1_555
C10 O4 1_555 1_555
H10 C10 1_555 1_555
H11 C10 1_555 1_555
H12 C10 1_555 1_555
C11 C9 1_555 1_555
H13 C11 1_555 1_555
C12 C11 1_555 1_555
H14 C12 1_555 1_555
H15 C12 1_555 1_555
H16 C12 1_555 1_555
C13 C11 1_555 1_555
H17 C13 1_555 1_555
C14 C13 1_555 1_555
H18 C14 1_555 1_555
H19 C14 1_555 1_555
C15 C14 1_555 1_555
H20 C15 1_555 1_555
H21 C15 1_555 1_555
H22 C15 1_555 1_555
C16 C13 1_555 1_555
C17 C16 1_555 1_555
H23 C17 1_555 1_555
C18 C17 1_555 1_555
C19 C18 1_555 1_555
C20 C19 1_555 1_555
H24 C20 1_555 1_555
C21 C16 1_555 1_555
C22 O5 1_555 1_555
H25 C22 1_555 1_555
H26 C22 1_555 1_555
H27 C22 1_555 1_555
C23 O6 1_555 1_555
H28 C23 1_555 1_555
H29 C23 1_555 1_555
H30 C23 1_555 1_555
C24 O7 1_555 1_555
H31 C24 1_555 1_555
H32 C24 1_555 1_555
H33 C24 1_555 1_555
C25 O1 1_555 1_555
H34 C25 1_555 1_555
H35 C25 1_555 1_555
H36 C25 1_555 1_555
C5 C6 1_555 1_555
C20 C21 1_555 1_555

#END
