
#######################################################################
#
#                 Cambridge Crystallographic Data Centre
#                                CCDC 
#
#######################################################################
#
# If this CIF has been generated from an entry in the Cambridge 
# Structural Database, then it will include bibliographic, chemical, 
# crystal, experimental, refinement or atomic coordinate data resulting 
# from the CCDC's data processing and validation procedures.
#
#######################################################################

data_JAHQAN01
_chemical_formula_moiety         'C25 H15 Cl1 O1'
_chemical_name_systematic        
'3-(1-pyrenyl)-1-(4-chlorophenyl) prop-2-en-1-one'
_symmetry_cell_setting           orthorhombic
_symmetry_space_group_name_H-M   'P 21 21 21'
_symmetry_Int_Tables_number      19
_space_group_name_Hall           'P 2ac 2ab'
loop_
_symmetry_equiv_pos_site_id
_symmetry_equiv_pos_as_xyz
1 x,y,z
2 1/2-x,-y,1/2+z
3 -x,1/2+y,1/2-z
4 1/2+x,1/2-y,-z
_cell_length_a                   31.234(6)
_cell_length_b                   4.8180(10)
_cell_length_c                   11.669(2)
_cell_angle_alpha                90
_cell_angle_beta                 90
_cell_angle_gamma                90
_cell_volume                     1756.01
_exptl_crystal_colour            orange
_exptl_crystal_description       rodlike
_cell_formula_units_Z            4
_exptl_crystal_recrystallization_method 'ethyl acetate/dichloromethane'
_exptl_crystal_preparation       ', Luminescent'
loop_
_atom_site_label
_atom_site_type_symbol
_atom_site_fract_x
_atom_site_fract_y
_atom_site_fract_z
Cl1 Cl 0.88928(8) 1.3375(6) 0.3151(2)
O1 O 0.75681(19) 0.5612(16) 0.6197(5)
C1 C 0.6244(2) 0.0524(17) 0.4735(7)
C2 C 0.6078(2) 0.2020(17) 0.5690(7)
H1 H 0.6247 0.3359 0.6043
C3 C 0.5678(2) 0.152(2) 0.6095(7)
H2 H 0.5579 0.2523 0.6723
C4 C 0.5406(2) -0.0500(18) 0.5574(7)
C5 C 0.5558(3) -0.1965(18) 0.4619(7)
C6 C 0.5972(2) -0.1443(18) 0.4186(7)
C7 C 0.5000(3) -0.108(2) 0.6004(8)
H3 H 0.4901 -0.0118 0.6643
C8 C 0.4740(3) -0.306(2) 0.5492(9)
H4 H 0.4470 -0.3436 0.5794
C9 C 0.4880(3) -0.447(2) 0.4540(8)
H5 H 0.4703 -0.5782 0.4196
C10 C 0.5289(3) -0.394(2) 0.4082(7)
C11 C 0.5443(3) -0.535(2) 0.3106(8)
H6 H 0.5268 -0.6655 0.2752
C12 C 0.5830(3) -0.4885(19) 0.2678(7)
H7 H 0.5918 -0.5840 0.2027
C13 C 0.6112(3) -0.2933(17) 0.3202(7)
C14 C 0.6517(3) -0.2374(19) 0.2782(7)
H8 H 0.6613 -0.3304 0.2132
C15 C 0.6782(3) -0.0464(19) 0.3307(7)
H9 H 0.7051 -0.0120 0.2994
C16 C 0.6658(2) 0.0962(18) 0.4291(7)
C17 C 0.6964(2) 0.2779(17) 0.4858(7)
H10 H 0.6903 0.3200 0.5618
C18 C 0.7319(2) 0.3920(17) 0.4442(7)
H11 H 0.7389 0.3641 0.3675
C19 C 0.7604(3) 0.561(2) 0.5159(8)
C20 C 0.7930(2) 0.7380(18) 0.4610(7)
C21 C 0.7930(2) 0.7981(18) 0.3451(6)
H12 H 0.7734 0.7106 0.2971
C22 C 0.8222(2) 0.9891(17) 0.2991(7)
H13 H 0.8210 1.0371 0.2220
C23 C 0.8522(3) 1.1034(19) 0.3697(7)
C24 C 0.8542(3) 1.0382(19) 0.4827(8)
H14 H 0.8757 1.1116 0.5288
C25 C 0.8237(3) 0.861(2) 0.5287(7)
H15 H 0.8240 0.8237 0.6069
loop_
_geom_bond_atom_site_label_1
_geom_bond_atom_site_label_2
_geom_bond_site_symmetry_1
_geom_bond_site_symmetry_2
Cl1 C23 1_555 1_555
O1 C19 1_555 1_555
C1 C2 1_555 1_555
C2 H1 1_555 1_555
C3 C2 1_555 1_555
H2 C3 1_555 1_555
C4 C3 1_555 1_555
C5 C4 1_555 1_555
C6 C1 1_555 1_555
C7 C4 1_555 1_555
H3 C7 1_555 1_555
C8 C7 1_555 1_555
H4 C8 1_555 1_555
C9 C8 1_555 1_555
H5 C9 1_555 1_555
C10 C5 1_555 1_555
C11 C10 1_555 1_555
H6 C11 1_555 1_555
C12 C11 1_555 1_555
H7 C12 1_555 1_555
C13 C6 1_555 1_555
C14 C13 1_555 1_555
H8 C14 1_555 1_555
C15 C14 1_555 1_555
H9 C15 1_555 1_555
C16 C1 1_555 1_555
C17 C16 1_555 1_555
H10 C17 1_555 1_555
C18 C17 1_555 1_555
H11 C18 1_555 1_555
C19 C18 1_555 1_555
C20 C19 1_555 1_555
C21 C20 1_555 1_555
H12 C21 1_555 1_555
C22 C21 1_555 1_555
H13 C22 1_555 1_555
C23 C22 1_555 1_555
C24 C23 1_555 1_555
H14 C24 1_555 1_555
C25 C20 1_555 1_555
H15 C25 1_555 1_555
C5 C6 1_555 1_555
C9 C10 1_555 1_555
C12 C13 1_555 1_555
C15 C16 1_555 1_555
C24 C25 1_555 1_555

#END
