
#######################################################################
#
#                 Cambridge Crystallographic Data Centre
#                                CCDC 
#
#######################################################################
#
# If this CIF has been generated from an entry in the Cambridge 
# Structural Database, then it will include bibliographic, chemical, 
# crystal, experimental, refinement or atomic coordinate data resulting 
# from the CCDC's data processing and validation procedures.
#
#######################################################################

data_JAJNAM
_chemical_formula_moiety         'C14 H7 N2 O8 1-,C2 H8 N1 1+'
_chemical_name_systematic        
"dimethylammonium 2'-carboxy-4,4'-dinitro[1,1'-biphenyl]-2-carboxylate"
_symmetry_cell_setting           monoclinic
_symmetry_space_group_name_H-M   'P 21/c'
_symmetry_Int_Tables_number      14
_space_group_name_Hall           '-P 2ybc'
loop_
_symmetry_equiv_pos_site_id
_symmetry_equiv_pos_as_xyz
1 x,y,z
2 -x,1/2+y,1/2-z
3 -x,-y,-z
4 x,1/2-y,1/2+z
_cell_length_a                   7.559(2)
_cell_length_b                   10.228(3)
_cell_length_c                   44.390(12)
_cell_angle_alpha                90
_cell_angle_beta                 90.506(4)
_cell_angle_gamma                90
_cell_volume                     3431.81
_exptl_crystal_description       needle
_cell_formula_units_Z            8
loop_
_atom_site_label
_atom_site_type_symbol
_atom_site_fract_x
_atom_site_fract_y
_atom_site_fract_z
O1 O 0.3878(12) 0.4333(7) 0.23313(15)
O2 O 0.2794(12) 0.2408(9) 0.23847(13)
O3 O 0.5929(9) -0.0617(5) 0.08218(11)
H1 H 0.6733 -0.1093 0.0894
O4 O 0.6348(7) 0.0562(5) 0.12366(10)
O5 O 0.1702(6) 0.0357(4) 0.11025(10)
O6 O 0.2715(7) -0.0597(5) 0.15190(12)
O7 O 0.4792(12) 0.1437(7) -0.01120(13)
O8 O 0.3875(14) 0.3351(8) -0.01465(16)
N1 N 0.3373(10) 0.3282(8) 0.22309(15)
N2 N 0.4279(10) 0.2421(7) 0.00036(15)
C1 C 0.3359(9) 0.3585(7) 0.07755(16)
H2 H 0.2826 0.4316 0.0871
C2 C 0.3439(10) 0.3569(7) 0.04672(15)
H3 H 0.2976 0.4271 0.0351
C3 C 0.4215(10) 0.2500(7) 0.03311(15)
C4 C 0.4906(9) 0.1470(7) 0.04991(15)
H4 H 0.5404 0.0736 0.0400
C5 C 0.4871(8) 0.1514(6) 0.08132(13)
C6 C 0.4021(8) 0.2580(6) 0.09555(14)
C7 C 0.3776(8) 0.2693(6) 0.12906(14)
C8 C 0.3095(8) 0.1681(6) 0.14736(14)
C9 C 0.2957(9) 0.1904(7) 0.17830(14)
H5 H 0.2500 0.1244 0.1911
C10 C 0.3486(9) 0.3080(8) 0.19001(15)
C11 C 0.4107(9) 0.4090(7) 0.17246(16)
H6 H 0.4425 0.4907 0.1811
C12 C 0.4253(9) 0.3879(6) 0.14202(15)
H7 H 0.4690 0.4559 0.1296
C13 C 0.5797(9) 0.0456(6) 0.09859(14)
C14 C 0.2437(9) 0.0379(6) 0.13507(14)
O9 O 0.8087(16) 0.4218(8) 0.01134(14)
O10 O 0.9103(13) 0.2339(7) 0.01944(16)
O11 O 0.7825(7) 0.7410(4) 0.09538(11)
O12 O 0.6661(6) 0.6501(4) 0.13649(10)
O13 O 1.1390(7) 0.6267(5) 0.12815(11)
O14 O 1.0630(8) 0.7590(5) 0.16618(11)
H8 H 1.1165 0.8153 0.1559
O15 O 1.0093(9) 0.5488(6) 0.26192(12)
O16 O 0.8521(10) 0.3735(7) 0.26619(13)
N3 N 0.8634(10) 0.3383(8) 0.02821(15)
N4 N 0.9254(9) 0.4576(7) 0.25117(14)
C15 C 0.9257(9) 0.2939(6) 0.11044(16)
H9 H 0.9639 0.2271 0.1239
C16 C 0.9219(10) 0.2683(7) 0.07996(16)
H10 H 0.9565 0.1855 0.0723
C17 C 0.8667(9) 0.3656(7) 0.06107(15)
C18 C 0.8106(9) 0.4886(7) 0.07101(14)
H11 H 0.7703 0.5533 0.0572
C19 C 0.8161(9) 0.5128(6) 0.10220(14)
C20 C 0.8750(8) 0.4158(6) 0.12237(14)
C21 C 0.8933(8) 0.4310(6) 0.15532(14)
C22 C 0.9758(9) 0.5389(6) 0.16978(14)
C23 C 0.9837(9) 0.5466(7) 0.20114(15)
H12 H 1.0365 0.6200 0.2108
C24 C 0.9139(9) 0.4463(7) 0.21794(14)
C25 C 0.8394(9) 0.3378(7) 0.20496(16)
H13 H 0.7959 0.2685 0.2170
C26 C 0.8289(9) 0.3315(7) 0.17408(16)
H14 H 0.7760 0.2568 0.1650
C27 C 0.7503(8) 0.6467(6) 0.11248(14)
C28 C 1.0661(9) 0.6445(7) 0.15217(14)
N5 N 0.5961(8) 0.8548(6) 0.17457(12)
H15 H 0.5135 0.9070 0.1651
H16 H 0.6460 0.8023 0.1601
C29 C 0.7351(12) 0.9386(8) 0.18769(18)
H17 H 0.8321 0.8840 0.1953
H18 H 0.6858 0.9898 0.2043
H19 H 0.7800 0.9979 0.1722
C30 C 0.5026(13) 0.7685(9) 0.19704(18)
H20 H 0.4612 0.8219 0.2139
H21 H 0.5848 0.7018 0.2046
H22 H 0.4013 0.7260 0.1872
N6 N 0.1069(9) 0.8249(6) 0.07370(13)
H23 H 0.0176 0.7748 0.0816
H24 H 0.1443 0.8824 0.0884
C31 C 0.2548(12) 0.7409(8) 0.06534(19)
H25 H 0.3518 0.7948 0.0577
H26 H 0.2162 0.6796 0.0496
H27 H 0.2956 0.6919 0.0831
C32 C 0.0359(14) 0.9013(9) 0.04793(18)
H28 H -0.0111 0.8414 0.0326
H29 H 0.1308 0.9542 0.0392
H30 H -0.0590 0.9588 0.0549
loop_
_geom_bond_atom_site_label_1
_geom_bond_atom_site_label_2
_geom_bond_site_symmetry_1
_geom_bond_site_symmetry_2
O1 N1 1_555 1_555
O2 N1 1_555 1_555
O3 H1 1_555 1_555
O4 C13 1_555 1_555
O5 C14 1_555 1_555
O6 C14 1_555 1_555
O7 N2 1_555 1_555
O8 N2 1_555 1_555
N1 C10 1_555 1_555
N2 C3 1_555 1_555
C1 H2 1_555 1_555
C2 C1 1_555 1_555
H3 C2 1_555 1_555
C3 C2 1_555 1_555
C4 C3 1_555 1_555
H4 C4 1_555 1_555
C5 C4 1_555 1_555
C6 C1 1_555 1_555
C7 C6 1_555 1_555
C8 C7 1_555 1_555
C9 C8 1_555 1_555
H5 C9 1_555 1_555
C10 C9 1_555 1_555
C11 C10 1_555 1_555
H6 C11 1_555 1_555
C12 C7 1_555 1_555
H7 C12 1_555 1_555
C13 O3 1_555 1_555
C14 C8 1_555 1_555
O9 N3 1_555 1_555
O10 N3 1_555 1_555
O11 C27 1_555 1_555
O12 C27 1_555 1_555
O13 C28 1_555 1_555
O14 H8 1_555 1_555
O15 N4 1_555 1_555
O16 N4 1_555 1_555
N3 C17 1_555 1_555
N4 C24 1_555 1_555
C15 H9 1_555 1_555
C16 C15 1_555 1_555
H10 C16 1_555 1_555
C17 C16 1_555 1_555
C18 C17 1_555 1_555
H11 C18 1_555 1_555
C19 C18 1_555 1_555
C20 C15 1_555 1_555
C21 C20 1_555 1_555
C22 C21 1_555 1_555
C23 C22 1_555 1_555
H12 C23 1_555 1_555
C24 C23 1_555 1_555
C25 C24 1_555 1_555
H13 C25 1_555 1_555
C26 C21 1_555 1_555
H14 C26 1_555 1_555
C27 C19 1_555 1_555
C28 O14 1_555 1_555
N5 H15 1_555 1_555
H16 N5 1_555 1_555
C29 N5 1_555 1_555
H17 C29 1_555 1_555
H18 C29 1_555 1_555
H19 C29 1_555 1_555
C30 N5 1_555 1_555
H20 C30 1_555 1_555
H21 C30 1_555 1_555
H22 C30 1_555 1_555
N6 H23 1_555 1_555
H24 N6 1_555 1_555
C31 N6 1_555 1_555
H25 C31 1_555 1_555
H26 C31 1_555 1_555
H27 C31 1_555 1_555
C32 N6 1_555 1_555
H28 C32 1_555 1_555
H29 C32 1_555 1_555
H30 C32 1_555 1_555
C5 C6 1_555 1_555
C5 C13 1_555 1_555
C11 C12 1_555 1_555
C19 C20 1_555 1_555
C22 C28 1_555 1_555
C25 C26 1_555 1_555

#END
