
#######################################################################
#
#                 Cambridge Crystallographic Data Centre
#                                CCDC 
#
#######################################################################
#
# If this CIF has been generated from an entry in the Cambridge 
# Structural Database, then it will include bibliographic, chemical, 
# crystal, experimental, refinement or atomic coordinate data resulting 
# from the CCDC's data processing and validation procedures.
#
#######################################################################

data_JAJPIW
_chemical_formula_moiety         'C52 H35 N5'
_chemical_name_systematic        
'2-(4-cyanobenzyl)-5,10,15,20-tetraphenyl-2-aza-21-carbaporphyrin unknown solvate'
_symmetry_cell_setting           triclinic
_symmetry_space_group_name_H-M   'P -1'
_symmetry_Int_Tables_number      2
_space_group_name_Hall           '-P 1'
loop_
_symmetry_equiv_pos_site_id
_symmetry_equiv_pos_as_xyz
1 x,y,z
2 -x,-y,-z
_cell_length_a                   9.0096(7)
_cell_length_b                   13.9163(9)
_cell_length_c                   16.9577(13)
_cell_angle_alpha                94.893(6)
_cell_angle_beta                 101.007(7)
_cell_angle_gamma                103.329(6)
_cell_volume                     2012.13
_exptl_crystal_colour            blue
_exptl_crystal_description       parallelepiped
_cell_formula_units_Z            2
loop_
_atom_site_label
_atom_site_type_symbol
_atom_site_fract_x
_atom_site_fract_y
_atom_site_fract_z
N1 N 0.2754(2) 0.80087(14) 0.12101(12)
N2 N 0.2750(3) 0.71657(15) 0.27424(14)
H1 H 0.284(4) 0.695(2) 0.227(2)
N3 N 0.2423(2) 0.51478(15) 0.19275(13)
N4 N 0.1496(2) 0.48824(14) -0.06503(13)
N5 N 0.3809(4) 0.1873(3) -0.40299(18)
C1 C 0.2893(3) 0.82693(17) 0.04456(15)
C2 C 0.3419(3) 0.93504(17) 0.04967(15)
H2 H 0.3617 0.9719 0.0065
C3 C 0.3568(3) 0.97242(18) 0.12745(16)
H3 H 0.3896 1.0408 0.1499
C4 C 0.3130(3) 0.88767(17) 0.17070(15)
C5 C 0.3071(3) 0.89518(17) 0.25503(15)
C6 C 0.2807(3) 0.81498(18) 0.29863(15)
C7 C 0.2485(3) 0.81848(19) 0.37847(16)
H4 H 0.2438 0.8764 0.4108
C8 C 0.2259(3) 0.7255(2) 0.39996(16)
H5 H 0.2008 0.7071 0.4494
C9 C 0.2466(3) 0.65916(19) 0.33511(16)
C10 C 0.2437(3) 0.55890(19) 0.33619(16)
C11 C 0.2592(3) 0.49462(18) 0.26980(16)
C12 C 0.2951(3) 0.39793(19) 0.27556(18)
H6 H 0.3139 0.3677 0.3234
C13 C 0.2964(3) 0.35985(19) 0.20006(18)
H7 H 0.3170 0.2979 0.1845
C14 C 0.2601(3) 0.43196(17) 0.14700(16)
C15 C 0.2414(3) 0.41984(17) 0.06349(16)
C16 C 0.2228(3) 0.49998(17) 0.01788(15)
C17 C 0.2704(3) 0.60151(17) 0.04387(16)
H8 H 0.327(3) 0.630(2) 0.0984(19)
C18 C 0.2310(3) 0.65275(17) -0.02159(15)
C19 C 0.1541(3) 0.57881(16) -0.08770(15)
H9 H 0.1117 0.5911 -0.1405
C20 C 0.2618(3) 0.75913(16) -0.02463(15)
C21 C 0.3216(3) 0.99574(17) 0.29887(15)
C22 C 0.2196(3) 1.05329(18) 0.27102(16)
H10 H 0.1438 1.0301 0.2218
C23 C 0.2280(3) 1.14458(19) 0.31493(17)
H11 H 0.1577 1.1830 0.2956
C24 C 0.3380(4) 1.17928(19) 0.38638(17)
H12 H 0.3427 1.2410 0.4166
C25 C 0.4412(3) 1.12380(19) 0.41363(16)
H13 H 0.5176 1.1481 0.4625
C26 C 0.4348(3) 1.03293(19) 0.37061(16)
H14 H 0.5074 0.9959 0.3899
C27 C 0.2205(4) 0.5129(2) 0.41094(17)
C28 C 0.3185(4) 0.5487(2) 0.48620(19)
H15 H 0.4049 0.6048 0.4918
C29 C 0.2910(5) 0.5028(3) 0.5538(2)
H16 H 0.3581 0.5283 0.6054
C30 C 0.1674(5) 0.4208(3) 0.5465(2)
H17 H 0.1490 0.3902 0.5929
C31 C 0.0705(5) 0.3831(3) 0.4717(2)
H18 H -0.0140 0.3260 0.4664
C32 C 0.0965(4) 0.4287(2) 0.4039(2)
H19 H 0.0294 0.4025 0.3525
C33 C 0.2467(3) 0.32251(17) 0.02173(16)
C34 C 0.1420(3) 0.23347(19) 0.0282(2)
H20 H 0.0660 0.2344 0.0600
C35 C 0.1491(4) 0.1437(2) -0.0117(2)
H21 H 0.0777 0.0835 -0.0072
C36 C 0.2595(4) 0.14147(19) -0.05791(19)
H22 H 0.2635 0.0798 -0.0851
C37 C 0.3637(3) 0.22825(19) -0.06462(17)
H23 H 0.4398 0.2266 -0.0962
C38 C 0.3571(3) 0.31866(18) -0.02498(16)
H24 H 0.4290 0.3784 -0.0299
C39 C 0.2666(3) 0.79224(16) -0.10564(14)
C40 C 0.3521(3) 0.75270(18) -0.15492(16)
H25 H 0.4074 0.7058 -0.1359
C41 C 0.3578(3) 0.7809(2) -0.23127(16)
H26 H 0.4163 0.7533 -0.2640
C42 C 0.2780(3) 0.8491(2) -0.25936(17)
H27 H 0.2813 0.8685 -0.3115
C43 C 0.1929(3) 0.88926(19) -0.21115(17)
H28 H 0.1383 0.9363 -0.2305
C44 C 0.1869(3) 0.86145(18) -0.13508(16)
H29 H 0.1284 0.8896 -0.1027
C45 C 0.0574(3) 0.39679(17) -0.11863(16)
H30 H -0.0375 0.4108 -0.1506
H31 H 0.0231 0.3452 -0.0846
C46 C 0.1422(3) 0.35532(18) -0.17639(15)
C47 C 0.0815(3) 0.25552(19) -0.21027(17)
H32 H -0.0055 0.2165 -0.1938
C48 C 0.1463(3) 0.2126(2) -0.26756(18)
H33 H 0.1026 0.1451 -0.2911
C49 C 0.2756(3) 0.2694(2) -0.29007(17)
C50 C 0.3407(3) 0.3679(2) -0.25545(17)
H34 H 0.4310 0.4057 -0.2701
C51 C 0.2731(3) 0.4108(2) -0.19937(17)
H35 H 0.3163 0.4786 -0.1764
C52 C 0.3369(5) 0.2242(4) -0.3523(2)
loop_
_geom_bond_atom_site_label_1
_geom_bond_atom_site_label_2
_geom_bond_site_symmetry_1
_geom_bond_site_symmetry_2
N1 C1 1_555 1_555
N2 H1 1_555 1_555
N3 C11 1_555 1_555
N4 C16 1_555 1_555
N5 C52 1_555 1_555
C1 C2 1_555 1_555
C2 H2 1_555 1_555
C3 C2 1_555 1_555
H3 C3 1_555 1_555
C4 N1 1_555 1_555
C5 C4 1_555 1_555
C6 N2 1_555 1_555
C7 C6 1_555 1_555
H4 C7 1_555 1_555
C8 C7 1_555 1_555
H5 C8 1_555 1_555
C9 N2 1_555 1_555
C10 C9 1_555 1_555
C11 C10 1_555 1_555
C12 C11 1_555 1_555
H6 C12 1_555 1_555
C13 C12 1_555 1_555
H7 C13 1_555 1_555
C14 N3 1_555 1_555
C15 C14 1_555 1_555
C16 C15 1_555 1_555
C17 C16 1_555 1_555
H8 C17 1_555 1_555
C18 C17 1_555 1_555
C19 N4 1_555 1_555
H9 C19 1_555 1_555
C20 C1 1_555 1_555
C21 C5 1_555 1_555
C22 C21 1_555 1_555
H10 C22 1_555 1_555
C23 C22 1_555 1_555
H11 C23 1_555 1_555
C24 C23 1_555 1_555
H12 C24 1_555 1_555
C25 C24 1_555 1_555
H13 C25 1_555 1_555
C26 C21 1_555 1_555
H14 C26 1_555 1_555
C27 C10 1_555 1_555
C28 C27 1_555 1_555
H15 C28 1_555 1_555
C29 C28 1_555 1_555
H16 C29 1_555 1_555
C30 C29 1_555 1_555
H17 C30 1_555 1_555
C31 C30 1_555 1_555
H18 C31 1_555 1_555
C32 C27 1_555 1_555
H19 C32 1_555 1_555
C33 C15 1_555 1_555
C34 C33 1_555 1_555
H20 C34 1_555 1_555
C35 C34 1_555 1_555
H21 C35 1_555 1_555
C36 C35 1_555 1_555
H22 C36 1_555 1_555
C37 C36 1_555 1_555
H23 C37 1_555 1_555
C38 C33 1_555 1_555
H24 C38 1_555 1_555
C39 C20 1_555 1_555
C40 C39 1_555 1_555
H25 C40 1_555 1_555
C41 C40 1_555 1_555
H26 C41 1_555 1_555
C42 C41 1_555 1_555
H27 C42 1_555 1_555
C43 C42 1_555 1_555
H28 C43 1_555 1_555
C44 C39 1_555 1_555
H29 C44 1_555 1_555
C45 N4 1_555 1_555
H30 C45 1_555 1_555
H31 C45 1_555 1_555
C46 C45 1_555 1_555
C47 C46 1_555 1_555
H32 C47 1_555 1_555
C48 C47 1_555 1_555
H33 C48 1_555 1_555
C49 C48 1_555 1_555
C50 C49 1_555 1_555
H34 C50 1_555 1_555
C51 C46 1_555 1_555
H35 C51 1_555 1_555
C52 C49 1_555 1_555
C3 C4 1_555 1_555
C5 C6 1_555 1_555
C8 C9 1_555 1_555
C13 C14 1_555 1_555
C18 C19 1_555 1_555
C18 C20 1_555 1_555
C25 C26 1_555 1_555
C31 C32 1_555 1_555
C37 C38 1_555 1_555
C43 C44 1_555 1_555
C50 C51 1_555 1_555

#END
