
#######################################################################
#
#                 Cambridge Crystallographic Data Centre
#                                CCDC 
#
#######################################################################
#
# If this CIF has been generated from an entry in the Cambridge 
# Structural Database, then it will include bibliographic, chemical, 
# crystal, experimental, refinement or atomic coordinate data resulting 
# from the CCDC's data processing and validation procedures.
#
#######################################################################

data_JAJWOJ
_chemical_formula_moiety         'C26 H30 Br2 N4 O2'
_chemical_name_systematic        
6-bromo-3-(6-bromo-1-hexyl-2-oxo-1,2-dihydro-3H-pyrrolo[2,3-b]pyridin-3-ylidene)-1-hexyl-1,3-dihydro-2H-pyrrolo[2,3-b]pyridin-2-one
_symmetry_cell_setting           monoclinic
_symmetry_space_group_name_H-M   'P 21/n'
_symmetry_Int_Tables_number      14
_space_group_name_Hall           '-P 2yn'
loop_
_symmetry_equiv_pos_site_id
_symmetry_equiv_pos_as_xyz
1 x,y,z
2 1/2-x,1/2+y,1/2-z
3 -x,-y,-z
4 1/2+x,1/2-y,1/2+z
_cell_length_a                   4.64320(8)
_cell_length_b                   34.6471(6)
_cell_length_c                   7.77338(14)
_cell_angle_alpha                90
_cell_angle_beta                 93.4634(9)
_cell_angle_gamma                90
_cell_volume                     1248.25
_exptl_crystal_colour            red
_exptl_crystal_description       block
_cell_formula_units_Z            2
loop_
_atom_site_label
_atom_site_type_symbol
_atom_site_fract_x
_atom_site_fract_y
_atom_site_fract_z
Br1 Br 0.94784(10) 0.11861(2) 0.18037(6)
O1 O -0.0417(7) 0.04013(9) 0.7930(4)
N1 N 0.2992(7) 0.07023(10) 0.6413(4)
N2 N 0.6078(7) 0.09025(10) 0.4266(5)
C1 C 0.0973(9) 0.04208(11) 0.6660(5)
C2 C 0.0857(9) 0.01597(11) 0.5080(5)
C3 C 0.2917(8) 0.03343(11) 0.3933(5)
C4 C 0.4133(9) 0.06584(12) 0.4818(5)
C5 C 0.6877(9) 0.08254(12) 0.2685(5)
C6 C 0.5921(9) 0.05207(12) 0.1664(6)
H1 H 0.6612 0.0483 0.0578
C7 C 0.3892(9) 0.02699(12) 0.2301(6)
H2 H 0.3199 0.0062 0.1642
C8 C 0.3678(9) 0.10209(12) 0.7609(5)
H3 H 0.5757 0.1048 0.7762
H4 H 0.2957 0.0959 0.8722
C9 C 0.2382(10) 0.14039(12) 0.6982(6)
H5 H 0.3087 0.1466 0.5865
H6 H 0.0300 0.1380 0.6845
C10 C 0.3163(11) 0.17278(13) 0.8241(6)
H7 H 0.5247 0.1743 0.8410
H8 H 0.2402 0.1667 0.9344
C11 C 0.2003(12) 0.21204(13) 0.7633(7)
H9 H 0.2788 0.2182 0.6539
H10 H -0.0078 0.2104 0.7445
C12 C 0.2738(15) 0.24435(15) 0.8900(8)
H11 H 0.1892 0.2384 0.9980
H12 H 0.4815 0.2451 0.9122
C13 C 0.1716(19) 0.28389(16) 0.8308(9)
H13 H 0.2264 0.3026 0.9178
H14 H 0.2582 0.2904 0.7256
H15 H -0.0345 0.2837 0.8116
Br1B Br -0.94784(10) -0.11861(2) 0.81963(6)
O1B O 0.0417(7) -0.04013(9) 0.2070(4)
N1B N -0.2992(7) -0.07023(10) 0.3587(4)
N2B N -0.6078(7) -0.09025(10) 0.5734(5)
C1B C -0.0973(9) -0.04208(11) 0.3340(5)
C2B C -0.0857(9) -0.01597(11) 0.4920(5)
C3B C -0.2917(8) -0.03343(11) 0.6067(5)
C4B C -0.4133(9) -0.06584(12) 0.5182(5)
C5B C -0.6877(9) -0.08254(12) 0.7315(5)
C6B C -0.5921(9) -0.05207(12) 0.8336(6)
H1B H -0.6612 -0.0483 0.9422
C7B C -0.3892(9) -0.02699(12) 0.7699(6)
H2B H -0.3199 -0.0062 0.8358
C8B C -0.3678(9) -0.10209(12) 0.2391(5)
H3B H -0.5757 -0.1048 0.2238
H4B H -0.2957 -0.0959 0.1278
C9B C -0.2382(10) -0.14039(12) 0.3018(6)
H5B H -0.3087 -0.1466 0.4135
H6B H -0.0300 -0.1380 0.3155
C10B C -0.3163(11) -0.17278(13) 0.1759(6)
H7B H -0.5247 -0.1743 0.1590
H8B H -0.2402 -0.1667 0.0656
C11B C -0.2003(12) -0.21204(13) 0.2367(7)
H9B H -0.2788 -0.2182 0.3461
H10B H 0.0078 -0.2104 0.2555
C12B C -0.2738(15) -0.24435(15) 0.1100(8)
H11B H -0.1892 -0.2384 0.0020
H12B H -0.4815 -0.2451 0.0878
C13B C -0.1716(19) -0.28389(16) 0.1692(9)
H13B H -0.2264 -0.3026 0.0822
H14B H -0.2582 -0.2904 0.2744
H15B H 0.0345 -0.2837 0.1884
loop_
_geom_bond_atom_site_label_1
_geom_bond_atom_site_label_2
_geom_bond_site_symmetry_1
_geom_bond_site_symmetry_2
Br1 C5 1_555 1_555
O1 C1 1_555 1_555
N1 C1 1_555 1_555
N2 C4 1_555 1_555
C1 C2 1_555 1_555
C2 C3 1_555 1_555
C3 C4 1_555 1_555
C4 N1 1_555 1_555
C5 N2 1_555 1_555
C6 C5 1_555 1_555
H1 C6 1_555 1_555
C7 C3 1_555 1_555
H2 C7 1_555 1_555
C8 N1 1_555 1_555
H3 C8 1_555 1_555
H4 C8 1_555 1_555
C9 C8 1_555 1_555
H5 C9 1_555 1_555
H6 C9 1_555 1_555
C10 C9 1_555 1_555
H7 C10 1_555 1_555
H8 C10 1_555 1_555
C11 C10 1_555 1_555
H9 C11 1_555 1_555
H10 C11 1_555 1_555
C12 C11 1_555 1_555
H11 C12 1_555 1_555
H12 C12 1_555 1_555
C13 C12 1_555 1_555
H13 C13 1_555 1_555
H14 C13 1_555 1_555
H15 C13 1_555 1_555
Br1B C5B 1_555 1_555
O1B C1B 1_555 1_555
N1B C1B 1_555 1_555
N2B C4B 1_555 1_555
C1B C2B 1_555 1_555
C2B C2 1_555 1_555
C3B C2B 1_555 1_555
C4B N1B 1_555 1_555
C5B N2B 1_555 1_555
C6B C5B 1_555 1_555
H1B C6B 1_555 1_555
C7B C3B 1_555 1_555
H2B C7B 1_555 1_555
C8B N1B 1_555 1_555
H3B C8B 1_555 1_555
H4B C8B 1_555 1_555
C9B C8B 1_555 1_555
H5B C9B 1_555 1_555
H6B C9B 1_555 1_555
C10B C9B 1_555 1_555
H7B C10B 1_555 1_555
H8B C10B 1_555 1_555
C11B C10B 1_555 1_555
H9B C11B 1_555 1_555
H10B C11B 1_555 1_555
C12B C11B 1_555 1_555
H11B C12B 1_555 1_555
H12B C12B 1_555 1_555
C13B C12B 1_555 1_555
H13B C13B 1_555 1_555
H14B C13B 1_555 1_555
H15B C13B 1_555 1_555
C6 C7 1_555 1_555
C3B C4B 1_555 1_555
C6B C7B 1_555 1_555

#END
