
#######################################################################
#
#                 Cambridge Crystallographic Data Centre
#                                CCDC 
#
#######################################################################
#
# If this CIF has been generated from an entry in the Cambridge 
# Structural Database, then it will include bibliographic, chemical, 
# crystal, experimental, refinement or atomic coordinate data resulting 
# from the CCDC's data processing and validation procedures.
#
#######################################################################

data_JAKKIS
_chemical_formula_moiety         'C18 H24 Ca1 Cl2 N6 O8'
_chemical_name_systematic        
tris(o-phenylenediamine)-bis(perchlorato)-calcium
_symmetry_cell_setting           triclinic
_symmetry_space_group_name_H-M   'P -1'
_symmetry_Int_Tables_number      2
_space_group_name_Hall           '-P 1'
loop_
_symmetry_equiv_pos_site_id
_symmetry_equiv_pos_as_xyz
1 x,y,z
2 -x,-y,-z
_cell_length_a                   8.511(3)
_cell_length_b                   10.414(3)
_cell_length_c                   14.889(5)
_cell_angle_alpha                105.059(5)
_cell_angle_beta                 94.2121(15)
_cell_angle_gamma                111.565(4)
_cell_volume                     1163.98
_exptl_crystal_colour            colorless
_exptl_crystal_description       prism
_cell_formula_units_Z            2
loop_
_atom_site_label
_atom_site_type_symbol
_atom_site_fract_x
_atom_site_fract_y
_atom_site_fract_z
Ca1 Ca 0.82045(5) 0.16120(4) 0.80612(3)
Cl1 Cl 0.40485(6) 0.09623(5) 0.67162(3)
Cl2 Cl 1.17810(6) 0.29421(5) 0.99450(3)
O1 O 0.50682(19) 0.05123(16) 0.72970(10)
O2 O 0.22547(19) 0.01861(16) 0.67098(11)
O3 O 0.4504(2) 0.24948(17) 0.71326(13)
O4 O 0.4393(3) 0.0658(2) 0.57792(11)
O5 O 1.03386(18) 0.31283(16) 0.94831(10)
O6 O 1.2933(2) 0.2846(2) 0.92969(12)
O7 O 1.2639(3) 0.41736(17) 1.07741(11)
O8 O 1.1132(2) 0.16286(16) 1.02057(11)
N1 N 0.6905(3) 0.01630(18) 0.91831(12)
N2 N 0.6467(3) 0.26460(19) 0.91843(12)
N3 N 0.7889(3) 0.00643(18) 0.63299(12)
N4 N 0.9386(3) -0.03755(19) 0.78492(12)
N5 N 0.8485(3) 0.38644(19) 0.75647(12)
N6 N 1.1117(3) 0.29841(19) 0.75189(12)
C1 C 0.6969(3) 0.1145(2) 1.00794(14)
C2 C 0.6697(3) 0.2389(2) 1.00746(14)
C3 C 0.6753(3) 0.3365(3) 1.09296(15)
C4 C 0.7148(3) 0.3150(3) 1.17877(15)
C5 C 0.7469(3) 0.1929(3) 1.17912(15)
C6 C 0.7346(3) 0.0922(3) 1.09354(14)
C7 C 0.7172(3) -0.1354(2) 0.64379(14)
C8 C 0.7945(3) -0.1587(3) 0.72070(14)
C9 C 0.7238(3) -0.2920(3) 0.73700(15)
C10 C 0.5746(3) -0.4013(3) 0.67811(16)
C11 C 0.4968(3) -0.3773(3) 0.60223(16)
C12 C 0.5686(3) -0.2452(3) 0.58468(15)
C13 C 0.9126(3) 0.3645(2) 0.66931(14)
C14 C 1.0497(3) 0.3208(2) 0.66766(14)
C15 C 1.1094(3) 0.2877(3) 0.58366(15)
C16 C 1.0287(3) 0.2934(3) 0.50063(15)
C17 C 0.8908(3) 0.3343(3) 0.50201(15)
C18 C 0.8343(3) 0.3715(3) 0.58679(15)
H1 H 0.5697 -0.0511 0.8898
H2 H 0.7560 -0.0419 0.9279
H3 H 0.6860 0.3702 0.9286
H4 H 0.5231 0.2175 0.8890
H5 H 0.6517 0.4188 1.0927
H6 H 0.7096 0.0205 0.5881
H7 H 0.9013 0.0269 0.6126
H8 H 0.7201 0.3830 1.2368
H9 H 1.0433 -0.0137 0.7566
H10 H 0.9636 -0.0552 0.8455
H11 H 0.7769 0.1786 1.2374
H12 H 0.7355 0.3926 0.7463
H13 H 0.9300 0.4764 0.8052
H14 H 0.7521 0.0073 1.0937
H15 H 1.1841 0.3918 0.8007
H16 H 1.1786 0.2377 0.7383
H17 H 0.7777 -0.3085 0.7885
H18 H 0.5258 -0.4921 0.6897
H19 H 0.3943 -0.4516 0.5623
H20 H 0.5160 -0.2298 0.5322
H21 H 1.2050 0.2612 0.5829
H22 H 1.0682 0.2693 0.4431
H23 H 0.8348 0.3368 0.4453
H24 H 0.7418 0.4019 0.5880
loop_
_geom_bond_atom_site_label_1
_geom_bond_atom_site_label_2
_geom_bond_site_symmetry_1
_geom_bond_site_symmetry_2
Ca1 O1 1_555 1_555
Cl1 O1 1_555 1_555
Cl2 O5 1_555 1_555
O2 Cl1 1_555 1_555
O3 Cl1 1_555 1_555
O4 Cl1 1_555 1_555
O5 Ca1 1_555 1_555
O6 Cl2 1_555 1_555
O7 Cl2 1_555 1_555
O8 Cl2 1_555 1_555
N1 Ca1 1_555 1_555
N2 Ca1 1_555 1_555
N3 Ca1 1_555 1_555
N4 Ca1 1_555 1_555
N5 Ca1 1_555 1_555
N6 Ca1 1_555 1_555
C1 N1 1_555 1_555
C2 N2 1_555 1_555
C3 C2 1_555 1_555
C4 C3 1_555 1_555
C5 C4 1_555 1_555
C6 C1 1_555 1_555
C7 N3 1_555 1_555
C8 N4 1_555 1_555
C9 C8 1_555 1_555
C10 C9 1_555 1_555
C11 C10 1_555 1_555
C12 C7 1_555 1_555
C13 N5 1_555 1_555
C14 N6 1_555 1_555
C15 C14 1_555 1_555
C16 C15 1_555 1_555
C17 C16 1_555 1_555
C18 C13 1_555 1_555
H1 N1 1_555 1_555
H2 N1 1_555 1_555
H3 N2 1_555 1_555
H4 N2 1_555 1_555
H5 C3 1_555 1_555
H6 N3 1_555 1_555
H7 N3 1_555 1_555
H8 C4 1_555 1_555
H9 N4 1_555 1_555
H10 N4 1_555 1_555
H11 C5 1_555 1_555
H12 N5 1_555 1_555
H13 N5 1_555 1_555
H14 C6 1_555 1_555
H15 N6 1_555 1_555
H16 N6 1_555 1_555
H17 C9 1_555 1_555
H18 C10 1_555 1_555
H19 C11 1_555 1_555
H20 C12 1_555 1_555
H21 C15 1_555 1_555
H22 C16 1_555 1_555
H23 C17 1_555 1_555
H24 C18 1_555 1_555
C1 C2 1_555 1_555
C5 C6 1_555 1_555
C7 C8 1_555 1_555
C11 C12 1_555 1_555
C13 C14 1_555 1_555
C17 C18 1_555 1_555

#END
