
#######################################################################
#
#                 Cambridge Crystallographic Data Centre
#                                CCDC 
#
#######################################################################
#
# If this CIF has been generated from an entry in the Cambridge 
# Structural Database, then it will include bibliographic, chemical, 
# crystal, experimental, refinement or atomic coordinate data resulting 
# from the CCDC's data processing and validation procedures.
#
#######################################################################

data_JAKSEW
_chemical_formula_moiety         'C22 H30 Br1 F3 O4'
_chemical_name_systematic        
'6-bromo-17-oxo-5-(trifluoromethoxy)androstan-3-yl acetate'
_symmetry_cell_setting           orthorhombic
_symmetry_space_group_name_H-M   'P 21 21 21'
_symmetry_Int_Tables_number      19
_space_group_name_Hall           'P 2ac 2ab'
loop_
_symmetry_equiv_pos_site_id
_symmetry_equiv_pos_as_xyz
1 x,y,z
2 1/2-x,-y,1/2+z
3 -x,1/2+y,1/2-z
4 1/2+x,1/2-y,-z
_cell_length_a                   8.6642(17)
_cell_length_b                   10.538(2)
_cell_length_c                   25.174(5)
_cell_angle_alpha                90
_cell_angle_beta                 90
_cell_angle_gamma                90
_cell_volume                     2298.47
_exptl_crystal_colour            colorless
_exptl_crystal_description       strip
_cell_formula_units_Z            4
loop_
_atom_site_label
_atom_site_type_symbol
_atom_site_fract_x
_atom_site_fract_y
_atom_site_fract_z
Br1 Br 0.35789(10) 0.39028(9) 0.89361(4)
C1 C 0.6376(14) -0.2263(8) 0.9481(3)
C2 C 0.4756(12) -0.2387(8) 0.9274(4)
H1 H 0.4090 -0.2745 0.9545
H2 H 0.4736 -0.2941 0.8966
C3 C 0.4198(10) -0.1037(8) 0.9120(3)
H3 H 0.3622 -0.1043 0.8790
H4 H 0.3572 -0.0660 0.9398
C4 C 0.5761(9) -0.0351(6) 0.9059(3)
H5 H 0.6222 -0.0672 0.8730
C5 C 0.6766(10) -0.0833(6) 0.9508(3)
C6 C 0.6209(11) -0.0430(8) 1.0073(3)
H6 H 0.6349 0.0468 1.0117
H7 H 0.6799 -0.0874 1.0337
H8 H 0.5136 -0.0636 1.0113
C7 C 0.8465(12) -0.0469(8) 0.9420(3)
H9 H 0.8856 -0.0875 0.9101
H10 H 0.9086 -0.0744 0.9719
C8 C 0.8553(9) 0.0985(7) 0.9361(3)
H11 H 0.8315 0.1369 0.9702
H12 H 0.9604 0.1217 0.9271
C9 C 0.7463(8) 0.1537(6) 0.8942(3)
H13 H 0.7803 0.1183 0.8601
C10 C 0.5762(8) 0.1101(7) 0.9013(3)
H14 H 0.5353 0.1465 0.9342
C11 C 0.4765(8) 0.1520(7) 0.8556(3)
H15 H 0.3701 0.1303 0.8634
H16 H 0.5068 0.1053 0.8241
C12 C 0.4860(9) 0.2947(8) 0.8437(3)
H17 H 0.4407 0.3071 0.8084
C13 C 0.6516(9) 0.3446(6) 0.8408(2)
C14 C 0.7583(7) 0.3018(6) 0.8881(3)
C15 C 0.7132(9) 0.3651(8) 0.9413(3)
H18 H 0.6918 0.4534 0.9354
H19 H 0.7969 0.3569 0.9661
H20 H 0.6230 0.3244 0.9554
C16 C 0.9252(9) 0.3411(7) 0.8737(3)
H21 H 0.9578 0.2950 0.8423
H22 H 0.9938 0.3179 0.9026
C17 C 0.9388(10) 0.4876(7) 0.8630(3)
H23 H 0.9149 0.5338 0.8953
H24 H 1.0439 0.5080 0.8528
C18 C 0.8290(10) 0.5281(6) 0.8192(3)
H25 H 0.8630 0.4919 0.7853
C19 C 0.6659(10) 0.4864(7) 0.8308(3)
H26 H 0.6007 0.5092 0.8009
H27 H 0.6285 0.5318 0.8617
C20 C 0.6820(8) 0.2781(7) 0.7443(4)
C21 C 0.8336(9) 0.7170(9) 0.7687(4)
C22 C 0.8400(11) 0.8622(7) 0.7726(3)
H28 H 0.9321 0.8870 0.7911
H29 H 0.7512 0.8924 0.7916
H30 H 0.8407 0.8980 0.7376
F1 F 0.6023(9) 0.3814(7) 0.7302(2)
F2 F 0.5855(9) 0.1834(8) 0.7328(3)
F3 F 0.7986(9) 0.2695(9) 0.7124(2)
O1 O 0.8211(11) 0.6634(7) 0.7283(3)
O2 O 0.8341(7) 0.6655(5) 0.81628(19)
O3 O 0.7212(6) 0.2757(5) 0.79478(19)
O4 O 0.7245(9) -0.3098(6) 0.9614(3)
F4? F 0.5406(13) 0.2697(19) 0.7322(5)
F5? F 0.749(2) 0.1850(15) 0.7171(4)
F6? F 0.733(2) 0.3778(14) 0.7188(4)
loop_
_geom_bond_atom_site_label_1
_geom_bond_atom_site_label_2
_geom_bond_site_symmetry_1
_geom_bond_site_symmetry_2
Br1 C12 1_555 1_555
C1 C2 1_555 1_555
C2 H1 1_555 1_555
H2 C2 1_555 1_555
C3 C2 1_555 1_555
H3 C3 1_555 1_555
H4 C3 1_555 1_555
C4 C3 1_555 1_555
H5 C4 1_555 1_555
C5 C1 1_555 1_555
C6 C5 1_555 1_555
H6 C6 1_555 1_555
H7 C6 1_555 1_555
H8 C6 1_555 1_555
C7 C5 1_555 1_555
H9 C7 1_555 1_555
H10 C7 1_555 1_555
C8 C7 1_555 1_555
H11 C8 1_555 1_555
H12 C8 1_555 1_555
C9 C8 1_555 1_555
H13 C9 1_555 1_555
C10 C4 1_555 1_555
H14 C10 1_555 1_555
C11 C10 1_555 1_555
H15 C11 1_555 1_555
H16 C11 1_555 1_555
C12 C11 1_555 1_555
H17 C12 1_555 1_555
C13 C12 1_555 1_555
C14 C9 1_555 1_555
C15 C14 1_555 1_555
H18 C15 1_555 1_555
H19 C15 1_555 1_555
H20 C15 1_555 1_555
C16 C14 1_555 1_555
H21 C16 1_555 1_555
H22 C16 1_555 1_555
C17 C16 1_555 1_555
H23 C17 1_555 1_555
H24 C17 1_555 1_555
C18 C17 1_555 1_555
H25 C18 1_555 1_555
C19 C13 1_555 1_555
H26 C19 1_555 1_555
H27 C19 1_555 1_555
C20 F1 1_555 1_555
C21 C22 1_555 1_555
C22 H28 1_555 1_555
H29 C22 1_555 1_555
H30 C22 1_555 1_555
F2 C20 1_555 1_555
F3 C20 1_555 1_555
O1 C21 1_555 1_555
O2 C18 1_555 1_555
O3 C13 1_555 1_555
O4 C1 1_555 1_555
C4 C5 1_555 1_555
C9 C10 1_555 1_555
C13 C14 1_555 1_555
C18 C19 1_555 1_555
C20 O3 1_555 1_555
C21 O2 1_555 1_555

#END
