
#######################################################################
#
#                 Cambridge Crystallographic Data Centre
#                                CCDC 
#
#######################################################################
#
# If this CIF has been generated from an entry in the Cambridge 
# Structural Database, then it will include bibliographic, chemical, 
# crystal, experimental, refinement or atomic coordinate data resulting 
# from the CCDC's data processing and validation procedures.
#
#######################################################################

data_JALBOQ
_chemical_name_common            
'(E)-(2-(4-chlorophenyl)-1 fluorovinyl)diphenyl phosphine borane'
_chemical_formula_moiety         'C20 H18 B1 Cl1 F1 P1'
_chemical_name_systematic        
(E)-((2-(4-chlorophenyl)-1-fluoroethenyl)(diphenyl)phosphane)(trihydrido)boron
_symmetry_cell_setting           triclinic
_symmetry_space_group_name_H-M   'P -1'
_symmetry_Int_Tables_number      2
_space_group_name_Hall           '-P 1'
loop_
_symmetry_equiv_pos_site_id
_symmetry_equiv_pos_as_xyz
1 x,y,z
2 -x,-y,-z
_cell_length_a                   8.8929(2)
_cell_length_b                   9.3285(2)
_cell_length_c                   12.0260(3)
_cell_angle_alpha                68.3220(10)
_cell_angle_beta                 83.0170(10)
_cell_angle_gamma                80.7320(10)
_cell_volume                     912.886
_exptl_crystal_colour            colorless
_exptl_crystal_description       block
_cell_formula_units_Z            2
loop_
_atom_site_label
_atom_site_type_symbol
_atom_site_fract_x
_atom_site_fract_y
_atom_site_fract_z
P1 P 0.23347(2) 0.31741(2) 0.83278(2)
Cl1 Cl 0.89017(3) -0.07500(3) 0.39079(2)
F1 F 0.35755(6) 0.40482(6) 0.60759(4)
C1 C 0.56451(8) 0.10740(8) 0.64144(6)
C2 C 0.04993(7) 0.35727(8) 0.77082(6)
C3 C 0.27617(8) 0.49415(8) 0.84408(6)
C4 C -0.04974(8) 0.24473(9) 0.81916(7)
C5 C 0.46033(8) 0.15453(8) 0.72926(6)
C6 C 0.36598(8) 0.28554(8) 0.71547(6)
C7 C 0.66776(9) -0.02740(9) 0.68599(7)
C8 C 0.42915(9) 0.51396(9) 0.84110(8)
C9 C 0.01025(8) 0.49092(8) 0.67176(7)
C10 C 0.16124(9) 0.59958(10) 0.87127(8)
C11 C 0.56565(10) 0.18621(9) 0.51694(7)
C12 C -0.18753(9) 0.26495(10) 0.76840(8)
C13 C 0.76652(9) -0.00383(9) 0.48724(7)
C14 C -0.12746(9) 0.50962(9) 0.62117(7)
C15 C 0.76911(10) -0.08313(9) 0.60989(8)
C16 C 0.20020(12) 0.72289(10) 0.89617(8)
C17 C 0.66629(10) 0.13073(10) 0.43996(7)
C18 C 0.46650(11) 0.63720(10) 0.86664(9)
C19 C 0.35225(12) 0.74055(10) 0.89495(8)
C20 C -0.22556(9) 0.39647(11) 0.66901(8)
B1 B 0.25276(10) 0.14669(11) 0.98325(8)
H1 H 0.4611(14) 0.0789(15) 0.8113(12)
H2 H 0.4952(17) 0.2755(17) 0.4831(13)
H3 H 0.6634(16) 0.1846(17) 0.3549(13)
H4 H 0.6723(16) -0.0810(15) 0.7713(13)
H5 H 0.8365(17) -0.1781(18) 0.6414(14)
H6 H 0.5079(16) 0.4438(16) 0.8209(12)
H7 H 0.0566(18) 0.5866(19) 0.8713(15)
H8 H 0.1221(18) 0.7966(18) 0.9127(14)
H9 H 0.5731(19) 0.6480(19) 0.8633(15)
H10 H 0.3775(19) 0.8253(19) 0.9142(15)
H11 H -0.0267(15) 0.1562(15) 0.8865(12)
H12 H -0.2537(16) 0.1826(16) 0.8036(13)
H13 H -0.1525(16) 0.5980(16) 0.5537(13)
H14 H 0.0782(15) 0.5689(16) 0.6380(12)
H15 H -0.3179(17) 0.4061(17) 0.6348(14)
H16 H 0.2253(16) 0.0423(16) 0.9720(13)
H17 H 0.1713(18) 0.1868(18) 1.0470(14)
H18 H 0.3685(19) 0.1359(19) 1.0028(15)
loop_
_geom_bond_atom_site_label_1
_geom_bond_atom_site_label_2
_geom_bond_site_symmetry_1
_geom_bond_site_symmetry_2
P1 C2 1_555 1_555
Cl1 C13 1_555 1_555
F1 C6 1_555 1_555
C1 C5 1_555 1_555
C2 C4 1_555 1_555
C3 P1 1_555 1_555
C4 C12 1_555 1_555
C5 C6 1_555 1_555
C6 P1 1_555 1_555
C7 C1 1_555 1_555
C8 C3 1_555 1_555
C9 C2 1_555 1_555
C10 C3 1_555 1_555
C11 C1 1_555 1_555
C12 C20 1_555 1_555
C13 C15 1_555 1_555
C14 C9 1_555 1_555
C15 C7 1_555 1_555
C16 C10 1_555 1_555
C17 C11 1_555 1_555
C18 C8 1_555 1_555
C19 C16 1_555 1_555
C20 C14 1_555 1_555
B1 P1 1_555 1_555
H1 C5 1_555 1_555
H2 C11 1_555 1_555
H3 C17 1_555 1_555
H4 C7 1_555 1_555
H5 C15 1_555 1_555
H6 C8 1_555 1_555
H7 C10 1_555 1_555
H8 C16 1_555 1_555
H9 C18 1_555 1_555
H10 C19 1_555 1_555
H11 C4 1_555 1_555
H12 C12 1_555 1_555
H13 C14 1_555 1_555
H14 C9 1_555 1_555
H15 C20 1_555 1_555
H16 B1 1_555 1_555
H17 B1 1_555 1_555
H18 B1 1_555 1_555
C13 C17 1_555 1_555
C18 C19 1_555 1_555

#END
