
#######################################################################
#
#                 Cambridge Crystallographic Data Centre
#                                CCDC 
#
#######################################################################
#
# If this CIF has been generated from an entry in the Cambridge 
# Structural Database, then it will include bibliographic, chemical, 
# crystal, experimental, refinement or atomic coordinate data resulting 
# from the CCDC's data processing and validation procedures.
#
#######################################################################

data_JALCII
_chemical_formula_moiety         'C24 H24 N2 O4'
_chemical_name_systematic        
dl-2,3-Di-isobutyryloxy-2,3-diphenylsuccinonitrile
_symmetry_cell_setting           monoclinic
_symmetry_space_group_name_H-M   'P 21/c'
_symmetry_Int_Tables_number      14
_space_group_name_Hall           '-P 2ybc'
loop_
_symmetry_equiv_pos_site_id
_symmetry_equiv_pos_as_xyz
1 x,y,z
2 -x,1/2+y,1/2-z
3 -x,-y,-z
4 x,1/2-y,1/2+z
_cell_length_a                   8.987
_cell_length_b                   14.449
_cell_length_c                   17.985
_cell_angle_alpha                90
_cell_angle_beta                 102.22
_cell_angle_gamma                90
_cell_volume                     2282.49
_cell_formula_units_Z            4
loop_
_atom_site_label
_atom_site_type_symbol
_atom_site_fract_x
_atom_site_fract_y
_atom_site_fract_z
O1 O 0.5167(3) 0.4643(2) 0.6849(2)
O2 O 0.6647(3) 0.3100(3) 0.6692(2)
O3 O 0.3598(4) 0.5110(3) 0.7603(2)
O4 O 0.8501(4) 0.2811(2) 0.6061(2)
N1 N 0.5172(5) 0.3070(3) 0.8249(2)
N2 N 0.8317(5) 0.5057(3) 0.6185(2)
C1 C 0.6314(5) 0.4338(3) 0.7492(2)
C2 C 0.7521(5) 0.3840(3) 0.7103(2)
C3 C 0.5634(5) 0.3631(3) 0.7920(2)
C4 C 0.7977(5) 0.4514(3) 0.6570(2)
C5 C 0.7019(5) 0.5128(3) 0.8003(2)
C6 C 0.8888(5) 0.3475(3) 0.7674(2)
C7 C 0.7584(6) 0.4992(3) 0.8760(3)
C8 C 0.8820(5) 0.2622(3) 0.8004(3)
C9 C 0.8302(6) 0.5693(4) 0.9232(3)
C10 C 1.0045(6) 0.2290(4) 0.8535(3)
C11 C 0.8432(6) 0.6546(4) 0.8922(3)
C12 C 1.1340(6) 0.2805(4) 0.8733(3)
C13 C 0.7867(6) 0.6713(3) 0.8170(3)
C14 C 1.1447(5) 0.3644(4) 0.8415(3)
C15 C 0.7144(6) 0.6002(3) 0.7708(3)
C16 C 1.0212(5) 0.3993(3) 0.7879(3)
C17 C 0.3818(6) 0.5007(3) 0.6973(3)
C18 C 0.7302(6) 0.2602(3) 0.6209(3)
C19 C 0.2731(6) 0.5193(4) 0.6225(3)
C20 C 0.6292(7) 0.1787(4) 0.5906(3)
C21 C 0.3429(9) 0.5816(4) 0.5766(4)
C22 C 0.5040(8) 0.2085(5) 0.5297(4)
C23 C 0.2134(7) 0.4319(4) 0.5863(3)
C24 C 0.7147(9) 0.1028(4) 0.5687(5)
loop_
_geom_bond_atom_site_label_1
_geom_bond_atom_site_label_2
_geom_bond_site_symmetry_1
_geom_bond_site_symmetry_2
O1 C1 1_555 1_555
O2 C2 1_555 1_555
O3 C17 1_555 1_555
O4 C18 1_555 1_555
N1 C3 1_555 1_555
N2 C4 1_555 1_555
C1 C2 1_555 1_555
C2 C4 1_555 1_555
C3 C1 1_555 1_555
C5 C1 1_555 1_555
C6 C2 1_555 1_555
C7 C5 1_555 1_555
C8 C6 1_555 1_555
C9 C7 1_555 1_555
C10 C8 1_555 1_555
C11 C9 1_555 1_555
C12 C10 1_555 1_555
C13 C11 1_555 1_555
C14 C12 1_555 1_555
C15 C5 1_555 1_555
C16 C6 1_555 1_555
C17 O1 1_555 1_555
C18 O2 1_555 1_555
C19 C17 1_555 1_555
C20 C18 1_555 1_555
C21 C19 1_555 1_555
C22 C20 1_555 1_555
C23 C19 1_555 1_555
C24 C20 1_555 1_555
C13 C15 1_555 1_555
C14 C16 1_555 1_555

#END
