
#######################################################################
#
#                 Cambridge Crystallographic Data Centre
#                                CCDC 
#
#######################################################################
#
# If this CIF has been generated from an entry in the Cambridge 
# Structural Database, then it will include bibliographic, chemical, 
# crystal, experimental, refinement or atomic coordinate data resulting 
# from the CCDC's data processing and validation procedures.
#
#######################################################################

data_JALKOX
_chemical_formula_moiety         'C14 H4 F5 I1'
_chemical_name_systematic        1-Iodo-4-(pentafluorophenylethynyl)benzene
_symmetry_cell_setting           monoclinic
_symmetry_space_group_name_H-M   'P 21/c'
_symmetry_Int_Tables_number      14
_space_group_name_Hall           '-P 2ybc'
loop_
_symmetry_equiv_pos_site_id
_symmetry_equiv_pos_as_xyz
1 x,y,z
2 x,1/2-y,1/2+z
3 -x,-y,-z
4 -x,1/2+y,1/2-z
_cell_length_a                   21.417(7)
_cell_length_b                   4.9672(16)
_cell_length_c                   11.692(4)
_cell_angle_alpha                90
_cell_angle_beta                 92.288(5)
_cell_angle_gamma                90
_cell_volume                     1242.83
_exptl_crystal_colour            colorless
_exptl_crystal_description       plate
_chemical_melting_point          '368-369 K'
_cell_formula_units_Z            4
_exptl_crystal_recrystallization_method hexane
loop_
_atom_site_label
_atom_site_type_symbol
_atom_site_fract_x
_atom_site_fract_y
_atom_site_fract_z
I1 I 0.046948(15) -0.45399(7) 0.66997(3)
C1 C 0.1119(2) -0.1760(11) 0.6133(4)
C2 C 0.1604(3) -0.0966(12) 0.6893(5)
H1 H 0.1638 -0.1730 0.7638
C3 C 0.2034(3) 0.0929(12) 0.6564(5)
H2 H 0.2366 0.1447 0.7079
C4 C 0.1980(3) 0.2093(11) 0.5467(4)
C5 C 0.1493(3) 0.1201(12) 0.4699(5)
H3 H 0.1462 0.1901 0.3942
C6 C 0.1070(3) -0.0649(12) 0.5036(5)
H4 H 0.0739 -0.1189 0.4522
C7 C 0.2418(3) 0.4110(12) 0.5157(5)
C8 C 0.2801(3) 0.5809(12) 0.4961(5)
C9 C 0.3251(3) 0.7835(11) 0.4755(4)
C10 C 0.3747(3) 0.8352(12) 0.5515(4)
C11 C 0.4174(3) 1.0380(12) 0.5340(5)
C12 C 0.4114(3) 1.1942(12) 0.4359(4)
C13 C 0.3632(3) 1.1464(12) 0.3584(4)
C14 C 0.3205(3) 0.9442(11) 0.3777(5)
F1 F 0.38213(17) 0.6851(8) 0.6468(3)
F2 F 0.46440(18) 1.0849(8) 0.6108(3)
F3 F 0.45191(17) 1.3925(8) 0.4188(3)
F4 F 0.35593(16) 1.3034(7) 0.2650(3)
F5 F 0.27355(17) 0.9055(7) 0.3010(3)
loop_
_geom_bond_atom_site_label_1
_geom_bond_atom_site_label_2
_geom_bond_site_symmetry_1
_geom_bond_site_symmetry_2
I1 C1 1_555 1_555
C1 C2 1_555 1_555
C2 H1 1_555 1_555
C3 C2 1_555 1_555
H2 C3 1_555 1_555
C4 C3 1_555 1_555
C5 C4 1_555 1_555
H3 C5 1_555 1_555
C6 C1 1_555 1_555
H4 C6 1_555 1_555
C7 C4 1_555 1_555
C8 C7 1_555 1_555
C9 C8 1_555 1_555
C10 C9 1_555 1_555
C11 C10 1_555 1_555
C12 C11 1_555 1_555
C13 C12 1_555 1_555
C14 C9 1_555 1_555
F1 C10 1_555 1_555
F2 C11 1_555 1_555
F3 C12 1_555 1_555
F4 C13 1_555 1_555
F5 C14 1_555 1_555
C5 C6 1_555 1_555
C13 C14 1_555 1_555

#END
