
#######################################################################
#
#                 Cambridge Crystallographic Data Centre
#                                CCDC 
#
#######################################################################
#
# If this CIF has been generated from an entry in the Cambridge 
# Structural Database, then it will include bibliographic, chemical, 
# crystal, experimental, refinement or atomic coordinate data resulting 
# from the CCDC's data processing and validation procedures.
#
#######################################################################

data_JAMMOZ
_chemical_formula_moiety         'C12 H20 N1 O1 1+,I1 1-'
_chemical_name_systematic        
'(m-Hydroxyphenylpropyl)trimethylammonium iodide'
_chemical_properties_biological  'nicotine-like activity'
_symmetry_cell_setting           monoclinic
_symmetry_space_group_name_H-M   'P 21/a'
_symmetry_Int_Tables_number      14
_space_group_name_Hall           '-P 2yab'
loop_
_symmetry_equiv_pos_site_id
_symmetry_equiv_pos_as_xyz
1 x,y,z
2 1/2-x,1/2+y,-z
3 -x,-y,-z
4 1/2+x,1/2-y,z
_cell_length_a                   11.788(7)
_cell_length_b                   7.722(4)
_cell_length_c                   15.266(12)
_cell_angle_alpha                90
_cell_angle_beta                 96.24(5)
_cell_angle_gamma                90
_cell_volume                     1381.38
_cell_formula_units_Z            4
loop_
_atom_site_label
_atom_site_type_symbol
_atom_site_fract_x
_atom_site_fract_y
_atom_site_fract_z
I1 I -0.0378(1) 0.2513(1) 0.1070(1)
C1 C 0.2009(4) 0.3934(7) 0.4948(3)
C2 C 0.2248(4) 0.3777(7) 0.4076(3)
C3 C 0.1526(4) 0.2810(7) 0.3477(3)
C4 C 0.0567(4) 0.2000(7) 0.3751(3)
C5 C 0.0329(4) 0.2158(7) 0.4622(3)
C6 C 0.1050(4) 0.3125(7) 0.5221(3)
O1 O -0.0120(7) 0.1004(10) 0.3200(4)
C7 C 0.0746(8) 0.3342(15) 0.6164(5)
C8 C 0.1775(8) 0.3106(13) 0.6864(5)
C9 C 0.1361(7) 0.2892(10) 0.7752(5)
C10 C 0.1688(7) 0.2577(12) 0.9340(5)
C11 C 0.3077(7) 0.4176(11) 0.8581(5)
C12 C 0.2946(8) 0.1057(11) 0.8430(7)
N1 N 0.2287(5) 0.2672(8) 0.8511(4)
H1 H 0.2506 0.4599 0.5359
H2 H 0.2908 0.4334 0.3888
H3 H 0.1690 0.2701 0.2877
H4 H -0.0331 0.1601 0.4811
H5 H -0.0296 0.1643 0.2549
H6 H 0.0446 0.4487 0.6222
H7 H 0.0174 0.2504 0.6269
H8 H 0.2261 0.4105 0.6871
H9 H 0.2196 0.2096 0.6726
H10 H 0.0923 0.3899 0.7867
H11 H 0.0879 0.1888 0.7729
H12 H 0.2245 0.2450 0.9844
H13 H 0.1165 0.1622 0.9315
H14 H 0.1278 0.3641 0.9388
H15 H 0.2690 0.5271 0.8565
H16 H 0.3508 0.4088 0.8084
H17 H 0.3584 0.4090 0.9116
H18 H 0.2469 0.0049 0.8353
H19 H 0.3553 0.0848 0.8890
H20 H 0.3262 0.1305 0.7890
loop_
_geom_bond_atom_site_label_1
_geom_bond_atom_site_label_2
_geom_bond_site_symmetry_1
_geom_bond_site_symmetry_2
C1 C2 1_555 1_555
C2 C3 1_555 1_555
C3 C4 1_555 1_555
C4 C5 1_555 1_555
C5 C6 1_555 1_555
C6 C1 1_555 1_555
O1 C4 1_555 1_555
C7 C6 1_555 1_555
C8 C7 1_555 1_555
C9 C8 1_555 1_555
C10 N1 1_555 1_555
C11 N1 1_555 1_555
C12 N1 1_555 1_555
N1 C9 1_555 1_555
H1 C1 1_555 1_555
H2 C2 1_555 1_555
H3 C3 1_555 1_555
H4 C5 1_555 1_555
H5 O1 1_555 1_555
H6 C7 1_555 1_555
H7 C7 1_555 1_555
H8 C8 1_555 1_555
H9 C8 1_555 1_555
H10 C9 1_555 1_555
H11 C9 1_555 1_555
H12 C10 1_555 1_555
H13 C10 1_555 1_555
H14 C10 1_555 1_555
H15 C11 1_555 1_555
H16 C11 1_555 1_555
H17 C11 1_555 1_555
H18 C12 1_555 1_555
H19 C12 1_555 1_555
H20 C12 1_555 1_555

#END
