
#######################################################################
#
#                 Cambridge Crystallographic Data Centre
#                                CCDC 
#
#######################################################################
#
# If this CIF has been generated from an entry in the Cambridge 
# Structural Database, then it will include bibliographic, chemical, 
# crystal, experimental, refinement or atomic coordinate data resulting 
# from the CCDC's data processing and validation procedures.
#
#######################################################################

data_JANTIE
_chemical_formula_moiety         'C24 H23 N3 O1'
_chemical_name_systematic        
1-(4-benzyl-3,6-diphenyl-4,5-dihydro-1,2,4-triazin-2(3H)-yl)ethanone
_symmetry_cell_setting           orthorhombic
_symmetry_space_group_name_H-M   'P b c a'
_symmetry_Int_Tables_number      61
_space_group_name_Hall           '-P 2ac 2ab'
loop_
_symmetry_equiv_pos_site_id
_symmetry_equiv_pos_as_xyz
1 x,y,z
2 1/2-x,-y,1/2+z
3 1/2+x,1/2-y,-z
4 -x,1/2+y,1/2-z
5 -x,-y,-z
6 1/2+x,y,1/2-z
7 1/2-x,1/2+y,z
8 x,1/2-y,1/2+z
_cell_length_a                   13.3996(18)
_cell_length_b                   12.191(2)
_cell_length_c                   22.958(3)
_cell_angle_alpha                90
_cell_angle_beta                 90
_cell_angle_gamma                90
_cell_volume                     3750.29
_exptl_crystal_colour            colorless
_exptl_crystal_description       Prism
_cell_formula_units_Z            8
loop_
_atom_site_label
_atom_site_type_symbol
_atom_site_fract_x
_atom_site_fract_y
_atom_site_fract_z
O1 O 0.31561(6) -0.03430(6) 0.48531(3)
N1 N 0.21819(6) 0.05431(7) 0.42065(4)
N2 N 0.16685(6) 0.14973(7) 0.40832(3)
N3 N 0.19865(6) -0.01193(7) 0.32284(3)
C1 C 0.28701(8) 0.15678(9) 0.50404(4)
H1 H 0.3319 0.1451 0.5372
H2 H 0.2214 0.1802 0.5183
H3 H 0.3148 0.2136 0.4786
C2 C 0.27619(7) 0.05169(8) 0.47047(4)
C3 C 0.20684(7) -0.04397(8) 0.38382(4)
H4 H 0.2687 -0.0891 0.3881
C4 C 0.11872(7) -0.11479(8) 0.40213(4)
C5 C 0.06851(7) -0.09959(8) 0.45458(4)
H5 H 0.0858 -0.0397 0.4791
C6 C -0.00687(8) -0.17162(9) 0.47140(5)
H6 H -0.0404 -0.1608 0.5074
C7 C -0.03339(8) -0.25923(9) 0.43594(5)
H7 H -0.0844 -0.3086 0.4476
C8 C 0.01573(9) -0.27378(9) 0.38309(5)
H8 H -0.0024 -0.3329 0.3583
C9 C 0.09124(8) -0.20225(8) 0.36646(4)
H9 H 0.1245 -0.2131 0.3304
C10 C 0.29369(7) 0.03842(8) 0.30292(4)
H10 H 0.3498 -0.0103 0.3138
H11 H 0.3033 0.1092 0.3233
C11 C 0.29636(7) 0.05808(8) 0.23798(4)
C12 C 0.33037(8) -0.02347(9) 0.20030(5)
H12 H 0.3505 -0.0924 0.2156
C13 C 0.33509(8) -0.00488(10) 0.14050(5)
H13 H 0.3592 -0.0607 0.1153
C14 C 0.30468(9) 0.09507(11) 0.11765(5)
H14 H 0.3070 0.1073 0.0768
C15 C 0.27098(9) 0.17696(10) 0.15459(5)
H15 H 0.2502 0.2455 0.1391
C16 C 0.26756(8) 0.15870(9) 0.21443(5)
H16 H 0.2453 0.2156 0.2396
C17 C 0.11303(7) 0.06243(8) 0.31650(4)
H17 H 0.0505 0.0202 0.3212
H18 H 0.1133 0.0941 0.2768
C18 C 0.11539(7) 0.15439(8) 0.36079(4)
C19 C 0.05516(7) 0.25521(8) 0.35186(4)
C20 C 0.00489(8) 0.27530(8) 0.29952(4)
H19 H 0.0118 0.2254 0.2680
C21 C -0.05514(8) 0.36777(9) 0.29316(5)
H20 H -0.0889 0.3804 0.2574
C22 C -0.06591(8) 0.44141(8) 0.33866(5)
H21 H -0.1077 0.5038 0.3344
C23 C -0.01510(8) 0.42357(8) 0.39074(4)
H22 H -0.0213 0.4746 0.4218
C24 C 0.04457(7) 0.33134(8) 0.39726(4)
H23 H 0.0787 0.3196 0.4330
loop_
_geom_bond_atom_site_label_1
_geom_bond_atom_site_label_2
_geom_bond_site_symmetry_1
_geom_bond_site_symmetry_2
O1 C2 1_555 1_555
N1 N2 1_555 1_555
N2 C18 1_555 1_555
N3 C3 1_555 1_555
C1 H1 1_555 1_555
H2 C1 1_555 1_555
H3 C1 1_555 1_555
C2 N1 1_555 1_555
C3 N1 1_555 1_555
H4 C3 1_555 1_555
C4 C3 1_555 1_555
C5 C4 1_555 1_555
H5 C5 1_555 1_555
C6 C5 1_555 1_555
H6 C6 1_555 1_555
C7 C6 1_555 1_555
H7 C7 1_555 1_555
C8 C7 1_555 1_555
H8 C8 1_555 1_555
C9 C4 1_555 1_555
H9 C9 1_555 1_555
C10 N3 1_555 1_555
H10 C10 1_555 1_555
H11 C10 1_555 1_555
C11 C10 1_555 1_555
C12 C11 1_555 1_555
H12 C12 1_555 1_555
C13 C12 1_555 1_555
H13 C13 1_555 1_555
C14 C13 1_555 1_555
H14 C14 1_555 1_555
C15 C14 1_555 1_555
H15 C15 1_555 1_555
C16 C11 1_555 1_555
H16 C16 1_555 1_555
C17 N3 1_555 1_555
H17 C17 1_555 1_555
H18 C17 1_555 1_555
C18 C17 1_555 1_555
C19 C18 1_555 1_555
C20 C19 1_555 1_555
H19 C20 1_555 1_555
C21 C20 1_555 1_555
H20 C21 1_555 1_555
C22 C21 1_555 1_555
H21 C22 1_555 1_555
C23 C22 1_555 1_555
H22 C23 1_555 1_555
C24 C19 1_555 1_555
H23 C24 1_555 1_555
C1 C2 1_555 1_555
C8 C9 1_555 1_555
C15 C16 1_555 1_555
C23 C24 1_555 1_555

#END
