
#######################################################################
#
#                 Cambridge Crystallographic Data Centre
#                                CCDC 
#
#######################################################################
#
# If this CIF has been generated from an entry in the Cambridge 
# Structural Database, then it will include bibliographic, chemical, 
# crystal, experimental, refinement or atomic coordinate data resulting 
# from the CCDC's data processing and validation procedures.
#
#######################################################################

data_JANYON
_chemical_formula_moiety         'C19 H24 O4'
_chemical_name_systematic        
6,8,8-Trimethyl-5-phenyl-6-(tetrahydrofuran-2-yl)-2,4-dioxabicyclo(3.3.0)octan-3-one
_symmetry_cell_setting           monoclinic
_symmetry_space_group_name_H-M   'P 21'
_symmetry_Int_Tables_number      4
_space_group_name_Hall           'P 2yb'
loop_
_symmetry_equiv_pos_site_id
_symmetry_equiv_pos_as_xyz
1 x,y,z
2 -x,1/2+y,-z
_cell_length_a                   8.124(2)
_cell_length_b                   12.920(3)
_cell_length_c                   15.721(4)
_cell_angle_alpha                90
_cell_angle_beta                 90.069(4)
_cell_angle_gamma                90
_cell_volume                     1650.11
_exptl_crystal_description       irregular
_cell_formula_units_Z            4
loop_
_atom_site_label
_atom_site_type_symbol
_atom_site_fract_x
_atom_site_fract_y
_atom_site_fract_z
C1 C 0.1954(2) 0.57212(16) 0.48060(12)
H1 H 0.2101 0.5000 0.4894
C2 C 0.1355(2) 0.60722(18) 0.40333(12)
H2 H 0.1108 0.5594 0.3592
C3 C 0.1117(2) 0.71149(17) 0.39045(12)
H3 H 0.0695 0.7356 0.3377
C4 C 0.1491(2) 0.78076(18) 0.45408(12)
H4 H 0.1314 0.8527 0.4453
C5 C 0.2125(2) 0.74627(15) 0.53113(12)
H5 H 0.2410 0.7948 0.5741
C6 C 0.2346(2) 0.64127(15) 0.54567(12)
C7 C 0.3019(2) 0.60023(15) 0.62936(11)
C8 C 0.2440(2) 0.65360(16) 0.71074(11)
H6 H 0.2310 0.7298 0.7019
C9 C 0.0911(3) 0.50947(17) 0.69222(12)
C10 C 0.4921(2) 0.58909(15) 0.63600(11)
C11 C 0.5538(3) 0.49118(16) 0.59110(13)
H7 H 0.4918 0.4311 0.6116
H8 H 0.6711 0.4814 0.6035
H9 H 0.5382 0.4984 0.5296
C12 C 0.5777(2) 0.68172(16) 0.59489(12)
H10 H 0.5409 0.6867 0.5343
C13 C 0.7657(2) 0.68123(18) 0.59695(13)
H11 H 0.8078 0.6478 0.6493
H12 H 0.8118 0.6454 0.5467
C14 C 0.8058(2) 0.79553(18) 0.59558(15)
H13 H 0.9154 0.8092 0.6208
H14 H 0.8031 0.8233 0.5369
C15 C 0.6701(2) 0.84164(17) 0.64927(15)
H15 H 0.7036 0.8442 0.7098
H16 H 0.6442 0.9128 0.6301
C16 C 0.5213(2) 0.58359(18) 0.73291(12)
H17 H 0.6224 0.6225 0.7477
H18 H 0.5372 0.5106 0.7502
C17 C 0.3715(2) 0.63038(16) 0.78170(12)
C18 C 0.4141(3) 0.73030(18) 0.82855(13)
H19 H 0.3159 0.7566 0.8575
H20 H 0.4533 0.7820 0.7877
H21 H 0.5005 0.7165 0.8706
C19 C 0.3091(3) 0.55191(18) 0.84687(12)
H22 H 0.3951 0.5389 0.8893
H23 H 0.2812 0.4870 0.8180
H24 H 0.2110 0.5795 0.8751
O1 O 0.08628(14) 0.60454(11) 0.72607(8)
O2 O -0.00993(19) 0.44435(12) 0.70299(9)
O3 O 0.22748(16) 0.49740(10) 0.64330(8)
O4 O 0.52959(15) 0.77508(11) 0.63842(8)
C20 C 0.2122(2) 0.24626(15) 0.96873(12)
H25 H 0.2401 0.2948 0.9257
C21 C 0.1491(2) 0.28060(18) 1.04574(12)
H26 H 0.1315 0.3525 1.0545
C22 C 0.1117(2) 0.21156(17) 1.10952(12)
H27 H 0.0696 0.2359 1.1622
C23 C 0.1354(2) 0.10717(18) 1.09676(12)
H28 H 0.1107 0.0593 1.1408
C24 C 0.1954(2) 0.07224(16) 1.01960(12)
H29 H 0.2101 0.0001 1.0109
C25 C 0.2346(2) 0.14125(15) 0.95436(12)
C26 C 0.3019(2) 0.09994(15) 0.87073(11)
C27 C 0.0909(3) 0.00957(16) 0.80795(12)
C28 C 0.2439(2) 0.15331(15) 0.78935(11)
H30 H 0.2310 0.2295 0.7983
C29 C 0.4921(2) 0.08906(15) 0.86407(11)
C30 C 0.5540(3) -0.00885(16) 0.90910(13)
H31 H 0.6715 -0.0182 0.8973
H32 H 0.4927 -0.0690 0.8882
H33 H 0.5374 -0.0018 0.9706
C31 C 0.5776(2) 0.18158(15) 0.90488(12)
H34 H 0.5412 0.1865 0.9655
C32 C 0.7657(2) 0.18133(18) 0.90289(13)
H35 H 0.8120 0.1455 0.9532
H36 H 0.8077 0.1479 0.8505
C33 C 0.8059(3) 0.29563(18) 0.90434(15)
H37 H 0.8033 0.3233 0.9630
H38 H 0.9155 0.3093 0.8792
C34 C 0.6704(2) 0.34169(17) 0.85066(15)
H39 H 0.6447 0.4129 0.8697
H40 H 0.7035 0.3440 0.7901
C35 C 0.5217(2) 0.08351(18) 0.76694(12)
H41 H 0.5375 0.0105 0.7496
H42 H 0.6227 0.1224 0.7523
C36 C 0.3716(2) 0.13040(15) 0.71843(12)
C37 C 0.4142(3) 0.22996(18) 0.67147(13)
H43 H 0.4997 0.2158 0.6291
H44 H 0.4547 0.2815 0.7122
H45 H 0.3157 0.2567 0.6429
C38 C 0.3092(3) 0.05148(18) 0.65319(13)
H46 H 0.2109 0.0788 0.6249
H47 H 0.2818 -0.0134 0.6822
H48 H 0.3952 0.0386 0.6108
O5 O 0.22738(16) -0.00258(10) 0.85658(8)
O6 O -0.00967(19) -0.05570(12) 0.79699(9)
O7 O 0.08620(14) 0.10445(11) 0.77381(8)
O8 O 0.52956(15) 0.27505(11) 0.86172(8)
loop_
_geom_bond_atom_site_label_1
_geom_bond_atom_site_label_2
_geom_bond_site_symmetry_1
_geom_bond_site_symmetry_2
C1 H1 1_555 1_555
C2 C1 1_555 1_555
H2 C2 1_555 1_555
C3 C2 1_555 1_555
H3 C3 1_555 1_555
C4 C3 1_555 1_555
H4 C4 1_555 1_555
C5 C4 1_555 1_555
H5 C5 1_555 1_555
C6 C1 1_555 1_555
C7 C6 1_555 1_555
C8 C7 1_555 1_555
H6 C8 1_555 1_555
C9 O1 1_555 1_555
C10 C7 1_555 1_555
C11 C10 1_555 1_555
H7 C11 1_555 1_555
H8 C11 1_555 1_555
H9 C11 1_555 1_555
C12 C10 1_555 1_555
H10 C12 1_555 1_555
C13 C12 1_555 1_555
H11 C13 1_555 1_555
H12 C13 1_555 1_555
C14 C13 1_555 1_555
H13 C14 1_555 1_555
H14 C14 1_555 1_555
C15 C14 1_555 1_555
H15 C15 1_555 1_555
H16 C15 1_555 1_555
C16 C10 1_555 1_555
H17 C16 1_555 1_555
H18 C16 1_555 1_555
C17 C8 1_555 1_555
C18 C17 1_555 1_555
H19 C18 1_555 1_555
H20 C18 1_555 1_555
H21 C18 1_555 1_555
C19 C17 1_555 1_555
H22 C19 1_555 1_555
H23 C19 1_555 1_555
H24 C19 1_555 1_555
C20 H25 1_555 1_555
C21 C20 1_555 1_555
H26 C21 1_555 1_555
C22 C21 1_555 1_555
H27 C22 1_555 1_555
C23 C22 1_555 1_555
H28 C23 1_555 1_555
C24 C23 1_555 1_555
H29 C24 1_555 1_555
C25 C20 1_555 1_555
C26 C25 1_555 1_555
C27 O5 1_555 1_555
C28 C26 1_555 1_555
H30 C28 1_555 1_555
C29 C26 1_555 1_555
C30 C29 1_555 1_555
H31 C30 1_555 1_555
H32 C30 1_555 1_555
H33 C30 1_555 1_555
C31 C29 1_555 1_555
H34 C31 1_555 1_555
C32 C31 1_555 1_555
H35 C32 1_555 1_555
H36 C32 1_555 1_555
C33 C32 1_555 1_555
H37 C33 1_555 1_555
H38 C33 1_555 1_555
C34 C33 1_555 1_555
H39 C34 1_555 1_555
H40 C34 1_555 1_555
C35 C29 1_555 1_555
H41 C35 1_555 1_555
H42 C35 1_555 1_555
C36 C28 1_555 1_555
C37 C36 1_555 1_555
H43 C37 1_555 1_555
H44 C37 1_555 1_555
H45 C37 1_555 1_555
C38 C36 1_555 1_555
H46 C38 1_555 1_555
H47 C38 1_555 1_555
H48 C38 1_555 1_555
O1 C8 1_555 1_555
O2 C9 1_555 1_555
O3 C7 1_555 1_555
O4 C12 1_555 1_555
O5 C26 1_555 1_555
O6 C27 1_555 1_555
O7 C27 1_555 1_555
O8 C31 1_555 1_555
C5 C6 1_555 1_555
C9 O3 1_555 1_555
C15 O4 1_555 1_555
C16 C17 1_555 1_555
C24 C25 1_555 1_555
C28 O7 1_555 1_555
C34 O8 1_555 1_555
C35 C36 1_555 1_555

#END
