
#######################################################################
#
#                 Cambridge Crystallographic Data Centre
#                                CCDC 
#
#######################################################################
#
# If this CIF has been generated from an entry in the Cambridge 
# Structural Database, then it will include bibliographic, chemical, 
# crystal, experimental, refinement or atomic coordinate data resulting 
# from the CCDC's data processing and validation procedures.
#
#######################################################################

data_JAPDEJ
_chemical_formula_moiety         'C23 H21 N1 O2'
_chemical_name_systematic        
anti-2-(2-Cyano-3-methoxy-6-methylphenyl)-1,2-diphenyl-1-ethanol
_symmetry_cell_setting           monoclinic
_symmetry_space_group_name_H-M   'P 21/c'
_symmetry_Int_Tables_number      14
_space_group_name_Hall           '-P 2ybc'
loop_
_symmetry_equiv_pos_site_id
_symmetry_equiv_pos_as_xyz
1 x,y,z
2 -x,1/2+y,1/2-z
3 -x,-y,-z
4 x,1/2-y,1/2+z
_cell_length_a                   10.873(5)
_cell_length_b                   9.131(5)
_cell_length_c                   19.009(7)
_cell_angle_alpha                90
_cell_angle_beta                 104.54(4)
_cell_angle_gamma                90
_cell_volume                     1826.8
_exptl_crystal_colour            colorless
_cell_formula_units_Z            4
loop_
_atom_site_label
_atom_site_type_symbol
_atom_site_fract_x
_atom_site_fract_y
_atom_site_fract_z
O1 O 0.0249(2) 0.2154(3) 0.0597(1)
O2 O -0.5015(2) 0.1358(2) -0.2173(1)
N1 N -0.2136(3) -0.0038(4) -0.1568(2)
C1 C -0.2704(3) 0.3294(4) -0.0755(2)
C2 C -0.3304(3) 0.2258(4) -0.1280(2)
C3 C -0.4576(3) 0.2404(4) -0.1662(2)
C4 C -0.5279(3) 0.3561(4) -0.1501(2)
C5 C -0.4693(3) 0.4555(4) -0.0984(2)
C6 C -0.3419(3) 0.4475(4) -0.0609(2)
C7 C -0.1288(3) 0.3141(4) -0.0381(2)
C8 C -0.1000(3) 0.1867(4) 0.0163(2)
C9 C -0.1962(3) 0.1752(4) 0.0620(2)
C10 C -0.2937(3) 0.0758(5) 0.0448(2)
C11 C -0.3829(4) 0.0686(6) 0.0857(2)
C12 C -0.3730(5) 0.1580(6) 0.1441(3)
C13 C -0.2759(5) 0.2547(5) 0.1621(2)
C14 C -0.1878(4) 0.2641(5) 0.1214(2)
C15 C -0.0498(3) 0.3157(4) -0.0941(2)
C16 C 0.0413(3) 0.2124(4) -0.0970(2)
C17 C 0.1067(3) 0.2159(5) -0.1503(2)
C18 C 0.0829(3) 0.3230(5) -0.2022(2)
C19 C -0.0062(3) 0.4278(5) -0.2003(2)
C20 C -0.0715(3) 0.4242(4) -0.1462(2)
C21 C -0.2645(3) 0.0992(4) -0.1443(2)
C22 C -0.6295(3) 0.1474(5) -0.2600(2)
C23 C -0.2860(3) 0.5691(4) -0.0089(2)
H1 H 0.0499 0.1514 0.0849
H2 H -0.6161 0.3667 -0.1747
H3 H -0.5190 0.5351 -0.0873
H4 H -0.1029 0.3986 -0.0079
H5 H -0.1055 0.0939 -0.0080
H6 H -0.3004 0.0108 0.0043
H7 H -0.4519 0.0002 0.0727
H8 H -0.4347 0.1524 0.1724
H9 H -0.2685 0.3172 0.2036
H10 H -0.1196 0.3336 0.1348
H11 H 0.0596 0.1364 -0.0609
H12 H 0.1695 0.1425 -0.1510
H13 H 0.1280 0.3247 -0.2396
H14 H -0.0235 0.5039 -0.2363
H15 H -0.1331 0.4989 -0.1451
H16 H -0.6480 0.0672 -0.2936
H17 H -0.6402 0.2381 -0.2863
H18 H -0.6863 0.1445 -0.2286
H19 H -0.1980 0.5488 0.0128
H20 H -0.3311 0.5756 0.0285
H21 H -0.2934 0.6603 -0.0348
loop_
_geom_bond_atom_site_label_1
_geom_bond_atom_site_label_2
_geom_bond_site_symmetry_1
_geom_bond_site_symmetry_2
O1 C8 1_555 1_555
O2 C3 1_555 1_555
N1 C21 1_555 1_555
C1 C2 1_555 1_555
C2 C3 1_555 1_555
C3 C4 1_555 1_555
C4 C5 1_555 1_555
C5 C6 1_555 1_555
C6 C1 1_555 1_555
C7 C1 1_555 1_555
C8 C7 1_555 1_555
C9 C8 1_555 1_555
C10 C9 1_555 1_555
C11 C10 1_555 1_555
C12 C11 1_555 1_555
C13 C12 1_555 1_555
C14 C9 1_555 1_555
C15 C7 1_555 1_555
C16 C15 1_555 1_555
C17 C16 1_555 1_555
C18 C17 1_555 1_555
C19 C18 1_555 1_555
C20 C15 1_555 1_555
C21 C2 1_555 1_555
C22 O2 1_555 1_555
C23 C6 1_555 1_555
H1 O1 1_555 1_555
H2 C4 1_555 1_555
H3 C5 1_555 1_555
H4 C7 1_555 1_555
H5 C8 1_555 1_555
H6 C10 1_555 1_555
H7 C11 1_555 1_555
H8 C12 1_555 1_555
H9 C13 1_555 1_555
H10 C14 1_555 1_555
H11 C16 1_555 1_555
H12 C17 1_555 1_555
H13 C18 1_555 1_555
H14 C19 1_555 1_555
H15 C20 1_555 1_555
H16 C22 1_555 1_555
H17 C22 1_555 1_555
H18 C22 1_555 1_555
H19 C23 1_555 1_555
H20 C23 1_555 1_555
H21 C23 1_555 1_555
C13 C14 1_555 1_555
C19 C20 1_555 1_555

#END
