
#######################################################################
#
#                 Cambridge Crystallographic Data Centre
#                                CCDC 
#
#######################################################################
#
# If this CIF has been generated from an entry in the Cambridge 
# Structural Database, then it will include bibliographic, chemical, 
# crystal, experimental, refinement or atomic coordinate data resulting 
# from the CCDC's data processing and validation procedures.
#
#######################################################################

data_JAPHOX
_chemical_formula_moiety         'C23 H29 N3 O2'
_chemical_name_systematic        
'Ethyl 2(R)-cyano-2-(6-methylergolin-8\b-yl)methylbutyrate'
_chemical_properties_biological  
'pharmacological activity on dopamine and serotonin receptors'
_symmetry_cell_setting           monoclinic
_symmetry_space_group_name_H-M   'P 21'
_symmetry_Int_Tables_number      4
_space_group_name_Hall           'P 2yb'
loop_
_symmetry_equiv_pos_site_id
_symmetry_equiv_pos_as_xyz
1 x,y,z
2 -x,1/2+y,-z
_cell_length_a                   6.224(1)
_cell_length_b                   12.741(1)
_cell_length_c                   13.609(2)
_cell_angle_alpha                90
_cell_angle_beta                 102.56(1)
_cell_angle_gamma                90
_cell_volume                     1053.37
_chemical_melting_point          496-498K
_cell_formula_units_Z            2
loop_
_atom_site_label
_atom_site_type_symbol
_atom_site_fract_x
_atom_site_fract_y
_atom_site_fract_z
N1 N 0.3074(9) 0.1507 -0.0168(4)
C1 C 0.4385(11) 0.0858(7) 0.0535(5)
C2 C 0.5583(10) 0.0206(7) 0.0065(5)
C3 C 0.7241(12) -0.0640(8) 0.0411(5)
C4 C 0.8700(10) -0.0828(7) -0.0376(5)
N2 N 0.9969(9) -0.1802(6) -0.0137(4)
C5 C 1.1391(12) -0.1995(8) -0.0859(5)
C6 C 1.0154(11) -0.2100(7) -0.1934(5)
C7 C 0.8757(12) -0.1117(8) -0.2213(5)
C8 C 0.7284(11) -0.0915(7) -0.1462(5)
C9 C 0.5812(12) 0.0017(8) -0.1740(5)
C10 C 0.5023(13) 0.0426(8) -0.2703(6)
C11 C 0.3477(13) 0.1277(9) -0.2840(7)
C12 C 0.2667(13) 0.1710(8) -0.2053(6)
C13 C 0.3464(10) 0.1266(7) -0.1099(5)
C14 C 0.4996(11) 0.0476(7) -0.0964(5)
C15 C 1.1398(11) -0.1791(8) 0.0878(5)
C16 C 1.1806(13) -0.2267(7) -0.2594(5)
C17 C 1.1017(12) -0.2824(7) -0.3606(6)
C18 C 1.0408(16) -0.3943(9) -0.3398(7)
O1 O 1.1580(12) -0.4519(7) -0.2841(5)
O2 O 0.8462(13) -0.4196(7) -0.3938(8)
C19 C 0.7989(28) -0.5334(8) -0.4041(13)
C20 C 0.6492(26) -0.5566(12) -0.3303(13)
C21 C 0.9217(15) -0.2283(9) -0.4260(6)
N3 N 0.7840(15) -0.1833(9) -0.4801(6)
C22 C 1.2985(13) -0.2895(9) -0.4159(6)
C23 C 1.2511(18) -0.3467(11) -0.5136(8)
H1 H 0.1941 0.2094 -0.0010
H2 H 0.4435 0.0860 0.1333
H3 H 0.8285 -0.0419 0.1123
H4 H 0.6386 -0.1358 0.0503
H5 H 0.9777 -0.0158 -0.0340
H6 H 1.2520 -0.1345 -0.0818
H7 H 1.2307 -0.2710 -0.0646
H8 H 0.9053 -0.2765 -0.2040
H9 H 0.9837 -0.0451 -0.2202
H10 H 0.7745 -0.1210 -0.2960
H11 H 0.6205 -0.1585 -0.1502
H12 H 0.5570 0.0105 -0.3341
H13 H 0.2919 0.1595 -0.3588
H14 H 0.1489 0.2345 -0.2176
H15 H 1.0537 -0.1697 0.1481
H16 H 1.2544 -0.1151 0.0897
H17 H 1.2284 -0.2526 0.0970
H18 H 1.3151 -0.2721 -0.2162
H19 H 1.2398 -0.1502 -0.2751
H20 H 0.7057 -0.5499 -0.4791
H21 H 0.9476 -0.5798 -0.3892
H22 H 0.6494 -0.6413 -0.3279
H23 H 0.4816 -0.5284 -0.3445
H24 H 0.7392 -0.5262 -0.2591
H25 H 1.4332 -0.3289 -0.3662
H26 H 1.3473 -0.2104 -0.4297
H27 H 1.4089 -0.3510 -0.5342
H28 H 1.1330 -0.3098 -0.5735
H29 H 1.1959 -0.4249 -0.5010
loop_
_geom_bond_atom_site_label_1
_geom_bond_atom_site_label_2
_geom_bond_site_symmetry_1
_geom_bond_site_symmetry_2
N1 C1 1_555 1_555
C1 C2 1_555 1_555
C2 C3 1_555 1_555
C3 C4 1_555 1_555
C4 N2 1_555 1_555
N2 C5 1_555 1_555
C5 C6 1_555 1_555
C6 C7 1_555 1_555
C7 C8 1_555 1_555
C8 C4 1_555 1_555
C9 C8 1_555 1_555
C10 C9 1_555 1_555
C11 C10 1_555 1_555
C12 C11 1_555 1_555
C13 N1 1_555 1_555
C14 C2 1_555 1_555
C15 N2 1_555 1_555
C16 C6 1_555 1_555
C17 C16 1_555 1_555
C18 C17 1_555 1_555
O1 C18 1_555 1_555
O2 C18 1_555 1_555
C19 O2 1_555 1_555
C20 C19 1_555 1_555
C21 C17 1_555 1_555
N3 C21 1_555 1_555
C22 C17 1_555 1_555
C23 C22 1_555 1_555
H1 N1 1_555 1_555
H2 C1 1_555 1_555
H3 C3 1_555 1_555
H4 C3 1_555 1_555
H5 C4 1_555 1_555
H6 C5 1_555 1_555
H7 C5 1_555 1_555
H8 C6 1_555 1_555
H9 C7 1_555 1_555
H10 C7 1_555 1_555
H11 C8 1_555 1_555
H12 C10 1_555 1_555
H13 C11 1_555 1_555
H14 C12 1_555 1_555
H15 C15 1_555 1_555
H16 C15 1_555 1_555
H17 C15 1_555 1_555
H18 C16 1_555 1_555
H19 C16 1_555 1_555
H20 C19 1_555 1_555
H21 C19 1_555 1_555
H22 C20 1_555 1_555
H23 C20 1_555 1_555
H24 C20 1_555 1_555
H25 C22 1_555 1_555
H26 C22 1_555 1_555
H27 C23 1_555 1_555
H28 C23 1_555 1_555
H29 C23 1_555 1_555
C9 C14 1_555 1_555
C12 C13 1_555 1_555
C13 C14 1_555 1_555

#END
