
#######################################################################
#
#                 Cambridge Crystallographic Data Centre
#                                CCDC 
#
#######################################################################
#
# If this CIF has been generated from an entry in the Cambridge 
# Structural Database, then it will include bibliographic, chemical, 
# crystal, experimental, refinement or atomic coordinate data resulting 
# from the CCDC's data processing and validation procedures.
#
#######################################################################

data_JAQDAH01
_chemical_formula_moiety         'C14 H10 O3'
_chemical_name_systematic        4,4'-Oxydibenzaldehyde
_symmetry_cell_setting           monoclinic
_symmetry_space_group_name_H-M   'P 21/n'
_symmetry_Int_Tables_number      14
_space_group_name_Hall           '-P 2yn'
loop_
_symmetry_equiv_pos_site_id
_symmetry_equiv_pos_as_xyz
1 x,y,z
2 1/2-x,1/2+y,1/2-z
3 -x,-y,-z
4 1/2+x,1/2-y,1/2+z
_cell_length_a                   12.662(4)
_cell_length_b                   7.181(2)
_cell_length_c                   12.951(4)
_cell_angle_alpha                90
_cell_angle_beta                 103.090(7)
_cell_angle_gamma                90
_cell_volume                     1146.98
_exptl_crystal_colour            colorless
_exptl_crystal_description       block
_chemical_melting_point          '341 K'
_cell_formula_units_Z            4
_exptl_crystal_recrystallization_method ethanol
loop_
_atom_site_label
_atom_site_type_symbol
_atom_site_fract_x
_atom_site_fract_y
_atom_site_fract_z
O1 O 0.19248(14) 0.7433(2) 1.15176(10)
O2 O 0.08233(13) 0.08225(18) 0.81437(10)
C1 C 0.17584(17) 0.5776(4) 1.15612(16)
H1 H 0.1804 0.5261 1.2229
C2 C 0.14926(14) 0.4521(3) 1.06523(14)
C3 C 0.14336(16) 0.2602(3) 1.08081(15)
H2 H 0.1545 0.2133 1.1493
C4 C 0.12136(16) 0.1402(3) 0.99614(15)
H3 H 0.1182 0.0126 1.0071
C5 C 0.10402(16) 0.2107(3) 0.89486(15)
C6 C 0.10772(15) 0.4008(3) 0.87746(14)
H4 H 0.0948 0.4478 0.8088
C7 C 0.13084(14) 0.5185(3) 0.96324(14)
H5 H 0.1341 0.6460 0.9520
C8 C 0.0604(2) 0.1462(3) 0.70957(17)
C9 C -0.04551(19) 0.1602(3) 0.65581(17)
H6 H -0.1013 0.1336 0.6894
C10 C -0.06824(19) 0.2143(3) 0.55130(17)
H7 H -0.1400 0.2240 0.5141
C11 C 0.0137(2) 0.2540(3) 0.50109(16)
C12 C 0.1194(2) 0.2396(3) 0.55668(18)
H8 H 0.1753 0.2664 0.5233
C13 C 0.1436(2) 0.1856(3) 0.66215(19)
H9 H 0.2152 0.1764 0.6999
O3 O -0.0950(2) 0.3255(3) 0.33223(16)
C14 C -0.0099(3) 0.3090(3) 0.3878(2)
H10 H 0.0510 0.3335 0.3578
O4? O 0.0386(8) 0.3449(14) 0.3289(7)
C15? C -0.0099(3) 0.3090(3) 0.3878(2)
H11? H -0.0899 0.3100 0.3514
loop_
_geom_bond_atom_site_label_1
_geom_bond_atom_site_label_2
_geom_bond_site_symmetry_1
_geom_bond_site_symmetry_2
O1 C1 1_555 1_555
O2 C5 1_555 1_555
C1 H1 1_555 1_555
C2 C1 1_555 1_555
C3 C2 1_555 1_555
H2 C3 1_555 1_555
C4 C3 1_555 1_555
H3 C4 1_555 1_555
C5 C4 1_555 1_555
C6 C5 1_555 1_555
H4 C6 1_555 1_555
C7 C2 1_555 1_555
H5 C7 1_555 1_555
C8 O2 1_555 1_555
C9 C8 1_555 1_555
H6 C9 1_555 1_555
C10 C9 1_555 1_555
H7 C10 1_555 1_555
C11 C10 1_555 1_555
C12 C11 1_555 1_555
H8 C12 1_555 1_555
C13 C8 1_555 1_555
H9 C13 1_555 1_555
O3 C14 1_555 1_555
C14 C11 1_555 1_555
H10 C14 1_555 1_555
C6 C7 1_555 1_555
C12 C13 1_555 1_555

#END
