
#######################################################################
#
#                 Cambridge Crystallographic Data Centre
#                                CCDC 
#
#######################################################################
#
# If this CIF has been generated from an entry in the Cambridge 
# Structural Database, then it will include bibliographic, chemical, 
# crystal, experimental, refinement or atomic coordinate data resulting 
# from the CCDC's data processing and validation procedures.
#
#######################################################################

data_JAQXIL
_chemical_formula_moiety         'C31 H40 O10,H2 O1,0.67(C4 H10 O1)'
_chemical_name_systematic        
'11,13-diacetoxy-3a,4,10-trihydroxy-2,5,8,8-tetramethyl-12-methylene-9-oxo-2,3,3a,4,5,8,9,10,11,12,13,13a-dodecahydro-1H-cyclopenta[12]annulen-1-yl benzoate monohydrate diethyl ether solvate'
_symmetry_cell_setting           orthorhombic
_symmetry_space_group_name_H-M   'P 21 21 2'
_symmetry_Int_Tables_number      18
_space_group_name_Hall           'P 2 2ab'
loop_
_symmetry_equiv_pos_site_id
_symmetry_equiv_pos_as_xyz
1 x,y,z
2 -x,-y,z
3 1/2+x,1/2-y,-z
4 1/2-x,1/2+y,-z
_cell_length_a                   17.8312(7)
_cell_length_b                   19.3961(13)
_cell_length_c                   10.1885(4)
_cell_angle_alpha                90
_cell_angle_beta                 90
_cell_angle_gamma                90
_cell_volume                     3523.75
_exptl_crystal_colour            colorless
_exptl_crystal_description       plate
_cell_formula_units_Z            4
loop_
_atom_site_label
_atom_site_type_symbol
_atom_site_fract_x
_atom_site_fract_y
_atom_site_fract_z
O11 O 0.4198(8) 0.9581(6) 0.335(2)
H41 H 0.434(11) 0.919(5) 0.36(3)
H42 H 0.443(13) 0.984(11) 0.29(3)
O1 O 0.2110(4) 0.8137(4) 0.6065(8)
O2 O 0.4706(4) 0.7343(4) 0.6112(9)
O3 O 0.4557(4) 0.8203(4) 0.4059(8)
H1 H 0.4943 0.8140 0.3641
O4 O 0.2083(4) 0.7670(4) 0.8595(8)
O5 O 0.1122(4) 0.7076(4) 0.5597(8)
H2 H 0.1097 0.7448 0.5976
O6 O 0.2036(4) 0.5444(4) 0.6118(8)
H3 H 0.1750 0.5136 0.6350
O7 O 0.4357(7) 0.6451(7) 0.7300(15)
O8 O 0.2394(6) 0.8498(5) 0.4070(10)
O9 O 0.2936(6) 0.7786(6) 1.0182(11)
O10 O 0.5133(6) 0.7011(4) 0.3050(10)
C1 C 0.3622(7) 0.8313(7) 0.6907(14)
H4 H 0.4127 0.8427 0.6985
H5 H 0.3262 0.8573 0.7344
C2 C 0.1254(7) 0.6461(7) 0.7683(14)
H6 H 0.0907 0.6822 0.7942
H7 H 0.0985 0.6026 0.7661
C3 C 0.1909(7) 0.6421(7) 0.8651(13)
H8 H 0.2179 0.5988 0.8501
C4 C 0.2401(6) 0.7020(6) 0.8179(13)
H9 H 0.2916 0.6971 0.8500
C5 C 0.2371(6) 0.6946(6) 0.6705(11)
H10 H 0.2735 0.6582 0.6510
C6 C 0.2625(6) 0.7562(6) 0.5849(11)
H11 H 0.2606 0.7427 0.4922
C7 C 0.3419(6) 0.7789(6) 0.6183(13)
C8 C 0.3970(6) 0.7354(6) 0.5458(12)
H12 H 0.3777 0.6881 0.5416
C9 C 0.4122(6) 0.7613(7) 0.4024(12)
H13 H 0.3639 0.7729 0.3622
C10 C 0.4463(8) 0.7010(7) 0.3256(13)
C11 C 0.3964(6) 0.6416(6) 0.2777(12)
C12 C 0.3161(7) 0.6484(6) 0.3116(13)
H14 H 0.2907 0.6858 0.2757
C13 C 0.2764(6) 0.6065(6) 0.3882(12)
H15 H 0.3034 0.5739 0.4356
C14 C 0.1939(6) 0.6060(7) 0.4066(13)
H16 H 0.1739 0.6489 0.3699
C15 C 0.1617(6) 0.5977(6) 0.5464(13)
H17 H 0.1101 0.5811 0.5372
C16 C 0.1591(6) 0.6621(6) 0.6324(13)
C17 C 0.1677(9) 0.6455(8) 1.0114(14)
H18 H 0.1144 0.6399 1.0186
H19 H 0.1819 0.6894 1.0471
H20 H 0.1924 0.6094 1.0591
C18 C 0.2403(8) 0.7989(9) 0.9635(16)
C19 C 0.1991(7) 0.8638(8) 0.9974(14)
C20 C 0.1388(9) 0.8846(8) 0.9324(14)
H21 H 0.1225 0.8593 0.8602
C21 C 0.0994(8) 0.9434(9) 0.9694(16)
H22 H 0.0567 0.9572 0.9239
C22 C 0.1255(9) 0.9810(8) 1.0762(19)
H23 H 0.1007 1.0209 1.1021
C23 C 0.1864(10) 0.9595(9) 1.1420(15)
H24 H 0.2025 0.9847 1.2144
C24 C 0.2271(8) 0.8999(9) 1.1049(16)
H25 H 0.2699 0.8857 1.1495
C25 C 0.2061(8) 0.8588(8) 0.5037(16)
C26 C 0.1539(7) 0.9143(8) 0.5319(16)
H26 H 0.1048 0.8955 0.5463
H27 H 0.1524 0.9456 0.4590
H28 H 0.1700 0.9385 0.6091
C27 C 0.4837(11) 0.6887(10) 0.7052(17)
C28 C 0.5569(8) 0.7000(10) 0.7690(18)
H29 H 0.5953 0.6763 0.7206
H30 H 0.5553 0.6827 0.8571
H31 H 0.5679 0.7485 0.7706
C29 C 0.4327(7) 0.5745(6) 0.3296(15)
H32 H 0.4036 0.5356 0.3016
H33 H 0.4344 0.5757 0.4238
H34 H 0.4828 0.5706 0.2957
C30 C 0.4040(7) 0.6454(8) 0.1270(13)
H35 H 0.3718 0.6117 0.0874
H36 H 0.4551 0.6363 0.1026
H37 H 0.3900 0.6906 0.0973
C31 C 0.1619(7) 0.5447(7) 0.3235(13)
H38 H 0.1813 0.5472 0.2357
H39 H 0.1082 0.5475 0.3211
H40 H 0.1766 0.5017 0.3627
loop_
_geom_bond_atom_site_label_1
_geom_bond_atom_site_label_2
_geom_bond_site_symmetry_1
_geom_bond_site_symmetry_2
O1 C6 1_555 1_555
O2 C8 1_555 1_555
O3 H1 1_555 1_555
O4 C4 1_555 1_555
O5 H2 1_555 1_555
O6 H3 1_555 1_555
O7 C27 1_555 1_555
O8 C25 1_555 1_555
O9 C18 1_555 1_555
O10 C10 1_555 1_555
C1 H4 1_555 1_555
H5 C1 1_555 1_555
C2 H6 1_555 1_555
H7 C2 1_555 1_555
C3 C2 1_555 1_555
H8 C3 1_555 1_555
C4 C3 1_555 1_555
H9 C4 1_555 1_555
C5 C4 1_555 1_555
H10 C5 1_555 1_555
C6 C5 1_555 1_555
H11 C6 1_555 1_555
C7 C1 1_555 1_555
C8 C7 1_555 1_555
H12 C8 1_555 1_555
C9 O3 1_555 1_555
H13 C9 1_555 1_555
C10 C9 1_555 1_555
C11 C10 1_555 1_555
C12 C11 1_555 1_555
H14 C12 1_555 1_555
C13 C12 1_555 1_555
H15 C13 1_555 1_555
C14 C13 1_555 1_555
H16 C14 1_555 1_555
C15 O6 1_555 1_555
H17 C15 1_555 1_555
C16 O5 1_555 1_555
C17 C3 1_555 1_555
H18 C17 1_555 1_555
H19 C17 1_555 1_555
H20 C17 1_555 1_555
C18 O4 1_555 1_555
C19 C18 1_555 1_555
C20 C19 1_555 1_555
H21 C20 1_555 1_555
C21 C20 1_555 1_555
H22 C21 1_555 1_555
C22 C21 1_555 1_555
H23 C22 1_555 1_555
C23 C22 1_555 1_555
H24 C23 1_555 1_555
C24 C19 1_555 1_555
H25 C24 1_555 1_555
C25 O1 1_555 1_555
C26 C25 1_555 1_555
H26 C26 1_555 1_555
H27 C26 1_555 1_555
H28 C26 1_555 1_555
C27 O2 1_555 1_555
C28 C27 1_555 1_555
H29 C28 1_555 1_555
H30 C28 1_555 1_555
H31 C28 1_555 1_555
C29 C11 1_555 1_555
H32 C29 1_555 1_555
H33 C29 1_555 1_555
H34 C29 1_555 1_555
C30 C11 1_555 1_555
H35 C30 1_555 1_555
H36 C30 1_555 1_555
H37 C30 1_555 1_555
C31 C14 1_555 1_555
H38 C31 1_555 1_555
H39 C31 1_555 1_555
H40 C31 1_555 1_555
O11 H41 1_555 1_555
H42 O11 1_555 1_555
C2 C16 1_555 1_555
C5 C16 1_555 1_555
C6 C7 1_555 1_555
C8 C9 1_555 1_555
C14 C15 1_555 1_555
C15 C16 1_555 1_555
C23 C24 1_555 1_555

#END
