
#######################################################################
#
#                 Cambridge Crystallographic Data Centre
#                                CCDC 
#
#######################################################################
#
# If this CIF has been generated from an entry in the Cambridge 
# Structural Database, then it will include bibliographic, chemical, 
# crystal, experimental, refinement or atomic coordinate data resulting 
# from the CCDC's data processing and validation procedures.
#
#######################################################################

data_JARCIR
_chemical_formula_moiety         'C9 H14 F2 N2 O2'
_chemical_name_systematic        
'butyl 5-(difluoromethyl)-4,5-dihydro-1H-pyrazole-3-carboxylate'
_symmetry_cell_setting           monoclinic
_symmetry_space_group_name_H-M   'P 21/c'
_symmetry_Int_Tables_number      14
_space_group_name_Hall           '-P 2ybc'
loop_
_symmetry_equiv_pos_site_id
_symmetry_equiv_pos_as_xyz
1 x,y,z
2 -x,1/2+y,1/2-z
3 -x,-y,-z
4 x,1/2-y,1/2+z
_cell_length_a                   12.122(2)
_cell_length_b                   8.0329(12)
_cell_length_c                   11.5826(17)
_cell_angle_alpha                90
_cell_angle_beta                 101.987(14)
_cell_angle_gamma                90
_cell_volume                     1103.26
_cell_formula_units_Z            4
loop_
_atom_site_label
_atom_site_type_symbol
_atom_site_fract_x
_atom_site_fract_y
_atom_site_fract_z
F1 F 0.2105(2) 0.0762(4) 0.5938(2)
F2 F 0.2465(3) 0.2809(4) 0.7212(3)
O1 O 0.4127(3) 0.7939(3) 0.5632(2)
O2 O 0.2910(2) 0.6690(3) 0.4174(2)
N1 N 0.4567(3) 0.4806(4) 0.6640(3)
N2 N 0.4650(3) 0.3172(4) 0.6883(3)
H1 H 0.5155 0.2756 0.7441
C1 C 0.3798(4) 0.2168(5) 0.6108(3)
H2 H 0.4162 0.1249 0.5774
C2 C 0.3333(4) 0.3434(5) 0.5143(3)
H3 H 0.3569 0.3177 0.4413
H4 H 0.2516 0.3484 0.4995
C3 C 0.3851(3) 0.5021(4) 0.5673(3)
C4 C 0.3658(3) 0.6700(5) 0.5193(3)
C5 C 0.2670(4) 0.8308(5) 0.3607(3)
H5 H 0.3364 0.8825 0.3497
H6 H 0.2321 0.9034 0.4098
C6 C 0.1879(4) 0.8045(6) 0.2424(4)
H7 H 0.2232 0.7291 0.1955
H8 H 0.1763 0.9101 0.2010
C7 C 0.0735(4) 0.7335(8) 0.2529(5)
H9 H 0.0415 0.8005 0.3074
H10 H 0.0829 0.6208 0.2834
C8 C -0.0068(6) 0.7333(10) 0.1307(6)
H11 H -0.0791 0.6911 0.1380
H12 H 0.0239 0.6638 0.0777
H13 H -0.0151 0.8448 0.1003
C9 C 0.2947(4) 0.1514(5) 0.6720(4)
H14 H 0.3293 0.0724 0.7333
loop_
_geom_bond_atom_site_label_1
_geom_bond_atom_site_label_2
_geom_bond_site_symmetry_1
_geom_bond_site_symmetry_2
F1 C9 1_555 1_555
F2 C9 1_555 1_555
O1 C4 1_555 1_555
O2 C4 1_555 1_555
N1 N2 1_555 1_555
N2 H1 1_555 1_555
C1 N2 1_555 1_555
H2 C1 1_555 1_555
C2 C1 1_555 1_555
H3 C2 1_555 1_555
H4 C2 1_555 1_555
C3 N1 1_555 1_555
C4 C3 1_555 1_555
C5 O2 1_555 1_555
H5 C5 1_555 1_555
H6 C5 1_555 1_555
C6 C5 1_555 1_555
H7 C6 1_555 1_555
H8 C6 1_555 1_555
C7 C6 1_555 1_555
H9 C7 1_555 1_555
H10 C7 1_555 1_555
C8 C7 1_555 1_555
H11 C8 1_555 1_555
H12 C8 1_555 1_555
H13 C8 1_555 1_555
C9 C1 1_555 1_555
H14 C9 1_555 1_555
C2 C3 1_555 1_555

#END
