
#######################################################################
#
#                 Cambridge Crystallographic Data Centre
#                                CCDC 
#
#######################################################################
#
# If this CIF has been generated from an entry in the Cambridge 
# Structural Database, then it will include bibliographic, chemical, 
# crystal, experimental, refinement or atomic coordinate data resulting 
# from the CCDC's data processing and validation procedures.
#
#######################################################################

data_JARNOI
_chemical_formula_moiety         
'3(C8 H7 F3 I1 N2 O1 S1 1+),2(I5 1-),I3 1-,3(H2 O1)'
_chemical_name_systematic        
'tris(3-(iodomethyl)-7-oxo-5-(trifluoromethyl)-2,3,7,8-tetrahydro[1,3]thiazolo[3,2-a]pyrimidin-4-ium) tri-iodide bis(pentaiodide) trihydrate'
_symmetry_cell_setting           triclinic
_symmetry_space_group_name_H-M   'P -1'
_symmetry_Int_Tables_number      2
_space_group_name_Hall           '-P 1'
loop_
_symmetry_equiv_pos_site_id
_symmetry_equiv_pos_as_xyz
1 x,y,z
2 -x,-y,-z
_cell_length_a                   14.0436(6)
_cell_length_b                   15.2299(13)
_cell_length_c                   16.8389(9)
_cell_angle_alpha                103.545(6)
_cell_angle_beta                 106.271(4)
_cell_angle_gamma                108.480(5)
_cell_volume                     3065.7
_exptl_crystal_colour            'dark brown'
_exptl_crystal_description       prism
_cell_formula_units_Z            2
loop_
_atom_site_label
_atom_site_type_symbol
_atom_site_fract_x
_atom_site_fract_y
_atom_site_fract_z
I1 I 0.03560(4) 0.55774(4) 0.40771(4)
S1 S -0.27306(16) 0.43668(16) 0.13850(14)
F1 F -0.2451(4) 0.5512(3) 0.4715(3)
O1 O -0.6170(4) 0.2607(4) 0.1659(4)
C1 C -0.1367(5) 0.4732(5) 0.3501(5)
H1 H -0.1543 0.4123 0.3036
H2 H -0.1617 0.4560 0.3948
N1 N -0.3147(4) 0.4721(4) 0.2792(4)
C2 C -0.3568(5) 0.4151(5) 0.1937(5)
N2 N -0.4584(5) 0.3457(4) 0.1569(4)
H3 H -0.4830 0.3095 0.1021
C3 C -0.5272(6) 0.3288(5) 0.2031(5)
C4 C -0.1940(5) 0.5312(5) 0.3122(5)
H4 H -0.1725 0.5951 0.3578
F2 F -0.4080(4) 0.5276(4) 0.4543(3)
C5 C -0.3806(6) 0.4665(5) 0.3263(5)
C6 C -0.3371(7) 0.5455(6) 0.4174(6)
C7 C -0.4827(6) 0.3975(5) 0.2908(5)
H5 H -0.5254 0.3946 0.3244
C8 C -0.1765(6) 0.5472(6) 0.2314(5)
H6 H -0.1028 0.5578 0.2368
H7 H -0.1888 0.6045 0.2241
F3 F -0.3170(4) 0.6329(3) 0.4088(3)
I2 I 1.0000 1.0000 0.5000
I3 I 1.03932(6) 1.13304(5) 0.67301(5)
I3A I 0.96068(6) 0.86696(5) 0.32699(5)
I4 I 0.64551(4) 0.78277(4) 0.60374(4)
S2 S 0.95921(17) 0.92395(15) 0.87814(15)
N3 N 0.9965(4) 0.8713(4) 0.7373(4)
C9 C 0.8755(5) 0.8152(5) 0.7065(5)
H8 H 0.8532 0.7482 0.6655
F4 F 1.0850(5) 0.7981(4) 0.5618(4)
F5 F 0.9218(4) 0.7728(4) 0.5451(3)
O2 O 1.2976(4) 1.0829(4) 0.8373(4)
C10 C 0.8190(5) 0.8682(5) 0.6603(6)
H9 H 0.8443 0.8788 0.6139
H10 H 0.8363 0.9324 0.7021
C11 C 1.2066(6) 1.0156(5) 0.8035(5)
C12 C 1.0396(5) 0.9363(5) 0.8192(5)
C13 C 1.0603(6) 0.8724(5) 0.6877(5)
N4 N 1.1403(5) 1.0057(4) 0.8519(4)
H11 H 1.1657 1.0465 0.9053
F6 F 1.0014(5) 0.7034(3) 0.6190(4)
C14 C 1.1607(6) 0.9412(5) 0.7175(5)
H12 H 1.2012 0.9411 0.6823
C15 C 0.8582(6) 0.8094(5) 0.7909(6)
H13 H 0.8680 0.7530 0.8031
H14 H 0.7854 0.8030 0.7854
C16 C 1.0173(8) 0.7863(6) 0.6023(7)
I5 I 0.5000 0.5000 0.0000
I6 I 0.59219(5) 0.63331(5) 0.18189(4)
I6A I 0.40781(5) 0.36669(5) -0.18189(4)
I7 I 0.68868(4) 0.88031(4) 0.39825(4)
S3 S 0.36989(16) 0.72474(17) 0.12576(15)
F7 F 0.4173(4) 0.9027(4) 0.4563(4)
O3 O 0.0331(4) 0.5926(4) 0.1745(4)
N5 N 0.3377(4) 0.7942(4) 0.2657(4)
C17 C 0.5149(5) 0.7991(5) 0.3465(5)
H15 H 0.4954 0.7318 0.3096
H16 H 0.4912 0.7963 0.3951
C18 C 0.1253(6) 0.6585(5) 0.2050(5)
C19 C 0.4592(5) 0.8464(5) 0.2940(5)
H17 H 0.4833 0.9158 0.3304
F8 F 0.3440(5) 0.9732(4) 0.3797(4)
N6 N 0.1891(4) 0.6597(4) 0.1566(4)
H18 H 0.1612 0.6160 0.1043
C20 C 0.2914(6) 0.7245(5) 0.1857(5)
C21 C 0.2760(6) 0.8034(5) 0.3164(5)
F9 F 0.2566(5) 0.8872(4) 0.4406(4)
C22 C 0.1734(6) 0.7383(5) 0.2887(5)
H19 H 0.1332 0.7446 0.3235
C23 C 0.4739(6) 0.8418(6) 0.2073(6)
H20 H 0.5457 0.8451 0.2128
H21 H 0.4653 0.8964 0.1906
C24 C 0.3225(8) 0.8921(6) 0.3994(7)
I8 I 0.59753(5) 1.18184(4) 1.30742(4)
I9 I 0.66370(5) 1.30746(5) 1.48420(4)
I10 I 0.74614(6) 1.19189(4) 1.12428(5)
I11 I 0.95097(6) 1.32151(6) 1.15054(6)
I12 I 0.51865(6) 1.06247(4) 1.11408(5)
I13 I -0.03535(5) 0.17999(4) -0.09946(4)
I14 I 0.25072(5) 0.42696(4) 0.13510(5)
I15 I 0.19580(6) 0.31485(5) -0.06022(5)
I16 I 0.29690(7) 0.52487(6) 0.31236(5)
I17 I -0.25148(6) 0.05122(6) -0.13997(6)
O4 O -0.5278(5) 0.2401(5) -0.0176(4)
O5 O 1.2081(5) 1.1093(5) 1.0242(4)
O6 O 0.1276(6) 0.5406(6) -0.0103(5)
loop_
_geom_bond_atom_site_label_1
_geom_bond_atom_site_label_2
_geom_bond_site_symmetry_1
_geom_bond_site_symmetry_2
I1 C1 1_555 1_555
S1 C2 1_555 1_555
F1 C6 1_555 1_555
O1 C3 1_555 1_555
C1 H1 1_555 1_555
H2 C1 1_555 1_555
N1 C2 1_555 1_555
C2 N2 1_555 1_555
N2 H3 1_555 1_555
C3 N2 1_555 1_555
C4 C1 1_555 1_555
H4 C4 1_555 1_555
F2 C6 1_555 1_555
C5 N1 1_555 1_555
C6 C5 1_555 1_555
C7 C3 1_555 1_555
H5 C7 1_555 1_555
C8 S1 1_555 1_555
H6 C8 1_555 1_555
H7 C8 1_555 1_555
F3 C6 1_555 1_555
I2 I3 1_555 1_555
I4 C10 1_555 1_555
S2 C12 1_555 1_555
N3 C9 1_555 1_555
C9 H8 1_555 1_555
F4 C16 1_555 1_555
F5 C16 1_555 1_555
O2 C11 1_555 1_555
C10 C9 1_555 1_555
H9 C10 1_555 1_555
H10 C10 1_555 1_555
C11 N4 1_555 1_555
C12 N3 1_555 1_555
C13 N3 1_555 1_555
N4 C12 1_555 1_555
H11 N4 1_555 1_555
F6 C16 1_555 1_555
C14 C11 1_555 1_555
H12 C14 1_555 1_555
C15 S2 1_555 1_555
H13 C15 1_555 1_555
H14 C15 1_555 1_555
C16 C13 1_555 1_555
I5 I6 1_555 1_555
I7 C17 1_555 1_555
S3 C20 1_555 1_555
F7 C24 1_555 1_555
O3 C18 1_555 1_555
N5 C19 1_555 1_555
C17 H15 1_555 1_555
H16 C17 1_555 1_555
C18 N6 1_555 1_555
C19 C17 1_555 1_555
H17 C19 1_555 1_555
F8 C24 1_555 1_555
N6 H18 1_555 1_555
C20 N5 1_555 1_555
C21 N5 1_555 1_555
F9 C24 1_555 1_555
C22 C18 1_555 1_555
H19 C22 1_555 1_555
C23 S3 1_555 1_555
H20 C23 1_555 1_555
H21 C23 1_555 1_555
C24 C21 1_555 1_555
I8 I9 1_555 1_555
I10 I11 1_555 1_555
I12 I8 1_555 1_555
I13 I15 1_555 1_555
I14 I15 1_555 1_555
I16 I14 1_555 1_555
I17 I13 1_555 1_555
I3A I2 1_555 1_555
I6A I5 1_555 1_555
N1 C4 1_555 1_555
C4 C8 1_555 1_555
C5 C7 1_555 1_555
C9 C15 1_555 1_555
C13 C14 1_555 1_555
C19 C23 1_555 1_555
N6 C20 1_555 1_555
C21 C22 1_555 1_555
I10 I12 1_555 1_555

#END
