
#######################################################################
#
#                 Cambridge Crystallographic Data Centre
#                                CCDC 
#
#######################################################################
#
# If this CIF has been generated from an entry in the Cambridge 
# Structural Database, then it will include bibliographic, chemical, 
# crystal, experimental, refinement or atomic coordinate data resulting 
# from the CCDC's data processing and validation procedures.
#
#######################################################################

data_JATXEK
_chemical_formula_moiety         'C36 H22 N2 O2 S3'
_chemical_name_systematic        
10-(5,5-dioxido-8-(10H-phenothiazin-10-yl)dibenzo[b,d]thiophen-2-yl)-10H-phenothiazine
_symmetry_cell_setting           monoclinic
_symmetry_space_group_name_H-M   'P 21'
_symmetry_Int_Tables_number      4
_space_group_name_Hall           'P 2yb'
loop_
_symmetry_equiv_pos_site_id
_symmetry_equiv_pos_as_xyz
1 x,y,z
2 -x,1/2+y,-z
_cell_length_a                   14.109(3)
_cell_length_b                   18.481(4)
_cell_length_c                   22.219(4)
_cell_angle_alpha                90
_cell_angle_beta                 91.75(3)
_cell_angle_gamma                90
_cell_volume                     5790.87
_exptl_crystal_colour            colorless
_exptl_crystal_description       block
_cell_formula_units_Z            8
loop_
_atom_site_label
_atom_site_type_symbol
_atom_site_fract_x
_atom_site_fract_y
_atom_site_fract_z
C1 C 0.5498(8) 0.7819(5) 0.2163(4)
C2 C 0.6034(9) 0.7593(6) 0.2672(4)
H1 H 0.5791 0.7241 0.2924
C3 C 0.6897(9) 0.7880(6) 0.2803(5)
H2 H 0.7227 0.7746 0.3154
C4 C 0.7287(8) 0.8367(7) 0.2420(6)
H3 H 0.7865 0.8583 0.2522
C5 C 0.6818(7) 0.8544(6) 0.1873(5)
H4 H 0.7113 0.8832 0.1591
C6 C 0.5928(8) 0.8287(5) 0.1762(4)
C7 C 0.4684(7) 0.7727(5) 0.0943(4)
C8 C 0.4531(8) 0.7489(6) 0.0354(4)
H5 H 0.4764 0.7754 0.0035
C9 C 0.4030(9) 0.6859(6) 0.0246(5)
H6 H 0.3878 0.6720 -0.0147
C10 C 0.3748(9) 0.6424(6) 0.0736(5)
H7 H 0.3423 0.5993 0.0664
C11 C 0.3954(8) 0.6640(5) 0.1313(4)
H8 H 0.3799 0.6341 0.1632
C12 C 0.4402(7) 0.7313(5) 0.1432(4)
C13 C 0.3768(8) 0.7718(5) 0.2389(4)
C14 C 0.2874(7) 0.7545(5) 0.2213(3)
H9 H 0.2765 0.7350 0.1831
C15 C 0.2119(7) 0.7648(5) 0.2579(3)
C16 C 0.2254(8) 0.7963(5) 0.3153(4)
C17 C 0.3179(7) 0.8196(5) 0.3328(4)
H10 H 0.3281 0.8439 0.3690
C18 C 0.3940(8) 0.8060(5) 0.2953(4)
H11 H 0.4552 0.8193 0.3073
C19 C 0.1111(6) 0.7439(5) 0.2477(3)
C20 C 0.0760(7) 0.7082(5) 0.1968(4)
H12 H 0.1155 0.6954 0.1658
C21 C -0.0231(6) 0.6916(4) 0.1940(4)
C22 C -0.0799(8) 0.7080(5) 0.2431(4)
H13 H -0.1433 0.6943 0.2422
C23 C -0.0420(8) 0.7444(5) 0.2931(4)
H14 H -0.0801 0.7576 0.3247
C24 C 0.0546(7) 0.7606(5) 0.2945(3)
C25 C -0.0149(9) 0.6713(5) 0.0849(4)
C26 C 0.0644(9) 0.6356(6) 0.0691(4)
H15 H 0.0856 0.5970 0.0928
C27 C 0.1156(13) 0.6545(8) 0.0189(6)
H16 H 0.1733 0.6325 0.0112
C28 C 0.0792(14) 0.7056(8) -0.0183(6)
H17 H 0.1135 0.7206 -0.0511
C29 C -0.0108(14) 0.7368(7) -0.0081(6)
H18 H -0.0384 0.7675 -0.0368
C30 C -0.0587(9) 0.7216(6) 0.0453(4)
C31 C -0.2178(8) 0.6885(6) 0.1004(5)
C32 C -0.3115(11) 0.6760(9) 0.0925(8)
H19 H -0.3491 0.7048 0.0671
C33 C -0.3512(11) 0.6163(10) 0.1248(8)
H20 H -0.4155 0.6060 0.1201
C34 C -0.2934(10) 0.5730(9) 0.1636(8)
H21 H -0.3201 0.5366 0.1864
C35 C -0.2000(10) 0.5852(7) 0.1669(5)
H22 H -0.1615 0.5540 0.1895
C36 C -0.1576(8) 0.6446(5) 0.1367(5)
N1 N 0.4554(5) 0.7562(4) 0.2028(3)
N2 N -0.0591(6) 0.6569(5) 0.1416(3)
O1 O 0.0903(6) 0.8780(4) 0.3595(3)
O2 O 0.1229(6) 0.7604(5) 0.4067(3)
S1 S 0.1199(2) 0.80383(15) 0.35318(10)
S2 S 0.5315(2) 0.85196(14) 0.10687(12)
S3 S -0.1657(3) 0.76222(18) 0.06275(17)
C37 C 0.6013(7) 0.4459(5) 0.4637(4)
C38 C 0.6585(8) 0.4690(7) 0.5120(5)
H23 H 0.6408 0.5080 0.5356
C39 C 0.7443(10) 0.4316(8) 0.5244(5)
H24 H 0.7801 0.4427 0.5590
C40 C 0.7751(10) 0.3793(7) 0.4863(7)
H25 H 0.8325 0.3561 0.4946
C41 C 0.7209(10) 0.3602(6) 0.4344(7)
H26 H 0.7419 0.3254 0.4076
C42 C 0.6368(8) 0.3946(5) 0.4250(5)
C43 C 0.5116(9) 0.4550(6) 0.3440(4)
C44 C 0.4907(11) 0.4750(11) 0.2845(5)
H27 H 0.5023 0.4437 0.2528
C45 C 0.4527(11) 0.5422(14) 0.2743(9)
H28 H 0.4366 0.5562 0.2351
C46 C 0.4381(11) 0.5892(9) 0.3208(8)
H29 H 0.4167 0.6358 0.3125
C47 C 0.4546(8) 0.5683(6) 0.3794(6)
H30 H 0.4393 0.5990 0.4109
C48 C 0.4941(8) 0.5016(5) 0.3911(4)
C49 C 0.2786(7) 0.4203(5) 0.5557(4)
C50 C 0.3688(6) 0.4029(5) 0.5762(4)
H31 H 0.3776 0.3784 0.6125
C51 C 0.4460(7) 0.4217(5) 0.5432(4)
H32 H 0.5068 0.4108 0.5579
C52 C 0.4338(6) 0.4574(5) 0.4868(4)
C53 C 0.3417(6) 0.4731(4) 0.4667(4)
H33 H 0.3316 0.4957 0.4296
C54 C 0.2660(6) 0.4559(4) 0.5007(3)
C55 C 0.1652(6) 0.4712(4) 0.4870(3)
C56 C 0.1287(7) 0.5096(4) 0.4368(4)
H34 H 0.1692 0.5259 0.4075
C57 C 0.0317(6) 0.5232(5) 0.4310(4)
C58 C -0.0285(7) 0.4992(5) 0.4769(4)
H35 H -0.0931 0.5090 0.4741
C59 C 0.0096(7) 0.4603(5) 0.5270(4)
H36 H -0.0299 0.4442 0.5570
C60 C 0.1047(6) 0.4466(5) 0.5310(4)
C61 C 0.0403(7) 0.5491(5) 0.3244(4)
C62 C 0.1232(9) 0.5805(6) 0.3113(5)
H37 H 0.1486 0.6153 0.3374
C63 C 0.1724(8) 0.5625(7) 0.2595(5)
H38 H 0.2326 0.5806 0.2526
C64 C 0.1249(13) 0.5146(7) 0.2178(6)
H39 H 0.1545 0.5016 0.1826
C65 C 0.0362(15) 0.4875(7) 0.2289(5)
H40 H 0.0049 0.4588 0.2002
C66 C -0.0049(9) 0.5026(6) 0.2813(5)
C67 C -0.1604(8) 0.5366(6) 0.3401(5)
C68 C -0.2588(14) 0.5537(9) 0.3379(6)
H41 H -0.2986 0.5257 0.3132
C69 C -0.2984(10) 0.6083(10) 0.3694(8)
H42 H -0.3628 0.6189 0.3666
C70 C -0.2332(10) 0.6485(8) 0.4074(6)
H43 H -0.2572 0.6854 0.4309
C71 C -0.1367(8) 0.6353(6) 0.4108(5)
H44 H -0.0960 0.6638 0.4344
C72 C -0.1033(8) 0.5778(5) 0.3774(5)
N3 N 0.5114(6) 0.4773(4) 0.4526(3)
N4 N -0.0039(6) 0.5617(5) 0.3809(3)
O3 O 0.1493(6) 0.3276(4) 0.5931(4)
O4 O 0.1610(6) 0.4441(5) 0.6444(3)
S4 S 0.16952(19) 0.40427(14) 0.58987(10)
S5 S 0.5676(3) 0.37110(17) 0.36024(16)
S6 S -0.1175(3) 0.46586(17) 0.29652(16)
C73 C 0.6263(7) 0.6427(6) 0.6273(4)
C74 C 0.6689(13) 0.5870(8) 0.6577(6)
H45 H 0.6335 0.5577 0.6826
C75 C 0.7683(14) 0.5731(9) 0.6514(8)
H46 H 0.7989 0.5367 0.6735
C76 C 0.8171(10) 0.6159(11) 0.6113(8)
H47 H 0.8811 0.6067 0.6057
C77 C 0.7728(11) 0.6726(9) 0.5790(7)
H48 H 0.8074 0.7008 0.5529
C78 C 0.6774(9) 0.6862(7) 0.5862(5)
C79 C 0.5084(10) 0.7183(6) 0.5359(5)
C80 C 0.4513(12) 0.7350(7) 0.4836(5)
H49 H 0.4738 0.7677 0.4556
C81 C 0.3671(12) 0.7053(7) 0.4742(5)
H50 H 0.3289 0.7178 0.4409
C82 C 0.3384(10) 0.6555(7) 0.5150(5)
H51 H 0.2793 0.6341 0.5083
C83 C 0.3887(9) 0.6350(6) 0.5642(5)
H52 H 0.3666 0.5986 0.5891
C84 C 0.4756(8) 0.6696(5) 0.5774(4)
C85 C 0.4363(8) 0.7632(5) 0.7871(4)
C86 C 0.5304(7) 0.7479(5) 0.7827(4)
H53 H 0.5737 0.7614 0.8131
C87 C 0.5597(7) 0.7124(5) 0.7327(4)
H54 H 0.6237 0.7015 0.7292
C88 C 0.4962(8) 0.6920(5) 0.6869(4)
C89 C 0.4001(7) 0.7072(5) 0.6926(4)
H55 H 0.3569 0.6922 0.6627
C90 C 0.3689(7) 0.7436(5) 0.7413(4)
C91 C 0.2707(7) 0.7614(5) 0.7550(4)
C92 C 0.1895(7) 0.7461(5) 0.7216(4)
H56 H 0.1948 0.7244 0.6841
C93 C 0.0989(7) 0.7624(5) 0.7425(4)
C94 C 0.0937(8) 0.7981(6) 0.7968(4)
H57 H 0.0346 0.8117 0.8103
C95 C 0.1763(8) 0.8150(6) 0.8329(4)
H58 H 0.1709 0.8378 0.8699
C96 C 0.2645(8) 0.7968(6) 0.8118(4)
C97 C 0.0297(7) 0.7192(5) 0.6473(4)
C98 C 0.0706(8) 0.6530(6) 0.6353(4)
H59 H 0.0846 0.6214 0.6669
C99 C 0.0908(9) 0.6333(6) 0.5783(5)
H60 H 0.1229 0.5903 0.5714
C100 C 0.0628(9) 0.6786(7) 0.5290(5)
H61 H 0.0738 0.6645 0.4897
C101 C 0.0200(9) 0.7424(6) 0.5401(4)
H62 H 0.0032 0.7728 0.5082
C102 C 0.0005(7) 0.7635(5) 0.5994(4)
C103 C -0.1138(8) 0.8236(5) 0.6786(5)
C104 C -0.2021(8) 0.8547(7) 0.6909(6)
H63 H -0.2311 0.8855 0.6629
C105 C -0.2447(9) 0.8404(7) 0.7425(6)
H64 H -0.3005 0.8641 0.7519
C106 C -0.2036(9) 0.7877(7) 0.7835(5)
H65 H -0.2339 0.7759 0.8188
C107 C -0.1206(8) 0.7558(7) 0.7703(5)
H66 H -0.0964 0.7198 0.7956
C108 C -0.0708(8) 0.7749(5) 0.7205(4)
N5 N 0.5293(6) 0.6568(5) 0.6329(3)
N6 N 0.0188(6) 0.7457(5) 0.7069(3)
O5 O 0.3835(7) 0.7671(5) 0.9004(3)
O6 O 0.4008(7) 0.8829(4) 0.8495(4)
S7 S 0.3754(2) 0.80826(15) 0.84558(11)
S8 S 0.6220(3) 0.75737(17) 0.54833(17)
S9 S -0.0563(2) 0.84574(14) 0.61169(13)
C109 C 0.5933(8) 0.5855(6) 0.8816(4)
C110 C 0.6304(9) 0.6450(6) 0.9181(5)
H67 H 0.5899 0.6716 0.9419
C111 C 0.7258(11) 0.6619(7) 0.9176(6)
H68 H 0.7486 0.7012 0.9398
C112 C 0.7853(9) 0.6230(8) 0.8858(6)
H69 H 0.8496 0.6338 0.8888
C113 C 0.7570(8) 0.5695(7) 0.8499(5)
H70 H 0.8001 0.5455 0.8262
C114 C 0.6624(9) 0.5500(6) 0.8482(5)
C115 C 0.5057(8) 0.5056(6) 0.7856(5)
C116 C 0.4584(12) 0.4897(7) 0.7307(5)
H71 H 0.4898 0.4623 0.7024
C117 C 0.3666(13) 0.5133(8) 0.7167(5)
H72 H 0.3358 0.4984 0.6813
C118 C 0.3230(9) 0.5578(8) 0.7549(5)
H73 H 0.2625 0.5750 0.7451
C119 C 0.3691(8) 0.5790(6) 0.8109(4)
H74 H 0.3400 0.6112 0.8366
C120 C 0.4522(8) 0.5523(5) 0.8248(4)
C121 C 0.4014(7) 0.4569(5) 1.0361(4)
C122 C 0.4947(7) 0.4746(5) 1.0326(4)
H75 H 0.5366 0.4621 1.0640
C123 C 0.5280(7) 0.5108(6) 0.9834(4)
H76 H 0.5917 0.5238 0.9823
C124 C 0.4661(7) 0.5283(5) 0.9349(4)
C125 C 0.3707(7) 0.5131(5) 0.9381(3)
H77 H 0.3291 0.5275 0.9071
C126 C 0.3359(6) 0.4755(4) 0.9888(3)
C127 C 0.2389(7) 0.4591(5) 1.0016(4)
C128 C 0.1589(7) 0.4743(5) 0.9669(4)
H78 H 0.1661 0.4946 0.9290
C129 C 0.0687(7) 0.4607(5) 0.9860(3)
C130 C 0.0624(8) 0.4270(5) 1.0439(4)
H79 H 0.0031 0.4160 1.0586
C131 C 0.1426(7) 0.4104(5) 1.0779(4)
H80 H 0.1367 0.3887 1.1153
C132 C 0.2308(9) 0.4256(5) 1.0574(4)
C133 C -0.0033(7) 0.4911(5) 0.8891(4)
C134 C 0.0320(9) 0.5569(6) 0.8667(5)
H81 H 0.0476 0.5944 0.8931
C135 C 0.0437(11) 0.5658(8) 0.8051(5)
H82 H 0.0696 0.6079 0.7898
C136 C 0.0140(14) 0.5073(9) 0.7662(6)
H83 H 0.0217 0.5119 0.7250
C137 C -0.0233(12) 0.4482(9) 0.7867(5)
H84 H -0.0434 0.4125 0.7598
C138 C -0.0339(8) 0.4372(6) 0.8496(4)
C139 C -0.1418(8) 0.3942(5) 0.9385(5)
C140 C -0.2297(8) 0.3675(6) 0.9568(6)
H85 H -0.2606 0.3316 0.9344
C141 C -0.2696(9) 0.3939(7) 1.0073(5)
H86 H -0.3226 0.3713 1.0225
C142 C -0.2328(9) 0.4529(7) 1.0355(5)
H87 H -0.2630 0.4718 1.0687
C143 C -0.1531(9) 0.4848(6) 1.0166(4)
H88 H -0.1312 0.5276 1.0341
C144 C -0.1035(7) 0.4516(5) 0.9693(4)
N7 N 0.5005(6) 0.5655(5) 0.8836(3)
N8 N -0.0122(6) 0.4791(5) 0.9527(3)
O7 O 0.3463(6) 0.4594(5) 1.1479(3)
O8 O 0.3666(6) 0.3395(4) 1.1012(4)
S10 S 0.3399(2) 0.41608(14) 1.09441(10)
S11 S 0.6194(3) 0.47690(16) 0.80214(14)
S12 S -0.0839(3) 0.35843(15) 0.87769(14)
loop_
_geom_bond_atom_site_label_1
_geom_bond_atom_site_label_2
_geom_bond_site_symmetry_1
_geom_bond_site_symmetry_2
C1 C2 1_555 1_555
C2 H1 1_555 1_555
C3 C2 1_555 1_555
H2 C3 1_555 1_555
C4 C3 1_555 1_555
H3 C4 1_555 1_555
C5 C4 1_555 1_555
H4 C5 1_555 1_555
C6 C1 1_555 1_555
C7 C8 1_555 1_555
C8 H5 1_555 1_555
C9 C8 1_555 1_555
H6 C9 1_555 1_555
C10 C9 1_555 1_555
H7 C10 1_555 1_555
C11 C10 1_555 1_555
H8 C11 1_555 1_555
C12 C7 1_555 1_555
C13 C14 1_555 1_555
C14 H9 1_555 1_555
C15 C14 1_555 1_555
C16 C15 1_555 1_555
C17 C16 1_555 1_555
H10 C17 1_555 1_555
C18 C13 1_555 1_555
H11 C18 1_555 1_555
C19 C15 1_555 1_555
C20 C19 1_555 1_555
H12 C20 1_555 1_555
C21 C20 1_555 1_555
C22 C21 1_555 1_555
H13 C22 1_555 1_555
C23 C22 1_555 1_555
H14 C23 1_555 1_555
C24 C19 1_555 1_555
C25 C26 1_555 1_555
C26 H15 1_555 1_555
C27 C26 1_555 1_555
H16 C27 1_555 1_555
C28 C27 1_555 1_555
H17 C28 1_555 1_555
C29 C28 1_555 1_555
H18 C29 1_555 1_555
C30 C25 1_555 1_555
C31 C32 1_555 1_555
C32 H19 1_555 1_555
C33 C32 1_555 1_555
H20 C33 1_555 1_555
C34 C33 1_555 1_555
H21 C34 1_555 1_555
C35 C34 1_555 1_555
H22 C35 1_555 1_555
C36 C31 1_555 1_555
N1 C1 1_555 1_555
N2 C21 1_555 1_555
O1 S1 1_555 1_555
O2 S1 1_555 1_555
S1 C16 1_555 1_555
S2 C6 1_555 1_555
S3 C30 1_555 1_555
C37 C38 1_555 1_555
C38 H23 1_555 1_555
C39 C38 1_555 1_555
H24 C39 1_555 1_555
C40 C39 1_555 1_555
H25 C40 1_555 1_555
C41 C40 1_555 1_555
H26 C41 1_555 1_555
C42 C37 1_555 1_555
C43 C44 1_555 1_555
C44 H27 1_555 1_555
C45 C44 1_555 1_555
H28 C45 1_555 1_555
C46 C45 1_555 1_555
H29 C46 1_555 1_555
C47 C46 1_555 1_555
H30 C47 1_555 1_555
C48 C43 1_555 1_555
C49 C50 1_555 1_555
C50 H31 1_555 1_555
C51 C50 1_555 1_555
H32 C51 1_555 1_555
C52 C51 1_555 1_555
C53 C52 1_555 1_555
H33 C53 1_555 1_555
C54 C49 1_555 1_555
C55 C54 1_555 1_555
C56 C55 1_555 1_555
H34 C56 1_555 1_555
C57 C56 1_555 1_555
C58 C57 1_555 1_555
H35 C58 1_555 1_555
C59 C58 1_555 1_555
H36 C59 1_555 1_555
C60 C55 1_555 1_555
C61 C62 1_555 1_555
C62 H37 1_555 1_555
C63 C62 1_555 1_555
H38 C63 1_555 1_555
C64 C63 1_555 1_555
H39 C64 1_555 1_555
C65 C64 1_555 1_555
H40 C65 1_555 1_555
C66 C61 1_555 1_555
C67 C68 1_555 1_555
C68 H41 1_555 1_555
C69 C68 1_555 1_555
H42 C69 1_555 1_555
C70 C69 1_555 1_555
H43 C70 1_555 1_555
C71 C70 1_555 1_555
H44 C71 1_555 1_555
C72 C67 1_555 1_555
N3 C37 1_555 1_555
N4 C57 1_555 1_555
O3 S4 1_555 1_555
O4 S4 1_555 1_555
S4 C49 1_555 1_555
S5 C42 1_555 1_555
S6 C66 1_555 1_555
C73 C74 1_555 1_555
C74 H45 1_555 1_555
C75 C74 1_555 1_555
H46 C75 1_555 1_555
C76 C75 1_555 1_555
H47 C76 1_555 1_555
C77 C76 1_555 1_555
H48 C77 1_555 1_555
C78 C73 1_555 1_555
C79 C80 1_555 1_555
C80 H49 1_555 1_555
C81 C80 1_555 1_555
H50 C81 1_555 1_555
C82 C81 1_555 1_555
H51 C82 1_555 1_555
C83 C82 1_555 1_555
H52 C83 1_555 1_555
C84 C79 1_555 1_555
C85 C86 1_555 1_555
C86 H53 1_555 1_555
C87 C86 1_555 1_555
H54 C87 1_555 1_555
C88 C87 1_555 1_555
C89 C88 1_555 1_555
H55 C89 1_555 1_555
C90 C85 1_555 1_555
C91 C90 1_555 1_555
C92 C91 1_555 1_555
H56 C92 1_555 1_555
C93 C92 1_555 1_555
C94 C93 1_555 1_555
H57 C94 1_555 1_555
C95 C94 1_555 1_555
H58 C95 1_555 1_555
C96 C91 1_555 1_555
C97 C98 1_555 1_555
C98 H59 1_555 1_555
C99 C98 1_555 1_555
H60 C99 1_555 1_555
C100 C99 1_555 1_555
H61 C100 1_555 1_555
C101 C100 1_555 1_555
H62 C101 1_555 1_555
C102 C97 1_555 1_555
C103 C104 1_555 1_555
C104 H63 1_555 1_555
C105 C104 1_555 1_555
H64 C105 1_555 1_555
C106 C105 1_555 1_555
H65 C106 1_555 1_555
C107 C106 1_555 1_555
H66 C107 1_555 1_555
C108 C103 1_555 1_555
N5 C73 1_555 1_555
N6 C93 1_555 1_555
O5 S7 1_555 1_555
O6 S7 1_555 1_555
S7 C85 1_555 1_555
S8 C78 1_555 1_555
S9 C102 1_555 1_555
C109 C110 1_555 1_555
C110 H67 1_555 1_555
C111 C110 1_555 1_555
H68 C111 1_555 1_555
C112 C111 1_555 1_555
H69 C112 1_555 1_555
C113 C112 1_555 1_555
H70 C113 1_555 1_555
C114 C109 1_555 1_555
C115 C116 1_555 1_555
C116 H71 1_555 1_555
C117 C116 1_555 1_555
H72 C117 1_555 1_555
C118 C117 1_555 1_555
H73 C118 1_555 1_555
C119 C118 1_555 1_555
H74 C119 1_555 1_555
C120 C115 1_555 1_555
C121 C122 1_555 1_555
C122 H75 1_555 1_555
C123 C122 1_555 1_555
H76 C123 1_555 1_555
C124 C123 1_555 1_555
C125 C124 1_555 1_555
H77 C125 1_555 1_555
C126 C121 1_555 1_555
C127 C126 1_555 1_555
C128 C127 1_555 1_555
H78 C128 1_555 1_555
C129 C128 1_555 1_555
C130 C129 1_555 1_555
H79 C130 1_555 1_555
C131 C130 1_555 1_555
H80 C131 1_555 1_555
C132 C127 1_555 1_555
C133 C134 1_555 1_555
C134 H81 1_555 1_555
C135 C134 1_555 1_555
H82 C135 1_555 1_555
C136 C135 1_555 1_555
H83 C136 1_555 1_555
C137 C136 1_555 1_555
H84 C137 1_555 1_555
C138 C133 1_555 1_555
C139 C140 1_555 1_555
C140 H85 1_555 1_555
C141 C140 1_555 1_555
H86 C141 1_555 1_555
C142 C141 1_555 1_555
H87 C142 1_555 1_555
C143 C142 1_555 1_555
H88 C143 1_555 1_555
C144 C139 1_555 1_555
N7 C109 1_555 1_555
N8 C129 1_555 1_555
O7 S10 1_555 1_555
O8 S10 1_555 1_555
S10 C121 1_555 1_555
S11 C114 1_555 1_555
S12 C138 1_555 1_555
C5 C6 1_555 1_555
C7 S2 1_555 1_555
C11 C12 1_555 1_555
C12 N1 1_555 1_555
C13 N1 1_555 1_555
C17 C18 1_555 1_555
C23 C24 1_555 1_555
C24 S1 1_555 1_555
C25 N2 1_555 1_555
C29 C30 1_555 1_555
C31 S3 1_555 1_555
C35 C36 1_555 1_555
C36 N2 1_555 1_555
C41 C42 1_555 1_555
C43 S5 1_555 1_555
C47 C48 1_555 1_555
C48 N3 1_555 1_555
C52 N3 1_555 1_555
C53 C54 1_555 1_555
C59 C60 1_555 1_555
C60 S4 1_555 1_555
C61 N4 1_555 1_555
C65 C66 1_555 1_555
C67 S6 1_555 1_555
C71 C72 1_555 1_555
C72 N4 1_555 1_555
C77 C78 1_555 1_555
C79 S8 1_555 1_555
C83 C84 1_555 1_555
C84 N5 1_555 1_555
C88 N5 1_555 1_555
C89 C90 1_555 1_555
C95 C96 1_555 1_555
C96 S7 1_555 1_555
C97 N6 1_555 1_555
C101 C102 1_555 1_555
C103 S9 1_555 1_555
C107 C108 1_555 1_555
C108 N6 1_555 1_555
C113 C114 1_555 1_555
C115 S11 1_555 1_555
C119 C120 1_555 1_555
C120 N7 1_555 1_555
C124 N7 1_555 1_555
C125 C126 1_555 1_555
C131 C132 1_555 1_555
C132 S10 1_555 1_555
C133 N8 1_555 1_555
C137 C138 1_555 1_555
C139 S12 1_555 1_555
C143 C144 1_555 1_555
C144 N8 1_555 1_555

#END
