
#######################################################################
#
#                 Cambridge Crystallographic Data Centre
#                                CCDC 
#
#######################################################################
#
# If this CIF has been generated from an entry in the Cambridge 
# Structural Database, then it will include bibliographic, chemical, 
# crystal, experimental, refinement or atomic coordinate data resulting 
# from the CCDC's data processing and validation procedures.
#
#######################################################################

data_JATXIO
_chemical_formula_moiety         'C36 H22 N2 O2 S3,0.5(C1 H2 Cl2)'
_chemical_name_systematic        
'10-(5,5-dioxido-8-(10H-phenothiazin-10-yl)dibenzo[b,d]thiophen-2-yl)-10H-phenothiazine dichloromethane solvate'
_symmetry_cell_setting           triclinic
_symmetry_space_group_name_H-M   'P -1'
_symmetry_Int_Tables_number      2
_space_group_name_Hall           '-P 1'
loop_
_symmetry_equiv_pos_site_id
_symmetry_equiv_pos_as_xyz
1 x,y,z
2 -x,-y,-z
_cell_length_a                   11.016(2)
_cell_length_b                   12.402(3)
_cell_length_c                   12.587(3)
_cell_angle_alpha                70.70(3)
_cell_angle_beta                 70.15(3)
_cell_angle_gamma                77.39(3)
_cell_volume                     1515.63
_exptl_crystal_colour            colorless
_exptl_crystal_description       block
_cell_formula_units_Z            2
loop_
_atom_site_label
_atom_site_type_symbol
_atom_site_fract_x
_atom_site_fract_y
_atom_site_fract_z
C1 C 0.3120(3) 0.1958(2) 0.5463(2)
C2 C 0.3020(3) 0.1110(2) 0.6521(3)
H1 H 0.3373 0.0354 0.6534
C3 C 0.2383(3) 0.1409(2) 0.7560(3)
H2 H 0.2303 0.0846 0.8276
C4 C 0.1857(3) 0.2549(2) 0.7548(2)
C5 C 0.1969(3) 0.3384(2) 0.6472(2)
H3 H 0.1621 0.4142 0.6452
C6 C 0.2594(3) 0.3091(2) 0.5434(2)
C7 C 0.2803(3) 0.3873(2) 0.4239(2)
C8 C 0.2389(3) 0.5042(2) 0.3918(2)
H4 H 0.1889 0.5408 0.4490
C9 C 0.2725(3) 0.5664(2) 0.2739(2)
C10 C 0.3466(3) 0.5092(3) 0.1884(3)
H5 H 0.3691 0.5506 0.1094
C11 C 0.3864(3) 0.3925(3) 0.2202(3)
H6 H 0.4352 0.3552 0.1632
C12 C 0.3527(3) 0.3320(2) 0.3377(2)
C13 C 0.1311(3) 0.2101(2) 0.9715(2)
C14 C 0.0593(4) 0.1175(3) 1.0262(3)
H7 H 0.0063 0.1032 0.9896
C15 C 0.0667(4) 0.0461(3) 1.1354(3)
H8 H 0.0203 -0.0171 1.1714
C16 C 0.1430(4) 0.0691(3) 1.1904(3)
H9 H 0.1475 0.0212 1.2639
C17 C 0.2126(3) 0.1620(3) 1.1380(3)
H10 H 0.2629 0.1773 1.1764
C18 C 0.2078(3) 0.2332(3) 1.0270(3)
C19 C 0.1801(3) 0.4490(3) 0.8909(3)
C20 C 0.1698(4) 0.5671(3) 0.8753(3)
H11 H 0.2234 0.5964 0.8997
C21 C 0.0787(4) 0.6399(3) 0.8229(3)
H12 H 0.0739 0.7190 0.8086
C22 C -0.0045(4) 0.5964(3) 0.7918(3)
H13 H -0.0676 0.6459 0.7596
C23 C 0.0050(3) 0.4793(3) 0.8082(3)
H14 H -0.0527 0.4498 0.7887
C24 C 0.1012(3) 0.4062(2) 0.8539(2)
C25 C 0.1962(3) 0.7468(2) 0.3285(2)
C26 C 0.0714(3) 0.7540(3) 0.4044(3)
H15 H 0.0066 0.7218 0.3976
C27 C 0.0436(4) 0.8096(3) 0.4905(3)
H16 H -0.0399 0.8145 0.5417
C28 C 0.1385(5) 0.8572(3) 0.5002(3)
H17 H 0.1193 0.8918 0.5602
C29 C 0.2626(4) 0.8553(3) 0.4228(3)
H18 H 0.3260 0.8894 0.4294
C30 C 0.2906(3) 0.8012(2) 0.3348(3)
C31 C 0.3932(3) 0.8100(3) 0.1073(3)
C32 C 0.4560(3) 0.8709(3) -0.0059(3)
H19 H 0.5255 0.9094 -0.0186
C33 C 0.4154(4) 0.8748(3) -0.1003(3)
H20 H 0.4586 0.9148 -0.1761
C34 C 0.3117(4) 0.8195(3) -0.0820(3)
H21 H 0.2845 0.8221 -0.1452
C35 C 0.2481(3) 0.7601(3) 0.0306(3)
H22 H 0.1760 0.7250 0.0433
C36 C 0.2906(3) 0.7523(2) 0.1251(3)
N1 N 0.1218(2) 0.2866(2) 0.8598(2)
N2 N 0.2300(2) 0.6854(2) 0.2412(2)
O1 O 0.3237(3) 0.1171(2) 0.3713(2)
O2 O 0.5277(2) 0.1514(2) 0.3833(2)
S1 S 0.39046(8) 0.18387(6) 0.40220(6)
S2 S 0.29461(8) 0.35381(8) 0.95846(8)
S3 S 0.44389(9) 0.80405(9) 0.22800(9)
C37? C 0.5013(10) 0.5526(10) 0.4507(10)
H23? H 0.5600 0.6106 0.4231
H24? H 0.4484 0.5753 0.3972
Cl1? Cl 0.4071(2) 0.5663(2) 0.5717(3)
loop_
_geom_bond_atom_site_label_1
_geom_bond_atom_site_label_2
_geom_bond_site_symmetry_1
_geom_bond_site_symmetry_2
C1 C2 1_555 1_555
C2 H1 1_555 1_555
C3 C2 1_555 1_555
H2 C3 1_555 1_555
C4 C3 1_555 1_555
C5 C4 1_555 1_555
H3 C5 1_555 1_555
C6 C1 1_555 1_555
C7 C6 1_555 1_555
C8 C7 1_555 1_555
H4 C8 1_555 1_555
C9 C8 1_555 1_555
C10 C9 1_555 1_555
H5 C10 1_555 1_555
C11 C10 1_555 1_555
H6 C11 1_555 1_555
C12 C7 1_555 1_555
C13 C14 1_555 1_555
C14 H7 1_555 1_555
C15 C14 1_555 1_555
H8 C15 1_555 1_555
C16 C15 1_555 1_555
H9 C16 1_555 1_555
C17 C16 1_555 1_555
H10 C17 1_555 1_555
C18 C13 1_555 1_555
C19 C20 1_555 1_555
C20 H11 1_555 1_555
C21 C20 1_555 1_555
H12 C21 1_555 1_555
C22 C21 1_555 1_555
H13 C22 1_555 1_555
C23 C22 1_555 1_555
H14 C23 1_555 1_555
C24 C19 1_555 1_555
C25 C26 1_555 1_555
C26 H15 1_555 1_555
C27 C26 1_555 1_555
H16 C27 1_555 1_555
C28 C27 1_555 1_555
H17 C28 1_555 1_555
C29 C28 1_555 1_555
H18 C29 1_555 1_555
C30 C25 1_555 1_555
C31 C32 1_555 1_555
C32 H19 1_555 1_555
C33 C32 1_555 1_555
H20 C33 1_555 1_555
C34 C33 1_555 1_555
H21 C34 1_555 1_555
C35 C34 1_555 1_555
H22 C35 1_555 1_555
C36 C31 1_555 1_555
N1 C4 1_555 1_555
N2 C9 1_555 1_555
O1 S1 1_555 1_555
O2 S1 1_555 1_555
S1 C1 1_555 1_555
S2 C18 1_555 1_555
S3 C30 1_555 1_555
C5 C6 1_555 1_555
C11 C12 1_555 1_555
C12 S1 1_555 1_555
C13 N1 1_555 1_555
C17 C18 1_555 1_555
C19 S2 1_555 1_555
C23 C24 1_555 1_555
C24 N1 1_555 1_555
C25 N2 1_555 1_555
C29 C30 1_555 1_555
C31 S3 1_555 1_555
C35 C36 1_555 1_555
C36 N2 1_555 1_555

#END
