
#######################################################################
#
#                 Cambridge Crystallographic Data Centre
#                                CCDC 
#
#######################################################################
#
# If this CIF has been generated from an entry in the Cambridge 
# Structural Database, then it will include bibliographic, chemical, 
# crystal, experimental, refinement or atomic coordinate data resulting 
# from the CCDC's data processing and validation procedures.
#
#######################################################################

data_JAVDAO
_chemical_formula_moiety         'C6 H16 N1 1+,C11 H7 O3 1-,0.75(H2 O1)'
_chemical_name_systematic        
'N-isopropylpropan-2-aminium 1-hydroxy-2-naphthoate hydrate'
_symmetry_cell_setting           triclinic
_symmetry_space_group_name_H-M   'P -1'
_symmetry_Int_Tables_number      2
_space_group_name_Hall           '-P 1'
loop_
_symmetry_equiv_pos_site_id
_symmetry_equiv_pos_as_xyz
1 x,y,z
2 -x,-y,-z
_cell_length_a                   9.8474(8)
_cell_length_b                   10.1386(9)
_cell_length_c                   18.4955(15)
_cell_angle_alpha                86.215(2)
_cell_angle_beta                 86.563(2)
_cell_angle_gamma                73.0050(10)
_cell_volume                     1760.48
_exptl_crystal_colour            colorless
_exptl_crystal_description       block
_cell_formula_units_Z            4
loop_
_atom_site_label
_atom_site_type_symbol
_atom_site_fract_x
_atom_site_fract_y
_atom_site_fract_z
N1 N 0.7822(3) 0.5591(3) 0.56379(14)
H1 H 0.7955 0.5398 0.5166
H2 H 0.8600 0.5796 0.5768
C1 C 0.6576(4) 0.6867(4) 0.5706(2)
H3 H 0.6450 0.7115 0.6214
C2 C 0.6950(6) 0.8011(5) 0.5254(2)
H4 H 0.7799 0.8146 0.5424
H5 H 0.6184 0.8849 0.5292
H6 H 0.7104 0.7770 0.4756
C3 C 0.5233(5) 0.6596(5) 0.5484(2)
H7 H 0.4455 0.7424 0.5517
H8 H 0.5033 0.5880 0.5800
H9 H 0.5358 0.6311 0.4993
C4 C 0.7745(5) 0.4311(4) 0.6061(2)
H10 H 0.6918 0.4062 0.5912
C5 C 0.7556(5) 0.4562(5) 0.6868(2)
H11 H 0.8296 0.4919 0.7010
H12 H 0.7605 0.3708 0.7137
H13 H 0.6648 0.5217 0.6965
C6 C 0.9062(6) 0.3170(5) 0.5875(3)
H14 H 0.9877 0.3371 0.6046
H15 H 0.9163 0.3097 0.5359
H16 H 0.8985 0.2314 0.6101
N2 N 0.1071(2) 0.0996(2) 0.91307(12)
H17 H 0.0948 0.1168 0.9605
H18 H 0.0389 0.0621 0.9023
C7 C 0.2478(3) -0.0065(3) 0.90225(16)
H19 H 0.2602 -0.0286 0.8510
C8 C 0.3665(4) 0.0476(4) 0.9205(2)
H20 H 0.3692 0.1243 0.8877
H21 H 0.4549 -0.0240 0.9161
H22 H 0.3517 0.0772 0.9693
C9 C 0.2440(4) -0.1340(3) 0.9467(2)
H23 H 0.3292 -0.2068 0.9366
H24 H 0.1630 -0.1615 0.9348
H25 H 0.2373 -0.1157 0.9972
C10 C 0.0829(4) 0.2354(3) 0.87069(18)
H26 H 0.1562 0.2772 0.8828
C11 C 0.0964(5) 0.2150(4) 0.7903(2)
H27 H 0.1893 0.1558 0.7780
H28 H 0.0825 0.3027 0.7643
H29 H 0.0259 0.1734 0.7773
C12 C -0.0587(4) 0.3288(4) 0.8940(2)
H30 H -0.1322 0.2899 0.8823
H31 H -0.0731 0.4177 0.8692
H32 H -0.0618 0.3386 0.9454
O1 O 0.2151(3) 0.4839(3) 0.58184(13)
O2 O 0.0084(3) 0.6325(3) 0.61605(14)
O3 O 0.4029(2) 0.3769(2) 0.67092(11)
H33 H 0.3675 0.3948 0.6311
C13 C 0.1306(5) 0.5541(4) 0.6292(2)
C14 C 0.3120(4) 0.4493(3) 0.72144(16)
C15 C 0.1802(4) 0.5379(3) 0.70453(16)
C16 C 0.0916(4) 0.6100(3) 0.76133(19)
H34 H 0.0032 0.6706 0.7507
C17 C 0.1334(4) 0.5922(3) 0.83057(19)
H35 H 0.0731 0.6404 0.8667
C18 C 0.2668(4) 0.5017(3) 0.84898(16)
C19 C 0.3579(3) 0.4290(3) 0.79414(16)
C20 C 0.4900(4) 0.3372(3) 0.81248(18)
H36 H 0.5503 0.2881 0.7766
C21 C 0.5301(4) 0.3198(4) 0.8824(2)
H37 H 0.6179 0.2591 0.8939
C22 C 0.4418(5) 0.3914(4) 0.9363(2)
H38 H 0.4709 0.3783 0.9838
C23 C 0.3139(5) 0.4800(4) 0.92121(18)
H39 H 0.2559 0.5273 0.9584
O4 O 0.9021(2) 0.8278(2) 0.94535(13)
O5 O 0.8970(2) 1.0002(2) 0.86392(13)
O6 O 0.7368(2) 1.0454(2) 0.76032(12)
H40 H 0.8017 1.0519 0.7843
C24 C 0.8580(3) 0.8958(4) 0.88862(19)
C25 C 0.6910(3) 0.9377(3) 0.78776(16)
C26 C 0.7507(3) 0.8586(3) 0.84727(16)
C27 C 0.7029(4) 0.7441(3) 0.87051(17)
H41 H 0.7449 0.6882 0.9098
C28 C 0.5981(4) 0.7127(3) 0.83770(18)
H42 H 0.5713 0.6346 0.8536
C29 C 0.5287(3) 0.7986(3) 0.77890(16)
C30 C 0.5760(3) 0.9125(3) 0.75319(16)
C31 C 0.5044(4) 1.0008(4) 0.69666(18)
H43 H 0.5351 1.0758 0.6791
C32 C 0.3906(4) 0.9770(4) 0.6676(2)
H44 H 0.3436 1.0358 0.6304
C33 C 0.3442(4) 0.8643(5) 0.6935(2)
H45 H 0.2654 0.8497 0.6737
C34 C 0.4113(4) 0.7767(4) 0.74649(19)
H46 H 0.3801 0.7008 0.7620
O7 O 0.9392(6) 0.9295(5) 0.6248(3)
H47 H 0.8845 0.9566 0.6616
H48 H 0.9570 0.8424 0.6238
O8 O 0.8349(13) 0.0600(11) 0.4722(5)
H49 H 0.8658 0.0244 0.5131
H50 H 0.9055 0.0619 0.4438
loop_
_geom_bond_atom_site_label_1
_geom_bond_atom_site_label_2
_geom_bond_site_symmetry_1
_geom_bond_site_symmetry_2
N1 H1 1_555 1_555
H2 N1 1_555 1_555
C1 N1 1_555 1_555
H3 C1 1_555 1_555
C2 C1 1_555 1_555
H4 C2 1_555 1_555
H5 C2 1_555 1_555
H6 C2 1_555 1_555
C3 C1 1_555 1_555
H7 C3 1_555 1_555
H8 C3 1_555 1_555
H9 C3 1_555 1_555
C4 N1 1_555 1_555
H10 C4 1_555 1_555
C5 C4 1_555 1_555
H11 C5 1_555 1_555
H12 C5 1_555 1_555
H13 C5 1_555 1_555
C6 C4 1_555 1_555
H14 C6 1_555 1_555
H15 C6 1_555 1_555
H16 C6 1_555 1_555
N2 H17 1_555 1_555
H18 N2 1_555 1_555
C7 N2 1_555 1_555
H19 C7 1_555 1_555
C8 C7 1_555 1_555
H20 C8 1_555 1_555
H21 C8 1_555 1_555
H22 C8 1_555 1_555
C9 C7 1_555 1_555
H23 C9 1_555 1_555
H24 C9 1_555 1_555
H25 C9 1_555 1_555
C10 N2 1_555 1_555
H26 C10 1_555 1_555
C11 C10 1_555 1_555
H27 C11 1_555 1_555
H28 C11 1_555 1_555
H29 C11 1_555 1_555
C12 C10 1_555 1_555
H30 C12 1_555 1_555
H31 C12 1_555 1_555
H32 C12 1_555 1_555
O1 C13 1_555 1_555
O2 C13 1_555 1_555
O3 H33 1_555 1_555
C13 C15 1_555 1_555
C14 O3 1_555 1_555
C15 C14 1_555 1_555
C16 C15 1_555 1_555
H34 C16 1_555 1_555
C17 C16 1_555 1_555
H35 C17 1_555 1_555
C18 C17 1_555 1_555
C19 C14 1_555 1_555
C20 C19 1_555 1_555
H36 C20 1_555 1_555
C21 C20 1_555 1_555
H37 C21 1_555 1_555
C22 C21 1_555 1_555
H38 C22 1_555 1_555
C23 C18 1_555 1_555
H39 C23 1_555 1_555
O4 C24 1_555 1_555
O5 C24 1_555 1_555
O6 H40 1_555 1_555
C24 C26 1_555 1_555
C25 O6 1_555 1_555
C26 C25 1_555 1_555
C27 C26 1_555 1_555
H41 C27 1_555 1_555
C28 C27 1_555 1_555
H42 C28 1_555 1_555
C29 C28 1_555 1_555
C30 C25 1_555 1_555
C31 C30 1_555 1_555
H43 C31 1_555 1_555
C32 C31 1_555 1_555
H44 C32 1_555 1_555
C33 C32 1_555 1_555
H45 C33 1_555 1_555
C34 C29 1_555 1_555
H46 C34 1_555 1_555
O7 H47 1_555 1_555
H48 O7 1_555 1_555
O8 H49 1_555 1_555
H50 O8 1_555 1_555
C18 C19 1_555 1_555
C22 C23 1_555 1_555
C29 C30 1_555 1_555
C33 C34 1_555 1_555

#END
