
#######################################################################
#
#                 Cambridge Crystallographic Data Centre
#                                CCDC 
#
#######################################################################
#
# If this CIF has been generated from an entry in the Cambridge 
# Structural Database, then it will include bibliographic, chemical, 
# crystal, experimental, refinement or atomic coordinate data resulting 
# from the CCDC's data processing and validation procedures.
#
#######################################################################

data_JAVGUL
_chemical_formula_moiety         'C7 H6 Br1 N2 S1 1+,N1 O3 1-'
_chemical_name_systematic        
'6-bromo-1,3-benzothiazol-2(3H)-iminium nitrate'
_symmetry_cell_setting           monoclinic
_symmetry_space_group_name_H-M   'P 21'
_symmetry_Int_Tables_number      4
_space_group_name_Hall           'P 2yb'
loop_
_symmetry_equiv_pos_site_id
_symmetry_equiv_pos_as_xyz
1 x,y,z
2 -x,1/2+y,-z
_cell_length_a                   4.4468(5)
_cell_length_b                   8.3141(6)
_cell_length_c                   13.5514(14)
_cell_angle_alpha                90
_cell_angle_beta                 92.0560(10)
_cell_angle_gamma                90
_cell_volume                     500.688
_exptl_crystal_colour            colorless
_exptl_crystal_description       block
_cell_formula_units_Z            2
loop_
_atom_site_label
_atom_site_type_symbol
_atom_site_fract_x
_atom_site_fract_y
_atom_site_fract_z
Br1 Br 1.3999(2) 0.43446(13) 0.52900(7)
S1 S 0.6735(7) 0.1264(4) 0.2348(2)
N1 N 0.538(2) 0.4166(15) 0.1790(6)
H1 H 0.4548 0.4957 0.1477
N2 N 0.278(3) 0.2120(15) 0.0865(9)
H2 H 0.1809 0.2828 0.0518
H3 H 0.2472 0.1113 0.0757
C1 C 0.477(3) 0.2585(16) 0.1573(8)
C2 C 0.840(3) 0.2859(15) 0.2951(8)
C3 C 0.746(2) 0.4361(16) 0.2557(6)
C4 C 0.852(3) 0.5767(15) 0.2949(8)
H4 H 0.7882 0.6739 0.2675
C5 C 1.057(3) 0.5771(16) 0.3757(9)
H5 H 1.1318 0.6728 0.4024
C6 C 1.1439(19) 0.4316(19) 0.4139(6)
C7 C 1.043(3) 0.2866(17) 0.3748(9)
H6 H 1.1111 0.1901 0.4021
N3 N 0.235(3) 0.7805(14) 0.0941(8)
O1 O 0.126(2) 0.8863(12) 0.0396(7)
O2 O 0.202(3) 0.6389(12) 0.0746(8)
O3 O 0.35(4) 0.822(5) 0.175(10)
O4? O 0.47(6) 0.820(7) 0.144(15)
loop_
_geom_bond_atom_site_label_1
_geom_bond_atom_site_label_2
_geom_bond_site_symmetry_1
_geom_bond_site_symmetry_2
Br1 C6 1_555 1_555
S1 C1 1_555 1_555
N1 H1 1_555 1_555
N2 H2 1_555 1_555
H3 N2 1_555 1_555
C1 N1 1_555 1_555
C2 S1 1_555 1_555
C3 N1 1_555 1_555
C4 C3 1_555 1_555
H4 C4 1_555 1_555
C5 C4 1_555 1_555
H5 C5 1_555 1_555
C6 C5 1_555 1_555
C7 C2 1_555 1_555
H6 C7 1_555 1_555
N3 O1 1_555 1_555
O2 N3 1_555 1_555
O3 N3 1_555 1_555
N2 C1 1_555 1_555
C2 C3 1_555 1_555
C6 C7 1_555 1_555

#END
