
#######################################################################
#
#                 Cambridge Crystallographic Data Centre
#                                CCDC 
#
#######################################################################
#
# If this CIF has been generated from an entry in the Cambridge 
# Structural Database, then it will include bibliographic, chemical, 
# crystal, experimental, refinement or atomic coordinate data resulting 
# from the CCDC's data processing and validation procedures.
#
#######################################################################

data_JAVNUS
_chemical_formula_moiety         'C14 H13 O3 1-,C6 H16 N1 1+'
_chemical_name_systematic        
'N,N-diisopropylammonium 2-methyl-2-(2-naphthyloxy)propanoate'
_symmetry_cell_setting           triclinic
_symmetry_space_group_name_H-M   'P -1'
_symmetry_Int_Tables_number      2
_space_group_name_Hall           '-P 1'
loop_
_symmetry_equiv_pos_site_id
_symmetry_equiv_pos_as_xyz
1 x,y,z
2 -x,-y,-z
_cell_length_a                   9.2602(6)
_cell_length_b                   9.2606(5)
_cell_length_c                   13.3062(11)
_cell_angle_alpha                96.2770(10)
_cell_angle_beta                 107.8080(10)
_cell_angle_gamma                113.174(2)
_cell_volume                     963.742
_exptl_crystal_colour            colorless
_exptl_crystal_description       block
_cell_formula_units_Z            2
loop_
_atom_site_label
_atom_site_type_symbol
_atom_site_fract_x
_atom_site_fract_y
_atom_site_fract_z
N1 N 0.8493(3) 0.5714(3) 0.59003(19)
H1 H 0.7737 0.4905 0.5295
H2 H 0.9534 0.5943 0.5905
C1 C 0.8217(4) 0.7175(4) 0.5791(3)
H3 H 0.7058 0.6923 0.5732
C2 C 0.8397(6) 0.7531(5) 0.4745(3)
H4 H 0.9547 0.7838 0.4811
H5 H 0.8119 0.8405 0.4610
H6 H 0.7641 0.6577 0.4148
C3 C 0.9459(5) 0.8595(4) 0.6779(3)
H7 H 0.9231 0.8355 0.7414
H8 H 0.9336 0.9552 0.6662
H9 H 1.0597 0.8779 0.6887
C4 C 0.8362(4) 0.5079(4) 0.6864(3)
H10 H 0.9206 0.5934 0.7531
C5 C 0.6598(5) 0.4610(5) 0.6881(3)
H11 H 0.6379 0.5541 0.6897
H12 H 0.6543 0.4236 0.7520
H13 H 0.5761 0.3758 0.6238
C6 C 0.8764(5) 0.3649(5) 0.6815(3)
H14 H 0.7918 0.2786 0.6180
H15 H 0.8770 0.3275 0.7461
H16 H 0.9861 0.3979 0.6774
O1 O 0.5887(3) 0.3210(3) 0.41268(17)
O2 O 0.8185(3) 0.3241(3) 0.39373(18)
O3 O 0.6213(3) 0.1266(3) 0.18352(17)
C7 C 0.6623(4) 0.2686(4) 0.3655(2)
C8 C 0.5495(4) 0.1185(3) 0.2665(3)
C9 C 0.3662(4) 0.0875(4) 0.2179(3)
H17 H 0.3608 0.1788 0.1922
H18 H 0.3183 0.0726 0.2728
H19 H 0.3031 -0.0088 0.1580
C10 C 0.5588(5) -0.0275(4) 0.3047(3)
H20 H 0.4909 -0.1235 0.2446
H21 H 0.5166 -0.0413 0.3623
H22 H 0.6747 -0.0101 0.3313
C11 C 0.6383(4) 0.3920(4) 0.1668(2)
H23 H 0.5886 0.3982 0.2172
C12 C 0.6588(4) 0.2578(4) 0.1403(2)
C13 C 0.7281(5) 0.2454(4) 0.0600(3)
H24 H 0.7382 0.1517 0.0392
C14 C 0.7791(4) 0.3686(5) 0.0142(3)
H25 H 0.8245 0.3585 -0.0381
C15 C 0.7661(4) 0.5128(4) 0.0428(3)
C16 C 0.6908(4) 0.5219(4) 0.1195(2)
C17 C 0.6737(4) 0.6640(4) 0.1474(3)
H26 H 0.6222 0.6705 0.1966
C18 C 0.7302(5) 0.7908(5) 0.1047(3)
H27 H 0.7176 0.8833 0.1247
C19 C 0.8073(5) 0.7835(5) 0.0306(3)
H28 H 0.8468 0.8714 0.0018
C20 C 0.8249(5) 0.6490(5) 0.0005(3)
H29 H 0.8768 0.6459 -0.0490
loop_
_geom_bond_atom_site_label_1
_geom_bond_atom_site_label_2
_geom_bond_site_symmetry_1
_geom_bond_site_symmetry_2
N1 H1 1_555 1_555
H2 N1 1_555 1_555
C1 N1 1_555 1_555
H3 C1 1_555 1_555
C2 C1 1_555 1_555
H4 C2 1_555 1_555
H5 C2 1_555 1_555
H6 C2 1_555 1_555
C3 C1 1_555 1_555
H7 C3 1_555 1_555
H8 C3 1_555 1_555
H9 C3 1_555 1_555
C4 N1 1_555 1_555
H10 C4 1_555 1_555
C5 C4 1_555 1_555
H11 C5 1_555 1_555
H12 C5 1_555 1_555
H13 C5 1_555 1_555
C6 C4 1_555 1_555
H14 C6 1_555 1_555
H15 C6 1_555 1_555
H16 C6 1_555 1_555
O1 C7 1_555 1_555
O2 C7 1_555 1_555
O3 C8 1_555 1_555
C7 C8 1_555 1_555
C8 C9 1_555 1_555
C9 H17 1_555 1_555
H18 C9 1_555 1_555
H19 C9 1_555 1_555
C10 C8 1_555 1_555
H20 C10 1_555 1_555
H21 C10 1_555 1_555
H22 C10 1_555 1_555
C11 H23 1_555 1_555
C12 O3 1_555 1_555
C13 C12 1_555 1_555
H24 C13 1_555 1_555
C14 C13 1_555 1_555
H25 C14 1_555 1_555
C15 C14 1_555 1_555
C16 C11 1_555 1_555
C17 C16 1_555 1_555
H26 C17 1_555 1_555
C18 C17 1_555 1_555
H27 C18 1_555 1_555
C19 C18 1_555 1_555
H28 C19 1_555 1_555
C20 C15 1_555 1_555
H29 C20 1_555 1_555
C11 C12 1_555 1_555
C15 C16 1_555 1_555
C19 C20 1_555 1_555

#END
