
#######################################################################
#
#                 Cambridge Crystallographic Data Centre
#                                CCDC 
#
#######################################################################
#
# If this CIF has been generated from an entry in the Cambridge 
# Structural Database, then it will include bibliographic, chemical, 
# crystal, experimental, refinement or atomic coordinate data resulting 
# from the CCDC's data processing and validation procedures.
#
#######################################################################

data_JAWQUT05
_chemical_formula_moiety         'C10 H20 Ca1 N2 O11'
_chemical_name_systematic        (15-Crown-5)-bis(nitrato-O,O')-calcium
_symmetry_cell_setting           orthorhombic
_symmetry_space_group_name_H-M   'P b c a'
_symmetry_Int_Tables_number      61
_space_group_name_Hall           '-P 2ac 2ab'
loop_
_symmetry_equiv_pos_site_id
_symmetry_equiv_pos_as_xyz
1 x,y,z
2 1/2-x,-y,1/2+z
3 -x,1/2+y,1/2-z
4 1/2+x,1/2-y,-z
5 -x,-y,-z
6 1/2+x,y,1/2-z
7 x,1/2-y,1/2+z
8 1/2-x,1/2+y,z
_cell_length_a                   15.2198(11)
_cell_length_b                   13.3689(13)
_cell_length_c                   15.9745(15)
_cell_angle_alpha                90
_cell_angle_beta                 90
_cell_angle_gamma                90
_cell_volume                     3250.36
_exptl_crystal_colour            colorless
_exptl_crystal_description       block
_cell_formula_units_Z            8
loop_
_atom_site_label
_atom_site_type_symbol
_atom_site_fract_x
_atom_site_fract_y
_atom_site_fract_z
Ca1 Ca 0.06644(2) 0.27498(3) 0.32390(2)
N1 N 0.12102(11) 0.42198(12) 0.19928(10)
O1 O -0.02191(11) 0.27630(11) 0.46145(9)
O2 O -0.09383(9) 0.29704(12) 0.30874(9)
O3 O 0.07708(9) 0.11866(11) 0.41216(9)
O4 O 0.00324(8) 0.18568(10) 0.20038(9)
O5 O 0.16317(9) 0.13825(10) 0.26531(10)
O6 O 0.04048(9) 0.41398(11) 0.21551(9)
O7 O 0.17189(9) 0.35862(11) 0.23187(11)
O8 O 0.14958(11) 0.48848(12) 0.15352(10)
O9 O 0.10018(12) 0.43149(11) 0.40063(10)
C1 C -0.13110(13) 0.26557(16) 0.23044(13)
H1 H -0.1212 0.3165 0.1883
H2 H -0.1940 0.2565 0.2366
C2 C -0.08987(12) 0.16948(15) 0.20331(14)
H3 H -0.1038 0.1166 0.2427
H4 H -0.1116 0.1502 0.1485
O10 O 0.18606(11) 0.30567(13) 0.42344(11)
C3 C 0.05065(14) 0.10462(16) 0.16237(14)
H5 H 0.0387 0.1019 0.1028
H6 H 0.0335 0.0414 0.1872
N2 N 0.16313(13) 0.39415(15) 0.44125(11)
C4 C 0.05510(19) 0.13114(18) 0.49823(14)
H7 H 0.0988 0.1721 0.5261
H8 H 0.0525 0.0667 0.5261
C5 C -0.03224(19) 0.18096(19) 0.50074(15)
H9 H -0.0755 0.1412 0.4710
H10 H -0.0516 0.1892 0.5582
C6 C 0.14662(14) 0.12458(17) 0.17780(15)
H11 H 0.1812 0.0688 0.1572
H12 H 0.1644 0.1841 0.1475
O11 O 0.20119(13) 0.44118(15) 0.49637(11)
C7 C 0.15919(15) 0.06812(17) 0.40127(17)
H13 H 0.1603 0.0069 0.4339
H14 H 0.2073 0.1104 0.4194
C8 C -0.15289(15) 0.2929(2) 0.37723(15)
H15 H -0.1728 0.2249 0.3864
H16 H -0.2037 0.3350 0.3668
C9 C 0.16754(15) 0.04514(16) 0.31042(17)
H17 H 0.2231 0.0120 0.2995
H18 H 0.1203 0.0012 0.2928
C10 C -0.10257(18) 0.3302(2) 0.45160(15)
H19 H -0.0900 0.4008 0.4446
H20 H -0.1381 0.3224 0.5016
loop_
_geom_bond_atom_site_label_1
_geom_bond_atom_site_label_2
_geom_bond_site_symmetry_1
_geom_bond_site_symmetry_2
Ca1 O1 1_555 1_555
N1 O6 1_555 1_555
O1 C5 1_555 1_555
O2 Ca1 1_555 1_555
O3 Ca1 1_555 1_555
O4 Ca1 1_555 1_555
O5 Ca1 1_555 1_555
O6 Ca1 1_555 1_555
O7 Ca1 1_555 1_555
O8 N1 1_555 1_555
O9 Ca1 1_555 1_555
C1 O2 1_555 1_555
H1 C1 1_555 1_555
H2 C1 1_555 1_555
C2 O4 1_555 1_555
H3 C2 1_555 1_555
H4 C2 1_555 1_555
O10 Ca1 1_555 1_555
C3 O4 1_555 1_555
H5 C3 1_555 1_555
H6 C3 1_555 1_555
N2 O9 1_555 1_555
C4 O3 1_555 1_555
H7 C4 1_555 1_555
H8 C4 1_555 1_555
C5 C4 1_555 1_555
H9 C5 1_555 1_555
H10 C5 1_555 1_555
C6 O5 1_555 1_555
H11 C6 1_555 1_555
H12 C6 1_555 1_555
O11 N2 1_555 1_555
C7 O3 1_555 1_555
H13 C7 1_555 1_555
H14 C7 1_555 1_555
C8 O2 1_555 1_555
H15 C8 1_555 1_555
H16 C8 1_555 1_555
C9 O5 1_555 1_555
H17 C9 1_555 1_555
H18 C9 1_555 1_555
C10 O1 1_555 1_555
H19 C10 1_555 1_555
H20 C10 1_555 1_555
N1 O7 1_555 1_555
C1 C2 1_555 1_555
O10 N2 1_555 1_555
C3 C6 1_555 1_555
C7 C9 1_555 1_555
C8 C10 1_555 1_555

#END
