
#######################################################################
#
#                 Cambridge Crystallographic Data Centre
#                                CCDC 
#
#######################################################################
#
# If this CIF has been generated from an entry in the Cambridge 
# Structural Database, then it will include bibliographic, chemical, 
# crystal, experimental, refinement or atomic coordinate data resulting 
# from the CCDC's data processing and validation procedures.
#
#######################################################################

data_JAWQUT07
_chemical_formula_moiety         'C10 H20 Ca1 N2 O11'
_chemical_name_systematic        (15-Crown-5)-bis(nitrato-O,O')-calcium
_symmetry_cell_setting           orthorhombic
_symmetry_space_group_name_H-M   'P b c a'
_symmetry_Int_Tables_number      61
_space_group_name_Hall           '-P 2ac 2ab'
loop_
_symmetry_equiv_pos_site_id
_symmetry_equiv_pos_as_xyz
1 x,y,z
2 1/2-x,-y,1/2+z
3 -x,1/2+y,1/2-z
4 1/2+x,1/2-y,-z
5 -x,-y,-z
6 1/2+x,y,1/2-z
7 x,1/2-y,1/2+z
8 1/2-x,1/2+y,z
_cell_length_a                   15.261(7)
_cell_length_b                   13.532(7)
_cell_length_c                   16.077(8)
_cell_angle_alpha                90
_cell_angle_beta                 90
_cell_angle_gamma                90
_cell_volume                     3320.09
_exptl_crystal_colour            colorless
_exptl_crystal_description       block
_cell_formula_units_Z            8
loop_
_atom_site_label
_atom_site_type_symbol
_atom_site_fract_x
_atom_site_fract_y
_atom_site_fract_z
Ca1 Ca 0.06760(3) 0.27469(4) 0.32395(3)
N1 N 0.12037(14) 0.42147(16) 0.20009(13)
O1 O -0.02222(15) 0.27302(16) 0.46073(12)
O2 O -0.09257(12) 0.29540(17) 0.30939(12)
O3 O 0.07942(12) 0.12023(14) 0.41113(13)
O4 O 0.00339(11) 0.18619(13) 0.20149(12)
O5 O 0.16329(11) 0.13927(13) 0.26456(14)
O6 O 0.04099(12) 0.41312(15) 0.21748(13)
O7 O 0.17101(12) 0.35860(15) 0.23095(15)
O8 O 0.14809(15) 0.48720(16) 0.15481(13)
O9 O 0.10048(19) 0.42912(16) 0.40168(16)
C1 C -0.12933(17) 0.2657(2) 0.23096(18)
H1 H -0.1188 0.3167 0.1897
H2 H -0.1922 0.2574 0.2366
C2 C -0.08935(17) 0.1719(2) 0.20335(19)
H3 H -0.1043 0.1191 0.2416
H4 H -0.1106 0.1544 0.1485
O10 O 0.18819(15) 0.30698(19) 0.42192(15)
C3 C 0.0504(2) 0.1066(2) 0.1631(2)
H5 H 0.0381 0.1044 0.1039
H6 H 0.0334 0.0440 0.1875
N2 N 0.1638(2) 0.3934(2) 0.44060(17)
C4 C 0.0564(3) 0.1317(3) 0.4967(2)
H7 H 0.0992 0.1728 0.5250
H8 H 0.0546 0.0678 0.5241
C5 C -0.0306(3) 0.1786(3) 0.4991(2)
H9 H -0.0730 0.1386 0.4693
H10 H -0.0502 0.1859 0.5562
C6 C 0.14556(19) 0.1257(2) 0.1777(2)
H11 H 0.1796 0.0704 0.1569
H12 H 0.1632 0.1843 0.1473
O11 O 0.2029(2) 0.4394(2) 0.49489(15)
C7 C 0.1609(2) 0.0703(3) 0.3992(3)
H13 H 0.1624 0.0098 0.4315
H14 H 0.2092 0.1120 0.4168
C8 C -0.1509(2) 0.2917(3) 0.3772(2)
H15 H -0.1721 0.2248 0.3851
H16 H -0.2008 0.3344 0.3670
C9 C 0.1683(2) 0.0477(2) 0.3095(3)
H17 H 0.2236 0.0151 0.2981
H18 H 0.1211 0.0041 0.2925
C10 C -0.1030(2) 0.3249(3) 0.4510(2)
H19 H -0.0912 0.3951 0.4463
H20 H -0.1390 0.3146 0.4999
loop_
_geom_bond_atom_site_label_1
_geom_bond_atom_site_label_2
_geom_bond_site_symmetry_1
_geom_bond_site_symmetry_2
Ca1 O1 1_555 1_555
N1 O6 1_555 1_555
O1 C5 1_555 1_555
O2 Ca1 1_555 1_555
O3 Ca1 1_555 1_555
O4 Ca1 1_555 1_555
O5 Ca1 1_555 1_555
O6 Ca1 1_555 1_555
O7 Ca1 1_555 1_555
O8 N1 1_555 1_555
O9 Ca1 1_555 1_555
C1 O2 1_555 1_555
H1 C1 1_555 1_555
H2 C1 1_555 1_555
C2 O4 1_555 1_555
H3 C2 1_555 1_555
H4 C2 1_555 1_555
O10 Ca1 1_555 1_555
C3 O4 1_555 1_555
H5 C3 1_555 1_555
H6 C3 1_555 1_555
N2 O9 1_555 1_555
C4 O3 1_555 1_555
H7 C4 1_555 1_555
H8 C4 1_555 1_555
C5 C4 1_555 1_555
H9 C5 1_555 1_555
H10 C5 1_555 1_555
C6 O5 1_555 1_555
H11 C6 1_555 1_555
H12 C6 1_555 1_555
O11 N2 1_555 1_555
C7 O3 1_555 1_555
H13 C7 1_555 1_555
H14 C7 1_555 1_555
C8 O2 1_555 1_555
H15 C8 1_555 1_555
H16 C8 1_555 1_555
C9 O5 1_555 1_555
H17 C9 1_555 1_555
H18 C9 1_555 1_555
C10 O1 1_555 1_555
H19 C10 1_555 1_555
H20 C10 1_555 1_555
N1 O7 1_555 1_555
C1 C2 1_555 1_555
O10 N2 1_555 1_555
C3 C6 1_555 1_555
C7 C9 1_555 1_555
C8 C10 1_555 1_555

#END
