
#######################################################################
#
#                 Cambridge Crystallographic Data Centre
#                                CCDC 
#
#######################################################################
#
# If this CIF has been generated from an entry in the Cambridge 
# Structural Database, then it will include bibliographic, chemical, 
# crystal, experimental, refinement or atomic coordinate data resulting 
# from the CCDC's data processing and validation procedures.
#
#######################################################################

data_JAWWUC
_chemical_formula_moiety         'C26 H22 F1 N1 O4'
_chemical_name_systematic        
'diethyl 2-fluoro-5,11-dimethylisoquinolino[2,1,8-lma]carbazole-4,12-dicarboxylate'
_symmetry_cell_setting           triclinic
_symmetry_space_group_name_H-M   'P -1'
_symmetry_Int_Tables_number      2
_space_group_name_Hall           '-P 1'
loop_
_symmetry_equiv_pos_site_id
_symmetry_equiv_pos_as_xyz
1 x,y,z
2 -x,-y,-z
_cell_length_a                   12.2335(5)
_cell_length_b                   13.0790(6)
_cell_length_c                   14.4423(5)
_cell_angle_alpha                95.978(3)
_cell_angle_beta                 106.554(4)
_cell_angle_gamma                105.092(4)
_cell_volume                     2098.54
_exptl_crystal_colour            colorless
_exptl_crystal_description       plane
_chemical_melting_point          '197-199 deg.C'
_cell_formula_units_Z            4
loop_
_atom_site_label
_atom_site_type_symbol
_atom_site_fract_x
_atom_site_fract_y
_atom_site_fract_z
O1 O 0.6816(3) -0.28410(18) -0.01386(17)
O2 O 0.63371(19) -0.20767(15) 0.10726(15)
O3 O 1.0647(2) 0.46373(17) 0.23211(17)
O4 O 0.93619(19) 0.39743(14) 0.08169(14)
F1 F 0.58249(14) 0.14188(14) 0.07287(15)
N1 N 1.11956(19) 0.14486(17) 0.16733(15)
C1 C 0.6894(2) 0.1213(2) 0.09042(19)
C2 C 0.7898(2) 0.2095(2) 0.11846(18)
H1 H 0.7838 0.2791 0.1265
C3 C 0.9010(2) 0.19237(18) 0.13458(15)
C4 C 0.9015(2) 0.08374(18) 0.12279(15)
C5 C 0.7968(2) -0.00623(19) 0.09432(16)
C6 C 0.6876(2) 0.0160(2) 0.07715(18)
H2 H 0.6157 -0.0396 0.0572
C7 C 0.8115(3) -0.11280(19) 0.08216(17)
C8 C 0.9222(3) -0.12789(19) 0.09718(17)
C9 C 0.9411(3) -0.2368(2) 0.0900(2)
H3 H 0.8651 -0.2918 0.0705
H4 H 0.9901 -0.2431 0.1529
H5 H 0.9801 -0.2453 0.0420
C10 C 1.0244(2) -0.03711(18) 0.12505(15)
C11 C 1.0109(2) 0.06465(18) 0.13821(15)
C12 C 1.1224(2) 0.25347(19) 0.18109(16)
C13 C 1.0153(2) 0.27600(18) 0.16300(16)
C14 C 1.2088(2) 0.0915(2) 0.17262(17)
C15 C 1.1498(3) -0.0209(2) 0.14615(17)
C16 C 1.2167(3) -0.0927(3) 0.1423(2)
H6 H 1.1794 -0.1668 0.1248
C17 C 1.3374(3) -0.0515(3) 0.1646(2)
H7 H 1.3823 -0.0985 0.1617
C18 C 1.3951(3) 0.0585(3) 0.1917(2)
H8 H 1.4779 0.0839 0.2075
C19 C 1.3317(3) 0.1306(3) 0.1956(2)
H9 H 1.3708 0.2044 0.2133
C20 C 1.2412(2) 0.3384(2) 0.2116(2)
H10 H 1.2300 0.4085 0.2183
H11 H 1.2792 0.3310 0.1627
H12 H 1.2908 0.3304 0.2735
C21 C 0.7042(3) -0.2100(2) 0.05201(19)
C22 C 0.5272(3) -0.2983(3) 0.0838(3)
H13 H 0.4970 -0.3256 0.0133
H14 H 0.4661 -0.2747 0.1022
C23 C 0.5512(4) -0.3854(3) 0.1355(4)
H15 H 0.4787 -0.4444 0.1185
H16 H 0.5799 -0.3589 0.2053
H17 H 0.6106 -0.4097 0.1165
C24 C 1.0133(2) 0.38947(19) 0.16690(17)
C25 C 0.9058(3) 0.4965(2) 0.0779(3)
H18 H 0.9710 0.5532 0.0717
H19 H 0.8892 0.5196 0.1372
C26 C 0.7972(4) 0.4727(3) -0.0100(4)
H20 H 0.7728 0.5364 -0.0159
H21 H 0.7337 0.4162 -0.0029
H22 H 0.8150 0.4500 -0.0679
O5 O 1.44787(19) 0.3344(2) 0.43245(17)
O6 O 1.46992(19) 0.2631(2) 0.56589(16)
O7 O 0.68317(19) 0.1706(2) 0.42250(16)
O8 O 0.73979(16) 0.27392(15) 0.32128(13)
F2 F 1.14031(15) 0.51757(13) 0.46359(14)
N2 N 1.1304(2) 0.02948(19) 0.39754(15)
C27 C 1.1165(2) 0.4085(2) 0.44644(19)
C28 C 1.2123(2) 0.3694(2) 0.45710(18)
H23 H 1.2901 0.4158 0.4762
C29 C 1.1888(2) 0.2573(2) 0.43823(16)
C30 C 1.0680(2) 0.1928(2) 0.40991(16)
C31 C 0.9708(2) 0.2352(2) 0.40105(16)
C32 C 0.9988(2) 0.3475(2) 0.42055(18)
H24 H 0.9390 0.3802 0.4161
C33 C 0.8527(2) 0.1583(2) 0.37643(16)
C34 C 0.8322(2) 0.0485(2) 0.35853(16)
C35 C 0.7104(3) -0.0324(2) 0.3278(2)
H25 H 0.6516 0.0045 0.3254
H26 H 0.7078 -0.0794 0.3744
H27 H 0.6936 -0.0741 0.2638
C36 C 0.9309(2) 0.00938(18) 0.36605(14)
C37 C 1.0439(2) 0.08125(19) 0.39181(16)
C38 C 1.2527(2) 0.0930(2) 0.42561(17)
C39 C 1.3462(3) 0.0375(3) 0.4297(2)
H28 H 1.4237 0.0904 0.4497
H29 H 1.3305 -0.0038 0.3658
H30 H 1.3444 -0.0098 0.4762
C40 C 1.2791(2) 0.2032(2) 0.44628(17)
C41 C 1.0677(3) -0.0832(2) 0.37382(17)
C42 C 0.9454(3) -0.0960(2) 0.35507(16)
C43 C 0.8636(3) -0.1991(2) 0.3329(2)
H31 H 0.7825 -0.2082 0.3208
C44 C 0.9050(4) -0.2869(3) 0.3293(2)
H32 H 0.8510 -0.3559 0.3141
C45 C 1.0247(4) -0.2749(3) 0.3478(2)
H33 H 1.0501 -0.3359 0.3453
C46 C 1.1074(3) -0.1745(2) 0.3698(2)
H34 H 1.1882 -0.1671 0.3818
C47 C 1.4061(2) 0.2734(2) 0.4783(2)
C48 C 1.5971(3) 0.3256(5) 0.6026(3)
H35 H 1.6355 0.3077 0.5557
H36 H 1.6052 0.4020 0.6095
C49 C 1.6539(5) 0.3032(6) 0.6945(4)
H37 H 1.7370 0.3446 0.7174
H38 H 1.6467 0.2277 0.6875
H39 H 1.6166 0.3220 0.7412
C50 C 0.7499(2) 0.1994(2) 0.37680(18)
C51 C 0.6496(3) 0.3261(3) 0.3259(3)
H40 H 0.5729 0.2720 0.3124
H41 H 0.6715 0.3685 0.3913
C52 C 0.6410(5) 0.3947(4) 0.2545(5)
H42 H 0.5815 0.4294 0.2571
H43 H 0.6189 0.3522 0.1899
H44 H 0.7170 0.4485 0.2687
loop_
_geom_bond_atom_site_label_1
_geom_bond_atom_site_label_2
_geom_bond_site_symmetry_1
_geom_bond_site_symmetry_2
O1 C21 1_555 1_555
O2 C21 1_555 1_555
O3 C24 1_555 1_555
O4 C24 1_555 1_555
F1 C1 1_555 1_555
N1 C11 1_555 1_555
C1 C2 1_555 1_555
C2 H1 1_555 1_555
C3 C2 1_555 1_555
C4 C3 1_555 1_555
C5 C4 1_555 1_555
C6 C1 1_555 1_555
H2 C6 1_555 1_555
C7 C5 1_555 1_555
C8 C7 1_555 1_555
C9 C8 1_555 1_555
H3 C9 1_555 1_555
H4 C9 1_555 1_555
H5 C9 1_555 1_555
C10 C8 1_555 1_555
C11 C4 1_555 1_555
C12 N1 1_555 1_555
C13 C3 1_555 1_555
C14 N1 1_555 1_555
C15 C10 1_555 1_555
C16 C15 1_555 1_555
H6 C16 1_555 1_555
C17 C16 1_555 1_555
H7 C17 1_555 1_555
C18 C17 1_555 1_555
H8 C18 1_555 1_555
C19 C14 1_555 1_555
H9 C19 1_555 1_555
C20 C12 1_555 1_555
H10 C20 1_555 1_555
H11 C20 1_555 1_555
H12 C20 1_555 1_555
C21 C7 1_555 1_555
C22 O2 1_555 1_555
H13 C22 1_555 1_555
H14 C22 1_555 1_555
C23 C22 1_555 1_555
H15 C23 1_555 1_555
H16 C23 1_555 1_555
H17 C23 1_555 1_555
C24 C13 1_555 1_555
C25 O4 1_555 1_555
H18 C25 1_555 1_555
H19 C25 1_555 1_555
C26 C25 1_555 1_555
H20 C26 1_555 1_555
H21 C26 1_555 1_555
H22 C26 1_555 1_555
O5 C47 1_555 1_555
O6 C47 1_555 1_555
O7 C50 1_555 1_555
O8 C50 1_555 1_555
F2 C27 1_555 1_555
N2 C37 1_555 1_555
C27 C28 1_555 1_555
C28 H23 1_555 1_555
C29 C28 1_555 1_555
C30 C29 1_555 1_555
C31 C30 1_555 1_555
C32 C27 1_555 1_555
H24 C32 1_555 1_555
C33 C31 1_555 1_555
C34 C33 1_555 1_555
C35 C34 1_555 1_555
H25 C35 1_555 1_555
H26 C35 1_555 1_555
H27 C35 1_555 1_555
C36 C34 1_555 1_555
C37 C30 1_555 1_555
C38 N2 1_555 1_555
C39 C38 1_555 1_555
H28 C39 1_555 1_555
H29 C39 1_555 1_555
H30 C39 1_555 1_555
C40 C29 1_555 1_555
C41 N2 1_555 1_555
C42 C36 1_555 1_555
C43 C42 1_555 1_555
H31 C43 1_555 1_555
C44 C43 1_555 1_555
H32 C44 1_555 1_555
C45 C44 1_555 1_555
H33 C45 1_555 1_555
C46 C41 1_555 1_555
H34 C46 1_555 1_555
C47 C40 1_555 1_555
C48 O6 1_555 1_555
H35 C48 1_555 1_555
H36 C48 1_555 1_555
C49 C48 1_555 1_555
H37 C49 1_555 1_555
H38 C49 1_555 1_555
H39 C49 1_555 1_555
C50 C33 1_555 1_555
C51 O8 1_555 1_555
H40 C51 1_555 1_555
H41 C51 1_555 1_555
C52 C51 1_555 1_555
H42 C52 1_555 1_555
H43 C52 1_555 1_555
H44 C52 1_555 1_555
C5 C6 1_555 1_555
C10 C11 1_555 1_555
C12 C13 1_555 1_555
C14 C15 1_555 1_555
C18 C19 1_555 1_555
C31 C32 1_555 1_555
C36 C37 1_555 1_555
C38 C40 1_555 1_555
C41 C42 1_555 1_555
C45 C46 1_555 1_555

#END
