
#######################################################################
#
#                 Cambridge Crystallographic Data Centre
#                                CCDC 
#
#######################################################################
#
# If this CIF has been generated from an entry in the Cambridge 
# Structural Database, then it will include bibliographic, chemical, 
# crystal, experimental, refinement or atomic coordinate data resulting 
# from the CCDC's data processing and validation procedures.
#
#######################################################################

data_JAXDOE
_chemical_formula_moiety         'C31 H21 N1 Se1'
_chemical_name_systematic        
'12-methyl-5,6-diphenyl-12H-[1]benzoselenopheno[2,3-a]carbazole unknown solvate'
_symmetry_cell_setting           triclinic
_symmetry_space_group_name_H-M   'P -1'
_symmetry_Int_Tables_number      2
_space_group_name_Hall           '-P 1'
loop_
_symmetry_equiv_pos_site_id
_symmetry_equiv_pos_as_xyz
1 x,y,z
2 -x,-y,-z
_cell_length_a                   12.387(2)
_cell_length_b                   13.319(3)
_cell_length_c                   17.425(3)
_cell_angle_alpha                69.60(3)
_cell_angle_beta                 71.50(3)
_cell_angle_gamma                67.65(3)
_cell_volume                     2434.84
_exptl_crystal_colour            yellow
_exptl_crystal_description       prism
_cell_formula_units_Z            4
loop_
_atom_site_label
_atom_site_type_symbol
_atom_site_fract_x
_atom_site_fract_y
_atom_site_fract_z
C1 C 0.6101(8) 0.1801(7) 0.6690(6)
C2 C 0.6830(8) 0.1583(9) 0.5899(6)
H1 H 0.7256 0.2071 0.5533
C3 C 0.6891(9) 0.0705(9) 0.5700(7)
H2 H 0.7396 0.0550 0.5204
C4 C 0.6214(9) -0.0009(9) 0.6217(7)
H3 H 0.6244 -0.0614 0.6052
C5 C 0.5505(8) 0.0184(8) 0.6967(6)
H4 H 0.5086 -0.0316 0.7320
C6 C 0.5400(7) 0.1101(7) 0.7207(5)
C7 C 0.4684(6) 0.1472(7) 0.7995(5)
C8 C 0.4905(7) 0.2420(6) 0.8022(5)
C9 C 0.3909(7) 0.0959(6) 0.8668(5)
C10 C 0.3616(6) -0.0043(6) 0.8658(5)
C11 C 0.4153(8) -0.1099(7) 0.9102(7)
H5 H 0.4713 -0.1201 0.9394
C12 C 0.3870(12) -0.2008(9) 0.9116(9)
H6 H 0.4252 -0.2723 0.9411
C13 C 0.3030(10) -0.1877(9) 0.8703(7)
H7 H 0.2821 -0.2492 0.8731
C14 C 0.2510(8) -0.0834(9) 0.8254(6)
H8 H 0.1950 -0.0737 0.7962
C15 C 0.2798(7) 0.0081(8) 0.8223(5)
H9 H 0.2438 0.0789 0.7907
C16 C 0.3369(6) 0.1378(6) 0.9371(5)
C17 C 0.2541(6) 0.0863(6) 1.0072(5)
C18 C 0.1400(7) 0.1044(7) 1.0020(5)
H10 H 0.1133 0.1511 0.9536
C19 C 0.0644(7) 0.0545(8) 1.0675(6)
H11 H -0.0123 0.0674 1.0619
C20 C 0.0983(8) -0.0129(7) 1.1401(6)
H12 H 0.0453 -0.0447 1.1843
C21 C 0.2107(9) -0.0327(7) 1.1465(6)
H13 H 0.2347 -0.0786 1.1961
C22 C 0.2914(7) 0.0129(7) 1.0818(5)
H14 H 0.3692 -0.0043 1.0871
C23 C 0.3622(7) 0.2310(6) 0.9399(5)
C24 C 0.4362(7) 0.2844(7) 0.8722(5)
C25 C 0.5213(13) 0.4494(11) 0.8382(8)
H15 H 0.5582 0.4317 0.7851
H16 H 0.5819 0.4340 0.8676
H17 H 0.4759 0.5276 0.8292
C26 C 0.3732(8) 0.3824(7) 0.9689(6)
C27 C 0.3199(7) 0.2942(6) 1.0034(5)
C28 C 0.2454(8) 0.2835(8) 1.0817(6)
H18 H 0.2093 0.2266 1.1037
C29 C 0.2241(9) 0.3612(8) 1.1287(7)
H19 H 0.1767 0.3539 1.1825
C30 C 0.2762(11) 0.4478(9) 1.0919(8)
H20 H 0.2600 0.5003 1.1211
C31 C 0.3509(10) 0.4582(8) 1.0134(7)
H21 H 0.3859 0.5158 0.9909
N1 N 0.4467(6) 0.3850(6) 0.8850(4)
Se1 Se 0.59762(6) 0.30001(6) 0.70754(5)
C32 C 0.5885(7) 0.6394(7) 0.5754(5)
C33 C 0.5013(8) 0.7268(7) 0.6055(6)
H22 H 0.4370 0.7704 0.5798
C34 C 0.5113(9) 0.7477(7) 0.6728(6)
H23 H 0.4549 0.8082 0.6923
C35 C 0.6035(10) 0.6814(8) 0.7132(6)
H24 H 0.6060 0.6946 0.7615
C36 C 0.6915(8) 0.5961(7) 0.6829(5)
H25 H 0.7557 0.5541 0.7089
C37 C 0.6850(7) 0.5717(6) 0.6125(5)
C38 C 0.7636(6) 0.4834(6) 0.5688(5)
C39 C 0.7243(7) 0.4904(6) 0.5011(6)
C40 C 0.8689(7) 0.3958(6) 0.5905(5)
C41 C 0.9148(7) 0.3840(6) 0.6646(5)
C42 C 0.8888(9) 0.3073(7) 0.7402(5)
H26 H 0.8403 0.2650 0.7463
C43 C 0.9360(11) 0.2948(9) 0.8065(6)
H27 H 0.9210 0.2421 0.8570
C44 C 1.0033(11) 0.3583(9) 0.7983(7)
H28 H 1.0320 0.3505 0.8440
C45 C 1.0302(10) 0.4330(9) 0.7255(7)
H29 H 1.0770 0.4763 0.7209
C46 C 0.9869(10) 0.4445(8) 0.6575(6)
H30 H 1.0072 0.4941 0.6064
C47 C 0.9322(6) 0.3200(6) 0.5410(5)
C48 C 1.0402(7) 0.2273(6) 0.5628(5)
C49 C 1.1494(8) 0.2475(7) 0.5481(6)
H31 H 1.1540 0.3204 0.5245
C50 C 1.2492(8) 0.1615(8) 0.5678(7)
H32 H 1.3213 0.1762 0.5561
C51 C 1.2434(8) 0.0529(8) 0.6052(6)
H33 H 1.3111 -0.0052 0.6191
C52 C 1.1391(9) 0.0314(7) 0.6214(6)
H34 H 1.1349 -0.0414 0.6473
C53 C 1.0372(8) 0.1180(7) 0.5994(6)
H35 H 0.9665 0.1016 0.6097
C54 C 0.8908(7) 0.3313(6) 0.4706(5)
C55 C 0.7879(7) 0.4148(6) 0.4517(5)
C56 C 0.8657(8) 0.3168(7) 0.3496(6)
C57 C 0.9419(8) 0.2720(7) 0.4045(5)
C58 C 1.0479(9) 0.1873(7) 0.3879(6)
H36 H 1.1009 0.1559 0.4238
C59 C 1.0732(10) 0.1504(8) 0.3170(6)
H37 H 1.1436 0.0939 0.3050
C60 C 0.9928(11) 0.1981(9) 0.2635(7)
H38 H 1.0105 0.1724 0.2164
C61 C 0.8902(9) 0.2807(8) 0.2788(6)
H39 H 0.8375 0.3124 0.2428
N2 N 0.7730(9) 0.4016(9) 0.3760(7)
C62 C 0.68454(6) 0.47782(6) 0.33223(5)
H40 H 0.6279 0.5274 0.3655
H41 H 0.6443 0.4375 0.3206
H42 H 0.7207 0.5209 0.2805
Se2 Se 0.58367(6) 0.61005(6) 0.47578(5)
N3? N 0.61041(6) 0.59109(6) 0.51187(5)
C63? C 0.52263(6) 0.65082(6) 0.46107(5)
H43? H 0.5401 0.6151 0.4174
H44? H 0.5242 0.7271 0.4366
H45? H 0.4448 0.6502 0.4952
Se3? Se 0.71707(6) 0.42614(6) 0.37447(5)
loop_
_geom_bond_atom_site_label_1
_geom_bond_atom_site_label_2
_geom_bond_site_symmetry_1
_geom_bond_site_symmetry_2
C1 C2 1_555 1_555
C2 H1 1_555 1_555
C3 C2 1_555 1_555
H2 C3 1_555 1_555
C4 C3 1_555 1_555
H3 C4 1_555 1_555
C5 C4 1_555 1_555
H4 C5 1_555 1_555
C6 C1 1_555 1_555
C7 C6 1_555 1_555
C8 C7 1_555 1_555
C9 C7 1_555 1_555
C10 C9 1_555 1_555
C11 C10 1_555 1_555
H5 C11 1_555 1_555
C12 C11 1_555 1_555
H6 C12 1_555 1_555
C13 C12 1_555 1_555
H7 C13 1_555 1_555
C14 C13 1_555 1_555
H8 C14 1_555 1_555
C15 C10 1_555 1_555
H9 C15 1_555 1_555
C16 C9 1_555 1_555
C17 C16 1_555 1_555
C18 C17 1_555 1_555
H10 C18 1_555 1_555
C19 C18 1_555 1_555
H11 C19 1_555 1_555
C20 C19 1_555 1_555
H12 C20 1_555 1_555
C21 C20 1_555 1_555
H13 C21 1_555 1_555
C22 C17 1_555 1_555
H14 C22 1_555 1_555
C23 C16 1_555 1_555
C24 C8 1_555 1_555
C25 H15 1_555 1_555
H16 C25 1_555 1_555
H17 C25 1_555 1_555
C26 C27 1_555 1_555
C27 C23 1_555 1_555
C28 C27 1_555 1_555
H18 C28 1_555 1_555
C29 C28 1_555 1_555
H19 C29 1_555 1_555
C30 C29 1_555 1_555
H20 C30 1_555 1_555
C31 C26 1_555 1_555
H21 C31 1_555 1_555
N1 C24 1_555 1_555
Se1 C1 1_555 1_555
C32 C33 1_555 1_555
C33 H22 1_555 1_555
C34 C33 1_555 1_555
H23 C34 1_555 1_555
C35 C34 1_555 1_555
H24 C35 1_555 1_555
C36 C35 1_555 1_555
H25 C36 1_555 1_555
C37 C32 1_555 1_555
C38 C37 1_555 1_555
C39 C38 1_555 1_555
C40 C38 1_555 1_555
C41 C40 1_555 1_555
C42 C41 1_555 1_555
H26 C42 1_555 1_555
C43 C42 1_555 1_555
H27 C43 1_555 1_555
C44 C43 1_555 1_555
H28 C44 1_555 1_555
C45 C44 1_555 1_555
H29 C45 1_555 1_555
C46 C41 1_555 1_555
H30 C46 1_555 1_555
C47 C40 1_555 1_555
C48 C47 1_555 1_555
C49 C48 1_555 1_555
H31 C49 1_555 1_555
C50 C49 1_555 1_555
H32 C50 1_555 1_555
C51 C50 1_555 1_555
H33 C51 1_555 1_555
C52 C51 1_555 1_555
H34 C52 1_555 1_555
C53 C48 1_555 1_555
H35 C53 1_555 1_555
C54 C47 1_555 1_555
C55 C39 1_555 1_555
C56 C57 1_555 1_555
C57 C54 1_555 1_555
C58 C57 1_555 1_555
H36 C58 1_555 1_555
C59 C58 1_555 1_555
H37 C59 1_555 1_555
C60 C59 1_555 1_555
H38 C60 1_555 1_555
C61 C56 1_555 1_555
H39 C61 1_555 1_555
N2 C55 1_555 1_555
C62 N2 1_555 1_555
H40 C62 1_555 1_555
H41 C62 1_555 1_555
H42 C62 1_555 1_555
Se2 C32 1_555 1_555
C5 C6 1_555 1_555
C8 Se1 1_555 1_555
C14 C15 1_555 1_555
C21 C22 1_555 1_555
C23 C24 1_555 1_555
C25 N1 1_555 1_555
C26 N1 1_555 1_555
C30 C31 1_555 1_555
C36 C37 1_555 1_555
C39 Se2 1_555 1_555
C45 C46 1_555 1_555
C52 C53 1_555 1_555
C54 C55 1_555 1_555
C56 N2 1_555 1_555
C60 C61 1_555 1_555

#END
