
#######################################################################
#
#                 Cambridge Crystallographic Data Centre
#                                CCDC 
#
#######################################################################
#
# If this CIF has been generated from an entry in the Cambridge 
# Structural Database, then it will include bibliographic, chemical, 
# crystal, experimental, refinement or atomic coordinate data resulting 
# from the CCDC's data processing and validation procedures.
#
#######################################################################

data_JAXLAY
_chemical_formula_moiety         'C28 H23 N3 O7 S1'
_chemical_name_systematic        
"methyl 1'-methyl-4-((4-methylphenyl)sulfonyl)-3a-nitro-2'-oxo-1',2',4,8b-tetrahydro-3aH-spiro[cyclopenta[b]indole-1,3'-indole]-2-carboxylate"
_symmetry_cell_setting           monoclinic
_symmetry_space_group_name_H-M   'P 21/n'
_symmetry_Int_Tables_number      14
_space_group_name_Hall           '-P 2yn'
loop_
_symmetry_equiv_pos_site_id
_symmetry_equiv_pos_as_xyz
1 x,y,z
2 1/2-x,1/2+y,1/2-z
3 -x,-y,-z
4 1/2+x,1/2-y,1/2+z
_cell_length_a                   8.6870(2)
_cell_length_b                   11.0673(3)
_cell_length_c                   27.3684(7)
_cell_angle_alpha                90
_cell_angle_beta                 94.265(3)
_cell_angle_gamma                90
_cell_volume                     2623.96
_exptl_crystal_colour            colorless
_exptl_crystal_description       needle
_cell_formula_units_Z            4
loop_
_atom_site_label
_atom_site_type_symbol
_atom_site_fract_x
_atom_site_fract_y
_atom_site_fract_z
S1 S 0.64415(7) -0.00955(6) 0.38681(2)
O1 O 0.6713(2) 0.37427(19) 0.39615(7)
O2 O 0.7558(2) -0.07529(18) 0.36225(8)
O3 O 0.5108(2) -0.06852(17) 0.40268(8)
O4 O 0.3609(3) -0.0270(2) 0.29452(9)
O5 O 0.3180(3) 0.4564(2) 0.45228(8)
O6 O 0.3108(3) 0.2759(2) 0.48866(8)
N1 N 0.5742(2) 0.09460(19) 0.34786(8)
N2 N 0.5449(3) 0.5423(2) 0.36448(8)
N3 N 0.3085(3) 0.0503(2) 0.31930(10)
C1 C 0.6607(3) 0.1651(2) 0.31585(9)
C2 C 0.5720(3) 0.2616(2) 0.29803(8)
C3 C 0.4023(3) 0.3613(2) 0.36189(9)
C4 C 0.5583(3) 0.4235(2) 0.37665(9)
O7 O 0.1723(3) 0.0660(3) 0.32351(15)
C5 C 0.3587(3) 0.1682(2) 0.39669(10)
H1 H 0.3286 0.1104 0.4187
C6 C 0.3542(3) 0.2864(2) 0.40411(9)
C7 C 0.7400(3) 0.0657(2) 0.43685(10)
C8 C 0.4203(3) 0.2629(2) 0.32104(9)
H2 H 0.3344 0.2677 0.2958
C9 C 0.3940(3) 0.5704(2) 0.34638(9)
C10 C 0.3031(3) 0.4671(2) 0.34459(9)
C11 C 0.4188(3) 0.1401(2) 0.34809(9)
C12 C 0.8091(3) 0.1470(3) 0.30249(10)
H3 H 0.8680 0.0816 0.3144
C13 C 0.3230(3) 0.3369(3) 0.45310(10)
C14 C 0.6592(3) 0.0957(3) 0.47712(11)
H4 H 0.5545 0.0784 0.4774
C15 C 0.6305(4) 0.3428(3) 0.26592(10)
H5 H 0.5707 0.4071 0.2535
C16 C 0.7368(4) 0.1516(3) 0.51648(11)
H6 H 0.6835 0.1714 0.5436
C17 C 0.1498(4) 0.4736(3) 0.32833(12)
H7 H 0.0877 0.4051 0.3271
C18 C 0.8916(4) 0.1788(3) 0.51667(11)
C19 C 0.8668(4) 0.2299(4) 0.27069(11)
H8 H 0.9668 0.2201 0.2613
C20 C 0.8935(4) 0.0925(3) 0.43602(12)
H9 H 0.9465 0.0741 0.4087
C21 C 0.3353(4) 0.6825(3) 0.33215(11)
H10 H 0.3968 0.7514 0.3335
C22 C 0.7799(4) 0.3270(3) 0.25250(11)
H11 H 0.8217 0.3815 0.2313
C23 C 0.6691(4) 0.6289(3) 0.37272(14)
H12 H 0.6445 0.6846 0.3979
H13 H 0.6821 0.6725 0.3430
H14 H 0.7630 0.5872 0.3828
C24 C 0.1809(5) 0.6869(3) 0.31580(12)
H15 H 0.1381 0.7608 0.3060
C25 C 0.0896(4) 0.5870(4) 0.31359(12)
H16 H -0.0136 0.5936 0.3022
C26 C 0.9686(4) 0.1474(4) 0.47642(13)
H17 H 1.0736 0.1635 0.4764
C27 C 0.9756(5) 0.2393(4) 0.56043(15)
H18 H 0.9585 0.3250 0.5586
H19 H 1.0841 0.2230 0.5605
H20 H 0.9374 0.2084 0.5900
C28 C 0.2920(7) 0.5129(4) 0.49900(14)
H21 H 0.3098 0.5983 0.4969
H22 H 0.3615 0.4790 0.5242
H23 H 0.1874 0.4988 0.5067
loop_
_geom_bond_atom_site_label_1
_geom_bond_atom_site_label_2
_geom_bond_site_symmetry_1
_geom_bond_site_symmetry_2
S1 O2 1_555 1_555
O1 C4 1_555 1_555
O3 S1 1_555 1_555
O4 N3 1_555 1_555
O5 C13 1_555 1_555
O6 C13 1_555 1_555
N1 S1 1_555 1_555
N2 C4 1_555 1_555
N3 O7 1_555 1_555
C1 N1 1_555 1_555
C2 C1 1_555 1_555
C3 C4 1_555 1_555
C5 H1 1_555 1_555
C6 C3 1_555 1_555
C7 S1 1_555 1_555
C8 C2 1_555 1_555
H2 C8 1_555 1_555
C9 N2 1_555 1_555
C10 C3 1_555 1_555
C11 N1 1_555 1_555
C12 C1 1_555 1_555
H3 C12 1_555 1_555
C13 C6 1_555 1_555
C14 C7 1_555 1_555
H4 C14 1_555 1_555
C15 C2 1_555 1_555
H5 C15 1_555 1_555
C16 C14 1_555 1_555
H6 C16 1_555 1_555
C17 C10 1_555 1_555
H7 C17 1_555 1_555
C18 C16 1_555 1_555
C19 C12 1_555 1_555
H8 C19 1_555 1_555
C20 C7 1_555 1_555
H9 C20 1_555 1_555
C21 C9 1_555 1_555
H10 C21 1_555 1_555
C22 C15 1_555 1_555
H11 C22 1_555 1_555
C23 N2 1_555 1_555
H12 C23 1_555 1_555
H13 C23 1_555 1_555
H14 C23 1_555 1_555
C24 C21 1_555 1_555
H15 C24 1_555 1_555
C25 C17 1_555 1_555
H16 C25 1_555 1_555
C26 C18 1_555 1_555
H17 C26 1_555 1_555
C27 C18 1_555 1_555
H18 C27 1_555 1_555
H19 C27 1_555 1_555
H20 C27 1_555 1_555
C28 O5 1_555 1_555
H21 C28 1_555 1_555
H22 C28 1_555 1_555
H23 C28 1_555 1_555
N3 C11 1_555 1_555
C3 C8 1_555 1_555
C5 C6 1_555 1_555
C5 C11 1_555 1_555
C8 C11 1_555 1_555
C9 C10 1_555 1_555
C19 C22 1_555 1_555
C20 C26 1_555 1_555
C24 C25 1_555 1_555

#END
