
#######################################################################
#
#                 Cambridge Crystallographic Data Centre
#                                CCDC 
#
#######################################################################
#
# If this CIF has been generated from an entry in the Cambridge 
# Structural Database, then it will include bibliographic, chemical, 
# crystal, experimental, refinement or atomic coordinate data resulting 
# from the CCDC's data processing and validation procedures.
#
#######################################################################

data_JAYSAD
_chemical_formula_moiety         'C54 H63 N3 Si2'
_chemical_name_systematic        
1,1-Dicyano-2-(4-(trans-5-(4-dimethylaminophenyl)-3,4-bis(tri-isopropylsilylethynyl)hex-3-ene-1,5-diynyl)phenyl)dihydroazulene
_symmetry_cell_setting           triclinic
_symmetry_space_group_name_H-M   'P -1'
_symmetry_Int_Tables_number      2
_space_group_name_Hall           '-P 1'
loop_
_symmetry_equiv_pos_site_id
_symmetry_equiv_pos_as_xyz
1 x,y,z
2 -x,-y,-z
_cell_length_a                   8.661(4)
_cell_length_b                   13.259(6)
_cell_length_c                   22.456(7)
_cell_angle_alpha                94.31(3)
_cell_angle_beta                 93.48(4)
_cell_angle_gamma                106.36(3)
_cell_volume                     2458.3
_cell_formula_units_Z            2
loop_
_atom_site_label
_atom_site_type_symbol
_atom_site_fract_x
_atom_site_fract_y
_atom_site_fract_z
Si1 Si 0.1319(2) 0.22158(11) 0.09593(6)
Si2 Si 0.5670(2) 0.89171(12) 0.34230(8)
C1 C 0.4047(7) 0.5063(5) 0.2187(3)
C2 C 0.5576(6) 0.5089(4) 0.2497(2)
C3 C 0.6804(6) 0.5011(4) 0.2717(2)
C4 C 0.8280(5) 0.4851(4) 0.2974(2)
C5 C 0.9556(6) 0.5681(4) 0.3242(2)
H1 H 0.9447(6) 0.6383(4) 0.3263(2)
C6 C 1.0947(6) 0.5495(4) 0.3474(2)
H2 H 1.1811(6) 0.6084(4) 0.3656(2)
C7 C 1.1125(5) 0.4492(4) 0.3453(2)
C8 C 0.9835(6) 0.3667(4) 0.3186(3)
H3 H 0.9936(6) 0.2963(4) 0.3174(3)
C9 C 0.8450(6) 0.3854(4) 0.2952(2)
H4 H 0.7584(6) 0.3272(4) 0.2764(2)
C10 C 1.2612(5) 0.4310(4) 0.3710(2)
C11 C 1.4026(6) 0.5022(4) 0.3893(2)
H5 H 1.4245(6) 0.5763(4) 0.3850(2)
C12 C 1.5197(6) 0.4580(4) 0.4165(2)
C13 C 1.4354(9) 0.3437(6) 0.4254(5)
H6 H 1.4072(9) 0.3413(6) 0.4661(5)
C15 C 1.2735(6) 0.3211(4) 0.3831(3)
C16 C 1.1468(8) 0.2675(5) 0.4200(3)
N1 N 1.0507(7) 0.2278(5) 0.4497(3)
C17 C 1.2598(7) 0.2537(5) 0.3271(3)
N2 N 1.2480(8) 0.1987(5) 0.2840(3)
C18 C 1.6679(6) 0.5109(5) 0.4409(2)
H7 H 1.7005(6) 0.5854(5) 0.4370(2)
C19 C 1.7804(7) 0.4678(6) 0.4710(3)
H8 H 1.8753(7) 0.5187(6) 0.4905(3)
C20 C 1.7766(7) 0.3693(6) 0.4760(3)
H9 H 1.8636(7) 0.3574(6) 0.5004(3)
C21 C 1.6759(13) 0.2790(9) 0.4393(5)
H10 H 1.7206(13) 0.2214(9) 0.4312(5)
C23 C 1.5232(12) 0.2673(8) 0.4141(5)
H11 H 1.4718(12) 0.2059(8) 0.3869(5)
C25 C 0.3452(7) 0.5866(5) 0.2264(3)
C26 C 0.1922(6) 0.5890(4) 0.1978(2)
C27 C 0.0712(6) 0.6031(4) 0.1790(2)
C28 C -0.0776(6) 0.6232(4) 0.1575(2)
C29 C -0.1052(6) 0.7192(4) 0.1734(2)
H12 H -0.0250(6) 0.7717(4) 0.1992(2)
C30 C -0.2452(6) 0.7409(4) 0.1540(2)
H13 H -0.2619(6) 0.8082(4) 0.1651(2)
C31 C -0.3660(6) 0.6658(4) 0.1174(2)
C32 C -0.3380(6) 0.5690(4) 0.1014(2)
H14 H -0.4184(6) 0.5156(4) 0.0761(2)
C33 C -0.1985(6) 0.5480(4) 0.1213(2)
H15 H -0.1811(6) 0.4809(4) 0.1105(2)
N3 N -0.5061(5) 0.6869(4) 0.0984(2)
C34 C -0.5350(7) 0.7873(5) 0.1156(3)
H16 H -0.4454(7) 0.8295(5) 0.1422(3)
H17 H -0.5445(7) 0.8230(5) 0.0806(3)
H18 H -0.6325(7) 0.7762(5) 0.1356(3)
C35 C -0.6269(7) 0.6103(5) 0.0581(3)
H19 H -0.5919(7) 0.5482(5) 0.0510(3)
H20 H -0.7280(7) 0.5922(5) 0.0758(3)
H21 H -0.6400(7) 0.6391(5) 0.0207(3)
C36 C 0.4345(6) 0.6823(4) 0.2673(2)
C37 C 0.4897(6) 0.7629(5) 0.2978(2)
C38 C 0.3849(13) 0.9349(8) 0.3583(7)
H22 H 0.4224(13) 1.0047(8) 0.3788(7)
C39 C 0.2793(13) 0.8678(10) 0.3984(7)
H23 H 0.1891(13) 0.8944(10) 0.4054(7)
H24 H 0.2410(13) 0.7972(10) 0.3791(7)
H25 H 0.3380(13) 0.8673(10) 0.4360(7)
C40 C 0.2986(16) 0.9430(10) 0.2906(8)
H26 H 0.2043(16) 0.9658(10) 0.2964(8)
H27 H 0.3718(16) 0.9930(10) 0.2691(8)
H28 H 0.2676(16) 0.8750(10) 0.2680(8)
C41 C 0.6973(12) 0.9841(6) 0.2924(4)
H29 H 0.6384(12) 0.9684(6) 0.2536(4)
C42 C 0.7241(17) 1.0961(7) 0.3060(5)
H30 H 0.7904(17) 1.1356(7) 0.2780(5)
H31 H 0.6216(17) 1.1107(7) 0.3043(5)
H32 H 0.7765(17) 1.1161(7) 0.3457(5)
C43 C 0.8581(12) 0.9595(8) 0.2824(4)
H33 H 0.9178(12) 1.0085(8) 0.2569(4)
H34 H 0.9190(12) 0.9674(8) 0.3205(4)
H35 H 0.8388(12) 0.8888(8) 0.2642(4)
C44 C 0.6760(11) 0.8679(6) 0.4114(3)
H36 H 0.5954(11) 0.8227(6) 0.4326(3)
C45 C 0.7483(16) 0.9668(8) 0.4543(4)
H37 H 0.8027(16) 0.9499(8) 0.4890(4)
H38 H 0.8243(16) 1.0170(8) 0.4339(4)
H39 H 0.6648(16) 0.9965(8) 0.4664(4)
C46 C 0.7959(11) 0.8060(7) 0.3993(4)
H40 H 0.8470(11) 0.7950(7) 0.4364(4)
H41 H 0.7418(11) 0.7390(7) 0.3775(4)
H42 H 0.8761(11) 0.8462(7) 0.3759(4)
C47 C 0.3142(6) 0.4154(4) 0.1782(2)
C48 C 0.2508(6) 0.3390(4) 0.1458(2)
C49 C 0.0809(7) 0.2714(4) 0.0234(2)
H43 H 0.1816(7) 0.2976(4) 0.0062(2)
C50 C 0.0091(8) 0.3642(5) 0.0289(3)
H44 H -0.0121(8) 0.3850(5) -0.0101(3)
H45 H -0.0901(8) 0.3425(5) 0.0476(3)
H46 H 0.0832(8) 0.4227(5) 0.0530(3)
C51 C -0.0248(11) 0.1845(6) -0.0224(3)
H47 H -0.0466(11) 0.2136(6) -0.0588(3)
H48 H 0.0302(11) 0.1322(6) -0.0308(3)
H49 H -0.1247(11) 0.1524(6) -0.0059(3)
C52 C -0.0461(7) 0.1587(4) 0.1379(3)
H50 H -0.0019(7) 0.1484(4) 0.1764(3)
C53 C -0.1544(9) 0.2290(6) 0.1498(4)
H51 H -0.2426(9) 0.1936(6) 0.1716(4)
H52 H -0.0924(9) 0.2931(6) 0.1728(4)
H53 H -0.1960(9) 0.2453(6) 0.1123(4)
C54 C -0.1440(10) 0.0480(5) 0.1108(4)
H54 H -0.2318(10) 0.0202(5) 0.1346(4)
H55 H -0.1859(10) 0.0538(5) 0.0711(4)
H56 H -0.0769(10) 0.0014(5) 0.1090(4)
C55 C 0.2604(8) 0.1308(5) 0.0818(3)
H57 H 0.1973(8) 0.0712(5) 0.0553(3)
C56 C 0.4087(11) 0.1840(8) 0.0495(5)
H58 H 0.4730(11) 0.1369(8) 0.0419(5)
H59 H 0.3752(11) 0.2058(8) 0.0122(5)
H60 H 0.4713(11) 0.2449(8) 0.0751(5)
C57 C 0.3130(13) 0.0891(8) 0.1379(4)
H61 H 0.3767(13) 0.0421(8) 0.1290(4)
H62 H 0.3757(13) 0.1480(8) 0.1649(4)
H63 H 0.2188(13) 0.0521(8) 0.1563(4)
C14? C 1.4700(18) 0.3451(11) 0.3965(8)
C22? C 1.6310(23) 0.2951(14) 0.4832(8)
C24? C 1.4792(20) 0.2845(14) 0.4539(8)
loop_
_geom_bond_atom_site_label_1
_geom_bond_atom_site_label_2
_geom_bond_site_symmetry_1
_geom_bond_site_symmetry_2
Si1 C48 1_555 1_555
Si2 C37 1_555 1_555
C1 C2 1_555 1_555
C2 C3 1_555 1_555
C3 C4 1_555 1_555
C4 C5 1_555 1_555
C5 H1 1_555 1_555
C6 C5 1_555 1_555
H2 C6 1_555 1_555
C7 C6 1_555 1_555
C8 C7 1_555 1_555
H3 C8 1_555 1_555
C9 C4 1_555 1_555
H4 C9 1_555 1_555
C10 C7 1_555 1_555
C11 C10 1_555 1_555
H5 C11 1_555 1_555
C12 C11 1_555 1_555
C13 C12 1_555 1_555
H6 C13 1_555 1_555
C15 C10 1_555 1_555
C16 C15 1_555 1_555
N1 C16 1_555 1_555
C17 C15 1_555 1_555
N2 C17 1_555 1_555
C18 C12 1_555 1_555
H7 C18 1_555 1_555
C19 C18 1_555 1_555
H8 C19 1_555 1_555
C20 C19 1_555 1_555
H9 C20 1_555 1_555
C21 C20 1_555 1_555
H10 C21 1_555 1_555
C23 C13 1_555 1_555
H11 C23 1_555 1_555
C25 C1 1_555 1_555
C26 C25 1_555 1_555
C27 C26 1_555 1_555
C28 C27 1_555 1_555
C29 C28 1_555 1_555
H12 C29 1_555 1_555
C30 C29 1_555 1_555
H13 C30 1_555 1_555
C31 C30 1_555 1_555
C32 C31 1_555 1_555
H14 C32 1_555 1_555
C33 C28 1_555 1_555
H15 C33 1_555 1_555
N3 C31 1_555 1_555
C34 N3 1_555 1_555
H16 C34 1_555 1_555
H17 C34 1_555 1_555
H18 C34 1_555 1_555
C35 N3 1_555 1_555
H19 C35 1_555 1_555
H20 C35 1_555 1_555
H21 C35 1_555 1_555
C36 C25 1_555 1_555
C37 C36 1_555 1_555
C38 Si2 1_555 1_555
H22 C38 1_555 1_555
C39 C38 1_555 1_555
H23 C39 1_555 1_555
H24 C39 1_555 1_555
H25 C39 1_555 1_555
C40 C38 1_555 1_555
H26 C40 1_555 1_555
H27 C40 1_555 1_555
H28 C40 1_555 1_555
C41 Si2 1_555 1_555
H29 C41 1_555 1_555
C42 C41 1_555 1_555
H30 C42 1_555 1_555
H31 C42 1_555 1_555
H32 C42 1_555 1_555
C43 C41 1_555 1_555
H33 C43 1_555 1_555
H34 C43 1_555 1_555
H35 C43 1_555 1_555
C44 Si2 1_555 1_555
H36 C44 1_555 1_555
C45 C44 1_555 1_555
H37 C45 1_555 1_555
H38 C45 1_555 1_555
H39 C45 1_555 1_555
C46 C44 1_555 1_555
H40 C46 1_555 1_555
H41 C46 1_555 1_555
H42 C46 1_555 1_555
C47 C1 1_555 1_555
C48 C47 1_555 1_555
C49 Si1 1_555 1_555
H43 C49 1_555 1_555
C50 C49 1_555 1_555
H44 C50 1_555 1_555
H45 C50 1_555 1_555
H46 C50 1_555 1_555
C51 C49 1_555 1_555
H47 C51 1_555 1_555
H48 C51 1_555 1_555
H49 C51 1_555 1_555
C52 Si1 1_555 1_555
H50 C52 1_555 1_555
C53 C52 1_555 1_555
H51 C53 1_555 1_555
H52 C53 1_555 1_555
H53 C53 1_555 1_555
C54 C52 1_555 1_555
H54 C54 1_555 1_555
H55 C54 1_555 1_555
H56 C54 1_555 1_555
C55 Si1 1_555 1_555
H57 C55 1_555 1_555
C56 C55 1_555 1_555
H58 C56 1_555 1_555
H59 C56 1_555 1_555
H60 C56 1_555 1_555
C57 C55 1_555 1_555
H61 C57 1_555 1_555
H62 C57 1_555 1_555
H63 C57 1_555 1_555
C8 C9 1_555 1_555
C13 C15 1_555 1_555
C21 C23 1_555 1_555
C32 C33 1_555 1_555

#END
