
#######################################################################
#
#                 Cambridge Crystallographic Data Centre
#                                CCDC 
#
#######################################################################
#
# If this CIF has been generated from an entry in the Cambridge 
# Structural Database, then it will include bibliographic, chemical, 
# crystal, experimental, refinement or atomic coordinate data resulting 
# from the CCDC's data processing and validation procedures.
#
#######################################################################

data_JAYWEO
_chemical_formula_moiety         'C30 H80 K2 N10 Si4'
_chemical_name_systematic        
bis(\m-N-(dimethylsilyl)-1,1-dimethylsilanaminato)-bis(1,4,7-trimethyl-1,4,7,10-tetraazacyclododecane)-di-potassium
_symmetry_cell_setting           monoclinic
_symmetry_space_group_name_H-M   'P 21/n'
_symmetry_Int_Tables_number      14
_space_group_name_Hall           '-P 2yn'
loop_
_symmetry_equiv_pos_site_id
_symmetry_equiv_pos_as_xyz
1 x,y,z
2 1/2-x,1/2+y,1/2-z
3 -x,-y,-z
4 1/2+x,1/2-y,1/2+z
_cell_length_a                   9.338(6)
_cell_length_b                   16.547(11)
_cell_length_c                   14.617(9)
_cell_angle_alpha                90
_cell_angle_beta                 90.829(15)
_cell_angle_gamma                90
_cell_volume                     2258.32
_exptl_crystal_colour            colorless
_exptl_crystal_description       block
_cell_formula_units_Z            2
_chemical_properties_physical    
Air-sensitive,Moisture-sensitive,Heat-sensitive,Oxygen-sensitive
_exptl_crystal_recrystallization_method n-pentane
loop_
_atom_site_label
_atom_site_type_symbol
_atom_site_fract_x
_atom_site_fract_y
_atom_site_fract_z
K1 K 0.48140(12) -0.00690(8) 0.64731(8)
Si1 Si 0.47046(16) -0.18618(11) 0.46455(12)
H1 H 0.462(4) -0.205(3) 0.364(3)
Si2 Si 0.75811(16) -0.10523(11) 0.51587(12)
H2 H 0.790(5) -0.042(3) 0.586(3)
N1 N 0.5862(5) -0.1426(3) 0.7496(3)
H3 H 0.5950 -0.1193 0.6958
N2 N 0.7074(4) 0.0227(3) 0.7918(3)
N3 N 0.3923(4) 0.0719(3) 0.8237(3)
N4 N 0.2754(5) -0.0980(3) 0.7827(4)
N5 N 0.5832(4) -0.1145(3) 0.4962(3)
C1 C 0.6823(11) -0.1333(6) 0.8196(8)
H4 H 0.7415 -0.1827 0.8254
H5 H 0.6305 -0.1258 0.8776
C2 C 0.7783(10) -0.0613(7) 0.8034(8)
H6 H 0.8342 -0.0723 0.7478
H7 H 0.8473 -0.0579 0.8553
C3 C 0.6459(11) 0.0440(8) 0.8756(8)
H8 H 0.7210 0.0659 0.9172
H9 H 0.6051 -0.0047 0.9045
C4 C 0.5249(10) 0.1089(7) 0.8616(8)
H10 H 0.5039 0.1347 0.9211
H11 H 0.5585 0.1514 0.8194
C5 C 0.3167(11) 0.0225(6) 0.8886(7)
H12 H 0.2692 0.0584 0.9330
H13 H 0.3872 -0.0108 0.9229
C6 C 0.2058(10) -0.0325(6) 0.8465(7)
H14 H 0.1365 0.0000 0.8103
H15 H 0.1527 -0.0600 0.8957
C7 C 0.3472(9) -0.1565(6) 0.8328(7)
H16 H 0.2777 -0.1966 0.8557
H17 H 0.3953 -0.1311 0.8863
C8 C 0.4581(11) -0.1990(6) 0.7746(8)
H18 H 0.4114 -0.2186 0.7176
H19 H 0.4954 -0.2467 0.8083
C9 C 0.8152(6) 0.0747(4) 0.7529(4)
H20 H 0.7715 0.1264 0.7352
H21 H 0.8554 0.0487 0.6988
H22 H 0.8916 0.0843 0.7983
C10 C 0.3182(7) 0.1462(4) 0.7999(5)
H23 H 0.2309 0.1335 0.7648
H24 H 0.3808 0.1802 0.7628
H25 H 0.2930 0.1752 0.8558
C11 C 0.1449(5) -0.1295(4) 0.7392(4)
H26 H 0.0830 -0.1527 0.7859
H27 H 0.1701 -0.1714 0.6949
H28 H 0.0943 -0.0854 0.7077
C12 C 0.2820(5) -0.1596(4) 0.4918(4)
H29 H 0.2716 -0.1561 0.5583
H30 H 0.2175 -0.2013 0.4674
H31 H 0.2577 -0.1074 0.4640
C13 C 0.5011(6) -0.2890(4) 0.5124(4)
H32 H 0.5952 -0.3087 0.4938
H33 H 0.4265 -0.3257 0.4894
H34 H 0.4976 -0.2868 0.5793
C14 C 0.8547(6) -0.1982(4) 0.5597(4)
H35 H 0.8060 -0.2188 0.6139
H36 H 0.9537 -0.1841 0.5761
H37 H 0.8544 -0.2397 0.5120
C15 C 0.8669(6) -0.0688(4) 0.4178(4)
H38 H 0.8731 -0.1115 0.3716
H39 H 0.9634 -0.0547 0.4397
H40 H 0.8213 -0.0210 0.3906
K1B K 0.51860(12) 0.00690(8) 0.35269(8)
Si1B Si 0.52954(16) 0.18618(11) 0.53545(12)
H1B H 0.538(4) 0.205(3) 0.636(3)
Si2B Si 0.24189(16) 0.10523(11) 0.48413(12)
H2B H 0.210(5) 0.042(3) 0.414(3)
N1B N 0.4138(5) 0.1426(3) 0.2504(3)
H3B H 0.4050 0.1193 0.3042
N2B N 0.2926(4) -0.0227(3) 0.2082(3)
N3B N 0.6077(4) -0.0719(3) 0.1763(3)
N4B N 0.7246(5) 0.0980(3) 0.2173(4)
N5B N 0.4168(4) 0.1145(3) 0.5038(3)
C1B C 0.3177(11) 0.1333(6) 0.1804(8)
H4B H 0.2585 0.1827 0.1746
H5B H 0.3695 0.1258 0.1224
C2B C 0.2217(10) 0.0613(7) 0.1966(8)
H6B H 0.1658 0.0723 0.2522
H7B H 0.1527 0.0579 0.1447
C3B C 0.3541(11) -0.0440(8) 0.1244(8)
H8B H 0.2790 -0.0659 0.0828
H9B H 0.3949 0.0047 0.0955
C4B C 0.4751(10) -0.1089(7) 0.1384(8)
H10B H 0.4961 -0.1347 0.0789
H11B H 0.4415 -0.1514 0.1806
C5B C 0.6833(11) -0.0225(6) 0.1114(7)
H12B H 0.7308 -0.0584 0.0670
H13B H 0.6128 0.0108 0.0771
C6B C 0.7942(10) 0.0325(6) 0.1535(7)
H14B H 0.8635 0.0000 0.1897
H15B H 0.8473 0.0600 0.1043
C7B C 0.6528(9) 0.1565(6) 0.1672(7)
H16B H 0.7223 0.1966 0.1443
H17B H 0.6047 0.1311 0.1137
C8B C 0.5419(11) 0.1990(6) 0.2254(8)
H18B H 0.5886 0.2186 0.2824
H19B H 0.5046 0.2467 0.1917
C9B C 0.1848(6) -0.0747(4) 0.2471(4)
H20B H 0.2285 -0.1264 0.2648
H21B H 0.1446 -0.0487 0.3012
H22B H 0.1084 -0.0843 0.2017
C10B C 0.6818(7) -0.1462(4) 0.2001(5)
H23B H 0.7691 -0.1335 0.2352
H24B H 0.6192 -0.1802 0.2372
H25B H 0.7070 -0.1752 0.1442
C11B C 0.8551(5) 0.1295(4) 0.2608(4)
H26B H 0.9170 0.1527 0.2141
H27B H 0.8299 0.1714 0.3051
H28B H 0.9057 0.0854 0.2923
C12B C 0.7180(5) 0.1596(4) 0.5082(4)
H29B H 0.7284 0.1561 0.4417
H30B H 0.7825 0.2013 0.5326
H31B H 0.7423 0.1074 0.5360
C13B C 0.4989(6) 0.2890(4) 0.4876(4)
H32B H 0.4048 0.3087 0.5062
H33B H 0.5735 0.3257 0.5106
H34B H 0.5024 0.2868 0.4207
C14B C 0.1453(6) 0.1982(4) 0.4403(4)
H35B H 0.1940 0.2188 0.3861
H36B H 0.0463 0.1841 0.4239
H37B H 0.1456 0.2397 0.4880
C15B C 0.1331(6) 0.0688(4) 0.5822(4)
H38B H 0.1269 0.1115 0.6284
H39B H 0.0366 0.0547 0.5603
H40B H 0.1787 0.0210 0.6094
H41? H 0.5451 -0.1292 0.6972
C16? C 0.7544(17) -0.1166(11) 0.7810(12)
H42? H 0.8010 -0.1625 0.8131
H43? H 0.8107 -0.1041 0.7259
C17? C 0.7523(17) -0.0403(11) 0.8463(13)
H44? H 0.6853 -0.0489 0.8973
H45? H 0.8490 -0.0296 0.8721
C18? C 0.6481(16) 0.0903(11) 0.8606(12)
H46? H 0.7162 0.0956 0.9129
H47? H 0.6451 0.1428 0.8284
C19? C 0.5112(15) 0.0736(11) 0.8947(12)
H48? H 0.4879 0.1149 0.9412
H49? H 0.5142 0.0206 0.9260
C20? C 0.262(2) 0.0227(11) 0.8573(15)
H50? H 0.2327 0.0440 0.9175
H51? H 0.1808 0.0311 0.8139
C21? C 0.289(2) -0.0657(11) 0.8662(13)
H52? H 0.3860 -0.0755 0.8913
H53? H 0.2183 -0.0903 0.9079
C22? C 0.3642(18) -0.1880(11) 0.7889(14)
H54? H 0.3176 -0.2217 0.8358
H55? H 0.3519 -0.2160 0.7295
C23? C 0.5260(17) -0.1843(10) 0.8119(13)
H56? H 0.5419 -0.1588 0.8724
H57? H 0.5668 -0.2395 0.8138
loop_
_geom_bond_atom_site_label_1
_geom_bond_atom_site_label_2
_geom_bond_site_symmetry_1
_geom_bond_site_symmetry_2
K1 H2 1_555 1_555
Si1 H1 1_555 1_555
Si2 H2 1_555 1_555
N1 K1 1_555 1_555
H3 N1 1_555 1_555
N2 K1 1_555 1_555
N3 K1 1_555 1_555
N4 K1 1_555 1_555
N5 K1 1_555 1_555
C1 N1 1_555 1_555
H4 C1 1_555 1_555
H5 C1 1_555 1_555
C2 N2 1_555 1_555
H6 C2 1_555 1_555
H7 C2 1_555 1_555
C3 N2 1_555 1_555
H8 C3 1_555 1_555
H9 C3 1_555 1_555
C4 N3 1_555 1_555
H10 C4 1_555 1_555
H11 C4 1_555 1_555
C5 N3 1_555 1_555
H12 C5 1_555 1_555
H13 C5 1_555 1_555
C6 N4 1_555 1_555
H14 C6 1_555 1_555
H15 C6 1_555 1_555
C7 N4 1_555 1_555
H16 C7 1_555 1_555
H17 C7 1_555 1_555
C8 N1 1_555 1_555
H18 C8 1_555 1_555
H19 C8 1_555 1_555
C9 N2 1_555 1_555
H20 C9 1_555 1_555
H21 C9 1_555 1_555
H22 C9 1_555 1_555
C10 N3 1_555 1_555
H23 C10 1_555 1_555
H24 C10 1_555 1_555
H25 C10 1_555 1_555
C11 N4 1_555 1_555
H26 C11 1_555 1_555
H27 C11 1_555 1_555
H28 C11 1_555 1_555
C12 Si1 1_555 1_555
H29 C12 1_555 1_555
H30 C12 1_555 1_555
H31 C12 1_555 1_555
C13 Si1 1_555 1_555
H32 C13 1_555 1_555
H33 C13 1_555 1_555
H34 C13 1_555 1_555
C14 Si2 1_555 1_555
H35 C14 1_555 1_555
H36 C14 1_555 1_555
H37 C14 1_555 1_555
C15 Si2 1_555 1_555
H38 C15 1_555 1_555
H39 C15 1_555 1_555
H40 C15 1_555 1_555
K1B N5 1_555 1_555
Si1B H1B 1_555 1_555
Si2B H2B 1_555 1_555
H2B K1B 1_555 1_555
N1B K1B 1_555 1_555
H3B N1B 1_555 1_555
N2B K1B 1_555 1_555
N3B K1B 1_555 1_555
N4B K1B 1_555 1_555
N5B K1 1_555 1_555
C1B N1B 1_555 1_555
H4B C1B 1_555 1_555
H5B C1B 1_555 1_555
C2B N2B 1_555 1_555
H6B C2B 1_555 1_555
H7B C2B 1_555 1_555
C3B N2B 1_555 1_555
H8B C3B 1_555 1_555
H9B C3B 1_555 1_555
C4B N3B 1_555 1_555
H10B C4B 1_555 1_555
H11B C4B 1_555 1_555
C5B N3B 1_555 1_555
H12B C5B 1_555 1_555
H13B C5B 1_555 1_555
C6B N4B 1_555 1_555
H14B C6B 1_555 1_555
H15B C6B 1_555 1_555
C7B N4B 1_555 1_555
H16B C7B 1_555 1_555
H17B C7B 1_555 1_555
C8B N1B 1_555 1_555
H18B C8B 1_555 1_555
H19B C8B 1_555 1_555
C9B N2B 1_555 1_555
H20B C9B 1_555 1_555
H21B C9B 1_555 1_555
H22B C9B 1_555 1_555
C10B N3B 1_555 1_555
H23B C10B 1_555 1_555
H24B C10B 1_555 1_555
H25B C10B 1_555 1_555
C11B N4B 1_555 1_555
H26B C11B 1_555 1_555
H27B C11B 1_555 1_555
H28B C11B 1_555 1_555
C12B Si1B 1_555 1_555
H29B C12B 1_555 1_555
H30B C12B 1_555 1_555
H31B C12B 1_555 1_555
C13B Si1B 1_555 1_555
H32B C13B 1_555 1_555
H33B C13B 1_555 1_555
H34B C13B 1_555 1_555
C14B Si2B 1_555 1_555
H35B C14B 1_555 1_555
H36B C14B 1_555 1_555
H37B C14B 1_555 1_555
C15B Si2B 1_555 1_555
H38B C15B 1_555 1_555
H39B C15B 1_555 1_555
H40B C15B 1_555 1_555
Si1 N5 1_555 1_555
Si2 N5 1_555 1_555
C1 C2 1_555 1_555
C3 C4 1_555 1_555
C5 C6 1_555 1_555
C7 C8 1_555 1_555
K1B N5B 1_555 1_555
Si1B N5B 1_555 1_555
Si2B N5B 1_555 1_555
C1B C2B 1_555 1_555
C3B C4B 1_555 1_555
C5B C6B 1_555 1_555
C7B C8B 1_555 1_555

#END
