
#######################################################################
#
#                 Cambridge Crystallographic Data Centre
#                                CCDC 
#
#######################################################################
#
# If this CIF has been generated from an entry in the Cambridge 
# Structural Database, then it will include bibliographic, chemical, 
# crystal, experimental, refinement or atomic coordinate data resulting 
# from the CCDC's data processing and validation procedures.
#
#######################################################################

data_JAZJAV
_chemical_formula_moiety         'C26 H32 O9'
_chemical_name_systematic        
2,3-bis(Acetoxymethyl)-6,7-dimethoxy-1-(3,4-dimethoxyphenyl)-2-hydroxy-1,2,3,4-tetrahydronaphthalene
_symmetry_cell_setting           monoclinic
_symmetry_space_group_name_H-M   'P 21'
_symmetry_Int_Tables_number      4
_space_group_name_Hall           'P 2yb'
loop_
_symmetry_equiv_pos_site_id
_symmetry_equiv_pos_as_xyz
1 x,y,z
2 -x,1/2+y,-z
_cell_length_a                   15.046(3)
_cell_length_b                   6.503(1)
_cell_length_c                   14.379(3)
_cell_angle_alpha                90
_cell_angle_beta                 112.97(2)
_cell_angle_gamma                90
_cell_volume                     1295.35
_exptl_crystal_colour            colorless
_chemical_melting_point          128deg.C
_cell_formula_units_Z            2
loop_
_atom_site_label
_atom_site_type_symbol
_atom_site_fract_x
_atom_site_fract_y
_atom_site_fract_z
O1 O -0.6476(3) -0.4505 0.6259(3)
O2 O -0.5382(3) -0.7739(8) 0.6595(3)
O3 O -0.8700(3) -0.9546(7) 0.1879(3)
O4 O -1.0668(3) -0.8213(7) 0.3780(3)
O5 O -1.1718(3) -0.5073(8) 0.2946(3)
O6 O -0.8077(3) -0.5581(8) 0.0477(3)
O7 O -0.9295(3) -0.4527(10) -0.0886(4)
O8 O -0.6237(3) -1.0710(8) 0.1267(3)
O9 O -0.6030(5) -0.8034(12) 0.0433(6)
C1 C -0.5988(4) -0.7430(10) 0.5602(4)
C2 C -0.6597(4) -0.5703(10) 0.5422(4)
C3 C -0.7261(4) -0.5314(10) 0.4462(4)
C4 C -0.7325(4) -0.6606(9) 0.3651(4)
C5 C -0.6697(4) -0.8227(9) 0.3817(4)
C6 C -0.6023(4) -0.8645(10) 0.4804(4)
C7 C -0.8103(4) -0.6128(9) 0.2614(4)
C8 C -0.8179(4) -0.7776(10) 0.1799(4)
C9 C -0.7156(4) -0.8527(10) 0.1952(4)
C10 C -0.6692(4) -0.9596(10) 0.2978(4)
C11 C -0.9079(4) -0.5767(9) 0.2676(4)
C12 C -0.9405(4) -0.7175(9) 0.3215(4)
C13 C -1.0293(4) -0.6916(9) 0.3277(4)
C14 C -1.0867(4) -0.5204(9) 0.2817(4)
C15 C -1.0546(4) -0.3840(9) 0.2290(4)
C16 C -0.9645(4) -0.4107(9) 0.2226(4)
C17 C -1.0068(5) -0.9823(10) 0.4357(5)
C18 C -1.2337(5) -0.3321(12) 0.2501(6)
C19 C -0.8735(4) -0.6884(11) 0.0737(4)
C20 C -0.8454(5) -0.4590(10) -0.0403(4)
C21 C -0.7652(5) -0.3697(11) -0.0707(5)
C22 C -0.7199(4) -0.9979(11) 0.1099(5)
C23 C -0.5722(5) -0.9531(13) 0.0907(5)
C24 C -0.4723(5) -1.0349(14) 0.1168(6)
C25 C -0.4739(5) -0.9424(11) 0.6821(5)
C26 C -0.7115(5) -0.2870(11) 0.6165(5)
H1 H -0.7642(17) -0.3753(19) 0.4365(17)
H2 H -0.5576(16) -0.9942(19) 0.4897(17)
H3 H -0.7986(17) -0.4684(19) 0.2361(17)
H4 H -0.6797(17) -0.7133(19) 0.1914(17)
H5 H -0.9025(17) -0.8474(19) 0.3544(17)
H6 H -1.0917(17) -0.2501(19) 0.2060(17)
H7 H -0.9318(17) -0.2746(19) 0.1975(17)
H8 H -0.5973(17) -1.0172(19) 0.3122(17)
H9 H -0.7098(17) -1.0898(19) 0.2873(17)
H10 H -1.0450(17) -1.0715(19) 0.4656(17)
H11 H -0.9417(17) -0.9143(19) 0.4849(17)
H12 H -0.9958(17) -1.0913(19) 0.3951(17)
H13 H -1.2902(17) -0.3418(19) 0.2890(17)
H14 H -1.2367(17) -0.2352(19) 0.2009(17)
H16 H -0.9293(17) -0.6148(19) 0.0842(17)
H17 H -0.8974(17) -0.8033(19) 0.0236(17)
H18 H -0.7638(17) -0.4262(19) -0.1305(17)
H20 H -0.7101(17) -0.3027(19) -0.0133(17)
H21 H -0.7572(17) -1.1246(19) 0.1080(17)
H22 H -0.7537(17) -0.9363(19) 0.0388(17)
H23 H -0.4405(17) -0.9636(19) 0.0820(17)
H24 H -0.4672(17) -1.1510(19) 0.1475(17)
H25 H -0.4353(17) -0.9649(19) 0.7518(17)
H26 H -0.4370(17) -0.9382(19) 0.6361(17)
H27 H -0.5152(17) -1.0664(19) 0.6460(17)
H28 H -0.7195(17) -0.2058(19) 0.5567(17)
H15? H -1.2011(17) -0.3343(19) 0.2855(17)
H19? H -0.8004(17) -0.3628(19) -0.0719(18)
loop_
_geom_bond_atom_site_label_1
_geom_bond_atom_site_label_2
_geom_bond_site_symmetry_1
_geom_bond_site_symmetry_2
O1 C2 1_555 1_555
O2 C1 1_555 1_555
O3 C8 1_555 1_555
O4 C13 1_555 1_555
O5 C14 1_555 1_555
O6 C19 1_555 1_555
O7 C20 1_555 1_555
O8 C22 1_555 1_555
O9 C23 1_555 1_555
C1 C2 1_555 1_555
C2 C3 1_555 1_555
C3 C4 1_555 1_555
C4 C5 1_555 1_555
C5 C6 1_555 1_555
C6 C1 1_555 1_555
C7 C4 1_555 1_555
C8 C7 1_555 1_555
C9 C8 1_555 1_555
C10 C5 1_555 1_555
C11 C7 1_555 1_555
C12 C11 1_555 1_555
C13 C12 1_555 1_555
C14 C13 1_555 1_555
C15 C14 1_555 1_555
C16 C11 1_555 1_555
C17 O4 1_555 1_555
C18 O5 1_555 1_555
C19 C8 1_555 1_555
C20 O6 1_555 1_555
C21 C20 1_555 1_555
C22 C9 1_555 1_555
C23 O8 1_555 1_555
C24 C23 1_555 1_555
C25 O2 1_555 1_555
C26 O1 1_555 1_555
H1 C3 1_555 1_555
H2 C6 1_555 1_555
H3 C7 1_555 1_555
H4 C9 1_555 1_555
H5 C12 1_555 1_555
H6 C15 1_555 1_555
H7 C16 1_555 1_555
H8 C10 1_555 1_555
H9 C10 1_555 1_555
H10 C17 1_555 1_555
H11 C17 1_555 1_555
H12 C17 1_555 1_555
H13 C18 1_555 1_555
H14 C18 1_555 1_555
H16 C19 1_555 1_555
H17 C19 1_555 1_555
H18 C21 1_555 1_555
H20 C21 1_555 1_555
H21 C22 1_555 1_555
H22 C22 1_555 1_555
H23 C24 1_555 1_555
H24 C24 1_555 1_555
H25 C25 1_555 1_555
H26 C25 1_555 1_555
H27 C25 1_555 1_555
H28 C26 1_555 1_555
C9 C10 1_555 1_555
C15 C16 1_555 1_555

#END
