
#######################################################################
#
#                 Cambridge Crystallographic Data Centre
#                                CCDC 
#
#######################################################################
#
# If this CIF has been generated from an entry in the Cambridge 
# Structural Database, then it will include bibliographic, chemical, 
# crystal, experimental, refinement or atomic coordinate data resulting 
# from the CCDC's data processing and validation procedures.
#
#######################################################################

data_JAZQEJ
_chemical_formula_moiety         'C32 H30 Cl1 N1 O5'
_chemical_name_systematic        
't-butyl 3-{3-[(2-chlorophenyl)methyl]-3-methyl-2,4-dioxocyclopentyl}-2-oxo-3-phenyl-2,3-dihydro-1H-indole-1-carboxylate'
_symmetry_cell_setting           monoclinic
_symmetry_space_group_name_H-M   'C 2'
_symmetry_Int_Tables_number      5
_space_group_name_Hall           'C 2y'
loop_
_symmetry_equiv_pos_site_id
_symmetry_equiv_pos_as_xyz
1 x,y,z
2 -x,y,-z
3 1/2+x,1/2+y,z
4 1/2-x,1/2+y,-z
_cell_length_a                   23.281(5)
_cell_length_b                   10.274(2)
_cell_length_c                   14.815(3)
_cell_angle_alpha                90
_cell_angle_beta                 128.398(3)
_cell_angle_gamma                90
_cell_volume                     2777.16
_exptl_crystal_colour            colorless
_exptl_crystal_description       block
_cell_formula_units_Z            4
loop_
_atom_site_label
_atom_site_type_symbol
_atom_site_fract_x
_atom_site_fract_y
_atom_site_fract_z
Cl1 Cl 0.48337(6) 1.00529(9) 0.24267(8)
O1 O 0.59352(15) 0.5262(3) 0.2434(2)
O2 O 0.58774(14) 0.6817(3) 0.5320(2)
O3 O 0.59696(13) 0.4304(2) 0.6819(2)
O4 O 0.77445(14) 0.6747(3) 0.9029(2)
O5 O 0.67190(14) 0.5913(2) 0.8640(2)
N1 N 0.70545(15) 0.5399(3) 0.7522(2)
C1 C 0.4571(2) 0.8930(4) 0.1347(3)
C2 C 0.46177(19) 0.7599(4) 0.1555(3)
C3 C 0.43867(19) 0.6778(4) 0.0634(3)
H1 H 0.4407 0.5863 0.0743
C4 C 0.4131(2) 0.7252(4) -0.0427(3)
H2 H 0.3988 0.6668 -0.1031
C5 C 0.4082(2) 0.8579(4) -0.0608(3)
H3 H 0.3896 0.8909 -0.1343
C6 C 0.4304(2) 0.9426(4) 0.0276(3)
H4 H 0.4274 1.0340 0.0156
C7 C 0.4868(2) 0.7028(4) 0.2685(3)
H5 H 0.4551 0.6275 0.2519
H6 H 0.4792 0.7688 0.3089
C8 C 0.56870(19) 0.6568(4) 0.3524(3)
C9 C 0.57893(18) 0.6104(4) 0.4597(3)
C10 C 0.5773(2) 0.4625(3) 0.4645(3)
H7 H 0.5343 0.4358 0.4598
C11 C 0.5658(2) 0.4144(3) 0.3561(3)
H8 H 0.6014 0.3448 0.3761
H9 H 0.5156 0.3795 0.2995
C12 C 0.57751(18) 0.5315(4) 0.3069(3)
C13 C 0.6219(2) 0.7623(4) 0.3772(3)
H10 H 0.6722 0.7294 0.4315
H11 H 0.6157 0.8377 0.4109
H12 H 0.6125 0.7882 0.3054
C14 C 0.64850(19) 0.4135(3) 0.5804(3)
C15 C 0.71613(18) 0.4835(3) 0.6122(3)
C16 C 0.74696(19) 0.5593(3) 0.7112(3)
C17 C 0.64419(19) 0.4601(3) 0.6752(3)
C18 C 0.8072(2) 0.6368(4) 0.7542(3)
H13 H 0.8280 0.6883 0.8212
C19 C 0.8368(2) 0.6372(4) 0.6964(3)
H14 H 0.8784 0.6901 0.7249
C20 C 0.8075(2) 0.5631(4) 0.5991(3)
H15 H 0.8289 0.5652 0.5615
C21 C 0.74666(19) 0.4855(3) 0.5564(3)
H16 H 0.7261 0.4341 0.4894
C22 C 0.71419(18) 0.6044(3) 0.8445(3)
C23 C 0.7866(2) 0.7739(4) 0.9871(3)
C24 C 0.8570(2) 0.8377(5) 1.0260(4)
H17 H 0.8960 0.7721 1.0608
H18 H 0.8708 0.9053 1.0830
H19 H 0.8501 0.8770 0.9596
C25 C 0.7969(3) 0.7099(4) 1.0880(4)
H20 H 0.7509 0.6687 1.0618
H21 H 0.8110 0.7757 1.1464
H22 H 0.8354 0.6438 1.1213
C26 C 0.7221(2) 0.8671(4) 0.9232(4)
H23 H 0.7160 0.9024 0.8562
H24 H 0.7313 0.9384 0.9745
H25 H 0.6775 0.8205 0.8974
C27 C 0.65576(19) 0.2647(3) 0.5906(3)
C28 C 0.7248(2) 0.2077(3) 0.6645(3)
H26 H 0.7673 0.2608 0.7035
C29 C 0.7319(2) 0.0737(4) 0.6817(3)
H27 H 0.7793 0.0359 0.7323
C30 C 0.6704(2) -0.0047(4) 0.6256(3)
H28 H 0.6754 -0.0961 0.6382
C31 C 0.6018(2) 0.0506(4) 0.5513(3)
H29 H 0.5595 -0.0031 0.5119
C32 C 0.5942(2) 0.1849(4) 0.5334(3)
H30 H 0.5467 0.2221 0.4819
loop_
_geom_bond_atom_site_label_1
_geom_bond_atom_site_label_2
_geom_bond_site_symmetry_1
_geom_bond_site_symmetry_2
Cl1 C1 1_555 1_555
O1 C12 1_555 1_555
O2 C9 1_555 1_555
O3 C17 1_555 1_555
O4 C22 1_555 1_555
O5 C22 1_555 1_555
N1 C16 1_555 1_555
C1 C2 1_555 1_555
C2 C3 1_555 1_555
C3 H1 1_555 1_555
C4 C3 1_555 1_555
H2 C4 1_555 1_555
C5 C4 1_555 1_555
H3 C5 1_555 1_555
C6 C1 1_555 1_555
H4 C6 1_555 1_555
C7 C2 1_555 1_555
H5 C7 1_555 1_555
H6 C7 1_555 1_555
C8 C7 1_555 1_555
C9 C8 1_555 1_555
C10 C9 1_555 1_555
H7 C10 1_555 1_555
C11 C10 1_555 1_555
H8 C11 1_555 1_555
H9 C11 1_555 1_555
C12 C8 1_555 1_555
C13 C8 1_555 1_555
H10 C13 1_555 1_555
H11 C13 1_555 1_555
H12 C13 1_555 1_555
C14 C10 1_555 1_555
C15 C14 1_555 1_555
C16 C15 1_555 1_555
C17 N1 1_555 1_555
C18 C16 1_555 1_555
H13 C18 1_555 1_555
C19 C18 1_555 1_555
H14 C19 1_555 1_555
C20 C19 1_555 1_555
H15 C20 1_555 1_555
C21 C15 1_555 1_555
H16 C21 1_555 1_555
C22 N1 1_555 1_555
C23 O4 1_555 1_555
C24 C23 1_555 1_555
H17 C24 1_555 1_555
H18 C24 1_555 1_555
H19 C24 1_555 1_555
C25 C23 1_555 1_555
H20 C25 1_555 1_555
H21 C25 1_555 1_555
H22 C25 1_555 1_555
C26 C23 1_555 1_555
H23 C26 1_555 1_555
H24 C26 1_555 1_555
H25 C26 1_555 1_555
C27 C14 1_555 1_555
C28 C27 1_555 1_555
H26 C28 1_555 1_555
C29 C28 1_555 1_555
H27 C29 1_555 1_555
C30 C29 1_555 1_555
H28 C30 1_555 1_555
C31 C30 1_555 1_555
H29 C31 1_555 1_555
C32 C27 1_555 1_555
H30 C32 1_555 1_555
C5 C6 1_555 1_555
C11 C12 1_555 1_555
C14 C17 1_555 1_555
C20 C21 1_555 1_555
C31 C32 1_555 1_555

#END
