
#######################################################################
#
#                 Cambridge Crystallographic Data Centre
#                                CCDC 
#
#######################################################################
#
# If this CIF has been generated from an entry in the Cambridge 
# Structural Database, then it will include bibliographic, chemical, 
# crystal, experimental, refinement or atomic coordinate data resulting 
# from the CCDC's data processing and validation procedures.
#
#######################################################################

data_JAZVIS
_chemical_formula_moiety         'C42 H29 Cl1 F6 N2 O3'
_chemical_name_systematic        
'3,5-bis(trifluoromethyl)benzyl 10-(3-chlorophenyl)-4-oxo-1,3,8-triphenyl-2,3-diazaspiro[4.5]deca-1,9-diene-7-carboxylate'
_symmetry_cell_setting           orthorhombic
_symmetry_space_group_name_H-M   'P 21 21 21'
_symmetry_Int_Tables_number      19
_space_group_name_Hall           'P 2ac 2ab'
loop_
_symmetry_equiv_pos_site_id
_symmetry_equiv_pos_as_xyz
1 x,y,z
2 1/2-x,-y,1/2+z
3 -x,1/2+y,1/2-z
4 1/2+x,1/2-y,-z
_cell_length_a                   8.9232(14)
_cell_length_b                   17.371(3)
_cell_length_c                   23.537(4)
_cell_angle_alpha                90
_cell_angle_beta                 90
_cell_angle_gamma                90
_cell_volume                     3648.35
_exptl_crystal_colour            colorless
_exptl_crystal_description       block
_cell_formula_units_Z            4
loop_
_atom_site_label
_atom_site_type_symbol
_atom_site_fract_x
_atom_site_fract_y
_atom_site_fract_z
Cl1 Cl 0.44418(11) 0.83686(6) 0.86443(4)
F1 F 0.3127(2) 0.31286(11) 0.53989(8)
F2 F 0.1687(2) 0.31356(12) 0.46779(9)
F3 F 0.3386(3) 0.22676(11) 0.47541(10)
F4 F 0.7414(2) 0.26031(13) 0.34879(9)
F5 F 0.8874(4) 0.3404(2) 0.3938(2)
F6 F 0.7891(9) 0.3772(4) 0.3159(3)
O1 O 0.3654(2) 0.91776(11) 0.62311(10)
O2 O 0.3825(4) 0.70558(14) 0.45668(9)
O3 O 0.4655(2) 0.59108(11) 0.48637(8)
N1 N 0.6715(2) 0.81262(13) 0.67340(10)
N2 N 0.5976(2) 0.88190(12) 0.65944(10)
C1 C 0.4386(3) 0.78193(15) 0.63346(12)
C2 C 0.2918(3) 0.75443(15) 0.65914(12)
C3 C 0.2022(3) 0.70580(16) 0.63174(13)
H1 H 0.1151 0.6909 0.6504
C4 C 0.2277(3) 0.67235(16) 0.57330(13)
H2 H 0.1702 0.7036 0.5463
C5 C 0.3943(3) 0.67985(16) 0.55709(11)
H3 H 0.4539 0.6436 0.5796
C6 C 0.4460(3) 0.76207(15) 0.56929(11)
H4 H 0.3833 0.7978 0.5483
H5 H 0.5482 0.7683 0.5560
C7 C 0.4562(3) 0.86925(15) 0.63774(12)
C8 C 0.5836(3) 0.75639(15) 0.66134(11)
C9 C 0.6333(3) 0.67634(15) 0.66966(11)
C10 C 0.5434(3) 0.62309(16) 0.69814(12)
H6 H 0.4493 0.6377 0.7112
C11 C 0.5931(4) 0.54905(17) 0.70694(14)
H7 H 0.5331 0.5139 0.7262
C12 C 0.7323(4) 0.52714(18) 0.68708(16)
H8 H 0.7663 0.4773 0.6934
C13 C 0.8210(4) 0.57846(18) 0.65800(15)
H9 H 0.9137 0.5629 0.6441
C14 C 0.7726(3) 0.65334(17) 0.64935(13)
H10 H 0.8331 0.6881 0.6300
C15 C 0.6660(3) 0.95255(16) 0.67496(12)
C16 C 0.6209(3) 1.02146(17) 0.65116(13)
H11 H 0.5445 1.0222 0.6243
C17 C 0.6900(3) 1.08955(18) 0.66755(14)
H12 H 0.6588 1.1360 0.6519
C18 C 0.8044(4) 1.08886(19) 0.70681(15)
H13 H 0.8506 1.1346 0.7175
C19 C 0.8499(4) 1.0199(2) 0.73012(15)
H14 H 0.9275 1.0194 0.7565
C20 C 0.7812(4) 0.95149(19) 0.71470(14)
H15 H 0.8120 0.9052 0.7308
C21 C 0.2480(3) 0.78278(15) 0.71685(13)
C22 C 0.0968(3) 0.79434(17) 0.73034(15)
H16 H 0.0240 0.7876 0.7025
C23 C 0.0545(4) 0.81563(18) 0.78467(15)
H17 H -0.0465 0.8221 0.7931
C24 C 0.1603(4) 0.82742(19) 0.82646(14)
H18 H 0.1314 0.8409 0.8631
C25 C 0.3096(4) 0.81893(18) 0.81302(12)
C26 C 0.3542(3) 0.79655(16) 0.75935(12)
H19 H 0.4556 0.7906 0.7514
C27 C 0.1703(3) 0.59045(17) 0.56879(12)
C28 C 0.0643(4) 0.57039(19) 0.52839(14)
H20 H 0.0297 0.6077 0.5032
C29 C 0.0087(4) 0.4961(2) 0.52460(16)
H21 H -0.0630 0.4837 0.4974
C30 C 0.0602(4) 0.44104(19) 0.56130(15)
H22 H 0.0233 0.3911 0.5589
C31 C 0.1660(4) 0.45895(18) 0.60170(14)
H23 H 0.2010 0.4212 0.6264
C32 C 0.2203(3) 0.53362(17) 0.60552(13)
H24 H 0.2912 0.5457 0.6331
C33 C 0.4131(3) 0.66197(17) 0.49460(12)
C34 C 0.4808(4) 0.56628(18) 0.42760(13)
H25 H 0.5674 0.5907 0.4104
H26 H 0.3925 0.5808 0.4061
C35 C 0.4993(3) 0.48039(17) 0.42706(12)
C36 C 0.4027(3) 0.43212(17) 0.45669(12)
H27 H 0.3273 0.4531 0.4792
C37 C 0.4180(3) 0.35285(17) 0.45294(12)
C38 C 0.5293(3) 0.32087(19) 0.41959(13)
H28 H 0.5390 0.2677 0.4169
C39 C 0.6260(4) 0.36876(19) 0.39035(15)
C40 C 0.6112(3) 0.44800(19) 0.39388(13)
H29 H 0.6767 0.4797 0.3739
C41 C 0.3108(4) 0.30156(18) 0.48352(14)
C42 C 0.7630(13) 0.3377(7) 0.3633(5)
F7? F 0.6745(8) 0.3409(3) 0.2881(2)
F8? F 0.8592(8) 0.3628(5) 0.3436(6)
C43? C 0.7240(15) 0.3319(10) 0.3409(7)
loop_
_geom_bond_atom_site_label_1
_geom_bond_atom_site_label_2
_geom_bond_site_symmetry_1
_geom_bond_site_symmetry_2
Cl1 C25 1_555 1_555
F1 C41 1_555 1_555
F2 C41 1_555 1_555
F3 C41 1_555 1_555
F4 C42 1_555 1_555
F5 C42 1_555 1_555
F6 C42 1_555 1_555
O1 C7 1_555 1_555
O2 C33 1_555 1_555
O3 C33 1_555 1_555
N1 N2 1_555 1_555
N2 C7 1_555 1_555
C1 C2 1_555 1_555
C2 C3 1_555 1_555
C3 H1 1_555 1_555
C4 C3 1_555 1_555
H2 C4 1_555 1_555
C5 C4 1_555 1_555
H3 C5 1_555 1_555
C6 C1 1_555 1_555
H4 C6 1_555 1_555
H5 C6 1_555 1_555
C7 C1 1_555 1_555
C8 N1 1_555 1_555
C9 C8 1_555 1_555
C10 C9 1_555 1_555
H6 C10 1_555 1_555
C11 C10 1_555 1_555
H7 C11 1_555 1_555
C12 C11 1_555 1_555
H8 C12 1_555 1_555
C13 C12 1_555 1_555
H9 C13 1_555 1_555
C14 C9 1_555 1_555
H10 C14 1_555 1_555
C15 N2 1_555 1_555
C16 C15 1_555 1_555
H11 C16 1_555 1_555
C17 C16 1_555 1_555
H12 C17 1_555 1_555
C18 C17 1_555 1_555
H13 C18 1_555 1_555
C19 C18 1_555 1_555
H14 C19 1_555 1_555
C20 C15 1_555 1_555
H15 C20 1_555 1_555
C21 C2 1_555 1_555
C22 C21 1_555 1_555
H16 C22 1_555 1_555
C23 C22 1_555 1_555
H17 C23 1_555 1_555
C24 C23 1_555 1_555
H18 C24 1_555 1_555
C25 C24 1_555 1_555
C26 C21 1_555 1_555
H19 C26 1_555 1_555
C27 C4 1_555 1_555
C28 C27 1_555 1_555
H20 C28 1_555 1_555
C29 C28 1_555 1_555
H21 C29 1_555 1_555
C30 C29 1_555 1_555
H22 C30 1_555 1_555
C31 C30 1_555 1_555
H23 C31 1_555 1_555
C32 C27 1_555 1_555
H24 C32 1_555 1_555
C33 C5 1_555 1_555
C34 O3 1_555 1_555
H25 C34 1_555 1_555
H26 C34 1_555 1_555
C35 C34 1_555 1_555
C36 C35 1_555 1_555
H27 C36 1_555 1_555
C37 C36 1_555 1_555
C38 C37 1_555 1_555
H28 C38 1_555 1_555
C39 C38 1_555 1_555
C40 C35 1_555 1_555
H29 C40 1_555 1_555
C41 C37 1_555 1_555
C42 C39 1_555 1_555
C1 C8 1_555 1_555
C5 C6 1_555 1_555
C13 C14 1_555 1_555
C19 C20 1_555 1_555
C25 C26 1_555 1_555
C31 C32 1_555 1_555
C39 C40 1_555 1_555

#END
