
#######################################################################
#
#                 Cambridge Crystallographic Data Centre
#                                CCDC 
#
#######################################################################
#
# If this CIF has been generated from an entry in the Cambridge 
# Structural Database, then it will include bibliographic, chemical, 
# crystal, experimental, refinement or atomic coordinate data resulting 
# from the CCDC's data processing and validation procedures.
#
#######################################################################

data_JEBFII
_chemical_formula_moiety         'C22 H19 Br1 N2 O2'
_chemical_name_systematic        
'1-(3-((5-bromo-2-hydroxybenzylidene)amino)phenyl)ethanone  O-benzyl oxime'
_symmetry_cell_setting           monoclinic
_symmetry_space_group_name_H-M   'P 21/c'
_symmetry_Int_Tables_number      14
_space_group_name_Hall           '-P 2ybc'
loop_
_symmetry_equiv_pos_site_id
_symmetry_equiv_pos_as_xyz
1 x,y,z
2 -x,1/2+y,1/2-z
3 -x,-y,-z
4 x,1/2-y,1/2+z
_cell_length_a                   18.4760(16)
_cell_length_b                   4.8400(3)
_cell_length_c                   21.6410(18)
_cell_angle_alpha                90
_cell_angle_beta                 96.1620(10)
_cell_angle_gamma                90
_cell_volume                     1924.04
_exptl_crystal_colour            'orange red'
_exptl_crystal_description       prismatic
_cell_formula_units_Z            4
loop_
_atom_site_label
_atom_site_type_symbol
_atom_site_fract_x
_atom_site_fract_y
_atom_site_fract_z
N1 N 0.1967(2) -0.3033(9) 0.48276(19)
N2 N 0.3880(3) 0.3823(10) 0.4277(2)
O1 O 0.1386(2) -0.4843(8) 0.48751(16)
O2 O 0.4651(2) 0.5419(10) 0.33787(18)
H1 H 0.4556 0.4535 0.3683
Br1 Br 0.20930(4) 1.25505(15) 0.24170(3)
C1 C 0.2174(3) -0.3982(15) 0.5955(2)
H2 H 0.1675 -0.4576 0.5914
H3 H 0.2251 -0.2665 0.6287
H4 H 0.2486 -0.5547 0.6045
C2 C 0.2342(3) -0.2663(11) 0.5359(2)
C3 C 0.3001(3) -0.0926(11) 0.5346(2)
C4 C 0.3099(3) 0.0779(11) 0.4837(2)
H5 H 0.2722 0.0975 0.4519
C5 C 0.3751(3) 0.2180(11) 0.4801(2)
C6 C 0.4307(3) 0.1904(13) 0.5278(3)
H6 H 0.4751 0.2771 0.5251
C7 C 0.4203(4) 0.0350(15) 0.5793(3)
H7 H 0.4567 0.0277 0.6124
C8 C 0.3563(3) -0.1108(13) 0.5825(3)
H8 H 0.3510 -0.2214 0.6168
C9 C 0.3358(3) 0.5265(11) 0.4010(2)
H9 H 0.2911 0.5215 0.4170
C10 C 0.3430(3) 0.6999(11) 0.3464(2)
C11 C 0.4070(3) 0.7040(13) 0.3173(3)
C12 C 0.4114(4) 0.8727(16) 0.2660(3)
H10 H 0.4537 0.8739 0.2462
C13 C 0.3538(4) 1.0376(14) 0.2443(3)
H11 H 0.3579 1.1527 0.2104
C14 C 0.2893(4) 1.0352(13) 0.2722(2)
C15 C 0.2858(3) 0.8683(13) 0.3237(2)
H12 H 0.2437 0.8694 0.3437
C16 C 0.1068(3) -0.5483(13) 0.4253(3)
H13 H 0.0798 -0.7197 0.4264
H14 H 0.1457 -0.5781 0.3993
C17 C 0.0570(3) -0.3295(11) 0.3961(3)
C18 C -0.0021(3) -0.2426(13) 0.4251(3)
H15 H -0.0097 -0.3181 0.4634
C19 C -0.0500(4) -0.0469(15) 0.3987(3)
H16 H -0.0900 0.0065 0.4185
C20 C -0.0379(4) 0.0687(15) 0.3426(3)
H17 H -0.0696 0.2022 0.3245
C21 C 0.0203(4) -0.0121(15) 0.3135(3)
H18 H 0.0282 0.0654 0.2754
C22 C 0.0677(3) -0.2091(13) 0.3405(3)
H19 H 0.1077 -0.2612 0.3205
loop_
_geom_bond_atom_site_label_1
_geom_bond_atom_site_label_2
_geom_bond_site_symmetry_1
_geom_bond_site_symmetry_2
N1 O1 1_555 1_555
N2 C5 1_555 1_555
O1 C16 1_555 1_555
O2 H1 1_555 1_555
Br1 C14 1_555 1_555
C1 H2 1_555 1_555
H3 C1 1_555 1_555
H4 C1 1_555 1_555
C2 N1 1_555 1_555
C3 C2 1_555 1_555
C4 C3 1_555 1_555
H5 C4 1_555 1_555
C5 C4 1_555 1_555
C6 C5 1_555 1_555
H6 C6 1_555 1_555
C7 C6 1_555 1_555
H7 C7 1_555 1_555
C8 C3 1_555 1_555
H8 C8 1_555 1_555
C9 N2 1_555 1_555
H9 C9 1_555 1_555
C10 C9 1_555 1_555
C11 O2 1_555 1_555
C12 C11 1_555 1_555
H10 C12 1_555 1_555
C13 C12 1_555 1_555
H11 C13 1_555 1_555
C14 C13 1_555 1_555
C15 C10 1_555 1_555
H12 C15 1_555 1_555
C16 H13 1_555 1_555
H14 C16 1_555 1_555
C17 C16 1_555 1_555
C18 C17 1_555 1_555
H15 C18 1_555 1_555
C19 C18 1_555 1_555
H16 C19 1_555 1_555
C20 C19 1_555 1_555
H17 C20 1_555 1_555
C21 C20 1_555 1_555
H18 C21 1_555 1_555
C22 C17 1_555 1_555
H19 C22 1_555 1_555
C1 C2 1_555 1_555
C7 C8 1_555 1_555
C10 C11 1_555 1_555
C14 C15 1_555 1_555
C21 C22 1_555 1_555

#END
