
#######################################################################
#
#                 Cambridge Crystallographic Data Centre
#                                CCDC 
#
#######################################################################
#
# If this CIF has been generated from an entry in the Cambridge 
# Structural Database, then it will include bibliographic, chemical, 
# crystal, experimental, refinement or atomic coordinate data resulting 
# from the CCDC's data processing and validation procedures.
#
#######################################################################

data_JEBHEE
_chemical_formula_moiety         'C25 H22 N2'
_chemical_name_systematic        1-Mesityl-3,5-bis(2-pyridyl)benzene
_symmetry_cell_setting           monoclinic
_symmetry_space_group_name_H-M   'P 21/n'
_symmetry_Int_Tables_number      14
_space_group_name_Hall           '-P 2yn'
loop_
_symmetry_equiv_pos_site_id
_symmetry_equiv_pos_as_xyz
1 x,y,z
2 1/2-x,1/2+y,1/2-z
3 -x,-y,-z
4 1/2+x,1/2-y,1/2+z
_cell_length_a                   9.7958(5)
_cell_length_b                   10.4118(6)
_cell_length_c                   18.9171(10)
_cell_angle_alpha                90
_cell_angle_beta                 96.9700(10)
_cell_angle_gamma                90
_cell_volume                     1915.13
_exptl_crystal_colour            colorless
_exptl_crystal_description       needle
_cell_formula_units_Z            4
_exptl_crystal_recrystallization_method dichloromethane
loop_
_atom_site_label
_atom_site_type_symbol
_atom_site_fract_x
_atom_site_fract_y
_atom_site_fract_z
N1 N 0.83182(13) 0.23261(13) 0.05913(6)
C1 C 0.78509(17) 0.28050(17) -0.00494(8)
H1 H 0.8461 0.2815 -0.0404
C2 C 0.65395(17) 0.32854(17) -0.02292(8)
H2 H 0.6264 0.3627 -0.0690
C3 C 0.56381(16) 0.32554(16) 0.02801(8)
H3 H 0.4722 0.3560 0.0173
C4 C 0.60962(15) 0.27729(15) 0.09484(8)
H4 H 0.5501 0.2749 0.1309
C5 C 0.74450(14) 0.23218(14) 0.10866(7)
N2 N 1.16014(13) -0.04744(13) 0.31677(7)
C6 C 1.26746(16) -0.12762(17) 0.32338(9)
H5 H 1.3324 -0.1204 0.3648
C7 C 1.28980(18) -0.22008(18) 0.27398(9)
H6 H 1.3687 -0.2738 0.2809
C8 C 1.19488(17) -0.23306(16) 0.21410(9)
H7 H 1.2062 -0.2970 0.1794
C9 C 1.08262(15) -0.15067(15) 0.20568(8)
H8 H 1.0158 -0.1572 0.1650
C10 C 1.06945(14) -0.05850(13) 0.25753(7)
C11 C 0.89651(13) 0.08153(13) 0.18467(7)
H9 H 0.9226 0.0441 0.1425
C12 C 0.80003(14) 0.18051(14) 0.17968(7)
C13 C 0.76150(14) 0.23414(14) 0.24194(8)
H10 H 0.6964 0.3022 0.2387
C14 C 0.81716(14) 0.18923(14) 0.30883(7)
C15 C 0.91249(14) 0.08989(13) 0.31244(7)
H11 H 0.9494 0.0574 0.3577
C16 C 0.95506(13) 0.03686(13) 0.25104(7)
C17 C 0.78238(14) 0.25188(14) 0.37553(7)
C18 C 0.84777(14) 0.36740(14) 0.39796(7)
C19 C 0.81476(15) 0.42562(15) 0.46009(8)
H12 H 0.8593 0.5035 0.4756
C20 C 0.71858(15) 0.37295(16) 0.49987(8)
C21 C 0.65719(15) 0.25741(15) 0.47726(8)
H13 H 0.5926 0.2195 0.5046
C22 C 0.68734(15) 0.19540(15) 0.41582(8)
C23 C 0.95241(16) 0.42871(16) 0.35623(8)
H14 H 0.9929 0.5036 0.3822
H15 H 0.9074 0.4559 0.3095
H16 H 1.0249 0.3664 0.3498
C24 C 0.67941(18) 0.44088(19) 0.56493(9)
H17 H 0.6205 0.3847 0.5897
H18 H 0.6296 0.5201 0.5504
H19 H 0.7627 0.4620 0.5969
C25 C 0.61671(17) 0.07119(16) 0.39253(9)
H23 H 0.5514 0.0483 0.4258
H24 H 0.6855 0.0029 0.3920
H25 H 0.5673 0.0815 0.3446
H20? H 0.7214 0.5264 0.5683
H21? H 0.7123 0.3911 0.6076
H22? H 0.5791 0.4492 0.5611
loop_
_geom_bond_atom_site_label_1
_geom_bond_atom_site_label_2
_geom_bond_site_symmetry_1
_geom_bond_site_symmetry_2
N1 C1 1_555 1_555
C1 H1 1_555 1_555
C2 C1 1_555 1_555
H2 C2 1_555 1_555
C3 C2 1_555 1_555
H3 C3 1_555 1_555
C4 C3 1_555 1_555
H4 C4 1_555 1_555
C5 N1 1_555 1_555
N2 C6 1_555 1_555
C6 H5 1_555 1_555
C7 C6 1_555 1_555
H6 C7 1_555 1_555
C8 C7 1_555 1_555
H7 C8 1_555 1_555
C9 C8 1_555 1_555
H8 C9 1_555 1_555
C10 N2 1_555 1_555
C11 H9 1_555 1_555
C12 C5 1_555 1_555
C13 C12 1_555 1_555
H10 C13 1_555 1_555
C14 C13 1_555 1_555
C15 C14 1_555 1_555
H11 C15 1_555 1_555
C16 C10 1_555 1_555
C17 C14 1_555 1_555
C18 C17 1_555 1_555
C19 C18 1_555 1_555
H12 C19 1_555 1_555
C20 C19 1_555 1_555
C21 C20 1_555 1_555
H13 C21 1_555 1_555
C22 C17 1_555 1_555
C23 C18 1_555 1_555
H14 C23 1_555 1_555
H15 C23 1_555 1_555
H16 C23 1_555 1_555
C24 C20 1_555 1_555
H17 C24 1_555 1_555
H18 C24 1_555 1_555
H19 C24 1_555 1_555
C25 C22 1_555 1_555
H23 C25 1_555 1_555
H24 C25 1_555 1_555
H25 C25 1_555 1_555
C4 C5 1_555 1_555
C9 C10 1_555 1_555
C11 C12 1_555 1_555
C11 C16 1_555 1_555
C15 C16 1_555 1_555
C21 C22 1_555 1_555

#END
