
#######################################################################
#
#                 Cambridge Crystallographic Data Centre
#                                CCDC 
#
#######################################################################
#
# If this CIF has been generated from an entry in the Cambridge 
# Structural Database, then it will include bibliographic, chemical, 
# crystal, experimental, refinement or atomic coordinate data resulting 
# from the CCDC's data processing and validation procedures.
#
#######################################################################

data_JECCOM
_chemical_formula_moiety         'C19 H52 N6 Si4 Sr1'
_chemical_name_systematic        
(N,N-bis(dimethylsilyl)amino)-(N-(dimethylsilyl)-1,1-dimethyl-1-(4,7,10-trimethyl-1,4,7,10-tetraazacyclododecan-1-yl)silanaminato)-strontium
_symmetry_cell_setting           triclinic
_symmetry_space_group_name_H-M   'P -1'
_symmetry_Int_Tables_number      2
_space_group_name_Hall           '-P 1'
loop_
_symmetry_equiv_pos_site_id
_symmetry_equiv_pos_as_xyz
1 x,y,z
2 -x,-y,-z
_cell_length_a                   9.2006(18)
_cell_length_b                   9.5438(9)
_cell_length_c                   19.2910(18)
_cell_angle_alpha                81.0103(14)
_cell_angle_beta                 87.2999(15)
_cell_angle_gamma                68.1159(14)
_cell_volume                     1552.43
_exptl_crystal_colour            colorless
_exptl_crystal_description       block
_cell_formula_units_Z            2
_chemical_properties_physical    
Air-sensitive,Moisture-sensitive,Oxygen-sensitive
_exptl_crystal_recrystallization_method tetrahydrofuran/pentane
loop_
_atom_site_label
_atom_site_type_symbol
_atom_site_fract_x
_atom_site_fract_y
_atom_site_fract_z
Sr1 Sr 0.90361(2) 0.22317(2) 0.75016(2)
Si1 Si 0.79071(7) 0.30293(7) 0.58454(3)
Si2 Si 0.66648(7) 0.59718(7) 0.65266(3)
H1 H 0.705(3) 0.630(3) 0.7187(12)
Si3 Si 0.59506(8) 0.27205(7) 0.86000(3)
H2 H 0.590(3) 0.218(3) 0.7939(13)
Si4 Si 0.81690(8) 0.42207(8) 0.89956(3)
H3 H 0.952(3) 0.442(3) 0.8627(13)
N1 N 0.9482(2) 0.1294(2) 0.61702(9)
N2 N 0.9468(2) -0.0798(2) 0.75275(10)
N3 N 1.1730(2) 0.0271(2) 0.82271(10)
N4 N 1.1696(2) 0.2370(2) 0.68979(10)
N5 N 0.7692(2) 0.4152(2) 0.64541(10)
N6 N 0.7572(2) 0.3115(2) 0.85796(10)
C1 C 0.9296(3) -0.0180(2) 0.62101(12)
H4 H 0.9734 -0.0630 0.5782
H5 H 0.8165 -0.0004 0.6220
C2 C 1.0099(3) -0.1320(2) 0.68535(12)
H6 H 0.9979 -0.2301 0.6832
H7 H 1.1233 -0.1509 0.6839
C3 C 1.0579(3) -0.1690(3) 0.81130(12)
H8 H 1.0891 -0.2792 0.8086
H9 H 1.0033 -0.1498 0.8563
C4 C 1.2037(3) -0.1317(2) 0.81115(13)
H10 H 1.2764 -0.2034 0.8483
H11 H 1.2565 -0.1478 0.7655
C5 C 1.3065(3) 0.0720(3) 0.79881(12)
H12 H 1.4052 -0.0126 0.8155
H13 H 1.2998 0.1618 0.8203
C6 C 1.3123(3) 0.1108(3) 0.71984(12)
H14 H 1.4043 0.1395 0.7076
H15 H 1.3265 0.0189 0.6984
C7 C 1.1583(3) 0.2406(3) 0.61340(11)
H16 H 1.2617 0.2289 0.5924
H17 H 1.0826 0.3418 0.5928
C8 C 1.1073(2) 0.1171(3) 0.59354(12)
H18 H 1.1113 0.1221 0.5419
H19 H 1.1831 0.0159 0.6141
C9 C 0.7992(3) -0.1046(3) 0.76678(13)
H20 H 0.8185 -0.2134 0.7692
H21 H 0.7235 -0.0457 0.7290
H22 H 0.7570 -0.0713 0.8116
C10 C 1.1484(3) 0.0379(3) 0.89807(12)
H23 H 1.0564 0.0136 0.9136
H24 H 1.1315 0.1419 0.9058
H25 H 1.2409 -0.0346 0.9248
C11 C 1.1720(3) 0.3852(3) 0.70239(13)
H26 H 1.1812 0.3840 0.7529
H27 H 1.0748 0.4676 0.6842
H28 H 1.2616 0.4022 0.6784
C12 C 0.6148(3) 0.2536(3) 0.57251(14)
H29 H 0.5847 0.2112 0.6180
H30 H 0.6403 0.1780 0.5404
H31 H 0.5276 0.3460 0.5529
C13 C 0.8385(3) 0.3781(3) 0.49366(12)
H32 H 0.7510 0.4712 0.4751
H33 H 0.8563 0.3009 0.4629
H34 H 0.9332 0.4014 0.4957
C14 C 0.7066(3) 0.7408(3) 0.58402(14)
H35 H 0.8183 0.7240 0.5849
H36 H 0.6449 0.8441 0.5938
H37 H 0.6775 0.7292 0.5376
C15 C 0.4489(3) 0.6526(3) 0.65140(15)
H38 H 0.4161 0.6361 0.6068
H39 H 0.3982 0.7607 0.6566
H40 H 0.4184 0.5902 0.6902
C16 C 0.4045(3) 0.4371(3) 0.86226(15)
H41 H 0.3990 0.4798 0.9058
H42 H 0.3176 0.4019 0.8603
H43 H 0.3974 0.5158 0.8219
C17 C 0.5882(3) 0.1184(3) 0.93234(13)
H44 H 0.6875 0.0306 0.9343
H45 H 0.5020 0.0866 0.9233
H46 H 0.5716 0.1577 0.9772
C18 C 0.6728(3) 0.6224(3) 0.90039(15)
H47 H 0.6323 0.6680 0.8527
H48 H 0.7250 0.6833 0.9175
H49 H 0.5859 0.6204 0.9314
C19 C 0.8805(4) 0.3435(3) 0.99351(14)
H50 H 0.7918 0.3326 1.0208
H51 H 0.9172 0.4135 1.0130
H52 H 0.9657 0.2435 0.9956
loop_
_geom_bond_atom_site_label_1
_geom_bond_atom_site_label_2
_geom_bond_site_symmetry_1
_geom_bond_site_symmetry_2
Sr1 N1 1_555 1_555
Si1 N1 1_555 1_555
Si2 H1 1_555 1_555
Si3 H2 1_555 1_555
Si4 H3 1_555 1_555
N1 C1 1_555 1_555
N2 Sr1 1_555 1_555
N3 Sr1 1_555 1_555
N4 Sr1 1_555 1_555
N5 Sr1 1_555 1_555
N6 Sr1 1_555 1_555
C1 H4 1_555 1_555
H5 C1 1_555 1_555
C2 N2 1_555 1_555
H6 C2 1_555 1_555
H7 C2 1_555 1_555
C3 N2 1_555 1_555
H8 C3 1_555 1_555
H9 C3 1_555 1_555
C4 N3 1_555 1_555
H10 C4 1_555 1_555
H11 C4 1_555 1_555
C5 N3 1_555 1_555
H12 C5 1_555 1_555
H13 C5 1_555 1_555
C6 N4 1_555 1_555
H14 C6 1_555 1_555
H15 C6 1_555 1_555
C7 N4 1_555 1_555
H16 C7 1_555 1_555
H17 C7 1_555 1_555
C8 N1 1_555 1_555
H18 C8 1_555 1_555
H19 C8 1_555 1_555
C9 N2 1_555 1_555
H20 C9 1_555 1_555
H21 C9 1_555 1_555
H22 C9 1_555 1_555
C10 N3 1_555 1_555
H23 C10 1_555 1_555
H24 C10 1_555 1_555
H25 C10 1_555 1_555
C11 N4 1_555 1_555
H26 C11 1_555 1_555
H27 C11 1_555 1_555
H28 C11 1_555 1_555
C12 Si1 1_555 1_555
H29 C12 1_555 1_555
H30 C12 1_555 1_555
H31 C12 1_555 1_555
C13 Si1 1_555 1_555
H32 C13 1_555 1_555
H33 C13 1_555 1_555
H34 C13 1_555 1_555
C14 Si2 1_555 1_555
H35 C14 1_555 1_555
H36 C14 1_555 1_555
H37 C14 1_555 1_555
C15 Si2 1_555 1_555
H38 C15 1_555 1_555
H39 C15 1_555 1_555
H40 C15 1_555 1_555
C16 Si3 1_555 1_555
H41 C16 1_555 1_555
H42 C16 1_555 1_555
H43 C16 1_555 1_555
C17 Si3 1_555 1_555
H44 C17 1_555 1_555
H45 C17 1_555 1_555
H46 C17 1_555 1_555
C18 Si4 1_555 1_555
H47 C18 1_555 1_555
H48 C18 1_555 1_555
H49 C18 1_555 1_555
C19 Si4 1_555 1_555
H50 C19 1_555 1_555
H51 C19 1_555 1_555
H52 C19 1_555 1_555
Si1 N5 1_555 1_555
Si2 N5 1_555 1_555
Si3 N6 1_555 1_555
Si4 N6 1_555 1_555
C1 C2 1_555 1_555
C3 C4 1_555 1_555
C5 C6 1_555 1_555
C7 C8 1_555 1_555

#END
