
#######################################################################
#
#                 Cambridge Crystallographic Data Centre
#                                CCDC 
#
#######################################################################
#
# If this CIF has been generated from an entry in the Cambridge 
# Structural Database, then it will include bibliographic, chemical, 
# crystal, experimental, refinement or atomic coordinate data resulting 
# from the CCDC's data processing and validation procedures.
#
#######################################################################

data_JECJUW
_chemical_formula_moiety         'C26 H20 B2 N4 O1,C1 H2 Cl2'
_chemical_name_systematic        
"cis-bis(\m~2~-7-Azaindole-N,N')-(\m~2~-oxo)-bis(phenyl-boron(iii)) dichloromethane solvate"
_symmetry_cell_setting           triclinic
_symmetry_space_group_name_H-M   'P -1'
_symmetry_Int_Tables_number      2
_space_group_name_Hall           '-P 1'
loop_
_symmetry_equiv_pos_site_id
_symmetry_equiv_pos_as_xyz
1 x,y,z
2 -x,-y,-z
_cell_length_a                   12.5473(13)
_cell_length_b                   13.4960(13)
_cell_length_c                   16.7659(17)
_cell_angle_alpha                90.435(10)
_cell_angle_beta                 102.211(10)
_cell_angle_gamma                116.055(10)
_cell_volume                     2476.49
_cell_formula_units_Z            4
_exptl_crystal_recrystallization_method dichloromethane/hexane
loop_
_atom_site_label
_atom_site_type_symbol
_atom_site_fract_x
_atom_site_fract_y
_atom_site_fract_z
O1 O 0.99059(49) 0.80310(42) 0.37424(30)
N1 N 0.97550(67) 0.64237(53) 0.29597(38)
N2 N 0.79742(67) 0.63800(55) 0.33034(39)
N3 N 1.07023(70) 0.68737(56) 0.45070(44)
N4 N 0.89827(70) 0.70210(54) 0.48071(42)
B1 B 1.05845(98) 0.74627(80) 0.36572(58)
B2 B 0.87454(95) 0.74667(87) 0.39296(57)
C1 C 0.85204(88) 0.59973(70) 0.28628(50)
C2 C 1.01428(78) 0.59055(72) 0.24741(55)
C3 C 0.93608(89) 0.49934(72) 0.19227(52)
C4 C 0.81096(89) 0.45470(70) 0.18261(51)
C5 C 0.76666(88) 0.50537(72) 0.23174(51)
C6 C 0.65085(82) 0.48542(72) 0.24504(55)
C7 C 0.67397(78) 0.56643(75) 0.30434(53)
C8 C 0.99367(94) 0.67950(68) 0.49804(54)
C9 C 1.15388(91) 0.65025(81) 0.47992(69)
C10 C 1.1553(15) 0.61041(99) 0.55683(96)
C11 C 1.0856(20) 0.6093(14) 0.5979(10)
C12 C 0.9972(13) 0.6372(10) 0.57853(94)
C13 C 0.9005(15) 0.63605(89) 0.61259(67)
C14 C 0.84118(98) 0.68004(76) 0.54326(70)
C15 C 1.18936(75) 0.82098(66) 0.34936(53)
C16 C 1.19593(78) 0.85334(72) 0.26902(53)
C17 C 1.30377(90) 0.92633(74) 0.25096(54)
C18 C 1.41068(84) 0.97136(75) 0.31010(63)
C19 C 1.40664(88) 0.94107(85) 0.39070(59)
C20 C 1.29809(84) 0.86987(71) 0.40791(53)
C21 C 0.80923(75) 0.82379(69) 0.39619(53)
C22 C 0.72600(83) 0.82956(75) 0.32644(54)
C23 C 0.68556(82) 0.91090(85) 0.32586(57)
C24 C 0.72732(87) 0.98931(77) 0.39269(64)
C25 C 0.80971(82) 0.98645(76) 0.46134(53)
C26 C 0.84851(78) 0.90395(71) 0.46322(52)
H1 H 1.21013 0.65269 0.44487
H2 H 1.21792 0.58321 0.57511
H3 H 0.87346 0.61135 0.66426
H4 H 0.76828 0.69227 0.54377
H5 H 1.10410 0.62118 0.25210
H6 H 0.96948 0.46339 0.15879
H7 H 0.75290 0.38874 0.14188
H8 H 0.56989 0.42376 0.21641
H9 H 0.60975 0.57325 0.32720
H10 H 1.11942 0.82097 0.22412
H11 H 1.30373 0.94637 0.19365
H12 H 1.48885 1.02445 0.29698
H13 H 1.48369 0.97203 0.43514
H14 H 1.29713 0.85146 0.46549
H15 H 0.69552 0.77373 0.27717
H16 H 0.62653 0.91300 0.27623
H17 H 0.69719 1.04676 0.39203
H18 H 0.84219 1.04477 0.50921
H19 H 0.90596 0.90114 0.51353
H40 H 1.09876 0.58228 0.65277
O2 O -0.00681(50) 0.30581(43) 0.12743(30)
N5 N 0.08764(68) 0.27830(64) 0.02406(42)
N6 N -0.08601(74) 0.12393(62) 0.05040(43)
N7 N 0.18392(70) 0.29819(60) 0.17447(43)
N8 N 0.00371(72) 0.15600(58) 0.20342(41)
B3 B 0.11159(95) 0.34445(85) 0.10880(62)
B4 B -0.07975(98) 0.19246(89) 0.13101(64)
C27 C -0.00612(96) 0.17594(85) 0.00286(55)
C28 C 0.15018(90) 0.30227(87) -0.03744(65)
C29 C 0.0970(12) 0.2093(12) -0.10548(62)
C30 C -0.0077(11) 0.1279(10) -0.07342(68)
C31 C -0.0952(16) 0.0263(14) -0.09520(83)
C32 C -0.1717(13) -0.0282(11) -0.05094(87)
C33 C -0.16888(93) 0.01800(87) 0.01882(62)
C34 C 0.12528(92) 0.21264(77) 0.21616(51)
C35 C 0.30623(90) 0.33007(76) 0.20149(57)
C36 C 0.33088(82) 0.26642(83) 0.25894(57)
C37 C 0.21480(99) 0.18945(83) 0.27050(56)
C38 C 0.1647(10) 0.10046(84) 0.31469(54)
C39 C 0.04110(96) 0.04291(72) 0.30352(53)
C40 C -0.03862(88) 0.06998(77) 0.24963(59)
C41 C 0.18052(78) 0.47530(71) 0.11082(56)
C42 C 0.15006(82) 0.52462(82) 0.04034(56)
C43 C 0.19628(91) 0.63878(88) 0.04275(60)
C44 C 0.2710(10) 0.70833(80) 0.11090(73)
C45 C 0.30420(85) 0.66176(87) 0.18223(61)
C46 C 0.25972(86) 0.54832(83) 0.18127(56)
C47 C -0.20859(80) 0.16437(65) 0.14685(58)
C48 C -0.31359(96) 0.13113(68) 0.08404(55)
C49 C -0.42201(91) 0.12525(78) 0.09589(64)
C50 C -0.43074(94) 0.15232(78) 0.17380(77)
C51 C -0.32640(98) 0.18527(70) 0.23745(60)
C52 C -0.22065(83) 0.18988(68) 0.22530(57)
H20 H 0.37010 0.39258 0.18094
H21 H 0.41286 0.27351 0.28737
H22 H 0.21985 0.07843 0.35443
H23 H 0.00699 -0.02134 0.33547
H24 H -0.12873 0.02727 0.24380
H25 H 0.22360 0.37459 -0.03561
H26 H 0.12298 0.20306 -0.15693
H27 H -0.23388 -0.10670 -0.07074
H28 H -0.22954 -0.02495 0.05111
H29 H 0.09583 0.47541 -0.01136
H30 H 0.17371 0.67135 -0.00760
H31 H 0.30169 0.79046 0.11168
H32 H 0.36080 0.71138 0.23321
H33 H 0.28425 0.51603 0.23122
H34 H -0.30962 0.10905 0.02809
H35 H -0.49443 0.10182 0.04827
H36 H -0.50806 0.14903 0.18360
H37 H -0.32978 0.20555 0.29403
H38 H -0.14869 0.21209 0.27311
H39 H -0.10268 -0.01182 -0.14895
Cl1 Cl 0.58884(29) 0.79549(30) 0.10367(19)
Cl2 Cl 0.50950(41) 0.63460(39) -0.03606(21)
C54 C 0.5125(12) 0.65310(99) 0.06764(68)
C53 C 0.4914(11) 0.26822(98) 0.55253(74)
Cl3 Cl 0.56908(43) 0.40732(37) 0.58389(30)
Cl4 Cl 0.49884(36) 0.23744(40) 0.45504(22)
loop_
_geom_bond_atom_site_label_1
_geom_bond_atom_site_label_2
_geom_bond_site_symmetry_1
_geom_bond_site_symmetry_2
O1 B1 1_555 1_555
N1 B1 1_555 1_555
N2 B2 1_555 1_555
N3 B1 1_555 1_555
N4 B2 1_555 1_555
B1 C15 1_555 1_555
B2 O1 1_555 1_555
C1 N1 1_555 1_555
C2 N1 1_555 1_555
C3 C2 1_555 1_555
C4 C3 1_555 1_555
C5 C1 1_555 1_555
C6 C5 1_555 1_555
C7 N2 1_555 1_555
C8 N3 1_555 1_555
C9 N3 1_555 1_555
C10 C9 1_555 1_555
C11 C10 1_555 1_555
C12 C8 1_555 1_555
C13 C12 1_555 1_555
C14 N4 1_555 1_555
C15 C16 1_555 1_555
C16 C17 1_555 1_555
C17 C18 1_555 1_555
C18 C19 1_555 1_555
C19 C20 1_555 1_555
C20 C15 1_555 1_555
C21 B2 1_555 1_555
C22 C21 1_555 1_555
C23 C22 1_555 1_555
C24 C23 1_555 1_555
C25 C24 1_555 1_555
C26 C21 1_555 1_555
O2 B3 1_555 1_555
N5 B3 1_555 1_555
N6 B4 1_555 1_555
N7 B3 1_555 1_555
N8 B4 1_555 1_555
B3 C41 1_555 1_555
B4 O2 1_555 1_555
C27 N5 1_555 1_555
C28 N5 1_555 1_555
C29 C28 1_555 1_555
C30 C27 1_555 1_555
C31 C30 1_555 1_555
C32 C31 1_555 1_555
C33 N6 1_555 1_555
C34 N7 1_555 1_555
C35 N7 1_555 1_555
C36 C35 1_555 1_555
C37 C34 1_555 1_555
C38 C37 1_555 1_555
C39 C38 1_555 1_555
C40 N8 1_555 1_555
C41 C42 1_555 1_555
C42 C43 1_555 1_555
C43 C44 1_555 1_555
C44 C45 1_555 1_555
C45 C46 1_555 1_555
C46 C41 1_555 1_555
C47 B4 1_555 1_555
C48 C47 1_555 1_555
C49 C48 1_555 1_555
C50 C49 1_555 1_555
C51 C50 1_555 1_555
C52 C47 1_555 1_555
Cl1 C54 1_555 1_555
Cl2 C54 1_555 1_555
C53 Cl3 1_555 1_555
Cl4 C53 1_555 1_555
H1 C9 1_555 1_555
H2 C10 1_555 1_555
H3 C13 1_555 1_555
H4 C14 1_555 1_555
H5 C2 1_555 1_555
H6 C3 1_555 1_555
H7 C4 1_555 1_555
H8 C6 1_555 1_555
H9 C7 1_555 1_555
H10 C16 1_555 1_555
H11 C17 1_555 1_555
H12 C18 1_555 1_555
H13 C19 1_555 1_555
H14 C20 1_555 1_555
H15 C22 1_555 1_555
H16 C23 1_555 1_555
H17 C24 1_555 1_555
H18 C25 1_555 1_555
H19 C26 1_555 1_555
H20 C35 1_555 1_555
H21 C36 1_555 1_555
H22 C38 1_555 1_555
H23 C39 1_555 1_555
H24 C40 1_555 1_555
H25 C28 1_555 1_555
H26 C29 1_555 1_555
H27 C32 1_555 1_555
H28 C33 1_555 1_555
H29 C42 1_555 1_555
H30 C43 1_555 1_555
H31 C44 1_555 1_555
H32 C45 1_555 1_555
H33 C46 1_555 1_555
H34 C48 1_555 1_555
H35 C49 1_555 1_555
H36 C50 1_555 1_555
H37 C51 1_555 1_555
H38 C52 1_555 1_555
H39 C31 1_555 1_555
H40 C11 1_555 1_555
N2 C1 1_555 1_555
N4 C8 1_555 1_555
C4 C5 1_555 1_555
C6 C7 1_555 1_555
C11 C12 1_555 1_555
C13 C14 1_555 1_555
C25 C26 1_555 1_555
N6 C27 1_555 1_555
N8 C34 1_555 1_555
C29 C30 1_555 1_555
C32 C33 1_555 1_555
C36 C37 1_555 1_555
C39 C40 1_555 1_555
C51 C52 1_555 1_555

#END
