
#######################################################################
#
#                 Cambridge Crystallographic Data Centre
#                                CCDC 
#
#######################################################################
#
# If this CIF has been generated from an entry in the Cambridge 
# Structural Database, then it will include bibliographic, chemical, 
# crystal, experimental, refinement or atomic coordinate data resulting 
# from the CCDC's data processing and validation procedures.
#
#######################################################################

data_JEDTER
_chemical_formula_moiety         'C25 H20'
_chemical_name_systematic        1,2-bis(1-Naphthyl)cyclopentene
_symmetry_cell_setting           monoclinic
_symmetry_space_group_name_H-M   'I 2'
_symmetry_Int_Tables_number      5
_space_group_name_Hall           'I 2y'
loop_
_symmetry_equiv_pos_site_id
_symmetry_equiv_pos_as_xyz
1 x,y,z
2 1/2+x,1/2+y,1/2+z
3 -x,y,-z
4 1/2-x,1/2+y,1/2-z
_cell_length_a                   10.566(6)
_cell_length_b                   7.618(3)
_cell_length_c                   10.795(7)
_cell_angle_alpha                90
_cell_angle_beta                 108.00(4)
_cell_angle_gamma                90
_cell_volume                     826.381
_cell_formula_units_Z            2
loop_
_atom_site_label
_atom_site_type_symbol
_atom_site_fract_x
_atom_site_fract_y
_atom_site_fract_z
C1 C 0.0000 0.8941 0.5000
C2 C -0.0080(2) 0.7738(4) 0.3834(2)
C3 C -0.0046(2) 0.5894(4) 0.4369(2)
C4 C -0.0099(2) 0.4377(4) 0.3493(2)
C5 C -0.1201(2) 0.4162(4) 0.2413(2)
C6 C -0.1284(2) 0.2787(5) 0.1514(2)
C7 C -0.0237(2) 0.1666(5) 0.1680(2)
C8 C 0.0938(2) 0.1857(4) 0.2750(2)
C9 C 0.2050(2) 0.0736(5) 0.2909(2)
C10 C 0.3175(2) 0.0924(4) 0.3941(2)
C11 C 0.3245(2) 0.2252(4) 0.4870(2)
C12 C 0.2197(2) 0.3366(5) 0.4748(2)
C13 C 0.1003(2) 0.3208(4) 0.3682(2)
H1 H 0.0706(27) 0.9726(42) 0.5150(27)
H2 H 0.0670(25) 0.7870(38) 0.3491(22)
H3 H -0.0965(28) 0.7940(43) 0.3053(24)
H4 H -0.1938(22) 0.5005(32) 0.2314(22)
H5 H -0.2087(25) 0.2718(37) 0.0791(22)
H6 H -0.0278(22) 0.0770(34) 0.1077(21)
H7 H 0.1988(22) -0.0116(34) 0.2270(22)
H8 H 0.3916(23) 0.0181(33) 0.4079(20)
H9 H 0.4074(23) 0.2371(34) 0.5604(21)
H10 H 0.2269(24) 0.4273(32) 0.5383(21)
C2B C 0.0080(2) 0.7738(4) 0.6166(2)
H1B H -0.0706(27) 0.9726(42) 0.4850(27)
C3B C 0.0046(2) 0.5894(4) 0.5631(2)
H2B H -0.0670(25) 0.7870(38) 0.6509(22)
H3B H 0.0965(28) 0.7940(43) 0.6947(24)
C4B C 0.0099(2) 0.4377(4) 0.6507(2)
C5B C 0.1201(2) 0.4162(4) 0.7587(2)
C13B C -0.1003(2) 0.3208(4) 0.6318(2)
C6B C 0.1284(2) 0.2787(5) 0.8486(2)
H4B H 0.1938(22) 0.5005(32) 0.7686(22)
C8B C -0.0938(2) 0.1857(4) 0.7250(2)
C12B C -0.2197(2) 0.3366(5) 0.5252(2)
C7B C 0.0237(2) 0.1666(5) 0.8320(2)
H5B H 0.2087(25) 0.2718(37) 0.9209(22)
C9B C -0.2050(2) 0.0736(5) 0.7091(2)
C11B C -0.3245(2) 0.2252(4) 0.5130(2)
H10B H -0.2269(24) 0.4273(32) 0.4617(21)
H6B H 0.0278(22) 0.0770(34) 0.8923(21)
C10B C -0.3175(2) 0.0924(4) 0.6059(2)
H7B H -0.1988(22) -0.0116(34) 0.7730(22)
H9B H -0.4074(23) 0.2371(34) 0.4396(21)
H8B H -0.3916(23) 0.0181(33) 0.5921(20)
loop_
_geom_bond_atom_site_label_1
_geom_bond_atom_site_label_2
_geom_bond_site_symmetry_1
_geom_bond_site_symmetry_2
C1 C2 1_555 1_555
C2 C3 1_555 1_555
C3 C4 1_555 1_555
C4 C5 1_555 1_555
C5 C6 1_555 1_555
C6 C7 1_555 1_555
C7 C8 1_555 1_555
C8 C9 1_555 1_555
C9 C10 1_555 1_555
C10 C11 1_555 1_555
C11 C12 1_555 1_555
C12 C13 1_555 1_555
C13 C4 1_555 1_555
H1 C1 1_555 1_555
H2 C2 1_555 1_555
H3 C2 1_555 1_555
H4 C5 1_555 1_555
H5 C6 1_555 1_555
H6 C7 1_555 1_555
H7 C9 1_555 1_555
H8 C10 1_555 1_555
H9 C11 1_555 1_555
H10 C12 1_555 1_555
C2B C1 1_555 1_555
H1B C1 1_555 1_555
C3B C3 1_555 1_555
H2B C2B 1_555 1_555
H3B C2B 1_555 1_555
C4B C3B 1_555 1_555
C5B C4B 1_555 1_555
C13B C4B 1_555 1_555
C6B C5B 1_555 1_555
H4B C5B 1_555 1_555
C8B C13B 1_555 1_555
C12B C13B 1_555 1_555
C7B C6B 1_555 1_555
H5B C6B 1_555 1_555
C9B C8B 1_555 1_555
C11B C12B 1_555 1_555
H10B C12B 1_555 1_555
H6B C7B 1_555 1_555
C10B C9B 1_555 1_555
H7B C9B 1_555 1_555
H9B C11B 1_555 1_555
H8B C10B 1_555 1_555
C8 C13 1_555 1_555
C2B C3B 1_555 1_555
C8B C7B 1_555 1_555
C11B C10B 1_555 1_555

#END
