
#######################################################################
#
#                 Cambridge Crystallographic Data Centre
#                                CCDC 
#
#######################################################################
#
# If this CIF has been generated from an entry in the Cambridge 
# Structural Database, then it will include bibliographic, chemical, 
# crystal, experimental, refinement or atomic coordinate data resulting 
# from the CCDC's data processing and validation procedures.
#
#######################################################################

data_JEFCOP
_chemical_formula_moiety         'C23 H29 N5 O1'
_chemical_name_systematic        
4-(2,4,6-tris((dimethylamino)methyl)phenoxy)phthalonitrile
_symmetry_cell_setting           monoclinic
_symmetry_space_group_name_H-M   'P 21/c'
_symmetry_Int_Tables_number      14
_space_group_name_Hall           '-P 2ybc'
loop_
_symmetry_equiv_pos_site_id
_symmetry_equiv_pos_as_xyz
1 x,y,z
2 -x,1/2+y,1/2-z
3 -x,-y,-z
4 x,1/2-y,1/2+z
_cell_length_a                   10.340(8)
_cell_length_b                   9.220(7)
_cell_length_c                   24.84(2)
_cell_angle_alpha                90
_cell_angle_beta                 98.181(10)
_cell_angle_gamma                90
_cell_volume                     2344.02
_exptl_crystal_colour            colorless
_exptl_crystal_description       platy
_cell_formula_units_Z            4
loop_
_atom_site_label
_atom_site_type_symbol
_atom_site_fract_x
_atom_site_fract_y
_atom_site_fract_z
O1 O 0.3341(3) 0.0354(3) 0.44482(10)
C1 C 0.2501(4) 0.0464(5) 0.39710(16)
C2 C 0.3028(4) -0.0533(5) 0.48735(15)
C3 C 0.2098(5) 0.1588(5) 0.31004(16)
N1 N 0.1067(3) 0.2120(4) 0.55863(14)
C4 C 0.2208(4) 0.0037(4) 0.52238(15)
C5 C 0.3655(4) -0.1889(5) 0.49570(16)
C6 C 0.2866(4) 0.1435(5) 0.35923(16)
H1 H 0.3627 0.1978 0.3673
C7 C 0.3452(4) -0.2633(5) 0.54182(17)
H2 H 0.3884 -0.3511 0.5491
C8 C 0.0620(4) -0.0197(5) 0.33593(17)
H3 H -0.0139 -0.0743 0.3279
C9 C 0.1555(5) 0.1483(5) 0.51193(17)
H4 H 0.2173 0.2151 0.4995
H5 H 0.0830 0.1375 0.4828
C10 C 0.1385(4) -0.0341(5) 0.38630(16)
H6 H 0.1142 -0.0975 0.4122
N2 N 0.3643(4) -0.2996(4) 0.66881(14)
C11 C 0.0981(5) 0.0758(5) 0.29757(16)
N3 N 0.3599(4) -0.2983(5) 0.40599(14)
C12 C 0.2025(4) -0.0822(4) 0.56690(15)
H7 H 0.1463 -0.0494 0.5904
C13 C 0.2653(4) -0.2159(4) 0.57771(16)
C14 C 0.4456(4) -0.2425(6) 0.45367(17)
H8 H 0.4984 -0.1638 0.4427
H9 H 0.5039 -0.3189 0.4691
C15 C 0.2159(5) 0.2586(5) 0.59855(19)
H10 H 0.2708 0.1768 0.6097
H11 H 0.1833 0.2988 0.6296
H12 H 0.2657 0.3308 0.5826
C16 C 0.2478(5) -0.3020(5) 0.62747(17)
H13 H 0.1743 -0.2631 0.6431
H14 H 0.2275 -0.4017 0.6170
C17 C 0.0241(5) 0.3359(6) 0.5424(2)
H15 H -0.0481 0.3060 0.5160
H16 H 0.0739 0.4084 0.5267
H17 H -0.0083 0.3754 0.5736
C18 C 0.2469(5) 0.2587(6) 0.2698(2)
C19 C 0.3835(6) -0.1570(6) 0.69229(19)
H18 H 0.4606 -0.1567 0.7188
H19 H 0.3092 -0.1312 0.7095
H20 H 0.3933 -0.0880 0.6642
N4 N -0.0372(6) 0.0958(8) 0.2025(2)
C20 C 0.3051(6) -0.4416(8) 0.4166(3)
H21 H 0.2483 -0.4736 0.3849
H22 H 0.2565 -0.4344 0.4467
H23 H 0.3749 -0.5102 0.4252
C21 C 0.0215(6) 0.0861(7) 0.2447(2)
C22 C 0.3540(8) -0.4049(6) 0.7112(2)
H24 H 0.4311 -0.4008 0.7377
H25 H 0.3455 -0.5003 0.6956
H26 H 0.2787 -0.3836 0.7283
C23 C 0.4240(6) -0.2989(10) 0.3578(2)
H27 H 0.4574 -0.2038 0.3522
H28 H 0.3624 -0.3262 0.3268
H29 H 0.4948 -0.3672 0.3625
N5 N 0.2772(6) 0.3358(6) 0.2374(2)
loop_
_geom_bond_atom_site_label_1
_geom_bond_atom_site_label_2
_geom_bond_site_symmetry_1
_geom_bond_site_symmetry_2
O1 C1 1_555 1_555
C1 C6 1_555 1_555
C2 O1 1_555 1_555
C3 C6 1_555 1_555
N1 C9 1_555 1_555
C4 C2 1_555 1_555
C5 C2 1_555 1_555
C6 H1 1_555 1_555
C7 C5 1_555 1_555
H2 C7 1_555 1_555
C8 H3 1_555 1_555
C9 C4 1_555 1_555
H4 C9 1_555 1_555
H5 C9 1_555 1_555
C10 C1 1_555 1_555
H6 C10 1_555 1_555
N2 C16 1_555 1_555
C11 C3 1_555 1_555
N3 C14 1_555 1_555
C12 C4 1_555 1_555
H7 C12 1_555 1_555
C13 C7 1_555 1_555
C14 C5 1_555 1_555
H8 C14 1_555 1_555
H9 C14 1_555 1_555
C15 N1 1_555 1_555
H10 C15 1_555 1_555
H11 C15 1_555 1_555
H12 C15 1_555 1_555
C16 C13 1_555 1_555
H13 C16 1_555 1_555
H14 C16 1_555 1_555
C17 N1 1_555 1_555
H15 C17 1_555 1_555
H16 C17 1_555 1_555
H17 C17 1_555 1_555
C18 C3 1_555 1_555
C19 N2 1_555 1_555
H18 C19 1_555 1_555
H19 C19 1_555 1_555
H20 C19 1_555 1_555
N4 C21 1_555 1_555
C20 N3 1_555 1_555
H21 C20 1_555 1_555
H22 C20 1_555 1_555
H23 C20 1_555 1_555
C21 C11 1_555 1_555
C22 N2 1_555 1_555
H24 C22 1_555 1_555
H25 C22 1_555 1_555
H26 C22 1_555 1_555
C23 N3 1_555 1_555
H27 C23 1_555 1_555
H28 C23 1_555 1_555
H29 C23 1_555 1_555
N5 C18 1_555 1_555
C8 C10 1_555 1_555
C8 C11 1_555 1_555
C12 C13 1_555 1_555

#END
