
#######################################################################
#
#                 Cambridge Crystallographic Data Centre
#                                CCDC 
#
#######################################################################
#
# If this CIF has been generated from an entry in the Cambridge 
# Structural Database, then it will include bibliographic, chemical, 
# crystal, experimental, refinement or atomic coordinate data resulting 
# from the CCDC's data processing and validation procedures.
#
#######################################################################

data_JEFLAI
_chemical_formula_moiety         'C17 H21 N1 O5'
_chemical_name_systematic        
(-)-(1R,2S,5R,6S)-6-Acetoxy-8-benzyloxycarbonyl-8-azabicyclo(3.2.1)octan-2-ol
_symmetry_cell_setting           monoclinic
_symmetry_space_group_name_H-M   'P 21'
_symmetry_Int_Tables_number      4
_space_group_name_Hall           'P 2yb'
loop_
_symmetry_equiv_pos_site_id
_symmetry_equiv_pos_as_xyz
1 x,y,z
2 -x,1/2+y,-z
_cell_length_a                   6.2984(2)
_cell_length_b                   13.9118(5)
_cell_length_c                   8.9620(3)
_cell_angle_alpha                90
_cell_angle_beta                 91.077(2)
_cell_angle_gamma                90
_cell_volume                     785.13
_exptl_crystal_colour            colorless
_exptl_crystal_description       plate
_cell_formula_units_Z            2
loop_
_atom_site_label
_atom_site_type_symbol
_atom_site_fract_x
_atom_site_fract_y
_atom_site_fract_z
C1 C 0.1619(3) 0.90418(14) 0.3701(2)
H1 H 0.2785 0.9068 0.2960
C2 C -0.0570(3) 0.90961(15) 0.2938(2)
H2 H -0.0664 0.9696 0.2326
C3 C -0.2319(3) 0.91053(17) 0.4098(3)
H3 H -0.3707 0.8989 0.3592
H4 H -0.2372 0.9748 0.4570
C4 C -0.1963(4) 0.83427(18) 0.5311(3)
H5 H -0.2900 0.8478 0.6160
H6 H -0.2346 0.7702 0.4905
C5 C 0.0344(3) 0.83289(16) 0.5862(2)
H7 H 0.0579 0.7839 0.6666
C6 C 0.1112(3) 0.93266(15) 0.6352(2)
H8 H -0.0054 0.9707 0.6812
C7 C 0.1913(4) 0.98090(15) 0.4926(2)
H9 H 0.3426 0.9992 0.5042
H10 H 0.1071 1.0391 0.4685
C8 C 0.2333(4) 0.72754(17) 0.4178(2)
C9 C 0.4547(5) 0.6423(2) 0.2525(3)
H11 H 0.3656 0.5866 0.2796
H12 H 0.5917 0.6373 0.3079
C10 C 0.4920(4) 0.64221(16) 0.0891(2)
C11 C 0.3251(4) 0.63452(18) -0.0132(3)
H13 H 0.1843 0.6287 0.0218
C12 C 0.3586(4) 0.63515(17) -0.1634(3)
H14 H 0.2418 0.6300 -0.2316
C13 C 0.5626(5) 0.64337(18) -0.2158(3)
H15 H 0.5864 0.6439 -0.3202
C14 C 0.7302(4) 0.6508(2) -0.1172(3)
H16 H 0.8706 0.6561 -0.1532
C15 C 0.6959(4) 0.65054(18) 0.0352(3)
H17 H 0.8130 0.6561 0.1030
C16 C 0.2553(4) 0.89980(16) 0.8783(2)
C17 C 0.4531(4) 0.89220(18) 0.9701(3)
H18 H 0.4743 0.9516 1.0271
H19 H 0.5741 0.8821 0.9047
H20 H 0.4417 0.8378 1.0390
N1 N 0.1719(3) 0.81584(12) 0.45910(17)
O1 O 0.1983(3) 0.65435(11) 0.48661(17)
O2 O 0.3491(3) 0.73047(11) 0.29125(16)
O3 O -0.0906(3) 0.82868(11) 0.19993(16)
H21 H -0.0247 0.8363 0.1202
O4 O 0.2950(2) 0.92424(10) 0.73611(15)
O5 O 0.0771(3) 0.88700(13) 0.92168(18)
loop_
_geom_bond_atom_site_label_1
_geom_bond_atom_site_label_2
_geom_bond_site_symmetry_1
_geom_bond_site_symmetry_2
C1 H1 1_555 1_555
C2 C1 1_555 1_555
H2 C2 1_555 1_555
C3 C2 1_555 1_555
H3 C3 1_555 1_555
H4 C3 1_555 1_555
C4 C3 1_555 1_555
H5 C4 1_555 1_555
H6 C4 1_555 1_555
C5 C4 1_555 1_555
H7 C5 1_555 1_555
C6 C5 1_555 1_555
H8 C6 1_555 1_555
C7 C1 1_555 1_555
H9 C7 1_555 1_555
H10 C7 1_555 1_555
C8 N1 1_555 1_555
C9 H11 1_555 1_555
H12 C9 1_555 1_555
C10 C9 1_555 1_555
C11 C10 1_555 1_555
H13 C11 1_555 1_555
C12 C11 1_555 1_555
H14 C12 1_555 1_555
C13 C12 1_555 1_555
H15 C13 1_555 1_555
C14 C13 1_555 1_555
H16 C14 1_555 1_555
C15 C10 1_555 1_555
H17 C15 1_555 1_555
C16 C17 1_555 1_555
C17 H18 1_555 1_555
H19 C17 1_555 1_555
H20 C17 1_555 1_555
N1 C1 1_555 1_555
O1 C8 1_555 1_555
O2 C8 1_555 1_555
O3 C2 1_555 1_555
H21 O3 1_555 1_555
O4 C6 1_555 1_555
O5 C16 1_555 1_555
C5 N1 1_555 1_555
C6 C7 1_555 1_555
C9 O2 1_555 1_555
C14 C15 1_555 1_555
C16 O4 1_555 1_555

#END
