
#######################################################################
#
#                 Cambridge Crystallographic Data Centre
#                                CCDC 
#
#######################################################################
#
# If this CIF has been generated from an entry in the Cambridge 
# Structural Database, then it will include bibliographic, chemical, 
# crystal, experimental, refinement or atomic coordinate data resulting 
# from the CCDC's data processing and validation procedures.
#
#######################################################################

data_JEGGEK02
_chemical_formula_moiety         'C44 H28 N4'
_chemical_name_systematic        
4'-(4-(4'-cyanobiphenyl-4-yl)-2,5-diphenylpyrrolo[3,2-b]pyrrol-1(4H)-yl)biphenyl-4-carbonitrile
_symmetry_cell_setting           triclinic
_symmetry_space_group_name_H-M   'P -1'
_symmetry_Int_Tables_number      2
_space_group_name_Hall           '-P 1'
loop_
_symmetry_equiv_pos_site_id
_symmetry_equiv_pos_as_xyz
1 x,y,z
2 -x,-y,-z
_cell_length_a                   11.233(2)
_cell_length_b                   11.599(2)
_cell_length_c                   13.261(3)
_cell_angle_alpha                80.56(3)
_cell_angle_beta                 84.20(3)
_cell_angle_gamma                72.85(3)
_cell_volume                     1626.07
_exptl_crystal_colour            yellow
_exptl_crystal_description       Platelet
_cell_formula_units_Z            2
loop_
_atom_site_label
_atom_site_type_symbol
_atom_site_fract_x
_atom_site_fract_y
_atom_site_fract_z
N1 N 0.36752(9) 0.51260(9) 0.87415(7)
N2 N 0.57479(10) 0.54982(9) 0.66822(7)
N3 N 0.15943(12) -0.08521(12) 1.56896(9)
N4 N 0.69165(11) 1.10105(11) -0.08247(9)
C1 C 0.29352(11) 0.62856(11) 0.83334(9)
C2 C 0.35277(12) 0.66946(11) 0.74347(9)
H1 H 0.3227 0.7436 0.6991
C3 C 0.46684(11) 0.57858(11) 0.73147(9)
C4 C 0.47487(11) 0.48381(11) 0.81041(9)
C5 C 0.58789(11) 0.39167(11) 0.79709(9)
H2 H 0.6162 0.3157 0.8396
C6 C 0.64862(12) 0.43467(11) 0.70962(9)
C7 C 0.18517(11) 0.70176(11) 0.88925(9)
C8 C 0.09460(12) 0.79325(11) 0.83411(10)
H3 H 0.0996 0.8019 0.7614
C9 C -0.00266(12) 0.87160(12) 0.88447(11)
H4 H -0.0627 0.9343 0.8460
C10 C -0.01241(13) 0.85874(13) 0.99000(11)
H5 H -0.0796 0.9118 1.0242
C11 C 0.07583(13) 0.76844(13) 1.04574(11)
H6 H 0.0688 0.7590 1.1184
C12 C 0.17461(12) 0.69143(12) 0.99607(10)
H7 H 0.2359 0.6309 1.0351
C13 C 0.77824(12) 0.38032(12) 0.67390(9)
C14 C 0.82495(12) 0.25367(12) 0.68228(10)
H8 H 0.7706 0.2045 0.7054
C15 C 0.94907(14) 0.19869(14) 0.65745(10)
H9 H 0.9793 0.1124 0.6636
C16 C 1.02938(14) 0.26905(15) 0.62365(11)
H10 H 1.1147 0.2313 0.6065
C17 C 0.98491(14) 0.39452(15) 0.61503(11)
H11 H 1.0400 0.4429 0.5919
C18 C 0.86028(13) 0.45056(13) 0.63984(10)
H12 H 0.8307 0.5369 0.6336
C19 C 0.33781(11) 0.43197(11) 0.95942(9)
C20 C 0.21789(12) 0.41923(11) 0.97790(9)
H13 H 0.1552 0.4615 0.9313
C21 C 0.18994(12) 0.34490(11) 1.06436(9)
H14 H 0.1071 0.3390 1.0780
C22 C 0.28205(12) 0.27835(11) 1.13187(9)
C23 C 0.40311(12) 0.28783(11) 1.10941(9)
H15 H 0.4675 0.2409 1.1530
C24 C 0.43113(12) 0.36484(11) 1.02432(9)
H16 H 0.5137 0.3715 1.0107
C25 C 0.25309(12) 0.19877(11) 1.22493(9)
C26 C 0.14502(12) 0.23819(12) 1.28684(9)
H17 H 0.0889 0.3165 1.2684
C27 C 0.11832(12) 0.16506(12) 1.37463(9)
H18 H 0.0446 0.1930 1.4162
C28 C 0.20066(12) 0.05006(12) 1.40135(9)
C29 C 0.30860(12) 0.00856(12) 1.33972(9)
H19 H 0.3641 -0.0702 1.3576
C30 C 0.33404(12) 0.08293(12) 1.25262(9)
H20 H 0.4077 0.0549 1.2110
C31 C 0.17637(13) -0.02582(13) 1.49410(10)
C32 C 0.59366(11) 0.62048(11) 0.57278(9)
C33 C 0.57324(12) 0.74502(11) 0.56810(9)
H21 H 0.5484 0.7821 0.6286
C34 C 0.58890(12) 0.81554(11) 0.47567(9)
H22 H 0.5752 0.9007 0.4735
C35 C 0.62458(11) 0.76368(11) 0.38537(9)
C36 C 0.64553(12) 0.63784(11) 0.39165(9)
H23 H 0.6710 0.6004 0.3314
C37 C 0.62989(12) 0.56640(11) 0.48402(9)
H24 H 0.6438 0.4811 0.4867
C38 C 0.63867(11) 0.83971(11) 0.28569(9)
C39 C 0.68128(12) 0.94252(11) 0.27837(10)
H25 H 0.7013 0.9653 0.3388
C40 C 0.69490(12) 1.01189(12) 0.18488(10)
H26 H 0.7246 1.0812 0.1811
C41 C 0.66455(11) 0.97906(11) 0.09601(9)
C42 C 0.62146(12) 0.87752(11) 0.10206(9)
H27 H 0.6012 0.8549 0.0417
C43 C 0.60805(12) 0.80916(11) 0.19615(9)
H28 H 0.5775 0.7403 0.1998
C44 C 0.67950(12) 1.04857(11) -0.00252(10)
loop_
_geom_bond_atom_site_label_1
_geom_bond_atom_site_label_2
_geom_bond_site_symmetry_1
_geom_bond_site_symmetry_2
N1 C1 1_555 1_555
N2 C3 1_555 1_555
N3 C31 1_555 1_555
N4 C44 1_555 1_555
C1 C2 1_555 1_555
C2 H1 1_555 1_555
C3 C2 1_555 1_555
C4 N1 1_555 1_555
C5 C4 1_555 1_555
H2 C5 1_555 1_555
C6 N2 1_555 1_555
C7 C1 1_555 1_555
C8 C7 1_555 1_555
H3 C8 1_555 1_555
C9 C8 1_555 1_555
H4 C9 1_555 1_555
C10 C9 1_555 1_555
H5 C10 1_555 1_555
C11 C10 1_555 1_555
H6 C11 1_555 1_555
C12 C7 1_555 1_555
H7 C12 1_555 1_555
C13 C6 1_555 1_555
C14 C13 1_555 1_555
H8 C14 1_555 1_555
C15 C14 1_555 1_555
H9 C15 1_555 1_555
C16 C15 1_555 1_555
H10 C16 1_555 1_555
C17 C16 1_555 1_555
H11 C17 1_555 1_555
C18 C13 1_555 1_555
H12 C18 1_555 1_555
C19 N1 1_555 1_555
C20 C19 1_555 1_555
H13 C20 1_555 1_555
C21 C20 1_555 1_555
H14 C21 1_555 1_555
C22 C21 1_555 1_555
C23 C22 1_555 1_555
H15 C23 1_555 1_555
C24 C19 1_555 1_555
H16 C24 1_555 1_555
C25 C22 1_555 1_555
C26 C25 1_555 1_555
H17 C26 1_555 1_555
C27 C26 1_555 1_555
H18 C27 1_555 1_555
C28 C27 1_555 1_555
C29 C28 1_555 1_555
H19 C29 1_555 1_555
C30 C25 1_555 1_555
H20 C30 1_555 1_555
C31 C28 1_555 1_555
C32 N2 1_555 1_555
C33 C32 1_555 1_555
H21 C33 1_555 1_555
C34 C33 1_555 1_555
H22 C34 1_555 1_555
C35 C34 1_555 1_555
C36 C35 1_555 1_555
H23 C36 1_555 1_555
C37 C32 1_555 1_555
H24 C37 1_555 1_555
C38 C35 1_555 1_555
C39 C38 1_555 1_555
H25 C39 1_555 1_555
C40 C39 1_555 1_555
H26 C40 1_555 1_555
C41 C40 1_555 1_555
C42 C41 1_555 1_555
H27 C42 1_555 1_555
C43 C38 1_555 1_555
H28 C43 1_555 1_555
C44 C41 1_555 1_555
C3 C4 1_555 1_555
C5 C6 1_555 1_555
C11 C12 1_555 1_555
C17 C18 1_555 1_555
C23 C24 1_555 1_555
C29 C30 1_555 1_555
C36 C37 1_555 1_555
C42 C43 1_555 1_555

#END
