
#######################################################################
#
#                 Cambridge Crystallographic Data Centre
#                                CCDC 
#
#######################################################################
#
# If this CIF has been generated from an entry in the Cambridge 
# Structural Database, then it will include bibliographic, chemical, 
# crystal, experimental, refinement or atomic coordinate data resulting 
# from the CCDC's data processing and validation procedures.
#
#######################################################################

data_JEGMAM
_chemical_compound_source        'isolated from Alisma orientale'
_chemical_name_common            'Alismanin B'
_chemical_formula_moiety         'C29 H48 O3'
_chemical_name_systematic        
11-hydroxy-17-(4-hydroxy-5-methylhexan-2-yl)-4,4,8,10,14-pentamethyl-1,2,4,5,6,7,8,9,10,11,12,14,15,16-tetradecahydro-3H-cyclopenta[a]phenanthren-3-one
_chemical_properties_biological  
'Significant activation effects on pregnane X receptor (PXR) at 10 nM.'
_symmetry_cell_setting           orthorhombic
_symmetry_space_group_name_H-M   'P 21 21 2'
_symmetry_Int_Tables_number      18
_space_group_name_Hall           'P 2 2ab'
loop_
_symmetry_equiv_pos_site_id
_symmetry_equiv_pos_as_xyz
1 x,y,z
2 -x,-y,z
3 1/2-x,1/2+y,-z
4 1/2+x,1/2-y,-z
_cell_length_a                   13.7185(2)
_cell_length_b                   20.7124(3)
_cell_length_c                   20.7597(3)
_cell_angle_alpha                90
_cell_angle_beta                 90
_cell_angle_gamma                90
_cell_volume                     5898.72
_exptl_crystal_colour            colorless
_exptl_crystal_description       block
_cell_formula_units_Z            8
loop_
_atom_site_label
_atom_site_type_symbol
_atom_site_fract_x
_atom_site_fract_y
_atom_site_fract_z
O1 O 0.7401(5) 0.8973(3) 0.9228(4)
O2 O 0.5786(3) 0.65343(16) 0.78992(17)
H1 H 0.572512 0.617582 0.808405
O3 O 0.5705(3) 0.45283(17) 0.62529(15)
H2 H 0.511995 0.447578 0.614674
C1 C 0.7633(7) 0.8622(4) 0.8777(4)
C2 C 0.7680(7) 0.8872(4) 0.8089(4)
C3 C 0.7685(6) 0.8278(3) 0.7620(3)
H3 H 0.835876 0.809411 0.763569
C4 C 0.6994(8) 0.7737(3) 0.7836(4)
C5 C 0.6846(6) 0.7229(3) 0.7262(4)
H4 H 0.624318 0.736704 0.702958
C6 C 0.6646(4) 0.6526(2) 0.7503(2)
H5 H 0.721249 0.637516 0.776550
C7 C 0.6454(4) 0.6037(3) 0.6956(2)
H6 H 0.642945 0.559537 0.713714
H7 H 0.581472 0.613013 0.675518
C8 C 0.7233(4) 0.6071(3) 0.6455(2)
C9 C 0.7433(5) 0.6738(3) 0.6182(3)
C10 C 0.7673(6) 0.7221(4) 0.6749(4)
C11 C 0.7894(6) 0.7922(3) 0.6495(3)
H8 H 0.860909 0.797571 0.645896
H9 H 0.761567 0.796691 0.605709
C12 C 0.7493(6) 0.8456(3) 0.6916(3)
H10 H 0.678423 0.850527 0.684171
H11 H 0.781615 0.886994 0.681031
C13 C 0.8616(5) 0.6948(4) 0.7051(3)
H12 H 0.879892 0.721012 0.742463
H13 H 0.914159 0.696022 0.673122
H14 H 0.850519 0.650130 0.718703
C14 C 0.8270(5) 0.6603(3) 0.5689(3)
H15 H 0.805951 0.672303 0.524904
H16 H 0.885401 0.686131 0.580068
C15 C 0.8505(4) 0.5889(4) 0.5720(3)
H17 H 0.918855 0.582125 0.585677
H18 H 0.840917 0.568466 0.529352
C16 C 0.7805(4) 0.5608(3) 0.6211(3)
C17 C 0.7782(4) 0.4901(3) 0.6378(2)
H19 H 0.736223 0.484809 0.676831
C18 C 0.7340(4) 0.4487(2) 0.5835(2)
H20 H 0.773430 0.454933 0.544003
H21 H 0.739023 0.402682 0.595837
C19 C 0.6289(3) 0.4637(2) 0.5681(2)
H22 H 0.625028 0.510817 0.557766
C20 C 0.5866(4) 0.4272(2) 0.5107(2)
H23 H 0.515495 0.437684 0.508508
C21 C 0.6334(4) 0.4503(3) 0.4472(2)
H24 H 0.628793 0.497399 0.444382
H25 H 0.599087 0.430759 0.410668
H26 H 0.702108 0.437329 0.446236
C22 C 0.5955(4) 0.3539(2) 0.5167(3)
H27 H 0.664521 0.341718 0.515964
H28 H 0.561690 0.333306 0.480545
H29 H 0.566103 0.339800 0.557305
C23 C 0.8806(4) 0.4647(4) 0.6544(3)
H30 H 0.923940 0.470767 0.617407
H31 H 0.876702 0.418595 0.664932
H32 H 0.906345 0.488396 0.691556
C24 C 0.6520(5) 0.6989(3) 0.5827(3)
H33 H 0.632451 0.667644 0.549676
H34 H 0.666806 0.740402 0.562230
H35 H 0.598664 0.704589 0.613593
C25 C 0.7428(7) 0.7425(4) 0.8447(3)
H36 H 0.791109 0.709324 0.832221
H37 H 0.690290 0.721018 0.869429
C26 C 0.7932(7) 0.7946(5) 0.8881(6)
H38 H 0.780468 0.783541 0.933696
H39 H 0.864480 0.791743 0.881217
C27 C 0.5964(6) 0.7993(3) 0.7999(4)
H40 H 0.597687 0.820764 0.841949
H41 H 0.550384 0.763148 0.801193
H42 H 0.575898 0.830202 0.766805
C28 C 0.6893(7) 0.9395(3) 0.7955(4)
H43 H 0.624393 0.921155 0.803102
H44 H 0.694234 0.953913 0.750715
H45 H 0.699513 0.976270 0.824423
C29 C 0.8687(7) 0.9207(4) 0.8043(4)
H46 H 0.870861 0.957154 0.834327
H47 H 0.878905 0.936376 0.760269
H48 H 0.919982 0.889697 0.815376
O5 O 0.7785(9) 0.1172(6) 0.5751(7)
O6 O 0.5934(3) 0.35014(17) 0.71024(17)
H72 H 0.582969 0.385696 0.692030
O7 O 0.5672(2) 0.54850(17) 0.87311(15)
H73 H 0.508384 0.552263 0.883668
C44 C 0.8046(7) 0.1547(4) 0.6183(4)
C45 C 0.8279(6) 0.1341(3) 0.6865(3)
C46 C 0.8221(5) 0.1921(3) 0.7335(3)
H74 H 0.885354 0.215724 0.729391
C47 C 0.7401(7) 0.2418(4) 0.7152(5)
C48 C 0.7241(6) 0.2914(4) 0.7730(4)
H75 H 0.670673 0.271825 0.799302
C49 C 0.6816(4) 0.3545(3) 0.7485(2)
H76 H 0.732383 0.374994 0.720629
C50 C 0.6591(4) 0.4030(2) 0.8036(2)
H77 H 0.651096 0.446810 0.785186
H78 H 0.596927 0.390845 0.824563
C51 C 0.7394(4) 0.4042(3) 0.8535(2)
C52 C 0.7675(5) 0.3385(3) 0.8797(3)
C53 C 0.8085(8) 0.2983(4) 0.8196(4)
C54 C 0.8455(6) 0.2326(4) 0.8462(4)
H79 H 0.917580 0.233068 0.847600
H80 H 0.821393 0.226927 0.890783
C55 C 0.8113(8) 0.1748(4) 0.8048(4)
H81 H 0.851132 0.136259 0.814825
H82 H 0.742323 0.164700 0.814528
C56 C 0.8946(6) 0.3337(4) 0.7875(4)
H83 H 0.917019 0.308943 0.750131
H84 H 0.948003 0.338145 0.818502
H85 H 0.873346 0.376674 0.773436
C57 C 0.8487(5) 0.3563(4) 0.9278(3)
H86 H 0.832864 0.339170 0.971059
H87 H 0.911462 0.337257 0.913759
C58 C 0.8568(4) 0.4296(3) 0.9302(3)
H88 H 0.837534 0.446117 0.973088
H89 H 0.924399 0.443635 0.920997
C59 C 0.7878(4) 0.4538(3) 0.8788(2)
C60 C 0.7780(4) 0.5227(3) 0.8617(2)
H90 H 0.735917 0.525881 0.822465
C61 C 0.7295(4) 0.5614(3) 0.9158(2)
H91 H 0.768992 0.556873 0.955483
H92 H 0.729376 0.607691 0.903792
C62 C 0.6262(3) 0.5409(2) 0.9303(2)
H93 H 0.627586 0.493860 0.941100
C63 C 0.5771(4) 0.5764(2) 0.9872(2)
H94 H 0.506990 0.563304 0.988087
C64 C 0.5810(5) 0.6497(3) 0.9805(3)
H95 H 0.648497 0.664464 0.985524
H96 H 0.540234 0.669577 1.013778
H97 H 0.556906 0.662226 0.937834
C65 C 0.6236(4) 0.5552(3) 1.0513(2)
H98 H 0.621652 0.508002 1.054610
H99 H 0.587278 0.574190 1.087255
H100 H 0.691480 0.569871 1.052868
C66 C 0.8793(4) 0.5527(4) 0.8455(3)
H101 H 0.916520 0.558724 0.885327
H102 H 0.870044 0.594509 0.824297
H103 H 0.915042 0.523637 0.816652
C67 C 0.6783(7) 0.3088(3) 0.9168(3)
H104 H 0.656194 0.339231 0.949950
H105 H 0.697935 0.268211 0.937270
H106 H 0.625015 0.300547 0.886480
C68 C 0.7742(8) 0.2738(5) 0.6514(6)
H107 H 0.717149 0.293322 0.629615
H108 H 0.820705 0.308856 0.661489
C69 C 0.8230(8) 0.2258(4) 0.6053(5)
H109 H 0.800783 0.235565 0.561020
H110 H 0.894263 0.233322 0.606659
C70 C 0.6434(8) 0.2076(5) 0.7027(6)
H111 H 0.648863 0.181167 0.663702
H112 H 0.591823 0.239833 0.696803
H113 H 0.627435 0.179961 0.739469
C71 C 0.7638(7) 0.0755(4) 0.7053(4)
H114 H 0.694932 0.088115 0.704237
H115 H 0.780936 0.061216 0.748872
H116 H 0.774886 0.040212 0.674794
C72 C 0.9330(7) 0.1092(4) 0.6841(5)
H117 H 0.938131 0.075127 0.651517
H118 H 0.951154 0.091846 0.726286
H119 H 0.976855 0.144819 0.672800
O4? O 0.781(2) 0.8850(13) 0.9242(11)
C30? C 0.808(2) 0.8486(10) 0.8827(9)
C31? C 0.8269(16) 0.8676(10) 0.8136(8)
C32? C 0.8255(17) 0.8093(10) 0.7668(10)
H49? H 0.889107 0.786355 0.772003
C33? C 0.739(2) 0.7571(14) 0.7854(12)
C34? C 0.726(2) 0.7092(12) 0.7282(10)
H50? H 0.675741 0.733231 0.702571
H51? H 0.711637 0.628424 0.778027
C35? C 0.802(2) 0.7055(11) 0.6812(9)
C36? C 0.8437(19) 0.7691(12) 0.6531(9)
H52? H 0.915597 0.766109 0.650098
H53? H 0.817627 0.775823 0.609128
C37? C 0.816(2) 0.8260(11) 0.6958(10)
H54? H 0.858131 0.863325 0.685709
H55? H 0.747464 0.838708 0.686645
C38? C 0.8917(17) 0.6673(11) 0.7112(9)
H56? H 0.870855 0.623621 0.722969
H57? H 0.915049 0.689946 0.749628
H58? H 0.944426 0.664711 0.679400
C39? C 0.7805(18) 0.7304(11) 0.8487(10)
H59? H 0.727738 0.707190 0.871544
H60? H 0.831325 0.698226 0.837863
C40? C 0.824(3) 0.7785(16) 0.8946(14)
H61? H 0.798996 0.768625 0.938163
H62? H 0.895434 0.771031 0.895571
C41? C 0.648(3) 0.7928(14) 0.7970(13)
H63? H 0.650850 0.814178 0.839020
H64? H 0.592459 0.762662 0.796453
H65? H 0.638656 0.825270 0.763157
C42? C 0.7608(19) 0.9259(13) 0.7944(10)
H66? H 0.692114 0.913250 0.797779
H67? H 0.775136 0.938766 0.749982
H68? H 0.773530 0.962259 0.823413
C43? C 0.938(2) 0.8910(13) 0.8167(11)
H69? H 0.946158 0.920586 0.853093
H70? H 0.954472 0.913362 0.776540
H71? H 0.980419 0.853531 0.822204
O8? O 0.7395(18) 0.1053(14) 0.5791(12)
C73? C 0.763(2) 0.1374(13) 0.6209(12)
C74? C 0.771(2) 0.1152(13) 0.6914(9)
C75? C 0.771(2) 0.1750(11) 0.7378(9)
H120? H 0.837859 0.194352 0.735905
C76? C 0.700(2) 0.2268(11) 0.7159(8)
C77? C 0.6886(18) 0.2787(9) 0.7720(8)
H121? H 0.625423 0.268881 0.793908
H122? H 0.739285 0.367924 0.722270
C78? C 0.7669(19) 0.2794(11) 0.8256(8)
C79? C 0.7927(18) 0.2095(10) 0.8490(8)
H123? H 0.864551 0.205406 0.850858
H124? H 0.767715 0.204106 0.893449
C80? C 0.753(2) 0.1548(11) 0.8081(9)
H125? H 0.682579 0.148695 0.816082
H126? H 0.787475 0.113969 0.817926
C81? C 0.861(2) 0.3073(12) 0.7951(9)
H127? H 0.850054 0.352152 0.782176
H128? H 0.879155 0.281611 0.757286
H129? H 0.914267 0.305648 0.826778
C82? C 0.7443(19) 0.2581(12) 0.6553(11)
H130? H 0.792435 0.291351 0.668197
H131? H 0.692313 0.279587 0.630120
C83? C 0.7962(19) 0.2048(15) 0.6122(12)
H132? H 0.786717 0.216635 0.566385
H133? H 0.867064 0.206530 0.620976
C84? C 0.598(2) 0.2021(11) 0.7014(10)
H134? H 0.597599 0.181743 0.658756
H135? H 0.552171 0.238251 0.701916
H136? H 0.579258 0.170340 0.734031
C85? C 0.693(2) 0.0639(10) 0.7030(10)
H137? H 0.628664 0.083534 0.699168
H138? H 0.701338 0.045854 0.746315
H139? H 0.700269 0.029475 0.670982
C86? C 0.8679(17) 0.0775(11) 0.6969(10)
H140? H 0.867983 0.041929 0.665804
H141? H 0.874567 0.060211 0.740577
H142? H 0.922531 0.106603 0.687703
loop_
_geom_bond_atom_site_label_1
_geom_bond_atom_site_label_2
_geom_bond_site_symmetry_1
_geom_bond_site_symmetry_2
O1 C1 1_555 1_555
O2 H1 1_555 1_555
O3 H2 1_555 1_555
C1 C2 1_555 1_555
C2 C3 1_555 1_555
C3 H3 1_555 1_555
C4 C3 1_555 1_555
C5 C4 1_555 1_555
H4 C5 1_555 1_555
C6 O2 1_555 1_555
H5 C6 1_555 1_555
C7 C6 1_555 1_555
H6 C7 1_555 1_555
H7 C7 1_555 1_555
C8 C7 1_555 1_555
C9 C8 1_555 1_555
C10 C5 1_555 1_555
C11 C10 1_555 1_555
H8 C11 1_555 1_555
H9 C11 1_555 1_555
C12 C3 1_555 1_555
H10 C12 1_555 1_555
H11 C12 1_555 1_555
C13 C10 1_555 1_555
H12 C13 1_555 1_555
H13 C13 1_555 1_555
H14 C13 1_555 1_555
C14 C9 1_555 1_555
H15 C14 1_555 1_555
H16 C14 1_555 1_555
C15 C14 1_555 1_555
H17 C15 1_555 1_555
H18 C15 1_555 1_555
C16 C8 1_555 1_555
C17 C16 1_555 1_555
H19 C17 1_555 1_555
C18 C17 1_555 1_555
H20 C18 1_555 1_555
H21 C18 1_555 1_555
C19 O3 1_555 1_555
H22 C19 1_555 1_555
C20 C19 1_555 1_555
H23 C20 1_555 1_555
C21 C20 1_555 1_555
H24 C21 1_555 1_555
H25 C21 1_555 1_555
H26 C21 1_555 1_555
C22 C20 1_555 1_555
H27 C22 1_555 1_555
H28 C22 1_555 1_555
H29 C22 1_555 1_555
C23 C17 1_555 1_555
H30 C23 1_555 1_555
H31 C23 1_555 1_555
H32 C23 1_555 1_555
C24 C9 1_555 1_555
H33 C24 1_555 1_555
H34 C24 1_555 1_555
H35 C24 1_555 1_555
C25 C4 1_555 1_555
H36 C25 1_555 1_555
H37 C25 1_555 1_555
C26 C1 1_555 1_555
H38 C26 1_555 1_555
H39 C26 1_555 1_555
C27 C4 1_555 1_555
H40 C27 1_555 1_555
H41 C27 1_555 1_555
H42 C27 1_555 1_555
C28 C2 1_555 1_555
H43 C28 1_555 1_555
H44 C28 1_555 1_555
H45 C28 1_555 1_555
C29 C2 1_555 1_555
H46 C29 1_555 1_555
H47 C29 1_555 1_555
H48 C29 1_555 1_555
O5 C44 1_555 1_555
O6 H72 1_555 1_555
O7 H73 1_555 1_555
C44 C45 1_555 1_555
C45 C46 1_555 1_555
C46 H74 1_555 1_555
C47 C46 1_555 1_555
C48 C47 1_555 1_555
H75 C48 1_555 1_555
C49 O6 1_555 1_555
H76 C49 1_555 1_555
C50 C49 1_555 1_555
H77 C50 1_555 1_555
H78 C50 1_555 1_555
C51 C50 1_555 1_555
C52 C51 1_555 1_555
C53 C48 1_555 1_555
C54 C53 1_555 1_555
H79 C54 1_555 1_555
H80 C54 1_555 1_555
C55 C46 1_555 1_555
H81 C55 1_555 1_555
H82 C55 1_555 1_555
C56 C53 1_555 1_555
H83 C56 1_555 1_555
H84 C56 1_555 1_555
H85 C56 1_555 1_555
C57 C52 1_555 1_555
H86 C57 1_555 1_555
H87 C57 1_555 1_555
C58 C57 1_555 1_555
H88 C58 1_555 1_555
H89 C58 1_555 1_555
C59 C51 1_555 1_555
C60 C59 1_555 1_555
H90 C60 1_555 1_555
C61 C60 1_555 1_555
H91 C61 1_555 1_555
H92 C61 1_555 1_555
C62 O7 1_555 1_555
H93 C62 1_555 1_555
C63 C62 1_555 1_555
H94 C63 1_555 1_555
C64 C63 1_555 1_555
H95 C64 1_555 1_555
H96 C64 1_555 1_555
H97 C64 1_555 1_555
C65 C63 1_555 1_555
H98 C65 1_555 1_555
H99 C65 1_555 1_555
H100 C65 1_555 1_555
C66 C60 1_555 1_555
H101 C66 1_555 1_555
H102 C66 1_555 1_555
H103 C66 1_555 1_555
C67 C52 1_555 1_555
H104 C67 1_555 1_555
H105 C67 1_555 1_555
H106 C67 1_555 1_555
C68 C47 1_555 1_555
H107 C68 1_555 1_555
H108 C68 1_555 1_555
C69 C44 1_555 1_555
H109 C69 1_555 1_555
H110 C69 1_555 1_555
C70 C47 1_555 1_555
H111 C70 1_555 1_555
H112 C70 1_555 1_555
H113 C70 1_555 1_555
C71 C45 1_555 1_555
H114 C71 1_555 1_555
H115 C71 1_555 1_555
H116 C71 1_555 1_555
C72 C45 1_555 1_555
H117 C72 1_555 1_555
H118 C72 1_555 1_555
H119 C72 1_555 1_555
C5 C6 1_555 1_555
C9 C10 1_555 1_555
C11 C12 1_555 1_555
C15 C16 1_555 1_555
C18 C19 1_555 1_555
C25 C26 1_555 1_555
C48 C49 1_555 1_555
C52 C53 1_555 1_555
C54 C55 1_555 1_555
C58 C59 1_555 1_555
C61 C62 1_555 1_555
C68 C69 1_555 1_555

#END
