
#######################################################################
#
#                 Cambridge Crystallographic Data Centre
#                                CCDC 
#
#######################################################################
#
# If this CIF has been generated from an entry in the Cambridge 
# Structural Database, then it will include bibliographic, chemical, 
# crystal, experimental, refinement or atomic coordinate data resulting 
# from the CCDC's data processing and validation procedures.
#
#######################################################################

data_JEJDIO
_chemical_formula_moiety         'C30 H30 Cl1 N3 O4'
_chemical_name_systematic        
't-butyl {1-benzyl-3-[2-(6-chloro-1H-indol-3-yl)ethoxy]-2-oxo-2,3-dihydro-1H-indol-3-yl}carbamate'
_symmetry_cell_setting           triclinic
_symmetry_space_group_name_H-M   'P -1'
_symmetry_Int_Tables_number      2
_space_group_name_Hall           '-P 1'
loop_
_symmetry_equiv_pos_site_id
_symmetry_equiv_pos_as_xyz
1 x,y,z
2 -x,-y,-z
_cell_length_a                   9.6201(10)
_cell_length_b                   10.3131(12)
_cell_length_c                   14.6525(17)
_cell_angle_alpha                78.547(9)
_cell_angle_beta                 72.894(9)
_cell_angle_gamma                89.686(9)
_cell_volume                     1359.57
_exptl_crystal_colour            colorless
_exptl_crystal_description       block
_cell_formula_units_Z            2
loop_
_atom_site_label
_atom_site_type_symbol
_atom_site_fract_x
_atom_site_fract_y
_atom_site_fract_z
Cl1 Cl 0.5743(2) 0.5819(2) 0.07081(12)
O1 O 1.7005(3) 0.8801(3) -0.5092(2)
O2 O 1.3978(3) 0.8032(3) -0.46284(18)
O3 O 1.6412(3) 0.9249(3) -0.74692(19)
O4 O 1.5226(3) 1.1156(3) -0.7432(2)
N1 N 1.6987(3) 0.6938(3) -0.5726(2)
N2 N 1.4691(3) 0.9470(3) -0.6121(2)
H1 H 1.4024 0.9918 -0.5811
N3 N 0.7737(4) 0.7984(4) -0.2956(3)
H2 H 0.6949 0.8155 -0.3110
C1 C 1.6437(4) 0.8044(4) -0.5443(3)
C2 C 1.4896(4) 0.8176(4) -0.5596(3)
C3 C 1.4791(4) 0.7016(4) -0.6069(3)
C4 C 1.3733(4) 0.6578(4) -0.6406(3)
H3 H 1.2914 0.7059 -0.6410
C5 C 1.3906(5) 0.5398(4) -0.6742(3)
H4 H 1.3188 0.5081 -0.6962
C6 C 1.5140(5) 0.4691(4) -0.6750(3)
H5 H 1.5230 0.3897 -0.6967
C7 C 1.6234(4) 0.5148(4) -0.6443(3)
H6 H 1.7074 0.4689 -0.6469
C8 C 1.6046(4) 0.6301(4) -0.6096(3)
C9 C 1.8403(4) 0.6478(4) -0.5635(3)
H7 H 1.8349 0.5518 -0.5474
H8 H 1.8604 0.6796 -0.5104
C10 C 1.9636(4) 0.6954(4) -0.6561(3)
C11 C 2.0170(4) 0.8269(5) -0.6814(3)
H9 H 1.9771 0.8845 -0.6404
C12 C 2.1279(5) 0.8734(5) -0.7659(4)
H10 H 2.1625 0.9615 -0.7818
C13 C 2.1881(5) 0.7867(6) -0.8277(4)
H11 H 2.2633 0.8172 -0.8848
C14 C 2.1363(5) 0.6577(6) -0.8041(4)
H12 H 2.1753 0.6005 -0.8457
C15 C 2.0258(5) 0.6119(5) -0.7184(4)
H13 H 1.9927 0.5233 -0.7023
C16 C 1.5437(4) 1.0050(4) -0.7046(3)
C17 C 1.7086(4) 0.9493(4) -0.8536(3)
C18 C 1.7966(5) 0.8281(5) -0.8655(3)
H14 H 1.8653 0.8238 -0.8291
H15 H 1.8479 0.8339 -0.9333
H16 H 1.7324 0.7499 -0.8417
C19 C 1.8073(6) 1.0751(5) -0.8866(4)
H17 H 1.7504 1.1491 -0.8718
H18 H 1.8538 1.0893 -0.9557
H19 H 1.8801 1.0663 -0.8531
C20 C 1.5916(6) 0.9545(6) -0.9032(4)
H20 H 1.5208 0.8821 -0.8704
H21 H 1.6343 0.9478 -0.9700
H22 H 1.5449 1.0368 -0.9008
C21 C 1.2434(4) 0.7936(4) -0.4484(3)
H23 H 1.2140 0.7089 -0.4582
H24 H 1.2156 0.8639 -0.4933
C22 C 1.1746(4) 0.8071(4) -0.3445(3)
H25 H 1.2145 0.7430 -0.3023
H26 H 1.2015 0.8947 -0.3382
C23 C 1.0113(4) 0.7874(4) -0.3094(3)
C24 C 0.9128(4) 0.8287(4) -0.3576(3)
H27 H 0.9361 0.8711 -0.4229
C25 C 0.9288(4) 0.7267(4) -0.2118(3)
C26 C 0.9646(5) 0.6654(4) -0.1288(3)
H28 H 1.0615 0.6555 -0.1308
C27 C 0.8535(7) 0.6191(5) -0.0430(3)
H29 H 0.8755 0.5767 0.0128
C28 C 0.7084(6) 0.6363(6) -0.0408(4)
C29 C 0.6677(5) 0.6935(5) -0.1202(4)
H30 H 0.5704 0.7029 -0.1173
C30 C 0.7809(4) 0.7374(4) -0.2066(3)
loop_
_geom_bond_atom_site_label_1
_geom_bond_atom_site_label_2
_geom_bond_site_symmetry_1
_geom_bond_site_symmetry_2
Cl1 C28 1_555 1_555
O1 C1 1_555 1_555
O2 C2 1_555 1_555
O3 C16 1_555 1_555
O4 C16 1_555 1_555
N1 C1 1_555 1_555
N2 H1 1_555 1_555
N3 H2 1_555 1_555
C1 C2 1_555 1_555
C2 N2 1_555 1_555
C3 C2 1_555 1_555
C4 C3 1_555 1_555
H3 C4 1_555 1_555
C5 C4 1_555 1_555
H4 C5 1_555 1_555
C6 C5 1_555 1_555
H5 C6 1_555 1_555
C7 C6 1_555 1_555
H6 C7 1_555 1_555
C8 N1 1_555 1_555
C9 N1 1_555 1_555
H7 C9 1_555 1_555
H8 C9 1_555 1_555
C10 C9 1_555 1_555
C11 C10 1_555 1_555
H9 C11 1_555 1_555
C12 C11 1_555 1_555
H10 C12 1_555 1_555
C13 C12 1_555 1_555
H11 C13 1_555 1_555
C14 C13 1_555 1_555
H12 C14 1_555 1_555
C15 C10 1_555 1_555
H13 C15 1_555 1_555
C16 N2 1_555 1_555
C17 O3 1_555 1_555
C18 C17 1_555 1_555
H14 C18 1_555 1_555
H15 C18 1_555 1_555
H16 C18 1_555 1_555
C19 C17 1_555 1_555
H17 C19 1_555 1_555
H18 C19 1_555 1_555
H19 C19 1_555 1_555
C20 C17 1_555 1_555
H20 C20 1_555 1_555
H21 C20 1_555 1_555
H22 C20 1_555 1_555
C21 O2 1_555 1_555
H23 C21 1_555 1_555
H24 C21 1_555 1_555
C22 C21 1_555 1_555
H25 C22 1_555 1_555
H26 C22 1_555 1_555
C23 C22 1_555 1_555
C24 N3 1_555 1_555
H27 C24 1_555 1_555
C25 C23 1_555 1_555
C26 C25 1_555 1_555
H28 C26 1_555 1_555
C27 C26 1_555 1_555
H29 C27 1_555 1_555
C28 C27 1_555 1_555
C29 C28 1_555 1_555
H30 C29 1_555 1_555
C30 N3 1_555 1_555
C3 C8 1_555 1_555
C7 C8 1_555 1_555
C14 C15 1_555 1_555
C23 C24 1_555 1_555
C25 C30 1_555 1_555
C29 C30 1_555 1_555

#END
