
#######################################################################
#
#                 Cambridge Crystallographic Data Centre
#                                CCDC 
#
#######################################################################
#
# If this CIF has been generated from an entry in the Cambridge 
# Structural Database, then it will include bibliographic, chemical, 
# crystal, experimental, refinement or atomic coordinate data resulting 
# from the CCDC's data processing and validation procedures.
#
#######################################################################

data_JEJQUL
_chemical_formula_moiety         'C14 H14 Br1 N1 O4 S1'
_chemical_name_systematic        
5-Bromo-3-(carboxymethyl)-7-(methylsulfonyl)-1,2,3,4-tetrahydrocyclopenta[b]indole
_symmetry_cell_setting           triclinic
_symmetry_space_group_name_H-M   'P 1'
_symmetry_Int_Tables_number      1
_space_group_name_Hall           'P 1'
loop_
_symmetry_equiv_pos_site_id
_symmetry_equiv_pos_as_xyz
1 x,y,z
_cell_length_a                   5.340(2)
_cell_length_b                   9.102(3)
_cell_length_c                   15.864(6)
_cell_angle_alpha                102.864(6)
_cell_angle_beta                 99.315(6)
_cell_angle_gamma                100.420(6)
_cell_volume                     722.7
_exptl_crystal_colour            colorless
_cell_formula_units_Z            2
loop_
_atom_site_label
_atom_site_type_symbol
_atom_site_fract_x
_atom_site_fract_y
_atom_site_fract_z
Br1 Br -0.64956(8) -0.15984(5) 0.39135(4)
S1 S -0.3441(4) 0.4658(2) 0.41498(13)
O1 O -0.1874(12) 0.6059(7) 0.4776(4)
O2 O -0.6226(11) 0.4465(7) 0.3922(4)
O3 O 0.6047(10) -0.3736(6) 0.6512(3)
H1 H 0.7174 -0.3967 0.6862
O4 O 0.6423(9) -0.1747(5) 0.7672(3)
N1 N -0.1195(12) -0.0647(8) 0.5422(4)
H2 H -0.2017 -0.1623 0.5302
C1 C -0.2787(14) 0.3051(9) 0.4527(5)
C2 C -0.4588(16) 0.1648(10) 0.4155(6)
H3 H -0.6097 0.1593 0.3729
C3 C -0.4184(15) 0.0343(9) 0.4405(5)
C4 C -0.1922(14) 0.0462(9) 0.5043(5)
C5 C 0.1091(15) 0.0077(9) 0.6030(5)
C6 C 0.2789(12) -0.0467(7) 0.6702(4)
H4 H 0.1901 -0.0562 0.7202
C7 C 0.5160(15) 0.0953(9) 0.7022(5)
H5 H 0.6620 0.0716 0.6744
H6 H 0.5758 0.1196 0.7672
C8 C 0.4274(16) 0.2381(9) 0.6754(5)
H7 H 0.3918 0.3101 0.7265
H8 H 0.5596 0.2952 0.6501
C9 C 0.1818(16) 0.1590(10) 0.6067(5)
C10 C -0.0152(15) 0.1913(10) 0.5436(5)
C11 C -0.0546(16) 0.3236(10) 0.5177(6)
H9 H 0.0639 0.4209 0.5426
C12 C -0.2247(16) 0.4484(11) 0.3164(6)
H10 H -0.3139 0.3489 0.2746
H11 H -0.0371 0.4537 0.3298
H12 H -0.2570 0.5328 0.2901
C13 C 0.3425(12) -0.1996(7) 0.6311(4)
H13 H 0.4030 -0.1937 0.5759
H14 H 0.1802 -0.2813 0.6149
C14 C 0.5467(12) -0.2482(8) 0.6905(4)
Br2 Br 1.21621(8) 0.59368(5) 1.17539(4)
S2 S 0.9296(4) -0.0369(2) 1.14087(13)
O5 O 1.2072(11) -0.0138(7) 1.1676(4)
O6 O 0.7926(13) -0.1734(7) 1.0722(4)
O7 O 0.0292(9) 0.5844(5) 0.7452(3)
O8 O 0.0450(10) 0.7644(6) 0.8676(3)
H15 H -0.0779 0.7843 0.8350
N2 N 0.6676(12) 0.5012(7) 1.0347(4)
H16 H 0.7440 0.6002 1.0502
C15 C 0.8586(16) 0.1239(9) 1.1070(5)
C16 C 1.0400(15) 0.2676(10) 1.1469(5)
H17 H 1.1937 0.2740 1.1885
C17 C 0.9857(15) 0.3977(9) 1.1232(5)
C18 C 0.7598(16) 0.3855(9) 1.0644(5)
C19 C 0.4331(15) 0.4323(9) 0.9761(5)
C20 C 0.2330(12) 0.4967(7) 0.9285(4)
H18 H 0.1453 0.5543 0.9719
C21 C 0.0405(16) 0.3419(9) 0.8724(6)
H19 H -0.1398 0.3467 0.8783
H20 H 0.0481 0.3271 0.8092
C22 C 0.1153(14) 0.2044(9) 0.9050(5)
H21 H -0.0141 0.1610 0.9363
H22 H 0.1315 0.1215 0.8553
C23 C 0.3739(15) 0.2785(9) 0.9669(5)
C24 C 0.5753(16) 0.2420(9) 1.0239(5)
C25 C 0.6292(16) 0.1104(9) 1.0486(5)
H23 H 0.5092 0.0132 1.0253
C26 C 0.8009(16) -0.0389(11) 1.2352(6)
H24 H 0.6130 -0.0458 1.2206
H25 H 0.8847 0.0564 1.2814
H26 H 0.8329 -0.1284 1.2564
C27 C 0.3440(11) 0.6036(7) 0.8742(4)
H27 H 0.4690 0.6960 0.9144
H28 H 0.4381 0.5485 0.8332
C28 C 0.1263(12) 0.6525(7) 0.8225(4)
loop_
_geom_bond_atom_site_label_1
_geom_bond_atom_site_label_2
_geom_bond_site_symmetry_1
_geom_bond_site_symmetry_2
Br1 C3 1_555 1_555
S1 O1 1_555 1_555
O2 S1 1_555 1_555
O3 H1 1_555 1_555
O4 C14 1_555 1_555
N1 H2 1_555 1_555
C1 S1 1_555 1_555
C2 C1 1_555 1_555
H3 C2 1_555 1_555
C3 C2 1_555 1_555
C4 N1 1_555 1_555
C5 N1 1_555 1_555
C6 C5 1_555 1_555
H4 C6 1_555 1_555
C7 C6 1_555 1_555
H5 C7 1_555 1_555
H6 C7 1_555 1_555
C8 C7 1_555 1_555
H7 C8 1_555 1_555
H8 C8 1_555 1_555
C9 C5 1_555 1_555
C10 C4 1_555 1_555
C11 C1 1_555 1_555
H9 C11 1_555 1_555
C12 S1 1_555 1_555
H10 C12 1_555 1_555
H11 C12 1_555 1_555
H12 C12 1_555 1_555
C13 C6 1_555 1_555
H13 C13 1_555 1_555
H14 C13 1_555 1_555
C14 O3 1_555 1_555
Br2 C17 1_555 1_555
S2 O5 1_555 1_555
O6 S2 1_555 1_555
O7 C28 1_555 1_555
O8 H15 1_555 1_555
N2 H16 1_555 1_555
C15 S2 1_555 1_555
C16 C15 1_555 1_555
H17 C16 1_555 1_555
C17 C16 1_555 1_555
C18 N2 1_555 1_555
C19 N2 1_555 1_555
C20 C19 1_555 1_555
H18 C20 1_555 1_555
C21 C20 1_555 1_555
H19 C21 1_555 1_555
H20 C21 1_555 1_555
C22 C21 1_555 1_555
H21 C22 1_555 1_555
H22 C22 1_555 1_555
C23 C19 1_555 1_555
C24 C18 1_555 1_555
C25 C15 1_555 1_555
H23 C25 1_555 1_555
C26 S2 1_555 1_555
H24 C26 1_555 1_555
H25 C26 1_555 1_555
H26 C26 1_555 1_555
C27 C20 1_555 1_555
H27 C27 1_555 1_555
H28 C27 1_555 1_555
C28 O8 1_555 1_555
C3 C4 1_555 1_555
C8 C9 1_555 1_555
C9 C10 1_555 1_555
C10 C11 1_555 1_555
C13 C14 1_555 1_555
C17 C18 1_555 1_555
C22 C23 1_555 1_555
C23 C24 1_555 1_555
C24 C25 1_555 1_555
C27 C28 1_555 1_555

#END
