
#######################################################################
#
#                 Cambridge Crystallographic Data Centre
#                                CCDC 
#
#######################################################################
#
# If this CIF has been generated from an entry in the Cambridge 
# Structural Database, then it will include bibliographic, chemical, 
# crystal, experimental, refinement or atomic coordinate data resulting 
# from the CCDC's data processing and validation procedures.
#
#######################################################################

data_JEKNOF
_chemical_formula_moiety         'C16 H12 N2 O1'
_chemical_name_systematic        3-(biphenyl-3-yl)-2-cyanoacrylamide
_symmetry_cell_setting           triclinic
_symmetry_space_group_name_H-M   'P -1'
_symmetry_Int_Tables_number      2
_space_group_name_Hall           '-P 1'
loop_
_symmetry_equiv_pos_site_id
_symmetry_equiv_pos_as_xyz
1 x,y,z
2 -x,-y,-z
_cell_length_a                   9.924(3)
_cell_length_b                   10.552(4)
_cell_length_c                   12.185(3)
_cell_angle_alpha                86.187(9)
_cell_angle_beta                 89.457(7)
_cell_angle_gamma                83.500(9)
_cell_volume                     1264.98
_exptl_crystal_colour            colorless
_exptl_crystal_description       wedge
_cell_formula_units_Z            4
loop_
_atom_site_label
_atom_site_type_symbol
_atom_site_fract_x
_atom_site_fract_y
_atom_site_fract_z
C1 C 0.8527(6) 0.3844(7) 0.5465(5)
O1 O 0.8684(5) 0.4744(5) 0.6033(3)
N1 N 0.9249(7) 0.3625(8) 0.4546(5)
H1 H 0.978(9) 0.429(9) 0.434(6)
H2 H 0.906(9) 0.296(9) 0.418(6)
C2 C 0.7525(6) 0.2924(7) 0.5792(5)
C3 C 0.6883(6) 0.3022(7) 0.6768(5)
H3 H 0.7062 0.3735 0.7158
C4 C 0.7315(7) 0.1999(7) 0.5016(5)
N2 N 0.7187(7) 0.1324(7) 0.4339(4)
C5 C 0.5949(6) 0.2202(7) 0.7324(4)
C6 C 0.5360(6) 0.2635(7) 0.8305(4)
H4 H 0.5534 0.3439 0.8544
C7 C 0.4513(6) 0.1883(7) 0.8937(4)
C8 C 0.4278(7) 0.0722(7) 0.8579(5)
H5 H 0.3718 0.0205 0.9004
C9 C 0.4840(7) 0.0292(7) 0.7611(5)
H6 H 0.4661 -0.0513 0.7375
C10 C 0.5668(7) 0.1036(7) 0.6981(5)
H7 H 0.6043 0.0741 0.6312
C11 C 0.3918(6) 0.2372(7) 0.9984(4)
C12 C 0.4606(7) 0.3097(7) 1.0622(4)
H8 H 0.5486 0.3285 1.0403
C13 C 0.4045(7) 0.3571(7) 1.1591(5)
H9 H 0.4546 0.4069 1.2024
C14 C 0.2768(7) 0.3314(7) 1.1915(5)
H10 H 0.2376 0.3640 1.2568
C15 C 0.2066(7) 0.2585(7) 1.1290(4)
H11 H 0.1186 0.2400 1.1512
C16 C 0.2635(6) 0.2112(7) 1.0330(5)
H12 H 0.2137 0.1604 0.9905
C17 C 0.6385(6) 0.6206(7) 0.4517(5)
O2 O 0.6213(4) 0.5342(5) 0.3925(3)
N3 N 0.5677(6) 0.6410(7) 0.5438(5)
H13 H 0.503(10) 0.586(10) 0.563(6)
H14 H 0.592(5) 0.709(6) 0.590(4)
C18 C 0.7434(6) 0.7086(6) 0.4227(4)
C19 C 0.8090(6) 0.7024(7) 0.3262(4)
H15 H 0.7841 0.6372 0.2828
C20 C 0.7695(7) 0.7961(7) 0.5034(5)
N4 N 0.7900(7) 0.8579(7) 0.5744(4)
C21 C 0.9103(6) 0.7753(7) 0.2750(4)
C22 C 0.9722(6) 0.7299(7) 0.1802(4)
H16 H 0.9480 0.6527 0.1542
C23 C 1.0699(6) 0.7948(7) 0.1213(4)
C24 C 1.1060(6) 0.9047(6) 0.1628(4)
H17 H 1.1728 0.9493 0.1257
C25 C 1.0466(6) 0.9514(7) 0.2578(4)
H18 H 1.0730 1.0272 0.2849
C26 C 0.9483(7) 0.8874(7) 0.3136(5)
H19 H 0.9072 0.9204 0.3780
C27 C 1.1279(6) 0.7435(7) 0.0184(4)
C28 C 1.1560(6) 0.6153(7) 0.0068(5)
H20 H 1.1416 0.5568 0.0673
C29 C 1.2056(6) 0.5684(7) -0.0920(5)
H21 H 1.2247 0.4789 -0.0984
C30 C 1.2268(7) 0.6530(7) -0.1809(5)
H22 H 1.2596 0.6221 -0.2488
C31 C 1.2002(7) 0.7809(8) -0.1698(5)
H23 H 1.2154 0.8390 -0.2304
C32 C 1.1514(6) 0.8283(7) -0.0718(4)
H24 H 1.1340 0.9179 -0.0657
loop_
_geom_bond_atom_site_label_1
_geom_bond_atom_site_label_2
_geom_bond_site_symmetry_1
_geom_bond_site_symmetry_2
C1 O1 1_555 1_555
N1 C1 1_555 1_555
H1 N1 1_555 1_555
H2 N1 1_555 1_555
C2 C1 1_555 1_555
C3 C2 1_555 1_555
H3 C3 1_555 1_555
C4 C2 1_555 1_555
N2 C4 1_555 1_555
C5 C3 1_555 1_555
C6 C5 1_555 1_555
H4 C6 1_555 1_555
C7 C6 1_555 1_555
C8 C7 1_555 1_555
H5 C8 1_555 1_555
C9 C8 1_555 1_555
H6 C9 1_555 1_555
C10 C5 1_555 1_555
H7 C10 1_555 1_555
C11 C7 1_555 1_555
C12 C11 1_555 1_555
H8 C12 1_555 1_555
C13 C12 1_555 1_555
H9 C13 1_555 1_555
C14 C13 1_555 1_555
H10 C14 1_555 1_555
C15 C14 1_555 1_555
H11 C15 1_555 1_555
C16 C11 1_555 1_555
H12 C16 1_555 1_555
C17 O2 1_555 1_555
N3 C17 1_555 1_555
H13 N3 1_555 1_555
H14 N3 1_555 1_555
C18 C17 1_555 1_555
C19 C18 1_555 1_555
H15 C19 1_555 1_555
C20 C18 1_555 1_555
N4 C20 1_555 1_555
C21 C19 1_555 1_555
C22 C21 1_555 1_555
H16 C22 1_555 1_555
C23 C22 1_555 1_555
C24 C23 1_555 1_555
H17 C24 1_555 1_555
C25 C24 1_555 1_555
H18 C25 1_555 1_555
C26 C21 1_555 1_555
H19 C26 1_555 1_555
C27 C23 1_555 1_555
C28 C27 1_555 1_555
H20 C28 1_555 1_555
C29 C28 1_555 1_555
H21 C29 1_555 1_555
C30 C29 1_555 1_555
H22 C30 1_555 1_555
C31 C30 1_555 1_555
H23 C31 1_555 1_555
C32 C27 1_555 1_555
H24 C32 1_555 1_555
C9 C10 1_555 1_555
C15 C16 1_555 1_555
C25 C26 1_555 1_555
C31 C32 1_555 1_555

#END
