
#######################################################################
#
#                 Cambridge Crystallographic Data Centre
#                                CCDC 
#
#######################################################################
#
# If this CIF has been generated from an entry in the Cambridge 
# Structural Database, then it will include bibliographic, chemical, 
# crystal, experimental, refinement or atomic coordinate data resulting 
# from the CCDC's data processing and validation procedures.
#
#######################################################################

data_JELMET
_chemical_formula_moiety         'C30 H36 N4 2+,2(F6 P1 1-)'
_chemical_name_systematic        
"1,1'-(9,10-Anthracenediyl-bis(methylene))-bis(3-n-butyl-1H-imidazolium) bis(hexafluorophosphate)"
_symmetry_cell_setting           orthorhombic
_symmetry_space_group_name_H-M   'P b c a'
_symmetry_Int_Tables_number      61
_space_group_name_Hall           '-P 2ac 2ab'
loop_
_symmetry_equiv_pos_site_id
_symmetry_equiv_pos_as_xyz
1 x,y,z
2 1/2-x,-y,1/2+z
3 -x,1/2+y,1/2-z
4 1/2+x,1/2-y,-z
5 -x,-y,-z
6 1/2+x,y,1/2-z
7 x,1/2-y,1/2+z
8 1/2-x,1/2+y,z
_cell_length_a                   12.731(4)
_cell_length_b                   10.549(3)
_cell_length_c                   24.840(8)
_cell_angle_alpha                90
_cell_angle_beta                 90
_cell_angle_gamma                90
_cell_volume                     3336
_exptl_crystal_colour            colorless
_exptl_crystal_description       plate
_chemical_melting_point          248-252deg.C(dec.)
_cell_formula_units_Z            4
loop_
_atom_site_label
_atom_site_type_symbol
_atom_site_fract_x
_atom_site_fract_y
_atom_site_fract_z
N1 N 0.4158(3) 0.6937(5) 0.6177(2)
N2 N 0.4031(4) 0.6015(5) 0.6935(2)
C1 C 0.3975(5) 0.5852(5) 0.6407(3)
H1 H 0.3829 0.5094 0.6231
C2 C 0.4317(6) 0.7826(6) 0.6565(3)
H2 H 0.4447 0.8685 0.6513
C3 C 0.4252(6) 0.7233(7) 0.7030(3)
H3 H 0.4344 0.7600 0.7367
C4 C 0.4158(5) 0.7174(5) 0.5583(2)
H4 H 0.4585 0.7914 0.5506
H5 H 0.3447 0.7350 0.5465
C5 C 0.4579(6) 0.6058(6) 0.5278(2)
C6 C 0.5664(6) 0.5852(7) 0.5267(2)
C7 C 0.6397(7) 0.6669(6) 0.5537(2)
H6 H 0.6139 0.7363 0.5726
C8 C 0.7442(7) 0.6475(7) 0.5530(3)
H7 H 0.7888 0.7030 0.5709
C9 C 0.7856(6) 0.5431(9) 0.5250(3)
H8 H 0.8577 0.5291 0.5243
C10 C 0.7197(7) 0.4628(6) 0.4988(2)
H9 H 0.7483 0.3947 0.4801
C11 C 0.3912(6) 0.5213(7) 0.5011(2)
C12 C 0.3879(7) 0.5029(7) 0.7347(3)
H10 H 0.4444 0.5058 0.7609
H11 H 0.3873 0.4196 0.7182
C13 C 0.2827(9) 0.5296(12) 0.7619(4)
H12 H 0.2254 0.5223 0.7363
H13 H 0.2818 0.6140 0.7774
C14 C 0.2736(11) 0.4269(19) 0.8065(9)
H14 H 0.2766 0.3413 0.7924
H15 H 0.3253 0.4376 0.8349
C15 C 0.1796(11) 0.4597(14) 0.8215(6)
H16 H 0.1771 0.5498 0.8269
H17 H 0.1620 0.4173 0.8544
H18 H 0.1301 0.4364 0.7940
N1D N 0.5842(3) 0.3063(5) 0.3823(2)
N2D N 0.5969(4) 0.3985(5) 0.3065(2)
C1D C 0.6025(5) 0.4148(5) 0.3593(3)
H1D H 0.6171 0.4906 0.3769
C2D C 0.5683(6) 0.2174(6) 0.3435(3)
H2D H 0.5553 0.1315 0.3487
C3D C 0.5748(6) 0.2767(7) 0.2970(3)
H3D H 0.5656 0.2400 0.2633
C4D C 0.5842(5) 0.2826(5) 0.4417(2)
H4D H 0.5415 0.2086 0.4494
H5D H 0.6553 0.2650 0.4535
C5D C 0.5421(6) 0.3942(6) 0.4722(2)
C6D C 0.4336(6) 0.4148(7) 0.4733(2)
C7D C 0.3603(7) 0.3331(6) 0.4463(2)
H6D H 0.3861 0.2637 0.4274
C8D C 0.2558(7) 0.3525(7) 0.4470(3)
H7D H 0.2112 0.2970 0.4291
C9D C 0.2144(6) 0.4569(9) 0.4750(3)
H8D H 0.1423 0.4709 0.4757
C10D C 0.2803(7) 0.5372(6) 0.5012(2)
H9D H 0.2517 0.6053 0.5199
C11D C 0.6088(6) 0.4787(7) 0.4989(2)
C12D C 0.6121(7) 0.4971(7) 0.2653(3)
H10D H 0.5556 0.4942 0.2391
H11D H 0.6127 0.5804 0.2818
C13D C 0.7173(9) 0.4704(12) 0.2381(4)
H12D H 0.7746 0.4777 0.2637
H13D H 0.7182 0.3860 0.2226
C14D C 0.7264(11) 0.5731(19) 0.1935(9)
H14D H 0.7234 0.6587 0.2076
H15D H 0.6747 0.5624 0.1651
C15D C 0.8204(11) 0.5403(14) 0.1785(6)
H16D H 0.8229 0.4502 0.1731
H17D H 0.8380 0.5827 0.1456
H18D H 0.8699 0.5636 0.2060
P1 P 0.42831(16) 0.17984(18) 0.62253(9)
F1 F 0.3461(4) 0.0708(4) 0.62435(19)
F2 F 0.5194(4) 0.0875(4) 0.6335(2)
F3 F 0.5043(4) 0.2882(4) 0.6176(2)
F4 F 0.3400(4) 0.2690(4) 0.6076(2)
F5 F 0.4124(5) 0.2036(7) 0.6813(2)
F6 F 0.4455(4) 0.1520(5) 0.5624(2)
loop_
_geom_bond_atom_site_label_1
_geom_bond_atom_site_label_2
_geom_bond_site_symmetry_1
_geom_bond_site_symmetry_2
N1 C1 1_555 1_555
N2 C1 1_555 1_555
C1 H1 1_555 1_555
C2 N1 1_555 1_555
H2 C2 1_555 1_555
C3 N2 1_555 1_555
H3 C3 1_555 1_555
C4 N1 1_555 1_555
H4 C4 1_555 1_555
H5 C4 1_555 1_555
C5 C4 1_555 1_555
C6 C5 1_555 1_555
C7 C6 1_555 1_555
H6 C7 1_555 1_555
C8 C7 1_555 1_555
H7 C8 1_555 1_555
C9 C8 1_555 1_555
H8 C9 1_555 1_555
C10 C9 1_555 1_555
H9 C10 1_555 1_555
C11 C5 1_555 1_555
C12 N2 1_555 1_555
H10 C12 1_555 1_555
H11 C12 1_555 1_555
C13 C12 1_555 1_555
H12 C13 1_555 1_555
H13 C13 1_555 1_555
C14 C13 1_555 1_555
H14 C14 1_555 1_555
H15 C14 1_555 1_555
C15 C14 1_555 1_555
H16 C15 1_555 1_555
H17 C15 1_555 1_555
H18 C15 1_555 1_555
P1 F1 1_555 1_555
F2 P1 1_555 1_555
F3 P1 1_555 1_555
F4 P1 1_555 1_555
F5 P1 1_555 1_555
F6 P1 1_555 1_555
N1D C1D 1_555 1_555
N2D C1D 1_555 1_555
C1D H1D 1_555 1_555
C2D N1D 1_555 1_555
H2D C2D 1_555 1_555
C3D N2D 1_555 1_555
H3D C3D 1_555 1_555
C4D N1D 1_555 1_555
H4D C4D 1_555 1_555
H5D C4D 1_555 1_555
C5D C4D 1_555 1_555
C6D C11 1_555 1_555
C7D C6D 1_555 1_555
H6D C7D 1_555 1_555
C8D C7D 1_555 1_555
H7D C8D 1_555 1_555
C9D C8D 1_555 1_555
H8D C9D 1_555 1_555
C10D C11 1_555 1_555
H9D C10D 1_555 1_555
C11D C6 1_555 1_555
C12D N2D 1_555 1_555
H10D C12D 1_555 1_555
H11D C12D 1_555 1_555
C13D C12D 1_555 1_555
H12D C13D 1_555 1_555
H13D C13D 1_555 1_555
C14D C13D 1_555 1_555
H14D C14D 1_555 1_555
H15D C14D 1_555 1_555
C15D C14D 1_555 1_555
H16D C15D 1_555 1_555
H17D C15D 1_555 1_555
H18D C15D 1_555 1_555
C2 C3 1_555 1_555
C10 C11D 1_555 1_555
C2D C3D 1_555 1_555
C5D C6D 1_555 1_555
C5D C11D 1_555 1_555
C9D C10D 1_555 1_555

#END
