
#######################################################################
#
#                 Cambridge Crystallographic Data Centre
#                                CCDC 
#
#######################################################################
#
# If this CIF has been generated from an entry in the Cambridge 
# Structural Database, then it will include bibliographic, chemical, 
# crystal, experimental, refinement or atomic coordinate data resulting 
# from the CCDC's data processing and validation procedures.
#
#######################################################################

data_JELQAT
_chemical_compound_source        'Stemona tuberosa'
_chemical_formula_moiety         'C22 H33 N1 O4,0.4(C1 H4 O1)'
_chemical_name_systematic        'Tuberostemonine methanol solvate'
_symmetry_cell_setting           orthorhombic
_symmetry_space_group_name_H-M   'P 21 21 21'
_symmetry_Int_Tables_number      19
_space_group_name_Hall           'P 2ac 2ab'
loop_
_symmetry_equiv_pos_site_id
_symmetry_equiv_pos_as_xyz
1 x,y,z
2 1/2-x,-y,1/2+z
3 -x,1/2+y,1/2-z
4 1/2+x,1/2-y,-z
_cell_length_a                   9.3605(14)
_cell_length_b                   9.6806(16)
_cell_length_c                   25.174(4)
_cell_angle_alpha                90
_cell_angle_beta                 90
_cell_angle_gamma                90
_cell_volume                     2281.15
_exptl_crystal_colour            colorless
_exptl_crystal_description       Block
_cell_formula_units_Z            4
loop_
_atom_site_label
_atom_site_type_symbol
_atom_site_fract_x
_atom_site_fract_y
_atom_site_fract_z
O1 O 1.0254(3) 0.3640(3) 0.20425(10)
O2 O 0.8500(3) 0.4544(2) 0.15647(9)
O3 O 0.8072(3) 1.2230(3) 0.06023(10)
O4 O 0.8252(3) 1.4179(3) 0.01562(11)
C1 C 0.8623(3) 0.8321(3) 0.16808(13)
H1 H 0.8364 0.8343 0.2058
C2 C 0.9574(4) 0.9570(3) 0.15644(14)
H2 H 1.0276 0.9349 0.1294
H3 H 1.0070 0.9866 0.1883
C3 C 0.8543(4) 1.0711(3) 0.13664(13)
H4 H 0.8622 1.1515 0.1601
N1 N 0.7121(3) 1.0080(3) 0.14357(11)
C4 C 0.5848(4) 1.0772(4) 0.12331(16)
H5 H 0.5508 1.0290 0.0920
H6 H 0.6090 1.1709 0.1130
C5 C 0.4681(4) 1.0807(4) 0.16443(18)
H7 H 0.3914 1.1389 0.1514
H8 H 0.5056 1.1232 0.1964
C6 C 0.4063(4) 0.9404(4) 0.17890(19)
H9 H 0.3363 0.9534 0.2069
H10 H 0.3563 0.9042 0.1482
C7 C 0.5133(4) 0.8334(4) 0.19724(15)
H11 H 0.4621 0.7601 0.2153
H12 H 0.5767 0.8761 0.2230
C8 C 0.6039(3) 0.7694(3) 0.15340(14)
H13 H 0.5418 0.7564 0.1225
C9 C 0.7295(3) 0.8608(3) 0.13580(13)
H14 H 0.7499 0.8429 0.0982
C10 C 0.6604(3) 0.6240(3) 0.17001(15)
H15 H 0.6852 0.6305 0.2078
C11 C 0.7984(3) 0.5909(3) 0.14079(14)
H16 H 0.7819 0.5932 0.1024
C12 C 0.9210(3) 0.6883(3) 0.15520(13)
H17 H 0.9853 0.6957 0.1246
C13 C 0.9982(3) 0.6151(3) 0.19923(13)
H18 H 0.9516 0.6404 0.2327
C14 C 0.9647(4) 0.4654(3) 0.18837(13)
C15 C 1.1561(4) 0.6426(4) 0.20541(17)
H19 H 1.1712 0.7390 0.2122
H20 H 1.2049 0.6168 0.1734
H21 H 1.1927 0.5893 0.2346
C16 C 0.5506(4) 0.5095(4) 0.16543(19)
H22 H 0.5890 0.4269 0.1819
H23 H 0.4661 0.5362 0.1853
C17 C 0.5064(5) 0.4746(4) 0.1091(2)
H24 H 0.4370 0.4015 0.1098
H25 H 0.5886 0.4453 0.0893
H26 H 0.4655 0.5548 0.0926
C18 C 0.9002(4) 1.1129(3) 0.08067(14)
H27 H 0.8958 1.0325 0.0570
C19 C 1.0487(4) 1.1762(4) 0.07874(15)
H28 H 1.0735 1.2173 0.1127
H29 H 1.1197 1.1071 0.0698
C20 C 1.0391(4) 1.2849(4) 0.03603(14)
H30 H 1.0638 1.2422 0.0019
C21 C 0.8832(4) 1.3198(4) 0.03540(15)
C22 C 1.1308(5) 1.4101(5) 0.04344(17)
H31 H 1.1164 1.4724 0.0143
H32 H 1.2293 1.3829 0.0447
H33 H 1.1054 1.4552 0.0761
O5 O 0.853(2) 1.7093(13) -0.0139(5)
H34 H 0.8964 1.6656 -0.0367
C23 C 0.702(2) 1.6950(15) -0.0223(7)
H35 H 0.6854 1.6426 -0.0541
H36 H 0.6596 1.7848 -0.0259
H37 H 0.6600 1.6480 0.0074
loop_
_geom_bond_atom_site_label_1
_geom_bond_atom_site_label_2
_geom_bond_site_symmetry_1
_geom_bond_site_symmetry_2
O1 C14 1_555 1_555
O2 C11 1_555 1_555
O3 C18 1_555 1_555
O4 C21 1_555 1_555
C1 H1 1_555 1_555
C2 C1 1_555 1_555
H2 C2 1_555 1_555
H3 C2 1_555 1_555
C3 C2 1_555 1_555
H4 C3 1_555 1_555
N1 C3 1_555 1_555
C4 N1 1_555 1_555
H5 C4 1_555 1_555
H6 C4 1_555 1_555
C5 C4 1_555 1_555
H7 C5 1_555 1_555
H8 C5 1_555 1_555
C6 C5 1_555 1_555
H9 C6 1_555 1_555
H10 C6 1_555 1_555
C7 C6 1_555 1_555
H11 C7 1_555 1_555
H12 C7 1_555 1_555
C8 C7 1_555 1_555
H13 C8 1_555 1_555
C9 C1 1_555 1_555
H14 C9 1_555 1_555
C10 C8 1_555 1_555
H15 C10 1_555 1_555
C11 C10 1_555 1_555
H16 C11 1_555 1_555
C12 C1 1_555 1_555
H17 C12 1_555 1_555
C13 C12 1_555 1_555
H18 C13 1_555 1_555
C14 O2 1_555 1_555
C15 C13 1_555 1_555
H19 C15 1_555 1_555
H20 C15 1_555 1_555
H21 C15 1_555 1_555
C16 C10 1_555 1_555
H22 C16 1_555 1_555
H23 C16 1_555 1_555
C17 C16 1_555 1_555
H24 C17 1_555 1_555
H25 C17 1_555 1_555
H26 C17 1_555 1_555
C18 C3 1_555 1_555
H27 C18 1_555 1_555
C19 C18 1_555 1_555
H28 C19 1_555 1_555
H29 C19 1_555 1_555
C20 C19 1_555 1_555
H30 C20 1_555 1_555
C21 O3 1_555 1_555
C22 C20 1_555 1_555
H31 C22 1_555 1_555
H32 C22 1_555 1_555
H33 C22 1_555 1_555
O5 H34 1_555 1_555
C23 O5 1_555 1_555
H35 C23 1_555 1_555
H36 C23 1_555 1_555
H37 C23 1_555 1_555
N1 C9 1_555 1_555
C8 C9 1_555 1_555
C11 C12 1_555 1_555
C13 C14 1_555 1_555
C20 C21 1_555 1_555

#END
