
#######################################################################
#
#                 Cambridge Crystallographic Data Centre
#                                CCDC 
#
#######################################################################
#
# If this CIF has been generated from an entry in the Cambridge 
# Structural Database, then it will include bibliographic, chemical, 
# crystal, experimental, refinement or atomic coordinate data resulting 
# from the CCDC's data processing and validation procedures.
#
#######################################################################

data_JEMGEO
_chemical_formula_moiety         'C17 H16 Cl1 N1 O2'
_chemical_name_systematic        
(3S,4R)-3-Hydroxy-4-(2-chlorophenyl)-2-(1-phenylethyl)azetidinone
_symmetry_cell_setting           orthorhombic
_symmetry_space_group_name_H-M   'P 21 21 21'
_symmetry_Int_Tables_number      19
_space_group_name_Hall           'P 2ac 2ab'
loop_
_symmetry_equiv_pos_site_id
_symmetry_equiv_pos_as_xyz
1 x,y,z
2 1/2-x,-y,1/2+z
3 -x,1/2+y,1/2-z
4 1/2+x,1/2-y,-z
_cell_length_a                   6.914(2)
_cell_length_b                   9.119(3)
_cell_length_c                   24.496(8)
_cell_angle_alpha                90
_cell_angle_beta                 90
_cell_angle_gamma                90
_cell_volume                     1544.44
_cell_formula_units_Z            4
loop_
_atom_site_label
_atom_site_type_symbol
_atom_site_fract_x
_atom_site_fract_y
_atom_site_fract_z
Cl1 Cl 0.59858(13) -0.00608(11) 0.94530(4)
O1 O -0.1477(4) 0.3240(3) 0.92128(9)
O2 O 0.0938(3) 0.1128(2) 0.99956(8)
H1 H 0.1694 0.1293 1.0246
C1 C -0.0142(5) 0.2377(3) 0.91680(12)
C2 C 0.1522(4) 0.1894(3) 0.95313(12)
H2 H 0.2413 0.2698 0.9616
C3 C 0.2191(4) 0.0969(3) 0.90269(11)
H3 H 0.3373 0.1375 0.8866
N1 N 0.0462(3) 0.1535(3) 0.87501(10)
C4 C 0.2361(5) -0.0655(3) 0.91067(11)
C5 C 0.4068(5) -0.1222(3) 0.93133(12)
C6 C 0.4297(6) -0.2694(4) 0.94176(13)
H4 H 0.5449 -0.3046 0.9563
C7 C 0.2818(7) -0.3627(4) 0.93053(15)
H5 H 0.2973 -0.4626 0.9367
C8 C 0.1094(7) -0.3111(4) 0.91013(15)
H6 H 0.0081 -0.3754 0.9030
C9 C 0.0880(6) -0.1614(3) 0.90029(13)
H7 H -0.0284 -0.1262 0.8865
C10 C -0.0057(5) 0.1461(3) 0.81716(12)
H8 H -0.0139 0.0424 0.8069
C11 C -0.2035(5) 0.2156(4) 0.80703(14)
H9 H -0.2987 0.1679 0.8294
H10 H -0.2377 0.2046 0.7693
H11 H -0.1985 0.3179 0.8161
C12 C 0.1453(5) 0.2163(4) 0.78210(13)
C13 C 0.2456(6) 0.3388(4) 0.79798(15)
H12 H 0.2234 0.3784 0.8324
C14 C 0.3796(6) 0.4048(6) 0.7638(2)
H13 H 0.4467 0.4879 0.7750
C15 C 0.4115(8) 0.3442(9) 0.7124(3)
H14 H 0.5034 0.3853 0.6892
C16 C 0.3106(9) 0.2276(8) 0.6963(2)
H15 H 0.3289 0.1902 0.6613
C17 C 0.1807(6) 0.1623(5) 0.73043(15)
H16 H 0.1144 0.0794 0.7186
loop_
_geom_bond_atom_site_label_1
_geom_bond_atom_site_label_2
_geom_bond_site_symmetry_1
_geom_bond_site_symmetry_2
Cl1 C5 1_555 1_555
O1 C1 1_555 1_555
O2 H1 1_555 1_555
C1 C2 1_555 1_555
C2 O2 1_555 1_555
H2 C2 1_555 1_555
C3 C2 1_555 1_555
H3 C3 1_555 1_555
N1 C1 1_555 1_555
C4 C3 1_555 1_555
C5 C4 1_555 1_555
C6 C5 1_555 1_555
H4 C6 1_555 1_555
C7 C6 1_555 1_555
H5 C7 1_555 1_555
C8 C7 1_555 1_555
H6 C8 1_555 1_555
C9 C4 1_555 1_555
H7 C9 1_555 1_555
C10 N1 1_555 1_555
H8 C10 1_555 1_555
C11 C10 1_555 1_555
H9 C11 1_555 1_555
H10 C11 1_555 1_555
H11 C11 1_555 1_555
C12 C10 1_555 1_555
C13 C12 1_555 1_555
H12 C13 1_555 1_555
C14 C13 1_555 1_555
H13 C14 1_555 1_555
C15 C14 1_555 1_555
H14 C15 1_555 1_555
C16 C15 1_555 1_555
H15 C16 1_555 1_555
C17 C12 1_555 1_555
H16 C17 1_555 1_555
C3 N1 1_555 1_555
C8 C9 1_555 1_555
C16 C17 1_555 1_555

#END
