
#######################################################################
#
#                 Cambridge Crystallographic Data Centre
#                                CCDC 
#
#######################################################################
#
# If this CIF has been generated from an entry in the Cambridge 
# Structural Database, then it will include bibliographic, chemical, 
# crystal, experimental, refinement or atomic coordinate data resulting 
# from the CCDC's data processing and validation procedures.
#
#######################################################################

data_JEMKOC
_chemical_name_common            tris(N-n-Butyl-2-p-t-butylphenoxyacetamide)
_chemical_formula_moiety         'C50 H75 N3 O6'
_chemical_name_systematic        
2-((2,6-bis((2-((2-(n-Butylamino)-2-oxoethyl)oxy)-5-t-butylphenyl)methyl)-4-t-butylphenyl)oxy)-N-butylacetamide
_symmetry_cell_setting           triclinic
_symmetry_space_group_name_H-M   'P -1'
_symmetry_Int_Tables_number      2
_space_group_name_Hall           '-P 1'
loop_
_symmetry_equiv_pos_site_id
_symmetry_equiv_pos_as_xyz
1 x,y,z
2 -x,-y,-z
_cell_length_a                   13.524(2)
_cell_length_b                   13.962(2)
_cell_length_c                   15.014(2)
_cell_angle_alpha                77.684(3)
_cell_angle_beta                 74.964(3)
_cell_angle_gamma                64.243(2)
_cell_volume                     2449.35
_exptl_crystal_colour            colorless
_exptl_crystal_description       Block
_cell_formula_units_Z            2
loop_
_atom_site_label
_atom_site_type_symbol
_atom_site_fract_x
_atom_site_fract_y
_atom_site_fract_z
C1 C 0.61747(11) -0.03645(10) 0.29602(9)
H1 H 0.6631 -0.1109 0.3038
C2 C 0.50930(11) 0.00497(10) 0.34892(9)
H2 H 0.4823 -0.0426 0.3924
C3 C 0.43996(10) 0.11393(10) 0.33976(8)
C4 C 0.32342(11) 0.16394(11) 0.40070(9)
C5 C 0.32794(14) 0.23620(13) 0.46295(11)
H3 H 0.3460 0.2945 0.4240
H4 H 0.3856 0.1938 0.5005
H5 H 0.2552 0.2662 0.5039
C6 C 0.23644(12) 0.23163(15) 0.33852(12)
H6 H 0.1624 0.2627 0.3775
H7 H 0.2349 0.1861 0.2979
H8 H 0.2567 0.2892 0.3006
C7 C 0.28578(13) 0.07858(14) 0.46399(11)
H9 H 0.3382 0.0372 0.5063
H10 H 0.2845 0.0305 0.4258
H11 H 0.2107 0.1138 0.5001
C8 C 0.48282(10) 0.18087(10) 0.27263(8)
H12 H 0.4368 0.2551 0.2642
C9 C 0.58944(9) 0.14300(9) 0.21816(8)
C10 C 0.65719(10) 0.03281(10) 0.23187(8)
C11 C 0.84516(11) -0.10231(11) 0.20059(10)
H13 H 0.8307 -0.1571 0.1801
H14 H 0.8402 -0.1169 0.2687
C12 C 0.96134(11) -0.10803(12) 0.15321(10)
C13 C 1.07835(13) -0.00400(16) 0.08294(12)
H15 H 1.0580 0.0614 0.0380
H16 H 1.1230 -0.0657 0.0467
C14 C 1.15237(16) 0.0025(2) 0.14026(16)
H17 H 1.1065 0.0590 0.1819
H18 H 1.2109 0.0238 0.0980
C15 C 1.20823(17) -0.10229(17) 0.19853(14)
H19 H 1.2560 -0.1582 0.1568
H20 H 1.1498 -0.1247 0.2394
C16 C 1.2799(2) -0.0944(2) 0.2585(2)
H21 H 1.3136 -0.1639 0.2944
H22 H 1.2329 -0.0403 0.3010
H23 H 1.3391 -0.0739 0.2184
N1 N 0.97469(10) -0.01523(10) 0.13444(9)
H24 H 0.9178 0.0424 0.1543
O1 O 0.76369(7) 0.00180(7) 0.17732(6)
O2 O 1.03667(9) -0.19579(10) 0.13594(9)
C17 C 0.63200(9) 0.21798(9) 0.14706(8)
H25 H 0.5686 0.2881 0.1394
H26 H 0.6601 0.1887 0.0866
C18 C 0.72491(9) 0.23570(9) 0.17198(8)
C19 C 0.75554(10) 0.19973(9) 0.25916(8)
H27 H 0.7153 0.1652 0.3055
C20 C 0.84375(10) 0.21286(9) 0.28057(8)
C21 C 0.87712(11) 0.16545(11) 0.37648(9)
C22 C 0.97410(13) 0.18851(14) 0.38785(10)
H28 H 0.9521 0.2661 0.3812
H29 H 1.0397 0.1569 0.3401
H30 H 0.9924 0.1573 0.4495
C23 C 0.77699(14) 0.21173(16) 0.45461(10)
H31 H 0.7540 0.2893 0.4497
H32 H 0.7986 0.1786 0.5149
H33 H 0.7146 0.1967 0.4489
C24 C 0.91437(15) 0.04251(13) 0.38671(12)
H34 H 0.9322 0.0117 0.4485
H35 H 0.9807 0.0117 0.3393
H36 H 0.8537 0.0264 0.3788
C25 C 0.90069(10) 0.26593(9) 0.21148(8)
H37 H 0.9602 0.2760 0.2248
C26 C 0.87226(9) 0.30462(9) 0.12320(8)
C27 C 0.78441(9) 0.28820(8) 0.10472(7)
C28 C 0.67543(9) 0.42225(9) -0.00133(8)
H38 H 0.6925 0.4762 0.0177
H39 H 0.6025 0.4249 0.0361
C29 C 0.66905(10) 0.44785(10) -0.10420(9)
C30 C 0.75227(14) 0.38790(15) -0.26031(10)
H40 H 0.6876 0.4529 -0.2772
H41 H 0.7455 0.3255 -0.2752
C31 C 0.8571(2) 0.3955(2) -0.31737(12)
H42 H 0.9177 0.3522 -0.2819
H43 H 0.8473 0.4709 -0.3232
C32 C 0.8988(4) 0.3601(5) -0.4172(3)
H44 H 0.9782 0.3490 -0.4398
H45 H 0.8918 0.2923 -0.4171
C33 C 0.8287(4) 0.4457(4) -0.4760(3)
H46 H 0.8510 0.4264 -0.5394
H47 H 0.8374 0.5118 -0.4761
H48 H 0.7503 0.4565 -0.4521
N2 N 0.74777(10) 0.37680(9) -0.15981(7)
H49 H 0.7994 0.3207 -0.1351
O3 O 0.76100(6) 0.31758(6) 0.01509(5)
O4 O 0.59428(8) 0.53176(8) -0.13088(7)
C34 C 0.93320(10) 0.36216(10) 0.04634(8)
H50 H 0.9511 0.3304 -0.0118
H51 H 0.8814 0.4382 0.0361
C35 C 1.04045(10) 0.35822(9) 0.06444(8)
C36 C 1.14497(10) 0.29231(9) 0.01817(8)
H52 H 1.1475 0.2489 -0.0239
C37 C 1.24656(10) 0.28750(9) 0.03120(8)
C38 C 1.36221(10) 0.21546(10) -0.01865(9)
C39 C 1.42975(13) 0.28413(14) -0.06664(13)
H53 H 1.3891 0.3406 -0.1112
H54 H 1.5030 0.2386 -0.0993
H55 H 1.4399 0.3166 -0.0198
C40 C 1.42497(13) 0.12962(12) 0.05441(12)
H56 H 1.4295 0.1649 0.1022
H57 H 1.5006 0.0859 0.0240
H58 H 1.3845 0.0837 0.0832
C41 C 1.35466(12) 0.15915(11) -0.09248(10)
H59 H 1.3145 0.1132 -0.0628
H60 H 1.4302 0.1154 -0.1230
H61 H 1.3145 0.2129 -0.1388
C42 C 1.23941(10) 0.35305(9) 0.09352(8)
H62 H 1.3063 0.3513 0.1044
C43 C 1.13673(10) 0.42084(10) 0.14005(8)
H63 H 1.1342 0.4652 0.1813
C44 C 1.03771(10) 0.42310(9) 0.12565(8)
C45 C 0.92859(11) 0.55918(10) 0.22727(9)
H64 H 0.9569 0.6122 0.1885
H65 H 0.9779 0.5180 0.2729
C46 C 0.81051(12) 0.61724(11) 0.27832(9)
N3 N 0.7313(3) 0.5870(3) 0.2732(3)
H66 H 0.7489 0.5353 0.2397
C47 C 0.6164(3) 0.6373(2) 0.3217(3)
H67 H 0.5696 0.6871 0.2767
H68 H 0.6138 0.6796 0.3682
C48 C 0.5687(2) 0.5540(2) 0.3707(2)
H69 H 0.6163 0.5040 0.4151
H70 H 0.4929 0.5910 0.4067
C49 C 0.5616(2) 0.4900(3) 0.3038(2)
H71 H 0.5170 0.5397 0.2573
H72 H 0.6377 0.4490 0.2704
C50 C 0.5091(5) 0.4152(5) 0.3549(5)
H73 H 0.5040 0.3757 0.3107
H74 H 0.4340 0.4558 0.3881
H75 H 0.5548 0.3646 0.3994
O5 O 0.93215(7) 0.48805(7) 0.16966(6)
O6 O 0.79038(10) 0.69352(8) 0.31884(8)
C51? C 1.07835(13) -0.00400(16) 0.08294(12)
H76? H 1.0661 0.0705 0.0558
H77? H 1.1196 -0.0533 0.0347
C52? C 1.1406(8) -0.0439(9) 0.1812(8)
H78? H 1.0997 0.0097 0.2259
H79? H 1.1397 -0.1137 0.2124
C53? C 1.2576(9) -0.0530(12) 0.1475(10)
H80? H 1.2572 0.0124 0.1057
H81? H 1.3003 -0.1148 0.1110
C54? C 1.3163(11) -0.0678(16) 0.2274(10)
H82? H 1.3909 -0.0682 0.2019
H83? H 1.3231 -0.1359 0.2657
H84? H 1.2723 -0.0088 0.2655
C55? C 0.8571(2) 0.3955(2) -0.31737(12)
H85? H 0.9224 0.3287 -0.3048
H86? H 0.8667 0.4558 -0.3016
C56? C 0.8489(4) 0.4134(4) -0.4211(3)
H87? H 0.8479 0.3490 -0.4380
H88? H 0.7782 0.4748 -0.4313
C57? C 0.9475(5) 0.4353(6) -0.4827(3)
H89? H 0.9412 0.4456 -0.5480
H90? H 1.0174 0.3744 -0.4727
H91? H 0.9472 0.5001 -0.4670
N4? N 0.7491(10) 0.5562(9) 0.2974(8)
H92? H 0.7796 0.4913 0.2806
C58? C 0.6256(12) 0.6024(11) 0.3488(11)
H93? H 0.6237 0.5747 0.4153
H94? H 0.5998 0.6811 0.3441
C59? C 0.5430(4) 0.5793(6) 0.3162(4)
H95? H 0.5551 0.5838 0.2477
H96? H 0.4642 0.6233 0.3418
C60? C 0.5875(5) 0.4576(5) 0.3666(5)
H97? H 0.6633 0.4154 0.3337
H98? H 0.5917 0.4575 0.4314
C61? C 0.5050(16) 0.4055(14) 0.3655(16)
H99? H 0.5315 0.3321 0.3967
H100? H 0.5023 0.4044 0.3011
H101? H 0.4300 0.4477 0.3980
loop_
_geom_bond_atom_site_label_1
_geom_bond_atom_site_label_2
_geom_bond_site_symmetry_1
_geom_bond_site_symmetry_2
C1 H1 1_555 1_555
C2 C1 1_555 1_555
H2 C2 1_555 1_555
C3 C2 1_555 1_555
C4 C3 1_555 1_555
C5 C4 1_555 1_555
H3 C5 1_555 1_555
H4 C5 1_555 1_555
H5 C5 1_555 1_555
C6 C4 1_555 1_555
H6 C6 1_555 1_555
H7 C6 1_555 1_555
H8 C6 1_555 1_555
C7 C4 1_555 1_555
H9 C7 1_555 1_555
H10 C7 1_555 1_555
H11 C7 1_555 1_555
C8 C3 1_555 1_555
H12 C8 1_555 1_555
C9 C8 1_555 1_555
C10 C1 1_555 1_555
C11 H13 1_555 1_555
H14 C11 1_555 1_555
C12 C11 1_555 1_555
C13 H15 1_555 1_555
H16 C13 1_555 1_555
C14 C13 1_555 1_555
H17 C14 1_555 1_555
H18 C14 1_555 1_555
C15 C14 1_555 1_555
H19 C15 1_555 1_555
H20 C15 1_555 1_555
C16 C15 1_555 1_555
H21 C16 1_555 1_555
H22 C16 1_555 1_555
H23 C16 1_555 1_555
N1 C12 1_555 1_555
H24 N1 1_555 1_555
O1 C10 1_555 1_555
O2 C12 1_555 1_555
C17 C9 1_555 1_555
H25 C17 1_555 1_555
H26 C17 1_555 1_555
C18 C17 1_555 1_555
C19 C18 1_555 1_555
H27 C19 1_555 1_555
C20 C19 1_555 1_555
C21 C20 1_555 1_555
C22 C21 1_555 1_555
H28 C22 1_555 1_555
H29 C22 1_555 1_555
H30 C22 1_555 1_555
C23 C21 1_555 1_555
H31 C23 1_555 1_555
H32 C23 1_555 1_555
H33 C23 1_555 1_555
C24 C21 1_555 1_555
H34 C24 1_555 1_555
H35 C24 1_555 1_555
H36 C24 1_555 1_555
C25 C20 1_555 1_555
H37 C25 1_555 1_555
C26 C25 1_555 1_555
C27 C18 1_555 1_555
C28 H38 1_555 1_555
H39 C28 1_555 1_555
C29 C28 1_555 1_555
C30 H40 1_555 1_555
H41 C30 1_555 1_555
C31 C30 1_555 1_555
H42 C31 1_555 1_555
H43 C31 1_555 1_555
C32 C31 1_555 1_555
H44 C32 1_555 1_555
H45 C32 1_555 1_555
C33 C32 1_555 1_555
H46 C33 1_555 1_555
H47 C33 1_555 1_555
H48 C33 1_555 1_555
N2 C29 1_555 1_555
H49 N2 1_555 1_555
O3 C27 1_555 1_555
O4 C29 1_555 1_555
C34 C26 1_555 1_555
H50 C34 1_555 1_555
H51 C34 1_555 1_555
C35 C34 1_555 1_555
C36 C35 1_555 1_555
H52 C36 1_555 1_555
C37 C36 1_555 1_555
C38 C37 1_555 1_555
C39 C38 1_555 1_555
H53 C39 1_555 1_555
H54 C39 1_555 1_555
H55 C39 1_555 1_555
C40 C38 1_555 1_555
H56 C40 1_555 1_555
H57 C40 1_555 1_555
H58 C40 1_555 1_555
C41 C38 1_555 1_555
H59 C41 1_555 1_555
H60 C41 1_555 1_555
H61 C41 1_555 1_555
C42 C37 1_555 1_555
H62 C42 1_555 1_555
C43 C42 1_555 1_555
H63 C43 1_555 1_555
C44 C35 1_555 1_555
C45 H64 1_555 1_555
H65 C45 1_555 1_555
C46 C45 1_555 1_555
N3 C46 1_555 1_555
H66 N3 1_555 1_555
C47 N3 1_555 1_555
H67 C47 1_555 1_555
H68 C47 1_555 1_555
C48 C47 1_555 1_555
H69 C48 1_555 1_555
H70 C48 1_555 1_555
C49 C48 1_555 1_555
H71 C49 1_555 1_555
H72 C49 1_555 1_555
C50 C49 1_555 1_555
H73 C50 1_555 1_555
H74 C50 1_555 1_555
H75 C50 1_555 1_555
O5 C44 1_555 1_555
O6 C46 1_555 1_555
C9 C10 1_555 1_555
C11 O1 1_555 1_555
C13 N1 1_555 1_555
C26 C27 1_555 1_555
C28 O3 1_555 1_555
C30 N2 1_555 1_555
C43 C44 1_555 1_555
C45 O5 1_555 1_555

#END
