
#######################################################################
#
#                 Cambridge Crystallographic Data Centre
#                                CCDC 
#
#######################################################################
#
# If this CIF has been generated from an entry in the Cambridge 
# Structural Database, then it will include bibliographic, chemical, 
# crystal, experimental, refinement or atomic coordinate data resulting 
# from the CCDC's data processing and validation procedures.
#
#######################################################################

data_JENQAX
_chemical_formula_moiety         'C29 H31 N1 O6'
_chemical_name_systematic        
3,4-bis(benzyloxy)-2-[(benzyloxy)methyl]-5-hydroxy-7-oxa-1-azabicyclo[4.2.1]nonan-8-one
_symmetry_cell_setting           orthorhombic
_symmetry_space_group_name_H-M   'P 21 21 21'
_symmetry_Int_Tables_number      19
_space_group_name_Hall           'P 2ac 2ab'
loop_
_symmetry_equiv_pos_site_id
_symmetry_equiv_pos_as_xyz
1 x,y,z
2 1/2-x,-y,1/2+z
3 1/2+x,1/2-y,-z
4 -x,1/2+y,1/2-z
_cell_length_a                   6.1055(3)
_cell_length_b                   13.7134(6)
_cell_length_c                   30.6466(16)
_cell_angle_alpha                90
_cell_angle_beta                 90
_cell_angle_gamma                90
_cell_volume                     2565.95
_exptl_crystal_colour            colorless
_exptl_crystal_description       needle
_cell_formula_units_Z            4
loop_
_atom_site_label
_atom_site_type_symbol
_atom_site_fract_x
_atom_site_fract_y
_atom_site_fract_z
O1 O 0.7363(4) 0.68974(19) 0.23826(9)
H1 H 0.7482 0.6287 0.2388
O2 O 1.0723(4) 0.69184(19) 0.17699(9)
O3 O 0.9942(4) 0.86321(19) 0.13727(8)
O4 O 0.7469(6) 1.10836(19) 0.18458(10)
O5 O 1.2612(5) 0.98768(19) 0.25988(9)
O6 O 1.0972(5) 0.86203(18) 0.29341(8)
N1 N 0.8956(5) 0.9514(2) 0.24681(9)
C1 C 0.8989(7) 0.8063(3) 0.28332(12)
H2 H 0.8428 0.7725 0.3100
C2 C 0.9453(6) 0.7332(3) 0.24709(12)
H3 H 1.0458 0.6817 0.2587
C3 C 1.0440(6) 0.7747(3) 0.20454(12)
H4 H 1.1900 0.8045 0.2109
C4 C 0.9024(6) 0.8480(3) 0.17930(10)
H5 H 0.7498 0.8223 0.1764
C5 C 0.8967(7) 0.9515(3) 0.19890(11)
H6 H 1.0333 0.9855 0.1894
C6 C 0.7427(7) 0.8845(3) 0.26902(12)
H7 H 0.6302 0.8588 0.2488
H8 H 0.6700 0.9161 0.2942
C7 C 1.0981(7) 0.9391(3) 0.26603(12)
C8 C 1.2907(7) 0.6655(3) 0.17023(16)
H9 H 1.3638 0.6557 0.1987
H10 H 1.3678 0.7187 0.1547
C9 C 1.3052(6) 0.5735(3) 0.14393(12)
C10 C 1.5046(7) 0.5250(3) 0.14157(13)
H11 H 1.6295 0.5520 0.1556
C11 C 1.5236(8) 0.4383(3) 0.11925(14)
H12 H 1.6609 0.4058 0.1182
C12 C 1.3451(8) 0.3984(3) 0.09841(14)
H13 H 1.3583 0.3384 0.0832
C13 C 1.1467(8) 0.4467(3) 0.09987(15)
H14 H 1.0231 0.4204 0.0852
C14 C 1.1279(7) 0.5336(3) 0.12280(14)
H15 H 0.9904 0.5659 0.1239
C15 C 0.8774(8) 0.8171(3) 0.10207(12)
H16 H 0.7229 0.8389 0.1017
H17 H 0.8802 0.7453 0.1055
C16 C 0.9901(7) 0.8461(3) 0.06063(12)
C17 C 1.1963(8) 0.8106(4) 0.05086(15)
H18 H 1.2673 0.7682 0.0709
C18 C 1.2998(10) 0.8354(5) 0.01293(19)
H19 H 1.4429 0.8117 0.0070
C19 C 1.1959(13) 0.8946(5) -0.01653(19)
H20 H 1.2661 0.9112 -0.0432
C20 C 0.9907(13) 0.9302(4) -0.00758(18)
H21 H 0.9183 0.9707 -0.0282
C21 C 0.8888(9) 0.9071(3) 0.03145(15)
H22 H 0.7488 0.9334 0.0380
C22 C 0.7056(7) 1.0075(3) 0.18031(13)
H23 H 0.6857 0.9907 0.1491
H24 H 0.5697 0.9902 0.1961
C23 C 0.5718(9) 1.1662(3) 0.16689(14)
H25 H 0.5962 1.2354 0.1745
H26 H 0.4317 1.1455 0.1803
C24 C 0.5549(7) 1.1568(3) 0.11848(13)
C25 C 0.7221(10) 1.1862(4) 0.0921(2)
H27 H 0.8506 1.2135 0.1046
C26 C 0.7063(17) 1.1766(6) 0.0473(3)
H28 H 0.8231 1.1970 0.0289
C27 C 0.521(2) 1.1378(7) 0.0298(3)
H29 H 0.5088 1.1319 -0.0009
C28 C 0.3549(15) 1.1073(5) 0.0554(3)
H30 H 0.2276 1.0795 0.0427
C29 C 0.3703(9) 1.1167(3) 0.09988(18)
H31 H 0.2531 1.0956 0.1179
loop_
_geom_bond_atom_site_label_1
_geom_bond_atom_site_label_2
_geom_bond_site_symmetry_1
_geom_bond_site_symmetry_2
O1 H1 1_555 1_555
O2 C3 1_555 1_555
O3 C4 1_555 1_555
O4 C22 1_555 1_555
O5 C7 1_555 1_555
O6 C1 1_555 1_555
N1 C5 1_555 1_555
C1 H2 1_555 1_555
C2 O1 1_555 1_555
H3 C2 1_555 1_555
C3 C2 1_555 1_555
H4 C3 1_555 1_555
C4 C3 1_555 1_555
H5 C4 1_555 1_555
C5 C4 1_555 1_555
H6 C5 1_555 1_555
C6 N1 1_555 1_555
H7 C6 1_555 1_555
H8 C6 1_555 1_555
C7 O6 1_555 1_555
C8 O2 1_555 1_555
H9 C8 1_555 1_555
H10 C8 1_555 1_555
C9 C8 1_555 1_555
C10 C9 1_555 1_555
H11 C10 1_555 1_555
C11 C10 1_555 1_555
H12 C11 1_555 1_555
C12 C11 1_555 1_555
H13 C12 1_555 1_555
C13 C12 1_555 1_555
H14 C13 1_555 1_555
C14 C9 1_555 1_555
H15 C14 1_555 1_555
C15 O3 1_555 1_555
H16 C15 1_555 1_555
H17 C15 1_555 1_555
C16 C15 1_555 1_555
C17 C16 1_555 1_555
H18 C17 1_555 1_555
C18 C17 1_555 1_555
H19 C18 1_555 1_555
C19 C18 1_555 1_555
H20 C19 1_555 1_555
C20 C19 1_555 1_555
H21 C20 1_555 1_555
C21 C16 1_555 1_555
H22 C21 1_555 1_555
C22 C5 1_555 1_555
H23 C22 1_555 1_555
H24 C22 1_555 1_555
C23 O4 1_555 1_555
H25 C23 1_555 1_555
H26 C23 1_555 1_555
C24 C23 1_555 1_555
C25 C24 1_555 1_555
H27 C25 1_555 1_555
C26 C25 1_555 1_555
H28 C26 1_555 1_555
C27 C26 1_555 1_555
H29 C27 1_555 1_555
C28 C27 1_555 1_555
H30 C28 1_555 1_555
C29 C24 1_555 1_555
H31 C29 1_555 1_555
N1 C7 1_555 1_555
C1 C2 1_555 1_555
C1 C6 1_555 1_555
C13 C14 1_555 1_555
C20 C21 1_555 1_555
C28 C29 1_555 1_555

#END
