
#######################################################################
#
#                 Cambridge Crystallographic Data Centre
#                                CCDC 
#
#######################################################################
#
# If this CIF has been generated from an entry in the Cambridge 
# Structural Database, then it will include bibliographic, chemical, 
# crystal, experimental, refinement or atomic coordinate data resulting 
# from the CCDC's data processing and validation procedures.
#
#######################################################################

data_JENTUR10
_chemical_formula_moiety         'C19 H25 N1 O5'
_chemical_name_systematic        
tetrakis(6-(N-Benzyl-N-t-butoxycarbonylamino)-2,3,6,7-tetradeoxy-\a-DL-erythro-hept-2-enopyranos-4-ulose)
_symmetry_cell_setting           monoclinic
_symmetry_space_group_name_H-M   'P 21/c'
_symmetry_Int_Tables_number      14
_space_group_name_Hall           '-P 2ybc'
loop_
_symmetry_equiv_pos_site_id
_symmetry_equiv_pos_as_xyz
1 x,y,z
2 -x,1/2+y,1/2-z
3 -x,-y,-z
4 x,1/2-y,1/2+z
_cell_length_a                   9.490(2)
_cell_length_b                   21.516(3)
_cell_length_c                   10.279(2)
_cell_angle_alpha                90
_cell_angle_beta                 115.31(1)
_cell_angle_gamma                90
_cell_volume                     1897.36
_exptl_crystal_colour            colorless
_chemical_melting_point          120-123deg.C
_cell_formula_units_Z            4
loop_
_atom_site_label
_atom_site_type_symbol
_atom_site_fract_x
_atom_site_fract_y
_atom_site_fract_z
C1 C 0.5733(5) 0.5593(2) -0.3257(4)
C2 C 0.5260(5) 0.6053(2) -0.4473(4)
C3 C 0.4987(5) 0.6632(2) -0.4342(4)
C4 C 0.5024(4) 0.6868(2) -0.2996(4)
C5 C 0.5154(4) 0.6384(2) -0.1880(4)
C6 C 0.5659(3) 0.6614(1) -0.0377(3)
C7 C 0.7248(4) 0.6909(2) 0.0275(4)
O1 O 0.4519(4) 0.5225(1) -0.3527(3)
O2 O 0.4751(4) 0.7415(2) -0.2794(4)
O3 O 0.6272(3) 0.5913(1) -0.1902(2)
C9 C 0.6718(4) 0.5664(1) 0.1195(3)
C10 C 0.7987(3) 0.5838(1) 0.2657(3)
C11 C 0.7759(4) 0.6241(2) 0.3584(4)
C12 C 0.8940(4) 0.6371(2) 0.4924(4)
C13 C 1.0381(4) 0.6112(2) 0.5339(4)
C14 C 1.0634(4) 0.5718(2) 0.4434(5)
C15 C 0.9443(4) 0.5577(2) 0.3078(4)
C16 C 0.4168(3) 0.6059(1) 0.0727(3)
C17 C 0.1556(3) 0.6494(2) 0.0036(3)
C18 C 0.1810(4) 0.6638(2) 0.1561(4)
C19 C 0.0813(4) 0.7040(2) -0.0932(4)
C20 C 0.0646(4) 0.5909(2) -0.0545(4)
N1 N 0.5490(2) 0.6127(1) 0.0544(2)
O7 O 0.3064(2) 0.6452(1) -0.0079(2)
O8 O 0.4027(2) 0.5678(1) 0.1543(2)
H1 H 0.669(1) 0.525(1) -0.254(1)
H3 H 0.474(1) 0.483(1) -0.291(1)
H5 H 0.513(1) 0.588(1) -0.545(1)
H6 H 0.474(1) 0.696(1) -0.520(1)
H7 H 0.416(1) 0.607(1) -0.230(1)
H9 H 0.493(1) 0.695(1) -0.040(1)
H10 H 0.727(1) 0.725(1) -0.032(1)
H11 H 0.810(1) 0.659(1) 0.037(1)
H12 H 0.745(1) 0.710(1) 0.121(1)
H13 H 0.716(1) 0.554(1) 0.048(1)
H14 H 0.625(1) 0.530(1) 0.127(1)
H15 H 0.667(1) 0.644(1) 0.322(1)
H16 H 0.877(1) 0.670(1) 0.561(1)
H17 H 1.132(1) 0.620(1) 0.637(1)
H18 H 1.167(1) 0.551(1) 0.475(1)
H19 H 0.966(1) 0.526(1) 0.236(1)
H20 H 0.082(1) 0.667(1) 0.170(1)
H21 H 0.244(1) 0.627(1) 0.225(1)
H22 H 0.245(1) 0.698(1) 0.190(1)
H23 H -0.015(1) 0.710(1) -0.100(1)
H24 H 0.069(1) 0.695(1) -0.187(1)
H25 H 0.146(1) 0.743(1) -0.055(1)
H26 H -0.033(1) 0.595(1) -0.055(1)
H27 H 0.121(1) 0.551(1) 0.012(1)
H28 H 0.045(1) 0.583(1) -0.161(1)
O4? O 0.6694(9) 0.5204(5) -0.3100(9)
O5? O 0.5316(10) 0.7404(8) -0.2756(11)
O6? O 0.5030(12) 0.5901(8) -0.2184(11)
C8? C 0.5736(13) 0.6280(10) -0.1803(13)
H2? H 0.499(2) 0.556(2) -0.339(2)
H4? H 0.741(2) 0.498(2) -0.289(2)
H8? H 0.670(1) 0.617(1) -0.161(1)
loop_
_geom_bond_atom_site_label_1
_geom_bond_atom_site_label_2
_geom_bond_site_symmetry_1
_geom_bond_site_symmetry_2
C1 C2 1_555 1_555
C2 C3 1_555 1_555
C3 C4 1_555 1_555
C4 C5 1_555 1_555
C5 C6 1_555 1_555
C6 C7 1_555 1_555
C7 H10 1_555 1_555
O1 C1 1_555 1_555
O2 C4 1_555 1_555
O3 C1 1_555 1_555
C9 C10 1_555 1_555
C10 C11 1_555 1_555
C11 C12 1_555 1_555
C12 C13 1_555 1_555
C13 C14 1_555 1_555
C14 C15 1_555 1_555
C15 C10 1_555 1_555
C16 N1 1_555 1_555
C17 C18 1_555 1_555
C18 H20 1_555 1_555
C19 C17 1_555 1_555
C20 C17 1_555 1_555
N1 C6 1_555 1_555
O7 C16 1_555 1_555
O8 C16 1_555 1_555
H1 C1 1_555 1_555
H3 O1 1_555 1_555
H5 C2 1_555 1_555
H6 C3 1_555 1_555
H7 C5 1_555 1_555
H9 C6 1_555 1_555
H11 C7 1_555 1_555
H12 C7 1_555 1_555
H13 C9 1_555 1_555
H14 C9 1_555 1_555
H15 C11 1_555 1_555
H16 C12 1_555 1_555
H17 C13 1_555 1_555
H18 C14 1_555 1_555
H19 C15 1_555 1_555
H21 C18 1_555 1_555
H22 C18 1_555 1_555
H23 C19 1_555 1_555
H24 C19 1_555 1_555
H25 C19 1_555 1_555
H26 C20 1_555 1_555
H27 C20 1_555 1_555
H28 C20 1_555 1_555
C5 O3 1_555 1_555
C9 N1 1_555 1_555
C17 O7 1_555 1_555

#END
