
#######################################################################
#
#                 Cambridge Crystallographic Data Centre
#                                CCDC 
#
#######################################################################
#
# If this CIF has been generated from an entry in the Cambridge 
# Structural Database, then it will include bibliographic, chemical, 
# crystal, experimental, refinement or atomic coordinate data resulting 
# from the CCDC's data processing and validation procedures.
#
#######################################################################

data_JEQMOK
_chemical_formula_moiety         '2(H6 B1 N1),2(H4 B1 1-),Mg1 2+'
_chemical_name_systematic        
'magnesium bis(tetrahydridoborate) bis(ammonioborate)'
_symmetry_cell_setting           orthorhombic
_symmetry_space_group_name_H-M   'P 21 21 21'
_symmetry_Int_Tables_number      19
_space_group_name_Hall           'P 2ac 2ab'
loop_
_symmetry_equiv_pos_site_id
_symmetry_equiv_pos_as_xyz
1 x,y,z
2 -x,1/2+y,1/2-z
3 1/2-x,-y,1/2+z
4 1/2+x,1/2-y,-z
_cell_length_a                   14.4135(2)
_cell_length_b                   13.2084(2)
_cell_length_c                   5.1118(1)
_cell_angle_alpha                90
_cell_angle_beta                 90
_cell_angle_gamma                90
_cell_volume                     973.181
_exptl_crystal_colour            white
_cell_formula_units_Z            4
loop_
_atom_site_label
_atom_site_type_symbol
_atom_site_fract_x
_atom_site_fract_y
_atom_site_fract_z
B1 B 0.511781 0.858052 0.279731
H1 H 0.524820 0.856758 0.049883
H2 H 0.446286 0.805959 0.324140
H3 H 0.580715 0.828961 0.383475
H4 H 0.495962 0.942267 0.349395
B2 B 0.000130 0.888284 0.221330
H5 H 0.007380 0.859111 -0.005557
H6 H 0.003102 0.817466 0.375050
H7 H -0.071805 0.934754 0.254418
N1 N 0.084587 0.962125 0.282223
H8 H 0.093770 1.015703 0.137771
H9 H 0.074069 1.002533 0.452124
H10 H 0.147028 0.924141 0.303095
B3 B 0.709527 0.874631 0.841878
H11 H 0.710330 0.856242 1.077070
H12 H 0.673158 0.956382 0.796627
H13 H 0.668821 0.808966 0.720673
N2 N 0.813966 0.878506 0.741871
H14 H 0.852259 0.817426 0.806178
H15 H 0.817746 0.876215 0.540629
H16 H 0.848586 0.943264 0.801361
Mg1 Mg 0.6224(8) 0.7337(6) 1.0403(3)
B4 B 0.766751 0.644063 1.208424
H17 H 0.843295 0.674255 1.169349
H18 H 0.729588 0.634179 1.002121
H19 H 0.772922 0.566806 1.326915
H20 H 0.724918 0.703951 1.336230
loop_
_geom_bond_atom_site_label_1
_geom_bond_atom_site_label_2
_geom_bond_site_symmetry_1
_geom_bond_site_symmetry_2
B1 H1 1_555 1_555
H2 B1 1_555 1_555
H3 B1 1_555 1_555
H4 B1 1_555 1_555
B2 H5 1_555 1_555
H6 B2 1_555 1_555
H7 B2 1_555 1_555
N1 B2 1_555 1_555
H8 N1 1_555 1_555
H9 N1 1_555 1_555
H10 N1 1_555 1_555
B3 H11 1_555 1_555
H12 B3 1_555 1_555
H13 B3 1_555 1_555
N2 B3 1_555 1_555
H14 N2 1_555 1_555
H15 N2 1_555 1_555
H16 N2 1_555 1_555
B4 H17 1_555 1_555
H18 B4 1_555 1_555
H19 B4 1_555 1_555
H20 B4 1_555 1_555

#END
