
#######################################################################
#
#                 Cambridge Crystallographic Data Centre
#                                CCDC 
#
#######################################################################
#
# If this CIF has been generated from an entry in the Cambridge 
# Structural Database, then it will include bibliographic, chemical, 
# crystal, experimental, refinement or atomic coordinate data resulting 
# from the CCDC's data processing and validation procedures.
#
#######################################################################

data_JEQVUX01
_chemical_formula_moiety         'C16 H12 Cl2 O1'
_chemical_name_systematic        
4-(3,4-Dichlorophenyl)-3,4-dihydronaphthalen-1(2H)-one
_symmetry_cell_setting           monoclinic
_symmetry_space_group_name_H-M   'P 21/n'
_symmetry_Int_Tables_number      14
_space_group_name_Hall           '-P 2yn'
loop_
_symmetry_equiv_pos_site_id
_symmetry_equiv_pos_as_xyz
1 x,y,z
2 1/2-x,1/2+y,1/2-z
3 -x,-y,-z
4 1/2+x,1/2-y,1/2+z
_cell_length_a                   10.7705(14)
_cell_length_b                   10.7317(14)
_cell_length_c                   12.3765(16)
_cell_angle_alpha                90
_cell_angle_beta                 111.359(6)
_cell_angle_gamma                90
_cell_volume                     1332.29
_exptl_crystal_colour            colorless
_exptl_crystal_description       prism
_cell_formula_units_Z            4
_exptl_crystal_recrystallization_method 'absolute methanol/acetone'
loop_
_atom_site_label
_atom_site_type_symbol
_atom_site_fract_x
_atom_site_fract_y
_atom_site_fract_z
Cl1 Cl 0.43486(4) 0.71805(3) 0.50411(3)
Cl2 Cl 0.22276(4) 0.54210(3) 0.54838(3)
O1 O 0.47445(10) 0.26530(10) -0.12559(9)
C1 C 0.45158(13) 0.30731(13) -0.04246(12)
C2 C 0.53907(14) 0.27547(13) 0.08047(11)
H1 H 0.6217 0.3257 0.1024
H2 H 0.5647 0.1866 0.0838
C3 C 0.47278(14) 0.29863(13) 0.16876(12)
H3 H 0.5383 0.2851 0.2482
H4 H 0.3985 0.2391 0.1555
C4 C 0.41922(14) 0.43295(13) 0.15738(11)
H5 H 0.4967 0.4897 0.1693
C5 C 0.32019(13) 0.45560(12) 0.03435(11)
C6 C 0.33808(13) 0.39489(12) -0.05995(11)
C7 C 0.24896(14) 0.41618(13) -0.17352(12)
H6 H 0.2617 0.3743 -0.2363
C8 C 0.14277(15) 0.49738(15) -0.19542(13)
H7 H 0.0826 0.5114 -0.2725
C9 C 0.12560(15) 0.55839(15) -0.10222(13)
H8 H 0.0531 0.6144 -0.1162
C10 C 0.21314(15) 0.53833(14) 0.01059(13)
H9 H 0.2002 0.5815 0.0727
C11 C 0.36440(14) 0.46337(13) 0.25172(11)
C12 C 0.41425(13) 0.56497(13) 0.32404(11)
H10 H 0.4787 0.6176 0.3116
C13 C 0.37027(14) 0.59043(13) 0.41504(11)
C14 C 0.27583(14) 0.51357(13) 0.43366(12)
C15 C 0.22341(14) 0.41266(14) 0.36055(12)
H11 H 0.1581 0.3607 0.3724
C16 C 0.26752(14) 0.38851(14) 0.26993(12)
H12 H 0.2312 0.3201 0.2196
loop_
_geom_bond_atom_site_label_1
_geom_bond_atom_site_label_2
_geom_bond_site_symmetry_1
_geom_bond_site_symmetry_2
Cl1 C13 1_555 1_555
Cl2 C14 1_555 1_555
O1 C1 1_555 1_555
C1 C2 1_555 1_555
C2 H1 1_555 1_555
H2 C2 1_555 1_555
C3 C2 1_555 1_555
H3 C3 1_555 1_555
H4 C3 1_555 1_555
C4 C3 1_555 1_555
H5 C4 1_555 1_555
C5 C4 1_555 1_555
C6 C1 1_555 1_555
C7 C6 1_555 1_555
H6 C7 1_555 1_555
C8 C7 1_555 1_555
H7 C8 1_555 1_555
C9 C8 1_555 1_555
H8 C9 1_555 1_555
C10 C5 1_555 1_555
H9 C10 1_555 1_555
C11 C4 1_555 1_555
C12 C11 1_555 1_555
H10 C12 1_555 1_555
C13 C12 1_555 1_555
C14 C13 1_555 1_555
C15 C14 1_555 1_555
H11 C15 1_555 1_555
C16 C11 1_555 1_555
H12 C16 1_555 1_555
C5 C6 1_555 1_555
C9 C10 1_555 1_555
C15 C16 1_555 1_555

#END
