
#######################################################################
#
#                 Cambridge Crystallographic Data Centre
#                                CCDC 
#
#######################################################################
#
# If this CIF has been generated from an entry in the Cambridge 
# Structural Database, then it will include bibliographic, chemical, 
# crystal, experimental, refinement or atomic coordinate data resulting 
# from the CCDC's data processing and validation procedures.
#
#######################################################################

data_JERKIB
_chemical_formula_moiety         'C12 H14 N2 O4 S3'
_chemical_name_systematic        2,5-Di(3-pentanedionylthio)-1,3,4-thiadiazole
_symmetry_cell_setting           monoclinic
_symmetry_space_group_name_H-M   'P 21/n'
_symmetry_Int_Tables_number      14
_space_group_name_Hall           '-P 2yn'
loop_
_symmetry_equiv_pos_site_id
_symmetry_equiv_pos_as_xyz
1 x,y,z
2 1/2-x,1/2+y,1/2-z
3 -x,-y,-z
4 1/2+x,1/2-y,1/2+z
_cell_length_a                   12.9134(2)
_cell_length_b                   8.7061(3)
_cell_length_c                   13.7625(5)
_cell_angle_alpha                90
_cell_angle_beta                 95.259(2)
_cell_angle_gamma                90
_cell_volume                     1540.74
_exptl_crystal_colour            colorless
_exptl_crystal_description       block
_cell_formula_units_Z            4
loop_
_atom_site_label
_atom_site_type_symbol
_atom_site_fract_x
_atom_site_fract_y
_atom_site_fract_z
S1 S 0.53011(7) 0.31731(13) 0.28400(7)
S2 S 0.37086(7) 0.28077(13) 0.43402(7)
S3 S 0.34864(8) 0.27272(14) 0.65413(7)
O1 O 0.2855(3) 0.1154(4) 0.1455(2)
H1 H 0.255(4) 0.242(7) 0.126(4)
O2 O 0.2641(2) 0.3950(4) 0.1281(2)
O3 O 0.1001(2) 0.0384(4) 0.5533(2)
H2 H 0.064(3) 0.152(6) 0.538(3)
O4 O 0.0607(2) 0.3128(4) 0.5349(2)
N1 N 0.5665(2) 0.3165(4) 0.4779(2)
N2 N 0.5229(2) 0.3043(4) 0.5665(2)
C1 C 0.4309(4) -0.0037(6) 0.2284(4)
H3 H 0.4022 -0.0441 0.2851
H4 H 0.5030 0.0202 0.2442
H5 H 0.4242 -0.0786 0.1771
C2 C 0.3739(3) 0.1377(5) 0.1958(3)
C3 C 0.4082(3) 0.2872(5) 0.2168(3)
C4 C 0.3507(3) 0.4157(5) 0.1783(3)
C5 C 0.3884(4) 0.5757(5) 0.1930(3)
H6 H 0.3394 0.6452 0.1598
H7 H 0.4546 0.5865 0.1672
H8 H 0.3956 0.5991 0.2615
C6 C 0.4972(3) 0.3062(4) 0.4040(3)
C7 C 0.4233(3) 0.2847(4) 0.5539(3)
C8 C 0.2620(4) -0.0597(5) 0.6146(3)
H9 H 0.2229 -0.1532 0.6058
H10 H 0.2893 -0.0507 0.6816
H11 H 0.3183 -0.0610 0.5737
C9 C 0.1934(3) 0.0727(5) 0.5880(3)
C10 C 0.2246(3) 0.2271(5) 0.5982(3)
C11 C 0.1524(3) 0.3464(5) 0.5708(3)
C12 C 0.1790(4) 0.5127(5) 0.5821(4)
H12 H 0.1193 0.5736 0.5606
H13 H 0.2351 0.5368 0.5435
H14 H 0.1997 0.5345 0.6494
loop_
_geom_bond_atom_site_label_1
_geom_bond_atom_site_label_2
_geom_bond_site_symmetry_1
_geom_bond_site_symmetry_2
S1 C3 1_555 1_555
S2 C6 1_555 1_555
S3 C7 1_555 1_555
O1 H1 1_555 1_555
O2 C4 1_555 1_555
O3 H2 1_555 1_555
O4 C11 1_555 1_555
N1 N2 1_555 1_555
N2 C7 1_555 1_555
C1 H3 1_555 1_555
H4 C1 1_555 1_555
H5 C1 1_555 1_555
C2 O1 1_555 1_555
C3 C2 1_555 1_555
C4 C3 1_555 1_555
C5 C4 1_555 1_555
H6 C5 1_555 1_555
H7 C5 1_555 1_555
H8 C5 1_555 1_555
C6 S1 1_555 1_555
C7 S2 1_555 1_555
C8 H9 1_555 1_555
H10 C8 1_555 1_555
H11 C8 1_555 1_555
C9 O3 1_555 1_555
C10 S3 1_555 1_555
C11 C10 1_555 1_555
C12 C11 1_555 1_555
H12 C12 1_555 1_555
H13 C12 1_555 1_555
H14 C12 1_555 1_555
N1 C6 1_555 1_555
C1 C2 1_555 1_555
C8 C9 1_555 1_555
C9 C10 1_555 1_555

#END
