
#######################################################################
#
#                 Cambridge Crystallographic Data Centre
#                                CCDC 
#
#######################################################################
#
# If this CIF has been generated from an entry in the Cambridge 
# Structural Database, then it will include bibliographic, chemical, 
# crystal, experimental, refinement or atomic coordinate data resulting 
# from the CCDC's data processing and validation procedures.
#
#######################################################################

data_JERSUV
_chemical_formula_moiety         'C29 H20 O7'
_chemical_name_systematic        1-(2,4,6-tris(Benzoyloxy)phenyl)ethanone
_symmetry_cell_setting           monoclinic
_symmetry_space_group_name_H-M   'P 21/c'
_symmetry_Int_Tables_number      14
_space_group_name_Hall           '-P 2ybc'
loop_
_symmetry_equiv_pos_site_id
_symmetry_equiv_pos_as_xyz
1 x,y,z
2 -x,1/2+y,1/2-z
3 -x,-y,-z
4 x,1/2-y,1/2+z
_cell_length_a                   9.583(4)
_cell_length_b                   25.297(12)
_cell_length_c                   19.975(9)
_cell_angle_alpha                90
_cell_angle_beta                 96.732(8)
_cell_angle_gamma                90
_cell_volume                     4808.98
_exptl_crystal_colour            colorless
_exptl_crystal_description       prism
_cell_formula_units_Z            8
_exptl_crystal_recrystallization_method ethanol
loop_
_atom_site_label
_atom_site_type_symbol
_atom_site_fract_x
_atom_site_fract_y
_atom_site_fract_z
O1 O -0.1449(4) 0.07956(14) 0.46507(19)
O2 O 0.1665(4) 0.10335(12) 0.38466(15)
O3 O 0.3723(4) 0.14387(14) 0.41143(19)
O4 O 0.0810(3) 0.28179(12) 0.32536(15)
O5 O -0.1297(4) 0.31959(16) 0.30547(19)
O6 O -0.1951(3) 0.19733(12) 0.47864(16)
O7 O -0.0597(4) 0.17649(15) 0.57465(18)
C1 C -0.0047(5) 0.14925(19) 0.4359(2)
C2 C 0.0943(5) 0.1508(2) 0.3922(2)
C3 C 0.1169(5) 0.1940(2) 0.3534(2)
H1 H 0.1828 0.1930 0.3228
C4 C 0.0395(5) 0.23886(19) 0.3610(2)
C5 C -0.0601(5) 0.24031(19) 0.4045(2)
H2 H -0.1120 0.2708 0.4098
C6 C -0.0811(5) 0.1952(2) 0.4403(2)
C7 C -0.0325(6) 0.0997(2) 0.4746(3)
C8 C 0.0823(6) 0.07761(19) 0.5230(3)
H3 H 0.0491 0.0467 0.5441
H4 H 0.1117 0.1036 0.5568
H5 H 0.1604 0.0682 0.4993
C9 C 0.3079(6) 0.1036(2) 0.3993(2)
C10 C 0.3700(6) 0.05088(19) 0.3991(2)
C11 C 0.2899(6) 0.0064(2) 0.3880(3)
H6 H 0.1927 0.0091 0.3797
C12 C 0.3530(9) -0.0422(2) 0.3890(3)
H7 H 0.2984 -0.0724 0.3808
C13 C 0.4958(9) -0.0466(3) 0.4020(3)
H8 H 0.5381 -0.0797 0.4021
C14 C 0.5760(7) -0.0027(3) 0.4148(3)
H9 H 0.6729 -0.0055 0.4250
C15 C 0.5119(6) 0.0459(2) 0.4124(2)
H10 H 0.5667 0.0761 0.4201
C16 C -0.0070(6) 0.3213(2) 0.3026(2)
C17 C 0.0681(6) 0.36530(19) 0.2736(2)
C18 C 0.2080(6) 0.36240(19) 0.2658(2)
H11 H 0.2589 0.3322 0.2794
C19 C 0.2733(6) 0.4039(2) 0.2382(2)
H12 H 0.3680 0.4015 0.2325
C20 C 0.1996(8) 0.4484(2) 0.2191(3)
H13 H 0.2442 0.4765 0.2003
C21 C 0.0626(8) 0.4521(2) 0.2273(3)
H14 H 0.0137 0.4829 0.2144
C22 C -0.0075(6) 0.4104(2) 0.2547(3)
H15 H -0.1023 0.4129 0.2601
C23 C -0.1719(7) 0.18679(19) 0.5461(3)
C24 C -0.3063(7) 0.18888(17) 0.5766(3)
C25 C -0.4324(7) 0.19329(19) 0.5386(3)
H16 H -0.4372 0.1941 0.4918
C26 C -0.5550(6) 0.1965(2) 0.5696(3)
H17 H -0.6421 0.1992 0.5438
C27 C -0.5453(9) 0.1958(2) 0.6383(4)
H18 H -0.6262 0.1993 0.6595
C28 C -0.4218(10) 0.1900(2) 0.6753(3)
H19 H -0.4182 0.1877 0.7219
C29 C -0.2978(7) 0.18730(19) 0.6456(3)
H20 H -0.2113 0.1845 0.6718
O8 O 0.3970(5) 0.42827(16) 0.5301(2)
O9 O 0.2804(5) 0.31800(14) 0.4991(2)
O10 O 0.1106(4) 0.36432(18) 0.4430(2)
O11 O 0.5654(3) 0.23633(12) 0.35216(16)
O12 O 0.3824(4) 0.23402(13) 0.27282(16)
O13 O 0.5808(5) 0.42429(17) 0.3719(3)
O14 O 0.7408(6) 0.4209(2) 0.4555(3)
C30 C 0.4268(5) 0.3743(2) 0.4381(2)
C31 C 0.3707(5) 0.3252(2) 0.4497(2)
C32 C 0.4098(5) 0.27997(19) 0.4201(2)
H21 H 0.3669 0.2479 0.4277
C33 C 0.5144(5) 0.2828(2) 0.3787(2)
C34 C 0.5771(5) 0.3295(2) 0.3670(2)
H22 H 0.6507 0.3312 0.3406
C35 C 0.5284(5) 0.3735(2) 0.3952(3)
C36 C 0.3830(6) 0.4245(2) 0.4696(3)
C37 C 0.3178(7) 0.4666(2) 0.4269(3)
H23 H 0.2953 0.4957 0.4545
H24 H 0.2335 0.4536 0.4016
H25 H 0.3819 0.4782 0.3964
C38 C 0.1588(8) 0.3373(3) 0.4918(3)
C39 C 0.0704(8) 0.3237(2) 0.5479(3)
C40 C 0.1302(7) 0.2997(2) 0.6049(4)
H26 H 0.2252 0.2911 0.6092
C41 C 0.0528(10) 0.2881(3) 0.6557(3)
H27 H 0.0950 0.2715 0.6944
C42 C -0.0834(12) 0.3005(3) 0.6505(5)
H28 H -0.1350 0.2930 0.6860
C43 C -0.1480(8) 0.3241(3) 0.5930(5)
H29 H -0.2434 0.3320 0.5889
C44 C -0.0671(9) 0.3361(2) 0.5406(3)
H30 H -0.1081 0.3525 0.5014
C45 C 0.4909(6) 0.21516(19) 0.2967(3)
C46 C 0.5625(5) 0.16979(18) 0.2708(3)
C47 C 0.6757(6) 0.1464(2) 0.3056(3)
H31 H 0.7113 0.1596 0.3476
C48 C 0.7388(6) 0.1033(2) 0.2793(3)
H32 H 0.8155 0.0872 0.3039
C49 C 0.6887(7) 0.0846(2) 0.2176(3)
H33 H 0.7316 0.0558 0.1996
C50 C 0.5765(7) 0.1079(3) 0.1821(3)
H34 H 0.5431 0.0956 0.1394
C51 C 0.5117(5) 0.1500(2) 0.2094(3)
H35 H 0.4324 0.1651 0.1856
C52 C 0.6805(10) 0.4347(4) 0.4026(3)
C53 C 0.7654(10) 0.4838(2) 0.3715(5)
C54 C 0.7044(7) 0.5084(3) 0.3191(5)
H36 H 0.6162 0.4976 0.2995
C55 C 0.7694(12) 0.5495(4) 0.2930(4)
H37 H 0.7259 0.5666 0.2549
C56 C 0.8956(14) 0.5664(3) 0.3210(7)
H38 H 0.9408 0.5944 0.3024
C57 C 0.9564(9) 0.5409(4) 0.3783(7)
H39 H 1.0418 0.5526 0.4001
C58 C 0.8903(11) 0.4981(4) 0.4029(4)
H40 H 0.9314 0.4797 0.4404
loop_
_geom_bond_atom_site_label_1
_geom_bond_atom_site_label_2
_geom_bond_site_symmetry_1
_geom_bond_site_symmetry_2
O1 C7 1_555 1_555
O2 C2 1_555 1_555
O3 C9 1_555 1_555
O4 C4 1_555 1_555
O5 C16 1_555 1_555
O6 C6 1_555 1_555
O7 C23 1_555 1_555
C1 C2 1_555 1_555
C2 C3 1_555 1_555
C3 H1 1_555 1_555
C4 C3 1_555 1_555
C5 C4 1_555 1_555
H2 C5 1_555 1_555
C6 C1 1_555 1_555
C7 C1 1_555 1_555
C8 C7 1_555 1_555
H3 C8 1_555 1_555
H4 C8 1_555 1_555
H5 C8 1_555 1_555
C9 O2 1_555 1_555
C10 C9 1_555 1_555
C11 C10 1_555 1_555
H6 C11 1_555 1_555
C12 C11 1_555 1_555
H7 C12 1_555 1_555
C13 C12 1_555 1_555
H8 C13 1_555 1_555
C14 C13 1_555 1_555
H9 C14 1_555 1_555
C15 C10 1_555 1_555
H10 C15 1_555 1_555
C16 O4 1_555 1_555
C17 C16 1_555 1_555
C18 C17 1_555 1_555
H11 C18 1_555 1_555
C19 C18 1_555 1_555
H12 C19 1_555 1_555
C20 C19 1_555 1_555
H13 C20 1_555 1_555
C21 C20 1_555 1_555
H14 C21 1_555 1_555
C22 C17 1_555 1_555
H15 C22 1_555 1_555
C23 O6 1_555 1_555
C24 C23 1_555 1_555
C25 C24 1_555 1_555
H16 C25 1_555 1_555
C26 C25 1_555 1_555
H17 C26 1_555 1_555
C27 C26 1_555 1_555
H18 C27 1_555 1_555
C28 C27 1_555 1_555
H19 C28 1_555 1_555
C29 C24 1_555 1_555
H20 C29 1_555 1_555
O8 C36 1_555 1_555
O9 C31 1_555 1_555
O10 C38 1_555 1_555
O11 C33 1_555 1_555
O12 C45 1_555 1_555
O13 C35 1_555 1_555
O14 C52 1_555 1_555
C30 C31 1_555 1_555
C31 C32 1_555 1_555
C32 H21 1_555 1_555
C33 C32 1_555 1_555
C34 C33 1_555 1_555
H22 C34 1_555 1_555
C35 C30 1_555 1_555
C36 C30 1_555 1_555
C37 C36 1_555 1_555
H23 C37 1_555 1_555
H24 C37 1_555 1_555
H25 C37 1_555 1_555
C38 O9 1_555 1_555
C39 C38 1_555 1_555
C40 C39 1_555 1_555
H26 C40 1_555 1_555
C41 C40 1_555 1_555
H27 C41 1_555 1_555
C42 C41 1_555 1_555
H28 C42 1_555 1_555
C43 C42 1_555 1_555
H29 C43 1_555 1_555
C44 C39 1_555 1_555
H30 C44 1_555 1_555
C45 O11 1_555 1_555
C46 C45 1_555 1_555
C47 C46 1_555 1_555
H31 C47 1_555 1_555
C48 C47 1_555 1_555
H32 C48 1_555 1_555
C49 C48 1_555 1_555
H33 C49 1_555 1_555
C50 C49 1_555 1_555
H34 C50 1_555 1_555
C51 C46 1_555 1_555
H35 C51 1_555 1_555
C52 O13 1_555 1_555
C53 C52 1_555 1_555
C54 C53 1_555 1_555
H36 C54 1_555 1_555
C55 C54 1_555 1_555
H37 C55 1_555 1_555
C56 C55 1_555 1_555
H38 C56 1_555 1_555
C57 C56 1_555 1_555
H39 C57 1_555 1_555
C58 C53 1_555 1_555
H40 C58 1_555 1_555
C5 C6 1_555 1_555
C14 C15 1_555 1_555
C21 C22 1_555 1_555
C28 C29 1_555 1_555
C34 C35 1_555 1_555
C43 C44 1_555 1_555
C50 C51 1_555 1_555
C57 C58 1_555 1_555

#END
