
#######################################################################
#
#                 Cambridge Crystallographic Data Centre
#                                CCDC 
#
#######################################################################
#
# If this CIF has been generated from an entry in the Cambridge 
# Structural Database, then it will include bibliographic, chemical, 
# crystal, experimental, refinement or atomic coordinate data resulting 
# from the CCDC's data processing and validation procedures.
#
#######################################################################

data_JERWEJ
_chemical_formula_moiety         'C17 H16 N8 S2'
_chemical_name_systematic        1,3-bis(1-Phenyl-1H-tetrazol-5-ylthio)propane
_symmetry_cell_setting           monoclinic
_symmetry_space_group_name_H-M   'P 21/n'
_symmetry_Int_Tables_number      14
_space_group_name_Hall           '-P 2yn'
loop_
_symmetry_equiv_pos_site_id
_symmetry_equiv_pos_as_xyz
1 x,y,z
2 1/2-x,1/2+y,1/2-z
3 -x,-y,-z
4 1/2+x,1/2-y,1/2+z
_cell_length_a                   16.716(5)
_cell_length_b                   6.4919(19)
_cell_length_c                   18.640(6)
_cell_angle_alpha                90
_cell_angle_beta                 112.126(5)
_cell_angle_gamma                90
_cell_volume                     1873.82
_exptl_crystal_colour            colorless
_exptl_crystal_description       platelet
_chemical_melting_point          '82-83 deg.C'
_cell_formula_units_Z            4
_exptl_crystal_recrystallization_method ethanol
loop_
_atom_site_label
_atom_site_type_symbol
_atom_site_fract_x
_atom_site_fract_y
_atom_site_fract_z
N1 N 0.04582(18) 0.7693(5) 1.08313(16)
N2 N -0.0412(2) 0.7573(5) 1.05584(18)
N3 N -0.06656(19) 0.7356(5) 0.98173(19)
N4 N 0.00204(19) 0.7348(5) 0.95859(16)
N5 N 0.1068(2) 1.1641(5) 0.65259(17)
N6 N 0.1408(2) 1.0614(6) 0.60686(19)
N7 N 0.1950(2) 0.9305(7) 0.6514(2)
N8 N 0.1975(2) 0.9394(6) 0.72557(18)
S1 S 0.17870(6) 0.76499(18) 1.03344(5)
S2 S 0.11121(7) 1.16743(18) 0.79837(6)
C1 C 0.1734(2) 0.6566(6) 0.9420(2)
H1 H 0.2317 0.6248 0.9463
H2 H 0.1419 0.5277 0.9338
C2 C 0.1316(2) 0.7910(6) 0.8713(2)
H3 H 0.1318 0.7172 0.8261
H4 H 0.0718 0.8142 0.8644
C3 C 0.1745(2) 0.9962(6) 0.8749(2)
H5 H 0.2304 0.9751 0.8714
H6 H 0.1841 1.0602 0.9245
C4 C 0.0715(2) 0.7546(6) 1.0230(2)
C5 C 0.0958(2) 0.7835(7) 1.1650(2)
C6 C 0.0978(3) 0.6185(7) 1.2110(2)
H7 H 0.0685 0.4978 1.1898
C7 C 0.1445(3) 0.6343(9) 1.2899(3)
H8 H 0.1464 0.5239 1.3223
C8 C 0.1878(3) 0.8116(10) 1.3202(3)
H9 H 0.2196 0.8211 1.3731
C9 C 0.1846(3) 0.9753(8) 1.2732(3)
H10 H 0.2137 1.0962 1.2946
C10 C 0.1383(3) 0.9630(7) 1.1939(2)
H11 H 0.1364 1.0735 1.1616
C11 C 0.1416(2) 1.0858(6) 0.7241(2)
C12 C 0.0428(3) 1.3204(8) 0.6224(2)
C13 C 0.0559(3) 1.5104(8) 0.6565(2)
H12 H 0.1065 1.5385 0.6986
C14 C -0.0062(3) 1.6592(8) 0.6280(3)
H13 H 0.0012 1.7879 0.6516
C15 C -0.0799(3) 1.6169(10) 0.5642(3)
H14 H -0.1214 1.7188 0.5443
C16 C -0.0925(3) 1.4282(11) 0.5302(3)
H15 H -0.1426 1.4019 0.4873
C17 C -0.0311(3) 1.2749(8) 0.5592(2)
H16 H -0.0394 1.1448 0.5367
loop_
_geom_bond_atom_site_label_1
_geom_bond_atom_site_label_2
_geom_bond_site_symmetry_1
_geom_bond_site_symmetry_2
N1 N2 1_555 1_555
N2 N3 1_555 1_555
N3 N4 1_555 1_555
N4 C4 1_555 1_555
N5 N6 1_555 1_555
N6 N7 1_555 1_555
N7 N8 1_555 1_555
N8 C11 1_555 1_555
S1 C1 1_555 1_555
S2 C3 1_555 1_555
C1 H1 1_555 1_555
H2 C1 1_555 1_555
C2 C1 1_555 1_555
H3 C2 1_555 1_555
H4 C2 1_555 1_555
C3 C2 1_555 1_555
H5 C3 1_555 1_555
H6 C3 1_555 1_555
C4 N1 1_555 1_555
C5 N1 1_555 1_555
C6 C5 1_555 1_555
H7 C6 1_555 1_555
C7 C6 1_555 1_555
H8 C7 1_555 1_555
C8 C7 1_555 1_555
H9 C8 1_555 1_555
C9 C8 1_555 1_555
H10 C9 1_555 1_555
C10 C5 1_555 1_555
H11 C10 1_555 1_555
C11 N5 1_555 1_555
C12 N5 1_555 1_555
C13 C12 1_555 1_555
H12 C13 1_555 1_555
C14 C13 1_555 1_555
H13 C14 1_555 1_555
C15 C14 1_555 1_555
H14 C15 1_555 1_555
C16 C15 1_555 1_555
H15 C16 1_555 1_555
C17 C12 1_555 1_555
H16 C17 1_555 1_555
S1 C4 1_555 1_555
S2 C11 1_555 1_555
C9 C10 1_555 1_555
C16 C17 1_555 1_555

#END
