
#######################################################################
#
#                 Cambridge Crystallographic Data Centre
#                                CCDC 
#
#######################################################################
#
# If this CIF has been generated from an entry in the Cambridge 
# Structural Database, then it will include bibliographic, chemical, 
# crystal, experimental, refinement or atomic coordinate data resulting 
# from the CCDC's data processing and validation procedures.
#
#######################################################################

data_JESGET01
_chemical_name_common            'PDB Chemical Component code: SAK'
_chemical_formula_moiety         'C16 H14 O5'
_chemical_name_systematic        
5-Hydroxy-2-(4-hydroxyphenyl)-7-methoxy-2,3-dihydro-4H-chromen-4-one
_symmetry_cell_setting           monoclinic
_symmetry_space_group_name_H-M   'P 21/c'
_symmetry_Int_Tables_number      14
_space_group_name_Hall           '-P 2ybc'
loop_
_symmetry_equiv_pos_site_id
_symmetry_equiv_pos_as_xyz
1 x,y,z
2 -x,1/2+y,1/2-z
3 -x,-y,-z
4 x,1/2-y,1/2+z
_cell_length_a                   12.8531(12)
_cell_length_b                   5.7141(3)
_cell_length_c                   18.0355(12)
_cell_angle_alpha                90
_cell_angle_beta                 97.333(8)
_cell_angle_gamma                90
_cell_volume                     1313.76
_exptl_crystal_colour            colorless
_exptl_crystal_description       block
_cell_formula_units_Z            4
loop_
_atom_site_label
_atom_site_type_symbol
_atom_site_fract_x
_atom_site_fract_y
_atom_site_fract_z
O1 O 0.30695(7) 0.15803(17) 0.48050(5)
O2 O 0.44391(8) -0.30736(18) 0.95440(5)
O3 O 0.19343(8) 0.52249(19) 0.43234(5)
O4 O 0.21292(7) 0.24972(16) 0.68718(5)
C1 C 0.20828(10) 0.3736(2) 0.55832(7)
O5 O -0.01313(8) 0.87306(18) 0.59503(5)
C2 C 0.05869(10) 0.7043(2) 0.58666(7)
C3 C 0.33952(10) -0.3004(2) 0.83310(7)
C4 C 0.09295(11) 0.6981(2) 0.51635(7)
C5 C 0.45986(10) 0.0112(2) 0.87383(8)
C6 C 0.09734(10) 0.5506(2) 0.64353(7)
C7 C 0.16494(10) 0.5313(2) 0.50181(7)
C8 C 0.17329(10) 0.3901(2) 0.62916(7)
C9 C 0.32272(11) 0.0393(2) 0.60936(7)
C10 C 0.32045(10) 0.1701(2) 0.68249(7)
C11 C 0.31065(10) -0.1819(2) 0.76662(7)
C12 C 0.28094(10) 0.1909(2) 0.54384(7)
C13 C 0.35515(10) 0.0343(2) 0.75264(7)
C14 C 0.43062(10) 0.1274(2) 0.80691(7)
C15 C 0.41339(10) -0.2028(2) 0.88734(7)
C16 C -0.04807(13) 0.9016(3) 0.66671(8)
H1 H 0.3644(11) 0.314(3) 0.6817(8)
H2 H 0.3927(13) -0.007(3) 0.6036(8)
H3 H 0.3085(12) -0.446(3) 0.8430(9)
H4 H 0.0758(11) 0.556(3) 0.6921(9)
H5 H 0.4624(12) 0.280(3) 0.7964(8)
H6 H 0.5116(13) 0.078(3) 0.9121(9)
H7 H -0.0858(13) 0.761(3) 0.6814(9)
H8 H 0.2784(13) -0.105(3) 0.6074(9)
H9 H 0.2574(12) -0.252(3) 0.7309(8)
H10 H 0.0641(13) 0.806(3) 0.4784(9)
H11 H 0.2380(16) 0.404(4) 0.4320(11)
H12 H 0.0121(14) 0.931(3) 0.7052(9)
H13 H 0.4049(16) -0.423(4) 0.9600(11)
H14 H -0.0951(14) 1.042(3) 0.6612(10)
loop_
_geom_bond_atom_site_label_1
_geom_bond_atom_site_label_2
_geom_bond_site_symmetry_1
_geom_bond_site_symmetry_2
O1 C12 1_555 1_555
O2 C15 1_555 1_555
O3 C7 1_555 1_555
O4 C8 1_555 1_555
C1 C7 1_555 1_555
O5 C2 1_555 1_555
C2 C4 1_555 1_555
C3 C11 1_555 1_555
C4 C7 1_555 1_555
C5 C14 1_555 1_555
C6 C2 1_555 1_555
C8 C1 1_555 1_555
C9 C10 1_555 1_555
C10 O4 1_555 1_555
C11 C13 1_555 1_555
C12 C1 1_555 1_555
C13 C10 1_555 1_555
C14 C13 1_555 1_555
C15 C3 1_555 1_555
C16 O5 1_555 1_555
H1 C10 1_555 1_555
H2 C9 1_555 1_555
H3 C3 1_555 1_555
H4 C6 1_555 1_555
H5 C14 1_555 1_555
H6 C5 1_555 1_555
H7 C16 1_555 1_555
H8 C9 1_555 1_555
H9 C11 1_555 1_555
H10 C4 1_555 1_555
H11 O3 1_555 1_555
H12 C16 1_555 1_555
H13 O2 1_555 1_555
H14 C16 1_555 1_555
C5 C15 1_555 1_555
C6 C8 1_555 1_555
C9 C12 1_555 1_555

#END
