
#######################################################################
#
#                 Cambridge Crystallographic Data Centre
#                                CCDC 
#
#######################################################################
#
# If this CIF has been generated from an entry in the Cambridge 
# Structural Database, then it will include bibliographic, chemical, 
# crystal, experimental, refinement or atomic coordinate data resulting 
# from the CCDC's data processing and validation procedures.
#
#######################################################################

data_JESLOJ
_chemical_formula_moiety         'C14 H22 O1'
_chemical_name_systematic        
(4R,4aS,6S,8aR)-4-Isopropenyl-6-methyloctahydronaphthalen-1-one
_symmetry_cell_setting           monoclinic
_symmetry_space_group_name_H-M   'P 21'
_symmetry_Int_Tables_number      4
_space_group_name_Hall           'P 2yb'
loop_
_symmetry_equiv_pos_site_id
_symmetry_equiv_pos_as_xyz
1 x,y,z
2 -x,1/2+y,-z
_cell_length_a                   9.1809(18)
_cell_length_b                   6.4336(12)
_cell_length_c                   11.416(2)
_cell_angle_alpha                90
_cell_angle_beta                 108.320(4)
_cell_angle_gamma                90
_cell_volume                     640.124
_exptl_crystal_colour            colorless
_exptl_crystal_description       Columnar
_chemical_melting_point          71-72deg.C
_cell_formula_units_Z            2
loop_
_atom_site_label
_atom_site_type_symbol
_atom_site_fract_x
_atom_site_fract_y
_atom_site_fract_z
O1 O 1.02793(13) 1.0109(2) 1.04135(9)
C1 C 0.81306(18) 1.0461(3) 0.85893(13)
H1 H 0.7957 1.1863 0.8237
C2 C 0.7103(2) 1.0215(4) 0.93942(14)
H2 H 0.7285 0.8865 0.9792
H3 H 0.7365 1.1269 1.0034
C3 C 0.5421(2) 1.0408(5) 0.86581(18)
H4 H 0.5211 1.1825 0.8363
H5 H 0.4809 1.0122 0.9194
C4 C 0.4943(2) 0.8929(4) 0.75595(16)
H6 H 0.3903 0.9318 0.7054
C5 C 0.59894(18) 0.9205(3) 0.67713(13)
H7 H 0.5841 1.0586 0.6413
H8 H 0.5702 0.8208 0.6100
C6 C 0.76799(17) 0.8915(2) 0.74942(12)
H9 H 0.7808 0.7505 0.7837
C7 C 0.87261(17) 0.9129(2) 0.66924(12)
H10 H 0.8614 1.0548 0.6365
C8 C 1.03962(18) 0.8842(3) 0.74801(13)
H11 H 1.0540 0.7439 0.7806
H12 H 1.1052 0.9022 0.6967
C9 C 1.0870(2) 1.0380(4) 0.85437(14)
H13 H 1.1905 1.0066 0.9062
H14 H 1.0869 1.1774 0.8219
C10 C 0.98116(19) 1.0299(3) 0.93021(13)
C11 C 0.4889(3) 0.6662(4) 0.7952(2)
H15 H 0.4589 0.5790 0.7234
H16 H 0.4159 0.6524 0.8392
H17 H 0.5886 0.6250 0.8477
C12 C 0.83078(19) 0.7656(3) 0.56077(14)
C13 C 0.8184(3) 0.5387(3) 0.58570(16)
H18 H 0.8066 0.4611 0.5115
H19 H 0.7309 0.5157 0.6131
H20 H 0.9097 0.4940 0.6485
C14 C 0.8088(2) 0.8341(4) 0.44776(15)
H21 H 0.7853 0.7412 0.3820
H22 H 0.8169 0.9754 0.4337
loop_
_geom_bond_atom_site_label_1
_geom_bond_atom_site_label_2
_geom_bond_site_symmetry_1
_geom_bond_site_symmetry_2
O1 C10 1_555 1_555
C1 H1 1_555 1_555
C2 C1 1_555 1_555
H2 C2 1_555 1_555
H3 C2 1_555 1_555
C3 C2 1_555 1_555
H4 C3 1_555 1_555
H5 C3 1_555 1_555
C4 C3 1_555 1_555
H6 C4 1_555 1_555
C5 C4 1_555 1_555
H7 C5 1_555 1_555
H8 C5 1_555 1_555
C6 C1 1_555 1_555
H9 C6 1_555 1_555
C7 C6 1_555 1_555
H10 C7 1_555 1_555
C8 C7 1_555 1_555
H11 C8 1_555 1_555
H12 C8 1_555 1_555
C9 C8 1_555 1_555
H13 C9 1_555 1_555
H14 C9 1_555 1_555
C10 C1 1_555 1_555
C11 C4 1_555 1_555
H15 C11 1_555 1_555
H16 C11 1_555 1_555
H17 C11 1_555 1_555
C12 C7 1_555 1_555
C13 C12 1_555 1_555
H18 C13 1_555 1_555
H19 C13 1_555 1_555
H20 C13 1_555 1_555
C14 C12 1_555 1_555
H21 C14 1_555 1_555
H22 C14 1_555 1_555
C5 C6 1_555 1_555
C9 C10 1_555 1_555

#END
