
#######################################################################
#
#                 Cambridge Crystallographic Data Centre
#                                CCDC 
#
#######################################################################
#
# If this CIF has been generated from an entry in the Cambridge 
# Structural Database, then it will include bibliographic, chemical, 
# crystal, experimental, refinement or atomic coordinate data resulting 
# from the CCDC's data processing and validation procedures.
#
#######################################################################

data_JESVIP
_chemical_formula_moiety         'C16 H21 N1 O2'
_chemical_name_systematic        
12-methyl-2,3,4,5,6,7,8,9,10,12-decahydrodicyclohepta[b,e]pyridine-1,11-dione
_symmetry_cell_setting           monoclinic
_symmetry_space_group_name_H-M   'P 2/c'
_symmetry_Int_Tables_number      13
_space_group_name_Hall           '-P 2yc'
loop_
_symmetry_equiv_pos_site_id
_symmetry_equiv_pos_as_xyz
1 x,y,z
2 -x,y,1/2-z
3 -x,-y,-z
4 x,-y,1/2+z
_cell_length_a                   22.0324(12)
_cell_length_b                   7.3708(2)
_cell_length_c                   26.9951(15)
_cell_angle_alpha                90
_cell_angle_beta                 107.256(6)
_cell_angle_gamma                90
_cell_volume                     4186.58
_cell_formula_units_Z            12
loop_
_atom_site_label
_atom_site_type_symbol
_atom_site_fract_x
_atom_site_fract_y
_atom_site_fract_z
N1 N 0.23258(10) 0.6270(2) 0.36522(8)
H1 H 0.2438 0.5180 0.3752
C1 C 0.24775(11) 0.7631(3) 0.40118(9)
C2 C 0.27090(16) 0.6966(3) 0.45614(10)
H2 H 0.2758 0.5658 0.4560
H3 H 0.2392 0.7241 0.4735
C3 C 0.33432(16) 0.7822(5) 0.48661(12)
H4 H 0.3534 0.7080 0.5169
H5 H 0.3626 0.7804 0.4651
C4 C 0.32970(13) 0.9700(4) 0.50377(12)
H6 H 0.3650 1.0385 0.4987
H7 H 0.3350 0.9680 0.5407
C5 C 0.26906(13) 1.0709(3) 0.47746(9)
H8 H 0.2341 1.0079 0.4848
H9 H 0.2718 1.1906 0.4929
C6 C 0.25340(11) 1.0929(3) 0.41961(9)
C7 C 0.24331(10) 0.9385(3) 0.38482(8)
C8 C 0.23036(11) 0.9787(3) 0.32787(9)
H10 H 0.2038 1.0878 0.3199
C9 C 0.19430(12) 0.8261(3) 0.29471(9)
C10 C 0.15523(15) 0.8735(4) 0.24231(11)
C11 C 0.1077(2) 0.7424(5) 0.20920(14)
H11 H 0.0757 0.8120 0.1839
H12 H 0.1295 0.6678 0.1902
C12 C 0.1756(2) 0.4857(4) 0.28432(13)
H13 H 0.1940 0.4770 0.2559
H14 H 0.1917 0.3839 0.3072
C13 C 0.20015(13) 0.6558(3) 0.31370(10)
C14 C 0.29255(15) 1.0195(4) 0.31579(11)
H15 H 0.3116 1.1265 0.3342
H16 H 0.2840 1.0388 0.2792
H17 H 0.3211 0.9188 0.3264
O1 O 0.2532(7) 1.2478(15) 0.4027(5)
O2 O 0.1623(6) 1.0238(17) 0.2214(3)
C15 C 0.0763(2) 0.6265(6) 0.23499(18)
H18 H 0.0383 0.5820 0.2094
H19 H 0.0624 0.6997 0.2594
C16 C 0.1109(2) 0.4649(6) 0.26406(19)
H20 H 0.0934 0.4373 0.2922
H21 H 0.1027 0.3614 0.2408
N2 N 0.56100(9) 0.2724(2) 0.33370(7)
H30 H 0.5742 0.1640 0.3312
C19 C 0.57914(10) 0.4090(3) 0.30636(8)
C20 C 0.60361(13) 0.3432(3) 0.26330(10)
H31 H 0.5712 0.3632 0.2305
H32 H 0.6111 0.2136 0.2672
C21 C 0.66460(13) 0.4360(4) 0.26169(12)
H33 H 0.6936 0.4394 0.2966
H34 H 0.6843 0.3626 0.2409
C22 C 0.65697(16) 0.6250(4) 0.24042(14)
H35 H 0.6591 0.6207 0.2050
H36 H 0.6927 0.6969 0.2605
C23 C 0.59638(14) 0.7214(4) 0.24036(11)
H37 H 0.5967 0.8414 0.2257
H38 H 0.5607 0.6557 0.2177
C24 C 0.58551(12) 0.7414(3) 0.29222(10)
C25 C 0.57421(11) 0.5831(3) 0.32081(9)
C26 C 0.56008(14) 0.6177(3) 0.37135(10)
H39 H 0.5388 0.7355 0.3690
C27 C 0.51581(13) 0.4738(3) 0.38019(9)
C28 C 0.46801(16) 0.5294(4) 0.40467(12)
C29 C 0.41534(17) 0.4033(5) 0.40600(17)
H40 H 0.3840 0.4719 0.4170
H41 H 0.3949 0.3617 0.3709
C30 C 0.4329(2) 0.2432(5) 0.43964(15)
H42 H 0.3959 0.1650 0.4332
H43 H 0.4433 0.2831 0.4754
C31 C 0.48745(16) 0.1322(5) 0.43351(12)
H44 H 0.4824 0.0080 0.4434
H45 H 0.5266 0.1785 0.4571
C32 C 0.49319(16) 0.1331(3) 0.37913(12)
H46 H 0.5186 0.0297 0.3752
H47 H 0.4512 0.1179 0.3548
C33 C 0.52242(12) 0.3023(3) 0.36505(9)
C34 C 0.62142(19) 0.6255(5) 0.41603(12)
H48 H 0.6448 0.5150 0.4170
H49 H 0.6115 0.6402 0.4481
H50 H 0.6466 0.7264 0.4111
O5 O 0.5894(7) 0.8949(10) 0.3127(5)
O6 O 0.4740(7) 0.6782(11) 0.4281(6)
N3 N 0.11720(9) 1.1526(2) 0.50503(8)
H51 H 0.1165 1.2619 0.5160
C35 C 0.13669(12) 1.0179(3) 0.54092(9)
C36 C 0.16373(16) 1.0855(4) 0.59556(10)
H52 H 0.1398 1.0322 0.6168
H53 H 0.1579 1.2159 0.5958
C37 C 0.23325(18) 1.0434(5) 0.61983(13)
H54 H 0.2577 1.1113 0.6016
H55 H 0.2458 1.0856 0.6555
C38 C 0.2501(2) 0.8481(5) 0.61947(18)
H56 H 0.2834 0.8213 0.6513
H57 H 0.2674 0.8273 0.5908
C39 C 0.1959(2) 0.7161(4) 0.61461(13)
H58 H 0.2134 0.5996 0.6285
H59 H 0.1699 0.7597 0.6355
C40 C 0.15436(15) 0.6898(4) 0.55976(11)
C41 C 0.12968(12) 0.8421(3) 0.52529(9)
C42 C 0.09159(11) 0.7963(3) 0.47057(9)
H60 H 0.1116 0.6921 0.4591
C43 C 0.09010(10) 0.9520(3) 0.43400(9)
C44 C 0.07591(12) 0.9053(3) 0.37900(10)
C45 C 0.06545(17) 1.0493(4) 0.33818(11)
H61 H 0.0558 0.9912 0.3045
H62 H 0.1047 1.1168 0.3434
C46 C 0.01273(18) 1.1812(5) 0.33759(15)
H63 H 0.0033 1.2505 0.3057
H64 H -0.0250 1.1116 0.3366
C47 C 0.02454(17) 1.3099(4) 0.38113(13)
H65 H -0.0076 1.2915 0.3986
H66 H 0.0194 1.4321 0.3672
C48 C 0.08916(16) 1.2957(3) 0.42086(11)
H67 H 0.1215 1.3029 0.4032
H68 H 0.0950 1.3984 0.4443
C49 C 0.09847(11) 1.1240(3) 0.45203(9)
C50 C 0.02325(13) 0.7435(4) 0.46820(12)
H69 H 0.0026 0.8450 0.4786
H70 H 0.0242 0.6432 0.4911
H71 H 0.0002 0.7092 0.4334
O9 O 0.1381(8) 0.531(3) 0.5451(8)
O10 O 0.0781(6) 0.742(2) 0.3647(6)
H22? H 0.0738 0.7350 0.2253
H23? H 0.0897 0.8046 0.1764
H24? H 0.2073 0.3927 0.2982
H25? H 0.1381 0.4511 0.2938
O3? O 0.2354(10) 1.249(4) 0.3989(12)
O4? O 0.1498(13) 1.027(3) 0.2320(7)
C17? C 0.1162(4) 0.5869(12) 0.1975(3)
H26? H 0.1297 0.5917 0.1664
H27? H 0.0754 0.5259 0.1882
C18? C 0.1608(4) 0.4735(11) 0.2345(3)
H28? H 0.1460 0.3500 0.2261
H29? H 0.2005 0.4833 0.2260
O7? O 0.4538(13) 0.690(3) 0.4049(9)
O8? O 0.5674(11) 0.890(3) 0.3008(9)
O11? O 0.1541(16) 0.539(5) 0.5406(15)
O12? O 0.0625(12) 0.755(4) 0.3677(12)
loop_
_geom_bond_atom_site_label_1
_geom_bond_atom_site_label_2
_geom_bond_site_symmetry_1
_geom_bond_site_symmetry_2
N1 H1 1_555 1_555
C1 N1 1_555 1_555
C2 C1 1_555 1_555
H2 C2 1_555 1_555
H3 C2 1_555 1_555
C3 C2 1_555 1_555
H4 C3 1_555 1_555
H5 C3 1_555 1_555
C4 C3 1_555 1_555
H6 C4 1_555 1_555
H7 C4 1_555 1_555
C5 C4 1_555 1_555
H8 C5 1_555 1_555
H9 C5 1_555 1_555
C6 C5 1_555 1_555
C7 C1 1_555 1_555
C8 C7 1_555 1_555
H10 C8 1_555 1_555
C9 C8 1_555 1_555
C10 C9 1_555 1_555
C11 C10 1_555 1_555
H11 C11 1_555 1_555
H12 C11 1_555 1_555
C12 H13 1_555 1_555
H14 C12 1_555 1_555
C13 N1 1_555 1_555
C14 C8 1_555 1_555
H15 C14 1_555 1_555
H16 C14 1_555 1_555
H17 C14 1_555 1_555
O1 C6 1_555 1_555
O2 C10 1_555 1_555
C15 C11 1_555 1_555
H18 C15 1_555 1_555
H19 C15 1_555 1_555
C16 C12 1_555 1_555
H20 C16 1_555 1_555
H21 C16 1_555 1_555
N2 H30 1_555 1_555
C19 N2 1_555 1_555
C20 C19 1_555 1_555
H31 C20 1_555 1_555
H32 C20 1_555 1_555
C21 C20 1_555 1_555
H33 C21 1_555 1_555
H34 C21 1_555 1_555
C22 C21 1_555 1_555
H35 C22 1_555 1_555
H36 C22 1_555 1_555
C23 C22 1_555 1_555
H37 C23 1_555 1_555
H38 C23 1_555 1_555
C24 C23 1_555 1_555
C25 C19 1_555 1_555
C26 C25 1_555 1_555
H39 C26 1_555 1_555
C27 C26 1_555 1_555
C28 C27 1_555 1_555
C29 C28 1_555 1_555
H40 C29 1_555 1_555
H41 C29 1_555 1_555
C30 C29 1_555 1_555
H42 C30 1_555 1_555
H43 C30 1_555 1_555
C31 C30 1_555 1_555
H44 C31 1_555 1_555
H45 C31 1_555 1_555
C32 C31 1_555 1_555
H46 C32 1_555 1_555
H47 C32 1_555 1_555
C33 N2 1_555 1_555
C34 C26 1_555 1_555
H48 C34 1_555 1_555
H49 C34 1_555 1_555
H50 C34 1_555 1_555
O5 C24 1_555 1_555
O6 C28 1_555 1_555
N3 H51 1_555 1_555
C35 N3 1_555 1_555
C36 C35 1_555 1_555
H52 C36 1_555 1_555
H53 C36 1_555 1_555
C37 C36 1_555 1_555
H54 C37 1_555 1_555
H55 C37 1_555 1_555
C38 C37 1_555 1_555
H56 C38 1_555 1_555
H57 C38 1_555 1_555
C39 C38 1_555 1_555
H58 C39 1_555 1_555
H59 C39 1_555 1_555
C40 C39 1_555 1_555
C41 C35 1_555 1_555
C42 C41 1_555 1_555
H60 C42 1_555 1_555
C43 C42 1_555 1_555
C44 C43 1_555 1_555
C45 C44 1_555 1_555
H61 C45 1_555 1_555
H62 C45 1_555 1_555
C46 C45 1_555 1_555
H63 C46 1_555 1_555
H64 C46 1_555 1_555
C47 C46 1_555 1_555
H65 C47 1_555 1_555
H66 C47 1_555 1_555
C48 C47 1_555 1_555
H67 C48 1_555 1_555
H68 C48 1_555 1_555
C49 N3 1_555 1_555
C50 C42 1_555 1_555
H69 C50 1_555 1_555
H70 C50 1_555 1_555
H71 C50 1_555 1_555
O9 C40 1_555 1_555
O10 C44 1_555 1_555
C6 C7 1_555 1_555
C9 C13 1_555 1_555
C12 C13 1_555 1_555
C15 C16 1_555 1_555
C24 C25 1_555 1_555
C27 C33 1_555 1_555
C32 C33 1_555 1_555
C40 C41 1_555 1_555
C43 C49 1_555 1_555
C48 C49 1_555 1_555

#END
