
#######################################################################
#
#                 Cambridge Crystallographic Data Centre
#                                CCDC 
#
#######################################################################
#
# If this CIF has been generated from an entry in the Cambridge 
# Structural Database, then it will include bibliographic, chemical, 
# crystal, experimental, refinement or atomic coordinate data resulting 
# from the CCDC's data processing and validation procedures.
#
#######################################################################

data_JEVMOP
_chemical_name_common            
'C-(4-hydroxyphenyl)pyrogallol[4]arene tetrahydrate'
_chemical_formula_moiety         'C52 H40 O16,4(H2 O1)'
_chemical_name_systematic        
'2,8,14,20-tetrakis(4-hydroxyphenyl)-4,5,6,10,11,12,16,17,18,22,23,24-dodecahydroxycalix(4)arene tetrahydrate'
_symmetry_cell_setting           monoclinic
_symmetry_space_group_name_H-M   'C 2/c'
_symmetry_Int_Tables_number      15
_space_group_name_Hall           '-C 2yn'
loop_
_symmetry_equiv_pos_site_id
_symmetry_equiv_pos_as_xyz
1 x,y,z
2 -x,y,1/2-z
3 1/2+x,1/2+y,z
4 1/2-x,1/2+y,1/2-z
5 -x,-y,-z
6 x,-y,1/2+z
7 1/2-x,1/2-y,-z
8 1/2+x,1/2-y,1/2+z
_cell_length_a                   27.096(19)
_cell_length_b                   13.618(10)
_cell_length_c                   14.835(9)
_cell_angle_alpha                90
_cell_angle_beta                 121.74(2)
_cell_angle_gamma                90
_cell_volume                     4655.34
_exptl_crystal_description       Plate
_cell_formula_units_Z            4
loop_
_atom_site_label
_atom_site_type_symbol
_atom_site_fract_x
_atom_site_fract_y
_atom_site_fract_z
O1 O 0.34755(12) 0.2640(2) 0.9069(2)
H1 H 0.3424 0.2573 0.9576
C1 C 0.47706(17) 0.2045(3) 0.9014(3)
H2 H 0.4866 0.1871 0.8505
O2 O 0.44018(12) 0.2992(2) 1.1240(2)
H3 H 0.4056 0.2894 1.1059
C2 C 0.41904(18) 0.2193(3) 0.8676(3)
O3 O 0.54929(12) 0.2487(2) 1.1850(2)
H4 H 0.5356 0.2743 1.2187
C3 C 0.40532(17) 0.2478(3) 0.9422(3)
O4 O 0.40485(13) -0.0001(2) 0.7834(2)
H5 H 0.4137 0.0356 0.8360
C4 C 0.44925(18) 0.2623(3) 1.0469(3)
O5 O 0.43415(15) -0.0946(2) 0.6588(2)
H6 H 0.4370 -0.1130 0.7155
C5 C 0.50666(18) 0.2415(3) 1.0801(3)
O6 O 0.43737(14) -0.0042(2) 0.5009(2)
H7 H 0.4480 -0.0606 0.5271
C6 C 0.52186(18) 0.2144(3) 1.0073(3)
O7 O 0.27047(14) 0.5772(2) 0.5597(2)
H8 H 0.2413 0.5693 0.4985
C7 C 0.37059(17) 0.2095(3) 0.7513(3)
H9 H 0.3393 0.1692 0.7495
O8 O 0.28741(13) 0.5600(2) 0.3274(3)
H10 H 0.3099 0.6085 0.3470
C8 C 0.39243(17) 0.1983(3) 0.6032(3)
H11 H 0.3828 0.2659 0.5891
C9 C 0.39017(17) 0.1547(3) 0.6858(3)
C10 C 0.40560(17) 0.0555(3) 0.7057(3)
C11 C 0.42036(18) 0.0030(3) 0.6432(3)
C12 C 0.42132(18) 0.0493(3) 0.5605(3)
C13 C 0.40808(17) 0.1482(3) 0.5402(3)
C14 C 0.41413(17) 0.2000(3) 0.4552(3)
H12 H 0.3966 0.1564 0.3915
C15 C 0.34383(18) 0.3090(3) 0.7024(3)
C16 C 0.28544(19) 0.3140(3) 0.6216(3)
H13 H 0.2626 0.2559 0.5997
C17 C 0.26014(19) 0.4027(3) 0.5727(3)
H14 H 0.2202 0.4058 0.5188
C18 C 0.29412(19) 0.4863(3) 0.6038(3)
C19 C 0.35176(19) 0.4834(3) 0.6827(3)
H15 H 0.3744 0.5417 0.7037
C20 C 0.37659(19) 0.3946(3) 0.7317(3)
H16 H 0.4165 0.3923 0.7860
C21 C 0.38170(18) 0.2977(3) 0.4213(3)
C22 C 0.40779(19) 0.3854(3) 0.4719(3)
H17 H 0.4475 0.3853 0.5274
C23 C 0.37708(19) 0.4732(3) 0.4430(3)
H18 H 0.3955 0.5323 0.4792
C24 C 0.31973(19) 0.4740(3) 0.3613(3)
C25 C 0.2925(2) 0.3883(3) 0.3098(4)
H19 H 0.2530 0.3890 0.2537
C26 C 0.32354(18) 0.3003(3) 0.3409(3)
H20 H 0.3045 0.2410 0.3064
O1A O 0.65245(12) 0.2640(2) 0.5931(2)
H1A H 0.6576 0.2573 0.5424
C1A C 0.52294(17) 0.2045(3) 0.5986(3)
H2A H 0.5134 0.1871 0.6495
O2A O 0.55982(12) 0.2992(2) 0.3760(2)
H3A H 0.5944 0.2894 0.3941
C2A C 0.58096(18) 0.2193(3) 0.6324(3)
O3A O 0.45071(12) 0.2487(2) 0.3150(2)
H4A H 0.4644 0.2743 0.2813
C3A C 0.59468(17) 0.2478(3) 0.5578(3)
O4A O 0.59515(13) -0.0001(2) 0.7166(2)
H5A H 0.5863 0.0356 0.6640
C4A C 0.55075(18) 0.2623(3) 0.4531(3)
O5A O 0.56585(15) -0.0946(2) 0.8412(2)
H6A H 0.5630 -0.1130 0.7845
C5A C 0.49334(18) 0.2415(3) 0.4199(3)
O6A O 0.56263(14) -0.0042(2) 0.9991(2)
H7A H 0.5520 -0.0606 0.9729
C6A C 0.47814(18) 0.2144(3) 0.4927(3)
O7A O 0.72953(14) 0.5772(2) 0.9403(2)
H8A H 0.7587 0.5693 1.0015
C7A C 0.62941(17) 0.2095(3) 0.7487(3)
H9A H 0.6607 0.1692 0.7505
O8A O 0.71259(13) 0.5600(2) 1.1726(3)
H10A H 0.6901 0.6085 1.1530
C8A C 0.60757(17) 0.1983(3) 0.8968(3)
H11A H 0.6172 0.2659 0.9109
C9A C 0.60983(17) 0.1547(3) 0.8142(3)
C10A C 0.59440(17) 0.0555(3) 0.7943(3)
C11A C 0.57964(18) 0.0030(3) 0.8568(3)
C12A C 0.57868(18) 0.0493(3) 0.9395(3)
C13A C 0.59192(17) 0.1482(3) 0.9598(3)
C14A C 0.58587(17) 0.2000(3) 1.0448(3)
H12A H 0.6034 0.1564 1.1085
C15A C 0.65617(18) 0.3090(3) 0.7976(3)
C16A C 0.71456(19) 0.3140(3) 0.8784(3)
H13A H 0.7374 0.2559 0.9003
C17A C 0.73986(19) 0.4027(3) 0.9273(3)
H14A H 0.7798 0.4058 0.9812
C18A C 0.70588(19) 0.4863(3) 0.8962(3)
C19A C 0.64824(19) 0.4834(3) 0.8173(3)
H15A H 0.6256 0.5417 0.7963
C20A C 0.62341(19) 0.3946(3) 0.7683(3)
H16A H 0.5835 0.3923 0.7140
C21A C 0.61830(18) 0.2977(3) 1.0787(3)
C22A C 0.59221(19) 0.3854(3) 1.0281(3)
H17A H 0.5525 0.3853 0.9726
C23A C 0.62292(19) 0.4732(3) 1.0570(3)
H18A H 0.6045 0.5323 1.0208
C24A C 0.68027(19) 0.4740(3) 1.1387(3)
C25A C 0.7075(2) 0.3883(3) 1.1902(4)
H19A H 0.7470 0.3890 1.2463
C26A C 0.67646(18) 0.3003(3) 1.1591(3)
H20A H 0.6955 0.2410 1.1936
O9 O 0.33095(13) 0.2622(2) 1.0724(2)
O10 O 0.19602(13) 0.5990(2) 0.3485(2)
loop_
_geom_bond_atom_site_label_1
_geom_bond_atom_site_label_2
_geom_bond_site_symmetry_1
_geom_bond_site_symmetry_2
O1 H1 1_555 1_555
C1 H2 1_555 1_555
O2 H3 1_555 1_555
C2 C1 1_555 1_555
O3 H4 1_555 1_555
C3 O1 1_555 1_555
O4 H5 1_555 1_555
C4 O2 1_555 1_555
O5 H6 1_555 1_555
C5 O3 1_555 1_555
O6 H7 1_555 1_555
C6 C1 1_555 1_555
O7 H8 1_555 1_555
C7 C2 1_555 1_555
H9 C7 1_555 1_555
O8 H10 1_555 1_555
C8 H11 1_555 1_555
C9 C7 1_555 1_555
C10 O4 1_555 1_555
C11 O5 1_555 1_555
C12 O6 1_555 1_555
C13 C8 1_555 1_555
C14 C13 1_555 1_555
H12 C14 1_555 1_555
C15 C7 1_555 1_555
C16 C15 1_555 1_555
H13 C16 1_555 1_555
C17 C16 1_555 1_555
H14 C17 1_555 1_555
C18 O7 1_555 1_555
C19 C18 1_555 1_555
H15 C19 1_555 1_555
C20 C15 1_555 1_555
H16 C20 1_555 1_555
C21 C14 1_555 1_555
C22 C21 1_555 1_555
H17 C22 1_555 1_555
C23 C22 1_555 1_555
H18 C23 1_555 1_555
C24 O8 1_555 1_555
C25 C24 1_555 1_555
H19 C25 1_555 1_555
C26 C21 1_555 1_555
H20 C26 1_555 1_555
O1A H1A 1_555 1_555
C1A H2A 1_555 1_555
O2A H3A 1_555 1_555
C2A C1A 1_555 1_555
O3A H4A 1_555 1_555
C3A O1A 1_555 1_555
O4A H5A 1_555 1_555
C4A O2A 1_555 1_555
O5A H6A 1_555 1_555
C5A O3A 1_555 1_555
O6A H7A 1_555 1_555
C6A C14 1_555 1_555
O7A H8A 1_555 1_555
C7A C2A 1_555 1_555
H9A C7A 1_555 1_555
O8A H10A 1_555 1_555
C8A H11A 1_555 1_555
C9A C7A 1_555 1_555
C10A O4A 1_555 1_555
C11A O5A 1_555 1_555
C12A O6A 1_555 1_555
C13A C8A 1_555 1_555
C14A C6 1_555 1_555
H12A C14A 1_555 1_555
C15A C7A 1_555 1_555
C16A C15A 1_555 1_555
H13A C16A 1_555 1_555
C17A C16A 1_555 1_555
H14A C17A 1_555 1_555
C18A O7A 1_555 1_555
C19A C18A 1_555 1_555
H15A C19A 1_555 1_555
C20A C15A 1_555 1_555
H16A C20A 1_555 1_555
C21A C14A 1_555 1_555
C22A C21A 1_555 1_555
H17A C22A 1_555 1_555
C23A C22A 1_555 1_555
H18A C23A 1_555 1_555
C24A O8A 1_555 1_555
C25A C24A 1_555 1_555
H19A C25A 1_555 1_555
C26A C21A 1_555 1_555
H20A C26A 1_555 1_555
C2 C3 1_555 1_555
C3 C4 1_555 1_555
C4 C5 1_555 1_555
C5 C6 1_555 1_555
C8 C9 1_555 1_555
C9 C10 1_555 1_555
C10 C11 1_555 1_555
C11 C12 1_555 1_555
C12 C13 1_555 1_555
C17 C18 1_555 1_555
C19 C20 1_555 1_555
C23 C24 1_555 1_555
C25 C26 1_555 1_555
C1A C6A 1_555 1_555
C2A C3A 1_555 1_555
C3A C4A 1_555 1_555
C4A C5A 1_555 1_555
C5A C6A 1_555 1_555
C8A C9A 1_555 1_555
C9A C10A 1_555 1_555
C10A C11A 1_555 1_555
C11A C12A 1_555 1_555
C12A C13A 1_555 1_555
C13A C14A 1_555 1_555
C17A C18A 1_555 1_555
C19A C20A 1_555 1_555
C23A C24A 1_555 1_555
C25A C26A 1_555 1_555

#END
