
#######################################################################
#
#                 Cambridge Crystallographic Data Centre
#                                CCDC 
#
#######################################################################
#
# If this CIF has been generated from an entry in the Cambridge 
# Structural Database, then it will include bibliographic, chemical, 
# crystal, experimental, refinement or atomic coordinate data resulting 
# from the CCDC's data processing and validation procedures.
#
#######################################################################

data_JEWNEH
_chemical_formula_moiety         'C16 H23 N1 O3'
_chemical_name_systematic        
N-methyl-3-(3,6,7-trimethyl-2-oxo-2,3,3a,4,5,8a-hexahydro-8H-cyclohepta[b]furan-8-ylidene)propanamide
_symmetry_cell_setting           monoclinic
_symmetry_space_group_name_H-M   'P 21'
_symmetry_Int_Tables_number      4
_space_group_name_Hall           'P 2yb'
loop_
_symmetry_equiv_pos_site_id
_symmetry_equiv_pos_as_xyz
1 x,y,z
2 -x,1/2+y,-z
_cell_length_a                   8.778
_cell_length_b                   10.021
_cell_length_c                   9.169
_cell_angle_alpha                90
_cell_angle_beta                 110.44
_cell_angle_gamma                90
_cell_volume                     755.764
_exptl_crystal_colour            colorless
_exptl_crystal_description       'rectangular block'
_cell_formula_units_Z            2
loop_
_atom_site_label
_atom_site_type_symbol
_atom_site_fract_x
_atom_site_fract_y
_atom_site_fract_z
N1 N 0.4368(5) 0.1247(4) 1.0238(4)
H1 H 0.452322 0.209548 1.027468
O1 O 0.9387(3) -0.1429(3) 0.7481(3)
O2 O 0.9676(4) -0.3532(4) 0.6792(4)
C1 C 0.7144(5) 0.2511(5) 0.5558(6)
C2 C 0.7512(5) -0.0655(5) 0.5147(4)
H2 H 0.657992 -0.100696 0.537849
C3 C 0.8755(6) -0.0191(4) 0.6665(5)
H3 H 0.963606 0.026318 0.643886
C4 C 0.8033(6) 0.2165(5) 0.7042(6)
C5 C 0.8410(6) -0.1846(4) 0.4778(5)
H4 H 0.925951 -0.150080 0.441547
C6 C 0.8090(5) 0.0745(4) 0.7588(5)
C7 C 0.6880(5) 0.0398(5) 0.3907(5)
H5 H 0.612614 -0.000554 0.297099
H6 H 0.777764 0.077024 0.365479
C8 C 0.7379(5) -0.2832(5) 0.3569(5)
H7 H 0.692080 -0.239040 0.258263
H8 H 0.804683 -0.356144 0.347374
H9 H 0.651925 -0.316534 0.388928
O3 O 0.5259(4) -0.0771(4) 0.9853(4)
C9 C 0.5428(5) 0.0461(6) 0.9902(5)
C10 C 0.9244(6) 0.3085(5) 0.8197(5)
H10 H 1.032910 0.283427 0.828916
H11 H 0.912171 0.301198 0.919406
H12 H 0.904422 0.398949 0.783509
C11 C 0.6016(5) 0.1518(4) 0.4454(5)
H13 H 0.531465 0.199635 0.354858
H14 H 0.532884 0.112012 0.496644
C12 C 0.6847(6) 0.1135(5) 0.9638(6)
H15 H 0.648018 0.197158 0.909705
H16 H 0.766587 0.134074 1.063948
C13 C 0.7197(6) 0.3846(5) 0.4866(6)
H17 H 0.788811 0.442888 0.565084
H18 H 0.611975 0.421273 0.446724
H19 H 0.761771 0.375814 0.403498
C14 C 0.2964(5) 0.0730(5) 1.0542(7)
H20 H 0.236296 0.145782 1.075761
H21 H 0.228111 0.024916 0.964724
H22 H 0.331888 0.014203 1.142349
C15 C 0.7605(5) 0.0305(5) 0.8715(5)
H23 H 0.774681 -0.059882 0.895464
C16 C 0.9223(6) -0.2395(6) 0.6410(6)
loop_
_geom_bond_atom_site_label_1
_geom_bond_atom_site_label_2
_geom_bond_site_symmetry_1
_geom_bond_site_symmetry_2
N1 H1 1_555 1_555
O1 C3 1_555 1_555
O2 C16 1_555 1_555
C1 C4 1_555 1_555
C2 H2 1_555 1_555
C3 C2 1_555 1_555
H3 C3 1_555 1_555
C4 C6 1_555 1_555
C5 C2 1_555 1_555
H4 C5 1_555 1_555
C6 C3 1_555 1_555
C7 C2 1_555 1_555
H5 C7 1_555 1_555
H6 C7 1_555 1_555
C8 C5 1_555 1_555
H7 C8 1_555 1_555
H8 C8 1_555 1_555
H9 C8 1_555 1_555
O3 C9 1_555 1_555
C9 N1 1_555 1_555
C10 C4 1_555 1_555
H10 C10 1_555 1_555
H11 C10 1_555 1_555
H12 C10 1_555 1_555
C11 C1 1_555 1_555
H13 C11 1_555 1_555
H14 C11 1_555 1_555
C12 C9 1_555 1_555
H15 C12 1_555 1_555
H16 C12 1_555 1_555
C13 C1 1_555 1_555
H17 C13 1_555 1_555
H18 C13 1_555 1_555
H19 C13 1_555 1_555
C14 N1 1_555 1_555
H20 C14 1_555 1_555
H21 C14 1_555 1_555
H22 C14 1_555 1_555
C15 C6 1_555 1_555
H23 C15 1_555 1_555
C16 O1 1_555 1_555
C5 C16 1_555 1_555
C7 C11 1_555 1_555
C12 C15 1_555 1_555

#END
