
#######################################################################
#
#                 Cambridge Crystallographic Data Centre
#                                CCDC 
#
#######################################################################
#
# If this CIF has been generated from an entry in the Cambridge 
# Structural Database, then it will include bibliographic, chemical, 
# crystal, experimental, refinement or atomic coordinate data resulting 
# from the CCDC's data processing and validation procedures.
#
#######################################################################

data_JEWQEK
_chemical_name_common            
'[6-(pyridin-2-yl)-1,2-dihydroacenaphthylen-5-yl]bis(2,4,6-trimethylphenyl)boron'
_chemical_formula_moiety         'C35 H34 B1 N1'
_chemical_name_systematic        
5,5-bis(2,4,6-trimethylphenyl)-2,5-dihydro-1H-6\l^5^,5\l^5^-acenaphtho[5,6-cd]pyrido[2,1-f][1,2]azaborinine
_symmetry_cell_setting           monoclinic
_symmetry_space_group_name_H-M   'P 21'
_symmetry_Int_Tables_number      4
_space_group_name_Hall           'P 2yb'
loop_
_symmetry_equiv_pos_site_id
_symmetry_equiv_pos_as_xyz
1 x,y,z
2 -x,1/2+y,-z
_cell_length_a                   7.7495(7)
_cell_length_b                   15.3541(12)
_cell_length_c                   11.4656(10)
_cell_angle_alpha                90
_cell_angle_beta                 108.783(3)
_cell_angle_gamma                90
_cell_volume                     1291.6
_exptl_crystal_colour            yellow
_exptl_crystal_description       Block
_cell_formula_units_Z            2
loop_
_atom_site_label
_atom_site_type_symbol
_atom_site_fract_x
_atom_site_fract_y
_atom_site_fract_z
B1 B 0.6425(7) 0.5070(4) 0.6986(5)
N1 N 0.7823(5) 0.4304(2) 0.6775(3)
C1 C 0.5594(6) 0.4658(3) 0.8005(4)
C2 C 0.4874(7) 0.5122(3) 0.8775(5)
H1 H 0.5050 0.5735 0.8820
C3 C 0.3893(7) 0.4751(3) 0.9503(5)
H2 H 0.3438 0.5111 1.0011
C4 C 0.3608(7) 0.3875(3) 0.9470(5)
C5 C 0.4387(6) 0.3381(3) 0.8745(4)
C6 C 0.4095(6) 0.2479(3) 0.8844(5)
C7 C 0.4866(7) 0.1911(3) 0.8234(5)
H3 H 0.4645 0.1303 0.8249
C8 C 0.5987(7) 0.2237(3) 0.7586(5)
H4 H 0.6551 0.1837 0.7191
C9 C 0.6306(6) 0.3125(3) 0.7499(4)
C10 C 0.5414(6) 0.3733(3) 0.8046(4)
C11 C 0.2635(9) 0.3277(4) 1.0100(6)
H5 H 0.1318 0.3416 0.9848
H6 H 0.3157 0.3328 1.1007
C12 C 0.2944(8) 0.2349(4) 0.9667(6)
H7 H 0.3584 0.1977 1.0380
H8 H 0.1767 0.2072 0.9208
C13 C 0.7714(6) 0.3438(3) 0.7008(4)
C14 C 0.9020(7) 0.2869(3) 0.6836(5)
H9 H 0.8954 0.2267 0.7009
C15 C 1.0387(7) 0.3157(3) 0.6425(5)
H10 H 1.1265 0.2763 0.6312
C16 C 1.0471(7) 0.4030(3) 0.6177(5)
H11 H 1.1399 0.4249 0.5881
C17 C 0.9195(6) 0.4575(3) 0.6366(5)
H12 H 0.9271 0.5178 0.6202
C18 C 0.4569(6) 0.5193(3) 0.5743(4)
C19 C 0.4048(6) 0.4673(3) 0.4652(4)
C20 C 0.2343(7) 0.4775(3) 0.3752(5)
H13 H 0.2050 0.4418 0.3037
C21 C 0.1068(6) 0.5372(3) 0.3859(4)
C22 C 0.1592(7) 0.5909(3) 0.4879(4)
H14 H 0.0767 0.6343 0.4960
C23 C 0.3275(6) 0.5840(3) 0.5790(4)
C24 C 0.3590(7) 0.6539(3) 0.6770(5)
H15 H 0.3256 0.7108 0.6375
H16 H 0.4879 0.6544 0.7274
H17 H 0.2839 0.6417 0.7294
C25 C 0.5243(7) 0.3993(4) 0.4341(5)
H18 H 0.4663 0.3789 0.3495
H19 H 0.5408 0.3501 0.4911
H20 H 0.6433 0.4249 0.4416
C26 C -0.0796(7) 0.5437(4) 0.2917(5)
H21 H -0.0698 0.5379 0.2089
H22 H -0.1335 0.6003 0.2992
H23 H -0.1572 0.4970 0.3055
C27 C 0.7783(6) 0.5911(3) 0.7441(4)
C28 C 0.9069(6) 0.5936(3) 0.8641(4)
C29 C 1.0255(7) 0.6634(3) 0.9039(5)
H24 H 1.1082 0.6628 0.9856
C30 C 1.0276(7) 0.7340(3) 0.8286(5)
C31 C 0.9071(6) 0.7311(3) 0.7095(5)
H25 H 0.9064 0.7781 0.6554
C32 C 0.7867(6) 0.6621(3) 0.6656(4)
C33 C 0.6761(7) 0.6663(3) 0.5303(5)
H26 H 0.7282 0.7103 0.4896
H27 H 0.5498 0.6818 0.5215
H28 H 0.6785 0.6093 0.4922
C34 C 0.9309(7) 0.5199(4) 0.9557(5)
H29 H 1.0491 0.5257 1.0204
H30 H 0.9259 0.4641 0.9133
H31 H 0.8332 0.5222 0.9926
C35 C 1.1581(8) 0.8085(4) 0.8729(6)
H32 H 1.0896 0.8631 0.8647
H33 H 1.2400 0.8118 0.8233
H34 H 1.2299 0.7993 0.9596
loop_
_geom_bond_atom_site_label_1
_geom_bond_atom_site_label_2
_geom_bond_site_symmetry_1
_geom_bond_site_symmetry_2
B1 N1 1_555 1_555
N1 C13 1_555 1_555
C1 B1 1_555 1_555
C2 C1 1_555 1_555
H1 C2 1_555 1_555
C3 C2 1_555 1_555
H2 C3 1_555 1_555
C4 C3 1_555 1_555
C5 C4 1_555 1_555
C6 C5 1_555 1_555
C7 C6 1_555 1_555
H3 C7 1_555 1_555
C8 C7 1_555 1_555
H4 C8 1_555 1_555
C9 C8 1_555 1_555
C10 C1 1_555 1_555
C11 C4 1_555 1_555
H5 C11 1_555 1_555
H6 C11 1_555 1_555
C12 C6 1_555 1_555
H7 C12 1_555 1_555
H8 C12 1_555 1_555
C13 C9 1_555 1_555
C14 C13 1_555 1_555
H9 C14 1_555 1_555
C15 C14 1_555 1_555
H10 C15 1_555 1_555
C16 C15 1_555 1_555
H11 C16 1_555 1_555
C17 N1 1_555 1_555
H12 C17 1_555 1_555
C18 B1 1_555 1_555
C19 C18 1_555 1_555
C20 C19 1_555 1_555
H13 C20 1_555 1_555
C21 C20 1_555 1_555
C22 C21 1_555 1_555
H14 C22 1_555 1_555
C23 C18 1_555 1_555
C24 C23 1_555 1_555
H15 C24 1_555 1_555
H16 C24 1_555 1_555
H17 C24 1_555 1_555
C25 C19 1_555 1_555
H18 C25 1_555 1_555
H19 C25 1_555 1_555
H20 C25 1_555 1_555
C26 C21 1_555 1_555
H21 C26 1_555 1_555
H22 C26 1_555 1_555
H23 C26 1_555 1_555
C27 B1 1_555 1_555
C28 C27 1_555 1_555
C29 C28 1_555 1_555
H24 C29 1_555 1_555
C30 C29 1_555 1_555
C31 C30 1_555 1_555
H25 C31 1_555 1_555
C32 C27 1_555 1_555
C33 C32 1_555 1_555
H26 C33 1_555 1_555
H27 C33 1_555 1_555
H28 C33 1_555 1_555
C34 C28 1_555 1_555
H29 C34 1_555 1_555
H30 C34 1_555 1_555
H31 C34 1_555 1_555
C35 C30 1_555 1_555
H32 C35 1_555 1_555
H33 C35 1_555 1_555
H34 C35 1_555 1_555
C5 C10 1_555 1_555
C9 C10 1_555 1_555
C11 C12 1_555 1_555
C16 C17 1_555 1_555
C22 C23 1_555 1_555
C31 C32 1_555 1_555

#END
