
#######################################################################
#
#                 Cambridge Crystallographic Data Centre
#                                CCDC 
#
#######################################################################
#
# If this CIF has been generated from an entry in the Cambridge 
# Structural Database, then it will include bibliographic, chemical, 
# crystal, experimental, refinement or atomic coordinate data resulting 
# from the CCDC's data processing and validation procedures.
#
#######################################################################

data_JEWXUF
_chemical_formula_moiety         'C57 H46 N14 O3,3(C1 H1 Cl3)'
_chemical_name_systematic        
"6,6'-((2-(3,4,5-Trimethoxyphenyl)pyrimidine-4,6-diyl)bis((2-methylhydrazin-2-yl-1-ylidene)methylylidene(2-phenylpyrimidine-6,4-diyl)))bis(2,2'-bipyridine) chloroform solvate"
_symmetry_cell_setting           triclinic
_symmetry_space_group_name_H-M   'P -1'
_symmetry_Int_Tables_number      2
_space_group_name_Hall           '-P 1'
loop_
_symmetry_equiv_pos_site_id
_symmetry_equiv_pos_as_xyz
1 x,y,z
2 -x,-y,-z
_cell_length_a                   13.8400(10)
_cell_length_b                   15.0840(10)
_cell_length_c                   16.3080(10)
_cell_angle_alpha                82.84(5)
_cell_angle_beta                 70.59(5)
_cell_angle_gamma                75.03(5)
_cell_volume                     3099.21
_exptl_crystal_colour            colorless
_exptl_crystal_description       prism
_chemical_melting_point          'above 250deg.C(dec.)'
_cell_formula_units_Z            2
loop_
_atom_site_label
_atom_site_type_symbol
_atom_site_fract_x
_atom_site_fract_y
_atom_site_fract_z
C1 C 1.4536(4) -0.3672(3) -0.3092(3)
H1 H 1.5023 -0.4018 -0.2810
C2 C 1.3614(5) -0.3153(3) -0.2592(3)
H2 H 1.3463 -0.3144 -0.1980
C3 C 1.2909(4) -0.2642(3) -0.2994(3)
H3 H 1.2260 -0.2270 -0.2665
C4 C 1.3157(3) -0.2678(3) -0.3881(2)
H4 H 1.2683 -0.2328 -0.4174
C5 C 1.4102(3) -0.3230(2) -0.4340(2)
C6 C 1.4406(3) -0.3328(2) -0.5294(2)
C7 C 1.5246(3) -0.4004(2) -0.5717(2)
H5 H 1.5664 -0.4414 -0.5407
C8 C 1.5471(3) -0.4073(2) -0.6602(2)
H6 H 1.6040 -0.4540 -0.6907
C9 C 1.4865(3) -0.3462(2) -0.7039(2)
H7 H 1.5009 -0.3498 -0.7648
C10 C 1.4041(3) -0.2796(2) -0.6573(2)
C11 C 1.3368(3) -0.2100(2) -0.7001(2)
C12 C 1.2601(3) -0.1392(2) -0.6558(2)
H8 H 1.2480 -0.1330 -0.5957
C13 C 1.2008(3) -0.0772(2) -0.7006(2)
C14 C 1.2943(3) -0.1560(2) -0.8242(2)
C15 C 1.3183(3) -0.1643(2) -0.9190(2)
C16 C 1.4127(4) -0.2067(4) -0.9681(3)
H9 H 1.4653 -0.2344 -0.9414
C17 C 1.4369(5) -0.2117(4) -1.0574(3)
H10 H 1.5049 -0.2437 -1.0904
C18 C 1.3665(5) -0.1726(3) -1.0970(3)
C19 C 1.2642(6) -0.1359(5) -1.0465(3)
H11 H 1.2106 -0.1132 -1.0731
C20 C 1.2400(5) -0.1323(4) -0.9568(3)
H12 H 1.1698 -0.1078 -0.9220
C21 C 1.1219(3) 0.0031(2) -0.6596(2)
H13 H 1.0717 0.0386 -0.6859
C22 C 0.9724(3) 0.1546(3) -0.5748(3)
H14 H 1.0036 0.1823 -0.6320
H15 H 0.9311 0.2032 -0.5339
H16 H 0.9263 0.1173 -0.5797
C23 C 1.0689(3) 0.1116(2) -0.4651(2)
C24 C 1.1541(3) 0.0595(2) -0.4401(2)
H17 H 1.2082 0.0149 -0.4761
C25 C 1.1545(3) 0.0774(2) -0.3585(2)
C26 C 1.0050(3) 0.1894(2) -0.3405(2)
C27 C 0.9252(3) 0.2642(2) -0.2880(2)
C28 C 0.8544(3) 0.3259(2) -0.3242(2)
H18 H 0.8572 0.3196 -0.3822
C29 C 0.7802(3) 0.3960(2) -0.2755(2)
C30 C 0.7756(3) 0.4048(2) -0.1906(2)
C31 C 0.8465(3) 0.3435(2) -0.1546(2)
C32 C 0.9206(3) 0.2733(2) -0.2027(2)
H19 H 0.9683 0.2312 -0.1778
C33 C 0.7245(3) 0.4664(3) -0.3972(2)
H20 H 0.7947 0.4774 -0.4275
H21 H 0.6711 0.5175 -0.4106
H22 H 0.7195 0.4091 -0.4163
C34 C 0.5996(4) 0.4673(4) -0.1110(3)
H23 H 0.5771 0.4607 -0.1604
H24 H 0.5539 0.5218 -0.0795
H25 H 0.5949 0.4127 -0.0718
C35 C 0.9123(5) 0.3019(3) -0.0335(3)
H26 H 0.9068 0.2380 -0.0304
H27 H 0.8989 0.3213 0.0252
H28 H 0.9833 0.3068 -0.0698
C36 C 1.2245(3) 0.0285(3) -0.2334(2)
H29 H 1.2223 -0.0333 -0.2071
H30 H 1.1595 0.0721 -0.2037
H31 H 1.2851 0.0464 -0.2277
C37 C 1.3965(3) -0.0709(2) -0.3577(2)
H32 H 1.3946 -0.0728 -0.2988
C38 C 1.4877(3) -0.1229(2) -0.4229(2)
C39 C 1.4951(3) -0.1171(2) -0.5102(2)
H33 H 1.4407 -0.0790 -0.5306
C40 C 1.5841(3) -0.1687(2) -0.5661(2)
C41 C 1.6481(3) -0.2238(2) -0.4532(2)
C42 C 1.7349(3) -0.2833(2) -0.4228(3)
C43 C 1.7181(4) -0.3085(3) -0.3357(3)
H34 H 1.6508 -0.2874 -0.2946
C44 C 1.7996(4) -0.3647(3) -0.3078(3)
H35 H 1.7877 -0.3822 -0.2479
C45 C 1.8969(4) -0.3947(3) -0.3672(4)
H36 H 1.9525 -0.4328 -0.3483
C46 C 1.9140(4) -0.3698(3) -0.4543(4)
H37 H 1.9814 -0.3907 -0.4953
C47 C 1.8331(3) -0.3143(3) -0.4819(3)
H38 H 1.8452 -0.2975 -0.5420
C48 C 1.5984(3) -0.1673(2) -0.6609(2)
C49 C 1.6796(3) -0.2290(3) -0.7162(2)
H39 H 1.7299 -0.2726 -0.6951
C50 C 1.6850(3) -0.2251(3) -0.8021(3)
H40 H 1.7384 -0.2674 -0.8411
C51 C 1.6121(3) -0.1592(3) -0.8317(2)
H41 H 1.6147 -0.1558 -0.8909
C52 C 1.5354(3) -0.0985(3) -0.7730(2)
C53 C 1.4577(3) -0.0225(3) -0.8002(2)
C54 C 1.3867(3) 0.0414(3) -0.7426(3)
H42 H 1.3854 0.0369 -0.6836
C55 C 1.3176(4) 0.1120(3) -0.7708(3)
H43 H 1.2677 0.1567 -0.7322
C56 C 1.3241(5) 0.1150(4) -0.8574(4)
H44 H 1.2791 0.1629 -0.8802
C57 C 1.3965(5) 0.0479(4) -0.9104(3)
H45 H 1.3989 0.0504 -0.9696
N1 N 1.4796(3) -0.3725(2) -0.3946(2)
N2 N 1.3798(2) -0.27271(17) -0.57077(17)
N3 N 1.3549(2) -0.21851(18) -0.78590(17)
N4 N 1.2165(2) -0.08603(19) -0.78567(17)
N5 N 1.1240(2) 0.02337(18) -0.58581(17)
N6 N 1.0556(2) 0.09685(19) -0.54320(18)
N7 N 0.9949(2) 0.17729(18) -0.41704(17)
N8 N 1.0802(2) 0.14062(19) -0.30753(18)
N9 N 1.2344(2) 0.02890(19) -0.32536(17)
N10 N 1.3192(2) -0.02279(18) -0.38226(17)
N11 N 1.5649(2) -0.17597(19) -0.39356(18)
N12 N 1.6619(2) -0.22237(19) -0.53846(19)
N13 N 1.5278(2) -0.1027(2) -0.68864(18)
N14 N 1.4625(3) -0.0197(3) -0.8838(2)
O1 O 0.7074(2) 0.45895(17) -0.30508(15)
O2 O 0.7057(2) 0.47693(17) -0.14180(16)
O3 O 0.8364(3) 0.35954(18) -0.07073(16)
H49 H 1.383(4) -0.177(4) -1.151(4)
C58 C 0.8597(5) 0.5014(6) 0.2633(4)
Cl1 Cl 0.80645(19) 0.4751(3) 0.37334(16)
Cl3 Cl 0.9339(2) 0.57693(16) 0.2429(2)
Cl5 Cl 0.9328(3) 0.3942(2) 0.21256(18)
H48 H 0.804(6) 0.515(5) 0.237(5)
C59 C 0.7522(4) 0.5544(3) 0.0103(3)
Cl7 Cl 0.6879(4) 0.5026(4) 0.1094(3)
Cl9 Cl 0.6716(5) 0.6589(3) -0.0068(4)
Cl11 Cl 0.8719(2) 0.5665(2) 0.01846(18)
H46 H 0.764(3) 0.518(3) -0.029(2)
C60 C 0.9112(5) 0.9062(6) -0.1040(6)
Cl13 Cl 0.8497(5) 0.8764(3) -0.0002(3)
Cl15 Cl 1.0166(2) 0.9393(3) -0.1449(3)
Cl17 Cl 0.9480(3) 0.7949(2) -0.16885(18)
H47 H 0.891(6) 0.942(5) -0.125(5)
Cl2? Cl 0.9740(10) 0.5174(16) 0.2025(7)
Cl4? Cl 0.8300(14) 0.4226(9) 0.3074(17)
Cl6? Cl 0.8497(13) 0.5614(10) 0.3641(9)
Cl8? Cl 0.706(3) 0.6618(13) -0.0257(19)
Cl10? Cl 0.8543(19) 0.570(2) -0.004(2)
Cl12? Cl 0.6634(15) 0.5269(17) 0.0972(13)
Cl14? Cl 1.0033(7) 0.8496(4) -0.1651(4)
Cl16? Cl 0.8645(17) 0.8457(15) -0.0257(14)
Cl18? Cl 0.9887(4) 0.9796(4) -0.0509(3)
loop_
_geom_bond_atom_site_label_1
_geom_bond_atom_site_label_2
_geom_bond_site_symmetry_1
_geom_bond_site_symmetry_2
C1 H1 1_555 1_555
C2 C1 1_555 1_555
H2 C2 1_555 1_555
C3 C2 1_555 1_555
H3 C3 1_555 1_555
C4 C3 1_555 1_555
H4 C4 1_555 1_555
C5 C4 1_555 1_555
C6 C5 1_555 1_555
C7 C6 1_555 1_555
H5 C7 1_555 1_555
C8 C7 1_555 1_555
H6 C8 1_555 1_555
C9 C8 1_555 1_555
H7 C9 1_555 1_555
C10 C9 1_555 1_555
C11 C10 1_555 1_555
C12 C11 1_555 1_555
H8 C12 1_555 1_555
C13 C12 1_555 1_555
C14 C15 1_555 1_555
C15 C16 1_555 1_555
C16 H9 1_555 1_555
C17 C16 1_555 1_555
H10 C17 1_555 1_555
C18 C17 1_555 1_555
C19 C18 1_555 1_555
H11 C19 1_555 1_555
C20 C15 1_555 1_555
H12 C20 1_555 1_555
C21 C13 1_555 1_555
H13 C21 1_555 1_555
C22 H14 1_555 1_555
H15 C22 1_555 1_555
H16 C22 1_555 1_555
C23 C24 1_555 1_555
C24 H17 1_555 1_555
C25 C24 1_555 1_555
C26 C27 1_555 1_555
C27 C28 1_555 1_555
C28 H18 1_555 1_555
C29 C28 1_555 1_555
C30 C29 1_555 1_555
C31 C30 1_555 1_555
C32 C27 1_555 1_555
H19 C32 1_555 1_555
C33 H20 1_555 1_555
H21 C33 1_555 1_555
H22 C33 1_555 1_555
C34 H23 1_555 1_555
H24 C34 1_555 1_555
H25 C34 1_555 1_555
C35 H26 1_555 1_555
H27 C35 1_555 1_555
H28 C35 1_555 1_555
C36 H29 1_555 1_555
H30 C36 1_555 1_555
H31 C36 1_555 1_555
C37 H32 1_555 1_555
C38 C37 1_555 1_555
C39 C38 1_555 1_555
H33 C39 1_555 1_555
C40 C39 1_555 1_555
C41 C42 1_555 1_555
C42 C43 1_555 1_555
C43 H34 1_555 1_555
C44 C43 1_555 1_555
H35 C44 1_555 1_555
C45 C44 1_555 1_555
H36 C45 1_555 1_555
C46 C45 1_555 1_555
H37 C46 1_555 1_555
C47 C42 1_555 1_555
H38 C47 1_555 1_555
C48 C40 1_555 1_555
C49 C48 1_555 1_555
H39 C49 1_555 1_555
C50 C49 1_555 1_555
H40 C50 1_555 1_555
C51 C50 1_555 1_555
H41 C51 1_555 1_555
C52 C51 1_555 1_555
C53 C52 1_555 1_555
C54 C53 1_555 1_555
H42 C54 1_555 1_555
C55 C54 1_555 1_555
H43 C55 1_555 1_555
C56 C55 1_555 1_555
H44 C56 1_555 1_555
C57 C56 1_555 1_555
H45 C57 1_555 1_555
C58 Cl1 1_555 1_555
C59 Cl7 1_555 1_555
C60 Cl13 1_555 1_555
N1 C1 1_555 1_555
N2 C6 1_555 1_555
N3 C11 1_555 1_555
N4 C13 1_555 1_555
N5 C21 1_555 1_555
N6 C22 1_555 1_555
N7 C23 1_555 1_555
N8 C25 1_555 1_555
N9 C25 1_555 1_555
N10 C37 1_555 1_555
N11 C38 1_555 1_555
N12 C40 1_555 1_555
N13 C48 1_555 1_555
N14 C53 1_555 1_555
O1 C29 1_555 1_555
O2 C30 1_555 1_555
O3 C31 1_555 1_555
Cl3 C58 1_555 1_555
Cl5 C58 1_555 1_555
Cl9 C59 1_555 1_555
Cl11 C59 1_555 1_555
Cl15 C60 1_555 1_555
Cl17 C60 1_555 1_555
H46 C59 1_555 1_555
H47 C60 1_555 1_555
H48 C58 1_555 1_555
H49 C18 1_555 1_555
C5 N1 1_555 1_555
C10 N2 1_555 1_555
C14 N3 1_555 1_555
C14 N4 1_555 1_555
C19 C20 1_555 1_555
C23 N6 1_555 1_555
C26 N7 1_555 1_555
C26 N8 1_555 1_555
C31 C32 1_555 1_555
C33 O1 1_555 1_555
C34 O2 1_555 1_555
C35 O3 1_555 1_555
C36 N9 1_555 1_555
C41 N11 1_555 1_555
C41 N12 1_555 1_555
C46 C47 1_555 1_555
C52 N13 1_555 1_555
C57 N14 1_555 1_555
N5 N6 1_555 1_555
N9 N10 1_555 1_555

#END
