
#######################################################################
#
#                 Cambridge Crystallographic Data Centre
#                                CCDC 
#
#######################################################################
#
# If this CIF has been generated from an entry in the Cambridge 
# Structural Database, then it will include bibliographic, chemical, 
# crystal, experimental, refinement or atomic coordinate data resulting 
# from the CCDC's data processing and validation procedures.
#
#######################################################################

data_JEXYIU01
_chemical_compound_source        'dried and crushed leaves of Isodon japonica'
_chemical_formula_moiety         'C28 H38 O10'
_chemical_name_systematic        
1\a,6,11\b,15\b-Tetraacetoxy-6,7-seco-7,20-olide-ent-kaur-16-ene
_chemical_properties_biological  
'isolated from plant which is used as antibacterial, inflammation-diminishing and stomachic agent'
_symmetry_cell_setting           orthorhombic
_symmetry_space_group_name_H-M   'P 21 21 21'
_symmetry_Int_Tables_number      19
_space_group_name_Hall           'P 2ac 2ab'
loop_
_symmetry_equiv_pos_site_id
_symmetry_equiv_pos_as_xyz
1 x,y,z
2 1/2-x,-y,1/2+z
3 -x,1/2+y,1/2-z
4 1/2+x,1/2-y,-z
_cell_length_a                   11.144(2)
_cell_length_b                   14.352(2)
_cell_length_c                   17.151(2)
_cell_angle_alpha                90
_cell_angle_beta                 90
_cell_angle_gamma                90
_cell_volume                     2743.11
_exptl_crystal_colour            colorless
_exptl_crystal_description       block
_chemical_melting_point          '487 K'
_cell_formula_units_Z            4
_exptl_crystal_recrystallization_method chloroform/acetone
loop_
_atom_site_label
_atom_site_type_symbol
_atom_site_fract_x
_atom_site_fract_y
_atom_site_fract_z
O1 O 0.4815(2) 0.20063(14) 0.80841(12)
O2 O 0.4197(3) 0.19593(16) 0.92885(13)
O3 O 0.5462(2) 0.37683(15) 0.85187(11)
O4 O 0.5941(2) 0.52204(18) 0.88756(14)
O5 O 0.2341(2) 0.32231(15) 0.60528(12)
O6 O 0.2125(3) 0.43922(18) 0.52053(16)
O7 O 0.27261(18) 0.50721(13) 0.71704(10)
O8 O 0.2612(2) 0.64692(14) 0.77492(13)
O9 O 0.1857(2) 0.19251(15) 0.75918(11)
O10 O 0.0801(3) 0.07003(17) 0.80179(15)
C1 C 0.5410(3) 0.4029(2) 0.76947(16)
H1 H 0.5165 0.4684 0.7666
C2 C 0.6627(3) 0.3951(2) 0.73331(17)
H2 H 0.6862 0.3301 0.7298
H3 H 0.7214 0.4277 0.7649
C3 C 0.6567(3) 0.4378(2) 0.65256(18)
H4 H 0.7358 0.4353 0.6290
H5 H 0.6341 0.5029 0.6572
C4 C 0.5671(3) 0.3885(2) 0.59883(17)
C5 C 0.4418(3) 0.3761(2) 0.64077(15)
H6 H 0.4053 0.4382 0.6406
C6 C 0.3601(3) 0.3156(2) 0.58785(17)
H7 H 0.3726 0.3340 0.5340
H8 H 0.3845 0.2510 0.5927
C7 C 0.4062(4) 0.2282(2) 0.8647(2)
C8 C 0.3038(3) 0.2933(2) 0.84516(16)
C9 C 0.3195(3) 0.35912(18) 0.77162(16)
H9 H 0.2591 0.3381 0.7340
C10 C 0.4435(3) 0.34473(18) 0.73016(16)
C11 C 0.2846(3) 0.46020(19) 0.79211(15)
H10 H 0.3490 0.4894 0.8224
C12 C 0.1660(3) 0.4689(2) 0.83591(18)
H11 H 0.1009 0.4728 0.7985
H12 H 0.1664 0.5261 0.8661
C13 C 0.1430(3) 0.3853(2) 0.8915(2)
H13 H 0.0930 0.4031 0.9360
C14 C 0.2648(3) 0.3490(2) 0.91734(16)
H14 H 0.2580 0.3094 0.9629
H15 H 0.3200 0.3996 0.9283
C15 C 0.1890(3) 0.2349(2) 0.83479(17)
H16 H 0.1855 0.1866 0.8751
C16 C 0.0905(4) 0.3042(3) 0.8476(2)
C17 C -0.0187(4) 0.2974(3) 0.8192(3)
H17 H -0.0395 0.2465 0.7885
H18 H -0.0750 0.3434 0.8298
C18 C 0.5480(3) 0.4543(2) 0.52889(17)
H19 H 0.5097 0.5105 0.5463
H20 H 0.4982 0.4242 0.4908
H21 H 0.6242 0.4692 0.5060
C19 C 0.6229(3) 0.2977(2) 0.56808(19)
H22 H 0.6921 0.3121 0.5369
H23 H 0.5651 0.2650 0.5369
H24 H 0.6465 0.2592 0.6112
C20 C 0.4659(3) 0.23983(19) 0.73156(16)
H25 H 0.3988 0.2089 0.7065
H26 H 0.5371 0.2266 0.7010
C21 C 0.5810(3) 0.4415(3) 0.9038(2)
C22 C 0.5990(4) 0.3984(3) 0.98173(18)
H27 H 0.6824 0.4014 0.9955
H28 H 0.5737 0.3345 0.9802
H29 H 0.5525 0.4316 1.0198
C23 C 0.1707(4) 0.3882(3) 0.5675(2)
C24 C 0.0438(4) 0.3871(3) 0.5937(3)
H30 H 0.0307 0.4369 0.6301
H31 H 0.0266 0.3286 0.6185
H32 H -0.0081 0.3950 0.5495
C25 C 0.2624(3) 0.6006(2) 0.7163(2)
C26 C 0.2530(3) 0.6360(2) 0.63549(18)
H33 H 0.2581 0.7028 0.6358
H34 H 0.1775 0.6173 0.6135
H35 H 0.3173 0.6109 0.6047
C27 C 0.1261(3) 0.1119(2) 0.7496(2)
C28 C 0.1243(3) 0.0857(2) 0.66549(18)
H36 H 0.1029 0.0212 0.6605
H37 H 0.2024 0.0956 0.6433
H38 H 0.0665 0.1234 0.6385
loop_
_geom_bond_atom_site_label_1
_geom_bond_atom_site_label_2
_geom_bond_site_symmetry_1
_geom_bond_site_symmetry_2
O1 C7 1_555 1_555
O2 C7 1_555 1_555
O3 C1 1_555 1_555
O4 C21 1_555 1_555
O5 C6 1_555 1_555
O6 C23 1_555 1_555
O7 C11 1_555 1_555
O8 C25 1_555 1_555
O9 C15 1_555 1_555
O10 C27 1_555 1_555
C1 H1 1_555 1_555
C2 C1 1_555 1_555
H2 C2 1_555 1_555
H3 C2 1_555 1_555
C3 C2 1_555 1_555
H4 C3 1_555 1_555
H5 C3 1_555 1_555
C4 C3 1_555 1_555
C5 C4 1_555 1_555
H6 C5 1_555 1_555
C6 C5 1_555 1_555
H7 C6 1_555 1_555
H8 C6 1_555 1_555
C7 C8 1_555 1_555
C8 C9 1_555 1_555
C9 H9 1_555 1_555
C10 C1 1_555 1_555
C11 C9 1_555 1_555
H10 C11 1_555 1_555
C12 C11 1_555 1_555
H11 C12 1_555 1_555
H12 C12 1_555 1_555
C13 C12 1_555 1_555
H13 C13 1_555 1_555
C14 C8 1_555 1_555
H14 C14 1_555 1_555
H15 C14 1_555 1_555
C15 C8 1_555 1_555
H16 C15 1_555 1_555
C16 C13 1_555 1_555
C17 C16 1_555 1_555
H17 C17 1_555 1_555
H18 C17 1_555 1_555
C18 C4 1_555 1_555
H19 C18 1_555 1_555
H20 C18 1_555 1_555
H21 C18 1_555 1_555
C19 C4 1_555 1_555
H22 C19 1_555 1_555
H23 C19 1_555 1_555
H24 C19 1_555 1_555
C20 O1 1_555 1_555
H25 C20 1_555 1_555
H26 C20 1_555 1_555
C21 O3 1_555 1_555
C22 C21 1_555 1_555
H27 C22 1_555 1_555
H28 C22 1_555 1_555
H29 C22 1_555 1_555
C23 O5 1_555 1_555
C24 C23 1_555 1_555
H30 C24 1_555 1_555
H31 C24 1_555 1_555
H32 C24 1_555 1_555
C25 O7 1_555 1_555
C26 C25 1_555 1_555
H33 C26 1_555 1_555
H34 C26 1_555 1_555
H35 C26 1_555 1_555
C27 O9 1_555 1_555
C28 C27 1_555 1_555
H36 C28 1_555 1_555
H37 C28 1_555 1_555
H38 C28 1_555 1_555
C5 C10 1_555 1_555
C9 C10 1_555 1_555
C10 C20 1_555 1_555
C13 C14 1_555 1_555
C15 C16 1_555 1_555

#END
