
#######################################################################
#
#                 Cambridge Crystallographic Data Centre
#                                CCDC 
#
#######################################################################
#
# If this CIF has been generated from an entry in the Cambridge 
# Structural Database, then it will include bibliographic, chemical, 
# crystal, experimental, refinement or atomic coordinate data resulting 
# from the CCDC's data processing and validation procedures.
#
#######################################################################

data_JEXYIU
_chemical_compound_source        'Rabdosia henryi (Hemsl) Hara'
_chemical_formula_moiety         'C28 H38 O10'
_chemical_name_systematic        Norhendosin
_symmetry_cell_setting           orthorhombic
_symmetry_space_group_name_H-M   'P 21 21 21'
_symmetry_Int_Tables_number      19
_space_group_name_Hall           'P 2ac 2ab'
loop_
_symmetry_equiv_pos_site_id
_symmetry_equiv_pos_as_xyz
1 x,y,z
2 1/2+x,1/2-y,-z
3 -x,1/2+y,1/2-z
4 1/2-x,-y,1/2+z
_cell_length_a                   11.144(2)
_cell_length_b                   14.333(3)
_cell_length_c                   17.146(3)
_cell_angle_alpha                90
_cell_angle_beta                 90
_cell_angle_gamma                90
_cell_volume                     2738.68
_exptl_crystal_colour            colorless
_chemical_melting_point          223-223.5deg.C
_cell_formula_units_Z            4
loop_
_atom_site_label
_atom_site_type_symbol
_atom_site_fract_x
_atom_site_fract_y
_atom_site_fract_z
O1 O 0.2278(3) 0.5071(2) 0.2168(2)
O2 O 0.2392(4) 0.6470(2) 0.2748(2)
O3 O -0.0463(3) 0.3771(3) 0.3523(2)
O4 O -0.0954(4) 0.5224(3) 0.3869(2)
O5 O 0.3143(4) 0.1918(3) 0.2594(2)
O6 O 0.4189(5) 0.0695(3) 0.3024(3)
O7 O 0.0789(4) 0.1958(3) 0.4294(2)
O8 O 0.2660(3) 0.3216(2) 0.1060(2)
O9 O 0.2878(5) 0.4385(3) 0.0205(3)
O10 O 0.0180(4) 0.2004(2) 0.3088(2)
C1 C -0.0399(5) 0.4038(3) 0.2685(3)
C2 C -0.1638(5) 0.3943(4) 0.2325(3)
C3 C -0.1570(5) 0.4371(4) 0.1519(3)
C4 C -0.0670(5) 0.3885(4) 0.0984(3)
C5 C 0.0593(5) 0.3761(3) 0.1404(3)
C6 C 0.1412(5) 0.3152(4) 0.0876(3)
C7 C 0.0936(6) 0.2274(3) 0.3651(3)
C8 C 0.1949(5) 0.2932(3) 0.3456(3)
C9 C 0.1804(5) 0.3586(3) 0.2711(3)
C10 C 0.0571(4) 0.3453(3) 0.2298(3)
C11 C 0.2157(4) 0.4602(3) 0.2929(3)
C12 C 0.3362(5) 0.4686(4) 0.3352(3)
C13 C 0.3569(6) 0.3852(4) 0.3920(3)
C14 C 0.2356(6) 0.3484(4) 0.4178(3)
C15 C 0.3105(5) 0.2341(4) 0.3354(3)
C16 C 0.4107(5) 0.3037(4) 0.3471(4)
C17 C 0.5193(6) 0.2963(6) 0.3245(6)
C18 C -0.1215(6) 0.2962(4) 0.0687(3)
C19 C -0.0446(6) 0.4536(5) 0.0294(3)
C20 C 0.0321(5) 0.2393(3) 0.2317(3)
C21 C 0.2380(5) 0.6015(3) 0.2159(3)
C22 C 0.2474(6) 0.6382(4) 0.1343(3)
C23 C -0.0807(6) 0.4422(4) 0.4036(3)
C24 C -0.1019(8) 0.3997(5) 0.4828(3)
C25 C 0.3733(5) 0.1116(4) 0.2497(4)
C26 C 0.2732(7) 0.0830(4) 0.1652(3)
C27 C 0.3302(6) 0.3871(4) 0.0685(3)
C28 C 0.4548(6) 0.3829(6) 0.0673(5)
loop_
_geom_bond_atom_site_label_1
_geom_bond_atom_site_label_2
_geom_bond_site_symmetry_1
_geom_bond_site_symmetry_2
O1 C11 1_555 1_555
O2 C21 1_555 1_555
O3 C1 1_555 1_555
O4 C23 1_555 1_555
O5 C15 1_555 1_555
O6 C25 1_555 1_555
O7 C7 1_555 1_555
O8 C6 1_555 1_555
O9 C27 1_555 1_555
O10 C7 1_555 1_555
C1 C2 1_555 1_555
C2 C3 1_555 1_555
C3 C4 1_555 1_555
C4 C5 1_555 1_555
C5 C6 1_555 1_555
C7 C8 1_555 1_555
C8 C9 1_555 1_555
C9 C10 1_555 1_555
C10 C1 1_555 1_555
C11 C9 1_555 1_555
C12 C11 1_555 1_555
C13 C12 1_555 1_555
C14 C8 1_555 1_555
C15 C8 1_555 1_555
C16 C13 1_555 1_555
C17 C16 1_555 1_555
C18 C4 1_555 1_555
C19 C4 1_555 1_555
C20 O10 1_555 1_555
C21 O1 1_555 1_555
C22 C21 1_555 1_555
C23 O3 1_555 1_555
C24 C23 1_555 1_555
C25 O5 1_555 1_555
C26 C25 1_555 1_555
C27 O8 1_555 1_555
C28 C27 1_555 1_555
C5 C10 1_555 1_555
C10 C20 1_555 1_555
C13 C14 1_555 1_555
C15 C16 1_555 1_555

#END
