
#######################################################################
#
#                 Cambridge Crystallographic Data Centre
#                                CCDC 
#
#######################################################################
#
# If this CIF has been generated from an entry in the Cambridge 
# Structural Database, then it will include bibliographic, chemical, 
# crystal, experimental, refinement or atomic coordinate data resulting 
# from the CCDC's data processing and validation procedures.
#
#######################################################################

data_JEYKII
_chemical_formula_moiety         'C21 H27 N1 O6 S1'
_chemical_name_systematic        
7-((benzyloxy)methyl)-1-(4-methylphenylsulfonyl)azepane-3,4,5-triol
_symmetry_cell_setting           monoclinic
_symmetry_space_group_name_H-M   'P 21'
_symmetry_Int_Tables_number      4
_space_group_name_Hall           'P 2yb'
loop_
_symmetry_equiv_pos_site_id
_symmetry_equiv_pos_as_xyz
1 x,y,z
2 -x,1/2+y,-z
_cell_length_a                   5.4539(15)
_cell_length_b                   9.571(3)
_cell_length_c                   19.784(5)
_cell_angle_alpha                90
_cell_angle_beta                 95.707(5)
_cell_angle_gamma                90
_cell_volume                     1027.59
_exptl_crystal_colour            colorless
_exptl_crystal_description       columnar
_cell_formula_units_Z            4
_exptl_crystal_recrystallization_method 'ethyl acetate/dichloromethane'
loop_
_atom_site_label
_atom_site_type_symbol
_atom_site_fract_x
_atom_site_fract_y
_atom_site_fract_z
N1 N 0.2607(5) 0.4259(3) 0.34019(13)
O1 O 0.1134(4) 0.2336(2) 0.40894(11)
O2 O -0.1322(4) 0.3090(3) 0.30157(12)
O3 O 0.5066(5) 0.5302(3) 0.51274(10)
H1 H 0.5002 0.4513 0.5285
O4 O 0.5295(4) 0.7623(2) 0.43865(10)
O5 O -0.0934(4) 0.6710(3) 0.36310(12)
O6 O 0.2861(4) 0.5655(3) 0.16838(10)
S1 S 0.10163(16) 0.28212(9) 0.33965(4)
C1 C 0.4072(7) 0.6175(4) -0.00932(18)
C2 C 0.3094(8) 0.6973(5) -0.06432(17)
C3 C 0.1187(8) 0.7859(6) -0.05849(18)
C4 C 0.0193(8) 0.7958(6) 0.0032(2)
C5 C 0.1123(7) 0.7159(4) 0.05803(16)
C6 C 0.3077(6) 0.6259(4) 0.05186(16)
C7 C 0.4142(6) 0.5385(4) 0.11110(17)
C8 C 0.3751(7) 0.4856(4) 0.22625(17)
C9 C 0.2163(6) 0.5238(3) 0.28268(15)
C10 C 0.2688(6) 0.6759(4) 0.30561(15)
C11 C 0.1490(6) 0.7258(3) 0.36693(16)
C12 C 0.2937(6) 0.6939(3) 0.43551(15)
C13 C 0.3428(6) 0.5395(3) 0.45109(16)
C14 C 0.4503(6) 0.4544(3) 0.39612(16)
C15 C 0.2543(6) 0.1552(4) 0.29387(17)
C16 C 0.4644(7) 0.0935(4) 0.32308(16)
C17 C 0.5920(7) 0.0000(4) 0.28603(19)
C18 C 0.5083(7) -0.0306(4) 0.21877(19)
C19 C 0.2959(8) 0.0320(4) 0.19075(19)
C20 C 0.1667(6) 0.1249(4) 0.22771(18)
C21 C 0.6516(8) -0.1316(4) 0.1785(2)
H2 H 0.5703 -0.1411 0.1334
H3 H 0.6598 -0.2211 0.2005
H4 H 0.8154 -0.0965 0.1761
H5 H 0.6101 0.5606 0.1225
H6 H 0.5806 0.4932 0.3735
H7 H 0.1705 0.4908 0.4616
H8 H 0.5645 0.0961 0.3702
H9 H 0.5684 0.5604 -0.0199
H10 H 0.0367 0.5021 0.2679
H11 H 0.0085 0.1738 0.2062
H12 H 0.1931 0.7274 0.4748
H13 H 0.0019 0.7052 0.1049
H14 H 0.2154 0.0102 0.1451
H15 H 0.2030 0.7239 0.2677
H16 H 0.1482 0.8377 0.3691
H17 H -0.1633 0.8277 -0.0002
H18 H 0.4441 0.7003 0.3111
H19 H -0.2013 0.7143 0.3927
H20 H 0.4983 0.8625 0.4416
H21 H 0.4832 0.3482 0.4178
H22 H 0.0179 0.8339 -0.1030
H23 H 0.7472 -0.0437 0.3092
H24 H 0.4001 0.4232 0.1020
H25 H 0.5522 0.5006 0.2496
H26 H 0.3885 0.7142 -0.1118
H27 H 0.3585 0.3816 0.2097
loop_
_geom_bond_atom_site_label_1
_geom_bond_atom_site_label_2
_geom_bond_site_symmetry_1
_geom_bond_site_symmetry_2
N1 S1 1_555 1_555
O1 S1 1_555 1_555
O2 S1 1_555 1_555
O3 H1 1_555 1_555
O4 C12 1_555 1_555
O5 C11 1_555 1_555
O6 C7 1_555 1_555
S1 C15 1_555 1_555
C1 C2 1_555 1_555
C2 C3 1_555 1_555
C3 C4 1_555 1_555
C4 C5 1_555 1_555
C5 C6 1_555 1_555
C6 C1 1_555 1_555
C7 C6 1_555 1_555
C8 O6 1_555 1_555
C9 N1 1_555 1_555
C10 C9 1_555 1_555
C11 C10 1_555 1_555
C12 C11 1_555 1_555
C13 O3 1_555 1_555
C14 N1 1_555 1_555
C15 C16 1_555 1_555
C16 C17 1_555 1_555
C17 C18 1_555 1_555
C18 C19 1_555 1_555
C19 C20 1_555 1_555
C20 C15 1_555 1_555
C21 C18 1_555 1_555
H2 C21 1_555 1_555
H3 C21 1_555 1_555
H4 C21 1_555 1_555
H5 C7 1_555 1_555
H6 C14 1_555 1_555
H7 C13 1_555 1_555
H8 C16 1_555 1_555
H9 C1 1_555 1_555
H10 C9 1_555 1_555
H11 C20 1_555 1_555
H12 C12 1_555 1_555
H13 C5 1_555 1_555
H14 C19 1_555 1_555
H15 C10 1_555 1_555
H16 C11 1_555 1_555
H17 C4 1_555 1_555
H18 C10 1_555 1_555
H19 O5 1_555 1_555
H20 O4 1_555 1_555
H21 C14 1_555 1_555
H22 C3 1_555 1_555
H23 C17 1_555 1_555
H24 C7 1_555 1_555
H25 C8 1_555 1_555
H26 C2 1_555 1_555
H27 C8 1_555 1_555
C8 C9 1_555 1_555
C12 C13 1_555 1_555
C13 C14 1_555 1_555

#END
