
#######################################################################
#
#                 Cambridge Crystallographic Data Centre
#                                CCDC 
#
#######################################################################
#
# If this CIF has been generated from an entry in the Cambridge 
# Structural Database, then it will include bibliographic, chemical, 
# crystal, experimental, refinement or atomic coordinate data resulting 
# from the CCDC's data processing and validation procedures.
#
#######################################################################

data_JEYWAM
_chemical_compound_source        'bark of Gelsemium elegans Benth'
_chemical_name_common            
3-ethenyl-1'-methoxy-1-methyl-2,3,3a,7,8,8a-hexahydro-1H,5H-spiro[3,8,5-(ethane[1,1,2]triyl)oxepino[4,5-b]pyrrole-4,3'-indol]-2'(1'H)-one
_chemical_formula_moiety         'C21 H25 N2 O3 1+,Cl1 1-'
_chemical_name_systematic        '(S,S,R,R,S,S,S,S)-Gelsevirine hydrochloride'
_symmetry_cell_setting           orthorhombic
_symmetry_space_group_name_H-M   'P 21 21 21'
_symmetry_Int_Tables_number      19
_space_group_name_Hall           'P 2ac 2ab'
loop_
_symmetry_equiv_pos_site_id
_symmetry_equiv_pos_as_xyz
1 x,y,z
2 1/2-x,-y,1/2+z
3 -x,1/2+y,1/2-z
4 1/2+x,1/2-y,-z
_cell_length_a                   7.398(3)
_cell_length_b                   8.953(4)
_cell_length_c                   29.282(13)
_cell_angle_alpha                90
_cell_angle_beta                 90
_cell_angle_gamma                90
_cell_volume                     1939.47
_exptl_crystal_colour            colorless
_exptl_crystal_description       prism
_cell_formula_units_Z            4
_exptl_crystal_recrystallization_method methanol
loop_
_atom_site_label
_atom_site_type_symbol
_atom_site_fract_x
_atom_site_fract_y
_atom_site_fract_z
O1 O 1.0862(3) 0.5323(2) 0.00019(6)
O2 O 0.8021(3) 0.4045(2) 0.04886(7)
O3 O 0.5814(2) 0.80741(17) 0.11407(6)
N1 N 1.0311(3) 0.5740(2) 0.04401(7)
N2 N 0.8032(3) 0.5402(2) 0.22843(7)
H1 H 0.924(2) 0.536(3) 0.2291(8)
C1 C 0.9659(3) 0.8895(3) 0.11657(9)
H2 H 0.8909 0.9145 0.1409
C2 C 1.0952(3) 0.9898(3) 0.10129(9)
H3 H 1.1057 1.0824 0.1154
C3 C 1.2093(4) 0.9543(3) 0.06530(9)
H4 H 1.2948 1.0233 0.0555
C4 C 1.1966(4) 0.8172(3) 0.04401(9)
H5 H 1.2727 0.7919 0.0199
C5 C 1.0678(3) 0.7199(3) 0.05964(8)
C6 C 0.9490(3) 0.7517(3) 0.09540(8)
C7 C 0.8179(3) 0.6223(2) 0.10176(7)
C8 C 0.8767(3) 0.5150(3) 0.06244(8)
C9 C 0.6184(3) 0.6701(3) 0.09147(8)
H6 H 0.6073 0.6869 0.0585
C10 C 0.4867(3) 0.5492(3) 0.10475(9)
H7 H 0.5040 0.4623 0.0854
H8 H 0.3638 0.5845 0.1007
C11 C 0.5186(3) 0.5068(3) 0.15512(8)
H9 H 0.4154 0.4527 0.1680
C12 C 0.6952(4) 0.4180(2) 0.15995(8)
C13 C 0.8339(3) 0.5461(2) 0.14920(7)
H10 H 0.9580 0.5122 0.1547
C14 C 0.5006(3) 0.7919(3) 0.15785(9)
H11 H 0.3702 0.7896 0.1544
H12 H 0.5310 0.8783 0.1763
C15 C 0.5608(3) 0.6524(3) 0.18243(8)
H13 H 0.5015 0.6475 0.2123
C16 C 0.7672(3) 0.6441(2) 0.18902(8)
H14 H 0.8272 0.7413 0.1914
C17 C 0.7312(4) 0.3923(3) 0.21137(9)
H15 H 0.6206 0.3655 0.2272
H16 H 0.8194 0.3134 0.2158
C18 C 0.7057(4) 0.2692(3) 0.13617(9)
H17 H 0.8196 0.2351 0.1277
C19 C 0.5681(5) 0.1846(3) 0.12657(10)
H18 H 0.4520 0.2149 0.1345
H19 H 0.5857 0.0939 0.1118
C20 C 1.2108(6) 0.4113(5) 0.00184(13)
H20 H 1.3193 0.4428 0.0170
H21 H 1.2393 0.3800 -0.0287
H22 H 1.1578 0.3295 0.0183
C21 C 0.7370(4) 0.5884(3) 0.27428(8)
H23 H 0.6081 0.5770 0.2757
H24 H 0.7681 0.6912 0.2792
H25 H 0.7923 0.5279 0.2975
Cl1 Cl 0.19674(9) 0.49492(8) 0.25005(2)
loop_
_geom_bond_atom_site_label_1
_geom_bond_atom_site_label_2
_geom_bond_site_symmetry_1
_geom_bond_site_symmetry_2
O1 N1 1_555 1_555
O2 C8 1_555 1_555
O3 C9 1_555 1_555
N1 C5 1_555 1_555
N2 H1 1_555 1_555
C1 H2 1_555 1_555
C2 C1 1_555 1_555
H3 C2 1_555 1_555
C3 C2 1_555 1_555
H4 C3 1_555 1_555
C4 C3 1_555 1_555
H5 C4 1_555 1_555
C5 C4 1_555 1_555
C6 C1 1_555 1_555
C7 C6 1_555 1_555
C8 N1 1_555 1_555
C9 C7 1_555 1_555
H6 C9 1_555 1_555
C10 C9 1_555 1_555
H7 C10 1_555 1_555
H8 C10 1_555 1_555
C11 C10 1_555 1_555
H9 C11 1_555 1_555
C12 C11 1_555 1_555
C13 C7 1_555 1_555
H10 C13 1_555 1_555
C14 O3 1_555 1_555
H11 C14 1_555 1_555
H12 C14 1_555 1_555
C15 C11 1_555 1_555
H13 C15 1_555 1_555
C16 N2 1_555 1_555
H14 C16 1_555 1_555
C17 N2 1_555 1_555
H15 C17 1_555 1_555
H16 C17 1_555 1_555
C18 C12 1_555 1_555
H17 C18 1_555 1_555
C19 C18 1_555 1_555
H18 C19 1_555 1_555
H19 C19 1_555 1_555
C20 O1 1_555 1_555
H20 C20 1_555 1_555
H21 C20 1_555 1_555
H22 C20 1_555 1_555
C21 N2 1_555 1_555
H23 C21 1_555 1_555
H24 C21 1_555 1_555
H25 C21 1_555 1_555
C5 C6 1_555 1_555
C7 C8 1_555 1_555
C12 C13 1_555 1_555
C12 C17 1_555 1_555
C13 C16 1_555 1_555
C14 C15 1_555 1_555
C15 C16 1_555 1_555

#END
