
#######################################################################
#
#                 Cambridge Crystallographic Data Centre
#                                CCDC 
#
#######################################################################
#
# If this CIF has been generated from an entry in the Cambridge 
# Structural Database, then it will include bibliographic, chemical, 
# crystal, experimental, refinement or atomic coordinate data resulting 
# from the CCDC's data processing and validation procedures.
#
#######################################################################

data_JEZCUP
_chemical_formula_moiety         'C72 H105 N3 P3,0.5(C6 H5 F1),C2 H3 N1'
_chemical_name_systematic        
'3,5,6-tris{2-[2,6-diisopropylphenyl]-3,3-dimethyl-2-azaspiro[4.5]decan-1-ylidene}-1,2,4-triphosphabicyclo[2.1.1]hexan-2-yl radical acetonitrile fluorobenzene solvate'
_symmetry_cell_setting           triclinic
_symmetry_space_group_name_H-M   'P -1'
_symmetry_Int_Tables_number      2
_space_group_name_Hall           '-P 1'
loop_
_symmetry_equiv_pos_site_id
_symmetry_equiv_pos_as_xyz
1 x,y,z
2 -x,-y,-z
_cell_length_a                   13.6915(5)
_cell_length_b                   13.7231(5)
_cell_length_c                   22.0941(6)
_cell_angle_alpha                100.060(3)
_cell_angle_beta                 98.145(3)
_cell_angle_gamma                118.207(4)
_cell_volume                     3479.67
_exptl_crystal_colour            yellow
_exptl_crystal_description       block
_cell_formula_units_Z            2
loop_
_atom_site_label
_atom_site_type_symbol
_atom_site_fract_x
_atom_site_fract_y
_atom_site_fract_z
C73 C 0.7784(4) 0.4051(5) 0.4713(2)
H106 H 0.7670 0.4097 0.4282
H107 H 0.8005 0.4776 0.4998
H108 H 0.7084 0.3459 0.4765
N4 N 0.9332(6) 0.3468(7) 0.4958(3)
C74 C 0.8691(9) 0.3776(7) 0.4853(3)
C75 C 0.0666(4) 0.4497(4) -0.00312(18)
H109 H 0.1112 0.4156 -0.0058
C76 C -0.0220(4) 0.4216(4) -0.0539(2)
C77 C 0.0869(4) 0.5286(4) 0.05103(19)
H110 H 0.1455 0.5485 0.0862
F1 F -0.0293(7) 0.3473(7) -0.1000(4)
C75A C -0.0666(4) 0.5503(4) 0.00312(18)
H109A H -0.1112 0.5844 0.0058
C76A C 0.0220(4) 0.5784(4) 0.0539(2)
C77A C -0.0869(4) 0.4714(4) -0.05103(19)
H110A H -0.1455 0.4515 -0.0862
F1A F 0.0293(7) 0.6527(7) 0.1000(4)
P1 P 0.45580(4) 0.16297(4) 0.30870(2)
P2 P 0.36056(4) 0.19251(4) 0.20381(2)
P3 P 0.59559(4) 0.32234(4) 0.29745(2)
N1 N 0.18874(13) 0.23280(14) 0.30759(7)
N2 N 0.42210(13) -0.08045(13) 0.21501(7)
C1 C 0.28359(15) 0.22098(14) 0.32427(8)
N3 N 0.66887(13) 0.48768(13) 0.20640(7)
C2 C 0.22341(17) 0.26554(17) 0.41767(9)
H1 H 0.1931 0.2295 0.4500
H2 H 0.2624 0.3484 0.4351
C3 C 0.28535(17) 0.11584(16) 0.41046(9)
H3 H 0.2051 0.0576 0.3922
H4 H 0.3305 0.0900 0.3901
C4 C 0.39060(15) -0.01010(15) 0.18916(8)
C5 C 0.39877(16) 0.42043(17) 0.13180(9)
H5 H 0.3441 0.3637 0.1489
H6 H 0.4320 0.4953 0.1621
C6 C 0.14013(17) -0.11809(18) 0.25666(11)
H7 H 0.1195 -0.1204 0.2964
H8 H 0.0723 -0.1499 0.2227
H9 H 0.1918 -0.0398 0.2579
C7 C 0.34000(16) -0.06428(15) 0.11706(8)
C8 C 0.3816(2) 0.28064(19) 0.00992(10)
H10 H 0.4376 0.3388 -0.0059
H11 H 0.3488 0.2066 -0.0211
C9 C 0.94633(18) 0.50472(18) 0.33018(10)
H12 H 1.0059 0.5068 0.3576
C10 C 0.80572(15) 0.42183(15) 0.22856(9)
C11 C 0.89657(17) 0.42810(17) 0.27027(10)
H13 H 0.9241 0.3797 0.2574
C12 C 0.4124(2) -0.0906(2) 0.40414(10)
H14 H 0.4104 -0.0904 0.4461
C13 C 0.41945(16) -0.08697(15) 0.27896(9)
C14 C 0.55731(15) 0.39386(15) 0.18910(8)
C15 C 0.40312(15) 0.08913(15) 0.22291(8)
C16 C 0.49459(16) 0.39372(16) 0.12465(8)
C17 C 0.30700(15) 0.22979(15) 0.39641(8)
C18 C 0.76469(15) 0.49549(15) 0.24884(9)
C19 C 0.68722(17) 0.56784(16) 0.16537(10)
C20 C 0.41613(16) 0.01241(16) 0.08015(8)
H15 H 0.4306 0.0898 0.0957
H16 H 0.4894 0.0159 0.0886
C21 C 0.46059(18) 0.33835(18) 0.50180(9)
H17 H 0.5404 0.3972 0.5210
H18 H 0.4136 0.3628 0.5211
C22 C 0.31247(16) -0.13597(16) 0.29439(9)
C23 C 0.42078(17) -0.16956(16) 0.16480(9)
C24 C 0.19884(16) -0.18867(16) 0.24558(10)
H19 H 0.2143 -0.1891 0.2036
C25 C 0.21926(16) -0.08208(16) 0.09709(9)
H20 H 0.1700 -0.1330 0.1190
H21 H 0.2234 -0.0087 0.1102
C26 C 0.75529(17) 0.33286(17) 0.16428(9)
H22 H 0.6913 0.3365 0.1408
C27 C 0.51265(15) 0.31603(15) 0.22418(8)
C28 C 0.37972(19) -0.28260(17) 0.18235(11)
H23 H 0.4320 -0.2708 0.2205
H24 H 0.3767 -0.3390 0.1484
H25 H 0.3046 -0.3092 0.1892
C29 C 0.6690(2) 0.66734(18) 0.19327(11)
H26 H 0.6011 0.6378 0.2085
H27 H 0.6604 0.7031 0.1608
H28 H 0.7341 0.7231 0.2278
C30 C 0.7426(2) 0.6377(2) 0.39815(11)
H29 H 0.6858 0.5586 0.3917
H30 H 0.7122 0.6857 0.4117
H31 H 0.8094 0.6582 0.4302
C31 C 0.77540(18) 0.65501(17) 0.33576(10)
H32 H 0.7071 0.6379 0.3044
C32 C 0.16485(15) 0.26997(16) 0.25321(9)
C33 C 0.36356(18) -0.02972(19) 0.00823(9)
H33 H 0.4110 0.0278 -0.0112
H34 H 0.3636 -0.0998 -0.0088
C34 C 0.59359(17) 0.48684(17) 0.10492(9)
H35 H 0.6228 0.4516 0.0763
H36 H 0.5668 0.5288 0.0833
C35 C 0.31609(19) 0.12789(18) 0.48179(9)
H37 H 0.2637 0.1431 0.5013
H38 H 0.3070 0.0560 0.4879
C36 C 0.12665(17) 0.22556(18) 0.35857(10)
C37 C 0.07821(16) 0.19046(17) 0.19814(10)
C38 C 0.52165(17) -0.04285(17) 0.32577(10)
C39 C 0.0748(2) 0.3028(2) 0.36154(12)
H39 H 0.1347 0.3813 0.3696
H40 H 0.0367 0.2957 0.3952
H41 H 0.0205 0.2798 0.3218
C40 C 0.44096(17) 0.27833(16) 0.07358(9)
H42 H 0.5004 0.2610 0.0674
H43 H 0.3854 0.2177 0.0882
C41 C 0.4388(2) 0.22472(19) 0.51441(10)
H44 H 0.4916 0.2046 0.4990
H45 H 0.4531 0.2338 0.5599
C42 C 0.24120(18) -0.0532(2) -0.00979(10)
H46 H 0.2421 0.0190 0.0006
H47 H 0.2091 -0.0879 -0.0553
C43 C 0.2874(2) 0.3071(2) 0.01818(11)
H48 H 0.2280 0.2453 0.0303
H49 H 0.2532 0.3119 -0.0219
C44 C 0.33596(17) -0.18023(16) 0.10700(9)
H50 H 0.2591 -0.2418 0.1035
H51 H 0.3575 -0.1973 0.0683
C45 C 0.43801(17) 0.52641(18) 0.30717(10)
H52 H 0.4514 0.4643 0.2940
H53 H 0.4934 0.5786 0.3464
H54 H 0.4451 0.5664 0.2750
C46 C 0.34956(15) 0.20650(15) 0.28738(8)
C47 C 0.00721(17) 0.06223(18) 0.19082(11)
H55 H 0.0386 0.0457 0.2278
C48 C 0.11379(18) 0.3476(2) 0.15188(11)
H56 H 0.0967 0.3736 0.1180
C49 C 0.16607(17) -0.13324(18) 0.02532(9)
H57 H 0.1590 -0.2080 0.0120
H58 H 0.0899 -0.1436 0.0150
C50 C 0.22559(16) 0.38842(17) 0.25785(9)
C51 C 0.31701(17) 0.47837(17) 0.31706(10)
H59 H 0.3132 0.4410 0.3513
C52 C 0.6884(2) -0.0701(2) 0.31896(13)
H60 H 0.7053 -0.0688 0.3629
H61 H 0.7575 -0.0426 0.3049
H62 H 0.6337 -0.1474 0.2937
C53 C 0.19850(17) 0.42465(18) 0.20620(10)
H63 H 0.2383 0.5025 0.2083
C54 C 0.5158(2) -0.0460(2) 0.38816(10)
H64 H 0.5831 -0.0174 0.4195
C55 C 0.43213(16) 0.32460(16) 0.43017(8)
H65 H 0.4834 0.3059 0.4117
H66 H 0.4449 0.3971 0.4232
C56 C 0.53977(18) -0.13015(19) 0.15197(11)
H67 H 0.5720 -0.0534 0.1476
H68 H 0.5320 -0.1812 0.1135
H69 H 0.5894 -0.1313 0.1869
C57 C 0.03025(18) 0.1015(2) 0.35002(11)
H70 H -0.0325 0.0804 0.3149
H71 H 0.0042 0.0966 0.3881
H72 H 0.0589 0.0501 0.3417
C58 C 0.31176(19) -0.13578(19) 0.35745(10)
H73 H 0.2421 -0.1666 0.3684
C59 C 0.63817(18) 0.00775(18) 0.31150(11)
H74 H 0.6275 0.0100 0.2671
C60 C 0.81606(16) 0.57505(16) 0.30956(9)
C61 C -0.11855(18) 0.0248(2) 0.18831(12)
H75 H -0.1219 0.0725 0.2244
H76 H -0.1594 -0.0540 0.1891
H77 H -0.1530 0.0326 0.1499
C62 C 0.2966(2) 0.57810(19) 0.33901(11)
H78 H 0.3451 0.6238 0.3810
H79 H 0.2177 0.5478 0.3397
H80 H 0.3142 0.6251 0.3101
C63 C 0.90727(17) 0.57830(18) 0.34918(10)
H81 H 0.9424 0.6311 0.3892
C64 C 0.11693(19) -0.31342(18) 0.24429(12)
H82 H 0.0960 -0.3150 0.2839
H83 H 0.1542 -0.3572 0.2381
H84 H 0.0492 -0.3462 0.2101
C65 C 0.8437(2) 0.3569(2) 0.12518(12)
H85 H 0.8760 0.4346 0.1224
H86 H 0.8071 0.3047 0.0832
H87 H 0.9036 0.3465 0.1454
C66 C 0.05482(18) 0.2321(2) 0.14804(10)
H88 H -0.0019 0.1807 0.1112
C67 C 0.7090(2) 0.21121(18) 0.17185(11)
H89 H 0.7700 0.2066 0.1959
H90 H 0.6781 0.1568 0.1306
H91 H 0.6496 0.1940 0.1938
C68 C 0.80668(18) 0.6193(2) 0.15439(11)
H92 H 0.8630 0.6640 0.1944
H93 H 0.8142 0.6679 0.1268
H94 H 0.8183 0.5586 0.1351
C69 C 0.8678(2) 0.78137(18) 0.34631(12)
H95 H 0.8385 0.8302 0.3603
H96 H 0.8881 0.7921 0.3072
H97 H 0.9344 0.8007 0.3781
C70 C 0.33528(19) 0.4203(2) 0.06898(10)
H98 H 0.2729 0.4323 0.0758
H99 H 0.3875 0.4833 0.0544
C71 C 0.7228(2) 0.1304(2) 0.35337(14)
H100 H 0.6908 0.1784 0.3485
H101 H 0.7935 0.1599 0.3408
H102 H 0.7373 0.1298 0.3971
C72 C 0.0116(2) -0.0088(2) 0.13076(13)
H103 H -0.0279 -0.0015 0.0939
H104 H -0.0247 -0.0882 0.1307
H105 H 0.0901 0.0187 0.1300
H111? H 0.7166 0.3573 0.4337
H112? H 0.8464 0.4534 0.4594
H113? H 0.7584 0.4521 0.4980
C78? C 0.7996(16) 0.3322(14) 0.5060(6)
N5? N 0.8357(11) 0.2799(10) 0.5279(4)
H114? H -0.0376 0.3672 -0.0911
F2? F 0.1098(10) 0.3991(10) -0.0162(5)
loop_
_geom_bond_atom_site_label_1
_geom_bond_atom_site_label_2
_geom_bond_site_symmetry_1
_geom_bond_site_symmetry_2
P1 P3 1_555 1_555
P2 C15 1_555 1_555
P3 C27 1_555 1_555
N1 C1 1_555 1_555
N2 C4 1_555 1_555
C1 C17 1_555 1_555
N3 C14 1_555 1_555
C2 H1 1_555 1_555
H2 C2 1_555 1_555
C3 H3 1_555 1_555
H4 C3 1_555 1_555
C4 C7 1_555 1_555
C5 H5 1_555 1_555
H6 C5 1_555 1_555
C6 H7 1_555 1_555
H8 C6 1_555 1_555
H9 C6 1_555 1_555
C7 C20 1_555 1_555
C8 H10 1_555 1_555
H11 C8 1_555 1_555
C9 H12 1_555 1_555
C10 C11 1_555 1_555
C11 C9 1_555 1_555
H13 C11 1_555 1_555
C12 H14 1_555 1_555
C13 N2 1_555 1_555
C14 C16 1_555 1_555
C15 P1 1_555 1_555
C16 C5 1_555 1_555
C17 C2 1_555 1_555
C18 N3 1_555 1_555
C19 N3 1_555 1_555
C20 H15 1_555 1_555
H16 C20 1_555 1_555
C21 H17 1_555 1_555
H18 C21 1_555 1_555
C22 C13 1_555 1_555
C23 N2 1_555 1_555
C24 C6 1_555 1_555
H19 C24 1_555 1_555
C25 C7 1_555 1_555
H20 C25 1_555 1_555
H21 C25 1_555 1_555
C26 C10 1_555 1_555
H22 C26 1_555 1_555
C27 P2 1_555 1_555
C28 C23 1_555 1_555
H23 C28 1_555 1_555
H24 C28 1_555 1_555
H25 C28 1_555 1_555
C29 C19 1_555 1_555
H26 C29 1_555 1_555
H27 C29 1_555 1_555
H28 C29 1_555 1_555
C30 H29 1_555 1_555
H30 C30 1_555 1_555
H31 C30 1_555 1_555
C31 C30 1_555 1_555
H32 C31 1_555 1_555
C32 N1 1_555 1_555
C33 C20 1_555 1_555
H33 C33 1_555 1_555
H34 C33 1_555 1_555
C34 C16 1_555 1_555
H35 C34 1_555 1_555
H36 C34 1_555 1_555
C35 C3 1_555 1_555
H37 C35 1_555 1_555
H38 C35 1_555 1_555
C36 N1 1_555 1_555
C37 C32 1_555 1_555
C38 C13 1_555 1_555
C39 C36 1_555 1_555
H39 C39 1_555 1_555
H40 C39 1_555 1_555
H41 C39 1_555 1_555
C40 C8 1_555 1_555
H42 C40 1_555 1_555
H43 C40 1_555 1_555
C41 C21 1_555 1_555
H44 C41 1_555 1_555
H45 C41 1_555 1_555
C42 C33 1_555 1_555
H46 C42 1_555 1_555
H47 C42 1_555 1_555
C43 C8 1_555 1_555
H48 C43 1_555 1_555
H49 C43 1_555 1_555
C44 C7 1_555 1_555
H50 C44 1_555 1_555
H51 C44 1_555 1_555
C45 H52 1_555 1_555
H53 C45 1_555 1_555
H54 C45 1_555 1_555
C46 P1 1_555 1_555
C47 C37 1_555 1_555
H55 C47 1_555 1_555
C48 H56 1_555 1_555
C49 C25 1_555 1_555
H57 C49 1_555 1_555
H58 C49 1_555 1_555
C50 C32 1_555 1_555
C51 C45 1_555 1_555
H59 C51 1_555 1_555
C52 H60 1_555 1_555
H61 C52 1_555 1_555
H62 C52 1_555 1_555
C53 C48 1_555 1_555
H63 C53 1_555 1_555
C54 C12 1_555 1_555
H64 C54 1_555 1_555
C55 C17 1_555 1_555
H65 C55 1_555 1_555
H66 C55 1_555 1_555
C56 C23 1_555 1_555
H67 C56 1_555 1_555
H68 C56 1_555 1_555
H69 C56 1_555 1_555
C57 C36 1_555 1_555
H70 C57 1_555 1_555
H71 C57 1_555 1_555
H72 C57 1_555 1_555
C58 C12 1_555 1_555
H73 C58 1_555 1_555
C59 C38 1_555 1_555
H74 C59 1_555 1_555
C60 C18 1_555 1_555
C61 C47 1_555 1_555
H75 C61 1_555 1_555
H76 C61 1_555 1_555
H77 C61 1_555 1_555
C62 C51 1_555 1_555
H78 C62 1_555 1_555
H79 C62 1_555 1_555
H80 C62 1_555 1_555
C63 C9 1_555 1_555
H81 C63 1_555 1_555
C64 C24 1_555 1_555
H82 C64 1_555 1_555
H83 C64 1_555 1_555
H84 C64 1_555 1_555
C65 C26 1_555 1_555
H85 C65 1_555 1_555
H86 C65 1_555 1_555
H87 C65 1_555 1_555
C66 C37 1_555 1_555
H88 C66 1_555 1_555
C67 C26 1_555 1_555
H89 C67 1_555 1_555
H90 C67 1_555 1_555
H91 C67 1_555 1_555
C68 C19 1_555 1_555
H92 C68 1_555 1_555
H93 C68 1_555 1_555
H94 C68 1_555 1_555
C69 C31 1_555 1_555
H95 C69 1_555 1_555
H96 C69 1_555 1_555
H97 C69 1_555 1_555
C70 C5 1_555 1_555
H98 C70 1_555 1_555
H99 C70 1_555 1_555
C71 C59 1_555 1_555
H100 C71 1_555 1_555
H101 C71 1_555 1_555
H102 C71 1_555 1_555
C72 C47 1_555 1_555
H103 C72 1_555 1_555
H104 C72 1_555 1_555
H105 C72 1_555 1_555
C73 H106 1_555 1_555
H107 C73 1_555 1_555
H108 C73 1_555 1_555
N4 C74 1_555 1_555
C74 C73 1_555 1_555
C75 H109 1_555 1_555
C76 C75 1_555 1_555
C77 C75 1_555 1_555
H110 C77 1_555 1_555
F1 C76 1_555 1_555
C75A H109A 1_555 1_555
C76A C77 1_555 1_555
C77A C76 1_555 1_555
H110A C77A 1_555 1_555
F1A C76A 1_555 1_555
P2 C46 1_555 1_555
C1 C46 1_555 1_555
C2 C36 1_555 1_555
C3 C17 1_555 1_555
C4 C15 1_555 1_555
C10 C18 1_555 1_555
C14 C27 1_555 1_555
C16 C40 1_555 1_555
C19 C34 1_555 1_555
C21 C55 1_555 1_555
C22 C24 1_555 1_555
C22 C58 1_555 1_555
C23 C44 1_555 1_555
C31 C60 1_555 1_555
C35 C41 1_555 1_555
C38 C54 1_555 1_555
C42 C49 1_555 1_555
C43 C70 1_555 1_555
C48 C66 1_555 1_555
C50 C51 1_555 1_555
C50 C53 1_555 1_555
C52 C59 1_555 1_555
C60 C63 1_555 1_555
C75A C76A 1_555 1_555
C75A C77A 1_555 1_555

#END
