
#######################################################################
#
#                 Cambridge Crystallographic Data Centre
#                                CCDC 
#
#######################################################################
#
# If this CIF has been generated from an entry in the Cambridge 
# Structural Database, then it will include bibliographic, chemical, 
# crystal, experimental, refinement or atomic coordinate data resulting 
# from the CCDC's data processing and validation procedures.
#
#######################################################################

data_JEZXER
_chemical_formula_moiety         'C32 H59 N9 P4 S3'
_chemical_name_systematic        
1-((1-bis(Diethylamino)thiophosphone)benzo-1,3,2-diazaphosphol-2-yl-2-thione)-3-(1-bis(diethylamino)thiophosphonyl)-2-diethylamino-benzo-1,3,2-diazaphosphole
_symmetry_cell_setting           triclinic
_symmetry_space_group_name_H-M   'P -1'
_symmetry_Int_Tables_number      2
_space_group_name_Hall           '-P 1'
loop_
_symmetry_equiv_pos_site_id
_symmetry_equiv_pos_as_xyz
1 x,y,z
2 -x,-y,-z
_cell_length_a                   9.741(7)
_cell_length_b                   11.655(5)
_cell_length_c                   20.240(10)
_cell_angle_alpha                73.41(4)
_cell_angle_beta                 76.23(5)
_cell_angle_gamma                79.17(5)
_cell_volume                     2121.1
_cell_formula_units_Z            2
loop_
_atom_site_label
_atom_site_type_symbol
_atom_site_fract_x
_atom_site_fract_y
_atom_site_fract_z
P1 P -0.0039(2) 0.3380(1) 0.7807(1)
P2 P 0.0267(2) 0.4806(1) 0.8750(1)
P3 P 0.2543(2) 0.6133(1) 0.7825(1)
P4 P 0.3225(2) 0.7778(2) 0.6391(1)
S1 S -0.0792(2) 0.4941(2) 0.7287(1)
S2 S -0.1678(2) 0.4857(2) 0.9251(1)
S3 S 0.3587(2) 0.9391(2) 0.6310(1)
N1 N 0.0868(5) 0.3605(4) 0.8381(7)
N2 N 0.1505(6) 0.4384(5) 0.9236(3)
N3 N 0.0719(5) 0.6094(4) 0.8212(3)
N4 N 0.2032(6) 0.7230(4) 0.7112(2)
N5 N -0.1261(6) 0.2519(5) 0.8237(3)
N6 N 0.1191(6) 0.2541(4) 0.7372(3)
N7 N 0.3130(6) 0.6893(5) 0.8250(3)
N8 N 0.4680(6) 0.6783(5) 0.6462(3)
N9 N 0.2548(7) 0.7641(5) 0.5752(3)
C1 C 0.1921(6) 0.2783(5) 0.8740(4)
C2 C 0.2240(7) 0.3240(6) 0.9243(3)
C3 C 0.3218(8) 0.2629(6) 0.9652(4)
C4 C 0.3878(9) 0.1516(7) 0.9562(5)
C5 C 0.3576(8) 0.1043(7) 0.9078(5)
C6 C 0.2583(7) 0.1661(6) 0.8657(4)
C7 C -0.0165(6) 0.7149(5) 0.7886(3)
C8 C 0.0599(7) 0.7777(5) 0.7269(3)
C9 C -0.0037(7) 0.8847(5) 0.6886(4)
C10 C -0.1444(8) 0.9267(6) 0.7133(4)
C11 C -0.2181(8) 0.8647(6) 0.7748(4)
C12 C -0.1531(7) 0.7577(6) 0.8136(4)
C13 C -0.0931(9) 0.1304(7) 0.8665(5)
C14 C -0.1263(13) 0.1212(11) 0.9395(6)
C16 C -0.2773(8) 0.2968(7) 0.8267(5)
C17 C -0.3428(10) 0.2583(10) 0.7784(6)
C18 C 0.2479(8) 0.3076(6) 0.6993(4)
C19 C 0.3732(8) 0.2192(8) 0.6796(5)
C20 C 0.0738(8) 0.1811(6) 0.6993(4)
C21 C 0.0423(11) 0.2474(9) 0.6279(5)
C22 C 0.2482(12) 0.8108(8) 0.8363(6)
C23 C 0.1407(16) 0.8087(11) 0.9016(7)
C25 C 0.4525(12) 0.6271(10) 0.8493(7)
C26 C 0.4480(16) 0.5900(17) 0.9241(7)
C28 C 0.5933(8) 0.7040(8) 0.6654(5)
C29 C 0.7066(11) 0.7473(10) 0.6057(7)
C30 C 0.4667(10) 0.5546(7) 0.6378(5)
C31 C 0.5627(18) 0.5294(17) 0.5660(9)
C33 C 0.3163(13) 0.8305(5) 0.5044(5)
C34 C 0.2274(17) 0.9289(12) 0.4739(7)
C35 C 0.1331(10) 0.6993(8) 0.5821(4)
C36 C 0.1432(12) 0.6261(10) 0.5353(5)
H1 H 0.1482(31) 0.4709(29) 0.9493(21)
H2 H 0.3434 0.2962 0.9993
H3 H 0.4546 0.1059 0.9851
H4 H 0.4071 0.0274 0.9019
H5 H 0.2374 0.1318 0.8320
H6 H 0.0491 0.9285 0.6453
H7 H -0.1892 1.0001 0.6866
H8 H -0.3158 0.8939 0.7909
H9 H -0.2040 0.7158 0.8581
H10 H -0.2888 0.3834 0.8154
H11 H -0.3283 0.2685 0.8738
H12 H -0.4419 0.2900 0.7822
H13 H -0.2932 0.2877 0.7311
H14 H -0.3330 0.1717 0.7901
H15 H 0.2258 0.3641 0.6571
H16 H 0.2742 0.3496 0.7279
H17 H 0.4620 0.2521 0.6625
H18 H 0.3495 0.1935 0.6431
H19 H 0.3818 0.1514 0.7193
H20 H 0.1496 0.1174 0.6922
H21 H -0.0093 0.1470 0.7285
H22 H 0.0081 0.1995 0.6054
H23 H 0.1306 0.2737 0.6000
H24 H -0.0267 0.3166 0.6329
H25 H 0.6316 0.6291 0.6936
H26 H 0.5638 0.7625 0.6928
H27 H 0.7702 0.7774 0.6244
H28 H 0.6932 0.8009 0.5612
H29 H 0.7467 0.6685 0.5993
H30 H 0.3996 0.8610 0.5065
H31 H 0.3425 0.7770 0.4738
H32 H 0.2857 0.9282 0.4285
H33 H 0.2253 1.0006 0.4863
H34 H 0.1298 0.9276 0.4726
H35 H 0.0533 0.7601 0.5739
H36 H 0.1140 0.6507 0.6296
H37 H 0.0714 0.5732 0.5567
H38 H 0.2329 0.5857 0.5470
H39 H 0.1515 0.6479 0.4852
C15? C -0.1729(27) 0.0511(22) 0.8900(22)
C24? C 0.3438(31) 0.8631(24) 0.8380(22)
C27? C 0.4937(23) 0.6871(25) 0.8897(17)
C32? C 0.5948(24) 0.5284(18) 0.5966(14)
loop_
_geom_bond_atom_site_label_1
_geom_bond_atom_site_label_2
_geom_bond_site_symmetry_1
_geom_bond_site_symmetry_2
P1 S1 1_555 1_555
P2 S2 1_555 1_555
P3 N3 1_555 1_555
P4 S3 1_555 1_555
N1 P1 1_555 1_555
N2 P2 1_555 1_555
N3 P2 1_555 1_555
N4 P3 1_555 1_555
N5 P1 1_555 1_555
N6 P1 1_555 1_555
N7 P3 1_555 1_555
N8 P4 1_555 1_555
N9 P4 1_555 1_555
C1 N1 1_555 1_555
C2 N2 1_555 1_555
C3 C2 1_555 1_555
C4 C3 1_555 1_555
C5 C4 1_555 1_555
C6 C1 1_555 1_555
C7 N3 1_555 1_555
C8 N4 1_555 1_555
C9 C8 1_555 1_555
C10 C9 1_555 1_555
C11 C10 1_555 1_555
C12 C7 1_555 1_555
C13 N5 1_555 1_555
C14 C13 1_555 1_555
C16 N5 1_555 1_555
C17 C16 1_555 1_555
C18 N6 1_555 1_555
C19 C18 1_555 1_555
C20 N6 1_555 1_555
C21 C20 1_555 1_555
C22 N7 1_555 1_555
C23 C22 1_555 1_555
C25 N7 1_555 1_555
C26 C25 1_555 1_555
C28 N8 1_555 1_555
C29 C28 1_555 1_555
C30 N8 1_555 1_555
C31 C30 1_555 1_555
C33 N9 1_555 1_555
C34 C33 1_555 1_555
C35 N9 1_555 1_555
C36 C35 1_555 1_555
H1 N2 1_555 1_555
H2 C3 1_555 1_555
H3 C4 1_555 1_555
H4 C5 1_555 1_555
H5 C6 1_555 1_555
H6 C9 1_555 1_555
H7 C10 1_555 1_555
H8 C11 1_555 1_555
H9 C12 1_555 1_555
H10 C16 1_555 1_555
H11 C16 1_555 1_555
H12 C17 1_555 1_555
H13 C17 1_555 1_555
H14 C17 1_555 1_555
H15 C18 1_555 1_555
H16 C18 1_555 1_555
H17 C19 1_555 1_555
H18 C19 1_555 1_555
H19 C19 1_555 1_555
H20 C20 1_555 1_555
H21 C20 1_555 1_555
H22 C21 1_555 1_555
H23 C21 1_555 1_555
H24 C21 1_555 1_555
H25 C28 1_555 1_555
H26 C28 1_555 1_555
H27 C29 1_555 1_555
H28 C29 1_555 1_555
H29 C29 1_555 1_555
H30 C33 1_555 1_555
H31 C33 1_555 1_555
H32 C34 1_555 1_555
H33 C34 1_555 1_555
H34 C34 1_555 1_555
H35 C35 1_555 1_555
H36 C35 1_555 1_555
H37 C36 1_555 1_555
H38 C36 1_555 1_555
H39 C36 1_555 1_555
P2 N1 1_555 1_555
P4 N4 1_555 1_555
C1 C2 1_555 1_555
C5 C6 1_555 1_555
C7 C8 1_555 1_555
C11 C12 1_555 1_555

#END
