
#######################################################################
#
#                 Cambridge Crystallographic Data Centre
#                                CCDC 
#
#######################################################################
#
# If this CIF has been generated from an entry in the Cambridge 
# Structural Database, then it will include bibliographic, chemical, 
# crystal, experimental, refinement or atomic coordinate data resulting 
# from the CCDC's data processing and validation procedures.
#
#######################################################################

data_JIBJUC
_chemical_formula_moiety         'C31 H25 N1 O7'
_chemical_name_systematic        
'benzyl 2,13-dihydroxy-3-methoxy-6-phenyl-6H-6,12b-methano[1,3]benzodioxepino[4,5-b]indole-8(7aH)-carboxylate'
_symmetry_cell_setting           monoclinic
_symmetry_space_group_name_H-M   'P 21'
_symmetry_Int_Tables_number      4
_space_group_name_Hall           'P 2yb'
loop_
_symmetry_equiv_pos_site_id
_symmetry_equiv_pos_as_xyz
1 x,y,z
2 -x,1/2+y,-z
_cell_length_a                   5.6816(7)
_cell_length_b                   18.874(2)
_cell_length_c                   11.8245(15)
_cell_angle_alpha                90
_cell_angle_beta                 98.655(2)
_cell_angle_gamma                90
_cell_volume                     1253.56
_exptl_crystal_colour            colorless
_exptl_crystal_description       block
_cell_formula_units_Z            2
loop_
_atom_site_label
_atom_site_type_symbol
_atom_site_fract_x
_atom_site_fract_y
_atom_site_fract_z
O1 O 0.6167(3) 0.32335(8) 0.30948(15)
O2 O 0.8250(4) 0.25682(9) 0.20093(15)
O3 O 0.8184(3) 0.45617(8) 0.37392(12)
O4 O 0.7500(3) 0.57879(8) 0.36373(12)
O5 O 0.3317(3) 0.73138(9) 0.07804(14)
O6 O 0.5324(3) 0.66500(10) -0.08520(14)
H1 H 0.420267 0.692801 -0.091768
O7 O 1.2925(3) 0.47565(10) 0.34995(15)
H2 H 1.414205 0.497108 0.375877
N1 N 0.8867(3) 0.37607(9) 0.22232(15)
C1 C 0.7779(4) 0.31313(12) 0.24069(19)
C2 C 0.7897(4) 0.44381(11) 0.25311(17)
H3 H 0.622281 0.448486 0.218883
C3 C 0.9243(4) 0.52368(11) 0.39450(17)
C4 C 0.7001(4) 0.59892(11) 0.25005(17)
C5 C 0.5465(4) 0.65534(11) 0.22573(18)
H4 H 0.484646 0.678506 0.284138
C6 C 0.4856(4) 0.67711(11) 0.11310(18)
C7 C 0.2015(7) 0.76052(19) 0.1597(3)
H5 H 0.096696 0.796722 0.124383
H6 H 0.309808 0.780717 0.221501
H7 H 0.109767 0.723926 0.188865
C8 C 0.5851(4) 0.64377(11) 0.02628(17)
C9 C 0.7385(4) 0.58743(11) 0.05197(18)
H8 H 0.804467 0.565213 -0.006079
C10 C 0.7952(4) 0.56358(11) 0.16417(17)
C11 C 0.9452(4) 0.50011(11) 0.20366(17)
C12 C 1.1099(4) 0.52436(12) 0.31391(17)
H9 H 1.172854 0.572098 0.305513
C13 C 1.0732(4) 0.45873(11) 0.12373(17)
C14 C 1.0435(4) 0.38656(11) 0.14172(17)
C15 C 1.1633(5) 0.33637(13) 0.0859(2)
H10 H 1.144336 0.288123 0.097645
C16 C 1.3124(5) 0.36113(15) 0.0118(2)
H11 H 1.394388 0.328546 -0.026614
C17 C 1.3429(5) 0.43224(15) -0.0067(2)
H12 H 1.442575 0.447043 -0.057646
C18 C 1.2252(4) 0.48186(13) 0.05070(18)
H13 H 1.248304 0.530050 0.040144
C19 C 1.0035(4) 0.53296(12) 0.52073(18)
C20 C 1.2150(5) 0.56675(14) 0.5618(2)
H14 H 1.315963 0.581732 0.511509
C21 C 1.2757(7) 0.57818(16) 0.6786(2)
H15 H 1.417595 0.601031 0.706534
C22 C 1.1280(8) 0.55603(19) 0.7529(3)
H16 H 1.169090 0.564213 0.830970
C23 C 0.9210(8) 0.5221(2) 0.7128(3)
H17 H 0.822409 0.506416 0.763720
C24 C 0.8557(6) 0.51055(18) 0.5960(2)
H18 H 0.713104 0.487843 0.568803
C25 C 0.5046(5) 0.26104(13) 0.3476(2)
H19 H 0.623645 0.225271 0.372735
H20 H 0.392591 0.241521 0.285375
C26 C 0.3777(5) 0.28193(13) 0.4443(2)
C27 C 0.4446(6) 0.34039(15) 0.5109(3)
H21 H 0.572919 0.367735 0.496400
C28 C 0.3221(7) 0.35885(19) 0.5994(3)
H22 H 0.366281 0.398973 0.643121
C29 C 0.1361(7) 0.3180(2) 0.6224(3)
H23 H 0.053722 0.330366 0.681742
C30 C 0.0713(7) 0.2590(2) 0.5584(3)
H24 H -0.053424 0.230848 0.575029
C31 C 0.1901(6) 0.24107(18) 0.4691(3)
H25 H 0.143744 0.201176 0.425178
loop_
_geom_bond_atom_site_label_1
_geom_bond_atom_site_label_2
_geom_bond_site_symmetry_1
_geom_bond_site_symmetry_2
O1 C1 1_555 1_555
O2 C1 1_555 1_555
O3 C2 1_555 1_555
O4 C3 1_555 1_555
O5 C6 1_555 1_555
O6 H1 1_555 1_555
O7 H2 1_555 1_555
N1 C1 1_555 1_555
C2 N1 1_555 1_555
H3 C2 1_555 1_555
C3 O3 1_555 1_555
C4 O4 1_555 1_555
C5 C4 1_555 1_555
H4 C5 1_555 1_555
C6 C5 1_555 1_555
C7 O5 1_555 1_555
H5 C7 1_555 1_555
H6 C7 1_555 1_555
H7 C7 1_555 1_555
C8 O6 1_555 1_555
C9 C8 1_555 1_555
H8 C9 1_555 1_555
C10 C4 1_555 1_555
C11 C2 1_555 1_555
C12 O7 1_555 1_555
H9 C12 1_555 1_555
C13 C11 1_555 1_555
C14 N1 1_555 1_555
C15 C14 1_555 1_555
H10 C15 1_555 1_555
C16 C15 1_555 1_555
H11 C16 1_555 1_555
C17 C16 1_555 1_555
H12 C17 1_555 1_555
C18 C13 1_555 1_555
H13 C18 1_555 1_555
C19 C3 1_555 1_555
C20 C19 1_555 1_555
H14 C20 1_555 1_555
C21 C20 1_555 1_555
H15 C21 1_555 1_555
C22 C21 1_555 1_555
H16 C22 1_555 1_555
C23 C22 1_555 1_555
H17 C23 1_555 1_555
C24 C19 1_555 1_555
H18 C24 1_555 1_555
C25 O1 1_555 1_555
H19 C25 1_555 1_555
H20 C25 1_555 1_555
C26 C25 1_555 1_555
C27 C26 1_555 1_555
H21 C27 1_555 1_555
C28 C27 1_555 1_555
H22 C28 1_555 1_555
C29 C28 1_555 1_555
H23 C29 1_555 1_555
C30 C29 1_555 1_555
H24 C30 1_555 1_555
C31 C26 1_555 1_555
H25 C31 1_555 1_555
C3 C12 1_555 1_555
C6 C8 1_555 1_555
C9 C10 1_555 1_555
C10 C11 1_555 1_555
C11 C12 1_555 1_555
C13 C14 1_555 1_555
C17 C18 1_555 1_555
C23 C24 1_555 1_555
C30 C31 1_555 1_555

#END
