
#######################################################################
#
#                 Cambridge Crystallographic Data Centre
#                                CCDC 
#
#######################################################################
#
# If this CIF has been generated from an entry in the Cambridge 
# Structural Database, then it will include bibliographic, chemical, 
# crystal, experimental, refinement or atomic coordinate data resulting 
# from the CCDC's data processing and validation procedures.
#
#######################################################################

data_JIBKOX
_chemical_formula_moiety         'C22 H34 O4 S4'
_chemical_name_systematic        
3,4,6,7,9,10,14,16,17,19,20,22,23,25-tetradecahydro-1H,12H-benzo[1,2-i:4,5-i']bis[1,4,7,12]dioxadithiacyclotetradecine
_symmetry_cell_setting           monoclinic
_symmetry_space_group_name_H-M   'P 21/n'
_symmetry_Int_Tables_number      14
_space_group_name_Hall           '-P 2yn'
loop_
_symmetry_equiv_pos_site_id
_symmetry_equiv_pos_as_xyz
1 x,y,z
2 1/2-x,1/2+y,1/2-z
3 -x,-y,-z
4 1/2+x,1/2-y,1/2+z
_cell_length_a                   4.6956(16)
_cell_length_b                   17.748(6)
_cell_length_c                   14.539(5)
_cell_angle_alpha                90
_cell_angle_beta                 91.68(3)
_cell_angle_gamma                90
_cell_volume                     1211.12
_exptl_crystal_colour            colorless
_exptl_crystal_description       plate
_cell_formula_units_Z            2
loop_
_atom_site_label
_atom_site_type_symbol
_atom_site_fract_x
_atom_site_fract_y
_atom_site_fract_z
S1 S 0.0350(5) 0.20727(11) 0.41558(14)
S2 S 0.0428(4) -0.03824(11) 0.23689(14)
O1 O -0.0555(11) 0.0874(3) 0.0915(4)
O2 O -0.0954(12) 0.2227(3) 0.1975(4)
C1 C 0.2563(17) 0.0135(5) 0.3214(5)
H1 H 0.450955 -0.007908 0.325586
H2 H 0.270804 0.066913 0.302560
C2 C 0.1207(16) 0.0083(4) 0.4127(5)
C3 C 0.2389(16) -0.0163(4) 0.1342(5)
H3 H 0.440865 -0.030558 0.145262
H4 H 0.162763 -0.047745 0.082884
C4 C 0.1957(17) -0.0510(4) 0.4717(5)
H5 H 0.329812 -0.086963 0.451331
C5 C -0.0863(16) 0.0602(4) 0.4426(5)
C6 C -0.124(2) 0.2802(4) 0.3441(6)
H6 H -0.331723 0.270733 0.338875
H7 H -0.096733 0.329058 0.375971
C7 C 0.034(2) 0.2238(5) 0.1106(6)
H8 H 0.242762 0.218391 0.118856
H9 H -0.006047 0.272436 0.079480
C8 C -0.0800(19) 0.1615(4) 0.0537(6)
H10 H -0.284287 0.171596 0.040050
H11 H 0.018280 0.162097 -0.005600
C9 C -0.1763(17) 0.1254(4) 0.3839(6)
H12 H -0.380656 0.136159 0.392368
H13 H -0.149637 0.113033 0.318293
C10 C -0.014(2) 0.2874(4) 0.2500(6)
H14 H -0.092643 0.333333 0.220231
H15 H 0.196169 0.291740 0.253094
C11 C 0.2267(17) 0.0640(5) 0.1056(6)
H16 H 0.320093 0.095709 0.153713
H17 H 0.331423 0.070603 0.048004
S1B S -0.0350(5) -0.20727(11) 0.58442(14)
S2B S -0.0428(4) 0.03824(11) 0.76311(14)
O1B O 0.0555(11) -0.0874(3) 0.9085(4)
O2B O 0.0954(12) -0.2227(3) 0.8025(4)
C1B C -0.2563(17) -0.0135(5) 0.6786(5)
H1B H -0.450955 0.007908 0.674414
H2B H -0.270804 -0.066913 0.697440
C2B C -0.1207(16) -0.0083(4) 0.5873(5)
C3B C -0.2389(16) 0.0163(4) 0.8658(5)
H3B H -0.440865 0.030558 0.854738
H4B H -0.162763 0.047745 0.917116
C4B C -0.1957(17) 0.0510(4) 0.5283(5)
H5B H -0.329812 0.086963 0.548669
C5B C 0.0863(16) -0.0602(4) 0.5574(5)
C6B C 0.124(2) -0.2802(4) 0.6559(6)
H6B H 0.331723 -0.270733 0.661125
H7B H 0.096733 -0.329058 0.624029
C7B C -0.034(2) -0.2238(5) 0.8894(6)
H8B H -0.242762 -0.218391 0.881144
H9B H 0.006047 -0.272436 0.920520
C8B C 0.0800(19) -0.1615(4) 0.9463(6)
H10B H 0.284287 -0.171596 0.959950
H11B H -0.018280 -0.162097 1.005600
C9B C 0.1763(17) -0.1254(4) 0.6161(6)
H12B H 0.380656 -0.136159 0.607632
H13B H 0.149637 -0.113033 0.681707
C10B C 0.014(2) -0.2874(4) 0.7500(6)
H14B H 0.092643 -0.333333 0.779769
H15B H -0.196169 -0.291740 0.746906
C11B C -0.2267(17) -0.0640(5) 0.8944(6)
H16B H -0.320093 -0.095709 0.846287
H17B H -0.331423 -0.070603 0.951996
loop_
_geom_bond_atom_site_label_1
_geom_bond_atom_site_label_2
_geom_bond_site_symmetry_1
_geom_bond_site_symmetry_2
S1 C6 1_555 1_555
S2 C1 1_555 1_555
O1 C8 1_555 1_555
O2 C7 1_555 1_555
C1 H1 1_555 1_555
H2 C1 1_555 1_555
C2 C1 1_555 1_555
C3 S2 1_555 1_555
H3 C3 1_555 1_555
H4 C3 1_555 1_555
C4 C2 1_555 1_555
H5 C4 1_555 1_555
C5 C2 1_555 1_555
C6 H6 1_555 1_555
H7 C6 1_555 1_555
C7 H8 1_555 1_555
H9 C7 1_555 1_555
C8 C7 1_555 1_555
H10 C8 1_555 1_555
H11 C8 1_555 1_555
C9 S1 1_555 1_555
H12 C9 1_555 1_555
H13 C9 1_555 1_555
C10 O2 1_555 1_555
H14 C10 1_555 1_555
H15 C10 1_555 1_555
C11 O1 1_555 1_555
H16 C11 1_555 1_555
H17 C11 1_555 1_555
S1B C6B 1_555 1_555
S2B C1B 1_555 1_555
O1B C8B 1_555 1_555
O2B C7B 1_555 1_555
C1B H1B 1_555 1_555
H2B C1B 1_555 1_555
C2B C1B 1_555 1_555
C3B S2B 1_555 1_555
H3B C3B 1_555 1_555
H4B C3B 1_555 1_555
C4B C5 1_555 1_555
H5B C4B 1_555 1_555
C5B C4 1_555 1_555
C6B H6B 1_555 1_555
H7B C6B 1_555 1_555
C7B H8B 1_555 1_555
H9B C7B 1_555 1_555
C8B C7B 1_555 1_555
H10B C8B 1_555 1_555
H11B C8B 1_555 1_555
C9B S1B 1_555 1_555
H12B C9B 1_555 1_555
H13B C9B 1_555 1_555
C10B O2B 1_555 1_555
H14B C10B 1_555 1_555
H15B C10B 1_555 1_555
C11B O1B 1_555 1_555
H16B C11B 1_555 1_555
H17B C11B 1_555 1_555
C3 C11 1_555 1_555
C5 C9 1_555 1_555
C6 C10 1_555 1_555
C2B C4B 1_555 1_555
C2B C5B 1_555 1_555
C3B C11B 1_555 1_555
C5B C9B 1_555 1_555
C6B C10B 1_555 1_555

#END
