
#######################################################################
#
#                 Cambridge Crystallographic Data Centre
#                                CCDC 
#
#######################################################################
#
# If this CIF has been generated from an entry in the Cambridge 
# Structural Database, then it will include bibliographic, chemical, 
# crystal, experimental, refinement or atomic coordinate data resulting 
# from the CCDC's data processing and validation procedures.
#
#######################################################################

data_JIBLAK
_chemical_formula_moiety         'C22 H34 O4 S4'
_chemical_name_systematic        
8,11,23,26-tetraoxa-5,14,20,29-tetrathiatricyclo[14.14.0.0^3,18^]triaconta-1(16),2,17-triene
_symmetry_cell_setting           monoclinic
_symmetry_space_group_name_H-M   'P 21/c'
_symmetry_Int_Tables_number      14
_space_group_name_Hall           '-P 2ybc'
loop_
_symmetry_equiv_pos_site_id
_symmetry_equiv_pos_as_xyz
1 x,y,z
2 -x,1/2+y,1/2-z
3 -x,-y,-z
4 x,1/2-y,1/2+z
_cell_length_a                   11.5128(2)
_cell_length_b                   11.4268(2)
_cell_length_c                   18.9720(4)
_cell_angle_alpha                90
_cell_angle_beta                 103.3470(10)
_cell_angle_gamma                90
_cell_volume                     2428.44
_exptl_crystal_colour            colorless
_exptl_crystal_description       block
_cell_formula_units_Z            4
loop_
_atom_site_label
_atom_site_type_symbol
_atom_site_fract_x
_atom_site_fract_y
_atom_site_fract_z
S1 S 0.25468(4) 0.12362(5) 0.20106(2)
S2 S 0.16466(4) 0.49591(4) 0.51365(2)
S3 S -0.02301(4) 0.37633(5) 0.11140(3)
S4 S 0.38057(4) 0.69222(5) 0.42210(3)
O1 O 0.38905(11) 0.01726(13) 0.40456(7)
O2 O 0.23461(10) 0.15669(12) 0.49332(7)
O3 O 0.15569(12) 0.67870(14) 0.13332(8)
O4 O 0.39494(11) 0.78622(13) 0.22059(7)
C1 C 0.22785(14) 0.35075(16) 0.25553(9)
C2 C 0.31248(14) 0.40884(16) 0.30813(9)
H1 H 0.392468 0.401933 0.306880
C3 C 0.28354(14) 0.47658(16) 0.36240(9)
C4 C 0.16238(14) 0.48607(16) 0.36483(9)
C5 C 0.07831(14) 0.42891(17) 0.31189(9)
H2 H -0.001659 0.435469 0.313259
C6 C 0.10680(14) 0.36232(17) 0.25687(9)
C7 C 0.26798(15) 0.28175(17) 0.19795(9)
H3 H 0.351033 0.300639 0.200650
H4 H 0.222435 0.308306 0.151134
C8 C 0.36065(16) 0.08421(19) 0.28406(10)
H5 H 0.400676 0.012295 0.276276
H6 H 0.420658 0.145108 0.296100
C9 C 0.30247(15) 0.0675(2) 0.34691(10)
H7 H 0.275778 0.142195 0.361703
H8 H 0.233884 0.016181 0.333130
C10 C 0.34558(15) -0.01169(18) 0.46703(9)
H9 H 0.395996 -0.072117 0.494178
H10 H 0.265612 -0.043456 0.451484
C11 C 0.34253(15) 0.09089(18) 0.51594(10)
H11 H 0.349217 0.063157 0.565035
H12 H 0.410303 0.141323 0.515947
C12 C 0.25457(15) 0.27813(17) 0.50423(10)
H13 H 0.293525 0.308772 0.467917
H14 H 0.306636 0.291641 0.551557
C13 C 0.13744(15) 0.34055(17) 0.49911(10)
H15 H 0.098238 0.309871 0.535289
H16 H 0.085456 0.327601 0.451684
C14 C 0.11869(14) 0.55357(17) 0.42181(9)
H17 H 0.032163 0.555744 0.408282
H18 H 0.146971 0.633549 0.421879
C15 C 0.00738(15) 0.30796(19) 0.20116(9)
H19 H -0.064962 0.310810 0.219077
H20 H 0.026440 0.226177 0.196006
C16 C 0.00887(16) 0.53030(19) 0.12984(11)
H21 H -0.055217 0.577380 0.101426
H22 H 0.013906 0.546214 0.180680
C17 C 0.12541(17) 0.5625(2) 0.11104(11)
H23 H 0.187938 0.509653 0.135187
H24 H 0.117538 0.555590 0.059194
C18 C 0.2587(2) 0.7175(2) 0.10957(12)
H25 H 0.235442 0.740809 0.059099
H26 H 0.315540 0.653795 0.113574
C19 C 0.3155(2) 0.8178(2) 0.15410(11)
H27 H 0.359078 0.863765 0.125783
H28 H 0.253150 0.867290 0.164700
C20 C 0.33876(16) 0.7423(2) 0.27462(10)
H29 H 0.304042 0.666022 0.260743
H30 H 0.275924 0.794969 0.281068
C21 C 0.43417(16) 0.73353(19) 0.34350(10)
H31 H 0.474112 0.808602 0.352795
H32 H 0.492965 0.676543 0.336545
C22 C 0.38226(15) 0.53374(18) 0.41792(9)
H33 H 0.457942 0.509632 0.408359
H34 H 0.379294 0.503600 0.465268
loop_
_geom_bond_atom_site_label_1
_geom_bond_atom_site_label_2
_geom_bond_site_symmetry_1
_geom_bond_site_symmetry_2
S1 C7 1_555 1_555
S2 C13 1_555 1_555
S3 C15 1_555 1_555
S4 C21 1_555 1_555
O1 C9 1_555 1_555
O2 C11 1_555 1_555
O3 C17 1_555 1_555
O4 C19 1_555 1_555
C1 C2 1_555 1_555
C2 H1 1_555 1_555
C3 C2 1_555 1_555
C4 C3 1_555 1_555
C5 C4 1_555 1_555
H2 C5 1_555 1_555
C6 C1 1_555 1_555
C7 C1 1_555 1_555
H3 C7 1_555 1_555
H4 C7 1_555 1_555
C8 S1 1_555 1_555
H5 C8 1_555 1_555
H6 C8 1_555 1_555
C9 C8 1_555 1_555
H7 C9 1_555 1_555
H8 C9 1_555 1_555
C10 O1 1_555 1_555
H9 C10 1_555 1_555
H10 C10 1_555 1_555
C11 C10 1_555 1_555
H11 C11 1_555 1_555
H12 C11 1_555 1_555
C12 O2 1_555 1_555
H13 C12 1_555 1_555
H14 C12 1_555 1_555
C13 C12 1_555 1_555
H15 C13 1_555 1_555
H16 C13 1_555 1_555
C14 S2 1_555 1_555
H17 C14 1_555 1_555
H18 C14 1_555 1_555
C15 C6 1_555 1_555
H19 C15 1_555 1_555
H20 C15 1_555 1_555
C16 S3 1_555 1_555
H21 C16 1_555 1_555
H22 C16 1_555 1_555
C17 C16 1_555 1_555
H23 C17 1_555 1_555
H24 C17 1_555 1_555
C18 O3 1_555 1_555
H25 C18 1_555 1_555
H26 C18 1_555 1_555
C19 C18 1_555 1_555
H27 C19 1_555 1_555
H28 C19 1_555 1_555
C20 O4 1_555 1_555
H29 C20 1_555 1_555
H30 C20 1_555 1_555
C21 C20 1_555 1_555
H31 C21 1_555 1_555
H32 C21 1_555 1_555
C22 S4 1_555 1_555
H33 C22 1_555 1_555
H34 C22 1_555 1_555
C3 C22 1_555 1_555
C4 C14 1_555 1_555
C5 C6 1_555 1_555

#END
