
#######################################################################
#
#                 Cambridge Crystallographic Data Centre
#                                CCDC 
#
#######################################################################
#
# If this CIF has been generated from an entry in the Cambridge 
# Structural Database, then it will include bibliographic, chemical, 
# crystal, experimental, refinement or atomic coordinate data resulting 
# from the CCDC's data processing and validation procedures.
#
#######################################################################

data_JIBPIW
_chemical_formula_moiety         'C27 H36 N3 O1 1+,C7 H8,C1 F3 O3 S1 1-'
_chemical_name_systematic        
'1,3-bis[2,6-bis(propan-2-yl)phenyl]-2-nitroso-1H-imidazol-3-ium trifluoromethanesulfonate toluene solvate'
_symmetry_cell_setting           triclinic
_symmetry_space_group_name_H-M   'P -1'
_symmetry_Int_Tables_number      2
_space_group_name_Hall           '-P 1'
loop_
_symmetry_equiv_pos_site_id
_symmetry_equiv_pos_as_xyz
1 x,y,z
2 -x,-y,-z
_cell_length_a                   8.7310(17)
_cell_length_b                   14.561(3)
_cell_length_c                   14.605(3)
_cell_angle_alpha                104.17(3)
_cell_angle_beta                 95.43(3)
_cell_angle_gamma                100.08(3)
_cell_volume                     1754
_exptl_crystal_colour            yellow
_exptl_crystal_description       block
_cell_formula_units_Z            2
loop_
_atom_site_label
_atom_site_type_symbol
_atom_site_fract_x
_atom_site_fract_y
_atom_site_fract_z
S1 S 0.41618(5) 0.62771(4) 0.86150(3)
O1 O 0.4062(6) 0.5503(5) 0.7702(5)
F1 F 0.5067(7) 0.8116(4) 0.9145(4)
O2 O 0.4998(6) 0.6081(4) 0.9366(3)
O3 O 0.2585(6) 0.6452(4) 0.8632(4)
F2 F 0.4653(5) 0.75877(18) 0.76148(18)
F3 F 0.6648(4) 0.7445(3) 0.8411(3)
C1 C 0.5148(5) 0.7425(3) 0.8421(2)
N1 N 0.69910(12) 0.27883(8) 0.83112(7)
N2 N 0.63833(12) 0.34150(8) 0.71464(7)
C3 C 0.71183(14) 0.27525(9) 0.73925(8)
C4 C 0.75698(15) 0.21594(9) 0.88376(8)
C5 C 0.57887(15) 0.38772(9) 0.79219(8)
H1 H 0.5220 0.4381 0.7951
C6 C 0.65369(16) 0.12992(10) 0.88138(9)
C7 C 0.62423(16) 0.36305(10) 0.62247(8)
C8 C 0.50103(17) 0.30715(12) 0.55274(9)
C9 C 0.61657(15) 0.34782(9) 0.86535(8)
H2 H 0.5900 0.3651 0.9280
C10 C 0.90917(16) 0.24595(10) 0.93361(9)
C11 C 0.73476(19) 0.44011(11) 0.61122(11)
C12 C 0.49408(17) 0.09682(10) 0.81909(10)
H3 H 0.4670 0.1540 0.7998
C13 C 0.95737(18) 0.18534(12) 0.98657(10)
H4 H 1.0599 0.2026 1.0221
C14 C 0.70851(19) 0.07246(11) 0.93537(10)
H5 H 0.6429 0.0134 0.9361
C15 C 0.8578(2) 0.10049(12) 0.98802(10)
H6 H 0.8921 0.0611 1.0255
C16 C 1.01957(18) 0.33704(12) 0.92898(11)
H7 H 0.9576 0.3735 0.8949
C17 C 0.4889(2) 0.33146(14) 0.46579(10)
H8 H 0.4066 0.2953 0.4160
C18 C 0.5945(3) 0.40713(15) 0.45117(11)
H9 H 0.5843 0.4225 0.3916
C19 C 0.3828(2) 0.22554(14) 0.56912(11)
H10 H 0.4199 0.2149 0.6319
C20 C 0.7148(3) 0.46054(14) 0.52262(12)
H11 H 0.7859 0.5126 0.5113
C21 C 0.8699(2) 0.49599(13) 0.68833(13)
H12 H 0.8352 0.4872 0.7495
C22 C 1.0895(2) 0.40362(14) 1.02823(13)
H13 H 1.0044 0.4176 1.0652
H14 H 1.1510 0.4642 1.0217
H15 H 1.1580 0.3716 1.0612
C23 C 0.5030(2) 0.02005(15) 0.72787(12)
H16 H 0.5876 0.0454 0.6956
H17 H 0.4028 0.0039 0.6854
H18 H 0.5244 -0.0382 0.7444
C24 C 0.3620(2) 0.05821(17) 0.86989(14)
H19 H 0.3820 -0.0006 0.8859
H20 H 0.2615 0.0432 0.8278
H21 H 0.3579 0.1073 0.9285
C25 C 1.1513(2) 0.31098(16) 0.87097(15)
H22 H 1.2162 0.2771 0.9040
H23 H 1.2168 0.3703 0.8644
H24 H 1.1049 0.2690 0.8076
C26 C 0.3690(3) 0.13072(17) 0.49193(16)
H25 H 0.3262 0.1380 0.4302
H26 H 0.2987 0.0785 0.5080
H27 H 0.4732 0.1149 0.4881
C27 C 0.2232(3) 0.2553(2) 0.5755(2)
H28 H 0.2354 0.3153 0.6262
H29 H 0.1483 0.2039 0.5897
H30 H 0.1838 0.2656 0.5144
N3 N 0.7925(2) 0.20663(17) 0.69054(15)
O7 O 0.7936(2) 0.20535(13) 0.60625(10)
C28 C 0.9105(11) 0.6059(6) 0.7020(7)
H31 H 0.9555 0.6196 0.6466
H32 H 0.9870 0.6361 0.7598
H33 H 0.8148 0.6321 0.7083
C29 C 1.0162(6) 0.4531(4) 0.6795(4)
H34 H 0.9919 0.3860 0.6835
H35 H 1.0997 0.4910 0.7314
H36 H 1.0512 0.4547 0.6180
C32 C 1.0609(2) 0.07199(13) 0.22692(12)
H44 H 1.1097 0.0754 0.1721
C33 C 1.0657(2) -0.00568(14) 0.26528(12)
H45 H 1.1154 -0.0562 0.2363
C34 C 0.9854(2) 0.14492(13) 0.26792(14)
H46 H 0.9813 0.1971 0.2400
C35 C 0.9229(2) 0.06514(17) 0.38801(12)
H47 H 0.8764 0.0625 0.4438
C36 C 0.9157(2) 0.14267(15) 0.34927(13)
C37 C 0.9970(2) -0.00877(17) 0.34664(13)
H48 H 1.0004 -0.0613 0.3741
C38 C 0.8343(3) 0.2220(2) 0.39315(19)
H49 H 0.8935 0.2591 0.4555
H50 H 0.7278 0.1935 0.4013
H51 H 0.8284 0.2649 0.3513
O4? O 0.2694(6) 0.6258(3) 0.8975(3)
O5? O 0.4494(7) 0.5666(5) 0.7803(5)
O6? O 0.5403(7) 0.6490(4) 0.9465(4)
F4? F 0.3392(8) 0.7361(4) 0.7613(4)
F5? F 0.4533(8) 0.8216(4) 0.8981(5)
F6? F 0.5823(9) 0.7553(4) 0.7938(5)
C2? C 0.4450(10) 0.7403(5) 0.8278(5)
H37? H 0.8696 0.4672 0.7439
N4? N 0.7871(10) 0.2300(7) 0.6628(7)
O8? O 0.8595(10) 0.1770(6) 0.6866(5)
C30? C 0.8562(7) 0.5995(4) 0.7195(4)
H38? H 0.8595 0.6276 0.6650
H39? H 0.9436 0.6355 0.7697
H40? H 0.7564 0.6035 0.7443
C31? C 1.0272(5) 0.4913(5) 0.6454(5)
H41? H 1.0329 0.4235 0.6189
H42? H 1.1166 0.5227 0.6958
H43? H 1.0304 0.5247 0.5948
loop_
_geom_bond_atom_site_label_1
_geom_bond_atom_site_label_2
_geom_bond_site_symmetry_1
_geom_bond_site_symmetry_2
S1 O1 1_555 1_555
F1 C1 1_555 1_555
O2 S1 1_555 1_555
O3 S1 1_555 1_555
F2 C1 1_555 1_555
F3 C1 1_555 1_555
C1 S1 1_555 1_555
N1 C3 1_555 1_555
N2 C3 1_555 1_555
C3 N3 1_555 1_555
C4 N1 1_555 1_555
C5 N2 1_555 1_555
H1 C5 1_555 1_555
C6 C4 1_555 1_555
C7 N2 1_555 1_555
C8 C7 1_555 1_555
C9 N1 1_555 1_555
H2 C9 1_555 1_555
C10 C4 1_555 1_555
C11 C7 1_555 1_555
C12 C6 1_555 1_555
H3 C12 1_555 1_555
C13 C10 1_555 1_555
H4 C13 1_555 1_555
C14 C6 1_555 1_555
H5 C14 1_555 1_555
C15 C13 1_555 1_555
H6 C15 1_555 1_555
C16 C10 1_555 1_555
H7 C16 1_555 1_555
C17 C8 1_555 1_555
H8 C17 1_555 1_555
C18 C17 1_555 1_555
H9 C18 1_555 1_555
C19 C8 1_555 1_555
H10 C19 1_555 1_555
C20 C11 1_555 1_555
H11 C20 1_555 1_555
C21 C11 1_555 1_555
H12 C21 1_555 1_555
C22 C16 1_555 1_555
H13 C22 1_555 1_555
H14 C22 1_555 1_555
H15 C22 1_555 1_555
C23 C12 1_555 1_555
H16 C23 1_555 1_555
H17 C23 1_555 1_555
H18 C23 1_555 1_555
C24 C12 1_555 1_555
H19 C24 1_555 1_555
H20 C24 1_555 1_555
H21 C24 1_555 1_555
C25 C16 1_555 1_555
H22 C25 1_555 1_555
H23 C25 1_555 1_555
H24 C25 1_555 1_555
C26 C19 1_555 1_555
H25 C26 1_555 1_555
H26 C26 1_555 1_555
H27 C26 1_555 1_555
C27 C19 1_555 1_555
H28 C27 1_555 1_555
H29 C27 1_555 1_555
H30 C27 1_555 1_555
N3 O7 1_555 1_555
C28 C21 1_555 1_555
H31 C28 1_555 1_555
H32 C28 1_555 1_555
H33 C28 1_555 1_555
C29 C21 1_555 1_555
H34 C29 1_555 1_555
H35 C29 1_555 1_555
H36 C29 1_555 1_555
C32 H44 1_555 1_555
C33 C32 1_555 1_555
H45 C33 1_555 1_555
C34 C32 1_555 1_555
H46 C34 1_555 1_555
C35 H47 1_555 1_555
C36 C34 1_555 1_555
C37 C33 1_555 1_555
H48 C37 1_555 1_555
C38 C36 1_555 1_555
H49 C38 1_555 1_555
H50 C38 1_555 1_555
H51 C38 1_555 1_555
C5 C9 1_555 1_555
C14 C15 1_555 1_555
C18 C20 1_555 1_555
C35 C36 1_555 1_555
C35 C37 1_555 1_555

#END
