
#######################################################################
#
#                 Cambridge Crystallographic Data Centre
#                                CCDC 
#
#######################################################################
#
# If this CIF has been generated from an entry in the Cambridge 
# Structural Database, then it will include bibliographic, chemical, 
# crystal, experimental, refinement or atomic coordinate data resulting 
# from the CCDC's data processing and validation procedures.
#
#######################################################################

data_JIBWOJ
_chemical_formula_moiety         'C25 H19 N3 O1 S1'
_chemical_name_systematic        
7-(4-methoxyphenyl)-N,N-diphenyl-2,1,3-benzothiadiazol-4-amine
_symmetry_cell_setting           triclinic
_symmetry_space_group_name_H-M   'P -1'
_symmetry_Int_Tables_number      2
_space_group_name_Hall           '-P 1'
loop_
_symmetry_equiv_pos_site_id
_symmetry_equiv_pos_as_xyz
1 x,y,z
2 -x,-y,-z
_cell_length_a                   10.2716(9)
_cell_length_b                   10.9546(10)
_cell_length_c                   11.2649(10)
_cell_angle_alpha                99.583(8)
_cell_angle_beta                 111.659(8)
_cell_angle_gamma                113.273(9)
_cell_volume                     1007.19
_exptl_crystal_colour            red
_exptl_crystal_description       block
_cell_formula_units_Z            2
loop_
_atom_site_label
_atom_site_type_symbol
_atom_site_fract_x
_atom_site_fract_y
_atom_site_fract_z
S1 S 0.16433(7) 0.58722(6) 0.19572(6)
O1 O 0.98742(19) 1.14209(17) 0.89501(16)
N1 N 0.3406(2) 0.70977(18) 0.31565(18)
N2 N 0.1769(2) 0.61112(17) 0.06256(18)
N3 N 0.3008(2) 0.71289(18) -0.11999(17)
C1 C 0.4210(2) 0.77986(19) 0.2555(2)
C2 C 0.5837(2) 0.8967(2) 0.3223(2)
C3 C 0.6363(3) 0.9439(2) 0.2350(2)
H1 H 0.740802 1.020075 0.273228
C4 C 0.5433(3) 0.8850(2) 0.0914(2)
H2 H 0.589304 0.923114 0.039707
C5 C 0.3892(2) 0.7749(2) 0.0248(2)
C6 C 0.3252(2) 0.7210(2) 0.1090(2)
C7 C 0.6892(2) 0.9614(2) 0.4722(2)
C8 C 0.6327(3) 0.9403(2) 0.5657(2)
H3 H 0.522684 0.882233 0.533262
C9 C 0.7345(3) 1.0026(2) 0.7043(2)
H4 H 0.692635 0.985765 0.764084
C10 C 0.8977(3) 1.0896(2) 0.7564(2)
C11 C 0.9575(3) 1.1134(3) 0.6667(3)
H5 H 1.067517 1.172440 0.699892
C12 C 0.8545(3) 1.0496(3) 0.5277(2)
H6 H 0.897205 1.066246 0.468430
C13 C 1.1543(3) 1.2406(4) 0.9552(3)
H7 H 1.206358 1.194783 0.927075
H8 H 1.200927 1.273377 1.053385
H9 H 1.169036 1.320349 0.926181
C14 C 0.1621(2) 0.7199(2) -0.1942(2)
C15 C 0.0651(3) 0.6439(2) -0.3339(2)
H10 H 0.089454 0.584069 -0.379275
C16 C -0.0671(3) 0.6561(3) -0.4062(3)
H11 H -0.130554 0.605227 -0.500242
C17 C -0.1070(3) 0.7421(3) -0.3419(3)
H12 H -0.195744 0.750948 -0.391622
C18 C -0.0142(3) 0.8142(2) -0.2039(3)
H13 H -0.041620 0.871300 -0.159021
C19 C 0.1194(3) 0.8044(2) -0.1293(2)
H14 H 0.181120 0.854734 -0.035041
C20 C 0.3658(2) 0.6495(2) -0.1865(2)
C21 C 0.3853(3) 0.5401(2) -0.1570(3)
H15 H 0.356067 0.507660 -0.094625
C22 C 0.4479(3) 0.4771(3) -0.2191(3)
H16 H 0.461066 0.402667 -0.198335
C23 C 0.4908(3) 0.5240(3) -0.3111(3)
H17 H 0.532716 0.481517 -0.353326
C24 C 0.4716(3) 0.6331(3) -0.3403(3)
H18 H 0.500508 0.665147 -0.402942
C25 C 0.4096(3) 0.6967(2) -0.2780(2)
H19 H 0.397660 0.771746 -0.298315
loop_
_geom_bond_atom_site_label_1
_geom_bond_atom_site_label_2
_geom_bond_site_symmetry_1
_geom_bond_site_symmetry_2
S1 N1 1_555 1_555
O1 C10 1_555 1_555
N1 C1 1_555 1_555
N2 S1 1_555 1_555
N3 C5 1_555 1_555
C1 C2 1_555 1_555
C2 C3 1_555 1_555
C3 H1 1_555 1_555
C4 C3 1_555 1_555
H2 C4 1_555 1_555
C5 C4 1_555 1_555
C6 N2 1_555 1_555
C7 C2 1_555 1_555
C8 C7 1_555 1_555
H3 C8 1_555 1_555
C9 C8 1_555 1_555
H4 C9 1_555 1_555
C10 C9 1_555 1_555
C11 C10 1_555 1_555
H5 C11 1_555 1_555
C12 C7 1_555 1_555
H6 C12 1_555 1_555
C13 O1 1_555 1_555
H7 C13 1_555 1_555
H8 C13 1_555 1_555
H9 C13 1_555 1_555
C14 N3 1_555 1_555
C15 C14 1_555 1_555
H10 C15 1_555 1_555
C16 C15 1_555 1_555
H11 C16 1_555 1_555
C17 C16 1_555 1_555
H12 C17 1_555 1_555
C18 C17 1_555 1_555
H13 C18 1_555 1_555
C19 C14 1_555 1_555
H14 C19 1_555 1_555
C20 N3 1_555 1_555
C21 C20 1_555 1_555
H15 C21 1_555 1_555
C22 C21 1_555 1_555
H16 C22 1_555 1_555
C23 C22 1_555 1_555
H17 C23 1_555 1_555
C24 C23 1_555 1_555
H18 C24 1_555 1_555
C25 C20 1_555 1_555
H19 C25 1_555 1_555
C1 C6 1_555 1_555
C5 C6 1_555 1_555
C11 C12 1_555 1_555
C18 C19 1_555 1_555
C24 C25 1_555 1_555

#END
