
#######################################################################
#
#                 Cambridge Crystallographic Data Centre
#                                CCDC 
#
#######################################################################
#
# If this CIF has been generated from an entry in the Cambridge 
# Structural Database, then it will include bibliographic, chemical, 
# crystal, experimental, refinement or atomic coordinate data resulting 
# from the CCDC's data processing and validation procedures.
#
#######################################################################

data_JICGUX
_chemical_formula_moiety         
'C72 H88 K2 N4 O20 2+,2(C6 H2 N3 O7 1-),C1 H1 Cl3,H2 O1'
_chemical_name_systematic        
"bis(N,N'-(m-Phenylene dimethylidyne)di-3,4-(1,4,7,10,13-pentaoxacyclopentadeceno)aniline-potassium) dipicrate chloroform solvate monohydrate"
_symmetry_cell_setting           monoclinic
_symmetry_space_group_name_H-M   'P 21/n'
_symmetry_Int_Tables_number      14
_space_group_name_Hall           '-P 2yn'
loop_
_symmetry_equiv_pos_site_id
_symmetry_equiv_pos_as_xyz
1 x,y,z
2 1/2-x,1/2+y,1/2-z
3 -x,-y,-z
4 1/2+x,1/2-y,1/2+z
_cell_length_a                   19.0924(35)
_cell_length_b                   20.4413(30)
_cell_length_c                   25.5996(56)
_cell_angle_alpha                90
_cell_angle_beta                 108.472(15)
_cell_angle_gamma                90
_cell_volume                     9476.1
_exptl_crystal_colour            'light yellow'
_chemical_melting_point          166-168deg.C(dec.)
_cell_formula_units_Z            4
loop_
_atom_site_label
_atom_site_type_symbol
_atom_site_fract_x
_atom_site_fract_y
_atom_site_fract_z
K1 K 0.1254(1) 0.3519(1) -0.6662(1)
O1 O -0.0151(3) 0.2679(2) -0.6998(2)
O2 O 0.0285(3) 0.3301(2) -0.7800(2)
O3 O 0.0402(3) 0.4553(2) -0.7252(2)
O4 O 0.0812(3) 0.4555(2) -0.6077(2)
O5 O 0.0185(3) 0.3323(2) -0.6106(2)
O6 O 0.2016(4) 0.2520(2) -0.5877(2)
O7 O 0.1703(3) 0.2299(3) -0.6988(2)
O8 O 0.2151(3) 0.3546(3) -0.7343(2)
O9 O 0.2305(3) 0.4536(2) -0.6526(2)
O10 O 0.2627(3) 0.3639(2) -0.5660(2)
C1 C -0.0002(4) 0.2299(3) -0.6525(2)
C2 C -0.0217(4) 0.2349(4) -0.7504(3)
C3 C -0.0347(4) 0.2892(4) -0.7930(3)
C4 C 0.0167(5) 0.3916(4) -0.8067(3)
C5 C -0.0157(5) 0.4420(4) -0.7771(3)
C6 C 0.0112(6) 0.5025(4) -0.6960(4)
C7 C 0.0661(5) 0.5126(4) -0.6412(3)
C8 C 0.0275(5) 0.4414(3) -0.5809(3)
C9 C 0.0392(5) 0.3720(3) -0.5611(3)
C10 C 0.0169(4) 0.2658(3) -0.6043(3)
C11 C 0.0333(4) 0.2344(3) -0.5536(3)
C12 C 0.0318(4) 0.1658(3) -0.5522(3)
C13 C 0.0151(4) 0.1307(3) -0.6001(3)
C14 C -0.0037(4) 0.1625(3) -0.6512(3)
C15 C 0.2343(4) 0.2640(3) -0.5331(2)
C16 C 0.1996(4) 0.1865(3) -0.6085(3)
C17 C 0.2200(5) 0.1884(4) -0.6600(3)
C18 C 0.1870(5) 0.2401(4) -0.7492(3)
C19 C 0.2453(5) 0.2933(5) -0.7438(4)
C20 C 0.2661(6) 0.4079(5) -0.7286(4)
C21 C 0.2368(5) 0.4661(4) -0.7066(3)
C22 C 0.3011(5) 0.4526(4) -0.6098(3)
C23 C 0.2891(5) 0.4309(3) -0.5568(3)
C24 C 0.2665(4) 0.3258(3) -0.5208(3)
C25 C 0.2963(5) 0.3452(3) -0.4671(3)
C26 C 0.2984(5) 0.3016(4) -0.4255(3)
C27 C 0.2680(4) 0.2394(3) -0.4367(3)
C28 C 0.2350(4) 0.2219(3) -0.4910(3)
N1 N 0.0493(3) 0.1294(3) -0.5017(2)
N2 N 0.2737(4) 0.2000(3) -0.3892(2)
K2 K 0.2475(1) 0.3086(1) 0.0346(1)
O11 O 0.1132(3) 0.3472(2) -0.0548(2)
O12 O 0.1498(3) 0.4069(2) 0.0463(2)
O13 O 0.1562(3) 0.2817(2) 0.1001(2)
O14 O 0.2078(3) 0.1709(2) 0.0507(2)
O15 O 0.1425(3) 0.2251(2) -0.0518(2)
O16 O 0.3396(3) 0.2917(2) -0.0331(2)
O17 O 0.2889(3) 0.4165(2) -0.0270(2)
O18 O 0.3421(3) 0.4130(3) 0.0922(2)
O19 O 0.3521(3) 0.2842(2) 0.1421(2)
O20 O 0.3773(3) 0.2244(2) 0.0536(2)
C29 C 0.1140(4) 0.3216(3) -0.1045(3)
C30 C 0.1000(4) 0.4167(3) -0.0522(3)
C31 C 0.0861(4) 0.4259(4) 0.0023(3)
C32 C 0.1356(5) 0.3961(4) 0.0970(3)
C33 C 0.1016(5) 0.3293(4) 0.0992(4)
C34 C 0.1284(5) 0.2167(4) 0.0996(3)
C35 C 0.1890(5) 0.1690(4) 0.1010(3)
C36 C 0.1558(5) 0.1345(4) 0.0066(3)
C37 C 0.1607(5) 0.1564(3) -0.0472(3)
C38 C 0.1290(4) 0.2538(3) -0.1025(2)
C39 C 0.1312(4) 0.2215(3) -0.1494(3)
C40 C 0.1151(4) 0.2557(3) -0.1992(3)
C41 C 0.1012(4) 0.3229(3) -0.2005(3)
C42 C 0.1017(4) 0.3546(3) -0.1530(3)
C43 C 0.3449(4) 0.2253(3) -0.0419(3)
C44 C 0.3249(4) 0.3352(3) -0.0799(3)
C45 C 0.3413(4) 0.4013(3) -0.0555(3)
C46 C 0.3085(5) 0.4723(4) 0.0073(3)
C47 C 0.3683(5) 0.4600(4) 0.0603(4)
C48 C 0.3999(5) 0.3950(4) 0.1408(3)
C49 C 0.3706(5) 0.3449(4) 0.1715(3)
C50 C 0.4148(4) 0.2423(4) 0.1498(3)
C51 C 0.3940(5) 0.1895(4) 0.1055(3)
C52 C 0.3664(4) 0.1890(3) 0.0064(3)
C53 C 0.3740(4) 0.1219(3) 0.0038(3)
C54 C 0.3606(4) 0.0913(3) -0.0475(3)
C55 C 0.3407(4) 0.1284(3) -0.0955(3)
C56 C 0.3313(4) 0.1966(3) -0.0929(3)
N3 N 0.1101(4) 0.2243(3) -0.2508(2)
N4 N 0.3287(3) 0.0932(3) -0.1458(2)
C57 C 0.1118(4) 0.1640(3) -0.2536(3)
C58 C 0.1023(4) 0.1283(3) -0.3055(2)
C59 C 0.1041(4) 0.0596(3) -0.3030(3)
C60 C 0.0921(4) 0.0233(3) -0.3511(3)
C61 C 0.0781(4) 0.0553(3) -0.4016(3)
C62 C 0.0779(4) 0.1229(3) -0.4032(3)
C63 C 0.0616(4) 0.1587(3) -0.4562(3)
C64 C 0.0909(4) 0.1598(3) -0.3555(3)
C65 C 0.3134(4) 0.1221(3) -0.1910(3)
C66 C 0.3021(4) 0.0890(3) -0.2442(3)
C67 C 0.3049(4) 0.0211(3) -0.2480(3)
C68 C 0.2966(4) -0.0082(3) -0.2991(3)
C69 C 0.2854(4) 0.0300(3) -0.3457(3)
C70 C 0.2810(4) 0.0984(3) -0.3423(3)
C71 C 0.2721(4) 0.1382(3) -0.3924(3)
C72 C 0.2887(4) 0.1278(3) -0.2916(3)
N5 N 0.2015(3) -0.1625(3) 0.7336(2)
N6 N 0.4046(4) -0.1298(3) 0.9017(3)
N7 N 0.1847(3) -0.0005(3) 0.8734(2)
O21 O 0.1171(3) -0.0754(2) 0.7737(2)
O22 O 0.1711(3) -0.1273(3) 0.6935(2)
O23 O 0.2106(5) -0.2202(3) 0.7288(3)
O24 O 0.4358(4) -0.1770(4) 0.8902(4)
O25 O 0.4348(4) -0.0939(3) 0.9402(3)
O26 O 0.1993(4) 0.0057(3) 0.9229(2)
O27 O 0.1437(4) 0.0369(3) 0.8397(2)
C73 C 0.1828(4) -0.0844(3) 0.8017(3)
C74 C 0.2300(4) -0.1324(3) 0.7869(3)
C75 C 0.2992(4) -0.1494(3) 0.8185(3)
C76 C 0.3300(4) -0.1167(3) 0.8681(3)
C77 C 0.2913(4) -0.0682(3) 0.8864(3)
C78 C 0.2217(4) -0.0531(3) 0.8532(3)
O28 O 0.1174(4) 0.5568(3) 0.0940(3)
O29 O 0.1700(5) 0.5812(4) 0.0078(3)
O30 O 0.0820(4) 0.6319(6) -0.0514(3)
O31 O 0.0413(5) 0.8435(4) 0.0185(6)
O32 O 0.0368(6) 0.8507(5) 0.1006(6)
O33 O 0.1126(7) 0.6615(8) 0.2222(4)
O34 O 0.0680(6) 0.5729(6) 0.1835(4)
N8 N 0.1176(4) 0.6196(4) -0.0052(3)
N9 N 0.0456(6) 0.8187(5) 0.0643(6)
N10 N 0.0910(5) 0.6270(6) 0.1818(4)
C79 C 0.1031(4) 0.6159(4) 0.0882(3)
C80 C 0.1002(4) 0.6533(4) 0.0397(3)
C81 C 0.0811(4) 0.7171(4) 0.0298(4)
C82 C 0.0660(5) 0.7508(4) 0.0729(6)
C83 C 0.0687(5) 0.7204(6) 0.1222(5)
C84 C 0.0863(5) 0.6564(5) 0.1289(4)
C85 C 0.0173(7) 1.0400(6) 0.1943(6)
Cl1 Cl 0.0309(2) 0.9657(3) 0.1709(3)
Cl2 Cl 0.0933(2) 1.0635(4) 0.2461(3)
Cl3 Cl -0.0010(5) 1.1023(4) 0.1429(3)
O35 O 0.2649(5) 0.5128(5) 0.1438(4)
loop_
_geom_bond_atom_site_label_1
_geom_bond_atom_site_label_2
_geom_bond_site_symmetry_1
_geom_bond_site_symmetry_2
K1 O1 1_555 1_555
O1 C1 1_555 1_555
O2 K1 1_555 1_555
O3 K1 1_555 1_555
O4 K1 1_555 1_555
O5 K1 1_555 1_555
O6 K1 1_555 1_555
O7 K1 1_555 1_555
O8 K1 1_555 1_555
O9 K1 1_555 1_555
O10 K1 1_555 1_555
C1 C10 1_555 1_555
C2 O1 1_555 1_555
C3 O2 1_555 1_555
C4 O2 1_555 1_555
C5 O3 1_555 1_555
C6 O3 1_555 1_555
C7 O4 1_555 1_555
C8 O4 1_555 1_555
C9 O5 1_555 1_555
C10 O5 1_555 1_555
C11 C10 1_555 1_555
C12 C11 1_555 1_555
C13 C12 1_555 1_555
C14 C1 1_555 1_555
C15 O6 1_555 1_555
C16 O6 1_555 1_555
C17 O7 1_555 1_555
C18 O7 1_555 1_555
C19 O8 1_555 1_555
C20 O8 1_555 1_555
C21 O9 1_555 1_555
C22 O9 1_555 1_555
C23 O10 1_555 1_555
C24 O10 1_555 1_555
C25 C24 1_555 1_555
C26 C25 1_555 1_555
C27 C26 1_555 1_555
C28 C15 1_555 1_555
N1 C12 1_555 1_555
N2 C27 1_555 1_555
K2 O11 1_555 1_555
O11 C29 1_555 1_555
O12 K2 1_555 1_555
O13 K2 1_555 1_555
O14 K2 1_555 1_555
O15 K2 1_555 1_555
O16 K2 1_555 1_555
O17 K2 1_555 1_555
O18 K2 1_555 1_555
O19 K2 1_555 1_555
O20 K2 1_555 1_555
C29 C38 1_555 1_555
C30 O11 1_555 1_555
C31 O12 1_555 1_555
C32 O12 1_555 1_555
C33 O13 1_555 1_555
C34 O13 1_555 1_555
C35 O14 1_555 1_555
C36 O14 1_555 1_555
C37 O15 1_555 1_555
C38 O15 1_555 1_555
C39 C38 1_555 1_555
C40 C39 1_555 1_555
C41 C40 1_555 1_555
C42 C29 1_555 1_555
C43 O16 1_555 1_555
C44 O16 1_555 1_555
C45 O17 1_555 1_555
C46 O17 1_555 1_555
C47 O18 1_555 1_555
C48 O18 1_555 1_555
C49 O19 1_555 1_555
C50 O19 1_555 1_555
C51 O20 1_555 1_555
C52 O20 1_555 1_555
C53 C52 1_555 1_555
C54 C53 1_555 1_555
C55 C54 1_555 1_555
C56 C43 1_555 1_555
N3 C40 1_555 1_555
N4 C55 1_555 1_555
C57 N3 1_555 1_555
C58 C57 1_555 1_555
C59 C58 1_555 1_555
C60 C59 1_555 1_555
C61 C60 1_555 1_555
C62 C61 1_555 1_555
C63 N1 1_555 1_555
C64 C58 1_555 1_555
C65 N4 1_555 1_555
C66 C65 1_555 1_555
C67 C66 1_555 1_555
C68 C67 1_555 1_555
C69 C68 1_555 1_555
C70 C69 1_555 1_555
C71 N2 1_555 1_555
C72 C66 1_555 1_555
N5 O22 1_555 1_555
N6 O24 1_555 1_555
N7 O26 1_555 1_555
O21 C73 1_555 1_555
O23 N5 1_555 1_555
O25 N6 1_555 1_555
O27 N7 1_555 1_555
C73 C74 1_555 1_555
C74 N5 1_555 1_555
C75 C74 1_555 1_555
C76 N6 1_555 1_555
C77 C76 1_555 1_555
C78 N7 1_555 1_555
O28 C79 1_555 1_555
O29 N8 1_555 1_555
O30 N8 1_555 1_555
O31 N9 1_555 1_555
O32 N9 1_555 1_555
O33 N10 1_555 1_555
O34 N10 1_555 1_555
N8 C80 1_555 1_555
N9 C82 1_555 1_555
N10 C84 1_555 1_555
C79 C80 1_555 1_555
C80 C81 1_555 1_555
C81 C82 1_555 1_555
C82 C83 1_555 1_555
C83 C84 1_555 1_555
C84 C79 1_555 1_555
C85 Cl1 1_555 1_555
Cl2 C85 1_555 1_555
Cl3 C85 1_555 1_555
C2 C3 1_555 1_555
C4 C5 1_555 1_555
C6 C7 1_555 1_555
C8 C9 1_555 1_555
C13 C14 1_555 1_555
C15 C24 1_555 1_555
C16 C17 1_555 1_555
C18 C19 1_555 1_555
C20 C21 1_555 1_555
C22 C23 1_555 1_555
C27 C28 1_555 1_555
C30 C31 1_555 1_555
C32 C33 1_555 1_555
C34 C35 1_555 1_555
C36 C37 1_555 1_555
C41 C42 1_555 1_555
C43 C52 1_555 1_555
C44 C45 1_555 1_555
C46 C47 1_555 1_555
C48 C49 1_555 1_555
C50 C51 1_555 1_555
C55 C56 1_555 1_555
C62 C63 1_555 1_555
C62 C64 1_555 1_555
C70 C71 1_555 1_555
C70 C72 1_555 1_555
C73 C78 1_555 1_555
C75 C76 1_555 1_555
C77 C78 1_555 1_555

#END
