
#######################################################################
#
#                 Cambridge Crystallographic Data Centre
#                                CCDC 
#
#######################################################################
#
# If this CIF has been generated from an entry in the Cambridge 
# Structural Database, then it will include bibliographic, chemical, 
# crystal, experimental, refinement or atomic coordinate data resulting 
# from the CCDC's data processing and validation procedures.
#
#######################################################################

data_JICXUO
_chemical_formula_moiety         'C20 F36 O6'
_chemical_name_systematic        
Perfluoro-cis-anti-cis-dicyclohexyl-18-crown-6
_symmetry_cell_setting           monoclinic
_symmetry_space_group_name_H-M   'C 2/c'
_symmetry_Int_Tables_number      15
_space_group_name_Hall           '-C 2yn'
loop_
_symmetry_equiv_pos_site_id
_symmetry_equiv_pos_as_xyz
1 x,y,z
2 1/2+x,1/2+y,z
3 -x,y,1/2-z
4 1/2-x,1/2+y,1/2-z
5 -x,-y,-z
6 1/2-x,1/2-y,-z
7 x,-y,1/2+z
8 1/2+x,1/2-y,1/2+z
_cell_length_a                   32.211(5)
_cell_length_b                   6.0477(6)
_cell_length_c                   18.828(3)
_cell_angle_alpha                90
_cell_angle_beta                 124.782(9)
_cell_angle_gamma                90
_cell_volume                     3012.42
_chemical_melting_point          49-50deg.C
_cell_formula_units_Z            4
loop_
_atom_site_label
_atom_site_type_symbol
_atom_site_fract_x
_atom_site_fract_y
_atom_site_fract_z
C1 C -0.1477(4) 0.675(3) -0.2170(7)
C2 C -0.1865(4) 0.535(3) -0.2544(8)
C3 C -0.2145(5) 0.465(3) -0.3518(7)
C4 C -0.1780(5) 0.474(3) -0.3819(8)
C5 C -0.1392(4) 0.620(3) -0.3449(7)
C6 C -0.1112(4) 0.669(3) -0.2484(7)
O1 O -0.0762(3) 0.4929(13) -0.2033(4)
C7 C -0.0249(3) 0.530(2) -0.1456(5)
C8 C 0.0003(4) 0.304(2) -0.1116(6)
O2 O 0.0500(2) 0.3415(11) -0.0447(4)
C9 C 0.0847(4) 0.176(2) -0.0124(6)
C10 C 0.1320(4) 0.252(2) 0.0777(6)
O3 O -0.1158(2) 0.7107(10) -0.1297(3)
F1 F -0.1821(2) 0.8900(8) -0.2628(3)
F2 F -0.2225(2) 0.5671(10) -0.2398(3)
F3 F -0.1562(2) 0.3326(8) -0.2033(3)
F4 F -0.2489(3) 0.6388(13) -0.3977(5)
F5 F -0.2368(2) 0.2850(14) -0.3683(4)
F6 F -0.2052(2) 0.4531(12) -0.4675(3)
F7 F -0.1468(2) 0.2645(9) -0.3435(4)
F8 F -0.1061(2) 0.5924(10) -0.3646(3)
F9 F -0.1721(2) 0.8249(9) -0.3961(3)
F10 F -0.0892(2) 0.8629(13) -0.2327(3)
F11 F -0.0154(2) 0.6569(9) -0.0809(3)
F12 F -0.0052(2) 0.6289(10) -0.1833(3)
F13 F -0.0237(2) 0.1917(10) -0.0842(3)
F14 F -0.0036(2) 0.1860(10) -0.1755(3)
F15 F 0.0677(2) -0.0120(9) -0.0018(3)
F16 F 0.1005(2) 0.1337(9) -0.0634(3)
F17 F 0.1676(2) 0.1022(10) 0.1076(4)
F18 F 0.1501(2) 0.4391(10) 0.0652(3)
O3D O 0.1158(2) 0.2893(10) 0.1297(3)
C10D C -0.1320(4) 0.748(2) -0.0777(6)
C1D C 0.1477(4) 0.325(3) 0.2170(7)
C9D C -0.0847(4) 0.824(2) 0.0124(6)
F17D F -0.1676(2) 0.8978(10) -0.1076(4)
F18D F -0.1501(2) 0.5609(10) -0.0652(3)
C2D C 0.1865(4) 0.465(3) 0.2544(8)
C6D C 0.1112(4) 0.331(3) 0.2484(7)
F1D F 0.1821(2) 0.1100(8) 0.2628(3)
O2D O -0.0500(2) 0.6585(11) 0.0447(4)
F15D F -0.0677(2) 1.0120(9) 0.0018(3)
F16D F -0.1005(2) 0.8663(9) 0.0634(3)
C3D C 0.2145(5) 0.535(3) 0.3518(7)
F2D F 0.2225(2) 0.4329(10) 0.2398(3)
F3D F 0.1562(2) 0.6674(8) 0.2033(3)
C5D C 0.1392(4) 0.380(3) 0.3449(7)
O1D O 0.0762(3) 0.5071(13) 0.2033(4)
F10D F 0.0892(2) 0.1371(13) 0.2327(3)
C8D C -0.0003(4) 0.696(2) 0.1116(6)
C4D C 0.1780(5) 0.526(3) 0.3819(8)
F4D F 0.2489(3) 0.3612(13) 0.3977(5)
F5D F 0.2368(2) 0.7150(14) 0.3683(4)
F8D F 0.1061(2) 0.4076(10) 0.3646(3)
F9D F 0.1721(2) 0.1751(9) 0.3961(3)
C7D C 0.0249(3) 0.470(2) 0.1456(5)
F13D F 0.0237(2) 0.8083(10) 0.0842(3)
F14D F 0.0036(2) 0.8140(10) 0.1755(3)
F6D F 0.2052(2) 0.5469(12) 0.4675(3)
F7D F 0.1468(2) 0.7355(9) 0.3435(4)
F11D F 0.0154(2) 0.3431(9) 0.0809(3)
F12D F 0.0052(2) 0.3711(10) 0.1833(3)
loop_
_geom_bond_atom_site_label_1
_geom_bond_atom_site_label_2
_geom_bond_site_symmetry_1
_geom_bond_site_symmetry_2
C1 C2 1_555 1_555
C2 C3 1_555 1_555
C3 C4 1_555 1_555
C4 C5 1_555 1_555
C5 C6 1_555 1_555
C6 C1 1_555 1_555
O1 C6 1_555 1_555
C7 O1 1_555 1_555
C8 C7 1_555 1_555
O2 C8 1_555 1_555
C9 O2 1_555 1_555
C10 C9 1_555 1_555
O3 C1 1_555 1_555
F1 C1 1_555 1_555
F2 C2 1_555 1_555
F3 C2 1_555 1_555
F4 C3 1_555 1_555
F5 C3 1_555 1_555
F6 C4 1_555 1_555
F7 C4 1_555 1_555
F8 C5 1_555 1_555
F9 C5 1_555 1_555
F10 C6 1_555 1_555
F11 C7 1_555 1_555
F12 C7 1_555 1_555
F13 C8 1_555 1_555
F14 C8 1_555 1_555
F15 C9 1_555 1_555
F16 C9 1_555 1_555
F17 C10 1_555 1_555
F18 C10 1_555 1_555
O3D C10 1_555 1_555
C10D O3 1_555 1_555
C1D O3D 1_555 1_555
C9D C10D 1_555 1_555
F17D C10D 1_555 1_555
F18D C10D 1_555 1_555
C2D C1D 1_555 1_555
C6D C1D 1_555 1_555
F1D C1D 1_555 1_555
O2D C9D 1_555 1_555
F15D C9D 1_555 1_555
F16D C9D 1_555 1_555
C3D C2D 1_555 1_555
F2D C2D 1_555 1_555
F3D C2D 1_555 1_555
C5D C6D 1_555 1_555
O1D C6D 1_555 1_555
F10D C6D 1_555 1_555
C8D O2D 1_555 1_555
C4D C3D 1_555 1_555
F4D C3D 1_555 1_555
F5D C3D 1_555 1_555
F8D C5D 1_555 1_555
F9D C5D 1_555 1_555
C7D O1D 1_555 1_555
F13D C8D 1_555 1_555
F14D C8D 1_555 1_555
F6D C4D 1_555 1_555
F7D C4D 1_555 1_555
F11D C7D 1_555 1_555
F12D C7D 1_555 1_555
C5D C4D 1_555 1_555
C8D C7D 1_555 1_555

#END
