
#######################################################################
#
#                 Cambridge Crystallographic Data Centre
#                                CCDC 
#
#######################################################################
#
# If this CIF has been generated from an entry in the Cambridge 
# Structural Database, then it will include bibliographic, chemical, 
# crystal, experimental, refinement or atomic coordinate data resulting 
# from the CCDC's data processing and validation procedures.
#
#######################################################################

data_JIDZII
_chemical_formula_moiety         'C24 H24 N5 O1 1+,C4 H5 O4 1-,H2 O1'
_chemical_name_systematic        
'4-{[(3-{[4-(1-cyanocyclopentyl)phenyl]carbamoyl}pyridin-2-yl)amino]methyl}pyridin-1-ium hydrogen succinate monohydrate'
_symmetry_cell_setting           triclinic
_symmetry_space_group_name_H-M   'P -1'
_symmetry_Int_Tables_number      2
_space_group_name_Hall           '-P 1'
loop_
_symmetry_equiv_pos_site_id
_symmetry_equiv_pos_as_xyz
1 x,y,z
2 -x,-y,-z
_cell_length_a                   8.9034(7)
_cell_length_b                   9.2809(6)
_cell_length_c                   18.6643(13)
_cell_angle_alpha                78.137(4)
_cell_angle_beta                 83.184(4)
_cell_angle_gamma                62.721(4)
_cell_volume                     1340.93
_exptl_crystal_colour            'light colorless'
_exptl_crystal_description       prism
_cell_formula_units_Z            2
loop_
_atom_site_label
_atom_site_type_symbol
_atom_site_fract_x
_atom_site_fract_y
_atom_site_fract_z
O1 O 1.0159(2) 0.5775(2) 0.78148(8)
N1 N 1.1373(2) 0.4852(2) 0.89182(9)
H1 H 1.1495 0.4172 0.9337
N2 N 0.9025(2) 0.3855(2) 0.73668(9)
H2 H 0.9307 0.4667 0.7230
N3 N 0.3439(3) 0.5008(3) 0.63623(10)
N4 N 0.8335(3) 0.2168(2) 0.82722(10)
C1 C 0.9559(3) 0.3760(2) 0.86285(11)
C2 C 1.4022(3) 0.7713(3) 0.86920(11)
C3 C 1.5007(3) 0.8724(2) 0.85849(11)
C4 C 1.2239(3) 0.5827(3) 0.88208(11)
C5 C 0.8969(3) 0.3265(3) 0.80914(12)
C6 C 1.3842(3) 0.5152(3) 0.90911(11)
H3 H 1.4355 0.4032 0.9322
C7 C 0.6791(3) 0.3899(3) 0.66552(11)
C8 C 1.4713(3) 0.6080(3) 0.90308(11)
H4 H 1.5810 0.5587 0.9226
C9 C 1.0361(3) 0.4876(3) 0.84178(12)
N5 N 1.7267(3) 0.7554(3) 0.95956(12)
C10 C 0.9363(3) 0.3132(3) 0.93546(12)
H5 H 0.9711 0.3457 0.9730
C11 C 1.1528(3) 0.7465(3) 0.84753(12)
H6 H 1.0425 0.7960 0.8286
C12 C 0.8669(3) 0.2043(3) 0.95395(13)
H7 H 0.8517 0.1621 1.0037
C13 C 1.2420(3) 0.8369(3) 0.84076(12)
H8 H 1.1927 0.9476 0.8159
C14 C 0.5513(3) 0.4953(3) 0.70612(12)
H9 H 0.5778 0.5313 0.7449
C15 C 0.8643(3) 0.3209(3) 0.68092(12)
H10 H 0.9103 0.2001 0.6958
H11 H 0.9240 0.3422 0.6348
C16 C 1.6286(3) 0.8044(3) 0.91526(13)
C17 C 0.6322(3) 0.3449(3) 0.60858(12)
H12 H 0.7165 0.2743 0.5788
C18 C 0.3846(3) 0.5483(3) 0.69021(13)
H13 H 0.2973 0.6203 0.7186
C19 C 1.5901(3) 0.8715(3) 0.78207(12)
H14 H 1.7058 0.7796 0.7839
H15 H 1.5257 0.8602 0.7456
C20 C 0.8208(3) 0.1591(3) 0.89780(13)
H16 H 0.7767 0.0811 0.9103
C21 C 0.4652(3) 0.4020(3) 0.59530(13)
H17 H 0.4348 0.3706 0.5560
C22 C 1.3929(3) 1.0599(3) 0.86140(15)
H18 H 1.2724 1.0930 0.8541
H19 H 1.4028 1.0823 0.9098
C23 C 1.5957(5) 1.0341(4) 0.76294(17)
H20 H 1.7056 1.0215 0.7767
H21 H 1.5841 1.0735 0.7095
C24 C 1.456(2) 1.1552(18) 0.8025(9)
H22 H 1.3647 1.2328 0.7686
H23 H 1.4979 1.2190 0.8239
H24 H 0.218(2) 0.534(3) 0.6234(15)
O2 O 0.0426(2) 0.5642(2) 0.60824(9)
O3 O -0.6155(2) 0.9263(3) 0.62291(10)
H29 H -0.7131 0.9500 0.6108
O4 O 0.0497(2) 0.7550(2) 0.51768(10)
O5 O -0.5427(2) 0.8069(3) 0.52556(11)
C26 C -0.0226(3) 0.6750(3) 0.55401(13)
C27 C -0.5037(3) 0.8465(3) 0.57454(14)
C28 C -0.1978(3) 0.7119(3) 0.53473(13)
H30 H -0.2046 0.6077 0.5364
H31 H -0.2227 0.7752 0.4844
C29 C -0.3259(3) 0.8100(3) 0.58816(13)
H32 H -0.2962 0.7481 0.6385
H33 H -0.3200 0.9151 0.5850
O6 O -0.9188(3) 0.9811(2) 0.59336(10)
H34 H -0.9051 0.8969 0.5750
H35 H -0.9577 1.0693 0.5601
H25? H 1.3324 1.1093 0.9023
H26? H 1.6210 1.0611 0.7102
H27? H 1.6769 1.0401 0.7927
C25? C 1.407(2) 1.1442(12) 0.7848(8)
H28? H 1.3236 1.2392 0.7568
loop_
_geom_bond_atom_site_label_1
_geom_bond_atom_site_label_2
_geom_bond_site_symmetry_1
_geom_bond_site_symmetry_2
O1 C9 1_555 1_555
N1 H1 1_555 1_555
N2 H2 1_555 1_555
N3 C18 1_555 1_555
N4 C5 1_555 1_555
C1 C5 1_555 1_555
C2 C3 1_555 1_555
C3 C16 1_555 1_555
C4 N1 1_555 1_555
C5 N2 1_555 1_555
C6 C4 1_555 1_555
H3 C6 1_555 1_555
C7 C14 1_555 1_555
C8 C2 1_555 1_555
H4 C8 1_555 1_555
C9 N1 1_555 1_555
N5 C16 1_555 1_555
C10 C1 1_555 1_555
H5 C10 1_555 1_555
C11 C4 1_555 1_555
H6 C11 1_555 1_555
C12 C10 1_555 1_555
H7 C12 1_555 1_555
C13 C2 1_555 1_555
H8 C13 1_555 1_555
C14 H9 1_555 1_555
C15 N2 1_555 1_555
H10 C15 1_555 1_555
H11 C15 1_555 1_555
C17 C7 1_555 1_555
H12 C17 1_555 1_555
C18 C14 1_555 1_555
H13 C18 1_555 1_555
C19 C3 1_555 1_555
H14 C19 1_555 1_555
H15 C19 1_555 1_555
C20 N4 1_555 1_555
H16 C20 1_555 1_555
C21 N3 1_555 1_555
H17 C21 1_555 1_555
C22 C3 1_555 1_555
H18 C22 1_555 1_555
H19 C22 1_555 1_555
C23 C19 1_555 1_555
H20 C23 1_555 1_555
H21 C23 1_555 1_555
C24 C22 1_555 1_555
H22 C24 1_555 1_555
H23 C24 1_555 1_555
H24 N3 1_555 1_555
O2 C26 1_555 1_555
O3 H29 1_555 1_555
O4 C26 1_555 1_555
O5 C27 1_555 1_555
C26 C28 1_555 1_555
C27 O3 1_555 1_555
C28 H30 1_555 1_555
H31 C28 1_555 1_555
C29 C27 1_555 1_555
H32 C29 1_555 1_555
H33 C29 1_555 1_555
O6 H34 1_555 1_555
H35 O6 1_555 1_555
C1 C9 1_555 1_555
C6 C8 1_555 1_555
C7 C15 1_555 1_555
C11 C13 1_555 1_555
C12 C20 1_555 1_555
C17 C21 1_555 1_555
C23 C24 1_555 1_555
C28 C29 1_555 1_555

#END
