
#######################################################################
#
#                 Cambridge Crystallographic Data Centre
#                                CCDC 
#
#######################################################################
#
# If this CIF has been generated from an entry in the Cambridge 
# Structural Database, then it will include bibliographic, chemical, 
# crystal, experimental, refinement or atomic coordinate data resulting 
# from the CCDC's data processing and validation procedures.
#
#######################################################################

data_JIFDAG
_chemical_formula_moiety         'C15 H13 Cl4 N1'
_chemical_name_systematic        
2-chloro-N-methyl-N-(2,2,2-trichloro-1-phenylethyl)aniline
_symmetry_cell_setting           monoclinic
_symmetry_space_group_name_H-M   'P 21/n'
_symmetry_Int_Tables_number      14
_space_group_name_Hall           '-P 2yn'
loop_
_symmetry_equiv_pos_site_id
_symmetry_equiv_pos_as_xyz
1 x,y,z
2 1/2-x,1/2+y,1/2-z
3 -x,-y,-z
4 1/2+x,1/2-y,1/2+z
_cell_length_a                   11.6075(5)
_cell_length_b                   10.8080(6)
_cell_length_c                   12.8051(5)
_cell_angle_alpha                90
_cell_angle_beta                 103.278(4)
_cell_angle_gamma                90
_cell_volume                     1563.5
_exptl_crystal_description       block
_cell_formula_units_Z            4
loop_
_atom_site_label
_atom_site_type_symbol
_atom_site_fract_x
_atom_site_fract_y
_atom_site_fract_z
Cl1 Cl 0.91556(5) 0.37184(6) 0.67723(4)
Cl2 Cl 0.94031(4) 0.24155(6) 0.48752(4)
Cl3 Cl 0.83300(5) 0.12318(6) 0.64223(5)
Cl4 Cl 0.61587(5) 0.23815(7) 0.80123(4)
N1 N 0.64466(13) 0.32680(16) 0.58715(12)
C1 C 0.72103(14) 0.30646(18) 0.51316(13)
H1 H 0.6881 0.2336 0.4712
C2 C 0.72053(15) 0.40809(19) 0.43060(14)
C3 C 0.54995(15) 0.24240(18) 0.58363(15)
C4 C 0.65708(16) 0.3873(2) 0.32689(14)
H2 H 0.6205 0.3112 0.3091
C5 C 0.52655(16) 0.1962(2) 0.67820(15)
C6 C 0.84611(16) 0.26561(19) 0.57710(15)
C7 C 0.47625(16) 0.2043(2) 0.48785(16)
H3 H 0.4888 0.2346 0.4234
C8 C 0.64704(17) 0.4784(2) 0.24858(16)
H4 H 0.6034 0.4633 0.1792
C9 C 0.77624(19) 0.5215(2) 0.45385(16)
H5 H 0.8210 0.5371 0.5227
C10 C 0.43259(19) 0.1164(2) 0.67662(18)
H6 H 0.4170 0.0885 0.7407
C11 C 0.38458(18) 0.1221(2) 0.48607(19)
H7 H 0.3376 0.0961 0.4208
C12 C 0.36276(18) 0.0789(2) 0.58065(19)
H8 H 0.3006 0.0242 0.5794
C13 C 0.70155(18) 0.5905(2) 0.27381(18)
H9 H 0.6948 0.6519 0.2219
C14 C 0.7658(2) 0.6115(2) 0.37563(19)
H10 H 0.8032 0.6874 0.3926
C15 C 0.6269(2) 0.4514(2) 0.62366(19)
H11 H 0.7018 0.4860 0.6593
H12 H 0.5755 0.4484 0.6726
H13 H 0.5917 0.5020 0.5631
loop_
_geom_bond_atom_site_label_1
_geom_bond_atom_site_label_2
_geom_bond_site_symmetry_1
_geom_bond_site_symmetry_2
Cl1 C6 1_555 1_555
Cl2 C6 1_555 1_555
Cl3 C6 1_555 1_555
Cl4 C5 1_555 1_555
N1 C1 1_555 1_555
C1 H1 1_555 1_555
C2 C1 1_555 1_555
C3 N1 1_555 1_555
C4 C2 1_555 1_555
H2 C4 1_555 1_555
C5 C3 1_555 1_555
C6 C1 1_555 1_555
C7 C3 1_555 1_555
H3 C7 1_555 1_555
C8 C4 1_555 1_555
H4 C8 1_555 1_555
C9 C2 1_555 1_555
H5 C9 1_555 1_555
C10 C5 1_555 1_555
H6 C10 1_555 1_555
C11 C7 1_555 1_555
H7 C11 1_555 1_555
C12 C10 1_555 1_555
H8 C12 1_555 1_555
C13 C8 1_555 1_555
H9 C13 1_555 1_555
C14 C9 1_555 1_555
H10 C14 1_555 1_555
C15 N1 1_555 1_555
H11 C15 1_555 1_555
H12 C15 1_555 1_555
H13 C15 1_555 1_555
C11 C12 1_555 1_555
C13 C14 1_555 1_555

#END
