
#######################################################################
#
#                 Cambridge Crystallographic Data Centre
#                                CCDC 
#
#######################################################################
#
# If this CIF has been generated from an entry in the Cambridge 
# Structural Database, then it will include bibliographic, chemical, 
# crystal, experimental, refinement or atomic coordinate data resulting 
# from the CCDC's data processing and validation procedures.
#
#######################################################################

data_JIFREY
_chemical_formula_moiety         'C27 H30 N2 O3'
_chemical_name_systematic        
1-{2-[3,6-bis(4-methoxyphenyl)pyridin-2-yl]ethyl}azepan-2-one
_symmetry_cell_setting           monoclinic
_symmetry_space_group_name_H-M   'P 21/c'
_symmetry_Int_Tables_number      14
_space_group_name_Hall           '-P 2ybc'
loop_
_symmetry_equiv_pos_site_id
_symmetry_equiv_pos_as_xyz
1 x,y,z
2 -x,1/2+y,1/2-z
3 -x,-y,-z
4 x,1/2-y,1/2+z
_cell_length_a                   10.065(2)
_cell_length_b                   21.009(4)
_cell_length_c                   11.848(2)
_cell_angle_alpha                90
_cell_angle_beta                 113.03(3)
_cell_angle_gamma                90
_cell_volume                     2305.65
_exptl_crystal_colour            colorless
_exptl_crystal_description       block
_cell_formula_units_Z            4
loop_
_atom_site_label
_atom_site_type_symbol
_atom_site_fract_x
_atom_site_fract_y
_atom_site_fract_z
N1 N 0.71706(15) 1.03346(6) 0.08613(13)
C1 C 0.76977(18) 1.11997(7) 0.22847(15)
C2 C 0.77474(18) 1.09206(7) 0.11534(15)
O1 O 0.74989(15) 0.91822(6) -0.53206(12)
C3 C 0.77218(18) 1.00086(7) -0.20555(15)
C4 C 0.77584(18) 1.03198(8) -0.09195(15)
O2 O 0.77178(18) 1.19697(6) 0.55247(12)
C5 C 0.72748(19) 1.08325(8) 0.30552(16)
H1 H 0.6986 1.0414 0.2835
N2 N 0.68693(17) 0.83601(6) 0.09602(15)
C6 C 0.7268(2) 1.10677(8) 0.41413(16)
H2 H 0.6978 1.0810 0.4642
C7 C 0.71978(18) 1.00350(7) -0.01288(15)
C8 C 0.8414(2) 1.12124(8) 0.04627(17)
H3 H 0.8857 1.1607 0.0695
C9 C 0.8410(2) 1.09118(8) -0.05691(16)
H4 H 0.8850 1.1106 -0.1039
C10 C 0.7695(2) 1.16885(8) 0.44785(16)
C11 C 0.7656(2) 0.94575(8) -0.42265(15)
C12 C 0.8138(2) 1.20617(8) 0.37312(17)
H5 H 0.8441 1.2477 0.3961
C13 C 0.8953(2) 0.99413(8) -0.22867(16)
H6 H 0.9826 1.0084 -0.1704
C14 C 0.6412(2) 0.95203(9) -0.40177(17)
H7 H 0.5540 0.9379 -0.4605
C15 C 0.8133(2) 1.18224(8) 0.26484(17)
H8 H 0.8425 1.2081 0.2151
C16 C 0.8939(2) 0.96686(8) -0.33543(17)
H9 H 0.9790 0.9628 -0.3481
C17 C 0.6681(2) 0.93511(8) -0.02600(17)
H10 H 0.7126 0.9111 -0.0719
H11 H 0.5643 0.9339 -0.0712
C18 C 0.6443(2) 0.97888(9) -0.29541(17)
H12 H 0.5589 0.9825 -0.2831
C19 C 0.7061(2) 0.90485(8) 0.09903(18)
H13 H 0.8060 0.9146 0.1497
H14 H 0.6467 0.9239 0.1376
C20 C 0.5490(2) 0.81156(10) 0.0883(2)
H15 H 0.5191 0.7776 0.0280
H16 H 0.4778 0.8453 0.0594
C21 C 0.8765(2) 0.90706(11) -0.5536(2)
H17 H 0.8513 0.8878 -0.6327
H18 H 0.9394 0.8791 -0.4915
H19 H 0.9250 0.9467 -0.5512
O3 O 0.91702(19) 0.82054(8) 0.1226(2)
C22 C 0.8014(2) 0.79861(10) 0.1143(2)
C23 C 0.7847(3) 0.72819(10) 0.1319(2)
H20 H 0.7015 0.7124 0.0631
H21 H 0.8692 0.7060 0.1319
C24 C 0.7353(3) 1.15890(11) 0.6346(2)
H22 H 0.7409 1.1841 0.7040
H23 H 0.8014 1.1238 0.6619
H24 H 0.6388 1.1430 0.5937
C25 C 0.5501(3) 0.78648(11) 0.2074(3)
H25 H 0.4517 0.7859 0.2027
H26 H 0.6046 0.8157 0.2725
C26 C 0.6136(3) 0.72045(12) 0.2416(3)
H27 H 0.6118 0.7091 0.3204
H28 H 0.5523 0.6905 0.1815
C27 C 0.7660(3) 0.71307(11) 0.2493(2)
H29 H 0.8288 0.7408 0.3136
H30 H 0.7971 0.6696 0.2727
loop_
_geom_bond_atom_site_label_1
_geom_bond_atom_site_label_2
_geom_bond_site_symmetry_1
_geom_bond_site_symmetry_2
N1 C2 1_555 1_555
C1 C2 1_555 1_555
C2 C8 1_555 1_555
O1 C11 1_555 1_555
C3 C4 1_555 1_555
C4 C7 1_555 1_555
O2 C10 1_555 1_555
C5 C1 1_555 1_555
H1 C5 1_555 1_555
N2 C19 1_555 1_555
C6 C5 1_555 1_555
H2 C6 1_555 1_555
C7 N1 1_555 1_555
C8 H3 1_555 1_555
C9 C4 1_555 1_555
H4 C9 1_555 1_555
C10 C6 1_555 1_555
C11 C14 1_555 1_555
C12 C10 1_555 1_555
H5 C12 1_555 1_555
C13 C3 1_555 1_555
H6 C13 1_555 1_555
C14 H7 1_555 1_555
C15 C1 1_555 1_555
H8 C15 1_555 1_555
C16 C11 1_555 1_555
H9 C16 1_555 1_555
C17 C7 1_555 1_555
H10 C17 1_555 1_555
H11 C17 1_555 1_555
C18 C3 1_555 1_555
H12 C18 1_555 1_555
C19 C17 1_555 1_555
H13 C19 1_555 1_555
H14 C19 1_555 1_555
C20 N2 1_555 1_555
H15 C20 1_555 1_555
H16 C20 1_555 1_555
C21 O1 1_555 1_555
H17 C21 1_555 1_555
H18 C21 1_555 1_555
H19 C21 1_555 1_555
O3 C22 1_555 1_555
C22 N2 1_555 1_555
C23 C22 1_555 1_555
H20 C23 1_555 1_555
H21 C23 1_555 1_555
C24 O2 1_555 1_555
H22 C24 1_555 1_555
H23 C24 1_555 1_555
H24 C24 1_555 1_555
C25 C20 1_555 1_555
H25 C25 1_555 1_555
H26 C25 1_555 1_555
C26 C25 1_555 1_555
H27 C26 1_555 1_555
H28 C26 1_555 1_555
C27 C23 1_555 1_555
H29 C27 1_555 1_555
H30 C27 1_555 1_555
C8 C9 1_555 1_555
C12 C15 1_555 1_555
C13 C16 1_555 1_555
C14 C18 1_555 1_555
C26 C27 1_555 1_555

#END
