
#######################################################################
#
#                 Cambridge Crystallographic Data Centre
#                                CCDC 
#
#######################################################################
#
# If this CIF has been generated from an entry in the Cambridge 
# Structural Database, then it will include bibliographic, chemical, 
# crystal, experimental, refinement or atomic coordinate data resulting 
# from the CCDC's data processing and validation procedures.
#
#######################################################################

data_JIJYOT
_chemical_formula_moiety         'C19 H24 N2 O2'
_chemical_name_systematic        
1-(1-ethyl-1,2,3,9,10,11a-hexahydro-8H-11-oxa-1,7b-diazapentaleno[2,1,6a-jk]fluoren-10a(10bH)-yl)ethan-1-one
_symmetry_cell_setting           orthorhombic
_symmetry_space_group_name_H-M   'P 21 21 21'
_symmetry_Int_Tables_number      19
_space_group_name_Hall           'P 2ac 2ab'
loop_
_symmetry_equiv_pos_site_id
_symmetry_equiv_pos_as_xyz
1 x,y,z
2 1/2-x,-y,1/2+z
3 -x,1/2+y,1/2-z
4 1/2+x,1/2-y,-z
_cell_length_a                   8.090(9)
_cell_length_b                   8.792(10)
_cell_length_c                   24.87(3)
_cell_angle_alpha                90
_cell_angle_beta                 90
_cell_angle_gamma                90
_cell_volume                     1768.94
_cell_formula_units_Z            4
loop_
_atom_site_label
_atom_site_type_symbol
_atom_site_fract_x
_atom_site_fract_y
_atom_site_fract_z
N1 N 0.7534(3) 0.5343(3) 0.16462(9)
N2 N 0.3995(3) 0.3815(2) 0.03685(9)
O1 O 0.3780(3) 0.3649(3) 0.20432(8)
O2 O 0.6992(2) 0.31457(19) 0.11030(7)
C1 C 0.9421(6) 0.5452(5) 0.24435(16)
H1 H 0.9233 0.6516 0.2506
H2 H 1.0515 0.5187 0.2560
H3 H 0.8625 0.4866 0.2641
C2 C 0.9243(4) 0.5114(4) 0.18428(13)
H4 H 0.9984 0.5772 0.1643
H5 H 0.9571 0.4070 0.1775
C3 C 0.6963(4) 0.6943(3) 0.16313(12)
H6 H 0.7760 0.7589 0.1450
H7 H 0.6776 0.7331 0.1991
C4 C 0.5348(4) 0.6854(3) 0.13153(11)
H8 H 0.5136 0.7801 0.1128
H9 H 0.4426 0.6638 0.1553
C5 C 0.5616(3) 0.5529(3) 0.09094(10)
C6 C 0.7264(3) 0.4758(3) 0.11016(10)
H10 H 0.8186 0.5029 0.0864
C7 C 0.5259(3) 0.2910(3) 0.12396(11)
C8 C 0.4358(3) 0.4192(3) 0.09337(10)
H11 H 0.3351 0.4498 0.1124
C9 C 0.3446(5) 0.2289(3) 0.02320(14)
H12 H 0.3396 0.2186 -0.0156
H13 H 0.2343 0.2127 0.0374
C10 C 0.4611(4) 0.1087(3) 0.04605(12)
H14 H 0.5692 0.1186 0.0295
H15 H 0.4188 0.0080 0.0380
C11 C 0.4763(4) 0.1286(3) 0.10709(12)
H16 H 0.5582 0.0576 0.1206
H17 H 0.3713 0.1033 0.1236
C12 C 0.5009(4) 0.3026(3) 0.18529(12)
C13 C 0.6228(5) 0.2184(4) 0.22082(13)
H18 H 0.6437 0.2771 0.2527
H19 H 0.7244 0.2036 0.2016
H20 H 0.5775 0.1215 0.2307
C14 C 0.5656(3) 0.5936(3) 0.03131(10)
C15 C 0.4767(3) 0.4835(3) 0.00245(10)
C16 C 0.4696(4) 0.4890(3) -0.05404(11)
H21 H 0.4118 0.4163 -0.0736
C17 C 0.5530(4) 0.6082(3) -0.07969(11)
H22 H 0.5517 0.6128 -0.1170
C18 C 0.6374(4) 0.7198(4) -0.05134(13)
H23 H 0.6890 0.7992 -0.0695
C19 C 0.6443(4) 0.7118(3) 0.00486(12)
H24 H 0.7013 0.7854 0.0243
loop_
_geom_bond_atom_site_label_1
_geom_bond_atom_site_label_2
_geom_bond_site_symmetry_1
_geom_bond_site_symmetry_2
N1 C2 1_555 1_555
N2 C8 1_555 1_555
O1 C12 1_555 1_555
O2 C6 1_555 1_555
C1 H1 1_555 1_555
H2 C1 1_555 1_555
H3 C1 1_555 1_555
C2 C1 1_555 1_555
H4 C2 1_555 1_555
H5 C2 1_555 1_555
C3 N1 1_555 1_555
H6 C3 1_555 1_555
H7 C3 1_555 1_555
C4 C3 1_555 1_555
H8 C4 1_555 1_555
H9 C4 1_555 1_555
C5 C4 1_555 1_555
C6 N1 1_555 1_555
H10 C6 1_555 1_555
C7 O2 1_555 1_555
C8 C5 1_555 1_555
H11 C8 1_555 1_555
C9 N2 1_555 1_555
H12 C9 1_555 1_555
H13 C9 1_555 1_555
C10 C9 1_555 1_555
H14 C10 1_555 1_555
H15 C10 1_555 1_555
C11 C7 1_555 1_555
H16 C11 1_555 1_555
H17 C11 1_555 1_555
C12 C7 1_555 1_555
C13 C12 1_555 1_555
H18 C13 1_555 1_555
H19 C13 1_555 1_555
H20 C13 1_555 1_555
C14 C5 1_555 1_555
C15 N2 1_555 1_555
C16 C15 1_555 1_555
H21 C16 1_555 1_555
C17 C16 1_555 1_555
H22 C17 1_555 1_555
C18 C17 1_555 1_555
H23 C18 1_555 1_555
C19 C14 1_555 1_555
H24 C19 1_555 1_555
C5 C6 1_555 1_555
C7 C8 1_555 1_555
C10 C11 1_555 1_555
C14 C15 1_555 1_555
C18 C19 1_555 1_555

#END
