
#######################################################################
#
#                 Cambridge Crystallographic Data Centre
#                                CCDC 
#
#######################################################################
#
# If this CIF has been generated from an entry in the Cambridge 
# Structural Database, then it will include bibliographic, chemical, 
# crystal, experimental, refinement or atomic coordinate data resulting 
# from the CCDC's data processing and validation procedures.
#
#######################################################################

data_JIKCIS
_chemical_formula_moiety         'C25 H27 N1 O6'
_chemical_name_systematic        
1-(5,7-dimethoxy-5',6',10b',10c'-tetrahydro-1H,3H-spiro[2-benzopyran-4,1'-[2,4]dioxa[6a]azabenzo[a]cyclopenta[cd]azulen]-2a'(3'H)-yl)ethan-1-one
_symmetry_cell_setting           monoclinic
_symmetry_space_group_name_H-M   'P 21/c'
_symmetry_Int_Tables_number      14
_space_group_name_Hall           '-P 2ybc'
loop_
_symmetry_equiv_pos_site_id
_symmetry_equiv_pos_as_xyz
1 x,y,z
2 -x,1/2+y,1/2-z
3 -x,-y,-z
4 x,1/2-y,1/2+z
_cell_length_a                   12.5159(6)
_cell_length_b                   9.7879(4)
_cell_length_c                   18.0724(8)
_cell_angle_alpha                90
_cell_angle_beta                 102.933(4)
_cell_angle_gamma                90
_cell_volume                     2157.79
_cell_formula_units_Z            4
loop_
_atom_site_label
_atom_site_type_symbol
_atom_site_fract_x
_atom_site_fract_y
_atom_site_fract_z
O1 O -0.34173(11) -1.13525(11) -0.08466(7)
O2 O 0.04092(12) -0.95944(19) -0.21790(8)
O3 O -0.08348(9) -0.75192(12) -0.01610(7)
O4 O -0.31395(8) -0.77447(10) -0.04465(6)
O5 O -0.42680(10) -0.58399(12) 0.09389(7)
O6 O -0.19271(11) -0.50570(12) 0.06821(8)
N1 N -0.27489(12) -0.81336(14) 0.15437(7)
C1 C -0.29409(17) -1.12932(18) -0.14841(10)
H1 H -0.3494 -1.1012 -0.1924
H2 H -0.2693 -1.2199 -0.1585
C2 C -0.19878(14) -1.03198(16) -0.13770(9)
C3 C -0.12409(16) -1.0465(2) -0.18402(10)
H3 H -0.1335 -1.1150 -0.2206
C4 C -0.03691(15) -0.9592(2) -0.17530(10)
C5 C -0.02057(14) -0.8590(2) -0.11886(10)
H4 H 0.0398 -0.8012 -0.1123
C6 C -0.09430(13) -0.84634(16) -0.07297(9)
C7 C -0.18738(13) -0.93062(15) -0.08261(8)
C8 C -0.27213(12) -0.91271(14) -0.03491(8)
C9 C -0.37150(14) -1.00142(16) -0.06710(10)
H5 H -0.4173 -1.0068 -0.0304
H6 H -0.4142 -0.9590 -0.1127
C10 C 0.0337(2) -1.0628(3) -0.27418(13)
H7 H 0.0378 -1.1511 -0.2505
H8 H 0.0932 -1.0527 -0.2993
H9 H -0.0347 -1.0543 -0.3106
C11 C 0.02117(15) -0.6937(2) 0.01174(12)
H10 H 0.0199 -0.6391 0.0557
H11 H 0.0402 -0.6374 -0.0269
H12 H 0.0745 -0.7652 0.0253
C12 C -0.22289(12) -0.93030(15) 0.05218(8)
H13 H -0.1459 -0.9582 0.0603
C13 C -0.28183(13) -1.02218(16) 0.09745(9)
C14 C -0.30084(15) -1.16104(17) 0.09305(10)
H14 H -0.2786 -1.2129 0.0561
C15 C -0.35357(16) -1.22311(19) 0.14429(11)
H15 H -0.3670 -1.3166 0.1414
C16 C -0.38565(15) -1.1465(2) 0.19894(11)
H16 H -0.4223 -1.1889 0.2321
C17 C -0.36495(15) -1.0074(2) 0.20615(10)
H17 H -0.3863 -0.9566 0.2439
C18 C -0.31129(13) -0.94603(17) 0.15527(9)
C19 C -0.22995(12) -0.78805(15) 0.08795(8)
H18 H -0.1567 -0.7475 0.1033
C20 C -0.30265(12) -0.70128(15) 0.02500(8)
C21 C -0.42019(13) -0.67764(17) 0.03537(10)
H19 H -0.4650 -0.6441 -0.0120
H20 H -0.4505 -0.7645 0.0465
C22 C -0.41714(17) -0.6452(2) 0.16640(11)
H21 H -0.4705 -0.7182 0.1623
H22 H -0.4342 -0.5775 0.2012
C23 C -0.30414(17) -0.7023(2) 0.19867(10)
H23 H -0.2507 -0.6296 0.2015
H24 H -0.3008 -0.7343 0.2499
C24 C -0.25252(13) -0.56158(16) 0.01498(10)
C25 C -0.28393(18) -0.49655(19) -0.06146(12)
H25 H -0.3623 -0.4958 -0.0782
H26 H -0.2528 -0.5475 -0.0969
H27 H -0.2569 -0.4045 -0.0586
loop_
_geom_bond_atom_site_label_1
_geom_bond_atom_site_label_2
_geom_bond_site_symmetry_1
_geom_bond_site_symmetry_2
O1 C1 1_555 1_555
O2 C4 1_555 1_555
O3 C6 1_555 1_555
O4 C8 1_555 1_555
O5 C21 1_555 1_555
O6 C24 1_555 1_555
N1 C18 1_555 1_555
C1 H1 1_555 1_555
H2 C1 1_555 1_555
C2 C1 1_555 1_555
C3 C2 1_555 1_555
H3 C3 1_555 1_555
C4 C3 1_555 1_555
C5 C4 1_555 1_555
H4 C5 1_555 1_555
C6 C5 1_555 1_555
C7 C2 1_555 1_555
C8 C7 1_555 1_555
C9 O1 1_555 1_555
H5 C9 1_555 1_555
H6 C9 1_555 1_555
C10 O2 1_555 1_555
H7 C10 1_555 1_555
H8 C10 1_555 1_555
H9 C10 1_555 1_555
C11 O3 1_555 1_555
H10 C11 1_555 1_555
H11 C11 1_555 1_555
H12 C11 1_555 1_555
C12 C8 1_555 1_555
H13 C12 1_555 1_555
C13 C12 1_555 1_555
C14 C13 1_555 1_555
H14 C14 1_555 1_555
C15 C14 1_555 1_555
H15 C15 1_555 1_555
C16 C15 1_555 1_555
H16 C16 1_555 1_555
C17 C16 1_555 1_555
H17 C17 1_555 1_555
C18 C13 1_555 1_555
C19 N1 1_555 1_555
H18 C19 1_555 1_555
C20 O4 1_555 1_555
C21 C20 1_555 1_555
H19 C21 1_555 1_555
H20 C21 1_555 1_555
C22 O5 1_555 1_555
H21 C22 1_555 1_555
H22 C22 1_555 1_555
C23 N1 1_555 1_555
H23 C23 1_555 1_555
H24 C23 1_555 1_555
C24 C20 1_555 1_555
C25 C24 1_555 1_555
H25 C25 1_555 1_555
H26 C25 1_555 1_555
H27 C25 1_555 1_555
C6 C7 1_555 1_555
C8 C9 1_555 1_555
C12 C19 1_555 1_555
C17 C18 1_555 1_555
C19 C20 1_555 1_555
C22 C23 1_555 1_555

#END
