
#######################################################################
#
#                 Cambridge Crystallographic Data Centre
#                                CCDC 
#
#######################################################################
#
# If this CIF has been generated from an entry in the Cambridge 
# Structural Database, then it will include bibliographic, chemical, 
# crystal, experimental, refinement or atomic coordinate data resulting 
# from the CCDC's data processing and validation procedures.
#
#######################################################################

data_JIKHIX
_chemical_formula_moiety         'C9 H17 N2 1+,C6 H5 O3 S1 1-'
_chemical_name_systematic        
'2,3,4,6,7,8,9,10-octahydro-1H-pyrimido[1,2-a]azepin-5-ium benzenesulfonate'
_symmetry_cell_setting           triclinic
_symmetry_space_group_name_H-M   'P -1'
_symmetry_Int_Tables_number      2
_space_group_name_Hall           '-P 1'
loop_
_symmetry_equiv_pos_site_id
_symmetry_equiv_pos_as_xyz
1 x,y,z
2 -x,-y,-z
_cell_length_a                   8.8898(3)
_cell_length_b                   8.9346(3)
_cell_length_c                   10.4948(3)
_cell_angle_alpha                90.2160(10)
_cell_angle_beta                 90.1760(10)
_cell_angle_gamma                115.6620(10)
_cell_volume                     751.333
_exptl_crystal_colour            colorless
_exptl_crystal_description       block
_cell_formula_units_Z            2
loop_
_atom_site_label
_atom_site_type_symbol
_atom_site_fract_x
_atom_site_fract_y
_atom_site_fract_z
S1 S 0.2672(8) 0.6396(7) 0.2240(4)
O1 O 0.2444(10) 0.5099(11) 0.1440(8)
O2 O 0.3634(9) 0.7928(11) 0.1550(8)
O3 O 0.3325(11) 0.6360(12) 0.3463(9)
C1 C 0.0666(6) 0.6363(6) 0.2491(5)
C2 C -0.0045(7) 0.6340(6) 0.3666(5)
H1 H 0.055761 0.635847 0.441966
C3 C -0.1582(10) 0.6292(8) 0.3759(9)
H2 H -0.204923 0.626581 0.457681
C4 C -0.2455(9) 0.6282(8) 0.2712(12)
H3 H -0.352345 0.627137 0.279300
C5 C -0.1809(9) 0.6288(7) 0.1521(9)
H4 H -0.243742 0.626374 0.078129
C6 C -0.0196(7) 0.6329(7) 0.1402(5)
H5 H 0.026870 0.633268 0.058700
N1 N 0.3604(6) 0.8268(7) 0.8830(4)
H6 H 0.372660 0.835479 0.966337
N2 N 0.4736(5) 0.7924(5) 0.6911(4)
C7 C 0.2289(19) 0.850(2) 0.8287(14)
H7 H 0.227773 0.951065 0.866898
H8 H 0.123150 0.754907 0.852384
C8 C 0.3632(6) 0.8369(8) 0.6157(4)
H9 H 0.305854 0.747179 0.552678
H10 H 0.431928 0.938722 0.567539
C9 C 0.5999(6) 0.7640(6) 0.6154(5)
H11 H 0.567251 0.751285 0.524337
H12 H 0.602983 0.659660 0.643460
C10 C 0.7727(6) 0.9067(6) 0.6305(5)
H13 H 0.841751 0.905641 0.557019
H14 H 0.762375 1.012606 0.628374
C11 C 0.8623(6) 0.9010(6) 0.7526(6)
H15 H 0.881012 0.799536 0.750998
H16 H 0.973134 0.997693 0.754128
C12 C 0.7719(6) 0.9019(6) 0.8744(5)
H17 H 0.762098 1.008001 0.879716
H18 H 0.840788 0.898440 0.947567
C13 C 0.5974(6) 0.7588(6) 0.8873(5)
H19 H 0.598933 0.654852 0.855918
H20 H 0.565680 0.743633 0.978354
C14 C 0.4715(5) 0.7912(5) 0.8142(4)
C15 C 0.2318(15) 0.8672(16) 0.6881(15)
H21 H 0.246429 0.980968 0.668283
H22 H 0.121075 0.789280 0.654577
S2? S 0.2681(14) 0.6419(13) 0.2712(7)
O4? O 0.3645(17) 0.786(2) 0.3461(14)
O5? O 0.3366(19) 0.642(2) 0.1435(16)
O6? O 0.2548(18) 0.514(2) 0.3455(15)
H23? H 0.345293 0.808481 0.965347
C16? C 0.203(2) 0.803(3) 0.688(3)
H24? H 0.128753 0.837237 0.638066
H25? H 0.141606 0.683521 0.709260
H26? H 0.335197 0.772238 0.535200
H27? H 0.420337 0.956236 0.593941
C17? C 0.263(4) 0.903(5) 0.802(3)
H28? H 0.167506 0.902090 0.851749
H29? H 0.336884 1.019198 0.779713
loop_
_geom_bond_atom_site_label_1
_geom_bond_atom_site_label_2
_geom_bond_site_symmetry_1
_geom_bond_site_symmetry_2
S1 O1 1_555 1_555
O2 S1 1_555 1_555
O3 S1 1_555 1_555
C1 S1 1_555 1_555
C2 C1 1_555 1_555
H1 C2 1_555 1_555
C3 C2 1_555 1_555
H2 C3 1_555 1_555
C4 C3 1_555 1_555
H3 C4 1_555 1_555
C5 C4 1_555 1_555
H4 C5 1_555 1_555
C6 C1 1_555 1_555
H5 C6 1_555 1_555
N1 H6 1_555 1_555
N2 C8 1_555 1_555
C7 N1 1_555 1_555
H7 C7 1_555 1_555
H8 C7 1_555 1_555
C8 H9 1_555 1_555
H10 C8 1_555 1_555
C9 N2 1_555 1_555
H11 C9 1_555 1_555
H12 C9 1_555 1_555
C10 C9 1_555 1_555
H13 C10 1_555 1_555
H14 C10 1_555 1_555
C11 C10 1_555 1_555
H15 C11 1_555 1_555
H16 C11 1_555 1_555
C12 C11 1_555 1_555
H17 C12 1_555 1_555
H18 C12 1_555 1_555
C13 C12 1_555 1_555
H19 C13 1_555 1_555
H20 C13 1_555 1_555
C14 N1 1_555 1_555
C15 C7 1_555 1_555
H21 C15 1_555 1_555
H22 C15 1_555 1_555
C5 C6 1_555 1_555
N2 C14 1_555 1_555
C8 C15 1_555 1_555
C13 C14 1_555 1_555

#END
