
#######################################################################
#
#                 Cambridge Crystallographic Data Centre
#                                CCDC 
#
#######################################################################
#
# If this CIF has been generated from an entry in the Cambridge 
# Structural Database, then it will include bibliographic, chemical, 
# crystal, experimental, refinement or atomic coordinate data resulting 
# from the CCDC's data processing and validation procedures.
#
#######################################################################

data_JIMJEX
_chemical_formula_moiety         'C7 H8 N2 O2,2(H2 O1)'
_chemical_name_systematic        
'2,6-diazabicyclo[5.2.0]non-1(7)-ene-8,9-dione dihydrate'
_symmetry_cell_setting           triclinic
_symmetry_space_group_name_H-M   'P -1'
_symmetry_Int_Tables_number      2
_space_group_name_Hall           '-P 1'
loop_
_symmetry_equiv_pos_site_id
_symmetry_equiv_pos_as_xyz
1 x,y,z
2 -x,-y,-z
_cell_length_a                   5.3915(5)
_cell_length_b                   7.5525(8)
_cell_length_c                   10.9894(10)
_cell_angle_alpha                77.404(8)
_cell_angle_beta                 83.206(8)
_cell_angle_gamma                80.944(8)
_cell_volume                     429.627
_exptl_crystal_colour            colorless
_exptl_crystal_description       block
_cell_formula_units_Z            2
loop_
_atom_site_label
_atom_site_type_symbol
_atom_site_fract_x
_atom_site_fract_y
_atom_site_fract_z
O1 O 0.2300(2) 0.36567(19) 0.14663(11)
O2 O 0.7737(2) 0.10041(19) 0.13992(11)
N1 N 0.7635(3) 0.1331(2) -0.15883(13)
H1 H 0.9048 0.0685 -0.1395
N2 N 0.2324(3) 0.4044(2) -0.15690(14)
H2 H 0.1028 0.4780 -0.1369
C1 C 0.6222(3) 0.1832(3) 0.06255(17)
C2 C 0.3798(3) 0.3180(3) -0.06966(16)
C3 C 0.3755(3) 0.3044(3) 0.06613(16)
C4 C 0.6138(3) 0.2000(2) -0.07073(16)
C5 C 0.5575(3) 0.3532(3) -0.33355(17)
H3 H 0.5711 0.3785 -0.4243
H4 H 0.6405 0.4425 -0.3080
C6 C 0.6984(3) 0.1645(3) -0.28813(16)
H5 H 0.5955 0.0732 -0.2948
H6 H 0.8521 0.1482 -0.3424
C7 C 0.2788(4) 0.3811(3) -0.28701(17)
H7 H 0.1960 0.4884 -0.3404
H8 H 0.2029 0.2764 -0.2949
O3 O 0.7344(2) 0.1637(2) 0.38260(12)
H9 H 0.7435(3) 0.042(2) 0.4224(7)
H10 H 0.7416(3) 0.1545(3) 0.3128(12)
O4 O 0.2073(3) 0.1907(2) -0.52721(13)
H11 H 0.086(2) 0.1988(3) -0.5797(10)
H12 H 0.344(2) 0.2113(4) -0.5791(10)
loop_
_geom_bond_atom_site_label_1
_geom_bond_atom_site_label_2
_geom_bond_site_symmetry_1
_geom_bond_site_symmetry_2
O1 C3 1_555 1_555
O2 C1 1_555 1_555
N1 H1 1_555 1_555
N2 H2 1_555 1_555
C1 C3 1_555 1_555
C2 N2 1_555 1_555
C3 C2 1_555 1_555
C4 N1 1_555 1_555
C5 H3 1_555 1_555
H4 C5 1_555 1_555
C6 N1 1_555 1_555
H5 C6 1_555 1_555
H6 C6 1_555 1_555
C7 N2 1_555 1_555
H7 C7 1_555 1_555
H8 C7 1_555 1_555
O3 H9 1_555 1_555
H10 O3 1_555 1_555
O4 H11 1_555 1_555
H12 O4 1_555 1_555
C1 C4 1_555 1_555
C2 C4 1_555 1_555
C5 C6 1_555 1_555
C5 C7 1_555 1_555

#END
