
#######################################################################
#
#                 Cambridge Crystallographic Data Centre
#                                CCDC 
#
#######################################################################
#
# If this CIF has been generated from an entry in the Cambridge 
# Structural Database, then it will include bibliographic, chemical, 
# crystal, experimental, refinement or atomic coordinate data resulting 
# from the CCDC's data processing and validation procedures.
#
#######################################################################

data_JIMSEG
_chemical_formula_moiety         'C27 H23 F2 N1 O5 S1,C1 H2 Cl2'
_chemical_name_systematic        
'3-[(3,5-dimethoxyphenyl)methylidene]-5-[(2-fluorophenyl)methylidene]-1-[(4-fluorophenyl)sulfonyl]piperidin-4-one dichloromethane solvate'
_symmetry_cell_setting           triclinic
_symmetry_space_group_name_H-M   'P -1'
_symmetry_Int_Tables_number      2
_space_group_name_Hall           '-P 1'
loop_
_symmetry_equiv_pos_site_id
_symmetry_equiv_pos_as_xyz
1 x,y,z
2 -x,-y,-z
_cell_length_a                   9.180(3)
_cell_length_b                   11.785(4)
_cell_length_c                   13.694(5)
_cell_angle_alpha                73.462(4)
_cell_angle_beta                 84.245(5)
_cell_angle_gamma                69.531(4)
_cell_volume                     1330.54
_exptl_crystal_colour            yellow
_exptl_crystal_description       plan
_cell_formula_units_Z            2
loop_
_atom_site_label
_atom_site_type_symbol
_atom_site_fract_x
_atom_site_fract_y
_atom_site_fract_z
C1 C 0.1895(3) 0.6891(2) 0.2153(2)
C2 C 0.1978(3) 0.7220(3) 0.1098(2)
C3 C 0.0807(3) 0.8120(3) 0.0478(2)
H1 H 0.0904 0.8296 -0.0242
C4 C -0.0518(3) 0.8764(3) 0.0929(2)
H2 H -0.1348 0.9392 0.0516
C5 C -0.0639(3) 0.8498(3) 0.1972(2)
H3 H -0.1547 0.8955 0.2277
C6 C 0.0549(3) 0.7572(2) 0.2579(2)
H4 H 0.0448 0.7396 0.3299
C7 C 0.3234(3) 0.5931(2) 0.27370(19)
H5 H 0.4217 0.5851 0.2414
C8 C 0.3256(3) 0.5151(2) 0.36659(19)
C9 C 0.4805(3) 0.4290(2) 0.41003(19)
C10 C 0.4876(3) 0.3312(2) 0.50791(19)
C11 C 0.3366(3) 0.3272(3) 0.56131(19)
H6 H 0.3484 0.2393 0.5989
H7 H 0.3136 0.3772 0.6116
C12 C 0.1838(3) 0.5053(2) 0.4284(2)
H8 H 0.1593 0.5618 0.4737
H9 H 0.0943 0.5338 0.3821
C13 C 0.6282(3) 0.2539(2) 0.54274(19)
H10 H 0.7117 0.2644 0.4983
C14 C 0.6749(3) 0.1554(2) 0.63844(19)
C15 C 0.8161(3) 0.0587(2) 0.6399(2)
H11 H 0.8761 0.0556 0.5794
C16 C 0.8685(3) -0.0331(2) 0.7301(2)
C17 C 0.7820(3) -0.0280(2) 0.8182(2)
H12 H 0.8173 -0.0922 0.8795
C18 C 0.6441(3) 0.0701(3) 0.8176(2)
C19 C 0.5886(3) 0.1616(2) 0.72759(19)
H13 H 0.4926 0.2279 0.7268
C20 C 0.2977(3) 0.2378(2) 0.34780(19)
C21 C 0.4192(3) 0.1252(3) 0.3740(2)
H14 H 0.4264 0.0719 0.4413
C22 C 0.5298(3) 0.0905(3) 0.3027(2)
H15 H 0.6141 0.0134 0.3199
C23 C 0.5156(3) 0.1694(3) 0.2063(2)
C24 C 0.3959(4) 0.2813(3) 0.1780(2)
H16 H 0.3892 0.3340 0.1104
C25 C 0.2852(3) 0.3158(3) 0.2501(2)
H17 H 0.2009 0.3928 0.2325
C26 C 1.1072(3) -0.1326(3) 0.6550(2)
H18 H 1.0574 -0.1426 0.5994
H19 H 1.2047 -0.2030 0.6737
H20 H 1.1291 -0.0535 0.6327
C27 C 0.4357(3) 0.1730(3) 0.9138(2)
H21 H 0.4580 0.2518 0.8895
H22 H 0.3979 0.1635 0.9842
H23 H 0.3560 0.1744 0.8705
F1 F 0.3292(2) 0.66064(17) 0.06657(13)
F2 F 0.6233(2) 0.1350(2) 0.13664(16)
N1 N 0.2054(2) 0.3765(2) 0.49026(16)
O1 O 0.6002(2) 0.44040(18) 0.36711(15)
O2 O 0.5739(2) 0.07008(19) 0.90986(14)
O3 O 1.0061(2) -0.13091(18) 0.74091(15)
O4 O 0.1753(3) 0.1707(2) 0.52357(15)
O5 O 0.0149(2) 0.3525(2) 0.39227(15)
S1 S 0.16102(8) 0.28131(7) 0.44199(5)
C28 C 0.1487(4) 0.5589(3) 0.8228(3)
H24 H 0.1839 0.5644 0.7514
H25 H 0.0605 0.6367 0.8235
Cl1 Cl 0.08579(14) 0.42948(10) 0.86856(14)
Cl2 Cl 0.29874(13) 0.54887(11) 0.89483(8)
loop_
_geom_bond_atom_site_label_1
_geom_bond_atom_site_label_2
_geom_bond_site_symmetry_1
_geom_bond_site_symmetry_2
C1 C2 1_555 1_555
C2 C3 1_555 1_555
C3 H1 1_555 1_555
C4 C3 1_555 1_555
H2 C4 1_555 1_555
C5 C4 1_555 1_555
H3 C5 1_555 1_555
C6 C1 1_555 1_555
H4 C6 1_555 1_555
C7 C1 1_555 1_555
H5 C7 1_555 1_555
C8 C7 1_555 1_555
C9 C8 1_555 1_555
C10 C9 1_555 1_555
C11 C10 1_555 1_555
H6 C11 1_555 1_555
H7 C11 1_555 1_555
C12 C8 1_555 1_555
H8 C12 1_555 1_555
H9 C12 1_555 1_555
C13 C10 1_555 1_555
H10 C13 1_555 1_555
C14 C13 1_555 1_555
C15 C14 1_555 1_555
H11 C15 1_555 1_555
C16 C15 1_555 1_555
C17 C16 1_555 1_555
H12 C17 1_555 1_555
C18 C17 1_555 1_555
C19 C14 1_555 1_555
H13 C19 1_555 1_555
C20 C21 1_555 1_555
C21 H14 1_555 1_555
C22 C21 1_555 1_555
H15 C22 1_555 1_555
C23 C22 1_555 1_555
C24 C23 1_555 1_555
H16 C24 1_555 1_555
C25 C20 1_555 1_555
H17 C25 1_555 1_555
C26 H18 1_555 1_555
H19 C26 1_555 1_555
H20 C26 1_555 1_555
C27 H21 1_555 1_555
H22 C27 1_555 1_555
H23 C27 1_555 1_555
F1 C2 1_555 1_555
F2 C23 1_555 1_555
N1 C11 1_555 1_555
O1 C9 1_555 1_555
O2 C18 1_555 1_555
O3 C16 1_555 1_555
O4 S1 1_555 1_555
O5 S1 1_555 1_555
S1 C20 1_555 1_555
C28 H24 1_555 1_555
H25 C28 1_555 1_555
Cl1 C28 1_555 1_555
Cl2 C28 1_555 1_555
C5 C6 1_555 1_555
C12 N1 1_555 1_555
C18 C19 1_555 1_555
C24 C25 1_555 1_555
C26 O3 1_555 1_555
C27 O2 1_555 1_555
N1 S1 1_555 1_555

#END
