
#######################################################################
#
#                 Cambridge Crystallographic Data Centre
#                                CCDC 
#
#######################################################################
#
# If this CIF has been generated from an entry in the Cambridge 
# Structural Database, then it will include bibliographic, chemical, 
# crystal, experimental, refinement or atomic coordinate data resulting 
# from the CCDC's data processing and validation procedures.
#
#######################################################################

data_JIMZEN
_chemical_formula_moiety         'C29 H18 F6 S2'
_chemical_name_systematic        
3-{3,3,4,4,5,5-hexafluoro-2-[2-methyl-5-(naphthalen-2-yl)thiophen-3-yl]cyclopent-1-en-1-yl}-2-methyl-1-benzothiophene
_symmetry_cell_setting           orthorhombic
_symmetry_space_group_name_H-M   'P b c a'
_symmetry_Int_Tables_number      61
_space_group_name_Hall           '-P 2ac 2ab'
loop_
_symmetry_equiv_pos_site_id
_symmetry_equiv_pos_as_xyz
1 x,y,z
2 1/2-x,-y,1/2+z
3 1/2+x,1/2-y,-z
4 -x,1/2+y,1/2-z
5 -x,-y,-z
6 1/2+x,y,1/2-z
7 1/2-x,1/2+y,z
8 x,1/2-y,1/2+z
_cell_length_a                   14.6100(5)
_cell_length_b                   8.4934(4)
_cell_length_c                   39.9940(18)
_cell_angle_alpha                90
_cell_angle_beta                 90
_cell_angle_gamma                90
_cell_volume                     4962.8
_cell_formula_units_Z            8
loop_
_atom_site_label
_atom_site_type_symbol
_atom_site_fract_x
_atom_site_fract_y
_atom_site_fract_z
S1 S 0.22171(11) 0.7798(2) 0.65451(4)
S2 S 0.39508(18) 1.1226(4) 0.53404(7)
F1 F 0.5892(4) 0.7674(8) 0.66810(14)
F2 F 0.5296(3) 0.5451(7) 0.65712(14)
F3 F 0.7105(3) 0.6476(12) 0.62708(14)
F4 F 0.6194(6) 0.4967(10) 0.6054(2)
F5 F 0.6625(4) 0.8756(9) 0.58676(16)
F6 F 0.6233(4) 0.6849(10) 0.55905(14)
C1 C 0.0359(5) 1.1115(8) 0.7459(2)
H1 H -0.0017 1.1014 0.7273
C2 C 0.0016(5) 1.1781(9) 0.7741(2)
H2 H -0.0583 1.2155 0.7745
C3 C 0.0570(6) 1.1903(10) 0.8029(2)
H3 H 0.0338 1.2362 0.8222
C4 C 0.1448(6) 1.1348(9) 0.80234(19)
H4 H 0.1800 1.1403 0.8217
C5 C 0.1831(5) 1.0697(8) 0.77330(16)
C6 C 0.2747(5) 1.0157(9) 0.77130(19)
H5 H 0.3124 1.0223 0.7900
C7 C 0.3084(5) 0.9541(8) 0.74234(19)
H6 H 0.3687 0.9190 0.7418
C8 C 0.2553(4) 0.9417(7) 0.71335(15)
C9 C 0.1657(4) 0.9931(7) 0.71468(15)
H7 H 0.1294 0.9856 0.6957
C10 C 0.1281(4) 1.0567(7) 0.74413(17)
C11 C 0.2921(4) 0.8730(7) 0.68311(16)
C12 C 0.3808(4) 0.8652(8) 0.67205(17)
H8 H 0.4296 0.9072 0.6840
C13 C 0.3921(4) 0.7869(8) 0.64054(16)
C14 C 0.3107(4) 0.7334(8) 0.62813(17)
C15 C 0.2910(5) 0.6380(11) 0.59725(19)
H9 H 0.2799 0.7075 0.5788
H10 H 0.2379 0.5737 0.6010
H11 H 0.3426 0.5720 0.5923
C16 C 0.4803(4) 0.7597(8) 0.62429(17)
C17 C 0.5560(5) 0.6777(10) 0.64349(19)
C18 C 0.6304(6) 0.6538(14) 0.6178(2)
C19 C 0.6051(5) 0.7462(13) 0.5876(2)
C20 C 0.5091(4) 0.7969(9) 0.59356(17)
C21 C 0.4603(5) 0.8921(12) 0.56744(18)
C22 C 0.4477(6) 1.0456(13) 0.5689(2)
C23 C 0.4797(7) 1.1546(14) 0.5956(3)
H12 H 0.4586 1.1175 0.6170
H13 H 0.4556 1.2581 0.5916
H14 H 0.5453 1.1586 0.5956
C24 C 0.3834(6) 0.9235(15) 0.5148(3)
C25 C 0.4258(5) 0.8239(15) 0.5367(2)
C26 C 0.4254(6) 0.6700(17) 0.5262(2)
H15 H 0.4525 0.5931 0.5395
C27 C 0.3862(7) 0.6278(19) 0.4965(3)
H16 H 0.3848 0.5229 0.4899
C28 C 0.3480(8) 0.746(3) 0.4763(3)
H17 H 0.3228 0.7186 0.4557
C29 C 0.3473(7) 0.903(2) 0.4867(4)
H18 H 0.3226 0.9848 0.4740
loop_
_geom_bond_atom_site_label_1
_geom_bond_atom_site_label_2
_geom_bond_site_symmetry_1
_geom_bond_site_symmetry_2
S1 C11 1_555 1_555
S2 C22 1_555 1_555
F1 C17 1_555 1_555
F2 C17 1_555 1_555
F3 C18 1_555 1_555
F4 C18 1_555 1_555
F5 C19 1_555 1_555
F6 C19 1_555 1_555
C1 H1 1_555 1_555
C2 C1 1_555 1_555
H2 C2 1_555 1_555
C3 C2 1_555 1_555
H3 C3 1_555 1_555
C4 C3 1_555 1_555
H4 C4 1_555 1_555
C5 C4 1_555 1_555
C6 C5 1_555 1_555
H5 C6 1_555 1_555
C7 C6 1_555 1_555
H6 C7 1_555 1_555
C8 C7 1_555 1_555
C9 C8 1_555 1_555
H7 C9 1_555 1_555
C10 C1 1_555 1_555
C11 C8 1_555 1_555
C12 C11 1_555 1_555
H8 C12 1_555 1_555
C13 C12 1_555 1_555
C14 S1 1_555 1_555
C15 C14 1_555 1_555
H9 C15 1_555 1_555
H10 C15 1_555 1_555
H11 C15 1_555 1_555
C16 C13 1_555 1_555
C17 C16 1_555 1_555
C18 C17 1_555 1_555
C19 C18 1_555 1_555
C20 C16 1_555 1_555
C21 C20 1_555 1_555
C22 C21 1_555 1_555
C23 C22 1_555 1_555
H12 C23 1_555 1_555
H13 C23 1_555 1_555
H14 C23 1_555 1_555
C24 S2 1_555 1_555
C25 C21 1_555 1_555
C26 C25 1_555 1_555
H15 C26 1_555 1_555
C27 C26 1_555 1_555
H16 C27 1_555 1_555
C28 C27 1_555 1_555
H17 C28 1_555 1_555
C29 C24 1_555 1_555
H18 C29 1_555 1_555
C5 C10 1_555 1_555
C9 C10 1_555 1_555
C13 C14 1_555 1_555
C19 C20 1_555 1_555
C24 C25 1_555 1_555
C28 C29 1_555 1_555

#END
