
#######################################################################
#
#                 Cambridge Crystallographic Data Centre
#                                CCDC 
#
#######################################################################
#
# If this CIF has been generated from an entry in the Cambridge 
# Structural Database, then it will include bibliographic, chemical, 
# crystal, experimental, refinement or atomic coordinate data resulting 
# from the CCDC's data processing and validation procedures.
#
#######################################################################

data_JINFOE
_chemical_formula_moiety         'C31 H22 B1 F10 O3 P1,0.5(C6 H14),C7 H8'
_chemical_name_systematic        
'1,1-dimesityl-5-oxo-3,3-bis(pentafluorophenyl)-2,1,3-oxaphosphoniaboratolane n-hexane toluene solvate'
_symmetry_cell_setting           triclinic
_symmetry_space_group_name_H-M   'P -1'
_symmetry_Int_Tables_number      2
_space_group_name_Hall           '-P 1'
loop_
_symmetry_equiv_pos_site_id
_symmetry_equiv_pos_as_xyz
1 x,y,z
2 -x,-y,-z
_cell_length_a                   11.8184(16)
_cell_length_b                   11.8406(17)
_cell_length_c                   15.532(2)
_cell_angle_alpha                70.423(2)
_cell_angle_beta                 79.484(2)
_cell_angle_gamma                67.364(2)
_cell_volume                     1886.52
_exptl_crystal_colour            colorless
_exptl_crystal_description       block
_cell_formula_units_Z            2
loop_
_atom_site_label
_atom_site_type_symbol
_atom_site_fract_x
_atom_site_fract_y
_atom_site_fract_z
B1 B 0.2239(3) 0.4858(3) 0.2848(2)
C1 C 0.0442(3) 0.4228(3) 0.33383(19)
C2 C 0.3151(3) 0.2601(3) 0.1354(2)
H1 H 0.3494 0.2418 0.0772
H2 H 0.3814 0.2287 0.1766
H3 H 0.2742 0.3527 0.1244
C3 C 0.1012(4) -0.0151(3) 0.1085(3)
H4 H 0.0333 -0.0456 0.1377
H5 H 0.1765 -0.0884 0.1066
H6 H 0.0818 0.0397 0.0460
C4 C 0.0017(3) 0.1281(3) 0.3898(2)
H7 H -0.0685 0.1031 0.3905
H8 H -0.0279 0.2135 0.3981
H9 H 0.0539 0.0665 0.4396
C5 C 0.1598(2) 0.1948(2) 0.26526(18)
C6 C 0.2230(3) 0.1940(3) 0.17877(19)
C7 C 0.1997(3) 0.1269(3) 0.1295(2)
H10 H 0.2407 0.1271 0.0709
C8 C 0.1194(3) 0.0600(3) 0.1624(2)
C9 C 0.0575(3) 0.0631(3) 0.2469(2)
H11 H 0.0015 0.0185 0.2699
C10 C 0.0750(3) 0.1300(3) 0.29930(19)
C11 C 0.3877(3) 0.0015(3) 0.3693(2)
H12 H 0.4645 -0.0699 0.3875
H13 H 0.4063 0.0744 0.3249
H14 H 0.3376 -0.0249 0.3415
C12 C 0.3239(5) -0.1210(4) 0.7113(3)
H15 H 0.2814 -0.0825 0.7604
H16 H 0.4128 -0.1523 0.7166
H17 H 0.2984 -0.1926 0.7161
C13 C 0.0868(3) 0.3248(3) 0.5342(2)
H18 H 0.0062 0.3382 0.5164
H19 H 0.1184 0.3899 0.4916
H20 H 0.0790 0.3314 0.5964
C14 C 0.2266(2) 0.1607(3) 0.44939(18)
C15 C 0.3465(3) -0.0484(3) 0.5377(2)
H21 H 0.4061 -0.1307 0.5403
C16 C 0.2916(3) -0.0213(3) 0.6191(2)
C17 C 0.2079(3) 0.1011(3) 0.6139(2)
H22 H 0.1725 0.1218 0.6692
C18 C 0.1743(3) 0.1939(3) 0.53149(19)
C19 C 0.2631(2) 0.5228(3) 0.36445(19)
C20 C 0.2117(3) 0.6479(3) 0.3677(2)
C21 C 0.2323(3) 0.6891(3) 0.4345(2)
C22 C 0.3078(3) 0.6045(4) 0.5032(2)
C23 C 0.3619(3) 0.4776(4) 0.5021(2)
C24 C 0.3403(3) 0.4400(3) 0.4332(2)
C25 C 0.2659(3) 0.5590(2) 0.18310(19)
C26 C 0.3900(3) 0.5321(3) 0.1594(2)
C27 C 0.4382(3) 0.5880(3) 0.0760(2)
C28 C 0.3593(3) 0.6761(3) 0.0098(2)
C29 C 0.2354(3) 0.7074(3) 0.0293(2)
C30 C 0.1901(3) 0.6494(3) 0.1145(2)
C31 C 0.3173(3) 0.0401(3) 0.4532(2)
F1 F 0.06725(16) 0.68669(19) 0.12810(13)
F2 F 0.1573(2) 0.7942(2) -0.03493(13)
F3 F 0.4037(2) 0.7289(2) -0.07307(13)
F4 F 0.55967(18) 0.5597(2) 0.05792(14)
F5 F 0.47186(15) 0.44613(17) 0.22232(12)
F6 F 0.13523(18) 0.73798(16) 0.30312(12)
F7 F 0.1796(2) 0.8132(2) 0.43379(16)
F8 F 0.3287(2) 0.6399(3) 0.56927(16)
F9 F 0.4379(2) 0.3913(2) 0.56818(14)
F10 F 0.39854(17) 0.31597(18) 0.43747(14)
O1 O 0.27569(17) 0.34284(17) 0.29716(13)
O2 O 0.08568(17) 0.51753(18) 0.29754(13)
O3 O -0.06144(17) 0.4318(2) 0.35243(14)
P1 P 0.18348(6) 0.27170(6) 0.33876(5)
C32 C 0.4496(4) 0.7633(5) 0.2262(3)
H23 H 0.4753 0.6699 0.2431
H24 H 0.3928 0.8017 0.1770
H25 H 0.4084 0.7927 0.2796
C33 C 0.5599(3) 0.8024(4) 0.1940(2)
C34 C 0.5519(4) 0.9206(4) 0.1311(3)
H26 H 0.4754 0.9773 0.1064
C35 C 0.6554(5) 0.9563(4) 0.1040(3)
H27 H 0.6493 1.0378 0.0620
C36 C 0.7666(4) 0.8725(5) 0.1388(3)
H28 H 0.8375 0.8962 0.1201
C37 C 0.7758(4) 0.7584(5) 0.1984(3)
H29 H 0.8532 0.7010 0.2212
C38 C 0.6741(4) 0.7237(4) 0.2267(3)
H30 H 0.6822 0.6429 0.2703
C39 C 0.1777(5) 0.5935(5) 0.8336(4)
H31 H 0.1458 0.5848 0.7831
H32 H 0.2672 0.5689 0.8247
H33 H 0.1416 0.6826 0.8351
C40 C 0.1448(8) 0.5090(7) 0.9216(6)
H34 H 0.1699 0.4230 0.9136
H35 H 0.1972 0.5012 0.9678
C41 C 0.0236(5) 0.5382(5) 0.9606(4)
H36 H -0.0280 0.5564 0.9106
H37 H 0.0035 0.6207 0.9730
C39A C -0.1777(5) 0.4065(5) 1.1664(4)
H31A H -0.1458 0.4152 1.2169
H32A H -0.2672 0.4311 1.1753
H33A H -0.1416 0.3174 1.1649
C40A C -0.1448(8) 0.4910(7) 1.0784(6)
H34A H -0.1699 0.5770 1.0864
H35A H -0.1972 0.4988 1.0322
C41A C -0.0236(5) 0.4618(5) 1.0394(4)
H36A H 0.0280 0.4436 1.0894
H37A H -0.0035 0.3793 1.0270
loop_
_geom_bond_atom_site_label_1
_geom_bond_atom_site_label_2
_geom_bond_site_symmetry_1
_geom_bond_site_symmetry_2
B1 C19 1_555 1_555
C1 O2 1_555 1_555
C2 H1 1_555 1_555
H2 C2 1_555 1_555
H3 C2 1_555 1_555
C3 H4 1_555 1_555
H5 C3 1_555 1_555
H6 C3 1_555 1_555
C4 H7 1_555 1_555
H8 C4 1_555 1_555
H9 C4 1_555 1_555
C5 C6 1_555 1_555
C6 C2 1_555 1_555
C7 C6 1_555 1_555
H10 C7 1_555 1_555
C8 C3 1_555 1_555
C9 C8 1_555 1_555
H11 C9 1_555 1_555
C10 C4 1_555 1_555
C11 H12 1_555 1_555
H13 C11 1_555 1_555
H14 C11 1_555 1_555
C12 H15 1_555 1_555
H16 C12 1_555 1_555
H17 C12 1_555 1_555
C13 H18 1_555 1_555
H19 C13 1_555 1_555
H20 C13 1_555 1_555
C14 C18 1_555 1_555
C15 H21 1_555 1_555
C16 C12 1_555 1_555
C17 C16 1_555 1_555
H22 C17 1_555 1_555
C18 C13 1_555 1_555
C19 C20 1_555 1_555
C20 C21 1_555 1_555
C21 C22 1_555 1_555
C22 C23 1_555 1_555
C23 C24 1_555 1_555
C24 C19 1_555 1_555
C25 B1 1_555 1_555
C26 C25 1_555 1_555
C27 C26 1_555 1_555
C28 C27 1_555 1_555
C29 C28 1_555 1_555
C30 C25 1_555 1_555
C31 C11 1_555 1_555
F1 C30 1_555 1_555
F2 C29 1_555 1_555
F3 C28 1_555 1_555
F4 C27 1_555 1_555
F5 C26 1_555 1_555
F6 C20 1_555 1_555
F7 C21 1_555 1_555
F8 C22 1_555 1_555
F9 C23 1_555 1_555
F10 C24 1_555 1_555
O1 B1 1_555 1_555
O2 B1 1_555 1_555
O3 C1 1_555 1_555
P1 C1 1_555 1_555
C32 H23 1_555 1_555
H24 C32 1_555 1_555
H25 C32 1_555 1_555
C33 C32 1_555 1_555
C34 C33 1_555 1_555
H26 C34 1_555 1_555
C35 C34 1_555 1_555
H27 C35 1_555 1_555
C36 C35 1_555 1_555
H28 C36 1_555 1_555
C37 C36 1_555 1_555
H29 C37 1_555 1_555
C38 C33 1_555 1_555
H30 C38 1_555 1_555
C39 H31 1_555 1_555
H32 C39 1_555 1_555
H33 C39 1_555 1_555
C40 C39 1_555 1_555
H34 C40 1_555 1_555
H35 C40 1_555 1_555
C41 C40 1_555 1_555
H36 C41 1_555 1_555
H37 C41 1_555 1_555
C39A H31A 1_555 1_555
H32A C39A 1_555 1_555
H33A C39A 1_555 1_555
C40A C39A 1_555 1_555
H34A C40A 1_555 1_555
H35A C40A 1_555 1_555
C41A C41 1_555 1_555
H36A C41A 1_555 1_555
H37A C41A 1_555 1_555
C5 C10 1_555 1_555
C5 P1 1_555 1_555
C7 C8 1_555 1_555
C9 C10 1_555 1_555
C14 C31 1_555 1_555
C14 P1 1_555 1_555
C15 C16 1_555 1_555
C15 C31 1_555 1_555
C17 C18 1_555 1_555
C29 C30 1_555 1_555
O1 P1 1_555 1_555
C37 C38 1_555 1_555
C40A C41A 1_555 1_555

#END
