
#######################################################################
#
#                 Cambridge Crystallographic Data Centre
#                                CCDC 
#
#######################################################################
#
# If this CIF has been generated from an entry in the Cambridge 
# Structural Database, then it will include bibliographic, chemical, 
# crystal, experimental, refinement or atomic coordinate data resulting 
# from the CCDC's data processing and validation procedures.
#
#######################################################################

data_JIPDAQ
_chemical_formula_moiety         'C27 H24 N2,C8 H6 N2 O2'
_chemical_name_systematic        
'3-phenyl-1,2,4-oxadiazol-5(4H)-one 4-(4-ethylphenyl)-3-[(4-ethylphenyl)ethynyl]isoquinolin-1-amine'
_symmetry_cell_setting           monoclinic
_symmetry_space_group_name_H-M   'P 21/n'
_symmetry_Int_Tables_number      14
_space_group_name_Hall           '-P 2yn'
loop_
_symmetry_equiv_pos_site_id
_symmetry_equiv_pos_as_xyz
1 x,y,z
2 1/2-x,1/2+y,1/2-z
3 -x,-y,-z
4 1/2+x,1/2-y,1/2+z
_cell_length_a                   10.914(2)
_cell_length_b                   11.376(2)
_cell_length_c                   22.443(4)
_cell_angle_alpha                90
_cell_angle_beta                 91.98(3)
_cell_angle_gamma                90
_cell_volume                     2784.81
_exptl_crystal_colour            colorless
_exptl_crystal_description       block
_cell_formula_units_Z            4
loop_
_atom_site_label
_atom_site_type_symbol
_atom_site_fract_x
_atom_site_fract_y
_atom_site_fract_z
N1 N 0.03662(17) 0.01763(18) 0.33057(8)
N2 N 0.00207(19) 0.06720(19) 0.42578(9)
H1 H -0.0082 -0.0071 0.4334
H2 H -0.0046 0.1190 0.4540
C1 C 0.0752(2) 0.3684(2) 0.28141(12)
H3 H 0.0883 0.3898 0.2417
C2 C 0.0658(3) 0.4525(3) 0.32341(13)
H4 H 0.0736 0.5319 0.3125
C3 C 0.0450(3) 0.4248(3) 0.38170(12)
H5 H 0.0387 0.4847 0.4103
C4 C 0.0337(2) 0.3110(3) 0.39784(11)
H6 H 0.0188 0.2920 0.4377
C5 C 0.0440(2) 0.2218(2) 0.35601(10)
C6 C 0.0656(2) 0.2492(2) 0.29659(10)
C7 C 0.0766(2) 0.1578(2) 0.25361(10)
C8 C 0.0639(2) 0.0449(2) 0.27223(10)
C9 C 0.0276(2) 0.1010(2) 0.37188(10)
C10 C 0.1012(2) 0.1799(2) 0.19059(10)
C11 C 0.2116(2) 0.2206(2) 0.17282(11)
H7 H 0.2717 0.2431 0.2016
C12 C 0.2357(3) 0.2291(3) 0.11344(12)
H8 H 0.3127 0.2571 0.1024
C13 C 0.1518(3) 0.1984(2) 0.07019(11)
C14 C 0.0393(3) 0.1623(3) 0.08791(12)
H9 H -0.0218 0.1435 0.0590
C15 C 0.0141(2) 0.1531(3) 0.14692(12)
H10 H -0.0640 0.1280 0.1579
C16 C 0.1821(3) 0.1997(3) 0.00543(12)
H11 H 0.1089 0.2227 -0.0183
H12 H 0.2457 0.2587 -0.0009
C17 C 0.2253(5) 0.0840(3) -0.01560(15)
H13 H 0.2437 0.0892 -0.0575
H14 H 0.2988 0.0615 0.0072
H15 H 0.1620 0.0255 -0.0103
C18 C 0.0802(2) -0.0535(2) 0.23440(11)
C19 C 0.0973(2) -0.1303(2) 0.20011(11)
C20 C 0.1184(2) -0.2167(2) 0.15591(11)
C21 C 0.1481(2) -0.1821(2) 0.09998(11)
H16 H 0.1537 -0.1016 0.0909
C22 C 0.1698(3) -0.2646(3) 0.05689(12)
H17 H 0.1907 -0.2394 0.0187
C23 C 0.1616(3) -0.3824(3) 0.06829(14)
C24 C 0.1316(3) -0.4152(3) 0.12394(14)
H18 H 0.1255 -0.4957 0.1329
C25 C 0.1099(3) -0.3348(3) 0.16724(13)
H19 H 0.0889 -0.3606 0.2054
C26 C 0.1868(3) -0.4727(3) 0.02127(16)
H20 H 0.2737 -0.4940 0.0250
H21 H 0.1394 -0.5434 0.0301
C27 C 0.1600(4) -0.4408(3) -0.04014(16)
H22 H 0.1800 -0.5060 -0.0659
H23 H 0.0735 -0.4223 -0.0453
H24 H 0.2083 -0.3727 -0.0504
N3 N 0.6740(2) 0.1365(2) 0.12230(10)
N4 N 0.56915(19) 0.30179(18) 0.13539(8)
H25 H 0.5380 0.3617 0.1536
O1 O 0.61983(18) 0.17518(17) 0.06734(7)
O2 O 0.50331(17) 0.32794(16) 0.03812(7)
C28 C 0.6750(2) 0.2081(2) 0.22292(11)
C29 C 0.6943(3) 0.1011(3) 0.24984(12)
H26 H 0.6872 0.0316 0.2274
C30 C 0.7240(3) 0.0960(3) 0.30961(14)
H27 H 0.7370 0.0227 0.3281
C31 C 0.7348(3) 0.1962(3) 0.34245(13)
H28 H 0.7538 0.1919 0.3836
C32 C 0.7180(3) 0.3023(3) 0.31573(13)
H29 H 0.7277 0.3717 0.3381
C33 C 0.6872(2) 0.3080(3) 0.25651(12)
H30 H 0.6741 0.3817 0.2384
C34 C 0.6394(2) 0.2149(2) 0.15929(11)
C35 C 0.5585(2) 0.2759(2) 0.07909(11)
loop_
_geom_bond_atom_site_label_1
_geom_bond_atom_site_label_2
_geom_bond_site_symmetry_1
_geom_bond_site_symmetry_2
N1 C8 1_555 1_555
N2 H1 1_555 1_555
H2 N2 1_555 1_555
C1 H3 1_555 1_555
C2 C1 1_555 1_555
H4 C2 1_555 1_555
C3 C2 1_555 1_555
H5 C3 1_555 1_555
C4 C3 1_555 1_555
H6 C4 1_555 1_555
C5 C4 1_555 1_555
C6 C1 1_555 1_555
C7 C6 1_555 1_555
C8 C7 1_555 1_555
C9 N1 1_555 1_555
C10 C7 1_555 1_555
C11 C10 1_555 1_555
H7 C11 1_555 1_555
C12 C11 1_555 1_555
H8 C12 1_555 1_555
C13 C12 1_555 1_555
C14 C13 1_555 1_555
H9 C14 1_555 1_555
C15 C10 1_555 1_555
H10 C15 1_555 1_555
C16 C13 1_555 1_555
H11 C16 1_555 1_555
H12 C16 1_555 1_555
C17 C16 1_555 1_555
H13 C17 1_555 1_555
H14 C17 1_555 1_555
H15 C17 1_555 1_555
C18 C8 1_555 1_555
C19 C18 1_555 1_555
C20 C19 1_555 1_555
C21 C20 1_555 1_555
H16 C21 1_555 1_555
C22 C21 1_555 1_555
H17 C22 1_555 1_555
C23 C22 1_555 1_555
C24 C23 1_555 1_555
H18 C24 1_555 1_555
C25 C20 1_555 1_555
H19 C25 1_555 1_555
C26 C23 1_555 1_555
H20 C26 1_555 1_555
H21 C26 1_555 1_555
C27 C26 1_555 1_555
H22 C27 1_555 1_555
H23 C27 1_555 1_555
H24 C27 1_555 1_555
N3 O1 1_555 1_555
N4 H25 1_555 1_555
O1 C35 1_555 1_555
O2 C35 1_555 1_555
C28 C29 1_555 1_555
C29 H26 1_555 1_555
C30 C29 1_555 1_555
H27 C30 1_555 1_555
C31 C30 1_555 1_555
H28 C31 1_555 1_555
C32 C31 1_555 1_555
H29 C32 1_555 1_555
C33 C28 1_555 1_555
H30 C33 1_555 1_555
C34 N3 1_555 1_555
C35 N4 1_555 1_555
N2 C9 1_555 1_555
C5 C6 1_555 1_555
C5 C9 1_555 1_555
C14 C15 1_555 1_555
C24 C25 1_555 1_555
N4 C34 1_555 1_555
C28 C34 1_555 1_555
C32 C33 1_555 1_555

#END
