
#######################################################################
#
#                 Cambridge Crystallographic Data Centre
#                                CCDC 
#
#######################################################################
#
# If this CIF has been generated from an entry in the Cambridge 
# Structural Database, then it will include bibliographic, chemical, 
# crystal, experimental, refinement or atomic coordinate data resulting 
# from the CCDC's data processing and validation procedures.
#
#######################################################################

data_JIPFAQ
_chemical_formula_moiety         'C4 H8 N2 O4'
_chemical_name_systematic        'Dimethyl hydrazocarboxylate'
_symmetry_cell_setting           orthorhombic
_symmetry_space_group_name_H-M   'P 21 21 21'
_symmetry_Int_Tables_number      19
_space_group_name_Hall           'P 2ac 2ab'
loop_
_symmetry_equiv_pos_site_id
_symmetry_equiv_pos_as_xyz
1 x,y,z
2 1/2-x,-y,1/2+z
3 1/2+x,1/2-y,-z
4 -x,1/2+y,1/2-z
_cell_length_a                   7.0950(14)
_cell_length_b                   7.4491(15)
_cell_length_c                   13.197(3)
_cell_angle_alpha                90
_cell_angle_beta                 90
_cell_angle_gamma                90
_cell_volume                     697.479
_exptl_crystal_colour            colorless
_cell_formula_units_Z            4
loop_
_atom_site_label
_atom_site_type_symbol
_atom_site_fract_x
_atom_site_fract_y
_atom_site_fract_z
O1 O 0.23747(14) 0.88795(13) 0.73340(7)
O2 O 0.15372(15) 0.75627(12) 0.58480(7)
O3 O 0.52397(15) 0.31141(12) 0.52207(8)
O4 O 0.35982(14) 0.33821(13) 0.66891(7)
N1 N 0.43537(17) 0.70032(16) 0.66176(9)
H1 H 0.504(3) 0.725(2) 0.7116(12)
N2 N 0.49461(18) 0.57924(15) 0.58995(9)
H2 H 0.549(3) 0.620(2) 0.5381(13)
C1 C 0.26482(19) 0.77920(17) 0.65390(9)
C2 C 0.45093(18) 0.40322(18) 0.60000(10)
C3 C 0.0664(2) 0.9942(2) 0.73070(13)
H3 H 0.0643 1.0664 0.6686
H4 H 0.0627 1.0738 0.7898
H5 H -0.0433 0.9144 0.7319
C4 C 0.5015(2) 0.11861(19) 0.52727(13)
H6 H 0.5637 0.0730 0.5884
H7 H 0.5585 0.0633 0.4673
H8 H 0.3670 0.0889 0.5297
loop_
_geom_bond_atom_site_label_1
_geom_bond_atom_site_label_2
_geom_bond_site_symmetry_1
_geom_bond_site_symmetry_2
O1 C1 1_555 1_555
O2 C1 1_555 1_555
O3 C2 1_555 1_555
O4 C2 1_555 1_555
N1 H1 1_555 1_555
N2 N1 1_555 1_555
H2 N2 1_555 1_555
C1 N1 1_555 1_555
C2 N2 1_555 1_555
C3 O1 1_555 1_555
H3 C3 1_555 1_555
H4 C3 1_555 1_555
H5 C3 1_555 1_555
C4 O3 1_555 1_555
H6 C4 1_555 1_555
H7 C4 1_555 1_555
H8 C4 1_555 1_555

#END
