
#######################################################################
#
#                 Cambridge Crystallographic Data Centre
#                                CCDC 
#
#######################################################################
#
# If this CIF has been generated from an entry in the Cambridge 
# Structural Database, then it will include bibliographic, chemical, 
# crystal, experimental, refinement or atomic coordinate data resulting 
# from the CCDC's data processing and validation procedures.
#
#######################################################################

data_JIQJUR
_chemical_formula_moiety         'C5 H4 N10 O4 2-,2(C1 H7 N4 1+)'
_chemical_name_systematic        
"bis[amino(hydrazinyl)methaniminium] 5,5'-methylenebis[3-(nitroimino)-2,3-dihydro-1,2,4-triazol-1-ide]"
_symmetry_cell_setting           monoclinic
_symmetry_space_group_name_H-M   'C 2/c'
_symmetry_Int_Tables_number      15
_space_group_name_Hall           '-C 2yn'
loop_
_symmetry_equiv_pos_site_id
_symmetry_equiv_pos_as_xyz
1 x,y,z
2 -x,y,1/2-z
3 1/2+x,1/2+y,z
4 1/2-x,1/2+y,1/2-z
5 -x,-y,-z
6 x,-y,1/2+z
7 1/2-x,1/2-y,-z
8 1/2+x,1/2-y,1/2+z
_cell_length_a                   16.222(3)
_cell_length_b                   4.4499(8)
_cell_length_c                   23.483(5)
_cell_angle_alpha                90
_cell_angle_beta                 94.773(6)
_cell_angle_gamma                90
_cell_volume                     1689.27
_exptl_crystal_description       sheet
_cell_formula_units_Z            4
loop_
_atom_site_label
_atom_site_type_symbol
_atom_site_fract_x
_atom_site_fract_y
_atom_site_fract_z
C1 C 1.0000 -0.2503(7) 0.7500
H1 H 0.9793 -0.3814 0.7797
C2 C 0.86542(16) 0.2402(5) 0.66784(10)
C3 C 0.93007(16) -0.0647(5) 0.72376(10)
N1 N 0.85544(14) -0.0597(4) 0.74245(9)
N2 N 0.81382(14) 0.1417(5) 0.70547(9)
H2 H 0.7611(16) 0.205(5) 0.7082(10)
N3 N 0.93913(13) 0.1157(4) 0.67777(8)
N4 N 0.85312(13) 0.4329(4) 0.62147(8)
N5 N 0.78192(14) 0.5644(5) 0.61257(9)
O1 O 0.72448(11) 0.5287(4) 0.64478(8)
O2 O 0.77157(11) 0.7326(4) 0.56880(7)
H1A H 1.0207 -0.3814 0.7203
C2A C 1.13458(16) 0.2402(5) 0.83216(10)
C3A C 1.06993(16) -0.0647(5) 0.77624(10)
N1A N 1.14456(14) -0.0597(4) 0.75755(9)
N2A N 1.18618(14) 0.1417(5) 0.79453(9)
H2A H 1.2389(16) 0.205(5) 0.7918(10)
N3A N 1.06087(13) 0.1157(4) 0.82223(8)
N4A N 1.14688(13) 0.4329(4) 0.87853(8)
N5A N 1.21808(14) 0.5644(5) 0.88743(9)
O1A O 1.27552(11) 0.5287(4) 0.85522(8)
O2A O 1.22843(11) 0.7326(4) 0.93120(7)
C4 C 0.43522(16) 0.9425(5) 0.42408(11)
N6 N 0.38056(15) 0.6487(5) 0.49609(10)
H4 H 0.3711(15) 0.733(5) 0.5306(11)
H5 H 0.3456(16) 0.507(5) 0.4867(10)
N7 N 0.37097(14) 0.8708(5) 0.45325(9)
H6 H 0.3238(16) 0.977(5) 0.4464(10)
N8 N 0.42457(14) 1.1472(5) 0.38336(10)
H7 H 0.3733(11) 1.230(5) 0.3756(10)
H8 H 0.4691(12) 1.215(5) 0.3657(10)
N9 N 0.50744(15) 0.8102(5) 0.43561(10)
H9 H 0.5144(15) 0.664(5) 0.4630(9)
H10 H 0.5503(13) 0.857(5) 0.4162(9)
H3? H 0.9793 -0.3814 0.7797
loop_
_geom_bond_atom_site_label_1
_geom_bond_atom_site_label_2
_geom_bond_site_symmetry_1
_geom_bond_site_symmetry_2
C1 H1 1_555 1_555
C2 N2 1_555 1_555
C3 C1 1_555 1_555
N1 C3 1_555 1_555
N2 N1 1_555 1_555
H2 N2 1_555 1_555
N3 C2 1_555 1_555
N4 C2 1_555 1_555
N5 N4 1_555 1_555
O1 N5 1_555 1_555
O2 N5 1_555 1_555
C4 N7 1_555 1_555
N6 H4 1_555 1_555
H5 N6 1_555 1_555
N7 N6 1_555 1_555
H6 N7 1_555 1_555
N8 C4 1_555 1_555
H7 N8 1_555 1_555
H8 N8 1_555 1_555
N9 C4 1_555 1_555
H9 N9 1_555 1_555
H10 N9 1_555 1_555
H1A C1 1_555 1_555
C2A N2A 1_555 1_555
C3A C1 1_555 1_555
N1A C3A 1_555 1_555
N2A N1A 1_555 1_555
H2A N2A 1_555 1_555
N3A C2A 1_555 1_555
N4A C2A 1_555 1_555
N5A N4A 1_555 1_555
O1A N5A 1_555 1_555
O2A N5A 1_555 1_555
C3 N3 1_555 1_555
C3A N3A 1_555 1_555

#END
