
#######################################################################
#
#                 Cambridge Crystallographic Data Centre
#                                CCDC 
#
#######################################################################
#
# If this CIF has been generated from an entry in the Cambridge 
# Structural Database, then it will include bibliographic, chemical, 
# crystal, experimental, refinement or atomic coordinate data resulting 
# from the CCDC's data processing and validation procedures.
#
#######################################################################

data_JIQPAD
_chemical_formula_moiety         'C21 H23 N1 O5'
_chemical_name_systematic        
1-(7-hydroxy-1,2,3-trimethoxy-4,5,6a,7-tetrahydro-6H-dibenzo[de,g]quinolin-6-yl)ethan-1-one
_symmetry_cell_setting           orthorhombic
_symmetry_space_group_name_H-M   'P 21 21 21'
_symmetry_Int_Tables_number      19
_space_group_name_Hall           'P 2ac 2ab'
loop_
_symmetry_equiv_pos_site_id
_symmetry_equiv_pos_as_xyz
1 x,y,z
2 1/2+x,1/2-y,-z
3 -x,1/2+y,1/2-z
4 1/2-x,-y,1/2+z
_cell_length_a                   6.9113(14)
_cell_length_b                   15.930(3)
_cell_length_c                   16.620(3)
_cell_angle_alpha                90
_cell_angle_beta                 90
_cell_angle_gamma                90
_cell_volume                     1829.81
_exptl_crystal_colour            colorless
_exptl_crystal_description       prism
_cell_formula_units_Z            4
loop_
_atom_site_label
_atom_site_type_symbol
_atom_site_fract_x
_atom_site_fract_y
_atom_site_fract_z
O1 O 1.1685(7) 0.3535(4) 0.8181(3)
O2 O 1.3292(8) 0.5139(4) 0.7942(3)
O3 O 0.4296(8) 0.2156(4) 0.5975(4)
O4 O 0.6594(7) 0.3961(4) 0.4527(3)
H1 H 0.6581 0.4290 0.4132
O5 O 1.1814(7) 0.6158(4) 0.6814(3)
N1 N 0.6478(9) 0.3200(5) 0.6087(4)
C1 C 1.3617(12) 0.3229(6) 0.8018(5)
H2 H 1.3564 0.2801 0.7595
H3 H 1.4161 0.2983 0.8509
H4 H 1.4436 0.3696 0.7840
C2 C 1.0971(10) 0.4076(5) 0.7611(4)
C3 C 1.1720(11) 0.4859(5) 0.7505(4)
C4 C 1.0996(10) 0.5416(5) 0.6916(4)
C5 C 0.9416(10) 0.5125(4) 0.6429(4)
C6 C 0.8637(10) 0.5651(5) 0.5764(5)
C7 C 0.8593(11) 0.6514(5) 0.5779(4)
H5 H 0.9097 0.6802 0.6234
C8 C 0.7820(11) 0.6979(5) 0.5137(5)
H6 H 0.7812 0.7575 0.5150
C9 C 0.7070(12) 0.6549(6) 0.4483(5)
H7 H 0.6547 0.6852 0.4041
C10 C 1.2937(13) 0.5208(6) 0.8795(4)
H8 H 1.1550 0.5290 0.8889
H9 H 1.3656 0.5688 0.9011
H10 H 1.3363 0.4693 0.9064
C11 C 0.9406(10) 0.3778(5) 0.7134(4)
C12 C 0.8712(11) 0.2894(5) 0.7178(4)
H11 H 0.7675 0.2849 0.7587
H12 H 0.9790 0.2523 0.7343
C13 C 0.7942(11) 0.2618(4) 0.6364(5)
H13 H 0.9016 0.2596 0.5970
H14 H 0.7380 0.2048 0.6408
C14 C 0.4669(11) 0.2882(5) 0.5901(4)
C15 C 0.3142(11) 0.3510(6) 0.5648(4)
H15 H 0.2004 0.3210 0.5445
H16 H 0.3662 0.3872 0.5223
H17 H 0.2770 0.3854 0.6112
C16 C 0.7041(10) 0.4065(5) 0.5991(4)
H18 H 0.5882 0.4419 0.6112
C17 C 0.8640(10) 0.4328(5) 0.6565(4)
C18 C 0.7810(11) 0.5241(6) 0.5104(5)
C19 C 0.7751(11) 0.4305(5) 0.5146(4)
H19 H 0.9100 0.4089 0.5080
C20 C 0.7077(11) 0.5701(6) 0.4470(5)
H20 H 0.6566 0.5415 0.4015
C21 C 1.3661(12) 0.6139(6) 0.6405(6)
H21 H 1.4604 0.5837 0.6736
H22 H 1.4113 0.6714 0.6314
H23 H 1.3517 0.5852 0.5886
loop_
_geom_bond_atom_site_label_1
_geom_bond_atom_site_label_2
_geom_bond_site_symmetry_1
_geom_bond_site_symmetry_2
O1 C1 1_555 1_555
O2 C3 1_555 1_555
O3 C14 1_555 1_555
O4 H1 1_555 1_555
O5 C4 1_555 1_555
N1 C13 1_555 1_555
C1 H2 1_555 1_555
H3 C1 1_555 1_555
H4 C1 1_555 1_555
C2 O1 1_555 1_555
C3 C2 1_555 1_555
C4 C3 1_555 1_555
C5 C4 1_555 1_555
C6 C5 1_555 1_555
C7 C6 1_555 1_555
H5 C7 1_555 1_555
C8 C7 1_555 1_555
H6 C8 1_555 1_555
C9 C8 1_555 1_555
H7 C9 1_555 1_555
C10 O2 1_555 1_555
H8 C10 1_555 1_555
H9 C10 1_555 1_555
H10 C10 1_555 1_555
C11 C2 1_555 1_555
C12 C11 1_555 1_555
H11 C12 1_555 1_555
H12 C12 1_555 1_555
C13 C12 1_555 1_555
H13 C13 1_555 1_555
H14 C13 1_555 1_555
C14 N1 1_555 1_555
C15 C14 1_555 1_555
H15 C15 1_555 1_555
H16 C15 1_555 1_555
H17 C15 1_555 1_555
C16 N1 1_555 1_555
H18 C16 1_555 1_555
C17 C5 1_555 1_555
C18 C6 1_555 1_555
C19 O4 1_555 1_555
H19 C19 1_555 1_555
C20 C9 1_555 1_555
H20 C20 1_555 1_555
C21 O5 1_555 1_555
H21 C21 1_555 1_555
H22 C21 1_555 1_555
H23 C21 1_555 1_555
C11 C17 1_555 1_555
C16 C17 1_555 1_555
C16 C19 1_555 1_555
C18 C19 1_555 1_555
C18 C20 1_555 1_555

#END
