
#######################################################################
#
#                 Cambridge Crystallographic Data Centre
#                                CCDC 
#
#######################################################################
#
# If this CIF has been generated from an entry in the Cambridge 
# Structural Database, then it will include bibliographic, chemical, 
# crystal, experimental, refinement or atomic coordinate data resulting 
# from the CCDC's data processing and validation procedures.
#
#######################################################################

data_JIQWOY
_chemical_formula_moiety         'C19 H18 O2'
_chemical_name_systematic        
4,4a,7,8,9,10-hexahydro-3H,6H-acenaphtho[1,2-d]chromen-3-one
_symmetry_cell_setting           triclinic
_symmetry_space_group_name_H-M   'P -1'
_symmetry_Int_Tables_number      2
_space_group_name_Hall           '-P 1'
loop_
_symmetry_equiv_pos_site_id
_symmetry_equiv_pos_as_xyz
1 x,y,z
2 -x,-y,-z
_cell_length_a                   7.666(4)
_cell_length_b                   10.080(5)
_cell_length_c                   10.445(5)
_cell_angle_alpha                111.729(6)
_cell_angle_beta                 94.388(8)
_cell_angle_gamma                105.046(7)
_cell_volume                     710.536
_exptl_crystal_colour            colorless
_exptl_crystal_description       block
_cell_formula_units_Z            2
loop_
_atom_site_label
_atom_site_type_symbol
_atom_site_fract_x
_atom_site_fract_y
_atom_site_fract_z
O1 O 0.63791(18) 0.40027(13) 0.02643(15)
O2 O 1.02571(15) 0.68732(12) 0.32169(12)
C1 C 0.7200(2) 0.63702(17) 0.21991(17)
H1 H 0.6864 0.5799 0.2762
H2 H 0.6242 0.6817 0.2114
C2 C 0.7301(2) 0.53237(17) 0.07623(17)
C3 C 0.8505(2) 0.59777(18) -0.00121(16)
H3 H 0.8506 0.5382 -0.0937
C4 C 0.9598(2) 0.73919(17) 0.05577(15)
H4 H 1.0328 0.7737 0.0005
C5 C 0.97315(18) 0.84703(15) 0.20401(14)
C6 C 0.9002(2) 0.76091(16) 0.29436(15)
H5 H 0.8838 0.8313 0.3834
C7 C 1.2044(2) 0.78678(19) 0.39677(19)
H6 H 1.2789 0.7300 0.4171
H7 H 1.1937 0.8595 0.4854
C8 C 1.2980(2) 0.86861(18) 0.31214(18)
H8 H 1.4148 0.9419 0.3671
H9 H 1.3207 0.7979 0.2275
C9 C 1.17180(19) 0.94459(16) 0.27562(15)
C10 C 1.1895(2) 1.09059(16) 0.31302(15)
C11 C 1.3477(2) 1.23228(17) 0.38637(17)
H10 H 1.4621 1.2130 0.3652
H11 H 1.3552 1.2678 0.4872
C12 C 1.3189(3) 1.35216(19) 0.3366(2)
H12 H 1.4179 1.4455 0.3876
H13 H 1.3241 1.3200 0.2376
C13 C 1.1339(3) 1.38019(19) 0.3589(2)
H14 H 1.1332 1.4222 0.4587
H15 H 1.1190 1.4527 0.3220
C14 C 0.9758(2) 1.23735(18) 0.28720(16)
C15 C 1.0122(2) 1.10459(16) 0.26936(14)
C16 C 0.8805(2) 0.96390(16) 0.20389(15)
C17 C 0.7041(2) 0.95254(19) 0.14883(17)
H16 H 0.6147 0.8594 0.1016
C18 C 0.6651(3) 1.0849(2) 0.16651(19)
H17 H 0.5470 1.0794 0.1315
C19 C 0.7966(3) 1.2242(2) 0.23446(18)
H18 H 0.7651 1.3103 0.2451
loop_
_geom_bond_atom_site_label_1
_geom_bond_atom_site_label_2
_geom_bond_site_symmetry_1
_geom_bond_site_symmetry_2
O1 C2 1_555 1_555
O2 C6 1_555 1_555
C1 H1 1_555 1_555
H2 C1 1_555 1_555
C2 C1 1_555 1_555
C3 C2 1_555 1_555
H3 C3 1_555 1_555
C4 C3 1_555 1_555
H4 C4 1_555 1_555
C5 C4 1_555 1_555
C6 C1 1_555 1_555
H5 C6 1_555 1_555
C7 O2 1_555 1_555
H6 C7 1_555 1_555
H7 C7 1_555 1_555
C8 C7 1_555 1_555
H8 C8 1_555 1_555
H9 C8 1_555 1_555
C9 C5 1_555 1_555
C10 C9 1_555 1_555
C11 C10 1_555 1_555
H10 C11 1_555 1_555
H11 C11 1_555 1_555
C12 C11 1_555 1_555
H12 C12 1_555 1_555
H13 C12 1_555 1_555
C13 C12 1_555 1_555
H14 C13 1_555 1_555
H15 C13 1_555 1_555
C14 C13 1_555 1_555
C15 C10 1_555 1_555
C16 C5 1_555 1_555
C17 C16 1_555 1_555
H16 C17 1_555 1_555
C18 C17 1_555 1_555
H17 C18 1_555 1_555
C19 C14 1_555 1_555
H18 C19 1_555 1_555
C5 C6 1_555 1_555
C8 C9 1_555 1_555
C14 C15 1_555 1_555
C15 C16 1_555 1_555
C18 C19 1_555 1_555

#END
