
#######################################################################
#
#                 Cambridge Crystallographic Data Centre
#                                CCDC 
#
#######################################################################
#
# If this CIF has been generated from an entry in the Cambridge 
# Structural Database, then it will include bibliographic, chemical, 
# crystal, experimental, refinement or atomic coordinate data resulting 
# from the CCDC's data processing and validation procedures.
#
#######################################################################

data_JISCEU
_chemical_formula_moiety         'C24 H17 F10 N3 O2'
_chemical_name_systematic        
'Benzyl N,N-bis(2-(pentafluoroanilino)ethyl)carbamate'
_symmetry_cell_setting           orthorhombic
_symmetry_space_group_name_H-M   'P b c a'
_symmetry_Int_Tables_number      61
_space_group_name_Hall           '-P 2ac 2ab'
loop_
_symmetry_equiv_pos_site_id
_symmetry_equiv_pos_as_xyz
1 x,y,z
2 1/2-x,-y,1/2+z
3 -x,1/2+y,1/2-z
4 1/2+x,1/2-y,-z
5 -x,-y,-z
6 1/2+x,y,1/2-z
7 x,1/2-y,1/2+z
8 1/2-x,1/2+y,z
_cell_length_a                   7.6382(7)
_cell_length_b                   14.9272(15)
_cell_length_c                   40.857(4)
_cell_angle_alpha                90
_cell_angle_beta                 90
_cell_angle_gamma                90
_cell_volume                     4658.39
_exptl_crystal_colour            colorless
_exptl_crystal_description       block
_cell_formula_units_Z            8
_exptl_crystal_recrystallization_method toluene
loop_
_atom_site_label
_atom_site_type_symbol
_atom_site_fract_x
_atom_site_fract_y
_atom_site_fract_z
N1 N -0.22240(19) 0.16839(10) 0.14863(4)
N2 N -0.4225(2) 0.06994(11) 0.20308(4)
N3 N -0.0730(2) 0.28221(11) 0.09205(4)
O1 O -0.32683(17) 0.02918(9) 0.13640(3)
O2 O -0.06745(16) 0.07645(8) 0.11586(3)
C1 C -0.2138(2) 0.08699(12) 0.13402(4)
C2 C -0.0422(3) -0.01483(13) 0.10390(5)
C3 C 0.1128(2) -0.01703(11) 0.08137(5)
C4 C 0.0908(3) -0.04241(12) 0.04890(5)
C5 C 0.2351(3) -0.05220(13) 0.02839(5)
C6 C 0.4013(3) -0.03634(13) 0.04027(5)
C7 C 0.4241(3) -0.00885(13) 0.07244(5)
C8 C 0.2811(3) 0.00029(12) 0.09300(5)
C9 C -0.3887(2) 0.19409(13) 0.16399(5)
C10 C -0.4053(3) 0.16794(13) 0.19981(5)
C11 C -0.3807(2) 0.02600(12) 0.23162(5)
C12 C -0.3146(3) -0.06146(13) 0.23106(5)
C13 C -0.2777(3) -0.10982(13) 0.25884(5)
C14 C -0.3033(3) -0.07221(14) 0.28932(5)
C15 C -0.3676(3) 0.01344(14) 0.29108(5)
C16 C -0.4070(3) 0.06099(12) 0.26309(5)
C17 C -0.0755(2) 0.23139(11) 0.15058(5)
C18 C -0.0895(3) 0.30861(12) 0.12617(5)
C19 C 0.0787(2) 0.25282(11) 0.07725(4)
C20 C 0.0692(2) 0.21446(12) 0.04612(4)
C21 C 0.2125(2) 0.18822(11) 0.02825(4)
C22 C 0.3783(2) 0.19818(12) 0.04110(4)
C23 C 0.3928(2) 0.23370(12) 0.07200(5)
C24 C 0.2484(2) 0.26037(11) 0.08975(4)
F1 F -0.28452(19) -0.09986(8) 0.20144(3)
F2 F -0.2119(2) -0.19330(8) 0.25656(3)
F3 F -0.2651(2) -0.11886(9) 0.31666(3)
F4 F -0.3941(2) 0.05121(9) 0.32056(3)
F5 F -0.47823(18) 0.14354(8) 0.26672(3)
F6 F -0.09213(14) 0.20300(8) 0.03285(3)
F7 F 0.19206(16) 0.15264(8) -0.00181(3)
F8 F 0.52101(14) 0.17269(8) 0.02426(3)
F9 F 0.55281(13) 0.24290(9) 0.08591(3)
F10 F 0.27832(13) 0.29414(7) 0.12014(2)
H1 H -0.396(3) 0.0424(15) 0.1852(6)
H2 H -0.166(3) 0.2639(15) 0.0824(6)
H3 H -0.029(3) -0.0537(14) 0.0414(5)
H4 H 0.216(3) -0.0712(15) 0.0075(6)
H5 H 0.495(3) -0.0441(15) 0.0263(6)
H6 H 0.538(3) 0.0026(14) 0.0802(5)
H7 H 0.301(3) 0.0165(14) 0.1155(6)
H8 H -0.151(3) -0.0349(15) 0.0926(5)
H9 H -0.017(3) -0.0534(14) 0.1239(5)
H10 H -0.398(2) 0.2601(13) 0.1628(5)
H11 H -0.482(3) 0.1711(13) 0.1514(5)
H12 H -0.510(3) 0.1978(13) 0.2086(5)
H13 H -0.297(3) 0.1902(13) 0.2127(5)
H14 H 0.031(3) 0.1985(12) 0.1472(5)
H15 H -0.070(2) 0.2555(13) 0.1736(5)
H16 H -0.205(3) 0.3387(13) 0.1280(5)
H17 H -0.002(3) 0.3544(14) 0.1317(5)
loop_
_geom_bond_atom_site_label_1
_geom_bond_atom_site_label_2
_geom_bond_site_symmetry_1
_geom_bond_site_symmetry_2
N1 C1 1_555 1_555
N2 C10 1_555 1_555
N3 C18 1_555 1_555
O1 C1 1_555 1_555
O2 C1 1_555 1_555
C2 O2 1_555 1_555
C3 C2 1_555 1_555
C4 C3 1_555 1_555
C5 C4 1_555 1_555
C6 C5 1_555 1_555
C7 C6 1_555 1_555
C8 C3 1_555 1_555
C9 N1 1_555 1_555
C10 C9 1_555 1_555
C11 N2 1_555 1_555
C12 C11 1_555 1_555
C13 C12 1_555 1_555
C14 C13 1_555 1_555
C15 C14 1_555 1_555
C16 C11 1_555 1_555
C17 N1 1_555 1_555
C18 C17 1_555 1_555
C19 N3 1_555 1_555
C20 C19 1_555 1_555
C21 C20 1_555 1_555
C22 C21 1_555 1_555
C23 C22 1_555 1_555
C24 C19 1_555 1_555
F1 C12 1_555 1_555
F2 C13 1_555 1_555
F3 C14 1_555 1_555
F4 C15 1_555 1_555
F5 C16 1_555 1_555
F6 C20 1_555 1_555
F7 C21 1_555 1_555
F8 C22 1_555 1_555
F9 C23 1_555 1_555
F10 C24 1_555 1_555
H1 N2 1_555 1_555
H2 N3 1_555 1_555
H3 C4 1_555 1_555
H4 C5 1_555 1_555
H5 C6 1_555 1_555
H6 C7 1_555 1_555
H7 C8 1_555 1_555
H8 C2 1_555 1_555
H9 C2 1_555 1_555
H10 C9 1_555 1_555
H11 C9 1_555 1_555
H12 C10 1_555 1_555
H13 C10 1_555 1_555
H14 C17 1_555 1_555
H15 C17 1_555 1_555
H16 C18 1_555 1_555
H17 C18 1_555 1_555
C7 C8 1_555 1_555
C15 C16 1_555 1_555
C23 C24 1_555 1_555

#END
