
#######################################################################
#
#                 Cambridge Crystallographic Data Centre
#                                CCDC 
#
#######################################################################
#
# If this CIF has been generated from an entry in the Cambridge 
# Structural Database, then it will include bibliographic, chemical, 
# crystal, experimental, refinement or atomic coordinate data resulting 
# from the CCDC's data processing and validation procedures.
#
#######################################################################

data_JISPEJ
_chemical_formula_moiety         'C44 H48 O12,4(C5 H5 N1)'
_chemical_name_systematic        
'25,26,27,28-tetraisopropoxypentacyclo[19.3.1.1^3,7^.1^9,13^.1^15,19^]octacosa-1(25),3(28),4,6,9(27),10,12,15(26),16,18,21,23-dodecaene-5,11,17,23-tetracarboxylic acid pyridine solvate'
_symmetry_cell_setting           tetragonal
_symmetry_space_group_name_H-M   'I 41/a'
_symmetry_Int_Tables_number      88
_space_group_name_Hall           '-I 4ad'
loop_
_symmetry_equiv_pos_site_id
_symmetry_equiv_pos_as_xyz
1 x,y,z
2 1/4-y,3/4+x,3/4+z
3 1/4+y,1/4-x,1/4+z
4 -x,1/2-y,z
5 1/2+x,1/2+y,1/2+z
6 3/4-y,1/4+x,1/4+z
7 3/4+y,3/4-x,3/4+z
8 1/2-x,-y,1/2+z
9 -x,-y,-z
10 3/4+y,1/4-x,1/4-z
11 3/4-y,3/4+x,3/4-z
12 x,1/2+y,-z
13 1/2-x,1/2-y,1/2-z
14 1/4+y,3/4-x,3/4-z
15 1/4-y,1/4+x,1/4-z
16 1/2+x,y,1/2-z
_cell_length_a                   18.745(7)
_cell_length_b                   18.745(7)
_cell_length_c                   16.688(6)
_cell_angle_alpha                90
_cell_angle_beta                 90
_cell_angle_gamma                90
_cell_volume                     5863.75
_exptl_crystal_description       plate
_cell_formula_units_Z            4
loop_
_atom_site_label
_atom_site_type_symbol
_atom_site_fract_x
_atom_site_fract_y
_atom_site_fract_z
C1 C 0.39767(8) 0.82146(8) 0.29398(9)
C2 C 0.43733(8) 0.87403(8) 0.25638(8)
H1 H 0.4688 0.9028 0.2872
C3 C 0.43198(8) 0.88550(8) 0.17451(8)
C4 C 0.38437(8) 0.84323(8) 0.13109(8)
C5 C 0.34861(8) 0.78577(8) 0.16635(8)
C6 C 0.35492(8) 0.77676(8) 0.24847(9)
H2 H 0.3295 0.7393 0.2740
C7 C 0.31080(8) 0.72987(8) 0.11674(9)
H3 H 0.2805 0.7535 0.0761
H4 H 0.2796 0.7008 0.1518
C8 C 0.39901(10) 0.81114(9) 0.38211(10)
C9 C 0.31121(10) 0.88984(10) 0.02503(10)
H5 H 0.2700 0.8629 0.0482
C10 C 0.30701(13) 0.96598(13) 0.05141(15)
H6 H 0.3132 0.9686 0.1097
H7 H 0.2604 0.9857 0.0368
H8 H 0.3447 0.9936 0.0251
C11 C 0.31028(14) 0.88216(15) -0.06507(13)
H9 H 0.3532 0.9041 -0.0877
H10 H 0.2679 0.9059 -0.0867
H11 H 0.3091 0.8314 -0.0793
O1 O 0.43743(9) 0.85928(8) 0.42101(7)
H12 H 0.4290(15) 0.8565(15) 0.4718(10)
O2 O 0.36579(8) 0.76461(7) 0.41613(7)
O3 O 0.37736(6) 0.85590(6) 0.05003(6)
C1I C 0.57146(8) 0.85233(8) -0.04398(9)
C2I C 0.62403(8) 0.81267(8) -0.00638(8)
H1I H 0.6528 0.7812 -0.0372
C3I C 0.63550(8) 0.81802(8) 0.07549(8)
C4I C 0.59323(8) 0.86563(8) 0.11891(8)
C5I C 0.53577(8) 0.90139(8) 0.08365(8)
C6I C 0.52676(8) 0.89508(8) 0.00153(9)
H2I H 0.4893 0.9205 -0.0240
C7I C 0.47987(8) 0.93920(8) 0.13326(9)
H3I H 0.5035 0.9695 0.1739
H4I H 0.4508 0.9704 0.0982
C8I C 0.56114(9) 0.85099(10) -0.13211(10)
C9I C 0.63984(10) 0.93879(10) 0.22497(10)
H5I H 0.6129 0.9800 0.2018
C10I C 0.71598(13) 0.94299(13) 0.19859(15)
H6I H 0.7186 0.9368 0.1403
H7I H 0.7357 0.9896 0.2132
H8I H 0.7436 0.9053 0.2249
C11I C 0.63216(15) 0.93972(14) 0.31507(13)
H9I H 0.6541 0.8968 0.3377
H10I H 0.6559 0.9821 0.3367
H11I H 0.5814 0.9409 0.3293
O1I O 0.60928(8) 0.81257(9) -0.17101(7)
H12I H 0.6065(15) 0.8210(15) -0.2218(10)
O2I O 0.51461(7) 0.88421(8) -0.16613(7)
O3I O 0.60590(6) 0.87264(6) 0.19997(6)
C1N C 0.42854(8) 0.64767(8) -0.04398(9)
C2N C 0.37597(8) 0.68733(8) -0.00638(8)
H1N H 0.3472 0.7188 -0.0372
C3N C 0.36450(8) 0.68198(8) 0.07549(8)
C4N C 0.40677(8) 0.63437(8) 0.11891(8)
C5N C 0.46423(8) 0.59861(8) 0.08365(8)
C6N C 0.47324(8) 0.60492(8) 0.00153(9)
H2N H 0.5107 0.5795 -0.0240
C7N C 0.52013(8) 0.56080(8) 0.13326(9)
H3N H 0.4965 0.5305 0.1739
H4N H 0.5492 0.5296 0.0982
C8N C 0.43886(9) 0.64901(10) -0.13211(10)
C9N C 0.36016(10) 0.56121(10) 0.22497(10)
H5N H 0.3871 0.5200 0.2018
C10N C 0.28402(13) 0.55701(13) 0.19859(15)
H6N H 0.2814 0.5632 0.1403
H7N H 0.2643 0.5104 0.2132
H8N H 0.2564 0.5947 0.2249
C11N C 0.36784(15) 0.56028(14) 0.31507(13)
H9N H 0.3459 0.6032 0.3377
H10N H 0.3441 0.5179 0.3367
H11N H 0.4186 0.5591 0.3293
O1N O 0.39072(8) 0.68743(9) -0.17101(7)
H12N H 0.3935(15) 0.6790(15) -0.2218(10)
O2N O 0.48539(7) 0.61579(8) -0.16613(7)
O3N O 0.39410(6) 0.62736(6) 0.19997(6)
C1C C 0.60233(8) 0.67854(8) 0.29398(9)
C2C C 0.56267(8) 0.62597(8) 0.25638(8)
H1C H 0.5312 0.5972 0.2872
C3C C 0.56802(8) 0.61450(8) 0.17451(8)
C4C C 0.61563(8) 0.65677(8) 0.13109(8)
C5C C 0.65139(8) 0.71423(8) 0.16635(8)
C6C C 0.64508(8) 0.72324(8) 0.24847(9)
H2C H 0.6705 0.7607 0.2740
C7C C 0.68920(8) 0.77013(8) 0.11674(9)
H3C H 0.7195 0.7465 0.0761
H4C H 0.7204 0.7992 0.1518
C8C C 0.60099(10) 0.68886(9) 0.38211(10)
C9C C 0.68879(10) 0.61016(10) 0.02503(10)
H5C H 0.7300 0.6371 0.0482
C10C C 0.69299(13) 0.53402(13) 0.05141(15)
H6C H 0.6868 0.5314 0.1097
H7C H 0.7396 0.5143 0.0368
H8C H 0.6553 0.5064 0.0251
C11C C 0.68972(14) 0.61784(15) -0.06507(13)
H9C H 0.6468 0.5959 -0.0877
H10C H 0.7321 0.5941 -0.0867
H11C H 0.6909 0.6686 -0.0793
O1C O 0.56257(9) 0.64072(8) 0.42101(7)
H12C H 0.5710(15) 0.6435(15) 0.4718(10)
O2C O 0.63421(8) 0.73539(7) 0.41613(7)
O3C O 0.62264(6) 0.64410(6) 0.05003(6)
C12 C 0.82025(13) 0.86330(13) 0.92651(13)
H13 H 0.7976 0.8668 0.9773
C13 C 0.77881(13) 0.85549(16) 0.86097(15)
H14 H 0.7283 0.8541 0.8660
C14 C 0.80966(14) 0.84965(15) 0.78823(14)
H15 H 0.7814 0.8427 0.7416
C15 C 0.88099(14) 0.85390(14) 0.78296(12)
H16 H 0.9043 0.8510 0.7325
C16 C 0.91922(12) 0.86256(13) 0.85227(13)
H17 H 0.9697 0.8661 0.8486
N1 N 0.88953(10) 0.86625(10) 0.92403(9)
loop_
_geom_bond_atom_site_label_1
_geom_bond_atom_site_label_2
_geom_bond_site_symmetry_1
_geom_bond_site_symmetry_2
C1 C2 1_555 1_555
C2 H1 1_555 1_555
C3 C2 1_555 1_555
C4 C3 1_555 1_555
C5 C4 1_555 1_555
C6 C1 1_555 1_555
H2 C6 1_555 1_555
C7 C5 1_555 1_555
H3 C7 1_555 1_555
H4 C7 1_555 1_555
C8 C1 1_555 1_555
C9 H5 1_555 1_555
C10 C9 1_555 1_555
H6 C10 1_555 1_555
H7 C10 1_555 1_555
H8 C10 1_555 1_555
C11 C9 1_555 1_555
H9 C11 1_555 1_555
H10 C11 1_555 1_555
H11 C11 1_555 1_555
O1 C8 1_555 1_555
H12 O1 1_555 1_555
O2 C8 1_555 1_555
O3 C4 1_555 1_555
C12 H13 1_555 1_555
C13 C12 1_555 1_555
H14 C13 1_555 1_555
C14 C13 1_555 1_555
H15 C14 1_555 1_555
C15 C14 1_555 1_555
H16 C15 1_555 1_555
C16 C15 1_555 1_555
H17 C16 1_555 1_555
N1 C12 1_555 1_555
C1I C2I 1_555 1_555
C2I H1I 1_555 1_555
C3I C2I 1_555 1_555
C4I C3I 1_555 1_555
C5I C4I 1_555 1_555
C6I C1I 1_555 1_555
H2I C6I 1_555 1_555
C7I C3 1_555 1_555
H3I C7I 1_555 1_555
H4I C7I 1_555 1_555
C8I C1I 1_555 1_555
C9I H5I 1_555 1_555
C10I C9I 1_555 1_555
H6I C10I 1_555 1_555
H7I C10I 1_555 1_555
H8I C10I 1_555 1_555
C11I C9I 1_555 1_555
H9I C11I 1_555 1_555
H10I C11I 1_555 1_555
H11I C11I 1_555 1_555
O1I C8I 1_555 1_555
H12I O1I 1_555 1_555
O2I C8I 1_555 1_555
O3I C4I 1_555 1_555
C1N C2N 1_555 1_555
C2N H1N 1_555 1_555
C3N C7 1_555 1_555
C4N C3N 1_555 1_555
C5N C4N 1_555 1_555
C6N C1N 1_555 1_555
H2N C6N 1_555 1_555
C7N C5N 1_555 1_555
H3N C7N 1_555 1_555
H4N C7N 1_555 1_555
C8N C1N 1_555 1_555
C9N H5N 1_555 1_555
C10N C9N 1_555 1_555
H6N C10N 1_555 1_555
H7N C10N 1_555 1_555
H8N C10N 1_555 1_555
C11N C9N 1_555 1_555
H9N C11N 1_555 1_555
H10N C11N 1_555 1_555
H11N C11N 1_555 1_555
O1N C8N 1_555 1_555
H12N O1N 1_555 1_555
O2N C8N 1_555 1_555
O3N C4N 1_555 1_555
C1C C2C 1_555 1_555
C2C H1C 1_555 1_555
C3C C7N 1_555 1_555
C4C C3C 1_555 1_555
C5C C4C 1_555 1_555
C6C C1C 1_555 1_555
H2C C6C 1_555 1_555
C7C C3I 1_555 1_555
H3C C7C 1_555 1_555
H4C C7C 1_555 1_555
C8C C1C 1_555 1_555
C9C H5C 1_555 1_555
C10C C9C 1_555 1_555
H6C C10C 1_555 1_555
H7C C10C 1_555 1_555
H8C C10C 1_555 1_555
C11C C9C 1_555 1_555
H9C C11C 1_555 1_555
H10C C11C 1_555 1_555
H11C C11C 1_555 1_555
O1C C8C 1_555 1_555
H12C O1C 1_555 1_555
O2C C8C 1_555 1_555
O3C C4C 1_555 1_555
C5 C6 1_555 1_555
C9 O3 1_555 1_555
C16 N1 1_555 1_555
C5I C6I 1_555 1_555
C5I C7I 1_555 1_555
C9I O3I 1_555 1_555
C2N C3N 1_555 1_555
C5N C6N 1_555 1_555
C9N O3N 1_555 1_555
C2C C3C 1_555 1_555
C5C C6C 1_555 1_555
C5C C7C 1_555 1_555
C9C O3C 1_555 1_555

#END
