
#######################################################################
#
#                 Cambridge Crystallographic Data Centre
#                                CCDC 
#
#######################################################################
#
# If this CIF has been generated from an entry in the Cambridge 
# Structural Database, then it will include bibliographic, chemical, 
# crystal, experimental, refinement or atomic coordinate data resulting 
# from the CCDC's data processing and validation procedures.
#
#######################################################################

data_JISVIQ
_chemical_formula_moiety         'C20 H38 N1 O2 Si1'
_chemical_name_systematic        
'4-(2-Tri-isopropylsilyl)ethynyl-4-hydroxy-2,2,6,6-tetramethylpiperidine-N-oxyl radical'
_symmetry_cell_setting           triclinic
_symmetry_space_group_name_H-M   'P -1'
_symmetry_Int_Tables_number      2
_space_group_name_Hall           '-P 1'
loop_
_symmetry_equiv_pos_site_id
_symmetry_equiv_pos_as_xyz
1 x,y,z
2 -x,-y,-z
_cell_length_a                   7.741(9)
_cell_length_b                   8.516(10)
_cell_length_c                   33.798(27)
_cell_angle_alpha                91.84(8)
_cell_angle_beta                 92.46(8)
_cell_angle_gamma                94.41(9)
_cell_volume                     2218
_exptl_crystal_colour            colorless
_exptl_crystal_description       prism
_cell_formula_units_Z            4
loop_
_atom_site_label
_atom_site_type_symbol
_atom_site_fract_x
_atom_site_fract_y
_atom_site_fract_z
Si1 Si -0.3491(2) -0.80238(14) 0.08364(4)
O1 O -0.2610(4) -0.3606(4) 0.18795(10)
H1 H -0.1866(4) -0.4237(4) 0.19505(10)
O2 O -0.9456(4) -0.4999(4) 0.21252(10)
N1 N -0.7846(4) -0.4740(4) 0.20537(10)
C1 C -0.6669(5) -0.5877(5) 0.22256(12)
C2 C -0.4793(5) -0.5233(5) 0.21987(13)
H2 H -0.4057(5) -0.6071(5) 0.22462(13)
H3 H -0.4551(5) -0.4460(5) 0.24109(13)
C3 C -0.4268(5) -0.4480(5) 0.18171(13)
C4 C -0.5503(5) -0.3230(5) 0.17261(14)
H4 H -0.5235(5) -0.2850(5) 0.14697(14)
H5 H -0.5271(5) -0.2363(5) 0.19144(14)
C5 C -0.7431(5) -0.3710(5) 0.17177(12)
C6 C -0.4132(5) -0.5612(5) 0.14868(14)
C7 C -0.3923(5) -0.6531(6) 0.12161(15)
C8 C -0.8377(6) -0.2213(5) 0.1776(2)
H6 H -0.8012(41) -0.1722(41) 0.2029(5)
H7 H -0.8040(39) -0.1523(36) 0.1569(7)
H8 H -0.9615(9) -0.2421(41) 0.1763(9)
C9 C -0.8108(7) -0.4567(7) 0.13332(15)
H9 H -0.7506(39) -0.5486(23) 0.1275(11)
H10 H -0.9320(13) -0.4868(38) 0.1356(13)
H11 H -0.7963(46) -0.3841(35) 0.1124(9)
C10 C -0.7063(8) -0.6028(6) 0.26595(14)
H12 H -0.6811(37) -0.5034(19) 0.2800(9)
H13 H -0.8278(11) -0.6342(32) 0.2668(11)
H14 H -0.6404(34) -0.6809(25) 0.2780(10)
C11 C -0.7071(6) -0.7493(5) 0.20096(15)
H15 H -0.6336(6) -0.8246(5) 0.21173(15)
H16 H -0.8263(6) -0.7851(5) 0.20399(15)
H17 H -0.6867(6) -0.7381(5) 0.17334(15)
C12 C -0.1683(7) -0.7207(6) 0.0538(2)
H18 H -0.0622(7) -0.7389(6) 0.0681(2)
C13 C -0.1608(10) -0.8099(10) 0.0135(2)
H19 H -0.0606(30) -0.7699(46) 0.0001(12)
H20 H -0.1612(52) -0.9223(14) 0.0148(17)
H21 H -0.2639(29) -0.7834(53) -0.0008(13)
C14 C -0.1612(11) -0.5432(7) 0.0484(2)
H22 H -0.0668(41) -0.4983(51) 0.0338(11)
H23 H -0.2663(29) -0.5480(63) 0.0321(10)
H24 H -0.1738(49) -0.4789(42) 0.0718(7)
C15 C -0.2821(8) -0.9738(6) 0.1133(2)
H25 H -0.3788(8) -1.0053(6) 0.1289(2)
C16 C -0.2476(16) -1.1186(9) 0.0877(3)
H26 H -0.2182(62) -1.2037(48) 0.1040(15)
H27 H -0.3454(40) -1.1529(62) 0.0703(12)
H28 H -0.1506(38) -1.0863(65) 0.0723(12)
C17 C -0.1348(11) -0.9276(9) 0.1430(2)
H29 H -0.1224(71) -1.0170(36) 0.1592(12)
H30 H -0.0301(51) -0.9051(63) 0.1293(18)
H31 H -0.1566(84) -0.8379(36) 0.1594(12)
C18 C -0.5555(6) -0.8599(6) 0.05435(15)
H32 H -0.5292(6) -0.9353(6) 0.03419(15)
C19 C -0.6242(12) -0.7197(11) 0.0329(3)
H33 H -0.7324(33) -0.7641(60) 0.0209(15)
H34 H -0.6443(63) -0.6291(44) 0.0492(14)
H35 H -0.5468(60) -0.6888(66) 0.0126(12)
C20 C -0.6945(9) -0.9370(11) 0.0786(2)
H36 H -0.7967(44) -0.9627(51) 0.0618(14)
H37 H -0.6510(58) -1.0322(30) 0.0880(12)
H38 H -0.7229(68) -0.8719(49) 0.1008(9)
Si2 Si 0.2799(2) 0.18645(14) 0.41900(4)
O3 O 0.2765(4) -0.0691(4) 0.28185(9)
H39 H 0.3518(4) -0.1189(4) 0.29423(9)
O4 O -0.4090(4) -0.2172(4) 0.30644(11)
N2 N -0.2471(4) -0.1810(4) 0.30223(10)
C21 C -0.1244(5) -0.2770(5) 0.32397(13)
C22 C 0.0581(5) -0.2464(5) 0.30941(13)
H40 H 0.0637(5) -0.3031(5) 0.28455(13)
H41 H 0.1374(5) -0.2898(5) 0.32792(13)
C23 C 0.1224(5) -0.0753(5) 0.30356(12)
C24 C -0.0115(5) -0.0063(5) 0.27646(12)
H42 H -0.0047(5) -0.0537(5) 0.25047(12)
H43 H 0.0226(5) 0.1040(5) 0.27474(12)
C25 C -0.2000(5) -0.0200(4) 0.28763(12)
C26 C 0.1614(5) 0.0148(5) 0.34108(14)
C27 C 0.2026(6) 0.0864(5) 0.3718(2)
C28 C -0.3117(6) 0.0014(6) 0.25022(14)
H44 H -0.2919(42) -0.0815(25) 0.2314(8)
H45 H -0.4335(13) 0.0004(34) 0.2546(11)
H46 H -0.2719(38) 0.1011(17) 0.2401(9)
C29 C -0.2401(7) 0.1018(6) 0.3198(2)
H47 H -0.1712(36) 0.0944(47) 0.3439(6)
H48 H -0.2171(45) 0.2042(25) 0.3093(12)
H49 H -0.3608(12) 0.0860(46) 0.3253(10)
C30 C -0.1843(8) -0.4513(5) 0.3145(2)
H50 H -0.3003(16) -0.4737(44) 0.3228(9)
H51 H -0.1811(41) -0.4725(45) 0.2865(2)
H52 H -0.1075(32) -0.5165(36) 0.3283(8)
C31 C -0.1359(7) -0.2441(6) 0.36830(14)
H53 H -0.1015(33) -0.1358(11) 0.3753(10)
H54 H -0.2533(14) -0.2686(30) 0.3755(10)
H55 H -0.0607(29) -0.3106(27) 0.3821(9)
C32 C 0.4280(6) 0.3612(6) 0.40687(14)
H56 H 0.5238(6) 0.3204(6) 0.39388(14)
C33 C 0.5070(8) 0.4557(7) 0.4430(2)
H57 H 0.6029(29) 0.5292(34) 0.4377(12)
H58 H 0.4167(38) 0.5114(38) 0.4543(11)
H59 H 0.5450(41) 0.3802(34) 0.4613(9)
C34 C 0.3484(10) 0.4719(8) 0.3777(2)
H60 H 0.4377(54) 0.5498(52) 0.3710(14)
H61 H 0.2934(59) 0.4237(57) 0.3538(8)
H62 H 0.2639(49) 0.5211(64) 0.3928(15)
C35 C 0.3985(7) 0.0392(6) 0.4469(2)
H63 H 0.4417(7) 0.0897(6) 0.4715(2)
C36 C 0.2804(11) -0.1046(7) 0.4564(3)
H64 H 0.3509(55) -0.1759(46) 0.4698(12)
H65 H 0.1860(47) -0.0809(71) 0.4725(11)
H66 H 0.2353(63) -0.1526(54) 0.4316(8)
C37 C 0.5565(11) -0.0113(11) 0.4258(2)
H67 H 0.6032(58) -0.0921(35) 0.4413(12)
H68 H 0.5196(65) -0.0542(46) 0.3999(6)
H69 H 0.6439(48) 0.0736(39) 0.4234(13)
C38 C 0.0842(7) 0.2381(6) 0.4466(2)
H70 H 0.0136(7) 0.1405(6) 0.4472(2)
C39 C -0.0283(11) 0.3482(10) 0.4251(3)
H71 H -0.1242(91) 0.3337(96) 0.4420(24)
H72 H 0.0296(85) 0.4511(41) 0.4302(22)
H73 H -0.070(13) 0.338(10) 0.3979(9)
C40 C 0.1260(10) 0.2860(11) 0.4901(2)
H74 H 0.0215(37) 0.3021(53) 0.5035(14)
H75 H 0.1929(48) 0.2152(46) 0.5047(14)
H76 H 0.1926(48) 0.3851(27) 0.4882(16)
loop_
_geom_bond_atom_site_label_1
_geom_bond_atom_site_label_2
_geom_bond_site_symmetry_1
_geom_bond_site_symmetry_2
Si1 C7 1_555 1_555
O1 H1 1_555 1_555
O2 N1 1_555 1_555
N1 C1 1_555 1_555
C1 C2 1_555 1_555
C2 H2 1_555 1_555
H3 C2 1_555 1_555
C3 O1 1_555 1_555
C4 C3 1_555 1_555
H4 C4 1_555 1_555
H5 C4 1_555 1_555
C5 N1 1_555 1_555
C6 C3 1_555 1_555
C7 C6 1_555 1_555
C8 C5 1_555 1_555
H6 C8 1_555 1_555
H7 C8 1_555 1_555
H8 C8 1_555 1_555
C9 C5 1_555 1_555
H9 C9 1_555 1_555
H10 C9 1_555 1_555
H11 C9 1_555 1_555
C10 C1 1_555 1_555
H12 C10 1_555 1_555
H13 C10 1_555 1_555
H14 C10 1_555 1_555
C11 C1 1_555 1_555
H15 C11 1_555 1_555
H16 C11 1_555 1_555
H17 C11 1_555 1_555
C12 Si1 1_555 1_555
H18 C12 1_555 1_555
C13 C12 1_555 1_555
H19 C13 1_555 1_555
H20 C13 1_555 1_555
H21 C13 1_555 1_555
C14 C12 1_555 1_555
H22 C14 1_555 1_555
H23 C14 1_555 1_555
H24 C14 1_555 1_555
C15 Si1 1_555 1_555
H25 C15 1_555 1_555
C16 C15 1_555 1_555
H26 C16 1_555 1_555
H27 C16 1_555 1_555
H28 C16 1_555 1_555
C17 C15 1_555 1_555
H29 C17 1_555 1_555
H30 C17 1_555 1_555
H31 C17 1_555 1_555
C18 Si1 1_555 1_555
H32 C18 1_555 1_555
C19 C18 1_555 1_555
H33 C19 1_555 1_555
H34 C19 1_555 1_555
H35 C19 1_555 1_555
C20 C18 1_555 1_555
H36 C20 1_555 1_555
H37 C20 1_555 1_555
H38 C20 1_555 1_555
Si2 C27 1_555 1_555
O3 H39 1_555 1_555
O4 N2 1_555 1_555
N2 C21 1_555 1_555
C21 C22 1_555 1_555
C22 H40 1_555 1_555
H41 C22 1_555 1_555
C23 O3 1_555 1_555
C24 C23 1_555 1_555
H42 C24 1_555 1_555
H43 C24 1_555 1_555
C25 N2 1_555 1_555
C26 C23 1_555 1_555
C27 C26 1_555 1_555
C28 C25 1_555 1_555
H44 C28 1_555 1_555
H45 C28 1_555 1_555
H46 C28 1_555 1_555
C29 C25 1_555 1_555
H47 C29 1_555 1_555
H48 C29 1_555 1_555
H49 C29 1_555 1_555
C30 C21 1_555 1_555
H50 C30 1_555 1_555
H51 C30 1_555 1_555
H52 C30 1_555 1_555
C31 C21 1_555 1_555
H53 C31 1_555 1_555
H54 C31 1_555 1_555
H55 C31 1_555 1_555
C32 Si2 1_555 1_555
H56 C32 1_555 1_555
C33 C32 1_555 1_555
H57 C33 1_555 1_555
H58 C33 1_555 1_555
H59 C33 1_555 1_555
C34 C32 1_555 1_555
H60 C34 1_555 1_555
H61 C34 1_555 1_555
H62 C34 1_555 1_555
C35 Si2 1_555 1_555
H63 C35 1_555 1_555
C36 C35 1_555 1_555
H64 C36 1_555 1_555
H65 C36 1_555 1_555
H66 C36 1_555 1_555
C37 C35 1_555 1_555
H67 C37 1_555 1_555
H68 C37 1_555 1_555
H69 C37 1_555 1_555
C38 Si2 1_555 1_555
H70 C38 1_555 1_555
C39 C38 1_555 1_555
H71 C39 1_555 1_555
H72 C39 1_555 1_555
H73 C39 1_555 1_555
C40 C38 1_555 1_555
H74 C40 1_555 1_555
H75 C40 1_555 1_555
H76 C40 1_555 1_555
C2 C3 1_555 1_555
C4 C5 1_555 1_555
C22 C23 1_555 1_555
C24 C25 1_555 1_555

#END
