
#######################################################################
#
#                 Cambridge Crystallographic Data Centre
#                                CCDC 
#
#######################################################################
#
# If this CIF has been generated from an entry in the Cambridge 
# Structural Database, then it will include bibliographic, chemical, 
# crystal, experimental, refinement or atomic coordinate data resulting 
# from the CCDC's data processing and validation procedures.
#
#######################################################################

data_JISXER
_chemical_name_common            
'25,26,27,28-tetrapropoxypentacyclo[19.3.1.1$3,7!.1$9,13!.1$15,19!]octacosa-1(25),3(28),4,6,9(27),10,12,15(26),16,18,21,23-dodecaene-5,11,17,23-tetracarboxylic acid'
_chemical_formula_moiety         'C44 H48 O12'
_chemical_name_systematic        
5,11,17,23-tetracarboxy-25,26,27,28-tetrapropoxycalix[4]arene
_symmetry_cell_setting           tetragonal
_symmetry_space_group_name_H-M   'P -4'
_symmetry_Int_Tables_number      81
_space_group_name_Hall           'P -4'
loop_
_symmetry_equiv_pos_site_id
_symmetry_equiv_pos_as_xyz
1 x,y,z
2 y,-x,-z
3 -y,x,-z
4 -x,-y,z
_cell_length_a                   17.9565(16)
_cell_length_b                   17.9565(16)
_cell_length_c                   12.1543(11)
_cell_angle_alpha                90
_cell_angle_beta                 90
_cell_angle_gamma                90
_cell_volume                     3918.98
_exptl_crystal_colour            colorless
_exptl_crystal_description       block
_cell_formula_units_Z            4
loop_
_atom_site_label
_atom_site_type_symbol
_atom_site_fract_x
_atom_site_fract_y
_atom_site_fract_z
C1 C 0.0316(2) 0.1528(2) 0.9335(3)
C2 C 0.0249(2) 0.1379(2) 0.8211(3)
H1 H -0.0152 0.1589 0.7807
C3 C 0.0760(2) 0.0932(2) 0.7683(3)
C4 C 0.1336(2) 0.0606(2) 0.8261(4)
H2 H 0.1680 0.0294 0.7887
C5 C 0.1418(2) 0.0728(2) 0.9374(4)
C6 C 0.0930(2) 0.1225(2) 0.9881(3)
C7 C 0.0662(2) 0.0774(3) 0.6475(3)
C8 C -0.0274(2) 0.1977(2) 0.9960(3)
H3 H -0.0034 0.2343 1.0454
H4 H -0.0599 0.2248 0.9438
C9 C 0.1491(3) 0.2009(2) 1.1201(3)
H5 H 0.1363 0.2417 1.0687
H6 H 0.2018 0.1869 1.1079
C10 C 0.1386(3) 0.2260(2) 1.2352(4)
H7 H 0.0857 0.2402 1.2453
H8 H 0.1690 0.2712 1.2471
C11 C 0.1588(4) 0.1692(3) 1.3225(4)
H9 H 0.1241 0.1271 1.3188
H10 H 0.1558 0.1924 1.3954
H11 H 0.2097 0.1514 1.3098
O1 O 0.11767(19) 0.03580(19) 0.6041(3)
O2 O 0.0130(2) 0.1024(2) 0.5974(3)
H12 H 0.001(3) 0.103(3) 0.524(2)
O3 O 0.10121(16) 0.13703(14) 1.1001(2)
C1A C 0.1528(2) -0.0316(2) 1.0665(3)
C2A C 0.1379(2) -0.0249(2) 1.1789(3)
H1A H 0.1589 0.0152 1.2193
C3A C 0.0932(2) -0.0760(2) 1.2317(3)
C4A C 0.0606(2) -0.1336(2) 1.1739(4)
H2A H 0.0294 -0.1680 1.2113
C5A C 0.0728(2) -0.1418(2) 1.0626(4)
C6A C 0.1225(2) -0.0930(2) 1.0119(3)
C7A C 0.0774(3) -0.0662(2) 1.3525(3)
C8A C 0.1977(2) 0.0274(2) 1.0040(3)
H3A H 0.2343 0.0034 0.9546
H4A H 0.2248 0.0599 1.0562
C9A C 0.2009(2) -0.1491(3) 0.8799(3)
H5A H 0.2417 -0.1363 0.9313
H6A H 0.1869 -0.2018 0.8921
C10A C 0.2260(2) -0.1386(3) 0.7648(4)
H7A H 0.2402 -0.0857 0.7547
H8A H 0.2712 -0.1690 0.7529
C11A C 0.1692(3) -0.1588(4) 0.6775(4)
H9A H 0.1271 -0.1241 0.6812
H10A H 0.1924 -0.1558 0.6046
H11A H 0.1514 -0.2097 0.6902
O1A O 0.03580(19) -0.11767(19) 1.3959(3)
O2A O 0.1024(2) -0.0130(2) 1.4026(3)
H12A H 0.103(3) -0.001(3) 1.476(2)
O3A O 0.13703(14) -0.10121(16) 0.8999(2)
C1B C -0.1528(2) 0.0316(2) 1.0665(3)
C2B C -0.1379(2) 0.0249(2) 1.1789(3)
H1B H -0.1589 -0.0152 1.2193
C3B C -0.0932(2) 0.0760(2) 1.2317(3)
C4B C -0.0606(2) 0.1336(2) 1.1739(4)
H2B H -0.0294 0.1680 1.2113
C5B C -0.0728(2) 0.1418(2) 1.0626(4)
C6B C -0.1225(2) 0.0930(2) 1.0119(3)
C7B C -0.0774(3) 0.0662(2) 1.3525(3)
C8B C -0.1977(2) -0.0274(2) 1.0040(3)
H3B H -0.2343 -0.0034 0.9546
H4B H -0.2248 -0.0599 1.0562
C9B C -0.2009(2) 0.1491(3) 0.8799(3)
H5B H -0.2417 0.1363 0.9313
H6B H -0.1869 0.2018 0.8921
C10B C -0.2260(2) 0.1386(3) 0.7648(4)
H7B H -0.2402 0.0857 0.7547
H8B H -0.2712 0.1690 0.7529
C11B C -0.1692(3) 0.1588(4) 0.6775(4)
H9B H -0.1271 0.1241 0.6812
H10B H -0.1924 0.1558 0.6046
H11B H -0.1514 0.2097 0.6902
O1B O -0.03580(19) 0.11767(19) 1.3959(3)
O2B O -0.1024(2) 0.0130(2) 1.4026(3)
H12B H -0.103(3) 0.001(3) 1.476(2)
O3B O -0.13703(14) 0.10121(16) 0.8999(2)
C1C C -0.0316(2) -0.1528(2) 0.9335(3)
C2C C -0.0249(2) -0.1379(2) 0.8211(3)
H1C H 0.0152 -0.1589 0.7807
C3C C -0.0760(2) -0.0932(2) 0.7683(3)
C4C C -0.1336(2) -0.0606(2) 0.8261(4)
H2C H -0.1680 -0.0294 0.7887
C5C C -0.1418(2) -0.0728(2) 0.9374(4)
C6C C -0.0930(2) -0.1225(2) 0.9881(3)
C7C C -0.0662(2) -0.0774(3) 0.6475(3)
C8C C 0.0274(2) -0.1977(2) 0.9960(3)
H3C H 0.0034 -0.2343 1.0454
H4C H 0.0599 -0.2248 0.9438
C9C C -0.1491(3) -0.2009(2) 1.1201(3)
H5C H -0.1363 -0.2417 1.0687
H6C H -0.2018 -0.1869 1.1079
C10C C -0.1386(3) -0.2260(2) 1.2352(4)
H7C H -0.0857 -0.2402 1.2453
H8C H -0.1690 -0.2712 1.2471
C11C C -0.1588(4) -0.1692(3) 1.3225(4)
H9C H -0.1241 -0.1271 1.3188
H10C H -0.1558 -0.1924 1.3954
H11C H -0.2097 -0.1514 1.3098
O1C O -0.11767(19) -0.03580(19) 0.6041(3)
O2C O -0.0130(2) -0.1024(2) 0.5974(3)
H12C H -0.001(3) -0.103(3) 0.524(2)
O3C O -0.10121(16) -0.13703(14) 1.1001(2)
C12 C 0.8571(2) 0.5670(2) 0.4789(3)
C13 C 0.8671(2) 0.5535(3) 0.3674(3)
H13 H 0.8354 0.5192 0.3307
C14 C 0.9231(2) 0.5899(2) 0.3088(3)
C15 C 0.9705(3) 0.6387(2) 0.3627(3)
H14 H 1.0092 0.6623 0.3224
C16 C 0.9629(2) 0.6538(2) 0.4725(3)
C17 C 0.9035(2) 0.6190(2) 0.5289(3)
C18 C 0.8035(2) 0.5197(2) 0.5459(3)
H15 H 0.7665 0.4961 0.4967
H16 H 0.7765 0.5515 0.5992
C19 C 0.8474(2) 0.4600(2) 0.6070(3)
C20 C 0.8812(2) 0.4009(2) 0.5515(3)
C21 C 0.9317(2) 0.3530(2) 0.6016(4)
C22 C 0.9451(2) 0.3632(2) 0.7155(3)
H17 H 0.9786 0.3310 0.7528
C23 C 0.9099(2) 0.4194(2) 0.7727(3)
C24 C 0.8629(2) 0.4683(2) 0.7196(3)
H18 H 0.8407 0.5080 0.7596
C25 C 0.9785(2) 0.3014(2) 0.5349(3)
H19 H 0.9468 0.2738 0.4821
H20 H 1.0032 0.2647 0.5836
C26 C 0.9342(3) 0.5759(3) 0.1910(3)
C27 C 0.8454(3) 0.6989(3) 0.6582(3)
H21 H 0.7941 0.6876 0.6333
H22 H 0.8640 0.7420 0.6156
C28 C 0.8452(3) 0.7168(3) 0.7768(4)
H23 H 0.8969 0.7286 0.7991
H24 H 0.8152 0.7625 0.7876
C29 C 0.8170(4) 0.6601(4) 0.8502(4)
H25 H 0.7649 0.6496 0.8322
H26 H 0.8204 0.6778 0.9264
H27 H 0.8466 0.6146 0.8419
C30 C 0.9244(2) 0.4314(3) 0.8909(3)
C31 C 0.8044(2) 0.3429(3) 0.4187(3)
H28 H 0.7631 0.3533 0.4703
H29 H 0.8202 0.2905 0.4287
C32 C 0.7790(3) 0.3551(3) 0.3025(3)
H30 H 0.7347 0.3236 0.2893
H31 H 0.7633 0.4077 0.2949
C33 C 0.8343(4) 0.3390(4) 0.2160(3)
H32 H 0.8764 0.3733 0.2231
H33 H 0.8111 0.3453 0.1435
H34 H 0.8519 0.2876 0.2238
O4 O 0.8842(2) 0.5310(2) 0.1461(2)
H35 H 0.886(3) 0.516(3) 0.080(2)
O5 O 0.9848(2) 0.6033(2) 0.1387(2)
O6 O 0.89321(14) 0.63459(15) 0.6397(2)
O7 O 0.9710(2) 0.3832(2) 0.9338(2)
H36 H 0.981(3) 0.400(3) 0.994(2)
O8 O 0.8979(2) 0.48265(19) 0.9428(3)
O9 O 0.86606(15) 0.39237(15) 0.44067(19)
C12C C 1.1429(2) 0.4330(2) 0.4789(3)
C13C C 1.1329(2) 0.4465(3) 0.3674(3)
H13C H 1.1646 0.4808 0.3307
C14C C 1.0769(2) 0.4101(2) 0.3088(3)
C15C C 1.0295(3) 0.3613(2) 0.3627(3)
H14C H 0.9908 0.3377 0.3224
C16C C 1.0371(2) 0.3462(2) 0.4725(3)
C17C C 1.0965(2) 0.3810(2) 0.5289(3)
C18C C 1.1965(2) 0.4803(2) 0.5459(3)
H15C H 1.2335 0.5039 0.4967
H16C H 1.2235 0.4485 0.5992
C19C C 1.1526(2) 0.5400(2) 0.6070(3)
C20C C 1.1188(2) 0.5991(2) 0.5515(3)
C21C C 1.0683(2) 0.6470(2) 0.6016(4)
C22C C 1.0549(2) 0.6368(2) 0.7155(3)
H17C H 1.0214 0.6690 0.7528
C23C C 1.0901(2) 0.5806(2) 0.7727(3)
C24C C 1.1371(2) 0.5317(2) 0.7196(3)
H18C H 1.1593 0.4920 0.7596
C25C C 1.0215(2) 0.6986(2) 0.5349(3)
H19C H 1.0532 0.7262 0.4821
H20C H 0.9968 0.7353 0.5836
C26C C 1.0658(3) 0.4241(3) 0.1910(3)
C27C C 1.1546(3) 0.3011(3) 0.6582(3)
H21C H 1.2059 0.3124 0.6333
H22C H 1.1360 0.2580 0.6156
C28C C 1.1548(3) 0.2832(3) 0.7768(4)
H23C H 1.1031 0.2714 0.7991
H24C H 1.1848 0.2375 0.7876
C29C C 1.1830(4) 0.3399(4) 0.8502(4)
H25C H 1.2351 0.3504 0.8322
H26C H 1.1796 0.3222 0.9264
H27C H 1.1534 0.3854 0.8419
C30C C 1.0756(2) 0.5686(3) 0.8909(3)
C31C C 1.1956(2) 0.6571(3) 0.4187(3)
H28C H 1.2369 0.6467 0.4703
H29C H 1.1798 0.7095 0.4287
C32C C 1.2210(3) 0.6449(3) 0.3025(3)
H30C H 1.2653 0.6764 0.2893
H31C H 1.2367 0.5923 0.2949
C33C C 1.1657(4) 0.6610(4) 0.2160(3)
H32C H 1.1236 0.6267 0.2231
H33C H 1.1889 0.6547 0.1435
H34C H 1.1481 0.7124 0.2238
O4C O 1.1158(2) 0.4690(2) 0.1461(2)
H35C H 1.114(3) 0.484(3) 0.080(2)
O5C O 1.0152(2) 0.3967(2) 0.1387(2)
O6C O 1.10679(14) 0.36541(15) 0.6397(2)
O7C O 1.0290(2) 0.6168(2) 0.9338(2)
H36C H 1.019(3) 0.600(3) 0.994(2)
O8C O 1.1021(2) 0.51735(19) 0.9428(3)
O9C O 1.13394(15) 0.60763(15) 0.44067(19)
C34 C 0.3495(2) 0.5473(2) 0.0668(3)
C35 C 0.3632(2) 0.5378(2) 0.1775(3)
H37 H 0.3377 0.4999 0.2169
C36 C 0.4139(2) 0.5830(2) 0.2319(3)
C37 C 0.4538(2) 0.6372(2) 0.1737(3)
H38 H 0.4897 0.6670 0.2107
C38 C 0.4412(2) 0.6475(2) 0.0623(3)
C39 C 0.3864(2) 0.6041(2) 0.0114(3)
C40 C 0.3010(2) 0.4918(2) 0.0045(3)
H39 H 0.2664 0.5186 -0.0451
H40 H 0.2712 0.4619 0.0569
C41 C 0.4292(2) 0.5709(2) 0.3494(3)
C42 C 0.3095(2) 0.6637(3) -0.1199(3)
H41 H 0.3232 0.7156 -0.1013
H42 H 0.2671 0.6489 -0.0729
C43 C 0.2875(3) 0.6591(3) -0.2382(3)
H43 H 0.2437 0.6916 -0.2503
H44 H 0.2722 0.6074 -0.2548
C44 C 0.3484(3) 0.6816(3) -0.3178(3)
H45 H 0.3722 0.7275 -0.2919
H46 H 0.3267 0.6901 -0.3908
H47 H 0.3856 0.6418 -0.3223
O10 O 0.48082(19) 0.6114(2) 0.3925(2)
H48 H 0.491(3) 0.609(3) 0.4615(19)
O11 O 0.3921(2) 0.52516(17) 0.4030(2)
O12 O 0.37182(13) 0.61529(14) -0.09983(17)
C34A C 0.5473(2) 0.6505(2) -0.0668(3)
C35A C 0.5378(2) 0.6368(2) -0.1775(3)
H37A H 0.4999 0.6623 -0.2169
C36A C 0.5830(2) 0.5861(2) -0.2319(3)
C37A C 0.6372(2) 0.5462(2) -0.1737(3)
H38A H 0.6670 0.5103 -0.2107
C38A C 0.6475(2) 0.5588(2) -0.0623(3)
C39A C 0.6041(2) 0.6136(2) -0.0114(3)
C40A C 0.4918(2) 0.6990(2) -0.0045(3)
H39A H 0.5186 0.7336 0.0451
H40A H 0.4619 0.7288 -0.0569
C41A C 0.5709(2) 0.5708(2) -0.3494(3)
C42A C 0.6637(3) 0.6905(2) 0.1199(3)
H41A H 0.7156 0.6768 0.1013
H42A H 0.6489 0.7329 0.0729
C43A C 0.6591(3) 0.7125(3) 0.2382(3)
H43A H 0.6916 0.7563 0.2503
H44A H 0.6074 0.7278 0.2548
C44A C 0.6816(3) 0.6516(3) 0.3178(3)
H45A H 0.7275 0.6278 0.2919
H46A H 0.6901 0.6733 0.3908
H47A H 0.6418 0.6144 0.3223
O10A O 0.6114(2) 0.51918(19) -0.3925(2)
H48A H 0.609(3) 0.509(3) -0.4615(19)
O11A O 0.52516(17) 0.6079(2) -0.4030(2)
O12A O 0.61529(14) 0.62818(13) 0.09983(17)
C34B C 0.4527(2) 0.3495(2) -0.0668(3)
C35B C 0.4622(2) 0.3632(2) -0.1775(3)
H37B H 0.5001 0.3377 -0.2169
C36B C 0.4170(2) 0.4139(2) -0.2319(3)
C37B C 0.3628(2) 0.4538(2) -0.1737(3)
H38B H 0.3330 0.4897 -0.2107
C38B C 0.3525(2) 0.4412(2) -0.0623(3)
C39B C 0.3959(2) 0.3864(2) -0.0114(3)
C40B C 0.5082(2) 0.3010(2) -0.0045(3)
H39B H 0.4814 0.2664 0.0451
H40B H 0.5381 0.2712 -0.0569
C41B C 0.4291(2) 0.4292(2) -0.3494(3)
C42B C 0.3363(3) 0.3095(2) 0.1199(3)
H41B H 0.2844 0.3232 0.1013
H42B H 0.3511 0.2671 0.0729
C43B C 0.3409(3) 0.2875(3) 0.2382(3)
H43B H 0.3084 0.2437 0.2503
H44B H 0.3926 0.2722 0.2548
C44B C 0.3184(3) 0.3484(3) 0.3178(3)
H45B H 0.2725 0.3722 0.2919
H46B H 0.3099 0.3267 0.3908
H47B H 0.3582 0.3856 0.3223
O10B O 0.3886(2) 0.48082(19) -0.3925(2)
H48B H 0.391(3) 0.491(3) -0.4615(19)
O11B O 0.47484(17) 0.3921(2) -0.4030(2)
O12B O 0.38471(14) 0.37182(13) 0.09983(17)
C34C C 0.6505(2) 0.4527(2) 0.0668(3)
C35C C 0.6368(2) 0.4622(2) 0.1775(3)
H37C H 0.6623 0.5001 0.2169
C36C C 0.5861(2) 0.4170(2) 0.2319(3)
C37C C 0.5462(2) 0.3628(2) 0.1737(3)
H38C H 0.5103 0.3330 0.2107
C38C C 0.5588(2) 0.3525(2) 0.0623(3)
C39C C 0.6136(2) 0.3959(2) 0.0114(3)
C40C C 0.6990(2) 0.5082(2) 0.0045(3)
H39C H 0.7336 0.4814 -0.0451
H40C H 0.7288 0.5381 0.0569
C41C C 0.5708(2) 0.4291(2) 0.3494(3)
C42C C 0.6905(2) 0.3363(3) -0.1199(3)
H41C H 0.6768 0.2844 -0.1013
H42C H 0.7329 0.3511 -0.0729
C43C C 0.7125(3) 0.3409(3) -0.2382(3)
H43C H 0.7563 0.3084 -0.2503
H44C H 0.7278 0.3926 -0.2548
C44C C 0.6516(3) 0.3184(3) -0.3178(3)
H45C H 0.6278 0.2725 -0.2919
H46C H 0.6733 0.3099 -0.3908
H47C H 0.6144 0.3582 -0.3223
O10C O 0.51918(19) 0.3886(2) 0.3925(2)
H48C H 0.509(3) 0.391(3) 0.4615(19)
O11C O 0.6079(2) 0.47484(17) 0.4030(2)
O12C O 0.62818(13) 0.38471(14) -0.09983(17)
loop_
_geom_bond_atom_site_label_1
_geom_bond_atom_site_label_2
_geom_bond_site_symmetry_1
_geom_bond_site_symmetry_2
C1 C2 1_555 1_555
C2 H1 1_555 1_555
C3 C2 1_555 1_555
C4 C3 1_555 1_555
H2 C4 1_555 1_555
C5 C4 1_555 1_555
C6 C1 1_555 1_555
C7 C3 1_555 1_555
C8 C1 1_555 1_555
H3 C8 1_555 1_555
H4 C8 1_555 1_555
C9 H5 1_555 1_555
H6 C9 1_555 1_555
C10 C9 1_555 1_555
H7 C10 1_555 1_555
H8 C10 1_555 1_555
C11 C10 1_555 1_555
H9 C11 1_555 1_555
H10 C11 1_555 1_555
H11 C11 1_555 1_555
O1 C7 1_555 1_555
O2 C7 1_555 1_555
H12 O2 1_555 1_555
O3 C6 1_555 1_555
C12 C13 1_555 1_555
C13 H13 1_555 1_555
C14 C13 1_555 1_555
C15 C14 1_555 1_555
H14 C15 1_555 1_555
C16 C15 1_555 1_555
C17 C12 1_555 1_555
C18 C12 1_555 1_555
H15 C18 1_555 1_555
H16 C18 1_555 1_555
C19 C18 1_555 1_555
C20 C19 1_555 1_555
C21 C20 1_555 1_555
C22 C21 1_555 1_555
H17 C22 1_555 1_555
C23 C22 1_555 1_555
C24 C19 1_555 1_555
H18 C24 1_555 1_555
C25 C21 1_555 1_555
H19 C25 1_555 1_555
H20 C25 1_555 1_555
C26 C14 1_555 1_555
C27 H21 1_555 1_555
H22 C27 1_555 1_555
C28 C27 1_555 1_555
H23 C28 1_555 1_555
H24 C28 1_555 1_555
C29 C28 1_555 1_555
H25 C29 1_555 1_555
H26 C29 1_555 1_555
H27 C29 1_555 1_555
C30 C23 1_555 1_555
C31 H28 1_555 1_555
H29 C31 1_555 1_555
C32 C31 1_555 1_555
H30 C32 1_555 1_555
H31 C32 1_555 1_555
C33 C32 1_555 1_555
H32 C33 1_555 1_555
H33 C33 1_555 1_555
H34 C33 1_555 1_555
O4 C26 1_555 1_555
H35 O4 1_555 1_555
O5 C26 1_555 1_555
O6 C17 1_555 1_555
O7 C30 1_555 1_555
H36 O7 1_555 1_555
O8 C30 1_555 1_555
O9 C20 1_555 1_555
C34 C35 1_555 1_555
C35 H37 1_555 1_555
C36 C35 1_555 1_555
C37 C36 1_555 1_555
H38 C37 1_555 1_555
C38 C37 1_555 1_555
C39 C34 1_555 1_555
C40 C34 1_555 1_555
H39 C40 1_555 1_555
H40 C40 1_555 1_555
C41 C36 1_555 1_555
C42 H41 1_555 1_555
H42 C42 1_555 1_555
C43 C42 1_555 1_555
H43 C43 1_555 1_555
H44 C43 1_555 1_555
C44 C43 1_555 1_555
H45 C44 1_555 1_555
H46 C44 1_555 1_555
H47 C44 1_555 1_555
O10 C41 1_555 1_555
H48 O10 1_555 1_555
O11 C41 1_555 1_555
O12 C39 1_555 1_555
C1A C2A 1_555 1_555
C2A H1A 1_555 1_555
C3A C2A 1_555 1_555
C4A C3A 1_555 1_555
H2A C4A 1_555 1_555
C5A C4A 1_555 1_555
C6A C1A 1_555 1_555
C7A C3A 1_555 1_555
C8A C5 1_555 1_555
H3A C8A 1_555 1_555
H4A C8A 1_555 1_555
C9A H5A 1_555 1_555
H6A C9A 1_555 1_555
C10A C9A 1_555 1_555
H7A C10A 1_555 1_555
H8A C10A 1_555 1_555
C11A C10A 1_555 1_555
H9A C11A 1_555 1_555
H10A C11A 1_555 1_555
H11A C11A 1_555 1_555
O1A C7A 1_555 1_555
O2A C7A 1_555 1_555
H12A O2A 1_555 1_555
O3A C6A 1_555 1_555
C1B C2B 1_555 1_555
C2B H1B 1_555 1_555
C3B C2B 1_555 1_555
C4B C3B 1_555 1_555
H2B C4B 1_555 1_555
C5B C8 1_555 1_555
C6B C1B 1_555 1_555
C7B C3B 1_555 1_555
C8B C1B 1_555 1_555
H3B C8B 1_555 1_555
H4B C8B 1_555 1_555
C9B H5B 1_555 1_555
H6B C9B 1_555 1_555
C10B C9B 1_555 1_555
H7B C10B 1_555 1_555
H8B C10B 1_555 1_555
C11B C10B 1_555 1_555
H9B C11B 1_555 1_555
H10B C11B 1_555 1_555
H11B C11B 1_555 1_555
O1B C7B 1_555 1_555
O2B C7B 1_555 1_555
H12B O2B 1_555 1_555
O3B C6B 1_555 1_555
C1C C2C 1_555 1_555
C2C H1C 1_555 1_555
C3C C2C 1_555 1_555
C4C C3C 1_555 1_555
H2C C4C 1_555 1_555
C5C C8B 1_555 1_555
C6C C1C 1_555 1_555
C7C C3C 1_555 1_555
C8C C5A 1_555 1_555
H3C C8C 1_555 1_555
H4C C8C 1_555 1_555
C9C H5C 1_555 1_555
H6C C9C 1_555 1_555
C10C C9C 1_555 1_555
H7C C10C 1_555 1_555
H8C C10C 1_555 1_555
C11C C10C 1_555 1_555
H9C C11C 1_555 1_555
H10C C11C 1_555 1_555
H11C C11C 1_555 1_555
O1C C7C 1_555 1_555
O2C C7C 1_555 1_555
H12C O2C 1_555 1_555
O3C C6C 1_555 1_555
C12C C13C 1_555 1_555
C13C H13C 1_555 1_555
C14C C13C 1_555 1_555
C15C C14C 1_555 1_555
H14C C15C 1_555 1_555
C16C C25 1_555 1_555
C17C C12C 1_555 1_555
C18C C12C 1_555 1_555
H15C C18C 1_555 1_555
H16C C18C 1_555 1_555
C19C C18C 1_555 1_555
C20C C19C 1_555 1_555
C21C C20C 1_555 1_555
C22C C21C 1_555 1_555
H17C C22C 1_555 1_555
C23C C22C 1_555 1_555
C24C C19C 1_555 1_555
H18C C24C 1_555 1_555
C25C C16 1_555 1_555
H19C C25C 1_555 1_555
H20C C25C 1_555 1_555
C26C C14C 1_555 1_555
C27C H21C 1_555 1_555
H22C C27C 1_555 1_555
C28C C27C 1_555 1_555
H23C C28C 1_555 1_555
H24C C28C 1_555 1_555
C29C C28C 1_555 1_555
H25C C29C 1_555 1_555
H26C C29C 1_555 1_555
H27C C29C 1_555 1_555
C30C C23C 1_555 1_555
C31C H28C 1_555 1_555
H29C C31C 1_555 1_555
C32C C31C 1_555 1_555
H30C C32C 1_555 1_555
H31C C32C 1_555 1_555
C33C C32C 1_555 1_555
H32C C33C 1_555 1_555
H33C C33C 1_555 1_555
H34C C33C 1_555 1_555
O4C C26C 1_555 1_555
H35C O4C 1_555 1_555
O5C C26C 1_555 1_555
O6C C17C 1_555 1_555
O7C C30C 1_555 1_555
H36C O7C 1_555 1_555
O8C C30C 1_555 1_555
O9C C20C 1_555 1_555
C34A C35A 1_555 1_555
C35A H37A 1_555 1_555
C36A C35A 1_555 1_555
C37A C36A 1_555 1_555
H38A C37A 1_555 1_555
C38A C37A 1_555 1_555
C39A C34A 1_555 1_555
C40A C38 1_555 1_555
H39A C40A 1_555 1_555
H40A C40A 1_555 1_555
C41A C36A 1_555 1_555
C42A H41A 1_555 1_555
H42A C42A 1_555 1_555
C43A C42A 1_555 1_555
H43A C43A 1_555 1_555
H44A C43A 1_555 1_555
C44A C43A 1_555 1_555
H45A C44A 1_555 1_555
H46A C44A 1_555 1_555
H47A C44A 1_555 1_555
O10A C41A 1_555 1_555
H48A O10A 1_555 1_555
O11A C41A 1_555 1_555
O12A C39A 1_555 1_555
C34B C35B 1_555 1_555
C35B H37B 1_555 1_555
C36B C35B 1_555 1_555
C37B C36B 1_555 1_555
H38B C37B 1_555 1_555
C38B C40 1_555 1_555
C39B C34B 1_555 1_555
C40B C34B 1_555 1_555
H39B C40B 1_555 1_555
H40B C40B 1_555 1_555
C41B C36B 1_555 1_555
C42B H41B 1_555 1_555
H42B C42B 1_555 1_555
C43B C42B 1_555 1_555
H43B C43B 1_555 1_555
H44B C43B 1_555 1_555
C44B C43B 1_555 1_555
H45B C44B 1_555 1_555
H46B C44B 1_555 1_555
H47B C44B 1_555 1_555
O10B C41B 1_555 1_555
H48B O10B 1_555 1_555
O11B C41B 1_555 1_555
O12B C39B 1_555 1_555
C34C C35C 1_555 1_555
C35C H37C 1_555 1_555
C36C C35C 1_555 1_555
C37C C36C 1_555 1_555
H38C C37C 1_555 1_555
C38C C40B 1_555 1_555
C39C C34C 1_555 1_555
C40C C38A 1_555 1_555
H39C C40C 1_555 1_555
H40C C40C 1_555 1_555
C41C C36C 1_555 1_555
C42C H41C 1_555 1_555
H42C C42C 1_555 1_555
C43C C42C 1_555 1_555
H43C C43C 1_555 1_555
H44C C43C 1_555 1_555
C44C C43C 1_555 1_555
H45C C44C 1_555 1_555
H46C C44C 1_555 1_555
H47C C44C 1_555 1_555
O10C C41C 1_555 1_555
H48C O10C 1_555 1_555
O11C C41C 1_555 1_555
O12C C39C 1_555 1_555
C5 C6 1_555 1_555
C9 O3 1_555 1_555
C16 C17 1_555 1_555
C23 C24 1_555 1_555
C27 O6 1_555 1_555
C31 O9 1_555 1_555
C38 C39 1_555 1_555
C42 O12 1_555 1_555
C1A C8A 1_555 1_555
C5A C6A 1_555 1_555
C9A O3A 1_555 1_555
C4B C5B 1_555 1_555
C5B C6B 1_555 1_555
C9B O3B 1_555 1_555
C1C C8C 1_555 1_555
C4C C5C 1_555 1_555
C5C C6C 1_555 1_555
C9C O3C 1_555 1_555
C15C C16C 1_555 1_555
C16C C17C 1_555 1_555
C21C C25C 1_555 1_555
C23C C24C 1_555 1_555
C27C O6C 1_555 1_555
C31C O9C 1_555 1_555
C34A C40A 1_555 1_555
C38A C39A 1_555 1_555
C42A O12A 1_555 1_555
C37B C38B 1_555 1_555
C38B C39B 1_555 1_555
C42B O12B 1_555 1_555
C34C C40C 1_555 1_555
C37C C38C 1_555 1_555
C38C C39C 1_555 1_555
C42C O12C 1_555 1_555

#END
