
#######################################################################
#
#                 Cambridge Crystallographic Data Centre
#                                CCDC 
#
#######################################################################
#
# If this CIF has been generated from an entry in the Cambridge 
# Structural Database, then it will include bibliographic, chemical, 
# crystal, experimental, refinement or atomic coordinate data resulting 
# from the CCDC's data processing and validation procedures.
#
#######################################################################

data_JITLII
_chemical_formula_moiety         'C44 H62 S4'
_chemical_name_systematic        
4,8-Didodecyl-2,6-bis(3-methylthien-2-yl)benzo(1,2-b:4,5-b')dithiophene
_symmetry_cell_setting           monoclinic
_symmetry_space_group_name_H-M   'P 21/n'
_symmetry_Int_Tables_number      14
_space_group_name_Hall           '-P 2yn'
loop_
_symmetry_equiv_pos_site_id
_symmetry_equiv_pos_as_xyz
1 x,y,z
2 1/2-x,1/2+y,1/2-z
3 -x,-y,-z
4 1/2+x,1/2-y,1/2+z
_cell_length_a                   21.4107(10)
_cell_length_b                   5.1387(2)
_cell_length_c                   21.4345(9)
_cell_angle_alpha                90
_cell_angle_beta                 117.992(2)
_cell_angle_gamma                90
_cell_volume                     2082.4
_exptl_crystal_colour            yellow
_exptl_crystal_description       blade
_cell_formula_units_Z            2
_exptl_crystal_recrystallization_method 2-propanol
loop_
_atom_site_label
_atom_site_type_symbol
_atom_site_fract_x
_atom_site_fract_y
_atom_site_fract_z
S1 S 0.75652(11) 1.1708(4) 0.81844(10)
S2 S 0.91673(11) 0.9288(4) 1.02893(10)
C2 C 0.7043(5) 1.4056(16) 0.8225(5)
H3 H 0.7103 1.5626 0.8007
C3 C 0.7206(4) 1.4579(14) 0.8922(5)
H5 H 0.6789 1.4286 0.8982
C4 C 0.7770(5) 1.2984(16) 0.9409(5)
C5 C 0.8068(3) 1.3242(12) 1.0216(3)
H7 H 0.8440 1.1997 1.0450
H8 H 0.7697 1.2921 1.0339
H9 H 0.8251 1.4967 1.0361
C6 C 0.8021(4) 1.1335(14) 0.9105(4)
C7 C 0.8611(3) 0.9485(11) 0.9416(4)
C8 C 0.8718(2) 0.7701(7) 0.8907(2)
H10 H 0.8807 0.8676 0.8569
C9 C 0.9405(3) 0.6151(11) 0.9458(3)
C10 C 0.9664(3) 0.6893(10) 1.0184(3)
C11 C 0.9748(3) 0.4238(10) 0.9267(3)
C12 C 0.9500(3) 0.3472(11) 0.8516(3)
H12 H 0.8987 0.3438 0.8277
H13 H 0.9662 0.1716 0.8508
C13 C 0.9743(3) 0.5220(12) 0.8098(3)
H14 H 0.9588 0.6987 0.8105
H15 H 1.0256 0.5225 0.8324
C14 C 0.9457(4) 0.4336(12) 0.7338(3)
H16 H 0.8948 0.4130 0.7137
H17 H 0.9653 0.2637 0.7338
C15 C 0.9606(4) 0.6131(13) 0.6854(3)
H18 H 0.9448 0.7877 0.6880
H19 H 1.0112 0.6198 0.7019
C16 C 0.9244(4) 0.5241(13) 0.6101(3)
H20 H 0.8742 0.5082 0.5949
H21 H 0.9420 0.3525 0.6076
C17 C 0.9346(4) 0.7036(14) 0.5588(3)
H22 H 0.9173 0.8758 0.5612
H23 H 0.9848 0.7180 0.5733
C18 C 0.8968(4) 0.6087(14) 0.4831(3)
H24 H 0.9160 0.4403 0.4807
H25 H 0.8472 0.5839 0.4700
C19 C 0.9018(5) 0.7869(16) 0.4295(4)
H26 H 0.9513 0.8117 0.4424
H27 H 0.8824 0.9554 0.4316
C20 C 0.8634(5) 0.6879(17) 0.3540(4)
H28 H 0.8812 0.5155 0.3526
H29 H 0.8136 0.6706 0.3406
C21 C 0.8700(5) 0.8517(17) 0.3007(4)
H30 H 0.9199 0.8757 0.3151
H31 H 0.8502 1.0217 0.3004
C22 C 0.8332(6) 0.741(2) 0.2241(4)
H32 H 0.8525 0.5701 0.2243
H33 H 0.7832 0.7207 0.2092
C23 C 0.8414(7) 0.901(3) 0.1738(5)
H34 H 0.8163 0.8238 0.1277
H35 H 0.8907 0.9140 0.1866
H36 H 0.8228 1.0708 0.1733
S1B S 1.24348(11) -0.1708(4) 1.18156(10)
S2B S 1.08327(11) 0.0712(4) 0.97107(10)
C2B C 1.2957(5) -0.4056(16) 1.1775(5)
H3B H 1.2897 -0.5626 1.1993
C3B C 1.2794(4) -0.4579(14) 1.1078(5)
H5B H 1.3211 -0.4286 1.1018
C4B C 1.2230(5) -0.2984(16) 1.0591(5)
C5B C 1.1932(3) -0.3242(12) 0.9784(3)
H7B H 1.1560 -0.1997 0.9550
H8B H 1.2303 -0.2921 0.9661
H9B H 1.1749 -0.4967 0.9639
C6B C 1.1979(4) -0.1335(14) 1.0895(4)
C7B C 1.1389(3) 0.0515(11) 1.0584(4)
C8B C 1.1282(2) 0.2299(7) 1.1093(2)
H10B H 1.1193 0.1324 1.1431
C9B C 1.0595(3) 0.3849(11) 1.0542(3)
C10B C 1.0336(3) 0.3107(10) 0.9816(3)
C11B C 1.0252(3) 0.5762(10) 1.0733(3)
C12B C 1.0500(3) 0.6528(11) 1.1484(3)
H12B H 1.1013 0.6562 1.1723
H13B H 1.0338 0.8284 1.1492
C13B C 1.0257(3) 0.4780(12) 1.1902(3)
H14B H 1.0412 0.3013 1.1895
H15B H 0.9744 0.4775 1.1676
C14B C 1.0543(4) 0.5664(12) 1.2662(3)
H16B H 1.1052 0.5870 1.2863
H17B H 1.0347 0.7363 1.2662
C15B C 1.0394(4) 0.3869(13) 1.3146(3)
H18B H 1.0552 0.2123 1.3120
H19B H 0.9888 0.3802 1.2981
C16B C 1.0756(4) 0.4759(13) 1.3899(3)
H20B H 1.1258 0.4918 1.4051
H21B H 1.0580 0.6475 1.3924
C17B C 1.0654(4) 0.2964(14) 1.4412(3)
H22B H 1.0827 0.1242 1.4388
H23B H 1.0152 0.2820 1.4267
C18B C 1.1032(4) 0.3913(14) 1.5169(3)
H24B H 1.0840 0.5597 1.5193
H25B H 1.1528 0.4161 1.5300
C19B C 1.0982(5) 0.2131(16) 1.5705(4)
H26B H 1.0487 0.1883 1.5576
H27B H 1.1176 0.0446 1.5684
C20B C 1.1366(5) 0.3121(17) 1.6460(4)
H28B H 1.1188 0.4845 1.6474
H29B H 1.1864 0.3294 1.6594
C21B C 1.1300(5) 0.1483(17) 1.6993(4)
H30B H 1.0801 0.1243 1.6849
H31B H 1.1498 -0.0217 1.6996
C22B C 1.1668(6) 0.259(2) 1.7759(4)
H32B H 1.1475 0.4299 1.7757
H33B H 1.2168 0.2793 1.7908
C23B C 1.1586(7) 0.099(3) 1.8262(5)
H34B H 1.1837 0.1762 1.8723
H35B H 1.1093 0.0860 1.8134
H36B H 1.1772 -0.0708 1.8267
C1? C 0.91673(11) 0.9288(4) 1.02893(10)
H1? H 0.8936 0.8728 1.0562
H2? H 0.9431 1.0880 1.0484
H4? H 0.6553 1.3519 0.7963
H6? H 0.7338 1.6395 0.9025
H11? H 0.8317 0.6550 0.8656
S3? S 0.8718(2) 0.7701(7) 0.8907(2)
loop_
_geom_bond_atom_site_label_1
_geom_bond_atom_site_label_2
_geom_bond_site_symmetry_1
_geom_bond_site_symmetry_2
S1 C2 1_555 1_555
S2 C7 1_555 1_555
C2 H3 1_555 1_555
C3 C2 1_555 1_555
H5 C3 1_555 1_555
C4 C3 1_555 1_555
C5 C4 1_555 1_555
H7 C5 1_555 1_555
H8 C5 1_555 1_555
H9 C5 1_555 1_555
C6 S1 1_555 1_555
C7 C6 1_555 1_555
C8 C7 1_555 1_555
H10 C8 1_555 1_555
C9 C8 1_555 1_555
C10 S2 1_555 1_555
C11 C9 1_555 1_555
C12 C11 1_555 1_555
H12 C12 1_555 1_555
H13 C12 1_555 1_555
C13 C12 1_555 1_555
H14 C13 1_555 1_555
H15 C13 1_555 1_555
C14 C13 1_555 1_555
H16 C14 1_555 1_555
H17 C14 1_555 1_555
C15 C14 1_555 1_555
H18 C15 1_555 1_555
H19 C15 1_555 1_555
C16 C15 1_555 1_555
H20 C16 1_555 1_555
H21 C16 1_555 1_555
C17 C16 1_555 1_555
H22 C17 1_555 1_555
H23 C17 1_555 1_555
C18 C17 1_555 1_555
H24 C18 1_555 1_555
H25 C18 1_555 1_555
C19 C18 1_555 1_555
H26 C19 1_555 1_555
H27 C19 1_555 1_555
C20 C19 1_555 1_555
H28 C20 1_555 1_555
H29 C20 1_555 1_555
C21 C20 1_555 1_555
H30 C21 1_555 1_555
H31 C21 1_555 1_555
C22 C21 1_555 1_555
H32 C22 1_555 1_555
H33 C22 1_555 1_555
C23 C22 1_555 1_555
H34 C23 1_555 1_555
H35 C23 1_555 1_555
H36 C23 1_555 1_555
S1B C2B 1_555 1_555
S2B C7B 1_555 1_555
C2B H3B 1_555 1_555
C3B C2B 1_555 1_555
H5B C3B 1_555 1_555
C4B C3B 1_555 1_555
C5B C4B 1_555 1_555
H7B C5B 1_555 1_555
H8B C5B 1_555 1_555
H9B C5B 1_555 1_555
C6B S1B 1_555 1_555
C7B C6B 1_555 1_555
C8B C7B 1_555 1_555
H10B C8B 1_555 1_555
C9B C8B 1_555 1_555
C10B C11 1_555 1_555
C11B C10 1_555 1_555
C12B C11B 1_555 1_555
H12B C12B 1_555 1_555
H13B C12B 1_555 1_555
C13B C12B 1_555 1_555
H14B C13B 1_555 1_555
H15B C13B 1_555 1_555
C14B C13B 1_555 1_555
H16B C14B 1_555 1_555
H17B C14B 1_555 1_555
C15B C14B 1_555 1_555
H18B C15B 1_555 1_555
H19B C15B 1_555 1_555
C16B C15B 1_555 1_555
H20B C16B 1_555 1_555
H21B C16B 1_555 1_555
C17B C16B 1_555 1_555
H22B C17B 1_555 1_555
H23B C17B 1_555 1_555
C18B C17B 1_555 1_555
H24B C18B 1_555 1_555
H25B C18B 1_555 1_555
C19B C18B 1_555 1_555
H26B C19B 1_555 1_555
H27B C19B 1_555 1_555
C20B C19B 1_555 1_555
H28B C20B 1_555 1_555
H29B C20B 1_555 1_555
C21B C20B 1_555 1_555
H30B C21B 1_555 1_555
H31B C21B 1_555 1_555
C22B C21B 1_555 1_555
H32B C22B 1_555 1_555
H33B C22B 1_555 1_555
C23B C22B 1_555 1_555
H34B C23B 1_555 1_555
H35B C23B 1_555 1_555
H36B C23B 1_555 1_555
C4 C6 1_555 1_555
C9 C10 1_555 1_555
S2B C10B 1_555 1_555
C4B C6B 1_555 1_555
C9B C10B 1_555 1_555
C9B C11B 1_555 1_555

#END
