
#######################################################################
#
#                 Cambridge Crystallographic Data Centre
#                                CCDC 
#
#######################################################################
#
# If this CIF has been generated from an entry in the Cambridge 
# Structural Database, then it will include bibliographic, chemical, 
# crystal, experimental, refinement or atomic coordinate data resulting 
# from the CCDC's data processing and validation procedures.
#
#######################################################################

data_JIVDOI
_chemical_formula_moiety         'C65 H5 N1 O6,4(C1 D1 Cl3),H2 O1'
_chemical_name_systematic        
'epoxy-phenylimino-(open-cage)-C59fullerene-pentaone monohydrate clathrate deuterochloroform solvate'
_symmetry_cell_setting           triclinic
_symmetry_space_group_name_H-M   'P -1'
_symmetry_Int_Tables_number      2
_space_group_name_Hall           '-P 1'
loop_
_symmetry_equiv_pos_site_id
_symmetry_equiv_pos_as_xyz
1 x,y,z
2 -x,-y,-z
_cell_length_a                   12.7939(3)
_cell_length_b                   14.6804(3)
_cell_length_c                   14.8585(4)
_cell_angle_alpha                80.4622(9)
_cell_angle_beta                 89.7112(10)
_cell_angle_gamma                69.6389(9)
_cell_volume                     2576
_exptl_crystal_colour            'deep red'
_exptl_crystal_description       plate
_cell_formula_units_Z            2
_exptl_crystal_recrystallization_method deuterochloroform
loop_
_atom_site_label
_atom_site_type_symbol
_atom_site_fract_x
_atom_site_fract_y
_atom_site_fract_z
N1 N -0.0753(4) 0.6812(3) 0.6456(3)
O1 O 0.1109(3) 0.5743(2) 0.6843(2)
O2 O 0.2809(3) 0.4543(3) 0.6804(2)
O3 O 0.3178(3) 0.6243(2) 0.5815(2)
O4 O 0.1887(3) 0.8352(3) 0.5741(3)
O5 O -0.0523(3) 0.8653(3) 0.5221(2)
O6 O -0.1033(3) 0.7169(3) 0.4380(2)
C1 C 0.0163(5) 0.6250(4) 0.6233(3)
C2 C 0.1950(5) 0.5152(4) 0.6394(4)
C3 C 0.1572(4) 0.5345(3) 0.5401(3)
C4 C 0.0452(4) 0.5983(4) 0.5342(3)
C5 C -0.0123(4) 0.6334(3) 0.4489(3)
C6 C 0.0334(4) 0.5885(3) 0.3736(3)
C7 C 0.1420(4) 0.5204(3) 0.3854(3)
C8 C 0.2113(4) 0.5065(3) 0.4647(3)
C9 C 0.3267(4) 0.4983(3) 0.4280(3)
C10 C 0.3891(4) 0.5530(3) 0.4454(3)
C11 C 0.3632(4) 0.6286(3) 0.5091(3)
C12 C 0.3880(4) 0.7146(3) 0.4596(3)
C13 C 0.3233(4) 0.8141(3) 0.4535(3)
C14 C 0.2128(5) 0.8584(3) 0.4981(4)
C15 C 0.1371(4) 0.9318(3) 0.4229(3)
C16 C 0.0273(4) 0.9470(3) 0.3981(3)
C17 C -0.0453(4) 0.8913(3) 0.4424(3)
C18 C -0.0983(4) 0.8686(3) 0.3614(3)
C19 C -0.1025(4) 0.7779(4) 0.3555(3)
C20 C -0.0833(4) 0.7408(3) 0.2727(3)
C21 C -0.0118(4) 0.6366(3) 0.2804(3)
C22 C 0.0509(4) 0.6063(3) 0.2068(3)
C23 C 0.1625(4) 0.5338(3) 0.2220(3)
C24 C 0.2076(4) 0.4945(3) 0.3090(3)
C25 C 0.3216(4) 0.4807(3) 0.3348(3)
C26 C 0.3851(4) 0.5086(3) 0.2676(3)
C27 C 0.4545(4) 0.5618(3) 0.2875(3)
C28 C 0.4512(4) 0.5864(3) 0.3742(3)
C29 C 0.4523(4) 0.6835(3) 0.3837(3)
C30 C 0.4550(4) 0.7501(4) 0.3066(3)
C31 C 0.3871(4) 0.8523(4) 0.3003(4)
C32 C 0.3200(4) 0.8812(3) 0.3721(3)
C33 C 0.2075(4) 0.9531(3) 0.3519(3)
C34 C 0.1689(4) 0.9911(3) 0.2629(4)
C35 C 0.0559(4) 1.0044(3) 0.2377(4)
C36 C -0.0093(4) 0.9796(3) 0.3044(3)
C37 C -0.0829(4) 0.9286(3) 0.2817(3)
C38 C -0.0843(4) 0.9046(3) 0.1975(3)
C39 C -0.0830(4) 0.8057(3) 0.1920(3)
C40 C -0.0168(4) 0.7728(4) 0.1183(3)
C41 C 0.0474(4) 0.6740(4) 0.1246(3)
C42 C 0.1593(4) 0.6467(4) 0.0903(3)
C43 C 0.2302(4) 0.5601(3) 0.1510(3)
C44 C 0.3393(4) 0.5480(3) 0.1732(3)
C45 C 0.3840(4) 0.6234(4) 0.1363(3)
C46 C 0.4556(4) 0.6311(4) 0.2078(3)
C47 C 0.4561(4) 0.7243(4) 0.2172(3)
C48 C 0.3871(4) 0.8119(4) 0.1543(3)
C49 C 0.3463(4) 0.8908(4) 0.2066(4)
C50 C 0.2366(5) 0.9602(3) 0.1869(4)
C51 C 0.1664(4) 0.9505(4) 0.1157(3)
C52 C 0.0549(4) 0.9790(3) 0.1472(3)
C53 C -0.0146(4) 0.9292(3) 0.1276(3)
C54 C 0.0262(4) 0.8488(4) 0.0775(3)
C55 C 0.1341(5) 0.8224(4) 0.0469(3)
C56 C 0.2016(4) 0.7182(4) 0.0532(3)
C57 C 0.3167(4) 0.7076(4) 0.0776(3)
C58 C 0.3189(4) 0.8031(4) 0.0862(3)
C59 C 0.2062(5) 0.8747(4) 0.0673(3)
C60 C -0.0856(4) 0.7067(3) 0.7352(3)
C61 C -0.1829(5) 0.7083(4) 0.7783(4)
H3 H -0.2373 0.6903 0.7496
C62 C -0.1998(5) 0.7364(4) 0.8635(4)
H4 H -0.2639 0.7328 0.8943
C63 C -0.1310(6) 0.7675(4) 0.9028(4)
H5 H -0.1480 0.7918 0.9585
C64 C -0.0226(6) 0.7643(4) 0.8577(4)
H6 H 0.0327 0.7807 0.8869
C65 C -0.0090(5) 0.7379(4) 0.7775(4)
H7 H 0.0554 0.7399 0.7463
O7 O 0.1850(4) 0.7416(3) 0.2888(3)
H1 H 0.162(6) 0.738(4) 0.351(2)
H2 H 0.182(6) 0.807(2) 0.271(4)
C66 C 0.3296(5) 0.7305(4) 0.7604(4)
D1 D 0.2848 0.7211 0.7101
Cl1 Cl 0.24384(14) 0.82840(11) 0.80998(12)
Cl2 Cl 0.37067(16) 0.62305(11) 0.84270(12)
Cl3 Cl 0.44375(15) 0.75624(13) 0.71322(13)
C67 C -0.3156(5) 0.8615(4) 0.5451(4)
D2 D -0.2332 0.8288 0.5588
Cl4 Cl -0.34043(12) 0.96761(11) 0.46241(10)
Cl5 Cl -0.37869(13) 0.89569(12) 0.64544(11)
Cl6 Cl -0.36735(15) 0.77805(14) 0.50589(17)
C68 C 0.2677(5) 0.4176(4) 0.9016(4)
D3 D 0.2853 0.4526 0.8432
Cl7 Cl 0.27128(15) 0.30077(11) 0.88519(11)
Cl8 Cl 0.13363(17) 0.48718(13) 0.93001(13)
Cl9 Cl 0.36812(15) 0.40518(13) 0.98646(10)
C69 C -0.3878(13) 1.0180(11) 1.1359(12)
D4 D -0.3406 1.0547 1.1538
Cl10 Cl -0.32514(14) 0.96395(13) 1.04971(11)
Cl11 Cl -0.5170(2) 1.10219(19) 1.1129(2)
Cl12 Cl -0.38365(15) 0.92758(18) 1.23480(11)
C70? C -0.4301(8) 0.9781(8) 1.1229(7)
D5? D -0.4771 0.9417 1.1042
loop_
_geom_bond_atom_site_label_1
_geom_bond_atom_site_label_2
_geom_bond_site_symmetry_1
_geom_bond_site_symmetry_2
N1 C1 1_555 1_555
O1 C1 1_555 1_555
O2 C2 1_555 1_555
O3 C11 1_555 1_555
O4 C14 1_555 1_555
O5 C17 1_555 1_555
O6 C5 1_555 1_555
O7 H1 1_555 1_555
H2 O7 1_555 1_555
C1 C4 1_555 1_555
C2 O1 1_555 1_555
C3 C2 1_555 1_555
C4 C3 1_555 1_555
C5 C4 1_555 1_555
C6 C5 1_555 1_555
C7 C6 1_555 1_555
C8 C3 1_555 1_555
C9 C8 1_555 1_555
C10 C9 1_555 1_555
C11 C10 1_555 1_555
C12 C11 1_555 1_555
C13 C12 1_555 1_555
C14 C13 1_555 1_555
C15 C14 1_555 1_555
C16 C15 1_555 1_555
C17 C16 1_555 1_555
C18 C17 1_555 1_555
C19 O6 1_555 1_555
C20 C19 1_555 1_555
C21 C6 1_555 1_555
C22 C21 1_555 1_555
C23 C22 1_555 1_555
C24 C7 1_555 1_555
C25 C9 1_555 1_555
C26 C25 1_555 1_555
C27 C26 1_555 1_555
C28 C10 1_555 1_555
C29 C12 1_555 1_555
C30 C29 1_555 1_555
C31 C30 1_555 1_555
C32 C13 1_555 1_555
C33 C15 1_555 1_555
C34 C33 1_555 1_555
C35 C34 1_555 1_555
C36 C16 1_555 1_555
C37 C18 1_555 1_555
C38 C37 1_555 1_555
C39 C20 1_555 1_555
C40 C39 1_555 1_555
C41 C22 1_555 1_555
C42 C41 1_555 1_555
C43 C23 1_555 1_555
C44 C26 1_555 1_555
C45 C44 1_555 1_555
C46 C27 1_555 1_555
C47 C30 1_555 1_555
C48 C47 1_555 1_555
C49 C31 1_555 1_555
C50 C34 1_555 1_555
C51 C50 1_555 1_555
C52 C35 1_555 1_555
C53 C38 1_555 1_555
C54 C40 1_555 1_555
C55 C54 1_555 1_555
C56 C42 1_555 1_555
C57 C45 1_555 1_555
C58 C48 1_555 1_555
C59 C51 1_555 1_555
C60 N1 1_555 1_555
C61 C60 1_555 1_555
H3 C61 1_555 1_555
C62 C61 1_555 1_555
H4 C62 1_555 1_555
C63 C62 1_555 1_555
H5 C63 1_555 1_555
C64 C63 1_555 1_555
H6 C64 1_555 1_555
C65 C60 1_555 1_555
H7 C65 1_555 1_555
C66 D1 1_555 1_555
Cl1 C66 1_555 1_555
Cl2 C66 1_555 1_555
Cl3 C66 1_555 1_555
C67 D2 1_555 1_555
Cl4 C67 1_555 1_555
Cl5 C67 1_555 1_555
Cl6 C67 1_555 1_555
C68 D3 1_555 1_555
Cl7 C68 1_555 1_555
Cl8 C68 1_555 1_555
Cl9 C68 1_555 1_555
C69 D4 1_555 1_555
Cl10 C69 1_555 1_555
Cl11 C69 1_555 1_555
Cl12 C69 1_555 1_555
C7 C8 1_555 1_555
C18 C19 1_555 1_555
C20 C21 1_555 1_555
C23 C24 1_555 1_555
C24 C25 1_555 1_555
C27 C28 1_555 1_555
C28 C29 1_555 1_555
C31 C32 1_555 1_555
C32 C33 1_555 1_555
C35 C36 1_555 1_555
C36 C37 1_555 1_555
C38 C39 1_555 1_555
C40 C41 1_555 1_555
C42 C43 1_555 1_555
C43 C44 1_555 1_555
C45 C46 1_555 1_555
C46 C47 1_555 1_555
C48 C49 1_555 1_555
C49 C50 1_555 1_555
C51 C52 1_555 1_555
C52 C53 1_555 1_555
C53 C54 1_555 1_555
C55 C56 1_555 1_555
C55 C59 1_555 1_555
C56 C57 1_555 1_555
C57 C58 1_555 1_555
C58 C59 1_555 1_555
C64 C65 1_555 1_555

#END
