
#######################################################################
#
#                 Cambridge Crystallographic Data Centre
#                                CCDC 
#
#######################################################################
#
# If this CIF has been generated from an entry in the Cambridge 
# Structural Database, then it will include bibliographic, chemical, 
# crystal, experimental, refinement or atomic coordinate data resulting 
# from the CCDC's data processing and validation procedures.
#
#######################################################################

data_JIVLIM
_chemical_formula_moiety         'C19 H20 F1 N1 O3 Si1'
_chemical_name_systematic        
'[4-(4-fluorophenyl)-5-(4-nitrophenyl)-4,5-dihydrofuran-3-yl](trimethyl)silane'
_symmetry_cell_setting           triclinic
_symmetry_space_group_name_H-M   'P -1'
_symmetry_Int_Tables_number      2
_space_group_name_Hall           '-P 1'
loop_
_symmetry_equiv_pos_site_id
_symmetry_equiv_pos_as_xyz
1 x,y,z
2 -x,-y,-z
_cell_length_a                   6.84(3)
_cell_length_b                   7.717(19)
_cell_length_c                   18.32(4)
_cell_angle_alpha                81.71(9)
_cell_angle_beta                 85.48(10)
_cell_angle_gamma                72.46(7)
_cell_volume                     911.773
_exptl_crystal_colour            colorless
_exptl_crystal_description       block
_cell_formula_units_Z            2
loop_
_atom_site_label
_atom_site_type_symbol
_atom_site_fract_x
_atom_site_fract_y
_atom_site_fract_z
C1 C 0.7127(7) 0.2620(6) 0.3174(2)
H1 H 0.7706 0.1459 0.2947
C2 C 0.7205(7) 0.4291(6) 0.2577(2)
H2 H 0.8033 0.4997 0.2762
C3 C 0.4957(7) 0.5454(6) 0.2544(2)
C4 C 0.3870(7) 0.4539(6) 0.2994(2)
H3 H 0.2423 0.5010 0.3059
C5 C 0.8130(6) 0.3686(6) 0.1835(2)
C6 C 0.7029(7) 0.2955(6) 0.1405(2)
H4 H 0.5710 0.2867 0.1576
C7 C 0.7850(8) 0.2361(6) 0.0733(2)
H5 H 0.7118 0.1854 0.0444
C8 C 0.9746(8) 0.2529(7) 0.0500(2)
C9 C 1.0882(8) 0.3247(7) 0.0895(2)
H6 H 1.2188 0.3349 0.0713
C10 C 1.0040(7) 0.3823(6) 0.1574(2)
H7 H 1.0795 0.4315 0.1860
C11 C 0.4732(9) 0.7812(7) 0.1028(2)
H8 H 0.6233 0.7495 0.0985
H9 H 0.4135 0.9038 0.0765
H10 H 0.4273 0.6918 0.0812
C12 C 0.4848(7) 0.9419(6) 0.2444(3)
H11 H 0.4604 0.9264 0.2980
H12 H 0.4127 1.0677 0.2241
H13 H 0.6324 0.9175 0.2330
C13 C 0.1009(7) 0.8440(7) 0.2102(3)
H14 H 0.0528 0.7578 0.1873
H15 H 0.0439 0.9681 0.1849
H16 H 0.0556 0.8402 0.2624
C14 C 0.8306(7) 0.2506(6) 0.3861(2)
C15 C 0.7313(7) 0.3147(6) 0.4505(2)
H17 H 0.5858 0.3608 0.4533
C16 C 0.8463(7) 0.3113(6) 0.5113(2)
H18 H 0.7798 0.3564 0.5552
C17 C 1.0581(7) 0.2410(6) 0.5062(2)
C18 C 1.1626(7) 0.1710(6) 0.4437(2)
H19 H 1.3078 0.1209 0.4416
C19 C 1.0435(7) 0.1777(6) 0.3835(2)
H20 H 1.1101 0.1311 0.3399
F1 F 1.0564(5) 0.1940(4) -0.01634(15)
N1 N 1.1817(6) 0.2417(5) 0.56897(19)
O1 O 0.4958(5) 0.2868(4) 0.33636(16)
O2 O 1.0903(5) 0.3084(5) 0.62426(16)
O3 O 1.3696(5) 0.1815(5) 0.56388(18)
Si1 Si 0.38794(19) 0.77848(17) 0.20268(6)
loop_
_geom_bond_atom_site_label_1
_geom_bond_atom_site_label_2
_geom_bond_site_symmetry_1
_geom_bond_site_symmetry_2
C1 H1 1_555 1_555
C2 C1 1_555 1_555
H2 C2 1_555 1_555
C3 C2 1_555 1_555
C4 C3 1_555 1_555
H3 C4 1_555 1_555
C5 C2 1_555 1_555
C6 C5 1_555 1_555
H4 C6 1_555 1_555
C7 C6 1_555 1_555
H5 C7 1_555 1_555
C8 C7 1_555 1_555
C9 C8 1_555 1_555
H6 C9 1_555 1_555
C10 C5 1_555 1_555
H7 C10 1_555 1_555
C11 H8 1_555 1_555
H9 C11 1_555 1_555
H10 C11 1_555 1_555
C12 H11 1_555 1_555
H12 C12 1_555 1_555
H13 C12 1_555 1_555
C13 H14 1_555 1_555
H15 C13 1_555 1_555
H16 C13 1_555 1_555
C14 C1 1_555 1_555
C15 C14 1_555 1_555
H17 C15 1_555 1_555
C16 C15 1_555 1_555
H18 C16 1_555 1_555
C17 C16 1_555 1_555
C18 C17 1_555 1_555
H19 C18 1_555 1_555
C19 C14 1_555 1_555
H20 C19 1_555 1_555
F1 C8 1_555 1_555
N1 C17 1_555 1_555
O1 C1 1_555 1_555
O2 N1 1_555 1_555
O3 N1 1_555 1_555
Si1 C3 1_555 1_555
C4 O1 1_555 1_555
C9 C10 1_555 1_555
C11 Si1 1_555 1_555
C12 Si1 1_555 1_555
C13 Si1 1_555 1_555
C18 C19 1_555 1_555

#END
