
#######################################################################
#
#                 Cambridge Crystallographic Data Centre
#                                CCDC 
#
#######################################################################
#
# If this CIF has been generated from an entry in the Cambridge 
# Structural Database, then it will include bibliographic, chemical, 
# crystal, experimental, refinement or atomic coordinate data resulting 
# from the CCDC's data processing and validation procedures.
#
#######################################################################

data_JIWJAD
_chemical_name_common            
'Stanozolol hemikis(gallato) acetonitrile solvate hydrate'
_chemical_formula_moiety         
'0.5(C21 H33 N2 O1 1+),0.5(C21 H32 N2 O1),0.5(C7 H5 O5 1-),C2 H3 N1,0.25(H2 O1)'
_chemical_name_systematic        
'hemikis(1-hydroxy-1,10a,12a-trimethyl-1,2,3,3a,3b,4,5,5a,6,8,10,10a,10b,11,12,12a-hexadecahydrocyclopenta[5,6]naphtho[1,2-f]indazol-7-ium) hemikis(1,10a,12a-trimethyl-1,2,3,3a,3b,4,5,5a,6,7,10,10a,10b,11,12,12a-hexadecahydrocyclopenta[5,6]naphtho[1,2-f]indazol-1-ol) hemikis(3,4,5-trihydroxybenzoate) acetonitrile solvate hydrate'
_symmetry_cell_setting           monoclinic
_symmetry_space_group_name_H-M   'C 2'
_symmetry_Int_Tables_number      5
_space_group_name_Hall           'C 2y'
loop_
_symmetry_equiv_pos_site_id
_symmetry_equiv_pos_as_xyz
1 x,y,z
2 -x,y,-z
3 1/2+x,1/2+y,z
4 1/2-x,1/2+y,-z
_cell_length_a                   32.061(3)
_cell_length_b                   11.0501(9)
_cell_length_c                   7.0657(6)
_cell_angle_alpha                90
_cell_angle_beta                 93.859(3)
_cell_angle_gamma                90
_cell_volume                     2497.54
_exptl_crystal_colour            colorless
_exptl_crystal_description       block
_cell_formula_units_Z            4
loop_
_atom_site_label
_atom_site_type_symbol
_atom_site_fract_x
_atom_site_fract_y
_atom_site_fract_z
O2 O 0.4817(2) 1.2528(4) 0.3616(8)
O3 O 0.46453(10) 0.8103(3) 0.1994(5)
O4 O 0.500000 0.6918(4) 0.500000
C22 C 0.500000 1.1995(7) 0.500000
C23 C 0.500000 1.0643(6) 0.500000
C24 C 0.48224(12) 1.0028(4) 0.3442(6)
H34 H 0.470277 1.046218 0.237986
C25 C 0.48202(12) 0.8783(4) 0.3442(6)
C26 C 0.500000 0.8152(5) 0.500000
O2A O 0.5183(2) 1.2528(4) 0.6384(8)
O3A O 0.53547(10) 0.8103(3) 0.8006(5)
C24A C 0.51776(12) 1.0028(4) 0.6558(6)
H34A H 0.529723 1.046218 0.762014
C25A C 0.51798(12) 0.8783(4) 0.6558(6)
O5 O 0.000000 1.1170(13) 0.000000
H35 H -0.013(5) 1.184(7) -0.02(3)
H35A H 0.013(5) 1.184(7) 0.02(3)
N3 N 0.08128(17) 0.7118(5) 0.1080(8)
C27 C 0.07266(17) 0.8101(6) 0.1268(8)
C28 C 0.0655(3) 0.9378(6) 0.1502(10)
H36 H 0.066941 0.978706 0.027761
H37 H 0.086958 0.971101 0.241106
H38 H 0.037840 0.950432 0.197722
O1 O 0.08401(8) 0.4464(3) 0.0477(4)
H1 H 0.0814(15) 0.5205(17) 0.074(7)
N1 N 0.43382(10) 0.5577(3) 0.3438(5)
H2 H 0.4578(13) 0.596(7) 0.360(12)
N2 N 0.42742(10) 0.4372(3) 0.3519(5)
H3 H 0.4460(11) 0.379(3) 0.360(6)
C1 C 0.39653(12) 0.6117(4) 0.3208(6)
H4 H 0.392149 0.696648 0.312632
C2 C 0.36524(12) 0.5251(4) 0.3108(6)
C3 C 0.38590(11) 0.4158(4) 0.3311(5)
C4 C 0.36528(13) 0.2952(4) 0.3281(7)
H5 H 0.377576 0.244871 0.433604
H6 H 0.369846 0.253414 0.207311
C5 C 0.31808(12) 0.3113(4) 0.3486(6)
H7 H 0.314485 0.334124 0.483508
C6 C 0.29826(11) 0.4138(4) 0.2221(5)
C7 C 0.31829(11) 0.5345(4) 0.2855(6)
H8 H 0.310595 0.597367 0.189562
H9 H 0.307214 0.559724 0.406840
C8 C 0.30585(11) 0.3926(4) 0.0116(6)
H10 H 0.292386 0.457113 -0.065536
H11 H 0.294025 0.314217 -0.028949
H12 H 0.335968 0.392820 -0.004687
C9 C 0.25056(11) 0.4193(4) 0.2527(6)
H13 H 0.248557 0.434923 0.391157
C10 C 0.22808(12) 0.2970(4) 0.2125(6)
H14 H 0.230517 0.274968 0.076468
C11 C 0.24906(12) 0.1985(4) 0.3377(6)
H15 H 0.244608 0.216115 0.472263
H16 H 0.235843 0.119534 0.305431
C12 C 0.29583(12) 0.1901(4) 0.3129(6)
H17 H 0.300201 0.162711 0.182293
H18 H 0.308346 0.128954 0.401954
C13 C 0.22843(12) 0.5255(4) 0.1508(7)
H19 H 0.232138 0.518952 0.013186
H20 H 0.241800 0.601825 0.196448
C14 C 0.18124(11) 0.5316(4) 0.1814(6)
H21 H 0.177294 0.551020 0.315777
H22 H 0.168178 0.596912 0.101863
C15 C 0.16009(11) 0.4125(4) 0.1303(5)
C16 C 0.18212(11) 0.3119(4) 0.2477(6)
H23 H 0.180942 0.335566 0.383798
C17 C 0.16122(12) 0.3893(4) -0.0845(5)
H24 H 0.190304 0.388614 -0.119231
H25 H 0.145858 0.453606 -0.154705
H26 H 0.148217 0.310978 -0.116162
C18 C 0.15286(12) 0.2016(4) 0.2157(7)
H27 H 0.154888 0.147077 0.327116
H28 H 0.159869 0.155358 0.102076
C19 C 0.10843(13) 0.2578(4) 0.1871(7)
H29 H 0.094456 0.230532 0.065348
H30 H 0.091110 0.233121 0.291335
C20 C 0.11416(12) 0.3971(4) 0.1867(6)
C21 C 0.10616(13) 0.4515(5) 0.3781(6)
H31 H 0.077411 0.433755 0.408407
H32 H 0.110179 0.539370 0.373577
H33 H 0.125707 0.416623 0.475819
H39? H 0.4525(14) 0.850(4) 0.108(5)
H40? H 0.5213(18) 0.667(8) 0.567(12)
loop_
_geom_bond_atom_site_label_1
_geom_bond_atom_site_label_2
_geom_bond_site_symmetry_1
_geom_bond_site_symmetry_2
O1 H1 1_555 1_555
N1 H2 1_555 1_555
N2 N1 1_555 1_555
H3 N2 1_555 1_555
C1 N1 1_555 1_555
H4 C1 1_555 1_555
C2 C1 1_555 1_555
C3 N2 1_555 1_555
C4 C3 1_555 1_555
H5 C4 1_555 1_555
H6 C4 1_555 1_555
C5 C4 1_555 1_555
H7 C5 1_555 1_555
C6 C5 1_555 1_555
C7 C2 1_555 1_555
H8 C7 1_555 1_555
H9 C7 1_555 1_555
C8 C6 1_555 1_555
H10 C8 1_555 1_555
H11 C8 1_555 1_555
H12 C8 1_555 1_555
C9 C6 1_555 1_555
H13 C9 1_555 1_555
C10 C9 1_555 1_555
H14 C10 1_555 1_555
C11 C10 1_555 1_555
H15 C11 1_555 1_555
H16 C11 1_555 1_555
C12 C5 1_555 1_555
H17 C12 1_555 1_555
H18 C12 1_555 1_555
C13 C9 1_555 1_555
H19 C13 1_555 1_555
H20 C13 1_555 1_555
C14 C13 1_555 1_555
H21 C14 1_555 1_555
H22 C14 1_555 1_555
C15 C14 1_555 1_555
C16 C10 1_555 1_555
H23 C16 1_555 1_555
C17 C15 1_555 1_555
H24 C17 1_555 1_555
H25 C17 1_555 1_555
H26 C17 1_555 1_555
C18 C16 1_555 1_555
H27 C18 1_555 1_555
H28 C18 1_555 1_555
C19 C18 1_555 1_555
H29 C19 1_555 1_555
H30 C19 1_555 1_555
C20 O1 1_555 1_555
C21 C20 1_555 1_555
H31 C21 1_555 1_555
H32 C21 1_555 1_555
H33 C21 1_555 1_555
O2 C22 1_555 1_555
O3 C25 1_555 1_555
O4 C26 1_555 1_555
C22 C23 1_555 1_555
C23 C24 1_555 1_555
C24 H34 1_555 1_555
C25 C24 1_555 1_555
C26 C25 1_555 1_555
O5 H35 1_555 1_555
N3 C27 1_555 1_555
C27 C28 1_555 1_555
C28 H36 1_555 1_555
H37 C28 1_555 1_555
H38 C28 1_555 1_555
O2A C22 1_555 1_555
O3A C25A 1_555 1_555
C24A C23 1_555 1_555
H34A C24A 1_555 1_555
C25A C26 1_555 1_555
H35A O5 1_555 1_555
C2 C3 1_555 1_555
C6 C7 1_555 1_555
C11 C12 1_555 1_555
C15 C16 1_555 1_555
C15 C20 1_555 1_555
C19 C20 1_555 1_555
C24A C25A 1_555 1_555

#END
