
#######################################################################
#
#                 Cambridge Crystallographic Data Centre
#                                CCDC 
#
#######################################################################
#
# If this CIF has been generated from an entry in the Cambridge 
# Structural Database, then it will include bibliographic, chemical, 
# crystal, experimental, refinement or atomic coordinate data resulting 
# from the CCDC's data processing and validation procedures.
#
#######################################################################

data_JIWJEH
_chemical_name_common            'Stanozolol  2,5-dihydroxybenzoic acid'
_chemical_formula_moiety         'C21 H32 N2 O1,C7 H6 O4'
_chemical_name_systematic        
'1,10a,12a-trimethyl-1,2,3,3a,3b,4,5,5a,6,7,10,10a,10b,11,12,12a-hexadecahydrocyclopenta[5,6]naphtho[1,2-f]indazol-1-ol 2,5-dihydroxybenzoic acid'
_symmetry_cell_setting           monoclinic
_symmetry_space_group_name_H-M   'P 21'
_symmetry_Int_Tables_number      4
_space_group_name_Hall           'P 2yb'
loop_
_symmetry_equiv_pos_site_id
_symmetry_equiv_pos_as_xyz
1 x,y,z
2 -x,1/2+y,-z
_cell_length_a                   9.6635(3)
_cell_length_b                   23.4950(6)
_cell_length_c                   11.8249(3)
_cell_angle_alpha                90
_cell_angle_beta                 113.7610(10)
_cell_angle_gamma                90
_cell_volume                     2457.19
_exptl_crystal_colour            colorless
_exptl_crystal_description       block
_cell_formula_units_Z            4
loop_
_atom_site_label
_atom_site_type_symbol
_atom_site_fract_x
_atom_site_fract_y
_atom_site_fract_z
C1 C 0.2123(2) 0.71127(9) -0.38098(19)
H1 H 0.153085 0.678409 -0.385354
C2 C 0.3175(2) 0.73483(9) -0.27103(18)
C3 C 0.3757(2) 0.78151(9) -0.30824(18)
C4 C 0.4954(2) 0.81998(9) -0.22497(18)
H2 H 0.468306 0.860067 -0.249835
H3 H 0.592654 0.811563 -0.230818
C5 C 0.5112(2) 0.81104(8) -0.09143(18)
H4 H 0.418709 0.827521 -0.085939
C6 C 0.5176(2) 0.74704(8) -0.05482(18)
C7 C 0.3659(2) 0.71858(9) -0.13751(17)
H5 H 0.376948 0.676712 -0.129333
H6 H 0.286813 0.730206 -0.109039
C8 C 0.6466(2) 0.71608(9) -0.07471(19)
H7 H 0.650679 0.676323 -0.048493
H8 H 0.742979 0.734780 -0.025832
H9 H 0.628248 0.717456 -0.162439
C9 C 0.5368(2) 0.74429(8) 0.08224(18)
H10 H 0.446387 0.763910 0.085036
C10 C 0.6756(2) 0.77792(9) 0.17003(18)
H11 H 0.769048 0.761133 0.166848
C11 C 0.6628(3) 0.84036(9) 0.12956(19)
H12 H 0.573960 0.857879 0.137554
H13 H 0.754101 0.861287 0.184377
C12 C 0.6462(3) 0.84548(9) -0.00385(19)
H14 H 0.739724 0.831660 -0.009984
H15 H 0.632556 0.885999 -0.028932
C13 C 0.5341(2) 0.68302(8) 0.12907(18)
H16 H 0.437286 0.664718 0.076044
H17 H 0.616902 0.660842 0.121284
C14 C 0.5517(2) 0.68102(9) 0.26480(18)
H18 H 0.463123 0.699313 0.271607
H19 H 0.555587 0.640890 0.291464
C15 C 0.6964(2) 0.71177(8) 0.34926(18)
C16 C 0.6853(2) 0.77349(8) 0.30148(18)
H20 H 0.589353 0.789773 0.300784
C17 C 0.8365(2) 0.68091(9) 0.34873(18)
H21 H 0.834225 0.681667 0.265126
H22 H 0.836463 0.641339 0.374916
H23 H 0.928159 0.700058 0.405804
C18 C 0.8161(3) 0.80470(9) 0.40370(19)
H24 H 0.793972 0.845821 0.404088
H25 H 0.911740 0.799950 0.392715
C19 C 0.8257(2) 0.77574(9) 0.52397(19)
H26 H 0.791705 0.802318 0.572583
H27 H 0.931187 0.764328 0.575058
C20 C 0.7213(2) 0.72244(9) 0.48623(18)
C21 C 0.5756(3) 0.73265(11) 0.5043(2)
H28 H 0.600113 0.741219 0.591412
H29 H 0.512243 0.698465 0.480135
H30 H 0.520803 0.764818 0.453054
H31 H 0.322(3) 0.8060(12) -0.484(3)
N1 N 0.2065(2) 0.74128(8) -0.47897(16)
N2 N 0.3074(2) 0.78415(8) -0.43158(16)
O1 O 0.79756(19) 0.67443(7) 0.56326(13)
H32 H 0.842(4) 0.6889(14) 0.6344(18)
C22 C 0.3241(2) 0.55234(9) 0.82806(19)
H33 H 0.268556 0.584565 0.834798
C23 C 0.3155(2) 0.52924(9) 0.71576(18)
C24 C 0.4128(2) 0.48363(9) 0.74938(19)
C25 C 0.4486(2) 0.44650(9) 0.66266(18)
H34 H 0.447574 0.406064 0.685873
H35 H 0.550742 0.455594 0.667124
C26 C 0.3299(2) 0.45640(8) 0.53035(18)
H36 H 0.233438 0.438848 0.525543
C27 C 0.2967(2) 0.52074(8) 0.49755(17)
C28 C 0.2272(2) 0.54639(9) 0.58368(19)
H37 H 0.226018 0.588413 0.577238
H38 H 0.121376 0.533213 0.556719
C29 C 0.4423(2) 0.55331(9) 0.51716(19)
H39 H 0.512790 0.550618 0.604103
H40 H 0.418163 0.593380 0.494921
H41 H 0.489028 0.536732 0.464982
C30 C 0.1780(2) 0.52498(8) 0.36151(17)
H42 H 0.085316 0.505212 0.359288
C31 C 0.2270(2) 0.49257(8) 0.27009(18)
H43 H 0.322473 0.509935 0.272249
C32 C 0.2567(3) 0.42983(9) 0.30752(19)
H44 H 0.161779 0.411691 0.302053
H45 H 0.291096 0.409814 0.249775
C33 C 0.3769(3) 0.42426(9) 0.43911(19)
H46 H 0.474023 0.439651 0.442942
H47 H 0.391950 0.383544 0.462442
C34 C 0.1294(2) 0.58668(9) 0.31859(18)
H48 H 0.086102 0.604019 0.373447
H49 H 0.219945 0.608995 0.327143
C35 C 0.0120(2) 0.59073(9) 0.18358(18)
H50 H -0.083977 0.572897 0.176512
H51 H -0.008487 0.631240 0.159620
C36 C 0.0702(2) 0.56068(8) 0.09593(17)
C37 C 0.1050(2) 0.49837(8) 0.14016(18)
H52 H 0.010123 0.482235 0.141845
C38 C 0.2111(2) 0.59138(9) 0.09628(18)
H53 H 0.292033 0.589862 0.179436
H54 H 0.186007 0.631177 0.071802
H55 H 0.244864 0.572636 0.037810
C39 C 0.1305(2) 0.46832(9) 0.03531(19)
H56 H 0.107469 0.427194 0.033549
H57 H 0.236216 0.473050 0.044136
C40 C 0.0191(2) 0.49845(9) -0.08226(19)
H58 H -0.064911 0.472503 -0.129990
H59 H 0.071611 0.509843 -0.135359
C41 C -0.0430(2) 0.55184(9) -0.04052(18)
C42 C -0.2057(2) 0.54256(10) -0.0563(2)
H60 H -0.269130 0.534718 -0.143364
H61 H -0.242687 0.576820 -0.030124
H62 H -0.210167 0.510174 -0.005658
H63 H 0.545(4) 0.4585(13) 0.928(3)
N3 N 0.4206(2) 0.52300(8) 0.92382(16)
N4 N 0.4732(2) 0.48061(8) 0.87386(16)
O2 O -0.04212(19) 0.60039(6) -0.11618(13)
H64 H -0.073(3) 0.5881(13) -0.1884(16)
C43 C 0.1738(2) 0.78439(9) 0.25065(19)
C44 C 0.1318(2) 0.79099(9) 0.11635(18)
C45 C 0.0549(2) 0.74734(8) 0.03404(19)
H65 H 0.030918 0.713095 0.064935
C46 C 0.0136(2) 0.75371(9) -0.09154(19)
C47 C 0.0442(2) 0.80512(9) -0.13680(19)
H66 H 0.013632 0.810185 -0.223222
C48 C 0.1185(2) 0.84837(9) -0.0568(2)
H67 H 0.137153 0.883269 -0.088688
C49 C 0.1667(2) 0.84159(9) 0.07082(19)
O3 O 0.24775(19) 0.82166(7) 0.32541(14)
O4 O 0.12756(19) 0.73778(7) 0.28419(13)
H68 H 0.152(4) 0.7367(18) 0.3626(14)
O5 O -0.0580(2) 0.71159(7) -0.17503(14)
H69 H -0.041(4) 0.6799(9) -0.138(3)
O6 O 0.24490(19) 0.88510(7) 0.14478(15)
H70 H 0.256(4) 0.8738(15) 0.2166(18)
C50 C 0.6558(2) 0.48572(9) 0.19880(19)
C51 C 0.7430(2) 0.48068(9) 0.33355(18)
C52 C 0.8232(2) 0.43042(9) 0.38316(19)
C53 C 0.8955(3) 0.42455(9) 0.5110(2)
H71 H 0.945122 0.389876 0.545493
C54 C 0.8954(3) 0.46877(10) 0.58807(19)
H72 H 0.945497 0.464240 0.675063
C55 C 0.8227(2) 0.52007(9) 0.53948(19)
C56 C 0.7443(2) 0.52519(9) 0.41314(19)
H73 H 0.690502 0.559278 0.379674
O7 O 0.57354(18) 0.53140(7) 0.16145(13)
H74 H 0.516(4) 0.5308(17) 0.0835(15)
O8 O 0.65977(19) 0.44787(7) 0.12642(14)
O9 O 0.83317(19) 0.38634(7) 0.31238(14)
H75 H 0.777(3) 0.3955(14) 0.2382(16)
O10 O 0.83102(19) 0.56285(7) 0.62063(14)
H76 H 0.807(3) 0.5945(8) 0.582(3)
loop_
_geom_bond_atom_site_label_1
_geom_bond_atom_site_label_2
_geom_bond_site_symmetry_1
_geom_bond_site_symmetry_2
C1 H1 1_555 1_555
C2 C1 1_555 1_555
C3 C2 1_555 1_555
C4 C3 1_555 1_555
H2 C4 1_555 1_555
H3 C4 1_555 1_555
C5 C4 1_555 1_555
H4 C5 1_555 1_555
C6 C5 1_555 1_555
C7 C2 1_555 1_555
H5 C7 1_555 1_555
H6 C7 1_555 1_555
C8 C6 1_555 1_555
H7 C8 1_555 1_555
H8 C8 1_555 1_555
H9 C8 1_555 1_555
C9 C6 1_555 1_555
H10 C9 1_555 1_555
C10 C9 1_555 1_555
H11 C10 1_555 1_555
C11 C10 1_555 1_555
H12 C11 1_555 1_555
H13 C11 1_555 1_555
C12 C5 1_555 1_555
H14 C12 1_555 1_555
H15 C12 1_555 1_555
C13 C9 1_555 1_555
H16 C13 1_555 1_555
H17 C13 1_555 1_555
C14 C13 1_555 1_555
H18 C14 1_555 1_555
H19 C14 1_555 1_555
C15 C14 1_555 1_555
C16 C10 1_555 1_555
H20 C16 1_555 1_555
C17 C15 1_555 1_555
H21 C17 1_555 1_555
H22 C17 1_555 1_555
H23 C17 1_555 1_555
C18 C16 1_555 1_555
H24 C18 1_555 1_555
H25 C18 1_555 1_555
C19 C18 1_555 1_555
H26 C19 1_555 1_555
H27 C19 1_555 1_555
C20 C15 1_555 1_555
C21 C20 1_555 1_555
H28 C21 1_555 1_555
H29 C21 1_555 1_555
H30 C21 1_555 1_555
H31 N2 1_555 1_555
N1 C1 1_555 1_555
N2 C3 1_555 1_555
O1 C20 1_555 1_555
H32 O1 1_555 1_555
C22 H33 1_555 1_555
C23 C22 1_555 1_555
C24 C23 1_555 1_555
C25 C24 1_555 1_555
H34 C25 1_555 1_555
H35 C25 1_555 1_555
C26 C25 1_555 1_555
H36 C26 1_555 1_555
C27 C26 1_555 1_555
C28 C23 1_555 1_555
H37 C28 1_555 1_555
H38 C28 1_555 1_555
C29 C27 1_555 1_555
H39 C29 1_555 1_555
H40 C29 1_555 1_555
H41 C29 1_555 1_555
C30 C27 1_555 1_555
H42 C30 1_555 1_555
C31 C30 1_555 1_555
H43 C31 1_555 1_555
C32 C31 1_555 1_555
H44 C32 1_555 1_555
H45 C32 1_555 1_555
C33 C26 1_555 1_555
H46 C33 1_555 1_555
H47 C33 1_555 1_555
C34 C30 1_555 1_555
H48 C34 1_555 1_555
H49 C34 1_555 1_555
C35 C34 1_555 1_555
H50 C35 1_555 1_555
H51 C35 1_555 1_555
C36 C35 1_555 1_555
C37 C31 1_555 1_555
H52 C37 1_555 1_555
C38 C36 1_555 1_555
H53 C38 1_555 1_555
H54 C38 1_555 1_555
H55 C38 1_555 1_555
C39 C37 1_555 1_555
H56 C39 1_555 1_555
H57 C39 1_555 1_555
C40 C39 1_555 1_555
H58 C40 1_555 1_555
H59 C40 1_555 1_555
C41 C36 1_555 1_555
C42 C41 1_555 1_555
H60 C42 1_555 1_555
H61 C42 1_555 1_555
H62 C42 1_555 1_555
H63 N4 1_555 1_555
N3 C22 1_555 1_555
N4 C24 1_555 1_555
O2 C41 1_555 1_555
H64 O2 1_555 1_555
C43 C44 1_555 1_555
C44 C45 1_555 1_555
C45 H65 1_555 1_555
C46 C45 1_555 1_555
C47 C46 1_555 1_555
H66 C47 1_555 1_555
C48 C47 1_555 1_555
H67 C48 1_555 1_555
C49 C44 1_555 1_555
O3 C43 1_555 1_555
O4 C43 1_555 1_555
H68 O4 1_555 1_555
O5 C46 1_555 1_555
H69 O5 1_555 1_555
O6 C49 1_555 1_555
H70 O6 1_555 1_555
C50 C51 1_555 1_555
C51 C52 1_555 1_555
C52 C53 1_555 1_555
C53 H71 1_555 1_555
C54 C53 1_555 1_555
H72 C54 1_555 1_555
C55 C54 1_555 1_555
C56 C51 1_555 1_555
H73 C56 1_555 1_555
O7 C50 1_555 1_555
H74 O7 1_555 1_555
O8 C50 1_555 1_555
O9 C52 1_555 1_555
H75 O9 1_555 1_555
O10 C55 1_555 1_555
H76 O10 1_555 1_555
C6 C7 1_555 1_555
C11 C12 1_555 1_555
C15 C16 1_555 1_555
C19 C20 1_555 1_555
N1 N2 1_555 1_555
C27 C28 1_555 1_555
C32 C33 1_555 1_555
C36 C37 1_555 1_555
C40 C41 1_555 1_555
N3 N4 1_555 1_555
C48 C49 1_555 1_555
C55 C56 1_555 1_555

#END
