
#######################################################################
#
#                 Cambridge Crystallographic Data Centre
#                                CCDC 
#
#######################################################################
#
# If this CIF has been generated from an entry in the Cambridge 
# Structural Database, then it will include bibliographic, chemical, 
# crystal, experimental, refinement or atomic coordinate data resulting 
# from the CCDC's data processing and validation procedures.
#
#######################################################################

data_JIWSOY
_chemical_compound_source        
'leaves of Murraya omphalocarpa Hayata (Rutaceae)'
_chemical_name_common            
8-((4R,5R)-5-Isopropenyl-2,2-dimethyl-1,3-dioxolan-4-yl)-7-methoxy-2H-chromen-2-one
_chemical_formula_moiety         'C18 H20 O5'
_chemical_name_systematic        'Minumicroline acetonide'
_chemical_properties_biological  
'Inhibits antiplatelet aggregation activity induced by arachidonic acid, collagen and platelet activating factor.'
_symmetry_cell_setting           triclinic
_symmetry_space_group_name_H-M   'P -1'
_symmetry_Int_Tables_number      2
_space_group_name_Hall           '-P 1'
loop_
_symmetry_equiv_pos_site_id
_symmetry_equiv_pos_as_xyz
1 x,y,z
2 -x,-y,-z
_cell_length_a                   8.733(2)
_cell_length_b                   9.244(3)
_cell_length_c                   10.945(3)
_cell_angle_alpha                82.06(2)
_cell_angle_beta                 89.85(2)
_cell_angle_gamma                72.64(2)
_cell_volume                     834.538
_exptl_crystal_colour            colorless
_exptl_crystal_description       prism
_chemical_melting_point          '135-137 deg.C'
_cell_formula_units_Z            2
_exptl_crystal_recrystallization_method chloroform/methanol
_exptl_crystal_preparation       'The compound may be an extraction artifact'
loop_
_atom_site_label
_atom_site_type_symbol
_atom_site_fract_x
_atom_site_fract_y
_atom_site_fract_z
O1 O 0.27131(13) 0.02267(14) 0.91388(10)
O2 O 0.47125(19) -0.18754(19) 0.96856(15)
O3 O -0.12850(16) 0.48619(16) 0.77800(15)
O4 O 0.12250(14) 0.11295(14) 0.67184(11)
O5 O 0.33717(16) 0.17806(16) 0.58920(12)
C1 C 0.3532(2) -0.0984(2) 1.00127(18)
C2 C 0.2868(3) -0.1067(3) 1.12182(19)
H1 H 0.3351 -0.1892 1.1820
C3 C 0.1581(3) 0.0015(3) 1.14821(17)
H2 H 0.1175 -0.0069 1.2266
C4 C -0.0518(3) 0.2508(3) 1.0813(2)
H3 H -0.0940 0.2494 1.1595
C5 C -0.1210(2) 0.3709(3) 0.9912(2)
H4 H -0.2071 0.4515 1.0092
C6 C -0.0630(2) 0.3727(2) 0.87245(19)
C7 C 0.06913(19) 0.25389(19) 0.84403(15)
C8 C 0.13909(19) 0.1379(2) 0.93986(15)
C9 C 0.0800(2) 0.1310(2) 1.05876(16)
C10 C 0.12434(19) 0.25223(19) 0.71369(15)
H5 H 0.0512 0.3388 0.6601
C11 C 0.29699(19) 0.25532(19) 0.69419(16)
H6 H 0.3663 0.1968 0.7656
C12 C 0.3135(2) 0.4134(2) 0.66854(18)
C13 C 0.3664(3) 0.4701(2) 0.7583(2)
H7 H 0.3720 0.5700 0.7451
H8 H 0.3980 0.4103 0.8347
C14 C 0.2609(4) 0.5022(3) 0.5440(3)
H9 H 0.2709 0.6032 0.5416
H10 H 0.1509 0.5094 0.5270
H11 H 0.3269 0.4513 0.4830
C15 C 0.2485(2) 0.0729(2) 0.58742(17)
C16 C 0.3516(3) -0.0877(3) 0.6321(3)
H12 H 0.4335 -0.1192 0.5742
H13 H 0.2864 -0.1555 0.6394
H14 H 0.4009 -0.0911 0.7112
C17 C 0.1795(4) 0.0941(4) 0.4586(2)
H15 H 0.1082 0.1963 0.4384
H16 H 0.1214 0.0218 0.4532
H17 H 0.2649 0.0777 0.4018
C18 C -0.2690(3) 0.6050(3) 0.7995(3)
H18 H -0.3515 0.5609 0.8280
H19 H -0.3057 0.6736 0.7241
H20 H -0.2444 0.6604 0.8609
loop_
_geom_bond_atom_site_label_1
_geom_bond_atom_site_label_2
_geom_bond_site_symmetry_1
_geom_bond_site_symmetry_2
O1 C1 1_555 1_555
O2 C1 1_555 1_555
O3 C6 1_555 1_555
O4 C10 1_555 1_555
O5 C11 1_555 1_555
C1 C2 1_555 1_555
C2 H1 1_555 1_555
C3 C2 1_555 1_555
H2 C3 1_555 1_555
C4 H3 1_555 1_555
C5 C4 1_555 1_555
H4 C5 1_555 1_555
C6 C5 1_555 1_555
C7 C6 1_555 1_555
C8 O1 1_555 1_555
C9 C3 1_555 1_555
C10 C7 1_555 1_555
H5 C10 1_555 1_555
C11 C10 1_555 1_555
H6 C11 1_555 1_555
C12 C11 1_555 1_555
C13 C12 1_555 1_555
H7 C13 1_555 1_555
H8 C13 1_555 1_555
C14 C12 1_555 1_555
H9 C14 1_555 1_555
H10 C14 1_555 1_555
H11 C14 1_555 1_555
C15 O4 1_555 1_555
C16 C15 1_555 1_555
H12 C16 1_555 1_555
H13 C16 1_555 1_555
H14 C16 1_555 1_555
C17 C15 1_555 1_555
H15 C17 1_555 1_555
H16 C17 1_555 1_555
H17 C17 1_555 1_555
C18 O3 1_555 1_555
H18 C18 1_555 1_555
H19 C18 1_555 1_555
H20 C18 1_555 1_555
O5 C15 1_555 1_555
C4 C9 1_555 1_555
C7 C8 1_555 1_555
C8 C9 1_555 1_555

#END
