
#######################################################################
#
#                 Cambridge Crystallographic Data Centre
#                                CCDC 
#
#######################################################################
#
# If this CIF has been generated from an entry in the Cambridge 
# Structural Database, then it will include bibliographic, chemical, 
# crystal, experimental, refinement or atomic coordinate data resulting 
# from the CCDC's data processing and validation procedures.
#
#######################################################################

data_JIWWEU
_chemical_name_common            5-methyl-2,1,3-benzothiadiazole
_chemical_formula_moiety         'C7 H6 N2 S1'
_chemical_name_systematic        5-Methylbenzo[c][1,2,5]thiadiazole
_symmetry_cell_setting           monoclinic
_symmetry_space_group_name_H-M   'P 21/c'
_symmetry_Int_Tables_number      14
_space_group_name_Hall           '-P 2ybc'
loop_
_symmetry_equiv_pos_site_id
_symmetry_equiv_pos_as_xyz
1 x,y,z
2 -x,1/2+y,1/2-z
3 -x,-y,-z
4 x,1/2-y,1/2+z
_cell_length_a                   10.1467(13)
_cell_length_b                   4.8078(6)
_cell_length_c                   13.8542(17)
_cell_angle_alpha                90
_cell_angle_beta                 97.320(3)
_cell_angle_gamma                90
_cell_volume                     670.345
_exptl_crystal_colour            'light yellow'
_exptl_crystal_description       block
_chemical_melting_point          '304 K'
_cell_formula_units_Z            4
loop_
_atom_site_label
_atom_site_type_symbol
_atom_site_fract_x
_atom_site_fract_y
_atom_site_fract_z
S1 S 0.15481(3) 0.17943(7) 1.05854(2)
N1 N 0.08032(11) 0.2332(2) 0.94968(8)
N2 N 0.28119(11) 0.3857(2) 1.06040(8)
C1 C 0.15456(12) 0.4229(3) 0.90918(9)
C2 C 0.12909(13) 0.5354(3) 0.81364(9)
H1 H 0.0535 0.4796 0.7704
C3 C 0.21679(13) 0.7262(3) 0.78617(9)
H2 H 0.2005 0.8032 0.7226
C4 C 0.33256(12) 0.8160(3) 0.84894(9)
C5 C 0.42226(13) 1.0293(3) 0.81173(9)
H3 H 0.3872 1.2160 0.8211
H4 H 0.4263 0.9976 0.7423
H5 H 0.5116 1.0133 0.8476
C6 C 0.35905(12) 0.7078(3) 0.94066(9)
H6 H 0.4360 0.7638 0.9825
C7 C 0.26978(12) 0.5107(3) 0.97238(9)
loop_
_geom_bond_atom_site_label_1
_geom_bond_atom_site_label_2
_geom_bond_site_symmetry_1
_geom_bond_site_symmetry_2
S1 N1 1_555 1_555
N1 C1 1_555 1_555
N2 S1 1_555 1_555
C1 C2 1_555 1_555
C2 H1 1_555 1_555
C3 C2 1_555 1_555
H2 C3 1_555 1_555
C4 C3 1_555 1_555
C5 C4 1_555 1_555
H3 C5 1_555 1_555
H4 C5 1_555 1_555
H5 C5 1_555 1_555
C6 C4 1_555 1_555
H6 C6 1_555 1_555
C7 N2 1_555 1_555
C1 C7 1_555 1_555
C6 C7 1_555 1_555

#END
