
#######################################################################
#
#                 Cambridge Crystallographic Data Centre
#                                CCDC 
#
#######################################################################
#
# If this CIF has been generated from an entry in the Cambridge 
# Structural Database, then it will include bibliographic, chemical, 
# crystal, experimental, refinement or atomic coordinate data resulting 
# from the CCDC's data processing and validation procedures.
#
#######################################################################

data_JIWYOG
_chemical_formula_moiety         'C42 H54 O6 Se1 Te2'
_chemical_name_systematic        
2,3,5,6,8,9-hexabutoxybistelluropheno[2',3',4',5':4,5;2'',3'',4'',5'':8,9]triphenyleno[1,12-bcd]selenophene
_symmetry_cell_setting           triclinic
_symmetry_space_group_name_H-M   'P -1'
_symmetry_Int_Tables_number      2
_space_group_name_Hall           '-P 1'
loop_
_symmetry_equiv_pos_site_id
_symmetry_equiv_pos_as_xyz
1 x,y,z
2 -x,-y,-z
_cell_length_a                   12.1441(8)
_cell_length_b                   16.8305(9)
_cell_length_c                   20.8669(13)
_cell_angle_alpha                98.844(5)
_cell_angle_beta                 91.448(5)
_cell_angle_gamma                102.981(5)
_cell_volume                     4098.68
_exptl_crystal_colour            'pale yellow'
_exptl_crystal_description       needle
_chemical_melting_point          '343 K'
_cell_formula_units_Z            4
loop_
_atom_site_label
_atom_site_type_symbol
_atom_site_fract_x
_atom_site_fract_y
_atom_site_fract_z
C1 C 1.0958(12) 0.4399(9) 0.1842(7)
C2 C 1.0636(12) 0.5141(9) 0.1747(7)
C3 C 1.1187(14) 0.5872(9) 0.2141(7)
C4 C 1.2096(12) 0.5897(9) 0.2616(6)
C5 C 1.2392(13) 0.5176(9) 0.2680(7)
C6 C 1.1825(13) 0.4415(9) 0.2297(7)
C7 C 0.9739(14) 0.5081(10) 0.1278(6)
C8 C 0.9497(14) 0.5844(9) 0.1199(7)
C9 C 1.0069(13) 0.6604(9) 0.1588(7)
C10 C 1.0906(13) 0.6629(8) 0.2063(7)
C11 C 1.2626(15) 0.6656(9) 0.2976(7)
C12 C 1.3505(13) 0.6653(11) 0.3418(7)
C13 C 1.3806(14) 0.5923(11) 0.3492(7)
C14 C 1.3238(12) 0.5151(8) 0.3113(7)
C15 C 1.2119(14) 0.3687(9) 0.2411(7)
C16 C 1.1536(14) 0.2939(9) 0.2026(8)
C17 C 1.0653(12) 0.2930(10) 0.1556(7)
C18 C 1.0365(12) 0.3651(8) 0.1470(7)
C19 C 0.8326(15) 0.5309(10) 0.0222(8)
H1 H 0.782187 0.484065 0.036031
H2 H 0.896693 0.512712 0.003314
C20 C 0.7702(16) 0.5660(10) -0.0275(7)
H3 H 0.820921 0.614957 -0.038013
H4 H 0.753162 0.525577 -0.067063
C21 C 0.6608(13) 0.5886(12) -0.0064(8)
H5 H 0.674579 0.624559 0.035462
H6 H 0.604981 0.538975 -0.001746
C22 C 0.6154(18) 0.6326(14) -0.0567(10)
H7 H 0.670996 0.681513 -0.061347
H8 H 0.547129 0.647479 -0.042500
H9 H 0.599722 0.596272 -0.097721
C23 C 1.0417(15) 0.7770(11) 0.1045(9)
H10 H 1.049926 0.738440 0.066328
H11 H 1.116574 0.804620 0.123919
C24 C 0.9813(17) 0.8392(11) 0.0858(10)
H12 H 1.031886 0.876449 0.062676
H13 H 0.963442 0.871622 0.125108
C25 C 0.8723(18) 0.8016(10) 0.0435(9)
H14 H 0.888510 0.766624 0.005189
H15 H 0.818856 0.767300 0.067529
C26 C 0.820(2) 0.8678(13) 0.0231(10)
H16 H 0.802517 0.901859 0.061042
H17 H 0.751596 0.842443 -0.003406
H18 H 0.872184 0.901247 -0.001191
C27 C 1.5179(17) 0.7729(11) 0.3713(13)
H19 H 1.530839 0.764177 0.325294
H20 H 1.565589 0.745354 0.393533
C28 C 1.547(2) 0.8661(14) 0.3983(12)
H21 H 1.522050 0.874741 0.442100
H22 H 1.628662 0.886917 0.400558
C29 C 1.493(2) 0.9129(14) 0.3574(12)
H23 H 1.411684 0.893986 0.357921
H24 H 1.513335 0.899625 0.312965
C30 C 1.524(3) 1.0058(16) 0.3771(15)
H25 H 1.506389 1.019986 0.421399
H26 H 1.482049 1.030406 0.349393
H27 H 1.603742 1.026120 0.373189
C31 C 1.5596(18) 0.5644(19) 0.3791(10)
H28 H 1.589389 0.587806 0.341644
H29 H 1.532201 0.505372 0.365023
C32 C 1.650(2) 0.5766(17) 0.4260(12)
H30 H 1.639475 0.525062 0.442953
H31 H 1.717420 0.579952 0.401374
C33 C 1.679(3) 0.634(4) 0.4759(18)
H32 H 1.622432 0.617523 0.506279
H33 H 1.662042 0.681716 0.461368
C34 C 1.776(3) 0.6655(16) 0.5150(12)
H34 H 1.761827 0.656894 0.558685
H35 H 1.800620 0.723634 0.514044
H36 H 1.834332 0.638324 0.499510
C35 C 1.233(2) 0.1795(15) 0.1727(12)
H37 H 1.305364 0.214346 0.166045
H38 H 1.189170 0.162234 0.131259
C36 C 1.250(2) 0.1000(14) 0.2027(16)
H39 H 1.287900 0.068134 0.171543
H40 H 1.300675 0.119608 0.241405
C37 C 1.155(4) 0.0475(17) 0.219(2)
H41 H 1.101545 0.030243 0.181179
H42 H 1.119293 0.077968 0.252557
C38 C 1.174(2) -0.0277(13) 0.2424(15)
H43 H 1.159275 -0.073279 0.207129
H44 H 1.125122 -0.040551 0.276482
H45 H 1.251793 -0.017594 0.258784
C39 C 0.9197(16) 0.1696(10) 0.1477(9)
H46 H 0.871035 0.204702 0.165859
H47 H 0.946927 0.145138 0.182302
C40 C 0.8563(16) 0.1043(10) 0.0960(9)
H48 H 0.799385 0.067098 0.115866
H49 H 0.908193 0.072712 0.076671
C41 C 0.7992(18) 0.1337(13) 0.0432(9)
H50 H 0.856147 0.170208 0.022860
H51 H 0.748008 0.165972 0.062579
C42 C 0.733(2) 0.0663(14) -0.0089(11)
H52 H 0.784556 0.041438 -0.034679
H53 H 0.688252 0.089595 -0.036193
H54 H 0.684213 0.025095 0.010994
O1 O 0.8703(9) 0.5956(7) 0.0763(5)
O2 O 0.9758(10) 0.7326(6) 0.1511(5)
O3 O 1.4001(9) 0.7395(7) 0.3811(5)
O4 O 1.4661(9) 0.5973(7) 0.3974(5)
O5 O 1.1762(11) 0.2209(7) 0.2165(6)
O6 O 1.0158(9) 0.2186(6) 0.1187(5)
Te1 Te 0.91824(10) 0.38634(7) 0.08437(5)
Te2 Te 1.19330(10) 0.75851(7) 0.27132(6)
Te3 Te 1.34211(12) 0.39799(9) 0.30966(7)
C43 C 0.8294(13) 0.5239(9) 0.2805(6)
C44 C 0.7959(13) 0.6005(9) 0.2709(7)
C45 C 0.8474(13) 0.6737(10) 0.3118(7)
C46 C 0.9356(13) 0.6750(9) 0.3602(7)
C47 C 0.9659(13) 0.6024(9) 0.3684(6)
C48 C 0.9159(13) 0.5262(9) 0.3278(7)
C49 C 0.7060(12) 0.5932(9) 0.2250(7)
C50 C 0.6761(13) 0.6695(10) 0.2189(7)
C51 C 0.7295(14) 0.7448(10) 0.2590(9)
C52 C 0.8171(13) 0.7471(9) 0.3040(7)
C53 C 0.9790(13) 0.7503(9) 0.4000(7)
C54 C 1.0637(12) 0.7505(9) 0.4479(8)
C55 C 1.0936(13) 0.6774(10) 0.4554(7)
C56 C 1.0470(12) 0.6020(8) 0.4161(7)
C57 C 0.9456(13) 0.4546(9) 0.3391(6)
C58 C 0.8894(13) 0.3793(9) 0.2984(7)
C59 C 0.8047(14) 0.3790(9) 0.2503(7)
C60 C 0.7766(13) 0.4506(8) 0.2412(7)
C61 C 0.4891(18) 0.6122(16) 0.1698(12)
H55 H 0.470673 0.599147 0.212523
H56 H 0.496143 0.561918 0.142174
C62 C 0.3996(17) 0.6439(13) 0.1427(9)
H57 H 0.390410 0.690996 0.173465
H58 H 0.329975 0.601657 0.140655
C63 C 0.4103(19) 0.6699(12) 0.0777(9)
H59 H 0.480850 0.711003 0.078769
H60 H 0.415701 0.622444 0.046107
C64 C 0.3173(19) 0.7047(15) 0.0542(12)
H61 H 0.245714 0.667651 0.057537
H62 H 0.326575 0.711645 0.009733
H63 H 0.319476 0.757340 0.080343
C65 C 0.7416(18) 0.8573(12) 0.2036(10)
H64 H 0.734674 0.818768 0.163239
H65 H 0.821282 0.882561 0.214185
C66 C 0.6782(19) 0.9224(12) 0.1962(10)
H66 H 0.718667 0.958739 0.168353
H67 H 0.676404 0.955309 0.238417
C67 C 0.5592(19) 0.8878(13) 0.1679(11)
H68 H 0.520445 0.848740 0.194263
H69 H 0.561455 0.857702 0.124645
C68 C 0.491(2) 0.9526(17) 0.1638(15)
H70 H 0.508696 0.994240 0.201869
H71 H 0.411564 0.926822 0.160959
H72 H 0.509392 0.977603 0.125886
C69 C 1.2234(13) 0.8640(10) 0.4819(9)
H73 H 1.260962 0.825274 0.457263
H74 H 1.264723 0.884308 0.523823
C70 C 1.2229(18) 0.9355(13) 0.4460(10)
H75 H 1.300602 0.959569 0.437935
H76 H 1.182731 0.913137 0.404012
C71 C 1.173(2) 1.0017(13) 0.4765(11)
H77 H 1.211682 1.022931 0.519158
H78 H 1.094799 0.978152 0.483080
C72 C 1.178(2) 1.0747(17) 0.4404(13)
H79 H 1.251765 1.110747 0.447098
H80 H 1.122659 1.104626 0.456602
H81 H 1.160780 1.054620 0.394792
C73 C 1.2379(17) 0.6261(12) 0.5131(9)
H82 H 1.271781 0.611883 0.472592
H83 H 1.188108 0.576482 0.523238
C74 C 1.3291(17) 0.6621(14) 0.5673(9)
H84 H 1.293108 0.676315 0.607108
H85 H 1.369224 0.620074 0.574052
C75 C 1.4139(17) 0.7379(14) 0.5549(8)
H86 H 1.375764 0.782518 0.553800
H87 H 1.443650 0.725982 0.512726
C76 C 1.5125(16) 0.7662(15) 0.6067(10)
H88 H 1.483768 0.764839 0.649017
H89 H 1.552148 0.821591 0.603691
H90 H 1.563437 0.730010 0.599718
C77 C 0.9814(14) 0.2924(10) 0.3538(7)
H91 H 0.949768 0.309015 0.394537
H92 H 1.057920 0.325424 0.353934
C78 C 0.9811(15) 0.2008(10) 0.3446(8)
H93 H 1.018610 0.187514 0.305259
H94 H 1.026100 0.191600 0.380606
C79 C 0.8705(18) 0.1430(9) 0.3403(9)
H95 H 0.829559 0.144607 0.300172
H96 H 0.827397 0.160673 0.376084
C80 C 0.8791(17) 0.0533(10) 0.3423(10)
H97 H 0.895529 0.028510 0.300094
H98 H 0.808561 0.022281 0.354395
H99 H 0.938551 0.053401 0.373483
C81 C 0.6541(13) 0.2604(9) 0.2401(7)
H100 H 0.606015 0.297118 0.255788
H101 H 0.675824 0.235340 0.275818
C82 C 0.5930(15) 0.1945(10) 0.1848(9)
H102 H 0.643697 0.159643 0.169418
H103 H 0.528609 0.159979 0.201519
C83 C 0.5519(16) 0.2281(11) 0.1285(8)
H104 H 0.616201 0.261805 0.111162
H105 H 0.501663 0.263330 0.143770
C84 C 0.4895(18) 0.1603(14) 0.0742(11)
H106 H 0.539764 0.126597 0.057593
H107 H 0.463803 0.185067 0.039919
H108 H 0.425630 0.126751 0.091019
O7 O 0.5951(9) 0.6737(7) 0.1747(5)
O8 O 0.6954(10) 0.8147(6) 0.2544(5)
O9 O 1.1064(10) 0.8222(6) 0.4912(5)
O10 O 1.1753(9) 0.6880(7) 0.5075(5)
O11 O 0.9128(9) 0.3030(6) 0.2998(5)
O12 O 0.7543(8) 0.3057(6) 0.2128(4)
Te4 Te 0.65260(10) 0.47235(7) 0.17849(5)
Te5 Te 0.91033(11) 0.84205(7) 0.37411(6)
Te6 Te 1.06710(12) 0.48534(8) 0.41123(6)
Se1? Se 0.91824(10) 0.38634(7) 0.08437(5)
Se2? Se 1.19330(10) 0.75851(7) 0.27132(6)
Se3? Se 1.34211(12) 0.39799(9) 0.30966(7)
Se4? Se 0.65260(10) 0.47235(7) 0.17849(5)
Se5? Se 0.91033(11) 0.84205(7) 0.37411(6)
Se6? Se 1.06710(12) 0.48534(8) 0.41123(6)
loop_
_geom_bond_atom_site_label_1
_geom_bond_atom_site_label_2
_geom_bond_site_symmetry_1
_geom_bond_site_symmetry_2
C1 C2 1_555 1_555
C2 C3 1_555 1_555
C3 C4 1_555 1_555
C4 C5 1_555 1_555
C5 C6 1_555 1_555
C6 C1 1_555 1_555
C7 C2 1_555 1_555
C8 C7 1_555 1_555
C9 C8 1_555 1_555
C10 C3 1_555 1_555
C11 C4 1_555 1_555
C12 C11 1_555 1_555
C13 C12 1_555 1_555
C14 C5 1_555 1_555
C15 C6 1_555 1_555
C16 C15 1_555 1_555
C17 C16 1_555 1_555
C18 C1 1_555 1_555
C19 H1 1_555 1_555
H2 C19 1_555 1_555
C20 C19 1_555 1_555
H3 C20 1_555 1_555
H4 C20 1_555 1_555
C21 C20 1_555 1_555
H5 C21 1_555 1_555
H6 C21 1_555 1_555
C22 C21 1_555 1_555
H7 C22 1_555 1_555
H8 C22 1_555 1_555
H9 C22 1_555 1_555
C23 H10 1_555 1_555
H11 C23 1_555 1_555
C24 C23 1_555 1_555
H12 C24 1_555 1_555
H13 C24 1_555 1_555
C25 C24 1_555 1_555
H14 C25 1_555 1_555
H15 C25 1_555 1_555
C26 C25 1_555 1_555
H16 C26 1_555 1_555
H17 C26 1_555 1_555
H18 C26 1_555 1_555
C27 H19 1_555 1_555
H20 C27 1_555 1_555
C28 C27 1_555 1_555
H21 C28 1_555 1_555
H22 C28 1_555 1_555
C29 C28 1_555 1_555
H23 C29 1_555 1_555
H24 C29 1_555 1_555
C30 C29 1_555 1_555
H25 C30 1_555 1_555
H26 C30 1_555 1_555
H27 C30 1_555 1_555
C31 H28 1_555 1_555
H29 C31 1_555 1_555
C32 C31 1_555 1_555
H30 C32 1_555 1_555
H31 C32 1_555 1_555
C33 C32 1_555 1_555
H32 C33 1_555 1_555
H33 C33 1_555 1_555
C34 C33 1_555 1_555
H34 C34 1_555 1_555
H35 C34 1_555 1_555
H36 C34 1_555 1_555
C35 H37 1_555 1_555
H38 C35 1_555 1_555
C36 C35 1_555 1_555
H39 C36 1_555 1_555
H40 C36 1_555 1_555
C37 C36 1_555 1_555
H41 C37 1_555 1_555
H42 C37 1_555 1_555
C38 C37 1_555 1_555
H43 C38 1_555 1_555
H44 C38 1_555 1_555
H45 C38 1_555 1_555
C39 H46 1_555 1_555
H47 C39 1_555 1_555
C40 C39 1_555 1_555
H48 C40 1_555 1_555
H49 C40 1_555 1_555
C41 C40 1_555 1_555
H50 C41 1_555 1_555
H51 C41 1_555 1_555
C42 C41 1_555 1_555
H52 C42 1_555 1_555
H53 C42 1_555 1_555
H54 C42 1_555 1_555
O1 C8 1_555 1_555
O2 C9 1_555 1_555
O3 C12 1_555 1_555
O4 C13 1_555 1_555
O5 C16 1_555 1_555
O6 C17 1_555 1_555
Te1 C7 1_555 1_555
Te2 C10 1_555 1_555
Te3 C14 1_555 1_555
C43 C44 1_555 1_555
C44 C45 1_555 1_555
C45 C46 1_555 1_555
C46 C47 1_555 1_555
C47 C48 1_555 1_555
C48 C43 1_555 1_555
C49 C44 1_555 1_555
C50 C49 1_555 1_555
C51 C50 1_555 1_555
C52 C45 1_555 1_555
C53 C46 1_555 1_555
C54 C53 1_555 1_555
C55 C54 1_555 1_555
C56 C47 1_555 1_555
C57 C48 1_555 1_555
C58 C57 1_555 1_555
C59 C58 1_555 1_555
C60 C43 1_555 1_555
C61 H55 1_555 1_555
H56 C61 1_555 1_555
C62 C61 1_555 1_555
H57 C62 1_555 1_555
H58 C62 1_555 1_555
C63 C62 1_555 1_555
H59 C63 1_555 1_555
H60 C63 1_555 1_555
C64 C63 1_555 1_555
H61 C64 1_555 1_555
H62 C64 1_555 1_555
H63 C64 1_555 1_555
C65 H64 1_555 1_555
H65 C65 1_555 1_555
C66 C65 1_555 1_555
H66 C66 1_555 1_555
H67 C66 1_555 1_555
C67 C66 1_555 1_555
H68 C67 1_555 1_555
H69 C67 1_555 1_555
C68 C67 1_555 1_555
H70 C68 1_555 1_555
H71 C68 1_555 1_555
H72 C68 1_555 1_555
C69 H73 1_555 1_555
H74 C69 1_555 1_555
C70 C69 1_555 1_555
H75 C70 1_555 1_555
H76 C70 1_555 1_555
C71 C70 1_555 1_555
H77 C71 1_555 1_555
H78 C71 1_555 1_555
C72 C71 1_555 1_555
H79 C72 1_555 1_555
H80 C72 1_555 1_555
H81 C72 1_555 1_555
C73 H82 1_555 1_555
H83 C73 1_555 1_555
C74 C73 1_555 1_555
H84 C74 1_555 1_555
H85 C74 1_555 1_555
C75 C74 1_555 1_555
H86 C75 1_555 1_555
H87 C75 1_555 1_555
C76 C75 1_555 1_555
H88 C76 1_555 1_555
H89 C76 1_555 1_555
H90 C76 1_555 1_555
C77 H91 1_555 1_555
H92 C77 1_555 1_555
C78 C77 1_555 1_555
H93 C78 1_555 1_555
H94 C78 1_555 1_555
C79 C78 1_555 1_555
H95 C79 1_555 1_555
H96 C79 1_555 1_555
C80 C79 1_555 1_555
H97 C80 1_555 1_555
H98 C80 1_555 1_555
H99 C80 1_555 1_555
C81 H100 1_555 1_555
H101 C81 1_555 1_555
C82 C81 1_555 1_555
H102 C82 1_555 1_555
H103 C82 1_555 1_555
C83 C82 1_555 1_555
H104 C83 1_555 1_555
H105 C83 1_555 1_555
C84 C83 1_555 1_555
H106 C84 1_555 1_555
H107 C84 1_555 1_555
H108 C84 1_555 1_555
O7 C50 1_555 1_555
O8 C51 1_555 1_555
O9 C54 1_555 1_555
O10 C55 1_555 1_555
O11 C58 1_555 1_555
O12 C59 1_555 1_555
Te4 C49 1_555 1_555
Te5 C52 1_555 1_555
Te6 C56 1_555 1_555
C9 C10 1_555 1_555
C11 Te2 1_555 1_555
C13 C14 1_555 1_555
C15 Te3 1_555 1_555
C17 C18 1_555 1_555
C18 Te1 1_555 1_555
C19 O1 1_555 1_555
C23 O2 1_555 1_555
C27 O3 1_555 1_555
C31 O4 1_555 1_555
C35 O5 1_555 1_555
C39 O6 1_555 1_555
C51 C52 1_555 1_555
C53 Te5 1_555 1_555
C55 C56 1_555 1_555
C57 Te6 1_555 1_555
C59 C60 1_555 1_555
C60 Te4 1_555 1_555
C61 O7 1_555 1_555
C65 O8 1_555 1_555
C69 O9 1_555 1_555
C73 O10 1_555 1_555
C77 O11 1_555 1_555
C81 O12 1_555 1_555

#END
