
#######################################################################
#
#                 Cambridge Crystallographic Data Centre
#                                CCDC 
#
#######################################################################
#
# If this CIF has been generated from an entry in the Cambridge 
# Structural Database, then it will include bibliographic, chemical, 
# crystal, experimental, refinement or atomic coordinate data resulting 
# from the CCDC's data processing and validation procedures.
#
#######################################################################

data_JIXFEE
_chemical_formula_moiety         'C6 H2 F2 N2 S1'
_chemical_name_systematic        5,6-difluoro-2,1,3-benzothiadiazole
_symmetry_cell_setting           triclinic
_symmetry_space_group_name_H-M   'P -1'
_symmetry_Int_Tables_number      2
_space_group_name_Hall           '-P 1'
loop_
_symmetry_equiv_pos_site_id
_symmetry_equiv_pos_as_xyz
1 x,y,z
2 -x,-y,-z
_cell_length_a                   3.7365(2)
_cell_length_b                   6.5826(5)
_cell_length_c                   13.7800(10)
_cell_angle_alpha                77.140(7)
_cell_angle_beta                 83.983(6)
_cell_angle_gamma                73.898(6)
_cell_volume                     317.131
_exptl_crystal_colour            colorless
_exptl_crystal_description       plate
_cell_formula_units_Z            2
loop_
_atom_site_label
_atom_site_type_symbol
_atom_site_fract_x
_atom_site_fract_y
_atom_site_fract_z
S1 S 0.9387(3) 0.28694(17) 0.92988(8)
F1 F 0.2638(8) 1.0406(4) 0.6139(2)
F2 F 0.2617(8) 0.7110(5) 0.5370(2)
N1 N 0.8270(10) 0.5460(7) 0.9021(3)
N2 N 0.8221(11) 0.2335(6) 0.8310(3)
C1 C 0.6851(11) 0.6052(7) 0.8119(3)
C2 C 0.5451(12) 0.8208(7) 0.7584(3)
H1 H 0.5474 0.9399 0.7839
C3 C 0.4092(12) 0.8420(7) 0.6687(3)
C4 C 0.4082(12) 0.6641(8) 0.6272(3)
C5 C 0.5409(12) 0.4566(7) 0.6740(3)
H2 H 0.5395 0.3410 0.6457
C6 C 0.6836(11) 0.4267(7) 0.7700(3)
loop_
_geom_bond_atom_site_label_1
_geom_bond_atom_site_label_2
_geom_bond_site_symmetry_1
_geom_bond_site_symmetry_2
S1 N1 1_555 1_555
F1 C3 1_555 1_555
F2 C4 1_555 1_555
N1 C1 1_555 1_555
N2 S1 1_555 1_555
C1 C2 1_555 1_555
C2 H1 1_555 1_555
C3 C2 1_555 1_555
C4 C3 1_555 1_555
C5 C4 1_555 1_555
H2 C5 1_555 1_555
C6 N2 1_555 1_555
C1 C6 1_555 1_555
C5 C6 1_555 1_555

#END
