
#######################################################################
#
#                 Cambridge Crystallographic Data Centre
#                                CCDC 
#
#######################################################################
#
# If this CIF has been generated from an entry in the Cambridge 
# Structural Database, then it will include bibliographic, chemical, 
# crystal, experimental, refinement or atomic coordinate data resulting 
# from the CCDC's data processing and validation procedures.
#
#######################################################################

data_JIXSUH
_chemical_formula_moiety         'C26 H20 F1 O1 P1'
_chemical_name_systematic        
"[2-([1,1'-biphenyl]-4-yl)-1-fluoroethenyl](oxo)diphenylphosphane"
_symmetry_cell_setting           orthorhombic
_symmetry_space_group_name_H-M   'P b c a'
_symmetry_Int_Tables_number      61
_space_group_name_Hall           '-P 2ac 2ab'
loop_
_symmetry_equiv_pos_site_id
_symmetry_equiv_pos_as_xyz
1 x,y,z
2 1/2-x,-y,1/2+z
3 1/2+x,1/2-y,-z
4 -x,1/2+y,1/2-z
5 -x,-y,-z
6 1/2+x,y,1/2-z
7 1/2-x,1/2+y,z
8 x,1/2-y,1/2+z
_cell_length_a                   11.4298(14)
_cell_length_b                   9.0732(11)
_cell_length_c                   39.943(5)
_cell_angle_alpha                90
_cell_angle_beta                 90
_cell_angle_gamma                90
_cell_volume                     4142.28
_exptl_crystal_colour            colorless
_exptl_crystal_description       block
_cell_formula_units_Z            8
loop_
_atom_site_label
_atom_site_type_symbol
_atom_site_fract_x
_atom_site_fract_y
_atom_site_fract_z
P1 P 0.06426(10) 0.23616(13) 0.17333(3)
F1 F -0.0720(2) 0.1130(3) 0.12692(7)
O1 O 0.1907(3) 0.2437(4) 0.18147(8)
C1 C 0.0429(4) 0.1314(5) 0.13544(11)
C2 C 0.0013(4) 0.4139(5) 0.16478(10)
C3 C 0.0793(4) 0.5300(5) 0.15975(11)
H1 H 0.1592 0.5153 0.1625
C4 C 0.1228(4) -0.0115(5) 0.08581(11)
C5 C 0.1271(4) 0.0775(5) 0.11635(11)
H2 H 0.2023 0.1001 0.1236
C6 C -0.0290(4) 0.1466(5) 0.20325(11)
C7 C -0.0870(4) 0.2234(6) 0.22790(12)
H3 H -0.0807 0.3255 0.2286
C8 C 0.1244(4) -0.1807(5) 0.02618(12)
C9 C -0.1175(4) 0.4388(5) 0.16170(12)
H4 H -0.1699 0.3621 0.1653
C10 C -0.0807(5) 0.6904(6) 0.14738(13)
H5 H -0.1086 0.7829 0.1412
C11 C -0.0384(5) -0.0061(6) 0.20264(13)
H6 H 0.0022 -0.0600 0.1866
C12 C 0.0209(5) -0.0545(7) 0.07029(14)
H7 H -0.0507 -0.0281 0.0796
C13 C 0.0233(5) -0.1364(6) 0.04119(13)
H8 H -0.0475 -0.1626 0.0314
C14 C 0.1255(4) -0.2683(6) -0.00527(12)
C15 C 0.0369(5) 0.6682(6) 0.15052(13)
H9 H 0.0888 0.7452 0.1465
C16 C -0.1588(4) 0.5768(6) 0.15326(13)
H10 H -0.2389 0.5934 0.1515
C17 C -0.1543(5) 0.1515(6) 0.25162(13)
H11 H -0.1917 0.2050 0.2683
C18 C -0.1657(5) -0.0010(6) 0.25033(14)
H12 H -0.2121 -0.0499 0.2659
C19 C -0.1080(6) -0.0787(6) 0.22585(14)
H13 H -0.1156 -0.1806 0.2248
C20 C 0.1249(5) -0.4274(7) -0.06525(15)
H14 H 0.1361 -0.4588 -0.0872
C21 C 0.2242(8) -0.0160(12) 0.0655(2)
H15 H 0.2912 0.0340 0.0723
C22 C 0.0381(8) -0.2601(11) -0.02794(18)
H16 H -0.0238 -0.1963 -0.0236
C23 C 0.2253(9) -0.0938(13) 0.0356(3)
H17 H 0.2905 -0.0902 0.0217
C24 C 0.0355(9) -0.3414(10) -0.0572(2)
H18 H -0.0292 -0.3358 -0.0713
C25 C 0.2051(9) -0.4710(11) -0.03880(19)
H19 H 0.2546 -0.5513 -0.0416
C26 C 0.2063(8) -0.3903(9) -0.0092(2)
H20 H 0.2582 -0.4143 0.0079
H21? H 0.1372 -0.5019 -0.0808
C27? C 0.0435(9) -0.3597(11) -0.0134(2)
H22? H -0.0170 -0.3775 0.0016
C28? C 0.2052(9) -0.2141(12) -0.0331(2)
H23? H 0.2535 -0.1330 -0.0298
C29? C 0.0440(11) -0.4328(13) -0.0444(3)
H24? H -0.0212 -0.4895 -0.0498
C30? C 0.2046(10) -0.2881(13) -0.0636(3)
H25? H 0.2487 -0.2565 -0.0818
C31? C 0.2213(8) -0.1804(10) 0.0483(2)
H26? H 0.2862 -0.2386 0.0435
C32? C 0.2207(8) -0.0943(10) 0.0770(2)
H27? H 0.2868 -0.0919 0.0905
loop_
_geom_bond_atom_site_label_1
_geom_bond_atom_site_label_2
_geom_bond_site_symmetry_1
_geom_bond_site_symmetry_2
P1 O1 1_555 1_555
F1 C1 1_555 1_555
C1 P1 1_555 1_555
C2 P1 1_555 1_555
C3 C2 1_555 1_555
H1 C3 1_555 1_555
C4 C5 1_555 1_555
C5 C1 1_555 1_555
H2 C5 1_555 1_555
C6 P1 1_555 1_555
C7 C6 1_555 1_555
H3 C7 1_555 1_555
C8 C13 1_555 1_555
C9 C2 1_555 1_555
H4 C9 1_555 1_555
C10 H5 1_555 1_555
C11 C6 1_555 1_555
H6 C11 1_555 1_555
C12 C4 1_555 1_555
H7 C12 1_555 1_555
C13 C12 1_555 1_555
H8 C13 1_555 1_555
C14 C8 1_555 1_555
C15 C3 1_555 1_555
H9 C15 1_555 1_555
C16 C9 1_555 1_555
H10 C16 1_555 1_555
C17 C7 1_555 1_555
H11 C17 1_555 1_555
C18 C17 1_555 1_555
H12 C18 1_555 1_555
C19 C11 1_555 1_555
H13 C19 1_555 1_555
C20 H14 1_555 1_555
C21 C4 1_555 1_555
H15 C21 1_555 1_555
C22 C14 1_555 1_555
H16 C22 1_555 1_555
C23 C8 1_555 1_555
H17 C23 1_555 1_555
C24 C20 1_555 1_555
H18 C24 1_555 1_555
C25 C20 1_555 1_555
H19 C25 1_555 1_555
C26 C14 1_555 1_555
H20 C26 1_555 1_555
C10 C15 1_555 1_555
C10 C16 1_555 1_555
C18 C19 1_555 1_555
C21 C23 1_555 1_555
C22 C24 1_555 1_555
C25 C26 1_555 1_555

#END
