
#######################################################################
#
#                 Cambridge Crystallographic Data Centre
#                                CCDC 
#
#######################################################################
#
# If this CIF has been generated from an entry in the Cambridge 
# Structural Database, then it will include bibliographic, chemical, 
# crystal, experimental, refinement or atomic coordinate data resulting 
# from the CCDC's data processing and validation procedures.
#
#######################################################################

data_JIYMIQ
_chemical_formula_moiety         'C38 H27 F3 N1 O2 P1'
_chemical_name_systematic        
N-{2'-[bis([1,1'-biphenyl]-4-yl)phosphoryl][1,1'-biphenyl]-2-yl}-2,2,2-trifluoroacetamide
_symmetry_cell_setting           triclinic
_symmetry_space_group_name_H-M   'P -1'
_symmetry_Int_Tables_number      2
_space_group_name_Hall           '-P 1'
loop_
_symmetry_equiv_pos_site_id
_symmetry_equiv_pos_as_xyz
1 x,y,z
2 -x,-y,-z
_cell_length_a                   10.9406(12)
_cell_length_b                   11.1093(13)
_cell_length_c                   13.7918(15)
_cell_angle_alpha                86.048(4)
_cell_angle_beta                 88.691(4)
_cell_angle_gamma                63.540(3)
_cell_volume                     1497.06
_exptl_crystal_colour            brown
_exptl_crystal_description       parallelepiped
_cell_formula_units_Z            2
loop_
_atom_site_label
_atom_site_type_symbol
_atom_site_fract_x
_atom_site_fract_y
_atom_site_fract_z
P1 P 0.19153(7) 0.50539(7) 0.23414(5)
F1 F -0.2496(2) 0.6099(2) 0.22165(19)
F2 F -0.2453(3) 0.4584(3) 0.13236(14)
F3 F -0.37084(19) 0.5087(2) 0.25710(16)
O1 O 0.05852(18) 0.59041(18) 0.28105(13)
O2 O -0.1278(2) 0.2663(2) 0.28790(16)
N1 N -0.0546(2) 0.4195(2) 0.33039(17)
H1 H -0.058(4) 0.498(4) 0.311(3)
C1 C 0.2343(3) 0.6065(3) 0.14437(18)
C2 C 0.1270(3) 0.7224(3) 0.1027(2)
H2 H 0.0358 0.7454 0.1221
C3 C 0.1529(3) 0.8039(3) 0.0331(2)
H3 H 0.0788 0.8822 0.0052
C4 C 0.2860(3) 0.7736(3) 0.00317(18)
C5 C 0.3929(3) 0.6583(3) 0.04659(19)
H4 H 0.4844 0.6364 0.0287
C6 C 0.3672(3) 0.5753(3) 0.11533(19)
H5 H 0.4411 0.4965 0.1429
C7 C 0.3114(3) 0.8641(3) -0.07051(18)
C8 C 0.2172(3) 0.9322(3) -0.1457(2)
H6 H 0.1394 0.9163 -0.1520
C9 C 0.2363(3) 1.0226(3) -0.2110(2)
H7 H 0.1705 1.0698 -0.2609
C10 C 0.3506(3) 1.0446(3) -0.2042(2)
H8 H 0.3632 1.1067 -0.2491
C11 C 0.4462(3) 0.9756(3) -0.1317(2)
H9 H 0.5256 0.9893 -0.1274
C12 C 0.4267(3) 0.8863(3) -0.0650(2)
H10 H 0.4926 0.8399 -0.0151
C13 C 0.3318(3) 0.4263(3) 0.31891(18)
C14 C 0.4549(3) 0.3176(3) 0.29715(19)
H11 H 0.4687 0.2850 0.2340
C15 C 0.5573(3) 0.2567(3) 0.36675(19)
H12 H 0.6411 0.1836 0.3504
C16 C 0.5389(3) 0.3014(3) 0.46076(18)
C17 C 0.4158(3) 0.4113(3) 0.48183(19)
H13 H 0.4018 0.4438 0.5451
C18 C 0.3140(3) 0.4738(3) 0.41182(19)
H14 H 0.2316 0.5493 0.4272
C19 C 0.6481(3) 0.2354(3) 0.53672(19)
C20 C 0.7854(3) 0.1814(3) 0.5121(2)
H15 H 0.8107 0.1831 0.4458
C21 C 0.8862(3) 0.1246(3) 0.5840(2)
H16 H 0.9798 0.0872 0.5663
C22 C 0.8513(3) 0.1223(3) 0.6804(2)
H17 H 0.9202 0.0848 0.7294
C23 C 0.7147(3) 0.1752(3) 0.7053(2)
H18 H 0.6902 0.1735 0.7717
C24 C 0.6139(3) 0.2304(3) 0.6346(2)
H19 H 0.5206 0.2653 0.6527
C25 C 0.1874(3) 0.3694(3) 0.16975(19)
C26 C 0.1858(3) 0.3784(3) 0.06837(19)
H20 H 0.1894 0.4540 0.0342
C27 C 0.1790(3) 0.2782(3) 0.0164(2)
H21 H 0.1786 0.2850 -0.0526
C28 C 0.1728(3) 0.1692(3) 0.0660(2)
H22 H 0.1683 0.1006 0.0309
C29 C 0.1731(3) 0.1591(3) 0.1665(2)
H23 H 0.1681 0.0835 0.1997
C30 C 0.1806(3) 0.2574(3) 0.2202(2)
C31 C 0.1798(3) 0.2408(3) 0.3290(2)
C32 C 0.2923(3) 0.1423(3) 0.3807(2)
H24 H 0.3695 0.0827 0.3464
C33 C 0.2927(3) 0.1305(3) 0.4816(2)
H25 H 0.3695 0.0626 0.5159
C34 C 0.1815(3) 0.2174(4) 0.5321(2)
H26 H 0.1836 0.2118 0.6012
C35 C 0.0671(3) 0.3125(3) 0.4826(2)
H27 H -0.0103 0.3707 0.5175
C36 C 0.0655(3) 0.3226(3) 0.3819(2)
C37 C -0.1350(3) 0.3787(3) 0.2845(2)
C38 C -0.2494(3) 0.4901(3) 0.2230(2)
loop_
_geom_bond_atom_site_label_1
_geom_bond_atom_site_label_2
_geom_bond_site_symmetry_1
_geom_bond_site_symmetry_2
P1 O1 1_555 1_555
F1 C38 1_555 1_555
F2 C38 1_555 1_555
F3 C38 1_555 1_555
O2 C37 1_555 1_555
N1 H1 1_555 1_555
C1 P1 1_555 1_555
C2 C1 1_555 1_555
H2 C2 1_555 1_555
C3 C2 1_555 1_555
H3 C3 1_555 1_555
C4 C3 1_555 1_555
C5 C4 1_555 1_555
H4 C5 1_555 1_555
C6 C1 1_555 1_555
H5 C6 1_555 1_555
C7 C4 1_555 1_555
C8 C7 1_555 1_555
H6 C8 1_555 1_555
C9 C8 1_555 1_555
H7 C9 1_555 1_555
C10 C9 1_555 1_555
H8 C10 1_555 1_555
C11 C10 1_555 1_555
H9 C11 1_555 1_555
C12 C7 1_555 1_555
H10 C12 1_555 1_555
C13 P1 1_555 1_555
C14 C13 1_555 1_555
H11 C14 1_555 1_555
C15 C14 1_555 1_555
H12 C15 1_555 1_555
C16 C15 1_555 1_555
C17 C16 1_555 1_555
H13 C17 1_555 1_555
C18 C13 1_555 1_555
H14 C18 1_555 1_555
C19 C16 1_555 1_555
C20 C19 1_555 1_555
H15 C20 1_555 1_555
C21 C20 1_555 1_555
H16 C21 1_555 1_555
C22 C21 1_555 1_555
H17 C22 1_555 1_555
C23 C22 1_555 1_555
H18 C23 1_555 1_555
C24 C19 1_555 1_555
H19 C24 1_555 1_555
C25 P1 1_555 1_555
C26 C25 1_555 1_555
H20 C26 1_555 1_555
C27 C26 1_555 1_555
H21 C27 1_555 1_555
C28 C27 1_555 1_555
H22 C28 1_555 1_555
C29 C28 1_555 1_555
H23 C29 1_555 1_555
C30 C25 1_555 1_555
C31 C30 1_555 1_555
C32 C31 1_555 1_555
H24 C32 1_555 1_555
C33 C32 1_555 1_555
H25 C33 1_555 1_555
C34 C33 1_555 1_555
H26 C34 1_555 1_555
C35 C34 1_555 1_555
H27 C35 1_555 1_555
C36 N1 1_555 1_555
C37 N1 1_555 1_555
C38 C37 1_555 1_555
C5 C6 1_555 1_555
C11 C12 1_555 1_555
C17 C18 1_555 1_555
C23 C24 1_555 1_555
C29 C30 1_555 1_555
C31 C36 1_555 1_555
C35 C36 1_555 1_555

#END
