
#######################################################################
#
#                 Cambridge Crystallographic Data Centre
#                                CCDC 
#
#######################################################################
#
# If this CIF has been generated from an entry in the Cambridge 
# Structural Database, then it will include bibliographic, chemical, 
# crystal, experimental, refinement or atomic coordinate data resulting 
# from the CCDC's data processing and validation procedures.
#
#######################################################################

data_JIZHIJ
_chemical_formula_moiety         'C26 H30 N4 4+,4(Cl1 O4 1-)'
_chemical_name_systematic        
"1',1'''-Dimethyl-1',1''-tetramethylenedi(4,4'-bipyridinium) tetraperchlorate"
_symmetry_cell_setting           orthorhombic
_symmetry_space_group_name_H-M   'P b c a'
_symmetry_Int_Tables_number      61
_space_group_name_Hall           '-P 2ac 2ab'
loop_
_symmetry_equiv_pos_site_id
_symmetry_equiv_pos_as_xyz
1 x,y,z
2 1/2-x,1/2+y,z
3 x,1/2-y,1/2+z
4 1/2-x,-y,1/2+z
5 -x,-y,-z
6 1/2+x,1/2-y,-z
7 -x,1/2+y,1/2-z
8 1/2+x,y,1/2-z
_cell_length_a                   9.791(2)
_cell_length_b                   15.908(4)
_cell_length_c                   21.288(5)
_cell_angle_alpha                90
_cell_angle_beta                 90
_cell_angle_gamma                90
_cell_volume                     3315.72
_exptl_crystal_colour            yellow
_cell_formula_units_Z            4
loop_
_atom_site_label
_atom_site_type_symbol
_atom_site_fract_x
_atom_site_fract_y
_atom_site_fract_z
Cl1 Cl 0.1311(1) 0.03338(7) 0.67162(5)
O1 O 0.0364(5) 0.0925(3) 0.6476(2)
O2 O 0.2393(4) 0.0257(2) 0.6282(2)
O3 O 0.1793(5) 0.0617(3) 0.7304(2)
O4 O 0.0661(4) -0.0458(2) 0.6801(2)
Cl2 Cl 0.6671(1) 0.23919(7) 0.58763(5)
O5 O 0.6102(5) 0.3070(2) 0.6211(2)
O6 O 0.7822(5) 0.2117(3) 0.6218(2)
O7 O 0.5758(4) 0.1696(2) 0.5843(2)
O8 O 0.7020(6) 0.2627(3) 0.5275(2)
N1 N -0.8058(3) -0.2502(2) 0.7027(2)
N2 N -0.2888(3) -0.0138(2) 0.5608(2)
C1 C -0.9104(5) -0.3051(3) 0.7325(2)
C2 C -0.7356(5) -0.1953(3) 0.7366(2)
C3 C -0.6373(5) -0.1471(3) 0.7109(2)
C4 C -0.6063(4) -0.1538(2) 0.6476(2)
C5 C -0.6824(6) -0.2100(3) 0.6137(2)
C6 C -0.7805(6) -0.2560(3) 0.6415(2)
C7 C -0.4950(4) -0.1030(2) 0.6175(2)
C8 C -0.4693(5) -0.1103(3) 0.5537(2)
C9 C -0.3676(6) -0.0654(3) 0.5272(2)
C10 C -0.3111(5) -0.0056(3) 0.6229(2)
C11 C -0.4124(5) -0.0491(3) 0.6513(2)
C12 C -0.1755(5) 0.0322(3) 0.5297(2)
C13 C -0.0565(4) -0.0247(3) 0.5159(2)
H1 H -0.919 -0.290 0.777
H2 H -0.900 -0.366 0.715
H3 H -0.990 -0.301 0.715
H4 H -0.761 -0.186 0.774
H5 H -0.602 -0.115 0.734
H6 H -0.664 -0.219 0.575
H7 H -0.821 -0.295 0.620
H8 H -0.515 -0.138 0.531
H9 H -0.353 -0.068 0.485
H10 H -0.247 0.030 0.644
H11 H -0.426 -0.041 0.689
H12 H -0.157 0.077 0.556
H13 H -0.212 0.060 0.489
H14 H -0.029 -0.053 0.550
H15 H -0.088 -0.069 0.492
C13D C 0.0565(4) 0.0247(3) 0.4841(2)
C12D C 0.1755(5) -0.0322(3) 0.4703(2)
H14D H 0.029 0.053 0.450
H15D H 0.088 0.069 0.508
N2D N 0.2888(3) 0.0138(2) 0.4392(2)
H12D H 0.157 -0.077 0.444
H13D H 0.212 -0.060 0.511
C9D C 0.3676(6) 0.0654(3) 0.4728(2)
C10D C 0.3111(5) 0.0056(3) 0.3771(2)
C8D C 0.4693(5) 0.1103(3) 0.4463(2)
H9D H 0.353 0.068 0.515
C11D C 0.4124(5) 0.0491(3) 0.3487(2)
H10D H 0.247 -0.030 0.356
C7D C 0.4950(4) 0.1030(2) 0.3825(2)
H8D H 0.515 0.138 0.469
H11D H 0.426 0.041 0.311
C4D C 0.6063(4) 0.1538(2) 0.3524(2)
C3D C 0.6373(5) 0.1471(3) 0.2891(2)
C5D C 0.6824(6) 0.2100(3) 0.3863(2)
C2D C 0.7356(5) 0.1953(3) 0.2634(2)
H5D H 0.602 0.115 0.266
C6D C 0.7805(6) 0.2560(3) 0.3585(2)
H6D H 0.664 0.219 0.425
N1D N 0.8058(3) 0.2502(2) 0.2973(2)
H4D H 0.761 0.186 0.226
H7D H 0.821 0.295 0.380
C1D C 0.9104(5) 0.3051(3) 0.2675(2)
H1D H 0.919 0.290 0.223
H2D H 0.900 0.366 0.285
H3D H 0.990 0.301 0.285
loop_
_geom_bond_atom_site_label_1
_geom_bond_atom_site_label_2
_geom_bond_site_symmetry_1
_geom_bond_site_symmetry_2
Cl1 O1 1_555 1_555
Cl2 O5 1_555 1_555
O2 Cl1 1_555 1_555
O3 Cl1 1_555 1_555
O4 Cl1 1_555 1_555
O6 Cl2 1_555 1_555
O7 Cl2 1_555 1_555
O8 Cl2 1_555 1_555
N1 C1 1_555 1_555
N2 C9 1_555 1_555
C1 H1 1_555 1_555
C2 N1 1_555 1_555
C3 C2 1_555 1_555
C4 C3 1_555 1_555
C5 C4 1_555 1_555
C6 N1 1_555 1_555
C7 C4 1_555 1_555
C8 C7 1_555 1_555
C9 C8 1_555 1_555
C10 N2 1_555 1_555
C11 C7 1_555 1_555
C12 N2 1_555 1_555
C13 C12 1_555 1_555
H2 C1 1_555 1_555
H3 C1 1_555 1_555
H4 C2 1_555 1_555
H5 C3 1_555 1_555
H6 C5 1_555 1_555
H7 C6 1_555 1_555
H8 C8 1_555 1_555
H9 C9 1_555 1_555
H10 C10 1_555 1_555
H11 C11 1_555 1_555
H12 C12 1_555 1_555
H13 C12 1_555 1_555
H14 C13 1_555 1_555
H15 C13 1_555 1_555
C13D C13 1_555 1_555
C12D C13D 1_555 1_555
H14D C13D 1_555 1_555
H15D C13D 1_555 1_555
N2D C12D 1_555 1_555
H12D C12D 1_555 1_555
H13D C12D 1_555 1_555
C9D N2D 1_555 1_555
C10D N2D 1_555 1_555
C8D C9D 1_555 1_555
H9D C9D 1_555 1_555
C11D C10D 1_555 1_555
H10D C10D 1_555 1_555
C7D C8D 1_555 1_555
H8D C8D 1_555 1_555
H11D C11D 1_555 1_555
C4D C7D 1_555 1_555
C3D C4D 1_555 1_555
C5D C4D 1_555 1_555
C2D C3D 1_555 1_555
H5D C3D 1_555 1_555
C6D C5D 1_555 1_555
H6D C5D 1_555 1_555
N1D C2D 1_555 1_555
H4D C2D 1_555 1_555
H7D C6D 1_555 1_555
C1D N1D 1_555 1_555
H1D C1D 1_555 1_555
H2D C1D 1_555 1_555
H3D C1D 1_555 1_555
C5 C6 1_555 1_555
C10 C11 1_555 1_555
C11D C7D 1_555 1_555
C6D N1D 1_555 1_555

#END
