
#######################################################################
#
#                 Cambridge Crystallographic Data Centre
#                                CCDC 
#
#######################################################################
#
# If this CIF has been generated from an entry in the Cambridge 
# Structural Database, then it will include bibliographic, chemical, 
# crystal, experimental, refinement or atomic coordinate data resulting 
# from the CCDC's data processing and validation procedures.
#
#######################################################################

data_JODHUH
_chemical_formula_moiety         'C7 H8 Cl1 N1 O2 S1'
_chemical_name_systematic        N-chloro-N-methylbenzenesulfonamide
_symmetry_cell_setting           monoclinic
_symmetry_space_group_name_H-M   'P 21/c'
_symmetry_Int_Tables_number      14
_space_group_name_Hall           '-P 2ybc'
loop_
_symmetry_equiv_pos_site_id
_symmetry_equiv_pos_as_xyz
1 x,y,z
2 -x,1/2+y,1/2-z
3 -x,-y,-z
4 x,1/2-y,1/2+z
_cell_length_a                   10.1032(14)
_cell_length_b                   8.1016(11)
_cell_length_c                   11.0481(16)
_cell_angle_alpha                90
_cell_angle_beta                 105.725(4)
_cell_angle_gamma                90
_cell_volume                     870.465
_exptl_crystal_colour            colorless
_exptl_crystal_description       plate
_cell_formula_units_Z            4
loop_
_atom_site_label
_atom_site_type_symbol
_atom_site_fract_x
_atom_site_fract_y
_atom_site_fract_z
Cl1 Cl 0.48240(5) 0.55766(6) 0.27704(4)
S1 S 0.75428(5) 0.67448(5) 0.36516(4)
O1 O 0.76238(14) 0.61913(16) 0.24453(12)
O2 O 0.82447(14) 0.82099(15) 0.42034(13)
N1 N 0.58708(16) 0.71975(18) 0.34812(14)
C1 C 0.79884(18) 0.5105(2) 0.47284(16)
C2 C 0.84856(19) 0.5442(2) 0.60043(17)
H1 H 0.8588 0.6549 0.6299
C3 C 0.88283(19) 0.4137(2) 0.68376(17)
H2 H 0.9165 0.4345 0.7714
C4 C 0.86809(18) 0.2523(2) 0.63960(17)
H3 H 0.8932 0.1632 0.6972
C5 C 0.81709(19) 0.2201(2) 0.51208(18)
H4 H 0.8069 0.1094 0.4828
C6 C 0.78102(19) 0.3491(2) 0.42739(17)
H5 H 0.7448 0.3281 0.3401
C7 C 0.5525(2) 0.7727(2) 0.46497(18)
H6 H 0.6171 0.8585 0.5071
H7 H 0.5591 0.6778 0.5213
H8 H 0.4587 0.8167 0.4435
loop_
_geom_bond_atom_site_label_1
_geom_bond_atom_site_label_2
_geom_bond_site_symmetry_1
_geom_bond_site_symmetry_2
Cl1 N1 1_555 1_555
S1 O1 1_555 1_555
O2 S1 1_555 1_555
N1 S1 1_555 1_555
C1 S1 1_555 1_555
C2 C1 1_555 1_555
H1 C2 1_555 1_555
C3 C2 1_555 1_555
H2 C3 1_555 1_555
C4 C3 1_555 1_555
H3 C4 1_555 1_555
C5 C4 1_555 1_555
H4 C5 1_555 1_555
C6 C1 1_555 1_555
H5 C6 1_555 1_555
C7 N1 1_555 1_555
H6 C7 1_555 1_555
H7 C7 1_555 1_555
H8 C7 1_555 1_555
C5 C6 1_555 1_555

#END
