
#######################################################################
#
#                 Cambridge Crystallographic Data Centre
#                                CCDC 
#
#######################################################################
#
# If this CIF has been generated from an entry in the Cambridge 
# Structural Database, then it will include bibliographic, chemical, 
# crystal, experimental, refinement or atomic coordinate data resulting 
# from the CCDC's data processing and validation procedures.
#
#######################################################################

data_JODSAX
_chemical_formula_moiety         'C17 H16 Br2 N2 O2'
_chemical_name_systematic        
3,3'-Dibromo-1,1'-((propane-1,3-diyldioxy)bis(nitrilomethylidyne))dibenzene
_symmetry_cell_setting           monoclinic
_symmetry_space_group_name_H-M   'C 2/c'
_symmetry_Int_Tables_number      15
_space_group_name_Hall           '-C 2yn'
loop_
_symmetry_equiv_pos_site_id
_symmetry_equiv_pos_as_xyz
1 x,y,z
2 1/2+x,1/2+y,z
3 -x,y,1/2-z
4 1/2-x,1/2+y,1/2-z
5 -x,-y,-z
6 1/2-x,1/2-y,-z
7 x,-y,1/2+z
8 1/2+x,1/2-y,1/2+z
_cell_length_a                   24.397(3)
_cell_length_b                   4.4848(4)
_cell_length_c                   17.189(2)
_cell_angle_alpha                90
_cell_angle_beta                 114.009(2)
_cell_angle_gamma                90
_cell_volume                     1718.03
_exptl_crystal_colour            colorless
_exptl_crystal_description       needle
_cell_formula_units_Z            4
_exptl_crystal_recrystallization_method 'methanol/tetrahydrofuran/ethyl acetate'
loop_
_atom_site_label
_atom_site_type_symbol
_atom_site_fract_x
_atom_site_fract_y
_atom_site_fract_z
Br1 Br 0.78652(2) 1.12437(15) 0.11896(3)
O1 O 0.53639(12) 0.3149(7) -0.13426(18)
N1 N 0.58506(15) 0.4899(10) -0.0798(2)
C1 C 0.5538(2) 0.1605(10) -0.1934(3)
H1 H 0.5876 0.0299 -0.1635
H2 H 0.5653 0.3011 -0.2270
C2 C 0.5000 -0.0186(16) -0.2500
H3 H 0.4880 -0.1465 -0.2142
H4 H 0.5120 -0.1465 -0.2858
C3 C 0.5704(2) 0.6276(10) -0.0265(3)
H5 H 0.5317 0.6039 -0.0296
C4 C 0.6117(2) 0.8206(10) 0.0390(3)
C5 C 0.6701(2) 0.8759(10) 0.0463(3)
H6 H 0.6836 0.7885 0.0083
C6 C 0.7070(2) 1.0573(11) 0.1091(3)
C7 C 0.6887(2) 1.1924(12) 0.1666(3)
H7 H 0.7144 1.3178 0.2087
C8 C 0.6313(3) 1.1373(11) 0.1600(3)
H8 H 0.6185 1.2245 0.1988
C9 C 0.5930(2) 0.9556(12) 0.0972(3)
H9 H 0.5544 0.9222 0.0935
Br1B Br 0.21348(2) 1.12437(15) -0.61896(3)
O1B O 0.46361(12) 0.3149(7) -0.36574(18)
N1B N 0.41494(15) 0.4899(10) -0.4202(2)
C1B C 0.4462(2) 0.1605(10) -0.3066(3)
H1B H 0.4124 0.0299 -0.3365
H2B H 0.4347 0.3011 -0.2730
C3B C 0.4296(2) 0.6276(10) -0.4735(3)
H5B H 0.4683 0.6039 -0.4704
C4B C 0.3883(2) 0.8206(10) -0.5390(3)
C5B C 0.3299(2) 0.8759(10) -0.5463(3)
H6B H 0.3164 0.7885 -0.5083
C6B C 0.2930(2) 1.0573(11) -0.6091(3)
C7B C 0.3113(2) 1.1924(12) -0.6666(3)
H7B H 0.2856 1.3178 -0.7087
C8B C 0.3687(3) 1.1373(11) -0.6600(3)
H8B H 0.3815 1.2245 -0.6988
C9B C 0.4070(2) 0.9556(12) -0.5972(3)
H9B H 0.4456 0.9222 -0.5935
loop_
_geom_bond_atom_site_label_1
_geom_bond_atom_site_label_2
_geom_bond_site_symmetry_1
_geom_bond_site_symmetry_2
Br1 C6 1_555 1_555
O1 N1 1_555 1_555
N1 C3 1_555 1_555
C1 O1 1_555 1_555
H1 C1 1_555 1_555
H2 C1 1_555 1_555
C2 C1 1_555 1_555
H3 C2 1_555 1_555
H4 C2 1_555 1_555
C3 H5 1_555 1_555
C4 C3 1_555 1_555
C5 C4 1_555 1_555
H6 C5 1_555 1_555
C6 C5 1_555 1_555
C7 C6 1_555 1_555
H7 C7 1_555 1_555
C8 C7 1_555 1_555
H8 C8 1_555 1_555
C9 C4 1_555 1_555
H9 C9 1_555 1_555
Br1B C6B 1_555 1_555
O1B N1B 1_555 1_555
N1B C3B 1_555 1_555
C1B C2 1_555 1_555
H1B C1B 1_555 1_555
H2B C1B 1_555 1_555
C3B H5B 1_555 1_555
C4B C3B 1_555 1_555
C5B C4B 1_555 1_555
H6B C5B 1_555 1_555
C6B C5B 1_555 1_555
C7B C6B 1_555 1_555
H7B C7B 1_555 1_555
C8B C7B 1_555 1_555
H8B C8B 1_555 1_555
C9B C4B 1_555 1_555
H9B C9B 1_555 1_555
C8 C9 1_555 1_555
O1B C1B 1_555 1_555
C8B C9B 1_555 1_555

#END
