
#######################################################################
#
#                 Cambridge Crystallographic Data Centre
#                                CCDC 
#
#######################################################################
#
# If this CIF has been generated from an entry in the Cambridge 
# Structural Database, then it will include bibliographic, chemical, 
# crystal, experimental, refinement or atomic coordinate data resulting 
# from the CCDC's data processing and validation procedures.
#
#######################################################################

data_JOFFEQ
_chemical_formula_moiety         'C19 H12 N4 O1,H2 O1'
_chemical_name_systematic        
'2-(1H-Imidazo(4,5-f)(1,10)phenanthrolin-2-yl)phenol monohydrate'
_symmetry_cell_setting           monoclinic
_symmetry_space_group_name_H-M   'P 21/c'
_symmetry_Int_Tables_number      14
_space_group_name_Hall           '-P 2ybc'
loop_
_symmetry_equiv_pos_site_id
_symmetry_equiv_pos_as_xyz
1 x,y,z
2 -x,1/2+y,1/2-z
3 -x,-y,-z
4 x,1/2-y,1/2+z
_cell_length_a                   4.5272(9)
_cell_length_b                   19.822(4)
_cell_length_c                   16.956(3)
_cell_angle_alpha                90
_cell_angle_beta                 94.15(3)
_cell_angle_gamma                90
_cell_volume                     1517.61
_exptl_crystal_colour            'pale yellow'
_exptl_crystal_description       block
_cell_formula_units_Z            4
_exptl_crystal_recrystallization_method dichloromethane
loop_
_atom_site_label
_atom_site_type_symbol
_atom_site_fract_x
_atom_site_fract_y
_atom_site_fract_z
C1 C 0.8402(11) 0.1329(2) 1.0945(2)
H1 H 0.9502 0.1313 1.1429
C2 C 0.6283(11) 0.0844(3) 1.0794(2)
H2 H 0.5933 0.0519 1.1172
C3 C 0.4704(10) 0.0846(2) 1.0080(2)
H3 H 0.3234 0.0526 0.9964
C4 C 0.5324(9) 0.1337(2) 0.9525(2)
C5 C 0.7451(9) 0.1833(2) 0.9742(2)
C6 C 0.8102(9) 0.2370(2) 0.9201(2)
C7 C 1.0598(11) 0.3337(2) 0.8980(3)
H4 H 1.1926 0.3669 0.9163
C8 C 0.6649(9) 0.2387(2) 0.8427(2)
C9 C 0.3919(9) 0.1377(2) 0.8750(2)
C10 C 0.4603(9) 0.1867(2) 0.8232(2)
C11 C 0.1276(9) 0.1180(2) 0.7673(2)
C12 C -0.0845(9) 0.0871(2) 0.7108(2)
C13 C -0.2259(10) 0.0279(2) 0.7296(3)
C14 C -0.4299(11) -0.0019(3) 0.6760(3)
H5 H -0.5268 -0.0411 0.6895
C15 C -0.4894(11) 0.0265(3) 0.6030(3)
H6 H -0.6268 0.0062 0.5671
C16 C -0.1476(10) 0.1140(2) 0.6352(2)
H7 H -0.0506 0.1529 0.6205
C17 C -0.3502(11) 0.0840(3) 0.5825(3)
H8 H -0.3924 0.1028 0.5327
C18 C 0.9353(10) 0.3391(2) 0.8210(2)
H9 H 0.9871 0.3745 0.7887
C19 C 0.7362(10) 0.2917(2) 0.7935(2)
H10 H 0.6485 0.2946 0.7423
O1 O -0.1730(7) -0.00281(16) 0.80052(18)
H11 H -0.0499 0.0189 0.8278
N1 N 1.0015(8) 0.28440(19) 0.94675(19)
N2 N 0.9002(8) 0.18203(19) 1.04526(18)
N3 N 0.1823(7) 0.09440(17) 0.84045(18)
N4 N 0.2873(7) 0.17430(17) 0.75510(17)
H12 H 0.2814 0.1979 0.7125
O2 O 0.3484(8) 0.24505(18) 0.61814(17)
H13 H 0.195(7) 0.257(2) 0.588(2)
H14 H 0.444(9) 0.219(2) 0.590(2)
loop_
_geom_bond_atom_site_label_1
_geom_bond_atom_site_label_2
_geom_bond_site_symmetry_1
_geom_bond_site_symmetry_2
C1 H1 1_555 1_555
C2 C1 1_555 1_555
H2 C2 1_555 1_555
C3 C2 1_555 1_555
H3 C3 1_555 1_555
C4 C3 1_555 1_555
C5 C4 1_555 1_555
C6 C5 1_555 1_555
C7 H4 1_555 1_555
C8 C6 1_555 1_555
C9 C4 1_555 1_555
C10 C8 1_555 1_555
C11 C12 1_555 1_555
C12 C13 1_555 1_555
C13 C14 1_555 1_555
C14 H5 1_555 1_555
C15 C14 1_555 1_555
H6 C15 1_555 1_555
C16 C12 1_555 1_555
H7 C16 1_555 1_555
C17 C15 1_555 1_555
H8 C17 1_555 1_555
C18 C7 1_555 1_555
H9 C18 1_555 1_555
C19 C8 1_555 1_555
H10 C19 1_555 1_555
O1 C13 1_555 1_555
H11 O1 1_555 1_555
N1 C6 1_555 1_555
N2 C1 1_555 1_555
N3 C9 1_555 1_555
N4 C10 1_555 1_555
H12 N4 1_555 1_555
O2 H13 1_555 1_555
H14 O2 1_555 1_555
C5 N2 1_555 1_555
C7 N1 1_555 1_555
C9 C10 1_555 1_555
C11 N3 1_555 1_555
C11 N4 1_555 1_555
C16 C17 1_555 1_555
C18 C19 1_555 1_555

#END
