
#######################################################################
#
#                 Cambridge Crystallographic Data Centre
#                                CCDC 
#
#######################################################################
#
# If this CIF has been generated from an entry in the Cambridge 
# Structural Database, then it will include bibliographic, chemical, 
# crystal, experimental, refinement or atomic coordinate data resulting 
# from the CCDC's data processing and validation procedures.
#
#######################################################################

data_JOGZAI
_chemical_formula_moiety         'C20 H12 N4 O1'
_chemical_name_systematic        
3-Phenyl-2-oxatricyclo[5.2.2.0^1,5^]undeca-3,5-diene-8,8,9,9-tetracarbonitrile
_symmetry_cell_setting           monoclinic
_symmetry_space_group_name_H-M   'P 21/c'
_symmetry_Int_Tables_number      14
_space_group_name_Hall           '-P 2ybc'
loop_
_symmetry_equiv_pos_site_id
_symmetry_equiv_pos_as_xyz
1 x,y,z
2 -x,1/2+y,1/2-z
3 -x,-y,-z
4 x,1/2-y,1/2+z
_cell_length_a                   12.7603(7)
_cell_length_b                   10.5583(6)
_cell_length_c                   12.8913(7)
_cell_angle_alpha                90
_cell_angle_beta                 113.664(2)
_cell_angle_gamma                90
_cell_volume                     1590.77
_exptl_crystal_colour            colorless
_exptl_crystal_description       block
_cell_formula_units_Z            4
loop_
_atom_site_label
_atom_site_type_symbol
_atom_site_fract_x
_atom_site_fract_y
_atom_site_fract_z
O1 O 0.68521(9) 0.49036(10) 0.01387(8)
N1 N 0.51287(14) 0.26796(16) 0.10823(13)
N2 N 0.61332(16) 0.3193(2) 0.40156(15)
N3 N 0.95835(17) 0.2957(2) 0.43591(14)
N4 N 0.86018(14) 0.23317(17) 0.14330(14)
C1 C 0.86054(17) 0.57804(18) -0.14332(16)
H1 H 0.9302 0.5965 -0.0842
C2 C 0.85014(19) 0.5873(2) -0.25337(18)
H2 H 0.9127 0.6116 -0.2684
C3 C 0.7474(2) 0.5607(2) -0.34113(17)
H3 H 0.7401 0.5688 -0.4156
C4 C 0.65589(19) 0.5225(2) -0.31934(16)
H4 H 0.5866 0.5037 -0.3789
C5 C 0.66637(16) 0.51189(19) -0.20882(15)
H5 H 0.6043 0.4846 -0.1942
C6 C 0.76833(14) 0.54149(16) -0.11979(14)
C7 C 0.77837(14) 0.54017(16) -0.00256(13)
C8 C 0.86094(15) 0.58323(17) 0.09309(14)
H6 H 0.9298 0.6192 0.0994
C9 C 0.82516(14) 0.56456(16) 0.18414(14)
C10 C 0.70875(13) 0.50678(15) 0.13110(12)
C11 C 0.62144(14) 0.58878(17) 0.15152(14)
H7 H 0.5476 0.5468 0.1231
H8 H 0.6131 0.6690 0.1123
C12 C 0.66337(15) 0.61132(18) 0.27992(15)
H9 H 0.6711 0.7015 0.2954
H10 H 0.6077 0.5780 0.3065
C13 C 0.77881(14) 0.54608(17) 0.34273(14)
H11 H 0.8084 0.5652 0.4239
C14 C 0.75982(14) 0.39864(17) 0.32228(12)
C15 C 0.71475(13) 0.37267(15) 0.18754(12)
C16 C 0.86292(15) 0.58550(18) 0.29509(14)
H12 H 0.9339 0.6208 0.3382
C17 C 0.60152(15) 0.31156(16) 0.14240(13)
C18 C 0.67704(16) 0.35162(19) 0.36636(14)
C19 C 0.87045(17) 0.3362(2) 0.38485(14)
C20 C 0.79569(14) 0.29220(17) 0.16225(13)
loop_
_geom_bond_atom_site_label_1
_geom_bond_atom_site_label_2
_geom_bond_site_symmetry_1
_geom_bond_site_symmetry_2
O1 C7 1_555 1_555
N1 C17 1_555 1_555
N2 C18 1_555 1_555
N3 C19 1_555 1_555
N4 C20 1_555 1_555
C1 H1 1_555 1_555
C2 C1 1_555 1_555
H2 C2 1_555 1_555
C3 C2 1_555 1_555
H3 C3 1_555 1_555
C4 C3 1_555 1_555
H4 C4 1_555 1_555
C5 C4 1_555 1_555
H5 C5 1_555 1_555
C6 C1 1_555 1_555
C7 C6 1_555 1_555
C8 C7 1_555 1_555
H6 C8 1_555 1_555
C9 C8 1_555 1_555
C10 O1 1_555 1_555
C11 C10 1_555 1_555
H7 C11 1_555 1_555
H8 C11 1_555 1_555
C12 C11 1_555 1_555
H9 C12 1_555 1_555
H10 C12 1_555 1_555
C13 C12 1_555 1_555
H11 C13 1_555 1_555
C14 C13 1_555 1_555
C15 C10 1_555 1_555
C16 C9 1_555 1_555
H12 C16 1_555 1_555
C17 C15 1_555 1_555
C18 C14 1_555 1_555
C19 C14 1_555 1_555
C20 C15 1_555 1_555
C5 C6 1_555 1_555
C9 C10 1_555 1_555
C13 C16 1_555 1_555
C14 C15 1_555 1_555

#END
