
#######################################################################
#
#                 Cambridge Crystallographic Data Centre
#                                CCDC 
#
#######################################################################
#
# If this CIF has been generated from an entry in the Cambridge 
# Structural Database, then it will include bibliographic, chemical, 
# crystal, experimental, refinement or atomic coordinate data resulting 
# from the CCDC's data processing and validation procedures.
#
#######################################################################

data_JOHBIT
_chemical_formula_moiety         'C36 H30 B2 N4,C4 H10 O1'
_chemical_name_systematic        
"5,5''-Dimethyl-5,5'',10,12''-tetrahydrodispiro[dibenzo[b,e][1,4]azaborinine-10,6'-dipyrido[2,1-c:2',1'-f][1,4,2,5]diazadiborinine-12',10''-dibenzo[b,e][1,4]azaborinine] diethyl ether solvate"
_symmetry_cell_setting           monoclinic
_symmetry_space_group_name_H-M   'C 2/c'
_symmetry_Int_Tables_number      15
_space_group_name_Hall           '-C 2yn'
loop_
_symmetry_equiv_pos_site_id
_symmetry_equiv_pos_as_xyz
1 x,y,z
2 -x,y,1/2-z
3 1/2+x,1/2+y,z
4 1/2-x,1/2+y,1/2-z
5 -x,-y,-z
6 x,-y,1/2+z
7 1/2-x,1/2-y,-z
8 1/2+x,1/2-y,1/2+z
_cell_length_a                   26.872(4)
_cell_length_b                   7.6971(13)
_cell_length_c                   21.153(6)
_cell_angle_alpha                90
_cell_angle_beta                 129.329(2)
_cell_angle_gamma                90
_cell_volume                     3384.31
_exptl_crystal_colour            colorless
_exptl_crystal_description       block
_cell_formula_units_Z            4
_chemical_properties_physical    'air- and moisture-sensitive'
loop_
_atom_site_label
_atom_site_type_symbol
_atom_site_fract_x
_atom_site_fract_y
_atom_site_fract_z
N1 N 0.24168(11) 0.6105(3) 0.44454(13)
C1 C 0.21332(12) 0.5852(3) 0.47888(15)
N2 N 0.16257(12) 0.5268(3) 0.60312(16)
B1 B 0.22106(14) 0.7158(4) 0.54470(18)
C2 C 0.17566(14) 0.4349(4) 0.45682(17)
C3 C 0.16713(15) 0.3170(4) 0.40225(18)
C4 C 0.19795(15) 0.3430(4) 0.36948(18)
C5 C 0.23453(14) 0.4902(4) 0.39165(17)
C6 C 0.26253(13) 0.6206(3) 0.63303(16)
C7 C 0.32985(14) 0.6223(4) 0.68782(17)
C8 C 0.36531(16) 0.5397(4) 0.76377(18)
C9 C 0.33273(19) 0.4556(4) 0.78572(19)
C10 C 0.26649(18) 0.4512(4) 0.73356(19)
C11 C 0.23045(14) 0.5328(4) 0.65660(17)
C12 C 0.12600(13) 0.6635(4) 0.54735(17)
C13 C 0.06425(15) 0.7022(5) 0.5216(2)
C14 C 0.02836(15) 0.8369(5) 0.4671(2)
C15 C 0.05262(16) 0.9357(5) 0.4380(2)
C16 C 0.11350(15) 0.8970(4) 0.4635(2)
C17 C 0.15135(13) 0.7624(4) 0.51766(16)
C18 C 0.1307(2) 0.4049(6) 0.6200(3)
H1 H 0.1555(17) 0.415(5) 0.484(2)
H2 H 0.1370(19) 0.227(6) 0.383(2)
H3 H 0.1933(16) 0.265(5) 0.332(2)
H4 H 0.2571(17) 0.522(5) 0.369(2)
H5 H 0.3538(16) 0.672(5) 0.672(2)
H6 H 0.4144(19) 0.552(5) 0.801(2)
H7 H 0.355(2) 0.403(6) 0.834(3)
H8 H 0.2452(19) 0.388(5) 0.752(2)
H9 H 0.0464(18) 0.637(5) 0.544(2)
H10 H -0.017(2) 0.868(5) 0.452(2)
H11 H 0.029(2) 1.034(6) 0.400(2)
H12 H 0.1308(18) 0.977(6) 0.442(2)
H13 H 0.086(2) 0.375(6) 0.568(3)
H14 H 0.124(2) 0.468(7) 0.657(3)
H15 H 0.155(2) 0.305(7) 0.640(3)
N1F N 0.25832(11) 0.8895(3) 0.55546(13)
C1F C 0.28668(12) 0.9148(3) 0.52112(15)
N2F N 0.33743(12) 0.9732(3) 0.39688(16)
B1F B 0.27894(14) 0.7842(4) 0.45530(18)
C2F C 0.32434(14) 1.0651(4) 0.54318(17)
C3F C 0.33287(15) 1.1830(4) 0.59775(18)
C4F C 0.30205(15) 1.1570(4) 0.63052(18)
C5F C 0.26547(14) 1.0098(4) 0.60835(17)
C6F C 0.23747(13) 0.8794(3) 0.36697(16)
C7F C 0.17015(14) 0.8777(4) 0.31218(17)
C8F C 0.13469(16) 0.9603(4) 0.23623(18)
C9F C 0.16727(19) 1.0444(4) 0.21428(19)
C10F C 0.23351(18) 1.0488(4) 0.26644(19)
C11F C 0.26955(14) 0.9672(4) 0.34340(17)
C12F C 0.37400(13) 0.8365(4) 0.45265(17)
C13F C 0.43575(15) 0.7978(5) 0.4784(2)
C14F C 0.47164(15) 0.6631(5) 0.5329(2)
C15F C 0.44738(16) 0.5643(5) 0.5620(2)
C16F C 0.38650(15) 0.6030(4) 0.5365(2)
C17F C 0.34865(13) 0.7376(4) 0.48234(16)
C18F C 0.3693(2) 1.0951(6) 0.3800(3)
H1F H 0.3445(17) 1.085(5) 0.516(2)
H2F H 0.3630(19) 1.273(6) 0.617(2)
H3F H 0.3067(16) 1.235(5) 0.668(2)
H4F H 0.2429(17) 0.978(5) 0.631(2)
H5F H 0.1462(16) 0.828(5) 0.328(2)
H6F H 0.0856(19) 0.948(5) 0.199(2)
H7F H 0.145(2) 1.097(6) 0.166(3)
H8F H 0.2548(19) 1.112(5) 0.248(2)
H9F H 0.4536(18) 0.863(5) 0.456(2)
H10F H 0.517(2) 0.632(5) 0.548(2)
H11F H 0.471(2) 0.466(6) 0.600(2)
H12F H 0.3692(18) 0.523(6) 0.558(2)
H13F H 0.414(2) 1.125(6) 0.432(3)
H14F H 0.376(2) 1.032(7) 0.343(3)
H15F H 0.345(2) 1.195(7) 0.360(3)
O1 O 0.0000 0.4194(7) 0.2500
C20 C 0.0064(2) 0.5352(8) 0.2036(3)
H16 H 0.0454 0.6085 0.2377
H17 H -0.0322 0.6081 0.1658
C21 C 0.0124(3) 0.3900(8) 0.1611(5)
H18 H 0.0177 0.4391 0.1229
H19 H -0.0264 0.3180 0.1310
H20 H 0.0500 0.3186 0.2017
C20A C -0.0064(2) 0.5352(8) 0.2964(3)
H16A H -0.0454 0.6085 0.2623
H17A H 0.0322 0.6081 0.3342
C21A C -0.0124(3) 0.3900(8) 0.3389(5)
H18A H -0.0177 0.4391 0.3771
H19A H 0.0264 0.3180 0.3690
H20A H -0.0500 0.3186 0.2983
C19? C 0.24168(11) 0.6105(3) 0.44454(13)
N3? N 0.21332(12) 0.5852(3) 0.47888(15)
loop_
_geom_bond_atom_site_label_1
_geom_bond_atom_site_label_2
_geom_bond_site_symmetry_1
_geom_bond_site_symmetry_2
N1 C1 1_555 1_555
C1 B1 1_555 1_555
N2 C11 1_555 1_555
B1 C6 1_555 1_555
C2 C1 1_555 1_555
C3 C2 1_555 1_555
C4 C3 1_555 1_555
C5 N1 1_555 1_555
C6 C7 1_555 1_555
C7 C8 1_555 1_555
C8 C9 1_555 1_555
C9 C10 1_555 1_555
C10 C11 1_555 1_555
C11 C6 1_555 1_555
C12 N2 1_555 1_555
C13 C12 1_555 1_555
C14 C13 1_555 1_555
C15 C14 1_555 1_555
C16 C15 1_555 1_555
C17 B1 1_555 1_555
C18 N2 1_555 1_555
H1 C2 1_555 1_555
H2 C3 1_555 1_555
H3 C4 1_555 1_555
H4 C5 1_555 1_555
H5 C7 1_555 1_555
H6 C8 1_555 1_555
H7 C9 1_555 1_555
H8 C10 1_555 1_555
H9 C13 1_555 1_555
H10 C14 1_555 1_555
H11 C15 1_555 1_555
H12 C16 1_555 1_555
H13 C18 1_555 1_555
H14 C18 1_555 1_555
H15 C18 1_555 1_555
O1 C20 1_555 1_555
C20 H16 1_555 1_555
H17 C20 1_555 1_555
C21 C20 1_555 1_555
H18 C21 1_555 1_555
H19 C21 1_555 1_555
H20 C21 1_555 1_555
N1F B1 1_555 1_555
C1F N1F 1_555 1_555
N2F C11F 1_555 1_555
B1F N1 1_555 1_555
C2F C1F 1_555 1_555
C3F C2F 1_555 1_555
C4F C3F 1_555 1_555
C5F N1F 1_555 1_555
C6F B1F 1_555 1_555
C7F C6F 1_555 1_555
C8F C7F 1_555 1_555
C9F C8F 1_555 1_555
C10F C9F 1_555 1_555
C11F C6F 1_555 1_555
C12F N2F 1_555 1_555
C13F C12F 1_555 1_555
C14F C13F 1_555 1_555
C15F C14F 1_555 1_555
C16F C15F 1_555 1_555
C17F B1F 1_555 1_555
C18F N2F 1_555 1_555
H1F C2F 1_555 1_555
H2F C3F 1_555 1_555
H3F C4F 1_555 1_555
H4F C5F 1_555 1_555
H5F C7F 1_555 1_555
H6F C8F 1_555 1_555
H7F C9F 1_555 1_555
H8F C10F 1_555 1_555
H9F C13F 1_555 1_555
H10F C14F 1_555 1_555
H11F C15F 1_555 1_555
H12F C16F 1_555 1_555
H13F C18F 1_555 1_555
H14F C18F 1_555 1_555
H15F C18F 1_555 1_555
C20A O1 1_555 1_555
H16A C20A 1_555 1_555
H17A C20A 1_555 1_555
C21A C20A 1_555 1_555
H18A C21A 1_555 1_555
H19A C21A 1_555 1_555
H20A C21A 1_555 1_555
C4 C5 1_555 1_555
C12 C17 1_555 1_555
C16 C17 1_555 1_555
C1F B1F 1_555 1_555
C4F C5F 1_555 1_555
C10F C11F 1_555 1_555
C12F C17F 1_555 1_555
C16F C17F 1_555 1_555

#END
