
#######################################################################
#
#                 Cambridge Crystallographic Data Centre
#                                CCDC 
#
#######################################################################
#
# If this CIF has been generated from an entry in the Cambridge 
# Structural Database, then it will include bibliographic, chemical, 
# crystal, experimental, refinement or atomic coordinate data resulting 
# from the CCDC's data processing and validation procedures.
#
#######################################################################

data_JOHSOP
_chemical_formula_moiety         'C20 H12 S1'
_chemical_name_systematic        Anthra[2,3-b]benzo[d]thiophene
_symmetry_cell_setting           monoclinic
_symmetry_space_group_name_H-M   'P 21'
_symmetry_Int_Tables_number      4
_space_group_name_Hall           'P 2yb'
loop_
_symmetry_equiv_pos_site_id
_symmetry_equiv_pos_as_xyz
1 x,y,z
2 -x,1/2+y,-z
_cell_length_a                   6.2126(12)
_cell_length_b                   28.296(6)
_cell_length_c                   7.5789(15)
_cell_angle_alpha                90
_cell_angle_beta                 90.53(3)
_cell_angle_gamma                90
_cell_volume                     1332.25
_cell_formula_units_Z            4
_exptl_crystal_recrystallization_method toluene/hexane
loop_
_atom_site_label
_atom_site_type_symbol
_atom_site_fract_x
_atom_site_fract_y
_atom_site_fract_z
S1 S 1.24490(8) 0.225515(17) 0.84210(6)
C1 C 1.0525(3) 0.18286(7) 0.8980(2)
C2 C 1.0712(4) 0.13467(7) 0.8674(3)
H1 H 1.1921 0.1224 0.8123
C3 C 0.9054(4) 0.10516(7) 0.9208(3)
H2 H 0.9143 0.0728 0.9003
C4 C 0.7259(4) 0.12375(7) 1.0049(3)
H3 H 0.6173 0.1035 1.0415
C5 C 0.7058(3) 0.17191(7) 1.0353(2)
H4 H 0.5852 0.1839 1.0916
C6 C 0.8702(3) 0.20220(6) 0.9796(2)
C7 C 0.8815(3) 0.25359(7) 0.9914(2)
C8 C 0.7313(3) 0.28519(7) 1.0515(2)
H5 H 0.6066 0.2742 1.1047
C9 C 0.7649(3) 0.33465(7) 1.0331(2)
C10 C 0.6088(3) 0.36765(6) 1.0831(2)
H6 H 0.4838 0.3571 1.1369
C11 C 0.6361(3) 0.41608(6) 1.0541(2)
C12 C 0.4753(3) 0.44962(7) 1.1018(2)
H7 H 0.3498 0.4394 1.1559
C13 C 0.5041(4) 0.49673(7) 1.0687(2)
H8 H 0.3989 0.5183 1.1013
C14 C 0.6944(4) 0.51285(7) 0.9846(3)
H9 H 0.7112 0.5449 0.9614
C15 C 0.8520(3) 0.48209(6) 0.9377(2)
H10 H 0.9755 0.4934 0.8835
C16 C 0.8298(3) 0.43235(7) 0.9709(2)
C17 C 0.9876(3) 0.39973(7) 0.9242(2)
H11 H 1.1137 0.4105 0.8725
C18 C 0.9609(3) 0.35127(6) 0.9531(2)
C19 C 1.1191(3) 0.31803(7) 0.8974(2)
H12 H 1.2478 0.3283 0.8490
C20 C 1.0787(3) 0.27105(7) 0.9162(2)
S2 S 0.73327(8) 0.255611(17) 0.56711(6)
C21 C 0.5504(3) 0.21434(6) 0.4795(2)
C22 C 0.5797(3) 0.16570(7) 0.4821(2)
H13 H 0.7046 0.1524 0.5288
C23 C 0.4159(4) 0.13745(7) 0.4124(3)
H14 H 0.4315 0.1048 0.4135
C24 C 0.2290(3) 0.15735(7) 0.3413(2)
H15 H 0.1230 0.1379 0.2929
C25 C 0.2006(3) 0.20608(7) 0.3423(2)
H16 H 0.0751 0.2193 0.2961
C26 C 0.3610(3) 0.23506(6) 0.4130(2)
C27 C 0.3579(3) 0.28622(7) 0.4409(2)
C28 C 0.1984(3) 0.31818(6) 0.4021(2)
H17 H 0.0737 0.3081 0.3444
C29 C 0.2223(3) 0.36678(6) 0.4495(2)
C30 C 0.0621(3) 0.40018(6) 0.4133(2)
H18 H -0.0636 0.3906 0.3561
C31 C 0.0866(3) 0.44763(6) 0.4612(2)
C32 C -0.0750(3) 0.48243(7) 0.4219(2)
H19 H -0.2009 0.4734 0.3636
C33 C -0.0461(4) 0.52836(7) 0.4687(3)
H20 H -0.1518 0.5505 0.4414
C34 C 0.1449(4) 0.54276(7) 0.5591(3)
H21 H 0.1620 0.5742 0.5918
C35 C 0.3020(4) 0.51107(7) 0.5981(2)
H22 H 0.4259 0.5211 0.6568
C36 C 0.2798(3) 0.46231(7) 0.5502(2)
C37 C 0.4404(3) 0.42925(7) 0.5877(2)
H23 H 0.5651 0.4390 0.6462
C38 C 0.4176(3) 0.38152(6) 0.5390(2)
C39 C 0.5826(3) 0.34801(6) 0.5765(2)
H24 H 0.7091 0.3573 0.6331
C40 C 0.5525(3) 0.30186(7) 0.5282(2)
loop_
_geom_bond_atom_site_label_1
_geom_bond_atom_site_label_2
_geom_bond_site_symmetry_1
_geom_bond_site_symmetry_2
S1 C1 1_555 1_555
C1 C2 1_555 1_555
C2 H1 1_555 1_555
C3 C2 1_555 1_555
H2 C3 1_555 1_555
C4 C3 1_555 1_555
H3 C4 1_555 1_555
C5 C4 1_555 1_555
H4 C5 1_555 1_555
C6 C1 1_555 1_555
C7 C6 1_555 1_555
C8 C7 1_555 1_555
H5 C8 1_555 1_555
C9 C8 1_555 1_555
C10 C9 1_555 1_555
H6 C10 1_555 1_555
C11 C10 1_555 1_555
C12 C11 1_555 1_555
H7 C12 1_555 1_555
C13 C12 1_555 1_555
H8 C13 1_555 1_555
C14 C13 1_555 1_555
H9 C14 1_555 1_555
C15 C14 1_555 1_555
H10 C15 1_555 1_555
C16 C11 1_555 1_555
C17 C16 1_555 1_555
H11 C17 1_555 1_555
C18 C9 1_555 1_555
C19 C18 1_555 1_555
H12 C19 1_555 1_555
C20 S1 1_555 1_555
S2 C21 1_555 1_555
C21 C22 1_555 1_555
C22 H13 1_555 1_555
C23 C22 1_555 1_555
H14 C23 1_555 1_555
C24 C23 1_555 1_555
H15 C24 1_555 1_555
C25 C24 1_555 1_555
H16 C25 1_555 1_555
C26 C21 1_555 1_555
C27 C26 1_555 1_555
C28 C27 1_555 1_555
H17 C28 1_555 1_555
C29 C28 1_555 1_555
C30 C29 1_555 1_555
H18 C30 1_555 1_555
C31 C30 1_555 1_555
C32 C31 1_555 1_555
H19 C32 1_555 1_555
C33 C32 1_555 1_555
H20 C33 1_555 1_555
C34 C33 1_555 1_555
H21 C34 1_555 1_555
C35 C34 1_555 1_555
H22 C35 1_555 1_555
C36 C31 1_555 1_555
C37 C36 1_555 1_555
H23 C37 1_555 1_555
C38 C29 1_555 1_555
C39 C38 1_555 1_555
H24 C39 1_555 1_555
C40 S2 1_555 1_555
C5 C6 1_555 1_555
C7 C20 1_555 1_555
C15 C16 1_555 1_555
C17 C18 1_555 1_555
C19 C20 1_555 1_555
C25 C26 1_555 1_555
C27 C40 1_555 1_555
C35 C36 1_555 1_555
C37 C38 1_555 1_555
C39 C40 1_555 1_555

#END
