
#######################################################################
#
#                 Cambridge Crystallographic Data Centre
#                                CCDC 
#
#######################################################################
#
# If this CIF has been generated from an entry in the Cambridge 
# Structural Database, then it will include bibliographic, chemical, 
# crystal, experimental, refinement or atomic coordinate data resulting 
# from the CCDC's data processing and validation procedures.
#
#######################################################################

data_JOHXEL
_chemical_formula_moiety         'C30 H30 B2 N4'
_chemical_name_systematic        
1,1'',4',10'-tetramethyl-1,1'',4,12''-tetrahydrodispiro[1,4-benzazaborinine-4,6'-dipyrido[2,1-c:2',1'-f][1,4,2,5]diazadiborinine-12',4''-[1,4]benzazaborinine]
_symmetry_cell_setting           orthorhombic
_symmetry_space_group_name_H-M   'P b c a'
_symmetry_Int_Tables_number      61
_space_group_name_Hall           '-P 2ac 2ab'
loop_
_symmetry_equiv_pos_site_id
_symmetry_equiv_pos_as_xyz
1 x,y,z
2 1/2-x,-y,1/2+z
3 -x,1/2+y,1/2-z
4 1/2+x,1/2-y,-z
5 -x,-y,-z
6 1/2+x,y,1/2-z
7 x,1/2-y,1/2+z
8 1/2-x,1/2+y,z
_cell_length_a                   7.58(2)
_cell_length_b                   13.99(4)
_cell_length_c                   23.18(6)
_cell_angle_alpha                90
_cell_angle_beta                 90
_cell_angle_gamma                90
_cell_volume                     2458.1
_exptl_crystal_colour            colorless
_exptl_crystal_description       prism
_cell_formula_units_Z            4
_chemical_properties_physical    'air- and moisture-sensitive'
loop_
_atom_site_label
_atom_site_type_symbol
_atom_site_fract_x
_atom_site_fract_y
_atom_site_fract_z
N1 N -0.0009(6) 0.3972(3) 0.31335(19)
N2 N 0.1686(5) 0.5350(3) 0.46739(16)
B1 B 0.0214(8) 0.4719(5) 0.4340(2)
C1 C 0.1015(7) 0.3726(4) 0.4111(2)
H1 H 0.1649 0.3331 0.4372
C2 C 0.0821(7) 0.3439(4) 0.3568(2)
H2 H 0.1277 0.2829 0.3467
C3 C -0.0674(7) 0.4882(4) 0.32427(19)
C4 C -0.0537(7) 0.5298(4) 0.3799(2)
C5 C -0.1204(7) 0.6228(4) 0.3863(2)
H3 H -0.1100 0.6529 0.4229
C6 C -0.1997(8) 0.6721(4) 0.3425(2)
H4 H -0.2441 0.7347 0.3488
C7 C -0.2144(8) 0.6286(4) 0.2880(2)
H5 H -0.2692 0.6617 0.2571
C8 C -0.1502(8) 0.5396(4) 0.2801(2)
H6 H -0.1616 0.5109 0.2431
C9 C -0.0118(8) 0.3568(5) 0.2568(2)
H7 H -0.0718 0.4018 0.2310
H8 H -0.0785 0.2969 0.2585
H9 H 0.1072 0.3442 0.2423
C10 C 0.3183(7) 0.5678(4) 0.4389(2)
C11 C 0.4449(7) 0.6177(4) 0.4681(2)
H10 H 0.5469 0.6395 0.4482
C12 C 0.4259(8) 0.6367(4) 0.5262(2)
H11 H 0.5138 0.6712 0.5467
C13 C 0.2787(8) 0.6049(4) 0.5534(2)
H12 H 0.2652 0.6177 0.5934
C14 C 0.1468(7) 0.5541(4) 0.5251(2)
C15 C 0.3454(8) 0.5469(5) 0.3762(2)
H13 H 0.4567 0.5754 0.3634
H14 H 0.2477 0.5740 0.3539
H15 H 0.3495 0.4776 0.3703
N1D N 0.0009(6) 0.6028(3) 0.68665(19)
N2D N -0.1686(5) 0.4650(3) 0.53261(16)
B1D B -0.0214(8) 0.5281(5) 0.5660(2)
C1D C -0.1015(7) 0.6274(4) 0.5889(2)
H1D H -0.1649 0.6669 0.5628
C2D C -0.0821(7) 0.6561(4) 0.6432(2)
H2D H -0.1277 0.7171 0.6533
C3D C 0.0674(7) 0.5118(4) 0.67573(19)
C4D C 0.0537(7) 0.4702(4) 0.6201(2)
C5D C 0.1204(7) 0.3772(4) 0.6137(2)
H3D H 0.1100 0.3471 0.5771
C6D C 0.1997(8) 0.3279(4) 0.6575(2)
H4D H 0.2441 0.2653 0.6512
C7D C 0.2144(8) 0.3714(4) 0.7120(2)
H5D H 0.2692 0.3383 0.7429
C8D C 0.1502(8) 0.4604(4) 0.7199(2)
H6D H 0.1616 0.4891 0.7569
C9D C 0.0118(8) 0.6432(5) 0.7432(2)
H7D H 0.0718 0.5982 0.7690
H8D H 0.0785 0.7031 0.7415
H9D H -0.1072 0.6558 0.7577
C10D C -0.3183(7) 0.4322(4) 0.5611(2)
C11D C -0.4449(7) 0.3823(4) 0.5319(2)
H10D H -0.5469 0.3605 0.5518
C12D C -0.4259(8) 0.3633(4) 0.4738(2)
H11D H -0.5138 0.3288 0.4533
C13D C -0.2787(8) 0.3951(4) 0.4466(2)
H12D H -0.2652 0.3823 0.4066
C14D C -0.1468(7) 0.4459(4) 0.4749(2)
C15D C -0.3454(8) 0.4531(5) 0.6238(2)
H13D H -0.4567 0.4246 0.6366
H14D H -0.2477 0.4260 0.6461
H15D H -0.3495 0.5224 0.6297
loop_
_geom_bond_atom_site_label_1
_geom_bond_atom_site_label_2
_geom_bond_site_symmetry_1
_geom_bond_site_symmetry_2
N1 C2 1_555 1_555
N2 B1 1_555 1_555
B1 C1 1_555 1_555
C1 H1 1_555 1_555
C2 C1 1_555 1_555
H2 C2 1_555 1_555
C3 N1 1_555 1_555
C4 B1 1_555 1_555
C5 C4 1_555 1_555
H3 C5 1_555 1_555
C6 C5 1_555 1_555
H4 C6 1_555 1_555
C7 C6 1_555 1_555
H5 C7 1_555 1_555
C8 C3 1_555 1_555
H6 C8 1_555 1_555
C9 N1 1_555 1_555
H7 C9 1_555 1_555
H8 C9 1_555 1_555
H9 C9 1_555 1_555
C10 N2 1_555 1_555
C11 C10 1_555 1_555
H10 C11 1_555 1_555
C12 C11 1_555 1_555
H11 C12 1_555 1_555
C13 C12 1_555 1_555
H12 C13 1_555 1_555
C14 N2 1_555 1_555
C15 C10 1_555 1_555
H13 C15 1_555 1_555
H14 C15 1_555 1_555
H15 C15 1_555 1_555
N1D C2D 1_555 1_555
N2D B1D 1_555 1_555
B1D C14 1_555 1_555
C1D B1D 1_555 1_555
H1D C1D 1_555 1_555
C2D C1D 1_555 1_555
H2D C2D 1_555 1_555
C3D N1D 1_555 1_555
C4D B1D 1_555 1_555
C5D C4D 1_555 1_555
H3D C5D 1_555 1_555
C6D C5D 1_555 1_555
H4D C6D 1_555 1_555
C7D C6D 1_555 1_555
H5D C7D 1_555 1_555
C8D C3D 1_555 1_555
H6D C8D 1_555 1_555
C9D N1D 1_555 1_555
H7D C9D 1_555 1_555
H8D C9D 1_555 1_555
H9D C9D 1_555 1_555
C10D N2D 1_555 1_555
C11D C10D 1_555 1_555
H10D C11D 1_555 1_555
C12D C11D 1_555 1_555
H11D C12D 1_555 1_555
C13D C12D 1_555 1_555
H12D C13D 1_555 1_555
C14D B1 1_555 1_555
C15D C10D 1_555 1_555
H13D C15D 1_555 1_555
H14D C15D 1_555 1_555
H15D C15D 1_555 1_555
C3 C4 1_555 1_555
C7 C8 1_555 1_555
C13 C14 1_555 1_555
N2D C14D 1_555 1_555
C3D C4D 1_555 1_555
C7D C8D 1_555 1_555
C13D C14D 1_555 1_555

#END
