
#######################################################################
#
#                 Cambridge Crystallographic Data Centre
#                                CCDC 
#
#######################################################################
#
# If this CIF has been generated from an entry in the Cambridge 
# Structural Database, then it will include bibliographic, chemical, 
# crystal, experimental, refinement or atomic coordinate data resulting 
# from the CCDC's data processing and validation procedures.
#
#######################################################################

data_JOJMAY
_chemical_formula_moiety         'C38 H20 Cl2 S4,C1 H2 Cl2'
_chemical_name_systematic        
"7,16-bis(4-chlorophenyl)[1,4]benzodithiino[2',3':6,7]naphtho[2,3-b]thianthrene dichloromethane solvate"
_symmetry_cell_setting           monoclinic
_symmetry_space_group_name_H-M   'C 2/c'
_symmetry_Int_Tables_number      15
_space_group_name_Hall           '-C 2yn'
loop_
_symmetry_equiv_pos_site_id
_symmetry_equiv_pos_as_xyz
1 x,y,z
2 -x,y,1/2-z
3 1/2+x,1/2+y,z
4 1/2-x,1/2+y,1/2-z
5 -x,-y,-z
6 x,-y,1/2+z
7 1/2-x,1/2-y,-z
8 1/2+x,1/2-y,1/2+z
_cell_length_a                   14.363(2)
_cell_length_b                   23.342(4)
_cell_length_c                   10.5722(16)
_cell_angle_alpha                90
_cell_angle_beta                 95.874(3)
_cell_angle_gamma                90
_cell_volume                     3525.84
_cell_formula_units_Z            4
loop_
_atom_site_label
_atom_site_type_symbol
_atom_site_fract_x
_atom_site_fract_y
_atom_site_fract_z
Cl1 Cl -0.1147(2) 0.4783(1) 0.5670(2)
S1 S 0.1068(1) 0.2048(1) 0.9116(2)
S2 S -0.5404(1) 0.3974(1) 0.9149(2)
C1 C -0.2218(4) 0.2940(2) 0.9201(5)
C2 C -0.3755(4) 0.3405(2) 0.9269(5)
H1 H -0.3569 0.3701 0.8764
C3 C -0.3115(4) 0.2951(2) 0.9606(5)
C4 C -0.1931(4) 0.3400(2) 0.8327(5)
C5 C -0.0674(4) 0.2467(2) 0.9194(5)
H2 H -0.0476 0.2753 0.8672
C6 C -0.0082(4) 0.2033(2) 0.9555(5)
C7 C -0.1592(4) 0.2500(2) 0.9586(5)
C8 C -0.4629(4) 0.3419(2) 0.9660(5)
C9 C -0.5935(4) 0.4114(3) 1.0550(6)
C10 C -0.2147(4) 0.3349(3) 0.7040(5)
H3 H -0.2470 0.3027 0.6714
C11 C 0.1223(4) 0.1326(3) 0.8711(6)
C12 C 0.1683(5) 0.1198(4) 0.7642(7)
H4 H 0.1859 0.1493 0.7127
C13 C -0.1889(5) 0.3771(3) 0.6213(6)
H5 H -0.2023 0.3727 0.5339
C14 C -0.1461(5) 0.3880(3) 0.8793(6)
H6 H -0.1309 0.3920 0.9665
C15 C -0.1441(5) 0.4249(3) 0.6694(7)
C16 C 0.1569(6) 0.0201(4) 0.8092(9)
H7 H 0.1688 -0.0178 0.7891
C17 C -0.1207(6) 0.4311(3) 0.7969(7)
H8 H -0.0884 0.4634 0.8287
C18 C 0.1876(6) 0.0643(4) 0.7346(8)
H9 H 0.2207 0.0561 0.6657
C19 C -0.6094(5) 0.4675(3) 1.0881(8)
H10 H -0.5877 0.4972 1.0403
Cl1F Cl -0.3853(2) 0.0217(1) 1.4330(2)
S1F S -0.6068(1) 0.2952(1) 1.0884(2)
S2F S 0.0404(1) 0.1026(1) 1.0851(2)
C1F C -0.2782(4) 0.2060(2) 1.0799(5)
C2F C -0.1245(4) 0.1595(2) 1.0731(5)
H1F H -0.1431 0.1299 1.1236
C3F C -0.1885(4) 0.2049(2) 1.0394(5)
C4F C -0.3069(4) 0.1600(2) 1.1673(5)
C5F C -0.4326(4) 0.2533(2) 1.0806(5)
H2F H -0.4524 0.2247 1.1328
C6F C -0.4918(4) 0.2967(2) 1.0445(5)
C7F C -0.3408(4) 0.2500(2) 1.0414(5)
C8F C -0.0371(4) 0.1581(2) 1.0340(5)
C9F C 0.0935(4) 0.0886(3) 0.9450(6)
C10F C -0.2853(4) 0.1651(3) 1.2960(5)
H3F H -0.2530 0.1973 1.3286
C11F C -0.6223(4) 0.3674(3) 1.1289(6)
C12F C -0.6683(5) 0.3802(4) 1.2358(7)
H4F H -0.6859 0.3507 1.2873
C13F C -0.3111(5) 0.1229(3) 1.3787(6)
H5F H -0.2977 0.1273 1.4661
C14F C -0.3539(5) 0.1120(3) 1.1207(6)
H6F H -0.3691 0.1080 1.0335
C15F C -0.3559(5) 0.0751(3) 1.3306(7)
C16F C -0.6569(6) 0.4799(4) 1.1908(9)
H7F H -0.6688 0.5178 1.2109
C17F C -0.3793(6) 0.0689(3) 1.2031(7)
H8F H -0.4116 0.0366 1.1713
C18F C -0.6876(6) 0.4357(4) 1.2654(8)
H9F H -0.7207 0.4439 1.3343
C19F C 0.1094(5) 0.0325(3) 0.9119(8)
H10F H 0.0877 0.0028 0.9597
Cl2 Cl -0.0837(5) 0.6733(5) 0.7844(7)
C20 C 0.0000 0.7185(11) 0.7500
Cl2A Cl 0.0837(5) 0.6733(5) 0.7156(7)
C21? C 0.0000 0.6097(9) 0.7500
loop_
_geom_bond_atom_site_label_1
_geom_bond_atom_site_label_2
_geom_bond_site_symmetry_1
_geom_bond_site_symmetry_2
Cl1 C15 1_555 1_555
S1 C6 1_555 1_555
S2 C8 1_555 1_555
C1 C3 1_555 1_555
C2 H1 1_555 1_555
C3 C2 1_555 1_555
C4 C1 1_555 1_555
C5 H2 1_555 1_555
C6 C5 1_555 1_555
C7 C1 1_555 1_555
C8 C2 1_555 1_555
C9 S2 1_555 1_555
C10 C4 1_555 1_555
H3 C10 1_555 1_555
C11 S1 1_555 1_555
C12 C11 1_555 1_555
H4 C12 1_555 1_555
C13 C10 1_555 1_555
H5 C13 1_555 1_555
C14 C4 1_555 1_555
H6 C14 1_555 1_555
C15 C13 1_555 1_555
C16 H7 1_555 1_555
C17 C14 1_555 1_555
H8 C17 1_555 1_555
C18 C12 1_555 1_555
H9 C18 1_555 1_555
C19 C9 1_555 1_555
H10 C19 1_555 1_555
Cl2 C20 1_555 1_555
C20 Cl2A 1_555 1_555
Cl1F C15F 1_555 1_555
S1F C6F 1_555 1_555
S2F C8F 1_555 1_555
C1F C3F 1_555 1_555
C2F H1F 1_555 1_555
C3F C7 1_555 1_555
C4F C1F 1_555 1_555
C5F H2F 1_555 1_555
C6F C8 1_555 1_555
C7F C3 1_555 1_555
C8F C6 1_555 1_555
C9F C11 1_555 1_555
C10F C4F 1_555 1_555
H3F C10F 1_555 1_555
C11F C9 1_555 1_555
C12F C11F 1_555 1_555
H4F C12F 1_555 1_555
C13F C10F 1_555 1_555
H5F C13F 1_555 1_555
C14F C4F 1_555 1_555
H6F C14F 1_555 1_555
C15F C13F 1_555 1_555
C16F C19 1_555 1_555
H7F C16F 1_555 1_555
C17F C14F 1_555 1_555
H8F C17F 1_555 1_555
C18F C12F 1_555 1_555
H9F C18F 1_555 1_555
C19F C16 1_555 1_555
H10F C19F 1_555 1_555
C5 C7 1_555 1_555
C15 C17 1_555 1_555
C16 C18 1_555 1_555
S1F C11F 1_555 1_555
S2F C9F 1_555 1_555
C1F C7F 1_555 1_555
C2F C3F 1_555 1_555
C2F C8F 1_555 1_555
C5F C6F 1_555 1_555
C5F C7F 1_555 1_555
C9F C19F 1_555 1_555
C15F C17F 1_555 1_555
C16F C18F 1_555 1_555

#END
