
#######################################################################
#
#                 Cambridge Crystallographic Data Centre
#                                CCDC 
#
#######################################################################
#
# If this CIF has been generated from an entry in the Cambridge 
# Structural Database, then it will include bibliographic, chemical, 
# crystal, experimental, refinement or atomic coordinate data resulting 
# from the CCDC's data processing and validation procedures.
#
#######################################################################

data_JOKCUJ
_chemical_formula_moiety         'C22 H18 O2'
_chemical_name_systematic        
1-(4-methoxyphenyl)-2,3-diphenylprop-2-en-1-one
_symmetry_cell_setting           monoclinic
_symmetry_space_group_name_H-M   'P 21/c'
_symmetry_Int_Tables_number      14
_space_group_name_Hall           '-P 2ybc'
loop_
_symmetry_equiv_pos_site_id
_symmetry_equiv_pos_as_xyz
1 x,y,z
2 -x,1/2+y,1/2-z
3 -x,-y,-z
4 x,1/2-y,1/2+z
_cell_length_a                   5.9337(3)
_cell_length_b                   16.7259(8)
_cell_length_c                   16.9156(7)
_cell_angle_alpha                90
_cell_angle_beta                 101.0917(10)
_cell_angle_gamma                90
_cell_volume                     1647.45
_exptl_crystal_colour            colorless
_exptl_crystal_description       block
_cell_formula_units_Z            4
loop_
_atom_site_label
_atom_site_type_symbol
_atom_site_fract_x
_atom_site_fract_y
_atom_site_fract_z
O1 O 0.5879(4) 0.17297(17) 0.18718(13)
O2 O 0.3859(2) 0.45663(7) 0.41569(7)
C1 C 0.4169(8) 0.1905(3) 0.2113(3)
C2 C 0.2059(5) 0.13764(14) 0.19363(14)
C3 C 0.0379(4) 0.15196(13) 0.12911(14)
C4 C 0.3981(3) 0.26411(10) 0.26274(9)
C5 C 0.2169(3) 0.27158(10) 0.30361(9)
C6 C 0.2082(3) 0.33393(9) 0.35683(9)
C7 C 0.3798(3) 0.39172(9) 0.36652(9)
C8 C 0.5599(3) 0.38631(10) 0.32428(10)
C9 C 0.5703(3) 0.32256(11) 0.27381(9)
C10 C 0.2082(4) 0.46334(11) 0.46128(11)
C11 C 0.1844(3) 0.07094(10) 0.25128(9)
C12 C -0.0111(3) 0.02663(11) 0.25651(10)
C13 C -0.0060(4) -0.03156(11) 0.31417(12)
C14 C 0.1929(4) -0.04636(12) 0.36950(12)
C15 C 0.3874(4) -0.00247(13) 0.36624(11)
C16 C 0.3839(3) 0.05527(11) 0.30751(11)
C17 C 0.0267(4) 0.21921(11) 0.07081(10)
C18 C 0.1953(3) 0.27304(12) 0.05576(10)
C19 C 0.1442(4) 0.32977(11) -0.00490(11)
C20 C -0.0739(4) 0.33395(11) -0.05150(10)
C21 C -0.2398(3) 0.28147(12) -0.03726(11)
C22 C -0.1908(4) 0.22549(11) 0.02231(12)
H1 H -0.0865 0.1152 0.1200
H2 H 0.0967 0.2332 0.2948
H3 H 0.0871 0.3372 0.3862
H4 H 0.6749 0.4266 0.3304
H5 H 0.6950 0.3181 0.2463
H6 H 0.2140 0.4172 0.4973
H7 H 0.0587 0.4649 0.4246
H8 H 0.2297 0.5126 0.4933
H9 H -0.1502 0.0368 0.2196
H10 H -0.1404 -0.0618 0.3160
H11 H 0.1957 -0.0864 0.4095
H12 H 0.5244 -0.0119 0.4045
H13 H 0.5196 0.0847 0.3055
H14 H 0.3458 0.2706 0.0874
H15 H 0.2596 0.3659 -0.0144
H16 H -0.1089 0.3728 -0.0930
H17 H -0.3899 0.2842 -0.0692
H18 H -0.3083 0.1898 0.0309
O3? O 0.5964(11) 0.1938(5) 0.1848(4)
C23? C 0.400(3) 0.2147(9) 0.2034(11)
C24? C 0.1806(12) 0.1807(4) 0.1511(4)
C25? C 0.0802(17) 0.1173(5) 0.1752(5)
H19? H -0.0620 0.0998 0.1441
loop_
_geom_bond_atom_site_label_1
_geom_bond_atom_site_label_2
_geom_bond_site_symmetry_1
_geom_bond_site_symmetry_2
O1 C1 1_555 1_555
O2 C7 1_555 1_555
C1 C2 1_555 1_555
C2 C3 1_555 1_555
C3 C17 1_555 1_555
C4 C1 1_555 1_555
C5 C4 1_555 1_555
C6 C5 1_555 1_555
C7 C6 1_555 1_555
C8 C7 1_555 1_555
C9 C4 1_555 1_555
C10 O2 1_555 1_555
C11 C2 1_555 1_555
C12 C11 1_555 1_555
C13 C12 1_555 1_555
C14 C13 1_555 1_555
C15 C14 1_555 1_555
C16 C11 1_555 1_555
C17 C18 1_555 1_555
C18 C19 1_555 1_555
C19 C20 1_555 1_555
C20 C21 1_555 1_555
C21 C22 1_555 1_555
C22 C17 1_555 1_555
H1 C3 1_555 1_555
H2 C5 1_555 1_555
H3 C6 1_555 1_555
H4 C8 1_555 1_555
H5 C9 1_555 1_555
H6 C10 1_555 1_555
H7 C10 1_555 1_555
H8 C10 1_555 1_555
H9 C12 1_555 1_555
H10 C13 1_555 1_555
H11 C14 1_555 1_555
H12 C15 1_555 1_555
H13 C16 1_555 1_555
H14 C18 1_555 1_555
H15 C19 1_555 1_555
H16 C20 1_555 1_555
H17 C21 1_555 1_555
H18 C22 1_555 1_555
C8 C9 1_555 1_555
C15 C16 1_555 1_555

#END
