
#######################################################################
#
#                 Cambridge Crystallographic Data Centre
#                                CCDC 
#
#######################################################################
#
# If this CIF has been generated from an entry in the Cambridge 
# Structural Database, then it will include bibliographic, chemical, 
# crystal, experimental, refinement or atomic coordinate data resulting 
# from the CCDC's data processing and validation procedures.
#
#######################################################################

data_JOKQIL
_chemical_formula_moiety         'C33 H31 N1 O6,C1 H1 Cl3'
_chemical_name_systematic        
'4-(5,22-dioxahexacyclo[7.6.6.1^3,6^.0^2,8^.0^10,15^.0^16,21^]docosa-10,12,14,16,18,20-hexaen-7-yl) 2-methyl 5-phenylpyrrolidine-2,4-dicarboxylate chloroform solvate'
_symmetry_cell_setting           monoclinic
_symmetry_space_group_name_H-M   'P 21'
_symmetry_Int_Tables_number      4
_space_group_name_Hall           'P 2yb'
loop_
_symmetry_equiv_pos_site_id
_symmetry_equiv_pos_as_xyz
1 x,y,z
2 -x,1/2+y,-z
_cell_length_a                   9.2086(10)
_cell_length_b                   10.5490(11)
_cell_length_c                   15.7688(17)
_cell_angle_alpha                90
_cell_angle_beta                 91.964(3)
_cell_angle_gamma                90
_cell_volume                     1530.91
_exptl_crystal_colour            colorless
_cell_formula_units_Z            2
loop_
_atom_site_label
_atom_site_type_symbol
_atom_site_fract_x
_atom_site_fract_y
_atom_site_fract_z
O1 O 0.7494(3) 0.7616(3) 1.11928(16)
O2 O 0.8827(2) 0.88119(19) 0.80013(11)
O3 O 0.9023(3) 0.9100(2) 1.07289(18)
O4 O 0.9225(2) 1.1457(2) 0.84844(14)
O5 O 0.9639(2) 1.19085(19) 0.71026(13)
O6 O 1.0568(3) 0.7801(2) 0.72998(15)
N1 N 0.7507(3) 0.6975(3) 0.93940(16)
C1 C 0.7126(5) 0.8448(5) 1.1886(3)
H1 H 0.8008 0.8661 1.2221
H2 H 0.6437 0.8018 1.225
H3 H 0.6682 0.9225 1.1657
C2 C 0.8474(3) 0.8086(3) 1.0670(2)
C3 C 0.8769(3) 0.7114(3) 0.99770(19)
H4 H 0.8941 0.6277 1.026
C4 C 1.0085(3) 0.7399(4) 0.94473(19)
H5 H 1.0967 0.6982 0.9691
H6 H 1.0261 0.8324 0.9415
C5 C 0.9671(3) 0.6851(3) 0.85613(19)
H7 H 1.0353 0.6143 0.8434
C6 C 0.9764(3) 0.7843(3) 0.78759(18)
C7 C 0.8820(3) 0.9840(3) 0.73860(16)
H8 H 0.9248 0.9519 0.6853
C8 C 0.7229(3) 1.0195(2) 0.71905(16)
H9 H 0.6652 0.9972 0.7695
C9 C 0.6988(3) 1.1640(3) 0.69911(18)
H10 H 0.6143 1.1911 0.7329
C10 C 0.6503(3) 1.1807(3) 0.60421(19)
H11 H 0.6447 1.2721 0.5875
C11 C 0.5025(3) 1.1178(3) 0.59985(18)
C12 C 0.3709(3) 1.1771(3) 0.58484(19)
H12 H 0.3675 1.2646 0.5706
C13 C 0.2423(3) 1.1076(3) 0.5907(2)
H13 H 0.1512 1.1481 0.5808
C14 C 0.5210(5) 0.5790(3) 0.6513(3)
H14 H 0.4569 0.5651 0.6037
C15 C 0.6701(5) 0.5620(3) 0.6444(2)
H15 H 0.7083 0.5368 0.5918
C16 C 0.7626(4) 0.5816(3) 0.7139(2)
H16 H 0.8641 0.5699 0.7084
C17 C 0.7098(3) 0.6184(3) 0.79217(19)
C18 C 0.8131(3) 0.6292(3) 0.86848(19)
H17 H 0.8292 0.5405 0.8891
C19 C 0.9739(3) 1.0930(3) 0.77181(19)
H18 H 1.0773 1.0653 0.7803
C20 C 0.8370(4) 1.2544(3) 0.8251(2)
H19 H 0.8856 1.3336 0.8441
H20 H 0.7397 1.2501 0.8497
C21 C 0.8259(3) 1.2471(3) 0.7286(2)
H21 H 0.8173 1.3338 0.7033
C22 C 0.6612(3) 0.9415(2) 0.64107(16)
H22 H 0.663 0.8482 0.6523
C23 C 0.5084(3) 0.9892(3) 0.62128(16)
C24 C 0.7493(3) 1.1069(3) 0.54868(18)
C25 C 0.8301(3) 1.1537(3) 0.4832(2)
H23 H 0.8286 1.2418 0.4706
C26 C 0.9130(3) 1.0720(4) 0.4363(2)
H24 H 0.9664 1.1041 0.3905
C27 C 0.9191(3) 0.9449(4) 0.4552(2)
H25 H 0.9771 0.8896 0.423
C28 C 0.8402(3) 0.8974(3) 0.52170(18)
H26 H 0.8459 0.81 0.5357
C29 C 0.7537(3) 0.9770(3) 0.56728(16)
C30 C 0.2475(3) 0.9811(3) 0.61055(18)
H27 H 0.1596 0.9345 0.6138
C31 C 0.3806(3) 0.9196(3) 0.62613(17)
H28 H 0.3836 0.8319 0.6398
C32 C 0.5600(4) 0.6363(3) 0.7979(2)
H29 H 0.5213 0.6624 0.8502
C33 C 0.4673(4) 0.6164(4) 0.7280(2)
H30 H 0.3658 0.6286 0.733
H31 H 0.736(3) 0.7749(15) 0.9211(19)
Cl1 Cl 0.37877(9) 0.97301(11) 0.84080(5)
Cl2 Cl 0.39497(12) 0.87502(10) 1.01171(7)
Cl3 Cl 0.62553(8) 1.03210(8) 0.95241(5)
C34 C 0.4352(4) 1.0043(3) 0.9463(2)
H32 H 0.3834 1.0813 0.9667
loop_
_geom_bond_atom_site_label_1
_geom_bond_atom_site_label_2
_geom_bond_site_symmetry_1
_geom_bond_site_symmetry_2
O1 C1 1_555 1_555
O2 C6 1_555 1_555
O3 C2 1_555 1_555
O4 C19 1_555 1_555
O5 C19 1_555 1_555
O6 C6 1_555 1_555
N1 C3 1_555 1_555
C1 H1 1_555 1_555
H2 C1 1_555 1_555
H3 C1 1_555 1_555
C2 O1 1_555 1_555
C3 C2 1_555 1_555
H4 C3 1_555 1_555
C4 C3 1_555 1_555
H5 C4 1_555 1_555
H6 C4 1_555 1_555
C5 C4 1_555 1_555
H7 C5 1_555 1_555
C6 C5 1_555 1_555
C7 O2 1_555 1_555
H8 C7 1_555 1_555
C8 C7 1_555 1_555
H9 C8 1_555 1_555
C9 C8 1_555 1_555
H10 C9 1_555 1_555
C10 C9 1_555 1_555
H11 C10 1_555 1_555
C11 C10 1_555 1_555
C12 C11 1_555 1_555
H12 C12 1_555 1_555
C13 C12 1_555 1_555
H13 C13 1_555 1_555
C14 H14 1_555 1_555
C15 C14 1_555 1_555
H15 C15 1_555 1_555
C16 C15 1_555 1_555
H16 C16 1_555 1_555
C17 C16 1_555 1_555
C18 N1 1_555 1_555
H17 C18 1_555 1_555
C19 C7 1_555 1_555
H18 C19 1_555 1_555
C20 O4 1_555 1_555
H19 C20 1_555 1_555
H20 C20 1_555 1_555
C21 O5 1_555 1_555
H21 C21 1_555 1_555
C22 C8 1_555 1_555
H22 C22 1_555 1_555
C23 C11 1_555 1_555
C24 C10 1_555 1_555
C25 C24 1_555 1_555
H23 C25 1_555 1_555
C26 C25 1_555 1_555
H24 C26 1_555 1_555
C27 C26 1_555 1_555
H25 C27 1_555 1_555
C28 C27 1_555 1_555
H26 C28 1_555 1_555
C29 C22 1_555 1_555
C30 C13 1_555 1_555
H27 C30 1_555 1_555
C31 C23 1_555 1_555
H28 C31 1_555 1_555
C32 C17 1_555 1_555
H29 C32 1_555 1_555
C33 C14 1_555 1_555
H30 C33 1_555 1_555
H31 N1 1_555 1_555
Cl1 C34 1_555 1_555
Cl2 C34 1_555 1_555
Cl3 C34 1_555 1_555
C34 H32 1_555 1_555
C5 C18 1_555 1_555
C9 C21 1_555 1_555
C17 C18 1_555 1_555
C20 C21 1_555 1_555
C22 C23 1_555 1_555
C24 C29 1_555 1_555
C28 C29 1_555 1_555
C30 C31 1_555 1_555
C32 C33 1_555 1_555

#END
