
#######################################################################
#
#                 Cambridge Crystallographic Data Centre
#                                CCDC 
#
#######################################################################
#
# If this CIF has been generated from an entry in the Cambridge 
# Structural Database, then it will include bibliographic, chemical, 
# crystal, experimental, refinement or atomic coordinate data resulting 
# from the CCDC's data processing and validation procedures.
#
#######################################################################

data_JOKYUF
_chemical_formula_moiety         'C19 H18 O3'
_chemical_name_systematic        '4-oxo-6-phenylhex-5-en-1-yl benzoate'
_symmetry_cell_setting           monoclinic
_symmetry_space_group_name_H-M   'P 21/n'
_symmetry_Int_Tables_number      14
_space_group_name_Hall           '-P 2yn'
loop_
_symmetry_equiv_pos_site_id
_symmetry_equiv_pos_as_xyz
1 x,y,z
2 1/2-x,1/2+y,1/2-z
3 -x,-y,-z
4 1/2+x,1/2-y,1/2+z
_cell_length_a                   14.553(2)
_cell_length_b                   5.1627(7)
_cell_length_c                   21.312(3)
_cell_angle_alpha                90
_cell_angle_beta                 100.097(2)
_cell_angle_gamma                90
_cell_volume                     1576.43
_cell_formula_units_Z            4
loop_
_atom_site_label
_atom_site_type_symbol
_atom_site_fract_x
_atom_site_fract_y
_atom_site_fract_z
O1 O -0.03990(8) 1.5896(3) 0.09110(5)
O2 O 0.10535(7) 1.4479(2) 0.12447(5)
O3 O 0.33373(9) 0.8146(3) 0.06060(6)
C1 C 0.03167(10) 1.5964(3) 0.12932(7)
C2 C 0.04810(10) 1.7708(3) 0.18563(7)
C3 C 0.12522(11) 1.7479(3) 0.23340(7)
H1 H 0.1697 1.6208 0.2310
C4 C 0.13579(13) 1.9155(4) 0.28490(8)
H2 H 0.1876 1.9000 0.3171
C5 C 0.07091(14) 2.1037(4) 0.28899(8)
H3 H 0.0786 2.2149 0.3238
C6 C -0.00524(13) 2.1280(3) 0.24175(9)
H4 H -0.0492 2.2564 0.2444
C7 C -0.01711(11) 1.9623(3) 0.19005(8)
H5 H -0.0691 1.9795 0.1581
C8 C 0.09452(11) 1.2716(3) 0.07035(7)
H6 H 0.0819 1.3684 0.0308
H7 H 0.0428 1.1544 0.0716
C9 C 0.18337(10) 1.1219(3) 0.07419(7)
H8 H 0.1940 1.0212 0.1132
H9 H 0.2350 1.2417 0.0757
C10 C 0.18049(10) 0.9424(3) 0.01790(7)
H10 H 0.1283 0.8245 0.0166
H11 H 0.1692 1.0446 -0.0209
C11 C 0.26685(11) 0.7876(3) 0.01873(7)
C12 C 0.26645(10) 0.6007(3) -0.03353(7)
H12 H 0.2132 0.5866 -0.0646
C13 C 0.33905(11) 0.4526(3) -0.03772(7)
H13 H 0.3910 0.4758 -0.0060
C14 C 0.34840(10) 0.2568(3) -0.08585(7)
C15 C 0.27649(12) 0.1956(3) -0.13556(8)
H14 H 0.2202 0.2846 -0.1398
C16 C 0.28785(13) 0.0045(4) -0.17855(8)
H15 H 0.2390 -0.0356 -0.2115
C17 C 0.37093(14) -0.1277(4) -0.17320(9)
H16 H 0.3780 -0.2573 -0.2023
C18 C 0.44298(13) -0.0684(4) -0.12514(9)
H17 H 0.4994 -0.1566 -0.1216
C19 C 0.43196(12) 0.1231(3) -0.08166(8)
H18 H 0.4813 0.1629 -0.0491
loop_
_geom_bond_atom_site_label_1
_geom_bond_atom_site_label_2
_geom_bond_site_symmetry_1
_geom_bond_site_symmetry_2
O1 C1 1_555 1_555
O2 C1 1_555 1_555
O3 C11 1_555 1_555
C1 C2 1_555 1_555
C2 C3 1_555 1_555
C3 H1 1_555 1_555
C4 C3 1_555 1_555
H2 C4 1_555 1_555
C5 C4 1_555 1_555
H3 C5 1_555 1_555
C6 C5 1_555 1_555
H4 C6 1_555 1_555
C7 C2 1_555 1_555
H5 C7 1_555 1_555
C8 O2 1_555 1_555
H6 C8 1_555 1_555
H7 C8 1_555 1_555
C9 C8 1_555 1_555
H8 C9 1_555 1_555
H9 C9 1_555 1_555
C10 C9 1_555 1_555
H10 C10 1_555 1_555
H11 C10 1_555 1_555
C11 C10 1_555 1_555
C12 C11 1_555 1_555
H12 C12 1_555 1_555
C13 C12 1_555 1_555
H13 C13 1_555 1_555
C14 C13 1_555 1_555
C15 C14 1_555 1_555
H14 C15 1_555 1_555
C16 C15 1_555 1_555
H15 C16 1_555 1_555
C17 C16 1_555 1_555
H16 C17 1_555 1_555
C18 C17 1_555 1_555
H17 C18 1_555 1_555
C19 C14 1_555 1_555
H18 C19 1_555 1_555
C6 C7 1_555 1_555
C18 C19 1_555 1_555

#END
