
#######################################################################
#
#                 Cambridge Crystallographic Data Centre
#                                CCDC 
#
#######################################################################
#
# If this CIF has been generated from an entry in the Cambridge 
# Structural Database, then it will include bibliographic, chemical, 
# crystal, experimental, refinement or atomic coordinate data resulting 
# from the CCDC's data processing and validation procedures.
#
#######################################################################

data_JOLZUH
_chemical_formula_moiety         'C16 H36 N1 1+,C2 H3 N4 1-,1.5(H2 O1)'
_chemical_name_systematic        
'Hexadecan-1-aminium 5-methyltetrazol-1-ide sesquihydrate'
_symmetry_cell_setting           monoclinic
_symmetry_space_group_name_H-M   'P 21/n'
_symmetry_Int_Tables_number      14
_space_group_name_Hall           '-P 2yn'
loop_
_symmetry_equiv_pos_site_id
_symmetry_equiv_pos_as_xyz
1 x,y,z
2 1/2-x,1/2+y,1/2-z
3 -x,-y,-z
4 1/2+x,1/2-y,1/2+z
_cell_length_a                   7.28250(10)
_cell_length_b                   14.9699(2)
_cell_length_c                   42.2469(8)
_cell_angle_alpha                90
_cell_angle_beta                 93.473(2)
_cell_angle_gamma                90
_cell_volume                     4597.23
_exptl_crystal_colour            yellow
_exptl_crystal_description       block
_cell_formula_units_Z            8
_exptl_crystal_recrystallization_method water
loop_
_atom_site_label
_atom_site_type_symbol
_atom_site_fract_x
_atom_site_fract_y
_atom_site_fract_z
N1 N 0.5057(3) 0.24358(11) 0.20330(5)
N2 N 0.3335(2) 0.26527(11) 0.19331(4)
N3 N 0.5981(2) 0.31623(12) 0.20977(5)
N4 N 0.4892(2) 0.38708(11) 0.20418(4)
C1 C 0.3287(3) 0.35368(13) 0.19434(5)
C2 C 0.1618(4) 0.40734(19) 0.18572(8)
H1 H 0.1900 0.4697 0.1881
H2 H 0.0661 0.3916 0.1994
H3 H 0.1213 0.3954 0.1641
N5 N 0.0332(3) 0.14618(12) 0.19677(4)
C3 C 0.1400(3) 0.14122(16) 0.12831(5)
H4 H 0.2417 0.1346 0.1441
H5 H 0.1173 0.2046 0.1254
C4 C 0.4302(3) 0.10284(17) 0.05489(5)
H6 H 0.4432 0.0386 0.0569
H7 H 0.3337 0.1145 0.0386
C5 C 0.6683(3) 0.10426(17) 0.01318(5)
H8 H 0.6819 0.0400 0.0151
H9 H 0.5719 0.1158 -0.0032
C6 C 0.6090(3) 0.14130(17) 0.04435(5)
H10 H 0.7054 0.1297 0.0607
H11 H 0.5958 0.2056 0.0424
C7 C 0.1957(3) 0.10203(17) 0.09714(5)
H12 H 0.2098 0.0379 0.0995
H13 H 0.0978 0.1126 0.0810
C8 C 0.3722(3) 0.14042(17) 0.08605(5)
H14 H 0.4698 0.1296 0.1022
H15 H 0.3580 0.2046 0.0839
C9 C 0.8465(3) 0.14310(17) 0.00278(5)
H16 H 0.9427 0.1316 0.0192
H17 H 0.8328 0.2073 0.0008
C10 C 0.9065(3) 0.10631(16) -0.02833(5)
H18 H 0.9218 0.0422 -0.0263
H19 H 0.8097 0.1172 -0.0447
C11 C 1.1453(3) 0.10959(17) -0.06982(6)
H20 H 1.1606 0.0454 -0.0678
H21 H 1.0495 0.1206 -0.0863
C12 C 1.0838(3) 0.14622(17) -0.03881(6)
H22 H 1.0682 0.2104 -0.0409
H23 H 1.1803 0.1356 -0.0224
C13 C -0.1017(3) 0.14429(17) 0.16923(5)
H24 H -0.1359 0.2051 0.1635
H25 H -0.2116 0.1135 0.1752
C14 C 1.3230(4) 0.14982(19) -0.07980(6)
H26 H 1.3072 0.2140 -0.0817
H27 H 1.4181 0.1390 -0.0632
C15 C 1.3880(4) 0.1148(2) -0.11040(6)
H28 H 1.2940 0.1262 -0.1272
H29 H 1.4037 0.0506 -0.1087
C16 C -0.0287(3) 0.09856(17) 0.14076(5)
H30 H 0.0000 0.0371 0.1463
H31 H -0.1251 0.0977 0.1239
C17 C 1.5664(5) 0.1559(3) -0.11949(9)
H32 H 1.5503 0.2201 -0.1210
H33 H 1.6599 0.1444 -0.1026
C18 C 1.6341(7) 0.1235(4) -0.14947(11)
H34 H 1.7469 0.1535 -0.1535
H35 H 1.5440 0.1356 -0.1665
H36 H 1.6556 0.0603 -0.1480
H37 H 0.137(4) 0.1779(17) 0.1932(6)
H38 H -0.014(4) 0.1728(17) 0.2127(6)
H39 H 0.072(3) 0.0932(17) 0.2029(5)
C19 C 1.5289(3) 0.64342(17) 0.01763(5)
H40 H 1.5381 0.7079 0.0195
H41 H 1.4338 0.6302 0.0012
N6 N 0.5695(3) 0.57007(12) 0.21876(4)
C20 C 1.4710(3) 0.60589(17) 0.04879(5)
H42 H 1.5661 0.6191 0.0652
H43 H 1.4620 0.5414 0.0469
C21 C 1.2893(3) 0.64177(17) 0.05913(5)
H44 H 1.2976 0.7063 0.0609
H45 H 1.1936 0.6281 0.0429
C22 C 1.7690(3) 0.64495(17) -0.02360(5)
H46 H 1.7793 0.7093 -0.0216
H47 H 1.6735 0.6325 -0.0400
C23 C 1.2344(3) 0.60393(17) 0.09045(6)
H48 H 1.3315 0.6167 0.1065
H49 H 1.2249 0.5395 0.0885
C24 C 2.0079(3) 0.64656(17) -0.06509(6)
H50 H 2.0165 0.7110 -0.0631
H51 H 1.9129 0.6335 -0.0815
C25 C 0.7828(3) 0.58463(16) 0.17590(5)
H52 H 0.7785 0.5205 0.1727
H53 H 0.8819 0.5972 0.1916
C26 C 1.0054(3) 0.59910(18) 0.13280(6)
H54 H 1.1028 0.6130 0.1487
H55 H 1.0015 0.5347 0.1304
C27 C 1.7105(3) 0.60718(17) 0.00742(5)
H56 H 1.8055 0.6201 0.0239
H57 H 1.7011 0.5428 0.0055
C28 C 1.9496(3) 0.60854(17) -0.03409(5)
H58 H 2.0452 0.6209 -0.0177
H59 H 1.9393 0.5442 -0.0362
C29 C 1.0541(3) 0.63974(17) 0.10165(6)
H60 H 1.0633 0.7041 0.1040
H61 H 0.9562 0.6273 0.0857
C30 C 2.1893(3) 0.61140(18) -0.07554(6)
H62 H 2.2840 0.6237 -0.0590
H63 H 2.1802 0.5471 -0.0778
C31 C 0.8246(3) 0.62976(17) 0.14488(6)
H64 H 0.7262 0.6168 0.1290
H65 H 0.8285 0.6939 0.1480
C32 C 0.6045(3) 0.61465(15) 0.18838(5)
H66 H 0.6077 0.6788 0.1915
H67 H 0.5045 0.6013 0.1729
C33 C 2.2487(4) 0.6503(2) -0.10621(6)
H68 H 2.2564 0.7147 -0.1040
H69 H 2.1550 0.6373 -0.1229
C34 C 2.4311(4) 0.6157(2) -0.11619(7)
H70 H 2.4598 0.6435 -0.1358
H71 H 2.4239 0.5522 -0.1191
H72 H 2.5255 0.6295 -0.1001
H73 H 0.556(3) 0.5108(17) 0.2154(5)
H74 H 0.670(4) 0.5790(17) 0.2328(6)
H75 H 0.467(4) 0.5883(16) 0.2252(6)
C35 C 0.0658(3) 0.89135(13) 0.21372(5)
N7 N 0.1815(3) 0.82684(11) 0.22212(4)
N8 N 0.1459(3) 0.97059(11) 0.21615(5)
N9 N 0.3404(3) 0.86746(13) 0.23005(5)
C36 C -0.1291(4) 0.8779(2) 0.20286(7)
H76 H -0.1572 0.8152 0.2029
H77 H -0.1500 0.9010 0.1818
H78 H -0.2067 0.9086 0.2169
N10 N 0.3196(3) 0.95336(13) 0.22646(5)
O1 O 0.2210(3) 0.64086(11) 0.22617(5)
H79 H 0.200(4) 0.6953(8) 0.2252(7)
H80 H 0.138(3) 0.614(2) 0.2349(7)
O2 O 0.8964(2) 0.24490(10) 0.24603(4)
H81 H 0.811(3) 0.2751(15) 0.2374(6)
H82 H 0.969(3) 0.2829(13) 0.2541(6)
O3 O 0.6131(3) 1.07976(11) 0.23602(5)
H83 H 0.532(3) 1.0425(14) 0.2309(6)
H84 H 0.585(4) 1.1259(13) 0.2260(7)
loop_
_geom_bond_atom_site_label_1
_geom_bond_atom_site_label_2
_geom_bond_site_symmetry_1
_geom_bond_site_symmetry_2
N1 N2 1_555 1_555
N2 C1 1_555 1_555
N3 N1 1_555 1_555
N4 N3 1_555 1_555
C1 N4 1_555 1_555
C2 C1 1_555 1_555
H1 C2 1_555 1_555
H2 C2 1_555 1_555
H3 C2 1_555 1_555
N5 C13 1_555 1_555
C3 H4 1_555 1_555
H5 C3 1_555 1_555
C4 H6 1_555 1_555
H7 C4 1_555 1_555
C5 H8 1_555 1_555
H9 C5 1_555 1_555
C6 C4 1_555 1_555
H10 C6 1_555 1_555
H11 C6 1_555 1_555
C7 C3 1_555 1_555
H12 C7 1_555 1_555
H13 C7 1_555 1_555
C8 C4 1_555 1_555
H14 C8 1_555 1_555
H15 C8 1_555 1_555
C9 C5 1_555 1_555
H16 C9 1_555 1_555
H17 C9 1_555 1_555
C10 C9 1_555 1_555
H18 C10 1_555 1_555
H19 C10 1_555 1_555
C11 H20 1_555 1_555
H21 C11 1_555 1_555
C12 C10 1_555 1_555
H22 C12 1_555 1_555
H23 C12 1_555 1_555
C13 H24 1_555 1_555
H25 C13 1_555 1_555
C14 C11 1_555 1_555
H26 C14 1_555 1_555
H27 C14 1_555 1_555
C15 C14 1_555 1_555
H28 C15 1_555 1_555
H29 C15 1_555 1_555
C16 C3 1_555 1_555
H30 C16 1_555 1_555
H31 C16 1_555 1_555
C17 C15 1_555 1_555
H32 C17 1_555 1_555
H33 C17 1_555 1_555
C18 C17 1_555 1_555
H34 C18 1_555 1_555
H35 C18 1_555 1_555
H36 C18 1_555 1_555
H37 N5 1_555 1_555
H38 N5 1_555 1_555
H39 N5 1_555 1_555
C19 H40 1_555 1_555
H41 C19 1_555 1_555
N6 C32 1_555 1_555
C20 C19 1_555 1_555
H42 C20 1_555 1_555
H43 C20 1_555 1_555
C21 C20 1_555 1_555
H44 C21 1_555 1_555
H45 C21 1_555 1_555
C22 H46 1_555 1_555
H47 C22 1_555 1_555
C23 C21 1_555 1_555
H48 C23 1_555 1_555
H49 C23 1_555 1_555
C24 H50 1_555 1_555
H51 C24 1_555 1_555
C25 H52 1_555 1_555
H53 C25 1_555 1_555
C26 H54 1_555 1_555
H55 C26 1_555 1_555
C27 C19 1_555 1_555
H56 C27 1_555 1_555
H57 C27 1_555 1_555
C28 C22 1_555 1_555
H58 C28 1_555 1_555
H59 C28 1_555 1_555
C29 C23 1_555 1_555
H60 C29 1_555 1_555
H61 C29 1_555 1_555
C30 C24 1_555 1_555
H62 C30 1_555 1_555
H63 C30 1_555 1_555
C31 C25 1_555 1_555
H64 C31 1_555 1_555
H65 C31 1_555 1_555
C32 C25 1_555 1_555
H66 C32 1_555 1_555
H67 C32 1_555 1_555
C33 C30 1_555 1_555
H68 C33 1_555 1_555
H69 C33 1_555 1_555
C34 C33 1_555 1_555
H70 C34 1_555 1_555
H71 C34 1_555 1_555
H72 C34 1_555 1_555
H73 N6 1_555 1_555
H74 N6 1_555 1_555
H75 N6 1_555 1_555
C35 N7 1_555 1_555
N7 N9 1_555 1_555
N8 C35 1_555 1_555
N9 N10 1_555 1_555
C36 C35 1_555 1_555
H76 C36 1_555 1_555
H77 C36 1_555 1_555
H78 C36 1_555 1_555
N10 N8 1_555 1_555
O1 H79 1_555 1_555
H80 O1 1_555 1_555
O2 H81 1_555 1_555
H82 O2 1_555 1_555
O3 H83 1_555 1_555
H84 O3 1_555 1_555
C5 C6 1_555 1_555
C7 C8 1_555 1_555
C11 C12 1_555 1_555
C13 C16 1_555 1_555
C22 C27 1_555 1_555
C24 C28 1_555 1_555
C26 C29 1_555 1_555
C26 C31 1_555 1_555

#END
