
#######################################################################
#
#                 Cambridge Crystallographic Data Centre
#                                CCDC 
#
#######################################################################
#
# If this CIF has been generated from an entry in the Cambridge 
# Structural Database, then it will include bibliographic, chemical, 
# crystal, experimental, refinement or atomic coordinate data resulting 
# from the CCDC's data processing and validation procedures.
#
#######################################################################

data_JOMQOR
_chemical_formula_moiety         'C13 H25 O1 Te1 1+,Cl1 1-'
_chemical_name_systematic        
'(R~Te~)-(-)Ethyl(((1S,2R,4R)-2-hydroxy-7,7-dimethylbicyclo(2.2.1)heptan-1-yl)methyl)methyltelluronium chloride'
_symmetry_cell_setting           orthorhombic
_symmetry_space_group_name_H-M   'P 21 21 21'
_symmetry_Int_Tables_number      19
_space_group_name_Hall           'P 2ac 2ab'
loop_
_symmetry_equiv_pos_site_id
_symmetry_equiv_pos_as_xyz
1 x,y,z
2 1/2-x,-y,1/2+z
3 1/2+x,1/2-y,-z
4 -x,1/2+y,1/2-z
_cell_length_a                   9.655(3)
_cell_length_b                   24.241(5)
_cell_length_c                   6.719(4)
_cell_angle_alpha                90
_cell_angle_beta                 90
_cell_angle_gamma                90
_cell_volume                     1572.56
_exptl_crystal_colour            colorless
_exptl_crystal_description       prismatic
_chemical_melting_point          432-433K
_cell_formula_units_Z            4
_exptl_crystal_recrystallization_method dichloromethane/hexane
loop_
_atom_site_label
_atom_site_type_symbol
_atom_site_fract_x
_atom_site_fract_y
_atom_site_fract_z
Te1 Te -0.71100(6) -0.17185(3) -0.67839(10)
O1 O -0.9010(7) -0.1640(3) -0.9911(9)
C1 C -0.909(1) -0.1479(4) -0.560(1)
C2 C -1.0137(9) -0.1209(3) -0.696(1)
C3 C -1.030(1) -0.1487(4) -0.904(1)
C4 C -1.107(1) -0.1047(6) -1.025(2)
C5 C -1.128(1) -0.0574(4) -0.873(2)
C6 C -1.240(1) -0.0775(4) -0.730(2)
C7 C -1.160(1) -0.1214(4) -0.610(1)
C8 C -0.996(1) -0.0591(4) -0.754(2)
C9 C -0.865(1) -0.0434(5) -0.870(2)
C10 C -1.000(1) -0.0204(5) -0.568(2)
C11 C -0.7578(9) -0.2555(3) -0.715(1)
C12 C -0.626(1) -0.1823(5) -0.387(1)
C13 C -0.563(2) -0.1323(6) -0.299(2)
H1 H -0.8921 -0.1229 -0.4541
H2 H -0.9515 -0.1804 -0.5088
H3 H -1.0870 -0.1806 -0.8912
H4 H -1.0531 -0.0927 -1.1351
H5 H -1.1937 -0.1183 -1.0714
H6 H -1.1472 -0.0225 -0.9320
H7 H -1.3156 -0.0933 -0.7996
H8 H -1.2719 -0.0486 -0.6469
H9 H -1.2009 -0.1566 -0.6265
H10 H -1.1579 -0.1120 -0.4731
H11 H -0.7865 -0.0488 -0.7885
H12 H -0.8587 -0.0657 -0.9856
H13 H -0.8711 -0.0056 -0.9080
H14 H -0.9194 -0.0259 -0.4908
H15 H -1.0045 0.0169 -0.6113
H16 H -1.0799 -0.0287 -0.4908
H17 H -0.8201 -0.2668 -0.6139
H18 H -0.7995 -0.2609 -0.8419
H19 H -0.6751 -0.2765 -0.7071
H20 H -0.6975 -0.1945 -0.3023
H21 H -0.5556 -0.2097 -0.3956
H22 H -0.6316 -0.1046 -0.2874
H23 H -0.4895 -0.1200 -0.3797
H24 H -0.5288 -0.1414 -0.1695
Cl1 Cl -0.4180(2) -0.2256(1) -0.8002(4)
loop_
_geom_bond_atom_site_label_1
_geom_bond_atom_site_label_2
_geom_bond_site_symmetry_1
_geom_bond_site_symmetry_2
Te1 C1 1_555 1_555
O1 C3 1_555 1_555
C1 C2 1_555 1_555
C2 C3 1_555 1_555
C3 C4 1_555 1_555
C4 C5 1_555 1_555
C5 C6 1_555 1_555
C6 C7 1_555 1_555
C7 C2 1_555 1_555
C8 C2 1_555 1_555
C9 C8 1_555 1_555
C10 C8 1_555 1_555
C11 Te1 1_555 1_555
C12 Te1 1_555 1_555
C13 C12 1_555 1_555
H1 C1 1_555 1_555
H2 C1 1_555 1_555
H3 C3 1_555 1_555
H4 C4 1_555 1_555
H5 C4 1_555 1_555
H6 C5 1_555 1_555
H7 C6 1_555 1_555
H8 C6 1_555 1_555
H9 C7 1_555 1_555
H10 C7 1_555 1_555
H11 C9 1_555 1_555
H12 C9 1_555 1_555
H13 C9 1_555 1_555
H14 C10 1_555 1_555
H15 C10 1_555 1_555
H16 C10 1_555 1_555
H17 C11 1_555 1_555
H18 C11 1_555 1_555
H19 C11 1_555 1_555
H20 C12 1_555 1_555
H21 C12 1_555 1_555
H22 C13 1_555 1_555
H23 C13 1_555 1_555
H24 C13 1_555 1_555
C5 C8 1_555 1_555

#END
