
#######################################################################
#
#                 Cambridge Crystallographic Data Centre
#                                CCDC 
#
#######################################################################
#
# If this CIF has been generated from an entry in the Cambridge 
# Structural Database, then it will include bibliographic, chemical, 
# crystal, experimental, refinement or atomic coordinate data resulting 
# from the CCDC's data processing and validation procedures.
#
#######################################################################

data_JONTOL01
_chemical_formula_moiety         'C15 H21 Br2 Cl1 O3'
_chemical_name_systematic        
3,8-dibromo-4-chloro-4,12,13,13-tetramethyl-7,11-dioxatetracyclo[6.4.1.0^1,6^.0^10,12^]tridecan-9-ol
_symmetry_cell_setting           orthorhombic
_symmetry_space_group_name_H-M   'P 21 21 21'
_symmetry_Int_Tables_number      19
_space_group_name_Hall           'P 2ac 2ab'
loop_
_symmetry_equiv_pos_site_id
_symmetry_equiv_pos_as_xyz
1 x,y,z
2 1/2-x,-y,1/2+z
3 -x,1/2+y,1/2-z
4 1/2+x,1/2-y,-z
_cell_length_a                   9.4503(12)
_cell_length_b                   13.1377(16)
_cell_length_c                   13.4631(17)
_cell_angle_alpha                90
_cell_angle_beta                 90
_cell_angle_gamma                90
_cell_volume                     1671.51
_exptl_crystal_colour            colorless
_exptl_crystal_description       block
_cell_formula_units_Z            4
loop_
_atom_site_label
_atom_site_type_symbol
_atom_site_fract_x
_atom_site_fract_y
_atom_site_fract_z
Br1 Br 0.16119(6) 0.88677(4) 0.06263(3)
Br2 Br -0.15438(7) 0.95415(4) -0.49978(3)
Cl1 Cl -0.33103(16) 0.76630(9) -0.33738(9)
C1 C 0.1438(5) 0.8502(3) -0.0790(2)
C2 C 0.0747(4) 0.8826(3) -0.2407(3)
O1 O 0.0080(3) 0.8067(2) -0.08791(18)
C3 C -0.0435(4) 0.8208(3) -0.1895(3)
H1 H -0.0502 0.7540 -0.2217
C4 C 0.1450(4) 0.9417(3) -0.1510(3)
C5 C -0.1094(4) 0.8922(3) -0.3715(3)
H2 H -0.0749 0.8232 -0.3847
C6 C 0.2920(4) 0.9839(3) -0.1771(3)
H3 H 0.3498 0.9301 -0.2033
H4 H 0.2826 1.0368 -0.2258
H5 H 0.3355 1.0111 -0.1184
C7 C 0.2611(5) 0.7702(3) -0.0997(3)
H6 H 0.2398 0.7065 -0.0649
O2 O 0.3942(3) 0.8077(3) -0.0697(3)
H7 H 0.4247 0.7729 -0.0240
C8 C 0.0109(4) 0.9505(3) -0.3216(3)
H8 H -0.0249 1.0130 -0.2925
H9 H 0.0826 0.9680 -0.3702
C9 C -0.1860(5) 0.8714(3) -0.1938(3)
H10 H -0.1798 0.9382 -0.1634
H11 H -0.2536 0.8315 -0.1561
C10 C -0.2388(5) 0.8825(3) -0.3023(3)
O3 O 0.1603(4) 0.69992(19) -0.2603(2)
C11 C 0.1871(5) 0.8069(3) -0.2826(3)
C12 C 0.2729(5) 0.7515(3) -0.2101(3)
H12 H 0.3681 0.7334 -0.2331
C13 C 0.0568(5) 1.0300(3) -0.1096(3)
H13 H 0.0590 1.0860 -0.1554
H14 H -0.0392 1.0081 -0.1003
H15 H 0.0954 1.0513 -0.0470
C14 C 0.2460(6) 0.8220(4) -0.3854(3)
H16 H 0.2619 0.8932 -0.3968
H17 H 0.3338 0.7858 -0.3916
H18 H 0.1798 0.7966 -0.4335
C15 C -0.3435(6) 0.9695(4) -0.3074(4)
H19 H -0.3768 0.9768 -0.3744
H20 H -0.4221 0.9554 -0.2643
H21 H -0.2981 1.0313 -0.2867
loop_
_geom_bond_atom_site_label_1
_geom_bond_atom_site_label_2
_geom_bond_site_symmetry_1
_geom_bond_site_symmetry_2
Br1 C1 1_555 1_555
Br2 C5 1_555 1_555
Cl1 C10 1_555 1_555
C1 O1 1_555 1_555
C2 C3 1_555 1_555
O1 C3 1_555 1_555
C3 H1 1_555 1_555
C4 C1 1_555 1_555
C5 H2 1_555 1_555
C6 C4 1_555 1_555
H3 C6 1_555 1_555
H4 C6 1_555 1_555
H5 C6 1_555 1_555
C7 C1 1_555 1_555
H6 C7 1_555 1_555
O2 C7 1_555 1_555
H7 O2 1_555 1_555
C8 C2 1_555 1_555
H8 C8 1_555 1_555
H9 C8 1_555 1_555
C9 C3 1_555 1_555
H10 C9 1_555 1_555
H11 C9 1_555 1_555
C10 C5 1_555 1_555
O3 C11 1_555 1_555
C11 C2 1_555 1_555
C12 C7 1_555 1_555
H12 C12 1_555 1_555
C13 C4 1_555 1_555
H13 C13 1_555 1_555
H14 C13 1_555 1_555
H15 C13 1_555 1_555
C14 C11 1_555 1_555
H16 C14 1_555 1_555
H17 C14 1_555 1_555
H18 C14 1_555 1_555
C15 C10 1_555 1_555
H19 C15 1_555 1_555
H20 C15 1_555 1_555
H21 C15 1_555 1_555
C2 C4 1_555 1_555
C5 C8 1_555 1_555
C9 C10 1_555 1_555
O3 C12 1_555 1_555
C11 C12 1_555 1_555

#END
