
#######################################################################
#
#                 Cambridge Crystallographic Data Centre
#                                CCDC 
#
#######################################################################
#
# If this CIF has been generated from an entry in the Cambridge 
# Structural Database, then it will include bibliographic, chemical, 
# crystal, experimental, refinement or atomic coordinate data resulting 
# from the CCDC's data processing and validation procedures.
#
#######################################################################

data_JONWOA
_chemical_formula_moiety         'C15 H10 N2 O2'
_chemical_name_systematic        
5,11-Methanodibenzo[b,f][1,5]diazocine-6,12-dione
_symmetry_cell_setting           orthorhombic
_symmetry_space_group_name_H-M   'P b c a'
_symmetry_Int_Tables_number      61
_space_group_name_Hall           '-P 2ac 2ab'
loop_
_symmetry_equiv_pos_site_id
_symmetry_equiv_pos_as_xyz
1 x,y,z
2 1/2+x,1/2-y,-z
3 -x,1/2+y,1/2-z
4 1/2-x,-y,1/2+z
5 -x,-y,-z
6 1/2-x,1/2+y,z
7 x,1/2-y,1/2+z
8 1/2+x,y,1/2-z
_cell_length_a                   7.6277(3)
_cell_length_b                   15.3676(6)
_cell_length_c                   19.0910(7)
_cell_angle_alpha                90
_cell_angle_beta                 90
_cell_angle_gamma                90
_cell_volume                     2237.84
_exptl_crystal_colour            colorless
_exptl_crystal_description       plate
_chemical_melting_point          '502-505 K'
_cell_formula_units_Z            8
_exptl_crystal_recrystallization_method dichloromethane/n-pentane
loop_
_atom_site_label
_atom_site_type_symbol
_atom_site_fract_x
_atom_site_fract_y
_atom_site_fract_z
O1 O 0.13371(12) 0.44652(6) 0.05515(4)
O2 O 0.17150(12) 0.68767(5) 0.25271(4)
N1 N -0.06202(13) 0.54022(6) 0.10702(5)
N2 N 0.04725(13) 0.67867(6) 0.14304(5)
C1 C 0.09380(16) 0.52083(8) 0.06955(6)
C2 C 0.21148(16) 0.59680(8) 0.05579(6)
C3 C 0.19941(16) 0.67084(8) 0.09897(6)
C4 C 0.07440(16) 0.64902(8) 0.21324(6)
C5 C -0.00928(16) 0.56438(8) 0.23134(6)
C6 C -0.06100(16) 0.50701(8) 0.17779(6)
C7 C -0.09832(16) 0.63340(8) 0.10932(7)
H1 H -0.2057(18) 0.6435(8) 0.1367(7)
H2 H -0.1076(16) 0.6539(9) 0.0618(7)
C8 C 0.35093(16) 0.58906(8) 0.00914(6)
H3 H 0.3567(18) 0.5371(9) -0.0215(7)
C9 C 0.47954(17) 0.65270(8) 0.00685(7)
H4 H 0.579(2) 0.6468(10) -0.0249(8)
C10 C 0.46963(17) 0.72399(8) 0.05169(7)
H5 H 0.560(2) 0.7681(10) 0.0510(8)
C11 C 0.33013(16) 0.73376(8) 0.09766(6)
H6 H 0.3235(18) 0.7841(9) 0.1278(7)
C12 C -0.01566(16) 0.53615(8) 0.30074(6)
H7 H 0.0172(17) 0.5762(9) 0.3386(7)
C13 C -0.06847(17) 0.45231(8) 0.31604(7)
H8 H -0.075(2) 0.4346(10) 0.3646(8)
C14 C -0.11214(18) 0.39519(8) 0.26240(7)
H9 H -0.147(2) 0.3349(10) 0.2731(7)
C15 C -0.10894(17) 0.42231(8) 0.19308(7)
H10 H -0.1440(19) 0.3835(10) 0.1551(8)
loop_
_geom_bond_atom_site_label_1
_geom_bond_atom_site_label_2
_geom_bond_site_symmetry_1
_geom_bond_site_symmetry_2
O1 C1 1_555 1_555
O2 C4 1_555 1_555
N1 C1 1_555 1_555
N2 C3 1_555 1_555
C1 C2 1_555 1_555
C2 C3 1_555 1_555
C3 C11 1_555 1_555
C4 N2 1_555 1_555
C5 C4 1_555 1_555
C6 N1 1_555 1_555
C7 N1 1_555 1_555
H1 C7 1_555 1_555
H2 C7 1_555 1_555
C8 C2 1_555 1_555
H3 C8 1_555 1_555
C9 C8 1_555 1_555
H4 C9 1_555 1_555
C10 C9 1_555 1_555
H5 C10 1_555 1_555
C11 C10 1_555 1_555
H6 C11 1_555 1_555
C12 C5 1_555 1_555
H7 C12 1_555 1_555
C13 C12 1_555 1_555
H8 C13 1_555 1_555
C14 C13 1_555 1_555
H9 C14 1_555 1_555
C15 C6 1_555 1_555
H10 C15 1_555 1_555
N2 C7 1_555 1_555
C5 C6 1_555 1_555
C14 C15 1_555 1_555

#END
