
#######################################################################
#
#                 Cambridge Crystallographic Data Centre
#                                CCDC 
#
#######################################################################
#
# If this CIF has been generated from an entry in the Cambridge 
# Structural Database, then it will include bibliographic, chemical, 
# crystal, experimental, refinement or atomic coordinate data resulting 
# from the CCDC's data processing and validation procedures.
#
#######################################################################

data_JONWEQ
_chemical_formula_moiety         'C28 H42 Br2 N2 O8'
_chemical_name_systematic        
'Di-t-butyl (2,5-bis(bromomethyl)-1,4-phenylene)bis(t-butoxycarbonylcarbamate)'
_symmetry_cell_setting           monoclinic
_symmetry_space_group_name_H-M   'P 21/c'
_symmetry_Int_Tables_number      14
_space_group_name_Hall           '-P 2ybc'
loop_
_symmetry_equiv_pos_site_id
_symmetry_equiv_pos_as_xyz
1 x,y,z
2 -x,1/2+y,1/2-z
3 -x,-y,-z
4 x,1/2-y,1/2+z
_cell_length_a                   10.1583(8)
_cell_length_b                   14.2968(10)
_cell_length_c                   11.5328(8)
_cell_angle_alpha                90
_cell_angle_beta                 92.166(2)
_cell_angle_gamma                90
_cell_volume                     1673.73
_exptl_crystal_colour            brown
_exptl_crystal_description       plate
_cell_formula_units_Z            2
_exptl_crystal_recrystallization_method dichloromethane
loop_
_atom_site_label
_atom_site_type_symbol
_atom_site_fract_x
_atom_site_fract_y
_atom_site_fract_z
Br1 Br 0.30598(6) 0.03872(4) 0.23129(5)
O1 O 0.1444(3) 0.10549(19) -0.2411(2)
O2 O -0.1365(3) 0.2977(2) -0.1630(3)
O3 O 0.0261(3) 0.2242(2) -0.3209(3)
O4 O -0.2194(3) 0.1769(2) -0.0627(3)
C1 C 0.1133(4) 0.0357(3) 0.2305(4)
H1 H 0.0847 -0.0128 0.2854
H2 H 0.0802 0.0968 0.2572
N1 N -0.0339(3) 0.1536(2) -0.1524(3)
C2 C 0.0466(4) 0.1680(3) -0.2459(4)
C3 C 0.0374(4) 0.0888(3) 0.0325(3)
H3 H 0.0624 0.1505 0.0547
C4 C -0.0157(4) 0.0733(3) -0.0766(3)
C5 C 0.0558(4) 0.0153(3) 0.1126(3)
C6 C 0.2328(4) 0.0966(3) -0.3397(4)
C7 C 0.3052(5) 0.1878(3) -0.3584(5)
H4 H 0.2447 0.2333 -0.3949
H5 H 0.3792 0.1768 -0.4089
H6 H 0.3386 0.2121 -0.2835
C8 C -0.3351(4) 0.2271(3) -0.0192(4)
C9 C -0.1342(4) 0.2193(3) -0.1277(4)
C10 C -0.2905(5) 0.3097(3) 0.0548(4)
H7 H -0.2289 0.2881 0.1166
H8 H -0.3671 0.3388 0.0893
H9 H -0.2466 0.3556 0.0063
C11 C -0.4238(5) 0.2547(4) -0.1217(4)
H10 H -0.3816 0.3044 -0.1655
H11 H -0.5081 0.2774 -0.0940
H12 H -0.4393 0.2003 -0.1720
C12 C -0.3970(5) 0.1528(3) 0.0539(5)
H13 H -0.4202 0.0986 0.0053
H14 H -0.4767 0.1779 0.0878
H15 H -0.3344 0.1337 0.1162
C13 C 0.3251(5) 0.0191(3) -0.2978(4)
H16 H 0.3725 0.0390 -0.2264
H17 H 0.3885 0.0057 -0.3576
H18 H 0.2740 -0.0374 -0.2824
C14 C 0.1552(5) 0.0650(4) -0.4477(4)
H19 H 0.1032 0.0095 -0.4296
H20 H 0.2162 0.0497 -0.5087
H21 H 0.0962 0.1153 -0.4745
Br1B Br -0.30598(6) -0.03872(4) -0.23129(5)
O1B O -0.1444(3) -0.10549(19) 0.2411(2)
O2B O 0.1365(3) -0.2977(2) 0.1630(3)
O3B O -0.0261(3) -0.2242(2) 0.3209(3)
O4B O 0.2194(3) -0.1769(2) 0.0627(3)
C1B C -0.1133(4) -0.0357(3) -0.2305(4)
H1B H -0.0847 0.0128 -0.2854
H2B H -0.0802 -0.0968 -0.2572
N1B N 0.0339(3) -0.1536(2) 0.1524(3)
C2B C -0.0466(4) -0.1680(3) 0.2459(4)
C3B C -0.0374(4) -0.0888(3) -0.0325(3)
H3B H -0.0624 -0.1505 -0.0547
C4B C 0.0157(4) -0.0733(3) 0.0766(3)
C5B C -0.0558(4) -0.0153(3) -0.1126(3)
C6B C -0.2328(4) -0.0966(3) 0.3397(4)
C7B C -0.3052(5) -0.1878(3) 0.3584(5)
H4B H -0.2447 -0.2333 0.3949
H5B H -0.3792 -0.1768 0.4089
H6B H -0.3386 -0.2121 0.2835
C8B C 0.3351(4) -0.2271(3) 0.0192(4)
C9B C 0.1342(4) -0.2193(3) 0.1277(4)
C10B C 0.2905(5) -0.3097(3) -0.0548(4)
H7B H 0.2289 -0.2881 -0.1166
H8B H 0.3671 -0.3388 -0.0893
H9B H 0.2466 -0.3556 -0.0063
C11B C 0.4238(5) -0.2547(4) 0.1217(4)
H10B H 0.3816 -0.3044 0.1655
H11B H 0.5081 -0.2774 0.0940
H12B H 0.4393 -0.2003 0.1720
C12B C 0.3970(5) -0.1528(3) -0.0539(5)
H13B H 0.4202 -0.0986 -0.0053
H14B H 0.4767 -0.1779 -0.0878
H15B H 0.3344 -0.1337 -0.1162
C13B C -0.3251(5) -0.0191(3) 0.2978(4)
H16B H -0.3725 -0.0390 0.2264
H17B H -0.3885 -0.0057 0.3576
H18B H -0.2740 0.0374 0.2824
C14B C -0.1552(5) -0.0650(4) 0.4477(4)
H19B H -0.1032 -0.0095 0.4296
H20B H -0.2162 -0.0497 0.5087
H21B H -0.0962 -0.1153 0.4745
loop_
_geom_bond_atom_site_label_1
_geom_bond_atom_site_label_2
_geom_bond_site_symmetry_1
_geom_bond_site_symmetry_2
Br1 C1 1_555 1_555
O1 C2 1_555 1_555
O2 C9 1_555 1_555
O3 C2 1_555 1_555
O4 C8 1_555 1_555
C1 H1 1_555 1_555
H2 C1 1_555 1_555
N1 C2 1_555 1_555
C3 H3 1_555 1_555
C4 N1 1_555 1_555
C5 C1 1_555 1_555
C6 O1 1_555 1_555
C7 C6 1_555 1_555
H4 C7 1_555 1_555
H5 C7 1_555 1_555
H6 C7 1_555 1_555
C8 C10 1_555 1_555
C9 O4 1_555 1_555
C10 H7 1_555 1_555
H8 C10 1_555 1_555
H9 C10 1_555 1_555
C11 C8 1_555 1_555
H10 C11 1_555 1_555
H11 C11 1_555 1_555
H12 C11 1_555 1_555
C12 C8 1_555 1_555
H13 C12 1_555 1_555
H14 C12 1_555 1_555
H15 C12 1_555 1_555
C13 C6 1_555 1_555
H16 C13 1_555 1_555
H17 C13 1_555 1_555
H18 C13 1_555 1_555
C14 C6 1_555 1_555
H19 C14 1_555 1_555
H20 C14 1_555 1_555
H21 C14 1_555 1_555
Br1B C1B 1_555 1_555
O1B C2B 1_555 1_555
O2B C9B 1_555 1_555
O3B C2B 1_555 1_555
O4B C8B 1_555 1_555
C1B H1B 1_555 1_555
H2B C1B 1_555 1_555
N1B C2B 1_555 1_555
C3B H3B 1_555 1_555
C4B C5 1_555 1_555
C5B C4 1_555 1_555
C6B O1B 1_555 1_555
C7B C6B 1_555 1_555
H4B C7B 1_555 1_555
H5B C7B 1_555 1_555
H6B C7B 1_555 1_555
C8B C10B 1_555 1_555
C9B O4B 1_555 1_555
C10B H7B 1_555 1_555
H8B C10B 1_555 1_555
H9B C10B 1_555 1_555
C11B C8B 1_555 1_555
H10B C11B 1_555 1_555
H11B C11B 1_555 1_555
H12B C11B 1_555 1_555
C12B C8B 1_555 1_555
H13B C12B 1_555 1_555
H14B C12B 1_555 1_555
H15B C12B 1_555 1_555
C13B C6B 1_555 1_555
H16B C13B 1_555 1_555
H17B C13B 1_555 1_555
H18B C13B 1_555 1_555
C14B C6B 1_555 1_555
H19B C14B 1_555 1_555
H20B C14B 1_555 1_555
H21B C14B 1_555 1_555
N1 C9 1_555 1_555
C3 C4 1_555 1_555
C3 C5 1_555 1_555
C1B C5B 1_555 1_555
N1B C4B 1_555 1_555
N1B C9B 1_555 1_555
C3B C4B 1_555 1_555
C3B C5B 1_555 1_555

#END
