
#######################################################################
#
#                 Cambridge Crystallographic Data Centre
#                                CCDC 
#
#######################################################################
#
# If this CIF has been generated from an entry in the Cambridge 
# Structural Database, then it will include bibliographic, chemical, 
# crystal, experimental, refinement or atomic coordinate data resulting 
# from the CCDC's data processing and validation procedures.
#
#######################################################################

data_JOPTIT
_chemical_formula_moiety         'C16 H21 N2 1+,I1 1-'
_chemical_name_systematic        
'2-cyclohexyl-9,9a-dihydro-1H-imidazo[1,5-a]indol-2-ium iodide unknown solvate'
_symmetry_cell_setting           orthorhombic
_symmetry_space_group_name_H-M   'P b c a'
_symmetry_Int_Tables_number      61
_space_group_name_Hall           '-P 2ac 2ab'
loop_
_symmetry_equiv_pos_site_id
_symmetry_equiv_pos_as_xyz
1 x,y,z
2 1/2-x,-y,1/2+z
3 -x,1/2+y,1/2-z
4 1/2+x,1/2-y,-z
5 -x,-y,-z
6 1/2+x,y,1/2-z
7 x,1/2-y,1/2+z
8 1/2-x,1/2+y,z
_cell_length_a                   11.3435(19)
_cell_length_b                   12.737(2)
_cell_length_c                   24.224(4)
_cell_angle_alpha                90
_cell_angle_beta                 90
_cell_angle_gamma                90
_cell_volume                     3499.94
_exptl_crystal_colour            yellow
_exptl_crystal_description       sheet
_cell_formula_units_Z            8
loop_
_atom_site_label
_atom_site_type_symbol
_atom_site_fract_x
_atom_site_fract_y
_atom_site_fract_z
I1 I 0.05185(3) 0.51535(2) 0.19861(2)
N1 N 0.7478(3) 0.2902(3) 0.25556(13)
N2 N 0.8463(3) 0.3554(3) 0.32548(14)
C1 C 0.8191(4) 0.3639(3) 0.27239(17)
C2 C 0.8691(4) 0.4326(3) 0.36620(16)
C3 C 0.9409(4) 0.5206(3) 0.36154(17)
H1 H 0.9807 0.5373 0.3282
C4 C 0.9511(4) 0.5828(3) 0.40842(19)
H2 H 0.9990 0.6439 0.4071
C5 C 0.8929(4) 0.5577(4) 0.45731(19)
H3 H 0.9022 0.6007 0.4890
C6 C 0.8212(5) 0.4698(4) 0.45944(19)
H4 H 0.7810 0.4528 0.4927
C7 C 0.8079(4) 0.4065(4) 0.41351(17)
C8 C 0.7317(5) 0.3126(4) 0.40409(18)
H5 H 0.6483 0.3331 0.3989
H6 H 0.7373 0.2627 0.4353
C9 C 0.7837(5) 0.2648(3) 0.35069(18)
H7 H 0.8413 0.2082 0.3601
C10 C 0.7039(4) 0.2288(3) 0.30337(17)
H8 H 0.7120 0.1524 0.2968
H9 H 0.6202 0.2451 0.3112
C11 C 0.7083(4) 0.2694(3) 0.19964(17)
H10 H 0.6229 0.2499 0.2013
C12 C 0.7195(5) 0.3652(3) 0.16298(17)
H11 H 0.8030 0.3877 0.1615
H12 H 0.6726 0.4236 0.1787
C13 C 0.6756(5) 0.3405(4) 0.10425(19)
H13 H 0.5901 0.3247 0.1054
H14 H 0.6872 0.4027 0.0804
C14 C 0.7406(5) 0.2485(3) 0.08018(17)
H15 H 0.8246 0.2672 0.0752
H16 H 0.7074 0.2315 0.0435
C15 C 0.7314(5) 0.1534(4) 0.11729(17)
H17 H 0.7788 0.0954 0.1015
H18 H 0.6483 0.1300 0.1189
C16 C 0.7748(5) 0.1770(3) 0.17552(17)
H19 H 0.7632 0.1145 0.1992
H20 H 0.8601 0.1932 0.1746
H21 H 0.855(3) 0.419(3) 0.2495(16)
loop_
_geom_bond_atom_site_label_1
_geom_bond_atom_site_label_2
_geom_bond_site_symmetry_1
_geom_bond_site_symmetry_2
N1 C1 1_555 1_555
N2 C1 1_555 1_555
C1 H21 1_555 1_555
C2 N2 1_555 1_555
C3 C2 1_555 1_555
H1 C3 1_555 1_555
C4 C3 1_555 1_555
H2 C4 1_555 1_555
C5 C4 1_555 1_555
H3 C5 1_555 1_555
C6 C5 1_555 1_555
H4 C6 1_555 1_555
C7 C2 1_555 1_555
C8 C7 1_555 1_555
H5 C8 1_555 1_555
H6 C8 1_555 1_555
C9 N2 1_555 1_555
H7 C9 1_555 1_555
C10 N1 1_555 1_555
H8 C10 1_555 1_555
H9 C10 1_555 1_555
C11 N1 1_555 1_555
H10 C11 1_555 1_555
C12 C11 1_555 1_555
H11 C12 1_555 1_555
H12 C12 1_555 1_555
C13 C12 1_555 1_555
H13 C13 1_555 1_555
H14 C13 1_555 1_555
C14 C13 1_555 1_555
H15 C14 1_555 1_555
H16 C14 1_555 1_555
C15 C14 1_555 1_555
H17 C15 1_555 1_555
H18 C15 1_555 1_555
C16 C11 1_555 1_555
H19 C16 1_555 1_555
H20 C16 1_555 1_555
C6 C7 1_555 1_555
C8 C9 1_555 1_555
C9 C10 1_555 1_555
C15 C16 1_555 1_555

#END
