
#######################################################################
#
#                 Cambridge Crystallographic Data Centre
#                                CCDC 
#
#######################################################################
#
# If this CIF has been generated from an entry in the Cambridge 
# Structural Database, then it will include bibliographic, chemical, 
# crystal, experimental, refinement or atomic coordinate data resulting 
# from the CCDC's data processing and validation procedures.
#
#######################################################################

data_JOPTUF
_chemical_formula_moiety         'C18 H19 N2 1+,I1 1-'
_chemical_name_systematic        
'2-(1-phenylethyl)-9,9a-dihydro-1H-imidazo[1,5-a]indol-2-ium iodide'
_symmetry_cell_setting           orthorhombic
_symmetry_space_group_name_H-M   'P 21 21 21'
_symmetry_Int_Tables_number      19
_space_group_name_Hall           'P 2ac 2ab'
loop_
_symmetry_equiv_pos_site_id
_symmetry_equiv_pos_as_xyz
1 x,y,z
2 1/2-x,-y,1/2+z
3 -x,1/2+y,1/2-z
4 1/2+x,1/2-y,-z
_cell_length_a                   6.6862(13)
_cell_length_b                   10.542(2)
_cell_length_c                   23.520(5)
_cell_angle_alpha                90
_cell_angle_beta                 90
_cell_angle_gamma                90
_cell_volume                     1657.83
_exptl_crystal_colour            colorless
_exptl_crystal_description       block
_cell_formula_units_Z            4
loop_
_atom_site_label
_atom_site_type_symbol
_atom_site_fract_x
_atom_site_fract_y
_atom_site_fract_z
I1 I 0.59179(4) 0.57163(3) 0.21696(2)
N1 N 0.0805(5) 0.7821(3) 0.28880(14)
N2 N 0.0633(5) 0.8699(3) 0.20490(13)
C1 C 0.1697(7) 0.8043(4) 0.23987(19)
C2 C -0.1132(6) 0.9213(5) 0.23443(17)
H1 H -0.2346 0.9045 0.2131
H2 H -0.1006 1.0121 0.2403
C3 C -0.1133(6) 0.8507(4) 0.29071(18)
H3 H -0.2240 0.7898 0.2917
C4 C -0.1019(7) 0.9223(5) 0.34715(19)
H4 H -0.0655 1.0104 0.3412
H5 H -0.2287 0.9189 0.3671
C5 C 0.0582(7) 0.8532(4) 0.37949(19)
C6 C 0.1168(9) 0.8625(5) 0.4351(2)
H6 H 0.0462 0.9133 0.4604
C7 C 0.2824(9) 0.7952(6) 0.4530(2)
H7 H 0.3241 0.8017 0.4906
C8 C 0.3857(9) 0.7193(5) 0.4163(2)
H8 H 0.4965 0.6746 0.4294
C9 C 0.3292(7) 0.7077(5) 0.3604(2)
H9 H 0.3996 0.6563 0.3353
C10 C 0.1649(6) 0.7749(4) 0.34336(19)
C11 C 0.1262(5) 0.9212(4) 0.15001(17)
H10 H 0.1318 1.0138 0.1535
C12 C -0.0224(6) 0.8896(4) 0.10388(18)
C13 C -0.1300(7) 0.7791(5) 0.1038(2)
H11 H -0.1201 0.7232 0.1342
C14 C -0.2528(8) 0.7507(6) 0.0586(3)
H12 H -0.3279 0.6764 0.0588
C15 C -0.2642(9) 0.8319(9) 0.0134(3)
H13 H -0.3446 0.8116 -0.0176
C16 C -0.1585(9) 0.9426(7) 0.0134(2)
H14 H -0.1677 0.9981 -0.0172
C17 C -0.0390(8) 0.9712(5) 0.0587(2)
H15 H 0.0321 1.0470 0.0589
C18 C 0.3345(6) 0.8748(6) 0.1338(2)
H16 H 0.4282 0.8993 0.1627
H17 H 0.3731 0.9118 0.0982
H18 H 0.3333 0.7841 0.1304
H19 H 0.293(7) 0.767(4) 0.231(2)
loop_
_geom_bond_atom_site_label_1
_geom_bond_atom_site_label_2
_geom_bond_site_symmetry_1
_geom_bond_site_symmetry_2
N1 C1 1_555 1_555
N2 C1 1_555 1_555
C1 H19 1_555 1_555
C2 N2 1_555 1_555
H1 C2 1_555 1_555
H2 C2 1_555 1_555
C3 N1 1_555 1_555
H3 C3 1_555 1_555
C4 C3 1_555 1_555
H4 C4 1_555 1_555
H5 C4 1_555 1_555
C5 C4 1_555 1_555
C6 C5 1_555 1_555
H6 C6 1_555 1_555
C7 C6 1_555 1_555
H7 C7 1_555 1_555
C8 C7 1_555 1_555
H8 C8 1_555 1_555
C9 C8 1_555 1_555
H9 C9 1_555 1_555
C10 N1 1_555 1_555
C11 N2 1_555 1_555
H10 C11 1_555 1_555
C12 C11 1_555 1_555
C13 C12 1_555 1_555
H11 C13 1_555 1_555
C14 C13 1_555 1_555
H12 C14 1_555 1_555
C15 C14 1_555 1_555
H13 C15 1_555 1_555
C16 C15 1_555 1_555
H14 C16 1_555 1_555
C17 C12 1_555 1_555
H15 C17 1_555 1_555
C18 C11 1_555 1_555
H16 C18 1_555 1_555
H17 C18 1_555 1_555
H18 C18 1_555 1_555
C2 C3 1_555 1_555
C5 C10 1_555 1_555
C9 C10 1_555 1_555
C16 C17 1_555 1_555

#END
