
#######################################################################
#
#                 Cambridge Crystallographic Data Centre
#                                CCDC 
#
#######################################################################
#
# If this CIF has been generated from an entry in the Cambridge 
# Structural Database, then it will include bibliographic, chemical, 
# crystal, experimental, refinement or atomic coordinate data resulting 
# from the CCDC's data processing and validation procedures.
#
#######################################################################

data_JOPXIX
_chemical_formula_moiety         'C29 H24 N2 O2'
_chemical_name_systematic        
'phenyl 2-(1,9-diazatetracyclo[7.7.1.0^2,7^.0^10,15^]heptadeca-2,4,6,10,12,14-hexaen-5-yl)-3-methylbenzoate'
_symmetry_cell_setting           monoclinic
_symmetry_space_group_name_H-M   'C 2/c'
_symmetry_Int_Tables_number      15
_space_group_name_Hall           '-C 2yn'
loop_
_symmetry_equiv_pos_site_id
_symmetry_equiv_pos_as_xyz
1 x,y,z
2 -x,y,1/2-z
3 1/2+x,1/2+y,z
4 1/2-x,1/2+y,1/2-z
5 -x,-y,-z
6 x,-y,1/2+z
7 1/2-x,1/2-y,-z
8 1/2+x,1/2-y,1/2+z
_cell_length_a                   27.3809(19)
_cell_length_b                   6.3701(5)
_cell_length_c                   25.9703(18)
_cell_angle_alpha                90
_cell_angle_beta                 97.236(2)
_cell_angle_gamma                90
_cell_volume                     4493.64
_exptl_crystal_colour            'dull light yellow'
_exptl_crystal_description       plate
_chemical_melting_point          '345-348 K'
_cell_formula_units_Z            8
_exptl_crystal_recrystallization_method dichloromethane/n-pentane
loop_
_atom_site_label
_atom_site_type_symbol
_atom_site_fract_x
_atom_site_fract_y
_atom_site_fract_z
O1 O 0.18609(3) -0.14086(14) 0.18155(3)
O2 O 0.24690(3) -0.12045(14) 0.24886(3)
N1 N 0.10733(4) 0.53796(16) 0.05729(4)
N2 N 0.05253(4) 0.26499(16) 0.01922(4)
C1 C 0.07003(5) -0.1915(2) 0.26892(5)
H1 H 0.0427 -0.2043 0.2880
C2 C 0.07186(5) -0.0280(2) 0.23425(5)
H2 H 0.0457 0.0711 0.2296
C3 C 0.11159(4) -0.0072(2) 0.20621(5)
H3 H 0.1131 0.1052 0.1824
C4 C 0.14883(4) -0.15408(19) 0.21385(4)
C5 C 0.23412(4) -0.13483(18) 0.20313(4)
C6 C 0.26777(4) -0.16037(18) 0.16267(4)
C7 C 0.25930(4) -0.06907(18) 0.11317(4)
C8 C 0.21826(4) 0.08342(18) 0.09952(4)
C9 C 0.22129(4) 0.28431(19) 0.12110(4)
H4 H 0.2489 0.3215 0.1453
C10 C 0.18440(4) 0.42967(19) 0.10760(5)
H5 H 0.1871 0.5665 0.1222
C11 C 0.14325(4) 0.37717(18) 0.07274(4)
C12 C 0.07694(5) 0.58822(19) 0.09850(5)
H6 H 0.0604 0.7248 0.0908
H7 H 0.0984 0.6017 0.1320
C13 C 0.03847(4) 0.4208(2) 0.10338(5)
C14 C 0.01164(5) 0.4201(2) 0.14570(5)
H8 H 0.0164 0.5300 0.1706
C15 C -0.02171(5) 0.2620(2) 0.15199(5)
H9 H -0.0403 0.2653 0.1805
C16 C 0.14768(4) -0.3199(2) 0.24793(5)
H10 H 0.1735 -0.4202 0.2521
C17 C 0.10781(5) -0.3366(2) 0.27592(5)
H11 H 0.1065 -0.4482 0.3000
C18 C 0.29217(4) -0.11234(19) 0.07718(5)
C19 C 0.28602(5) -0.0109(2) 0.02427(5)
H12 H 0.3113 -0.0640 0.0041
H13 H 0.2894 0.1416 0.0281
H14 H 0.2534 -0.0445 0.0062
C20 C 0.33171(5) -0.2468(2) 0.09132(5)
H15 H 0.3536 -0.2785 0.0667
C21 C 0.33993(4) -0.3354(2) 0.14038(5)
H16 H 0.3672 -0.4262 0.1492
C22 C 0.30830(4) -0.29086(19) 0.17628(5)
H17 H 0.3141 -0.3489 0.2102
C23 C 0.13859(4) 0.17407(18) 0.05266(4)
C24 C 0.09228(4) 0.10958(19) 0.01810(5)
H18 H 0.0998 0.0937 -0.0180
H19 H 0.0810 -0.0282 0.0297
C25 C 0.07381(4) 0.4719(2) 0.01170(5)
H20 H 0.0470 0.5762 0.0047
H21 H 0.0920 0.4675 -0.0189
C26 C 0.03019(4) 0.2610(2) 0.06647(5)
C27 C -0.00217(4) 0.0975(2) 0.07390(5)
H22 H -0.0065 -0.0147 0.0496
C28 C -0.02780(5) 0.0982(2) 0.11636(5)
H23 H -0.0497 -0.0136 0.1213
C29 C 0.17654(4) 0.03044(19) 0.06564(4)
H24 H 0.1739 -0.1065 0.0511
loop_
_geom_bond_atom_site_label_1
_geom_bond_atom_site_label_2
_geom_bond_site_symmetry_1
_geom_bond_site_symmetry_2
O1 C4 1_555 1_555
O2 C5 1_555 1_555
N1 C11 1_555 1_555
N2 C24 1_555 1_555
C1 H1 1_555 1_555
C2 C1 1_555 1_555
H2 C2 1_555 1_555
C3 C2 1_555 1_555
H3 C3 1_555 1_555
C4 C3 1_555 1_555
C5 O1 1_555 1_555
C6 C5 1_555 1_555
C7 C6 1_555 1_555
C8 C7 1_555 1_555
C9 C8 1_555 1_555
H4 C9 1_555 1_555
C10 C9 1_555 1_555
H5 C10 1_555 1_555
C11 C10 1_555 1_555
C12 N1 1_555 1_555
H6 C12 1_555 1_555
H7 C12 1_555 1_555
C13 C12 1_555 1_555
C14 C13 1_555 1_555
H8 C14 1_555 1_555
C15 C14 1_555 1_555
H9 C15 1_555 1_555
C16 C4 1_555 1_555
H10 C16 1_555 1_555
C17 C1 1_555 1_555
H11 C17 1_555 1_555
C18 C7 1_555 1_555
C19 C18 1_555 1_555
H12 C19 1_555 1_555
H13 C19 1_555 1_555
H14 C19 1_555 1_555
C20 C18 1_555 1_555
H15 C20 1_555 1_555
C21 C20 1_555 1_555
H16 C21 1_555 1_555
C22 C6 1_555 1_555
H17 C22 1_555 1_555
C23 C11 1_555 1_555
C24 C23 1_555 1_555
H18 C24 1_555 1_555
H19 C24 1_555 1_555
C25 N1 1_555 1_555
H20 C25 1_555 1_555
H21 C25 1_555 1_555
C26 N2 1_555 1_555
C27 C26 1_555 1_555
H22 C27 1_555 1_555
C28 C15 1_555 1_555
H23 C28 1_555 1_555
C29 C8 1_555 1_555
H24 C29 1_555 1_555
N2 C25 1_555 1_555
C13 C26 1_555 1_555
C16 C17 1_555 1_555
C21 C22 1_555 1_555
C23 C29 1_555 1_555
C27 C28 1_555 1_555

#END
