
#######################################################################
#
#                 Cambridge Crystallographic Data Centre
#                                CCDC 
#
#######################################################################
#
# If this CIF has been generated from an entry in the Cambridge 
# Structural Database, then it will include bibliographic, chemical, 
# crystal, experimental, refinement or atomic coordinate data resulting 
# from the CCDC's data processing and validation procedures.
#
#######################################################################

data_JOQQIR
_chemical_formula_moiety         'C20 H21 N1 O6'
_chemical_name_systematic        
"Diethyl 2,2'-(3-(2-oxo-2,3-dihydro-1H-indol-3-yl)dihydrofuran-2,5-diylidene)diacetate"
_symmetry_cell_setting           triclinic
_symmetry_space_group_name_H-M   'P -1'
_symmetry_Int_Tables_number      2
_space_group_name_Hall           '-P 1'
loop_
_symmetry_equiv_pos_site_id
_symmetry_equiv_pos_as_xyz
1 x,y,z
2 -x,-y,-z
_cell_length_a                   5.5637(11)
_cell_length_b                   12.141(2)
_cell_length_c                   13.461(3)
_cell_angle_alpha                71.91(3)
_cell_angle_beta                 87.24(3)
_cell_angle_gamma                82.88(3)
_cell_volume                     857.62
_cell_formula_units_Z            2
loop_
_atom_site_label
_atom_site_type_symbol
_atom_site_fract_x
_atom_site_fract_y
_atom_site_fract_z
C1 C 0.9728(2) 0.42733(10) 0.65148(9)
C2 C 1.1186(2) 0.50566(10) 0.66500(9)
H1 H 1.0963 0.5856 0.6245
C3 C 1.2986(2) 0.46377(11) 0.73957(9)
H2 H 1.4000 0.5161 0.7509
C4 C 1.3332(2) 0.34657(11) 0.79798(9)
H3 H 1.4554 0.3200 0.8497
C5 C 1.1897(2) 0.26787(10) 0.78122(9)
H4 H 1.2156 0.1874 0.8199
C6 C 1.0090(2) 0.30888(10) 0.70733(8)
C7 C 0.82575(19) 0.24786(10) 0.67254(9)
H5 H 0.7139 0.2176 0.7326
C8 C 0.6845(2) 0.34797(10) 0.58961(9)
C9 C 0.93394(19) 0.14525(10) 0.63356(9)
H6 H 1.0429 0.0897 0.6884
C10 C 1.0769(2) 0.18293(10) 0.52985(9)
H7 H 1.1019 0.2663 0.5108
H8 H 1.2366 0.1355 0.5348
C11 C 0.9210(2) 0.16206(10) 0.45204(9)
C12 C 0.9334(2) 0.19274(10) 0.34814(9)
H9 H 0.8128 0.1735 0.3108
C13 C 1.1307(2) 0.25582(10) 0.29062(9)
C14 C 1.2739(2) 0.35141(12) 0.12025(10)
H10 H 1.2775 0.3384 0.0511
H11 H 1.4359 0.3231 0.1518
C15 C 1.2185(2) 0.47984(12) 0.10621(10)
H12 H 1.0526 0.5064 0.0810
H13 H 1.3322 0.5228 0.0552
H14 H 1.2348 0.4939 0.1733
C16 C 0.7432(2) 0.08094(10) 0.60872(9)
C17 C 0.5893(2) 0.01242(10) 0.67052(9)
H15 H 0.4837 -0.0232 0.6397
C18 C 0.5782(2) -0.00931(10) 0.78307(9)
C19 C 0.3674(2) -0.09843(12) 0.93839(9)
H16 H 0.3237 -0.0246 0.9551
H17 H 0.5199 -0.1377 0.9746
C20 C 0.1687(2) -0.17573(12) 0.97353(10)
H18 H 0.0176 -0.1352 0.9387
H19 H 0.1465 -0.1945 1.0494
H20 H 0.2123 -0.2479 0.9554
N1 N 0.77848(17) 0.44808(8) 0.58299(7)
H21 H 0.7243 0.5172 0.5410
O1 O 0.51640(14) 0.33960(7) 0.53811(6)
O2 O 0.74001(14) 0.09669(7) 0.50312(6)
O3 O 1.30227(15) 0.27940(8) 0.32807(7)
O4 O 1.09466(17) 0.28589(8) 0.18650(7)
O5 O 0.70595(16) 0.02617(8) 0.83437(7)
O6 O 0.39876(15) -0.07484(8) 0.82618(6)
loop_
_geom_bond_atom_site_label_1
_geom_bond_atom_site_label_2
_geom_bond_site_symmetry_1
_geom_bond_site_symmetry_2
C1 C2 1_555 1_555
C2 H1 1_555 1_555
C3 C2 1_555 1_555
H2 C3 1_555 1_555
C4 C3 1_555 1_555
H3 C4 1_555 1_555
C5 C4 1_555 1_555
H4 C5 1_555 1_555
C6 C1 1_555 1_555
C7 C6 1_555 1_555
H5 C7 1_555 1_555
C8 C7 1_555 1_555
C9 C7 1_555 1_555
H6 C9 1_555 1_555
C10 C9 1_555 1_555
H7 C10 1_555 1_555
H8 C10 1_555 1_555
C11 C10 1_555 1_555
C12 C11 1_555 1_555
H9 C12 1_555 1_555
C13 C12 1_555 1_555
C14 H10 1_555 1_555
H11 C14 1_555 1_555
C15 C14 1_555 1_555
H12 C15 1_555 1_555
H13 C15 1_555 1_555
H14 C15 1_555 1_555
C16 C9 1_555 1_555
C17 C16 1_555 1_555
H15 C17 1_555 1_555
C18 C17 1_555 1_555
C19 H16 1_555 1_555
H17 C19 1_555 1_555
C20 C19 1_555 1_555
H18 C20 1_555 1_555
H19 C20 1_555 1_555
H20 C20 1_555 1_555
N1 C1 1_555 1_555
H21 N1 1_555 1_555
O1 C8 1_555 1_555
O2 C11 1_555 1_555
O3 C13 1_555 1_555
O4 C13 1_555 1_555
O5 C18 1_555 1_555
O6 C18 1_555 1_555
C5 C6 1_555 1_555
C8 N1 1_555 1_555
C14 O4 1_555 1_555
C16 O2 1_555 1_555
C19 O6 1_555 1_555

#END
