
#######################################################################
#
#                 Cambridge Crystallographic Data Centre
#                                CCDC 
#
#######################################################################
#
# If this CIF has been generated from an entry in the Cambridge 
# Structural Database, then it will include bibliographic, chemical, 
# crystal, experimental, refinement or atomic coordinate data resulting 
# from the CCDC's data processing and validation procedures.
#
#######################################################################

data_JOTFAB
_chemical_formula_moiety         'C21 H18 Br1 N3 O3'
_chemical_name_systematic        
3-(1-(4-bromophenyl)-2-nitroethyl)-1-methyl-3-(1H-pyrrol-1-yl)-1,3-dihydro-2H-indol-2-one
_symmetry_cell_setting           monoclinic
_symmetry_space_group_name_H-M   'C 2'
_symmetry_Int_Tables_number      5
_space_group_name_Hall           'C 2y'
loop_
_symmetry_equiv_pos_site_id
_symmetry_equiv_pos_as_xyz
1 x,y,z
2 -x,y,-z
3 1/2+x,1/2+y,z
4 1/2-x,1/2+y,-z
_cell_length_a                   19.7543(7)
_cell_length_b                   6.8067(3)
_cell_length_c                   15.8605(4)
_cell_angle_alpha                90
_cell_angle_beta                 98.736(4)
_cell_angle_gamma                90
_cell_volume                     2107.89
_cell_formula_units_Z            4
loop_
_atom_site_label
_atom_site_type_symbol
_atom_site_fract_x
_atom_site_fract_y
_atom_site_fract_z
Br1 Br 0.88314(15) 0.5850(9) 0.40333(10)
O1 O 0.6769(5) 0.683(2) 0.7504(10)
C1 C 0.8152(4) 0.7661(16) 0.7638(7)
H1 H 0.7793 0.8668 0.7580
C2 C 0.9368(4) 0.7067(16) 0.8427(6)
C3 C 1.0496(5) 0.673(2) 0.7996(8)
H2 H 1.0842 0.7184 0.7708
C4 C 0.9887(4) 0.7802(18) 0.7973(7)
N1 N 0.8553(4) 0.9306(14) 0.9032(7)
C5 C 1.0068(6) 0.430(2) 0.8869(7)
H3 H 1.0133 0.3109 0.9156
C6 C 0.8026(6) 1.069(2) 0.9021(10)
H4 H 0.7726 1.1138 0.8551
C7 C 0.7872(4) 0.5850(17) 0.8054(6)
H5 H 0.8160 0.4724 0.7987
H6 H 0.7890 0.6087 0.8660
C8 C 1.0574(7) 0.506(3) 0.8433(9)
H7 H 1.0980 0.4361 0.8448
N2 N 0.9685(4) 0.9549(14) 0.7595(6)
C9 C 0.8606(7) 1.024(2) 1.0355(10)
H8 H 0.8734 1.0350 1.0942
C10 C 0.8616(9) 0.633(4) 0.5126(9)
C11 C 0.9466(5) 0.5358(19) 0.8869(7)
H9 H 0.9131 0.4894 0.9171
C12 C 0.8672(6) 0.563(2) 0.6572(6)
H10 H 0.8821 0.4737 0.7004
C13 C 0.8829(7) 0.530(3) 0.5776(7)
H11 H 0.9111 0.4235 0.5705
C14 C 0.8776(4) 0.8488(16) 0.8250(7)
C15 C 0.8064(7) 0.843(3) 0.6075(10)
H12 H 0.7786 0.9496 0.6149
C16 C 0.8248(9) 0.800(4) 0.5270(11)
H13 H 0.8118 0.8870 0.4822
C17 C 0.8912(6) 0.912(2) 0.9846(8)
H14 H 0.9299 0.8354 1.0006
C18 C 0.9073(5) 1.0106(17) 0.7741(8)
C19 C 0.8051(8) 1.124(2) 0.9862(11)
H15 H 0.8116 1.2651 0.9918
N3 N 0.7166(5) 0.541(3) 0.7674(7)
C20 C 0.8307(5) 0.721(2) 0.6753(7)
O2 O 0.6999(5) 0.374(2) 0.7586(9)
O3 O 0.8777(4) 1.1646(13) 0.7506(8)
C21 C 1.0070(6) 1.065(2) 0.7012(9)
H16 H 0.9758 1.1109 0.6529
H17 H 1.0405 0.9803 0.6822
H18 H 1.0296 1.1755 0.7309
H19? H 0.7625 1.0904 1.0060
loop_
_geom_bond_atom_site_label_1
_geom_bond_atom_site_label_2
_geom_bond_site_symmetry_1
_geom_bond_site_symmetry_2
Br1 C10 1_555 1_555
O1 N3 1_555 1_555
C1 H1 1_555 1_555
C2 C4 1_555 1_555
C3 H2 1_555 1_555
C4 C3 1_555 1_555
N1 C6 1_555 1_555
C5 H3 1_555 1_555
C6 H4 1_555 1_555
C7 C1 1_555 1_555
H5 C7 1_555 1_555
H6 C7 1_555 1_555
C8 C3 1_555 1_555
H7 C8 1_555 1_555
N2 C4 1_555 1_555
C9 H8 1_555 1_555
C10 C13 1_555 1_555
C11 C2 1_555 1_555
H9 C11 1_555 1_555
C12 H10 1_555 1_555
C13 C12 1_555 1_555
H11 C13 1_555 1_555
C14 C1 1_555 1_555
C15 H12 1_555 1_555
C16 C10 1_555 1_555
H13 C16 1_555 1_555
C17 N1 1_555 1_555
H14 C17 1_555 1_555
C18 N2 1_555 1_555
C19 C6 1_555 1_555
H15 C19 1_555 1_555
N3 C7 1_555 1_555
C20 C1 1_555 1_555
O2 N3 1_555 1_555
O3 C18 1_555 1_555
C21 N2 1_555 1_555
H16 C21 1_555 1_555
H17 C21 1_555 1_555
H18 C21 1_555 1_555
C2 C14 1_555 1_555
N1 C14 1_555 1_555
C5 C8 1_555 1_555
C5 C11 1_555 1_555
C9 C17 1_555 1_555
C9 C19 1_555 1_555
C12 C20 1_555 1_555
C14 C18 1_555 1_555
C15 C16 1_555 1_555
C15 C20 1_555 1_555

#END
