
#######################################################################
#
#                 Cambridge Crystallographic Data Centre
#                                CCDC 
#
#######################################################################
#
# If this CIF has been generated from an entry in the Cambridge 
# Structural Database, then it will include bibliographic, chemical, 
# crystal, experimental, refinement or atomic coordinate data resulting 
# from the CCDC's data processing and validation procedures.
#
#######################################################################

data_JOTJOT
_chemical_formula_moiety         'C44 H35 N3 O3,C1 H2 Cl2'
_chemical_name_systematic        
'4,12,17-tris((4-methylphenyl)carbonoimidoyl)pentacyclo[6.6.6.0^2,7^.0^9,14^.0^15,20^]icosa-2,4,6,9,11,13,15,17,19-nonaene-3,13,16-triol dichloromethane solvate'
_symmetry_cell_setting           orthorhombic
_symmetry_space_group_name_H-M   'P b c a'
_symmetry_Int_Tables_number      61
_space_group_name_Hall           '-P 2ac 2ab'
loop_
_symmetry_equiv_pos_site_id
_symmetry_equiv_pos_as_xyz
1 x,y,z
2 1/2-x,-y,1/2+z
3 -x,1/2+y,1/2-z
4 1/2+x,1/2-y,-z
5 -x,-y,-z
6 1/2+x,y,1/2-z
7 x,1/2-y,1/2+z
8 1/2-x,1/2+y,z
_cell_length_a                   9.4678(6)
_cell_length_b                   18.2825(11)
_cell_length_c                   43.445(3)
_cell_angle_alpha                90
_cell_angle_beta                 90
_cell_angle_gamma                90
_cell_volume                     7520.11
_exptl_crystal_colour            yellow
_exptl_crystal_description       plate
_cell_formula_units_Z            8
loop_
_atom_site_label
_atom_site_type_symbol
_atom_site_fract_x
_atom_site_fract_y
_atom_site_fract_z
C1 C 0.5930(4) 0.9649(2) 0.84142(9)
H1 H 0.6823 0.9905 0.8355
C2 C 0.3622(4) 0.89850(19) 0.85681(9)
H2 H 0.2731 0.8728 0.8628
C3 C 0.5478(4) 0.9077(2) 0.81795(9)
C4 C 0.4224(4) 0.8728(2) 0.82613(9)
C5 C 0.3672(4) 0.8174(2) 0.80775(9)
O1 O 0.2467(3) 0.78405(16) 0.81668(7)
H3 H 0.234(6) 0.751(3) 0.8031(12)
C6 C 0.4410(4) 0.7961(2) 0.78091(9)
C7 C 0.5658(4) 0.8326(2) 0.77315(10)
H4 H 0.6150 0.8189 0.7550
C8 C 0.6195(4) 0.8884(2) 0.79136(10)
H5 H 0.7040 0.9129 0.7857
C9 C 0.3908(4) 0.7353(2) 0.76235(9)
H6 H 0.4388 0.7230 0.7439
N1 N 0.2831(4) 0.69835(17) 0.77054(7)
C10 C 0.2262(4) 0.6396(2) 0.75265(10)
C11 C 0.2135(5) 0.6420(2) 0.72088(10)
H7 H 0.2523 0.6817 0.7096
C12 C 0.1438(5) 0.5861(2) 0.70573(10)
H8 H 0.1339 0.5887 0.6840
C13 C 0.0880(5) 0.5265(2) 0.72113(10)
C14 C 0.1067(6) 0.5238(3) 0.75276(11)
H9 H 0.0727 0.4827 0.7639
C15 C 0.1735(5) 0.5795(3) 0.76832(10)
H10 H 0.1835 0.5767 0.7900
C16 C 0.0067(6) 0.4671(3) 0.70458(12)
H11 H 0.0193 0.4205 0.7154
H12 H 0.0419 0.4625 0.6835
H13 H -0.0939 0.4798 0.7042
C17 C 0.6052(4) 0.9247(2) 0.87217(9)
C18 C 0.4816(4) 0.88740(19) 0.87968(9)
C19 C 0.4783(4) 0.8435(2) 0.90589(9)
O2 O 0.3606(3) 0.80385(16) 0.91208(7)
H14 H 0.388(5) 0.773(3) 0.9298(13)
C20 C 0.5980(4) 0.8402(2) 0.92504(9)
C21 C 0.7180(5) 0.8815(2) 0.91724(10)
H15 H 0.7979 0.8805 0.9304
C22 C 0.7226(4) 0.9234(2) 0.89097(10)
H16 H 0.8046 0.9508 0.8859
C23 C 0.6041(5) 0.7917(2) 0.95129(10)
H17 H 0.6885 0.7895 0.9631
N2 N 0.4995(4) 0.75161(19) 0.95913(8)
C24 C 0.5110(5) 0.7014(2) 0.98402(10)
C25 C 0.4157(6) 0.6458(3) 0.98479(11)
H18 H 0.3434 0.6434 0.9697
C26 C 0.4230(7) 0.5923(3) 1.00758(13)
H19 H 0.3552 0.5540 1.0077
C27 C 0.5257(7) 0.5936(3) 1.02979(11)
C28 C 0.6155(7) 0.6504(4) 1.02934(14)
H20 H 0.6857 0.6536 1.0449
C29 C 0.6099(7) 0.7046(4) 1.00709(13)
H21 H 0.6748 0.7442 1.0078
C30 C 0.5354(8) 0.5350(3) 1.05415(12)
H22 H 0.5405 0.5579 1.0745
H23 H 0.6202 0.5054 1.0507
H24 H 0.4516 0.5036 1.0531
C31 C 0.4690(4) 1.0174(2) 0.84590(9)
C32 C 0.3452(4) 0.9814(2) 0.85430(9)
C33 C 0.2256(4) 1.0218(2) 0.86097(8)
O3 O 0.1065(3) 0.98683(15) 0.87006(6)
H25 H 0.050(5) 1.022(3) 0.8734(11)
C34 C 0.2301(4) 1.0991(2) 0.85889(9)
C35 C 0.3581(4) 1.1330(2) 0.85042(9)
H26 H 0.3617 1.1848 0.8490
C36 C 0.4776(4) 1.0931(2) 0.84418(9)
H27 H 0.5637 1.1167 0.8388
C37 C 0.1076(4) 1.1442(2) 0.86491(9)
H28 H 0.1145 1.1957 0.8623
N3 N -0.0100(4) 1.11639(17) 0.87372(8)
C38 C -0.1307(4) 1.1625(2) 0.87678(10)
C39 C -0.2235(5) 1.1498(2) 0.90092(11)
H29 H -0.2048 1.1119 0.9153
C40 C -0.3435(5) 1.1925(3) 0.90394(12)
H30 H -0.4045 1.1844 0.9210
C41 C -0.3773(5) 1.2470(2) 0.88279(13)
C42 C -0.2844(5) 1.2577(2) 0.85868(12)
H31 H -0.3050 1.2942 0.8438
C43 C -0.1629(4) 1.2170(2) 0.85570(10)
H32 H -0.1005 1.2264 0.8390
C44 C -0.5093(5) 1.2920(3) 0.88658(15)
H33 H -0.5419 1.3086 0.8664
H34 H -0.4889 1.3345 0.8996
H35 H -0.5829 1.2622 0.8963
C45 C 0.5208(12) 1.0253(5) 0.9514(3)
H36 H 0.4904 0.9796 0.9617
H37 H 0.5833 1.0114 0.9341
Cl1 Cl 0.6128(6) 1.0747(2) 0.97616(10)
Cl2 Cl 0.3794(4) 1.0669(3) 0.93729(12)
loop_
_geom_bond_atom_site_label_1
_geom_bond_atom_site_label_2
_geom_bond_site_symmetry_1
_geom_bond_site_symmetry_2
C1 H1 1_555 1_555
C2 H2 1_555 1_555
C3 C1 1_555 1_555
C4 C2 1_555 1_555
C5 C4 1_555 1_555
O1 C5 1_555 1_555
H3 O1 1_555 1_555
C6 C5 1_555 1_555
C7 C6 1_555 1_555
H4 C7 1_555 1_555
C8 C3 1_555 1_555
H5 C8 1_555 1_555
C9 C6 1_555 1_555
H6 C9 1_555 1_555
N1 C9 1_555 1_555
C10 N1 1_555 1_555
C11 C10 1_555 1_555
H7 C11 1_555 1_555
C12 C11 1_555 1_555
H8 C12 1_555 1_555
C13 C12 1_555 1_555
C14 C13 1_555 1_555
H9 C14 1_555 1_555
C15 C10 1_555 1_555
H10 C15 1_555 1_555
C16 C13 1_555 1_555
H11 C16 1_555 1_555
H12 C16 1_555 1_555
H13 C16 1_555 1_555
C17 C1 1_555 1_555
C18 C2 1_555 1_555
C19 C18 1_555 1_555
O2 C19 1_555 1_555
H14 O2 1_555 1_555
C20 C19 1_555 1_555
C21 C20 1_555 1_555
H15 C21 1_555 1_555
C22 C17 1_555 1_555
H16 C22 1_555 1_555
C23 C20 1_555 1_555
H17 C23 1_555 1_555
N2 C23 1_555 1_555
C24 N2 1_555 1_555
C25 C24 1_555 1_555
H18 C25 1_555 1_555
C26 C25 1_555 1_555
H19 C26 1_555 1_555
C27 C26 1_555 1_555
C28 C27 1_555 1_555
H20 C28 1_555 1_555
C29 C24 1_555 1_555
H21 C29 1_555 1_555
C30 C27 1_555 1_555
H22 C30 1_555 1_555
H23 C30 1_555 1_555
H24 C30 1_555 1_555
C31 C1 1_555 1_555
C32 C2 1_555 1_555
C33 C32 1_555 1_555
O3 C33 1_555 1_555
H25 O3 1_555 1_555
C34 C33 1_555 1_555
C35 C34 1_555 1_555
H26 C35 1_555 1_555
C36 C31 1_555 1_555
H27 C36 1_555 1_555
C37 C34 1_555 1_555
H28 C37 1_555 1_555
N3 C37 1_555 1_555
C38 N3 1_555 1_555
C39 C38 1_555 1_555
H29 C39 1_555 1_555
C40 C39 1_555 1_555
H30 C40 1_555 1_555
C41 C40 1_555 1_555
C42 C41 1_555 1_555
H31 C42 1_555 1_555
C43 C38 1_555 1_555
H32 C43 1_555 1_555
C44 C41 1_555 1_555
H33 C44 1_555 1_555
H34 C44 1_555 1_555
H35 C44 1_555 1_555
C45 H36 1_555 1_555
H37 C45 1_555 1_555
Cl1 C45 1_555 1_555
Cl2 C45 1_555 1_555
C3 C4 1_555 1_555
C7 C8 1_555 1_555
C14 C15 1_555 1_555
C17 C18 1_555 1_555
C21 C22 1_555 1_555
C28 C29 1_555 1_555
C31 C32 1_555 1_555
C35 C36 1_555 1_555
C42 C43 1_555 1_555

#END
