
#######################################################################
#
#                 Cambridge Crystallographic Data Centre
#                                CCDC 
#
#######################################################################
#
# If this CIF has been generated from an entry in the Cambridge 
# Structural Database, then it will include bibliographic, chemical, 
# crystal, experimental, refinement or atomic coordinate data resulting 
# from the CCDC's data processing and validation procedures.
#
#######################################################################

data_JOTTET
_chemical_formula_moiety         'C40 H29 B1 N4 O1'
_chemical_name_systematic        
(methanolato)(N,N,7,12-tetraphenyl-16,17,18-triazatetracyclo[11.2.1.1^3,6^.1^8,11^]octadeca-1,3,5,7,9,11,13(16),14-octaen-2-aminato)boron
_symmetry_cell_setting           triclinic
_symmetry_space_group_name_H-M   'P -1'
_symmetry_Int_Tables_number      2
_space_group_name_Hall           '-P 1'
loop_
_symmetry_equiv_pos_site_id
_symmetry_equiv_pos_as_xyz
1 x,y,z
2 -x,-y,-z
_cell_length_a                   7.5430(14)
_cell_length_b                   11.331(3)
_cell_length_c                   18.478(8)
_cell_angle_alpha                88.81(4)
_cell_angle_beta                 81.91(5)
_cell_angle_gamma                70.64(3)
_cell_volume                     1474.61
_cell_formula_units_Z            2
loop_
_atom_site_label
_atom_site_type_symbol
_atom_site_fract_x
_atom_site_fract_y
_atom_site_fract_z
O1 O 0.16218(14) 0.50793(9) 0.33144(5)
N1 N 0.13417(17) 0.52617(11) 0.20322(7)
N2 N -0.00538(17) 0.71035(11) 0.27746(7)
N3 N -0.48413(18) 0.83928(11) 0.38165(7)
N4 N -0.14836(17) 0.55160(11) 0.28671(7)
C1 C -0.1263(2) 0.91212(13) 0.31253(8)
H1 H -0.2056 0.9885 0.3366
C2 C 0.3962(2) 0.74956(13) 0.14368(8)
C3 C -0.1830(2) 0.45861(13) 0.25062(8)
C4 C -0.1591(2) 0.79426(13) 0.31807(8)
C5 C -0.5898(2) 0.79992(13) 0.44068(8)
C6 C -0.5589(2) 0.97788(14) 0.27949(9)
H2 H -0.5189 0.9069 0.2472
C7 C -0.3164(2) 0.75454(13) 0.34390(8)
C8 C 0.1142(2) 0.76664(13) 0.24087(8)
C9 C 0.3439(2) 0.87198(14) 0.11893(8)
H3 H 0.2142 0.9234 0.1264
C10 C 0.0900(2) 0.53683(15) 0.40650(8)
H4 H 0.0447 0.6278 0.4147
H5 H 0.1908 0.4980 0.4363
H6 H -0.0154 0.5047 0.4203
C11 C 0.2544(2) 0.57834(13) 0.16279(8)
C12 C -0.3795(2) 0.47378(13) 0.27325(8)
H7 H -0.4436 0.4195 0.2606
C13 C -0.3130(2) 0.63362(13) 0.32226(8)
C14 C -0.6133(2) 1.06698(14) 0.40095(9)
H8 H -0.6097 1.0571 0.4520
C15 C -0.0982(2) 0.30250(13) 0.14667(8)
C16 C 0.0395(2) 0.89507(13) 0.26638(8)
H9 H 0.0958 0.9576 0.2534
C17 C 0.5879(2) 0.67537(14) 0.13045(8)
H10 H 0.6256 0.5910 0.1455
C18 C 0.3258(2) 0.50267(14) 0.09701(8)
H11 H 0.4189 0.5119 0.0591
C19 C -0.5547(2) 0.96224(13) 0.35399(9)
C20 C -0.7868(2) 0.85394(14) 0.45398(9)
H12 H -0.8509 0.9160 0.4225
C21 C -0.4585(2) 0.58068(13) 0.31653(8)
H13 H -0.5871 0.6136 0.3387
C22 C 0.2565(2) 0.69747(13) 0.18433(8)
C23 C -0.1614(2) 0.23817(15) 0.03177(9)
H14 H -0.1689 0.2511 -0.0188
C24 C -0.0498(2) 0.39345(13) 0.19016(8)
C25 C -0.1412(2) 0.20160(14) 0.17960(9)
H15 H -0.1352 0.1888 0.2303
C26 C 0.4801(2) 0.91910(14) 0.08351(9)
H16 H 0.4431 1.0025 0.0670
C27 C -0.1096(2) 0.31977(14) 0.07211(9)
H17 H -0.0815 0.3883 0.0489
C28 C 0.1062(2) 0.43339(13) 0.16477(8)
C29 C 0.7230(2) 0.72329(15) 0.09576(9)
H18 H 0.8529 0.6724 0.0881
C30 C -0.6808(2) 1.20156(15) 0.29873(10)
H19 H -0.7237 1.2832 0.2798
C31 C -0.6767(2) 1.18548(14) 0.37290(10)
H20 H -0.7180 1.2567 0.4050
C32 C 0.6694(3) 0.84517(16) 0.07219(9)
H21 H 0.7622 0.8780 0.0483
C33 C -0.4992(2) 0.70655(15) 0.48612(9)
H22 H -0.3652 0.6682 0.4772
C34 C -0.7984(3) 0.72491(16) 0.55868(10)
H23 H -0.8691 0.7003 0.5993
C35 C 0.2369(2) 0.41456(14) 0.09797(8)
H24 H 0.2579 0.3523 0.0611
C36 C -0.6217(2) 1.09741(14) 0.25231(9)
H25 H -0.6242 1.1078 0.2013
C37 C -0.1929(3) 0.11941(15) 0.13877(10)
H26 H -0.2216 0.0508 0.1616
C38 C -0.8889(3) 0.81722(16) 0.51298(10)
H27 H -1.0229 0.8557 0.5223
C39 C -0.6036(3) 0.66943(16) 0.54418(10)
H28 H -0.5406 0.6049 0.5745
C40 C -0.2025(3) 0.13772(15) 0.06498(9)
H29 H -0.2372 0.0815 0.0371
B1 B 0.0406(2) 0.57057(14) 0.27901(9)
loop_
_geom_bond_atom_site_label_1
_geom_bond_atom_site_label_2
_geom_bond_site_symmetry_1
_geom_bond_site_symmetry_2
O1 C10 1_555 1_555
N1 C11 1_555 1_555
N2 C4 1_555 1_555
N3 C5 1_555 1_555
N4 C3 1_555 1_555
C1 H1 1_555 1_555
C2 C9 1_555 1_555
C3 C12 1_555 1_555
C4 C1 1_555 1_555
C5 C20 1_555 1_555
C6 H2 1_555 1_555
C7 N3 1_555 1_555
C8 N2 1_555 1_555
C9 H3 1_555 1_555
C10 H4 1_555 1_555
H5 C10 1_555 1_555
H6 C10 1_555 1_555
C11 C18 1_555 1_555
C12 H7 1_555 1_555
C13 N4 1_555 1_555
C14 H8 1_555 1_555
C15 C24 1_555 1_555
C16 C1 1_555 1_555
H9 C16 1_555 1_555
C17 C2 1_555 1_555
H10 C17 1_555 1_555
C18 H11 1_555 1_555
C19 N3 1_555 1_555
C20 H12 1_555 1_555
C21 C12 1_555 1_555
H13 C21 1_555 1_555
C22 C2 1_555 1_555
C23 H14 1_555 1_555
C24 C3 1_555 1_555
C25 C15 1_555 1_555
H15 C25 1_555 1_555
C26 C9 1_555 1_555
H16 C26 1_555 1_555
C27 C15 1_555 1_555
H17 C27 1_555 1_555
C28 N1 1_555 1_555
C29 C17 1_555 1_555
H18 C29 1_555 1_555
C30 H19 1_555 1_555
C31 C14 1_555 1_555
H20 C31 1_555 1_555
C32 C26 1_555 1_555
H21 C32 1_555 1_555
C33 C5 1_555 1_555
H22 C33 1_555 1_555
C34 H23 1_555 1_555
C35 C18 1_555 1_555
H24 C35 1_555 1_555
C36 C6 1_555 1_555
H25 C36 1_555 1_555
C37 C25 1_555 1_555
H26 C37 1_555 1_555
C38 C20 1_555 1_555
H27 C38 1_555 1_555
C39 C33 1_555 1_555
H28 C39 1_555 1_555
C40 C23 1_555 1_555
H29 C40 1_555 1_555
B1 O1 1_555 1_555
N1 B1 1_555 1_555
N2 B1 1_555 1_555
N4 B1 1_555 1_555
C4 C7 1_555 1_555
C6 C19 1_555 1_555
C7 C13 1_555 1_555
C8 C16 1_555 1_555
C8 C22 1_555 1_555
C11 C22 1_555 1_555
C13 C21 1_555 1_555
C14 C19 1_555 1_555
C23 C27 1_555 1_555
C24 C28 1_555 1_555
C28 C35 1_555 1_555
C29 C32 1_555 1_555
C30 C31 1_555 1_555
C30 C36 1_555 1_555
C34 C38 1_555 1_555
C34 C39 1_555 1_555
C37 C40 1_555 1_555

#END
