
#######################################################################
#
#                 Cambridge Crystallographic Data Centre
#                                CCDC 
#
#######################################################################
#
# If this CIF has been generated from an entry in the Cambridge 
# Structural Database, then it will include bibliographic, chemical, 
# crystal, experimental, refinement or atomic coordinate data resulting 
# from the CCDC's data processing and validation procedures.
#
#######################################################################

data_JOVFEH
_chemical_formula_moiety         'C12 H24 B10'
_chemical_name_systematic        
1,3-(3-t-Butylcyclohexa-1,4-diene-3,6-diyl)-1,2-dicarba-closo-dodecaborane
_symmetry_cell_setting           monoclinic
_symmetry_space_group_name_H-M   'P 21/c'
_symmetry_Int_Tables_number      14
_space_group_name_Hall           '-P 2ybc'
loop_
_symmetry_equiv_pos_site_id
_symmetry_equiv_pos_as_xyz
1 x,y,z
2 -x,1/2+y,1/2-z
3 -x,-y,-z
4 x,1/2-y,1/2+z
_cell_length_a                   25.409(4)
_cell_length_b                   9.8821(15)
_cell_length_c                   13.519(2)
_cell_angle_alpha                90
_cell_angle_beta                 104.644(3)
_cell_angle_gamma                90
_cell_volume                     3284.27
_exptl_crystal_colour            colorless
_exptl_crystal_description       block
_cell_formula_units_Z            8
loop_
_atom_site_label
_atom_site_type_symbol
_atom_site_fract_x
_atom_site_fract_y
_atom_site_fract_z
C1 C 0.37563(12) 0.4409(3) 0.1821(2)
C2 C 0.44256(12) 0.4709(3) 0.2137(2)
H1 H 0.4705 0.3964 0.1943
C3 C 0.35470(12) 0.3163(3) 0.1021(2)
C4 C 0.31471(14) 0.3837(3) 0.0115(2)
H2 H 0.2781 0.3600 -0.0068
C5 C 0.33406(15) 0.4752(4) -0.0387(3)
H3 H 0.3123 0.5192 -0.0952
C6 C 0.39373(15) 0.5058(4) -0.0002(2)
H4 H 0.4071 0.5697 -0.0437
C7 C 0.40344(13) 0.2785(4) 0.0615(2)
H5 H 0.4191 0.1929 0.0723
C8 C 0.42246(14) 0.3715(4) 0.0106(2)
H6 H 0.4519 0.3555 -0.0171
C9 C 0.32856(13) 0.1893(3) 0.1403(2)
C10 C 0.31133(17) 0.0905(4) 0.0502(3)
H7 H 0.3424 0.0672 0.0255
H8 H 0.2843 0.1324 -0.0037
H9 H 0.2965 0.0100 0.0724
C11 C 0.27753(15) 0.2229(4) 0.1764(3)
H10 H 0.2635 0.1416 0.1990
H11 H 0.2505 0.2618 0.1209
H12 H 0.2867 0.2863 0.2319
C12 C 0.36849(16) 0.1140(4) 0.2268(3)
H13 H 0.4008 0.0921 0.2057
H14 H 0.3519 0.0322 0.2425
H15 H 0.3778 0.1705 0.2865
B1 B 0.40020(16) 0.5611(4) 0.1151(3)
B2 B 0.34254(16) 0.5948(4) 0.1633(3)
H16 H 0.3017 0.6089 0.1123
B3 B 0.35068(16) 0.5094(4) 0.2803(3)
H17 H 0.3161 0.4664 0.3048
B4 B 0.41481(16) 0.4281(4) 0.3096(3)
H18 H 0.4218 0.3320 0.3519
B5 B 0.45703(17) 0.6368(4) 0.2028(3)
H19 H 0.4918 0.6761 0.1770
B6 B 0.39333(19) 0.7188(4) 0.1724(4)
H20 H 0.3865 0.8125 0.1271
B7 B 0.36248(18) 0.6862(4) 0.2759(3)
H21 H 0.3354 0.7601 0.2987
B8 B 0.40737(19) 0.5845(5) 0.3674(3)
H22 H 0.4096 0.5921 0.4496
B9 B 0.46551(18) 0.5542(5) 0.3238(3)
H23 H 0.5058 0.5408 0.3768
B10 B 0.4335(2) 0.7141(5) 0.3011(4)
H24 H 0.4526 0.8062 0.3397
C13 C 0.12481(12) 0.5452(3) 0.3096(2)
C14 C 0.05785(12) 0.5156(3) 0.2732(2)
H25 H 0.0305 0.5912 0.2272
C15 C 0.14720(12) 0.6707(3) 0.2530(2)
C16 C 0.09969(13) 0.7116(3) 0.1645(2)
H26 H 0.0845 0.7977 0.1611
C17 C 0.08096(14) 0.6211(4) 0.0934(2)
H27 H 0.0522 0.6392 0.0371
C18 C 0.10957(15) 0.4844(4) 0.1092(3)
H28 H 0.0970 0.4221 0.0517
C19 C 0.18831(14) 0.6054(4) 0.2021(3)
H29 H 0.2250 0.6282 0.2208
C20 C 0.16903(16) 0.5160(4) 0.1309(3)
H30 H 0.1913 0.4738 0.0952
C21 C 0.17274(14) 0.7948(3) 0.3195(3)
C22 C 0.19266(17) 0.8951(4) 0.2498(3)
H31 H 0.2196 0.8522 0.2220
H32 H 0.2083 0.9729 0.2889
H33 H 0.1625 0.9228 0.1952
C23 C 0.22097(17) 0.7555(4) 0.4069(3)
H34 H 0.2474 0.7083 0.3801
H35 H 0.2088 0.6979 0.4538
H36 H 0.2372 0.8356 0.4419
C24 C 0.13078(18) 0.8716(4) 0.3633(3)
H37 H 0.1482 0.9465 0.4038
H38 H 0.1160 0.8115 0.4052
H39 H 0.1020 0.9045 0.3081
B11 B 0.10133(16) 0.4269(4) 0.2157(3)
B12 B 0.15775(17) 0.3914(4) 0.3207(3)
H40 H 0.1991 0.3785 0.3107
B13 B 0.14785(16) 0.4723(4) 0.4300(3)
H41 H 0.1819 0.5133 0.4895
B14 B 0.08379(16) 0.5549(4) 0.3963(3)
H42 H 0.0761 0.6500 0.4325
B15 B 0.04357(18) 0.3508(4) 0.2452(3)
H43 H 0.0094 0.3133 0.1841
B16 B 0.1070(2) 0.2684(5) 0.2773(4)
H44 H 0.1145 0.1759 0.2378
B17 B 0.13538(19) 0.2963(5) 0.4101(3)
H45 H 0.1615 0.2200 0.4580
B18 B 0.0906(2) 0.3964(5) 0.4593(3)
H46 H 0.0877 0.3865 0.5388
B19 B 0.03318(19) 0.4296(5) 0.3581(4)
H47 H -0.0076 0.4422 0.3707
B20 B 0.0652(2) 0.2698(5) 0.3647(4)
H48 H 0.0453 0.1772 0.3823
loop_
_geom_bond_atom_site_label_1
_geom_bond_atom_site_label_2
_geom_bond_site_symmetry_1
_geom_bond_site_symmetry_2
C1 C2 1_555 1_555
C2 H1 1_555 1_555
C3 C1 1_555 1_555
C4 C3 1_555 1_555
H2 C4 1_555 1_555
C5 C4 1_555 1_555
H3 C5 1_555 1_555
C6 C5 1_555 1_555
H4 C6 1_555 1_555
C7 C3 1_555 1_555
H5 C7 1_555 1_555
C8 C6 1_555 1_555
H6 C8 1_555 1_555
C9 C3 1_555 1_555
C10 C9 1_555 1_555
H7 C10 1_555 1_555
H8 C10 1_555 1_555
H9 C10 1_555 1_555
C11 C9 1_555 1_555
H10 C11 1_555 1_555
H11 C11 1_555 1_555
H12 C11 1_555 1_555
C12 C9 1_555 1_555
H13 C12 1_555 1_555
H14 C12 1_555 1_555
H15 C12 1_555 1_555
B1 C1 1_555 1_555
B2 C1 1_555 1_555
H16 B2 1_555 1_555
B3 C1 1_555 1_555
H17 B3 1_555 1_555
B4 C1 1_555 1_555
H18 B4 1_555 1_555
B5 C2 1_555 1_555
H19 B5 1_555 1_555
B6 B1 1_555 1_555
H20 B6 1_555 1_555
B7 B2 1_555 1_555
H21 B7 1_555 1_555
B8 B3 1_555 1_555
H22 B8 1_555 1_555
B9 C2 1_555 1_555
H23 B9 1_555 1_555
B10 B5 1_555 1_555
H24 B10 1_555 1_555
C13 C14 1_555 1_555
C14 H25 1_555 1_555
C15 C13 1_555 1_555
C16 C15 1_555 1_555
H26 C16 1_555 1_555
C17 C16 1_555 1_555
H27 C17 1_555 1_555
C18 C17 1_555 1_555
H28 C18 1_555 1_555
C19 C15 1_555 1_555
H29 C19 1_555 1_555
C20 C18 1_555 1_555
H30 C20 1_555 1_555
C21 C15 1_555 1_555
C22 C21 1_555 1_555
H31 C22 1_555 1_555
H32 C22 1_555 1_555
H33 C22 1_555 1_555
C23 C21 1_555 1_555
H34 C23 1_555 1_555
H35 C23 1_555 1_555
H36 C23 1_555 1_555
C24 C21 1_555 1_555
H37 C24 1_555 1_555
H38 C24 1_555 1_555
H39 C24 1_555 1_555
B11 C13 1_555 1_555
B12 C13 1_555 1_555
H40 B12 1_555 1_555
B13 C13 1_555 1_555
H41 B13 1_555 1_555
B14 C13 1_555 1_555
H42 B14 1_555 1_555
B15 C14 1_555 1_555
H43 B15 1_555 1_555
B16 B11 1_555 1_555
H44 B16 1_555 1_555
B17 B12 1_555 1_555
H45 B17 1_555 1_555
B18 B13 1_555 1_555
H46 B18 1_555 1_555
B19 C14 1_555 1_555
H47 B19 1_555 1_555
B20 B15 1_555 1_555
H48 B20 1_555 1_555
C2 B1 1_555 1_555
C2 B4 1_555 1_555
C6 B1 1_555 1_555
C7 C8 1_555 1_555
B1 B2 1_555 1_555
B1 B5 1_555 1_555
B2 B3 1_555 1_555
B2 B6 1_555 1_555
B3 B4 1_555 1_555
B3 B7 1_555 1_555
B4 B8 1_555 1_555
B4 B9 1_555 1_555
B5 B6 1_555 1_555
B5 B9 1_555 1_555
B6 B7 1_555 1_555
B6 B10 1_555 1_555
B7 B8 1_555 1_555
B7 B10 1_555 1_555
B8 B9 1_555 1_555
B8 B10 1_555 1_555
B9 B10 1_555 1_555
C14 B11 1_555 1_555
C14 B14 1_555 1_555
C18 B11 1_555 1_555
C19 C20 1_555 1_555
B11 B12 1_555 1_555
B11 B15 1_555 1_555
B12 B13 1_555 1_555
B12 B16 1_555 1_555
B13 B14 1_555 1_555
B13 B17 1_555 1_555
B14 B18 1_555 1_555
B14 B19 1_555 1_555
B15 B16 1_555 1_555
B15 B19 1_555 1_555
B16 B17 1_555 1_555
B16 B20 1_555 1_555
B17 B18 1_555 1_555
B17 B20 1_555 1_555
B18 B19 1_555 1_555
B18 B20 1_555 1_555
B19 B20 1_555 1_555

#END
