
#######################################################################
#
#                 Cambridge Crystallographic Data Centre
#                                CCDC 
#
#######################################################################
#
# If this CIF has been generated from an entry in the Cambridge 
# Structural Database, then it will include bibliographic, chemical, 
# crystal, experimental, refinement or atomic coordinate data resulting 
# from the CCDC's data processing and validation procedures.
#
#######################################################################

data_JOWRAQ
_chemical_formula_moiety         'C9 H15 N3 2+,2(Cl1 O4 1-)'
_chemical_name_systematic        
'4-(pyridinium-4-yl)piperazin-1-ium diperchlorate'
_symmetry_cell_setting           monoclinic
_symmetry_space_group_name_H-M   'C 2/c'
_symmetry_Int_Tables_number      15
_space_group_name_Hall           '-C 2yn'
loop_
_symmetry_equiv_pos_site_id
_symmetry_equiv_pos_as_xyz
1 x,y,z
2 -x,y,1/2-z
3 1/2+x,1/2+y,z
4 1/2-x,1/2+y,1/2-z
5 -x,-y,-z
6 x,-y,1/2+z
7 1/2-x,1/2-y,-z
8 1/2+x,1/2-y,1/2+z
_cell_length_a                   18.575(11)
_cell_length_b                   11.181(7)
_cell_length_c                   14.201(8)
_cell_angle_alpha                90
_cell_angle_beta                 96.122(6)
_cell_angle_gamma                90
_cell_volume                     2932.54
_exptl_crystal_colour            colorless
_exptl_crystal_description       rodlike
_cell_formula_units_Z            8
loop_
_atom_site_label
_atom_site_type_symbol
_atom_site_fract_x
_atom_site_fract_y
_atom_site_fract_z
N1 N 0.4342(2) -0.0302(3) 0.1241(3)
H1 H 0.4467 -0.1044 0.1255
C1 C 0.4847(2) 0.0540(4) 0.1186(3)
H2 H 0.5328 0.0320 0.1165
C2 C 0.4663(2) 0.1705(4) 0.1159(3)
H3 H 0.5021 0.2279 0.1122
C3 C 0.3948(2) 0.2070(3) 0.1185(3)
C4 C 0.3432(2) 0.1150(3) 0.1263(3)
H4 H 0.2949 0.1337 0.1304
C5 C 0.3655(2) -0.0013(4) 0.1276(3)
H5 H 0.3316 -0.0618 0.1311
N2 N 0.37471(17) 0.3237(3) 0.1134(3)
C6 C 0.2997(2) 0.3622(4) 0.1024(4)
H6 H 0.2694 0.2972 0.1204
H7 H 0.2854 0.3805 0.0363
C7 C 0.2873(2) 0.4690(4) 0.1606(4)
H8 H 0.2948 0.4483 0.2273
H9 H 0.2377 0.4960 0.1465
N3 N 0.3377(2) 0.5665(3) 0.1404(3)
H10 H 0.328(2) 0.588(3) 0.083(3)
H11 H 0.329(3) 0.630(5) 0.176(4)
C8 C 0.4144(3) 0.5248(4) 0.1539(4)
H12 H 0.4461 0.5888 0.1376
H13 H 0.4275 0.5044 0.2199
C9 C 0.4246(2) 0.4201(4) 0.0945(4)
H14 H 0.4164 0.4427 0.0283
H15 H 0.4741 0.3918 0.1069
Cl1 Cl 0.33559(6) 0.29126(10) 0.40392(8)
O1 O 0.2950(3) 0.3875(4) 0.4383(3)
O2 O 0.3889(2) 0.3431(4) 0.3536(3)
O3 O 0.3677(3) 0.2311(6) 0.4828(4)
O4 O 0.2874(4) 0.2304(6) 0.3431(5)
Cl2 Cl 0.39627(5) 0.23853(8) -0.15316(7)
O5 O 0.3495(2) 0.3324(4) -0.1353(3)
O6 O 0.4666(2) 0.2584(4) -0.1096(3)
O7 O 0.3949(3) 0.2296(4) -0.2521(3)
O8 O 0.3712(2) 0.1292(4) -0.1150(3)
loop_
_geom_bond_atom_site_label_1
_geom_bond_atom_site_label_2
_geom_bond_site_symmetry_1
_geom_bond_site_symmetry_2
N1 H1 1_555 1_555
C1 N1 1_555 1_555
H2 C1 1_555 1_555
C2 C1 1_555 1_555
H3 C2 1_555 1_555
C3 C2 1_555 1_555
C4 C3 1_555 1_555
H4 C4 1_555 1_555
C5 N1 1_555 1_555
H5 C5 1_555 1_555
N2 C3 1_555 1_555
C6 N2 1_555 1_555
H6 C6 1_555 1_555
H7 C6 1_555 1_555
C7 C6 1_555 1_555
H8 C7 1_555 1_555
H9 C7 1_555 1_555
N3 C7 1_555 1_555
H10 N3 1_555 1_555
H11 N3 1_555 1_555
C8 N3 1_555 1_555
H12 C8 1_555 1_555
H13 C8 1_555 1_555
C9 N2 1_555 1_555
H14 C9 1_555 1_555
H15 C9 1_555 1_555
Cl1 O1 1_555 1_555
O2 Cl1 1_555 1_555
O3 Cl1 1_555 1_555
O4 Cl1 1_555 1_555
Cl2 O5 1_555 1_555
O6 Cl2 1_555 1_555
O7 Cl2 1_555 1_555
O8 Cl2 1_555 1_555
C4 C5 1_555 1_555
C8 C9 1_555 1_555

#END
