
#######################################################################
#
#                 Cambridge Crystallographic Data Centre
#                                CCDC 
#
#######################################################################
#
# If this CIF has been generated from an entry in the Cambridge 
# Structural Database, then it will include bibliographic, chemical, 
# crystal, experimental, refinement or atomic coordinate data resulting 
# from the CCDC's data processing and validation procedures.
#
#######################################################################

data_JOWWEZ
_chemical_formula_moiety         'C19 H19 N1 O4'
_chemical_name_systematic        
3-(1-(3,4-Dimethoxyphenyl)-2-phenylvinyl)-1,3-oxazolidin-2-one
_symmetry_cell_setting           monoclinic
_symmetry_space_group_name_H-M   'P 21/c'
_symmetry_Int_Tables_number      14
_space_group_name_Hall           '-P 2ybc'
loop_
_symmetry_equiv_pos_site_id
_symmetry_equiv_pos_as_xyz
1 x,y,z
2 -x,1/2+y,1/2-z
3 -x,-y,-z
4 x,1/2-y,1/2+z
_cell_length_a                   12.4071(7)
_cell_length_b                   12.8438(7)
_cell_length_c                   11.3777(6)
_cell_angle_alpha                90
_cell_angle_beta                 115.763(3)
_cell_angle_gamma                90
_cell_volume                     1632.86
_exptl_crystal_colour            colorless
_exptl_crystal_description       block
_cell_formula_units_Z            4
loop_
_atom_site_label
_atom_site_type_symbol
_atom_site_fract_x
_atom_site_fract_y
_atom_site_fract_z
O1 O 0.64568(8) 0.17659(8) 0.01242(10)
O2 O 0.77285(9) 0.02570(9) 0.15175(11)
C1 C 0.44903(12) 0.09330(10) 0.16449(13)
N1 N 0.28617(11) 0.04024(9) 0.22068(12)
C2 C 0.59888(12) 0.12635(11) 0.08587(13)
C3 C 0.52179(13) 0.01602(12) 0.24427(15)
H1 H 0.4971 -0.0207 0.2987
C4 C 0.49016(12) 0.14924(11) 0.08521(13)
H2 H 0.4432 0.2023 0.0318
C5 C 0.26387(13) 0.19940(11) 0.10027(14)
H3 H 0.3028 0.2466 0.0700
C6 C 0.33044(12) 0.11685(10) 0.16116(13)
C7 C 0.14089(13) 0.22955(11) 0.07219(14)
C8 C 0.66972(12) 0.04513(11) 0.16386(14)
O3 O 0.34125(13) 0.11455(10) 0.42288(12)
O4 O 0.24687(13) -0.03942(10) 0.36891(13)
C9 C 0.63150(13) -0.00790(12) 0.24457(15)
H4 H 0.6793 -0.0599 0.2994
C10 C 0.29724(14) 0.04606(13) 0.34366(15)
C11 C 0.57181(14) 0.25128(14) -0.08015(17)
H5 H 0.6145 0.2808 -0.1252
H6 H 0.5508 0.3055 -0.0357
H7 H 0.5004 0.2179 -0.1419
C12 C 0.06935(14) 0.18798(13) 0.12794(17)
H8 H 0.1000 0.1355 0.1901
C13 C -0.09334(15) 0.30035(17) 0.00116(19)
H9 H -0.1708 0.3241 -0.0223
C14 C 0.83233(16) -0.07015(15) 0.20286(18)
H10 H 0.9030 -0.0747 0.1886
H11 H 0.7798 -0.1270 0.1597
H12 H 0.8543 -0.0734 0.2948
C15 C -0.04591(15) 0.22330(15) 0.09239(19)
H13 H -0.0916 0.1944 0.1308
C16 C 0.22092(18) -0.05121(13) 0.15151(18)
H14 H 0.2660 -0.0909 0.1154
H15 H 0.1435 -0.0329 0.0822
C17 C 0.09038(16) 0.30754(15) -0.01987(17)
H16 H 0.1352 0.3373 -0.0587
C18 C 0.2083(2) -0.10972(15) 0.2598(2)
H17 H 0.1258 -0.1302 0.2331
H18 H 0.2578 -0.1718 0.2826
C19 C -0.02568(17) 0.34213(18) -0.05528(19)
H19 H -0.0577 0.3941 -0.1179
loop_
_geom_bond_atom_site_label_1
_geom_bond_atom_site_label_2
_geom_bond_site_symmetry_1
_geom_bond_site_symmetry_2
O1 C2 1_555 1_555
O2 C8 1_555 1_555
C1 C3 1_555 1_555
N1 C6 1_555 1_555
C2 C4 1_555 1_555
C3 H1 1_555 1_555
C4 C1 1_555 1_555
H2 C4 1_555 1_555
C5 H3 1_555 1_555
C6 C1 1_555 1_555
C7 C5 1_555 1_555
C8 C2 1_555 1_555
O3 C10 1_555 1_555
O4 C10 1_555 1_555
C9 C3 1_555 1_555
H4 C9 1_555 1_555
C10 N1 1_555 1_555
C11 O1 1_555 1_555
H5 C11 1_555 1_555
H6 C11 1_555 1_555
H7 C11 1_555 1_555
C12 C7 1_555 1_555
H8 C12 1_555 1_555
C13 H9 1_555 1_555
C14 O2 1_555 1_555
H10 C14 1_555 1_555
H11 C14 1_555 1_555
H12 C14 1_555 1_555
C15 C12 1_555 1_555
H13 C15 1_555 1_555
C16 N1 1_555 1_555
H14 C16 1_555 1_555
H15 C16 1_555 1_555
C17 C7 1_555 1_555
H16 C17 1_555 1_555
C18 O4 1_555 1_555
H17 C18 1_555 1_555
H18 C18 1_555 1_555
C19 C13 1_555 1_555
H19 C19 1_555 1_555
C5 C6 1_555 1_555
C8 C9 1_555 1_555
C13 C15 1_555 1_555
C16 C18 1_555 1_555
C17 C19 1_555 1_555

#END
