
#######################################################################
#
#                 Cambridge Crystallographic Data Centre
#                                CCDC 
#
#######################################################################
#
# If this CIF has been generated from an entry in the Cambridge 
# Structural Database, then it will include bibliographic, chemical, 
# crystal, experimental, refinement or atomic coordinate data resulting 
# from the CCDC's data processing and validation procedures.
#
#######################################################################

data_JOWXIC
_chemical_formula_moiety         'C22 H24 N2 O2 Se2'
_chemical_name_systematic        
1,2-bis(2-(4-Ethyl-2-oxazoline)phenyl)diselenide
_chemical_properties_biological  'thiol peroxidase-like antioxidant activity'
_symmetry_cell_setting           orthorhombic
_symmetry_space_group_name_H-M   'P 21 21 21'
_symmetry_Int_Tables_number      19
_space_group_name_Hall           'P 2ac 2ab'
loop_
_symmetry_equiv_pos_site_id
_symmetry_equiv_pos_as_xyz
1 x,y,z
2 1/2-x,-y,1/2+z
3 1/2+x,1/2-y,-z
4 -x,1/2+y,1/2-z
_cell_length_a                   8.778(3)
_cell_length_b                   12.643(3)
_cell_length_c                   20.268(4)
_cell_angle_alpha                90
_cell_angle_beta                 90
_cell_angle_gamma                90
_cell_volume                     2249.35
_exptl_crystal_description       'thick needle'
_chemical_melting_point          '120-122 deg.C'
_cell_formula_units_Z            4
loop_
_atom_site_label
_atom_site_type_symbol
_atom_site_fract_x
_atom_site_fract_y
_atom_site_fract_z
Se1 Se 0.6435(1) 0.0254(1) 0.8738(1)
Se2 Se 0.4564(1) -0.0123(1) 0.9537(1)
O1 O 0.7885(10) 0.1554(7) 0.6738(4)
O2 O 0.1308(9) 0.0743(7) 1.1155(4)
N1 N 0.8262(9) 0.0506(8) 0.7620(4)
N2 N 0.2322(11) -0.0468(8) 1.0480(5)
C1 C 0.5472(12) 0.1369(7) 0.8225(4)
C2 C 0.4163(12) 0.1861(8) 0.8456(5)
C3 C 0.3525(14) 0.2657(9) 0.8104(5)
C4 C 0.4107(16) 0.2998(10) 0.7522(6)
C5 C 0.5395(16) 0.2526(9) 0.7295(5)
C6 C 0.6099(11) 0.1696(7) 0.7623(5)
C7 C 0.7473(12) 0.1216(10) 0.7355(5)
C8 C 0.9292(17) 0.0993(13) 0.6612(6)
C9 C 0.9488(12) 0.0210(11) 0.7163(5)
C10 C 1.1035(14) 0.0259(16) 0.7467(7)
C11 C 1.1255(23) -0.0491(19) 0.7982(9)
C12 C 0.4739(10) 0.1062(7) 1.0142(4)
C13 C 0.5827(11) 0.1826(8) 1.0068(5)
C14 C 0.5902(12) 0.2688(9) 1.0472(5)
C15 C 0.4846(12) 0.2793(9) 1.0962(5)
C16 C 0.3769(12) 0.2065(9) 1.1064(5)
C17 C 0.3668(11) 0.1173(8) 1.0653(4)
C18 C 0.2442(12) 0.0431(10) 1.0742(5)
C19 C 0.0219(16) -0.0094(13) 1.1154(8)
C20 C 0.0849(18) -0.0948(13) 1.0666(8)
C21 C -0.0307(27) -0.0978(16) 1.0087(12)
C22 C 0.0169(39) -0.1752(23) 0.9683(12)
H1 H 0.3725(12) 0.1645(8) 0.8852(5)
H2 H 0.2654(14) 0.2982(9) 0.8269(5)
H3 H 0.3640(16) 0.3538(10) 0.7285(6)
H4 H 0.5822(16) 0.2769(9) 0.6903(5)
H5 H 1.0142(17) 0.1483(13) 0.6603(6)
H6 H 0.9242(17) 0.0630(13) 0.6191(6)
H7 H 0.9302(12) -0.0506(11) 0.6996(5)
H8 H 1.1792(14) 0.0137(16) 0.7127(7)
H9 H 1.1199(14) 0.0963(16) 0.7642(7)
H10 H 1.2301(33) -0.0480(49) 0.8119(29)
H11 H 1.0999(91) -0.1185(22) 0.7824(16)
H12 H 1.0612(78) -0.0314(44) 0.8349(19)
H13 H 0.6539(11) 0.1756(8) 0.9731(5)
H14 H 0.6659(12) 0.3195(9) 1.0415(5)
H15 H 0.4878(12) 0.3387(9) 1.1232(5)
H16 H 0.3081(12) 0.2150(9) 1.1409(5)
H17 H -0.0766(16) 0.0161(13) 1.1007(8)
H18 H 0.0108(16) -0.0389(13) 1.1593(8)
H19 H 0.0973(18) -0.1640(13) 1.0877(8)
H20 H -0.0672(78) -0.200(15) 0.9423(95)
H21 H 0.057(28) -0.2326(93) 0.9941(13)
H22 H 0.095(22) -0.1484(62) 0.9397(89)
C23? C -0.1390(55) -0.1772(31) 1.0013(25)
H23? H -0.168(32) -0.182(20) 0.9557(39)
H24? H -0.227(18) -0.161(15) 1.028(15)
H25? H -0.097(16) -0.2434(64) 1.016(17)
loop_
_geom_bond_atom_site_label_1
_geom_bond_atom_site_label_2
_geom_bond_site_symmetry_1
_geom_bond_site_symmetry_2
Se1 Se2 1_555 1_555
Se2 C12 1_555 1_555
O1 C7 1_555 1_555
O2 C18 1_555 1_555
N1 C7 1_555 1_555
N2 C18 1_555 1_555
C1 Se1 1_555 1_555
C2 C1 1_555 1_555
C3 C2 1_555 1_555
C4 C3 1_555 1_555
C5 C4 1_555 1_555
C6 C1 1_555 1_555
C7 C6 1_555 1_555
C8 O1 1_555 1_555
C9 N1 1_555 1_555
C10 C9 1_555 1_555
C11 C10 1_555 1_555
C12 C13 1_555 1_555
C13 C14 1_555 1_555
C14 C15 1_555 1_555
C15 C16 1_555 1_555
C16 C17 1_555 1_555
C17 C12 1_555 1_555
C18 C17 1_555 1_555
C19 O2 1_555 1_555
C20 N2 1_555 1_555
C21 C20 1_555 1_555
C22 C21 1_555 1_555
H1 C2 1_555 1_555
H2 C3 1_555 1_555
H3 C4 1_555 1_555
H4 C5 1_555 1_555
H5 C8 1_555 1_555
H6 C8 1_555 1_555
H7 C9 1_555 1_555
H8 C10 1_555 1_555
H9 C10 1_555 1_555
H10 C11 1_555 1_555
H11 C11 1_555 1_555
H12 C11 1_555 1_555
H13 C13 1_555 1_555
H14 C14 1_555 1_555
H15 C15 1_555 1_555
H16 C16 1_555 1_555
H17 C19 1_555 1_555
H18 C19 1_555 1_555
H19 C20 1_555 1_555
H20 C22 1_555 1_555
H21 C22 1_555 1_555
H22 C22 1_555 1_555
C5 C6 1_555 1_555
C8 C9 1_555 1_555
C19 C20 1_555 1_555

#END
