
#######################################################################
#
#                 Cambridge Crystallographic Data Centre
#                                CCDC 
#
#######################################################################
#
# If this CIF has been generated from an entry in the Cambridge 
# Structural Database, then it will include bibliographic, chemical, 
# crystal, experimental, refinement or atomic coordinate data resulting 
# from the CCDC's data processing and validation procedures.
#
#######################################################################

data_JOXKAK
_chemical_formula_moiety         'C25 H18 O1 S2'
_chemical_name_systematic        
2-(1,3-dithiolan-2-ylidene)-1,4,4-triphenylbut-3-en-1-one
_symmetry_cell_setting           orthorhombic
_symmetry_space_group_name_H-M   'P 21 21 21'
_symmetry_Int_Tables_number      19
_space_group_name_Hall           'P 2ac 2ab'
loop_
_symmetry_equiv_pos_site_id
_symmetry_equiv_pos_as_xyz
1 x,y,z
2 1/2-x,-y,1/2+z
3 -x,1/2+y,1/2-z
4 1/2+x,1/2-y,-z
_cell_length_a                   9.580(4)
_cell_length_b                   10.490(4)
_cell_length_c                   20.176(7)
_cell_angle_alpha                90
_cell_angle_beta                 90
_cell_angle_gamma                90
_cell_volume                     2027.57
_exptl_crystal_colour            yellow
_exptl_crystal_description       plate
_chemical_melting_point          '483-485 K'
_cell_formula_units_Z            4
_exptl_crystal_recrystallization_method 'Vapour Deposition'
loop_
_atom_site_label
_atom_site_type_symbol
_atom_site_fract_x
_atom_site_fract_y
_atom_site_fract_z
S1 S 0.90734(12) 0.86499(9) 0.82823(4)
S2 S 0.97775(13) 0.62352(10) 0.76468(5)
O1 O 0.6984(3) 0.9664(2) 0.75544(15)
C1 C 0.6967(4) 0.6381(3) 0.62155(15)
C2 C 0.8209(5) 0.8332(3) 0.58141(19)
H1 H 0.8897 0.8202 0.6132
C3 C 0.7072(4) 0.7505(3) 0.57700(15)
C4 C 0.6085(5) 0.7733(3) 0.52970(17)
H2 H 0.5327 0.7183 0.5261
C5 C 0.6179(6) 0.8758(4) 0.4871(2)
H3 H 0.5480 0.8899 0.4559
C6 C 0.7291(7) 0.9565(4) 0.4904(2)
H4 H 0.7364 1.0247 0.4612
C7 C 0.8300(6) 0.9362(4) 0.5373(2)
H5 H 0.9057 0.9916 0.5400
C8 C 0.6510(4) 0.5140(3) 0.59195(14)
C9 C 0.7082(4) 0.4691(3) 0.53326(16)
H6 H 0.7710 0.5190 0.5096
C10 C 0.6714(5) 0.3496(3) 0.51010(19)
H7 H 0.7117 0.3188 0.4713
C11 C 0.5765(6) 0.2763(3) 0.5435(2)
H8 H 0.5535 0.1957 0.5277
C12 C 0.5158(6) 0.3210(3) 0.5999(2)
H9 H 0.4501 0.2718 0.6222
C13 C 0.5527(5) 0.4411(3) 0.62396(18)
H10 H 0.5102 0.4721 0.6621
C14 C 0.7209(4) 0.6420(3) 0.68733(16)
H11 H 0.7197 0.5639 0.7091
C15 C 0.7491(4) 0.7538(3) 0.72910(15)
C16 C 0.6578(4) 0.8667(3) 0.72886(16)
C17 C 0.5201(4) 0.8644(3) 0.69720(14)
C18 C 0.4308(5) 0.7594(3) 0.70034(17)
H12 H 0.4600 0.6856 0.7218
C19 C 0.3007(5) 0.7639(4) 0.6722(2)
H13 H 0.2428 0.6928 0.6740
C20 C 0.2554(5) 0.8739(5) 0.6409(2)
H14 H 0.1675 0.8767 0.6214
C21 C 0.3420(6) 0.9798(4) 0.6388(2)
H15 H 0.3113 1.0544 0.6187
C22 C 0.4712(5) 0.9748(3) 0.66609(18)
H16 H 0.5284 1.0463 0.6640
C23 C 0.8623(4) 0.7501(3) 0.76975(15)
C24 C 1.0529(7) 0.7816(6) 0.8611(4)
H17 H 1.0964 0.8067 0.9002
C25 C 1.0972(9) 0.6785(8) 0.8256(3)
H18 H 1.1834 0.6401 0.8327
loop_
_geom_bond_atom_site_label_1
_geom_bond_atom_site_label_2
_geom_bond_site_symmetry_1
_geom_bond_site_symmetry_2
S1 C23 1_555 1_555
S2 C23 1_555 1_555
O1 C16 1_555 1_555
C1 C3 1_555 1_555
C2 H1 1_555 1_555
C3 C2 1_555 1_555
C4 C3 1_555 1_555
H2 C4 1_555 1_555
C5 C4 1_555 1_555
H3 C5 1_555 1_555
C6 C5 1_555 1_555
H4 C6 1_555 1_555
C7 C2 1_555 1_555
H5 C7 1_555 1_555
C8 C1 1_555 1_555
C9 C8 1_555 1_555
H6 C9 1_555 1_555
C10 C9 1_555 1_555
H7 C10 1_555 1_555
C11 C10 1_555 1_555
H8 C11 1_555 1_555
C12 C11 1_555 1_555
H9 C12 1_555 1_555
C13 C8 1_555 1_555
H10 C13 1_555 1_555
C14 C1 1_555 1_555
H11 C14 1_555 1_555
C15 C14 1_555 1_555
C16 C15 1_555 1_555
C17 C16 1_555 1_555
C18 C17 1_555 1_555
H12 C18 1_555 1_555
C19 C18 1_555 1_555
H13 C19 1_555 1_555
C20 C19 1_555 1_555
H14 C20 1_555 1_555
C21 C20 1_555 1_555
H15 C21 1_555 1_555
C22 C17 1_555 1_555
H16 C22 1_555 1_555
C23 C15 1_555 1_555
C24 S1 1_555 1_555
H17 C24 1_555 1_555
C25 S2 1_555 1_555
H18 C25 1_555 1_555
C6 C7 1_555 1_555
C12 C13 1_555 1_555
C21 C22 1_555 1_555
C24 C25 1_555 1_555

#END
