
#######################################################################
#
#                 Cambridge Crystallographic Data Centre
#                                CCDC 
#
#######################################################################
#
# If this CIF has been generated from an entry in the Cambridge 
# Structural Database, then it will include bibliographic, chemical, 
# crystal, experimental, refinement or atomic coordinate data resulting 
# from the CCDC's data processing and validation procedures.
#
#######################################################################

data_JOXQIY
_chemical_formula_moiety         'C14 H9 Br1 O2'
_chemical_name_systematic        2'-Bromobiphenyl-2,6-dicarbaldehyde
_symmetry_cell_setting           monoclinic
_symmetry_space_group_name_H-M   'P 21/c'
_symmetry_Int_Tables_number      14
_space_group_name_Hall           '-P 2ybc'
loop_
_symmetry_equiv_pos_site_id
_symmetry_equiv_pos_as_xyz
1 x,y,z
2 -x,1/2+y,1/2-z
3 -x,-y,-z
4 x,1/2-y,1/2+z
_cell_length_a                   13.6789(6)
_cell_length_b                   12.0257(5)
_cell_length_c                   14.7416(7)
_cell_angle_alpha                90
_cell_angle_beta                 104.184(5)
_cell_angle_gamma                90
_cell_volume                     2351.04
_exptl_crystal_colour            white
_cell_formula_units_Z            8
loop_
_atom_site_label
_atom_site_type_symbol
_atom_site_fract_x
_atom_site_fract_y
_atom_site_fract_z
Br1 Br 0.17911(3) 0.60308(3) 0.60862(2)
C1 C 0.3609(2) 0.4544(3) 0.5855(2)
C2 C 0.3740(2) 0.3647(3) 0.6478(2)
C3 C 0.4561(3) 0.3632(3) 0.7264(2)
H1 H 0.4643 0.3023 0.7688
C4 C 0.5247(2) 0.4483(3) 0.7429(2)
H2 H 0.5798 0.4466 0.7966
C5 C 0.5137(2) 0.5368(3) 0.6812(2)
H3 H 0.5619 0.5953 0.6921
C6 C 0.4320(2) 0.5406(3) 0.6030(2)
C7 C 0.2726(2) 0.4579(2) 0.5023(2)
C8 C 0.1857(2) 0.5181(2) 0.5016(2)
C9 C 0.1038(2) 0.5205(3) 0.4240(2)
H4 H 0.0448 0.5613 0.4256
C10 C 0.1098(3) 0.4624(3) 0.3443(2)
H5 H 0.0545 0.4634 0.2907
C11 C 0.1958(3) 0.4031(3) 0.3424(2)
H6 H 0.2001 0.3648 0.2872
C12 C 0.2760(3) 0.3995(2) 0.4210(2)
H7 H 0.3340 0.3567 0.4196
C13 C 0.3011(3) 0.2707(3) 0.6331(2)
H8 H 0.2438 0.2746 0.5816
C14 C 0.4230(3) 0.6360(3) 0.5384(3)
H9 H 0.3670 0.6379 0.4855
O1 O 0.3109(2) 0.1899(2) 0.68282(19)
O2 O 0.4828(2) 0.7121(2) 0.5488(2)
Br2 Br 0.37848(3) 0.41642(3) 0.93903(3)
C15 C 0.1499(2) 0.4678(2) 0.9265(2)
C16 C 0.0970(2) 0.3836(2) 0.8682(2)
C17 C 0.0408(2) 0.3059(3) 0.9032(2)
H10 H 0.0047 0.2500 0.8631
C18 C 0.0367(2) 0.3091(3) 0.9962(2)
H11 H -0.0019 0.2558 1.0198
C19 C 0.0894(2) 0.3907(2) 1.0542(2)
H12 H 0.0873 0.3925 1.1181
C20 C 0.1456(2) 0.4706(2) 1.0203(2)
C21 C 0.20497(14) 0.55863(14) 0.88755(14)
C22 C 0.15401(11) 0.65475(16) 0.85065(14)
H13 H 0.0843 0.6625 0.8480
C23 C 0.20511(14) 0.73953(13) 0.81762(14)
H14 H 0.1703 0.8052 0.7924
C24 C 0.30718(14) 0.72820(15) 0.82149(15)
H15 H 0.3421 0.7861 0.7989
C25 C 0.35814(11) 0.63208(17) 0.85839(15)
H16 H 0.4279 0.6243 0.8610
C26 C 0.30704(14) 0.54730(14) 0.89142(14)
C27 C 0.1045(3) 0.3739(3) 0.7696(2)
H17 H 0.1469 0.4250 0.7482
C28 C 0.2014(3) 0.5559(3) 1.0852(2)
H18 H 0.2441 0.6054 1.0625
O3 O 0.06032(18) 0.30536(19) 0.71487(15)
O4 O 0.1959(2) 0.5664(2) 1.16518(16)
loop_
_geom_bond_atom_site_label_1
_geom_bond_atom_site_label_2
_geom_bond_site_symmetry_1
_geom_bond_site_symmetry_2
Br1 C8 1_555 1_555
C1 C2 1_555 1_555
C2 C3 1_555 1_555
C3 H1 1_555 1_555
C4 C3 1_555 1_555
H2 C4 1_555 1_555
C5 C4 1_555 1_555
H3 C5 1_555 1_555
C6 C1 1_555 1_555
C7 C1 1_555 1_555
C8 C7 1_555 1_555
C9 C8 1_555 1_555
H4 C9 1_555 1_555
C10 C9 1_555 1_555
H5 C10 1_555 1_555
C11 C10 1_555 1_555
H6 C11 1_555 1_555
C12 C7 1_555 1_555
H7 C12 1_555 1_555
C13 C2 1_555 1_555
H8 C13 1_555 1_555
C14 C6 1_555 1_555
H9 C14 1_555 1_555
O1 C13 1_555 1_555
O2 C14 1_555 1_555
Br2 C26 1_555 1_555
C15 C16 1_555 1_555
C16 C17 1_555 1_555
C17 H10 1_555 1_555
C18 C17 1_555 1_555
H11 C18 1_555 1_555
C19 C18 1_555 1_555
H12 C19 1_555 1_555
C20 C15 1_555 1_555
C21 C15 1_555 1_555
C22 C21 1_555 1_555
H13 C22 1_555 1_555
C23 C22 1_555 1_555
H14 C23 1_555 1_555
C24 C23 1_555 1_555
H15 C24 1_555 1_555
C25 C24 1_555 1_555
H16 C25 1_555 1_555
C26 C21 1_555 1_555
C27 C16 1_555 1_555
H17 C27 1_555 1_555
C28 C20 1_555 1_555
H18 C28 1_555 1_555
O3 C27 1_555 1_555
O4 C28 1_555 1_555
C5 C6 1_555 1_555
C11 C12 1_555 1_555
C19 C20 1_555 1_555
C25 C26 1_555 1_555

#END
