
#######################################################################
#
#                 Cambridge Crystallographic Data Centre
#                                CCDC 
#
#######################################################################
#
# If this CIF has been generated from an entry in the Cambridge 
# Structural Database, then it will include bibliographic, chemical, 
# crystal, experimental, refinement or atomic coordinate data resulting 
# from the CCDC's data processing and validation procedures.
#
#######################################################################

data_JOYBOO
_chemical_formula_moiety         'C32 H36 B1 N1'
_chemical_name_systematic        
(4'-(Dimethylamino)biphenyl-4-yl)dimesitylborane
_symmetry_cell_setting           monoclinic
_symmetry_space_group_name_H-M   'P 21/c'
_symmetry_Int_Tables_number      14
_space_group_name_Hall           '-P 2ybc'
loop_
_symmetry_equiv_pos_site_id
_symmetry_equiv_pos_as_xyz
1 x,y,z
2 -x,1/2+y,1/2-z
3 -x,-y,-z
4 x,1/2-y,1/2+z
_cell_length_a                   8.409(4)
_cell_length_b                   7.789(2)
_cell_length_c                   41.38(1)
_cell_angle_alpha                90
_cell_angle_beta                 91.80(3)
_cell_angle_gamma                90
_cell_volume                     2708.96
_exptl_crystal_colour            yellow
_cell_formula_units_Z            4
loop_
_atom_site_label
_atom_site_type_symbol
_atom_site_fract_x
_atom_site_fract_y
_atom_site_fract_z
N1 N 0.9338(3) 0.5959(4) 0.79311(5)
C1 C 0.9208(4) 0.4810(4) 0.82013(6)
C2 C 1.0747(5) 0.6984(5) 0.79118(8)
B1 B 0.1918(3) 0.4846(3) 0.59790(6)
C3 C 0.8228(3) 0.5924(3) 0.76791(5)
C4 C 0.8356(3) 0.6994(4) 0.74099(6)
C5 C 0.7259(3) 0.6911(3) 0.71563(5)
C6 C 0.5989(3) 0.5768(3) 0.71495(5)
C7 C 0.5848(3) 0.4750(4) 0.74215(6)
C8 C 0.6936(3) 0.4802(4) 0.76774(6)
C9 C 0.2926(3) 0.5194(3) 0.62955(5)
C10 C 0.3119(3) 0.3895(3) 0.65237(6)
C11 C 0.4099(3) 0.4070(3) 0.67966(6)
C12 C 0.4884(3) 0.5605(3) 0.68625(5)
C13 C 0.4637(3) 0.6944(3) 0.66454(5)
C14 C 0.3709(3) 0.6739(3) 0.63663(5)
C15 C 0.0524(2) 0.3508(3) 0.60071(5)
C16 C -0.0783(3) 0.3864(3) 0.62005(5)
C17 C -0.0907(3) 0.5524(4) 0.63813(7)
C18 C -0.2015(3) 0.2663(4) 0.62172(6)
C19 C -0.1956(3) 0.1107(3) 0.60588(6)
C20 C -0.3328(4) -0.0129(5) 0.60799(9)
C21 C -0.0645(3) 0.0744(3) 0.58836(7)
C22 C 0.0590(3) 0.1916(3) 0.58512(6)
C23 C 0.2001(4) 0.1440(4) 0.56519(8)
C24 C 0.2309(2) 0.5756(3) 0.56513(5)
C25 C 0.3909(3) 0.5950(3) 0.55568(5)
C26 C 0.5292(3) 0.5117(4) 0.57331(7)
C27 C 0.4241(3) 0.6841(4) 0.52761(6)
C28 C 0.3070(3) 0.7581(4) 0.50828(6)
C29 C 0.3469(4) 0.8628(5) 0.47901(7)
C30 C 0.1510(3) 0.7328(3) 0.51655(6)
C31 C 0.1109(3) 0.6419(3) 0.54392(5)
C32 C -0.0649(3) 0.6164(4) 0.54927(7)
H1 H 0.925 0.784 0.740
H2 H 0.739 0.770 0.697
H3 H 0.493 0.395 0.743
H4 H 0.679 0.403 0.787
H5 H 0.253 0.279 0.649
H6 H 0.423 0.309 0.695
H7 H 0.514 0.808 0.669
H8 H 0.359 0.772 0.621
H9 H -0.297 0.295 0.635
H10 H -0.058 -0.040 0.578
H11 H 0.537 0.696 0.521
H12 H 0.064 0.782 0.502
H13 H 1.013 0.500 0.836
H14 H 0.820 0.504 0.831
H15 H 0.922 0.360 0.812
H16 H 1.145 0.678 0.811
H17 H 1.132 0.670 0.771
H18 H 1.043 0.824 0.791
H19 H -0.018 0.548 0.658
H20 H -0.059 0.648 0.624
H21 H -0.202 0.568 0.645
H22 H -0.412 0.011 0.590
H23 H -0.386 0.003 0.629
H24 H -0.293 -0.133 0.606
H25 H 0.186 0.194 0.543
H26 H 0.300 0.190 0.576
H27 H 0.207 0.016 0.564
H28 H 0.493 0.404 0.584
H29 H 0.612 0.483 0.557
H30 H 0.574 0.594 0.590
H31 H 0.350 0.785 0.460
H32 H 0.452 0.919 0.483
H33 H 0.262 0.952 0.475
H34 H -0.127 0.700 0.535
H35 H -0.098 0.496 0.543
H36 H -0.091 0.635 0.572
loop_
_geom_bond_atom_site_label_1
_geom_bond_atom_site_label_2
_geom_bond_site_symmetry_1
_geom_bond_site_symmetry_2
N1 C1 1_555 1_555
C1 H13 1_555 1_555
C2 N1 1_555 1_555
B1 C9 1_555 1_555
C3 N1 1_555 1_555
C4 C3 1_555 1_555
C5 C4 1_555 1_555
C6 C5 1_555 1_555
C7 C6 1_555 1_555
C8 C3 1_555 1_555
C9 C10 1_555 1_555
C10 C11 1_555 1_555
C11 C12 1_555 1_555
C12 C6 1_555 1_555
C13 C12 1_555 1_555
C14 C9 1_555 1_555
C15 B1 1_555 1_555
C16 C15 1_555 1_555
C17 C16 1_555 1_555
C18 C16 1_555 1_555
C19 C18 1_555 1_555
C20 C19 1_555 1_555
C21 C19 1_555 1_555
C22 C15 1_555 1_555
C23 C22 1_555 1_555
C24 B1 1_555 1_555
C25 C24 1_555 1_555
C26 C25 1_555 1_555
C27 C25 1_555 1_555
C28 C27 1_555 1_555
C29 C28 1_555 1_555
C30 C28 1_555 1_555
C31 C24 1_555 1_555
C32 C31 1_555 1_555
H1 C4 1_555 1_555
H2 C5 1_555 1_555
H3 C7 1_555 1_555
H4 C8 1_555 1_555
H5 C10 1_555 1_555
H6 C11 1_555 1_555
H7 C13 1_555 1_555
H8 C14 1_555 1_555
H9 C18 1_555 1_555
H10 C21 1_555 1_555
H11 C27 1_555 1_555
H12 C30 1_555 1_555
H14 C1 1_555 1_555
H15 C1 1_555 1_555
H16 C2 1_555 1_555
H17 C2 1_555 1_555
H18 C2 1_555 1_555
H19 C17 1_555 1_555
H20 C17 1_555 1_555
H21 C17 1_555 1_555
H22 C20 1_555 1_555
H23 C20 1_555 1_555
H24 C20 1_555 1_555
H25 C23 1_555 1_555
H26 C23 1_555 1_555
H27 C23 1_555 1_555
H28 C26 1_555 1_555
H29 C26 1_555 1_555
H30 C26 1_555 1_555
H31 C29 1_555 1_555
H32 C29 1_555 1_555
H33 C29 1_555 1_555
H34 C32 1_555 1_555
H35 C32 1_555 1_555
H36 C32 1_555 1_555
C7 C8 1_555 1_555
C13 C14 1_555 1_555
C21 C22 1_555 1_555
C30 C31 1_555 1_555

#END
