
#######################################################################
#
#                 Cambridge Crystallographic Data Centre
#                                CCDC 
#
#######################################################################
#
# If this CIF has been generated from an entry in the Cambridge 
# Structural Database, then it will include bibliographic, chemical, 
# crystal, experimental, refinement or atomic coordinate data resulting 
# from the CCDC's data processing and validation procedures.
#
#######################################################################

data_JOYHIQ
_chemical_formula_moiety         'C21 H27 I1 O5'
_chemical_name_systematic        
7a-ethyl-5-((4-(2-iodoethyl)-5,5-dimethyl-2-oxodihydrofuran-3(2H)-ylidene)methyl)-3a-methyl-3a,4,6a,7a-tetrahydro-3bH-cyclopenta[b]furo[3,2-d]furan-2(3H)-one
_symmetry_cell_setting           monoclinic
_symmetry_space_group_name_H-M   'P 21'
_symmetry_Int_Tables_number      4
_space_group_name_Hall           'P 2yb'
loop_
_symmetry_equiv_pos_site_id
_symmetry_equiv_pos_as_xyz
1 x,y,z
2 -x,1/2+y,-z
_cell_length_a                   13.169(3)
_cell_length_b                   9.3928(19)
_cell_length_c                   16.708(3)
_cell_angle_alpha                90
_cell_angle_beta                 96.19(3)
_cell_angle_gamma                90
_cell_volume                     2054.63
_exptl_crystal_colour            colorless
_exptl_crystal_description       block
_cell_formula_units_Z            4
loop_
_atom_site_label
_atom_site_type_symbol
_atom_site_fract_x
_atom_site_fract_y
_atom_site_fract_z
I1 I -0.06707(5) 0.54146(7) 0.98949(4)
O1 O 0.2222(4) 0.2796(6) 1.1779(3)
O2 O 0.2809(4) 0.1655(6) 1.0748(3)
O3 O 0.4280(4) 0.7524(6) 0.8114(3)
O4 O 0.4328(4) 1.0005(6) 0.8130(3)
O5 O 0.4287(4) 1.2152(7) 0.8684(3)
C1 C 0.2645(6) 0.2758(10) 1.1072(5)
C2 C 0.2834(6) 0.4242(9) 1.0822(5)
C3 C 0.2339(6) 0.5222(9) 1.1364(4)
H1 H 0.2788 0.6064 1.1505
C4 C 0.2281(7) 0.4262(10) 1.2117(5)
C5 C 0.1360(7) 0.4431(11) 1.2573(6)
H2 H 0.1419 0.3782 1.3035
H3 H 0.0740 0.4206 1.2217
H4 H 0.1324 0.5415 1.2763
C6 C 0.3261(6) 0.4315(9) 1.2652(5)
H5 H 0.3824 0.4042 1.2346
H6 H 0.3228 0.3654 1.3103
H7 H 0.3374 0.5284 1.2860
C7 C 0.1285(6) 0.5715(9) 1.0935(5)
H8 H 0.0898 0.6184 1.1338
H9 H 0.1407 0.6437 1.0525
C8 C 0.0645(7) 0.4571(10) 1.0541(5)
H10 H 0.0446 0.3900 1.0954
H11 H 0.1042 0.4036 1.0171
C9 C 0.3350(6) 0.4435(9) 1.0168(5)
H12 H 0.3528 0.3584 0.9909
C10 C 0.3666(6) 0.5715(8) 0.9811(4)
C11 C 0.3515(6) 0.7225(9) 1.0104(5)
H13 H 0.3922 0.7391 1.0630
H14 H 0.2787 0.7409 1.0161
C12 C 0.3889(6) 0.8182(9) 0.9451(4)
H15 H 0.4324 0.8967 0.9705
C13 C 0.3080(6) 0.8802(9) 0.8786(5)
C14 C 0.2972(6) 1.0379(10) 0.8901(4)
H16 H 0.2962 1.0619 0.9476
H17 H 0.2341 1.0744 0.8593
C15 C 0.3917(6) 1.0977(10) 0.8576(5)
C16 C 0.3671(6) 0.8720(9) 0.8041(4)
C17 C 0.4541(6) 0.7185(9) 0.8967(4)
H18 H 0.5287 0.7333 0.9130
C18 C 0.4226(6) 0.5719(9) 0.9172(4)
H19 H 0.4396 0.4887 0.8891
C19 C 0.2078(6) 0.7998(9) 0.8678(5)
H20 H 0.1625 0.8434 0.8242
H21 H 0.1755 0.8037 0.9179
H22 H 0.2206 0.7004 0.8543
C20 C 0.3074(6) 0.8780(9) 0.7212(4)
H23 H 0.2603 0.7956 0.7149
H24 H 0.2654 0.9657 0.7171
C21 C 0.3745(8) 0.8765(11) 0.6537(5)
H25 H 0.4231 0.7974 0.6616
H26 H 0.4120 0.9666 0.6533
H27 H 0.3321 0.8644 0.6022
I2 I 0.43936(5) 0.58662(9) 0.48360(4)
O6 O 0.7352(4) 0.2746(6) 0.6898(3)
O7 O 0.7874(4) 0.1628(6) 0.5840(3)
O8 O 0.9206(4) 0.7540(6) 0.3169(3)
O9 O 0.9278(4) 1.0008(6) 0.3194(3)
O10 O 0.9281(4) 1.2161(7) 0.3744(3)
C22 C 0.7686(6) 0.2695(10) 0.6157(5)
C23 C 0.7789(6) 0.4202(9) 0.5874(5)
C24 C 0.7259(6) 0.5142(10) 0.6427(5)
H28 H 0.7605 0.6086 0.6511
C25 C 0.7366(6) 0.4236(10) 0.7200(5)
C26 C 0.6520(8) 0.4321(11) 0.7744(6)
H29 H 0.6730 0.3821 0.8249
H30 H 0.5901 0.3876 0.7476
H31 H 0.6380 0.5321 0.7858
C27 C 0.8395(7) 0.4458(10) 0.7663(5)
H32 H 0.8929 0.4279 0.7310
H33 H 0.8478 0.3799 0.8120
H34 H 0.8449 0.5440 0.7861
C28 C 0.6101(8) 0.5305(14) 0.6096(6)
H35 H 0.5798 0.4345 0.6012
H36 H 0.5739 0.5792 0.6508
C29 C 0.5939(8) 0.6057(13) 0.5385(6)
H37 H 0.6409 0.5702 0.5007
H38 H 0.6097 0.7074 0.5493
C30 C 0.8291(6) 0.4418(9) 0.5219(4)
H39 H 0.8475 0.3576 0.4954
C31 C 0.8588(6) 0.5720(8) 0.4864(4)
C32 C 0.8462(6) 0.7215(9) 0.5165(5)
H40 H 0.8875 0.7361 0.5690
H41 H 0.7737 0.7416 0.5228
C33 C 0.8847(6) 0.8181(9) 0.4508(4)
H42 H 0.9294 0.8951 0.4765
C34 C 0.8030(6) 0.8831(9) 0.3863(5)
C35 C 0.7946(6) 1.0438(10) 0.3980(5)
H43 H 0.7315 1.0818 0.3680
H44 H 0.7951 1.0682 0.4557
C36 C 0.8893(6) 1.1015(10) 0.3641(5)
C37 C 0.8596(6) 0.8748(9) 0.3108(5)
C38 C 0.9479(6) 0.7173(9) 0.4019(5)
H45 H 1.0228 0.7300 0.4177
C39 C 0.9149(6) 0.5731(9) 0.4214(5)
H46 H 0.9304 0.4902 0.3925
C40 C 0.7009(6) 0.8083(9) 0.3765(5)
H47 H 0.7105 0.7089 0.3611
H48 H 0.6554 0.8560 0.3345
H49 H 0.6705 0.8115 0.4275
C41 C 0.7995(6) 0.8795(10) 0.2295(5)
H50 H 0.7567 0.9664 0.2260
H51 H 0.7531 0.7964 0.2242
C42 C 0.8645(7) 0.8789(12) 0.1584(5)
H52 H 0.9120 0.7984 0.1639
H53 H 0.9031 0.9681 0.1581
H54 H 0.8197 0.8700 0.1078
loop_
_geom_bond_atom_site_label_1
_geom_bond_atom_site_label_2
_geom_bond_site_symmetry_1
_geom_bond_site_symmetry_2
I1 C8 1_555 1_555
O1 C1 1_555 1_555
O2 C1 1_555 1_555
O3 C16 1_555 1_555
O4 C15 1_555 1_555
O5 C15 1_555 1_555
C1 C2 1_555 1_555
C2 C3 1_555 1_555
C3 H1 1_555 1_555
C4 O1 1_555 1_555
C5 C4 1_555 1_555
H2 C5 1_555 1_555
H3 C5 1_555 1_555
H4 C5 1_555 1_555
C6 C4 1_555 1_555
H5 C6 1_555 1_555
H6 C6 1_555 1_555
H7 C6 1_555 1_555
C7 C3 1_555 1_555
H8 C7 1_555 1_555
H9 C7 1_555 1_555
C8 C7 1_555 1_555
H10 C8 1_555 1_555
H11 C8 1_555 1_555
C9 C2 1_555 1_555
H12 C9 1_555 1_555
C10 C9 1_555 1_555
C11 C10 1_555 1_555
H13 C11 1_555 1_555
H14 C11 1_555 1_555
C12 C11 1_555 1_555
H15 C12 1_555 1_555
C13 C12 1_555 1_555
C14 C13 1_555 1_555
H16 C14 1_555 1_555
H17 C14 1_555 1_555
C15 C14 1_555 1_555
C16 O4 1_555 1_555
C17 O3 1_555 1_555
H18 C17 1_555 1_555
C18 C10 1_555 1_555
H19 C18 1_555 1_555
C19 C13 1_555 1_555
H20 C19 1_555 1_555
H21 C19 1_555 1_555
H22 C19 1_555 1_555
C20 C16 1_555 1_555
H23 C20 1_555 1_555
H24 C20 1_555 1_555
C21 C20 1_555 1_555
H25 C21 1_555 1_555
H26 C21 1_555 1_555
H27 C21 1_555 1_555
I2 C29 1_555 1_555
O6 C22 1_555 1_555
O7 C22 1_555 1_555
O8 C37 1_555 1_555
O9 C36 1_555 1_555
O10 C36 1_555 1_555
C22 C23 1_555 1_555
C23 C24 1_555 1_555
C24 H28 1_555 1_555
C25 O6 1_555 1_555
C26 C25 1_555 1_555
H29 C26 1_555 1_555
H30 C26 1_555 1_555
H31 C26 1_555 1_555
C27 C25 1_555 1_555
H32 C27 1_555 1_555
H33 C27 1_555 1_555
H34 C27 1_555 1_555
C28 C24 1_555 1_555
H35 C28 1_555 1_555
H36 C28 1_555 1_555
C29 C28 1_555 1_555
H37 C29 1_555 1_555
H38 C29 1_555 1_555
C30 C23 1_555 1_555
H39 C30 1_555 1_555
C31 C30 1_555 1_555
C32 C31 1_555 1_555
H40 C32 1_555 1_555
H41 C32 1_555 1_555
C33 C32 1_555 1_555
H42 C33 1_555 1_555
C34 C33 1_555 1_555
C35 C34 1_555 1_555
H43 C35 1_555 1_555
H44 C35 1_555 1_555
C36 C35 1_555 1_555
C37 O9 1_555 1_555
C38 O8 1_555 1_555
H45 C38 1_555 1_555
C39 C31 1_555 1_555
H46 C39 1_555 1_555
C40 C34 1_555 1_555
H47 C40 1_555 1_555
H48 C40 1_555 1_555
H49 C40 1_555 1_555
C41 C37 1_555 1_555
H50 C41 1_555 1_555
H51 C41 1_555 1_555
C42 C41 1_555 1_555
H52 C42 1_555 1_555
H53 C42 1_555 1_555
H54 C42 1_555 1_555
C3 C4 1_555 1_555
C12 C17 1_555 1_555
C13 C16 1_555 1_555
C17 C18 1_555 1_555
C24 C25 1_555 1_555
C33 C38 1_555 1_555
C34 C37 1_555 1_555
C38 C39 1_555 1_555

#END
