
#######################################################################
#
#                 Cambridge Crystallographic Data Centre
#                                CCDC 
#
#######################################################################
#
# If this CIF has been generated from an entry in the Cambridge 
# Structural Database, then it will include bibliographic, chemical, 
# crystal, experimental, refinement or atomic coordinate data resulting 
# from the CCDC's data processing and validation procedures.
#
#######################################################################

data_JOZCAE
_chemical_formula_moiety         'C24 H21 I1 N2 O3 S1'
_chemical_name_systematic        
2-((4-Iodophenyl)sulfonyl)-6,6-diphenylhexahydro-3H-pyrrolo[1,2-c]imidazol-3-one
_symmetry_cell_setting           orthorhombic
_symmetry_space_group_name_H-M   'P 21 21 21'
_symmetry_Int_Tables_number      19
_space_group_name_Hall           'P 2ac 2ab'
loop_
_symmetry_equiv_pos_site_id
_symmetry_equiv_pos_as_xyz
1 x,y,z
2 1/2-x,-y,1/2+z
3 1/2+x,1/2-y,-z
4 -x,1/2+y,1/2-z
_cell_length_a                   10.7482(3)
_cell_length_b                   12.7229(5)
_cell_length_c                   16.1520(7)
_cell_angle_alpha                90
_cell_angle_beta                 90
_cell_angle_gamma                90
_cell_volume                     2208.76
_exptl_crystal_colour            colorless
_exptl_crystal_description       block
_cell_formula_units_Z            4
loop_
_atom_site_label
_atom_site_type_symbol
_atom_site_fract_x
_atom_site_fract_y
_atom_site_fract_z
I1 I 0.78789(3) 0.60153(3) 0.21868(2)
S1 S 1.29100(9) 0.81229(6) 0.38243(5)
C1 C 1.1545(3) 0.7592(3) 0.3402(2)
N1 N 1.3775(3) 0.7125(2) 0.41235(18)
C2 C 1.2516(4) 0.4115(3) 0.2155(2)
H1 H 1.2679 0.4021 0.1595
C3 C 1.4345(3) 0.4053(3) 0.4176(2)
C4 C 1.0399(4) 0.7032(3) 0.2216(3)
H2 H 1.0336 0.6940 0.1647
C5 C 1.3475(4) 0.4044(3) 0.2725(2)
H3 H 1.4277 0.3899 0.2541
O1 O 1.2463(2) 0.6501(2) 0.51688(15)
C6 C 0.9431(3) 0.6730(3) 0.2719(3)
C7 C 0.9495(3) 0.6864(3) 0.3565(3)
H4 H 0.8833 0.6667 0.3901
C8 C 1.2056(4) 0.4381(3) 0.3806(2)
H5 H 1.1881 0.4467 0.4366
C9 C 1.5479(4) 0.2366(3) 0.3828(3)
H6 H 1.5975 0.2746 0.3464
C10 C 1.0560(3) 0.7297(3) 0.3906(2)
H7 H 1.0615 0.7392 0.4476
N2 N 1.4332(3) 0.5710(2) 0.48326(18)
C11 C 1.4678(4) 0.6601(3) 0.3574(3)
H8 H 1.5286 0.7094 0.3358
H9 H 1.4267 0.6249 0.3117
C12 C 1.4581(4) 0.2889(3) 0.4287(2)
C13 C 1.3261(3) 0.4185(3) 0.3566(2)
C14 C 1.3417(4) 0.6431(3) 0.4767(2)
C15 C 1.1102(4) 0.4455(3) 0.3241(3)
H10 H 1.0297 0.4595 0.3422
C16 C 1.1452(4) 0.7467(3) 0.2545(2)
H11 H 1.2100 0.7677 0.2201
C17 C 1.4027(5) 0.1202(4) 0.4863(3)
H12 H 1.3524 0.0811 0.5216
C18 C 1.3851(4) 0.2283(3) 0.4803(3)
H13 H 1.3231 0.2602 0.5116
C19 C 1.4098(4) 0.4601(3) 0.5020(2)
H14 H 1.3247 0.4492 0.5202
H15 H 1.4662 0.4345 0.5444
C20 C 1.1330(5) 0.4323(3) 0.2414(3)
H16 H 1.0685 0.4375 0.2032
O2 O 1.3606(2) 0.85963(19) 0.31694(16)
O3 O 1.2606(2) 0.87094(19) 0.45463(16)
C21 C 1.5272(3) 0.5815(3) 0.4170(2)
H17 H 1.6042 0.6109 0.4398
C22 C 1.5494(3) 0.4683(3) 0.3890(3)
H18 H 1.6244 0.4404 0.4141
H19 H 1.5579 0.4649 0.3293
C23 C 1.4923(5) 0.0711(3) 0.4415(3)
H20 H 1.5036 -0.0011 0.4459
C24 C 1.5657(5) 0.1293(3) 0.3898(3)
H21 H 1.6279 0.0966 0.3591
loop_
_geom_bond_atom_site_label_1
_geom_bond_atom_site_label_2
_geom_bond_site_symmetry_1
_geom_bond_site_symmetry_2
I1 C6 1_555 1_555
S1 C1 1_555 1_555
C1 C10 1_555 1_555
N1 S1 1_555 1_555
C2 H1 1_555 1_555
C3 C12 1_555 1_555
C4 H2 1_555 1_555
C5 C2 1_555 1_555
H3 C5 1_555 1_555
O1 C14 1_555 1_555
C6 C4 1_555 1_555
C7 C6 1_555 1_555
H4 C7 1_555 1_555
C8 H5 1_555 1_555
C9 H6 1_555 1_555
C10 C7 1_555 1_555
H7 C10 1_555 1_555
N2 C14 1_555 1_555
C11 N1 1_555 1_555
H8 C11 1_555 1_555
H9 C11 1_555 1_555
C12 C9 1_555 1_555
C13 C3 1_555 1_555
C14 N1 1_555 1_555
C15 C8 1_555 1_555
H10 C15 1_555 1_555
C16 C1 1_555 1_555
H11 C16 1_555 1_555
C17 H12 1_555 1_555
C18 C12 1_555 1_555
H13 C18 1_555 1_555
C19 C3 1_555 1_555
H14 C19 1_555 1_555
H15 C19 1_555 1_555
C20 C2 1_555 1_555
H16 C20 1_555 1_555
O2 S1 1_555 1_555
O3 S1 1_555 1_555
C21 N2 1_555 1_555
H17 C21 1_555 1_555
C22 C3 1_555 1_555
H18 C22 1_555 1_555
H19 C22 1_555 1_555
C23 C17 1_555 1_555
H20 C23 1_555 1_555
C24 C9 1_555 1_555
H21 C24 1_555 1_555
C4 C16 1_555 1_555
C5 C13 1_555 1_555
C8 C13 1_555 1_555
N2 C19 1_555 1_555
C11 C21 1_555 1_555
C15 C20 1_555 1_555
C17 C18 1_555 1_555
C21 C22 1_555 1_555
C23 C24 1_555 1_555

#END
