
#######################################################################
#
#                 Cambridge Crystallographic Data Centre
#                                CCDC 
#
#######################################################################
#
# If this CIF has been generated from an entry in the Cambridge 
# Structural Database, then it will include bibliographic, chemical, 
# crystal, experimental, refinement or atomic coordinate data resulting 
# from the CCDC's data processing and validation procedures.
#
#######################################################################

data_JOZDUZ
_chemical_formula_moiety         'C21 H25 N3 O1'
_chemical_name_systematic        
5-(2-(1-(Pyrrolidin-1-yl)cyclohexyl)-1,3-oxazol-5-yl)-1H-indole
_symmetry_cell_setting           monoclinic
_symmetry_space_group_name_H-M   'P 21/c'
_symmetry_Int_Tables_number      14
_space_group_name_Hall           '-P 2ybc'
loop_
_symmetry_equiv_pos_site_id
_symmetry_equiv_pos_as_xyz
1 x,y,z
2 -x,1/2+y,1/2-z
3 -x,-y,-z
4 x,1/2-y,1/2+z
_cell_length_a                   8.0229(6)
_cell_length_b                   21.8416(18)
_cell_length_c                   10.0255(8)
_cell_angle_alpha                90
_cell_angle_beta                 100.013(3)
_cell_angle_gamma                90
_cell_volume                     1730.04
_exptl_crystal_colour            colorless
_exptl_crystal_description       plate
_cell_formula_units_Z            4
_exptl_crystal_recrystallization_method cyclohexane/dichloromethane
loop_
_atom_site_label
_atom_site_type_symbol
_atom_site_fract_x
_atom_site_fract_y
_atom_site_fract_z
N1 N 0.47564(12) 0.42137(5) 0.69623(11)
N2 N -0.29045(13) 0.30309(5) 1.21504(11)
H1 H -0.3781 0.2790 1.2160
O1 O 0.34740(10) 0.35014(4) 0.93605(9)
N3 N 0.45987(13) 0.28088(5) 0.81595(11)
C1 C -0.16074(15) 0.29253(6) 1.14449(13)
C2 C -0.04728(15) 0.34254(6) 1.16859(13)
C3 C 0.09460(15) 0.34385(6) 1.10383(13)
H2 H 0.1719 0.3771 1.1182
C4 C 0.12043(15) 0.29612(6) 1.01893(13)
C5 C 0.26063(15) 0.29594(6) 0.94415(13)
C6 C 0.46483(15) 0.33724(6) 0.85650(13)
C7 C 0.56858(14) 0.38941(6) 0.81640(13)
C8 C 0.73387(15) 0.36315(6) 0.78343(13)
H3 H 0.7946 0.3410 0.8635
H4 H 0.7073 0.3335 0.7081
C9 C 0.84801(16) 0.41329(6) 0.74369(14)
H5 H 0.9549 0.3949 0.7261
H6 H 0.7914 0.4333 0.6593
C10 C 0.88742(16) 0.46092(6) 0.85532(14)
H7 H 0.9524 0.4949 0.8236
H8 H 0.9587 0.4421 0.9354
C11 C 0.23475(19) 0.46932(8) 0.56992(16)
H9 H 0.2465 0.5132 0.5483
H10 H 0.1128 0.4593 0.5589
C12 C 0.32309(16) 0.45569(6) 0.71364(14)
H11 H 0.3536 0.4941 0.7647
H12 H 0.2498 0.4308 0.7624
C13 C 0.42664(18) 0.38475(7) 0.57396(14)
H13 H 0.3588 0.3487 0.5917
H14 H 0.5272 0.3706 0.5377
C14 C 0.3217(2) 0.42911(8) 0.47725(16)
H15 H 0.2373 0.4070 0.4106
H16 H 0.3946 0.4540 0.4281
C15 C 0.72634(15) 0.48646(6) 0.89624(14)
H17 H 0.6632 0.5106 0.8203
H18 H 0.7570 0.5142 0.9748
C16 C 0.61326(15) 0.43504(6) 0.93329(13)
H19 H 0.5079 0.4528 0.9555
H20 H 0.6725 0.4133 1.0145
C17 C 0.32969(15) 0.25412(6) 0.87128(13)
H21 H 0.2949 0.2126 0.8594
C18 C -0.11435(16) 0.38307(6) 1.25817(13)
H22 H -0.0662 0.4207 1.2933
C19 C -0.26045(16) 0.35732(6) 1.28346(14)
H23 H -0.3313 0.3745 1.3404
C20 C -0.13513(16) 0.24461(6) 1.05891(13)
H24 H -0.2126 0.2114 1.0433
C21 C 0.00518(16) 0.24653(6) 0.99762(13)
H25 H 0.0253 0.2139 0.9398
loop_
_geom_bond_atom_site_label_1
_geom_bond_atom_site_label_2
_geom_bond_site_symmetry_1
_geom_bond_site_symmetry_2
N1 C7 1_555 1_555
N2 H1 1_555 1_555
O1 C5 1_555 1_555
N3 C6 1_555 1_555
C1 N2 1_555 1_555
C2 C1 1_555 1_555
C3 C2 1_555 1_555
H2 C3 1_555 1_555
C4 C3 1_555 1_555
C5 C4 1_555 1_555
C6 O1 1_555 1_555
C7 C6 1_555 1_555
C8 C7 1_555 1_555
H3 C8 1_555 1_555
H4 C8 1_555 1_555
C9 C8 1_555 1_555
H5 C9 1_555 1_555
H6 C9 1_555 1_555
C10 C9 1_555 1_555
H7 C10 1_555 1_555
H8 C10 1_555 1_555
C11 H9 1_555 1_555
H10 C11 1_555 1_555
C12 N1 1_555 1_555
H11 C12 1_555 1_555
H12 C12 1_555 1_555
C13 N1 1_555 1_555
H13 C13 1_555 1_555
H14 C13 1_555 1_555
C14 C11 1_555 1_555
H15 C14 1_555 1_555
H16 C14 1_555 1_555
C15 C10 1_555 1_555
H17 C15 1_555 1_555
H18 C15 1_555 1_555
C16 C7 1_555 1_555
H19 C16 1_555 1_555
H20 C16 1_555 1_555
C17 N3 1_555 1_555
H21 C17 1_555 1_555
C18 C2 1_555 1_555
H22 C18 1_555 1_555
C19 N2 1_555 1_555
H23 C19 1_555 1_555
C20 C1 1_555 1_555
H24 C20 1_555 1_555
C21 C4 1_555 1_555
H25 C21 1_555 1_555
C5 C17 1_555 1_555
C11 C12 1_555 1_555
C13 C14 1_555 1_555
C15 C16 1_555 1_555
C18 C19 1_555 1_555
C20 C21 1_555 1_555

#END
