
#######################################################################
#
#                 Cambridge Crystallographic Data Centre
#                                CCDC 
#
#######################################################################
#
# If this CIF has been generated from an entry in the Cambridge 
# Structural Database, then it will include bibliographic, chemical, 
# crystal, experimental, refinement or atomic coordinate data resulting 
# from the CCDC's data processing and validation procedures.
#
#######################################################################

data_JUBBEP
_chemical_formula_moiety         'C32 H29 N1 O3 S1'
_chemical_name_systematic        
(4-Methylphenyl)((1aR,2R,3S,7bS)-2-(4-methylphenyl)-1-((4-methylphenyl)sulfonyl)-1a,2,3,7b-tetrahydro-1H-naphtho[1,2-b]aziren-3-yl)methanone
_symmetry_cell_setting           orthorhombic
_symmetry_space_group_name_H-M   'P 21 21 21'
_symmetry_Int_Tables_number      19
_space_group_name_Hall           'P 2ac 2ab'
loop_
_symmetry_equiv_pos_site_id
_symmetry_equiv_pos_as_xyz
1 x,y,z
2 1/2-x,-y,1/2+z
3 1/2+x,1/2-y,-z
4 -x,1/2+y,1/2-z
_cell_length_a                   8.33405(8)
_cell_length_b                   11.10306(9)
_cell_length_c                   27.9805(3)
_cell_angle_alpha                90
_cell_angle_beta                 90
_cell_angle_gamma                90
_cell_volume                     2589.13
_exptl_crystal_colour            colorless
_exptl_crystal_description       block
_cell_formula_units_Z            4
loop_
_atom_site_label
_atom_site_type_symbol
_atom_site_fract_x
_atom_site_fract_y
_atom_site_fract_z
S1 S 0.05170(4) 0.34193(3) 0.347650(11)
O1 O -0.02706(12) 0.22827(9) 0.35410(4)
O2 O -0.02170(12) 0.44690(9) 0.36844(4)
O3 O 0.54593(12) 0.16226(8) 0.33248(3)
N1 N 0.24047(13) 0.32581(10) 0.36663(4)
C1 C 0.30787(16) 0.42848(12) 0.39439(5)
H1 H 0.2372 0.5006 0.3981
C2 C 0.25754(16) 0.31780(12) 0.42026(5)
H2 H 0.1565 0.3231 0.4394
C3 C 0.38148(17) 0.23278(12) 0.43745(5)
C4 C 0.34077(17) 0.14600(12) 0.47137(5)
H3 H 0.2342 0.1422 0.4834
C5 C 0.45558(19) 0.06497(12) 0.48771(5)
H4 H 0.4273 0.0043 0.5101
C6 C 0.61199(18) 0.07366(12) 0.47096(5)
H5 H 0.6908 0.0182 0.4818
C7 C 0.65412(16) 0.16303(12) 0.43848(5)
H6 H 0.7622 0.1696 0.4280
C8 C 0.53947(17) 0.24306(11) 0.42110(4)
C9 C 0.58265(15) 0.33404(12) 0.38269(5)
H7 H 0.6981 0.3555 0.3875
C10 C 0.48474(15) 0.45276(11) 0.38724(5)
H8 H 0.4978 0.4992 0.3569
C11 C 0.54208(16) 0.53176(11) 0.42831(5)
C12 C 0.62581(18) 0.63843(12) 0.41970(5)
H9 H 0.6523 0.6599 0.3878
C13 C 0.6710(2) 0.71358(13) 0.45694(5)
H10 H 0.7280 0.7856 0.4500
C14 C 0.63460(17) 0.68576(12) 0.50428(5)
C15 C 0.55283(16) 0.57858(11) 0.51303(5)
H11 H 0.5277 0.5566 0.5450
C16 C 0.50763(15) 0.50343(11) 0.47582(5)
H12 H 0.4519 0.4309 0.4828
C17 C 0.6811(2) 0.76845(14) 0.54477(5)
H13 H 0.6071 0.8370 0.5458
H14 H 0.7907 0.7977 0.5397
H15 H 0.6757 0.7243 0.5751
C18 C 0.57011(16) 0.27014(11) 0.33370(5)
C19 C 0.60026(15) 0.33534(12) 0.28781(5)
C20 C 0.55235(19) 0.27750(12) 0.24571(5)
H16 H 0.4938 0.2042 0.2475
C21 C 0.58931(17) 0.32590(13) 0.20152(5)
H17 H 0.5547 0.2855 0.1734
C22 C 0.67634(17) 0.43280(13) 0.19733(5)
C23 C 0.72164(17) 0.49116(12) 0.23943(5)
H18 H 0.7792 0.5649 0.2375
C24 C 0.68427(16) 0.44362(12) 0.28405(5)
H19 H 0.7162 0.4852 0.3122
C25 C 0.72409(19) 0.48114(14) 0.14914(6)
H20 H 0.7574 0.5654 0.1523
H21 H 0.6325 0.4760 0.1272
H22 H 0.8134 0.4335 0.1364
C26 C 0.08777(16) 0.36669(12) 0.28662(5)
C27 C 0.03969(17) 0.28089(12) 0.25384(5)
H23 H -0.0141 0.2100 0.2640
C28 C 0.07153(18) 0.30032(13) 0.20568(5)
H24 H 0.0384 0.2422 0.1828
C29 C 0.15113(18) 0.40357(13) 0.19043(5)
C30 C 0.19885(18) 0.48872(13) 0.22471(5)
H25 H 0.2539 0.5594 0.2148
C31 C 0.16667(17) 0.47099(13) 0.27253(5)
H26 H 0.1981 0.5293 0.2955
C32 C 0.1855(2) 0.42623(16) 0.13855(5)
H27 H 0.1431 0.3595 0.1194
H28 H 0.3017 0.4323 0.1337
H29 H 0.1342 0.5016 0.1286
loop_
_geom_bond_atom_site_label_1
_geom_bond_atom_site_label_2
_geom_bond_site_symmetry_1
_geom_bond_site_symmetry_2
S1 O1 1_555 1_555
O2 S1 1_555 1_555
O3 C18 1_555 1_555
N1 S1 1_555 1_555
C1 N1 1_555 1_555
H1 C1 1_555 1_555
C2 N1 1_555 1_555
H2 C2 1_555 1_555
C3 C2 1_555 1_555
C4 C3 1_555 1_555
H3 C4 1_555 1_555
C5 C4 1_555 1_555
H4 C5 1_555 1_555
C6 C5 1_555 1_555
H5 C6 1_555 1_555
C7 C6 1_555 1_555
H6 C7 1_555 1_555
C8 C3 1_555 1_555
C9 C8 1_555 1_555
H7 C9 1_555 1_555
C10 C1 1_555 1_555
H8 C10 1_555 1_555
C11 C10 1_555 1_555
C12 C11 1_555 1_555
H9 C12 1_555 1_555
C13 C12 1_555 1_555
H10 C13 1_555 1_555
C14 C13 1_555 1_555
C15 C14 1_555 1_555
H11 C15 1_555 1_555
C16 C11 1_555 1_555
H12 C16 1_555 1_555
C17 C14 1_555 1_555
H13 C17 1_555 1_555
H14 C17 1_555 1_555
H15 C17 1_555 1_555
C18 C9 1_555 1_555
C19 C18 1_555 1_555
C20 C19 1_555 1_555
H16 C20 1_555 1_555
C21 C20 1_555 1_555
H17 C21 1_555 1_555
C22 C21 1_555 1_555
C23 C22 1_555 1_555
H18 C23 1_555 1_555
C24 C19 1_555 1_555
H19 C24 1_555 1_555
C25 C22 1_555 1_555
H20 C25 1_555 1_555
H21 C25 1_555 1_555
H22 C25 1_555 1_555
C26 S1 1_555 1_555
C27 C26 1_555 1_555
H23 C27 1_555 1_555
C28 C27 1_555 1_555
H24 C28 1_555 1_555
C29 C28 1_555 1_555
C30 C29 1_555 1_555
H25 C30 1_555 1_555
C31 C26 1_555 1_555
H26 C31 1_555 1_555
C32 C29 1_555 1_555
H27 C32 1_555 1_555
H28 C32 1_555 1_555
H29 C32 1_555 1_555
C1 C2 1_555 1_555
C7 C8 1_555 1_555
C9 C10 1_555 1_555
C15 C16 1_555 1_555
C23 C24 1_555 1_555
C30 C31 1_555 1_555

#END
