
#######################################################################
#
#                 Cambridge Crystallographic Data Centre
#                                CCDC 
#
#######################################################################
#
# If this CIF has been generated from an entry in the Cambridge 
# Structural Database, then it will include bibliographic, chemical, 
# crystal, experimental, refinement or atomic coordinate data resulting 
# from the CCDC's data processing and validation procedures.
#
#######################################################################

data_JUBWEK
_chemical_formula_moiety         'C19 H16 N2 O1'
_chemical_name_systematic        
4-(4-Methylphenyl)-6-phenyl-4,5-dihydropyrrolo[3,2-b]pyrrol-2(1H)-one
_symmetry_cell_setting           monoclinic
_symmetry_space_group_name_H-M   'P 21/c'
_symmetry_Int_Tables_number      14
_space_group_name_Hall           '-P 2ybc'
loop_
_symmetry_equiv_pos_site_id
_symmetry_equiv_pos_as_xyz
1 x,y,z
2 -x,1/2+y,1/2-z
3 -x,-y,-z
4 x,1/2-y,1/2+z
_cell_length_a                   10.6970(10)
_cell_length_b                   12.8787(13)
_cell_length_c                   12.8484(18)
_cell_angle_alpha                90
_cell_angle_beta                 120.842(3)
_cell_angle_gamma                90
_cell_volume                     1519.73
_exptl_crystal_colour            white
_exptl_crystal_description       block
_cell_formula_units_Z            4
loop_
_atom_site_label
_atom_site_type_symbol
_atom_site_fract_x
_atom_site_fract_y
_atom_site_fract_z
N1 N 0.0260(5) 0.5566(4) 0.1374(4)
H1 H 0.0761 0.5588 0.1023
N2 N -0.0225(5) 0.6268(4) 0.3734(4)
O1 O -0.1620(4) 0.4517(3) -0.0004(3)
C1 C -0.1039(7) 0.5029(5) 0.0946(5)
C2 C -0.1546(6) 0.5166(4) 0.1800(5)
H2 H -0.2376 0.4889 0.1753
C3 C -0.0534(6) 0.5788(5) 0.2672(5)
C4 C 0.0630(6) 0.6065(5) 0.2456(5)
C5 C 0.1615(6) 0.6697(4) 0.3292(5)
C6 C 0.1125(5) 0.6866(4) 0.4206(4)
H3 H 0.1857 0.6617 0.5002
H4 H 0.0950 0.7597 0.4265
C7 C 0.2890(6) 0.7199(5) 0.3399(5)
C8 C 0.3676(6) 0.7931(5) 0.4307(5)
H5 H 0.3378 0.8090 0.4853
C9 C 0.4881(6) 0.8425(5) 0.4416(6)
H6 H 0.5392 0.8899 0.5040
C10 C 0.5337(7) 0.8221(5) 0.3603(6)
H7 H 0.6143 0.8556 0.3666
C11 C 0.4566(7) 0.7514(6) 0.2708(5)
H8 H 0.4860 0.7376 0.2154
C12 C 0.3366(6) 0.6991(5) 0.2586(5)
H9 H 0.2880 0.6506 0.1970
C13 C -0.1000(6) 0.6199(5) 0.4360(5)
C14 C -0.0517(6) 0.6724(5) 0.5425(5)
H10 H 0.0314 0.7134 0.5738
C15 C -0.1273(7) 0.6642(5) 0.6039(5)
H11 H -0.0924 0.6991 0.6770
C16 C -0.2506(6) 0.6068(5) 0.5598(6)
C17 C -0.2952(6) 0.5538(5) 0.4543(6)
H12 H -0.3778 0.5122 0.4233
C18 C -0.2215(6) 0.5599(5) 0.3918(5)
H13 H -0.2549 0.5231 0.3200
C19 C -0.3319(5) 0.6012(4) 0.6290(4)
H14 H -0.3362 0.5304 0.6502
H15 H -0.4290 0.6275 0.5788
H16 H -0.2816 0.6423 0.7014
loop_
_geom_bond_atom_site_label_1
_geom_bond_atom_site_label_2
_geom_bond_site_symmetry_1
_geom_bond_site_symmetry_2
N1 H1 1_555 1_555
N2 C3 1_555 1_555
O1 C1 1_555 1_555
C1 N1 1_555 1_555
C2 C1 1_555 1_555
H2 C2 1_555 1_555
C3 C2 1_555 1_555
C4 N1 1_555 1_555
C5 C4 1_555 1_555
C6 N2 1_555 1_555
H3 C6 1_555 1_555
H4 C6 1_555 1_555
C7 C5 1_555 1_555
C8 C7 1_555 1_555
H5 C8 1_555 1_555
C9 C8 1_555 1_555
H6 C9 1_555 1_555
C10 C9 1_555 1_555
H7 C10 1_555 1_555
C11 C10 1_555 1_555
H8 C11 1_555 1_555
C12 C7 1_555 1_555
H9 C12 1_555 1_555
C13 N2 1_555 1_555
C14 C13 1_555 1_555
H10 C14 1_555 1_555
C15 C14 1_555 1_555
H11 C15 1_555 1_555
C16 C15 1_555 1_555
C17 C16 1_555 1_555
H12 C17 1_555 1_555
C18 C13 1_555 1_555
H13 C18 1_555 1_555
C19 C16 1_555 1_555
H14 C19 1_555 1_555
H15 C19 1_555 1_555
H16 C19 1_555 1_555
C3 C4 1_555 1_555
C5 C6 1_555 1_555
C11 C12 1_555 1_555
C17 C18 1_555 1_555

#END
