
#######################################################################
#
#                 Cambridge Crystallographic Data Centre
#                                CCDC 
#
#######################################################################
#
# If this CIF has been generated from an entry in the Cambridge 
# Structural Database, then it will include bibliographic, chemical, 
# crystal, experimental, refinement or atomic coordinate data resulting 
# from the CCDC's data processing and validation procedures.
#
#######################################################################

data_JUCQOP
_chemical_formula_moiety         'C18 H19 N1 O3'
_chemical_name_systematic        
3-(4-(Dimethylamino)phenyl)-3-hydroxy-1-(2-hydroxy-5-methylphenyl)prop-2-en-1-one
_symmetry_cell_setting           monoclinic
_symmetry_space_group_name_H-M   'P 21/n'
_symmetry_Int_Tables_number      14
_space_group_name_Hall           '-P 2yn'
loop_
_symmetry_equiv_pos_site_id
_symmetry_equiv_pos_as_xyz
1 x,y,z
2 1/2-x,1/2+y,1/2-z
3 -x,-y,-z
4 1/2+x,1/2-y,1/2+z
_cell_length_a                   10.858(2)
_cell_length_b                   13.738(3)
_cell_length_c                   10.878(2)
_cell_angle_alpha                90
_cell_angle_beta                 106.98(3)
_cell_angle_gamma                90
_cell_volume                     1551.9
_exptl_crystal_colour            yellow
_exptl_crystal_description       block
_cell_formula_units_Z            4
loop_
_atom_site_label
_atom_site_type_symbol
_atom_site_fract_x
_atom_site_fract_y
_atom_site_fract_z
O1 O 0.22107(16) 0.14323(13) 0.01954(19)
H1 H 0.2952 0.0994 0.0211
O2 O 0.45101(16) 0.07712(13) 0.0948(2)
O3 O 0.67804(16) 0.01742(13) 0.1492(2)
H2 H 0.5805 0.0278 0.1082
N1 N 1.24099(19) 0.10366(16) 0.5047(3)
C1 C 0.2586(2) 0.20203(17) 0.1247(3)
C2 C 0.1653(3) 0.2601(2) 0.1511(3)
H3 H 0.079(3) 0.2510(18) 0.097(3)
C3 C 0.1959(2) 0.3240(2) 0.2519(3)
H4 H 0.127(3) 0.3607(17) 0.272(3)
C4 C 0.3232(2) 0.33363(17) 0.3316(3)
C5 C 0.4141(2) 0.27469(17) 0.3055(3)
H5 H 0.501(2) 0.2803(16) 0.361(2)
C6 C 0.3866(2) 0.20689(16) 0.2047(2)
C7 C 0.4862(2) 0.14203(17) 0.1825(3)
C8 C 0.6166(2) 0.14850(19) 0.2553(3)
H6 H 0.640(2) 0.2006(17) 0.321(3)
C9 C 0.7104(2) 0.08783(17) 0.2367(2)
C10 C 0.8467(2) 0.09291(17) 0.3056(2)
C11 C 0.9337(3) 0.0255(2) 0.2828(3)
H7 H 0.896(3) -0.025(2) 0.221(3)
C12 C 1.0626(2) 0.02926(19) 0.3466(3)
H8 H 1.117(2) -0.0194(18) 0.325(3)
C13 C 1.1126(2) 0.10037(18) 0.4385(3)
C14 C 1.0263(2) 0.1694(2) 0.4610(3)
H9 H 1.060(3) 0.219(2) 0.526(3)
C15 C 0.8969(2) 0.1649(2) 0.3960(3)
H10 H 0.840(3) 0.215(2) 0.418(3)
C16 C 1.3322(3) 0.0392(2) 0.4720(3)
H11 H 1.4171 0.0516 0.5281
H12 H 1.3311 0.0505 0.3846
H13 H 1.3090 -0.0272 0.4816
C17 C 1.2894(3) 0.1698(2) 0.6109(4)
H14 H 1.3809 0.1619 0.6452
H15 H 1.2491 0.1560 0.6766
H16 H 1.2704 0.2355 0.5815
C18 C 0.3576(3) 0.4066(2) 0.4387(3)
H17 H 0.3545 0.4709 0.4081
H18 H 0.2849 0.4081 0.4853
H19 H 0.4294 0.3925 0.5023
loop_
_geom_bond_atom_site_label_1
_geom_bond_atom_site_label_2
_geom_bond_site_symmetry_1
_geom_bond_site_symmetry_2
O1 H1 1_555 1_555
O2 C7 1_555 1_555
O3 H2 1_555 1_555
N1 C13 1_555 1_555
C1 O1 1_555 1_555
C2 C1 1_555 1_555
H3 C2 1_555 1_555
C3 C2 1_555 1_555
H4 C3 1_555 1_555
C4 C3 1_555 1_555
C5 C4 1_555 1_555
H5 C5 1_555 1_555
C6 C1 1_555 1_555
C7 C6 1_555 1_555
C8 C7 1_555 1_555
H6 C8 1_555 1_555
C9 O3 1_555 1_555
C10 C9 1_555 1_555
C11 C10 1_555 1_555
H7 C11 1_555 1_555
C12 C11 1_555 1_555
H8 C12 1_555 1_555
C13 C12 1_555 1_555
C14 C13 1_555 1_555
H9 C14 1_555 1_555
C15 C10 1_555 1_555
H10 C15 1_555 1_555
C16 N1 1_555 1_555
H11 C16 1_555 1_555
H12 C16 1_555 1_555
H13 C16 1_555 1_555
C17 N1 1_555 1_555
H14 C17 1_555 1_555
H15 C17 1_555 1_555
H16 C17 1_555 1_555
C18 C4 1_555 1_555
H17 C18 1_555 1_555
H18 C18 1_555 1_555
H19 C18 1_555 1_555
C5 C6 1_555 1_555
C8 C9 1_555 1_555
C14 C15 1_555 1_555

#END
