
#######################################################################
#
#                 Cambridge Crystallographic Data Centre
#                                CCDC 
#
#######################################################################
#
# If this CIF has been generated from an entry in the Cambridge 
# Structural Database, then it will include bibliographic, chemical, 
# crystal, experimental, refinement or atomic coordinate data resulting 
# from the CCDC's data processing and validation procedures.
#
#######################################################################

data_JUCQUV
_chemical_formula_moiety         'C18 H19 N1 O4'
_chemical_name_systematic        
3-(4-(Dimethylamino)phenyl)-3-hydroxy-1-(2-hydroxy-5-methoxyphenyl)prop-2-en-1-one
_symmetry_cell_setting           monoclinic
_symmetry_space_group_name_H-M   'P 21/c'
_symmetry_Int_Tables_number      14
_space_group_name_Hall           '-P 2ybc'
loop_
_symmetry_equiv_pos_site_id
_symmetry_equiv_pos_as_xyz
1 x,y,z
2 -x,1/2+y,1/2-z
3 -x,-y,-z
4 x,1/2-y,1/2+z
_cell_length_a                   11.793(2)
_cell_length_b                   11.504(2)
_cell_length_c                   13.028(3)
_cell_angle_alpha                90
_cell_angle_beta                 114.25(3)
_cell_angle_gamma                90
_cell_volume                     1611.51
_exptl_crystal_colour            yellow
_exptl_crystal_description       block
_cell_formula_units_Z            4
loop_
_atom_site_label
_atom_site_type_symbol
_atom_site_fract_x
_atom_site_fract_y
_atom_site_fract_z
O1 O 0.25874(16) 0.65677(14) -0.00189(12)
H1 H 0.1799 0.6193 -0.0013
O2 O 0.10775(16) 0.58032(15) 0.07777(13)
O3 O -0.05835(18) 0.52349(17) 0.13938(14)
H2 H -0.0159 0.5317 0.0884
O4 O 0.5415(2) 0.82176(19) 0.42490(15)
N1 N -0.2353(2) 0.58958(19) 0.53267(19)
C1 C 0.3266(2) 0.69561(18) 0.10481(18)
C2 C 0.4440(2) 0.7404(2) 0.1284(2)
H3 H 0.4741 0.7411 0.0726
C3 C 0.5159(3) 0.7834(2) 0.2328(2)
H4 H 0.5943 0.8134 0.2474
C4 C 0.4734(2) 0.7828(2) 0.3168(2)
C5 C 0.3580(2) 0.73783(18) 0.29527(18)
H5 H 0.3294 0.7381 0.3520
C6 C 0.2826(2) 0.69169(16) 0.19035(17)
C7 C 0.1615(2) 0.63745(18) 0.16930(17)
C8 C 0.1073(2) 0.64497(19) 0.24734(18)
H6 H 0.1457 0.6904 0.3115
C9 C -0.0012(2) 0.58681(19) 0.23135(18)
C10 C -0.0617(2) 0.58871(18) 0.30824(18)
C11 C -0.1683(2) 0.5229(2) 0.2875(2)
H7 H -0.2009 0.4774 0.2229
C12 C -0.2262(2) 0.5235(2) 0.3593(2)
H8 H -0.2973 0.4787 0.3423
C13 C -0.1808(2) 0.59035(19) 0.4584(2)
C14 C -0.0737(2) 0.6570(2) 0.4786(2)
H9 H -0.0405 0.7027 0.5430
C15 C -0.0176(2) 0.6559(2) 0.4058(2)
H10 H 0.0526 0.7017 0.4217
C16 C -0.3503(3) 0.5282(3) 0.5071(3)
H11 H -0.3732 0.4869 0.4374
H12 H -0.4145 0.5828 0.5004
H13 H -0.3398 0.4741 0.5664
C17 C -0.1868(3) 0.6570(3) 0.6346(2)
H14 H -0.1101 0.6930 0.6427
H15 H -0.1721 0.6072 0.6979
H16 H -0.2458 0.7160 0.6313
C18 C 0.6352(4) 0.9004(3) 0.4414(3)
H17 H 0.6752 0.9200 0.5199
H18 H 0.6009 0.9693 0.3983
H19 H 0.6949 0.8667 0.4176
loop_
_geom_bond_atom_site_label_1
_geom_bond_atom_site_label_2
_geom_bond_site_symmetry_1
_geom_bond_site_symmetry_2
O1 H1 1_555 1_555
O2 C7 1_555 1_555
O3 H2 1_555 1_555
O4 C4 1_555 1_555
N1 C13 1_555 1_555
C1 O1 1_555 1_555
C2 C1 1_555 1_555
H3 C2 1_555 1_555
C3 C2 1_555 1_555
H4 C3 1_555 1_555
C4 C3 1_555 1_555
C5 C4 1_555 1_555
H5 C5 1_555 1_555
C6 C1 1_555 1_555
C7 C6 1_555 1_555
C8 C7 1_555 1_555
H6 C8 1_555 1_555
C9 O3 1_555 1_555
C10 C9 1_555 1_555
C11 C10 1_555 1_555
H7 C11 1_555 1_555
C12 C11 1_555 1_555
H8 C12 1_555 1_555
C13 C12 1_555 1_555
C14 C13 1_555 1_555
H9 C14 1_555 1_555
C15 C10 1_555 1_555
H10 C15 1_555 1_555
C16 N1 1_555 1_555
H11 C16 1_555 1_555
H12 C16 1_555 1_555
H13 C16 1_555 1_555
C17 N1 1_555 1_555
H14 C17 1_555 1_555
H15 C17 1_555 1_555
H16 C17 1_555 1_555
C18 O4 1_555 1_555
H17 C18 1_555 1_555
H18 C18 1_555 1_555
H19 C18 1_555 1_555
C5 C6 1_555 1_555
C8 C9 1_555 1_555
C14 C15 1_555 1_555

#END
