
#######################################################################
#
#                 Cambridge Crystallographic Data Centre
#                                CCDC 
#
#######################################################################
#
# If this CIF has been generated from an entry in the Cambridge 
# Structural Database, then it will include bibliographic, chemical, 
# crystal, experimental, refinement or atomic coordinate data resulting 
# from the CCDC's data processing and validation procedures.
#
#######################################################################

data_JUCTIM
_chemical_compound_source        'Usnea longissima'
_chemical_formula_moiety         'C18 H17 N1 O6'
_chemical_name_systematic        
6-Acetyl-2-(1-aminoethylidene)-7,9-dihydroxy-8,9b-dimethyldibenzo[b,d]furan-1,3(2H,9bH)-dione
_chemical_properties_biological  'human hepatoma HepG2 inhibitory activity'
_symmetry_cell_setting           monoclinic
_symmetry_space_group_name_H-M   'C 2'
_symmetry_Int_Tables_number      5
_space_group_name_Hall           'C 2y'
loop_
_symmetry_equiv_pos_site_id
_symmetry_equiv_pos_as_xyz
1 x,y,z
2 -x,y,-z
3 1/2+x,1/2+y,z
4 1/2-x,1/2+y,-z
_cell_length_a                   17.138(2)
_cell_length_b                   9.7525(5)
_cell_length_c                   13.831(2)
_cell_angle_alpha                90
_cell_angle_beta                 134.45(3)
_cell_angle_gamma                90
_cell_volume                     1650.23
_cell_formula_units_Z            4
loop_
_atom_site_label
_atom_site_type_symbol
_atom_site_fract_x
_atom_site_fract_y
_atom_site_fract_z
O1 O -0.16068(9) -0.83309(13) -0.45331(12)
O2 O 0.53365(9) -0.85055(14) -0.12433(11)
H1 H 0.5406 -0.9362 -0.1182
O3 O 0.48489(10) -1.09833(14) -0.13776(13)
C1 C 0.36809(13) -0.92153(19) -0.18782(16)
O4 O 0.19293(9) -0.95635(13) -0.25346(12)
O5 O 0.30447(9) -0.50144(14) -0.20633(12)
H2 H 0.2408 -0.4896 -0.2405
N1 N -0.21505(11) -0.57480(17) -0.49423(14)
H3 H -0.2325 -0.6602 -0.4958
H4 H -0.2626 -0.5086 -0.5255
C2 C -0.03970(14) -0.65264(18) -0.39406(16)
O6 O 0.10123(9) -0.50087(13) -0.32347(12)
C3 C 0.43951(12) -0.81602(19) -0.16072(15)
C4 C 0.32276(17) -1.1774(2) -0.2046(2)
H5 H 0.3530 -1.2666 -0.1972
H6 H 0.2503 -1.1660 -0.2966
H7 H 0.3166 -1.1729 -0.1394
C5 C 0.39679(13) -1.06570(19) -0.17507(16)
C6 C 0.11337(13) -0.86905(17) -0.28795(16)
C7 C 0.49172(13) -0.5693(2) -0.14799(18)
H8 H 0.4479 -0.4960 -0.2151
H9 H 0.5385 -0.6108 -0.1569
H10 H 0.5374 -0.5310 -0.0568
C8 C 0.01013(14) -0.90502(19) -0.36012(18)
H11 H -0.0122 -0.9982 -0.3834
C9 C 0.25187(13) -0.73567(18) -0.22691(15)
C10 C 0.41693(13) -0.67691(19) -0.17132(15)
C11 C -0.06841(13) -0.79642(19) -0.40287(16)
C12 C 0.27428(13) -0.87205(18) -0.22276(15)
C13 C -0.11852(13) -0.54638(17) -0.44553(16)
C14 C -0.09646(14) -0.39760(18) -0.44624(18)
H12 H -0.0334 -0.3674 -0.3534
H13 H -0.1607 -0.3432 -0.4842
H14 H -0.0809 -0.3851 -0.5017
C15 C 0.20162(13) -0.70770(19) -0.09476(16)
H15 H 0.2575 -0.7771 -0.0329
H16 H 0.1414 -0.7176 -0.1008
H17 H 0.2337 -0.6161 -0.0606
C16 C 0.15709(12) -0.72740(17) -0.23890(15)
C17 C 0.32303(13) -0.63661(17) -0.20201(16)
C18 C 0.06980(13) -0.61698(18) -0.32698(17)
loop_
_geom_bond_atom_site_label_1
_geom_bond_atom_site_label_2
_geom_bond_site_symmetry_1
_geom_bond_site_symmetry_2
O1 C11 1_555 1_555
O2 H1 1_555 1_555
O3 C5 1_555 1_555
C1 C3 1_555 1_555
O4 C6 1_555 1_555
O5 H2 1_555 1_555
N1 H3 1_555 1_555
H4 N1 1_555 1_555
C2 C11 1_555 1_555
O6 C18 1_555 1_555
C3 O2 1_555 1_555
C4 H5 1_555 1_555
H6 C4 1_555 1_555
H7 C4 1_555 1_555
C5 C1 1_555 1_555
C6 C8 1_555 1_555
C7 H8 1_555 1_555
H9 C7 1_555 1_555
H10 C7 1_555 1_555
C8 H11 1_555 1_555
C9 C12 1_555 1_555
C10 C3 1_555 1_555
C11 C8 1_555 1_555
C12 C1 1_555 1_555
C13 N1 1_555 1_555
C14 C13 1_555 1_555
H12 C14 1_555 1_555
H13 C14 1_555 1_555
H14 C14 1_555 1_555
C15 H15 1_555 1_555
H16 C15 1_555 1_555
H17 C15 1_555 1_555
C16 C6 1_555 1_555
C17 O5 1_555 1_555
C18 C2 1_555 1_555
O4 C12 1_555 1_555
C2 C13 1_555 1_555
C4 C5 1_555 1_555
C7 C10 1_555 1_555
C9 C16 1_555 1_555
C9 C17 1_555 1_555
C10 C17 1_555 1_555
C15 C16 1_555 1_555
C16 C18 1_555 1_555

#END
