
#######################################################################
#
#                 Cambridge Crystallographic Data Centre
#                                CCDC 
#
#######################################################################
#
# If this CIF has been generated from an entry in the Cambridge 
# Structural Database, then it will include bibliographic, chemical, 
# crystal, experimental, refinement or atomic coordinate data resulting 
# from the CCDC's data processing and validation procedures.
#
#######################################################################

data_JUDQEE
_chemical_formula_moiety         'C33 H14 B1 F15 N2'
_chemical_name_systematic        
'(4-(2-Dimethylaminophenyl)ethynyl)pyridyl tris(pentafluorophenyl)borane'
_symmetry_cell_setting           monoclinic
_symmetry_space_group_name_H-M   'P 21/c'
_symmetry_Int_Tables_number      14
_space_group_name_Hall           '-P 2ybc'
loop_
_symmetry_equiv_pos_site_id
_symmetry_equiv_pos_as_xyz
1 x,y,z
2 -x,1/2+y,1/2-z
3 -x,-y,-z
4 x,1/2-y,1/2+z
_cell_length_a                   9.833(2)
_cell_length_b                   10.717(1)
_cell_length_c                   28.421(4)
_cell_angle_alpha                90
_cell_angle_beta                 91.96(1)
_cell_angle_gamma                90
_cell_volume                     2993.26
_exptl_crystal_colour            orange-red
_chemical_melting_point          156.0-158deg.C(dec.)
_cell_formula_units_Z            4
_exptl_crystal_recrystallization_method toluene/hexanes
loop_
_atom_site_label
_atom_site_type_symbol
_atom_site_fract_x
_atom_site_fract_y
_atom_site_fract_z
F1 F 0.2926(1) 0.2044(1) 0.17411(4)
F2 F 0.1273(2) 0.0162(1) 0.19300(5)
F3 F 0.1228(2) -0.1921(1) 0.13902(6)
F4 F 0.2861(2) -0.2070(1) 0.06427(5)
F5 F 0.4426(2) -0.0161(1) 0.04203(5)
F6 F 0.5779(2) 0.1610(2) 0.18563(5)
F7 F 0.6459(2) 0.3183(2) 0.25480(5)
F8 F 0.6270(2) 0.5698(2) 0.24054(6)
F9 F 0.5424(2) 0.6569(2) 0.15442(6)
F10 F 0.4745(2) 0.5032(1) 0.08582(5)
F11 F 0.6384(2) -0.0232(2) 0.11415(5)
F12 F 0.8895(2) -0.0716(2) 0.09085(7)
F13 F 1.0316(2) 0.0922(2) 0.03820(7)
F14 F 0.9082(2) 0.3064(2) 0.00761(6)
F15 F 0.6595(1) 0.3617(1) 0.03382(5)
N1 N 0.3915(2) 0.2740(2) 0.04902(6)
N2 N -0.1498(2) 0.6689(2) -0.26043(7)
C1 C 0.4160(2) 0.2503(2) 0.00376(7)
C2 C 0.3346(2) 0.2951(2) -0.03255(8)
C3 C 0.2226(2) 0.3683(2) -0.02299(8)
C4 C 0.1958(2) 0.3894(2) 0.02411(8)
C5 C 0.2793(2) 0.3403(2) 0.05857(7)
C6 C 0.1417(2) 0.4223(2) -0.06060(8)
C7 C 0.0824(2) 0.4687(2) -0.09346(9)
C8 C 0.0168(2) 0.5254(2) -0.13373(8)
C9 C 0.0790(3) 0.6220(3) -0.15729(9)
C10 C 0.0242(3) 0.6719(3) -0.19817(9)
C11 C -0.0970(2) 0.6242(2) -0.21832(8)
C12 C -0.1627(3) 0.5309(2) -0.19337(7)
C13 C -0.1071(3) 0.4833(2) -0.15217(8)
C14 C -0.0859(3) 0.7718(3) -0.2837(1)
C15 C -0.2756(4) 0.6199(3) -0.2795(1)
C16 C 0.3832(2) 0.1016(2) 0.10847(7)
C17 C 0.2966(2) 0.1035(2) 0.14588(8)
C18 C 0.2097(3) 0.0079(2) 0.15637(8)
C19 C 0.2064(3) -0.0974(2) 0.12908(9)
C20 C 0.2877(3) -0.1038(2) 0.09136(9)
C21 C 0.3697(3) -0.0052(2) 0.08154(8)
C22 C 0.5153(2) 0.3218(2) 0.13254(8)
C23 C 0.5644(3) 0.2843(3) 0.17685(8)
C24 C 0.6011(3) 0.3639(3) 0.21294(9)
C25 C 0.5926(3) 0.4905(3) 0.2056(1)
C26 C 0.5493(3) 0.5337(3) 0.1627(1)
C27 C 0.5137(3) 0.4500(2) 0.12734(8)
C28 C 0.6330(2) 0.1720(2) 0.07460(8)
C29 C 0.7012(3) 0.0641(3) 0.08797(8)
C30 C 0.8323(3) 0.0366(3) 0.0763(1)
C31 C 0.9030(3) 0.1189(3) 0.0496(1)
C32 C 0.8423(3) 0.2265(3) 0.0349(1)
C33 C 0.7120(2) 0.2514(2) 0.04839(8)
B1 B 0.4818(3) 0.2155(3) 0.09237(9)
H1 H 0.4934 0.1998 -0.0032
H2 H 0.3549 0.2769 -0.0646
H3 H 0.1182 0.4385 0.0319
H4 H 0.2579 0.3530 0.0909
H5 H 0.1636 0.6543 -0.1446
H6 H 0.0687 0.7400 -0.2132
H7 H -0.2486 0.4998 -0.2054
H8 H -0.1546 0.4192 -0.1358
H9 H 0.0067 0.7517 -0.2902
H10 H -0.0886 0.8433 -0.2634
H11 H -0.1352 0.7918 -0.3124
H12 H -0.2983 0.6613 -0.3087
H13 H -0.3473 0.6331 -0.2580
H14 H -0.2675 0.5319 -0.2852
loop_
_geom_bond_atom_site_label_1
_geom_bond_atom_site_label_2
_geom_bond_site_symmetry_1
_geom_bond_site_symmetry_2
F1 C17 1_555 1_555
F2 C18 1_555 1_555
F3 C19 1_555 1_555
F4 C20 1_555 1_555
F5 C21 1_555 1_555
F6 C23 1_555 1_555
F7 C24 1_555 1_555
F8 C25 1_555 1_555
F9 C26 1_555 1_555
F10 C27 1_555 1_555
F11 C29 1_555 1_555
F12 C30 1_555 1_555
F13 C31 1_555 1_555
F14 C32 1_555 1_555
F15 C33 1_555 1_555
N1 C1 1_555 1_555
N2 C11 1_555 1_555
C1 C2 1_555 1_555
C2 C3 1_555 1_555
C3 C4 1_555 1_555
C4 C5 1_555 1_555
C5 N1 1_555 1_555
C6 C3 1_555 1_555
C7 C6 1_555 1_555
C8 C7 1_555 1_555
C9 C8 1_555 1_555
C10 C9 1_555 1_555
C11 C10 1_555 1_555
C12 C11 1_555 1_555
C13 C8 1_555 1_555
C14 N2 1_555 1_555
C15 N2 1_555 1_555
C16 C17 1_555 1_555
C17 C18 1_555 1_555
C18 C19 1_555 1_555
C19 C20 1_555 1_555
C20 C21 1_555 1_555
C21 C16 1_555 1_555
C22 C23 1_555 1_555
C23 C24 1_555 1_555
C24 C25 1_555 1_555
C25 C26 1_555 1_555
C26 C27 1_555 1_555
C27 C22 1_555 1_555
C28 C29 1_555 1_555
C29 C30 1_555 1_555
C30 C31 1_555 1_555
C31 C32 1_555 1_555
C32 C33 1_555 1_555
C33 C28 1_555 1_555
B1 N1 1_555 1_555
H1 C1 1_555 1_555
H2 C2 1_555 1_555
H3 C4 1_555 1_555
H4 C5 1_555 1_555
H5 C9 1_555 1_555
H6 C10 1_555 1_555
H7 C12 1_555 1_555
H8 C13 1_555 1_555
H9 C14 1_555 1_555
H10 C14 1_555 1_555
H11 C14 1_555 1_555
H12 C15 1_555 1_555
H13 C15 1_555 1_555
H14 C15 1_555 1_555
C12 C13 1_555 1_555
C16 B1 1_555 1_555
C22 B1 1_555 1_555
C28 B1 1_555 1_555

#END
