
#######################################################################
#
#                 Cambridge Crystallographic Data Centre
#                                CCDC 
#
#######################################################################
#
# If this CIF has been generated from an entry in the Cambridge 
# Structural Database, then it will include bibliographic, chemical, 
# crystal, experimental, refinement or atomic coordinate data resulting 
# from the CCDC's data processing and validation procedures.
#
#######################################################################

data_JUDTEJ
_chemical_formula_moiety         'C22 H24 Br1 N1 O1'
_chemical_name_systematic        
N-(4-Bromophenyl)-1-(2-phenylcyclopropyl)cyclohexanecarboxamide
_symmetry_cell_setting           monoclinic
_symmetry_space_group_name_H-M   'P 21/c'
_symmetry_Int_Tables_number      14
_space_group_name_Hall           '-P 2ybc'
loop_
_symmetry_equiv_pos_site_id
_symmetry_equiv_pos_as_xyz
1 x,y,z
2 -x,1/2+y,1/2-z
3 -x,-y,-z
4 x,1/2-y,1/2+z
_cell_length_a                   9.4517(12)
_cell_length_b                   23.239(3)
_cell_length_c                   9.9650(12)
_cell_angle_alpha                90
_cell_angle_beta                 116.056(3)
_cell_angle_gamma                90
_cell_volume                     1966.34
_exptl_crystal_colour            colorless
_exptl_crystal_description       prismatic
_cell_formula_units_Z            4
loop_
_atom_site_label
_atom_site_type_symbol
_atom_site_fract_x
_atom_site_fract_y
_atom_site_fract_z
Br1 Br 1.13744(6) 0.03598(2) 0.83817(9)
N1 N 0.7256(4) 0.24274(13) 0.7888(4)
O1 O 0.6780(4) 0.27722(11) 0.5619(3)
C1 C 0.6481(4) 0.27740(14) 0.6691(4)
C2 C 0.5101(4) 0.31263(16) 0.6681(4)
C3 C 0.4799(6) 0.36460(18) 0.5647(5)
H1 H 0.4718 0.3514 0.4693
H2 H 0.3796 0.3817 0.5473
C4 C 0.6056(7) 0.41003(19) 0.6252(6)
H3 H 0.5757 0.4426 0.5573
H4 H 0.7036 0.3946 0.6313
C5 C 0.6300(7) 0.4301(2) 0.7780(6)
H5 H 0.5360 0.4496 0.7703
H6 H 0.7168 0.4572 0.8172
C6 C 0.6656(6) 0.3794(2) 0.8830(5)
H7 H 0.7644 0.3620 0.8969
H8 H 0.6770 0.3927 0.9795
C7 C 0.5361(5) 0.33520(18) 0.8221(5)
H9 H 0.4390 0.3522 0.8142
H10 H 0.5624 0.3032 0.8913
C8 C 0.3676(5) 0.27249(19) 0.5877(6)
H11 H 0.3402 0.2683 0.4813
C9 C 0.2270(5) 0.2712(2) 0.6170(5)
H12 H 0.1244 0.2683 0.5320
H13 H 0.2297 0.2936 0.7002
C10 C 0.3387(6) 0.2197(2) 0.6519(6)
H14 H 0.4083 0.2135 0.7580
C11 C 0.2917(6) 0.1666(2) 0.5576(6)
C12 C 0.3944(7) 0.1217(3) 0.6062(6)
H15 H 0.4892 0.1266 0.6910
C13 C 0.3642(9) 0.0705(3) 0.5364(8)
H16 H 0.4378 0.0410 0.5732
C14 C 0.2275(10) 0.0616(3) 0.4130(10)
H17 H 0.2065 0.0260 0.3652
C15 C 0.1223(8) 0.1045(3) 0.3603(8)
H18 H 0.0281 0.0983 0.2757
C16 C 0.1512(7) 0.1577(2) 0.4287(6)
H19 H 0.0780 0.1872 0.3897
C17 C 0.8260(4) 0.19636(16) 0.7980(4)
C18 C 0.9212(5) 0.19544(19) 0.7253(5)
H20 H 0.9231 0.2266 0.6677
C19 C 1.0141(5) 0.1473(2) 0.7393(5)
H21 H 1.0780 0.1462 0.6901
C20 C 1.0122(5) 0.10192(19) 0.8243(5)
C21 C 0.9218(5) 0.10296(18) 0.8992(6)
H22 H 0.9229 0.0721 0.9590
C22 C 0.8287(5) 0.15004(18) 0.8855(5)
H23 H 0.7663 0.1507 0.9363
H24 H 0.691(4) 0.2411(15) 0.852(4)
loop_
_geom_bond_atom_site_label_1
_geom_bond_atom_site_label_2
_geom_bond_site_symmetry_1
_geom_bond_site_symmetry_2
Br1 C20 1_555 1_555
N1 C1 1_555 1_555
O1 C1 1_555 1_555
C1 C2 1_555 1_555
C2 C3 1_555 1_555
C3 H1 1_555 1_555
H2 C3 1_555 1_555
C4 C3 1_555 1_555
H3 C4 1_555 1_555
H4 C4 1_555 1_555
C5 C4 1_555 1_555
H5 C5 1_555 1_555
H6 C5 1_555 1_555
C6 C5 1_555 1_555
H7 C6 1_555 1_555
H8 C6 1_555 1_555
C7 C2 1_555 1_555
H9 C7 1_555 1_555
H10 C7 1_555 1_555
C8 C2 1_555 1_555
H11 C8 1_555 1_555
C9 C8 1_555 1_555
H12 C9 1_555 1_555
H13 C9 1_555 1_555
C10 C8 1_555 1_555
H14 C10 1_555 1_555
C11 C10 1_555 1_555
C12 C11 1_555 1_555
H15 C12 1_555 1_555
C13 C12 1_555 1_555
H16 C13 1_555 1_555
C14 C13 1_555 1_555
H17 C14 1_555 1_555
C15 C14 1_555 1_555
H18 C15 1_555 1_555
C16 C11 1_555 1_555
H19 C16 1_555 1_555
C17 N1 1_555 1_555
C18 C17 1_555 1_555
H20 C18 1_555 1_555
C19 C18 1_555 1_555
H21 C19 1_555 1_555
C20 C19 1_555 1_555
C21 C20 1_555 1_555
H22 C21 1_555 1_555
C22 C17 1_555 1_555
H23 C22 1_555 1_555
H24 N1 1_555 1_555
C6 C7 1_555 1_555
C9 C10 1_555 1_555
C15 C16 1_555 1_555
C21 C22 1_555 1_555

#END
