
#######################################################################
#
#                 Cambridge Crystallographic Data Centre
#                                CCDC 
#
#######################################################################
#
# If this CIF has been generated from an entry in the Cambridge 
# Structural Database, then it will include bibliographic, chemical, 
# crystal, experimental, refinement or atomic coordinate data resulting 
# from the CCDC's data processing and validation procedures.
#
#######################################################################

data_JUFCAQ
_chemical_name_common            
2-((1-(4-bromobenzyl)-1H-1,2,3-triazol-4-yl)methoxy)naphthalene-1,4-dione
_chemical_formula_moiety         'C20 H14 Br1 N3 O3'
_chemical_name_systematic        
2-((1-(4-bromobenzyl)-1H-1,2,3-triazol-4-yl)methoxy)-1,4-naphthoquinone
_symmetry_cell_setting           monoclinic
_symmetry_space_group_name_H-M   'P 21/c'
_symmetry_Int_Tables_number      14
_space_group_name_Hall           '-P 2ybc'
loop_
_symmetry_equiv_pos_site_id
_symmetry_equiv_pos_as_xyz
1 x,y,z
2 -x,1/2+y,1/2-z
3 -x,-y,-z
4 x,1/2-y,1/2+z
_cell_length_a                   16.4383(5)
_cell_length_b                   13.1684(4)
_cell_length_c                   8.2255(2)
_cell_angle_alpha                90
_cell_angle_beta                 90.8270(10)
_cell_angle_gamma                90
_cell_volume                     1780.36
_exptl_crystal_colour            colorless
_exptl_crystal_description       block
_cell_formula_units_Z            4
loop_
_atom_site_label
_atom_site_type_symbol
_atom_site_fract_x
_atom_site_fract_y
_atom_site_fract_z
C1 C 0.32817(17) 0.37072(18) -0.0249(3)
H1 H 0.3479 0.4340 0.0067
C2 C 0.25884(18) 0.3640(2) -0.1206(3)
H2 H 0.2316 0.4228 -0.1523
C3 C 0.22993(16) 0.2711(2) -0.1692(3)
H3 H 0.1838 0.2673 -0.2356
C4 C 0.26908(16) 0.1828(2) -0.1200(3)
H4 H 0.2488 0.1200 -0.1526
C5 C 0.33842(14) 0.18813(17) -0.0221(3)
C6 C 0.37999(16) 0.09419(17) 0.0346(3)
C7 C 0.45299(16) 0.10389(17) 0.1362(3)
H5 H 0.4800 0.0455 0.1704
C8 C 0.48218(15) 0.19489(17) 0.1817(3)
C9 C 0.44255(15) 0.29198(17) 0.1280(3)
C10 C 0.36854(15) 0.28351(16) 0.0242(3)
C11 C 0.59314(15) 0.12805(17) 0.3357(3)
H6 H 0.6115 0.0873 0.2450
H7 H 0.5606 0.0856 0.4060
C12 C 0.66411(15) 0.17104(17) 0.4275(3)
C13 C 0.68666(15) 0.26868(17) 0.4532(3)
H8 H 0.6606 0.3271 0.4158
C14 C 0.80758(16) 0.3445(2) 0.6053(3)
H9 H 0.8309 0.3247 0.7095
H10 H 0.7750 0.4050 0.6222
C15 C 0.87538(15) 0.36917(18) 0.4899(3)
C16 C 0.93614(18) 0.2990(2) 0.4612(4)
H11 H 0.9345 0.2359 0.5116
C17 C 0.99932(18) 0.3220(2) 0.3580(4)
H12 H 1.0402 0.2747 0.3394
C18 C 1.00118(16) 0.4152(2) 0.2834(3)
C19 C 0.94163(17) 0.4853(2) 0.3095(3)
H13 H 0.9433 0.5482 0.2583
C20 C 0.87863(17) 0.4614(2) 0.4131(3)
H14 H 0.8378 0.5089 0.4308
N1 N 0.71901(16) 0.11000(16) 0.5018(3)
N2 N 0.77460(15) 0.16630(17) 0.5737(3)
N3 N 0.75486(12) 0.26276(15) 0.5446(2)
O1 O 0.47077(12) 0.37334(12) 0.1695(2)
O2 O 0.35311(12) 0.01052(13) -0.0017(2)
O3 O 0.54657(11) 0.21317(12) 0.2785(2)
Br1 Br 1.08857(2) 0.44786(3) 0.14393(4)
loop_
_geom_bond_atom_site_label_1
_geom_bond_atom_site_label_2
_geom_bond_site_symmetry_1
_geom_bond_site_symmetry_2
C1 H1 1_555 1_555
C2 C1 1_555 1_555
H2 C2 1_555 1_555
C3 C2 1_555 1_555
H3 C3 1_555 1_555
C4 C3 1_555 1_555
H4 C4 1_555 1_555
C5 C4 1_555 1_555
C6 C5 1_555 1_555
C7 C6 1_555 1_555
H5 C7 1_555 1_555
C8 C7 1_555 1_555
C9 C8 1_555 1_555
C10 C1 1_555 1_555
C11 H6 1_555 1_555
H7 C11 1_555 1_555
C12 C11 1_555 1_555
C13 C12 1_555 1_555
H8 C13 1_555 1_555
C14 H9 1_555 1_555
H10 C14 1_555 1_555
C15 C14 1_555 1_555
C16 C15 1_555 1_555
H11 C16 1_555 1_555
C17 C16 1_555 1_555
H12 C17 1_555 1_555
C18 C17 1_555 1_555
C19 C18 1_555 1_555
H13 C19 1_555 1_555
C20 C15 1_555 1_555
H14 C20 1_555 1_555
N1 C12 1_555 1_555
N2 N1 1_555 1_555
N3 C13 1_555 1_555
O1 C9 1_555 1_555
O2 C6 1_555 1_555
O3 C8 1_555 1_555
Br1 C18 1_555 1_555
C5 C10 1_555 1_555
C9 C10 1_555 1_555
C11 O3 1_555 1_555
C14 N3 1_555 1_555
C19 C20 1_555 1_555
N2 N3 1_555 1_555

#END
