
#######################################################################
#
#                 Cambridge Crystallographic Data Centre
#                                CCDC 
#
#######################################################################
#
# If this CIF has been generated from an entry in the Cambridge 
# Structural Database, then it will include bibliographic, chemical, 
# crystal, experimental, refinement or atomic coordinate data resulting 
# from the CCDC's data processing and validation procedures.
#
#######################################################################

data_JUFPEH
_chemical_formula_moiety         'C20 H20 F3 N1 O1'
_chemical_name_systematic        
3-Butyl-1-(4-methoxyphenyl)-6-(trifluoromethyl)indolizine
_symmetry_cell_setting           triclinic
_symmetry_space_group_name_H-M   'P -1'
_symmetry_Int_Tables_number      2
_space_group_name_Hall           '-P 1'
loop_
_symmetry_equiv_pos_site_id
_symmetry_equiv_pos_as_xyz
1 x,y,z
2 -x,-y,-z
_cell_length_a                   10.018(7)
_cell_length_b                   10.446(7)
_cell_length_c                   35.11(2)
_cell_angle_alpha                83.334(18)
_cell_angle_beta                 86.119(17)
_cell_angle_gamma                76.252(17)
_cell_volume                     3541.74
_exptl_crystal_colour            green
_exptl_crystal_description       prismatic
_cell_formula_units_Z            8
loop_
_atom_site_label
_atom_site_type_symbol
_atom_site_fract_x
_atom_site_fract_y
_atom_site_fract_z
N1 N 0.2534(3) 0.5786(3) 0.36523(10)
O1 O 0.2632(3) 0.8375(3) 0.56519(9)
F1 F 0.4249(5) 0.3067(4) 0.29164(14)
F2 F 0.6118(4) 0.2914(4) 0.31435(13)
F3 F 0.4812(5) 0.1743(3) 0.33858(13)
C1 C 0.3109(4) 0.4860(4) 0.34086(13)
H1 H 0.2720 0.4875 0.3175
C2 C 0.4250(5) 0.3916(4) 0.35084(15)
C3 C 0.4825(5) 0.3878(4) 0.38661(16)
H2 H 0.5597 0.3218 0.3935
C4 C 0.4266(4) 0.4790(4) 0.41100(13)
H3 H 0.4668 0.4764 0.4343
C5 C 0.3074(4) 0.5785(4) 0.40139(12)
C6 C 0.2207(4) 0.6784(4) 0.41984(11)
C7 C 0.1166(4) 0.7397(4) 0.39380(12)
H4 H 0.0444 0.8113 0.3985
C8 C 0.1372(4) 0.6791(4) 0.36123(12)
C9 C 0.0629(4) 0.7070(4) 0.32480(12)
H5 H 0.0278 0.6306 0.3210
H6 H 0.1274 0.7193 0.3036
C10 C -0.0552(4) 0.8277(4) 0.32394(11)
H7 H -0.0221 0.9031 0.3297
H8 H -0.1241 0.8126 0.3436
C11 C -0.1204(5) 0.8590(5) 0.28533(13)
H9 H -0.0505 0.8719 0.2657
H10 H -0.1540 0.7836 0.2799
C12 C -0.2366(5) 0.9793(5) 0.28296(16)
H11 H -0.3024 0.9710 0.3037
H12 H -0.2801 0.9876 0.2590
H13 H -0.2019 1.0565 0.2846
C13 C 0.4856(6) 0.2933(6) 0.3240(2)
C14 C 0.2304(4) 0.7171(4) 0.45800(11)
C15 C 0.3556(4) 0.7089(4) 0.47394(12)
H14 H 0.4366 0.6766 0.4600
C16 C 0.3632(4) 0.7473(4) 0.50959(13)
H15 H 0.4488 0.7397 0.5195
C17 C 0.2462(4) 0.7967(4) 0.53080(12)
C18 C 0.1199(4) 0.8064(4) 0.51582(13)
H16 H 0.0393 0.8407 0.5296
C19 C 0.1140(4) 0.7646(4) 0.48003(12)
H17 H 0.0284 0.7687 0.4706
C20 C 0.1441(5) 0.9093(5) 0.58497(14)
H18 H 0.0999 0.9853 0.5685
H19 H 0.1713 0.9377 0.6077
H20 H 0.0814 0.8531 0.5920
N2 N 0.7414(3) 0.5843(3) 0.36234(9)
O2 O 0.7675(3) 0.8055(3) 0.56620(9)
F4 F 0.9147(4) 0.3271(4) 0.28517(12)
F5 F 1.1042(3) 0.3130(3) 0.30700(11)
F6 F 0.9797(4) 0.1867(3) 0.32987(10)
C21 C 0.7978(4) 0.4953(4) 0.33703(12)
H21 H 0.7563 0.4978 0.3140
C22 C 0.9142(5) 0.4031(4) 0.34550(14)
C23 C 0.9759(4) 0.3986(4) 0.38079(14)
H22 H 1.0574 0.3367 0.3864
C24 C 0.9162(4) 0.4846(4) 0.40662(13)
H23 H 0.9569 0.4804 0.4299
C25 C 0.7953(4) 0.5787(4) 0.39867(12)
C26 C 0.7122(4) 0.6809(4) 0.41747(11)
C27 C 0.6100(4) 0.7482(4) 0.39143(12)
H24 H 0.5412 0.8224 0.3962
C28 C 0.6272(4) 0.6886(4) 0.35844(12)
C29 C 0.5497(4) 0.7188(4) 0.32263(12)
H25 H 0.5134 0.6431 0.3190
H26 H 0.6131 0.7309 0.3011
C30 C 0.4337(4) 0.8389(4) 0.32221(12)
H27 H 0.4674 0.9134 0.3284
H28 H 0.3644 0.8235 0.3417
C31 C 0.3689(5) 0.8728(5) 0.28338(14)
H29 H 0.4394 0.8857 0.2639
H30 H 0.3345 0.7983 0.2775
C32 C 0.2568(6) 0.9907(6) 0.28125(18)
H31 H 0.1892 0.9812 0.3014
H32 H 0.2154 1.0019 0.2569
H33 H 0.2920 1.0668 0.2841
C33 C 0.9771(6) 0.3070(5) 0.31828(17)
C34 C 0.7272(4) 0.7158(4) 0.45573(11)
C35 C 0.7743(4) 0.6187(4) 0.48552(12)
H34 H 0.7984 0.5300 0.4809
C36 C 0.7856(4) 0.6527(4) 0.52165(12)
H35 H 0.8175 0.5863 0.5411
C37 C 0.7506(4) 0.7836(4) 0.52978(13)
C38 C 0.7005(4) 0.8791(4) 0.50090(12)
H36 H 0.6728 0.9674 0.5057
C39 C 0.6914(4) 0.8442(4) 0.46472(12)
H37 H 0.6593 0.9111 0.4454
C40 C 0.7173(6) 0.9343(5) 0.57681(15)
H38 H 0.7577 0.9951 0.5599
H39 H 0.7407 0.9370 0.6027
H40 H 0.6191 0.9587 0.5750
N3 N 0.4700(3) 0.9189(3) 0.13596(10)
O3 O 0.7100(3) 0.6785(4) -0.06621(9)
F7 F 0.4731(5) 1.1831(4) 0.21156(14)
F8 F 0.4878(5) 1.3201(4) 0.16653(13)
F9 F 0.6648(4) 1.1950(4) 0.19001(14)
C41 C 0.4702(4) 1.0098(4) 0.16105(13)
H41 H 0.4204 1.0069 0.1843
C42 C 0.5421(5) 1.1030(5) 0.15206(16)
C43 C 0.6189(5) 1.1046(4) 0.11640(16)
H42 H 0.6721 1.1667 0.1106
C44 C 0.6167(4) 1.0194(4) 0.09102(13)
H43 H 0.6652 1.0246 0.0676
C45 C 0.5405(4) 0.9216(4) 0.09989(13)
C46 C 0.5170(4) 0.8201(4) 0.08110(12)
C47 C 0.4321(4) 0.7564(4) 0.10689(12)
H44 H 0.4001 0.6836 0.1020
C48 C 0.4040(4) 0.8168(4) 0.13993(12)
C49 C 0.3247(4) 0.7873(4) 0.17604(12)
H45 H 0.3842 0.7750 0.1975
H46 H 0.2493 0.8632 0.1797
C50 C 0.2680(4) 0.6677(4) 0.17640(12)
H47 H 0.3417 0.5931 0.1704
H48 H 0.2009 0.6831 0.1567
C51 C 0.2002(5) 0.6343(5) 0.21510(15)
H49 H 0.2669 0.6226 0.2347
H50 H 0.1254 0.7088 0.2206
C52 C 0.1469(7) 0.5173(6) 0.21752(19)
H51 H 0.0943 0.5204 0.1954
H52 H 0.0890 0.5130 0.2403
H53 H 0.2219 0.4403 0.2184
C53 C 0.5428(7) 1.2010(6) 0.1785(2)
C54 C 0.5657(4) 0.7837(4) 0.04280(12)
C55 C 0.6586(5) 0.7094(5) -0.03021(13)
C56 C 0.6980(9) 0.7924(8) 0.0256(2)
H54 H 0.7560 0.8267 0.0390
C57 C 0.7424(9) 0.7523(8) -0.0098(3)
H55 H 0.8306 0.7552 -0.0194
C58 C 0.5301(9) 0.6961(9) -0.0160(3)
H56 H 0.4742 0.6630 -0.0305
C59 C 0.4867(8) 0.7321(8) 0.0193(3)
H57 H 0.4003 0.7222 0.0287
C60 C 0.661(5) 0.599(2) -0.0890(6)
H58 H 0.6303 0.5299 -0.0728
H59 H 0.7331 0.5602 -0.1064
H60 H 0.5852 0.6522 -0.1033
N4 N -0.0314(3) 0.9182(3) 0.13644(10)
O4 O 0.2093(3) 0.6774(4) -0.06538(9)
F10 F -0.0262(5) 1.1820(4) 0.21215(13)
F11 F -0.0162(5) 1.3198(4) 0.16673(12)
F12 F 0.1645(4) 1.1992(4) 0.18927(13)
C66 C -0.0324(4) 1.0094(4) 0.16142(13)
H68 H -0.0834 1.0074 0.1845
C67 C 0.0407(5) 1.1020(5) 0.15249(16)
C68 C 0.1160(5) 1.1058(4) 0.11687(16)
H69 H 0.1669 1.1696 0.1108
C69 C 0.1148(4) 1.0184(4) 0.09174(14)
H70 H 0.1642 1.0230 0.0684
C70 C 0.0396(4) 0.9202(4) 0.10037(13)
C71 C 0.0149(4) 0.8189(4) 0.08172(12)
C72 C -0.0687(4) 0.7557(4) 0.10774(12)
H71 H -0.1001 0.6824 0.1030
C73 C -0.0970(4) 0.8157(4) 0.14050(12)
C74 C -0.1759(4) 0.7864(4) 0.17668(12)
H72 H -0.2510 0.8625 0.1804
H73 H -0.1159 0.7743 0.1980
C75 C -0.2335(4) 0.6668(4) 0.17758(12)
H74 H -0.1600 0.5920 0.1716
H75 H -0.3006 0.6820 0.1579
C76 C -0.3020(5) 0.6321(5) 0.21640(14)
H76 H -0.2348 0.6183 0.2360
H77 H -0.3755 0.7072 0.2222
C77 C -0.3594(6) 0.5137(6) 0.21870(17)
H78 H -0.4241 0.5248 0.1989
H79 H -0.4051 0.5022 0.2433
H80 H -0.2864 0.4371 0.2153
C78 C 0.0417(6) 1.2004(6) 0.1786(2)
C79 C 0.0636(4) 0.7842(4) 0.04366(12)
C80 C 0.1577(5) 0.7089(5) -0.02951(13)
C81 C 0.2005(8) 0.7917(8) 0.0261(2)
H81 H 0.2596 0.8251 0.0394
C82 C 0.2411(9) 0.7509(9) -0.0088(3)
H82 H 0.3295 0.7524 -0.0185
C83 C 0.0290(10) 0.6942(9) -0.0149(3)
H83 H -0.0260 0.6579 -0.0288
C84 C -0.0138(9) 0.7336(9) 0.0198(3)
H84 H -0.1016 0.7269 0.0288
C85 C 0.1408(14) 0.5978(14) -0.0845(5)
H85 H 0.1239 0.5256 -0.0668
H86 H 0.1979 0.5636 -0.1058
H87 H 0.0549 0.6513 -0.0936
C61? C 0.5779(8) 0.8824(8) 0.0132(2)
H61? H 0.5548 0.9711 0.0178
C62? C 0.6237(8) 0.8474(8) -0.0222(3)
H62? H 0.6331 0.9130 -0.0418
C63? C 0.6397(9) 0.6193(9) -0.0014(3)
H63? H 0.6566 0.5305 -0.0057
C64? C 0.5961(9) 0.6560(9) 0.0339(3)
H64? H 0.5864 0.5899 0.0534
C65? C 0.695(5) 0.5593(18) -0.0755(5)
H65? H 0.7672 0.4897 -0.0646
H66? H 0.7001 0.5595 -0.1029
H67? H 0.6076 0.5451 -0.0656
C86? C 0.0741(8) 0.8809(8) 0.0143(2)
H88? H 0.0493 0.9697 0.0186
C87? C 0.1214(8) 0.8459(8) -0.0216(2)
H89? H 0.1301 0.9117 -0.0412
C88? C 0.1404(8) 0.6193(8) 0.0000(3)
H90? H 0.1610 0.5300 -0.0039
C89? C 0.0939(9) 0.6558(9) 0.0351(2)
H91? H 0.0820 0.5902 0.0544
C90? C 0.2178(16) 0.5581(13) -0.0772(6)
H92? H 0.2883 0.4935 -0.0638
H93? H 0.2398 0.5615 -0.1043
H94? H 0.1312 0.5338 -0.0720
loop_
_geom_bond_atom_site_label_1
_geom_bond_atom_site_label_2
_geom_bond_site_symmetry_1
_geom_bond_site_symmetry_2
N1 C1 1_555 1_555
O1 C17 1_555 1_555
F1 C13 1_555 1_555
F2 C13 1_555 1_555
F3 C13 1_555 1_555
C1 H1 1_555 1_555
C2 C1 1_555 1_555
C3 C2 1_555 1_555
H2 C3 1_555 1_555
C4 C3 1_555 1_555
H3 C4 1_555 1_555
C5 N1 1_555 1_555
C6 C5 1_555 1_555
C7 C6 1_555 1_555
H4 C7 1_555 1_555
C8 N1 1_555 1_555
C9 C8 1_555 1_555
H5 C9 1_555 1_555
H6 C9 1_555 1_555
C10 C9 1_555 1_555
H7 C10 1_555 1_555
H8 C10 1_555 1_555
C11 C10 1_555 1_555
H9 C11 1_555 1_555
H10 C11 1_555 1_555
C12 C11 1_555 1_555
H11 C12 1_555 1_555
H12 C12 1_555 1_555
H13 C12 1_555 1_555
C13 C2 1_555 1_555
C14 C6 1_555 1_555
C15 C14 1_555 1_555
H14 C15 1_555 1_555
C16 C15 1_555 1_555
H15 C16 1_555 1_555
C17 C16 1_555 1_555
C18 C17 1_555 1_555
H16 C18 1_555 1_555
C19 C14 1_555 1_555
H17 C19 1_555 1_555
C20 O1 1_555 1_555
H18 C20 1_555 1_555
H19 C20 1_555 1_555
H20 C20 1_555 1_555
N2 C21 1_555 1_555
O2 C37 1_555 1_555
F4 C33 1_555 1_555
F5 C33 1_555 1_555
F6 C33 1_555 1_555
C21 H21 1_555 1_555
C22 C21 1_555 1_555
C23 C22 1_555 1_555
H22 C23 1_555 1_555
C24 C23 1_555 1_555
H23 C24 1_555 1_555
C25 N2 1_555 1_555
C26 C25 1_555 1_555
C27 C26 1_555 1_555
H24 C27 1_555 1_555
C28 N2 1_555 1_555
C29 C28 1_555 1_555
H25 C29 1_555 1_555
H26 C29 1_555 1_555
C30 C29 1_555 1_555
H27 C30 1_555 1_555
H28 C30 1_555 1_555
C31 C30 1_555 1_555
H29 C31 1_555 1_555
H30 C31 1_555 1_555
C32 C31 1_555 1_555
H31 C32 1_555 1_555
H32 C32 1_555 1_555
H33 C32 1_555 1_555
C33 C22 1_555 1_555
C34 C26 1_555 1_555
C35 C34 1_555 1_555
H34 C35 1_555 1_555
C36 C35 1_555 1_555
H35 C36 1_555 1_555
C37 C36 1_555 1_555
C38 C37 1_555 1_555
H36 C38 1_555 1_555
C39 C34 1_555 1_555
H37 C39 1_555 1_555
C40 O2 1_555 1_555
H38 C40 1_555 1_555
H39 C40 1_555 1_555
H40 C40 1_555 1_555
N3 C41 1_555 1_555
O3 C55 1_555 1_555
F7 C53 1_555 1_555
F8 C53 1_555 1_555
F9 C53 1_555 1_555
C41 H41 1_555 1_555
C42 C41 1_555 1_555
C43 C42 1_555 1_555
H42 C43 1_555 1_555
C44 C43 1_555 1_555
H43 C44 1_555 1_555
C45 N3 1_555 1_555
C46 C45 1_555 1_555
C47 C46 1_555 1_555
H44 C47 1_555 1_555
C48 N3 1_555 1_555
C49 C48 1_555 1_555
H45 C49 1_555 1_555
H46 C49 1_555 1_555
C50 C49 1_555 1_555
H47 C50 1_555 1_555
H48 C50 1_555 1_555
C51 C50 1_555 1_555
H49 C51 1_555 1_555
H50 C51 1_555 1_555
C52 C51 1_555 1_555
H51 C52 1_555 1_555
H52 C52 1_555 1_555
H53 C52 1_555 1_555
C53 C42 1_555 1_555
C54 C46 1_555 1_555
C55 C57 1_555 1_555
C56 C54 1_555 1_555
H54 C56 1_555 1_555
C57 C56 1_555 1_555
H55 C57 1_555 1_555
C58 C55 1_555 1_555
H56 C58 1_555 1_555
C59 C54 1_555 1_555
H57 C59 1_555 1_555
C60 O3 1_555 1_555
H58 C60 1_555 1_555
H59 C60 1_555 1_555
H60 C60 1_555 1_555
N4 C66 1_555 1_555
O4 C80 1_555 1_555
F10 C78 1_555 1_555
F11 C78 1_555 1_555
F12 C78 1_555 1_555
C66 H68 1_555 1_555
C67 C66 1_555 1_555
C68 C67 1_555 1_555
H69 C68 1_555 1_555
C69 C68 1_555 1_555
H70 C69 1_555 1_555
C70 N4 1_555 1_555
C71 C70 1_555 1_555
C72 C71 1_555 1_555
H71 C72 1_555 1_555
C73 N4 1_555 1_555
C74 C73 1_555 1_555
H72 C74 1_555 1_555
H73 C74 1_555 1_555
C75 C74 1_555 1_555
H74 C75 1_555 1_555
H75 C75 1_555 1_555
C76 C75 1_555 1_555
H76 C76 1_555 1_555
H77 C76 1_555 1_555
C77 C76 1_555 1_555
H78 C77 1_555 1_555
H79 C77 1_555 1_555
H80 C77 1_555 1_555
C78 C67 1_555 1_555
C79 C71 1_555 1_555
C80 C82 1_555 1_555
C81 C79 1_555 1_555
H81 C81 1_555 1_555
C82 C81 1_555 1_555
H82 C82 1_555 1_555
C83 C80 1_555 1_555
H83 C83 1_555 1_555
C84 C79 1_555 1_555
H84 C84 1_555 1_555
C85 O4 1_555 1_555
H85 C85 1_555 1_555
H86 C85 1_555 1_555
H87 C85 1_555 1_555
C4 C5 1_555 1_555
C7 C8 1_555 1_555
C18 C19 1_555 1_555
C24 C25 1_555 1_555
C27 C28 1_555 1_555
C38 C39 1_555 1_555
C44 C45 1_555 1_555
C47 C48 1_555 1_555
C58 C59 1_555 1_555
C69 C70 1_555 1_555
C72 C73 1_555 1_555
C83 C84 1_555 1_555

#END
