
#######################################################################
#
#                 Cambridge Crystallographic Data Centre
#                                CCDC 
#
#######################################################################
#
# If this CIF has been generated from an entry in the Cambridge 
# Structural Database, then it will include bibliographic, chemical, 
# crystal, experimental, refinement or atomic coordinate data resulting 
# from the CCDC's data processing and validation procedures.
#
#######################################################################

data_JUGBOC
_chemical_formula_moiety         'C74 H126 Si6'
_chemical_name_systematic        
Z,Z-1,12-bis(Tri-isopropylsilyl)-3,4,9,10-tetrakis(tri-isopropylsilylethynyl)-dodeca-3,9-diene-1,5,7,11-tetrayne
_symmetry_cell_setting           monoclinic
_symmetry_space_group_name_H-M   'P 21/a'
_symmetry_Int_Tables_number      14
_space_group_name_Hall           '-P 2yab'
loop_
_symmetry_equiv_pos_site_id
_symmetry_equiv_pos_as_xyz
1 x,y,z
2 1/2-x,1/2+y,-z
3 -x,-y,-z
4 1/2+x,1/2-y,z
_cell_length_a                   13.768(6)
_cell_length_b                   15.011(6)
_cell_length_c                   21.125(9)
_cell_angle_alpha                90
_cell_angle_beta                 108.76(1)
_cell_angle_gamma                90
_cell_volume                     4133.99
_exptl_crystal_colour            yellow
_chemical_melting_point          236-239deg.C
_cell_formula_units_Z            2
loop_
_atom_site_label
_atom_site_type_symbol
_atom_site_fract_x
_atom_site_fract_y
_atom_site_fract_z
Si1 Si 0.7781(6) 0.0755(5) 0.5762(3)
Si2 Si 1.1333(6) -0.2000(6) 0.7743(5)
Si3 Si 0.6198(7) 0.1771(6) 0.8625(5)
C1 C 0.814(2) 0.047(1) 0.665(1)
C2 C 0.838(2) 0.039(1) 0.724(1)
C3 C 0.860(2) 0.039(2) 0.794(1)
C4 C 0.794(2) 0.091(2) 0.825(1)
C5 C 0.728(2) 0.128(1) 0.840(1)
C6 C 0.936(2) -0.005(2) 0.835(1)
C7 C 0.998(2) -0.064(2) 0.810(1)
C8 C 1.046(2) -0.116(2) 0.794(1)
C9 C 0.960(2) -0.003(1) 0.908(1)
C10 C 0.987(2) -0.003(2) 0.967(1)
C11 C 0.683(2) 0.171(2) 0.557(1)
H1 H 0.666 0.190 0.509
C12 C 0.585(3) 0.142(2) 0.568(2)
H2 H 0.549 0.095 0.536
H3 H 0.540 0.196 0.561
H4 H 0.600 0.120 0.615
C13 C 0.733(2) 0.245(2) 0.606(2)
H5 H 0.799 0.262 0.600
H6 H 0.747 0.222 0.653
H7 H 0.687 0.298 0.599
C14 C 0.897(2) 0.118(2) 0.565(1)
H8 H 0.915 0.173 0.593
C15 C 0.877(2) 0.141(2) 0.493(1)
H9 H 0.815 0.181 0.477
H10 H 0.866 0.087 0.464
H11 H 0.939 0.174 0.491
C16 C 0.985(2) 0.058(2) 0.592(1)
H12 H 0.992 0.042 0.639
H13 H 1.049 0.090 0.591
H14 H 0.976 0.003 0.564
C17 C 0.710(3) -0.030(2) 0.532(2)
H15 H 0.655 -0.041 0.553
C18 C 0.678(2) -0.005(2) 0.455(1)
H16 H 0.639 0.052 0.445
H17 H 0.635 -0.055 0.429
H18 H 0.742 0.000 0.443
C19 C 0.761(3) -0.106(3) 0.543(2)
H19 H 0.783 -0.126 0.591
H20 H 0.823 -0.098 0.529
H21 H 0.716 -0.153 0.514
C20 C 0.607(4) 0.135(3) 0.938(3)
H22 H 0.665 0.163 0.974
C21 C 0.523(3) 0.175(3) 0.964(2)
H23 H 0.501 0.234 0.942
H24 H 0.554 0.184 1.013
H25 H 0.462 0.134 0.954
C22 C 0.648(3) 0.058(3) 0.960(2)
H26 H 0.698 0.043 0.936
H27 H 0.594 0.011 0.950
H28 H 0.685 0.060 1.009
C23 C 0.611(3) 0.306(3) 0.841(2)
H29 H 0.551 0.345 0.837
C24 C 0.599(3) 0.320(3) 0.775(2)
H30 H 0.531 0.296 0.747
H31 H 0.655 0.290 0.763
H32 H 0.601 0.386 0.767
C25 C 0.707(3) 0.336(3) 0.902(2)
H33 H 0.694 0.317 0.944
H34 H 0.716 0.402 0.902
H35 H 0.770 0.306 0.899
C26 C 0.493(3) 0.133(3) 0.791(2)
H36 H 0.503 0.082 0.823
C27 C 0.498(3) 0.084(3) 0.739(2)
H37 H 0.559 0.045 0.747
H38 H 0.493 0.126 0.701
H39 H 0.435 0.046 0.727
C28 C 0.405(4) 0.196(4) 0.786(3)
H40 H 0.408 0.231 0.826
H41 H 0.343 0.157 0.774
H42 H 0.401 0.2327 0.748
C29 C 1.246(2) -0.143(2) 0.765(2)
H43 H 1.288 -0.194 0.758
C30 C 1.310(2) -0.095(2) 0.825(2)
H44 H 1.328 -0.136 0.865
H45 H 1.274 -0.042 0.835
H46 H 1.374 -0.076 0.816
C31 C 1.222(2) -0.080(2) 0.708(1)
H47 H 1.176 -0.112 0.668
H48 H 1.286 -0.061 0.699
H49 H 1.186 -0.026 0.717
C32 C 1.167(3) -0.274(3) 0.852(2)
H50 H 1.200 -0.225 0.884
C33 C 1.087(3) -0.298(3) 0.881(2)
H51 H 1.032 -0.252 0.872
H52 H 1.121 -0.304 0.930
H53 H 1.055 -0.357 0.862
C34 C 1.267(3) -0.334(3) 0.856(2)
H54 H 1.313 -0.309 0.832
H55 H 1.240 -0.393 0.836
H56 H 1.305 -0.341 0.904
C35 C 1.056(4) -0.242(3) 0.693(2)
H57 H 1.031 -0.179 0.688
C36 C 0.959(3) -0.258(3) 0.673(2)
H58 H 0.914 -0.222 0.691
H59 H 0.950 -0.323 0.682
H60 H 0.940 -0.249 0.623
C37 C 1.129(4) -0.310(3) 0.660(2)
H61 H 1.203 -0.295 0.681
H62 H 1.108 -0.300 0.611
H63 H 1.118 -0.374 0.669
C10B C 1.013(2) 0.003(2) 1.033(1)
C9B C 1.040(2) 0.003(1) 1.092(1)
C6B C 1.064(2) 0.005(2) 1.165(1)
C3B C 1.140(2) -0.039(2) 1.206(1)
C7B C 1.002(2) 0.064(2) 1.190(1)
C2B C 1.162(2) -0.039(1) 1.276(1)
C4B C 1.206(2) -0.091(2) 1.175(1)
C8B C 0.954(2) 0.116(2) 1.206(1)
C1B C 1.186(2) -0.047(1) 1.335(1)
C5B C 1.272(2) -0.128(1) 1.160(1)
Si2B Si 0.8667(6) 0.2000(6) 1.2257(5)
Si1B Si 1.2219(6) -0.0755(5) 1.4238(3)
Si3B Si 1.3802(7) -0.1771(6) 1.1375(5)
C29B C 0.754(2) 0.143(2) 1.235(2)
C32B C 0.833(3) 0.274(3) 1.148(2)
C35B C 0.944(4) 0.242(3) 1.307(2)
C11B C 1.317(2) -0.171(2) 1.443(1)
C14B C 1.103(2) -0.118(2) 1.435(1)
C17B C 1.290(3) 0.030(2) 1.468(2)
C20B C 1.393(4) -0.135(3) 1.062(3)
C23B C 1.389(3) -0.306(3) 1.159(2)
C26B C 1.507(3) -0.133(3) 1.209(2)
H43B H 0.712 0.194 1.242
C30B C 0.690(2) 0.095(2) 1.175(2)
C31B C 0.778(2) 0.080(2) 1.292(1)
H50B H 0.800 0.225 1.116
C33B C 0.913(3) 0.298(3) 1.119(2)
C34B C 0.733(3) 0.334(3) 1.144(2)
H57B H 0.969 0.179 1.312
C36B C 1.041(3) 0.258(3) 1.327(2)
C37B C 0.871(4) 0.310(3) 1.340(2)
H1B H 1.334 -0.190 1.491
C12B C 1.415(3) -0.142(2) 1.432(2)
C13B C 1.267(2) -0.245(2) 1.394(2)
H8B H 1.085 -0.173 1.407
C15B C 1.123(2) -0.141(2) 1.507(1)
C16B C 1.015(2) -0.058(2) 1.408(1)
H15B H 1.345 0.041 1.447
C18B C 1.322(2) 0.005(2) 1.545(1)
C19B C 1.239(3) 0.106(3) 1.457(2)
H22B H 1.335 -0.163 1.026
C21B C 1.477(3) -0.175(3) 1.036(2)
C22B C 1.352(3) -0.058(3) 1.040(2)
H29B H 1.449 -0.345 1.163
C24B C 1.401(3) -0.320(3) 1.225(2)
C25B C 1.293(3) -0.336(3) 1.098(2)
H36B H 1.497 -0.082 1.177
C27B C 1.502(3) -0.084(3) 1.261(2)
C28B C 1.595(4) -0.196(4) 1.214(3)
H44B H 0.672 0.136 1.135
H45B H 0.726 0.042 1.165
H46B H 0.626 0.076 1.184
H47B H 0.824 0.112 1.332
H48B H 0.714 0.061 1.301
H49B H 0.814 0.026 1.283
H51B H 0.968 0.252 1.128
H52B H 0.879 0.304 1.070
H53B H 0.945 0.357 1.138
H54B H 0.687 0.309 1.168
H55B H 0.760 0.393 1.164
H56B H 0.695 0.341 1.096
H58B H 1.086 0.222 1.309
H59B H 1.050 0.323 1.318
H60B H 1.060 0.249 1.377
H61B H 0.797 0.295 1.319
H62B H 0.892 0.300 1.389
H63B H 0.882 0.374 1.331
H2B H 1.451 -0.095 1.464
H3B H 1.460 -0.196 1.439
H4B H 1.400 -0.120 1.385
H5B H 1.201 -0.262 1.400
H6B H 1.253 -0.222 1.347
H7B H 1.313 -0.298 1.401
H9B H 1.185 -0.181 1.523
H10B H 1.134 -0.087 1.536
H11B H 1.061 -0.174 1.509
H12B H 1.008 -0.042 1.361
H13B H 0.951 -0.090 1.409
H14B H 1.024 -0.003 1.436
H16B H 1.361 -0.052 1.555
H17B H 1.365 0.055 1.571
H18B H 1.258 0.000 1.557
H19B H 1.217 0.126 1.409
H20B H 1.177 0.098 1.471
H21B H 1.284 0.153 1.486
H23B H 1.499 -0.234 1.058
H24B H 1.446 -0.184 0.987
H25B H 1.538 -0.134 1.046
H26B H 1.302 -0.043 1.064
H27B H 1.406 -0.011 1.050
H28B H 1.315 -0.060 0.991
H30B H 1.469 -0.296 1.253
H31B H 1.345 -0.290 1.237
H32B H 1.399 -0.386 1.233
H33B H 1.306 -0.317 1.056
H34B H 1.284 -0.402 1.098
H35B H 1.230 -0.306 1.101
H37B H 1.441 -0.045 1.253
H38B H 1.507 -0.126 1.299
H39B H 1.565 -0.046 1.273
H40B H 1.592 -0.231 1.174
H41B H 1.657 -0.157 1.226
H42B H 1.599 -0.2327 1.252
loop_
_geom_bond_atom_site_label_1
_geom_bond_atom_site_label_2
_geom_bond_site_symmetry_1
_geom_bond_site_symmetry_2
Si1 C1 1_555 1_555
Si2 C8 1_555 1_555
Si3 C5 1_555 1_555
C1 C2 1_555 1_555
C2 C3 1_555 1_555
C3 C4 1_555 1_555
C4 C5 1_555 1_555
C6 C3 1_555 1_555
C7 C6 1_555 1_555
C8 C7 1_555 1_555
C9 C6 1_555 1_555
C10 C9 1_555 1_555
C11 Si1 1_555 1_555
H1 C11 1_555 1_555
C12 C11 1_555 1_555
H2 C12 1_555 1_555
H3 C12 1_555 1_555
H4 C12 1_555 1_555
C13 C11 1_555 1_555
H5 C13 1_555 1_555
H6 C13 1_555 1_555
H7 C13 1_555 1_555
C14 Si1 1_555 1_555
H8 C14 1_555 1_555
C15 C14 1_555 1_555
H9 C15 1_555 1_555
H10 C15 1_555 1_555
H11 C15 1_555 1_555
C16 C14 1_555 1_555
H12 C16 1_555 1_555
H13 C16 1_555 1_555
H14 C16 1_555 1_555
C17 Si1 1_555 1_555
H15 C17 1_555 1_555
C18 C17 1_555 1_555
H16 C18 1_555 1_555
H17 C18 1_555 1_555
H18 C18 1_555 1_555
C19 C17 1_555 1_555
H19 C19 1_555 1_555
H20 C19 1_555 1_555
H21 C19 1_555 1_555
C20 Si3 1_555 1_555
H22 C20 1_555 1_555
C21 C20 1_555 1_555
H23 C21 1_555 1_555
H24 C21 1_555 1_555
H25 C21 1_555 1_555
C22 C20 1_555 1_555
H26 C22 1_555 1_555
H27 C22 1_555 1_555
H28 C22 1_555 1_555
C23 Si3 1_555 1_555
H29 C23 1_555 1_555
C24 C23 1_555 1_555
H30 C24 1_555 1_555
H31 C24 1_555 1_555
H32 C24 1_555 1_555
C25 C23 1_555 1_555
H33 C25 1_555 1_555
H34 C25 1_555 1_555
H35 C25 1_555 1_555
C26 Si3 1_555 1_555
H36 C26 1_555 1_555
C27 C26 1_555 1_555
H37 C27 1_555 1_555
H38 C27 1_555 1_555
H39 C27 1_555 1_555
C28 C26 1_555 1_555
H40 C28 1_555 1_555
H41 C28 1_555 1_555
H42 C28 1_555 1_555
C29 Si2 1_555 1_555
H43 C29 1_555 1_555
C30 C29 1_555 1_555
H44 C30 1_555 1_555
H45 C30 1_555 1_555
H46 C30 1_555 1_555
C31 C29 1_555 1_555
H47 C31 1_555 1_555
H48 C31 1_555 1_555
H49 C31 1_555 1_555
C32 Si2 1_555 1_555
H50 C32 1_555 1_555
C33 C32 1_555 1_555
H51 C33 1_555 1_555
H52 C33 1_555 1_555
H53 C33 1_555 1_555
C34 C32 1_555 1_555
H54 C34 1_555 1_555
H55 C34 1_555 1_555
H56 C34 1_555 1_555
C35 Si2 1_555 1_555
H57 C35 1_555 1_555
C36 C35 1_555 1_555
H58 C36 1_555 1_555
H59 C36 1_555 1_555
H60 C36 1_555 1_555
C37 C35 1_555 1_555
H61 C37 1_555 1_555
H62 C37 1_555 1_555
H63 C37 1_555 1_555
C10B C10 1_555 1_555
C9B C10B 1_555 1_555
C6B C9B 1_555 1_555
C3B C6B 1_555 1_555
C7B C6B 1_555 1_555
C2B C3B 1_555 1_555
C4B C3B 1_555 1_555
C8B C7B 1_555 1_555
C1B C2B 1_555 1_555
C5B C4B 1_555 1_555
Si2B C8B 1_555 1_555
Si1B C1B 1_555 1_555
Si3B C5B 1_555 1_555
C29B Si2B 1_555 1_555
C32B Si2B 1_555 1_555
C35B Si2B 1_555 1_555
C11B Si1B 1_555 1_555
C14B Si1B 1_555 1_555
C17B Si1B 1_555 1_555
C20B Si3B 1_555 1_555
C23B Si3B 1_555 1_555
C26B Si3B 1_555 1_555
H43B C29B 1_555 1_555
C30B C29B 1_555 1_555
C31B C29B 1_555 1_555
H50B C32B 1_555 1_555
C33B C32B 1_555 1_555
C34B C32B 1_555 1_555
H57B C35B 1_555 1_555
C36B C35B 1_555 1_555
C37B C35B 1_555 1_555
H1B C11B 1_555 1_555
C12B C11B 1_555 1_555
C13B C11B 1_555 1_555
H8B C14B 1_555 1_555
C15B C14B 1_555 1_555
C16B C14B 1_555 1_555
H15B C17B 1_555 1_555
C18B C17B 1_555 1_555
C19B C17B 1_555 1_555
H22B C20B 1_555 1_555
C21B C20B 1_555 1_555
C22B C20B 1_555 1_555
H29B C23B 1_555 1_555
C24B C23B 1_555 1_555
C25B C23B 1_555 1_555
H36B C26B 1_555 1_555
C27B C26B 1_555 1_555
C28B C26B 1_555 1_555
H44B C30B 1_555 1_555
H45B C30B 1_555 1_555
H46B C30B 1_555 1_555
H47B C31B 1_555 1_555
H48B C31B 1_555 1_555
H49B C31B 1_555 1_555
H51B C33B 1_555 1_555
H52B C33B 1_555 1_555
H53B C33B 1_555 1_555
H54B C34B 1_555 1_555
H55B C34B 1_555 1_555
H56B C34B 1_555 1_555
H58B C36B 1_555 1_555
H59B C36B 1_555 1_555
H60B C36B 1_555 1_555
H61B C37B 1_555 1_555
H62B C37B 1_555 1_555
H63B C37B 1_555 1_555
H2B C12B 1_555 1_555
H3B C12B 1_555 1_555
H4B C12B 1_555 1_555
H5B C13B 1_555 1_555
H6B C13B 1_555 1_555
H7B C13B 1_555 1_555
H9B C15B 1_555 1_555
H10B C15B 1_555 1_555
H11B C15B 1_555 1_555
H12B C16B 1_555 1_555
H13B C16B 1_555 1_555
H14B C16B 1_555 1_555
H16B C18B 1_555 1_555
H17B C18B 1_555 1_555
H18B C18B 1_555 1_555
H19B C19B 1_555 1_555
H20B C19B 1_555 1_555
H21B C19B 1_555 1_555
H23B C21B 1_555 1_555
H24B C21B 1_555 1_555
H25B C21B 1_555 1_555
H26B C22B 1_555 1_555
H27B C22B 1_555 1_555
H28B C22B 1_555 1_555
H30B C24B 1_555 1_555
H31B C24B 1_555 1_555
H32B C24B 1_555 1_555
H33B C25B 1_555 1_555
H34B C25B 1_555 1_555
H35B C25B 1_555 1_555
H37B C27B 1_555 1_555
H38B C27B 1_555 1_555
H39B C27B 1_555 1_555
H40B C28B 1_555 1_555
H41B C28B 1_555 1_555
H42B C28B 1_555 1_555

#END
