
#######################################################################
#
#                 Cambridge Crystallographic Data Centre
#                                CCDC 
#
#######################################################################
#
# If this CIF has been generated from an entry in the Cambridge 
# Structural Database, then it will include bibliographic, chemical, 
# crystal, experimental, refinement or atomic coordinate data resulting 
# from the CCDC's data processing and validation procedures.
#
#######################################################################

data_JUHGUQ
_chemical_formula_moiety         'C15 H10 O2'
_chemical_name_systematic        
1a,10b-dihydro-6H-dibenzo[3,4:6,7]cyclohepta[1,2-b]oxiren-6-one
_symmetry_cell_setting           monoclinic
_symmetry_space_group_name_H-M   'P 21/n'
_symmetry_Int_Tables_number      14
_space_group_name_Hall           '-P 2yn'
loop_
_symmetry_equiv_pos_site_id
_symmetry_equiv_pos_as_xyz
1 x,y,z
2 1/2-x,1/2+y,1/2-z
3 -x,-y,-z
4 1/2+x,1/2-y,1/2+z
_cell_length_a                   7.3602(9)
_cell_length_b                   20.025(3)
_cell_length_c                   8.0898(11)
_cell_angle_alpha                90
_cell_angle_beta                 115.277(6)
_cell_angle_gamma                90
_cell_volume                     1078.18
_exptl_crystal_colour            colorless
_cell_formula_units_Z            4
loop_
_atom_site_label
_atom_site_type_symbol
_atom_site_fract_x
_atom_site_fract_y
_atom_site_fract_z
O1 O 0.56448(15) 0.37944(6) 0.22307(15)
O2 O 0.10635(15) 0.29228(5) 0.18104(13)
C1 C 0.1183(2) 0.30437(8) -0.4105(2)
H1 H 0.0612 0.2878 -0.5322
C2 C 0.3025(2) 0.33696(8) -0.3421(2)
H2 H 0.3714 0.3430 -0.4172
C3 C 0.3855(2) 0.36070(8) -0.1641(2)
H3 H 0.5130 0.3820 -0.1169
C4 C 0.2839(2) 0.35371(7) -0.0532(2)
C5 C 0.3830(2) 0.38435(8) 0.1338(2)
C6 C 0.2637(2) 0.43067(7) 0.19485(18)
C7 C 0.3524(2) 0.49216(8) 0.2646(2)
H4 H 0.4827 0.5017 0.2733
C8 C 0.2541(2) 0.53957(8) 0.3214(2)
H5 H 0.3155 0.5816 0.3663
C9 C 0.0181(2) 0.29610(8) -0.3007(2)
H6 H -0.1069 0.2732 -0.3477
C10 C 0.0974(2) 0.32073(7) -0.12265(19)
C11 C 0.0722(2) 0.41633(7) 0.18526(19)
C12 C -0.0235(2) 0.46407(8) 0.2458(2)
H7 H -0.1519 0.4544 0.2415
C13 C 0.0649(2) 0.52536(8) 0.3122(2)
H8 H -0.0033 0.5575 0.3513
C14 C -0.0259(2) 0.35016(8) 0.13072(19)
H9 H -0.1505 0.3446 0.1499
C15 C -0.0139(2) 0.30600(7) -0.0113(2)
H10 H -0.1320 0.2757 -0.0717
loop_
_geom_bond_atom_site_label_1
_geom_bond_atom_site_label_2
_geom_bond_site_symmetry_1
_geom_bond_site_symmetry_2
O1 C5 1_555 1_555
O2 C14 1_555 1_555
C1 H1 1_555 1_555
C2 C1 1_555 1_555
H2 C2 1_555 1_555
C3 C2 1_555 1_555
H3 C3 1_555 1_555
C4 C3 1_555 1_555
C5 C4 1_555 1_555
C6 C5 1_555 1_555
C7 C6 1_555 1_555
H4 C7 1_555 1_555
C8 C7 1_555 1_555
H5 C8 1_555 1_555
C9 C1 1_555 1_555
H6 C9 1_555 1_555
C10 C4 1_555 1_555
C11 C6 1_555 1_555
C12 C11 1_555 1_555
H7 C12 1_555 1_555
C13 C8 1_555 1_555
H8 C13 1_555 1_555
C14 C11 1_555 1_555
H9 C14 1_555 1_555
C15 O2 1_555 1_555
H10 C15 1_555 1_555
C9 C10 1_555 1_555
C10 C15 1_555 1_555
C12 C13 1_555 1_555
C14 C15 1_555 1_555

#END
