
#######################################################################
#
#                 Cambridge Crystallographic Data Centre
#                                CCDC 
#
#######################################################################
#
# If this CIF has been generated from an entry in the Cambridge 
# Structural Database, then it will include bibliographic, chemical, 
# crystal, experimental, refinement or atomic coordinate data resulting 
# from the CCDC's data processing and validation procedures.
#
#######################################################################

data_JUHKEE
_chemical_formula_moiety         'C21 H20 Cl2 N2 O7'
_chemical_name_systematic        
'ethyl 5-chloro-2-((3-chlorobenzoyl)oxy)-6-cyano-3-hydroxy-6-(2-(methoxycarbonyl)prop-2-en-1-yl)-3,6-dihydropyridine-1(2H)-carboxylate'
_symmetry_cell_setting           triclinic
_symmetry_space_group_name_H-M   'P -1'
_symmetry_Int_Tables_number      2
_space_group_name_Hall           '-P 1'
loop_
_symmetry_equiv_pos_site_id
_symmetry_equiv_pos_as_xyz
1 x,y,z
2 -x,-y,-z
_cell_length_a                   9.1033(18)
_cell_length_b                   10.178(2)
_cell_length_c                   13.412(3)
_cell_angle_alpha                104.17(3)
_cell_angle_beta                 95.31(3)
_cell_angle_gamma                105.10(3)
_cell_volume                     1146.92
_exptl_crystal_colour            colorless
_exptl_crystal_description       block
_cell_formula_units_Z            2
loop_
_atom_site_label
_atom_site_type_symbol
_atom_site_fract_x
_atom_site_fract_y
_atom_site_fract_z
C1 C 1.2412(5) 1.0730(4) 0.4325(3)
C2 C 1.1445(5) 1.1225(4) 0.3784(3)
H1 H 1.1755 1.2157 0.3750
C3 C 1.0016(5) 1.0350(4) 0.3287(3)
H2 H 0.9358 1.0684 0.2910
C4 C 0.9546(4) 0.8957(3) 0.3348(3)
H3 H 0.8574 0.8363 0.3014
C5 C 1.0528(3) 0.8463(3) 0.3905(2)
C6 C 1.1977(4) 0.9344(3) 0.4400(2)
H4 H 1.2646 0.9017 0.4775
C7 C 1.0106(3) 0.6982(3) 0.3978(2)
C8 C 0.8205(3) 0.4705(3) 0.33531(19)
H5 H 0.9074 0.4404 0.3604
C9 C 0.6935(3) 0.4401(3) 0.39877(19)
H6 H 0.6654 0.3392 0.3955
C10 C 0.5560(3) 0.4717(3) 0.3533(2)
H7 H 0.4852 0.4935 0.3955
C11 C 0.5324(3) 0.4696(3) 0.2548(2)
C12 C 0.6284(3) 0.4222(3) 0.17404(19)
C13 C 0.6784(3) 0.5361(3) 0.1217(2)
C14 C 0.8768(3) 0.3556(3) 0.1728(2)
C15 C 0.9404(4) 0.2798(4) 0.0058(3)
H8 H 0.9292 0.1836 0.0091
H9 H 1.0480 0.3345 0.0286
C16 C 0.8873(5) 0.2801(5) -0.1028(3)
H10 H 0.7795 0.2295 -0.1231
H11 H 0.9448 0.2350 -0.1494
H12 H 0.9035 0.3761 -0.1056
C17 C 0.5226(3) 0.2853(3) 0.0907(2)
H13 H 0.4432 0.3104 0.0525
H14 H 0.5842 0.2498 0.0414
C18 C 0.4471(3) 0.1699(3) 0.1360(2)
C19 C 0.3006(5) 0.1449(4) 0.1498(4)
H15 H 0.2552 0.0690 0.1747
H16 H 0.2437 0.2034 0.1347
C20 C 0.5368(4) 0.0781(3) 0.1598(3)
C21 C 0.5541(8) -0.0976(6) 0.2432(6)
H17 H 0.5555 -0.1677 0.1809
H18 H 0.5028 -0.1436 0.2903
H19 H 0.6581 -0.0444 0.2759
Cl1 Cl 1.42417(15) 1.18345(13) 0.49494(12)
Cl2 Cl 0.37640(9) 0.51528(10) 0.20488(6)
N1 N 0.7658(2) 0.3986(2) 0.22678(15)
N2 N 0.7144(3) 0.6240(3) 0.0837(2)
O1 O 1.0925(3) 0.6530(2) 0.4467(2)
O2 O 0.8715(2) 0.62154(19) 0.34483(14)
O3 O 0.9874(3) 0.3349(3) 0.21423(19)
O4 O 0.8444(2) 0.3428(2) 0.07137(15)
O5 O 0.6567(3) 0.0752(3) 0.1302(3)
O6 O 0.4723(4) -0.0026(3) 0.2167(3)
O7 O 0.7385(3) 0.5203(3) 0.50393(16)
H20 H 0.7754 0.4757 0.5375
loop_
_geom_bond_atom_site_label_1
_geom_bond_atom_site_label_2
_geom_bond_site_symmetry_1
_geom_bond_site_symmetry_2
C1 C2 1_555 1_555
C2 H1 1_555 1_555
C3 C2 1_555 1_555
H2 C3 1_555 1_555
C4 C3 1_555 1_555
H3 C4 1_555 1_555
C5 C4 1_555 1_555
C6 C1 1_555 1_555
H4 C6 1_555 1_555
C7 C5 1_555 1_555
C8 H5 1_555 1_555
C9 C8 1_555 1_555
H6 C9 1_555 1_555
C10 C9 1_555 1_555
H7 C10 1_555 1_555
C11 C10 1_555 1_555
C12 C11 1_555 1_555
C13 C12 1_555 1_555
C14 N1 1_555 1_555
C15 H8 1_555 1_555
H9 C15 1_555 1_555
C16 C15 1_555 1_555
H10 C16 1_555 1_555
H11 C16 1_555 1_555
H12 C16 1_555 1_555
C17 C12 1_555 1_555
H13 C17 1_555 1_555
H14 C17 1_555 1_555
C18 C17 1_555 1_555
C19 C18 1_555 1_555
H15 C19 1_555 1_555
H16 C19 1_555 1_555
C20 C18 1_555 1_555
C21 H17 1_555 1_555
H18 C21 1_555 1_555
H19 C21 1_555 1_555
Cl1 C1 1_555 1_555
Cl2 C11 1_555 1_555
N1 C8 1_555 1_555
N2 C13 1_555 1_555
O1 C7 1_555 1_555
O2 C7 1_555 1_555
O3 C14 1_555 1_555
O4 C14 1_555 1_555
O5 C20 1_555 1_555
O6 C20 1_555 1_555
O7 C9 1_555 1_555
H20 O7 1_555 1_555
C5 C6 1_555 1_555
C8 O2 1_555 1_555
C12 N1 1_555 1_555
C15 O4 1_555 1_555
C21 O6 1_555 1_555

#END
