
#######################################################################
#
#                 Cambridge Crystallographic Data Centre
#                                CCDC 
#
#######################################################################
#
# If this CIF has been generated from an entry in the Cambridge 
# Structural Database, then it will include bibliographic, chemical, 
# crystal, experimental, refinement or atomic coordinate data resulting 
# from the CCDC's data processing and validation procedures.
#
#######################################################################

data_JUJHON
_chemical_formula_moiety         'C14 H20 N2 O2'
_chemical_name_systematic        
decahydro-4H,7H-pyrido[1,2-g]pyrrolo[3,2,1-ij][1,6]naphthyridine-2,9-dione
_symmetry_cell_setting           monoclinic
_symmetry_space_group_name_H-M   'P 21'
_symmetry_Int_Tables_number      4
_space_group_name_Hall           'P 2yb'
loop_
_symmetry_equiv_pos_site_id
_symmetry_equiv_pos_as_xyz
1 x,y,z
2 -x,1/2+y,-z
_cell_length_a                   5.80171(11)
_cell_length_b                   9.77688(19)
_cell_length_c                   10.8177(2)
_cell_angle_alpha                90
_cell_angle_beta                 92.6397(16)
_cell_angle_gamma                90
_cell_volume                     612.957
_exptl_crystal_colour            colorless
_exptl_crystal_description       prism
_cell_formula_units_Z            2
loop_
_atom_site_label
_atom_site_type_symbol
_atom_site_fract_x
_atom_site_fract_y
_atom_site_fract_z
C1 C -0.7747(3) 0.35706(15) -0.32813(14)
H1 H -0.9293 0.3828 -0.3573
H2 H -0.6662 0.4173 -0.3667
C2 C -0.7513(2) 0.37296(15) -0.18838(13)
H3 H -0.8827 0.3300 -0.1518
H4 H -0.7542 0.4695 -0.1679
C3 C -0.5301(2) 0.30992(15) -0.13223(13)
H5 H -0.5295 0.3159 -0.0427
H6 H -0.3976 0.3599 -0.1600
C4 C -0.5140(2) 0.15994(14) -0.17152(11)
H7 H -0.6474 0.1103 -0.1420
C5 C -0.5195(2) 0.15349(13) -0.31177(11)
H8 H -0.3858 0.2026 -0.3418
C6 C -0.5218(2) 0.00758(14) -0.36280(12)
H9 H -0.4032 -0.0002 -0.4240
C7 C -0.7607(2) -0.00778(16) -0.42930(14)
H10 H -0.7452 -0.0404 -0.5132
H11 H -0.8545 -0.0723 -0.3856
C8 C -0.8693(2) 0.13192(15) -0.43023(12)
C9 C -0.4732(2) -0.09853(13) -0.26104(12)
H12 H -0.6111 -0.1074 -0.2126
C10 C -0.4213(3) -0.23663(14) -0.31696(14)
H13 H -0.5627 -0.2757 -0.3529
H14 H -0.3148 -0.2248 -0.3827
C11 C -0.3175(3) -0.33358(16) -0.22112(15)
H15 H -0.2932 -0.4226 -0.2580
H16 H -0.4213 -0.3446 -0.1541
C12 C -0.0899(3) -0.27512(16) -0.17210(14)
H17 H -0.0364 -0.3282 -0.1007
H18 H 0.0226 -0.2855 -0.2350
C13 C -0.0988(2) -0.12703(15) -0.13540(13)
C14 C -0.2956(2) 0.08882(14) -0.12464(13)
H19 H -0.1627 0.1421 -0.1469
H20 H -0.2939 0.0827 -0.0351
N1 N -0.72984(19) 0.21612(12) -0.36304(10)
N2 N -0.28010(18) -0.05014(11) -0.17780(10)
O1 O -1.05335(16) 0.16437(11) -0.48280(9)
O2 O 0.05553(15) -0.07591(11) -0.06729(9)
loop_
_geom_bond_atom_site_label_1
_geom_bond_atom_site_label_2
_geom_bond_site_symmetry_1
_geom_bond_site_symmetry_2
C1 H1 1_555 1_555
H2 C1 1_555 1_555
C2 C1 1_555 1_555
H3 C2 1_555 1_555
H4 C2 1_555 1_555
C3 C2 1_555 1_555
H5 C3 1_555 1_555
H6 C3 1_555 1_555
C4 C3 1_555 1_555
H7 C4 1_555 1_555
C5 C4 1_555 1_555
H8 C5 1_555 1_555
C6 C5 1_555 1_555
H9 C6 1_555 1_555
C7 C6 1_555 1_555
H10 C7 1_555 1_555
H11 C7 1_555 1_555
C8 C7 1_555 1_555
C9 C6 1_555 1_555
H12 C9 1_555 1_555
C10 C9 1_555 1_555
H13 C10 1_555 1_555
H14 C10 1_555 1_555
C11 C10 1_555 1_555
H15 C11 1_555 1_555
H16 C11 1_555 1_555
C12 C11 1_555 1_555
H17 C12 1_555 1_555
H18 C12 1_555 1_555
C13 C12 1_555 1_555
C14 C4 1_555 1_555
H19 C14 1_555 1_555
H20 C14 1_555 1_555
N1 C1 1_555 1_555
N2 C9 1_555 1_555
O1 C8 1_555 1_555
O2 C13 1_555 1_555
C5 N1 1_555 1_555
C8 N1 1_555 1_555
C13 N2 1_555 1_555
C14 N2 1_555 1_555

#END
