
#######################################################################
#
#                 Cambridge Crystallographic Data Centre
#                                CCDC 
#
#######################################################################
#
# If this CIF has been generated from an entry in the Cambridge 
# Structural Database, then it will include bibliographic, chemical, 
# crystal, experimental, refinement or atomic coordinate data resulting 
# from the CCDC's data processing and validation procedures.
#
#######################################################################

data_JULLOT
_chemical_formula_moiety         'C28 H42 N2 O6,C8 H6 O4'
_chemical_name_systematic        
'8,19-bis(2-Ethoxyethyl)-7,8,9,10,18,19,20,21-octahydro-6H,17H-dibenzo[b,k][1,4,10,13,7,16]tetraoxadiazacyclooctadecine terephthalic acid clathrate'
_symmetry_cell_setting           triclinic
_symmetry_space_group_name_H-M   'P -1'
_symmetry_Int_Tables_number      2
_space_group_name_Hall           '-P 1'
loop_
_symmetry_equiv_pos_site_id
_symmetry_equiv_pos_as_xyz
1 x,y,z
2 -x,-y,-z
_cell_length_a                   5.7584(5)
_cell_length_b                   10.5829(9)
_cell_length_c                   14.5837(13)
_cell_angle_alpha                103.242(3)
_cell_angle_beta                 95.682(3)
_cell_angle_gamma                100.938(3)
_cell_volume                     839.901
_exptl_crystal_colour            colorless
_exptl_crystal_description       block
_cell_formula_units_Z            1
loop_
_atom_site_label
_atom_site_type_symbol
_atom_site_fract_x
_atom_site_fract_y
_atom_site_fract_z
C1 C 0.5077(4) 0.3832(2) 0.93399(17)
C2 C 0.3123(4) 0.3912(2) 0.98224(19)
H1 H 0.1823 0.3164 0.9700
C3 C 0.6939(4) 0.4927(2) 0.95207(19)
H2 H 0.8277 0.4885 0.9192
C4 C 0.5107(4) 0.2532(2) 0.86501(18)
O1 O 0.3514(3) 0.15468(16) 0.85616(13)
O2 O 0.6936(3) 0.25600(17) 0.81966(14)
H3 H 0.688(9) 0.182(3) 0.780(3)
C1A C 0.4923(4) 0.6168(2) 1.06601(17)
C2A C 0.6877(4) 0.6088(2) 1.01776(19)
H1A H 0.8177 0.6836 1.0300
C3A C 0.3061(4) 0.5073(2) 1.04793(19)
H2A H 0.1723 0.5115 1.0808
C4A C 0.4893(4) 0.7468(2) 1.13499(18)
O1A O 0.6486(3) 0.84532(16) 1.14384(13)
O2A O 0.3064(3) 0.74400(17) 1.18034(14)
H3A H 0.312(9) 0.818(3) 1.220(3)
C5 C 1.3496(4) 0.3155(2) 0.60488(17)
C6 C 1.5106(4) 0.3070(2) 0.53909(18)
C7 C 1.7024(4) 0.4119(2) 0.54890(19)
H4 H 1.8107 0.4078 0.5038
C8 C 1.7372(5) 0.5241(3) 0.6252(2)
H5 H 1.8698 0.5961 0.6318
C9 C 1.5817(4) 0.5313(2) 0.6905(2)
H6 H 1.6074 0.6075 0.7426
C10 C 1.3858(4) 0.4266(2) 0.68012(19)
H7 H 1.2769 0.4316 0.7250
C11 C 1.0151(4) 0.1991(2) 0.66100(18)
H8 H 0.9340 0.2745 0.6730
H9 H 1.1122 0.1996 0.7211
C12 C 0.8342(4) 0.0678(2) 0.62217(18)
H10 H 0.7223 0.0746 0.5683
H11 H 0.9184 -0.0036 0.5980
C13 C 0.4415(4) -0.0333(2) 0.65948(19)
H12 H 0.3793 0.0185 0.6179
H13 H 0.3498 -0.0272 0.7137
C14 C 0.3881(4) -0.1772(2) 0.60366(18)
H14 H 0.4217 -0.2341 0.6463
H15 H 0.2173 -0.2062 0.5753
C15 C 0.8258(4) -0.0400(2) 0.75389(18)
H16 H 0.9956 0.0076 0.7711
H17 H 0.8205 -0.1295 0.7130
C16 C 0.7278(4) -0.0558(2) 0.84369(19)
H18 H 0.8508 -0.0755 0.8875
H19 H 0.6865 0.0282 0.8761
C17 C 0.3934(5) -0.1628(3) 0.8998(2)
H20 H 0.3308 -0.0810 0.9168
H21 H 0.5009 -0.1671 0.9559
C18 C 0.1909(5) -0.2828(3) 0.8716(2)
H22 H 0.0944 -0.2821 0.8126
H23 H 0.0909 -0.2811 0.9223
H24 H 0.2549 -0.3635 0.8616
N1 N 0.6964(3) 0.0329(2) 0.69806(15)
O3 O 1.1610(3) 0.20690(15) 0.58776(12)
O4 O 0.5363(3) -0.18934(16) 0.52994(12)
O5 O 0.5209(3) -0.16082(16) 0.82145(12)
C5A C 0.6504(4) -0.3155(2) 0.39512(17)
C6A C 0.4894(4) -0.3070(2) 0.46091(18)
C7A C 0.2976(4) -0.4119(2) 0.45110(19)
H4A H 0.1893 -0.4078 0.4962
C8A C 0.2628(5) -0.5241(3) 0.3748(2)
H5A H 0.1302 -0.5961 0.3682
C9A C 0.4183(4) -0.5313(2) 0.3095(2)
H6A H 0.3926 -0.6075 0.2574
C10A C 0.6142(4) -0.4266(2) 0.31988(19)
H7A H 0.7231 -0.4316 0.2750
C11A C 0.9849(4) -0.1991(2) 0.33900(18)
H8A H 1.0660 -0.2745 0.3270
H9A H 0.8878 -0.1996 0.2789
C12A C 1.1658(4) -0.0678(2) 0.37783(18)
H10A H 1.2777 -0.0746 0.4317
H11A H 1.0816 0.0036 0.4020
C13A C 1.5585(4) 0.0333(2) 0.34052(19)
H12A H 1.6207 -0.0185 0.3821
H13A H 1.6502 0.0272 0.2863
C14A C 1.6119(4) 0.1772(2) 0.39634(18)
H14A H 1.5783 0.2341 0.3537
H15A H 1.7827 0.2062 0.4247
C15A C 1.1742(4) 0.0400(2) 0.24611(18)
H16A H 1.0044 -0.0076 0.2289
H17A H 1.1795 0.1295 0.2870
C16A C 1.2722(4) 0.0558(2) 0.15631(19)
H18A H 1.1492 0.0755 0.1125
H19A H 1.3135 -0.0282 0.1239
C17A C 1.6066(5) 0.1628(3) 0.1002(2)
H20A H 1.6692 0.0810 0.0832
H21A H 1.4991 0.1671 0.0441
C18A C 1.8091(5) 0.2828(3) 0.1284(2)
H22A H 1.9056 0.2821 0.1874
H23A H 1.9091 0.2811 0.0777
H24A H 1.7451 0.3635 0.1384
N1A N 1.3036(3) -0.0329(2) 0.30194(15)
O3A O 0.8390(3) -0.20690(15) 0.41224(12)
O4A O 1.4637(3) 0.18934(16) 0.47006(12)
O5A O 1.4791(3) 0.16082(16) 0.17855(12)
H25? H 0.683(10) 0.105(3) 0.738(3)
loop_
_geom_bond_atom_site_label_1
_geom_bond_atom_site_label_2
_geom_bond_site_symmetry_1
_geom_bond_site_symmetry_2
C1 C2 1_555 1_555
C2 H1 1_555 1_555
C3 C1 1_555 1_555
H2 C3 1_555 1_555
C4 C1 1_555 1_555
O1 C4 1_555 1_555
O2 C4 1_555 1_555
H3 O2 1_555 1_555
C5 C6 1_555 1_555
C6 C7 1_555 1_555
C7 H4 1_555 1_555
C8 C7 1_555 1_555
H5 C8 1_555 1_555
C9 C8 1_555 1_555
H6 C9 1_555 1_555
C10 C5 1_555 1_555
H7 C10 1_555 1_555
C11 H8 1_555 1_555
H9 C11 1_555 1_555
C12 C11 1_555 1_555
H10 C12 1_555 1_555
H11 C12 1_555 1_555
C13 H12 1_555 1_555
H13 C13 1_555 1_555
C14 C13 1_555 1_555
H14 C14 1_555 1_555
H15 C14 1_555 1_555
C15 H16 1_555 1_555
H17 C15 1_555 1_555
C16 C15 1_555 1_555
H18 C16 1_555 1_555
H19 C16 1_555 1_555
C17 H20 1_555 1_555
H21 C17 1_555 1_555
C18 C17 1_555 1_555
H22 C18 1_555 1_555
H23 C18 1_555 1_555
H24 C18 1_555 1_555
N1 C12 1_555 1_555
O3 C5 1_555 1_555
O4 C14 1_555 1_555
O5 C16 1_555 1_555
C1A C2A 1_555 1_555
C2A C3 1_555 1_555
H1A C2A 1_555 1_555
C3A C2 1_555 1_555
H2A C3A 1_555 1_555
C4A C1A 1_555 1_555
O1A C4A 1_555 1_555
O2A C4A 1_555 1_555
H3A O2A 1_555 1_555
C5A C6A 1_555 1_555
C6A O4 1_555 1_555
C7A C6A 1_555 1_555
H4A C7A 1_555 1_555
C8A C7A 1_555 1_555
H5A C8A 1_555 1_555
C9A C8A 1_555 1_555
H6A C9A 1_555 1_555
C10A C5A 1_555 1_555
H7A C10A 1_555 1_555
C11A H8A 1_555 1_555
H9A C11A 1_555 1_555
C12A C11A 1_555 1_555
H10A C12A 1_555 1_555
H11A C12A 1_555 1_555
C13A H12A 1_555 1_555
H13A C13A 1_555 1_555
C14A C13A 1_555 1_555
H14A C14A 1_555 1_555
H15A C14A 1_555 1_555
C15A H16A 1_555 1_555
H17A C15A 1_555 1_555
C16A C15A 1_555 1_555
H18A C16A 1_555 1_555
H19A C16A 1_555 1_555
C17A H20A 1_555 1_555
H21A C17A 1_555 1_555
C18A C17A 1_555 1_555
H22A C18A 1_555 1_555
H23A C18A 1_555 1_555
H24A C18A 1_555 1_555
N1A C12A 1_555 1_555
O3A C5A 1_555 1_555
O4A C6 1_555 1_555
O5A C16A 1_555 1_555
C9 C10 1_555 1_555
C11 O3 1_555 1_555
C13 N1 1_555 1_555
C15 N1 1_555 1_555
C17 O5 1_555 1_555
C1A C3A 1_555 1_555
C9A C10A 1_555 1_555
C11A O3A 1_555 1_555
C13A N1A 1_555 1_555
C14A O4A 1_555 1_555
C15A N1A 1_555 1_555
C17A O5A 1_555 1_555

#END
