
#######################################################################
#
#                 Cambridge Crystallographic Data Centre
#                                CCDC 
#
#######################################################################
#
# If this CIF has been generated from an entry in the Cambridge 
# Structural Database, then it will include bibliographic, chemical, 
# crystal, experimental, refinement or atomic coordinate data resulting 
# from the CCDC's data processing and validation procedures.
#
#######################################################################

data_JUMKOT
_chemical_formula_moiety         'C34 H38 B2 N2 O6'
_chemical_name_systematic        
7-hydroxy-8-(4-(4,4,5,5-tetramethyl-1,3,2-dioxaborolan-2-yl)phenyl)-1-(2-(4-(4,4,5,5-tetramethyl-1,3,2-dioxaborolan-2-yl)phenyl)diazen-2-ium-1-yl)naphthalen-2-olate
_symmetry_cell_setting           monoclinic
_symmetry_space_group_name_H-M   'P 21'
_symmetry_Int_Tables_number      4
_space_group_name_Hall           'P 2yb'
loop_
_symmetry_equiv_pos_site_id
_symmetry_equiv_pos_as_xyz
1 x,y,z
2 -x,1/2+y,-z
_cell_length_a                   6.7706(15)
_cell_length_b                   18.321(4)
_cell_length_c                   12.535(3)
_cell_angle_alpha                90
_cell_angle_beta                 97.729(11)
_cell_angle_gamma                90
_cell_volume                     1540.77
_exptl_crystal_colour            orange
_exptl_crystal_description       plate
_cell_formula_units_Z            2
_exptl_crystal_recrystallization_method 
'Re-crystallisation from solvent: ethyl acetate/hexane'
loop_
_atom_site_label
_atom_site_type_symbol
_atom_site_fract_x
_atom_site_fract_y
_atom_site_fract_z
O1 O 0.4794(4) 0.17401(15) 0.8786(2)
O2 O 1.2629(4) 0.45212(17) 0.9739(3)
H1 H 1.170(7) 0.481(3) 0.927(4)
O3 O 0.1028(4) 0.52355(15) 0.3887(2)
O4 O -0.1670(4) 0.44794(15) 0.3867(2)
O5 O 0.6030(4) 0.64510(15) 0.6198(2)
O6 O 0.4171(4) 0.65449(15) 0.7586(2)
N1 N 0.6231(5) 0.31195(18) 0.8191(2)
N2 N 0.4431(5) 0.29316(18) 0.7753(3)
H2 H 0.404(6) 0.253(3) 0.799(4)
C1 C 0.7234(6) 0.2690(2) 0.8920(3)
C2 C 0.6511(6) 0.1962(2) 0.9172(3)
C3 C 0.7875(7) 0.1488(2) 0.9831(3)
H3 H 0.7462 0.1010 0.9997
C4 C 0.9730(7) 0.1715(2) 1.0213(3)
H4 H 1.0609 0.1381 1.0616
C5 C 1.2388(6) 0.2632(2) 1.0486(3)
H5 H 1.3230 0.2280 1.0873
C6 C 1.3075(6) 0.3326(3) 1.0365(3)
H6 H 1.4386 0.3456 1.0675
C7 C 1.1857(6) 0.3838(2) 0.9790(3)
C8 C 0.9899(6) 0.3668(2) 0.9303(3)
C9 C 0.9215(6) 0.2947(2) 0.9413(3)
C10 C 1.0440(6) 0.2438(2) 1.0040(3)
C11 C 0.3427(6) 0.3365(2) 0.6934(3)
C12 C 0.1481(6) 0.3173(2) 0.6515(3)
H7 H 0.0860 0.2760 0.6786
C13 C 0.0469(6) 0.3591(2) 0.5698(3)
H8 H -0.0855 0.3460 0.5414
C14 C 0.1339(6) 0.4200(2) 0.5279(3)
C15 C 0.3285(6) 0.4380(2) 0.5726(3)
H9 H 0.3902 0.4798 0.5466
C16 C 0.4329(6) 0.3969(2) 0.6536(3)
H10 H 0.5655 0.4099 0.6818
C17 C -0.0293(6) 0.5410(2) 0.2888(3)
C18 C -0.2309(6) 0.5076(2) 0.3101(3)
C19 C -0.0285(7) 0.6222(2) 0.2735(4)
H11 H -0.0684 0.6461 0.3372
H12 H -0.1225 0.6353 0.2099
H13 H 0.1057 0.6383 0.2634
C20 C 0.0578(6) 0.5028(3) 0.1977(3)
H14 H 0.1941 0.5201 0.1955
H15 H -0.0242 0.5137 0.1290
H16 H 0.0593 0.4499 0.2100
C21 C -0.3567(7) 0.5592(3) 0.3679(3)
H17 H -0.4665 0.5320 0.3928
H18 H -0.4110 0.5979 0.3184
H19 H -0.2738 0.5811 0.4299
C22 C -0.3578(6) 0.4749(3) 0.2134(3)
H20 H -0.2826 0.4364 0.1824
H21 H -0.3937 0.5131 0.1594
H22 H -0.4792 0.4542 0.2356
C23 C 0.8774(6) 0.4297(2) 0.8741(3)
C24 C 0.9393(6) 0.4607(2) 0.7831(3)
H23 H 1.0505 0.4406 0.7546
C25 C 0.8410(6) 0.5206(2) 0.7332(3)
H24 H 0.8839 0.5400 0.6698
C26 C 0.6803(6) 0.5529(2) 0.7741(3)
C27 C 0.6245(6) 0.5227(2) 0.8682(3)
H25 H 0.5186 0.5445 0.8994
C28 C 0.7183(6) 0.4622(2) 0.9169(3)
H26 H 0.6748 0.4425 0.9799
C29 C 0.4854(6) 0.7119(2) 0.5985(3)
C30 C 0.3193(6) 0.7035(2) 0.6735(4)
C31 C 0.6243(7) 0.7761(2) 0.6290(4)
H27 H 0.6771 0.7731 0.7056
H28 H 0.5504 0.8219 0.6152
H29 H 0.7348 0.7748 0.5860
C32 C 0.4092(7) 0.7130(3) 0.4790(3)
H30 H 0.5225 0.7149 0.4379
H31 H 0.3250 0.7561 0.4622
H32 H 0.3311 0.6688 0.4596
C33 C 0.2599(7) 0.7730(2) 0.7260(4)
H33 H 0.1606 0.7617 0.7737
H34 H 0.2031 0.8074 0.6704
H35 H 0.3777 0.7948 0.7681
C34 C 0.1367(6) 0.6630(3) 0.6212(4)
H36 H 0.1777 0.6174 0.5898
H37 H 0.0647 0.6934 0.5645
H38 H 0.0496 0.6520 0.6755
B1 B 0.0212(7) 0.4649(3) 0.4341(4)
B2 B 0.5654(7) 0.6186(3) 0.7168(4)
loop_
_geom_bond_atom_site_label_1
_geom_bond_atom_site_label_2
_geom_bond_site_symmetry_1
_geom_bond_site_symmetry_2
O1 C2 1_555 1_555
O2 H1 1_555 1_555
O3 C17 1_555 1_555
O4 C18 1_555 1_555
O5 C29 1_555 1_555
O6 C30 1_555 1_555
N1 N2 1_555 1_555
N2 H2 1_555 1_555
C1 N1 1_555 1_555
C2 C1 1_555 1_555
C3 C2 1_555 1_555
H3 C3 1_555 1_555
C4 C3 1_555 1_555
H4 C4 1_555 1_555
C5 H5 1_555 1_555
C6 C5 1_555 1_555
H6 C6 1_555 1_555
C7 O2 1_555 1_555
C8 C7 1_555 1_555
C9 C1 1_555 1_555
C10 C4 1_555 1_555
C11 N2 1_555 1_555
C12 C11 1_555 1_555
H7 C12 1_555 1_555
C13 C12 1_555 1_555
H8 C13 1_555 1_555
C14 C13 1_555 1_555
C15 C14 1_555 1_555
H9 C15 1_555 1_555
C16 C11 1_555 1_555
H10 C16 1_555 1_555
C17 C18 1_555 1_555
C18 C21 1_555 1_555
C19 C17 1_555 1_555
H11 C19 1_555 1_555
H12 C19 1_555 1_555
H13 C19 1_555 1_555
C20 C17 1_555 1_555
H14 C20 1_555 1_555
H15 C20 1_555 1_555
H16 C20 1_555 1_555
C21 H17 1_555 1_555
H18 C21 1_555 1_555
H19 C21 1_555 1_555
C22 C18 1_555 1_555
H20 C22 1_555 1_555
H21 C22 1_555 1_555
H22 C22 1_555 1_555
C23 C8 1_555 1_555
C24 C23 1_555 1_555
H23 C24 1_555 1_555
C25 C24 1_555 1_555
H24 C25 1_555 1_555
C26 C25 1_555 1_555
C27 C26 1_555 1_555
H25 C27 1_555 1_555
C28 C23 1_555 1_555
H26 C28 1_555 1_555
C29 C30 1_555 1_555
C30 C33 1_555 1_555
C31 C29 1_555 1_555
H27 C31 1_555 1_555
H28 C31 1_555 1_555
H29 C31 1_555 1_555
C32 C29 1_555 1_555
H30 C32 1_555 1_555
H31 C32 1_555 1_555
H32 C32 1_555 1_555
C33 H33 1_555 1_555
H34 C33 1_555 1_555
H35 C33 1_555 1_555
C34 C30 1_555 1_555
H36 C34 1_555 1_555
H37 C34 1_555 1_555
H38 C34 1_555 1_555
B1 O3 1_555 1_555
B2 O5 1_555 1_555
O4 B1 1_555 1_555
O6 B2 1_555 1_555
C5 C10 1_555 1_555
C6 C7 1_555 1_555
C8 C9 1_555 1_555
C9 C10 1_555 1_555
C14 B1 1_555 1_555
C15 C16 1_555 1_555
C26 B2 1_555 1_555
C27 C28 1_555 1_555

#END
