
#######################################################################
#
#                 Cambridge Crystallographic Data Centre
#                                CCDC 
#
#######################################################################
#
# If this CIF has been generated from an entry in the Cambridge 
# Structural Database, then it will include bibliographic, chemical, 
# crystal, experimental, refinement or atomic coordinate data resulting 
# from the CCDC's data processing and validation procedures.
#
#######################################################################

data_JUQLEM
_chemical_formula_moiety         'C26 H23 N3'
_chemical_name_systematic        
4,5-Dihydro-1,3-diphenyl(4,1:5,1'')-bis(spirocyclo-propane)-(3a-H)(1,2,4)triazolo(4,3-a)quinoline
_symmetry_cell_setting           triclinic
_symmetry_space_group_name_H-M   'P -1'
_symmetry_Int_Tables_number      2
_space_group_name_Hall           '-P 1'
loop_
_symmetry_equiv_pos_site_id
_symmetry_equiv_pos_as_xyz
1 x,y,z
2 -x,-y,-z
_cell_length_a                   8.8700(3)
_cell_length_b                   10.5091(4)
_cell_length_c                   11.8888(4)
_cell_angle_alpha                78.237(2)
_cell_angle_beta                 70.699(2)
_cell_angle_gamma                72.674(2)
_cell_volume                     991.617
_exptl_crystal_colour            colorless
_exptl_crystal_description       prism
_cell_formula_units_Z            2
loop_
_atom_site_label
_atom_site_type_symbol
_atom_site_fract_x
_atom_site_fract_y
_atom_site_fract_z
N1 N 0.4473(4) 0.3692(3) 0.3628(3)
N2 N 0.3852(4) 0.3678(3) 0.4896(3)
N3 N 0.5828(4) 0.1779(3) 0.4488(3)
C1 C 0.4713(5) 0.2578(4) 0.5339(4)
C2 C 0.7145(5) 0.0632(4) 0.4583(3)
C3 C 0.8605(5) 0.0448(4) 0.3621(4)
C4 C 0.9840(6) -0.0742(4) 0.3710(4)
C5 C 0.9660(6) -0.1672(4) 0.4723(4)
C6 C 0.8221(6) -0.1469(4) 0.5662(4)
C7 C 0.6945(5) -0.0322(4) 0.5606(4)
C8 C 0.8822(5) 0.1489(4) 0.2539(3)
C9 C 1.0537(6) 0.1501(5) 0.1716(4)
C10 C 0.9409(6) 0.1013(5) 0.1299(4)
C11 C 0.7558(5) 0.2797(4) 0.2744(3)
C12 C 0.7909(6) 0.3874(4) 0.3205(4)
C13 C 0.7739(6) 0.4110(4) 0.1956(4)
C14 C 0.5868(5) 0.2513(4) 0.3302(4)
C15 C 0.3366(5) 0.4276(4) 0.2948(4)
C16 C 0.1805(5) 0.5069(4) 0.3465(4)
C17 C 0.0757(5) 0.5704(4) 0.2767(4)
C18 C 0.1232(6) 0.5578(4) 0.1552(4)
C19 C 0.2761(6) 0.4772(4) 0.1043(4)
C20 C 0.3847(5) 0.4132(4) 0.1729(4)
C21 C 0.4552(5) 0.2291(4) 0.6637(4)
C22 C 0.5649(5) 0.2651(4) 0.7071(4)
C23 C 0.5527(6) 0.2378(5) 0.8281(4)
C24 C 0.4344(6) 0.1793(5) 0.9069(4)
C25 C 0.3223(6) 0.1451(5) 0.8647(4)
C26 C 0.3352(5) 0.1704(4) 0.7442(4)
H1 H 1.0842(48) -0.0887(36) 0.2925(35)
H2 H 1.0659(53) -0.2532(42) 0.4719(35)
H3 H 0.7979(52) -0.2037(43) 0.6462(39)
H4 H 0.5800(49) -0.0235(36) 0.6379(34)
H5 H 1.0789(51) 0.2411(45) 0.1390(35)
H6 H 1.1482(59) 0.0803(47) 0.1865(39)
H7 H 0.8923(48) 0.1586(38) 0.0702(35)
H8 H 0.9744(49) -0.0016(44) 0.1257(33)
H9 H 0.9075(44) 0.3635(31) 0.3279(28)
H10 H 0.6972(46) 0.4430(35) 0.3889(32)
H11 H 0.8675(48) 0.4087(34) 0.1233(34)
H12 H 0.6707(44) 0.4753(33) 0.1844(28)
H13 H 0.5665(44) 0.1908(35) 0.2751(31)
H14 H 0.1456(39) 0.5075(31) 0.4423(30)
H15 H -0.0301(44) 0.6286(33) 0.3148(29)
H16 H 0.0422(55) 0.6033(41) 0.1029(38)
H17 H 0.3157(43) 0.4692(32) 0.0173(33)
H18 H 0.5010(43) 0.3555(33) 0.1329(29)
H19 H 0.6447(43) 0.3159(34) 0.6461(31)
H20 H 0.6262(64) 0.2661(51) 0.8554(44)
H21 H 0.4162(52) 0.1643(40) 0.9934(40)
H22 H 0.2379(59) 0.1046(46) 0.9224(41)
H23 H 0.2590(56) 0.1423(43) 0.7117(38)
loop_
_geom_bond_atom_site_label_1
_geom_bond_atom_site_label_2
_geom_bond_site_symmetry_1
_geom_bond_site_symmetry_2
N1 N2 1_555 1_555
N2 C1 1_555 1_555
N3 C1 1_555 1_555
C1 C21 1_555 1_555
C2 N3 1_555 1_555
C3 C2 1_555 1_555
C4 C3 1_555 1_555
C5 C4 1_555 1_555
C6 C5 1_555 1_555
C7 C2 1_555 1_555
C8 C3 1_555 1_555
C9 C8 1_555 1_555
C10 C8 1_555 1_555
C11 C8 1_555 1_555
C12 C11 1_555 1_555
C13 C11 1_555 1_555
C14 N1 1_555 1_555
C15 N1 1_555 1_555
C16 C15 1_555 1_555
C17 C16 1_555 1_555
C18 C17 1_555 1_555
C19 C18 1_555 1_555
C20 C15 1_555 1_555
C21 C22 1_555 1_555
C22 C23 1_555 1_555
C23 C24 1_555 1_555
C24 C25 1_555 1_555
C25 C26 1_555 1_555
C26 C21 1_555 1_555
H1 C4 1_555 1_555
H2 C5 1_555 1_555
H3 C6 1_555 1_555
H4 C7 1_555 1_555
H5 C9 1_555 1_555
H6 C9 1_555 1_555
H7 C10 1_555 1_555
H8 C10 1_555 1_555
H9 C12 1_555 1_555
H10 C12 1_555 1_555
H11 C13 1_555 1_555
H12 C13 1_555 1_555
H13 C14 1_555 1_555
H14 C16 1_555 1_555
H15 C17 1_555 1_555
H16 C18 1_555 1_555
H17 C19 1_555 1_555
H18 C20 1_555 1_555
H19 C22 1_555 1_555
H20 C23 1_555 1_555
H21 C24 1_555 1_555
H22 C25 1_555 1_555
H23 C26 1_555 1_555
N3 C14 1_555 1_555
C6 C7 1_555 1_555
C9 C10 1_555 1_555
C11 C14 1_555 1_555
C12 C13 1_555 1_555
C19 C20 1_555 1_555

#END
