
#######################################################################
#
#                 Cambridge Crystallographic Data Centre
#                                CCDC 
#
#######################################################################
#
# If this CIF has been generated from an entry in the Cambridge 
# Structural Database, then it will include bibliographic, chemical, 
# crystal, experimental, refinement or atomic coordinate data resulting 
# from the CCDC's data processing and validation procedures.
#
#######################################################################

data_JURDIL
_chemical_formula_moiety         'C18 H18 O2'
_chemical_name_systematic        
2-methyl-2-(1-(4-methylphenyl)vinyl)-2,3-dihydro-1-benzofuran-3-ol
_symmetry_cell_setting           monoclinic
_symmetry_space_group_name_H-M   'P 21/c'
_symmetry_Int_Tables_number      14
_space_group_name_Hall           '-P 2ybc'
loop_
_symmetry_equiv_pos_site_id
_symmetry_equiv_pos_as_xyz
1 x,y,z
2 -x,1/2+y,1/2-z
3 -x,-y,-z
4 x,1/2-y,1/2+z
_cell_length_a                   10.743(2)
_cell_length_b                   8.1000(16)
_cell_length_c                   16.651(3)
_cell_angle_alpha                90
_cell_angle_beta                 100.47(3)
_cell_angle_gamma                90
_cell_volume                     1424.82
_cell_formula_units_Z            4
loop_
_atom_site_label
_atom_site_type_symbol
_atom_site_fract_x
_atom_site_fract_y
_atom_site_fract_z
O1 O 0.81888(8) 0.19985(13) 0.30261(6)
O2 O 0.55868(8) 0.20374(12) 0.17295(6)
H1 H 0.5982 0.1150 0.1702
C1 C 0.85779(13) 0.25291(18) 0.23299(8)
C2 C 0.97757(13) 0.2275(2) 0.21604(9)
H2 H 1.0403 0.1681 0.2523
C3 C 1.00168(14) 0.2932(2) 0.14328(10)
H3 H 1.0832 0.2792 0.1298
C4 C 0.90960(14) 0.3788(2) 0.08965(10)
H4 H 0.9292 0.4228 0.0405
C5 C 0.78905(13) 0.40043(19) 0.10751(9)
H5 H 0.7257 0.4584 0.0710
C6 C 0.76370(12) 0.33530(17) 0.17980(8)
C7 C 0.64323(12) 0.32539(17) 0.21423(8)
H6 H 0.6006 0.4356 0.2101
C8 C 0.69885(12) 0.28579(17) 0.30532(8)
C9 C 0.73225(13) 0.44762(19) 0.35153(9)
H7 H 0.7787 0.4236 0.4066
H8 H 0.6544 0.5077 0.3553
H9 H 0.7851 0.5152 0.3223
C10 C 0.61985(12) 0.17600(17) 0.35003(8)
C11 C 0.65980(13) 0.02794(19) 0.37802(8)
H10 H 0.6117 -0.0342 0.4099
H11 H 0.7365 -0.0158 0.3661
C12 C 0.49914(12) 0.24481(17) 0.36875(8)
C13 C 0.39818(12) 0.29340(17) 0.30840(8)
H12 H 0.4073 0.2910 0.2527
C14 C 0.28441(13) 0.34522(17) 0.32853(8)
H13 H 0.2172 0.3780 0.2863
C15 C 0.26673(13) 0.35025(17) 0.40935(8)
C16 C 0.36949(14) 0.30840(18) 0.46957(9)
H14 H 0.3615 0.3155 0.5253
C17 C 0.48326(13) 0.25664(18) 0.45003(8)
H15 H 0.5516 0.2287 0.4926
C18 C 0.14071(14) 0.3980(2) 0.43033(9)
H16 H 0.1289 0.3403 0.4801
H17 H 0.0727 0.3672 0.3853
H18 H 0.1387 0.5175 0.4392
loop_
_geom_bond_atom_site_label_1
_geom_bond_atom_site_label_2
_geom_bond_site_symmetry_1
_geom_bond_site_symmetry_2
O1 C1 1_555 1_555
O2 H1 1_555 1_555
C1 C2 1_555 1_555
C2 H2 1_555 1_555
C3 C2 1_555 1_555
H3 C3 1_555 1_555
C4 C3 1_555 1_555
H4 C4 1_555 1_555
C5 C4 1_555 1_555
H5 C5 1_555 1_555
C6 C1 1_555 1_555
C7 O2 1_555 1_555
H6 C7 1_555 1_555
C8 O1 1_555 1_555
C9 C8 1_555 1_555
H7 C9 1_555 1_555
H8 C9 1_555 1_555
H9 C9 1_555 1_555
C10 C8 1_555 1_555
C11 C10 1_555 1_555
H10 C11 1_555 1_555
H11 C11 1_555 1_555
C12 C10 1_555 1_555
C13 C12 1_555 1_555
H12 C13 1_555 1_555
C14 C13 1_555 1_555
H13 C14 1_555 1_555
C15 C14 1_555 1_555
C16 C15 1_555 1_555
H14 C16 1_555 1_555
C17 C12 1_555 1_555
H15 C17 1_555 1_555
C18 C15 1_555 1_555
H16 C18 1_555 1_555
H17 C18 1_555 1_555
H18 C18 1_555 1_555
C5 C6 1_555 1_555
C6 C7 1_555 1_555
C7 C8 1_555 1_555
C16 C17 1_555 1_555

#END
