
#######################################################################
#
#                 Cambridge Crystallographic Data Centre
#                                CCDC 
#
#######################################################################
#
# If this CIF has been generated from an entry in the Cambridge 
# Structural Database, then it will include bibliographic, chemical, 
# crystal, experimental, refinement or atomic coordinate data resulting 
# from the CCDC's data processing and validation procedures.
#
#######################################################################

data_JURZAZ
_chemical_formula_moiety         'C11 H9 F3 N2 O1'
_chemical_name_systematic        
4-methyl-1-phenyl-3-(trifluoromethyl)-1H-pyrazol-5-ol
_symmetry_cell_setting           triclinic
_symmetry_space_group_name_H-M   'P -1'
_symmetry_Int_Tables_number      2
_space_group_name_Hall           '-P 1'
loop_
_symmetry_equiv_pos_site_id
_symmetry_equiv_pos_as_xyz
1 x,y,z
2 -x,-y,-z
_cell_length_a                   11.5587(13)
_cell_length_b                   11.8263(13)
_cell_length_c                   17.672(2)
_cell_angle_alpha                92.233(3)
_cell_angle_beta                 102.972(3)
_cell_angle_gamma                108.187(2)
_cell_volume                     2220.89
_exptl_crystal_colour            colorless
_exptl_crystal_description       prismatic
_cell_formula_units_Z            8
loop_
_atom_site_label
_atom_site_type_symbol
_atom_site_fract_x
_atom_site_fract_y
_atom_site_fract_z
N1 N 0.50054(18) 0.90474(17) 0.15560(11)
N2 N 0.39423(19) 0.87078(17) 0.09581(12)
O1 O 0.71262(16) 0.93607(17) 0.18069(10)
H1 H 0.7603 0.9074 0.1651
F1 F 0.2455(6) 0.8441(4) -0.0504(4)
F2 F 0.3883(4) 0.8361(4) -0.1018(2)
F3 F 0.3241(6) 0.6808(7) -0.0608(5)
C1 C 0.6004(2) 0.8985(2) 0.12999(14)
C2 C 0.5610(2) 0.8596(2) 0.05151(14)
C3 C 0.4332(2) 0.8442(2) 0.03415(14)
C4 C 0.3393(3) 0.7966(3) -0.04132(16)
C5 C 0.6413(3) 0.8457(3) -0.00170(16)
H2 H 0.7233 0.9049 0.0159
H3 H 0.6032 0.8562 -0.0539
H4 H 0.6487 0.7671 -0.0012
C6 C 0.5001(2) 0.9483(2) 0.23182(14)
C7 C 0.4453(3) 1.0354(2) 0.24042(16)
H5 H 0.4092 1.0657 0.1969
C8 C 0.4451(3) 1.0763(3) 0.31436(18)
H6 H 0.4077 1.1339 0.3209
C9 C 0.4996(3) 1.0327(3) 0.37826(18)
H7 H 0.4992 1.0613 0.4280
C10 C 0.5548(3) 0.9472(3) 0.36998(16)
H8 H 0.5925 0.9186 0.4138
C11 C 0.5537(3) 0.9041(2) 0.29611(15)
H9 H 0.5894 0.8451 0.2899
N3 N 0.44802(17) 0.58978(17) 0.33712(11)
N4 N 0.55956(17) 0.62395(17) 0.39243(11)
O2 O 0.23826(15) 0.56118(17) 0.32215(11)
H10 H 0.1933 0.5884 0.3419
F7 F 0.67245(19) 0.81732(15) 0.54387(11)
F8 F 0.59993(18) 0.66000(17) 0.59319(10)
F9 F 0.73170(17) 0.6671(2) 0.52706(11)
C12 C 0.3541(2) 0.5977(2) 0.36832(14)
C13 C 0.4033(2) 0.6394(2) 0.44667(14)
C14 C 0.5306(2) 0.6534(2) 0.45730(14)
C15 C 0.6337(2) 0.6992(2) 0.52910(15)
C16 C 0.3339(3) 0.6591(3) 0.50541(16)
H11 H 0.3348 0.7406 0.5084
H12 H 0.3740 0.6434 0.5557
H13 H 0.2486 0.6060 0.4897
C17 C 0.4406(2) 0.5463(2) 0.25877(14)
C18 C 0.4860(3) 0.4544(2) 0.24666(15)
H14 H 0.5172 0.4180 0.2886
C19 C 0.4847(3) 0.4169(3) 0.17155(18)
H15 H 0.5169 0.3560 0.1628
C20 C 0.4366(3) 0.4686(3) 0.11003(17)
H16 H 0.4355 0.4426 0.0594
C21 C 0.3898(3) 0.5587(3) 0.12257(17)
H17 H 0.3563 0.5933 0.0804
C22 C 0.3920(3) 0.5985(2) 0.19720(16)
H18 H 0.3609 0.6602 0.2058
N5 N 0.94242(17) 0.55460(16) 0.36436(11)
N6 N 1.05700(18) 0.63160(18) 0.36293(13)
O3 O 0.74663(16) 0.55024(15) 0.37110(13)
H19 H 0.7063 0.5948 0.3763
F10 F 1.1810(7) 0.9151(9) 0.4331(6)
F11 F 1.2551(5) 0.8231(6) 0.3698(4)
F12 F 1.1226(14) 0.9060(10) 0.3082(6)
C23 C 0.8620(2) 0.6151(2) 0.36861(13)
C24 C 0.9234(2) 0.7348(2) 0.36996(14)
C25 C 1.0423(2) 0.7384(2) 0.36594(16)
C26 C 1.1520(3) 0.8448(3) 0.3655(2)
C27 C 0.8706(3) 0.8357(2) 0.37343(19)
H20 H 0.8575 0.8643 0.3231
H21 H 0.9287 0.8999 0.4117
H22 H 0.7919 0.8074 0.3877
C28 C 0.9173(2) 0.4286(2) 0.36189(14)
C29 C 0.8179(3) 0.3526(2) 0.30612(16)
H23 H 0.7691 0.3834 0.2688
C30 C 0.7904(3) 0.2303(3) 0.30540(19)
H24 H 0.7228 0.1786 0.2677
C31 C 0.8624(3) 0.1849(3) 0.35994(19)
H25 H 0.8437 0.1024 0.3593
C32 C 0.9616(3) 0.2606(3) 0.41523(17)
H26 H 1.0107 0.2293 0.4520
C33 C 0.9898(3) 0.3831(2) 0.41718(15)
H27 H 1.0570 0.4344 0.4553
N7 N 0.01215(17) 0.94387(17) 0.13448(11)
N8 N -0.09461(18) 0.86865(17) 0.14857(12)
O4 O 0.19261(18) 0.94308(17) 0.10096(14)
H28 H 0.2348 0.8992 0.0991
F16 F -0.27121(19) 0.68118(16) 0.17789(14)
F17 F -0.2533(2) 0.59313(16) 0.07563(11)
F18 F -0.1521(2) 0.57641(16) 0.18660(11)
C34 C 0.0847(2) 0.8812(2) 0.11692(15)
C35 C 0.0253(2) 0.7623(2) 0.11878(15)
C36 C -0.0852(2) 0.7601(2) 0.13865(14)
C37 C -0.1894(3) 0.6543(2) 0.14480(18)
C38 C 0.0714(3) 0.6601(3) 0.1035(2)
H29 H 0.1327 0.6843 0.0734
H30 H 0.0019 0.5927 0.0750
H31 H 0.1090 0.6382 0.1523
C39 C 0.0417(2) 1.0711(2) 0.14504(14)
C40 C 0.0811(3) 1.1380(2) 0.08796(16)
H32 H 0.0861 1.1004 0.0421
C41 C 0.1130(3) 1.2605(3) 0.09906(19)
H33 H 0.1397 1.3059 0.0606
C42 C 0.1057(3) 1.3160(3) 0.1662(2)
H34 H 0.1283 1.3991 0.1738
C43 C 0.0653(4) 1.2493(3) 0.2219(2)
H35 H 0.0597 1.2869 0.2674
C44 C 0.0323(3) 1.1247(2) 0.21122(18)
H36 H 0.0042 1.0791 0.2492
F4? F 0.2778(10) 0.6824(10) -0.0491(8)
F5? F 0.2258(9) 0.7881(8) -0.0400(6)
F6? F 0.3512(17) 0.8529(19) -0.0990(11)
F13? F 1.2271(9) 0.8978(13) 0.4317(8)
F14? F 1.2271(7) 0.8155(7) 0.3215(4)
F15? F 1.1273(14) 0.9319(10) 0.3297(7)
loop_
_geom_bond_atom_site_label_1
_geom_bond_atom_site_label_2
_geom_bond_site_symmetry_1
_geom_bond_site_symmetry_2
N1 N2 1_555 1_555
N2 C3 1_555 1_555
O1 H1 1_555 1_555
F1 C4 1_555 1_555
F2 C4 1_555 1_555
F3 C4 1_555 1_555
C1 N1 1_555 1_555
C2 C1 1_555 1_555
C3 C2 1_555 1_555
C4 C3 1_555 1_555
C5 C2 1_555 1_555
H2 C5 1_555 1_555
H3 C5 1_555 1_555
H4 C5 1_555 1_555
C6 N1 1_555 1_555
C7 C6 1_555 1_555
H5 C7 1_555 1_555
C8 C7 1_555 1_555
H6 C8 1_555 1_555
C9 C8 1_555 1_555
H7 C9 1_555 1_555
C10 C9 1_555 1_555
H8 C10 1_555 1_555
C11 C6 1_555 1_555
H9 C11 1_555 1_555
N3 N4 1_555 1_555
N4 C14 1_555 1_555
O2 H10 1_555 1_555
F7 C15 1_555 1_555
F8 C15 1_555 1_555
F9 C15 1_555 1_555
C12 N3 1_555 1_555
C13 C12 1_555 1_555
C14 C13 1_555 1_555
C15 C14 1_555 1_555
C16 C13 1_555 1_555
H11 C16 1_555 1_555
H12 C16 1_555 1_555
H13 C16 1_555 1_555
C17 N3 1_555 1_555
C18 C17 1_555 1_555
H14 C18 1_555 1_555
C19 C18 1_555 1_555
H15 C19 1_555 1_555
C20 C19 1_555 1_555
H16 C20 1_555 1_555
C21 C20 1_555 1_555
H17 C21 1_555 1_555
C22 C17 1_555 1_555
H18 C22 1_555 1_555
N5 N6 1_555 1_555
N6 C25 1_555 1_555
O3 H19 1_555 1_555
F10 C26 1_555 1_555
F11 C26 1_555 1_555
F12 C26 1_555 1_555
C23 N5 1_555 1_555
C24 C23 1_555 1_555
C25 C24 1_555 1_555
C26 C25 1_555 1_555
C27 C24 1_555 1_555
H20 C27 1_555 1_555
H21 C27 1_555 1_555
H22 C27 1_555 1_555
C28 N5 1_555 1_555
C29 C28 1_555 1_555
H23 C29 1_555 1_555
C30 C29 1_555 1_555
H24 C30 1_555 1_555
C31 C30 1_555 1_555
H25 C31 1_555 1_555
C32 C31 1_555 1_555
H26 C32 1_555 1_555
C33 C28 1_555 1_555
H27 C33 1_555 1_555
N7 N8 1_555 1_555
N8 C36 1_555 1_555
O4 H28 1_555 1_555
F16 C37 1_555 1_555
F17 C37 1_555 1_555
F18 C37 1_555 1_555
C34 N7 1_555 1_555
C35 C34 1_555 1_555
C36 C35 1_555 1_555
C37 C36 1_555 1_555
C38 C35 1_555 1_555
H29 C38 1_555 1_555
H30 C38 1_555 1_555
H31 C38 1_555 1_555
C39 N7 1_555 1_555
C40 C39 1_555 1_555
H32 C40 1_555 1_555
C41 C40 1_555 1_555
H33 C41 1_555 1_555
C42 C41 1_555 1_555
H34 C42 1_555 1_555
C43 C42 1_555 1_555
H35 C43 1_555 1_555
C44 C39 1_555 1_555
H36 C44 1_555 1_555
O1 C1 1_555 1_555
C10 C11 1_555 1_555
O2 C12 1_555 1_555
C21 C22 1_555 1_555
O3 C23 1_555 1_555
C32 C33 1_555 1_555
O4 C34 1_555 1_555
C43 C44 1_555 1_555

#END
