
#######################################################################
#
#                 Cambridge Crystallographic Data Centre
#                                CCDC 
#
#######################################################################
#
# If this CIF has been generated from an entry in the Cambridge 
# Structural Database, then it will include bibliographic, chemical, 
# crystal, experimental, refinement or atomic coordinate data resulting 
# from the CCDC's data processing and validation procedures.
#
#######################################################################

data_JUSVEY
_chemical_formula_moiety         'C15 H22 O3'
_chemical_name_systematic        
(1R*,2R*,1R'*)-1-Ethynyl-1-methoxy-2-((E)-1'-acetoxybut-2'-en-1'-yl)cyclohexane
_symmetry_cell_setting           orthorhombic
_symmetry_space_group_name_H-M   'P b c a'
_symmetry_Int_Tables_number      61
_space_group_name_Hall           '-P 2ac 2ab'
loop_
_symmetry_equiv_pos_site_id
_symmetry_equiv_pos_as_xyz
1 x,y,z
2 1/2-x,1/2+y,z
3 x,1/2-y,1/2+z
4 1/2-x,-y,1/2+z
5 -x,-y,-z
6 1/2+x,1/2-y,-z
7 -x,1/2+y,1/2-z
8 1/2+x,y,1/2-z
_cell_length_a                   10.000(1)
_cell_length_b                   17.150(1)
_cell_length_c                   17.010(1)
_cell_angle_alpha                90
_cell_angle_beta                 90
_cell_angle_gamma                90
_cell_volume                     2917.22
_exptl_crystal_colour            colorless
_chemical_melting_point          86-87deg.C
_cell_formula_units_Z            8
loop_
_atom_site_label
_atom_site_type_symbol
_atom_site_fract_x
_atom_site_fract_y
_atom_site_fract_z
O1 O 0.3243(1) 0.4347(8) 0.06300(8)
O2 O 0.1867(1) 0.24247(7) 0.13353(7)
O3 O 0.2243(1) 0.20022(9) 0.01105(8)
C1 C 0.2293(1) 0.4249(1) 0.1257(1)
C2 C 0.2907(1) 0.3612(1) 0.1773(1)
C3 C 0.2131(2) 0.3520(1) 0.2546(1)
C4 C 0.1981(2) 0.4284(1) 0.2993(1)
C5 C 0.1366(2) 0.4902(1) 0.2481(1)
C6 C 0.2161(1) 0.5011(1) 0.1730(1)
C7 C 0.0976(2) 0.4015(1) 0.0944(1)
C8 C -0.0080(2) 0.3843(1) 0.0696(1)
C9 C 0.2858(2) 0.4842(1) -0.0005(1)
C10 C 0.3145(1) 0.2843(1) 0.1348(1)
C11 C 0.4157(1) 0.2321(1) 0.1727(1)
C12 C 0.5150(2) 0.2005(1) 0.1374(1)
C13 C 0.6180(2) 0.1483(1) 0.1720(1)
C14 C 0.1548(1) 0.2041(1) 0.0679(1)
C15 C 0.0198(2) 0.1669(1) 0.0754(1)
H1 H 0.380(1) 0.380(8) 0.187(8)
H2 H 0.259(1) 0.314(1) 0.283(9)
H3 H 0.129(1) 0.329(9) 0.242(1)
H4 H 0.290(1) 0.445(1) 0.316(9)
H5 H 0.148(1) 0.419(1) 0.351(1)
H6 H 0.131(1) 0.541(1) 0.275(1)
H7 H 0.044(1) 0.474(1) 0.235(1)
H8 H 0.310(1) 0.519(1) 0.1830(9)
H9 H 0.171(1) 0.538(1) 0.139(1)
H10 H -0.093(2) 0.368(1) 0.046(1)
H11 H 0.344(2) 0.481(1) -0.042(1)
H12 H 0.272(2) 0.537(1) 0.016(1)
H13 H 0.182(2) 0.465(1) -0.021(1)
H14 H 0.340(1) 0.2964(8) 0.0835(8)
H15 H 0.406(2) 0.220(1) 0.226(1)
H16 H 0.523(2) 0.214(1) 0.082(1)
H17 H 0.703(2) 0.164(1) 0.155(1)
H18 H 0.610(2) 0.098(1) 0.150(1)
H19 H 0.609(2) 0.143(1) 0.230(1)
H20 H 0.007(2) 0.135(1) 0.025(1)
H21 H -0.036(2) 0.199(1) 0.080(1)
H22 H 0.021(3) 0.135(1) 0.130(1)
loop_
_geom_bond_atom_site_label_1
_geom_bond_atom_site_label_2
_geom_bond_site_symmetry_1
_geom_bond_site_symmetry_2
O1 C1 1_555 1_555
O2 C10 1_555 1_555
O3 C14 1_555 1_555
C1 C2 1_555 1_555
C2 C3 1_555 1_555
C3 C4 1_555 1_555
C4 C5 1_555 1_555
C5 C6 1_555 1_555
C6 C1 1_555 1_555
C7 C1 1_555 1_555
C8 C7 1_555 1_555
C9 O1 1_555 1_555
C10 C2 1_555 1_555
C11 C10 1_555 1_555
C12 C11 1_555 1_555
C13 C12 1_555 1_555
C14 O2 1_555 1_555
C15 C14 1_555 1_555
H1 C2 1_555 1_555
H2 C3 1_555 1_555
H3 C3 1_555 1_555
H4 C4 1_555 1_555
H5 C4 1_555 1_555
H6 C5 1_555 1_555
H7 C5 1_555 1_555
H8 C6 1_555 1_555
H9 C6 1_555 1_555
H10 C8 1_555 1_555
H11 C9 1_555 1_555
H12 C9 1_555 1_555
H13 C9 1_555 1_555
H14 C10 1_555 1_555
H15 C11 1_555 1_555
H16 C12 1_555 1_555
H17 C13 1_555 1_555
H18 C13 1_555 1_555
H19 C13 1_555 1_555
H20 C15 1_555 1_555
H21 C15 1_555 1_555
H22 C15 1_555 1_555

#END
