
#######################################################################
#
#                 Cambridge Crystallographic Data Centre
#                                CCDC 
#
#######################################################################
#
# If this CIF has been generated from an entry in the Cambridge 
# Structural Database, then it will include bibliographic, chemical, 
# crystal, experimental, refinement or atomic coordinate data resulting 
# from the CCDC's data processing and validation procedures.
#
#######################################################################

data_JUSVOI
_chemical_formula_moiety         'C14 H18 O4'
_chemical_name_systematic        
(2R,6S,7R,8R)-7-Acetoxy-2-methoxytricyclo(6.3.0.0^2,6^)undec-11-en-10-one
_symmetry_cell_setting           orthorhombic
_symmetry_space_group_name_H-M   'P n n a'
_symmetry_Int_Tables_number      52
_space_group_name_Hall           '-P 2a 2bc'
loop_
_symmetry_equiv_pos_site_id
_symmetry_equiv_pos_as_xyz
1 x,y,z
2 -x,1/2+y,1/2+z
3 1/2+x,1/2-y,1/2+z
4 1/2-x,-y,z
5 -x,-y,-z
6 x,1/2-y,1/2-z
7 1/2-x,1/2+y,1/2-z
8 1/2+x,y,-z
_cell_length_a                   10.115(1)
_cell_length_b                   25.799(4)
_cell_length_c                   10.230(1)
_cell_angle_alpha                90
_cell_angle_beta                 90
_cell_angle_gamma                90
_cell_volume                     2669.59
_chemical_melting_point          93-95deg.C
_cell_formula_units_Z            8
loop_
_atom_site_label
_atom_site_type_symbol
_atom_site_fract_x
_atom_site_fract_y
_atom_site_fract_z
O1 O 0.5087(5) 0.1291(2) 0.3210(6)
O2 O 0.0585(4) 0.0381(1) 0.1346(4)
O3 O 0.1182(4) 0.1848(1) 0.1123(4)
O4 O -0.0570(5) 0.2324(2) 0.0550(5)
C1 C 0.3892(6) 0.1290(3) 0.3065(6)
C2 C 0.2981(6) 0.1756(2) 0.3249(7)
C3 C 0.1611(5) 0.1516(2) 0.3263(5)
C4 C 0.1818(5) 0.0968(2) 0.2786(5)
C5 C 0.3062(6) 0.0845(2) 0.2681(6)
C6 C 0.0505(6) 0.0742(2) 0.2398(6)
C7 C -0.0177(7) 0.0458(2) 0.3541(7)
C8 C -0.1616(8) 0.0632(3) 0.3447(10)
C9 C -0.1503(8) 0.1202(3) 0.3125(10)
C10 C -0.0364(5) 0.1234(2) 0.2119(6)
C11 C 0.0523(6) 0.1712(2) 0.2337(6)
C12 C 0.0500(7) 0.2162(2) 0.0297(6)
C13 C 0.1095(12) 0.0579(4) 0.0142(8)
C14 C 0.1246(10) 0.2267(5) -0.0902(8)
H1 H 0.327(5) 0.199(2) 0.256(5)
H2 H 0.316(7) 0.195(3) 0.424(8)
H3 H 0.130(3) 0.152(2) 0.422(5)
H4 H 0.334(5) 0.053(2) 0.245(6)
H5 H -0.011(6) 0.010(2) 0.337(5)
H6 H 0.017(7) 0.055(3) 0.456(7)
H7 H -0.207(7) 0.054(3) 0.416(7)
H8 H -0.208(7) 0.044(3) 0.267(7)
H9 H -0.228(7) 0.133(3) 0.278(7)
H10 H -0.143(7) 0.143(3) 0.379(7)
H11 H -0.088(6) 0.124(2) 0.122(6)
H12 H 0.002(5) 0.200(2) 0.271(5)
H13 H 0.083(9) 0.087(4) -0.020(9)
H14 H 0.205(9) 0.068(4) 0.021(9)
H15 H 0.114(10) 0.030(4) -0.055(10)
H16 H 0.232(9) 0.221(4) -0.102(9)
H17 H 0.117(10) 0.203(4) -0.157(9)
H18 H 0.127(10) 0.258(4) -0.125(10)
loop_
_geom_bond_atom_site_label_1
_geom_bond_atom_site_label_2
_geom_bond_site_symmetry_1
_geom_bond_site_symmetry_2
O1 C1 1_555 1_555
O2 C6 1_555 1_555
O3 C11 1_555 1_555
O4 C12 1_555 1_555
C1 C2 1_555 1_555
C2 C3 1_555 1_555
C3 C4 1_555 1_555
C4 C5 1_555 1_555
C5 C1 1_555 1_555
C6 C4 1_555 1_555
C7 C6 1_555 1_555
C8 C7 1_555 1_555
C9 C8 1_555 1_555
C10 C6 1_555 1_555
C11 C3 1_555 1_555
C12 O3 1_555 1_555
C13 O2 1_555 1_555
C14 C12 1_555 1_555
H1 C2 1_555 1_555
H2 C2 1_555 1_555
H3 C3 1_555 1_555
H4 C5 1_555 1_555
H5 C7 1_555 1_555
H6 C7 1_555 1_555
H7 C8 1_555 1_555
H8 C8 1_555 1_555
H9 C9 1_555 1_555
H10 C9 1_555 1_555
H11 C10 1_555 1_555
H12 C11 1_555 1_555
H13 C13 1_555 1_555
H14 C13 1_555 1_555
H15 C13 1_555 1_555
H16 C14 1_555 1_555
H17 C14 1_555 1_555
H18 C14 1_555 1_555
C9 C10 1_555 1_555
C10 C11 1_555 1_555

#END
