
#######################################################################
#
#                 Cambridge Crystallographic Data Centre
#                                CCDC 
#
#######################################################################
#
# If this CIF has been generated from an entry in the Cambridge 
# Structural Database, then it will include bibliographic, chemical, 
# crystal, experimental, refinement or atomic coordinate data resulting 
# from the CCDC's data processing and validation procedures.
#
#######################################################################

data_JUSZEE
_chemical_formula_moiety         'C35 H37 N3 O7'
_chemical_name_systematic        
4'-(2,3,5,6,8,9,11,12,14,15,17,18-Dodecahydro-1,4,7,10,13,16,19-benzoheptaoxacyclohenicosin-21-ylethynyl)-2,2':6',2''-terpyridine
_symmetry_cell_setting           monoclinic
_symmetry_space_group_name_H-M   'P n'
_symmetry_Int_Tables_number      7
_space_group_name_Hall           'P -2yac'
loop_
_symmetry_equiv_pos_site_id
_symmetry_equiv_pos_as_xyz
1 x,y,z
2 1/2+x,-y,1/2+z
_cell_length_a                   17.3554(8)
_cell_length_b                   4.7850(2)
_cell_length_c                   19.3581(9)
_cell_angle_alpha                90
_cell_angle_beta                 110.430(5)
_cell_angle_gamma                90
_cell_volume                     1506.49
_exptl_crystal_colour            colorless
_exptl_crystal_description       needle
_cell_formula_units_Z            2
loop_
_atom_site_label
_atom_site_type_symbol
_atom_site_fract_x
_atom_site_fract_y
_atom_site_fract_z
O1 O 0.37351(19) 1.0880(7) 0.58055(18)
O2 O 0.4279(2) 1.2475(8) 0.46103(19)
O3 O 0.3949(2) 1.1269(8) 0.3121(2)
O4 O 0.2620(2) 0.9328(8) 0.1786(2)
O5 O 0.1289(2) 0.7256(8) 0.2219(2)
O6 O 0.1563(2) 0.5522(8) 0.40939(19)
O7 O 0.2500(2) 0.7574(7) 0.55605(19)
N1 N 0.5638(3) -0.0887(9) 1.1032(2)
N2 N 0.3615(2) -0.3780(8) 1.0154(2)
N3 N 0.1485(3) -0.4182(9) 0.8994(2)
C1 C 0.6270(3) -0.1117(11) 1.1677(3)
H1 H 0.6724 0.0109 1.1763
C2 C 0.6299(3) -0.3008(11) 1.2219(3)
H2 H 0.6753 -0.3045 1.2669
C3 C 0.5649(3) -0.4868(11) 1.2094(3)
H3 H 0.5652 -0.6226 1.2453
C4 C 0.4993(3) -0.4686(11) 1.1429(3)
H4 H 0.4543 -0.5942 1.1322
C5 C 0.5006(3) -0.2647(10) 1.0923(3)
C6 C 0.4289(3) -0.2250(10) 1.0224(3)
C7 C 0.4331(3) -0.0357(11) 0.9696(3)
H5 H 0.4819 0.0681 0.9764
C8 C 0.3632(3) -0.0010(10) 0.9055(3)
C9 C 0.2934(3) -0.1572(10) 0.8983(3)
H6 H 0.2455 -0.1392 0.8556
C10 C 0.2944(3) -0.3392(10) 0.9541(3)
C11 C 0.2199(3) -0.5003(11) 0.9508(3)
C12 C 0.2245(3) -0.7181(10) 0.9993(3)
H7 H 0.2759 -0.7717 1.0344
C13 C 0.1535(3) -0.8561(12) 0.9960(3)
H8 H 0.1554 -1.0067 1.0285
C14 C 0.0788(3) -0.7702(12) 0.9439(3)
H9 H 0.0287 -0.8600 0.9400
C15 C 0.0804(3) -0.5521(12) 0.8986(3)
H10 H 0.0294 -0.4912 0.8640
C16 C 0.3655(3) 0.1941(10) 0.8495(3)
C17 C 0.3680(3) 0.3549(10) 0.8034(3)
C18 C 0.3714(3) 0.5445(10) 0.7471(3)
C19 C 0.4380(3) 0.7244(10) 0.7589(3)
H11 H 0.4816 0.7231 0.8052
C20 C 0.4414(3) 0.9034(10) 0.7045(3)
H12 H 0.4880 1.0205 0.7130
C21 C 0.3769(3) 0.9143(10) 0.6372(3)
C22 C 0.3093(3) 0.7346(10) 0.6246(3)
C23 C 0.3071(3) 0.5514(10) 0.6787(3)
H13 H 0.2616 0.4286 0.6696
C24 C 0.4452(3) 1.2546(10) 0.5903(3)
H14 H 0.4939 1.1327 0.5996
H15 H 0.4554 1.3807 0.6332
C25 C 0.4310(3) 1.4223(11) 0.5216(3)
H16 H 0.3785 1.5258 0.5095
H17 H 0.4758 1.5605 0.5303
C26 C 0.3470(3) 1.1922(12) 0.4122(3)
H18 H 0.3197 1.3692 0.3903
H19 H 0.3145 1.1050 0.4395
C27 C 0.3508(3) 1.0003(12) 0.3528(3)
H20 H 0.3781 0.8237 0.3748
H21 H 0.2943 0.9554 0.3195
C28 C 0.4076(3) 0.9432(13) 0.2594(3)
H22 H 0.4051 0.7477 0.2752
H23 H 0.4633 0.9751 0.2576
C29 C 0.3448(3) 0.9835(12) 0.1833(3)
H24 H 0.3489 1.1775 0.1672
H25 H 0.3582 0.8564 0.1487
C30 C 0.2433(3) 0.6429(12) 0.1775(3)
H26 H 0.2769 0.5561 0.2248
H27 H 0.2567 0.5497 0.1374
C31 C 0.1534(3) 0.6051(13) 0.1653(3)
H28 H 0.1206 0.6905 0.1174
H29 H 0.1408 0.4027 0.1621
C32 C 0.1498(3) 0.5530(11) 0.2858(3)
H30 H 0.2097 0.5168 0.3053
H31 H 0.1208 0.3716 0.2736
C33 C 0.1243(3) 0.7061(11) 0.3424(3)
H32 H 0.1467 0.8984 0.3493
H33 H 0.0636 0.7170 0.3264
C34 C 0.1236(3) 0.6484(12) 0.4628(3)
H34 H 0.0688 0.5638 0.4535
H35 H 0.1169 0.8539 0.4592
C35 C 0.1808(3) 0.5695(11) 0.5389(3)
H36 H 0.1528 0.5902 0.5753
H37 H 0.1992 0.3732 0.5397
loop_
_geom_bond_atom_site_label_1
_geom_bond_atom_site_label_2
_geom_bond_site_symmetry_1
_geom_bond_site_symmetry_2
O1 C21 1_555 1_555
O2 C25 1_555 1_555
O3 C27 1_555 1_555
O4 C29 1_555 1_555
O5 C31 1_555 1_555
O6 C33 1_555 1_555
O7 C22 1_555 1_555
N1 C1 1_555 1_555
N2 C6 1_555 1_555
N3 C11 1_555 1_555
C1 H1 1_555 1_555
C2 C1 1_555 1_555
H2 C2 1_555 1_555
C3 C2 1_555 1_555
H3 C3 1_555 1_555
C4 C3 1_555 1_555
H4 C4 1_555 1_555
C5 N1 1_555 1_555
C6 C5 1_555 1_555
C7 C6 1_555 1_555
H5 C7 1_555 1_555
C8 C7 1_555 1_555
C9 C8 1_555 1_555
H6 C9 1_555 1_555
C10 N2 1_555 1_555
C11 C10 1_555 1_555
C12 C11 1_555 1_555
H7 C12 1_555 1_555
C13 C12 1_555 1_555
H8 C13 1_555 1_555
C14 C13 1_555 1_555
H9 C14 1_555 1_555
C15 N3 1_555 1_555
H10 C15 1_555 1_555
C16 C8 1_555 1_555
C17 C16 1_555 1_555
C18 C17 1_555 1_555
C19 C18 1_555 1_555
H11 C19 1_555 1_555
C20 C19 1_555 1_555
H12 C20 1_555 1_555
C21 C20 1_555 1_555
C22 C21 1_555 1_555
C23 C18 1_555 1_555
H13 C23 1_555 1_555
C24 O1 1_555 1_555
H14 C24 1_555 1_555
H15 C24 1_555 1_555
C25 C24 1_555 1_555
H16 C25 1_555 1_555
H17 C25 1_555 1_555
C26 O2 1_555 1_555
H18 C26 1_555 1_555
H19 C26 1_555 1_555
C27 C26 1_555 1_555
H20 C27 1_555 1_555
H21 C27 1_555 1_555
C28 O3 1_555 1_555
H22 C28 1_555 1_555
H23 C28 1_555 1_555
C29 C28 1_555 1_555
H24 C29 1_555 1_555
H25 C29 1_555 1_555
C30 O4 1_555 1_555
H26 C30 1_555 1_555
H27 C30 1_555 1_555
C31 C30 1_555 1_555
H28 C31 1_555 1_555
H29 C31 1_555 1_555
C32 O5 1_555 1_555
H30 C32 1_555 1_555
H31 C32 1_555 1_555
C33 C32 1_555 1_555
H32 C33 1_555 1_555
H33 C33 1_555 1_555
C34 O6 1_555 1_555
H34 C34 1_555 1_555
H35 C34 1_555 1_555
C35 O7 1_555 1_555
H36 C35 1_555 1_555
H37 C35 1_555 1_555
C4 C5 1_555 1_555
C9 C10 1_555 1_555
C14 C15 1_555 1_555
C22 C23 1_555 1_555
C34 C35 1_555 1_555

#END
