
#######################################################################
#
#                 Cambridge Crystallographic Data Centre
#                                CCDC 
#
#######################################################################
#
# If this CIF has been generated from an entry in the Cambridge 
# Structural Database, then it will include bibliographic, chemical, 
# crystal, experimental, refinement or atomic coordinate data resulting 
# from the CCDC's data processing and validation procedures.
#
#######################################################################

data_JUVCAG
_chemical_formula_moiety         'C22 H18 N2 O4'
_chemical_name_systematic        
2-(2-Aminoethyl)-3',6'-dihydroxyspiro[isoindole-1,9'-xanthen]-3(2H)-one
_symmetry_cell_setting           orthorhombic
_symmetry_space_group_name_H-M   'P b c n'
_symmetry_Int_Tables_number      60
_space_group_name_Hall           '-P 2n 2ab'
loop_
_symmetry_equiv_pos_site_id
_symmetry_equiv_pos_as_xyz
1 x,y,z
2 1/2-x,1/2-y,1/2+z
3 -x,y,1/2-z
4 1/2+x,1/2-y,-z
5 -x,-y,-z
6 1/2+x,1/2+y,1/2-z
7 x,-y,1/2+z
8 1/2-x,1/2+y,z
_cell_length_a                   14.6159(5)
_cell_length_b                   9.9444(3)
_cell_length_c                   28.7738(12)
_cell_angle_alpha                90
_cell_angle_beta                 90
_cell_angle_gamma                90
_cell_volume                     4182.17
_exptl_crystal_colour            'pale green'
_exptl_crystal_description       plate
_cell_formula_units_Z            8
loop_
_atom_site_label
_atom_site_type_symbol
_atom_site_fract_x
_atom_site_fract_y
_atom_site_fract_z
C1 C 0.97222(14) 0.6621(2) 0.63410(7)
C2 C 0.92577(15) 0.6402(2) 0.58758(8)
C3 C 0.89179(18) 0.7487(2) 0.56243(8)
H1 H 0.8956 0.8363 0.5755
C4 C 0.85284(19) 0.7333(3) 0.51926(9)
H2 H 0.8299 0.8094 0.5030
C5 C 0.84709(17) 0.6060(2) 0.49941(9)
C6 C 0.87895(17) 0.4965(2) 0.52407(8)
H3 H 0.8739 0.4088 0.5113
C7 C 0.91828(15) 0.5145(2) 0.56743(8)
O1 O 0.94831(12) 0.39864(14) 0.58900(6)
C8 C 0.99346(15) 0.4103(2) 0.63086(8)
C9 C 1.02376(15) 0.2890(2) 0.64935(8)
H4 H 1.0117 0.2068 0.6337
C10 C 1.07172(14) 0.2894(2) 0.69087(8)
C11 C 1.08699(15) 0.4103(2) 0.71417(8)
H5 H 1.1193 0.4111 0.7428
C12 C 1.05506(14) 0.5277(2) 0.69538(7)
H6 H 1.0654 0.6097 0.7115
C13 C 1.00777(14) 0.5306(2) 0.65330(7)
O2 O 0.81060(14) 0.58594(17) 0.45649(6)
H7 H 0.8035 0.6604 0.4432
O3 O 1.10389(11) 0.17527(15) 0.71093(5)
H8 H 1.0901 0.1088 0.6943
C14 C 0.91163(14) 0.7348(2) 0.66898(7)
C15 C 0.83199(15) 0.6901(2) 0.68985(8)
H9 H 0.8067 0.6049 0.6823
C16 C 0.79026(16) 0.7731(2) 0.72209(9)
H10 H 0.7362 0.7439 0.7374
C17 C 0.82665(16) 0.8993(2) 0.73241(9)
H11 H 0.7966 0.9551 0.7545
C18 C 0.90549(16) 0.9448(2) 0.71119(8)
H12 H 0.9298 1.0312 0.7179
C19 C 0.94803(15) 0.8594(2) 0.67960(8)
C20 C 1.03402(15) 0.8758(2) 0.65331(8)
O4 O 1.08685(11) 0.97405(14) 0.65223(6)
N1 N 1.04710(12) 0.76220(17) 0.62901(6)
C21 C 1.12430(15) 0.7405(2) 0.59802(7)
H13 H 1.1358 0.8239 0.5801
H14 H 1.1085 0.6686 0.5756
C22 C 1.21087(16) 0.7015(3) 0.62360(8)
H15 H 1.2297 0.7747 0.6449
H16 H 1.2003 0.6192 0.6422
N2 N 1.28261(14) 0.6773(2) 0.58875(7)
H17 H 1.2687(17) 0.599(3) 0.5693(9)
H18 H 1.3353(18) 0.646(3) 0.6028(9)
loop_
_geom_bond_atom_site_label_1
_geom_bond_atom_site_label_2
_geom_bond_site_symmetry_1
_geom_bond_site_symmetry_2
C1 C2 1_555 1_555
C2 C3 1_555 1_555
C3 H1 1_555 1_555
C4 C3 1_555 1_555
H2 C4 1_555 1_555
C5 C4 1_555 1_555
C6 C5 1_555 1_555
H3 C6 1_555 1_555
C7 C2 1_555 1_555
O1 C7 1_555 1_555
C8 O1 1_555 1_555
C9 C8 1_555 1_555
H4 C9 1_555 1_555
C10 C9 1_555 1_555
C11 C10 1_555 1_555
H5 C11 1_555 1_555
C12 C11 1_555 1_555
H6 C12 1_555 1_555
C13 C1 1_555 1_555
O2 C5 1_555 1_555
H7 O2 1_555 1_555
O3 C10 1_555 1_555
H8 O3 1_555 1_555
C14 C1 1_555 1_555
C15 C14 1_555 1_555
H9 C15 1_555 1_555
C16 C15 1_555 1_555
H10 C16 1_555 1_555
C17 C16 1_555 1_555
H11 C17 1_555 1_555
C18 C17 1_555 1_555
H12 C18 1_555 1_555
C19 C14 1_555 1_555
C20 C19 1_555 1_555
O4 C20 1_555 1_555
N1 C1 1_555 1_555
C21 N1 1_555 1_555
H13 C21 1_555 1_555
H14 C21 1_555 1_555
C22 C21 1_555 1_555
H15 C22 1_555 1_555
H16 C22 1_555 1_555
N2 C22 1_555 1_555
H17 N2 1_555 1_555
H18 N2 1_555 1_555
C6 C7 1_555 1_555
C8 C13 1_555 1_555
C12 C13 1_555 1_555
C18 C19 1_555 1_555
C20 N1 1_555 1_555

#END
