
#######################################################################
#
#                 Cambridge Crystallographic Data Centre
#                                CCDC 
#
#######################################################################
#
# If this CIF has been generated from an entry in the Cambridge 
# Structural Database, then it will include bibliographic, chemical, 
# crystal, experimental, refinement or atomic coordinate data resulting 
# from the CCDC's data processing and validation procedures.
#
#######################################################################

data_JUVREX
_chemical_compound_source        'Tripterygium Wilfordii Hook. f'
_chemical_formula_moiety         'C20 H26 O8'
_chemical_name_systematic        Triptetraolide
_symmetry_cell_setting           monoclinic
_symmetry_space_group_name_H-M   'C 2'
_symmetry_Int_Tables_number      5
_space_group_name_Hall           'C 2y'
loop_
_symmetry_equiv_pos_site_id
_symmetry_equiv_pos_as_xyz
1 x,y,z
2 1/2+x,1/2+y,z
3 -x,y,-z
4 1/2-x,1/2+y,-z
_cell_length_a                   11.925(7)
_cell_length_b                   6.688(6)
_cell_length_c                   22.902(5)
_cell_angle_alpha                90
_cell_angle_beta                 100.73(3)
_cell_angle_gamma                90
_cell_volume                     1794.6
_chemical_melting_point          258-260deg.C
_cell_formula_units_Z            4
loop_
_atom_site_label
_atom_site_type_symbol
_atom_site_fract_x
_atom_site_fract_y
_atom_site_fract_z
O1 O 0.8312(5) -0.1582 0.5075(2)
O2 O 0.6595(5) -0.128(2) 0.5325(2)
O3 O 0.8439(4) 0.103(1) 0.2257(2)
O4 O 0.5799(4) 0.080(1) 0.2012(2)
O5 O 0.5111(4) -0.140(2) 0.0959(2)
O6 O 0.7023(4) -0.453(1) 0.1998(2)
O7 O 0.7292(4) -0.017(1) 0.1096(2)
O8 O 0.7831(4) -0.610(1) 0.1137(2)
C1 C 0.5637(5) -0.085(2) 0.3286(3)
C2 C 0.5682(6) -0.055(2) 0.3961(3)
C3 C 0.6827(6) -0.109(2) 0.4292(3)
C4 C 0.7735(6) -0.134(2) 0.4059(3)
C5 C 0.7732(5) -0.136(2) 0.3400(3)
C6 C 0.8871(5) -0.071(2) 0.3241(3)
C7 C 0.8810(5) -0.076(2) 0.2581(3)
C8 C 0.7696(6) -0.071(2) 0.2165(3)
C9 C 0.6615(6) -0.049(2) 0.2403(3)
C10 C 0.6718(6) 0.008(2) 0.3073(3)
C11 C 0.5595(5) -0.131(2) 0.2028(3)
C12 C 0.5597(6) -0.254(2) 0.1468(3)
C13 C 0.6799(6) -0.337(2) 0.1468(3)
C14 C 0.7651(5) -0.161(2) 0.1550(3)
C15 C 0.6881(7) -0.457(2) 0.0923(3)
C16 C 0.7110(7) -0.368(2) 0.0365(3)
C17 C 0.5835(6) -0.609(2) 0.0783(3)
C18 C 0.7152(7) -0.132(2) 0.4942(3)
C19 C 0.8770(7) -0.167(2) 0.4530(3)
C20 C 0.6891(7) 0.214(2) 0.3208(3)
H1 H 0.5300 -0.1506 0.0562
H2 H 0.7796 -0.4637 0.2079
H4 H 0.8396 -0.5908 0.0980
H3? H 0.7488 -0.1126 0.1256
loop_
_geom_bond_atom_site_label_1
_geom_bond_atom_site_label_2
_geom_bond_site_symmetry_1
_geom_bond_site_symmetry_2
O1 C18 1_555 1_555
O2 C18 1_555 1_555
O3 C7 1_555 1_555
O4 C9 1_555 1_555
O5 C12 1_555 1_555
O6 C13 1_555 1_555
O7 C14 1_555 1_555
O8 C15 1_555 1_555
C1 C2 1_555 1_555
C2 C3 1_555 1_555
C3 C4 1_555 1_555
C4 C5 1_555 1_555
C5 C6 1_555 1_555
C6 C7 1_555 1_555
C7 C8 1_555 1_555
C8 O3 1_555 1_555
C9 C8 1_555 1_555
C10 C1 1_555 1_555
C11 O4 1_555 1_555
C12 C11 1_555 1_555
C13 C12 1_555 1_555
C14 C8 1_555 1_555
C15 C13 1_555 1_555
C16 C15 1_555 1_555
C17 C15 1_555 1_555
C18 C3 1_555 1_555
C19 O1 1_555 1_555
C20 C10 1_555 1_555
H1 O5 1_555 1_555
H2 O6 1_555 1_555
H4 O8 1_555 1_555
C4 C19 1_555 1_555
C5 C10 1_555 1_555
C9 C10 1_555 1_555
C9 C11 1_555 1_555
C13 C14 1_555 1_555

#END
