
#######################################################################
#
#                 Cambridge Crystallographic Data Centre
#                                CCDC 
#
#######################################################################
#
# If this CIF has been generated from an entry in the Cambridge 
# Structural Database, then it will include bibliographic, chemical, 
# crystal, experimental, refinement or atomic coordinate data resulting 
# from the CCDC's data processing and validation procedures.
#
#######################################################################

data_JUWCAF
_chemical_formula_moiety         'C29 H42 O9'
_chemical_name_systematic        'Ajugavensin B'
_symmetry_cell_setting           orthorhombic
_symmetry_space_group_name_H-M   'P 21 21 21'
_symmetry_Int_Tables_number      19
_space_group_name_Hall           'P 2ac 2ab'
loop_
_symmetry_equiv_pos_site_id
_symmetry_equiv_pos_as_xyz
1 x,y,z
2 1/2+x,1/2-y,-z
3 -x,1/2+y,1/2-z
4 1/2-x,-y,1/2+z
_cell_length_a                   19.166(2)
_cell_length_b                   12.323(1)
_cell_length_c                   12.095(1)
_cell_angle_alpha                90
_cell_angle_beta                 90
_cell_angle_gamma                90
_cell_volume                     2856.63
_exptl_crystal_colour            colorless
_cell_formula_units_Z            4
loop_
_atom_site_label
_atom_site_type_symbol
_atom_site_fract_x
_atom_site_fract_y
_atom_site_fract_z
C1 C 0.9444(1) 0.4050(2) 0.5737(2)
C2 C 0.9873(1) 0.3022(2) 0.5873(2)
C3 C 0.9452(1) 0.1981(2) 0.5670(2)
C4 C 0.8671(1) 0.2156(2) 0.5795(2)
C5 C 0.8483(1) 0.2917(1) 0.6750(2)
C6 C 0.7691(1) 0.3052(2) 0.6938(2)
C7 C 0.7537(1) 0.3903(2) 0.7796(2)
C8 C 0.7813(1) 0.5027(2) 0.7479(2)
C9 C 0.8605(1) 0.5039(1) 0.7134(2)
C10 C 0.8720(1) 0.4071(1) 0.6324(1)
C11 C 0.8709(1) 0.6158(2) 0.6574(2)
C12 C 0.8368(1) 0.6388(2) 0.5463(2)
C13 C 0.8816(2) 0.7300(2) 0.4983(2)
C14 C 0.8561(3) 0.8447(3) 0.5253(6)
C15 C 0.9027(3) 0.8883(3) 0.5969(5)
C16 C 0.9499(1) 0.7229(2) 0.5635(2)
C17 C 0.7631(2) 0.5819(3) 0.8420(3)
C18 C 0.8226(1) 0.2049(2) 0.4821(2)
C19 C 0.8841(1) 0.2528(2) 0.7816(2)
C20 C 0.9096(1) 0.5012(2) 0.8141(2)
C21 C 0.8430(1) 0.1052(2) 0.8886(2)
C22 C 0.8353(2) -0.0162(3) 0.8910(3)
C23 C 0.6848(2) 0.1636(2) 0.6750(2)
C24 C 0.6686(2) 0.0498(3) 0.7117(4)
C25 C 0.9720(1) 0.4742(2) 0.3935(2)
C26 C 0.9522(2) 0.4721(4) 0.2737(3)
C27 C 0.9185(3) 0.3887(7) 0.2326(3)
C28 C 0.9005(3) 0.3787(8) 0.1139(4)
C29 C 0.9806(4) 0.5698(6) 0.2105(5)
O1 O 0.8264(1) 0.1191(1) 0.5622(1)
O2 O 0.8749(1) 0.1374(1) 0.7953(1)
O3 O 0.9438(1) 0.6369(1) 0.6389(1)
O4 O 0.9576(1) 0.8224(1) 0.6194(2)
O5 O 0.7394(1) 0.2033(1) 0.7316(1)
O6 O 0.9283(1) 0.4158(1) 0.4558(1)
O7 O 1.0215(1) 0.5228(2) 0.4303(2)
O8 O 0.8239(1) 0.1640(2) 0.9601(2)
O9 O 0.6560(1) 0.2111(2) 0.6027(2)
H1 H 0.972 0.471 0.590
H2 H 1.028 0.312 0.532
H3 H 1.010 0.300 0.662
H4 H 0.955 0.181 0.478
H5 H 0.962 0.132 0.628
H6 H 0.746 0.325 0.613
H7 H 0.701 0.390 0.797
H8 H 0.776 0.369 0.860
H9 H 0.755 0.522 0.669
H10 H 0.843 0.424 0.563
H11 H 0.850 0.673 0.717
H12 H 0.781 0.660 0.563
H13 H 0.835 0.575 0.498
H14 H 0.879 0.731 0.415
H15 H 0.806 0.847 0.560
H16 H 0.847 0.895 0.462
H17 H 0.879 0.914 0.671
H18 H 0.918 0.964 0.573
H19 H 1.002 0.712 0.522
H20 H 0.776 0.659 0.827
H21 H 0.713 0.590 0.859
H22 H 0.785 0.552 0.917
H23 H 0.843 0.189 0.405
H24 H 0.777 0.245 0.475
H25 H 0.935 0.271 0.776
H26 H 0.864 0.289 0.852
H27 H 0.959 0.488 0.774
H28 H 0.909 0.573 0.856
H29 H 0.893 0.442 0.870
H30 H 0.882 -0.054 0.886
H31 H 0.806 -0.042 0.827
H32 H 0.812 -0.043 0.961
H33 H 0.657 0.049 0.793
H34 H 0.710 0.002 0.699
H35 H 0.628 0.019 0.670
H36 H 0.918 0.328 0.300
H37 H 0.944 0.384 0.066
H38 H 0.870 0.446 0.090
H39 H 0.873 0.316 0.079
H40 H 1.033 0.569 0.217
H41 H 0.962 0.637 0.245
H42 H 0.969 0.570 0.131
loop_
_geom_bond_atom_site_label_1
_geom_bond_atom_site_label_2
_geom_bond_site_symmetry_1
_geom_bond_site_symmetry_2
C1 C2 1_555 1_555
C2 C3 1_555 1_555
C3 C4 1_555 1_555
C4 C5 1_555 1_555
C5 C6 1_555 1_555
C6 C7 1_555 1_555
C7 C8 1_555 1_555
C8 C9 1_555 1_555
C9 C10 1_555 1_555
C10 C1 1_555 1_555
C11 C9 1_555 1_555
C12 C11 1_555 1_555
C13 C12 1_555 1_555
C14 C13 1_555 1_555
C15 C14 1_555 1_555
C16 C13 1_555 1_555
C17 C8 1_555 1_555
C18 C4 1_555 1_555
C19 C5 1_555 1_555
C20 C9 1_555 1_555
C21 C22 1_555 1_555
C22 H30 1_555 1_555
C23 C24 1_555 1_555
C24 H33 1_555 1_555
C25 C26 1_555 1_555
C26 C27 1_555 1_555
C27 C28 1_555 1_555
C28 H37 1_555 1_555
C29 C26 1_555 1_555
O1 C4 1_555 1_555
O2 C19 1_555 1_555
O3 C11 1_555 1_555
O4 C15 1_555 1_555
O5 C6 1_555 1_555
O6 C1 1_555 1_555
O7 C25 1_555 1_555
O8 C21 1_555 1_555
O9 C23 1_555 1_555
H1 C1 1_555 1_555
H2 C2 1_555 1_555
H3 C2 1_555 1_555
H4 C3 1_555 1_555
H5 C3 1_555 1_555
H6 C6 1_555 1_555
H7 C7 1_555 1_555
H8 C7 1_555 1_555
H9 C8 1_555 1_555
H10 C10 1_555 1_555
H11 C11 1_555 1_555
H12 C12 1_555 1_555
H13 C12 1_555 1_555
H14 C13 1_555 1_555
H15 C14 1_555 1_555
H16 C14 1_555 1_555
H17 C15 1_555 1_555
H18 C15 1_555 1_555
H19 C16 1_555 1_555
H20 C17 1_555 1_555
H21 C17 1_555 1_555
H22 C17 1_555 1_555
H23 C18 1_555 1_555
H24 C18 1_555 1_555
H25 C19 1_555 1_555
H26 C19 1_555 1_555
H27 C20 1_555 1_555
H28 C20 1_555 1_555
H29 C20 1_555 1_555
H31 C22 1_555 1_555
H32 C22 1_555 1_555
H34 C24 1_555 1_555
H35 C24 1_555 1_555
H36 C27 1_555 1_555
H38 C28 1_555 1_555
H39 C28 1_555 1_555
H40 C29 1_555 1_555
H41 C29 1_555 1_555
H42 C29 1_555 1_555
C5 C10 1_555 1_555
C16 O3 1_555 1_555
C16 O4 1_555 1_555
C18 O1 1_555 1_555
C21 O2 1_555 1_555
C23 O5 1_555 1_555
C25 O6 1_555 1_555

#END
