
#######################################################################
#
#                 Cambridge Crystallographic Data Centre
#                                CCDC 
#
#######################################################################
#
# If this CIF has been generated from an entry in the Cambridge 
# Structural Database, then it will include bibliographic, chemical, 
# crystal, experimental, refinement or atomic coordinate data resulting 
# from the CCDC's data processing and validation procedures.
#
#######################################################################

data_JUWQID
_chemical_formula_moiety         'C78 H22 O4,C1 S2'
_chemical_name_systematic        
'15,18-bis(2,5-Dimethoxybenzyl)-C60fullerene carbon disulfide solvate'
_symmetry_cell_setting           monoclinic
_symmetry_space_group_name_H-M   'P 21/c'
_symmetry_Int_Tables_number      14
_space_group_name_Hall           '-P 2ybc'
loop_
_symmetry_equiv_pos_site_id
_symmetry_equiv_pos_as_xyz
1 x,y,z
2 -x,1/2+y,1/2-z
3 -x,-y,-z
4 x,1/2-y,1/2+z
_cell_length_a                   22.5676(11)
_cell_length_b                   10.4737(5)
_cell_length_c                   19.3379(10)
_cell_angle_alpha                90
_cell_angle_beta                 91.007(4)
_cell_angle_gamma                90
_cell_volume                     4570.12
_exptl_crystal_colour            'black red'
_exptl_crystal_description       platelet
_cell_formula_units_Z            4
loop_
_atom_site_label
_atom_site_type_symbol
_atom_site_fract_x
_atom_site_fract_y
_atom_site_fract_z
O1 O 0.71989(19) 1.2300(4) 0.53917(19)
O2 O 0.48859(18) 1.1766(4) 0.62060(18)
O3 O 0.43171(18) 0.8426(4) 0.70087(18)
O4 O 0.61397(18) 0.6331(4) 0.55166(18)
C1 C 0.8404(3) 0.8685(6) 0.5985(2)
C2 C 0.8832(3) 0.7716(7) 0.6183(3)
C3 C 0.9310(3) 0.8340(7) 0.6576(3)
C4 C 0.9173(3) 0.9672(7) 0.6625(3)
C5 C 0.8615(3) 0.9884(7) 0.6253(3)
C6 C 0.8211(3) 1.0743(6) 0.6504(3)
C7 C 0.8352(3) 1.1462(6) 0.7144(3)
C8 C 0.8891(3) 1.1270(6) 0.7496(3)
C9 C 0.9308(3) 1.0331(7) 0.7231(3)
C10 C 0.9576(3) 0.9672(7) 0.7815(3)
C11 C 0.9707(3) 0.8389(7) 0.7767(3)
C12 C 0.9569(3) 0.7710(7) 0.7129(3)
C13 C 0.9368(3) 0.6428(7) 0.7332(3)
C14 C 0.8915(3) 0.5849(7) 0.6962(3)
C15 C 0.8645(3) 0.6501(7) 0.6370(3)
C16 C 0.8024(3) 0.6208(6) 0.6366(3)
C17 C 0.7612(3) 0.7137(6) 0.6187(2)
C18 C 0.7803(3) 0.8397(6) 0.5996(2)
C19 C 0.7379(2) 0.9327(6) 0.6235(2)
C20 C 0.7581(3) 1.0471(6) 0.6479(2)
C21 C 0.7280(3) 1.1244(6) 0.7044(3)
C22 C 0.7818(3) 1.1625(6) 0.7502(3)
C23 C 0.7822(3) 1.1547(6) 0.8212(3)
C24 C 0.8373(3) 1.1322(6) 0.8589(3)
C25 C 0.8902(3) 1.1199(6) 0.8235(3)
C26 C 0.9331(3) 1.0221(7) 0.8438(3)
C27 C 0.9220(3) 0.9438(7) 0.8984(3)
C28 C 0.9349(3) 0.8070(6) 0.8942(3)
C29 C 0.9590(3) 0.7553(7) 0.8346(3)
C30 C 0.9374(3) 0.6353(7) 0.8090(3)
C31 C 0.8932(3) 0.5687(6) 0.8430(3)
C32 C 0.8456(3) 0.5070(6) 0.8039(3)
C33 C 0.8455(3) 0.5159(6) 0.7318(3)
C34 C 0.7905(3) 0.5380(6) 0.6944(3)
C35 C 0.7382(3) 0.5537(6) 0.7305(3)
C36 C 0.6951(3) 0.6502(6) 0.7106(3)
C37 C 0.7055(3) 0.7277(6) 0.6551(3)
C38 C 0.6823(2) 0.8657(5) 0.6483(2)
C39 C 0.6690(3) 0.9189(6) 0.7205(3)
C40 C 0.6895(3) 1.0335(6) 0.7443(3)
C41 C 0.6910(3) 1.0273(7) 0.8210(3)
C42 C 0.6707(3) 0.9003(6) 0.8418(3)
C43 C 0.6577(3) 0.8335(6) 0.7781(3)
C44 C 0.6697(3) 0.7041(6) 0.7733(3)
C45 C 0.6970(3) 0.6369(6) 0.8322(3)
C46 C 0.7388(3) 0.5454(6) 0.8046(3)
C47 C 0.7911(3) 0.5232(6) 0.8407(3)
C48 C 0.8057(3) 0.5943(6) 0.9044(3)
C49 C 0.8684(3) 0.6233(6) 0.9054(3)
C50 C 0.8894(3) 0.7399(7) 0.9302(3)
C51 C 0.8476(3) 0.8327(6) 0.9566(2)
C52 C 0.8668(3) 0.9585(7) 0.9369(3)
C53 C 0.8246(3) 1.0501(6) 0.9174(3)
C54 C 0.7631(3) 1.0200(6) 0.9173(3)
C55 C 0.7352(3) 1.0847(6) 0.8579(3)
C56 C 0.7440(3) 0.8978(7) 0.9364(3)
C57 C 0.6964(3) 0.8368(7) 0.8976(3)
C58 C 0.7099(3) 0.7041(7) 0.8924(3)
C59 C 0.7658(3) 0.6823(7) 0.9292(3)
C60 C 0.7874(3) 0.8022(6) 0.9560(2)
C61 C 0.6952(3) 1.2470(6) 0.6783(3)
H1 H 0.6774 1.2905 0.7184
H2 H 0.7246 1.3058 0.6583
C62 C 0.6470(3) 1.2217(6) 0.6248(3)
C63 C 0.5893(3) 1.2086(6) 0.6439(3)
H3 H 0.5795 1.2137 0.6914
C64 C 0.5442(3) 1.1878(6) 0.5943(3)
C65 C 0.5586(3) 1.1793(6) 0.5253(3)
H4 H 0.5283 1.1657 0.4913
C66 C 0.6167(3) 1.1904(6) 0.5055(3)
H5 H 0.6263 1.1833 0.4580
C67 C 0.6612(3) 1.2117(6) 0.5541(3)
C68 C 0.7419(3) 1.1635(7) 0.4800(3)
H6 H 0.7310 1.0731 0.4829
H7 H 0.7851 1.1713 0.4791
H8 H 0.7246 1.2006 0.4378
C69 C 0.4422(3) 1.1449(8) 0.5731(3)
H9 H 0.4347 1.2172 0.5420
H10 H 0.4061 1.1254 0.5985
H11 H 0.4537 1.0702 0.5459
C70 C 0.6296(3) 0.8800(6) 0.5955(3)
H12 H 0.6191 0.9716 0.5919
H13 H 0.6430 0.8518 0.5495
C71 C 0.5747(3) 0.8055(6) 0.6138(2)
C72 C 0.5300(3) 0.8608(6) 0.6515(2)
H14 H 0.5343 0.9459 0.6679
C73 C 0.4785(3) 0.7925(6) 0.6658(2)
C74 C 0.4722(3) 0.6680(6) 0.6423(3)
H15 H 0.4372 0.6215 0.6521
C75 C 0.5168(3) 0.6112(6) 0.6047(3)
H16 H 0.5122 0.5259 0.5887
C76 C 0.5680(2) 0.6783(6) 0.5903(2)
C77 C 0.6106(3) 0.5021(6) 0.5307(3)
H17 H 0.6042 0.4482 0.5713
H18 H 0.6477 0.4774 0.5088
H19 H 0.5776 0.4911 0.4977
C78 C 0.4438(3) 0.9525(6) 0.7433(3)
H20 H 0.4775 0.9345 0.7744
H21 H 0.4088 0.9725 0.7707
H22 H 0.4532 1.0255 0.7138
C79 C 0.9272(3) 0.2452(7) 0.5275(3)
S1 S 0.95323(11) 0.1528(3) 0.47461(10)
S2 S 0.90032(9) 0.33804(18) 0.58099(8)
loop_
_geom_bond_atom_site_label_1
_geom_bond_atom_site_label_2
_geom_bond_site_symmetry_1
_geom_bond_site_symmetry_2
O1 C67 1_555 1_555
O2 C64 1_555 1_555
O3 C73 1_555 1_555
O4 C76 1_555 1_555
C1 C2 1_555 1_555
C2 C3 1_555 1_555
C3 C4 1_555 1_555
C4 C5 1_555 1_555
C5 C1 1_555 1_555
C6 C5 1_555 1_555
C7 C6 1_555 1_555
C8 C7 1_555 1_555
C9 C4 1_555 1_555
C10 C9 1_555 1_555
C11 C10 1_555 1_555
C12 C3 1_555 1_555
C13 C12 1_555 1_555
C14 C13 1_555 1_555
C15 C2 1_555 1_555
C16 C15 1_555 1_555
C17 C16 1_555 1_555
C18 C1 1_555 1_555
C19 C18 1_555 1_555
C20 C6 1_555 1_555
C21 C20 1_555 1_555
C22 C7 1_555 1_555
C23 C22 1_555 1_555
C24 C23 1_555 1_555
C25 C8 1_555 1_555
C26 C10 1_555 1_555
C27 C26 1_555 1_555
C28 C27 1_555 1_555
C29 C11 1_555 1_555
C30 C13 1_555 1_555
C31 C30 1_555 1_555
C32 C31 1_555 1_555
C33 C14 1_555 1_555
C34 C16 1_555 1_555
C35 C34 1_555 1_555
C36 C35 1_555 1_555
C37 C17 1_555 1_555
C38 C19 1_555 1_555
C39 C38 1_555 1_555
C40 C21 1_555 1_555
C41 C40 1_555 1_555
C42 C41 1_555 1_555
C43 C39 1_555 1_555
C44 C36 1_555 1_555
C45 C44 1_555 1_555
C46 C35 1_555 1_555
C47 C32 1_555 1_555
C48 C47 1_555 1_555
C49 C31 1_555 1_555
C50 C28 1_555 1_555
C51 C50 1_555 1_555
C52 C27 1_555 1_555
C53 C24 1_555 1_555
C54 C53 1_555 1_555
C55 C23 1_555 1_555
C56 C54 1_555 1_555
C57 C42 1_555 1_555
C58 C45 1_555 1_555
C59 C48 1_555 1_555
C60 C51 1_555 1_555
C61 C21 1_555 1_555
H1 C61 1_555 1_555
H2 C61 1_555 1_555
C62 C61 1_555 1_555
C63 C62 1_555 1_555
H3 C63 1_555 1_555
C64 C63 1_555 1_555
C65 C64 1_555 1_555
H4 C65 1_555 1_555
C66 C65 1_555 1_555
H5 C66 1_555 1_555
C67 C62 1_555 1_555
C68 O1 1_555 1_555
H6 C68 1_555 1_555
H7 C68 1_555 1_555
H8 C68 1_555 1_555
C69 O2 1_555 1_555
H9 C69 1_555 1_555
H10 C69 1_555 1_555
H11 C69 1_555 1_555
C70 C38 1_555 1_555
H12 C70 1_555 1_555
H13 C70 1_555 1_555
C71 C70 1_555 1_555
C72 C71 1_555 1_555
H14 C72 1_555 1_555
C73 C72 1_555 1_555
C74 C73 1_555 1_555
H15 C74 1_555 1_555
C75 C74 1_555 1_555
H16 C75 1_555 1_555
C76 C71 1_555 1_555
C77 O4 1_555 1_555
H17 C77 1_555 1_555
H18 C77 1_555 1_555
H19 C77 1_555 1_555
C78 O3 1_555 1_555
H20 C78 1_555 1_555
H21 C78 1_555 1_555
H22 C78 1_555 1_555
C79 S1 1_555 1_555
S2 C79 1_555 1_555
C8 C9 1_555 1_555
C11 C12 1_555 1_555
C14 C15 1_555 1_555
C17 C18 1_555 1_555
C19 C20 1_555 1_555
C21 C22 1_555 1_555
C24 C25 1_555 1_555
C25 C26 1_555 1_555
C28 C29 1_555 1_555
C29 C30 1_555 1_555
C32 C33 1_555 1_555
C33 C34 1_555 1_555
C36 C37 1_555 1_555
C37 C38 1_555 1_555
C39 C40 1_555 1_555
C41 C55 1_555 1_555
C42 C43 1_555 1_555
C43 C44 1_555 1_555
C45 C46 1_555 1_555
C46 C47 1_555 1_555
C48 C49 1_555 1_555
C49 C50 1_555 1_555
C51 C52 1_555 1_555
C52 C53 1_555 1_555
C54 C55 1_555 1_555
C56 C57 1_555 1_555
C56 C60 1_555 1_555
C57 C58 1_555 1_555
C58 C59 1_555 1_555
C59 C60 1_555 1_555
C66 C67 1_555 1_555
C75 C76 1_555 1_555

#END
