
#######################################################################
#
#                 Cambridge Crystallographic Data Centre
#                                CCDC 
#
#######################################################################
#
# If this CIF has been generated from an entry in the Cambridge 
# Structural Database, then it will include bibliographic, chemical, 
# crystal, experimental, refinement or atomic coordinate data resulting 
# from the CCDC's data processing and validation procedures.
#
#######################################################################

data_JUXLAR
_chemical_formula_moiety         'C38 H36 N6 O2'
_chemical_name_systematic        
3',6'-bis(Ethylamino)-2',7'-dimethyl-2-(((4'-methyl-2,2'-bipyridin-4-yl)methylene)amino)spiro[isoindole-1,9'-xanthen]-3(2H)-one
_symmetry_cell_setting           monoclinic
_symmetry_space_group_name_H-M   'P 21/n'
_symmetry_Int_Tables_number      14
_space_group_name_Hall           '-P 2yn'
loop_
_symmetry_equiv_pos_site_id
_symmetry_equiv_pos_as_xyz
1 x,y,z
2 1/2-x,1/2+y,1/2-z
3 -x,-y,-z
4 1/2+x,1/2-y,1/2+z
_cell_length_a                   9.1482(11)
_cell_length_b                   13.7513(15)
_cell_length_c                   25.697(3)
_cell_angle_alpha                90
_cell_angle_beta                 91.434(12)
_cell_angle_gamma                90
_cell_volume                     3231.66
_exptl_crystal_colour            colorless
_exptl_crystal_description       block
_cell_formula_units_Z            4
loop_
_atom_site_label
_atom_site_type_symbol
_atom_site_fract_x
_atom_site_fract_y
_atom_site_fract_z
C1 C 1.3873(6) -0.1601(4) 0.0307(2)
H1 H 1.4147 -0.2087 0.0541
C2 C 1.4458(6) -0.1627(4) -0.0182(2)
H2 H 1.5087 -0.2128 -0.0270
C3 C 1.4116(5) -0.0918(4) -0.05360(19)
C4 C 1.3172(5) -0.0196(3) -0.03736(16)
H3 H 1.2924 0.0310 -0.0599
C5 C 1.2590(5) -0.0215(3) 0.01212(15)
C6 C 1.1548(4) 0.0536(3) 0.02886(14)
C7 C 1.0969(4) 0.0537(3) 0.07830(13)
H4 H 1.1208 0.0039 0.1015
C8 C 1.0034(4) 0.1277(3) 0.09330(13)
C9 C 0.9661(5) 0.1981(3) 0.05666(14)
H5 H 0.9040 0.2491 0.0649
C10 C 1.0231(5) 0.1907(4) 0.00778(15)
H6 H 0.9948 0.2369 -0.0169
C11 C 1.4721(6) -0.0910(5) -0.10751(18)
H7 H 1.5356 -0.1459 -0.1116
H8 H 1.5262 -0.0321 -0.1126
H9 H 1.3931 -0.0945 -0.1327
C12 C 0.9509(4) 0.1313(3) 0.14675(14)
H10 H 0.9604 0.0779 0.1688
C13 C 0.8622(4) 0.1594(3) 0.25435(13)
C14 C 0.7960(4) 0.2125(3) 0.29779(13)
C15 C 0.7829(5) 0.1833(3) 0.34949(14)
H11 H 0.8159 0.1227 0.3607
C16 C 0.7197(5) 0.2470(4) 0.38322(16)
H12 H 0.7123 0.2301 0.4181
C17 C 0.6665(5) 0.3361(3) 0.36625(16)
H13 H 0.6206 0.3769 0.3896
C18 C 0.6804(4) 0.3656(3) 0.31521(15)
H14 H 0.6456 0.4258 0.3040
C19 C 0.7483(4) 0.3022(3) 0.28110(14)
C20 C 0.7855(4) 0.3192(3) 0.22487(13)
C21 C 0.6572(4) 0.3429(3) 0.18912(14)
C22 C 0.6770(4) 0.3995(3) 0.14535(14)
C23 C 0.5658(4) 0.4151(3) 0.10887(15)
H15 H 0.5827 0.4525 0.0795
C24 C 0.4280(4) 0.3744(3) 0.11637(15)
C25 C 0.4034(4) 0.3182(3) 0.16123(15)
C26 C 0.5177(4) 0.3039(3) 0.19605(14)
H16 H 0.5018 0.2666 0.2256
C27 C 0.2581(4) 0.2710(3) 0.16904(16)
H17 H 0.2606 0.2357 0.2013
H18 H 0.2371 0.2271 0.1408
H19 H 0.1836 0.3200 0.1701
C28 C 0.3304(5) 0.4462(4) 0.03376(17)
H20 H 0.3972 0.4149 0.0104
H21 H 0.3705 0.5093 0.0431
C29 C 0.1834(5) 0.4592(5) 0.00669(19)
H22 H 0.1946 0.4976 -0.0242
H23 H 0.1181 0.4917 0.0296
H24 H 0.1440 0.3967 -0.0026
C30 C 0.9145(4) 0.4476(3) 0.17387(14)
C31 C 0.9047(4) 0.3934(3) 0.21868(14)
C32 C 1.0185(4) 0.4062(3) 0.25606(14)
H25 H 1.0138 0.3722 0.2873
C33 C 1.1350(4) 0.4659(3) 0.24872(15)
C34 C 1.1451(4) 0.5183(3) 0.20180(15)
C35 C 1.0305(4) 0.5097(3) 0.16470(15)
H26 H 1.0323 0.5456 0.1341
C36 C 1.2530(5) 0.4776(3) 0.29058(16)
H27 H 1.2308 0.4373 0.3198
H28 H 1.2575 0.5444 0.3014
H29 H 1.3456 0.4587 0.2770
C37 C 1.2824(5) 0.6369(4) 0.14860(17)
H30 H 1.2507 0.6017 0.1176
H31 H 1.3849 0.6531 0.1452
C38 C 1.1951(7) 0.7285(4) 0.1530(2)
H32 H 1.2077 0.7676 0.1225
H33 H 1.2280 0.7641 0.1833
H34 H 1.0935 0.7125 0.1562
N1 N 1.2935(5) -0.0921(3) 0.04665(14)
N2 N 1.1167(4) 0.1212(3) -0.00667(12)
N3 N 0.8916(3) 0.2100(2) 0.16214(11)
N4 N 0.8448(3) 0.2196(2) 0.21172(11)
N5 N 0.3158(4) 0.3876(3) 0.08020(13)
H35 H 0.2333 0.3597 0.0855
N6 N 1.2651(4) 0.5756(3) 0.19384(14)
H36 H 1.3342 0.5751 0.2171
O1 O 0.8085(3) 0.4435(2) 0.13437(9)
O2 O 0.9212(3) 0.0794(2) 0.25482(10)
loop_
_geom_bond_atom_site_label_1
_geom_bond_atom_site_label_2
_geom_bond_site_symmetry_1
_geom_bond_site_symmetry_2
C1 H1 1_555 1_555
C2 C1 1_555 1_555
H2 C2 1_555 1_555
C3 C2 1_555 1_555
C4 C3 1_555 1_555
H3 C4 1_555 1_555
C5 C4 1_555 1_555
C6 C5 1_555 1_555
C7 C6 1_555 1_555
H4 C7 1_555 1_555
C8 C7 1_555 1_555
C9 C8 1_555 1_555
H5 C9 1_555 1_555
C10 C9 1_555 1_555
H6 C10 1_555 1_555
C11 C3 1_555 1_555
H7 C11 1_555 1_555
H8 C11 1_555 1_555
H9 C11 1_555 1_555
C12 C8 1_555 1_555
H10 C12 1_555 1_555
C13 C14 1_555 1_555
C14 C15 1_555 1_555
C15 H11 1_555 1_555
C16 C15 1_555 1_555
H12 C16 1_555 1_555
C17 C16 1_555 1_555
H13 C17 1_555 1_555
C18 C17 1_555 1_555
H14 C18 1_555 1_555
C19 C14 1_555 1_555
C20 C19 1_555 1_555
C21 C20 1_555 1_555
C22 C21 1_555 1_555
C23 C22 1_555 1_555
H15 C23 1_555 1_555
C24 C23 1_555 1_555
C25 C24 1_555 1_555
C26 C21 1_555 1_555
H16 C26 1_555 1_555
C27 C25 1_555 1_555
H17 C27 1_555 1_555
H18 C27 1_555 1_555
H19 C27 1_555 1_555
C28 H20 1_555 1_555
H21 C28 1_555 1_555
C29 C28 1_555 1_555
H22 C29 1_555 1_555
H23 C29 1_555 1_555
H24 C29 1_555 1_555
C30 C31 1_555 1_555
C31 C20 1_555 1_555
C32 C31 1_555 1_555
H25 C32 1_555 1_555
C33 C32 1_555 1_555
C34 C33 1_555 1_555
C35 C30 1_555 1_555
H26 C35 1_555 1_555
C36 C33 1_555 1_555
H27 C36 1_555 1_555
H28 C36 1_555 1_555
H29 C36 1_555 1_555
C37 H30 1_555 1_555
H31 C37 1_555 1_555
C38 C37 1_555 1_555
H32 C38 1_555 1_555
H33 C38 1_555 1_555
H34 C38 1_555 1_555
N1 C1 1_555 1_555
N2 C6 1_555 1_555
N3 C12 1_555 1_555
N4 C13 1_555 1_555
N5 C24 1_555 1_555
H35 N5 1_555 1_555
N6 C34 1_555 1_555
H36 N6 1_555 1_555
O1 C22 1_555 1_555
O2 C13 1_555 1_555
C5 N1 1_555 1_555
C10 N2 1_555 1_555
C18 C19 1_555 1_555
C20 N4 1_555 1_555
C25 C26 1_555 1_555
C28 N5 1_555 1_555
C30 O1 1_555 1_555
C34 C35 1_555 1_555
C37 N6 1_555 1_555
N3 N4 1_555 1_555

#END
