
#######################################################################
#
#                 Cambridge Crystallographic Data Centre
#                                CCDC 
#
#######################################################################
#
# If this CIF has been generated from an entry in the Cambridge 
# Structural Database, then it will include bibliographic, chemical, 
# crystal, experimental, refinement or atomic coordinate data resulting 
# from the CCDC's data processing and validation procedures.
#
#######################################################################

data_JUXPOH01
_chemical_formula_moiety         'C30 H39 I1 K1 O7 P1'
_chemical_name_systematic        
'(18-Crown-6)-iodo-(triphenylphosphine oxide-O)-potassium'
_symmetry_cell_setting           rhombohedral
_symmetry_space_group_name_H-M   'R 3 c'
_symmetry_Int_Tables_number      161
_space_group_name_Hall           'R 3 -2"c'
loop_
_symmetry_equiv_pos_site_id
_symmetry_equiv_pos_as_xyz
1 x,y,z
2 -y,x-y,z
3 -x+y,-x,z
4 -y,-x,1/2+z
5 -x+y,y,1/2+z
6 x,x-y,1/2+z
7 2/3+x,1/3+y,1/3+z
8 2/3-y,1/3+x-y,1/3+z
9 2/3-x+y,1/3-x,1/3+z
10 2/3-y,1/3-x,5/6+z
11 2/3-x+y,1/3+y,5/6+z
12 2/3+x,1/3+x-y,5/6+z
13 1/3+x,2/3+y,2/3+z
14 1/3-y,2/3+x-y,2/3+z
15 1/3-x+y,2/3-x,2/3+z
16 1/3-y,2/3-x,1/6+z
17 1/3-x+y,2/3+y,1/6+z
18 1/3+x,2/3+x-y,1/6+z
_cell_length_a                   14.3095(6)
_cell_length_b                   14.3095(6)
_cell_length_c                   27.023(2)
_cell_angle_alpha                90
_cell_angle_beta                 90
_cell_angle_gamma                120.00
_cell_volume                     4791.96
_exptl_crystal_colour            colorless
_exptl_crystal_description       block
_cell_formula_units_Z            6
loop_
_atom_site_label
_atom_site_type_symbol
_atom_site_fract_x
_atom_site_fract_y
_atom_site_fract_z
I1 I 0.3333 0.6667 0.501619(10)
K1 K 0.3333 0.6667 0.63789(3)
P1 P 0.3333 0.6667 0.79078(4)
O1 O 0.3333 0.6667 0.73639(10)
O2 O 0.55523(10) 0.78775(8) 0.65655(5)
O3 O 0.45815(8) 0.56282(8) 0.64252(5)
C1 C 0.46827(14) 0.72578(11) 0.81582(7)
C2 C 0.49089(13) 0.71825(13) 0.86553(7)
H1 H 0.4336 0.6777 0.8880
C3 C 0.59650(13) 0.76974(14) 0.88199(8)
H2 H 0.6108 0.7656 0.9160
C4 C 0.68193(18) 0.82724(13) 0.84981(8)
H3 H 0.7542 0.8618 0.8615
C5 C 0.65984(15) 0.83349(11) 0.79967(8)
H4 H 0.7176 0.8721 0.7771
C6 C 0.55397(15) 0.78357(11) 0.78285(8)
H5 H 0.5396 0.7886 0.7489
C7 C 0.61557(13) 0.73569(14) 0.64577(7)
H6 H 0.6892 0.7778 0.6597
H7 H 0.6217 0.7303 0.6095
C8 C 0.55807(12) 0.62540(13) 0.66828(6)
H8 H 0.6029 0.5908 0.6654
H9 H 0.5442 0.6304 0.7038
C9 C 0.40210(13) 0.45367(13) 0.65987(7)
H10 H 0.3958 0.4523 0.6964
H11 H 0.4421 0.4165 0.6505
C10 C 0.60240(13) 0.89360(13) 0.63656(7)
H12 H 0.5931 0.8903 0.6002
H13 H 0.6806 0.9344 0.6441
O2A O 0.21225(8) 0.76748(13) 0.65655(5)
O2B O 0.23252(13) 0.44477(10) 0.65655(5)
O3A O 0.43718(8) 0.89533(11) 0.64252(5)
O3B O 0.10467(11) 0.54185(8) 0.64252(5)
C1A C 0.27422(11) 0.74249(18) 0.81582(7)
C1B C 0.25751(18) 0.53173(14) 0.81582(7)
C2A C 0.28175(13) 0.77264(18) 0.86553(7)
C2B C 0.22736(18) 0.50911(13) 0.86553(7)
H1A H 0.3223 0.7559 0.8880
H1B H 0.2441 0.5664 0.8880
C3A C 0.23026(14) 0.82676(19) 0.88199(8)
C3B C 0.17324(19) 0.40350(13) 0.88199(8)
H2A H 0.2344 0.8452 0.9160
H2B H 0.1548 0.3892 0.9160
C4A C 0.17276(13) 0.85469(22) 0.84981(8)
C4B C 0.14531(22) 0.31807(18) 0.84981(8)
H3A H 0.1382 0.8924 0.8615
H3B H 0.1076 0.2458 0.8615
C5A C 0.16651(11) 0.82635(19) 0.79967(8)
C5B C 0.17365(19) 0.34016(15) 0.79967(8)
H4A H 0.1279 0.8455 0.7771
H4B H 0.1545 0.2824 0.7771
C6A C 0.21643(11) 0.77040(19) 0.78285(8)
C6B C 0.22960(19) 0.44603(15) 0.78285(8)
H5A H 0.2114 0.7510 0.7489
H5B H 0.2490 0.4604 0.7489
C7A C 0.26431(14) 0.87988(19) 0.64577(7)
C7B C 0.12012(19) 0.38443(13) 0.64577(7)
H6A H 0.2222 0.9114 0.6597
H6B H 0.0886 0.3108 0.6597
H7A H 0.2697 0.8914 0.6095
H7B H 0.1086 0.3783 0.6095
C8A C 0.37460(13) 0.93267(18) 0.66828(6)
C8B C 0.06733(18) 0.44193(12) 0.66828(6)
H8B H -0.0121 0.3971 0.6654
H8A H 0.4092 1.0121 0.6654
H9B H 0.0862 0.4558 0.7038
H9A H 0.3696 0.9138 0.7038
C9B C 0.05157(18) 0.59790(13) 0.65987(7)
C9A C 0.54633(13) 0.94843(18) 0.65987(7)
H10B H 0.0565 0.6042 0.6964
H10A H 0.5477 0.9435 0.6964
H11B H -0.0256 0.5579 0.6505
H11A H 0.5835 1.0256 0.6505
C10A C 0.10640(13) 0.70880(18) 0.63656(7)
C10B C 0.29120(18) 0.39760(13) 0.63656(7)
H12A H 0.1097 0.7028 0.6002
H12B H 0.2972 0.4069 0.6002
H13A H 0.0656 0.7462 0.6441
H13B H 0.2538 0.3194 0.6441
loop_
_geom_bond_atom_site_label_1
_geom_bond_atom_site_label_2
_geom_bond_site_symmetry_1
_geom_bond_site_symmetry_2
I1 K1 1_555 1_555
K1 O1 1_555 1_555
P1 O1 1_555 1_555
O2 K1 1_555 1_555
O3 K1 1_555 1_555
C1 P1 1_555 1_555
C2 C1 1_555 1_555
H1 C2 1_555 1_555
C3 C2 1_555 1_555
H2 C3 1_555 1_555
C4 C3 1_555 1_555
H3 C4 1_555 1_555
C5 C4 1_555 1_555
H4 C5 1_555 1_555
C6 C1 1_555 1_555
H5 C6 1_555 1_555
C7 O2 1_555 1_555
H6 C7 1_555 1_555
H7 C7 1_555 1_555
C8 O3 1_555 1_555
H8 C8 1_555 1_555
H9 C8 1_555 1_555
C9 O3 1_555 1_555
H10 C9 1_555 1_555
H11 C9 1_555 1_555
C10 O2 1_555 1_555
H12 C10 1_555 1_555
H13 C10 1_555 1_555
O2A K1 1_555 1_555
O2B K1 1_555 1_555
O3A K1 1_555 1_555
O3B K1 1_555 1_555
C1A P1 1_555 1_555
C1B P1 1_555 1_555
C2A C1A 1_555 1_555
C2B C1B 1_555 1_555
H1A C2A 1_555 1_555
H1B C2B 1_555 1_555
C3A C2A 1_555 1_555
C3B C2B 1_555 1_555
H2A C3A 1_555 1_555
H2B C3B 1_555 1_555
C4A C3A 1_555 1_555
C4B C3B 1_555 1_555
H3A C4A 1_555 1_555
H3B C4B 1_555 1_555
C5A C4A 1_555 1_555
C5B C4B 1_555 1_555
H4A C5A 1_555 1_555
H4B C5B 1_555 1_555
C6A C1A 1_555 1_555
C6B C1B 1_555 1_555
H5A C6A 1_555 1_555
H5B C6B 1_555 1_555
C7A O2A 1_555 1_555
C7B O2B 1_555 1_555
H6A C7A 1_555 1_555
H6B C7B 1_555 1_555
H7A C7A 1_555 1_555
H7B C7B 1_555 1_555
C8A O3A 1_555 1_555
C8B O3B 1_555 1_555
H8B C8B 1_555 1_555
H8A C8A 1_555 1_555
H9B C8B 1_555 1_555
H9A C8A 1_555 1_555
C9B O3B 1_555 1_555
C9A C10 1_555 1_555
H10B C9B 1_555 1_555
H10A C9A 1_555 1_555
H11B C9B 1_555 1_555
H11A C9A 1_555 1_555
C10A O2A 1_555 1_555
C10B C9 1_555 1_555
H12A C10A 1_555 1_555
H12B C10B 1_555 1_555
H13A C10A 1_555 1_555
H13B C10B 1_555 1_555
C5 C6 1_555 1_555
C7 C8 1_555 1_555
O2B C10B 1_555 1_555
O3A C9A 1_555 1_555
C5A C6A 1_555 1_555
C5B C6B 1_555 1_555
C7A C8A 1_555 1_555
C7B C8B 1_555 1_555
C9B C10A 1_555 1_555

#END
