
#######################################################################
#
#                 Cambridge Crystallographic Data Centre
#                                CCDC 
#
#######################################################################
#
# If this CIF has been generated from an entry in the Cambridge 
# Structural Database, then it will include bibliographic, chemical, 
# crystal, experimental, refinement or atomic coordinate data resulting 
# from the CCDC's data processing and validation procedures.
#
#######################################################################

data_JUYKUL01
_chemical_formula_moiety         'C22 H20 N2 O4'
_chemical_name_systematic        
2,2'-(1,4-Phenylenebis(nitrilomethylylidene))bis(5-methoxyphenol)
_symmetry_cell_setting           orthorhombic
_symmetry_space_group_name_H-M   'P b c a'
_symmetry_Int_Tables_number      61
_space_group_name_Hall           '-P 2ac 2ab'
loop_
_symmetry_equiv_pos_site_id
_symmetry_equiv_pos_as_xyz
1 x,y,z
2 1/2-x,-y,1/2+z
3 -x,1/2+y,1/2-z
4 1/2+x,1/2-y,-z
5 -x,-y,-z
6 1/2+x,y,1/2-z
7 x,1/2-y,1/2+z
8 1/2-x,1/2+y,z
_cell_length_a                   7.0704(11)
_cell_length_b                   6.1902(9)
_cell_length_c                   41.141(6)
_cell_angle_alpha                90
_cell_angle_beta                 90
_cell_angle_gamma                90
_cell_volume                     1800.63
_cell_formula_units_Z            4
loop_
_atom_site_label
_atom_site_type_symbol
_atom_site_fract_x
_atom_site_fract_y
_atom_site_fract_z
C1 C 0.4058(2) 0.6580(2) 0.71822(3)
H1 H 0.4634 0.7712 0.7048
H2 H 0.4191 0.6957 0.7412
H3 H 0.2713 0.6451 0.7128
C2 C 0.50144(18) 0.3821(2) 0.68078(3)
C3 C 0.43405(19) 0.4965(2) 0.65414(3)
H4 H 0.3748 0.6330 0.6570
C4 C 0.45487(19) 0.4077(2) 0.62311(3)
C5 C 0.53192(18) 0.1991(2) 0.61891(3)
C6 C 0.59319(19) 0.0869(2) 0.64665(3)
H5 H 0.6432 -0.0547 0.6443
C7 C 0.58252(19) 0.1773(2) 0.67714(3)
H6 H 0.6297 0.1015 0.6955
C8 C 0.54663(19) 0.0997(2) 0.58718(3)
H7 H 0.5864 -0.0466 0.5856
C9 C 0.50599(18) 0.0970(2) 0.53064(3)
C10 C 0.57209(19) 0.2082(2) 0.50338(3)
H8 H 0.6205 0.3505 0.5057
C11 C 0.43259(19) -0.1116(2) 0.52706(3)
H9 H 0.3859 -0.1873 0.5455
N1 N 0.50694(16) 0.20517(19) 0.56106(3)
O1 O 0.49843(14) 0.45692(16) 0.71212(2)
O2 O 0.40081(15) 0.52812(16) 0.59741(2)
H10 H 0.4174 0.4575 0.5802
C1D C 0.5942(2) -0.6580(2) 0.28178(3)
H1D H 0.5366 -0.7712 0.2952
H2D H 0.5809 -0.6957 0.2588
H3D H 0.7287 -0.6451 0.2872
C2D C 0.49856(18) -0.3821(2) 0.31922(3)
C3D C 0.56595(19) -0.4965(2) 0.34586(3)
H4D H 0.6252 -0.6330 0.3430
C4D C 0.54513(19) -0.4077(2) 0.37689(3)
C5D C 0.46808(18) -0.1991(2) 0.38109(3)
C6D C 0.40681(19) -0.0869(2) 0.35335(3)
H5D H 0.3568 0.0547 0.3557
C7D C 0.41748(19) -0.1773(2) 0.32286(3)
H6D H 0.3703 -0.1015 0.3045
C8D C 0.45337(19) -0.0997(2) 0.41282(3)
H7D H 0.4136 0.0466 0.4144
C9D C 0.49401(18) -0.0970(2) 0.46936(3)
C10D C 0.42791(19) -0.2082(2) 0.49662(3)
H8D H 0.3795 -0.3505 0.4943
C11D C 0.56741(19) 0.1116(2) 0.47294(3)
H9D H 0.6141 0.1873 0.4545
N1D N 0.49306(16) -0.20517(19) 0.43894(3)
O1D O 0.50157(14) -0.45692(16) 0.28788(2)
O2D O 0.59919(15) -0.52812(16) 0.40259(2)
H10D H 0.5826 -0.4575 0.4198
loop_
_geom_bond_atom_site_label_1
_geom_bond_atom_site_label_2
_geom_bond_site_symmetry_1
_geom_bond_site_symmetry_2
C1 H1 1_555 1_555
H2 C1 1_555 1_555
H3 C1 1_555 1_555
C2 C3 1_555 1_555
C3 H4 1_555 1_555
C4 C3 1_555 1_555
C5 C4 1_555 1_555
C6 C5 1_555 1_555
H5 C6 1_555 1_555
C7 C2 1_555 1_555
H6 C7 1_555 1_555
C8 C5 1_555 1_555
H7 C8 1_555 1_555
C9 C10 1_555 1_555
C10 H8 1_555 1_555
C11 C9 1_555 1_555
H9 C11 1_555 1_555
N1 C8 1_555 1_555
O1 C1 1_555 1_555
O2 C4 1_555 1_555
H10 O2 1_555 1_555
C1D H1D 1_555 1_555
H2D C1D 1_555 1_555
H3D C1D 1_555 1_555
C2D C3D 1_555 1_555
C3D H4D 1_555 1_555
C4D C3D 1_555 1_555
C5D C4D 1_555 1_555
C6D C5D 1_555 1_555
H5D C6D 1_555 1_555
C7D C2D 1_555 1_555
H6D C7D 1_555 1_555
C8D C5D 1_555 1_555
H7D C8D 1_555 1_555
C9D C10D 1_555 1_555
C10D C11 1_555 1_555
H8D C10D 1_555 1_555
C11D C10 1_555 1_555
H9D C11D 1_555 1_555
N1D C8D 1_555 1_555
O1D C1D 1_555 1_555
O2D C4D 1_555 1_555
H10D O2D 1_555 1_555
C2 O1 1_555 1_555
C6 C7 1_555 1_555
C9 N1 1_555 1_555
C2D O1D 1_555 1_555
C6D C7D 1_555 1_555
C9D C11D 1_555 1_555
C9D N1D 1_555 1_555

#END
