
#######################################################################
#
#                 Cambridge Crystallographic Data Centre
#                                CCDC 
#
#######################################################################
#
# If this CIF has been generated from an entry in the Cambridge 
# Structural Database, then it will include bibliographic, chemical, 
# crystal, experimental, refinement or atomic coordinate data resulting 
# from the CCDC's data processing and validation procedures.
#
#######################################################################

data_KABBOH
_chemical_formula_moiety         'C33 H24 N2 O5 S1'
_chemical_name_systematic        
1-(4-Methoxyphenyl)-2-(4-nitrobenzoyl)-2-((phenylsulfanyl)methyl)pyrrolo[2,1-a]isoquinolin-3(2H)-one
_symmetry_cell_setting           triclinic
_symmetry_space_group_name_H-M   'P -1'
_symmetry_Int_Tables_number      2
_space_group_name_Hall           '-P 1'
loop_
_symmetry_equiv_pos_site_id
_symmetry_equiv_pos_as_xyz
1 x,y,z
2 -x,-y,-z
_cell_length_a                   10.377(2)
_cell_length_b                   15.255(3)
_cell_length_c                   17.477(4)
_cell_angle_alpha                85.37(3)
_cell_angle_beta                 89.73(3)
_cell_angle_gamma                88.84(3)
_cell_volume                     2757.02
_exptl_crystal_colour            black
_exptl_crystal_description       block
_cell_formula_units_Z            4
loop_
_atom_site_label
_atom_site_type_symbol
_atom_site_fract_x
_atom_site_fract_y
_atom_site_fract_z
C1 C 0.7020(3) 0.72998(17) 0.25165(17)
C2 C 0.5939(3) 0.70173(17) 0.20658(18)
C3 C 0.6115(3) 0.64664(19) 0.1476(2)
H1 H 0.6940 0.6262 0.1365
C4 C 0.5082(3) 0.6219(2) 0.1052(2)
H2 H 0.5216 0.5856 0.0655
C5 C 0.3856(4) 0.6509(2) 0.1218(3)
H3 H 0.3162 0.6351 0.0927
C6 C 0.3657(3) 0.7032(2) 0.1816(3)
H4 H 0.2822 0.7214 0.1931
C7 C 0.4676(3) 0.72952(19) 0.2252(2)
C8 C 0.4471(3) 0.7844(2) 0.2879(2)
H5 H 0.3636 0.8026 0.2994
C9 C 0.5437(3) 0.80943(19) 0.32963(19)
H6 H 0.5277 0.8440 0.3702
C10 C 0.7777(3) 0.8042(2) 0.35256(19)
C11 C 0.8913(3) 0.75498(19) 0.31721(18)
C12 C 0.8293(3) 0.71500(18) 0.24951(17)
C13 C 0.9091(3) 0.66994(18) 0.19353(17)
C14 C 0.9426(3) 0.71424(19) 0.12285(18)
H7 H 0.9143 0.7721 0.1118
C15 C 1.0158(3) 0.67431(18) 0.06985(18)
H8 H 1.0364 0.7051 0.0234
C16 C 1.0597(3) 0.58803(18) 0.08500(17)
C17 C 1.0295(3) 0.54334(18) 0.15444(18)
H9 H 1.0600 0.4861 0.1657
C18 C 0.9537(3) 0.58373(18) 0.20727(18)
H10 H 0.9321 0.5523 0.2532
C19 C 1.1908(3) 0.4701(2) 0.0428(2)
H11 H 1.2470 0.4706 0.0862
H12 H 1.2398 0.4556 -0.0013
H13 H 1.1256 0.4270 0.0536
C20 C 1.0055(3) 0.8145(2) 0.2947(2)
C21 C 0.9921(3) 0.88712(18) 0.23168(19)
C22 C 1.1025(3) 0.9148(2) 0.1935(2)
H14 H 1.1810 0.8873 0.2067
C23 C 1.0991(3) 0.9827(2) 0.1361(2)
H15 H 1.1734 1.0006 0.1099
C24 C 0.9825(3) 1.02231(19) 0.1195(2)
C25 C 0.8701(3) 0.9971(2) 0.1555(2)
H16 H 0.7927 1.0263 0.1426
C26 C 0.8735(3) 0.92778(19) 0.2114(2)
H17 H 0.7979 0.9083 0.2353
C27 C 0.9389(3) 0.6840(2) 0.37909(19)
H18 H 0.9669 0.7123 0.4237
H19 H 1.0127 0.6528 0.3593
C28 C 0.8235(3) 0.6002(2) 0.50930(19)
C29 C 0.8227(4) 0.5192(3) 0.5483(2)
H20 H 0.8246 0.4688 0.5217
C30 C 0.8192(5) 0.5121(4) 0.6291(3)
H21 H 0.8148 0.4571 0.6560
C31 C 0.8221(4) 0.5857(4) 0.6675(3)
H22 H 0.8251 0.5809 0.7209
C32 C 0.8207(5) 0.6667(4) 0.6284(3)
H23 H 0.8193 0.7169 0.6553
C33 C 0.8214(5) 0.6745(3) 0.5498(2)
H24 H 0.8204 0.7300 0.5236
N1 N 0.6699(2) 0.78386(15) 0.31248(15)
N2 N 0.9763(3) 1.09616(19) 0.05962(19)
O1 O 0.7796(2) 0.84995(15) 0.40638(15)
O2 O 1.1091(2) 0.80045(19) 0.32477(19)
O3 O 1.1313(2) 0.55473(13) 0.02791(12)
O4 O 0.8743(2) 1.13646(18) 0.04930(19)
O5 O 1.0720(3) 1.1148(2) 0.0241(2)
S1 S 0.81508(10) 0.60550(6) 0.40787(5)
C34 C 0.7328(3) 0.24733(17) 0.23225(16)
C35 C 0.8433(3) 0.19306(18) 0.26157(17)
C36 C 0.8284(3) 0.1256(2) 0.31971(19)
H25 H 0.7473 0.1148 0.3409
C37 C 0.9330(4) 0.0748(2) 0.3460(2)
H26 H 0.9221 0.0296 0.3843
C38 C 1.0533(4) 0.0909(2) 0.3155(2)
H27 H 1.1233 0.0562 0.3332
C39 C 1.0715(3) 0.1576(2) 0.2595(2)
H28 H 1.1536 0.1677 0.2396
C40 C 0.9671(3) 0.2108(2) 0.23177(19)
C41 C 0.9848(3) 0.2831(2) 0.1738(2)
H29 H 1.0672 0.2947 0.1549
C42 C 0.8857(3) 0.33335(19) 0.14696(18)
H30 H 0.8990 0.3792 0.1095
C43 C 0.6521(3) 0.36246(18) 0.15051(17)
C44 C 0.5423(3) 0.32448(18) 0.19937(17)
C45 C 0.6057(3) 0.24608(18) 0.24621(16)
C46 C 0.5299(3) 0.17819(17) 0.29108(17)
C47 C 0.4826(3) 0.1877(2) 0.36435(19)
H31 H 0.4960 0.2400 0.3867
C48 C 0.4162(3) 0.1217(2) 0.40494(19)
H32 H 0.3869 0.1295 0.4543
C49 C 0.3931(3) 0.04394(18) 0.37226(19)
C50 C 0.4367(4) 0.03435(19) 0.2993(2)
H33 H 0.4206 -0.0173 0.2765
C51 C 0.5039(3) 0.09984(18) 0.25931(19)
H34 H 0.5327 0.0916 0.2099
C52 C 0.2806(5) -0.0202(3) 0.4821(3)
H35 H 0.3500 -0.0109 0.5165
H36 H 0.2380 -0.0737 0.4989
H37 H 0.2201 0.0283 0.4819
C53 C 0.4301(3) 0.29357(19) 0.15150(18)
C54 C 0.4529(3) 0.23724(19) 0.08592(17)
C55 C 0.5739(3) 0.2064(2) 0.0644(2)
H38 H 0.6462 0.2204 0.0918
C56 C 0.5880(3) 0.1557(2) 0.0031(2)
H39 H 0.6690 0.1355 -0.0113
C57 C 0.4803(3) 0.13567(19) -0.03608(18)
C58 C 0.3593(3) 0.1643(2) -0.0166(2)
H40 H 0.2876 0.1497 -0.0443
C59 C 0.3461(3) 0.2149(2) 0.0446(2)
H41 H 0.2645 0.2344 0.0585
C60 C 0.4923(3) 0.39861(19) 0.24881(19)
H42 H 0.4366 0.3725 0.2887
H43 H 0.4400 0.4398 0.2164
C61 C 0.6422(3) 0.39729(19) 0.38291(19)
C62 C 0.5509(4) 0.3978(2) 0.4413(2)
H44 H 0.4750 0.4307 0.4340
C63 C 0.5733(5) 0.3493(3) 0.5102(2)
H45 H 0.5119 0.3492 0.5491
C64 C 0.6855(6) 0.3011(3) 0.5216(3)
H46 H 0.6997 0.2682 0.5680
C65 C 0.7765(5) 0.3014(3) 0.4648(3)
H47 H 0.8529 0.2691 0.4728
C66 C 0.7552(4) 0.3494(2) 0.3957(2)
H48 H 0.8176 0.3495 0.3573
N3 N 0.7636(2) 0.31676(15) 0.17509(14)
N4 N 0.4955(3) 0.08106(18) -0.10177(17)
O6 O 0.6478(2) 0.42231(14) 0.10071(13)
O7 O 0.3201(2) 0.31379(17) 0.16809(15)
O8 O 0.3300(3) -0.02643(14) 0.40709(15)
O9 O 0.4029(3) 0.0709(2) -0.14204(18)
O10 O 0.6005(3) 0.0522(2) -0.1160(2)
S2 S 0.61524(10) 0.45984(5) 0.29377(5)
loop_
_geom_bond_atom_site_label_1
_geom_bond_atom_site_label_2
_geom_bond_site_symmetry_1
_geom_bond_site_symmetry_2
C1 C2 1_555 1_555
C2 C3 1_555 1_555
C3 H1 1_555 1_555
C4 C3 1_555 1_555
H2 C4 1_555 1_555
C5 C4 1_555 1_555
H3 C5 1_555 1_555
C6 C5 1_555 1_555
H4 C6 1_555 1_555
C7 C2 1_555 1_555
C8 C7 1_555 1_555
H5 C8 1_555 1_555
C9 C8 1_555 1_555
H6 C9 1_555 1_555
C10 C11 1_555 1_555
C11 C12 1_555 1_555
C12 C1 1_555 1_555
C13 C12 1_555 1_555
C14 C13 1_555 1_555
H7 C14 1_555 1_555
C15 C14 1_555 1_555
H8 C15 1_555 1_555
C16 C15 1_555 1_555
C17 C16 1_555 1_555
H9 C17 1_555 1_555
C18 C13 1_555 1_555
H10 C18 1_555 1_555
C19 H11 1_555 1_555
H12 C19 1_555 1_555
H13 C19 1_555 1_555
C20 C11 1_555 1_555
C21 C20 1_555 1_555
C22 C21 1_555 1_555
H14 C22 1_555 1_555
C23 C22 1_555 1_555
H15 C23 1_555 1_555
C24 C23 1_555 1_555
C25 C24 1_555 1_555
H16 C25 1_555 1_555
C26 C21 1_555 1_555
H17 C26 1_555 1_555
C27 C11 1_555 1_555
H18 C27 1_555 1_555
H19 C27 1_555 1_555
C28 C29 1_555 1_555
C29 H20 1_555 1_555
C30 C29 1_555 1_555
H21 C30 1_555 1_555
C31 C30 1_555 1_555
H22 C31 1_555 1_555
C32 C31 1_555 1_555
H23 C32 1_555 1_555
C33 C28 1_555 1_555
H24 C33 1_555 1_555
N1 C1 1_555 1_555
N2 C24 1_555 1_555
O1 C10 1_555 1_555
O2 C20 1_555 1_555
O3 C16 1_555 1_555
O4 N2 1_555 1_555
O5 N2 1_555 1_555
S1 C27 1_555 1_555
C34 C35 1_555 1_555
C35 C36 1_555 1_555
C36 H25 1_555 1_555
C37 C36 1_555 1_555
H26 C37 1_555 1_555
C38 C37 1_555 1_555
H27 C38 1_555 1_555
C39 C38 1_555 1_555
H28 C39 1_555 1_555
C40 C35 1_555 1_555
C41 C40 1_555 1_555
H29 C41 1_555 1_555
C42 C41 1_555 1_555
H30 C42 1_555 1_555
C43 C44 1_555 1_555
C44 C45 1_555 1_555
C45 C34 1_555 1_555
C46 C45 1_555 1_555
C47 C46 1_555 1_555
H31 C47 1_555 1_555
C48 C47 1_555 1_555
H32 C48 1_555 1_555
C49 C48 1_555 1_555
C50 C49 1_555 1_555
H33 C50 1_555 1_555
C51 C46 1_555 1_555
H34 C51 1_555 1_555
C52 H35 1_555 1_555
H36 C52 1_555 1_555
H37 C52 1_555 1_555
C53 C44 1_555 1_555
C54 C53 1_555 1_555
C55 C54 1_555 1_555
H38 C55 1_555 1_555
C56 C55 1_555 1_555
H39 C56 1_555 1_555
C57 C56 1_555 1_555
C58 C57 1_555 1_555
H40 C58 1_555 1_555
C59 C54 1_555 1_555
H41 C59 1_555 1_555
C60 C44 1_555 1_555
H42 C60 1_555 1_555
H43 C60 1_555 1_555
C61 C62 1_555 1_555
C62 H44 1_555 1_555
C63 C62 1_555 1_555
H45 C63 1_555 1_555
C64 C63 1_555 1_555
H46 C64 1_555 1_555
C65 C64 1_555 1_555
H47 C65 1_555 1_555
C66 C61 1_555 1_555
H48 C66 1_555 1_555
N3 C34 1_555 1_555
N4 C57 1_555 1_555
O6 C43 1_555 1_555
O7 C53 1_555 1_555
O8 C49 1_555 1_555
O9 N4 1_555 1_555
O10 N4 1_555 1_555
S2 C60 1_555 1_555
C6 C7 1_555 1_555
C9 N1 1_555 1_555
C10 N1 1_555 1_555
C17 C18 1_555 1_555
C19 O3 1_555 1_555
C25 C26 1_555 1_555
C28 S1 1_555 1_555
C32 C33 1_555 1_555
C39 C40 1_555 1_555
C42 N3 1_555 1_555
C43 N3 1_555 1_555
C50 C51 1_555 1_555
C52 O8 1_555 1_555
C58 C59 1_555 1_555
C61 S2 1_555 1_555
C65 C66 1_555 1_555

#END
