
#######################################################################
#
#                 Cambridge Crystallographic Data Centre
#                                CCDC 
#
#######################################################################
#
# If this CIF has been generated from an entry in the Cambridge 
# Structural Database, then it will include bibliographic, chemical, 
# crystal, experimental, refinement or atomic coordinate data resulting 
# from the CCDC's data processing and validation procedures.
#
#######################################################################

data_KABCOI
_chemical_formula_moiety         'C18 H14 Br1 F3 O2,0.5(C3 H8 O1)'
_chemical_name_systematic        
'5-(4-Bromophenyl)-6,6,6-trifluoro-5-hydroxy-1-phenylhex-2-en-1-one isopropanol solvate'
_symmetry_cell_setting           monoclinic
_symmetry_space_group_name_H-M   'P 21'
_symmetry_Int_Tables_number      4
_space_group_name_Hall           'P 2yb'
loop_
_symmetry_equiv_pos_site_id
_symmetry_equiv_pos_as_xyz
1 x,y,z
2 -x,1/2+y,-z
_cell_length_a                   10.6582(11)
_cell_length_b                   8.3065(7)
_cell_length_c                   21.9684(18)
_cell_angle_alpha                90
_cell_angle_beta                 100.772(9)
_cell_angle_gamma                90
_cell_volume                     1910.64
_cell_formula_units_Z            4
loop_
_atom_site_label
_atom_site_type_symbol
_atom_site_fract_x
_atom_site_fract_y
_atom_site_fract_z
Br1 Br 0.46910(10) 0.63116(15) 0.68631(4)
C1 C 0.7077(7) 0.4599(9) 0.8424(3)
H1 H 0.7836 0.4018 0.8513
C2 C 0.6574(7) 0.4951(10) 0.7826(3)
H2 H 0.6984 0.4636 0.7507
C3 C 0.5444(7) 0.5785(9) 0.7704(3)
C4 C 0.4824(7) 0.6282(9) 0.8163(3)
H3 H 0.4072 0.6873 0.8066
C5 C 0.5326(7) 0.5897(8) 0.8772(3)
H4 H 0.4895 0.6178 0.9088
C6 C 0.6493(6) 0.5078(7) 0.8907(3)
C7 C 0.7137(6) 0.4702(8) 0.9575(3)
C8 C 0.7396(6) 0.6288(8) 0.9953(3)
H5 H 0.6600 0.6865 0.9938
H6 H 0.7742 0.6036 1.0382
C9 C 0.8320(7) 0.7328(8) 0.9695(3)
H7 H 0.9177 0.7035 0.9772
C10 C 0.7990(6) 0.8622(8) 0.9368(3)
H8 H 0.7156 0.8999 0.9325
C11 C 0.8900(7) 0.9496(8) 0.9066(3)
C12 C 0.8506(6) 1.0136(7) 0.8439(3)
C13 C 0.9236(6) 1.1228(9) 0.8193(3)
H9 H 0.9973 1.1626 0.8441
C14 C 0.8913(7) 1.1757(10) 0.7589(3)
H10 H 0.9415 1.2513 0.7433
C15 C 0.7833(7) 1.1142(10) 0.7223(3)
H11 H 0.7603 1.1492 0.6815
C16 C 0.7098(7) 1.0040(9) 0.7442(3)
H12 H 0.6385 0.9611 0.7184
C17 C 0.7416(7) 0.9557(9) 0.8054(3)
H13 H 0.6891 0.8831 0.8210
C18 C 0.6299(8) 0.3622(9) 0.9889(4)
F1 F 0.6003(5) 0.2246(5) 0.9571(2)
F2 F 0.5175(4) 0.4282(6) 0.9941(2)
F3 F 0.6859(5) 0.3189(6) 1.0451(2)
O1 O 0.8271(4) 0.3856(6) 0.9566(2)
H14 H 0.8784 0.4038 0.9886
O2 O 1.0047(4) 0.9612(7) 0.9323(2)
Br2 Br 0.83999(9) -0.02149(12) 0.09952(4)
C19 C 1.0523(7) 0.1587(9) 0.2610(3)
H15 H 1.1238 0.2242 0.2716
C20 C 1.0036(7) 0.1248(9) 0.1987(3)
H16 H 1.0422 0.1676 0.1677
C21 C 0.8986(7) 0.0282(7) 0.1839(3)
C22 C 0.8387(6) -0.0373(9) 0.2286(3)
H17 H 0.7667 -0.1019 0.2176
C23 C 0.8876(6) -0.0050(9) 0.2895(3)
H18 H 0.8488 -0.0510 0.3198
C24 C 0.9934(6) 0.0940(8) 0.3077(3)
C25 C 1.0497(7) 0.1299(9) 0.3756(3)
C26 C 0.9443(7) 0.1803(9) 0.4123(3)
H19 H 0.8900 0.0886 0.4162
H20 H 0.9838 0.2148 0.4536
C27 C 0.8657(7) 0.3131(8) 0.3800(3)
H21 H 0.8049 0.2866 0.3453
C28 C 0.8751(7) 0.4649(10) 0.3964(3)
H22 H 0.9359 0.4946 0.4307
C29 C 0.7925(8) 0.5902(9) 0.3623(4)
C30 C 0.7387(7) 0.5793(8) 0.2958(3)
C31 C 0.8045(7) 0.5009(9) 0.2551(3)
H23 H 0.8822 0.4508 0.2701
C32 C 0.7528(7) 0.4980(11) 0.1915(4)
H24 H 0.7968 0.4464 0.1643
C33 C 0.6386(8) 0.5703(10) 0.1693(4)
H25 H 0.6044 0.5668 0.1272
C34 C 0.5742(7) 0.6481(11) 0.2091(4)
H26 H 0.4963 0.6974 0.1938
C35 C 0.6232(7) 0.6535(10) 0.2705(4)
H27 H 0.5787 0.7084 0.2966
C36 C 1.1228(7) -0.0187(12) 0.4044(3)
F4 F 1.1769(5) 0.0075(6) 0.4629(2)
F5 F 1.0449(5) -0.1453(6) 0.4052(2)
F6 F 1.2130(4) -0.0653(6) 0.3755(2)
O3 O 1.1400(5) 0.2536(7) 0.3772(2)
H28 H 1.1543 0.2943 0.4118
O4 O 0.7679(6) 0.7105(7) 0.3920(3)
C37 C 0.3187(11) 0.4720(16) 0.5067(6)
H29 H 0.3077 0.5289 0.5445
C38 C 0.4483(15) 0.402(3) 0.5270(11)
H30 H 0.4989 0.4721 0.5564
H31 H 0.4886 0.3884 0.4917
H32 H 0.4410 0.2986 0.5459
C39 C 0.3053(19) 0.604(2) 0.4627(7)
H33 H 0.3048 0.7040 0.4843
H34 H 0.2266 0.5920 0.4336
H35 H 0.3756 0.6023 0.4410
O5 O 0.2061(7) 0.3778(11) 0.4950(3)
H36 H 0.1961 0.3336 0.5271
C40? C 0.3926(15) 0.408(2) 0.4933(7)
H37? H 0.4627 0.3359 0.5108
C41? C 0.416(3) 0.475(5) 0.4342(9)
H38? H 0.4266 0.5891 0.4378
H39? H 0.3446 0.4504 0.4018
H40? H 0.4919 0.4271 0.4244
C42? C 0.396(3) 0.556(2) 0.5343(12)
H41? H 0.3372 0.6356 0.5135
H42? H 0.4804 0.6004 0.5425
H43? H 0.3711 0.5268 0.5726
O6? O 0.2773(12) 0.3366(17) 0.4967(7)
H44? H 0.2839 0.2386 0.4939
loop_
_geom_bond_atom_site_label_1
_geom_bond_atom_site_label_2
_geom_bond_site_symmetry_1
_geom_bond_site_symmetry_2
Br1 C3 1_555 1_555
C1 H1 1_555 1_555
C2 C1 1_555 1_555
H2 C2 1_555 1_555
C3 C2 1_555 1_555
C4 C3 1_555 1_555
H3 C4 1_555 1_555
C5 C4 1_555 1_555
H4 C5 1_555 1_555
C6 C1 1_555 1_555
C7 C6 1_555 1_555
C8 C7 1_555 1_555
H5 C8 1_555 1_555
H6 C8 1_555 1_555
C9 C8 1_555 1_555
H7 C9 1_555 1_555
C10 C9 1_555 1_555
H8 C10 1_555 1_555
C11 C10 1_555 1_555
C12 C11 1_555 1_555
C13 C12 1_555 1_555
H9 C13 1_555 1_555
C14 C13 1_555 1_555
H10 C14 1_555 1_555
C15 C14 1_555 1_555
H11 C15 1_555 1_555
C16 C15 1_555 1_555
H12 C16 1_555 1_555
C17 C12 1_555 1_555
H13 C17 1_555 1_555
C18 C7 1_555 1_555
F1 C18 1_555 1_555
F2 C18 1_555 1_555
F3 C18 1_555 1_555
O1 C7 1_555 1_555
H14 O1 1_555 1_555
O2 C11 1_555 1_555
Br2 C21 1_555 1_555
C19 H15 1_555 1_555
C20 C19 1_555 1_555
H16 C20 1_555 1_555
C21 C20 1_555 1_555
C22 C21 1_555 1_555
H17 C22 1_555 1_555
C23 C22 1_555 1_555
H18 C23 1_555 1_555
C24 C19 1_555 1_555
C25 C24 1_555 1_555
C26 C25 1_555 1_555
H19 C26 1_555 1_555
H20 C26 1_555 1_555
C27 C26 1_555 1_555
H21 C27 1_555 1_555
C28 C27 1_555 1_555
H22 C28 1_555 1_555
C29 C28 1_555 1_555
C30 C29 1_555 1_555
C31 C30 1_555 1_555
H23 C31 1_555 1_555
C32 C31 1_555 1_555
H24 C32 1_555 1_555
C33 C32 1_555 1_555
H25 C33 1_555 1_555
C34 C33 1_555 1_555
H26 C34 1_555 1_555
C35 C30 1_555 1_555
H27 C35 1_555 1_555
C36 C25 1_555 1_555
F4 C36 1_555 1_555
F5 C36 1_555 1_555
F6 C36 1_555 1_555
O3 C25 1_555 1_555
H28 O3 1_555 1_555
O4 C29 1_555 1_555
C37 H29 1_555 1_555
C38 C37 1_555 1_555
H30 C38 1_555 1_555
H31 C38 1_555 1_555
H32 C38 1_555 1_555
C39 C37 1_555 1_555
H33 C39 1_555 1_555
H34 C39 1_555 1_555
H35 C39 1_555 1_555
O5 C37 1_555 1_555
H36 O5 1_555 1_555
C5 C6 1_555 1_555
C16 C17 1_555 1_555
C23 C24 1_555 1_555
C34 C35 1_555 1_555

#END
