
#######################################################################
#
#                 Cambridge Crystallographic Data Centre
#                                CCDC 
#
#######################################################################
#
# If this CIF has been generated from an entry in the Cambridge 
# Structural Database, then it will include bibliographic, chemical, 
# crystal, experimental, refinement or atomic coordinate data resulting 
# from the CCDC's data processing and validation procedures.
#
#######################################################################

data_KABLOQ
_chemical_name_common            1-Benzylidene-4-ethylthiosemicarbazide
_chemical_formula_moiety         'C10 H13 N3 S1'
_chemical_name_systematic        2-Benzylidene-N-ethylhydrazinecarbothioamide
_symmetry_cell_setting           monoclinic
_symmetry_space_group_name_H-M   'P 21/c'
_symmetry_Int_Tables_number      14
_space_group_name_Hall           '-P 2ybc'
loop_
_symmetry_equiv_pos_site_id
_symmetry_equiv_pos_as_xyz
1 x,y,z
2 -x,1/2+y,1/2-z
3 -x,-y,-z
4 x,1/2-y,1/2+z
_cell_length_a                   8.4899(17)
_cell_length_b                   13.467(3)
_cell_length_c                   10.015(2)
_cell_angle_alpha                90
_cell_angle_beta                 96.04(3)
_cell_angle_gamma                90
_cell_volume                     1138.69
_exptl_crystal_colour            colorless
_exptl_crystal_description       block
_cell_formula_units_Z            4
loop_
_atom_site_label
_atom_site_type_symbol
_atom_site_fract_x
_atom_site_fract_y
_atom_site_fract_z
S1 S 0.28967(7) 0.39580(4) -0.07292(4)
N1 N 0.25491(17) 0.29999(11) 0.15603(14)
H1 H 0.2916 0.2862 0.2372
N2 N 0.46620(17) 0.40411(10) 0.15771(13)
H2 H 0.5279 0.4416 0.1171
N3 N 0.50010(15) 0.38467(9) 0.29257(13)
C1 C 0.61893(18) 0.43036(12) 0.35133(16)
H3 H 0.6768 0.4724 0.3014
C2 C 0.3357(2) 0.36416(12) 0.08914(15)
C3 C 0.66728(17) 0.41886(11) 0.49435(16)
C4 C 0.5847(2) 0.35906(13) 0.57650(17)
H4 H 0.4966 0.3235 0.5399
C5 C 0.7983(2) 0.47106(14) 0.55174(19)
H5 H 0.8542 0.5117 0.4983
C6 C 0.6330(3) 0.35251(16) 0.71139(19)
H6 H 0.5773 0.3125 0.7658
C7 C 0.8465(2) 0.46324(17) 0.6869(2)
H7 H 0.9356 0.4977 0.7238
C8 C 0.7637(3) 0.40488(16) 0.7670(2)
H8 H 0.7953 0.4005 0.8586
C9 C -0.0363(3) 0.3091(2) 0.1253(3)
H9 H -0.1290 0.2740 0.0876
H10 H -0.0324 0.3729 0.0832
H11 H -0.0405 0.3176 0.2200
C10 C 0.1083(3) 0.25096(16) 0.1020(2)
H12 H 0.1027 0.1862 0.1435
H13 H 0.1102 0.2410 0.0063
loop_
_geom_bond_atom_site_label_1
_geom_bond_atom_site_label_2
_geom_bond_site_symmetry_1
_geom_bond_site_symmetry_2
S1 C2 1_555 1_555
N1 H1 1_555 1_555
N2 H2 1_555 1_555
N3 N2 1_555 1_555
C1 N3 1_555 1_555
H3 C1 1_555 1_555
C2 N1 1_555 1_555
C3 C1 1_555 1_555
C4 C3 1_555 1_555
H4 C4 1_555 1_555
C5 C3 1_555 1_555
H5 C5 1_555 1_555
C6 C4 1_555 1_555
H6 C6 1_555 1_555
C7 C5 1_555 1_555
H7 C7 1_555 1_555
C8 C6 1_555 1_555
H8 C8 1_555 1_555
C9 H9 1_555 1_555
H10 C9 1_555 1_555
H11 C9 1_555 1_555
C10 N1 1_555 1_555
H12 C10 1_555 1_555
H13 C10 1_555 1_555
N2 C2 1_555 1_555
C7 C8 1_555 1_555
C9 C10 1_555 1_555

#END
