
#######################################################################
#
#                 Cambridge Crystallographic Data Centre
#                                CCDC 
#
#######################################################################
#
# If this CIF has been generated from an entry in the Cambridge 
# Structural Database, then it will include bibliographic, chemical, 
# crystal, experimental, refinement or atomic coordinate data resulting 
# from the CCDC's data processing and validation procedures.
#
#######################################################################

data_KACBEV01
_chemical_formula_moiety         'C4 H4 D1 O4 1-,C8 H12 N1 1+'
_chemical_name_systematic        
'(+)-(R)-\a-Phenylethylammonium (-)-(2R)-2-deuterosuccinate'
_symmetry_cell_setting           monoclinic
_symmetry_space_group_name_H-M   'P 21'
_symmetry_Int_Tables_number      4
_space_group_name_Hall           'P 2yb'
loop_
_symmetry_equiv_pos_site_id
_symmetry_equiv_pos_as_xyz
1 x,y,z
2 -x,1/2+y,-z
_cell_length_a                   8.407(2)
_cell_length_b                   8.300(4)
_cell_length_c                   8.614(2)
_cell_angle_alpha                90
_cell_angle_beta                 91.20(3)
_cell_angle_gamma                90
_cell_volume                     600.937
_exptl_crystal_colour            colorless
_cell_formula_units_Z            2
loop_
_atom_site_label
_atom_site_type_symbol
_atom_site_fract_x
_atom_site_fract_y
_atom_site_fract_z
C1 C 0.7691(1) 0.6621(2) 0.9329(1)
C2 C 0.8904(1) 0.5560(2) 1.0146(1)
C3 C 0.8253(1) 0.4558(2) 1.1480(1)
C4 C 0.7083(1) 0.3272(2) 1.0933(1)
O1 O 0.8087(2) 0.7787(3) 0.8553(2)
O2 O 0.6202(2) 0.6164(3) 0.9487(2)
O3 O 0.7406(2) 0.2472(3) 0.9757(2)
O4 O 0.5845(2) 0.3050(3) 1.1745(1)
H1 H 0.5374(3) 0.6959(4) 0.8936(3)
H2 H 0.9892(4) 0.6339(5) 1.0532(4)
H3 H 0.9262(4) 0.3922(4) 1.2041(4)
D1 D 0.939(2) 0.473(2) 0.929(2)
H4 H 0.769(2) 0.536(2) 1.234(2)
N1 N 0.3788(1) 0.5483(2) 0.2480(1)
C5 C 0.2624(2) 0.7548(1) 0.4177(1)
C6 C 0.4050(2) 0.6447(2) 0.3936(1)
C7 C 0.5605(1) 0.7360(2) 0.3828(1)
C8 C 0.5883(2) 0.8401(2) 0.2586(1)
C9 C 0.7339(2) 0.9200(2) 0.2474(1)
C10 C 0.8520(2) 0.8972(2) 0.3610(1)
C11 C 0.8244(2) 0.7958(2) 0.4873(1)
C12 C 0.6784(2) 0.7156(2) 0.4977(1)
H5 H 0.4146(4) 0.5578(4) 0.4896(3)
H6 H 0.2767(4) 0.8180(6) 0.5271(4)
H7 H 0.2510(4) 0.8419(5) 0.3233(4)
H8 H 0.1516(4) 0.6842(5) 0.4204(4)
H9 H 0.2854(4) 0.4682(4) 0.2550(3)
H10 H 0.4760(4) 0.4740(4) 0.2229(3)
H11 H 0.3529(3) 0.6227(4) 0.1512(3)
H12 H 0.4976(4) 0.8598(4) 0.1691(3)
H13 H 0.7545(4) 0.9998(4) 0.1494(3)
H14 H 0.9658(4) 0.9596(5) 0.3521(4)
H15 H 0.9142(4) 0.7789(5) 0.5779(3)
H16 H 0.6569(4) 0.6372(5) 0.5965(3)
loop_
_geom_bond_atom_site_label_1
_geom_bond_atom_site_label_2
_geom_bond_site_symmetry_1
_geom_bond_site_symmetry_2
C1 C2 1_555 1_555
C2 C3 1_555 1_555
C3 C4 1_555 1_555
C4 O3 1_555 1_555
O1 C1 1_555 1_555
O2 C1 1_555 1_555
O4 C4 1_555 1_555
H1 O2 1_555 1_555
H2 C2 1_555 1_555
H3 C3 1_555 1_555
D1 C2 1_555 1_555
H4 C3 1_555 1_555
N1 C6 1_555 1_555
C5 C6 1_555 1_555
C6 C7 1_555 1_555
C7 C8 1_555 1_555
C8 C9 1_555 1_555
C9 C10 1_555 1_555
C10 C11 1_555 1_555
C11 C12 1_555 1_555
C12 C7 1_555 1_555
H5 C6 1_555 1_555
H6 C5 1_555 1_555
H7 C5 1_555 1_555
H8 C5 1_555 1_555
H9 N1 1_555 1_555
H10 N1 1_555 1_555
H11 N1 1_555 1_555
H12 C8 1_555 1_555
H13 C9 1_555 1_555
H14 C10 1_555 1_555
H15 C11 1_555 1_555
H16 C12 1_555 1_555

#END
