
#######################################################################
#
#                 Cambridge Crystallographic Data Centre
#                                CCDC 
#
#######################################################################
#
# If this CIF has been generated from an entry in the Cambridge 
# Structural Database, then it will include bibliographic, chemical, 
# crystal, experimental, refinement or atomic coordinate data resulting 
# from the CCDC's data processing and validation procedures.
#
#######################################################################

data_KACYAQ
_chemical_formula_moiety         'C22 H19 N3 O2 S1'
_chemical_name_systematic        
2,2'-(1,1-Dioxido-4H-1,4-thiazine-3,5-diyl)bis(3-methyl-1H-indole)
_symmetry_cell_setting           monoclinic
_symmetry_space_group_name_H-M   'C 2/c'
_symmetry_Int_Tables_number      15
_space_group_name_Hall           '-C 2yn'
loop_
_symmetry_equiv_pos_site_id
_symmetry_equiv_pos_as_xyz
1 x,y,z
2 -x,y,1/2-z
3 1/2+x,1/2+y,z
4 1/2-x,1/2+y,1/2-z
5 -x,-y,-z
6 x,-y,1/2+z
7 1/2-x,1/2-y,-z
8 1/2+x,1/2-y,1/2+z
_cell_length_a                   27.937(6)
_cell_length_b                   6.7394(13)
_cell_length_c                   9.871(2)
_cell_angle_alpha                90
_cell_angle_beta                 92.11(3)
_cell_angle_gamma                90
_cell_volume                     1857.24
_exptl_crystal_colour            orange
_exptl_crystal_description       petal
_cell_formula_units_Z            4
loop_
_atom_site_label
_atom_site_type_symbol
_atom_site_fract_x
_atom_site_fract_y
_atom_site_fract_z
O1 O 0.48221(6) 0.0183(2) 0.63795(16)
S1 S 0.5000 0.14016(11) 0.7500
C1 C 0.45680(8) 0.2983(3) 0.8003(2)
H1 H 0.4286 0.2427 0.8356
C2 C 0.45995(8) 0.4989(3) 0.7934(2)
N1 N 0.5000 0.5943(4) 0.7500
H2 H 0.5000 0.7249 0.7500
C3 C 0.41954(8) 0.6213(3) 0.8333(2)
N2 N 0.42611(6) 0.7914(3) 0.91146(19)
H3 H 0.4539 0.8389 0.9411
C4 C 0.38208(8) 0.8732(3) 0.9349(2)
C5 C 0.34729(8) 0.7545(3) 0.8668(2)
C6 C 0.37149(8) 0.5939(3) 0.8033(2)
C7 C 0.34786(9) 0.4337(4) 0.7193(3)
H4 H 0.3694 0.3916 0.6486
H5 H 0.3180 0.4846 0.6771
H6 H 0.3407 0.3203 0.7773
C8 C 0.37044(8) 1.0371(4) 1.0123(2)
H7 H 0.3943 1.1132 1.0595
C9 C 0.32236(9) 1.0840(4) 1.0172(3)
H8 H 0.3130 1.1950 1.0693
C10 C 0.28728(9) 0.9732(4) 0.9478(3)
H9 H 0.2547 1.0123 0.9517
C11 C 0.29880(8) 0.8081(4) 0.8736(2)
H10 H 0.2745 0.7321 0.8279
O1A O 0.51779(6) 0.0183(2) 0.86205(16)
C1A C 0.54320(8) 0.2983(3) 0.6997(2)
H1A H 0.5714 0.2427 0.6644
C2A C 0.54005(8) 0.4989(3) 0.7066(2)
C3A C 0.58046(8) 0.6213(3) 0.6667(2)
N2A N 0.57389(6) 0.7914(3) 0.58854(19)
H3A H 0.5461 0.8389 0.5589
C4A C 0.61792(8) 0.8732(3) 0.5651(2)
C5A C 0.65271(8) 0.7545(3) 0.6332(2)
C6A C 0.62851(8) 0.5939(3) 0.6967(2)
C7A C 0.65214(9) 0.4337(4) 0.7807(3)
H4A H 0.6306 0.3916 0.8514
H5A H 0.6820 0.4846 0.8229
H6A H 0.6593 0.3203 0.7227
C8A C 0.62956(8) 1.0371(4) 0.4877(2)
H7A H 0.6057 1.1132 0.4405
C9A C 0.67764(9) 1.0840(4) 0.4828(3)
H8A H 0.6870 1.1950 0.4307
C10A C 0.71272(9) 0.9732(4) 0.5522(3)
H9A H 0.7453 1.0123 0.5483
C11A C 0.70120(8) 0.8081(4) 0.6264(2)
H10A H 0.7255 0.7321 0.6721
loop_
_geom_bond_atom_site_label_1
_geom_bond_atom_site_label_2
_geom_bond_site_symmetry_1
_geom_bond_site_symmetry_2
O1 S1 1_555 1_555
S1 C1 1_555 1_555
C1 H1 1_555 1_555
C2 C1 1_555 1_555
N1 C2 1_555 1_555
H2 N1 1_555 1_555
C3 C2 1_555 1_555
N2 C3 1_555 1_555
H3 N2 1_555 1_555
C4 N2 1_555 1_555
C5 C4 1_555 1_555
C6 C3 1_555 1_555
C7 C6 1_555 1_555
H4 C7 1_555 1_555
H5 C7 1_555 1_555
H6 C7 1_555 1_555
C8 C4 1_555 1_555
H7 C8 1_555 1_555
C9 C8 1_555 1_555
H8 C9 1_555 1_555
C10 C9 1_555 1_555
H9 C10 1_555 1_555
C11 C5 1_555 1_555
H10 C11 1_555 1_555
O1A S1 1_555 1_555
C1A S1 1_555 1_555
H1A C1A 1_555 1_555
C2A N1 1_555 1_555
C3A C2A 1_555 1_555
N2A C3A 1_555 1_555
H3A N2A 1_555 1_555
C4A N2A 1_555 1_555
C5A C4A 1_555 1_555
C6A C3A 1_555 1_555
C7A C6A 1_555 1_555
H4A C7A 1_555 1_555
H5A C7A 1_555 1_555
H6A C7A 1_555 1_555
C8A C4A 1_555 1_555
H7A C8A 1_555 1_555
C9A C8A 1_555 1_555
H8A C9A 1_555 1_555
C10A C9A 1_555 1_555
H9A C10A 1_555 1_555
C11A C5A 1_555 1_555
H10A C11A 1_555 1_555
C5 C6 1_555 1_555
C10 C11 1_555 1_555
C1A C2A 1_555 1_555
C5A C6A 1_555 1_555
C10A C11A 1_555 1_555

#END
