
#######################################################################
#
#                 Cambridge Crystallographic Data Centre
#                                CCDC 
#
#######################################################################
#
# If this CIF has been generated from an entry in the Cambridge 
# Structural Database, then it will include bibliographic, chemical, 
# crystal, experimental, refinement or atomic coordinate data resulting 
# from the CCDC's data processing and validation procedures.
#
#######################################################################

data_KADDIE
_chemical_formula_moiety         'C14 H14 N4 O2'
_chemical_name_systematic        
'2-Ethoxybenzaldehyde (pyrazin-2-ylcarbonyl)hydrazone'
_symmetry_cell_setting           monoclinic
_symmetry_space_group_name_H-M   'P 21/c'
_symmetry_Int_Tables_number      14
_space_group_name_Hall           '-P 2ybc'
loop_
_symmetry_equiv_pos_site_id
_symmetry_equiv_pos_as_xyz
1 x,y,z
2 -x,1/2+y,1/2-z
3 -x,-y,-z
4 x,1/2-y,1/2+z
_cell_length_a                   7.8611(2)
_cell_length_b                   14.9914(5)
_cell_length_c                   11.8822(4)
_cell_angle_alpha                90
_cell_angle_beta                 108.8283(18)
_cell_angle_gamma                90
_cell_volume                     1325.37
_exptl_crystal_colour            colorless
_exptl_crystal_description       block
_chemical_melting_point          '483-484 K'
_cell_formula_units_Z            4
_exptl_crystal_recrystallization_method ethanol
loop_
_atom_site_label
_atom_site_type_symbol
_atom_site_fract_x
_atom_site_fract_y
_atom_site_fract_z
O1 O 0.78296(14) 0.58143(7) 0.18444(9)
O2 O 0.71770(14) 0.45882(7) 0.71155(9)
N1 N 1.03029(16) 0.82089(8) 0.15589(11)
N2 N 1.01552(16) 0.75548(8) 0.37471(11)
N3 N 0.85704(14) 0.59728(7) 0.38572(10)
H1 H 0.9120 0.6293 0.4491
N4 N 0.76882(14) 0.51917(7) 0.39438(10)
C1 C 0.94886(17) 0.70982(9) 0.27325(12)
C2 C 0.95799(18) 0.74126(9) 0.16530(13)
H2 H 0.9118 0.7054 0.0962
C3 C 1.09927(19) 0.86599(10) 0.25739(13)
H3 H 1.1540 0.9223 0.2557
C4 C 1.0934(2) 0.83309(10) 0.36512(13)
H4 H 1.1469 0.8671 0.4351
C5 C 0.85589(17) 0.62282(9) 0.27608(12)
C6 C 0.75562(17) 0.50135(9) 0.49634(12)
H5 H 0.8052 0.5406 0.5615
C7 C 0.66280(17) 0.41939(9) 0.51179(12)
C8 C 0.64636(18) 0.39869(9) 0.62311(12)
C9 C 0.56091(19) 0.32015(10) 0.63839(14)
H6 H 0.5522 0.3057 0.7142
C10 C 0.4891(2) 0.26365(10) 0.54335(15)
H7 H 0.4313 0.2102 0.5543
C11 C 0.5002(2) 0.28371(10) 0.43216(15)
H8 H 0.4482 0.2450 0.3668
C12 C 0.58766(18) 0.36072(10) 0.41720(13)
H9 H 0.5969 0.3740 0.3412
C13 C 0.6702(2) 0.44929(12) 0.81831(14)
H10 H 0.7231 0.3940 0.8608
H11 H 0.5380 0.4463 0.7986
C14 C 0.7425(3) 0.52863(13) 0.89378(15)
H12 H 0.8736 0.5300 0.9143
H13 H 0.7101 0.5252 0.9667
H14 H 0.6913 0.5830 0.8500
loop_
_geom_bond_atom_site_label_1
_geom_bond_atom_site_label_2
_geom_bond_site_symmetry_1
_geom_bond_site_symmetry_2
O1 C5 1_555 1_555
O2 C8 1_555 1_555
N1 C2 1_555 1_555
N2 C1 1_555 1_555
N3 H1 1_555 1_555
N4 N3 1_555 1_555
C1 C2 1_555 1_555
C2 H2 1_555 1_555
C3 N1 1_555 1_555
H3 C3 1_555 1_555
C4 N2 1_555 1_555
H4 C4 1_555 1_555
C5 N3 1_555 1_555
C6 N4 1_555 1_555
H5 C6 1_555 1_555
C7 C6 1_555 1_555
C8 C7 1_555 1_555
C9 C8 1_555 1_555
H6 C9 1_555 1_555
C10 C9 1_555 1_555
H7 C10 1_555 1_555
C11 C10 1_555 1_555
H8 C11 1_555 1_555
C12 C7 1_555 1_555
H9 C12 1_555 1_555
C13 O2 1_555 1_555
H10 C13 1_555 1_555
H11 C13 1_555 1_555
C14 C13 1_555 1_555
H12 C14 1_555 1_555
H13 C14 1_555 1_555
H14 C14 1_555 1_555
C1 C5 1_555 1_555
C3 C4 1_555 1_555
C11 C12 1_555 1_555

#END
