
#######################################################################
#
#                 Cambridge Crystallographic Data Centre
#                                CCDC 
#
#######################################################################
#
# If this CIF has been generated from an entry in the Cambridge 
# Structural Database, then it will include bibliographic, chemical, 
# crystal, experimental, refinement or atomic coordinate data resulting 
# from the CCDC's data processing and validation procedures.
#
#######################################################################

data_KAFJAC
_chemical_formula_moiety         'C18 H25 I1 N1 O2 Si1 1+,C1 F3 O3 S1 1-'
_chemical_name_systematic        
'Phenyl (1-t-butoxycarbonyl-4-(trimethylsilyl)-1H-pyrrol-3-yliodonium) trifluoromethanesulfonate'
_symmetry_cell_setting           monoclinic
_symmetry_space_group_name_H-M   'P 21/c'
_symmetry_Int_Tables_number      14
_space_group_name_Hall           '-P 2ybc'
loop_
_symmetry_equiv_pos_site_id
_symmetry_equiv_pos_as_xyz
1 x,y,z
2 -x,1/2+y,1/2-z
3 -x,-y,-z
4 x,1/2-y,1/2+z
_cell_length_a                   11.654(2)
_cell_length_b                   20.607(4)
_cell_length_c                   11.567(2)
_cell_angle_alpha                90
_cell_angle_beta                 112.49(3)
_cell_angle_gamma                90
_cell_volume                     2566.59
_exptl_crystal_colour            colorless
_chemical_melting_point          128-130deg.C
_cell_formula_units_Z            4
loop_
_atom_site_label
_atom_site_type_symbol
_atom_site_fract_x
_atom_site_fract_y
_atom_site_fract_z
I1 I 0.8223(1) 0.3370(1) 0.1865(1)
Si1 Si 1.1001(3) 0.4620(1) 0.3221(2)
O7 O 1.0407(6) 0.2529(3) 0.6971(6)
O8 O 1.1916(6) 0.3291(3) 0.7610(6)
C1 C 0.6780(8) 0.3899(4) 0.2113(8)
C2 C 0.6296(9) 0.3647(5) 0.2932(9)
C3 C 0.5364(10) 0.4009(5) 0.3101(10)
C4 C 0.4986(11) 0.4592(5) 0.2510(10)
C5 C 0.5495(10) 0.4822(5) 0.1729(10)
C6 C 0.6408(9) 0.4476(5) 0.1506(10)
C7 C 0.9514(8) 0.3499(4) 0.3653(8)
C8 C 0.9553(7) 0.3106(4) 0.4626(7)
C9 C 1.1130(8) 0.3820(4) 0.5287(8)
C10 C 1.0512(7) 0.3965(4) 0.4062(7)
C11 C 1.1971(20) 0.5187(11) 0.4463(21)
C12 C 1.1458(14) 0.4260(7) 0.2022(13)
C13 C 0.9737(16) 0.5179(7) 0.2445(16)
C14 C 1.0926(7) 0.3002(4) 0.6807(7)
C15 C 1.2550(9) 0.3056(5) 0.8923(9)
C16 C 1.3404(21) 0.3646(11) 0.9527(20)
C17 C 1.2846(21) 0.2333(10) 0.8971(20)
C18 C 1.1834(26) 0.2978(14) 0.9637(25)
N1 N 1.0554(6) 0.3305(3) 0.5644(6)
H1 H 0.6581(9) 0.3243(5) 0.3356(9)
H2 H 0.4980(10) 0.3849(5) 0.3645(10)
H3 H 0.4345(11) 0.4835(5) 0.2645(10)
H4 H 0.5229(10) 0.5235(5) 0.1330(10)
H5 H 0.6772(9) 0.4633(5) 0.0942(10)
H6 H 0.8995(7) 0.2759(4) 0.4598(7)
H7 H 1.1861(8) 0.4041(4) 0.5835(8)
H8 H 1.1866(20) 0.5157(11) 0.5246(21)
H9 H 1.1970(20) 0.5629(11) 0.4197(21)
H10 H 1.2257(14) 0.4243(7) 0.1963(13)
H11 H 0.8980(16) 0.5262(7) 0.1741(16)
S1 S 0.7081(3) 0.3536(2) -0.1571(3)
O1 O 0.8084(33) 0.3694(17) -0.2038(33)
O2 O 0.7403(19) 0.2930(9) -0.1003(18)
O3 O 0.6448(18) 0.3781(10) -0.0802(19)
C19 C 0.5850(15) 0.3395(7) -0.3004(16)
F1 F 0.5774(17) 0.2832(9) -0.3530(18)
F2 F 0.5790(19) 0.3880(9) -0.3819(18)
F3 F 0.4721(19) 0.3516(10) -0.2947(20)
O4? O 0.8030(23) 0.3155(12) -0.1507(23)
O5? O 0.6654(26) 0.3131(14) -0.0795(25)
O6? O 0.7155(17) 0.4186(9) -0.1385(18)
F4? F 0.6256(21) 0.3236(11) -0.3919(22)
F5? F 0.5014(25) 0.3843(12) -0.3468(24)
F6? F 0.5139(20) 0.2909(11) -0.2881(19)
C20? C 1.2585(22) 0.4925(11) 0.4324(22)
C21? C 1.3745(22) 0.3468(10) 0.9388(21)
C22? C 1.3280(27) 0.2398(13) 0.8738(26)
C23? C 1.1449(24) 0.3199(13) 0.9521(24)
H12? H 1.3118(22) 0.5120(11) 0.3962(22)
H13? H 1.3014(22) 0.4645(11) 0.5019(22)
loop_
_geom_bond_atom_site_label_1
_geom_bond_atom_site_label_2
_geom_bond_site_symmetry_1
_geom_bond_site_symmetry_2
I1 C1 1_555 1_555
Si1 C10 1_555 1_555
S1 O1 1_555 1_555
O2 S1 1_555 1_555
O3 S1 1_555 1_555
O7 C14 1_555 1_555
O8 C14 1_555 1_555
C1 C2 1_555 1_555
C2 C3 1_555 1_555
C3 C4 1_555 1_555
C4 C5 1_555 1_555
C5 C6 1_555 1_555
C6 C1 1_555 1_555
C7 I1 1_555 1_555
C8 C7 1_555 1_555
C9 C10 1_555 1_555
C10 C7 1_555 1_555
C11 Si1 1_555 1_555
C12 Si1 1_555 1_555
C13 Si1 1_555 1_555
C14 N1 1_555 1_555
C15 O8 1_555 1_555
C16 C15 1_555 1_555
C17 C15 1_555 1_555
C18 C15 1_555 1_555
C19 S1 1_555 1_555
N1 C8 1_555 1_555
F1 C19 1_555 1_555
F2 C19 1_555 1_555
F3 C19 1_555 1_555
H1 C2 1_555 1_555
H2 C3 1_555 1_555
H3 C4 1_555 1_555
H4 C5 1_555 1_555
H5 C6 1_555 1_555
H6 C8 1_555 1_555
H7 C9 1_555 1_555
H8 C11 1_555 1_555
H9 C11 1_555 1_555
H10 C12 1_555 1_555
H11 C13 1_555 1_555
C9 N1 1_555 1_555

#END
