
#######################################################################
#
#                 Cambridge Crystallographic Data Centre
#                                CCDC 
#
#######################################################################
#
# If this CIF has been generated from an entry in the Cambridge 
# Structural Database, then it will include bibliographic, chemical, 
# crystal, experimental, refinement or atomic coordinate data resulting 
# from the CCDC's data processing and validation procedures.
#
#######################################################################

data_KAGKIN
_chemical_formula_moiety         'C3 H9 B12 F11 N1 1-,C19 H15 1+'
_chemical_name_systematic        
'triphenylcarbenium trimethylammonioundecafluoro-closo-dodecaborate'
_symmetry_cell_setting           monoclinic
_symmetry_space_group_name_H-M   'P 21/c'
_symmetry_Int_Tables_number      14
_space_group_name_Hall           '-P 2ybc'
loop_
_symmetry_equiv_pos_site_id
_symmetry_equiv_pos_as_xyz
1 x,y,z
2 -x,1/2+y,1/2-z
3 -x,-y,-z
4 x,1/2-y,1/2+z
_cell_length_a                   18.053(3)
_cell_length_b                   33.139(5)
_cell_length_c                   9.600(2)
_cell_angle_alpha                90
_cell_angle_beta                 91.459(4)
_cell_angle_gamma                90
_cell_volume                     5741.42
_exptl_crystal_colour            yellow
_exptl_crystal_description       'thick plate'
_cell_formula_units_Z            8
loop_
_atom_site_label
_atom_site_type_symbol
_atom_site_fract_x
_atom_site_fract_y
_atom_site_fract_z
C1 C 0.2715(2) 0.49173(10) 0.2642(4)
C2 C 0.3213(2) 0.49148(11) 0.3848(4)
C3 C 0.3698(2) 0.52396(11) 0.4106(4)
H1 H 0.3715(2) 0.54579(11) 0.3466(4)
C4 C 0.4149(2) 0.52417(13) 0.5287(5)
H2 H 0.4463(2) 0.54659(13) 0.5480(5)
C5 C 0.4143(2) 0.49168(15) 0.6187(5)
H3 H 0.4460(2) 0.49176(15) 0.6992(5)
C6 C 0.3684(2) 0.45917(14) 0.5934(5)
H4 H 0.3693(2) 0.43669(14) 0.6548(5)
C7 C 0.3215(2) 0.45944(12) 0.4795(4)
H5 H 0.2885(2) 0.43745(12) 0.4643(4)
C8 C 0.1972(2) 0.47539(10) 0.2758(4)
C9 C 0.1591(2) 0.48095(10) 0.3994(4)
H6 H 0.1825(2) 0.49468(10) 0.4755(4)
C10 C 0.0878(2) 0.46662(11) 0.4115(4)
H7 H 0.0621(2) 0.47057(11) 0.4956(4)
C11 C 0.0540(2) 0.44663(11) 0.3019(5)
H8 H 0.0052(2) 0.43633(11) 0.3109(5)
C12 C 0.0904(2) 0.44146(12) 0.1793(5)
H9 H 0.0663(2) 0.42803(12) 0.1034(5)
C13 C 0.1618(2) 0.45561(11) 0.1655(4)
H10 H 0.1866(2) 0.45181(11) 0.0804(4)
C14 C 0.2950(2) 0.50946(10) 0.1360(4)
C15 C 0.3705(2) 0.51041(11) 0.1019(4)
H11 H 0.4062(2) 0.49726(11) 0.1605(4)
C16 C 0.3926(3) 0.53032(12) -0.0157(5)
H12 H 0.4435(3) 0.53090(12) -0.0386(5)
C17 C 0.3409(3) 0.54928(12) -0.0996(5)
H13 H 0.3567(3) 0.56321(12) -0.1801(5)
C18 C 0.2662(3) 0.54862(12) -0.0698(4)
H14 H 0.2313(3) 0.56205(12) -0.1291(4)
C19 C 0.2432(2) 0.52843(11) 0.0461(4)
H15 H 0.1919(2) 0.52728(11) 0.0656(4)
C20 C 0.3249(3) 0.6997(2) 0.2525(6)
H16 H 0.3614(3) 0.6838(2) 0.3065(6)
H17 H 0.3115(3) 0.7237(2) 0.3056(6)
H18 H 0.3462(3) 0.7079(2) 0.1640(6)
C21 C 0.2052(3) 0.7009(2) 0.1431(5)
H19 H 0.1600(3) 0.6855(2) 0.1211(5)
H20 H 0.2281(3) 0.7094(2) 0.0565(5)
H21 H 0.1926(3) 0.7247(2) 0.1982(5)
C22 C 0.2781(4) 0.6418(2) 0.1285(6)
H22 H 0.2344(4) 0.6249(2) 0.1093(6)
H23 H 0.3175(4) 0.6253(2) 0.1718(6)
H24 H 0.2955(4) 0.6532(2) 0.0411(6)
F1 F 0.29719(12) 0.70973(6) 0.5548(3)
F2 F 0.13260(12) 0.72442(6) 0.4177(3)
F3 F 0.08491(12) 0.64172(7) 0.2480(3)
F4 F 0.21565(12) 0.57639(6) 0.2884(2)
F5 F 0.35006(11) 0.61935(6) 0.4685(2)
F6 F 0.28784(13) 0.63776(7) 0.7731(3)
F7 F 0.15292(14) 0.70234(7) 0.7389(3)
F8 F 0.02113(12) 0.66122(7) 0.5533(3)
F9 F 0.07454(12) 0.57021(6) 0.4733(2)
F10 F 0.23725(12) 0.55579(6) 0.6072(2)
F11 F 0.11603(13) 0.60622(7) 0.7786(2)
N1 N 0.2582(2) 0.67498(9) 0.2249(3)
B1 B 0.2240(2) 0.65837(12) 0.3630(5)
B2 B 0.2472(2) 0.67830(13) 0.5321(5)
B3 B 0.1571(3) 0.68627(13) 0.4581(5)
B4 B 0.1298(2) 0.64152(14) 0.3664(5)
B5 B 0.2033(2) 0.60547(13) 0.3863(5)
B6 B 0.2765(2) 0.62863(13) 0.4861(5)
B7 B 0.2419(3) 0.63845(13) 0.6571(5)
B8 B 0.1670(3) 0.67418(14) 0.6374(5)
B9 B 0.0955(3) 0.65154(14) 0.5364(6)
B10 B 0.1240(2) 0.60193(13) 0.4930(5)
B11 B 0.2143(2) 0.59377(13) 0.5652(5)
B12 B 0.1472(3) 0.62170(13) 0.6587(5)
C23 C 0.5317(3) 0.3065(2) 0.3204(6)
H25 H 0.5710(3) 0.3178(2) 0.2635(6)
H26 H 0.5172(3) 0.2800(2) 0.2840(6)
H27 H 0.5498(3) 0.3038(2) 0.4170(6)
C24 C 0.4079(3) 0.31495(14) 0.4023(5)
H28 H 0.3637(3) 0.33209(14) 0.4018(5)
H29 H 0.4271(3) 0.31186(14) 0.4981(5)
H30 H 0.3951(3) 0.28838(14) 0.3639(5)
C25 C 0.4884(3) 0.37241(13) 0.3893(5)
H31 H 0.4466(3) 0.39127(13) 0.3877(5)
H32 H 0.5304(3) 0.38467(13) 0.3425(5)
H33 H 0.5027(3) 0.36621(13) 0.4861(5)
F12 F 0.4817(2) 0.27002(7) 0.0426(3)
F13 F 0.31625(14) 0.28926(7) 0.1579(3)
F14 F 0.30994(12) 0.38542(7) 0.2318(2)
F15 F 0.46564(13) 0.42610(6) 0.1539(2)
F16 F 0.57360(13) 0.35553(9) 0.0405(3)
F17 F 0.49749(14) 0.31940(10) -0.2430(3)
F18 F 0.33881(15) 0.27908(7) -0.1627(3)
F19 F 0.23512(12) 0.34908(7) -0.0484(3)
F20 F 0.32473(13) 0.43315(6) -0.0563(3)
F21 F 0.48832(14) 0.41545(9) -0.1747(3)
F22 F 0.34438(13) 0.36775(7) -0.3045(3)
N2 N 0.4661(2) 0.33412(9) 0.3151(3)
B13 B 0.4374(2) 0.34256(13) 0.1623(5)
B14 B 0.4475(3) 0.30713(15) 0.0238(6)
B15 B 0.3576(3) 0.31756(13) 0.0875(5)
B16 B 0.3525(2) 0.36992(13) 0.1266(5)
B17 B 0.4387(3) 0.39257(13) 0.0840(5)
B18 B 0.4976(3) 0.3537(2) 0.0203(6)
B19 B 0.4557(3) 0.3342(2) -0.1359(6)
B20 B 0.3688(3) 0.31191(14) -0.0933(6)
B21 B 0.3117(2) 0.35080(13) -0.0303(5)
B22 B 0.3610(3) 0.39681(14) -0.0338(5)
B23 B 0.4505(3) 0.3869(2) -0.0971(6)
B24 B 0.3718(3) 0.36081(14) -0.1714(5)
C26 C 0.1104(2) 0.35585(12) -0.2503(4)
C27 C 0.1459(2) 0.33727(11) -0.3663(4)
C28 C 0.1492(2) 0.35740(12) -0.4946(5)
H34 H 0.1314(2) 0.38429(12) -0.5026(5)
C29 C 0.1777(2) 0.33874(14) -0.6076(5)
H35 H 0.1781(2) 0.35213(14) -0.6951(5)
C30 C 0.2061(3) 0.3001(2) -0.5940(6)
H36 H 0.2259(3) 0.2872(2) -0.6731(6)
C31 C 0.2062(3) 0.28008(15) -0.4686(6)
H37 H 0.2269(3) 0.25379(15) -0.4609(6)
C32 C 0.1760(2) 0.29837(13) -0.3537(5)
H38 H 0.1757(2) 0.28467(13) -0.2668(5)
C33 C 0.1119(2) 0.39989(11) -0.2356(4)
C34 C 0.1762(2) 0.42150(12) -0.2613(4)
H39 H 0.2195(2) 0.40779(12) -0.2901(4)
C35 C 0.1771(2) 0.46298(13) -0.2449(4)
H40 H 0.2217(2) 0.47763(13) -0.2574(4)
C36 C 0.1128(3) 0.48313(13) -0.2100(4)
H41 H 0.1132(3) 0.51172(13) -0.2028(4)
C37 C 0.0495(2) 0.46264(12) -0.1862(4)
H42 H 0.0061(2) 0.47699(12) -0.1624(4)
C38 C 0.0475(2) 0.42074(12) -0.1961(4)
H43 H 0.0034(2) 0.40638(12) -0.1767(4)
C39 C 0.0720(2) 0.33178(11) -0.1498(4)
C40 C 0.0358(2) 0.29580(11) -0.1896(5)
H44 H 0.0389(2) 0.28632(11) -0.2827(5)
C41 C -0.0036(2) 0.27447(12) -0.0951(5)
H45 H -0.0281(2) 0.25030(12) -0.1228(5)
C42 C -0.0080(2) 0.28793(14) 0.0410(5)
H46 H -0.0366(2) 0.27320(14) 0.1054(5)
C43 C 0.0283(2) 0.32230(13) 0.0839(5)
H47 H 0.0265(2) 0.33082(13) 0.1782(5)
C44 C 0.0673(2) 0.34421(12) -0.0108(5)
H48 H 0.0917(2) 0.36829(12) 0.0185(5)
loop_
_geom_bond_atom_site_label_1
_geom_bond_atom_site_label_2
_geom_bond_site_symmetry_1
_geom_bond_site_symmetry_2
C1 C2 1_555 1_555
C2 C3 1_555 1_555
C3 H1 1_555 1_555
C4 C3 1_555 1_555
H2 C4 1_555 1_555
C5 C4 1_555 1_555
H3 C5 1_555 1_555
C6 C5 1_555 1_555
H4 C6 1_555 1_555
C7 C2 1_555 1_555
H5 C7 1_555 1_555
C8 C1 1_555 1_555
C9 C8 1_555 1_555
H6 C9 1_555 1_555
C10 C9 1_555 1_555
H7 C10 1_555 1_555
C11 C10 1_555 1_555
H8 C11 1_555 1_555
C12 C11 1_555 1_555
H9 C12 1_555 1_555
C13 C8 1_555 1_555
H10 C13 1_555 1_555
C14 C1 1_555 1_555
C15 C14 1_555 1_555
H11 C15 1_555 1_555
C16 C15 1_555 1_555
H12 C16 1_555 1_555
C17 C16 1_555 1_555
H13 C17 1_555 1_555
C18 C17 1_555 1_555
H14 C18 1_555 1_555
C19 C14 1_555 1_555
H15 C19 1_555 1_555
C20 H16 1_555 1_555
H17 C20 1_555 1_555
H18 C20 1_555 1_555
C21 H19 1_555 1_555
H20 C21 1_555 1_555
H21 C21 1_555 1_555
C22 H22 1_555 1_555
H23 C22 1_555 1_555
H24 C22 1_555 1_555
F1 B2 1_555 1_555
F2 B3 1_555 1_555
F3 B4 1_555 1_555
F4 B5 1_555 1_555
F5 B6 1_555 1_555
F6 B7 1_555 1_555
F7 B8 1_555 1_555
F8 B9 1_555 1_555
F9 B10 1_555 1_555
F10 B11 1_555 1_555
F11 B12 1_555 1_555
N1 C20 1_555 1_555
B1 N1 1_555 1_555
B2 B1 1_555 1_555
B3 B1 1_555 1_555
B4 B1 1_555 1_555
B5 B1 1_555 1_555
B6 B1 1_555 1_555
B7 B2 1_555 1_555
B8 B2 1_555 1_555
B9 B3 1_555 1_555
B10 B4 1_555 1_555
B11 B5 1_555 1_555
B12 B7 1_555 1_555
C23 H25 1_555 1_555
H26 C23 1_555 1_555
H27 C23 1_555 1_555
C24 H28 1_555 1_555
H29 C24 1_555 1_555
H30 C24 1_555 1_555
C25 H31 1_555 1_555
H32 C25 1_555 1_555
H33 C25 1_555 1_555
F12 B14 1_555 1_555
F13 B15 1_555 1_555
F14 B16 1_555 1_555
F15 B17 1_555 1_555
F16 B18 1_555 1_555
F17 B19 1_555 1_555
F18 B20 1_555 1_555
F19 B21 1_555 1_555
F20 B22 1_555 1_555
F21 B23 1_555 1_555
F22 B24 1_555 1_555
N2 C23 1_555 1_555
B13 N2 1_555 1_555
B14 B13 1_555 1_555
B15 B13 1_555 1_555
B16 B13 1_555 1_555
B17 B13 1_555 1_555
B18 B13 1_555 1_555
B19 B14 1_555 1_555
B20 B14 1_555 1_555
B21 B15 1_555 1_555
B22 B16 1_555 1_555
B23 B17 1_555 1_555
B24 B19 1_555 1_555
C26 C27 1_555 1_555
C27 C28 1_555 1_555
C28 H34 1_555 1_555
C29 C28 1_555 1_555
H35 C29 1_555 1_555
C30 C29 1_555 1_555
H36 C30 1_555 1_555
C31 C30 1_555 1_555
H37 C31 1_555 1_555
C32 C27 1_555 1_555
H38 C32 1_555 1_555
C33 C26 1_555 1_555
C34 C33 1_555 1_555
H39 C34 1_555 1_555
C35 C34 1_555 1_555
H40 C35 1_555 1_555
C36 C35 1_555 1_555
H41 C36 1_555 1_555
C37 C36 1_555 1_555
H42 C37 1_555 1_555
C38 C33 1_555 1_555
H43 C38 1_555 1_555
C39 C26 1_555 1_555
C40 C39 1_555 1_555
H44 C40 1_555 1_555
C41 C40 1_555 1_555
H45 C41 1_555 1_555
C42 C41 1_555 1_555
H46 C42 1_555 1_555
C43 C42 1_555 1_555
H47 C43 1_555 1_555
C44 C39 1_555 1_555
H48 C44 1_555 1_555
C6 C7 1_555 1_555
C12 C13 1_555 1_555
C18 C19 1_555 1_555
C21 N1 1_555 1_555
C22 N1 1_555 1_555
B2 B3 1_555 1_555
B2 B6 1_555 1_555
B3 B4 1_555 1_555
B3 B8 1_555 1_555
B4 B5 1_555 1_555
B4 B9 1_555 1_555
B5 B6 1_555 1_555
B5 B10 1_555 1_555
B6 B7 1_555 1_555
B6 B11 1_555 1_555
B7 B8 1_555 1_555
B7 B11 1_555 1_555
B8 B9 1_555 1_555
B8 B12 1_555 1_555
B9 B10 1_555 1_555
B9 B12 1_555 1_555
B10 B11 1_555 1_555
B10 B12 1_555 1_555
B11 B12 1_555 1_555
C24 N2 1_555 1_555
C25 N2 1_555 1_555
B14 B15 1_555 1_555
B14 B18 1_555 1_555
B15 B16 1_555 1_555
B15 B20 1_555 1_555
B16 B17 1_555 1_555
B16 B21 1_555 1_555
B17 B18 1_555 1_555
B17 B22 1_555 1_555
B18 B19 1_555 1_555
B18 B23 1_555 1_555
B19 B20 1_555 1_555
B19 B23 1_555 1_555
B20 B21 1_555 1_555
B20 B24 1_555 1_555
B21 B22 1_555 1_555
B21 B24 1_555 1_555
B22 B23 1_555 1_555
B22 B24 1_555 1_555
B23 B24 1_555 1_555
C31 C32 1_555 1_555
C37 C38 1_555 1_555
C43 C44 1_555 1_555

#END
