
#######################################################################
#
#                 Cambridge Crystallographic Data Centre
#                                CCDC 
#
#######################################################################
#
# If this CIF has been generated from an entry in the Cambridge 
# Structural Database, then it will include bibliographic, chemical, 
# crystal, experimental, refinement or atomic coordinate data resulting 
# from the CCDC's data processing and validation procedures.
#
#######################################################################

data_KAGVEV
_chemical_formula_moiety         'C25 H20 O1'
_chemical_name_systematic        1-methyl-2,3,4-triphenylphenol
_symmetry_cell_setting           orthorhombic
_symmetry_space_group_name_H-M   'P b c a'
_symmetry_Int_Tables_number      61
_space_group_name_Hall           '-P 2ac 2ab'
loop_
_symmetry_equiv_pos_site_id
_symmetry_equiv_pos_as_xyz
1 x,y,z
2 1/2-x,-y,1/2+z
3 -x,1/2+y,1/2-z
4 1/2+x,1/2-y,-z
5 -x,-y,-z
6 1/2+x,y,1/2-z
7 x,1/2-y,1/2+z
8 1/2-x,1/2+y,z
_cell_length_a                   10.624(2)
_cell_length_b                   15.703(3)
_cell_length_c                   22.130(4)
_cell_angle_alpha                90
_cell_angle_beta                 90
_cell_angle_gamma                90
_cell_volume                     3691.92
_chemical_melting_point          '146 deg.C'
_cell_formula_units_Z            8
loop_
_atom_site_label
_atom_site_type_symbol
_atom_site_fract_x
_atom_site_fract_y
_atom_site_fract_z
C1 C 0.1884(2) 0.05403(19) 0.43308(11)
C2 C 0.2532(2) -0.02251(16) 0.43327(10)
C3 C 0.3746(2) -0.02367(15) 0.40882(10)
C4 C 0.4271(2) 0.05024(15) 0.38378(10)
C5 C 0.3584(2) 0.12643(16) 0.38392(10)
C6 C 0.2376(2) 0.12697(17) 0.40861(10)
H1 H 0.1905 0.1769 0.4085
C7 C 0.1903(2) -0.10167(14) 0.45799(11)
H2 H 0.1930 -0.1006 0.5013
H3 H 0.2337 -0.1513 0.4435
H4 H 0.1042 -0.1034 0.4448
C8 C 0.4475(2) -0.10553(14) 0.40761(11)
C9 C 0.4944(2) -0.14076(17) 0.46039(12)
H5 H 0.4767 -0.1147 0.4972
C10 C 0.5673(3) -0.21432(17) 0.45952(12)
H6 H 0.5997 -0.2363 0.4953
C11 C 0.5914(3) -0.25462(16) 0.40531(13)
H7 H 0.6387 -0.3044 0.4045
C12 C 0.5453(3) -0.22097(16) 0.35265(12)
H8 H 0.5629 -0.2475 0.3161
C13 C 0.4726(2) -0.14753(16) 0.35345(11)
H9 H 0.4402 -0.1261 0.3175
C14 C 0.5587(2) 0.04767(15) 0.35839(12)
C15 C 0.6607(2) 0.02442(15) 0.39361(14)
H10 H 0.6483 0.0091 0.4338
C16 C 0.7800(3) 0.0237(2) 0.3698(2)
H11 H 0.8478 0.0089 0.3942
C17 C 0.8000(4) 0.0446(3) 0.3108(3)
H12 H 0.8808 0.0424 0.2947
C18 C 0.7032(4) 0.0681(2) 0.2763(2)
H13 H 0.7178 0.0840 0.2364
C19 C 0.5816(3) 0.06946(15) 0.29844(13)
H14 H 0.5152 0.0849 0.2733
C20 C 0.4060(2) 0.20875(15) 0.35862(11)
C21 C 0.5236(2) 0.24137(17) 0.37361(12)
H15 H 0.5760 0.2105 0.3991
C22 C 0.5640(3) 0.31882(17) 0.35129(13)
H16 H 0.6427 0.3399 0.3620
C23 C 0.4877(3) 0.3646(2) 0.31321(14)
H17 H 0.5155 0.4162 0.2977
C24 C 0.3700(3) 0.33453(18) 0.29780(12)
H18 H 0.3178 0.3661 0.2726
C25 C 0.3306(3) 0.25664(17) 0.32043(11)
H19 H 0.2516 0.2360 0.3097
O1 O 0.06831(15) 0.05643(11) 0.45757(9)
H20 H 0.0459 0.1061 0.4614
loop_
_geom_bond_atom_site_label_1
_geom_bond_atom_site_label_2
_geom_bond_site_symmetry_1
_geom_bond_site_symmetry_2
C1 C2 1_555 1_555
C2 C3 1_555 1_555
C3 C4 1_555 1_555
C4 C5 1_555 1_555
C5 C6 1_555 1_555
C6 C1 1_555 1_555
H1 C6 1_555 1_555
C7 C2 1_555 1_555
H2 C7 1_555 1_555
H3 C7 1_555 1_555
H4 C7 1_555 1_555
C8 C3 1_555 1_555
C9 C8 1_555 1_555
H5 C9 1_555 1_555
C10 C9 1_555 1_555
H6 C10 1_555 1_555
C11 C10 1_555 1_555
H7 C11 1_555 1_555
C12 C11 1_555 1_555
H8 C12 1_555 1_555
C13 C8 1_555 1_555
H9 C13 1_555 1_555
C14 C4 1_555 1_555
C15 C14 1_555 1_555
H10 C15 1_555 1_555
C16 C15 1_555 1_555
H11 C16 1_555 1_555
C17 C16 1_555 1_555
H12 C17 1_555 1_555
C18 C17 1_555 1_555
H13 C18 1_555 1_555
C19 C14 1_555 1_555
H14 C19 1_555 1_555
C20 C5 1_555 1_555
C21 C20 1_555 1_555
H15 C21 1_555 1_555
C22 C21 1_555 1_555
H16 C22 1_555 1_555
C23 C22 1_555 1_555
H17 C23 1_555 1_555
C24 C23 1_555 1_555
H18 C24 1_555 1_555
C25 C20 1_555 1_555
H19 C25 1_555 1_555
O1 C1 1_555 1_555
H20 O1 1_555 1_555
C12 C13 1_555 1_555
C18 C19 1_555 1_555
C24 C25 1_555 1_555

#END
