
#######################################################################
#
#                 Cambridge Crystallographic Data Centre
#                                CCDC 
#
#######################################################################
#
# If this CIF has been generated from an entry in the Cambridge 
# Structural Database, then it will include bibliographic, chemical, 
# crystal, experimental, refinement or atomic coordinate data resulting 
# from the CCDC's data processing and validation procedures.
#
#######################################################################

data_KAHBON
_chemical_formula_moiety         'C7 H18 N3 1+,C1 N1 O1 1-,1.5(H2 O1)'
_chemical_name_systematic        
"N,N,N',N',N'',N''-Hexamethylguanidinium cyanate sesquihydrate"
_symmetry_cell_setting           monoclinic
_symmetry_space_group_name_H-M   'C c'
_symmetry_Int_Tables_number      9
_space_group_name_Hall           'C -2yc'
loop_
_symmetry_equiv_pos_site_id
_symmetry_equiv_pos_as_xyz
1 x,y,z
2 x,-y,1/2+z
3 1/2+x,1/2+y,z
4 1/2+x,1/2-y,1/2+z
_cell_length_a                   8.3245(5)
_cell_length_b                   22.536(2)
_cell_length_c                   13.2580(12)
_cell_angle_alpha                90
_cell_angle_beta                 108.092(7)
_cell_angle_gamma                90
_cell_volume                     2364.24
_exptl_crystal_colour            colorless
_exptl_crystal_description       block
_cell_formula_units_Z            8
loop_
_atom_site_label
_atom_site_type_symbol
_atom_site_fract_x
_atom_site_fract_y
_atom_site_fract_z
O1 O 0.3316(2) 0.36058(8) 0.23689(17)
C1 C 0.2204(3) 0.32390(9) 0.22404(19)
N1 N 0.1126(3) 0.28850(9) 0.2104(2)
C2 C 0.4331(2) 0.02149(8) 0.32420(15)
O2 O 0.5548(2) -0.00567(8) 0.38261(13)
N2 N 0.3167(2) 0.04653(9) 0.26863(17)
C3 C 0.1363(2) 0.09910(8) 0.52739(14)
N3 N 0.2570(2) 0.05814(7) 0.54024(13)
N4 N -0.0178(2) 0.08430(7) 0.52842(14)
N5 N 0.1730(2) 0.15661(7) 0.51504(14)
C4 C 0.0955(3) 0.20481(9) 0.55702(18)
H1 H 0.0156 0.2262 0.4982
H2 H 0.1835 0.2322 0.5974
H3 H 0.0355 0.1885 0.6037
C5 C 0.2881(3) 0.17368(10) 0.45722(18)
H4 H 0.3885 0.1925 0.5060
H5 H 0.2316 0.2017 0.4008
H6 H 0.3221 0.1383 0.4258
C6 C 0.2163(3) -0.00338(8) 0.50317(16)
H7 H 0.2274 -0.0294 0.5642
H8 H 0.2943 -0.0165 0.4655
H9 H 0.1001 -0.0052 0.4551
C7 C 0.4348(2) 0.07080(9) 0.59433(16)
H10 H 0.4983 0.0686 0.5433
H11 H 0.4799 0.0416 0.6508
H12 H 0.4458 0.1107 0.6251
C8 C -0.0467(3) 0.03409(10) 0.59113(17)
H13 H -0.0926 0.0005 0.5440
H14 H -0.1274 0.0458 0.6279
H15 H 0.0604 0.0225 0.6434
C9 C -0.1698(2) 0.11617(9) 0.46464(17)
H16 H -0.2186 0.1382 0.5118
H17 H -0.2528 0.0876 0.4229
H18 H -0.1391 0.1439 0.4167
N6 N 0.3149(2) 0.16312(8) 0.08657(15)
N7 N 0.2872(2) 0.16823(8) -0.09169(15)
N8 N 0.5332(2) 0.13023(8) 0.02745(15)
C10 C 0.3786(2) 0.15393(7) 0.00727(15)
C11 C 0.1322(3) 0.15698(9) 0.0706(2)
H19 H 0.0761 0.1414 -0.0007
H20 H 0.0846 0.1959 0.0784
H21 H 0.1146 0.1295 0.1236
C12 C 0.4256(3) 0.18015(10) 0.19285(17)
H22 H 0.5401 0.1874 0.1900
H23 H 0.4282 0.1480 0.2431
H24 H 0.3818 0.2163 0.2160
C13 C 0.6009(2) 0.08765(9) 0.11404(17)
H25 H 0.5138 0.0783 0.1471
H26 H 0.6992 0.1050 0.1672
H27 H 0.6349 0.0513 0.0857
C14 C 0.6438(3) 0.14659(10) -0.0358(2)
H28 H 0.5891 0.1775 -0.0868
H29 H 0.6643 0.1116 -0.0740
H30 H 0.7516 0.1615 0.0113
C15 C 0.2985(3) 0.13442(10) -0.18353(16)
H31 H 0.3685 0.0991 -0.1591
H32 H 0.3495 0.1592 -0.2261
H33 H 0.1849 0.1223 -0.2268
C16 C 0.1731(3) 0.22027(9) -0.1124(2)
H34 H 0.1823 0.2404 -0.0453
H35 H 0.0563 0.2071 -0.1455
H36 H 0.2051 0.2478 -0.1602
O3 O 0.0041(2) 0.08290(7) 0.28078(13)
H37 H 0.090(4) 0.0710(12) 0.277(2)
H38 H -0.055(4) 0.0523(16) 0.285(3)
O4 O 0.8891(2) 0.20268(8) 0.24797(15)
H39 H 0.962(4) 0.2257(13) 0.237(2)
H40 H 0.934(5) 0.1695(18) 0.250(3)
O5 O 0.8322(2) 0.02166(9) 0.81332(15)
H41 H 0.747(4) 0.0190(13) 0.835(2)
H42 H 0.833(4) 0.0529(16) 0.795(3)
N9? N 0.4372(13) 0.1485(5) -0.0765(8)
N10? N 0.2238(14) 0.1787(5) -0.0095(9)
N11? N 0.4759(12) 0.1399(4) 0.1027(7)
loop_
_geom_bond_atom_site_label_1
_geom_bond_atom_site_label_2
_geom_bond_site_symmetry_1
_geom_bond_site_symmetry_2
O1 C1 1_555 1_555
C1 N1 1_555 1_555
C2 O2 1_555 1_555
N2 C2 1_555 1_555
C3 N3 1_555 1_555
N3 C6 1_555 1_555
N4 C3 1_555 1_555
N5 C3 1_555 1_555
C4 N5 1_555 1_555
H1 C4 1_555 1_555
H2 C4 1_555 1_555
H3 C4 1_555 1_555
C5 N5 1_555 1_555
H4 C5 1_555 1_555
H5 C5 1_555 1_555
H6 C5 1_555 1_555
C6 H7 1_555 1_555
H8 C6 1_555 1_555
H9 C6 1_555 1_555
C7 N3 1_555 1_555
H10 C7 1_555 1_555
H11 C7 1_555 1_555
H12 C7 1_555 1_555
C8 N4 1_555 1_555
H13 C8 1_555 1_555
H14 C8 1_555 1_555
H15 C8 1_555 1_555
C9 N4 1_555 1_555
H16 C9 1_555 1_555
H17 C9 1_555 1_555
H18 C9 1_555 1_555
N6 C10 1_555 1_555
N7 C10 1_555 1_555
N8 C10 1_555 1_555
C11 N6 1_555 1_555
H19 C11 1_555 1_555
H20 C11 1_555 1_555
H21 C11 1_555 1_555
C12 N6 1_555 1_555
H22 C12 1_555 1_555
H23 C12 1_555 1_555
H24 C12 1_555 1_555
C13 N8 1_555 1_555
H25 C13 1_555 1_555
H26 C13 1_555 1_555
H27 C13 1_555 1_555
C14 N8 1_555 1_555
H28 C14 1_555 1_555
H29 C14 1_555 1_555
H30 C14 1_555 1_555
C15 N7 1_555 1_555
H31 C15 1_555 1_555
H32 C15 1_555 1_555
H33 C15 1_555 1_555
C16 N7 1_555 1_555
H34 C16 1_555 1_555
H35 C16 1_555 1_555
H36 C16 1_555 1_555
O3 H37 1_555 1_555
H38 O3 1_555 1_555
O4 H39 1_555 1_555
H40 O4 1_555 1_555
O5 H41 1_555 1_555
H42 O5 1_555 1_555

#END
