
#######################################################################
#
#                 Cambridge Crystallographic Data Centre
#                                CCDC 
#
#######################################################################
#
# If this CIF has been generated from an entry in the Cambridge 
# Structural Database, then it will include bibliographic, chemical, 
# crystal, experimental, refinement or atomic coordinate data resulting 
# from the CCDC's data processing and validation procedures.
#
#######################################################################

data_KAHFUW
_chemical_formula_moiety         'C26 H29 Cl1 O8'
_chemical_name_systematic        
9-Butoxy-5a-chloro-5-(3,4,5-trimethoxyphenyl)-5,8,8a,9-tetrahydrofuro[3',4':6,7]naphtho[2,3-d][1,3]dioxol-6(5aH)-one
_chemical_properties_biological  'insecticidal activity'
_symmetry_cell_setting           monoclinic
_symmetry_space_group_name_H-M   'P 21'
_symmetry_Int_Tables_number      4
_space_group_name_Hall           'P 2yb'
loop_
_symmetry_equiv_pos_site_id
_symmetry_equiv_pos_as_xyz
1 x,y,z
2 -x,1/2+y,-z
_cell_length_a                   12.338(12)
_cell_length_b                   17.367(18)
_cell_length_c                   12.549(13)
_cell_angle_alpha                90
_cell_angle_beta                 104.814(19)
_cell_angle_gamma                90
_cell_volume                     2599.55
_exptl_crystal_colour            colorless
_exptl_crystal_description       block
_cell_formula_units_Z            4
loop_
_atom_site_label
_atom_site_type_symbol
_atom_site_fract_x
_atom_site_fract_y
_atom_site_fract_z
C1 C 0.2384(3) 0.0211(2) 0.2174(3)
C2 C 0.3474(3) -0.0206(2) 0.2644(3)
H1 H 0.4069 0.0183 0.2798
C3 C 0.3487(4) -0.0596(2) 0.3740(3)
H2 H 0.2948 -0.1021 0.3569
C4 C 0.3045(3) -0.0031(2) 0.4473(3)
C5 C 0.2457(3) 0.0658(2) 0.4078(3)
C6 C 0.2233(3) 0.0916(2) 0.2865(3)
H3 H 0.1446 0.1075 0.2623
C7 C 0.3192(3) -0.0241(3) 0.5593(4)
H4 H 0.3583 -0.0685 0.5875
C8 C 0.2744(3) 0.0229(3) 0.6251(3)
C9 C 0.2173(3) 0.0901(2) 0.5855(3)
C10 C 0.2028(3) 0.1132(2) 0.4782(3)
H5 H 0.1656 0.1588 0.4528
C11 C 0.1967(4) 0.0693(3) 0.7554(4)
H6 H 0.2238 0.0935 0.8269
H7 H 0.1265 0.0435 0.7534
C12 C 0.3634(4) -0.0693(2) 0.1674(3)
H8 H 0.4423 -0.0771 0.1719
H9 H 0.3269 -0.1190 0.1650
C13 C 0.2385(4) 0.0305(3) 0.0958(3)
C14 C 0.5411(4) -0.0396(4) 0.4655(4)
H10 H 0.5106 0.0080 0.4858
H11 H 0.5767 -0.0283 0.4068
C15 C 0.6286(6) -0.0710(5) 0.5651(5)
H12 H 0.5904 -0.0887 0.6191
H13 H 0.6643 -0.1154 0.5416
C16 C 0.7181(6) -0.0150(5) 0.6199(7)
H14 H 0.7532 0.0047 0.5646
H15 H 0.6821 0.0282 0.6461
C17 C 0.8076(6) -0.0444(6) 0.7137(7)
H16 H 0.7759 -0.0576 0.7736
H17 H 0.8638 -0.0054 0.7372
H18 H 0.8410 -0.0894 0.6908
C18 C 0.2954(3) 0.1606(2) 0.2705(3)
C19 C 0.4044(3) 0.1719(2) 0.3339(3)
H19 H 0.4356 0.1376 0.3904
C20 C 0.4680(3) 0.2348(2) 0.3130(3)
C21 C 0.4226(3) 0.2873(2) 0.2303(3)
C22 C 0.3127(4) 0.2760(2) 0.1665(3)
C23 C 0.2503(3) 0.2137(2) 0.1866(3)
H20 H 0.1774 0.2070 0.1438
C24 C 0.6312(5) 0.1939(4) 0.4506(5)
H21 H 0.5966 0.1930 0.5110
H22 H 0.7090 0.2069 0.4774
H23 H 0.6245 0.1440 0.4165
C25 C 0.5652(4) 0.3417(3) 0.1554(4)
H24 H 0.6149 0.3009 0.1887
H25 H 0.6073 0.3884 0.1570
H26 H 0.5293 0.3285 0.0804
C26 C 0.1624(5) 0.3241(4) 0.0219(5)
H27 H 0.1495 0.2741 -0.0118
H28 H 0.1475 0.3630 -0.0344
H29 H 0.1137 0.3314 0.0697
Cl1 Cl 0.11534(10) -0.04384(7) 0.20652(10)
O1 O 0.2774(3) 0.0150(2) 0.7370(2)
O2 O 0.1806(3) 0.12657(17) 0.6685(2)
O3 O 0.3097(2) -0.02225(17) 0.0713(2)
O4 O 0.1848(3) 0.0737(2) 0.0275(2)
O5 O 0.4533(3) -0.0925(2) 0.4271(3)
O6 O 0.5773(2) 0.24945(19) 0.3723(3)
O7 O 0.4826(2) 0.35263(15) 0.2149(2)
O8 O 0.2753(3) 0.32968(17) 0.0839(3)
C27 C 0.3408(4) 0.5830(2) -0.0426(3)
C28 C 0.4172(3) 0.6501(2) 0.0007(4)
H30 H 0.3858 0.6949 -0.0440
C29 C 0.4190(3) 0.6696(2) 0.1187(4)
H31 H 0.4618 0.6299 0.1673
C30 C 0.2996(3) 0.6722(2) 0.1345(3)
C31 C 0.2085(3) 0.6365(2) 0.0608(3)
C32 C 0.2156(3) 0.6016(2) -0.0502(3)
H32 H 0.1735 0.5532 -0.0610
C33 C 0.2851(3) 0.7099(2) 0.2291(3)
H33 H 0.3455 0.7330 0.2787
C34 C 0.1788(3) 0.7119(3) 0.2466(3)
C35 C 0.0884(3) 0.6755(3) 0.1735(3)
C36 C 0.0999(3) 0.6387(2) 0.0815(3)
H34 H 0.0387 0.6156 0.0332
C37 C 0.0262(4) 0.7349(4) 0.3051(4)
H35 H 0.0027 0.7142 0.3674
H36 H -0.0095 0.7847 0.2866
C38 C 0.5252(4) 0.6283(3) -0.0316(5)
H37 H 0.5671 0.6738 -0.0415
H38 H 0.5726 0.5956 0.0239
C39 C 0.3803(6) 0.5595(3) -0.1460(5)
C40 C 0.5869(5) 0.7389(6) 0.2079(12)
H39 H 0.5925 0.7035 0.2688
H40 H 0.6283 0.7165 0.1595
C41 C 0.6399(7) 0.8054(6) 0.2497(13)
H41 H 0.6090 0.8448 0.1957
H42 H 0.6128 0.8171 0.3139
C42 C 0.7451(10) 0.8186(6) 0.2790(14)
H43 H 0.7699 0.8047 0.2141
H44 H 0.7735 0.7781 0.3321
C43 C 0.8089(13) 0.8780(9) 0.3191(19)
H45 H 0.7896 0.8965 0.3839
H46 H 0.7975 0.9182 0.2648
H47 H 0.8862 0.8625 0.3377
C44 C 0.1629(3) 0.6556(2) -0.1470(3)
C45 C 0.1476(3) 0.7341(2) -0.1322(3)
H48 H 0.1698 0.7552 -0.0619
C46 C 0.0998(3) 0.7809(2) -0.2213(3)
C47 C 0.0704(3) 0.7510(3) -0.3279(3)
C48 C 0.0864(3) 0.6721(3) -0.3430(3)
C49 C 0.1289(3) 0.6243(2) -0.2539(3)
H49 H 0.1350 0.5717 -0.2645
C50 C 0.1125(5) 0.8941(3) -0.1089(4)
H50 H 0.0829 0.8673 -0.0557
H51 H 0.0874 0.9466 -0.1141
H52 H 0.1930 0.8929 -0.0864
C51 C 0.0953(5) 0.8542(3) -0.4446(4)
H53 H 0.1079 0.8937 -0.3892
H54 H 0.0608 0.8763 -0.5152
H55 H 0.1656 0.8313 -0.4464
C52 C 0.0740(5) 0.5669(3) -0.4703(4)
H56 H 0.1507 0.5533 -0.4374
H57 H 0.0567 0.5573 -0.5482
H58 H 0.0257 0.5364 -0.4380
Cl2 Cl 0.37940(11) 0.49811(6) 0.04637(10)
O9 O 0.1459(2) 0.7436(2) 0.3334(2)
O10 O -0.0064(2) 0.6843(2) 0.2137(2)
O11 O 0.4850(4) 0.5874(3) -0.1342(3)
O12 O 0.3341(4) 0.5197(3) -0.2223(3)
O13 O 0.4722(2) 0.7428(2) 0.1486(3)
O14 O 0.0750(3) 0.85833(16) -0.2122(2)
O15 O 0.0227(3) 0.79600(19) -0.4188(2)
O16 O 0.0575(2) 0.64660(19) -0.4513(2)
loop_
_geom_bond_atom_site_label_1
_geom_bond_atom_site_label_2
_geom_bond_site_symmetry_1
_geom_bond_site_symmetry_2
C1 C2 1_555 1_555
C2 H1 1_555 1_555
C3 C2 1_555 1_555
H2 C3 1_555 1_555
C4 C3 1_555 1_555
C5 C4 1_555 1_555
C6 C1 1_555 1_555
H3 C6 1_555 1_555
C7 C4 1_555 1_555
H4 C7 1_555 1_555
C8 C7 1_555 1_555
C9 C8 1_555 1_555
C10 C5 1_555 1_555
H5 C10 1_555 1_555
C11 H6 1_555 1_555
H7 C11 1_555 1_555
C12 C2 1_555 1_555
H8 C12 1_555 1_555
H9 C12 1_555 1_555
C13 C1 1_555 1_555
C14 H10 1_555 1_555
H11 C14 1_555 1_555
C15 C14 1_555 1_555
H12 C15 1_555 1_555
H13 C15 1_555 1_555
C16 C15 1_555 1_555
H14 C16 1_555 1_555
H15 C16 1_555 1_555
C17 C16 1_555 1_555
H16 C17 1_555 1_555
H17 C17 1_555 1_555
H18 C17 1_555 1_555
C18 C6 1_555 1_555
C19 C18 1_555 1_555
H19 C19 1_555 1_555
C20 C19 1_555 1_555
C21 C20 1_555 1_555
C22 C21 1_555 1_555
C23 C18 1_555 1_555
H20 C23 1_555 1_555
C24 H21 1_555 1_555
H22 C24 1_555 1_555
H23 C24 1_555 1_555
C25 H24 1_555 1_555
H25 C25 1_555 1_555
H26 C25 1_555 1_555
C26 H27 1_555 1_555
H28 C26 1_555 1_555
H29 C26 1_555 1_555
C27 C28 1_555 1_555
C28 H30 1_555 1_555
C29 C28 1_555 1_555
H31 C29 1_555 1_555
C30 C29 1_555 1_555
C31 C30 1_555 1_555
C32 C27 1_555 1_555
H32 C32 1_555 1_555
C33 C30 1_555 1_555
H33 C33 1_555 1_555
C34 C33 1_555 1_555
C35 C34 1_555 1_555
C36 C31 1_555 1_555
H34 C36 1_555 1_555
C37 H35 1_555 1_555
H36 C37 1_555 1_555
C38 C28 1_555 1_555
H37 C38 1_555 1_555
H38 C38 1_555 1_555
C39 C27 1_555 1_555
C40 H39 1_555 1_555
H40 C40 1_555 1_555
C41 C40 1_555 1_555
H41 C41 1_555 1_555
H42 C41 1_555 1_555
C42 C41 1_555 1_555
H43 C42 1_555 1_555
H44 C42 1_555 1_555
C43 C42 1_555 1_555
H45 C43 1_555 1_555
H46 C43 1_555 1_555
H47 C43 1_555 1_555
C44 C32 1_555 1_555
C45 C44 1_555 1_555
H48 C45 1_555 1_555
C46 C45 1_555 1_555
C47 C46 1_555 1_555
C48 C47 1_555 1_555
C49 C44 1_555 1_555
H49 C49 1_555 1_555
C50 H50 1_555 1_555
H51 C50 1_555 1_555
H52 C50 1_555 1_555
C51 H53 1_555 1_555
H54 C51 1_555 1_555
H55 C51 1_555 1_555
C52 H56 1_555 1_555
H57 C52 1_555 1_555
H58 C52 1_555 1_555
Cl1 C1 1_555 1_555
Cl2 C27 1_555 1_555
O1 C8 1_555 1_555
O2 C9 1_555 1_555
O3 C12 1_555 1_555
O4 C13 1_555 1_555
O5 C3 1_555 1_555
O6 C20 1_555 1_555
O7 C21 1_555 1_555
O8 C22 1_555 1_555
O9 C34 1_555 1_555
O10 C35 1_555 1_555
O11 C38 1_555 1_555
O12 C39 1_555 1_555
O13 C29 1_555 1_555
O14 C46 1_555 1_555
O15 C47 1_555 1_555
O16 C48 1_555 1_555
C5 C6 1_555 1_555
C9 C10 1_555 1_555
C11 O1 1_555 1_555
C11 O2 1_555 1_555
C13 O3 1_555 1_555
C14 O5 1_555 1_555
C22 C23 1_555 1_555
C24 O6 1_555 1_555
C25 O7 1_555 1_555
C26 O8 1_555 1_555
C31 C32 1_555 1_555
C35 C36 1_555 1_555
C37 O9 1_555 1_555
C37 O10 1_555 1_555
C39 O11 1_555 1_555
C40 O13 1_555 1_555
C48 C49 1_555 1_555
C50 O14 1_555 1_555
C51 O15 1_555 1_555
C52 O16 1_555 1_555

#END
