
#######################################################################
#
#                 Cambridge Crystallographic Data Centre
#                                CCDC 
#
#######################################################################
#
# If this CIF has been generated from an entry in the Cambridge 
# Structural Database, then it will include bibliographic, chemical, 
# crystal, experimental, refinement or atomic coordinate data resulting 
# from the CCDC's data processing and validation procedures.
#
#######################################################################

data_KAHFUX
_chemical_compound_source        
'secondary metabolite of fungus Penicillium adametzioides AS-53'
_chemical_name_common            'N-Formyllapatin A'
_chemical_formula_moiety         'C24 H19 N5 O4'
_chemical_name_systematic        
2-Methyl-3,3',15'-trioxo-2,3-dihydrospiro[imidazo[1,2-a]indole-9,13'-[2,10,16]triazatetracyclo[10.2.2.0^2,11^.0^4,9^]hexadeca[4,6,8,10]tetraene]-1(9aH)-carbaldehyde
_symmetry_cell_setting           monoclinic
_symmetry_space_group_name_H-M   'P 21'
_symmetry_Int_Tables_number      4
_space_group_name_Hall           'P 2yb'
loop_
_symmetry_equiv_pos_site_id
_symmetry_equiv_pos_as_xyz
1 x,y,z
2 -x,1/2+y,-z
_cell_length_a                   6.3240(9)
_cell_length_b                   16.812(2)
_cell_length_c                   9.7605(8)
_cell_angle_alpha                90
_cell_angle_beta                 97.3155(13)
_cell_angle_gamma                90
_cell_volume                     1029.28
_cell_formula_units_Z            2
loop_
_atom_site_label
_atom_site_type_symbol
_atom_site_fract_x
_atom_site_fract_y
_atom_site_fract_z
N1 N 0.6287(15) 0.6666(5) 0.5485(8)
N2 N 0.7885(15) 0.6327(5) 0.3503(9)
N3 N 1.0367(16) 0.6608(5) 0.6808(8)
H1 H 1.1690 0.6740 0.6958
N4 N 0.9827(16) 0.4038(5) 0.6098(9)
N5 N 0.7230(16) 0.4500(5) 0.4449(8)
O1 O 0.3259(13) 0.7397(5) 0.5433(8)
O2 O 0.9232(15) 0.7506(5) 0.8304(7)
O3 O 1.1922(15) 0.3353(5) 0.4744(8)
O4 O 0.4039(14) 0.5080(5) 0.4615(8)
C1 C 0.461(2) 0.7052(7) 0.4795(11)
C2 C 0.7852(19) 0.6315(6) 0.4830(11)
C3 C 0.616(2) 0.6692(7) 0.2726(10)
C4 C 0.451(2) 0.7049(7) 0.3310(10)
C5 C 0.278(2) 0.7390(7) 0.2508(11)
H2 H 0.1671 0.7607 0.2928
C6 C 0.269(2) 0.7407(9) 0.1095(12)
H3 H 0.1551 0.7641 0.0549
C7 C 0.438(2) 0.7060(8) 0.0490(12)
H4 H 0.4337 0.7065 -0.0466
C8 C 0.611(2) 0.6712(8) 0.1279(11)
H5 H 0.7217 0.6494 0.0862
C9 C 0.6675(19) 0.6594(7) 0.7008(10)
H6 H 0.5551 0.6867 0.7431
C10 C 0.881(2) 0.6984(7) 0.7442(11)
C11 C 0.9569(19) 0.5957(7) 0.5844(10)
H7 H 1.0717 0.5733 0.5378
C12 C 0.8563(18) 0.5311(7) 0.6725(10)
C13 C 0.674(2) 0.5731(6) 0.7390(11)
H8 H 0.5387 0.5484 0.7065
H9 H 0.6996 0.5676 0.8386
C14 C 1.0342(19) 0.4977(7) 0.7791(10)
C15 C 1.110(2) 0.4272(7) 0.7317(11)
C16 C 1.278(2) 0.3842(7) 0.7997(11)
H10 H 1.3244 0.3363 0.7664
C17 C 1.377(2) 0.4197(8) 0.9258(11)
H11 H 1.4950 0.3955 0.9750
C18 C 1.299(2) 0.4884(8) 0.9744(11)
H12 H 1.3605 0.5082 1.0592
C19 C 1.1318(19) 0.5294(7) 0.9021(10)
H13 H 1.0856 0.5774 0.9352
C20 C 0.792(2) 0.4524(7) 0.5954(10)
H14 H 0.6836 0.4257 0.6425
C21 C 0.864(2) 0.3981(7) 0.3702(11)
H15 H 0.7849 0.3510 0.3336
C22 C 1.036(2) 0.3740(7) 0.4880(12)
C23 C 0.527(2) 0.4718(7) 0.3954(13)
H16 H 0.4781 0.4588 0.3042
C24 C 0.956(2) 0.4412(8) 0.2546(11)
H17 H 0.8421 0.4563 0.1846
H18 H 1.0526 0.4066 0.2152
H19 H 1.0303 0.4879 0.2908
loop_
_geom_bond_atom_site_label_1
_geom_bond_atom_site_label_2
_geom_bond_site_symmetry_1
_geom_bond_site_symmetry_2
N1 C1 1_555 1_555
N2 C2 1_555 1_555
N3 H1 1_555 1_555
N4 C15 1_555 1_555
N5 C20 1_555 1_555
O1 C1 1_555 1_555
O2 C10 1_555 1_555
O3 C22 1_555 1_555
O4 C23 1_555 1_555
C1 C4 1_555 1_555
C2 N1 1_555 1_555
C3 N2 1_555 1_555
C4 C3 1_555 1_555
C5 C4 1_555 1_555
H2 C5 1_555 1_555
C6 C5 1_555 1_555
H3 C6 1_555 1_555
C7 C6 1_555 1_555
H4 C7 1_555 1_555
C8 C3 1_555 1_555
H5 C8 1_555 1_555
C9 N1 1_555 1_555
H6 C9 1_555 1_555
C10 N3 1_555 1_555
C11 N3 1_555 1_555
H7 C11 1_555 1_555
C12 C11 1_555 1_555
C13 C9 1_555 1_555
H8 C13 1_555 1_555
H9 C13 1_555 1_555
C14 C12 1_555 1_555
C15 C14 1_555 1_555
C16 C15 1_555 1_555
H10 C16 1_555 1_555
C17 C16 1_555 1_555
H11 C17 1_555 1_555
C18 C17 1_555 1_555
H12 C18 1_555 1_555
C19 C14 1_555 1_555
H13 C19 1_555 1_555
C20 N4 1_555 1_555
H14 C20 1_555 1_555
C21 N5 1_555 1_555
H15 C21 1_555 1_555
C22 N4 1_555 1_555
C23 N5 1_555 1_555
H16 C23 1_555 1_555
C24 C21 1_555 1_555
H17 C24 1_555 1_555
H18 C24 1_555 1_555
H19 C24 1_555 1_555
C2 C11 1_555 1_555
C7 C8 1_555 1_555
C9 C10 1_555 1_555
C12 C13 1_555 1_555
C12 C20 1_555 1_555
C18 C19 1_555 1_555
C21 C22 1_555 1_555

#END
