
#######################################################################
#
#                 Cambridge Crystallographic Data Centre
#                                CCDC 
#
#######################################################################
#
# If this CIF has been generated from an entry in the Cambridge 
# Structural Database, then it will include bibliographic, chemical, 
# crystal, experimental, refinement or atomic coordinate data resulting 
# from the CCDC's data processing and validation procedures.
#
#######################################################################

data_KAHQIV
_chemical_name_common            4-Deoxy-4-fluoro-beta-D-ribo-hexopyranose
_chemical_formula_moiety         'C6 H11 F1 O5'
_chemical_name_systematic        
5-Fluoro-6-(hydroxymethyl)tetrahydro-2H-pyran-2,3,4-triol
_symmetry_cell_setting           orthorhombic
_symmetry_space_group_name_H-M   'P 21 21 21'
_symmetry_Int_Tables_number      19
_space_group_name_Hall           'P 2ac 2ab'
loop_
_symmetry_equiv_pos_site_id
_symmetry_equiv_pos_as_xyz
1 x,y,z
2 1/2-x,-y,1/2+z
3 -x,1/2+y,1/2-z
4 1/2+x,1/2-y,-z
_cell_length_a                   6.5323(2)
_cell_length_b                   9.2055(3)
_cell_length_c                   12.6007(3)
_cell_angle_alpha                90
_cell_angle_beta                 90
_cell_angle_gamma                90
_cell_volume                     757.719
_exptl_crystal_colour            colorless
_exptl_crystal_description       block
_cell_formula_units_Z            4
loop_
_atom_site_label
_atom_site_type_symbol
_atom_site_fract_x
_atom_site_fract_y
_atom_site_fract_z
F1 F 0.56428(14) 0.16570(10) 0.48204(6)
O1 O -0.08223(17) -0.07264(11) 0.27767(8)
H1 H -0.1731 -0.0200 0.2503
C1 C 0.0426(2) 0.01068(15) 0.34008(11)
H2 H -0.0342 0.0955 0.3697
O2 O -0.03205(15) -0.12883(11) 0.49724(8)
H3 H -0.0732 -0.2113 0.4782
O3 O 0.38767(16) -0.09828(10) 0.56534(7)
H4 H 0.3526 -0.0798 0.6280
O4 O 0.21163(15) 0.05906(11) 0.27557(7)
O5 O 0.61590(16) 0.09796(11) 0.20418(8)
H5 H 0.5935 0.0973 0.1385
C2 C 0.1289(2) -0.08277(15) 0.42899(11)
H6 H 0.1955 -0.1704 0.3973
C3 C 0.2874(2) -0.00016(14) 0.49472(11)
H7 H 0.2174 0.0775 0.5367
C4 C 0.4459(2) 0.06832(15) 0.42247(10)
H8 H 0.5362 -0.0092 0.3925
C5 C 0.3468(2) 0.15405(15) 0.33150(11)
H9 H 0.2664 0.2368 0.3616
C6 C 0.5011(3) 0.21230(16) 0.25249(13)
H10 H 0.4285 0.2679 0.1968
H11 H 0.5960 0.2794 0.2892
C7? C 0.0426(2) 0.01068(15) 0.34008(11)
H12? H -0.1217 0.1549 0.3064
H13? H -0.0349 -0.0585 0.2939
O6? O -0.087(3) 0.112(2) 0.3624(16)
loop_
_geom_bond_atom_site_label_1
_geom_bond_atom_site_label_2
_geom_bond_site_symmetry_1
_geom_bond_site_symmetry_2
F1 C4 1_555 1_555
O1 H1 1_555 1_555
C1 O1 1_555 1_555
H2 C1 1_555 1_555
O2 H3 1_555 1_555
O3 H4 1_555 1_555
O4 C1 1_555 1_555
O5 H5 1_555 1_555
C2 C1 1_555 1_555
H6 C2 1_555 1_555
C3 O3 1_555 1_555
H7 C3 1_555 1_555
C4 C3 1_555 1_555
H8 C4 1_555 1_555
C5 O4 1_555 1_555
H9 C5 1_555 1_555
C6 O5 1_555 1_555
H10 C6 1_555 1_555
H11 C6 1_555 1_555
O2 C2 1_555 1_555
C2 C3 1_555 1_555
C4 C5 1_555 1_555
C5 C6 1_555 1_555

#END
