
#######################################################################
#
#                 Cambridge Crystallographic Data Centre
#                                CCDC 
#
#######################################################################
#
# If this CIF has been generated from an entry in the Cambridge 
# Structural Database, then it will include bibliographic, chemical, 
# crystal, experimental, refinement or atomic coordinate data resulting 
# from the CCDC's data processing and validation procedures.
#
#######################################################################

data_KAJJIR
_chemical_formula_moiety         'C21 H24 B1 O3 P1'
_chemical_name_systematic        'tris(3-methoxyphenyl)phosphine borane'
_symmetry_cell_setting           rhombohedral
_symmetry_space_group_name_H-M   'R 3'
_symmetry_Int_Tables_number      146
_space_group_name_Hall           'R 3'
loop_
_symmetry_equiv_pos_site_id
_symmetry_equiv_pos_as_xyz
1 x,y,z
2 -y,x-y,z
3 -x+y,-x,z
4 2/3+x,1/3+y,1/3+z
5 2/3-y,1/3+x-y,1/3+z
6 2/3-x+y,1/3-x,1/3+z
7 1/3+x,2/3+y,2/3+z
8 1/3-y,2/3+x-y,2/3+z
9 1/3-x+y,2/3-x,2/3+z
_cell_length_a                   15.4763(6)
_cell_length_b                   15.4763(6)
_cell_length_c                   6.8805(3)
_cell_angle_alpha                90
_cell_angle_beta                 90
_cell_angle_gamma                120
_cell_volume                     1427.2
_exptl_crystal_colour            colorless
_exptl_crystal_description       prism
_cell_formula_units_Z            3
loop_
_atom_site_label
_atom_site_type_symbol
_atom_site_fract_x
_atom_site_fract_y
_atom_site_fract_z
B1 B 1.0000 1.0000 0.6508(4)
C1 C 0.87592(10) 0.95256(11) 0.2747(2)
C2 C 0.79606(11) 0.88245(12) 0.3879(2)
H1 H 0.8083 0.8597 0.5073
C3 C 0.69894(12) 0.84672(12) 0.3232(2)
C4 C 0.68101(13) 0.88106(13) 0.1491(3)
H2 H 0.6145 0.8577 0.1070
C5 C 0.76018(14) 0.94903(14) 0.0380(2)
H3 H 0.7478 0.9714 -0.0819
C6 C 0.85838(12) 0.98541(12) 0.1000(2)
H4 H 0.9126 1.0323 0.0230
C7 C 0.63165(13) 0.74021(14) 0.5980(3)
H5 H 0.6745 0.7115 0.5732
H6 H 0.5672 0.6884 0.6488
H7 H 0.6637 0.7942 0.6934
O1 O 0.61636(8) 0.77875(10) 0.4217(2)
P1 P 1.0000 1.0000 0.37342(7)
H8 H 1.083(2) 1.039(2) 0.690(4)
C1A C 1.04744(11) 0.92336(15) 0.2747(2)
C2A C 1.11755(12) 0.91361(16) 0.3879(2)
H1A H 1.1403 0.9486 0.5073
C3A C 1.15328(12) 0.85222(17) 0.3232(2)
C4A C 1.11894(13) 0.79995(18) 0.1491(3)
H2A H 1.1423 0.7568 0.1070
C5A C 1.05097(14) 0.81115(20) 0.0380(2)
H3A H 1.0286 0.7764 -0.0819
C6A C 1.01459(12) 0.87297(17) 0.1000(2)
H4A H 0.9677 0.8803 0.0230
C7A C 1.25979(14) 0.89144(19) 0.5980(3)
H5A H 1.2885 0.9630 0.5732
H6A H 1.3116 0.8788 0.6488
H7A H 1.2058 0.8695 0.6934
O1A O 1.22125(10) 0.83761(13) 0.4217(2)
H8A H 0.961(2) 1.044(3) 0.690(4)
C1B C 1.07664(15) 1.12408(10) 0.2747(2)
C2B C 1.08639(16) 1.20394(11) 0.3879(2)
H1B H 1.0514 1.1917 0.5073
C3B C 1.14778(17) 1.30106(12) 0.3232(2)
C4B C 1.20005(18) 1.31899(13) 0.1491(3)
H2B H 1.2432 1.3855 0.1070
C5B C 1.18885(20) 1.23982(14) 0.0380(2)
H3B H 1.2236 1.2522 -0.0819
C6B C 1.12703(17) 1.14162(12) 0.1000(2)
H4B H 1.1197 1.0874 0.0230
C7B C 1.10856(19) 1.36835(13) 0.5980(3)
H5B H 1.0370 1.3255 0.5732
H6B H 1.1212 1.4328 0.6488
H7B H 1.1305 1.3363 0.6934
O1B O 1.16239(13) 1.38364(8) 0.4217(2)
H8B H 0.956(3) 0.917(2) 0.690(4)
loop_
_geom_bond_atom_site_label_1
_geom_bond_atom_site_label_2
_geom_bond_site_symmetry_1
_geom_bond_site_symmetry_2
B1 P1 1_555 1_555
C1 C2 1_555 1_555
C2 H1 1_555 1_555
C3 C2 1_555 1_555
C4 C3 1_555 1_555
H2 C4 1_555 1_555
C5 C4 1_555 1_555
H3 C5 1_555 1_555
C6 C1 1_555 1_555
H4 C6 1_555 1_555
C7 H5 1_555 1_555
H6 C7 1_555 1_555
H7 C7 1_555 1_555
O1 C3 1_555 1_555
P1 C1 1_555 1_555
H8 B1 1_555 1_555
C1A P1 1_555 1_555
C2A C1A 1_555 1_555
H1A C2A 1_555 1_555
C3A C2A 1_555 1_555
C4A C3A 1_555 1_555
H2A C4A 1_555 1_555
C5A C4A 1_555 1_555
H3A C5A 1_555 1_555
C6A C1A 1_555 1_555
H4A C6A 1_555 1_555
C7A H5A 1_555 1_555
H6A C7A 1_555 1_555
H7A C7A 1_555 1_555
O1A C3A 1_555 1_555
H8A B1 1_555 1_555
C1B P1 1_555 1_555
C2B C1B 1_555 1_555
H1B C2B 1_555 1_555
C3B C2B 1_555 1_555
C4B C3B 1_555 1_555
H2B C4B 1_555 1_555
C5B C4B 1_555 1_555
H3B C5B 1_555 1_555
C6B C1B 1_555 1_555
H4B C6B 1_555 1_555
C7B H5B 1_555 1_555
H6B C7B 1_555 1_555
H7B C7B 1_555 1_555
O1B C3B 1_555 1_555
H8B B1 1_555 1_555
C5 C6 1_555 1_555
C7 O1 1_555 1_555
C5A C6A 1_555 1_555
C7A O1A 1_555 1_555
C5B C6B 1_555 1_555
C7B O1B 1_555 1_555

#END
