
#######################################################################
#
#                 Cambridge Crystallographic Data Centre
#                                CCDC 
#
#######################################################################
#
# If this CIF has been generated from an entry in the Cambridge 
# Structural Database, then it will include bibliographic, chemical, 
# crystal, experimental, refinement or atomic coordinate data resulting 
# from the CCDC's data processing and validation procedures.
#
#######################################################################

data_KAJJOX
_chemical_formula_moiety         'C43 H68 N8 O11,6.5(H2 O1)'
_chemical_name_systematic        
'N-(20-sec-butyl-3-hydroxy-7-isobutyl-10-isopropyl-17-(4-methoxybenzyl)-9,13-dimethyl-5,8,11,15,18,21-hexaoxoicosahydro-13H-pyridazino[6,1-i][1,4,7,10,13,16]oxapentaazacyclononadecin-14-yl)-N^2^-formylvalinamide hydrate'
_symmetry_cell_setting           orthorhombic
_symmetry_space_group_name_H-M   'P 21 21 2'
_symmetry_Int_Tables_number      18
_space_group_name_Hall           'P 2 2ab'
loop_
_symmetry_equiv_pos_site_id
_symmetry_equiv_pos_as_xyz
1 x,y,z
2 -x,-y,z
3 1/2+x,1/2-y,-z
4 1/2-x,1/2+y,-z
_cell_length_a                   24.9455(2)
_cell_length_b                   19.28742(18)
_cell_length_c                   11.27639(9)
_cell_angle_alpha                90
_cell_angle_beta                 90
_cell_angle_gamma                90
_cell_volume                     5425.46
_exptl_crystal_colour            colorless
_exptl_crystal_description       block
_cell_formula_units_Z            4
loop_
_atom_site_label
_atom_site_type_symbol
_atom_site_fract_x
_atom_site_fract_y
_atom_site_fract_z
C1 C 0.92175(12) 0.72352(16) 0.2727(3)
C2 C 0.91861(12) 0.80276(15) 0.2769(3)
H1 H 0.8811 0.8167 0.2565
C3 C 0.95655(14) 0.83886(17) 0.1904(3)
H2 H 0.9943 0.8251 0.2089
C4 C 0.94298(19) 0.8165(2) 0.0647(3)
H3 H 0.9469 0.7662 0.0577
H4 H 0.9059 0.8297 0.0464
H5 H 0.9674 0.8394 0.0089
C5 C 0.95086(15) 0.91708(17) 0.2042(3)
H6 H 0.9733 0.9405 0.1451
H7 H 0.9623 0.9308 0.2839
H8 H 0.9133 0.9303 0.1924
C6 C 0.98381(12) 0.82093(18) 0.4445(3)
H9 H 1.0004 0.8658 0.4267
H10 H 1.0039 0.7840 0.4046
H11 H 0.9843 0.8131 0.5303
C7 C 0.88542(12) 0.83107(15) 0.4734(3)
C8 C 0.89510(11) 0.83280(16) 0.6079(3)
H12 H 0.9287 0.8591 0.6259
C9 C 0.90063(12) 0.75699(16) 0.6494(3)
H13 H 0.8648 0.7349 0.6468
H14 H 0.9240 0.7320 0.5927
C10 C 0.92373(13) 0.74810(17) 0.7745(3)
H15 H 0.9050 0.7811 0.8289
C11 C 0.9131(2) 0.6747(2) 0.8173(4)
H16 H 0.8745 0.6657 0.8169
H17 H 0.9270 0.6692 0.8980
H18 H 0.9311 0.6416 0.7644
C12 C 0.98385(14) 0.7642(2) 0.7767(3)
H19 H 0.9982 0.7543 0.8559
H20 H 0.9895 0.8132 0.7578
H21 H 1.0023 0.7353 0.7180
C13 C 0.84927(12) 0.93287(16) 0.6870(3)
C14 C 0.79721(12) 0.96465(15) 0.7358(3)
H22 H 0.7806 0.9919 0.6700
C15 C 0.80768(13) 1.01516(17) 0.8378(3)
H23 H 0.8393 1.0441 0.8187
H24 H 0.7764 1.0463 0.8471
C16 C 0.81754(15) 0.9770(2) 0.9533(3)
H25 H 0.8202 1.0110 1.0200
C17 C 0.77226(15) 0.9265(2) 0.9772(3)
H26 H 0.7795 0.9014 1.0521
H27 H 0.7384 0.9527 0.9872
C18 C 0.71769(11) 0.89240(15) 0.6983(3)
C19 C 0.68258(12) 0.82999(16) 0.7324(3)
H28 H 0.6993 0.8043 0.7999
C20 C 0.62511(12) 0.85150(16) 0.7653(3)
H29 H 0.6082 0.8731 0.6938
C21 C 0.59244(14) 0.78764(19) 0.7990(4)
H30 H 0.6073 0.7670 0.8713
H31 H 0.5940 0.7537 0.7344
H32 H 0.5551 0.8011 0.8129
C22 C 0.62461(14) 0.90514(19) 0.8657(3)
H33 H 0.6326 0.8816 0.9416
H34 H 0.6532 0.9397 0.8512
C23 C 0.57082(17) 0.9426(3) 0.8762(5)
H35 H 0.5616 0.9637 0.7999
H36 H 0.5734 0.9788 0.9370
H37 H 0.5429 0.9093 0.8986
C24 C 0.72656(11) 0.75815(14) 0.5859(3)
C25 C 0.72488(11) 0.72557(14) 0.4611(3)
H38 H 0.6969 0.6885 0.4589
C26 C 0.71174(13) 0.78114(16) 0.3675(3)
H39 H 0.6775 0.8039 0.3886
H40 H 0.7401 0.8170 0.3684
C27 C 0.70731(13) 0.75141(17) 0.2441(3)
C28 C 0.65931(14) 0.72224(18) 0.2040(3)
H41 H 0.6287 0.7232 0.2541
C29 C 0.65537(15) 0.6921(2) 0.0933(3)
H42 H 0.6222 0.6730 0.0677
C30 C 0.69966(15) 0.68992(18) 0.0197(3)
C31 C 0.74734(15) 0.7194(2) 0.0550(3)
H43 H 0.7776 0.7188 0.0039
C32 C 0.75067(14) 0.75020(18) 0.1670(3)
H44 H 0.7835 0.7709 0.1909
C33 C 0.78825(11) 0.62883(15) 0.4551(3)
C34 C 0.84775(12) 0.61006(15) 0.4413(3)
H45 H 0.8688 0.6394 0.4976
C35 C 0.87021(13) 0.62172(16) 0.3163(3)
H46 H 0.9068 0.6008 0.3110
C36 C 0.83555(17) 0.59256(19) 0.2188(4)
H47 H 0.8012 0.6172 0.2173
H48 H 0.8292 0.5431 0.2333
H49 H 0.8537 0.5984 0.1424
C37 C 0.89993(11) 0.51624(16) 0.5270(3)
C38 C 0.89972(12) 0.44243(17) 0.5725(3)
H50 H 0.8701 0.4163 0.5329
C39 C 0.8915(2) 0.4395(4) 0.7082(4)
H51 H 0.8879 0.3888 0.7250
C40 C 0.8362(3) 0.4688(5) 0.7405(6)
H52 H 0.8284 0.4585 0.8238
H53 H 0.8089 0.4475 0.6899
H54 H 0.8362 0.5191 0.7285
C41 C 0.9323(4) 0.4595(5) 0.7782(6)
H55 H 0.9663 0.4457 0.7419
H56 H 0.9288 0.4374 0.8560
H57 H 0.9315 0.5100 0.7875
C42 C 0.95601(12) 0.34524(16) 0.5128(3)
H58 H 0.9909 0.3291 0.4937
C43 C 0.73851(19) 0.6384(2) -0.1556(4)
H59 H 0.7553 0.6806 -0.1868
H60 H 0.7279 0.6084 -0.2216
H61 H 0.7641 0.6138 -0.1048
N1 N 0.92822(10) 0.82082(13) 0.4022(2)
N2 N 0.84969(11) 0.86515(13) 0.6663(2)
H62 H 0.8210(15) 0.8427(19) 0.667(3)
N3 N 0.76578(12) 0.87586(15) 0.8803(2)
H63 H 0.7960(19) 0.853(2) 0.873(4)
N4 N 0.75803(10) 0.91154(13) 0.7714(2)
N5 N 0.68085(10) 0.78561(13) 0.6268(2)
H64 H 0.6502 0.7772 0.5908
N6 N 0.77689(10) 0.69523(13) 0.4373(2)
H65 H 0.8001(15) 0.722(2) 0.428(3)
N7 N 0.85449(10) 0.53804(13) 0.4762(3)
H66 H 0.8305(17) 0.511(2) 0.466(4)
N8 N 0.95097(10) 0.41135(13) 0.5394(3)
H67 H 0.982(2) 0.431(3) 0.539(4)
O1 O 0.96054(12) 0.68985(14) 0.2543(4)
O2 O 0.87424(9) 0.69613(11) 0.3002(3)
O3 O 0.83910(8) 0.83333(11) 0.43424(19)
O4 O 0.88775(10) 0.97023(12) 0.6642(3)
O5 O 0.86491(10) 0.93686(15) 0.9478(3)
H68 H 0.8914 0.9631 0.9378
O6 O 0.71011(9) 0.92288(11) 0.6039(2)
O7 O 0.76834(8) 0.76049(11) 0.64379(19)
O8 O 0.75476(9) 0.58435(11) 0.4785(3)
O9 O 0.93932(8) 0.55470(12) 0.5393(2)
O10 O 0.91928(9) 0.30239(12) 0.5106(2)
O11 O 0.69199(11) 0.65670(15) -0.0876(2)
O12 O 0.58806(6) 0.60052(8) 0.84744(13)
H69 H 0.5568 0.5930 0.8746
H70 H 0.5948 0.6437 0.8505
O13 O 0.59349(5) 0.55558(7) 0.61219(13)
H71 H 0.6227 0.5348 0.5966
H72 H 0.5955 0.5741 0.6805
O14 O 0.60168(5) 0.66233(7) 0.44819(13)
H73 H 0.5874 0.6999 0.4717
H74 H 0.5987 0.6317 0.5021
O15 O 0.80889(7) 0.98189(7) 0.3906(2)
H75 H 0.7865 1.0015 0.4363
H76 H 0.8122 0.9395 0.4103
O16 O 0.95026(7) 0.03278(8) 0.95193(15)
H77 H 0.9377 0.0738 0.9528
H78 H 0.9696 0.0273 0.8906
O17 O 0.94826(7) 0.08116(7) 0.72392(15)
H79 H 0.9342 0.0427 0.7047
H80 H 0.9313 0.1140 0.6908
O18 O 1.00000(9) 0.00000(9) 0.48912(17)
H81 H 0.9717 0.0168 0.4587
H81A H 1.0283 -0.0168 0.4587
loop_
_geom_bond_atom_site_label_1
_geom_bond_atom_site_label_2
_geom_bond_site_symmetry_1
_geom_bond_site_symmetry_2
C1 C2 1_555 1_555
C2 H1 1_555 1_555
C3 C2 1_555 1_555
H2 C3 1_555 1_555
C4 C3 1_555 1_555
H3 C4 1_555 1_555
H4 C4 1_555 1_555
H5 C4 1_555 1_555
C5 C3 1_555 1_555
H6 C5 1_555 1_555
H7 C5 1_555 1_555
H8 C5 1_555 1_555
C6 H9 1_555 1_555
H10 C6 1_555 1_555
H11 C6 1_555 1_555
C7 C8 1_555 1_555
C8 H12 1_555 1_555
C9 C8 1_555 1_555
H13 C9 1_555 1_555
H14 C9 1_555 1_555
C10 C9 1_555 1_555
H15 C10 1_555 1_555
C11 C10 1_555 1_555
H16 C11 1_555 1_555
H17 C11 1_555 1_555
H18 C11 1_555 1_555
C12 C10 1_555 1_555
H19 C12 1_555 1_555
H20 C12 1_555 1_555
H21 C12 1_555 1_555
C13 C14 1_555 1_555
C14 H22 1_555 1_555
C15 C14 1_555 1_555
H23 C15 1_555 1_555
H24 C15 1_555 1_555
C16 C15 1_555 1_555
H25 C16 1_555 1_555
C17 C16 1_555 1_555
H26 C17 1_555 1_555
H27 C17 1_555 1_555
C18 C19 1_555 1_555
C19 H28 1_555 1_555
C20 C19 1_555 1_555
H29 C20 1_555 1_555
C21 C20 1_555 1_555
H30 C21 1_555 1_555
H31 C21 1_555 1_555
H32 C21 1_555 1_555
C22 C20 1_555 1_555
H33 C22 1_555 1_555
H34 C22 1_555 1_555
C23 C22 1_555 1_555
H35 C23 1_555 1_555
H36 C23 1_555 1_555
H37 C23 1_555 1_555
C24 C25 1_555 1_555
C25 H38 1_555 1_555
C26 C25 1_555 1_555
H39 C26 1_555 1_555
H40 C26 1_555 1_555
C27 C26 1_555 1_555
C28 C27 1_555 1_555
H41 C28 1_555 1_555
C29 C28 1_555 1_555
H42 C29 1_555 1_555
C30 C29 1_555 1_555
C31 C30 1_555 1_555
H43 C31 1_555 1_555
C32 C27 1_555 1_555
H44 C32 1_555 1_555
C33 C34 1_555 1_555
C34 H45 1_555 1_555
C35 C34 1_555 1_555
H46 C35 1_555 1_555
C36 C35 1_555 1_555
H47 C36 1_555 1_555
H48 C36 1_555 1_555
H49 C36 1_555 1_555
C37 C38 1_555 1_555
C38 H50 1_555 1_555
C39 C38 1_555 1_555
H51 C39 1_555 1_555
C40 C39 1_555 1_555
H52 C40 1_555 1_555
H53 C40 1_555 1_555
H54 C40 1_555 1_555
C41 C39 1_555 1_555
H55 C41 1_555 1_555
H56 C41 1_555 1_555
H57 C41 1_555 1_555
C42 H58 1_555 1_555
C43 H59 1_555 1_555
H60 C43 1_555 1_555
H61 C43 1_555 1_555
N1 C2 1_555 1_555
N2 C8 1_555 1_555
H62 N2 1_555 1_555
N3 C17 1_555 1_555
H63 N3 1_555 1_555
N4 C14 1_555 1_555
N5 C19 1_555 1_555
H64 N5 1_555 1_555
N6 C25 1_555 1_555
H65 N6 1_555 1_555
N7 C34 1_555 1_555
H66 N7 1_555 1_555
N8 C38 1_555 1_555
H67 N8 1_555 1_555
O1 C1 1_555 1_555
O2 C1 1_555 1_555
O3 C7 1_555 1_555
O4 C13 1_555 1_555
O5 C16 1_555 1_555
H68 O5 1_555 1_555
O6 C18 1_555 1_555
O7 C24 1_555 1_555
O8 C33 1_555 1_555
O9 C37 1_555 1_555
O10 C42 1_555 1_555
O11 C30 1_555 1_555
O12 H69 1_555 1_555
H70 O12 1_555 1_555
O13 H71 1_555 1_555
H72 O13 1_555 1_555
O14 H73 1_555 1_555
H74 O14 1_555 1_555
O15 H75 1_555 1_555
H76 O15 1_555 1_555
O16 H77 1_555 1_555
H78 O16 1_555 1_555
O17 H79 1_555 1_555
H80 O17 1_555 1_555
O18 H81 1_555 1_555
H81A O18 1_555 1_555
C6 N1 1_555 1_555
C7 N1 1_555 1_555
C13 N2 1_555 1_555
C18 N4 1_555 1_555
C24 N5 1_555 1_555
C31 C32 1_555 1_555
C33 N6 1_555 1_555
C35 O2 1_555 1_555
C37 N7 1_555 1_555
C42 N8 1_555 1_555
C43 O11 1_555 1_555
N3 N4 1_555 1_555

#END
