
#######################################################################
#
#                 Cambridge Crystallographic Data Centre
#                                CCDC 
#
#######################################################################
#
# If this CIF has been generated from an entry in the Cambridge 
# Structural Database, then it will include bibliographic, chemical, 
# crystal, experimental, refinement or atomic coordinate data resulting 
# from the CCDC's data processing and validation procedures.
#
#######################################################################

data_KAKHOW
_chemical_formula_moiety         'C39 H25 N1 O1'
_chemical_name_systematic        
N-(4-Methoxyphenyl)-N-(pyren-1-yl)pyren-1-amine
_symmetry_cell_setting           triclinic
_symmetry_space_group_name_H-M   'P -1'
_symmetry_Int_Tables_number      2
_space_group_name_Hall           '-P 1'
loop_
_symmetry_equiv_pos_site_id
_symmetry_equiv_pos_as_xyz
1 x,y,z
2 -x,-y,-z
_cell_length_a                   10.920(2)
_cell_length_b                   11.212(2)
_cell_length_c                   12.802(3)
_cell_angle_alpha                115.66(3)
_cell_angle_beta                 106.77(3)
_cell_angle_gamma                90.89(3)
_cell_volume                     1334.71
_exptl_crystal_colour            yellow
_exptl_crystal_description       Strip
_cell_formula_units_Z            2
loop_
_atom_site_label
_atom_site_type_symbol
_atom_site_fract_x
_atom_site_fract_y
_atom_site_fract_z
N1 N -0.04058(13) 0.42406(13) 0.19154(13)
O1 O -0.54949(12) 0.14812(14) -0.02766(13)
C1 C -0.00567(15) 0.55348(17) 0.20298(15)
C2 C -0.06314(15) 0.66315(16) 0.26433(15)
C3 C -0.15708(15) 0.65580(17) 0.32181(15)
H1 H -0.1823 0.5745 0.3189
C4 C -0.20903(16) 0.76259(17) 0.37916(16)
H2 H -0.2690 0.7533 0.4151
C5 C -0.17506(15) 0.89040(17) 0.38677(15)
C6 C -0.22728(16) 1.00340(17) 0.44643(16)
H3 H -0.2888 0.9963 0.4817
C7 C -0.18890(16) 1.12588(18) 0.45389(17)
H4 H -0.2242 1.2002 0.4946
C8 C -0.09871(16) 1.13844(17) 0.40137(16)
H5 H -0.0745 1.2212 0.4065
C9 C -0.04319(16) 1.02922(17) 0.34073(15)
C10 C 0.05324(16) 1.03938(18) 0.28732(16)
H6 H 0.0772 1.1209 0.2900
C11 C 0.10891(17) 0.93557(18) 0.23429(16)
H7 H 0.1727 0.9467 0.2028
C12 C 0.07290(16) 0.80656(17) 0.22442(15)
C13 C 0.13035(16) 0.69620(18) 0.16954(16)
H8 H 0.1964 0.7062 0.1401
C14 C 0.09091(16) 0.57278(18) 0.15820(16)
H9 H 0.1297 0.5005 0.1197
C15 C -0.02511(15) 0.78987(17) 0.27230(15)
C16 C -0.08121(15) 0.90275(16) 0.33310(15)
C17 C 0.06351(16) 0.34969(17) 0.20513(16)
C18 C 0.07467(17) 0.23833(17) 0.10389(16)
H10 H 0.0113 0.2093 0.0277
C19 C 0.17832(16) 0.17074(17) 0.11526(16)
H11 H 0.1838 0.0969 0.0465
C20 C 0.27498(16) 0.21129(17) 0.22812(16)
C21 C 0.38382(17) 0.14280(18) 0.24483(18)
H12 H 0.3939 0.0714 0.1768
C22 C 0.46969(17) 0.17863(19) 0.35414(18)
H13 H 0.5377 0.1305 0.3609
C23 C 0.46174(16) 0.28962(18) 0.46323(17)
C24 C 0.55057(17) 0.3290(2) 0.58072(18)
H14 H 0.6177 0.2808 0.5909
C25 C 0.53964(18) 0.4387(2) 0.68176(18)
H15 H 0.6001 0.4637 0.7587
C26 C 0.44025(17) 0.51146(18) 0.66985(17)
H16 H 0.4350 0.5855 0.7386
C27 C 0.34751(16) 0.47483(17) 0.55541(16)
C28 C 0.23946(16) 0.54289(17) 0.53993(16)
H17 H 0.2320 0.6163 0.6080
C29 C 0.14850(16) 0.50444(16) 0.43063(16)
H18 H 0.0787 0.5504 0.4249
C30 C 0.15680(15) 0.39261(16) 0.32121(15)
C31 C 0.26335(16) 0.32330(16) 0.33288(15)
C32 C 0.35838(16) 0.36319(17) 0.45071(16)
C33 C -0.16991(15) 0.35467(16) 0.13109(15)
C34 C -0.20523(17) 0.24042(17) 0.14049(16)
H19 H -0.1427 0.2088 0.1843
C35 C -0.33121(17) 0.17365(19) 0.08604(17)
H20 H -0.3525 0.0972 0.0928
C36 C -0.42667(17) 0.21981(19) 0.02109(17)
C37 C -0.39358(17) 0.33300(18) 0.00996(16)
H21 H -0.4564 0.3645 -0.0337
C38 C -0.26565(16) 0.39909(17) 0.06463(15)
H22 H -0.2439 0.4744 0.0565
C39 C -0.6504(2) 0.1999(3) -0.0845(3)
H23 H -0.6497 0.2911 -0.0285
H24 H -0.7322 0.1470 -0.1068
H25 H -0.6376 0.1967 -0.1567
loop_
_geom_bond_atom_site_label_1
_geom_bond_atom_site_label_2
_geom_bond_site_symmetry_1
_geom_bond_site_symmetry_2
N1 C1 1_555 1_555
O1 C36 1_555 1_555
C1 C2 1_555 1_555
C2 C3 1_555 1_555
C3 H1 1_555 1_555
C4 C3 1_555 1_555
H2 C4 1_555 1_555
C5 C4 1_555 1_555
C6 C5 1_555 1_555
H3 C6 1_555 1_555
C7 C6 1_555 1_555
H4 C7 1_555 1_555
C8 C7 1_555 1_555
H5 C8 1_555 1_555
C9 C8 1_555 1_555
C10 C9 1_555 1_555
H6 C10 1_555 1_555
C11 C10 1_555 1_555
H7 C11 1_555 1_555
C12 C11 1_555 1_555
C13 C12 1_555 1_555
H8 C13 1_555 1_555
C14 C1 1_555 1_555
H9 C14 1_555 1_555
C15 C2 1_555 1_555
C16 C5 1_555 1_555
C17 N1 1_555 1_555
C18 C17 1_555 1_555
H10 C18 1_555 1_555
C19 C18 1_555 1_555
H11 C19 1_555 1_555
C20 C19 1_555 1_555
C21 C20 1_555 1_555
H12 C21 1_555 1_555
C22 C21 1_555 1_555
H13 C22 1_555 1_555
C23 C22 1_555 1_555
C24 C23 1_555 1_555
H14 C24 1_555 1_555
C25 C24 1_555 1_555
H15 C25 1_555 1_555
C26 C25 1_555 1_555
H16 C26 1_555 1_555
C27 C26 1_555 1_555
C28 C27 1_555 1_555
H17 C28 1_555 1_555
C29 C28 1_555 1_555
H18 C29 1_555 1_555
C30 C17 1_555 1_555
C31 C20 1_555 1_555
C32 C23 1_555 1_555
C33 N1 1_555 1_555
C34 C33 1_555 1_555
H19 C34 1_555 1_555
C35 C34 1_555 1_555
H20 C35 1_555 1_555
C36 C35 1_555 1_555
C37 C36 1_555 1_555
H21 C37 1_555 1_555
C38 C33 1_555 1_555
H22 C38 1_555 1_555
C39 O1 1_555 1_555
H23 C39 1_555 1_555
H24 C39 1_555 1_555
H25 C39 1_555 1_555
C9 C16 1_555 1_555
C12 C15 1_555 1_555
C13 C14 1_555 1_555
C15 C16 1_555 1_555
C27 C32 1_555 1_555
C29 C30 1_555 1_555
C30 C31 1_555 1_555
C31 C32 1_555 1_555
C37 C38 1_555 1_555

#END
