
#######################################################################
#
#                 Cambridge Crystallographic Data Centre
#                                CCDC 
#
#######################################################################
#
# If this CIF has been generated from an entry in the Cambridge 
# Structural Database, then it will include bibliographic, chemical, 
# crystal, experimental, refinement or atomic coordinate data resulting 
# from the CCDC's data processing and validation procedures.
#
#######################################################################

data_KAKQOF01
_chemical_formula_moiety         'C15 H15 Cl1 N2 O1'
_chemical_name_systematic        
(E)-4-chloro-2-(((4-(dimethylamino)phenyl)imino)methyl)phenol
_symmetry_cell_setting           monoclinic
_symmetry_space_group_name_H-M   'P 21'
_symmetry_Int_Tables_number      4
_space_group_name_Hall           'P 2yb'
loop_
_symmetry_equiv_pos_site_id
_symmetry_equiv_pos_as_xyz
1 x,y,z
2 -x,1/2+y,-z
_cell_length_a                   6.3010(13)
_cell_length_b                   7.6290(15)
_cell_length_c                   15.735(3)
_cell_angle_alpha                90
_cell_angle_beta                 99.35(3)
_cell_angle_gamma                90
_cell_volume                     746.338
_exptl_crystal_colour            yellow
_exptl_crystal_description       plate
_chemical_melting_point          '445 K'
_cell_formula_units_Z            2
_exptl_crystal_recrystallization_method 'chloroform/ hexane'
_exptl_crystal_preparation       ', Luminescent'
loop_
_atom_site_label
_atom_site_type_symbol
_atom_site_fract_x
_atom_site_fract_y
_atom_site_fract_z
Cl1 Cl 0.5466(4) 0.1364(4) 0.15455(11)
N1 N 0.5881(7) 0.1352(8) -0.2572(3)
C1 C 0.4606(9) 0.1081(9) -0.3429(4)
C2 C 0.2275(9) 0.0871(8) -0.5189(4)
C3 C 0.6416(9) 0.1545(10) -0.0989(4)
C4 C 0.1435(11) 0.0043(9) -0.4465(4)
H1 H 0.0140 -0.0566 -0.4566
C5 C 0.5059(10) 0.1162(9) -0.1858(4)
H2 H 0.3643 0.0791 -0.1887
C6 C 0.5492(10) 0.1279(10) -0.0222(4)
H3 H 0.4109 0.0825 -0.0264
C7 C 0.5438(10) 0.1845(9) -0.4140(4)
H4 H 0.6760 0.2414 -0.4037
O1 O 0.9554(7) 0.2525(10) -0.1624(3)
H5 H 0.8760 0.2198 -0.2061
C8 C 0.8556(9) 0.2241(9) -0.0915(4)
C9 C 0.2601(10) 0.0172(9) -0.3611(4)
H6 H 0.2041 -0.0349 -0.3161
N2 N 0.1099(8) 0.0752(8) -0.6045(3)
C10 C 0.4307(8) 0.1760(9) -0.4993(4)
H7 H 0.4890 0.2290 -0.5435
C11 C 0.2060(12) 0.1470(14) -0.6779(4)
H8 H 0.2172 0.2722 -0.6727
H9 H 0.1160 0.1174 -0.7312
H10 H 0.3465 0.0977 -0.6770
C12 C 0.9695(11) 0.2712(11) -0.0080(5)
H11 H 1.1051 0.3220 -0.0034
C13 C 0.8789(12) 0.2415(11) 0.0671(5)
H12 H 0.9566 0.2683 0.1209
C14 C 0.6673(12) 0.1703(10) 0.0597(4)
C15 C -0.1036(11) -0.0046(11) -0.6237(5)
H13 H -0.0985 -0.1211 -0.6004
H14 H -0.1483 -0.0095 -0.6850
H15 H -0.2043 0.0645 -0.5984
loop_
_geom_bond_atom_site_label_1
_geom_bond_atom_site_label_2
_geom_bond_site_symmetry_1
_geom_bond_site_symmetry_2
Cl1 C14 1_555 1_555
N1 C1 1_555 1_555
C1 C7 1_555 1_555
C2 C4 1_555 1_555
C3 C5 1_555 1_555
C4 H1 1_555 1_555
C5 N1 1_555 1_555
H2 C5 1_555 1_555
C6 C3 1_555 1_555
H3 C6 1_555 1_555
C7 H4 1_555 1_555
O1 H5 1_555 1_555
C8 C3 1_555 1_555
C9 C1 1_555 1_555
H6 C9 1_555 1_555
N2 C2 1_555 1_555
C10 C2 1_555 1_555
H7 C10 1_555 1_555
C11 N2 1_555 1_555
H8 C11 1_555 1_555
H9 C11 1_555 1_555
H10 C11 1_555 1_555
C12 C8 1_555 1_555
H11 C12 1_555 1_555
C13 C12 1_555 1_555
H12 C13 1_555 1_555
C14 C6 1_555 1_555
C15 N2 1_555 1_555
H13 C15 1_555 1_555
H14 C15 1_555 1_555
H15 C15 1_555 1_555
C4 C9 1_555 1_555
C7 C10 1_555 1_555
O1 C8 1_555 1_555
C13 C14 1_555 1_555

#END
