
#######################################################################
#
#                 Cambridge Crystallographic Data Centre
#                                CCDC 
#
#######################################################################
#
# If this CIF has been generated from an entry in the Cambridge 
# Structural Database, then it will include bibliographic, chemical, 
# crystal, experimental, refinement or atomic coordinate data resulting 
# from the CCDC's data processing and validation procedures.
#
#######################################################################

data_KAKSIA
_chemical_formula_moiety         'C10 H24 N1 1+,Br1 1-'
_chemical_name_systematic        'Decan-1-aminium bromide'
_symmetry_cell_setting           monoclinic
_symmetry_space_group_name_H-M   'P 21/c'
_symmetry_Int_Tables_number      14
_space_group_name_Hall           '-P 2ybc'
loop_
_symmetry_equiv_pos_site_id
_symmetry_equiv_pos_as_xyz
1 x,y,z
2 -x,1/2+y,1/2-z
3 -x,-y,-z
4 x,1/2-y,1/2+z
_cell_length_a                   6.1354(5)
_cell_length_b                   6.9229(4)
_cell_length_c                   31.081(3)
_cell_angle_alpha                90
_cell_angle_beta                 92.6470(10)
_cell_angle_gamma                90
_cell_volume                     1318.75
_cell_formula_units_Z            4
loop_
_atom_site_label
_atom_site_type_symbol
_atom_site_fract_x
_atom_site_fract_y
_atom_site_fract_z
N1 N 0.7586(10) 0.2207(8) 0.4742(2)
H1 H 0.6366 0.2735 0.4832
H2 H 0.8729 0.2696 0.4892
H3 H 0.7542 0.0934 0.4781
C1 C 0.7784(15) 0.2625(11) 0.4285(3)
H4 H 0.9070 0.1978 0.4186
H5 H 0.7993 0.4003 0.4250
C2 C 0.5827(15) 0.1999(12) 0.4009(3)
H6 H 0.4532 0.2562 0.4125
H7 H 0.5692 0.0607 0.4029
C3 C 0.5877(17) 0.2538(12) 0.3539(3)
H8 H 0.6016 0.3931 0.3518
H9 H 0.7172 0.1974 0.3423
C4 C 0.3923(16) 0.1919(13) 0.3260(3)
H10 H 0.3844 0.0520 0.3265
H11 H 0.2620 0.2407 0.3388
C5 C 0.3896(17) 0.2571(13) 0.2797(3)
H12 H 0.5225 0.2124 0.2672
H13 H 0.3919 0.3972 0.2792
C6 C 0.1979(18) 0.1889(14) 0.2516(4)
H14 H 0.1996 0.0488 0.2511
H15 H 0.0649 0.2284 0.2649
C7 C 0.1897(16) 0.2610(13) 0.2058(3)
H16 H 0.3230 0.2221 0.1926
H17 H 0.1872 0.4011 0.2063
C8 C -0.0014(17) 0.1920(13) 0.1776(3)
H18 H 0.0031 0.0520 0.1765
H19 H -0.1347 0.2281 0.1912
C9 C -0.0125(18) 0.2679(15) 0.1321(4)
H20 H 0.1200 0.2303 0.1185
H21 H -0.0152 0.4079 0.1332
C10 C -0.2050(18) 0.2009(17) 0.1040(4)
H22 H -0.1914 0.0651 0.0985
H23 H -0.2086 0.2704 0.0773
H24 H -0.3373 0.2246 0.1185
Br1 Br 0.26435(13) 0.23517(10) 0.01430(3)
loop_
_geom_bond_atom_site_label_1
_geom_bond_atom_site_label_2
_geom_bond_site_symmetry_1
_geom_bond_site_symmetry_2
N1 H1 1_555 1_555
H2 N1 1_555 1_555
H3 N1 1_555 1_555
C1 N1 1_555 1_555
H4 C1 1_555 1_555
H5 C1 1_555 1_555
C2 C1 1_555 1_555
H6 C2 1_555 1_555
H7 C2 1_555 1_555
C3 C2 1_555 1_555
H8 C3 1_555 1_555
H9 C3 1_555 1_555
C4 C3 1_555 1_555
H10 C4 1_555 1_555
H11 C4 1_555 1_555
C5 C4 1_555 1_555
H12 C5 1_555 1_555
H13 C5 1_555 1_555
C6 C5 1_555 1_555
H14 C6 1_555 1_555
H15 C6 1_555 1_555
C7 C6 1_555 1_555
H16 C7 1_555 1_555
H17 C7 1_555 1_555
C8 C7 1_555 1_555
H18 C8 1_555 1_555
H19 C8 1_555 1_555
C9 C8 1_555 1_555
H20 C9 1_555 1_555
H21 C9 1_555 1_555
C10 C9 1_555 1_555
H22 C10 1_555 1_555
H23 C10 1_555 1_555
H24 C10 1_555 1_555

#END
