
#######################################################################
#
#                 Cambridge Crystallographic Data Centre
#                                CCDC 
#
#######################################################################
#
# If this CIF has been generated from an entry in the Cambridge 
# Structural Database, then it will include bibliographic, chemical, 
# crystal, experimental, refinement or atomic coordinate data resulting 
# from the CCDC's data processing and validation procedures.
#
#######################################################################

data_KALCEI
_chemical_formula_moiety         'C16 H13 F3 N2 O2 S1'
_chemical_name_systematic        
4-methoxy-N-((4-(trifluoromethyl)phenyl)carbamothioyl)benzamide
_symmetry_cell_setting           triclinic
_symmetry_space_group_name_H-M   'P -1'
_symmetry_Int_Tables_number      2
_space_group_name_Hall           '-P 1'
loop_
_symmetry_equiv_pos_site_id
_symmetry_equiv_pos_as_xyz
1 x,y,z
2 -x,-y,-z
_cell_length_a                   4.8291(18)
_cell_length_b                   13.259(5)
_cell_length_c                   13.880(5)
_cell_angle_alpha                114.099(6)
_cell_angle_beta                 95.442(7)
_cell_angle_gamma                90.250(7)
_cell_volume                     806.698
_exptl_crystal_description       acicular
_cell_formula_units_Z            2
loop_
_atom_site_label
_atom_site_type_symbol
_atom_site_fract_x
_atom_site_fract_y
_atom_site_fract_z
S1 S 0.3364(4) 0.13380(14) 0.63395(14)
F1 F -0.5069(11) 0.6729(4) 0.8694(3)
F2 F -0.1611(10) 0.6893(4) 0.9776(4)
F3 F -0.4853(12) 0.5742(4) 0.9539(4)
N1 N 0.3054(11) 0.3186(4) 0.5988(4)
H1 H 0.3573 0.3487 0.5586
N2 N 0.5780(10) 0.1820(4) 0.4966(3)
H2 H 0.6527 0.1201 0.4858
O1 O 0.5584(10) 0.3210(3) 0.4395(3)
O2 O 1.2783(9) 0.0032(4) 0.0947(3)
C1 C -0.3297(14) 0.6157(5) 0.9038(5)
C2 C -0.1927(12) 0.5304(5) 0.8195(4)
C3 C -0.0988(14) 0.4367(5) 0.8295(5)
H3 H -0.1443 0.4227 0.8867
C4 C 0.0588(15) 0.3638(5) 0.7581(5)
H4 H 0.1172 0.3009 0.7664
C5 C 0.1309(12) 0.3836(4) 0.6739(4)
C6 C 0.0314(13) 0.4745(5) 0.6606(5)
H5 H 0.0724 0.4866 0.6019
C7 C -0.1278(14) 0.5482(5) 0.7326(5)
H6 H -0.1915 0.6097 0.7228
C8 C 0.4056(12) 0.2193(5) 0.5784(4)
C9 C 0.6452(12) 0.2318(5) 0.4304(4)
C10 C 0.8221(11) 0.1685(4) 0.3467(4)
C11 C 0.9844(12) 0.0829(5) 0.3476(4)
H7 H 0.9906 0.0639 0.4053
C12 C 1.1369(11) 0.0254(5) 0.2646(4)
H8 H 1.2415 -0.0329 0.2660
C13 C 1.1349(12) 0.0538(5) 0.1798(4)
C14 C 0.9779(13) 0.1401(5) 0.1786(5)
H9 H 0.9755 0.1596 0.1214
C15 C 0.8260(13) 0.1971(5) 0.2606(4)
H10 H 0.7239 0.2558 0.2590
C16 C 1.4376(14) -0.0879(6) 0.0898(5)
H11 H 1.5724 -0.0653 0.1510
H12 H 1.5316 -0.1139 0.0267
H13 H 1.3167 -0.1463 0.0883
loop_
_geom_bond_atom_site_label_1
_geom_bond_atom_site_label_2
_geom_bond_site_symmetry_1
_geom_bond_site_symmetry_2
S1 C8 1_555 1_555
F1 C1 1_555 1_555
F2 C1 1_555 1_555
F3 C1 1_555 1_555
N1 H1 1_555 1_555
N2 H2 1_555 1_555
O1 C9 1_555 1_555
O2 C13 1_555 1_555
C1 C2 1_555 1_555
C2 C3 1_555 1_555
C3 H3 1_555 1_555
C4 C3 1_555 1_555
H4 C4 1_555 1_555
C5 N1 1_555 1_555
C6 C5 1_555 1_555
H5 C6 1_555 1_555
C7 C2 1_555 1_555
H6 C7 1_555 1_555
C8 N1 1_555 1_555
C9 N2 1_555 1_555
C10 C9 1_555 1_555
C11 C10 1_555 1_555
H7 C11 1_555 1_555
C12 C11 1_555 1_555
H8 C12 1_555 1_555
C13 C12 1_555 1_555
C14 C13 1_555 1_555
H9 C14 1_555 1_555
C15 C10 1_555 1_555
H10 C15 1_555 1_555
C16 O2 1_555 1_555
H11 C16 1_555 1_555
H12 C16 1_555 1_555
H13 C16 1_555 1_555
N2 C8 1_555 1_555
C4 C5 1_555 1_555
C6 C7 1_555 1_555
C14 C15 1_555 1_555

#END
