
#######################################################################
#
#                 Cambridge Crystallographic Data Centre
#                                CCDC 
#
#######################################################################
#
# If this CIF has been generated from an entry in the Cambridge 
# Structural Database, then it will include bibliographic, chemical, 
# crystal, experimental, refinement or atomic coordinate data resulting 
# from the CCDC's data processing and validation procedures.
#
#######################################################################

data_KALCUY
_chemical_formula_moiety         'C15 H10 Cl1 F3 N2 O1 S1,0.5(H2 O1)'
_chemical_name_systematic        
'4-chloro-N-((4-(trifluoromethyl)phenyl)carbamothioyl)benzamide hemihydrate'
_symmetry_cell_setting           orthorhombic
_symmetry_space_group_name_H-M   'P 21 21 2'
_symmetry_Int_Tables_number      18
_space_group_name_Hall           'P 2 2ab'
loop_
_symmetry_equiv_pos_site_id
_symmetry_equiv_pos_as_xyz
1 x,y,z
2 -x,-y,z
3 1/2-x,1/2+y,-z
4 1/2+x,1/2-y,-z
_cell_length_a                   11.776(4)
_cell_length_b                   28.887(9)
_cell_length_c                   4.6167(14)
_cell_angle_alpha                90
_cell_angle_beta                 90
_cell_angle_gamma                90
_cell_volume                     1570.48
_exptl_crystal_description       Acicular
_cell_formula_units_Z            4
loop_
_atom_site_label
_atom_site_type_symbol
_atom_site_fract_x
_atom_site_fract_y
_atom_site_fract_z
Cl1 Cl -0.00328(17) 0.06369(7) 1.4157(6)
S1 S 0.67967(14) 0.04946(5) 0.4887(4)
F1 F 0.9576(4) 0.26631(14) -0.2123(10)
F2 F 1.0620(4) 0.23783(18) 0.1169(10)
F3 F 1.0417(4) 0.20163(15) -0.2762(10)
N1 N 0.4917(4) 0.08764(16) 0.6878(12)
H1 H 0.4776 0.0597 0.7420
N2 N 0.6083(4) 0.13734(16) 0.4391(12)
H2 H 0.5531 0.1562 0.4695
O1 O 0.4217(4) 0.16080(14) 0.7015(12)
C1 C 0.2577(6) 0.1352(2) 1.1076(18)
H3 H 0.2858 0.1652 1.1253
C2 C 0.1604(7) 0.1224(2) 1.2562(17)
H4 H 0.1222 0.1438 1.3710
C3 C 0.1208(6) 0.0777(2) 1.2322(17)
C4 C 0.1740(6) 0.0457(2) 1.0687(16)
H5 H 0.1461 0.0156 1.0578
C5 C 0.2710(6) 0.0583(2) 0.9167(16)
H6 H 0.3081 0.0364 0.8032
C6 C 0.3134(5) 0.10327(19) 0.9317(15)
C7 C 0.4122(6) 0.1204(2) 0.7654(15)
C8 C 0.5921(5) 0.0940(2) 0.5323(15)
C9 C 0.7043(5) 0.1564(2) 0.2969(13)
C10 C 0.7704(6) 0.1341(2) 0.0974(16)
H7 H 0.7537 0.1038 0.0441
C11 C 0.8620(6) 0.1565(2) -0.0249(15)
H8 H 0.9086 0.1408 -0.1545
C12 C 0.8850(5) 0.2015(2) 0.0423(14)
C13 C 0.8164(6) 0.2256(2) 0.2312(15)
H9 H 0.8311 0.2565 0.2731
C14 C 0.7256(6) 0.2032(2) 0.3574(16)
H10 H 0.6782 0.2192 0.4835
C15 C 0.9856(6) 0.2273(2) -0.0801(14)
O2 O 0.5000 0.0000 0.0382(16)
loop_
_geom_bond_atom_site_label_1
_geom_bond_atom_site_label_2
_geom_bond_site_symmetry_1
_geom_bond_site_symmetry_2
Cl1 C3 1_555 1_555
S1 C8 1_555 1_555
F1 C15 1_555 1_555
F2 C15 1_555 1_555
F3 C15 1_555 1_555
N1 H1 1_555 1_555
N2 H2 1_555 1_555
O1 C7 1_555 1_555
C1 H3 1_555 1_555
C2 C1 1_555 1_555
H4 C2 1_555 1_555
C3 C2 1_555 1_555
C4 C3 1_555 1_555
H5 C4 1_555 1_555
C5 C4 1_555 1_555
H6 C5 1_555 1_555
C6 C1 1_555 1_555
C7 N1 1_555 1_555
C8 N1 1_555 1_555
C9 N2 1_555 1_555
C10 C9 1_555 1_555
H7 C10 1_555 1_555
C11 C10 1_555 1_555
H8 C11 1_555 1_555
C12 C11 1_555 1_555
C13 C12 1_555 1_555
H9 C13 1_555 1_555
C14 C9 1_555 1_555
H10 C14 1_555 1_555
C15 C12 1_555 1_555
N2 C8 1_555 1_555
C5 C6 1_555 1_555
C6 C7 1_555 1_555
C13 C14 1_555 1_555

#END
