
#######################################################################
#
#                 Cambridge Crystallographic Data Centre
#                                CCDC 
#
#######################################################################
#
# If this CIF has been generated from an entry in the Cambridge 
# Structural Database, then it will include bibliographic, chemical, 
# crystal, experimental, refinement or atomic coordinate data resulting 
# from the CCDC's data processing and validation procedures.
#
#######################################################################

data_KALJUF
_chemical_formula_moiety         'C7 H10 N1 1+,C8 H5 O4 1-'
_chemical_name_systematic        
'phenylmethanaminium 1,3-benzodioxole-5-carboxylate'
_symmetry_cell_setting           monoclinic
_symmetry_space_group_name_H-M   'P 21/c'
_symmetry_Int_Tables_number      14
_space_group_name_Hall           '-P 2ybc'
loop_
_symmetry_equiv_pos_site_id
_symmetry_equiv_pos_as_xyz
1 x,y,z
2 -x,1/2+y,1/2-z
3 -x,-y,-z
4 x,1/2-y,1/2+z
_cell_length_a                   13.773(12)
_cell_length_b                   6.469(6)
_cell_length_c                   15.644(14)
_cell_angle_alpha                90
_cell_angle_beta                 103.735(13)
_cell_angle_gamma                90
_cell_volume                     1353.98
_exptl_crystal_colour            colorless
_exptl_crystal_description       block
_cell_formula_units_Z            4
loop_
_atom_site_label
_atom_site_type_symbol
_atom_site_fract_x
_atom_site_fract_y
_atom_site_fract_z
N1 N 0.4418(2) 0.1952(5) 0.6982(2)
H1 H 0.4146 0.3208 0.6921
H2 H 0.4918 0.1919 0.7462
H3 H 0.3957 0.1026 0.7032
C1 C 0.4805(3) 0.1463(7) 0.6204(3)
H4 H 0.5108 0.0102 0.6280
H5 H 0.5323 0.2451 0.6168
C2 C 0.4021(3) 0.1501(7) 0.5353(3)
C3 C 0.3502(3) -0.0272(7) 0.5021(3)
H6 H 0.3622 -0.1501 0.5337
C4 C 0.2816(3) -0.0224(9) 0.4231(3)
H7 H 0.2478 -0.1428 0.4011
C5 C 0.2618(3) 0.1568(10) 0.3758(3)
H8 H 0.2144 0.1582 0.3224
C6 C 0.3118(4) 0.3339(8) 0.4072(3)
H9 H 0.2995 0.4560 0.3751
C7 C 0.3808(3) 0.3295(7) 0.4875(3)
H10 H 0.4136 0.4508 0.5095
O1 O 0.61908(18) 1.1072(4) 0.82138(18)
O2 O 0.67771(19) 1.3880(4) 0.7694(2)
O3 O 0.94873(19) 0.7015(4) 0.9461(2)
O4 O 1.07265(19) 0.8671(5) 0.8957(2)
C8 C 0.6901(3) 1.2127(6) 0.8050(3)
C9 C 0.7934(3) 1.1271(6) 0.8295(2)
C10 C 0.8140(3) 0.9444(6) 0.8794(3)
H11 H 0.7643 0.8756 0.8994
C11 C 0.9093(3) 0.8726(6) 0.8972(3)
C12 C 0.9839(3) 0.9715(7) 0.8675(3)
C13 C 0.9667(3) 1.1485(7) 0.8195(3)
H12 H 1.0174 1.2159 0.8005
C14 C 0.8697(3) 1.2231(6) 0.8004(3)
H13 H 0.8552 1.3424 0.7667
C15 C 1.0501(3) 0.6922(7) 0.9411(3)
H14 H 1.0933 0.6883 0.9999
H15 H 1.0614 0.5674 0.9104
loop_
_geom_bond_atom_site_label_1
_geom_bond_atom_site_label_2
_geom_bond_site_symmetry_1
_geom_bond_site_symmetry_2
N1 H1 1_555 1_555
H2 N1 1_555 1_555
H3 N1 1_555 1_555
C1 N1 1_555 1_555
H4 C1 1_555 1_555
H5 C1 1_555 1_555
C2 C1 1_555 1_555
C3 C2 1_555 1_555
H6 C3 1_555 1_555
C4 C3 1_555 1_555
H7 C4 1_555 1_555
C5 C4 1_555 1_555
H8 C5 1_555 1_555
C6 C5 1_555 1_555
H9 C6 1_555 1_555
C7 C2 1_555 1_555
H10 C7 1_555 1_555
O1 C8 1_555 1_555
O2 C8 1_555 1_555
O3 C11 1_555 1_555
O4 C12 1_555 1_555
C8 C9 1_555 1_555
C9 C10 1_555 1_555
C10 H11 1_555 1_555
C11 C10 1_555 1_555
C12 C11 1_555 1_555
C13 C12 1_555 1_555
H12 C13 1_555 1_555
C14 C9 1_555 1_555
H13 C14 1_555 1_555
C15 O3 1_555 1_555
H14 C15 1_555 1_555
H15 C15 1_555 1_555
C6 C7 1_555 1_555
O4 C15 1_555 1_555
C13 C14 1_555 1_555

#END
