
#######################################################################
#
#                 Cambridge Crystallographic Data Centre
#                                CCDC 
#
#######################################################################
#
# If this CIF has been generated from an entry in the Cambridge 
# Structural Database, then it will include bibliographic, chemical, 
# crystal, experimental, refinement or atomic coordinate data resulting 
# from the CCDC's data processing and validation procedures.
#
#######################################################################

data_KAMREY
_chemical_name_common            'bis(theophylline) baicalein methanol solvate'
_chemical_formula_moiety         'C15 H10 O5,2(C7 H8 N4 O2),2.5(C1 H4 O1)'
_chemical_name_systematic        
'5,6,7-trihydroxy-2-phenyl-4H-1-benzopyran-4-one bis(1,3-dimethyl-3,7-dihydro-1H-purine-2,6-dione) methanol solvate'
_symmetry_cell_setting           monoclinic
_symmetry_space_group_name_H-M   'P 21/c'
_symmetry_Int_Tables_number      14
_space_group_name_Hall           '-P 2ybc'
loop_
_symmetry_equiv_pos_site_id
_symmetry_equiv_pos_as_xyz
1 x,y,z
2 -x,1/2+y,1/2-z
3 -x,-y,-z
4 x,1/2-y,1/2+z
_cell_length_a                   7.1154(6)
_cell_length_b                   30.411(3)
_cell_length_c                   15.5733(12)
_cell_angle_alpha                90
_cell_angle_beta                 102.708(5)
_cell_angle_gamma                90
_cell_volume                     3287.3
_exptl_crystal_colour            yellow
_exptl_crystal_description       prism
_cell_formula_units_Z            4
loop_
_atom_site_label
_atom_site_type_symbol
_atom_site_fract_x
_atom_site_fract_y
_atom_site_fract_z
O1 O 0.5598(4) 0.21800(8) 0.20216(16)
O2 O 0.6401(5) 0.34759(9) 0.04979(17)
H1 H 0.6810 0.3727 0.0591
O3 O 0.8030(5) 0.27255(9) 0.43928(17)
O4 O 0.8538(5) 0.34523(9) 0.35936(18)
H2 H 0.8575 0.3284 0.4009
O5 O 0.8078(5) 0.38919(9) 0.19925(19)
H3 H 0.8671 0.4044 0.2498
C1 C 0.7485(6) 0.34702(12) 0.2059(3)
C2 C 0.7693(6) 0.32481(12) 0.2836(2)
C3 C 0.7057(5) 0.28079(12) 0.2852(2)
C4 C 0.6252(5) 0.26095(11) 0.2053(2)
C5 C 0.5711(5) 0.19506(12) 0.2775(2)
C6 C 0.4941(5) 0.15029(12) 0.2609(2)
C7 C 0.4850(6) 0.12217(13) 0.3298(3)
H4 H 0.5271 0.1317 0.3875
C8 C 0.4146(7) 0.08036(15) 0.3135(3)
H5 H 0.4098 0.0618 0.3604
C9 C 0.3512(7) 0.06568(15) 0.2291(3)
H6 H 0.3038 0.0372 0.2187
C10 C 0.6635(6) 0.32571(13) 0.1269(2)
C11 C 0.6032(6) 0.28251(13) 0.1259(2)
H7 H 0.5495 0.2684 0.0733
C12 C 0.6458(6) 0.21299(12) 0.3571(2)
H8 H 0.6464 0.1966 0.4075
C13 C 0.7238(5) 0.25651(12) 0.3660(2)
C14 C 0.4283(6) 0.13522(14) 0.1752(3)
H9 H 0.4319 0.1537 0.1281
C15 C 0.3576(7) 0.09302(16) 0.1598(3)
H10 H 0.3143 0.0831 0.1023
O6 O 0.9577(5) 0.06607(9) 0.40232(19)
O7 O 0.8166(5) 0.07531(11) 0.1023(2)
N1 N 0.8835(5) 0.07119(10) 0.2520(2)
N2 N 0.9263(5) 0.13701(10) 0.17751(19)
C16 C 0.8270(7) 0.02548(14) 0.2459(3)
H11 H 0.7650 0.0187 0.1862
H12 H 0.7394 0.0201 0.2836
H13 H 0.9391 0.0073 0.2639
C17 C 0.8714(6) 0.09398(14) 0.1726(3)
C18 C 0.9961(5) 0.15597(12) 0.2583(2)
N3 N 1.0649(5) 0.19704(10) 0.2736(2)
C19 C 0.9502(6) 0.08915(13) 0.3366(2)
C20 C 1.0040(5) 0.13326(12) 0.3346(2)
C21 C 0.9153(7) 0.16240(16) 0.0969(3)
H14 H 0.8981 0.1428 0.0475
H15 H 1.0322 0.1788 0.1011
H16 H 0.8081 0.1823 0.0891
C22 C 1.1167(6) 0.19956(13) 0.3611(3)
H17 H 1.1698 0.2245 0.3915
N4 N 1.0837(5) 0.16222(10) 0.4000(2)
H18 H 1.1079 0.1572 0.4557
N5 N 0.1302(4) 0.27554(10) 0.18455(19)
H19 H 0.1126 0.2505 0.2072
O8 O 0.2857(5) 0.29497(10) 0.38017(18)
O9 O 0.4104(5) 0.43331(10) 0.2923(2)
N6 N 0.3467(5) 0.36409(11) 0.3345(2)
N7 N 0.2792(5) 0.38486(10) 0.1852(2)
N8 N 0.1325(5) 0.32723(10) 0.0836(2)
C23 C 0.2096(5) 0.34346(12) 0.1653(2)
C24 C 0.2100(5) 0.31256(12) 0.2291(2)
C25 C 0.2794(6) 0.32060(13) 0.3193(2)
C26 C 0.4231(9) 0.37716(18) 0.4269(3)
H20 H 0.5493 0.3896 0.4327
H21 H 0.4307 0.3518 0.4642
H22 H 0.3391 0.3986 0.4440
C27 C 0.0856(6) 0.28622(13) 0.0994(2)
H23 H 0.0273 0.2668 0.0554
C28 C 0.3490(6) 0.39636(13) 0.2708(3)
C29 C 0.2748(7) 0.41749(14) 0.1150(3)
H24 H 0.3423 0.4435 0.1394
H25 H 0.1435 0.4248 0.0887
H26 H 0.3356 0.4054 0.0710
O10 O 0.7127(6) 0.06694(11) 0.5185(2)
H27 H 0.7867 0.0690 0.4851
C30 C 0.7493(10) 0.02745(18) 0.5664(4)
H28 H 0.8560 0.0316 0.6156
H29 H 0.7796 0.0047 0.5290
H30 H 0.6371 0.0192 0.5875
O11 O 0.8081(6) 0.45106(12) 0.3202(2)
C31 C 0.9374(14) 0.4532(3) 0.4027(5)
H31 H 0.9019 0.4771 0.4361
H32 H 1.0656 0.4578 0.3943
H33 H 0.9328 0.4261 0.4338
H34 H 0.704(11) 0.445(5) 0.329(11)
O12? O 0.5000 0.0000 1.0000
C32? C 0.669(2) 0.0109(8) 0.9813(15)
loop_
_geom_bond_atom_site_label_1
_geom_bond_atom_site_label_2
_geom_bond_site_symmetry_1
_geom_bond_site_symmetry_2
O1 C4 1_555 1_555
O2 H1 1_555 1_555
O3 C13 1_555 1_555
O4 H2 1_555 1_555
O5 H3 1_555 1_555
C1 O5 1_555 1_555
C2 O4 1_555 1_555
C3 C2 1_555 1_555
C4 C3 1_555 1_555
C5 O1 1_555 1_555
C6 C5 1_555 1_555
C7 C6 1_555 1_555
H4 C7 1_555 1_555
C8 C7 1_555 1_555
H5 C8 1_555 1_555
C9 C8 1_555 1_555
H6 C9 1_555 1_555
C10 O2 1_555 1_555
C11 C4 1_555 1_555
H7 C11 1_555 1_555
C12 C5 1_555 1_555
H8 C12 1_555 1_555
C13 C3 1_555 1_555
C14 C6 1_555 1_555
H9 C14 1_555 1_555
C15 C9 1_555 1_555
H10 C15 1_555 1_555
O6 C19 1_555 1_555
O7 C17 1_555 1_555
N1 C16 1_555 1_555
N2 C17 1_555 1_555
C16 H11 1_555 1_555
H12 C16 1_555 1_555
H13 C16 1_555 1_555
C17 N1 1_555 1_555
C18 N2 1_555 1_555
N3 C18 1_555 1_555
C19 N1 1_555 1_555
C20 C18 1_555 1_555
C21 N2 1_555 1_555
H14 C21 1_555 1_555
H15 C21 1_555 1_555
H16 C21 1_555 1_555
C22 N3 1_555 1_555
H17 C22 1_555 1_555
N4 C20 1_555 1_555
H18 N4 1_555 1_555
N5 H19 1_555 1_555
O8 C25 1_555 1_555
O9 C28 1_555 1_555
N6 C25 1_555 1_555
N7 C23 1_555 1_555
N8 C23 1_555 1_555
C23 C24 1_555 1_555
C24 N5 1_555 1_555
C25 C24 1_555 1_555
C26 N6 1_555 1_555
H20 C26 1_555 1_555
H21 C26 1_555 1_555
H22 C26 1_555 1_555
C27 N5 1_555 1_555
H23 C27 1_555 1_555
C28 N6 1_555 1_555
C29 N7 1_555 1_555
H24 C29 1_555 1_555
H25 C29 1_555 1_555
H26 C29 1_555 1_555
O10 H27 1_555 1_555
C30 O10 1_555 1_555
H28 C30 1_555 1_555
H29 C30 1_555 1_555
H30 C30 1_555 1_555
O11 C31 1_555 1_555
C31 H31 1_555 1_555
H32 C31 1_555 1_555
H33 C31 1_555 1_555
H34 O11 1_555 1_555
C1 C2 1_555 1_555
C1 C10 1_555 1_555
C10 C11 1_555 1_555
C12 C13 1_555 1_555
C14 C15 1_555 1_555
C19 C20 1_555 1_555
C22 N4 1_555 1_555
N7 C28 1_555 1_555
N8 C27 1_555 1_555

#END
