
#######################################################################
#
#                 Cambridge Crystallographic Data Centre
#                                CCDC 
#
#######################################################################
#
# If this CIF has been generated from an entry in the Cambridge 
# Structural Database, then it will include bibliographic, chemical, 
# crystal, experimental, refinement or atomic coordinate data resulting 
# from the CCDC's data processing and validation procedures.
#
#######################################################################

data_KAMVAX
_chemical_formula_moiety         'C75 H82 B4 Br4,2(C6 H14)'
_chemical_name_systematic        
'(9,9-Dimethyl-9H-fluorene-2,7-diyl)bis((7-(dibromoboryl)-9,9-dimethyl-9H-fluoren-2-yl)(2,4,6-tri-isopropylphenyl)borane) n-hexane solvate'
_symmetry_cell_setting           triclinic
_symmetry_space_group_name_H-M   'P -1'
_symmetry_Int_Tables_number      2
_space_group_name_Hall           '-P 1'
loop_
_symmetry_equiv_pos_site_id
_symmetry_equiv_pos_as_xyz
1 x,y,z
2 -x,-y,-z
_cell_length_a                   12.6363(3)
_cell_length_b                   16.8630(4)
_cell_length_c                   21.4921(5)
_cell_angle_alpha                85.226(1)
_cell_angle_beta                 89.140(1)
_cell_angle_gamma                68.436(1)
_cell_volume                     4243.75
_exptl_crystal_colour            yellow
_exptl_crystal_description       block
_cell_formula_units_Z            2
loop_
_atom_site_label
_atom_site_type_symbol
_atom_site_fract_x
_atom_site_fract_y
_atom_site_fract_z
Br1 Br -0.36591(3) 0.86956(2) 0.367374(15)
C1 C 0.4426(2) 0.76964(18) 1.45225(13)
H1 H 0.4101 0.8301 1.4445
C2 C -0.2345(3) 0.84285(19) 0.50236(14)
H2 H -0.2784 0.8956 0.4801
C3 C 0.0627(2) 0.78533(19) 0.89308(13)
H3 H 0.0043 0.7700 0.8764
B1 B -0.2750(3) 0.7649(2) 0.41388(17)
Br2 Br -0.25328(3) 0.66136(2) 0.375927(16)
C4 C 0.0948(2) 0.84839(17) 0.86056(13)
B2 B 0.0373(3) 0.8983(2) 0.79743(15)
C5 C 0.5085(2) 0.73263(18) 1.50746(13)
C6 C -0.2215(3) 0.7650(2) 0.47751(14)
Br3 Br 0.45816(3) 0.910358(18) 1.547753(14)
C7 C 0.1816(2) 0.86942(18) 0.88693(13)
H4 H 0.2022 0.9136 0.8663
C8 C 0.5571(2) 0.64265(18) 1.51621(13)
H5 H 0.6036 0.6168 1.5522
C9 C -0.1573(3) 0.6880(2) 0.51184(15)
H6 H -0.1488 0.6353 0.4957
B3 B 0.3281(3) 0.5279(2) 1.19523(16)
Br4 Br 0.60184(3) 0.738805(19) 1.635081(13)
C10 C -0.1194(2) 0.76493(18) 0.59203(13)
C11 C -0.0747(2) 0.78384(18) 0.64882(13)
C12 C -0.1061(2) 0.68694(18) 0.56851(14)
H7 H -0.0628 0.6343 0.5910
C13 C 0.4402(2) 0.59122(18) 1.36952(13)
C14 C 0.4729(2) 0.62905(17) 1.42084(13)
C15 C 0.2461(2) 0.71162(17) 1.03147(13)
C16 C 0.2377(2) 0.82754(18) 0.94212(13)
H8 H 0.2977 0.8413 0.9584
C17 C 0.5395(2) 0.59083(18) 1.47426(13)
H9 H 0.5721 0.5303 1.4816
C18 C 0.2046(2) 0.76532(17) 0.97287(12)
B4 B 0.5228(3) 0.7874(2) 1.55735(15)
C19 C -0.0034(2) 0.73006(18) 0.69680(13)
H10 H 0.0222 0.6696 0.6964
C20 C 0.4649(2) 0.50554(17) 1.35870(13)
H11 H 0.5086 0.4607 1.3882
C21 C 0.3337(2) 0.70667(17) 1.07188(13)
H12 H 0.3779 0.7412 1.0634
C22 C 0.0286(2) 0.76661(18) 0.74437(13)
H13 H 0.0769 0.7301 0.7768
C23 C 0.4245(2) 0.48752(18) 1.30423(13)
H14 H 0.4401 0.4295 1.2971
C24 C 0.3549(2) 0.65005(18) 1.12478(13)
H15 H 0.4120 0.6482 1.1537
C25 C -0.0071(2) 0.85595(17) 0.74710(13)
C26 C 0.2950(2) 0.59560(17) 1.13696(13)
C27 C 0.3609(2) 0.55230(18) 1.25899(13)
C28 C -0.0786(2) 0.90846(17) 0.69803(13)
H16 H -0.1043 0.9689 0.6983
C29 C -0.1116(2) 0.87314(18) 0.64986(13)
C30 C 0.3352(2) 0.63842(17) 1.27189(13)
H17 H 0.2905 0.6836 1.2429
C31 C 0.3747(2) 0.65702(17) 1.32616(13)
C32 C 0.2094(3) 0.60004(18) 1.09398(13)
H18 H 0.1695 0.5621 1.1002
C33 C 0.1837(2) 0.65934(18) 1.04286(13)
C34 C -0.1839(2) 0.84266(18) 0.55861(13)
C35 C 0.3618(3) 0.74422(18) 1.34729(14)
C36 C 0.4256(2) 0.71822(17) 1.40981(13)
C37 C 0.1154(2) 0.74538(18) 0.94918(13)
C38 C 0.0912(3) 0.6784(2) 0.99304(14)
C39 C -0.1856(3) 0.91829(18) 0.59299(13)
C40 C 0.2363(3) 0.8019(2) 1.35436(17)
H19 H 0.1986 0.7716 1.3820
H20 H 0.1983 0.8163 1.3133
H21 H 0.2321 0.8545 1.3723
C41 C -0.1343(3) 0.9748(2) 0.55311(14)
H22 H -0.0580 0.9396 0.5400
H23 H -0.1292 1.0196 0.5778
H24 H -0.1829 1.0012 0.5162
C42 C 0.1010(4) 0.5990(3) 0.95973(16)
H25 H 0.0432 0.6152 0.9263
H26 H 0.0891 0.5562 0.9898
H27 H 0.1769 0.5750 0.9419
C43 C 0.4204(3) 0.7885(2) 1.30120(14)
H28 H 0.4148 0.8433 1.3161
H29 H 0.3832 0.7987 1.2601
H30 H 0.5007 0.7519 1.2980
C44 C -0.0269(3) 0.7176(3) 1.02146(17)
H31 H -0.0313 0.7679 1.0427
H32 H -0.0396 0.6752 1.0516
H33 H -0.0852 0.7346 0.9883
C45 C -0.3068(3) 0.97219(19) 0.61283(14)
H34 H -0.3544 0.9986 0.5756
H35 H -0.3037 1.0170 0.6382
H36 H -0.3392 0.9353 0.6373
C46 C 0.0250(3) 0.99523(18) 0.78554(13)
C47 C 0.3345(3) 0.43337(18) 1.18816(13)
C48 C -0.0530(3) 1.05599(19) 0.82003(14)
C49 C 0.2412(3) 0.4127(2) 1.20401(14)
C50 C -0.0614(3) 1.1413(2) 0.81303(15)
H37 H -0.1159 1.1824 0.8364
C51 C 0.2542(3) 0.32357(19) 1.19722(15)
H38 H 0.1920 0.3064 1.2074
C52 C 0.0086(3) 1.1667(2) 0.77244(17)
C53 C 0.3542(3) 0.26326(19) 1.17647(15)
C54 C 0.0864(3) 1.1051(2) 0.73777(16)
H39 H 0.1340 1.1220 0.7093
C55 C 0.4441(3) 0.28910(19) 1.16171(14)
H40 H 0.5131 0.2488 1.1477
C56 C 0.0962(3) 1.01829(19) 0.74385(14)
C57 C 0.4357(3) 0.37355(19) 1.16696(13)
C58 C -0.1316(3) 1.0306(2) 0.86551(14)
H41 H -0.1165 0.9687 0.8616
C59 C 0.1372(3) 0.47027(19) 1.22554(14)
H42 H 0.1404 0.5288 1.2199
C60 C -0.1043(4) 1.0390(3) 0.93286(17)
H43 H -0.0253 1.0019 0.9431
H44 H -0.1555 1.0218 0.9608
H45 H -0.1146 1.0986 0.9380
C61 C 0.1217(3) 0.4511(2) 1.29611(16)
H46 H 0.1231 0.3926 1.3038
H47 H 0.0485 0.4916 1.3092
H48 H 0.1835 0.4569 1.3199
C62 C 0.0286(3) 0.4739(2) 1.18971(19)
H49 H 0.0347 0.4898 1.1453
H50 H -0.0389 0.5166 1.2066
H51 H 0.0220 0.4177 1.1947
C63 C -0.2578(3) 1.0801(2) 0.84940(18)
H52 H -0.2740 1.1417 0.8483
H53 H -0.3046 1.0643 0.8812
H54 H -0.2755 1.0660 0.8085
C64 C 0.0014(3) 1.2591(2) 0.7667(2)
H55 H -0.0643 1.2927 0.7921
C65 C 0.3652(3) 0.1708(2) 1.17035(16)
H56 H 0.4390 0.1411 1.1496
C66 C -0.0203(4) 1.2988(2) 0.6994(2)
H57 H 0.0414 1.2655 0.6731
H58 H -0.0233 1.3578 0.6977
H59 H -0.0929 1.2985 0.6842
C67 C 0.2698(4) 0.1654(2) 1.1302(2)
H60 H 0.2866 0.1057 1.1221
H61 H 0.2638 0.2000 1.0906
H62 H 0.1977 0.1871 1.1523
C68 C 0.1088(4) 1.2655(3) 0.7935(3)
H63 H 0.1188 1.2429 0.8374
H64 H 0.1018 1.3256 0.7904
H65 H 0.1749 1.2322 0.7699
C69 C 0.3680(4) 0.1235(2) 1.2339(2)
H66 H 0.2952 0.1499 1.2545
H67 H 0.4296 0.1267 1.2595
H68 H 0.3811 0.0635 1.2288
C70 C 0.5346(3) 0.4011(2) 1.14835(15)
H69 H 0.5182 0.4582 1.1647
C71 C 0.1809(3) 0.9549(2) 0.70455(15)
H70 H 0.1691 0.8995 0.7123
C72 C 0.3036(3) 0.9383(2) 0.72399(17)
H71 H 0.3181 0.9916 0.7175
H72 H 0.3560 0.8953 0.6987
H73 H 0.3154 0.9173 0.7682
C73 C 0.6483(3) 0.3412(2) 1.17677(18)
H74 H 0.6420 0.3348 1.2223
H75 H 0.7069 0.3651 1.1662
H76 H 0.6693 0.2852 1.1602
C74 C 0.5402(3) 0.4138(2) 1.07732(16)
H77 H 0.5512 0.3599 1.0593
H78 H 0.6039 0.4318 1.0661
H79 H 0.4689 0.4579 1.0610
C75 C 0.1609(3) 0.9819(3) 0.63439(16)
H80 H 0.0821 0.9912 0.6231
H81 H 0.2129 0.9367 0.6106
H82 H 0.1749 1.0350 0.6246
C76 C 0.7166(4) 0.2762(4) 0.3697(3)
H83 H 0.6470 0.3272 0.3626
H84 H 0.6979 0.2248 0.3690
H85 H 0.7709 0.2764 0.3367
C77 C 0.7680(5) 0.2766(5) 0.4314(3)
H86 H 0.8411 0.2275 0.4370
H87 H 0.7166 0.2697 0.4649
C78 C 0.7885(4) 0.3585(3) 0.4374(3)
H88 H 0.7172 0.4077 0.4263
H89 H 0.8468 0.3616 0.4071
C79 C 0.8277(4) 0.3667(4) 0.5029(3)
H90 H 0.7693 0.3647 0.5335
H91 H 0.8991 0.3179 0.5144
C80 C 0.8471(4) 0.4486(3) 0.5056(2)
H92 H 0.9082 0.4503 0.4768
H93 H 0.7767 0.4980 0.4935
C81 C 0.8788(8) 0.4512(6) 0.5676(4)
H94 H 0.8208 0.4441 0.5959
H95 H 0.8856 0.5064 0.5725
H96 H 0.9521 0.4049 0.5777
C82 C 0.2769(5) 0.4982(3) 0.7313(3)
H97 H 0.1967 0.5300 0.7400
H98 H 0.2842 0.4845 0.6876
H99 H 0.3216 0.5333 0.7387
C83 C 0.3202(5) 0.4163(4) 0.7737(3)
H100 H 0.2795 0.3792 0.7624
H101 H 0.4018 0.3862 0.7652
C84 C 0.3083(4) 0.4254(4) 0.8412(3)
H102 H 0.2280 0.4608 0.8491
H103 H 0.3556 0.4573 0.8533
C85 C 0.3398(6) 0.3453(5) 0.8825(3)
H104 H 0.4183 0.3080 0.8728
H105 H 0.2888 0.3152 0.8726
C86 C 0.3340(8) 0.3564(6) 0.9511(4)
H106 H 0.2572 0.3902 0.9612
H107 H 0.3816 0.3870 0.9607
C87 C 0.3706(10) 0.2733(9) 0.9920(4)
H108 H 0.3809 0.2843 1.0351
H109 H 0.4426 0.2335 0.9770
H110 H 0.3122 0.2482 0.9904
C88? C 0.2700(15) 0.3738(10) 1.0086(9)
H111? H 0.3956 0.3021 0.9659
H112? H 0.3697 0.3997 0.9515
H113? H 0.3194 0.3422 1.0441
H114? H 0.2049 0.3556 1.0065
H115? H 0.2426 0.4352 1.0137
loop_
_geom_bond_atom_site_label_1
_geom_bond_atom_site_label_2
_geom_bond_site_symmetry_1
_geom_bond_site_symmetry_2
Br1 B1 1_555 1_555
C1 H1 1_555 1_555
C2 H2 1_555 1_555
C3 H3 1_555 1_555
B1 Br2 1_555 1_555
C4 C3 1_555 1_555
B2 C4 1_555 1_555
C5 C1 1_555 1_555
C6 C2 1_555 1_555
Br3 B4 1_555 1_555
C7 C4 1_555 1_555
H4 C7 1_555 1_555
C8 C5 1_555 1_555
H5 C8 1_555 1_555
C9 C6 1_555 1_555
H6 C9 1_555 1_555
B3 C26 1_555 1_555
Br4 B4 1_555 1_555
C10 C11 1_555 1_555
C11 C19 1_555 1_555
C12 C9 1_555 1_555
H7 C12 1_555 1_555
C13 C14 1_555 1_555
C14 C17 1_555 1_555
C15 C18 1_555 1_555
C16 C7 1_555 1_555
H8 C16 1_555 1_555
C17 C8 1_555 1_555
H9 C17 1_555 1_555
C18 C16 1_555 1_555
B4 C5 1_555 1_555
C19 H10 1_555 1_555
C20 C13 1_555 1_555
H11 C20 1_555 1_555
C21 C15 1_555 1_555
H12 C21 1_555 1_555
C22 C19 1_555 1_555
H13 C22 1_555 1_555
C23 C20 1_555 1_555
H14 C23 1_555 1_555
C24 C21 1_555 1_555
H15 C24 1_555 1_555
C25 B2 1_555 1_555
C26 C24 1_555 1_555
C27 B3 1_555 1_555
C28 C25 1_555 1_555
H16 C28 1_555 1_555
C29 C11 1_555 1_555
C30 C27 1_555 1_555
H17 C30 1_555 1_555
C31 C13 1_555 1_555
C32 C26 1_555 1_555
H18 C32 1_555 1_555
C33 C15 1_555 1_555
C34 C2 1_555 1_555
C35 C31 1_555 1_555
C36 C1 1_555 1_555
C37 C3 1_555 1_555
C38 C33 1_555 1_555
C39 C29 1_555 1_555
C40 C35 1_555 1_555
H19 C40 1_555 1_555
H20 C40 1_555 1_555
H21 C40 1_555 1_555
C41 C39 1_555 1_555
H22 C41 1_555 1_555
H23 C41 1_555 1_555
H24 C41 1_555 1_555
C42 C38 1_555 1_555
H25 C42 1_555 1_555
H26 C42 1_555 1_555
H27 C42 1_555 1_555
C43 C35 1_555 1_555
H28 C43 1_555 1_555
H29 C43 1_555 1_555
H30 C43 1_555 1_555
C44 C38 1_555 1_555
H31 C44 1_555 1_555
H32 C44 1_555 1_555
H33 C44 1_555 1_555
C45 C39 1_555 1_555
H34 C45 1_555 1_555
H35 C45 1_555 1_555
H36 C45 1_555 1_555
C46 B2 1_555 1_555
C47 B3 1_555 1_555
C48 C46 1_555 1_555
C49 C47 1_555 1_555
C50 C48 1_555 1_555
H37 C50 1_555 1_555
C51 C49 1_555 1_555
H38 C51 1_555 1_555
C52 C50 1_555 1_555
C53 C51 1_555 1_555
C54 C52 1_555 1_555
H39 C54 1_555 1_555
C55 C53 1_555 1_555
H40 C55 1_555 1_555
C56 C46 1_555 1_555
C57 C47 1_555 1_555
C58 C48 1_555 1_555
H41 C58 1_555 1_555
C59 C49 1_555 1_555
H42 C59 1_555 1_555
C60 C58 1_555 1_555
H43 C60 1_555 1_555
H44 C60 1_555 1_555
H45 C60 1_555 1_555
C61 C59 1_555 1_555
H46 C61 1_555 1_555
H47 C61 1_555 1_555
H48 C61 1_555 1_555
C62 C59 1_555 1_555
H49 C62 1_555 1_555
H50 C62 1_555 1_555
H51 C62 1_555 1_555
C63 C58 1_555 1_555
H52 C63 1_555 1_555
H53 C63 1_555 1_555
H54 C63 1_555 1_555
C64 C52 1_555 1_555
H55 C64 1_555 1_555
C65 C53 1_555 1_555
H56 C65 1_555 1_555
C66 C64 1_555 1_555
H57 C66 1_555 1_555
H58 C66 1_555 1_555
H59 C66 1_555 1_555
C67 C65 1_555 1_555
H60 C67 1_555 1_555
H61 C67 1_555 1_555
H62 C67 1_555 1_555
C68 C64 1_555 1_555
H63 C68 1_555 1_555
H64 C68 1_555 1_555
H65 C68 1_555 1_555
C69 C65 1_555 1_555
H66 C69 1_555 1_555
H67 C69 1_555 1_555
H68 C69 1_555 1_555
C70 C57 1_555 1_555
H69 C70 1_555 1_555
C71 C56 1_555 1_555
H70 C71 1_555 1_555
C72 C71 1_555 1_555
H71 C72 1_555 1_555
H72 C72 1_555 1_555
H73 C72 1_555 1_555
C73 C70 1_555 1_555
H74 C73 1_555 1_555
H75 C73 1_555 1_555
H76 C73 1_555 1_555
C74 C70 1_555 1_555
H77 C74 1_555 1_555
H78 C74 1_555 1_555
H79 C74 1_555 1_555
C75 C71 1_555 1_555
H80 C75 1_555 1_555
H81 C75 1_555 1_555
H82 C75 1_555 1_555
C76 H83 1_555 1_555
H84 C76 1_555 1_555
H85 C76 1_555 1_555
C77 C76 1_555 1_555
H86 C77 1_555 1_555
H87 C77 1_555 1_555
C78 C77 1_555 1_555
H88 C78 1_555 1_555
H89 C78 1_555 1_555
C79 C78 1_555 1_555
H90 C79 1_555 1_555
H91 C79 1_555 1_555
C80 C79 1_555 1_555
H92 C80 1_555 1_555
H93 C80 1_555 1_555
C81 C80 1_555 1_555
H94 C81 1_555 1_555
H95 C81 1_555 1_555
H96 C81 1_555 1_555
C82 H97 1_555 1_555
H98 C82 1_555 1_555
H99 C82 1_555 1_555
C83 C82 1_555 1_555
H100 C83 1_555 1_555
H101 C83 1_555 1_555
C84 C83 1_555 1_555
H102 C84 1_555 1_555
H103 C84 1_555 1_555
C85 C84 1_555 1_555
H104 C85 1_555 1_555
H105 C85 1_555 1_555
C86 C85 1_555 1_555
H106 C86 1_555 1_555
H107 C86 1_555 1_555
C87 C86 1_555 1_555
H108 C87 1_555 1_555
H109 C87 1_555 1_555
H110 C87 1_555 1_555
B1 C6 1_555 1_555
C10 C12 1_555 1_555
C10 C34 1_555 1_555
C14 C36 1_555 1_555
C18 C37 1_555 1_555
C22 C25 1_555 1_555
C23 C27 1_555 1_555
C28 C29 1_555 1_555
C30 C31 1_555 1_555
C32 C33 1_555 1_555
C34 C39 1_555 1_555
C35 C36 1_555 1_555
C37 C38 1_555 1_555
C54 C56 1_555 1_555
C55 C57 1_555 1_555

#END
