
#######################################################################
#
#                 Cambridge Crystallographic Data Centre
#                                CCDC 
#
#######################################################################
#
# If this CIF has been generated from an entry in the Cambridge 
# Structural Database, then it will include bibliographic, chemical, 
# crystal, experimental, refinement or atomic coordinate data resulting 
# from the CCDC's data processing and validation procedures.
#
#######################################################################

data_KANHEN01
_chemical_formula_moiety         'C16 H17 F3 O2'
_chemical_name_systematic        
2-Hydroxy-4-phenyl-2-(trifluoromethyl)bicyclo[3.3.1]nonan-9-one
_symmetry_cell_setting           monoclinic
_symmetry_space_group_name_H-M   'P 21/c'
_symmetry_Int_Tables_number      14
_space_group_name_Hall           '-P 2ybc'
loop_
_symmetry_equiv_pos_site_id
_symmetry_equiv_pos_as_xyz
1 x,y,z
2 -x,1/2+y,1/2-z
3 -x,-y,-z
4 x,1/2-y,1/2+z
_cell_length_a                   9.9689(13)
_cell_length_b                   11.2802(15)
_cell_length_c                   12.7589(17)
_cell_angle_alpha                90
_cell_angle_beta                 98.573(2)
_cell_angle_gamma                90
_cell_volume                     1418.72
_exptl_crystal_colour            colorless
_exptl_crystal_description       prismatic
_chemical_melting_point          184-186deg.C
_cell_formula_units_Z            4
loop_
_atom_site_label
_atom_site_type_symbol
_atom_site_fract_x
_atom_site_fract_y
_atom_site_fract_z
O1 O 0.94786(12) 0.02472(11) 0.20369(10)
O2 O 0.90739(12) 0.32561(12) 0.20364(10)
F1 F 0.71191(11) 0.48505(10) 0.23016(9)
F2 F 0.63326(11) 0.35704(11) 0.11311(8)
F3 F 0.57140(10) 0.35403(10) 0.26662(9)
C1 C 0.88696(16) 0.08567(15) 0.25926(13)
C2 C 0.91055(16) 0.08211(15) 0.37853(12)
H1 H 0.9907 0.0331 0.4014
C3 C 0.78482(18) 0.01771(18) 0.40941(15)
H2 H 0.7861 -0.0641 0.3861
H3 H 0.7916 0.0173 0.4860
C4 C 0.64926(18) 0.07312(18) 0.36264(15)
H4 H 0.5762 0.0199 0.3737
H5 H 0.6370 0.1468 0.3993
C5 C 0.64178(17) 0.09767(17) 0.24479(14)
H6 H 0.5622 0.1457 0.2215
H7 H 0.6306 0.0231 0.2067
C6 C 0.76825(16) 0.16197(15) 0.21559(13)
H8 H 0.7615 0.1625 0.1382
C7 C 0.79770(15) 0.28930(15) 0.25551(12)
C8 C 0.83386(16) 0.30025(15) 0.37606(12)
H9 H 0.7511 0.2940 0.4072
H10 H 0.8716 0.3785 0.3927
C9 C 0.93590(15) 0.20659(15) 0.42831(12)
H11 H 0.9180 0.1989 0.5015
C10 C 1.08213(16) 0.24774(15) 0.43658(12)
C11 C 1.16631(17) 0.22018(18) 0.36300(14)
H12 H 1.1328 0.1748 0.3040
C12 C 1.29911(19) 0.2588(2) 0.37565(17)
H13 H 1.3541 0.2384 0.3257
C13 C 1.3505(2) 0.3266(2) 0.46070(19)
H14 H 1.4401 0.3523 0.4692
C14 C 1.2684(2) 0.3563(2) 0.53332(18)
H15 H 1.3021 0.4031 0.5913
C15 C 1.1364(2) 0.3175(2) 0.52127(15)
H16 H 1.0821 0.3388 0.5715
C16 C 0.67913(18) 0.37069(18) 0.21667(14)
H17 H 0.946(2) 0.386(2) 0.2348(18)
loop_
_geom_bond_atom_site_label_1
_geom_bond_atom_site_label_2
_geom_bond_site_symmetry_1
_geom_bond_site_symmetry_2
O1 C1 1_555 1_555
O2 C7 1_555 1_555
F1 C16 1_555 1_555
F2 C16 1_555 1_555
F3 C16 1_555 1_555
C1 C2 1_555 1_555
C2 H1 1_555 1_555
C3 C2 1_555 1_555
H2 C3 1_555 1_555
H3 C3 1_555 1_555
C4 C3 1_555 1_555
H4 C4 1_555 1_555
H5 C4 1_555 1_555
C5 C4 1_555 1_555
H6 C5 1_555 1_555
H7 C5 1_555 1_555
C6 C1 1_555 1_555
H8 C6 1_555 1_555
C7 C6 1_555 1_555
C8 C7 1_555 1_555
H9 C8 1_555 1_555
H10 C8 1_555 1_555
C9 C2 1_555 1_555
H11 C9 1_555 1_555
C10 C9 1_555 1_555
C11 C10 1_555 1_555
H12 C11 1_555 1_555
C12 C11 1_555 1_555
H13 C12 1_555 1_555
C13 C12 1_555 1_555
H14 C13 1_555 1_555
C14 C13 1_555 1_555
H15 C14 1_555 1_555
C15 C10 1_555 1_555
H16 C15 1_555 1_555
C16 C7 1_555 1_555
H17 O2 1_555 1_555
C5 C6 1_555 1_555
C8 C9 1_555 1_555
C14 C15 1_555 1_555

#END
