
#######################################################################
#
#                 Cambridge Crystallographic Data Centre
#                                CCDC 
#
#######################################################################
#
# If this CIF has been generated from an entry in the Cambridge 
# Structural Database, then it will include bibliographic, chemical, 
# crystal, experimental, refinement or atomic coordinate data resulting 
# from the CCDC's data processing and validation procedures.
#
#######################################################################

data_KANJER
_chemical_formula_moiety         'C29 H21 Br1 O2'
_chemical_name_systematic        
(Z,Z)-1-(2-bromophenyl)-2-(hydroxy(phenyl)methylene)-3,4-diphenylbut-3-en-1-one
_symmetry_cell_setting           triclinic
_symmetry_space_group_name_H-M   'P -1'
_symmetry_Int_Tables_number      2
_space_group_name_Hall           '-P 1'
loop_
_symmetry_equiv_pos_site_id
_symmetry_equiv_pos_as_xyz
1 x,y,z
2 -x,-y,-z
_cell_length_a                   8.1053(11)
_cell_length_b                   10.2013(13)
_cell_length_c                   14.6738(19)
_cell_angle_alpha                74.381(3)
_cell_angle_beta                 81.572(3)
_cell_angle_gamma                79.622(3)
_cell_volume                     1143.2
_exptl_crystal_colour            colorless
_exptl_crystal_description       prismatic
_chemical_melting_point          '164-165 deg.C'
_cell_formula_units_Z            2
loop_
_atom_site_label
_atom_site_type_symbol
_atom_site_fract_x
_atom_site_fract_y
_atom_site_fract_z
Br1 Br 1.53427(6) 0.75767(6) 0.59835(3)
O1 O 1.1012(4) 1.1863(2) 0.60972(16)
H1 H 1.1425 1.1456 0.5687
O2 O 1.2086(4) 0.9980(2) 0.53465(16)
C1 C 1.0323(5) 0.7093(4) 0.6074(2)
H2 H 0.9262 0.7608 0.6136
C2 C 1.0480(7) 0.5785(4) 0.5982(3)
H3 H 0.9519 0.5416 0.5966
C3 C 1.2031(8) 0.5005(4) 0.5914(3)
H4 H 1.2114 0.4110 0.5855
C4 C 1.3450(6) 0.5526(4) 0.5930(3)
H5 H 1.4498 0.4981 0.5901
C5 C 1.3334(5) 0.6868(4) 0.5990(2)
C6 C 1.1799(5) 0.7668(3) 0.6074(2)
C7 C 1.1571(4) 0.9147(3) 0.6110(2)
C8 C 1.0787(4) 0.9575(3) 0.6919(2)
C9 C 1.0576(4) 1.0986(3) 0.6870(2)
C10 C 0.9843(4) 1.1641(3) 0.7658(2)
C11 C 0.8718(5) 1.2848(3) 0.7452(3)
H6 H 0.8410 1.3209 0.6838
C12 C 0.8048(6) 1.3522(4) 0.8156(3)
H7 H 0.7272 1.4321 0.8018
C13 C 0.8532(6) 1.3008(4) 0.9054(3)
H8 H 0.8091 1.3465 0.9526
C14 C 0.9666(5) 1.1822(4) 0.9262(3)
H9 H 0.9997 1.1481 0.9872
C15 C 1.0317(4) 1.1132(3) 0.8567(2)
H10 H 1.1076 1.0324 0.8712
C16 C 1.0189(4) 0.8537(3) 0.7780(2)
C17 C 0.8609(4) 0.8641(3) 0.8203(2)
H11 H 0.8405 0.7947 0.8747
C18 C 0.7150(4) 0.9693(3) 0.7933(2)
C19 C 0.6750(4) 1.0229(4) 0.7005(2)
H12 H 0.7409 0.9903 0.6515
C20 C 0.5380(5) 1.1244(4) 0.6802(3)
H13 H 0.5121 1.1598 0.6178
C21 C 0.4398(5) 1.1732(4) 0.7522(3)
H14 H 0.3488 1.2425 0.7381
C22 C 0.4750(5) 1.1208(4) 0.8430(3)
H15 H 0.4080 1.1539 0.8915
C23 C 0.6097(5) 1.0183(4) 0.8642(2)
H16 H 0.6307 0.9812 0.9274
C24 C 1.1460(4) 0.7360(3) 0.8204(2)
C25 C 1.1053(5) 0.6043(3) 0.8536(2)
H17 H 0.9972 0.5888 0.8499
C26 C 1.2228(6) 0.4961(4) 0.8922(3)
H18 H 1.1939 0.4079 0.9136
C27 C 1.3821(6) 0.5170(4) 0.8993(3)
H19 H 1.4608 0.4436 0.9260
C28 C 1.4249(5) 0.6471(4) 0.8667(3)
H20 H 1.5328 0.6620 0.8715
C29 C 1.3078(4) 0.7555(3) 0.8269(2)
H21 H 1.3382 0.8430 0.8041
loop_
_geom_bond_atom_site_label_1
_geom_bond_atom_site_label_2
_geom_bond_site_symmetry_1
_geom_bond_site_symmetry_2
Br1 C5 1_555 1_555
O1 H1 1_555 1_555
O2 C7 1_555 1_555
C1 H2 1_555 1_555
C2 C1 1_555 1_555
H3 C2 1_555 1_555
C3 C2 1_555 1_555
H4 C3 1_555 1_555
C4 C3 1_555 1_555
H5 C4 1_555 1_555
C5 C4 1_555 1_555
C6 C1 1_555 1_555
C7 C6 1_555 1_555
C8 C7 1_555 1_555
C9 O1 1_555 1_555
C10 C9 1_555 1_555
C11 C10 1_555 1_555
H6 C11 1_555 1_555
C12 C11 1_555 1_555
H7 C12 1_555 1_555
C13 C12 1_555 1_555
H8 C13 1_555 1_555
C14 C13 1_555 1_555
H9 C14 1_555 1_555
C15 C10 1_555 1_555
H10 C15 1_555 1_555
C16 C8 1_555 1_555
C17 C16 1_555 1_555
H11 C17 1_555 1_555
C18 C17 1_555 1_555
C19 C18 1_555 1_555
H12 C19 1_555 1_555
C20 C19 1_555 1_555
H13 C20 1_555 1_555
C21 C20 1_555 1_555
H14 C21 1_555 1_555
C22 C21 1_555 1_555
H15 C22 1_555 1_555
C23 C18 1_555 1_555
H16 C23 1_555 1_555
C24 C16 1_555 1_555
C25 C24 1_555 1_555
H17 C25 1_555 1_555
C26 C25 1_555 1_555
H18 C26 1_555 1_555
C27 C26 1_555 1_555
H19 C27 1_555 1_555
C28 C27 1_555 1_555
H20 C28 1_555 1_555
C29 C24 1_555 1_555
H21 C29 1_555 1_555
C5 C6 1_555 1_555
C8 C9 1_555 1_555
C14 C15 1_555 1_555
C22 C23 1_555 1_555
C28 C29 1_555 1_555

#END
