
#######################################################################
#
#                 Cambridge Crystallographic Data Centre
#                                CCDC 
#
#######################################################################
#
# If this CIF has been generated from an entry in the Cambridge 
# Structural Database, then it will include bibliographic, chemical, 
# crystal, experimental, refinement or atomic coordinate data resulting 
# from the CCDC's data processing and validation procedures.
#
#######################################################################

data_KANKUI
_chemical_name_common            FDM-15
_chemical_formula_moiety         'C23 H14 N6,3(C5 H11 N1 O1)'
_chemical_name_systematic        
'5,7,15,17,24,26-hexaazaoctacyclo[9.9.9.0^2,10^.0^4,8^.0^12,20^.0^14,18^.0^21,29^.0^23,27^]nonacosa-2(10),3,5,8,12(20),13,16,18,21(29),22,24,27-dodecaene N,N-diethylformamide unknown solvate'
_symmetry_cell_setting           trigonal
_symmetry_space_group_name_H-M   'P 3 1 c'
_symmetry_Int_Tables_number      159
_space_group_name_Hall           "P 3 -2'c"
loop_
_symmetry_equiv_pos_site_id
_symmetry_equiv_pos_as_xyz
1 x,y,z
2 -y,x-y,z
3 -x+y,-x,z
4 y,x,1/2+z
5 x-y,-y,1/2+z
6 -x,-x+y,1/2+z
_cell_length_a                   18.5004(4)
_cell_length_b                   18.5004(4)
_cell_length_c                   9.6325(5)
_cell_angle_alpha                90
_cell_angle_beta                 90
_cell_angle_gamma                120
_cell_volume                     2855.17
_exptl_crystal_colour            yellow
_exptl_crystal_description       rod
_cell_formula_units_Z            2
loop_
_atom_site_label
_atom_site_type_symbol
_atom_site_fract_x
_atom_site_fract_y
_atom_site_fract_z
C1 C 0.3333 0.6667 0.8460(3)
H1 H 0.3333 0.6667 0.9498
C2 C 0.3333 0.6667 0.5760(3)
H2 H 0.3333 0.6667 0.4722
C3 C 0.24966(11) 0.60234(10) 0.78619(17)
C4 C 0.18047(12) 0.54767(12) 0.86058(18)
H3 H 0.1804 0.5473 0.9592
C5 C 0.11007(12) 0.49256(13) 0.7840(2)
C6 C -0.01076(13) 0.39728(15) 0.7114(3)
H4 H -0.0672 0.3532 0.7115
C7 C 0.24996(11) 0.60246(10) 0.63791(17)
C8 C 0.17980(12) 0.54741(11) 0.56200(18)
H5 H 0.1795 0.5474 0.4634
C9 C 0.11001(13) 0.49227(13) 0.6389(2)
N1 N 0.03148(11) 0.43032(12) 0.8260(2)
H6 H 0.0137 0.4160 0.9118
N2 N 0.03164(12) 0.43032(12) 0.5961(2)
C3A C 0.39766(10) 0.64732(15) 0.78619(17)
C4A C 0.45233(12) 0.63280(17) 0.86058(18)
H3A H 0.4527 0.6331 0.9592
C5A C 0.50744(13) 0.61751(18) 0.7840(2)
C6A C 0.60272(15) 0.59196(20) 0.7114(3)
H4A H 0.6468 0.5796 0.7115
C7A C 0.39754(10) 0.64750(15) 0.63791(17)
C8A C 0.45259(11) 0.63239(16) 0.56200(18)
H5A H 0.4526 0.6321 0.4634
C9A C 0.50773(13) 0.61774(18) 0.6389(2)
N1A N 0.56968(12) 0.60116(16) 0.8260(2)
H6A H 0.5840 0.5977 0.9118
N2A N 0.56968(12) 0.60132(17) 0.5961(2)
C3B C 0.35268(15) 0.75034(11) 0.78619(17)
C4B C 0.36720(17) 0.81953(12) 0.86058(18)
H3B H 0.3669 0.8196 0.9592
C5B C 0.38249(18) 0.88993(12) 0.7840(2)
C6B C 0.40804(20) 1.01076(13) 0.7114(3)
H4B H 0.4204 1.0672 0.7115
C7B C 0.35250(15) 0.75004(11) 0.63791(17)
C8B C 0.36761(16) 0.82020(12) 0.56200(18)
H5B H 0.3679 0.8205 0.4634
C9B C 0.38226(18) 0.88999(13) 0.6389(2)
N1B N 0.39884(16) 0.96852(11) 0.8260(2)
H6B H 0.4023 0.9863 0.9118
N2B N 0.39868(17) 0.96836(12) 0.5961(2)
C10 C 0.71946(14) 0.24088(14) 0.7122(3)
H7 H 0.6704 0.2452 0.7087
C11 C 0.6214(4) 0.0939(3) 0.7198(11)
H8 H 0.6059 0.0744 0.8167
H9 H 0.5823 0.1117 0.6854
C12 C 0.7573(8) 0.1464(9) 0.9891(16)
H10 H 0.8094 0.1488 1.0176
H11 H 0.7102 0.0903 1.0066
H12 H 0.7498 0.1873 1.0423
C13 C 0.7615(10) 0.1669(12) 0.8294(15)
H13 H 0.8088 0.2249 0.8257
H14 H 0.7838 0.1326 0.7899
C14 C 0.6138(7) 0.0244(7) 0.6330(14)
H15 H 0.5562 -0.0221 0.6364
H16 H 0.6516 0.0059 0.6683
H17 H 0.6287 0.0435 0.5369
N3 N 0.7083(2) 0.1665(2) 0.7167(10)
O1 O 0.78523(10) 0.30624(10) 0.71188(19)
loop_
_geom_bond_atom_site_label_1
_geom_bond_atom_site_label_2
_geom_bond_site_symmetry_1
_geom_bond_site_symmetry_2
C1 H1 1_555 1_555
C2 H2 1_555 1_555
C3 C1 1_555 1_555
C4 C3 1_555 1_555
H3 C4 1_555 1_555
C5 C4 1_555 1_555
C6 H4 1_555 1_555
C7 C2 1_555 1_555
C8 C7 1_555 1_555
H5 C8 1_555 1_555
C9 C5 1_555 1_555
N1 C5 1_555 1_555
H6 N1 1_555 1_555
N2 C6 1_555 1_555
C10 H7 1_555 1_555
C11 H8 1_555 1_555
H9 C11 1_555 1_555
C12 H10 1_555 1_555
H11 C12 1_555 1_555
H12 C12 1_555 1_555
C13 C12 1_555 1_555
H13 C13 1_555 1_555
H14 C13 1_555 1_555
C14 C11 1_555 1_555
H15 C14 1_555 1_555
H16 C14 1_555 1_555
H17 C14 1_555 1_555
N3 C10 1_555 1_555
O1 C10 1_555 1_555
C3A C1 1_555 1_555
C4A C3A 1_555 1_555
H3A C4A 1_555 1_555
C5A C4A 1_555 1_555
C6A H4A 1_555 1_555
C7A C2 1_555 1_555
C8A C7A 1_555 1_555
H5A C8A 1_555 1_555
C9A C5A 1_555 1_555
N1A C5A 1_555 1_555
H6A N1A 1_555 1_555
N2A C6A 1_555 1_555
C3B C1 1_555 1_555
C4B C3B 1_555 1_555
H3B C4B 1_555 1_555
C5B C4B 1_555 1_555
C6B H4B 1_555 1_555
C7B C2 1_555 1_555
C8B C7B 1_555 1_555
H5B C8B 1_555 1_555
C9B C5B 1_555 1_555
N1B C5B 1_555 1_555
H6B N1B 1_555 1_555
N2B C6B 1_555 1_555
C3 C7 1_555 1_555
C6 N1 1_555 1_555
C8 C9 1_555 1_555
C9 N2 1_555 1_555
C11 N3 1_555 1_555
C13 N3 1_555 1_555
C3A C7A 1_555 1_555
C6A N1A 1_555 1_555
C8A C9A 1_555 1_555
C9A N2A 1_555 1_555
C3B C7B 1_555 1_555
C6B N1B 1_555 1_555
C8B C9B 1_555 1_555
C9B N2B 1_555 1_555

#END
