
#######################################################################
#
#                 Cambridge Crystallographic Data Centre
#                                CCDC 
#
#######################################################################
#
# If this CIF has been generated from an entry in the Cambridge 
# Structural Database, then it will include bibliographic, chemical, 
# crystal, experimental, refinement or atomic coordinate data resulting 
# from the CCDC's data processing and validation procedures.
#
#######################################################################

data_KANSOI
_chemical_formula_moiety         'C17 H12 F3 N3 O1'
_chemical_name_systematic        
1-(4-Methylphenyl)-1-trifluoromethyl-1,2-dihydro-3H-imidazo(1,5-a)-benzimidazol-3-one
_symmetry_cell_setting           triclinic
_symmetry_space_group_name_H-M   'P -1'
_symmetry_Int_Tables_number      2
_space_group_name_Hall           '-P 1'
loop_
_symmetry_equiv_pos_site_id
_symmetry_equiv_pos_as_xyz
1 x,y,z
2 -x,-y,-z
_cell_length_a                   9.6316(4)
_cell_length_b                   10.4992(2)
_cell_length_c                   16.0041(4)
_cell_angle_alpha                73.286(2)
_cell_angle_beta                 80.798(2)
_cell_angle_gamma                83.229(2)
_cell_volume                     1525.65
_exptl_crystal_colour            colorless
_exptl_crystal_description       prism
_chemical_melting_point          '472-473 K'
_cell_formula_units_Z            4
_exptl_crystal_recrystallization_method 'ethyl acetate/hexane'
loop_
_atom_site_label
_atom_site_type_symbol
_atom_site_fract_x
_atom_site_fract_y
_atom_site_fract_z
F1 F -0.30732(11) 0.74653(9) 0.77451(6)
F2 F -0.18740(11) 0.6299(1) 0.69310(6)
F4 F -0.4058(1) 0.59696(9) 0.74191(6)
O1 O -0.39218(11) 0.58895(11) 1.04651(7)
N1 N -0.35260(13) 0.52435(12) 0.91813(8)
N2 N -0.12738(12) 0.57162(11) 0.87323(7)
N3 N -0.07455(12) 0.66296(12) 0.97475(8)
C1 C -0.24125(14) 0.52022(14) 0.84528(9)
C2 C -0.31662(14) 0.57467(14) 0.98015(9)
C3 C -0.16893(14) 0.60762(13) 0.94966(9)
C4 C 0.00777(14) 0.61132(13) 0.84265(9)
C5 C 0.03924(14) 0.66543(13) 0.90818(9)
C6 C 0.17213(16) 0.71296(14) 0.90003(11)
C7 C 0.26691(16) 0.70542(15) 0.82714(11)
C8 C 0.23220(16) 0.65382(15) 0.76155(11)
C9 C 0.10236(16) 0.60557(15) 0.7682(1)
C10 C -0.28630(16) 0.62486(15) 0.7622(1)
C11 C -0.20945(14) 0.38110(14) 0.83235(9)
C12 C -0.07856(15) 0.31256(15) 0.8430(1)
C13 C -0.05256(16) 0.18527(15) 0.8313(1)
C14 C -0.15596(16) 0.12303(14) 0.81017(9)
C15 C -0.28855(16) 0.19112(16) 0.80219(11)
C16 C -0.31588(16) 0.31840(16) 0.81301(11)
C17 C -0.1261(2) -0.01450(17) 0.79651(13)
H1 H -0.433(2) 0.4879(18) 0.9242(12)
H3 H 0.1939(19) 0.7517(18) 0.9444(12)
H4 H 0.358(2) 0.736(2) 0.8195(13)
H5 H 0.3034(19) 0.6527(17) 0.7110(12)
H6 H 0.0790(18) 0.5723(17) 0.7227(12)
H7 H -0.0064(19) 0.3524(18) 0.8595(12)
H8 H 0.041(2) 0.1384(19) 0.8368(12)
H9 H -0.363(2) 0.1496(18) 0.7890(12)
H10 H -0.411(2) 0.3643(18) 0.8084(12)
H11 H -0.031(3) -0.051(3) 0.8069(17)
H12 H -0.143(3) -0.014(3) 0.7385(18)
H13 H -0.191(3) -0.076(3) 0.8350(18)
F3 F 0.10735(11) 0.4361(1) 0.59780(7)
F5 F 0.0424(1) 0.24070(11) 0.61108(7)
F6 F 0.11922(11) 0.36475(11) 0.48349(6)
O2 O 0.56084(12) 0.4092(1) 0.41540(7)
N4 N 0.38707(14) 0.36667(12) 0.53442(8)
N5 N 0.32540(13) 0.16971(12) 0.52995(8)
N6 N 0.44767(13) 0.14044(12) 0.40328(8)
C18 C 0.28905(15) 0.26634(14) 0.58144(9)
C19 C 0.46991(15) 0.34037(14) 0.46344(9)
C20 C 0.42421(15) 0.21356(14) 0.45832(9)
C21 C 0.27353(15) 0.05878(14) 0.51876(9)
C22 C 0.35329(15) 0.04174(14) 0.44012(9)
C23 C 0.33117(17) -0.06465(16) 0.4087(1)
C24 C 0.23094(18) -0.14990(16) 0.45697(11)
C25 C 0.15255(18) -0.13196(17) 0.53522(11)
C26 C 0.17229(17) -0.02752(16) 0.56757(11)
C27 C 0.13702(17) 0.32797(16) 0.5683(1)
C28 C 0.30490(14) 0.21400(14) 0.67871(9)
C29 C 0.29831(15) 0.30600(14) 0.72745(9)
C30 C 0.30726(15) 0.26309(15) 0.8170(1)
C31 C 0.32450(15) 0.12754(15) 0.85974(9)
C32 C 0.33670(16) 0.03735(15) 0.8099(1)
C33 C 0.32575(15) 0.07881(14) 0.7201(1)
C34 C 0.3270(2) 0.08160(19) 0.95779(11)
H2 H 0.399(2) 0.434(2) 0.5539(13)
H14 H 0.3872(19) -0.0775(18) 0.3543(12)
H15 H 0.2111(19) -0.2240(19) 0.4361(12)
H16 H 0.080(2) -0.1951(19) 0.5677(12)
H17 H 0.120(2) -0.0145(18) 0.6205(13)
H18 H 0.2910(18) 0.4017(18) 0.6979(11)
H19 H 0.2997(19) 0.3280(18) 0.8503(12)
H20 H 0.3506(19) -0.0575(19) 0.8392(12)
H21 H 0.3355(18) 0.0123(17) 0.6885(11)
H22 H 0.238(3) 0.107(3) 0.9890(18)
H23 H 0.344(2) -0.016(2) 0.9800(14)
H24 H 0.400(3) 0.124(2) 0.9739(16)
loop_
_geom_bond_atom_site_label_1
_geom_bond_atom_site_label_2
_geom_bond_site_symmetry_1
_geom_bond_site_symmetry_2
F1 C10 1_555 1_555
F2 C10 1_555 1_555
F3 C27 1_555 1_555
F4 C10 1_555 1_555
F5 C27 1_555 1_555
F6 C27 1_555 1_555
O1 C2 1_555 1_555
O2 C19 1_555 1_555
N1 C1 1_555 1_555
N2 C1 1_555 1_555
N3 C3 1_555 1_555
N4 C18 1_555 1_555
N5 C18 1_555 1_555
N6 C20 1_555 1_555
C1 C10 1_555 1_555
C2 N1 1_555 1_555
C3 N2 1_555 1_555
C4 N2 1_555 1_555
C5 N3 1_555 1_555
C6 C5 1_555 1_555
C7 C6 1_555 1_555
C8 C7 1_555 1_555
C9 C4 1_555 1_555
C11 C1 1_555 1_555
C12 C11 1_555 1_555
C13 C12 1_555 1_555
C14 C13 1_555 1_555
C15 C14 1_555 1_555
C16 C11 1_555 1_555
C17 C14 1_555 1_555
C18 C27 1_555 1_555
C19 N4 1_555 1_555
C20 N5 1_555 1_555
C21 N5 1_555 1_555
C22 N6 1_555 1_555
C23 C22 1_555 1_555
C24 C23 1_555 1_555
C25 C24 1_555 1_555
C26 C21 1_555 1_555
C28 C18 1_555 1_555
C29 C28 1_555 1_555
C30 C29 1_555 1_555
C31 C30 1_555 1_555
C32 C31 1_555 1_555
C33 C28 1_555 1_555
C34 C31 1_555 1_555
H1 N1 1_555 1_555
H2 N4 1_555 1_555
H3 C6 1_555 1_555
H4 C7 1_555 1_555
H5 C8 1_555 1_555
H6 C9 1_555 1_555
H7 C12 1_555 1_555
H8 C13 1_555 1_555
H9 C15 1_555 1_555
H10 C16 1_555 1_555
H11 C17 1_555 1_555
H12 C17 1_555 1_555
H13 C17 1_555 1_555
H14 C23 1_555 1_555
H15 C24 1_555 1_555
H16 C25 1_555 1_555
H17 C26 1_555 1_555
H18 C29 1_555 1_555
H19 C30 1_555 1_555
H20 C32 1_555 1_555
H21 C33 1_555 1_555
H22 C34 1_555 1_555
H23 C34 1_555 1_555
H24 C34 1_555 1_555
C2 C3 1_555 1_555
C4 C5 1_555 1_555
C8 C9 1_555 1_555
C15 C16 1_555 1_555
C19 C20 1_555 1_555
C21 C22 1_555 1_555
C25 C26 1_555 1_555
C32 C33 1_555 1_555

#END
