
#######################################################################
#
#                 Cambridge Crystallographic Data Centre
#                                CCDC 
#
#######################################################################
#
# If this CIF has been generated from an entry in the Cambridge 
# Structural Database, then it will include bibliographic, chemical, 
# crystal, experimental, refinement or atomic coordinate data resulting 
# from the CCDC's data processing and validation procedures.
#
#######################################################################

data_KAPCIO
_chemical_formula_moiety         'C64 H86 N4 O4'
_chemical_name_systematic        5,15-bis(3,5-bis(n-Octyloxy)phenyl)porphyrin
_symmetry_cell_setting           triclinic
_symmetry_space_group_name_H-M   'P -1'
_symmetry_Int_Tables_number      2
_space_group_name_Hall           '-P 1'
loop_
_symmetry_equiv_pos_site_id
_symmetry_equiv_pos_as_xyz
1 x,y,z
2 -x,-y,-z
_cell_length_a                   9.150(4)
_cell_length_b                   11.801(8)
_cell_length_c                   13.869(7)
_cell_angle_alpha                84.42(5)
_cell_angle_beta                 74.47(4)
_cell_angle_gamma                76.70(4)
_cell_volume                     1403.17
_exptl_crystal_colour            red
_exptl_crystal_description       prism
_cell_formula_units_Z            1
_exptl_crystal_recrystallization_method dichloromethane/ethanol
loop_
_atom_site_label
_atom_site_type_symbol
_atom_site_fract_x
_atom_site_fract_y
_atom_site_fract_z
O1 O 1.0176(2) -0.1224(1) 0.1173(1)
O2 O 0.5460(2) -0.0954(1) 0.3714(1)
N1 N 0.5129(2) 0.3261(1) -0.0213(1)
N2 N 0.5863(2) 0.4421(1) 0.1224(1)
C1 C 0.4707(2) 0.2910(2) -0.0996(2)
C2 C 0.5007(2) 0.1660(2) -0.0954(2)
C3 C 0.5618(2) 0.1282(2) -0.0155(2)
C4 C 0.5689(2) 0.2286(2) 0.0320(1)
C5 C 0.6215(2) 0.2289(2) 0.1185(1)
C6 C 0.6288(2) 0.3307(2) 0.1606(1)
C7 C 0.6865(3) 0.3348(2) 0.2477(2)
C8 C 0.6801(3) 0.4487(2) 0.2608(2)
C9 C 0.6165(2) 0.5157(2) 0.1819(1)
C10 C 0.4091(3) 0.3632(2) -0.1715(2)
C11 C 0.6760(2) 0.1119(2) 0.1656(1)
C12 C 0.8200(2) 0.0441(2) 0.1212(1)
C13 C 0.8710(2) -0.0659(2) 0.1633(2)
C14 C 0.7751(2) -0.1099(2) 0.2468(1)
C15 C 0.6306(3) -0.0409(2) 0.2906(2)
C16 C 0.5802(3) 0.0704(2) 0.2523(2)
C17 C 1.0831(3) -0.2329(2) 0.1597(2)
C18 C 1.0503(3) -0.3350(2) 0.1165(2)
C19 C 1.1086(3) -0.4519(2) 0.1665(2)
C20 C 1.0934(3) -0.5560(2) 0.1167(2)
C21 C 1.1359(3) -0.6726(2) 0.1723(2)
C22 C 1.1201(3) -0.7765(2) 0.1215(2)
C23 C 1.1657(3) -0.8947(2) 0.1738(2)
C24 C 1.0601(3) -0.9094(2) 0.2779(2)
C25 C 0.3884(3) -0.0395(3) 0.4159(2)
C26 C 0.3167(3) -0.1315(3) 0.4833(2)
C27 C 0.3028(4) -0.2299(3) 0.4254(2)
C28 C 0.2707(3) -0.3385(3) 0.4890(2)
C29 C 0.2576(4) -0.4373(3) 0.4295(2)
C30 C 0.2319(3) -0.5464(3) 0.4911(2)
C31 C 0.2076(4) -0.6413(3) 0.4337(2)
C32 C 0.1716(5) -0.7473(3) 0.4993(3)
H1 H 0.4811 0.1182 -0.1399
H2 H 0.5952 0.0494 0.0048
H3 H 0.7225 0.2699 0.2878
H4 H 0.7108 0.4792 0.3113
H5 H 0.3806 0.3251 -0.2187
H6 H 0.8841 0.0726 0.0625
H7 H 0.8073 -0.1859 0.2735
H8 H 0.4830 0.1173 0.2841
H9 H 1.0399 -0.2345 0.2301
H10 H 1.1924 -0.2408 0.1462
H11 H 0.9414 -0.3241 0.1255
H12 H 1.1003 -0.3372 0.0470
H13 H 1.0508 -0.4528 0.2344
H14 H 1.2152 -0.4587 0.1636
H15 H 0.9884 -0.5452 0.1139
H16 H 1.1589 -0.5593 0.0506
H17 H 1.0703 -0.6696 0.2384
H18 H 1.2408 -0.6835 0.1752
H19 H 1.0143 -0.7660 0.1205
H20 H 1.1830 -0.7772 0.0547
H21 H 1.1639 -0.9549 0.1337
H22 H 1.2682 -0.9018 0.1804
H23 H 0.9571 -0.9026 0.2724
H24 H 1.0946 -0.9838 0.3069
H25 H 1.0620 -0.8503 0.3191
H26 H 0.3858 0.0244 0.4535
H27 H 0.3345 -0.0126 0.3655
H28 H 0.3799 -0.1635 0.5278
H29 H 0.2156 -0.0968 0.5208
H30 H 0.2216 -0.2020 0.3928
H31 H 0.3983 -0.2519 0.3766
H32 H 0.3522 -0.3669 0.5213
H33 H 0.1754 -0.3166 0.5380
H34 H 0.1729 -0.4100 0.4000
H35 H 0.3511 -0.4563 0.3784
H36 H 0.1429 -0.5262 0.5453
H37 H 0.3203 -0.5770 0.5165
H38 H 0.1247 -0.6090 0.4035
H39 H 0.2999 -0.6668 0.3831
H40 H 0.0794 -0.7225 0.5501
H41 H 0.2545 -0.7806 0.5292
H42 H 0.1562 -0.8038 0.4607
H43 H 0.5051 0.4045 -0.0064
O1A O -0.0176(2) 1.1224(1) -0.1173(1)
O2A O 0.4540(2) 1.0954(1) -0.3714(1)
N1A N 0.4871(2) 0.6739(1) 0.0213(1)
N2A N 0.4137(2) 0.5579(1) -0.1224(1)
C1A C 0.5293(2) 0.7090(2) 0.0996(2)
C2A C 0.4993(2) 0.8340(2) 0.0954(2)
C3A C 0.4382(2) 0.8718(2) 0.0155(2)
C4A C 0.4311(2) 0.7714(2) -0.0320(1)
C5A C 0.3785(2) 0.7711(2) -0.1185(1)
C6A C 0.3712(2) 0.6693(2) -0.1606(1)
C7A C 0.3135(3) 0.6652(2) -0.2477(2)
C8A C 0.3199(3) 0.5513(2) -0.2608(2)
C9A C 0.3835(2) 0.4843(2) -0.1819(1)
C10A C 0.5909(3) 0.6368(2) 0.1715(2)
C11A C 0.3240(2) 0.8881(2) -0.1656(1)
C12A C 0.1800(2) 0.9559(2) -0.1212(1)
C13A C 0.1290(2) 1.0659(2) -0.1633(2)
C14A C 0.2249(2) 1.1099(2) -0.2468(1)
C15A C 0.3694(3) 1.0409(2) -0.2906(2)
C16A C 0.4198(3) 0.9296(2) -0.2523(2)
C17A C -0.0831(3) 1.2329(2) -0.1597(2)
C18A C -0.0503(3) 1.3350(2) -0.1165(2)
C19A C -0.1086(3) 1.4519(2) -0.1665(2)
C20A C -0.0934(3) 1.5560(2) -0.1167(2)
C21A C -0.1359(3) 1.6726(2) -0.1723(2)
C22A C -0.1201(3) 1.7765(2) -0.1215(2)
C23A C -0.1657(3) 1.8947(2) -0.1738(2)
C24A C -0.0601(3) 1.9094(2) -0.2779(2)
C25A C 0.6116(3) 1.0395(3) -0.4159(2)
C26A C 0.6833(3) 1.1315(3) -0.4833(2)
C27A C 0.6972(4) 1.2299(3) -0.4254(2)
C28A C 0.7293(3) 1.3385(3) -0.4890(2)
C29A C 0.7424(4) 1.4373(3) -0.4295(2)
C30A C 0.7681(3) 1.5464(3) -0.4911(2)
C31A C 0.7924(4) 1.6413(3) -0.4337(2)
C32A C 0.8284(5) 1.7473(3) -0.4993(3)
H1A H 0.5189 0.8818 0.1399
H2A H 0.4048 0.9506 -0.0048
H3A H 0.2775 0.7301 -0.2878
H4A H 0.2892 0.5208 -0.3113
H5A H 0.6194 0.6749 0.2187
H6A H 0.1159 0.9274 -0.0625
H7A H 0.1927 1.1859 -0.2735
H8A H 0.5170 0.8827 -0.2841
H9A H -0.0399 1.2345 -0.2301
H10A H -0.1924 1.2408 -0.1462
H11A H 0.0586 1.3241 -0.1255
H12A H -0.1003 1.3372 -0.0470
H13A H -0.0508 1.4528 -0.2344
H14A H -0.2152 1.4587 -0.1636
H15A H 0.0116 1.5452 -0.1139
H16A H -0.1589 1.5593 -0.0506
H17A H -0.0703 1.6696 -0.2384
H18A H -0.2408 1.6835 -0.1752
H19A H -0.0143 1.7660 -0.1205
H20A H -0.1830 1.7772 -0.0547
H21A H -0.1639 1.9549 -0.1337
H22A H -0.2682 1.9018 -0.1804
H23A H 0.0429 1.9026 -0.2724
H24A H -0.0946 1.9838 -0.3069
H25A H -0.0620 1.8503 -0.3191
H26A H 0.6142 0.9756 -0.4535
H27A H 0.6655 1.0126 -0.3655
H28A H 0.6201 1.1635 -0.5278
H29A H 0.7844 1.0968 -0.5208
H30A H 0.7784 1.2020 -0.3928
H31A H 0.6017 1.2519 -0.3766
H32A H 0.6478 1.3669 -0.5213
H33A H 0.8246 1.3166 -0.5380
H34A H 0.8271 1.4100 -0.4000
H35A H 0.6489 1.4563 -0.3784
H36A H 0.8571 1.5262 -0.5453
H37A H 0.6797 1.5770 -0.5165
H38A H 0.8753 1.6090 -0.4035
H39A H 0.7001 1.6668 -0.3831
H40A H 0.9206 1.7225 -0.5501
H41A H 0.7455 1.7806 -0.5292
H42A H 0.8438 1.8038 -0.4607
H43A H 0.4949 0.5955 0.0064
loop_
_geom_bond_atom_site_label_1
_geom_bond_atom_site_label_2
_geom_bond_site_symmetry_1
_geom_bond_site_symmetry_2
O1 C13 1_555 1_555
O2 C15 1_555 1_555
N1 C1 1_555 1_555
N2 C6 1_555 1_555
C1 C2 1_555 1_555
C2 C3 1_555 1_555
C3 C4 1_555 1_555
C4 N1 1_555 1_555
C5 C4 1_555 1_555
C6 C5 1_555 1_555
C7 C6 1_555 1_555
C8 C7 1_555 1_555
C9 N2 1_555 1_555
C10 C1 1_555 1_555
C11 C5 1_555 1_555
C12 C11 1_555 1_555
C13 C12 1_555 1_555
C14 C13 1_555 1_555
C15 C14 1_555 1_555
C16 C11 1_555 1_555
C17 O1 1_555 1_555
C18 C17 1_555 1_555
C19 C18 1_555 1_555
C20 C19 1_555 1_555
C21 C20 1_555 1_555
C22 C21 1_555 1_555
C23 C22 1_555 1_555
C24 C23 1_555 1_555
C25 O2 1_555 1_555
C26 C25 1_555 1_555
C27 C26 1_555 1_555
C28 C27 1_555 1_555
C29 C28 1_555 1_555
C30 C29 1_555 1_555
C31 C30 1_555 1_555
C32 C31 1_555 1_555
H1 C2 1_555 1_555
H2 C3 1_555 1_555
H3 C7 1_555 1_555
H4 C8 1_555 1_555
H5 C10 1_555 1_555
H6 C12 1_555 1_555
H7 C14 1_555 1_555
H8 C16 1_555 1_555
H9 C17 1_555 1_555
H10 C17 1_555 1_555
H11 C18 1_555 1_555
H12 C18 1_555 1_555
H13 C19 1_555 1_555
H14 C19 1_555 1_555
H15 C20 1_555 1_555
H16 C20 1_555 1_555
H17 C21 1_555 1_555
H18 C21 1_555 1_555
H19 C22 1_555 1_555
H20 C22 1_555 1_555
H21 C23 1_555 1_555
H22 C23 1_555 1_555
H23 C24 1_555 1_555
H24 C24 1_555 1_555
H25 C24 1_555 1_555
H26 C25 1_555 1_555
H27 C25 1_555 1_555
H28 C26 1_555 1_555
H29 C26 1_555 1_555
H30 C27 1_555 1_555
H31 C27 1_555 1_555
H32 C28 1_555 1_555
H33 C28 1_555 1_555
H34 C29 1_555 1_555
H35 C29 1_555 1_555
H36 C30 1_555 1_555
H37 C30 1_555 1_555
H38 C31 1_555 1_555
H39 C31 1_555 1_555
H40 C32 1_555 1_555
H41 C32 1_555 1_555
H42 C32 1_555 1_555
H43 N1 1_555 1_555
O1A C13A 1_555 1_555
O2A C15A 1_555 1_555
N1A C1A 1_555 1_555
N2A C6A 1_555 1_555
C1A C2A 1_555 1_555
C2A C3A 1_555 1_555
C3A C4A 1_555 1_555
C4A N1A 1_555 1_555
C5A C4A 1_555 1_555
C6A C5A 1_555 1_555
C7A C6A 1_555 1_555
C8A C7A 1_555 1_555
C9A C10 1_555 1_555
C10A C9 1_555 1_555
C11A C5A 1_555 1_555
C12A C11A 1_555 1_555
C13A C12A 1_555 1_555
C14A C13A 1_555 1_555
C15A C14A 1_555 1_555
C16A C11A 1_555 1_555
C17A O1A 1_555 1_555
C18A C17A 1_555 1_555
C19A C18A 1_555 1_555
C20A C19A 1_555 1_555
C21A C20A 1_555 1_555
C22A C21A 1_555 1_555
C23A C22A 1_555 1_555
C24A C23A 1_555 1_555
C25A O2A 1_555 1_555
C26A C25A 1_555 1_555
C27A C26A 1_555 1_555
C28A C27A 1_555 1_555
C29A C28A 1_555 1_555
C30A C29A 1_555 1_555
C31A C30A 1_555 1_555
C32A C31A 1_555 1_555
H1A C2A 1_555 1_555
H2A C3A 1_555 1_555
H3A C7A 1_555 1_555
H4A C8A 1_555 1_555
H5A C10A 1_555 1_555
H6A C12A 1_555 1_555
H7A C14A 1_555 1_555
H8A C16A 1_555 1_555
H9A C17A 1_555 1_555
H10A C17A 1_555 1_555
H11A C18A 1_555 1_555
H12A C18A 1_555 1_555
H13A C19A 1_555 1_555
H14A C19A 1_555 1_555
H15A C20A 1_555 1_555
H16A C20A 1_555 1_555
H17A C21A 1_555 1_555
H18A C21A 1_555 1_555
H19A C22A 1_555 1_555
H20A C22A 1_555 1_555
H21A C23A 1_555 1_555
H22A C23A 1_555 1_555
H23A C24A 1_555 1_555
H24A C24A 1_555 1_555
H25A C24A 1_555 1_555
H26A C25A 1_555 1_555
H27A C25A 1_555 1_555
H28A C26A 1_555 1_555
H29A C26A 1_555 1_555
H30A C27A 1_555 1_555
H31A C27A 1_555 1_555
H32A C28A 1_555 1_555
H33A C28A 1_555 1_555
H34A C29A 1_555 1_555
H35A C29A 1_555 1_555
H36A C30A 1_555 1_555
H37A C30A 1_555 1_555
H38A C31A 1_555 1_555
H39A C31A 1_555 1_555
H40A C32A 1_555 1_555
H41A C32A 1_555 1_555
H42A C32A 1_555 1_555
H43A N1A 1_555 1_555
C8 C9 1_555 1_555
C15 C16 1_555 1_555
N2A C9A 1_555 1_555
C1A C10A 1_555 1_555
C8A C9A 1_555 1_555
C15A C16A 1_555 1_555

#END
