
#######################################################################
#
#                 Cambridge Crystallographic Data Centre
#                                CCDC 
#
#######################################################################
#
# If this CIF has been generated from an entry in the Cambridge 
# Structural Database, then it will include bibliographic, chemical, 
# crystal, experimental, refinement or atomic coordinate data resulting 
# from the CCDC's data processing and validation procedures.
#
#######################################################################

data_KAPGAK
_chemical_formula_moiety         'C35 H22 N2,C4 H8 O1'
_chemical_name_systematic        
"rac-2,2'-bis(4-Pyridyl)-9,9'-spirobifluorene tetrahydrofuran solvate"
_symmetry_cell_setting           monoclinic
_symmetry_space_group_name_H-M   'P 21/c'
_symmetry_Int_Tables_number      14
_space_group_name_Hall           '-P 2ybc'
loop_
_symmetry_equiv_pos_site_id
_symmetry_equiv_pos_as_xyz
1 x,y,z
2 -x,1/2+y,1/2-z
3 -x,-y,-z
4 x,1/2-y,1/2+z
_cell_length_a                   18.3445(11)
_cell_length_b                   9.5239(6)
_cell_length_c                   17.1652(11)
_cell_angle_alpha                90
_cell_angle_beta                 94.466(1)
_cell_angle_gamma                90
_cell_volume                     2989.85
_exptl_crystal_colour            colorless
_exptl_crystal_description       plate
_cell_formula_units_Z            4
_exptl_crystal_recrystallization_method tetrahydrofuran/hexanes
loop_
_atom_site_label
_atom_site_type_symbol
_atom_site_fract_x
_atom_site_fract_y
_atom_site_fract_z
N1 N 0.0230(3) 0.8735(6) 0.0801(3)
N2 N 0.5221(4) 0.6312(9) 0.4009(6)
C1 C 0.2326(3) 1.2005(6) 0.4484(3)
C2 C 0.2265(3) 1.1830(6) 0.5368(3)
C3 C 0.2701(3) 1.2414(7) 0.5983(3)
H1 H 0.3096 1.2984 0.5889
C4 C 0.2530(4) 1.2118(7) 0.6758(4)
H2 H 0.2802 1.2530 0.7177
C5 C 0.1964(4) 1.1228(7) 0.6894(3)
H3 H 0.1865 1.1038 0.7407
C6 C 0.1538(3) 1.0609(6) 0.6289(3)
H4 H 0.1157 1.0007 0.6389
C7 C 0.1696(3) 1.0913(6) 0.5515(3)
C8 C 0.1367(3) 1.0396(5) 0.4759(3)
C9 C 0.0813(3) 0.9421(6) 0.4592(3)
H5 H 0.0579 0.8997 0.4993
C10 C 0.0612(3) 0.9090(5) 0.3808(3)
H6 H 0.0248 0.8426 0.3692
C11 C 0.0945(3) 0.9731(5) 0.3201(3)
C12 C 0.1513(3) 1.0702(5) 0.3384(3)
H7 H 0.1752 1.1125 0.2987
C13 C 0.1713(3) 1.1021(5) 0.4154(3)
C14 C 0.2232(3) 1.3561(6) 0.4244(3)
C15 C 0.1631(4) 1.4413(7) 0.4316(4)
H8 H 0.1209 1.4075 0.4518
C16 C 0.1687(5) 1.5824(8) 0.4067(5)
H9 H 0.1288 1.6419 0.4093
C17 C 0.2317(6) 1.6332(8) 0.3788(5)
H10 H 0.2345 1.7272 0.3647
C18 C 0.2910(5) 1.5460(8) 0.3715(4)
H11 H 0.3331 1.5803 0.3512
C19 C 0.2870(3) 1.4063(6) 0.3947(3)
C20 C 0.3390(3) 1.2896(7) 0.3917(3)
C21 C 0.4091(4) 1.2819(8) 0.3651(4)
H12 H 0.4312 1.3613 0.3461
C22 C 0.4450(4) 1.1534(9) 0.3677(4)
H13 H 0.4913 1.1482 0.3493
C23 C 0.4143(3) 1.0318(7) 0.3967(4)
C24 C 0.3437(3) 1.0432(6) 0.4251(3)
H14 H 0.3220 0.9645 0.4454
C25 C 0.3078(3) 1.1681(6) 0.4227(3)
C26 C 0.0710(3) 0.9373(6) 0.2366(3)
C27 C 0.0443(3) 0.8061(6) 0.2147(3)
H15 H 0.0423 0.7351 0.2517
C28 C 0.0208(3) 0.7813(7) 0.1378(4)
H16 H 0.0019 0.6928 0.1253
C29 C 0.0729(3) 1.0380(6) 0.1778(3)
H17 H 0.0904 1.1280 0.1890
C30 C 0.0483(3) 1.0008(7) 0.1029(4)
H18 H 0.0492 1.0697 0.0646
C31 C 0.4523(3) 0.8960(8) 0.3995(4)
C32 C 0.4448(4) 0.7988(8) 0.4547(5)
H19 H 0.4147 0.8195 0.4943
C33 C 0.4785(5) 0.6721(10) 0.4563(5)
H20 H 0.4713 0.6110 0.4973
C34 C 0.4992(4) 0.8561(11) 0.3417(5)
H21 H 0.5084 0.9173 0.3014
C35 C 0.5309(5) 0.7255(13) 0.3462(6)
H22 H 0.5611 0.7015 0.3072
O1 O 0.6337(6) 1.2353(16) 0.3453(9)
C36 C 0.6470(10) 1.3819(19) 0.3437(16)
H23 H 0.6498 1.4217 0.3959
H24 H 0.6093 1.4304 0.3113
C37 C 0.7176(13) 1.3890(16) 0.3099(14)
H25 H 0.7147 1.3572 0.2561
H26 H 0.7388 1.4823 0.3135
C38 C 0.7562(7) 1.291(2) 0.3623(18)
H27 H 0.7744 1.3365 0.4104
H28 H 0.7968 1.2482 0.3381
C39 C 0.7003(10) 1.1858(19) 0.3769(12)
H29 H 0.7117 1.0971 0.3529
H30 H 0.6986 1.1709 0.4326
loop_
_geom_bond_atom_site_label_1
_geom_bond_atom_site_label_2
_geom_bond_site_symmetry_1
_geom_bond_site_symmetry_2
N1 C28 1_555 1_555
N2 C33 1_555 1_555
C1 C2 1_555 1_555
C2 C3 1_555 1_555
C3 H1 1_555 1_555
C4 C3 1_555 1_555
H2 C4 1_555 1_555
C5 C4 1_555 1_555
H3 C5 1_555 1_555
C6 C5 1_555 1_555
H4 C6 1_555 1_555
C7 C2 1_555 1_555
C8 C7 1_555 1_555
C9 C8 1_555 1_555
H5 C9 1_555 1_555
C10 C9 1_555 1_555
H6 C10 1_555 1_555
C11 C10 1_555 1_555
C12 C11 1_555 1_555
H7 C12 1_555 1_555
C13 C1 1_555 1_555
C14 C1 1_555 1_555
C15 C14 1_555 1_555
H8 C15 1_555 1_555
C16 C15 1_555 1_555
H9 C16 1_555 1_555
C17 C16 1_555 1_555
H10 C17 1_555 1_555
C18 C17 1_555 1_555
H11 C18 1_555 1_555
C19 C14 1_555 1_555
C20 C19 1_555 1_555
C21 C20 1_555 1_555
H12 C21 1_555 1_555
C22 C21 1_555 1_555
H13 C22 1_555 1_555
C23 C22 1_555 1_555
C24 C23 1_555 1_555
H14 C24 1_555 1_555
C25 C1 1_555 1_555
C26 C11 1_555 1_555
C27 C26 1_555 1_555
H15 C27 1_555 1_555
C28 C27 1_555 1_555
H16 C28 1_555 1_555
C29 C26 1_555 1_555
H17 C29 1_555 1_555
C30 N1 1_555 1_555
H18 C30 1_555 1_555
C31 C23 1_555 1_555
C32 C31 1_555 1_555
H19 C32 1_555 1_555
C33 C32 1_555 1_555
H20 C33 1_555 1_555
C34 C31 1_555 1_555
H21 C34 1_555 1_555
C35 N2 1_555 1_555
H22 C35 1_555 1_555
O1 C36 1_555 1_555
C36 H23 1_555 1_555
H24 C36 1_555 1_555
C37 C36 1_555 1_555
H25 C37 1_555 1_555
H26 C37 1_555 1_555
C38 C37 1_555 1_555
H27 C38 1_555 1_555
H28 C38 1_555 1_555
C39 O1 1_555 1_555
H29 C39 1_555 1_555
H30 C39 1_555 1_555
C6 C7 1_555 1_555
C8 C13 1_555 1_555
C12 C13 1_555 1_555
C18 C19 1_555 1_555
C20 C25 1_555 1_555
C24 C25 1_555 1_555
C29 C30 1_555 1_555
C34 C35 1_555 1_555
C38 C39 1_555 1_555

#END
