
#######################################################################
#
#                 Cambridge Crystallographic Data Centre
#                                CCDC 
#
#######################################################################
#
# If this CIF has been generated from an entry in the Cambridge 
# Structural Database, then it will include bibliographic, chemical, 
# crystal, experimental, refinement or atomic coordinate data resulting 
# from the CCDC's data processing and validation procedures.
#
#######################################################################

data_KAPKES
_chemical_formula_moiety         '2(C10 H10 N2 2+),4(C2 H8 N1 O6 P2 1-)'
_chemical_name_systematic        
"bis(2,2'-Bipyridinedi-ium) tetrakis(iminio-bis(methylhydrogenphosphonate))"
_symmetry_cell_setting           triclinic
_symmetry_space_group_name_H-M   'P -1'
_symmetry_Int_Tables_number      2
_space_group_name_Hall           '-P 1'
loop_
_symmetry_equiv_pos_site_id
_symmetry_equiv_pos_as_xyz
1 x,y,z
2 -x,-y,-z
_cell_length_a                   10.8497(8)
_cell_length_b                   12.8209(10)
_cell_length_c                   17.2248(14)
_cell_angle_alpha                105.1950(10)
_cell_angle_beta                 90.8710(10)
_cell_angle_gamma                98.2200(10)
_cell_volume                     2285.02
_exptl_crystal_colour            colorless
_exptl_crystal_description       block
_cell_formula_units_Z            2
loop_
_atom_site_label
_atom_site_type_symbol
_atom_site_fract_x
_atom_site_fract_y
_atom_site_fract_z
P1 P 0.09235(4) -0.16738(4) 0.03025(3)
P2 P 0.01401(4) 0.15766(4) 0.21236(2)
O1 O 0.08882(11) -0.27542(10) 0.05619(7)
H1 H 0.0585 -0.2678 0.1016
O2 O 0.14391(11) -0.19132(11) -0.05431(7)
O3 O -0.02667(11) -0.12076(10) 0.03992(7)
O4 O -0.02858(11) 0.25150(10) 0.18513(7)
O5 O 0.09491(11) 0.20190(10) 0.29331(7)
H2 H 0.0506 0.1951 0.3318
O6 O -0.08781(10) 0.06694(9) 0.21654(7)
N3 N 0.18127(13) 0.01431(11) 0.16052(8)
H13 H 0.2578 0.0505 0.1911
H14 H 0.1260 -0.0219 0.1896
C21 C 0.22053(15) -0.06896(14) 0.09036(10)
H37 H 0.2785 -0.1099 0.1108
H38 H 0.2671 -0.0301 0.0546
C22 C 0.12174(15) 0.10213(14) 0.13849(10)
H39 H 0.0764 0.0716 0.0852
H40 H 0.1876 0.1619 0.1340
P3 P 1.01384(4) -0.20997(3) 0.26258(2)
P4 P 0.87877(4) 0.12237(3) 0.44557(2)
O7 O 0.86524(11) 0.13298(10) 0.53384(7)
O8 O 0.98982(11) 0.19259(10) 0.42358(7)
O9 O 0.75787(11) 0.13964(10) 0.40192(7)
H3 H 0.6963 0.1305 0.4297
O10 O 1.09659(10) -0.10300(9) 0.26616(7)
O11 O 1.04771(11) -0.25935(10) 0.33276(7)
H4 H 1.0754 -0.2085 0.3735
O12 O 1.00705(11) -0.30006(10) 0.18549(7)
N4 N 0.84498(12) -0.06225(11) 0.31501(8)
H15 H 0.7623 -0.0592 0.3130
H16 H 0.8880 -0.0221 0.2850
C23 C 0.89048(15) -0.02262(14) 0.40139(10)
H41 H 0.9786 -0.0332 0.4060
H42 H 0.8412 -0.0671 0.4325
C24 C 0.85415(15) -0.17934(13) 0.27523(10)
H43 H 0.8097 -0.2002 0.2215
H44 H 0.8108 -0.2253 0.3076
P5 P 0.41475(4) 0.16776(4) 0.46902(3)
P6 P 0.49200(4) -0.15784(3) 0.28644(2)
O13 O 0.53480(11) 0.12306(10) 0.45795(7)
O14 O 0.36360(11) 0.19057(10) 0.55353(7)
O15 O 0.41390(11) 0.27536(10) 0.44289(7)
H5 H 0.4484 0.2700 0.3990
O16 O 0.41172(11) -0.20011(10) 0.20528(7)
H6 H 0.4570 -0.1948 0.1670
O17 O 0.53175(11) -0.25397(9) 0.31260(7)
O18 O 0.59639(10) -0.06879(10) 0.28278(7)
N5 N 0.32695(12) -0.01380(11) 0.33865(8)
H17 H 0.3806 0.0266 0.3092
H18 H 0.2552 -0.0434 0.3132
C25 C 0.28699(15) 0.06798(14) 0.40990(10)
H45 H 0.2428 0.0279 0.4457
H46 H 0.2269 0.1080 0.3904
C26 C 0.38577(15) -0.10209(14) 0.36043(10)
H47 H 0.3195 -0.1615 0.3651
H48 H 0.4316 -0.0719 0.4136
P7 P 0.62772(4) -0.12207(3) 0.05338(2)
P8 P 0.49719(4) 0.21141(3) 0.23840(2)
O19 O 0.63503(11) -0.13187(10) -0.03511(7)
O20 O 0.75077(11) -0.13967(10) 0.09454(7)
H7 H 0.8111 -0.1292 0.0661
O21 O 0.52016(11) -0.19419(10) 0.07720(7)
O22 O 0.41232(10) 0.10538(9) 0.23486(7)
O23 O 0.50647(11) 0.30154(10) 0.31551(7)
O24 O 0.46422(11) 0.26067(10) 0.16773(7)
H8 H 0.4325 0.2099 0.1280
N6 N 0.66340(12) 0.06170(11) 0.18496(8)
H19 H 0.7457 0.0582 0.1876
H20 H 0.6193 0.0223 0.2128
C27 C 0.61429(15) 0.02196(14) 0.09932(10)
H49 H 0.6605 0.0675 0.0677
H50 H 0.5254 0.0313 0.0966
C28 C 0.65615(15) 0.17927(13) 0.22441(10)
H51 H 0.6992 0.2245 0.1914
H52 H 0.7018 0.2003 0.2777
C1 C 0.62536(17) 0.54584(16) 0.14719(12)
H9 H 0.6043 0.6021 0.1907
C2 C 0.34759(18) 0.53712(15) 0.17105(12)
H10 H 0.4008 0.5905 0.2110
C3 C 0.53247(16) 0.46882(14) 0.09961(11)
N7 N 0.56735(13) 0.39053(12) 0.03808(9)
H21 H 0.5084 0.3419 0.0079
C4 C 0.68615(17) 0.38276(15) 0.02052(12)
H22 H 0.7051 0.3260 -0.0234
C5 C 0.78051(18) 0.45753(17) 0.06649(13)
H23 H 0.8652 0.4532 0.0548
C6 C 0.74951(19) 0.53974(17) 0.13050(13)
H24 H 0.8136 0.5919 0.1629
C7 C 0.39657(16) 0.46486(14) 0.10841(11)
N8 N 0.32631(14) 0.38721(13) 0.05120(10)
H25 H 0.3603 0.3434 0.0121
C8 C 0.20264(18) 0.37869(18) 0.05565(14)
H26 H 0.1515 0.3231 0.0160
C9 C 0.14550(19) 0.44747(18) 0.11563(14)
H27 H 0.0572 0.4386 0.1168
C10 C 0.21848(19) 0.52894(17) 0.17356(13)
H28 H 0.1814 0.5783 0.2142
N1 N -0.07412(13) 0.61290(12) 0.44995(9)
H11 H -0.0247 0.6553 0.4904
N2 N 0.16271(14) 0.60405(13) 0.47565(10)
H12 H 0.1187 0.6460 0.5095
C11 C -0.02537(16) 0.53593(14) 0.39467(11)
C12 C -0.10398(18) 0.46789(15) 0.33155(11)
H29 H -0.0731 0.4123 0.2922
C13 C -0.22836(18) 0.48205(16) 0.32665(13)
H30 H -0.2826 0.4360 0.2836
C14 C -0.27352(18) 0.56300(17) 0.38417(13)
H31 H -0.3582 0.5734 0.3807
C15 C -0.19375(17) 0.62804(15) 0.44641(12)
H32 H -0.2232 0.6835 0.4867
C16 C 0.10908(16) 0.53379(14) 0.40724(11)
C17 C 0.17423(18) 0.46507(16) 0.35242(12)
H33 H 0.1331 0.4158 0.3050
C18 C 0.30146(19) 0.47024(17) 0.36872(13)
H34 H 0.3491 0.4248 0.3324
C19 C 0.35708(18) 0.54283(17) 0.43881(13)
H35 H 0.4437 0.5480 0.4513
C20 C 0.28456(18) 0.60827(16) 0.49076(13)
H36 H 0.3234 0.6578 0.5388
loop_
_geom_bond_atom_site_label_1
_geom_bond_atom_site_label_2
_geom_bond_site_symmetry_1
_geom_bond_site_symmetry_2
P1 O1 1_555 1_555
P2 O4 1_555 1_555
P3 O10 1_555 1_555
P4 O7 1_555 1_555
P5 O13 1_555 1_555
P6 O16 1_555 1_555
P7 O19 1_555 1_555
P8 O22 1_555 1_555
O1 H1 1_555 1_555
O2 P1 1_555 1_555
O3 P1 1_555 1_555
O5 P2 1_555 1_555
H2 O5 1_555 1_555
O6 P2 1_555 1_555
O8 P4 1_555 1_555
O9 P4 1_555 1_555
H3 O9 1_555 1_555
O11 P3 1_555 1_555
H4 O11 1_555 1_555
O12 P3 1_555 1_555
O14 P5 1_555 1_555
O15 P5 1_555 1_555
H5 O15 1_555 1_555
O16 H6 1_555 1_555
O17 P6 1_555 1_555
O18 P6 1_555 1_555
O20 P7 1_555 1_555
H7 O20 1_555 1_555
O21 P7 1_555 1_555
O23 P8 1_555 1_555
O24 P8 1_555 1_555
H8 O24 1_555 1_555
C1 H9 1_555 1_555
C2 H10 1_555 1_555
N1 H11 1_555 1_555
N2 H12 1_555 1_555
N3 H13 1_555 1_555
H14 N3 1_555 1_555
N4 H15 1_555 1_555
H16 N4 1_555 1_555
N5 H17 1_555 1_555
H18 N5 1_555 1_555
N6 H19 1_555 1_555
H20 N6 1_555 1_555
C3 C1 1_555 1_555
N7 C3 1_555 1_555
H21 N7 1_555 1_555
C4 N7 1_555 1_555
H22 C4 1_555 1_555
C5 C4 1_555 1_555
H23 C5 1_555 1_555
C6 C1 1_555 1_555
H24 C6 1_555 1_555
C7 C2 1_555 1_555
N8 C7 1_555 1_555
H25 N8 1_555 1_555
C8 N8 1_555 1_555
H26 C8 1_555 1_555
C9 C8 1_555 1_555
H27 C9 1_555 1_555
C10 C2 1_555 1_555
H28 C10 1_555 1_555
C11 N1 1_555 1_555
C12 C11 1_555 1_555
H29 C12 1_555 1_555
C13 C12 1_555 1_555
H30 C13 1_555 1_555
C14 C13 1_555 1_555
H31 C14 1_555 1_555
C15 N1 1_555 1_555
H32 C15 1_555 1_555
C16 N2 1_555 1_555
C17 C16 1_555 1_555
H33 C17 1_555 1_555
C18 C17 1_555 1_555
H34 C18 1_555 1_555
C19 C18 1_555 1_555
H35 C19 1_555 1_555
C20 N2 1_555 1_555
H36 C20 1_555 1_555
C21 P1 1_555 1_555
H37 C21 1_555 1_555
H38 C21 1_555 1_555
C22 P2 1_555 1_555
H39 C22 1_555 1_555
H40 C22 1_555 1_555
C23 P4 1_555 1_555
H41 C23 1_555 1_555
H42 C23 1_555 1_555
C24 P3 1_555 1_555
H43 C24 1_555 1_555
H44 C24 1_555 1_555
C25 P5 1_555 1_555
H45 C25 1_555 1_555
H46 C25 1_555 1_555
C26 P6 1_555 1_555
H47 C26 1_555 1_555
H48 C26 1_555 1_555
C27 P7 1_555 1_555
H49 C27 1_555 1_555
H50 C27 1_555 1_555
C28 P8 1_555 1_555
H51 C28 1_555 1_555
H52 C28 1_555 1_555
N3 C21 1_555 1_555
N3 C22 1_555 1_555
N4 C23 1_555 1_555
N4 C24 1_555 1_555
N5 C25 1_555 1_555
N5 C26 1_555 1_555
N6 C27 1_555 1_555
N6 C28 1_555 1_555
C3 C7 1_555 1_555
C5 C6 1_555 1_555
C9 C10 1_555 1_555
C11 C16 1_555 1_555
C14 C15 1_555 1_555
C19 C20 1_555 1_555

#END
