
#######################################################################
#
#                 Cambridge Crystallographic Data Centre
#                                CCDC 
#
#######################################################################
#
# If this CIF has been generated from an entry in the Cambridge 
# Structural Database, then it will include bibliographic, chemical, 
# crystal, experimental, refinement or atomic coordinate data resulting 
# from the CCDC's data processing and validation procedures.
#
#######################################################################

data_KAPPUP
_chemical_formula_moiety         'C30 H18 N4 S1,0.13(H2 O1)'
_chemical_name_systematic        
"9,9'-(2,1,3-benzothiadiazole-5,6-diyl)bis(9H-carbazole) hydrate"
_symmetry_cell_setting           monoclinic
_symmetry_space_group_name_H-M   'C 2/c'
_symmetry_Int_Tables_number      15
_space_group_name_Hall           '-C 2yn'
loop_
_symmetry_equiv_pos_site_id
_symmetry_equiv_pos_as_xyz
1 x,y,z
2 -x,y,1/2-z
3 1/2+x,1/2+y,z
4 1/2-x,1/2+y,1/2-z
5 -x,-y,-z
6 x,-y,1/2+z
7 1/2-x,1/2-y,-z
8 1/2+x,1/2-y,1/2+z
_cell_length_a                   28.338(3)
_cell_length_b                   12.9466(12)
_cell_length_c                   26.799(3)
_cell_angle_alpha                90
_cell_angle_beta                 113.3360(10)
_cell_angle_gamma                90
_cell_volume                     9027.75
_exptl_crystal_colour            colorless
_exptl_crystal_description       prism
_cell_formula_units_Z            16
loop_
_atom_site_label
_atom_site_type_symbol
_atom_site_fract_x
_atom_site_fract_y
_atom_site_fract_z
S1 S 0.02474(2) 1.13995(3) 0.19311(2)
N1 N 0.07218(5) 1.05989(10) 0.20898(5)
C1 C 0.05468(5) 0.98031(10) 0.17401(5)
C2 C 0.00249(5) 0.99161(10) 0.13663(5)
N2 N -0.01920(5) 1.08059(9) 0.14316(6)
N3 N 0.08419(4) 0.72000(8) 0.13943(4)
C3 C -0.02123(5) 0.91522(10) 0.09670(5)
H1 H -0.0563(6) 0.9268(13) 0.0692(7)
N4 N -0.01579(4) 0.75220(8) 0.05592(4)
C4 C 0.00651(4) 0.82911(9) 0.09562(5)
C5 C 0.05845(5) 0.81539(9) 0.13586(5)
C6 C 0.08224(5) 0.88987(10) 0.17338(5)
H2 H 0.1154(7) 0.8784(14) 0.1998(7)
C7 C 0.07087(6) 0.63017(10) 0.15940(5)
C8 C 0.02895(7) 0.61231(14) 0.17233(6)
H3 H 0.0036(8) 0.6608(16) 0.1698(8)
C9 C 0.02562(9) 0.51479(17) 0.19285(7)
H4 H -0.0024(9) 0.4987(18) 0.2021(9)
C10 C 0.06337(10) 0.43952(15) 0.20010(8)
H5 H 0.0604(9) 0.374(2) 0.2151(10)
C11 C 0.10453(9) 0.45852(12) 0.18729(7)
H6 H 0.1322(8) 0.4036(18) 0.1939(9)
C12 C 0.10923(6) 0.55511(10) 0.16633(6)
C13 C 0.14680(6) 0.60132(11) 0.14956(5)
C14 C 0.19106(7) 0.56484(15) 0.14338(7)
H7 H 0.2002(8) 0.4977(18) 0.1533(9)
C15 C 0.21774(7) 0.63001(18) 0.12331(7)
H8 H 0.2494(8) 0.6013(17) 0.1197(8)
C16 C 0.20229(6) 0.73171(17) 0.11036(7)
H9 H 0.2240(9) 0.7814(19) 0.0948(10)
C17 C 0.15941(5) 0.77099(13) 0.11663(6)
H10 H 0.1488(7) 0.8435(15) 0.1083(8)
C18 C 0.13128(5) 0.70408(10) 0.13490(5)
C19 C -0.06438(5) 0.70704(10) 0.04218(5)
C20 C -0.10084(6) 0.72293(12) 0.06399(6)
H11 H -0.0951(7) 0.7707(15) 0.0922(8)
C21 C -0.14596(6) 0.66586(14) 0.04224(7)
H12 H -0.1720(8) 0.6772(15) 0.0559(8)
C22 C -0.15450(6) 0.59437(13) 0.00054(6)
H13 H -0.1866(7) 0.5575(15) -0.0140(8)
C23 C -0.11784(6) 0.57771(11) -0.02024(6)
H14 H -0.1231(7) 0.5301(15) -0.0491(8)
C24 C -0.07242(5) 0.63462(9) 0.00040(5)
C25 C -0.02786(5) 0.63715(9) -0.01273(5)
C26 C -0.01474(6) 0.58505(11) -0.05090(5)
H15 H -0.0371(7) 0.5330(14) -0.0733(7)
C27 C 0.03096(6) 0.60930(12) -0.05529(6)
H16 H 0.0413(7) 0.5710(14) -0.0810(8)
C28 C 0.06298(6) 0.68673(12) -0.02298(6)
H17 H 0.0948(7) 0.7012(13) -0.0269(7)
C29 C 0.05034(5) 0.74014(10) 0.01491(5)
H18 H 0.0723(6) 0.7958(13) 0.0363(7)
C30 C 0.00566(5) 0.71175(9) 0.02090(5)
S2 S 0.12959(2) 0.94120(3) 0.34020(2)
C31 C 0.19397(6) 0.81208(10) 0.36909(6)
N5 N 0.18828(6) 0.91323(10) 0.37770(7)
C32 C 0.14841(5) 0.76526(10) 0.33130(5)
N6 N 0.10839(6) 0.83138(10) 0.31138(6)
N7 N 0.28274(4) 0.59027(8) 0.40820(5)
C33 C 0.14836(5) 0.65975(10) 0.31711(5)
H19 H 0.1196(6) 0.6287(13) 0.2912(7)
N8 N 0.19397(4) 0.49886(8) 0.32759(4)
C34 C 0.19256(4) 0.60393(9) 0.34173(5)
C35 C 0.23819(5) 0.65071(9) 0.38170(5)
C36 C 0.23919(5) 0.75324(10) 0.39455(6)
H20 H 0.2699(7) 0.7827(14) 0.4220(8)
C37 C 0.28759(5) 0.51215(10) 0.44604(5)
C38 C 0.24982(6) 0.46758(11) 0.45990(6)
H21 H 0.2139(7) 0.4877(13) 0.4421(7)
C39 C 0.26537(7) 0.39350(13) 0.50067(6)
H22 H 0.2403(7) 0.3650(15) 0.5112(8)
C40 C 0.31704(7) 0.36574(14) 0.52700(7)
H23 H 0.3268(8) 0.3181(17) 0.5552(9)
C41 C 0.35423(6) 0.41026(13) 0.51295(6)
H24 H 0.3905(7) 0.3951(15) 0.5322(8)
C42 C 0.33979(5) 0.48434(11) 0.47178(5)
C43 C 0.36768(5) 0.54754(11) 0.44818(5)
C44 C 0.41944(5) 0.55334(13) 0.45505(6)
H25 H 0.4427(7) 0.5070(14) 0.4800(7)
C45 C 0.43383(6) 0.62632(14) 0.42633(7)
H26 H 0.4705(8) 0.6326(15) 0.4315(8)
C46 C 0.39792(6) 0.69372(13) 0.39072(7)
H27 H 0.4097(7) 0.7461(15) 0.3694(8)
C47 C 0.34634(6) 0.68873(12) 0.38199(7)
H28 H 0.3203(8) 0.7355(16) 0.3556(9)
C48 C 0.33197(5) 0.61444(10) 0.41089(5)
C49 C 0.16127(4) 0.42026(9) 0.33048(5)
C50 C 0.12386(5) 0.42199(11) 0.35195(6)
H29 H 0.1161(6) 0.4830(14) 0.3667(7)
C51 C 0.09773(6) 0.33042(12) 0.35025(6)
H30 H 0.0718(7) 0.3289(15) 0.3649(8)
C52 C 0.10826(6) 0.24021(11) 0.32820(7)
H31 H 0.0891(7) 0.1758(15) 0.3269(8)
C53 C 0.14547(5) 0.23880(10) 0.30703(6)
H32 H 0.1524(7) 0.1775(15) 0.2923(8)
C54 C 0.17225(5) 0.32959(9) 0.30790(5)
C55 C 0.21175(5) 0.35531(9) 0.28895(5)
C56 C 0.23661(6) 0.29958(12) 0.26193(6)
H33 H 0.2286(7) 0.2271(15) 0.2536(7)
C57 C 0.27237(6) 0.34950(14) 0.24738(6)
H34 H 0.2904(7) 0.3093(15) 0.2291(8)
C58 C 0.28374(6) 0.45367(14) 0.25950(6)
H35 H 0.3072(7) 0.4879(15) 0.2475(8)
C59 C 0.26005(5) 0.51054(11) 0.28677(5)
H36 H 0.2672(7) 0.5819(15) 0.2944(7)
C60 C 0.22420(4) 0.45983(9) 0.30147(5)
O1 O 0.0000 0.8921(5) 0.2500
H37 H 0.0225 0.8533 0.2728
H37A H -0.0225 0.8533 0.2272
loop_
_geom_bond_atom_site_label_1
_geom_bond_atom_site_label_2
_geom_bond_site_symmetry_1
_geom_bond_site_symmetry_2
S1 N1 1_555 1_555
N1 C1 1_555 1_555
C1 C2 1_555 1_555
C2 N2 1_555 1_555
N2 S1 1_555 1_555
N3 C5 1_555 1_555
C3 C2 1_555 1_555
H1 C3 1_555 1_555
N4 C4 1_555 1_555
C4 C3 1_555 1_555
C5 C4 1_555 1_555
C6 C1 1_555 1_555
H2 C6 1_555 1_555
C7 N3 1_555 1_555
C8 C7 1_555 1_555
H3 C8 1_555 1_555
C9 C8 1_555 1_555
H4 C9 1_555 1_555
C10 C9 1_555 1_555
H5 C10 1_555 1_555
C11 C10 1_555 1_555
H6 C11 1_555 1_555
C12 C7 1_555 1_555
C13 C12 1_555 1_555
C14 C13 1_555 1_555
H7 C14 1_555 1_555
C15 C14 1_555 1_555
H8 C15 1_555 1_555
C16 C15 1_555 1_555
H9 C16 1_555 1_555
C17 C16 1_555 1_555
H10 C17 1_555 1_555
C18 N3 1_555 1_555
C19 N4 1_555 1_555
C20 C19 1_555 1_555
H11 C20 1_555 1_555
C21 C20 1_555 1_555
H12 C21 1_555 1_555
C22 C21 1_555 1_555
H13 C22 1_555 1_555
C23 C22 1_555 1_555
H14 C23 1_555 1_555
C24 C19 1_555 1_555
C25 C24 1_555 1_555
C26 C25 1_555 1_555
H15 C26 1_555 1_555
C27 C26 1_555 1_555
H16 C27 1_555 1_555
C28 C27 1_555 1_555
H17 C28 1_555 1_555
C29 C28 1_555 1_555
H18 C29 1_555 1_555
C30 N4 1_555 1_555
S2 N5 1_555 1_555
C31 N5 1_555 1_555
C32 C31 1_555 1_555
N6 S2 1_555 1_555
N7 C35 1_555 1_555
C33 C32 1_555 1_555
H19 C33 1_555 1_555
N8 C34 1_555 1_555
C34 C33 1_555 1_555
C35 C34 1_555 1_555
C36 C31 1_555 1_555
H20 C36 1_555 1_555
C37 N7 1_555 1_555
C38 C37 1_555 1_555
H21 C38 1_555 1_555
C39 C38 1_555 1_555
H22 C39 1_555 1_555
C40 C39 1_555 1_555
H23 C40 1_555 1_555
C41 C40 1_555 1_555
H24 C41 1_555 1_555
C42 C37 1_555 1_555
C43 C42 1_555 1_555
C44 C43 1_555 1_555
H25 C44 1_555 1_555
C45 C44 1_555 1_555
H26 C45 1_555 1_555
C46 C45 1_555 1_555
H27 C46 1_555 1_555
C47 C46 1_555 1_555
H28 C47 1_555 1_555
C48 N7 1_555 1_555
C49 N8 1_555 1_555
C50 C49 1_555 1_555
H29 C50 1_555 1_555
C51 C50 1_555 1_555
H30 C51 1_555 1_555
C52 C51 1_555 1_555
H31 C52 1_555 1_555
C53 C52 1_555 1_555
H32 C53 1_555 1_555
C54 C49 1_555 1_555
C55 C54 1_555 1_555
C56 C55 1_555 1_555
H33 C56 1_555 1_555
C57 C56 1_555 1_555
H34 C57 1_555 1_555
C58 C57 1_555 1_555
H35 C58 1_555 1_555
C59 C58 1_555 1_555
H36 C59 1_555 1_555
C60 N8 1_555 1_555
O1 H37 1_555 1_555
H37A O1 1_555 1_555
C5 C6 1_555 1_555
C11 C12 1_555 1_555
C13 C18 1_555 1_555
C17 C18 1_555 1_555
C23 C24 1_555 1_555
C25 C30 1_555 1_555
C29 C30 1_555 1_555
C32 N6 1_555 1_555
C35 C36 1_555 1_555
C41 C42 1_555 1_555
C43 C48 1_555 1_555
C47 C48 1_555 1_555
C53 C54 1_555 1_555
C55 C60 1_555 1_555
C59 C60 1_555 1_555

#END
