
#######################################################################
#
#                 Cambridge Crystallographic Data Centre
#                                CCDC 
#
#######################################################################
#
# If this CIF has been generated from an entry in the Cambridge 
# Structural Database, then it will include bibliographic, chemical, 
# crystal, experimental, refinement or atomic coordinate data resulting 
# from the CCDC's data processing and validation procedures.
#
#######################################################################

data_KAQFOY
_chemical_formula_moiety         'C11 H12 Br1 N1 O3'
_chemical_name_systematic        
(R)-N-(p-Bromobenzyl)-5-hydroxymethyloxazolidin-2-one
_symmetry_cell_setting           monoclinic
_symmetry_space_group_name_H-M   'P 21'
_symmetry_Int_Tables_number      4
_space_group_name_Hall           'P 2yb'
loop_
_symmetry_equiv_pos_site_id
_symmetry_equiv_pos_as_xyz
1 x,y,z
2 -x,1/2+y,-z
_cell_length_a                   6.066(1)
_cell_length_b                   4.8819(9)
_cell_length_c                   19.225(2)
_cell_angle_alpha                90
_cell_angle_beta                 95.91(1)
_cell_angle_gamma                90
_cell_volume                     566.296
_exptl_crystal_colour            colorless
_exptl_crystal_description       plate
_chemical_melting_point          '109-110 deg.C'
_cell_formula_units_Z            2
loop_
_atom_site_label
_atom_site_type_symbol
_atom_site_fract_x
_atom_site_fract_y
_atom_site_fract_z
Br1 Br 0.91572(7) -0.741(6) 0.56226(2)
O1 O 0.4047(5) 0.034(6) 0.9159(2)
O2 O 0.1799(5) -0.191(6) 0.8351(2)
O3 O 0.8240(5) -0.203(6) 0.9141(2)
N1 N 0.4614(6) 0.082(6) 0.8047(2)
C1 C 0.3351(7) -0.036(6) 0.8488(2)
C2 C 0.6182(8) 0.271(6) 0.8392(2)
C3 C 0.6026(8) 0.202(6) 0.9168(2)
C4 C 0.7947(9) 0.041(6) 0.9504(3)
C5 C 0.4024(8) 0.079(6) 0.7300(2)
C6 C 0.5276(7) -0.125(6) 0.6907(2)
C7 C 0.4388(6) -0.219(6) 0.6248(2)
C8 C 0.5532(8) -0.404(6) 0.5865(2)
C9 C 0.7586(7) -0.491(6) 0.6147(2)
C10 C 0.8523(7) -0.404(6) 0.6797(2)
C11 C 0.7334(7) -0.222(7) 0.7170(2)
H1 H 0.7621 0.2520 0.8258
H2 H 0.5733 0.4647 0.8287
H3 H 0.5836 0.3715 0.9435
H4 H 0.7749 0.0095 0.9975
H5 H 0.9273 0.1582 0.9495
H6 H 0.2476 0.0475 0.7205
H7 H 0.4289 0.2649 0.7114
H8 H 0.2972 -0.1433 0.6059
H9 H 0.4886 -0.4643 0.5428
H10 H 0.9952 -0.4581 0.6981
H11 H 0.7956 -0.1577 0.7624
H12 H 0.9567 -0.2326 0.8953
loop_
_geom_bond_atom_site_label_1
_geom_bond_atom_site_label_2
_geom_bond_site_symmetry_1
_geom_bond_site_symmetry_2
Br1 C9 1_555 1_555
O1 C1 1_555 1_555
O2 C1 1_555 1_555
O3 C4 1_555 1_555
N1 C1 1_555 1_555
C2 N1 1_555 1_555
C3 O1 1_555 1_555
C4 C3 1_555 1_555
C5 N1 1_555 1_555
C6 C5 1_555 1_555
C7 C6 1_555 1_555
C8 C7 1_555 1_555
C9 C8 1_555 1_555
C10 C9 1_555 1_555
C11 C6 1_555 1_555
H1 C2 1_555 1_555
H2 C2 1_555 1_555
H3 C3 1_555 1_555
H4 C4 1_555 1_555
H5 C4 1_555 1_555
H6 C5 1_555 1_555
H7 C5 1_555 1_555
H8 C7 1_555 1_555
H9 C8 1_555 1_555
H10 C10 1_555 1_555
H11 C11 1_555 1_555
H12 O3 1_555 1_555
C2 C3 1_555 1_555
C10 C11 1_555 1_555

#END
