
#######################################################################
#
#                 Cambridge Crystallographic Data Centre
#                                CCDC 
#
#######################################################################
#
# If this CIF has been generated from an entry in the Cambridge 
# Structural Database, then it will include bibliographic, chemical, 
# crystal, experimental, refinement or atomic coordinate data resulting 
# from the CCDC's data processing and validation procedures.
#
#######################################################################

data_KAQFUG
_chemical_formula_moiety         'C60 H57 Cl1 N4 O9,0.38(C1 H2 Cl2)'
_chemical_name_systematic        
'bis(diphenylmethyl) 7,9-di-t-butyl-1-(2-chlorophenyl)-4-(2-(2-(2,4-dinitrophenyl)hydrazinylidene)ethyl)-8-oxospiro[4.5]deca-6,9-diene-2,2-dicarboxylate'
_symmetry_cell_setting           monoclinic
_symmetry_space_group_name_H-M   'C 2'
_symmetry_Int_Tables_number      5
_space_group_name_Hall           'C 2y'
loop_
_symmetry_equiv_pos_site_id
_symmetry_equiv_pos_as_xyz
1 x,y,z
2 -x,y,-z
3 1/2+x,1/2+y,z
4 1/2-x,1/2+y,-z
_cell_length_a                   33.030(3)
_cell_length_b                   14.5141(15)
_cell_length_c                   23.743(2)
_cell_angle_alpha                90
_cell_angle_beta                 106.097(2)
_cell_angle_gamma                90
_cell_volume                     10936.1
_exptl_crystal_colour            yellow
_exptl_crystal_description       Block
_cell_formula_units_Z            8
loop_
_atom_site_label
_atom_site_type_symbol
_atom_site_fract_x
_atom_site_fract_y
_atom_site_fract_z
C1 C 0.8820(4) 0.2723(4) 0.3895(5)
C2 C 0.8857(4) 0.2112(7) 0.3461(4)
H1 H 0.8810 0.2320 0.3069
C3 C 0.8962(4) 0.1197(6) 0.3601(5)
H2 H 0.8987 0.0779 0.3305
C4 C 0.9030(4) 0.0893(5) 0.4175(6)
H3 H 0.9102 0.0267 0.4271
C5 C 0.8993(4) 0.1504(7) 0.4609(4)
H4 H 0.9040 0.1296 0.5001
C6 C 0.8888(4) 0.2419(7) 0.4469(4)
H5 H 0.8862 0.2837 0.4765
Cl1 Cl 0.88298(5) 0.27949(12) 0.19425(9)
O1 O 0.82916(12) 0.5620(3) 0.22610(17)
O2 O 0.75956(13) 0.5854(3) 0.19370(18)
O3 O 0.84091(12) 0.3723(3) 0.31715(17)
O4 O 0.80949(14) 0.4998(3) 0.33718(18)
O5 O 0.62056(18) 0.3352(4) 0.4272(2)
O6 O 0.6317(2) 0.4252(5) 0.5024(3)
O7 O 0.7687(2) 0.4028(4) 0.6407(2)
O8 O 0.8227(3) 0.3791(5) 0.6085(3)
O9 O 0.74103(18) 0.1197(3) 0.04261(19)
N1 N 0.70014(16) 0.3184(3) 0.3285(2)
N2 N 0.68154(17) 0.3304(3) 0.3735(2)
H6 H 0.6573(12) 0.307(4) 0.367(3)
N3 N 0.6445(2) 0.3782(4) 0.4680(3)
N4 N 0.7844(3) 0.3879(4) 0.6011(3)
C7 C 0.78567(17) 0.4395(4) 0.2395(2)
C8 C 0.74068(18) 0.4179(4) 0.2420(2)
H7 H 0.7361 0.4393 0.2793
H8 H 0.7196 0.4473 0.2090
C9 C 0.73795(17) 0.3135(4) 0.2373(2)
H9 H 0.7565 0.2867 0.2743
C10 C 0.75765(17) 0.2909(4) 0.1863(2)
C11 C 0.79700(18) 0.3599(4) 0.2014(2)
H10 H 0.8207 0.3252 0.2284
C12 C 0.81214(19) 0.3854(4) 0.1488(3)
C13 C 0.7891(2) 0.4440(4) 0.1047(2)
H11 H 0.7633 0.4692 0.1081
C14 C 0.8028(3) 0.4661(5) 0.0563(3)
H12 H 0.7868 0.5068 0.0271
C15 C 0.8398(3) 0.4283(6) 0.0508(3)
H13 H 0.8489 0.4419 0.0171
C16 C 0.8635(3) 0.3717(6) 0.0929(4)
H14 H 0.8892 0.3469 0.0889
C17 C 0.8499(2) 0.3504(4) 0.1414(3)
C18 C 0.78937(18) 0.5366(4) 0.2165(2)
C19 C 0.8372(2) 0.6581(4) 0.2114(3)
H15 H 0.8123 0.6807 0.1800
C20 C 0.8752(2) 0.6585(6) 0.1879(3)
C21 C 0.8920(3) 0.5807(8) 0.1720(5)
H16 H 0.8819 0.5219 0.1795
C22 C 0.9243(4) 0.5880(9) 0.1443(6)
H17 H 0.9343 0.5343 0.1297
C23 C 0.9410(3) 0.6709(10) 0.1382(5)
H18 H 0.9644 0.6747 0.1223
C24 C 0.9247(3) 0.7497(10) 0.1549(5)
H19 H 0.9362 0.8083 0.1502
C25 C 0.8925(3) 0.7426(8) 0.1776(4)
H20 H 0.8804 0.7977 0.1874
C26 C 0.8421(2) 0.7164(5) 0.2650(3)
C27 C 0.8705(2) 0.6916(6) 0.3179(3)
H21 H 0.8860 0.6359 0.3204
C28 C 0.8766(3) 0.7475(7) 0.3673(4)
H22 H 0.8956 0.7291 0.4034
C29 C 0.8551(3) 0.8287(7) 0.3638(4)
H23 H 0.8602 0.8678 0.3971
C30 C 0.8261(4) 0.8545(5) 0.3120(5)
H24 H 0.8107 0.9103 0.3100
C31 C 0.8195(3) 0.7969(5) 0.2621(3)
H25 H 0.7994 0.8138 0.2266
C32 C 0.81340(17) 0.4427(4) 0.3033(2)
C33 C 0.8695(2) 0.3736(4) 0.3765(3)
H26 H 0.8535 0.3947 0.4043
C34 C 0.9049(2) 0.4417(5) 0.3785(3)
C35 C 0.9236(2) 0.4485(7) 0.3323(4)
H27 H 0.9145 0.4088 0.2995
C36 C 0.9551(3) 0.5117(8) 0.3338(5)
H28 H 0.9676 0.5164 0.3024
C37 C 0.9680(3) 0.5691(8) 0.3832(5)
H29 H 0.9893 0.6137 0.3849
C38 C 0.9509(3) 0.5624(7) 0.4284(4)
H30 H 0.9612 0.6001 0.4621
C39 C 0.9187(2) 0.5015(6) 0.4263(3)
H31 H 0.9058 0.5000 0.4573
C40 C 0.69336(18) 0.2764(4) 0.2285(2)
H32 H 0.6743 0.3068 0.1938
H33 H 0.6933 0.2096 0.2201
C41 C 0.67626(19) 0.2910(4) 0.2801(2)
H34 H 0.6473 0.2796 0.2765
C42 C 0.7062(2) 0.3516(4) 0.4278(3)
C43 C 0.6891(3) 0.3714(4) 0.4754(3)
C44 C 0.7153(3) 0.3846(5) 0.5313(3)
H35 H 0.7038 0.3973 0.5629
C45 C 0.7582(3) 0.3794(5) 0.5407(3)
C46 C 0.7759(3) 0.3665(5) 0.4952(3)
H36 H 0.8056 0.3665 0.5023
C47 C 0.7502(2) 0.3538(4) 0.4397(3)
H37 H 0.7626 0.3463 0.4083
C48 C 0.77611(18) 0.1968(4) 0.1893(2)
H38 H 0.7918 0.1752 0.2268
C49 C 0.77243(18) 0.1403(4) 0.1440(2)
C50 C 0.7427(2) 0.1659(4) 0.0864(2)
C51 C 0.71688(18) 0.2506(4) 0.0831(2)
C52 C 0.72564(18) 0.3081(4) 0.1284(2)
H39 H 0.7105 0.3646 0.1238
C53 C 0.7973(2) 0.0498(4) 0.1480(2)
C54 C 0.8263(2) 0.0360(5) 0.2097(3)
H40 H 0.8094 0.0333 0.2377
H41 H 0.8461 0.0876 0.2198
H42 H 0.8419 -0.0217 0.2113
C55 C 0.8255(2) 0.0537(5) 0.1060(3)
H43 H 0.8421 -0.0030 0.1097
H44 H 0.8445 0.1068 0.1160
H45 H 0.8078 0.0599 0.0655
C56 C 0.7676(2) -0.0338(4) 0.1318(3)
H46 H 0.7842 -0.0894 0.1307
H47 H 0.7476 -0.0238 0.0933
H48 H 0.7521 -0.0414 0.1613
C57 C 0.6815(2) 0.2673(4) 0.0265(3)
C58 C 0.6992(2) 0.2806(6) -0.0260(3)
H49 H 0.7125 0.2232 -0.0335
H50 H 0.7202 0.3300 -0.0175
H51 H 0.6763 0.2969 -0.0606
C59 C 0.6512(2) 0.1845(6) 0.0146(3)
H52 H 0.6664 0.1291 0.0084
H53 H 0.6279 0.1966 -0.0204
H54 H 0.6400 0.1751 0.0484
C60 C 0.6563(3) 0.3533(6) 0.0323(4)
H55 H 0.6317 0.3583 -0.0019
H56 H 0.6741 0.4080 0.0346
H57 H 0.6470 0.3487 0.0679
C61 C 0.5559(4) 0.6246(8) 0.3702(6)
H58 H 0.5760 0.5883 0.4016
C62 C 0.5162(2) 0.5633(4) 0.3556(4)
C63 C 0.4853(2) 0.5983(6) 0.3082(4)
H59 H 0.4895 0.6559 0.2916
C64 C 0.4483(3) 0.5491(7) 0.2851(5)
H60 H 0.4272 0.5731 0.2526
C65 C 0.4422(3) 0.4649(7) 0.3094(6)
H61 H 0.4169 0.4313 0.2936
C66 C 0.4731(4) 0.4299(6) 0.3568(6)
H62 H 0.4689 0.3724 0.3735
C67 C 0.5101(3) 0.4791(5) 0.3800(5)
H63 H 0.5312 0.4551 0.4124
C68 C 0.5596(2) 0.7217(4) 0.3975(3)
C69 C 0.5224(2) 0.7581(5) 0.4042(4)
H64 H 0.4987 0.7191 0.4012
C70 C 0.5196(3) 0.8516(5) 0.4154(5)
H65 H 0.4941 0.8765 0.4200
C71 C 0.5542(3) 0.9086(4) 0.4199(5)
H66 H 0.5523 0.9725 0.4275
C72 C 0.5915(3) 0.8722(4) 0.4131(5)
H67 H 0.6151 0.9112 0.4161
C73 C 0.5942(2) 0.7787(4) 0.4019(4)
H68 H 0.6197 0.7538 0.3973
Cl2 Cl 0.53668(7) 0.81542(18) 0.24733(11)
O10 O 0.57154(14) 0.4721(4) 0.2276(2)
O11 O 0.63094(13) 0.4651(3) 0.19929(19)
O12 O 0.57527(16) 0.6207(4) 0.3238(2)
O13 O 0.62192(16) 0.5080(4) 0.3587(2)
O14 O 0.85807(17) 0.6325(5) 0.4977(2)
O15 O 0.87275(19) 0.6042(5) 0.5904(3)
O16 O 0.7693(2) 0.6000(4) 0.6941(2)
O17 O 0.7038(3) 0.5759(7) 0.6455(3)
O18 O 0.63499(19) 0.8822(3) 0.07809(19)
N5 N 0.74714(15) 0.6708(3) 0.3861(2)
N6 N 0.77983(16) 0.6505(4) 0.4344(2)
H69 H 0.8053(11) 0.652(5) 0.433(3)
N7 N 0.8472(2) 0.6182(4) 0.5431(3)
N8 N 0.7406(3) 0.5933(5) 0.6493(3)
C74 C 0.62280(18) 0.5823(4) 0.2683(2)
C75 C 0.67121(17) 0.5920(4) 0.2884(2)
H70 H 0.6825 0.5703 0.3292
H71 H 0.6842 0.5552 0.2628
C76 C 0.68075(18) 0.6941(4) 0.2839(2)
H72 H 0.6748 0.7264 0.3179
C77 C 0.64702(19) 0.7254(4) 0.2273(2)
C78 C 0.60707(19) 0.6787(5) 0.2383(3)
H73 H 0.6004 0.7165 0.2698
C79 C 0.5677(2) 0.6837(5) 0.1868(3)
C80 C 0.5629(2) 0.6348(5) 0.1350(3)
H74 H 0.5850 0.5946 0.1323
C81 C 0.5280(2) 0.6415(6) 0.0877(4)
H75 H 0.5261 0.6063 0.0533
C82 C 0.4957(3) 0.7001(7) 0.0908(4)
H76 H 0.4710 0.7042 0.0587
C83 C 0.4989(3) 0.7512(8) 0.1390(5)
H77 H 0.4768 0.7920 0.1407
C84 C 0.5350(2) 0.7446(6) 0.1868(4)
C85 C 0.61003(18) 0.4996(4) 0.2275(3)
C86 C 0.5537(2) 0.3949(6) 0.1893(3)
H78 H 0.5727 0.3796 0.1644
C87 C 0.5111(2) 0.4274(6) 0.1500(4)
C88 C 0.4988(3) 0.4010(7) 0.0921(4)
H79 H 0.5169 0.3632 0.0771
C89 C 0.4599(3) 0.4290(8) 0.0549(4)
H80 H 0.4515 0.4112 0.0148
C90 C 0.4342(3) 0.4834(7) 0.0783(5)
H81 H 0.4073 0.5016 0.0544
C91 C 0.4470(3) 0.5110(7) 0.1347(5)
H82 H 0.4295 0.5507 0.1497
C92 C 0.4848(2) 0.4822(7) 0.1705(4)
H83 H 0.4929 0.5008 0.2104
C93 C 0.5513(2) 0.3122(6) 0.2279(4)
C94 C 0.5451(3) 0.2266(6) 0.2024(5)
H84 H 0.5431 0.2201 0.1619
C95 C 0.5417(3) 0.1511(7) 0.2346(5)
H85 H 0.5369 0.0925 0.2162
C96 C 0.5450(3) 0.1585(7) 0.2943(5)
H86 H 0.5416 0.1057 0.3161
C97 C 0.5533(3) 0.2413(8) 0.3208(5)
H87 H 0.5577 0.2465 0.3619
C98 C 0.5552(3) 0.3195(7) 0.2871(5)
H88 H 0.5592 0.3783 0.3053
C99 C 0.6068(2) 0.5642(5) 0.3217(3)
C100 C 0.72587(19) 0.7148(4) 0.2848(2)
H89 H 0.7324 0.6813 0.2520
H90 H 0.7284 0.7815 0.2778
C101 C 0.75779(19) 0.6895(4) 0.3400(2)
H91 H 0.7867 0.6873 0.3409
C102 C 0.7713(2) 0.6331(4) 0.4869(3)
C103 C 0.8030(2) 0.6207(4) 0.5395(3)
C104 C 0.7921(3) 0.6084(4) 0.5932(3)
H92 H 0.8136 0.6012 0.6290
C105 C 0.7517(3) 0.6070(5) 0.5931(3)
C106 C 0.7199(3) 0.6155(5) 0.5411(3)
H93 H 0.6913 0.6121 0.5417
C107 C 0.7291(2) 0.6285(4) 0.4897(3)
H94 H 0.7068 0.6346 0.4547
C108 C 0.65644(18) 0.6883(4) 0.1730(2)
H95 H 0.6650 0.6257 0.1733
C109 C 0.65352(19) 0.7377(4) 0.1245(2)
C110 C 0.6418(2) 0.8366(4) 0.1237(3)
C111 C 0.6381(2) 0.8795(4) 0.1792(3)
C112 C 0.6415(2) 0.8271(4) 0.2257(3)
H96 H 0.6404 0.8567 0.2609
C113 C 0.6613(2) 0.6958(4) 0.0692(3)
C114 C 0.6718(2) 0.5931(5) 0.0770(3)
H97 H 0.6768 0.5688 0.0411
H98 H 0.6481 0.5601 0.0852
H99 H 0.6971 0.5846 0.1098
C115 C 0.6214(2) 0.7041(5) 0.0168(3)
H100 H 0.6126 0.7688 0.0115
H101 H 0.5986 0.6672 0.0245
H102 H 0.6276 0.6815 -0.0188
C116 C 0.6986(2) 0.7451(6) 0.0557(3)
H103 H 0.7236 0.7393 0.0893
H104 H 0.6918 0.8104 0.0480
H105 H 0.7043 0.7170 0.0211
C117 C 0.6308(3) 0.9850(5) 0.1793(3)
C118 C 0.5856(4) 1.0041(6) 0.1387(4)
H106 H 0.5784 1.0689 0.1421
H107 H 0.5653 0.9647 0.1505
H108 H 0.5849 0.9906 0.0980
C119 C 0.6635(4) 1.0380(6) 0.1602(4)
H109 H 0.6572 1.1040 0.1601
H110 H 0.6634 1.0187 0.1206
H111 H 0.6913 1.0261 0.1873
C120 C 0.6317(3) 1.0172(5) 0.2411(3)
H112 H 0.6593 1.0032 0.2682
H113 H 0.6097 0.9852 0.2539
H114 H 0.6267 1.0838 0.2407
Cl3 Cl 0.4695(3) 0.9568(8) 0.0359(5)
C121 C 0.5000 0.896(3) 0.0000
Cl3A Cl 0.5305(3) 0.9568(8) -0.0359(5)
C122? C 0.8854(4) 0.2750(5) 0.3918(5)
C123? C 0.8672(4) 0.2012(7) 0.3566(5)
H115? H 0.8452 0.2116 0.3218
C124? C 0.8814(4) 0.1121(6) 0.3721(6)
H116? H 0.8690 0.0616 0.3480
C125? C 0.9137(4) 0.0968(5) 0.4230(6)
H117? H 0.9234 0.0359 0.4337
C126? C 0.9319(4) 0.1707(7) 0.4583(5)
H118? H 0.9540 0.1602 0.4931
C127? C 0.9177(4) 0.2598(6) 0.4427(5)
H119? H 0.9301 0.3102 0.4668
C128? C 0.5600(2) 0.6078(4) 0.3720(4)
H120? H 0.5863 0.5931 0.4036
C129? C 0.5310(5) 0.5286(9) 0.3780(8)
C130? C 0.4982(6) 0.5310(11) 0.3266(8)
H121? H 0.4969 0.5789 0.2989
C131? C 0.4672(5) 0.4632(15) 0.3157(7)
H122? H 0.4448 0.4648 0.2806
C132? C 0.4691(5) 0.3931(12) 0.3563(9)
H123? H 0.4479 0.3468 0.3488
C133? C 0.5019(6) 0.3908(10) 0.4077(8)
H124? H 0.5032 0.3429 0.4354
C134? C 0.5328(5) 0.4585(12) 0.4186(7)
H125? H 0.5553 0.4569 0.4537
C135? C 0.5495(5) 0.7043(7) 0.3896(6)
C136? C 0.5140(4) 0.7220(8) 0.4085(7)
H126? H 0.4938 0.6748 0.4069
C137? C 0.5082(4) 0.8087(9) 0.4298(7)
H127? H 0.4839 0.8208 0.4427
C138? C 0.5378(4) 0.8777(7) 0.4321(6)
H128? H 0.5338 0.9370 0.4467
C139? C 0.5732(4) 0.8600(8) 0.4132(6)
H129? H 0.5935 0.9072 0.4148
C140? C 0.5791(4) 0.7733(9) 0.3919(6)
H130? H 0.6033 0.7612 0.3790
Cl4? Cl 0.5000 1.1944(12) 0.0000
Cl5? Cl 0.5000 1.0107(12) 0.0000
C141? C 0.4680(15) 1.104(2) 0.005(4)
C142? C 0.4871(13) 0.328(5) 0.479(3)
Cl6? Cl 0.5356(3) 0.2781(8) 0.4780(4)
loop_
_geom_bond_atom_site_label_1
_geom_bond_atom_site_label_2
_geom_bond_site_symmetry_1
_geom_bond_site_symmetry_2
C1 C2 1_555 1_555
C2 H1 1_555 1_555
C3 C2 1_555 1_555
H2 C3 1_555 1_555
C4 C3 1_555 1_555
H3 C4 1_555 1_555
C5 C4 1_555 1_555
H4 C5 1_555 1_555
C6 C1 1_555 1_555
H5 C6 1_555 1_555
Cl1 C17 1_555 1_555
O1 C18 1_555 1_555
O2 C18 1_555 1_555
O3 C32 1_555 1_555
O4 C32 1_555 1_555
O5 N3 1_555 1_555
O6 N3 1_555 1_555
O7 N4 1_555 1_555
O8 N4 1_555 1_555
O9 C50 1_555 1_555
N1 N2 1_555 1_555
N2 H6 1_555 1_555
N3 C43 1_555 1_555
N4 C45 1_555 1_555
C7 C8 1_555 1_555
C8 H7 1_555 1_555
H8 C8 1_555 1_555
C9 C8 1_555 1_555
H9 C9 1_555 1_555
C10 C9 1_555 1_555
C11 C7 1_555 1_555
H10 C11 1_555 1_555
C12 C11 1_555 1_555
C13 C12 1_555 1_555
H11 C13 1_555 1_555
C14 C13 1_555 1_555
H12 C14 1_555 1_555
C15 C14 1_555 1_555
H13 C15 1_555 1_555
C16 C15 1_555 1_555
H14 C16 1_555 1_555
C17 C12 1_555 1_555
C18 C7 1_555 1_555
C19 O1 1_555 1_555
H15 C19 1_555 1_555
C20 C19 1_555 1_555
C21 C20 1_555 1_555
H16 C21 1_555 1_555
C22 C21 1_555 1_555
H17 C22 1_555 1_555
C23 C22 1_555 1_555
H18 C23 1_555 1_555
C24 C23 1_555 1_555
H19 C24 1_555 1_555
C25 C20 1_555 1_555
H20 C25 1_555 1_555
C26 C19 1_555 1_555
C27 C26 1_555 1_555
H21 C27 1_555 1_555
C28 C27 1_555 1_555
H22 C28 1_555 1_555
C29 C28 1_555 1_555
H23 C29 1_555 1_555
C30 C29 1_555 1_555
H24 C30 1_555 1_555
C31 C26 1_555 1_555
H25 C31 1_555 1_555
C32 C7 1_555 1_555
C33 C1 1_555 1_555
H26 C33 1_555 1_555
C34 C33 1_555 1_555
C35 C34 1_555 1_555
H27 C35 1_555 1_555
C36 C35 1_555 1_555
H28 C36 1_555 1_555
C37 C36 1_555 1_555
H29 C37 1_555 1_555
C38 C37 1_555 1_555
H30 C38 1_555 1_555
C39 C34 1_555 1_555
H31 C39 1_555 1_555
C40 C9 1_555 1_555
H32 C40 1_555 1_555
H33 C40 1_555 1_555
C41 N1 1_555 1_555
H34 C41 1_555 1_555
C42 N2 1_555 1_555
C43 C42 1_555 1_555
C44 C43 1_555 1_555
H35 C44 1_555 1_555
C45 C44 1_555 1_555
C46 C45 1_555 1_555
H36 C46 1_555 1_555
C47 C42 1_555 1_555
H37 C47 1_555 1_555
C48 C10 1_555 1_555
H38 C48 1_555 1_555
C49 C48 1_555 1_555
C50 C49 1_555 1_555
C51 C50 1_555 1_555
C52 C10 1_555 1_555
H39 C52 1_555 1_555
C53 C49 1_555 1_555
C54 C53 1_555 1_555
H40 C54 1_555 1_555
H41 C54 1_555 1_555
H42 C54 1_555 1_555
C55 C53 1_555 1_555
H43 C55 1_555 1_555
H44 C55 1_555 1_555
H45 C55 1_555 1_555
C56 C53 1_555 1_555
H46 C56 1_555 1_555
H47 C56 1_555 1_555
H48 C56 1_555 1_555
C57 C51 1_555 1_555
C58 C57 1_555 1_555
H49 C58 1_555 1_555
H50 C58 1_555 1_555
H51 C58 1_555 1_555
C59 C57 1_555 1_555
H52 C59 1_555 1_555
H53 C59 1_555 1_555
H54 C59 1_555 1_555
C60 C57 1_555 1_555
H55 C60 1_555 1_555
H56 C60 1_555 1_555
H57 C60 1_555 1_555
C61 H58 1_555 1_555
C62 C61 1_555 1_555
C63 C62 1_555 1_555
H59 C63 1_555 1_555
C64 C63 1_555 1_555
H60 C64 1_555 1_555
C65 C64 1_555 1_555
H61 C65 1_555 1_555
C66 C65 1_555 1_555
H62 C66 1_555 1_555
C67 C62 1_555 1_555
H63 C67 1_555 1_555
C68 C61 1_555 1_555
C69 C68 1_555 1_555
H64 C69 1_555 1_555
C70 C69 1_555 1_555
H65 C70 1_555 1_555
C71 C70 1_555 1_555
H66 C71 1_555 1_555
C72 C71 1_555 1_555
H67 C72 1_555 1_555
C73 C68 1_555 1_555
H68 C73 1_555 1_555
Cl2 C84 1_555 1_555
O10 C85 1_555 1_555
O11 C85 1_555 1_555
O12 C61 1_555 1_555
O13 C99 1_555 1_555
O14 N7 1_555 1_555
O15 N7 1_555 1_555
O16 N8 1_555 1_555
O17 N8 1_555 1_555
O18 C110 1_555 1_555
N5 N6 1_555 1_555
N6 H69 1_555 1_555
N7 C103 1_555 1_555
N8 C105 1_555 1_555
C74 C75 1_555 1_555
C75 H70 1_555 1_555
H71 C75 1_555 1_555
C76 C75 1_555 1_555
H72 C76 1_555 1_555
C77 C76 1_555 1_555
C78 C74 1_555 1_555
H73 C78 1_555 1_555
C79 C78 1_555 1_555
C80 C79 1_555 1_555
H74 C80 1_555 1_555
C81 C80 1_555 1_555
H75 C81 1_555 1_555
C82 C81 1_555 1_555
H76 C82 1_555 1_555
C83 C82 1_555 1_555
H77 C83 1_555 1_555
C84 C79 1_555 1_555
C85 C74 1_555 1_555
C86 O10 1_555 1_555
H78 C86 1_555 1_555
C87 C86 1_555 1_555
C88 C87 1_555 1_555
H79 C88 1_555 1_555
C89 C88 1_555 1_555
H80 C89 1_555 1_555
C90 C89 1_555 1_555
H81 C90 1_555 1_555
C91 C90 1_555 1_555
H82 C91 1_555 1_555
C92 C87 1_555 1_555
H83 C92 1_555 1_555
C93 C86 1_555 1_555
C94 C93 1_555 1_555
H84 C94 1_555 1_555
C95 C94 1_555 1_555
H85 C95 1_555 1_555
C96 C95 1_555 1_555
H86 C96 1_555 1_555
C97 C96 1_555 1_555
H87 C97 1_555 1_555
C98 C93 1_555 1_555
H88 C98 1_555 1_555
C99 O12 1_555 1_555
C100 C76 1_555 1_555
H89 C100 1_555 1_555
H90 C100 1_555 1_555
C101 N5 1_555 1_555
H91 C101 1_555 1_555
C102 N6 1_555 1_555
C103 C102 1_555 1_555
C104 C103 1_555 1_555
H92 C104 1_555 1_555
C105 C104 1_555 1_555
C106 C105 1_555 1_555
H93 C106 1_555 1_555
C107 C102 1_555 1_555
H94 C107 1_555 1_555
C108 C77 1_555 1_555
H95 C108 1_555 1_555
C109 C108 1_555 1_555
C110 C109 1_555 1_555
C111 C110 1_555 1_555
C112 C77 1_555 1_555
H96 C112 1_555 1_555
C113 C109 1_555 1_555
C114 C113 1_555 1_555
H97 C114 1_555 1_555
H98 C114 1_555 1_555
H99 C114 1_555 1_555
C115 C113 1_555 1_555
H100 C115 1_555 1_555
H101 C115 1_555 1_555
H102 C115 1_555 1_555
C116 C113 1_555 1_555
H103 C116 1_555 1_555
H104 C116 1_555 1_555
H105 C116 1_555 1_555
C117 C111 1_555 1_555
C118 C117 1_555 1_555
H106 C118 1_555 1_555
H107 C118 1_555 1_555
H108 C118 1_555 1_555
C119 C117 1_555 1_555
H109 C119 1_555 1_555
H110 C119 1_555 1_555
H111 C119 1_555 1_555
C120 C117 1_555 1_555
H112 C120 1_555 1_555
H113 C120 1_555 1_555
H114 C120 1_555 1_555
Cl3 C121 1_555 1_555
C121 Cl3A 1_555 1_555
C5 C6 1_555 1_555
O3 C33 1_555 1_555
C10 C11 1_555 1_555
C16 C17 1_555 1_555
C24 C25 1_555 1_555
C30 C31 1_555 1_555
C38 C39 1_555 1_555
C40 C41 1_555 1_555
C46 C47 1_555 1_555
C51 C52 1_555 1_555
C66 C67 1_555 1_555
C72 C73 1_555 1_555
C74 C99 1_555 1_555
C77 C78 1_555 1_555
C83 C84 1_555 1_555
C91 C92 1_555 1_555
C97 C98 1_555 1_555
C100 C101 1_555 1_555
C106 C107 1_555 1_555
C111 C112 1_555 1_555

#END
