
#######################################################################
#
#                 Cambridge Crystallographic Data Centre
#                                CCDC 
#
#######################################################################
#
# If this CIF has been generated from an entry in the Cambridge 
# Structural Database, then it will include bibliographic, chemical, 
# crystal, experimental, refinement or atomic coordinate data resulting 
# from the CCDC's data processing and validation procedures.
#
#######################################################################

data_KAQRUS
_chemical_formula_moiety         'C18 H19 O5 P1'
_chemical_name_systematic        
2-(2-t-butyl-4-methoxyphenoxy)-2H,4H-1,3,2-benzodioxaphosphinin-4-one
_symmetry_cell_setting           monoclinic
_symmetry_space_group_name_H-M   'P 21/c'
_symmetry_Int_Tables_number      14
_space_group_name_Hall           '-P 2ybc'
loop_
_symmetry_equiv_pos_site_id
_symmetry_equiv_pos_as_xyz
1 x,y,z
2 -x,1/2+y,1/2-z
3 -x,-y,-z
4 x,1/2-y,1/2+z
_cell_length_a                   7.9973(3)
_cell_length_b                   11.7658(5)
_cell_length_c                   18.4161(7)
_cell_angle_alpha                90
_cell_angle_beta                 93.7246(8)
_cell_angle_gamma                90
_cell_volume                     1729.2
_exptl_crystal_colour            'pale yellow'
_exptl_crystal_description       prism
_cell_formula_units_Z            4
loop_
_atom_site_label
_atom_site_type_symbol
_atom_site_fract_x
_atom_site_fract_y
_atom_site_fract_z
C1 C 0.77436(17) 0.41863(12) 0.03107(7)
C2 C 0.81163(17) 0.54077(11) 0.03877(7)
C3 C 0.93245(16) 0.58257(12) 0.08989(7)
C4 C 0.96968(18) 0.69738(12) 0.09406(8)
H1 H 1.0527 0.7249 0.1289
C5 C 0.88381(19) 0.77133(12) 0.04659(8)
H2 H 0.9088 0.8502 0.0488
C6 C 0.76149(19) 0.73171(13) -0.00423(8)
H3 H 0.7027 0.7835 -0.0362
C7 C 0.72559(17) 0.61737(12) -0.00818(7)
H4 H 0.6420 0.5904 -0.0430
C8 C 0.76995(17) 0.42824(11) 0.26737(7)
C9 C 0.86998(18) 0.51106(12) 0.30208(8)
H5 H 0.9408 0.5567 0.2746
C10 C 0.86722(19) 0.52742(12) 0.37616(8)
H6 H 0.9362 0.5836 0.4000
C11 C 0.76239(18) 0.46074(11) 0.41517(7)
C12 C 0.66101(17) 0.37860(11) 0.38010(7)
H7 H 0.5895 0.3339 0.4079
C13 C 0.66166(16) 0.36008(11) 0.30479(7)
C14 C 0.6739(2) 0.40969(13) 0.53299(8)
H8 H 0.5541 0.4150 0.5183
H9 H 0.6927 0.4329 0.5840
H10 H 0.7115 0.3311 0.5274
C15 C 0.54836(18) 0.26903(13) 0.26710(7)
C16 C 0.4320(2) 0.32425(18) 0.20769(10)
H11 H 0.4993 0.3586 0.1709
H12 H 0.3643 0.3831 0.2294
H13 H 0.3580 0.2663 0.1848
C17 C 0.6539(2) 0.17649(14) 0.23381(9)
H14 H 0.7282 0.1418 0.2720
H15 H 0.7213 0.2102 0.1968
H16 H 0.5799 0.1182 0.2113
C18 C 0.4392(3) 0.20984(19) 0.32099(9)
H17 H 0.3693 0.1523 0.2953
H18 H 0.3673 0.2661 0.3428
H19 H 0.5112 0.1733 0.3593
O1 O 1.02365(12) 0.51028(8) 0.13701(5)
O2 O 0.86643(13) 0.34734(8) 0.07798(5)
O3 O 0.77493(12) 0.41679(8) 0.19156(5)
O4 O 0.67704(14) 0.37754(9) -0.01331(6)
O5 O 0.76567(14) 0.48242(9) 0.48835(5)
P1 P 0.95239(5) 0.38525(3) 0.15743(2)
loop_
_geom_bond_atom_site_label_1
_geom_bond_atom_site_label_2
_geom_bond_site_symmetry_1
_geom_bond_site_symmetry_2
C1 C2 1_555 1_555
C2 C3 1_555 1_555
C3 C4 1_555 1_555
C4 H1 1_555 1_555
C5 C4 1_555 1_555
H2 C5 1_555 1_555
C6 C5 1_555 1_555
H3 C6 1_555 1_555
C7 C2 1_555 1_555
H4 C7 1_555 1_555
C8 C9 1_555 1_555
C9 H5 1_555 1_555
C10 C9 1_555 1_555
H6 C10 1_555 1_555
C11 C10 1_555 1_555
C12 C11 1_555 1_555
H7 C12 1_555 1_555
C13 C8 1_555 1_555
C14 H8 1_555 1_555
H9 C14 1_555 1_555
H10 C14 1_555 1_555
C15 C13 1_555 1_555
C16 C15 1_555 1_555
H11 C16 1_555 1_555
H12 C16 1_555 1_555
H13 C16 1_555 1_555
C17 C15 1_555 1_555
H14 C17 1_555 1_555
H15 C17 1_555 1_555
H16 C17 1_555 1_555
C18 C15 1_555 1_555
H17 C18 1_555 1_555
H18 C18 1_555 1_555
H19 C18 1_555 1_555
O1 C3 1_555 1_555
O2 C1 1_555 1_555
O3 C8 1_555 1_555
O4 C1 1_555 1_555
O5 C11 1_555 1_555
P1 O1 1_555 1_555
C6 C7 1_555 1_555
C12 C13 1_555 1_555
C14 O5 1_555 1_555
O2 P1 1_555 1_555
O3 P1 1_555 1_555

#END
