
#######################################################################
#
#                 Cambridge Crystallographic Data Centre
#                                CCDC 
#
#######################################################################
#
# If this CIF has been generated from an entry in the Cambridge 
# Structural Database, then it will include bibliographic, chemical, 
# crystal, experimental, refinement or atomic coordinate data resulting 
# from the CCDC's data processing and validation procedures.
#
#######################################################################

data_KAQVOO
_chemical_formula_moiety         'C9 H15 N1 O3'
_chemical_name_systematic        
4,4-Dimethoxy-3-isopropylamino-cyclobut-2-enone
_symmetry_cell_setting           monoclinic
_symmetry_space_group_name_H-M   'P 21/n'
_symmetry_Int_Tables_number      14
_space_group_name_Hall           '-P 2yn'
loop_
_symmetry_equiv_pos_site_id
_symmetry_equiv_pos_as_xyz
1 x,y,z
2 1/2-x,1/2+y,1/2-z
3 -x,-y,-z
4 1/2+x,1/2-y,1/2+z
_cell_length_a                   6.8033(10)
_cell_length_b                   12.894(3)
_cell_length_c                   11.207(3)
_cell_angle_alpha                90
_cell_angle_beta                 94.692(19)
_cell_angle_gamma                90
_cell_volume                     979.803
_exptl_crystal_description       lath
_cell_formula_units_Z            4
loop_
_atom_site_label
_atom_site_type_symbol
_atom_site_fract_x
_atom_site_fract_y
_atom_site_fract_z
O1 O 0.55687(9) 0.19551(5) 0.20038(7)
O2 O 0.10765(9) 0.25177(5) 0.08313(5)
O3 O 0.14591(9) 0.29940(5) 0.27710(6)
N1 N -0.07442(10) 0.07590(6) 0.22866(7)
H1 H -0.1687(15) 0.1202(7) 0.22846(7)
C1 C 0.38733(12) 0.16311(6) 0.20657(7)
C2 C 0.29342(12) 0.06539(6) 0.22411(8)
H2 H 0.3419(7) -0.0051(10) 0.23482(17)
C3 C 0.10631(12) 0.10977(6) 0.21998(7)
C4 C 0.18087(11) 0.21929(6) 0.19670(7)
C5 C 0.21348(14) 0.33627(7) 0.03538(8)
H3 H 0.1841 0.4004 0.0774
H4 H 0.1733 0.3439 -0.0501
H5 H 0.3554 0.3223 0.0462
C6 C 0.22546(15) 0.28143(8) 0.39786(8)
H6 H 0.1717 0.2167 0.4273
H7 H 0.1896 0.3391 0.4487
H8 H 0.3694 0.2762 0.4000
C7 C -0.12134(12) -0.03543(6) 0.23875(8)
H9 H 0.0054 -0.0751 0.2458
C8 C -0.22728(13) -0.05513(7) 0.35118(8)
H10 H -0.1424 -0.0337 0.4218
H11 H -0.2575 -0.1292 0.3570
H12 H -0.3501 -0.0151 0.3471
C9 C -0.24130(15) -0.07052(8) 0.12506(9)
H13 H -0.3621 -0.0290 0.1136
H14 H -0.2759 -0.1439 0.1323
H15 H -0.1630 -0.0612 0.0562
loop_
_geom_bond_atom_site_label_1
_geom_bond_atom_site_label_2
_geom_bond_site_symmetry_1
_geom_bond_site_symmetry_2
O1 C1 1_555 1_555
O2 C4 1_555 1_555
O3 C4 1_555 1_555
N1 H1 1_555 1_555
C1 C2 1_555 1_555
C2 H2 1_555 1_555
C3 N1 1_555 1_555
C4 C1 1_555 1_555
C5 O2 1_555 1_555
H3 C5 1_555 1_555
H4 C5 1_555 1_555
H5 C5 1_555 1_555
C6 O3 1_555 1_555
H6 C6 1_555 1_555
H7 C6 1_555 1_555
H8 C6 1_555 1_555
C7 N1 1_555 1_555
H9 C7 1_555 1_555
C8 C7 1_555 1_555
H10 C8 1_555 1_555
H11 C8 1_555 1_555
H12 C8 1_555 1_555
C9 C7 1_555 1_555
H13 C9 1_555 1_555
H14 C9 1_555 1_555
H15 C9 1_555 1_555
C2 C3 1_555 1_555
C3 C4 1_555 1_555

#END
