
#######################################################################
#
#                 Cambridge Crystallographic Data Centre
#                                CCDC 
#
#######################################################################
#
# If this CIF has been generated from an entry in the Cambridge 
# Structural Database, then it will include bibliographic, chemical, 
# crystal, experimental, refinement or atomic coordinate data resulting 
# from the CCDC's data processing and validation procedures.
#
#######################################################################

data_KARJOF
_chemical_formula_moiety         'C31 H35 O2 P1'
_chemical_name_systematic        
'(1-(6-methoxy-3-methyl-1,1-dipropyl-1H-inden-2-yl)vinyl)(diphenyl)phosphine oxide'
_symmetry_cell_setting           triclinic
_symmetry_space_group_name_H-M   'P -1'
_symmetry_Int_Tables_number      2
_space_group_name_Hall           '-P 1'
loop_
_symmetry_equiv_pos_site_id
_symmetry_equiv_pos_as_xyz
1 x,y,z
2 -x,-y,-z
_cell_length_a                   9.0355(9)
_cell_length_b                   11.8863(11)
_cell_length_c                   12.9491(13)
_cell_angle_alpha                77.186(3)
_cell_angle_beta                 83.234(3)
_cell_angle_gamma                89.767(3)
_cell_volume                     1346.29
_exptl_crystal_colour            colorless
_exptl_crystal_description       block
_cell_formula_units_Z            2
loop_
_atom_site_label
_atom_site_type_symbol
_atom_site_fract_x
_atom_site_fract_y
_atom_site_fract_z
C1 C 0.2767(2) 0.08537(15) 0.46212(14)
C2 C 0.3110(2) -0.00147(17) 0.54646(15)
H1 H 0.3000 -0.0787 0.5444
C3 C 0.3614(3) 0.02855(19) 0.63291(15)
H2 H 0.3839 -0.0289 0.6900
C4 C 0.3790(2) 0.14326(19) 0.63617(14)
C5 C 0.3433(2) 0.23095(17) 0.55281(15)
H3 H 0.3536 0.3081 0.5552
C6 C 0.2920(2) 0.19993(15) 0.46602(13)
C7 C 0.2500(2) 0.27774(14) 0.36468(13)
C8 C 0.20609(18) 0.18723(14) 0.30395(12)
C9 C 0.2220(2) 0.07960(15) 0.36114(14)
C10 C 0.4548(3) 0.2771(3) 0.7346(2)
H4 H 0.5285 0.3155 0.6785
H5 H 0.4878 0.2772 0.8024
H6 H 0.3623 0.3167 0.7292
C11 C 0.1151(2) 0.35160(16) 0.38823(16)
H7 H 0.1453 0.4061 0.4280
H8 H 0.0884 0.3959 0.3209
C12 C -0.0227(3) 0.28607(19) 0.44999(19)
H9 H -0.0640 0.2420 0.4051
H10 H 0.0066 0.2317 0.5114
C13 C -0.1423(3) 0.3610(2) 0.4879(2)
H11 H -0.1076 0.3963 0.5407
H12 H -0.2300 0.3146 0.5184
H13 H -0.1656 0.4199 0.4286
C14 C 0.3822(2) 0.35919(15) 0.30847(15)
H14 H 0.3567 0.3988 0.2391
H15 H 0.3919 0.4173 0.3494
C15 C 0.5333(2) 0.30586(17) 0.29200(16)
H16 H 0.5266 0.2490 0.2493
H17 H 0.5612 0.2664 0.3607
C16 C 0.6542(3) 0.3957(2) 0.2367(2)
H18 H 0.6274 0.4349 0.1685
H19 H 0.7474 0.3581 0.2269
H20 H 0.6639 0.4507 0.2799
C17 C 0.1903(3) -0.03325(16) 0.33379(17)
H21 H 0.1053 -0.0707 0.3799
H22 H 0.2753 -0.0816 0.3430
H23 H 0.1701 -0.0198 0.2610
C18 C 0.13256(19) 0.21361(14) 0.20513(13)
C19 C -0.0035(2) 0.17274(19) 0.20450(16)
H24 H -0.0536 0.1271 0.2664
H25 H -0.0489 0.1897 0.1422
C20 C 0.13233(18) 0.27438(15) -0.02729(13)
C21 C 0.1361(2) 0.16678(17) -0.05312(15)
H26 H 0.1774 0.1050 -0.0092
C22 C 0.0794(2) 0.1508(2) -0.14295(17)
H27 H 0.0825 0.0786 -0.1596
C23 C 0.0181(3) 0.2418(2) -0.20819(17)
H28 H -0.0186 0.2314 -0.2697
C24 C 0.0110(2) 0.3473(2) -0.18281(17)
H29 H -0.0325 0.4081 -0.2264
C25 C 0.0682(2) 0.36469(17) -0.09254(14)
H30 H 0.0635 0.4370 -0.0760
C26 C 0.40627(18) 0.25091(15) 0.06050(13)
C27 C 0.4406(2) 0.13537(16) 0.09117(14)
H31 H 0.3672 0.0820 0.1280
C28 C 0.5833(2) 0.09930(19) 0.06731(16)
H32 H 0.6062 0.0218 0.0881
C29 C 0.6922(2) 0.1787(2) 0.01243(18)
H33 H 0.7883 0.1544 -0.0043
C30 C 0.6595(2) 0.2929(2) -0.01744(19)
H34 H 0.7336 0.3462 -0.0536
C31 C 0.5176(2) 0.32896(17) 0.00587(15)
H35 H 0.4958 0.4066 -0.0152
O1 O 0.43402(19) 0.16150(16) 0.72552(11)
O2 O 0.21920(16) 0.42922(10) 0.08195(10)
P1 P 0.22147(5) 0.30505(4) 0.08212(3)
loop_
_geom_bond_atom_site_label_1
_geom_bond_atom_site_label_2
_geom_bond_site_symmetry_1
_geom_bond_site_symmetry_2
C1 C2 1_555 1_555
C2 H1 1_555 1_555
C3 C2 1_555 1_555
H2 C3 1_555 1_555
C4 C3 1_555 1_555
C5 C4 1_555 1_555
H3 C5 1_555 1_555
C6 C1 1_555 1_555
C7 C6 1_555 1_555
C8 C7 1_555 1_555
C9 C1 1_555 1_555
C10 H4 1_555 1_555
H5 C10 1_555 1_555
H6 C10 1_555 1_555
C11 C7 1_555 1_555
H7 C11 1_555 1_555
H8 C11 1_555 1_555
C12 C11 1_555 1_555
H9 C12 1_555 1_555
H10 C12 1_555 1_555
C13 C12 1_555 1_555
H11 C13 1_555 1_555
H12 C13 1_555 1_555
H13 C13 1_555 1_555
C14 C7 1_555 1_555
H14 C14 1_555 1_555
H15 C14 1_555 1_555
C15 C14 1_555 1_555
H16 C15 1_555 1_555
H17 C15 1_555 1_555
C16 C15 1_555 1_555
H18 C16 1_555 1_555
H19 C16 1_555 1_555
H20 C16 1_555 1_555
C17 C9 1_555 1_555
H21 C17 1_555 1_555
H22 C17 1_555 1_555
H23 C17 1_555 1_555
C18 C8 1_555 1_555
C19 C18 1_555 1_555
H24 C19 1_555 1_555
H25 C19 1_555 1_555
C20 C21 1_555 1_555
C21 H26 1_555 1_555
C22 C21 1_555 1_555
H27 C22 1_555 1_555
C23 C22 1_555 1_555
H28 C23 1_555 1_555
C24 C23 1_555 1_555
H29 C24 1_555 1_555
C25 C20 1_555 1_555
H30 C25 1_555 1_555
C26 C27 1_555 1_555
C27 H31 1_555 1_555
C28 C27 1_555 1_555
H32 C28 1_555 1_555
C29 C28 1_555 1_555
H33 C29 1_555 1_555
C30 C29 1_555 1_555
H34 C30 1_555 1_555
C31 C26 1_555 1_555
H35 C31 1_555 1_555
O1 C4 1_555 1_555
O2 P1 1_555 1_555
P1 C18 1_555 1_555
C5 C6 1_555 1_555
C8 C9 1_555 1_555
C10 O1 1_555 1_555
C20 P1 1_555 1_555
C24 C25 1_555 1_555
C26 P1 1_555 1_555
C30 C31 1_555 1_555

#END
