
#######################################################################
#
#                 Cambridge Crystallographic Data Centre
#                                CCDC 
#
#######################################################################
#
# If this CIF has been generated from an entry in the Cambridge 
# Structural Database, then it will include bibliographic, chemical, 
# crystal, experimental, refinement or atomic coordinate data resulting 
# from the CCDC's data processing and validation procedures.
#
#######################################################################

data_KASFUH
_chemical_formula_moiety         'C22 H37 N1 O4'
_chemical_name_systematic        
't-Butyl 1-allyl-5-hydroxy-3-methyl-14-oxo-10-azaspiro[5.8]tetradecane-10-carboxylate'
_symmetry_cell_setting           monoclinic
_symmetry_space_group_name_H-M   'P 21'
_symmetry_Int_Tables_number      4
_space_group_name_Hall           'P 2yb'
loop_
_symmetry_equiv_pos_site_id
_symmetry_equiv_pos_as_xyz
1 x,y,z
2 -x,1/2+y,-z
_cell_length_a                   12.737(3)
_cell_length_b                   6.8278(14)
_cell_length_c                   13.272(3)
_cell_angle_alpha                90
_cell_angle_beta                 107.93(3)
_cell_angle_gamma                90
_cell_volume                     1098.15
_exptl_crystal_colour            colorless
_exptl_crystal_description       needle
_cell_formula_units_Z            2
loop_
_atom_site_label
_atom_site_type_symbol
_atom_site_fract_x
_atom_site_fract_y
_atom_site_fract_z
O1 O 0.3601(2) 0.3714(4) 0.4066(2)
H1 H 0.3829 0.2732 0.4453
O2 O 0.3807(2) 0.1828(4) 0.5908(2)
O3 O 0.3119(3) 0.7116(6) 0.9319(3)
O4 O 0.2919(3) 0.3842(6) 0.9554(2)
N1 N 0.4066(3) 0.4811(5) 0.8701(2)
C1 C 0.2089(5) 0.9283(7) 0.2892(4)
H2 H 0.2520 0.9247 0.2395
H3 H 0.2311 1.0423 0.3358
H4 H 0.1302 0.9380 0.2496
C2 C 0.2297(3) 0.7416(6) 0.3555(3)
H5 H 0.2057 0.6275 0.3066
C3 C 0.3524(3) 0.7168(6) 0.4155(3)
H6 H 0.3945 0.7150 0.3641
H7 H 0.3779 0.8308 0.4628
C4 C 0.3767(3) 0.5300(6) 0.4812(3)
H8 H 0.4563 0.5315 0.5247
C5 C 0.3059(3) 0.5111(5) 0.5574(3)
C6 C 0.1804(3) 0.5460(6) 0.4995(3)
H9 H 0.1428 0.5618 0.5550
C7 C 0.1640(3) 0.7386(6) 0.4347(3)
H10 H 0.0847 0.7551 0.3958
H11 H 0.1873 0.8506 0.4839
C8 C 0.1251(3) 0.3710(6) 0.4280(3)
H12 H 0.1586 0.3575 0.3702
H13 H 0.1410 0.2493 0.4706
C9 C 0.0027(3) 0.3916(8) 0.3804(3)
H14 H -0.0392 0.4185 0.4269
C10 C -0.0506(4) 0.3753(9) 0.2797(4)
H15 H -0.0114 0.3485 0.2308
H16 H -0.1285 0.3903 0.2552
C11 C 0.3214(3) 0.3089(6) 0.6101(3)
C12 C 0.2613(3) 0.2611(6) 0.6901(3)
H17 H 0.1960 0.1797 0.6551
H18 H 0.2347 0.3846 0.7128
C13 C 0.3329(4) 0.1530(6) 0.7881(3)
H19 H 0.3621 0.0325 0.7648
H20 H 0.2858 0.1124 0.8313
C14 C 0.4302(4) 0.2718(7) 0.8580(3)
H21 H 0.4549 0.2110 0.9292
H22 H 0.4920 0.2627 0.8278
C15 C 0.4756(3) 0.6276(7) 0.8401(3)
H23 H 0.5535 0.6053 0.8824
H24 H 0.4543 0.7592 0.8583
C16 C 0.4668(3) 0.6245(7) 0.7228(3)
H25 H 0.4922 0.4955 0.7053
H26 H 0.5166 0.7256 0.7094
C17 C 0.3481(3) 0.6623(6) 0.6488(3)
H27 H 0.3454 0.7945 0.6175
H28 H 0.2971 0.6619 0.6920
C18 C 0.3347(3) 0.5419(7) 0.9205(3)
C19 C 0.2043(4) 0.4020(10) 1.0049(4)
C20 C 0.1741(18) 0.1879(17) 1.0119(14)
H29 H 0.1446 0.1336 0.9403
H30 H 0.1182 0.1779 1.0485
H31 H 0.2400 0.1144 1.0513
C21 C 0.2656(12) 0.486(2) 1.1153(8)
H32 H 0.3315 0.4074 1.1483
H33 H 0.2168 0.4828 1.1598
H34 H 0.2873 0.6218 1.1080
C22 C 0.1088(11) 0.537(3) 0.9486(16)
H35 H 0.1194 0.6649 0.9838
H36 H 0.0393 0.4793 0.9514
H37 H 0.1064 0.5532 0.8746
C23? C 0.1899(19) 0.200(2) 1.0456(16)
C24? C 0.2190(19) 0.556(3) 1.0913(14)
C25? C 0.1025(9) 0.444(3) 0.9089(10)
H38? H 0.1906 0.1020 0.9918
H39? H 0.1193 0.1936 1.0607
H40? H 0.2503 0.1734 1.1105
H41? H 0.2971 0.5632 1.1334
H42? H 0.1750 0.5194 1.1373
H43? H 0.1946 0.6834 1.0589
H44? H 0.1058 0.5791 0.8852
H45? H 0.0354 0.4260 0.9292
H46? H 0.1016 0.3535 0.8513
loop_
_geom_bond_atom_site_label_1
_geom_bond_atom_site_label_2
_geom_bond_site_symmetry_1
_geom_bond_site_symmetry_2
O1 H1 1_555 1_555
O2 C11 1_555 1_555
O3 C18 1_555 1_555
O4 C18 1_555 1_555
N1 C14 1_555 1_555
C1 H2 1_555 1_555
H3 C1 1_555 1_555
H4 C1 1_555 1_555
C2 C1 1_555 1_555
H5 C2 1_555 1_555
C3 C2 1_555 1_555
H6 C3 1_555 1_555
H7 C3 1_555 1_555
C4 O1 1_555 1_555
H8 C4 1_555 1_555
C5 C4 1_555 1_555
C6 C5 1_555 1_555
H9 C6 1_555 1_555
C7 C2 1_555 1_555
H10 C7 1_555 1_555
H11 C7 1_555 1_555
C8 C6 1_555 1_555
H12 C8 1_555 1_555
H13 C8 1_555 1_555
C9 C8 1_555 1_555
H14 C9 1_555 1_555
C10 C9 1_555 1_555
H15 C10 1_555 1_555
H16 C10 1_555 1_555
C11 C5 1_555 1_555
C12 C11 1_555 1_555
H17 C12 1_555 1_555
H18 C12 1_555 1_555
C13 C12 1_555 1_555
H19 C13 1_555 1_555
H20 C13 1_555 1_555
C14 C13 1_555 1_555
H21 C14 1_555 1_555
H22 C14 1_555 1_555
C15 N1 1_555 1_555
H23 C15 1_555 1_555
H24 C15 1_555 1_555
C16 C15 1_555 1_555
H25 C16 1_555 1_555
H26 C16 1_555 1_555
C17 C5 1_555 1_555
H27 C17 1_555 1_555
H28 C17 1_555 1_555
C18 N1 1_555 1_555
C19 O4 1_555 1_555
C20 C19 1_555 1_555
H29 C20 1_555 1_555
H30 C20 1_555 1_555
H31 C20 1_555 1_555
C21 C19 1_555 1_555
H32 C21 1_555 1_555
H33 C21 1_555 1_555
H34 C21 1_555 1_555
C22 C19 1_555 1_555
H35 C22 1_555 1_555
H36 C22 1_555 1_555
H37 C22 1_555 1_555
C3 C4 1_555 1_555
C6 C7 1_555 1_555
C16 C17 1_555 1_555

#END
