
#######################################################################
#
#                 Cambridge Crystallographic Data Centre
#                                CCDC 
#
#######################################################################
#
# If this CIF has been generated from an entry in the Cambridge 
# Structural Database, then it will include bibliographic, chemical, 
# crystal, experimental, refinement or atomic coordinate data resulting 
# from the CCDC's data processing and validation procedures.
#
#######################################################################

data_KASPUP
_chemical_formula_moiety         'C12 H19 N2 1+,C6 H2 N3 O9 S1 1-'
_chemical_name_systematic        
'(+)-trans-4-Anilino-3-methyl-4-piperidinium 2,4,6-trinitro-benzenesulfonate'
_symmetry_cell_setting           triclinic
_symmetry_space_group_name_H-M   'P 1'
_symmetry_Int_Tables_number      1
_space_group_name_Hall           'P 1'
loop_
_symmetry_equiv_pos_site_id
_symmetry_equiv_pos_as_xyz
1 x,y,z
_cell_length_a                   6.917(1)
_cell_length_b                   12.157(2)
_cell_length_c                   13.634(2)
_cell_angle_alpha                77.76(1)
_cell_angle_beta                 77.93(1)
_cell_angle_gamma                88.02(1)
_cell_volume                     1095.59
_exptl_crystal_colour            reddish-brown
_chemical_melting_point          214-215deg.C
_cell_formula_units_Z            2
loop_
_atom_site_label
_atom_site_type_symbol
_atom_site_fract_x
_atom_site_fract_y
_atom_site_fract_z
N1 N 0.4329(6) 0.0991(3) 0.0601(3)
C1 C 0.2153(8) 0.1164(4) 0.0691(4)
C2 C 0.1584(6) 0.2302(4) 0.0933(4)
C3 C 0.2767(7) 0.3245(4) 0.0127(3)
C4 C 0.4978(7) 0.2994(4) -0.0013(4)
C5 C 0.5459(8) 0.1859(4) -0.0250(4)
C6 C -0.0618(9) 0.2474(7) 0.1038(7)
N2 N 0.2297(6) 0.4306(3) 0.0423(3)
C7 C 0.2880(6) 0.5339(4) -0.0212(3)
C8 C 0.2856(7) 0.6290(4) 0.0215(4)
C9 C 0.3273(7) 0.7351(4) -0.0396(4)
C10 C 0.3742(8) 0.7493(5) -0.1450(4)
C11 C 0.3801(7) 0.6568(5) -0.1877(4)
C12 C 0.3394(7) 0.5496(4) -0.1281(3)
H1 H 0.4685(53) 0.0234(32) 0.0473(26)
H2 H 0.4714(77) 0.1041(42) 0.1224(41)
H3 H 0.1564(68) 0.1047(37) 0.0140(37)
H4 H 0.1529(74) 0.0575(44) 0.1217(40)
H5 H 0.1933(57) 0.2292(32) 0.1559(34)
H6 H 0.2365(70) 0.3301(39) -0.0504(40)
H7 H 0.5571(83) 0.3537(47) -0.0555(45)
H8 H 0.5375(69) 0.3122(37) 0.0552(39)
H9 H 0.4941(65) 0.1754(36) -0.0883(35)
H10 H 0.6711(65) 0.1663(33) -0.0314(30)
H11 H -0.1235(98) 0.1748(56) 0.1442(49)
H12 H -0.0900(99) 0.2495(54) 0.0332(53)
H13 H -0.1055(83) 0.3153(50) 0.1273(42)
H14 H 0.2137(67) 0.4255(36) 0.1111(39)
H15 H 0.2395(66) 0.6120(36) 0.1002(36)
H16 H 0.3201(72) 0.7964(41) -0.0065(36)
H17 H 0.4171(80) 0.8223(45) -0.1896(41)
H18 H 0.4267(88) 0.6666(49) -0.2675(49)
H19 H 0.3581(67) 0.4807(40) -0.1521(34)
N3 N 1.0189(7) 0.8188(3) 0.3564(4)
C13 C 0.8506(8) 0.7815(4) 0.4441(4)
C14 C 0.7731(7) 0.6675(4) 0.4415(4)
C15 C 0.9385(8) 0.5798(4) 0.4429(4)
C16 C 1.1167(9) 0.6226(5) 0.3580(4)
C17 C 1.1848(8) 0.7382(5) 0.3602(5)
C18 C 0.5968(10) 0.6331(8) 0.5305(5)
N4 N 0.8737(10) 0.4735(4) 0.4306(3)
C19 C 0.8480(7) 0.3728(4) 0.5003(3)
C20 C 0.8401(7) 0.2730(4) 0.4665(4)
C21 C 0.8133(9) 0.1710(5) 0.5333(6)
C22 C 0.7906(9) 0.1649(6) 0.6366(6)
C23 C 0.7995(8) 0.2612(6) 0.6714(5)
C24 C 0.8276(8) 0.3650(5) 0.6055(4)
H20 H 0.9746(69) 0.8256(36) 0.3042(36)
H21 H 1.0430(72) 0.8981(45) 0.3592(37)
H22 H 0.8946 0.7767 0.5072
H23 H 0.7464 0.8355 0.4403
H24 H 0.7328(77) 0.6692(41) 0.3713(42)
H25 H 0.9737(59) 0.5670(32) 0.5097(36)
H26 H 1.0816(73) 0.6260(40) 0.2918(41)
H27 H 1.232(10) 0.5713(56) 0.3656(48)
H28 H 1.3064(99) 0.7646(51) 0.2839(49)
H29 H 1.2316(72) 0.7424(39) 0.4214(41)
H30 H 0.503(14) 0.7010(74) 0.5363(68)
H31 H 0.6380(98) 0.6230(54) 0.5953(56)
H32 H 0.527(10) 0.5592(56) 0.5283(50)
H33 H 0.8650(60) 0.4676(34) 0.3784(35)
H34 H 0.8470(78) 0.2805(44) 0.4033(42)
H35 H 0.8103(66) 0.1134(41) 0.5083(35)
H36 H 0.771(11) 0.0907(4) 0.6926(58)
H37 H 0.7939(82) 0.2579(46) 0.7353(47)
H38 H 0.8284(95) 0.4255(52) 0.6321(48)
C25 C 0.7850(6) 0.7697(4) 0.0215(3)
C26 C 0.8332(7) 0.8116(4) -0.0840(3)
C27 C 0.8759(7) 0.7441(4) -0.1556(4)
C28 C 0.8638(6) 0.6303(4) -0.1196(3)
C29 C 0.8171(6) 0.5820(4) -0.0162(3)
C30 C 0.7789(6) 0.6530(4) 0.0512(3)
S1 S 0.7444 0.8617 0.1122
O1 O 0.5319(5) 0.8739(3) 0.1371(3)
O2 O 0.8467(6) 0.9641(3) 0.0580(3)
O3 O 0.8316(6) 0.8001(3) 0.1951(3)
N5 N 0.8347(9) 0.9338(4) -0.1273(3)
O4 O 0.6731(7) 0.9803(3) -0.1190(3)
O5 O 0.9910(7) 0.9771(4) -0.1737(3)
N6 N 0.9010(6) 0.5567(4) -0.1947(3)
O6 O 0.9406(7) 0.6021(4) -0.2854(3)
O7 O 0.8938(6) 0.4550(3) -0.1619(3)
N7 N 0.7284(6) 0.5977(3) 0.1610(3)
O8 O 0.8569(5) 0.5369(3) 0.1935(3)
O9 O 0.5675(5) 0.6127(3) 0.2099(3)
H39 H 0.9147(64) 0.7758(35) -0.2341(36)
H40 H 0.8093(52) 0.4991(32) 0.0042(27)
C31 C 0.3461(7) 0.1310(4) 0.4446(3)
C32 C 0.3100(7) 0.0758(4) 0.5487(3)
C33 C 0.2947(8) 0.1326(5) 0.6267(4)
C34 C 0.3108(7) 0.2473(4) 0.6029(3)
C35 C 0.3457(7) 0.3067(4) 0.5036(3)
C36 C 0.3616(6) 0.2461(4) 0.4270(3)
S2 S 0.3770(2) 0.0511(1) 0.3449(1)
O10 O 0.1781(5) 0.0347(3) 0.3302(3)
O11 O 0.4668(7) -0.0493(3) 0.3852(3)
O12 O 0.4921(5) 0.1235(3) 0.2574(2)
N8 N 0.2854(10) -0.0465(4) 0.5799(3)
O13 O 0.1363(9) -0.0874(4) 0.5690(4)
O14 O 0.4154(11) -0.0968(4) 0.6181(4)
N9 N 0.2929(6) 0.3103(4) 0.6861(3)
O15 O 0.2704(8) 0.2551(4) 0.7735(3)
O16 O 0.3025(7) 0.4114(4) 0.6627(3)
N10 N 0.3913(7) 0.3166(3) 0.3220(3)
O17 O 0.5563(7) 0.3556(4) 0.2831(3)
O18 O 0.2486(6) 0.3351(3) 0.2828(3)
H41 H 0.2912(72) 0.0971(40) 0.6784(39)
H42 H 0.3603(59) 0.3880(35) 0.4844(30)
loop_
_geom_bond_atom_site_label_1
_geom_bond_atom_site_label_2
_geom_bond_site_symmetry_1
_geom_bond_site_symmetry_2
N1 C1 1_555 1_555
C1 C2 1_555 1_555
C2 C3 1_555 1_555
C3 C4 1_555 1_555
C4 C5 1_555 1_555
C5 N1 1_555 1_555
C6 C2 1_555 1_555
N2 C3 1_555 1_555
C7 N2 1_555 1_555
C8 C7 1_555 1_555
C9 C8 1_555 1_555
C10 C9 1_555 1_555
C11 C10 1_555 1_555
C12 C7 1_555 1_555
N3 C13 1_555 1_555
C13 C14 1_555 1_555
C14 C15 1_555 1_555
C15 C16 1_555 1_555
C16 C17 1_555 1_555
C17 N3 1_555 1_555
C18 C14 1_555 1_555
N4 C15 1_555 1_555
C19 N4 1_555 1_555
C20 C19 1_555 1_555
C21 C20 1_555 1_555
C22 C21 1_555 1_555
C23 C22 1_555 1_555
C24 C19 1_555 1_555
C25 C26 1_555 1_555
C26 C27 1_555 1_555
C27 C28 1_555 1_555
C28 C29 1_555 1_555
C29 C30 1_555 1_555
C30 C25 1_555 1_555
S1 C25 1_555 1_555
O1 S1 1_555 1_555
O2 S1 1_555 1_555
O3 S1 1_555 1_555
N5 C26 1_555 1_555
O4 N5 1_555 1_555
O5 N5 1_555 1_555
N6 C28 1_555 1_555
O6 N6 1_555 1_555
O7 N6 1_555 1_555
N7 C30 1_555 1_555
O8 N7 1_555 1_555
O9 N7 1_555 1_555
C31 C32 1_555 1_555
C32 C33 1_555 1_555
C33 C34 1_555 1_555
C34 C35 1_555 1_555
C35 C36 1_555 1_555
C36 C31 1_555 1_555
S2 C31 1_555 1_555
O10 S2 1_555 1_555
O11 S2 1_555 1_555
O12 S2 1_555 1_555
N8 C32 1_555 1_555
O13 N8 1_555 1_555
O14 N8 1_555 1_555
N9 C34 1_555 1_555
O15 N9 1_555 1_555
O16 N9 1_555 1_555
N10 C36 1_555 1_555
O17 N10 1_555 1_555
O18 N10 1_555 1_555
H1 N1 1_555 1_555
H2 N1 1_555 1_555
H3 C1 1_555 1_555
H4 C1 1_555 1_555
H5 C2 1_555 1_555
H6 C3 1_555 1_555
H7 C4 1_555 1_555
H8 C4 1_555 1_555
H9 C5 1_555 1_555
H10 C5 1_555 1_555
H11 C6 1_555 1_555
H12 C6 1_555 1_555
H13 C6 1_555 1_555
H14 N2 1_555 1_555
H15 C8 1_555 1_555
H16 C9 1_555 1_555
H17 C10 1_555 1_555
H18 C11 1_555 1_555
H19 C12 1_555 1_555
H20 N3 1_555 1_555
H21 N3 1_555 1_555
H22 C13 1_555 1_555
H23 C13 1_555 1_555
H24 C14 1_555 1_555
H25 C15 1_555 1_555
H26 C16 1_555 1_555
H27 C16 1_555 1_555
H28 C17 1_555 1_555
H29 C17 1_555 1_555
H30 C18 1_555 1_555
H31 C18 1_555 1_555
H32 C18 1_555 1_555
H33 N4 1_555 1_555
H34 C20 1_555 1_555
H35 C21 1_555 1_555
H36 C22 1_555 1_555
H37 C23 1_555 1_555
H38 C24 1_555 1_555
H39 C27 1_555 1_555
H40 C29 1_555 1_555
H41 C33 1_555 1_555
H42 C35 1_555 1_555
C11 C12 1_555 1_555
C23 C24 1_555 1_555

#END
