
#######################################################################
#
#                 Cambridge Crystallographic Data Centre
#                                CCDC 
#
#######################################################################
#
# If this CIF has been generated from an entry in the Cambridge 
# Structural Database, then it will include bibliographic, chemical, 
# crystal, experimental, refinement or atomic coordinate data resulting 
# from the CCDC's data processing and validation procedures.
#
#######################################################################

data_KASRUT
_chemical_formula_moiety         'C11 H21 B1 N2'
_chemical_name_systematic        B-(Di-isopropylamino)-N-methyl-1,3-azaborine
_symmetry_cell_setting           monoclinic
_symmetry_space_group_name_H-M   'P 21/c'
_symmetry_Int_Tables_number      14
_space_group_name_Hall           '-P 2ybc'
loop_
_symmetry_equiv_pos_site_id
_symmetry_equiv_pos_as_xyz
1 x,y,z
2 -x,1/2+y,1/2-z
3 -x,-y,-z
4 x,1/2-y,1/2+z
_cell_length_a                   13.580(3)
_cell_length_b                   6.7581(14)
_cell_length_c                   14.637(3)
_cell_angle_alpha                90
_cell_angle_beta                 111.968(3)
_cell_angle_gamma                90
_cell_volume                     1245.78
_exptl_crystal_colour            colorless
_exptl_crystal_description       plate
_cell_formula_units_Z            4
loop_
_atom_site_label
_atom_site_type_symbol
_atom_site_fract_x
_atom_site_fract_y
_atom_site_fract_z
N1 N 0.50775(10) 0.75116(17) 0.26993(9)
N2 N 0.23245(11) 0.7790(2) 0.28419(9)
B1 B 0.34568(15) 0.7619(3) 0.31434(13)
C1 C 0.40105(13) 0.7588(2) 0.24093(12)
C2 C 0.42615(13) 0.7466(2) 0.41990(12)
C3 C 0.53278(13) 0.7404(2) 0.43908(12)
C4 C 0.57406(13) 0.7437(2) 0.36558(12)
C5 C 0.55473(16) 0.7517(3) 0.19386(13)
C6 C 0.16330(15) 0.8115(3) 0.18063(13)
C7 C 0.0812(2) 0.6523(5) 0.1388(2)
C8 C 0.1135(2) 1.0179(4) 0.16399(19)
C9 C 0.17737(14) 0.7777(3) 0.35378(13)
C10 C 0.19003(19) 0.5808(4) 0.40744(17)
C11 C 0.20682(18) 0.9522(4) 0.42428(16)
H1 H 0.3666(13) 0.764(2) 0.1707(14)
H2 H 0.4070(14) 0.745(2) 0.4780(14)
H3 H 0.5841(14) 0.736(2) 0.5038(14)
H4 H 0.6479(14) 0.740(2) 0.3773(11)
H5 H 0.5319(14) 0.866(3) 0.1535(14)
H6 H 0.5283(15) 0.635(3) 0.1526(14)
H7 H 0.6303(17) 0.743(3) 0.2245(14)
H8 H 0.2104(15) 0.801(3) 0.1453(14)
H9 H 0.030(2) 0.644(4) 0.1703(19)
H10 H 0.0404(19) 0.675(4) 0.069(2)
H11 H 0.1173(19) 0.512(4) 0.1549(17)
H12 H 0.177(3) 1.132(5) 0.195(2)
H13 H 0.060(2) 1.027(4) 0.1972(19)
H14 H 0.0728(18) 1.045(4) 0.0941(19)
H15 H 0.1019(14) 0.789(2) 0.3140(12)
H16 H 0.1651(17) 0.469(4) 0.3609(16)
H17 H 0.1452(16) 0.581(3) 0.4461(15)
H18 H 0.2657(17) 0.554(3) 0.4493(15)
H19 H 0.1978(16) 1.080(3) 0.3887(15)
H20 H 0.1607(17) 0.952(3) 0.4623(15)
H21 H 0.2799(16) 0.948(3) 0.4677(13)
loop_
_geom_bond_atom_site_label_1
_geom_bond_atom_site_label_2
_geom_bond_site_symmetry_1
_geom_bond_site_symmetry_2
N1 C1 1_555 1_555
N2 B1 1_555 1_555
B1 C1 1_555 1_555
C1 H1 1_555 1_555
C2 B1 1_555 1_555
C3 C2 1_555 1_555
C4 N1 1_555 1_555
C5 N1 1_555 1_555
C6 N2 1_555 1_555
C7 C6 1_555 1_555
C8 C6 1_555 1_555
C9 N2 1_555 1_555
C10 C9 1_555 1_555
C11 C9 1_555 1_555
H2 C2 1_555 1_555
H3 C3 1_555 1_555
H4 C4 1_555 1_555
H5 C5 1_555 1_555
H6 C5 1_555 1_555
H7 C5 1_555 1_555
H8 C6 1_555 1_555
H9 C7 1_555 1_555
H10 C7 1_555 1_555
H11 C7 1_555 1_555
H12 C8 1_555 1_555
H13 C8 1_555 1_555
H14 C8 1_555 1_555
H15 C9 1_555 1_555
H16 C10 1_555 1_555
H17 C10 1_555 1_555
H18 C10 1_555 1_555
H19 C11 1_555 1_555
H20 C11 1_555 1_555
H21 C11 1_555 1_555
C3 C4 1_555 1_555

#END
