
#######################################################################
#
#                 Cambridge Crystallographic Data Centre
#                                CCDC 
#
#######################################################################
#
# If this CIF has been generated from an entry in the Cambridge 
# Structural Database, then it will include bibliographic, chemical, 
# crystal, experimental, refinement or atomic coordinate data resulting 
# from the CCDC's data processing and validation procedures.
#
#######################################################################

data_KASWAD
_chemical_formula_moiety         'C24 H21 N7,C2 H3 N1,0.5(C1 H4 O1),1.5(H2 O1)'
_chemical_name_systematic        
'tris(1H-Benzimidazol-2-ylmethyl)amine acetonitrile methanol solvate sesquihydrate'
_symmetry_cell_setting           triclinic
_symmetry_space_group_name_H-M   'P -1'
_symmetry_Int_Tables_number      2
_space_group_name_Hall           '-P 1'
loop_
_symmetry_equiv_pos_site_id
_symmetry_equiv_pos_as_xyz
1 x,y,z
2 -x,-y,-z
_cell_length_a                   9.778(4)
_cell_length_b                   9.995(2)
_cell_length_c                   14.397(6)
_cell_angle_alpha                103.340(10)
_cell_angle_beta                 98.160(10)
_cell_angle_gamma                102.340(10)
_cell_volume                     1310.09
_exptl_crystal_colour            colorless
_exptl_crystal_description       block
_cell_formula_units_Z            2
loop_
_atom_site_label
_atom_site_type_symbol
_atom_site_fract_x
_atom_site_fract_y
_atom_site_fract_z
N1 N 0.46775(14) 0.09622(13) 0.32640(9)
N2 N 0.42220(16) 0.17957(16) 0.15069(10)
N3 N 0.63075(14) 0.14835(15) 0.11873(10)
N4 N 0.32256(17) 0.29001(17) 0.42981(12)
N5 N 0.49937(16) 0.34372(14) 0.55785(10)
N6 N 0.30286(16) -0.27384(14) 0.31017(10)
N7 N 0.20816(14) -0.12802(14) 0.24167(10)
C1 C 0.54940(18) 0.05535(18) 0.25195(12)
H1 H 0.5157 -0.0463 0.2222
H2 H 0.6492 0.0757 0.2827
C2 C 0.53723(17) 0.13091(17) 0.17470(11)
C3 C 0.57116(17) 0.21022(17) 0.05195(11)
C4 C 0.6204(2) 0.24917(19) -0.02667(13)
H3 H 0.7070 0.2357 -0.0411
C5 C 0.5374(2) 0.3079(2) -0.08185(14)
H4 H 0.5685 0.3339 -0.1348
C6 C 0.4082(2) 0.3297(2) -0.06126(14)
H5 H 0.3550 0.3703 -0.1004
C7 C 0.3574(2) 0.2924(2) 0.01587(14)
H6 H 0.2712 0.3074 0.0302
C8 C 0.44045(17) 0.23165(18) 0.07119(12)
C9 C 0.54805(17) 0.22778(17) 0.39910(12)
H7 H 0.5872 0.2973 0.3663
H8 H 0.6272 0.2093 0.4385
C10 C 0.45679(18) 0.28734(16) 0.46352(12)
C11 C 0.3836(2) 0.38694(18) 0.58822(13)
C12 C 0.3693(3) 0.4527(2) 0.68176(16)
H9 H 0.4438 0.4752 0.7353
C13 C 0.2415(4) 0.4825(3) 0.6913(2)
H10 H 0.2291 0.5274 0.7526
C14 C 0.1298(3) 0.4477(3) 0.6123(2)
H11 H 0.0442 0.4692 0.6222
C15 C 0.1407(3) 0.3820(3) 0.5187(2)
H12 H 0.0652 0.3585 0.4658
C16 C 0.2721(2) 0.35344(19) 0.50921(15)
C17 C 0.42587(17) -0.01741(17) 0.37257(11)
H13 H 0.3921 0.0199 0.4309
H14 H 0.5086 -0.0511 0.3919
C18 C 0.31146(17) -0.13875(17) 0.30614(11)
C19 C 0.12468(17) -0.26664(18) 0.20032(12)
C20 C 0.00123(19) -0.3188(2) 0.12913(14)
H15 H -0.0395 -0.2582 0.1007
C21 C -0.0591(2) -0.4622(2) 0.10184(15)
H16 H -0.1421 -0.4994 0.0541
C22 C 0.0009(2) -0.5531(2) 0.14388(16)
H17 H -0.0428 -0.6501 0.1233
C23 C 0.1231(2) -0.5046(2) 0.21504(15)
H18 H 0.1631 -0.5660 0.2430
C24 C 0.18385(18) -0.35803(18) 0.24313(12)
H34 H 0.363(2) -0.2983(19) 0.3538(14)
H35 H 0.275(2) 0.2506(19) 0.3711(15)
H36 H 0.344(3) 0.170(2) 0.1776(17)
N8 N 0.8059(3) 0.0332(4) 0.4728(2)
C25 C 0.8497(2) -0.0232(3) 0.4118(2)
C26 C 0.9041(3) -0.0956(3) 0.3333(2)
H19 H 0.8594 -0.1957 0.3164
H20 H 1.0056 -0.0800 0.3528
H21 H 0.8840 -0.0599 0.2778
O1 O 0.16774(14) 0.13860(15) 0.23467(10)
H25 H 0.076(3) 0.129(2) 0.2038(17)
H26 H 0.180(2) 0.053(3) 0.2375(17)
C27 C 0.9105(5) 0.0356(5) 0.0349(3)
H27 H 0.9761 0.1161 0.0264
H28 H 0.8220 0.0143 -0.0108
H29 H 0.9505 -0.0450 0.0240
O2 O 0.88523(18) 0.0672(2) 0.13064(13)
H33 H 0.796(4) 0.092(3) 0.123(2)
H22? H 0.9733 -0.0280 0.3149
H23? H 0.8271 -0.1438 0.2785
H24? H 0.9486 -0.1638 0.3536
H30? H 0.8563 -0.0592 0.0000
H31? H 1.0104 0.0426 0.0372
H32? H 0.8819 0.1020 0.0024
O3? O 0.88523(18) 0.0672(2) 0.13064(13)
loop_
_geom_bond_atom_site_label_1
_geom_bond_atom_site_label_2
_geom_bond_site_symmetry_1
_geom_bond_site_symmetry_2
N1 C1 1_555 1_555
N2 C2 1_555 1_555
N3 C2 1_555 1_555
N4 C10 1_555 1_555
N5 C10 1_555 1_555
N6 C18 1_555 1_555
N7 C18 1_555 1_555
C1 H1 1_555 1_555
H2 C1 1_555 1_555
C2 C1 1_555 1_555
C3 N3 1_555 1_555
C4 C3 1_555 1_555
H3 C4 1_555 1_555
C5 C4 1_555 1_555
H4 C5 1_555 1_555
C6 C5 1_555 1_555
H5 C6 1_555 1_555
C7 C6 1_555 1_555
H6 C7 1_555 1_555
C8 N2 1_555 1_555
C9 N1 1_555 1_555
H7 C9 1_555 1_555
H8 C9 1_555 1_555
C10 C9 1_555 1_555
C11 N5 1_555 1_555
C12 C11 1_555 1_555
H9 C12 1_555 1_555
C13 C12 1_555 1_555
H10 C13 1_555 1_555
C14 C13 1_555 1_555
H11 C14 1_555 1_555
C15 C14 1_555 1_555
H12 C15 1_555 1_555
C16 N4 1_555 1_555
C17 N1 1_555 1_555
H13 C17 1_555 1_555
H14 C17 1_555 1_555
C18 C17 1_555 1_555
C19 N7 1_555 1_555
C20 C19 1_555 1_555
H15 C20 1_555 1_555
C21 C20 1_555 1_555
H16 C21 1_555 1_555
C22 C21 1_555 1_555
H17 C22 1_555 1_555
C23 C22 1_555 1_555
H18 C23 1_555 1_555
C24 N6 1_555 1_555
N8 C25 1_555 1_555
C25 C26 1_555 1_555
C26 H19 1_555 1_555
H20 C26 1_555 1_555
H21 C26 1_555 1_555
O1 H25 1_555 1_555
H26 O1 1_555 1_555
C27 H27 1_555 1_555
H28 C27 1_555 1_555
H29 C27 1_555 1_555
O2 C27 1_555 1_555
H33 O2 1_555 1_555
H34 N6 1_555 1_555
H35 N4 1_555 1_555
H36 N2 1_555 1_555
C3 C8 1_555 1_555
C7 C8 1_555 1_555
C11 C16 1_555 1_555
C15 C16 1_555 1_555
C19 C24 1_555 1_555
C23 C24 1_555 1_555

#END
