
#######################################################################
#
#                 Cambridge Crystallographic Data Centre
#                                CCDC 
#
#######################################################################
#
# If this CIF has been generated from an entry in the Cambridge 
# Structural Database, then it will include bibliographic, chemical, 
# crystal, experimental, refinement or atomic coordinate data resulting 
# from the CCDC's data processing and validation procedures.
#
#######################################################################

data_KATZEN
_chemical_formula_moiety         'C12 H11 N1 O3'
_chemical_name_systematic        
4-nitro-3,5,6,7-tetrahydro-s-indacen-1(2H)-one
_symmetry_cell_setting           orthorhombic
_symmetry_space_group_name_H-M   'P n 21 a'
_symmetry_Int_Tables_number      33
_space_group_name_Hall           'P -2ac -2n'
loop_
_symmetry_equiv_pos_site_id
_symmetry_equiv_pos_as_xyz
1 x,y,z
2 -x,1/2+y,-z
3 1/2-x,1/2+y,1/2+z
4 1/2+x,y,1/2-z
_cell_length_a                   7.2920(10)
_cell_length_b                   8.974(2)
_cell_length_c                   15.007(2)
_cell_angle_alpha                90
_cell_angle_beta                 90
_cell_angle_gamma                90
_cell_volume                     982.034
_exptl_crystal_colour            colorless
_exptl_crystal_description       needle
_cell_formula_units_Z            4
loop_
_atom_site_label
_atom_site_type_symbol
_atom_site_fract_x
_atom_site_fract_y
_atom_site_fract_z
C1 C 0.4490(7) 0.1160(7) 0.7573(4)
C2 C 0.4499(8) 0.0911(7) 0.6585(4)
H1 H 0.3251 0.0665 0.6371
H2 H 0.5334 0.0082 0.6428
C3 C 0.5180(8) 0.2403(6) 0.6162(3)
H3 H 0.6338 0.2252 0.5829
H4 H 0.4247 0.2822 0.5753
C4 C 0.5474(7) 0.3412(6) 0.6954(3)
C5 C 0.6029(7) 0.4917(6) 0.6991(3)
C6 C 0.6233(7) 0.5639(6) 0.7815(3)
C7 C 0.6768(7) 0.7220(8) 0.8032(3)
H5 H 0.5964 0.7938 0.7719
H6 H 0.8058 0.7416 0.7863
C8 C 0.6517(12) 0.7328(8) 0.9036(4)
H7 H 0.7593 0.7823 0.9308
H8 H 0.5412 0.7926 0.9175
C9 C 0.6310(9) 0.5784(7) 0.9405(4)
H9 H 0.5279 0.5734 0.9833
H10 H 0.7448 0.5459 0.9708
C10 C 0.5931(7) 0.4839(7) 0.8597(3)
C11 C 0.5368(8) 0.3376(6) 0.8574(3)
H11 H 0.5155 0.2838 0.9109
C12 C 0.5118(7) 0.2699(6) 0.7746(3)
N1 N 0.6404(7) 0.5725(5) 0.6168(3)
O1 O 0.4008(6) 0.0264(5) 0.8136(3)
O2 O 0.6489(7) 0.5034(5) 0.5472(3)
O3 O 0.6619(10) 0.7066(6) 0.6187(3)
loop_
_geom_bond_atom_site_label_1
_geom_bond_atom_site_label_2
_geom_bond_site_symmetry_1
_geom_bond_site_symmetry_2
C1 C2 1_555 1_555
C2 H1 1_555 1_555
H2 C2 1_555 1_555
C3 C2 1_555 1_555
H3 C3 1_555 1_555
H4 C3 1_555 1_555
C4 C3 1_555 1_555
C5 C4 1_555 1_555
C6 C5 1_555 1_555
C7 C6 1_555 1_555
H5 C7 1_555 1_555
H6 C7 1_555 1_555
C8 C7 1_555 1_555
H7 C8 1_555 1_555
H8 C8 1_555 1_555
C9 C8 1_555 1_555
H9 C9 1_555 1_555
H10 C9 1_555 1_555
C10 C6 1_555 1_555
C11 C10 1_555 1_555
H11 C11 1_555 1_555
C12 C1 1_555 1_555
N1 C5 1_555 1_555
O1 C1 1_555 1_555
O2 N1 1_555 1_555
O3 N1 1_555 1_555
C4 C12 1_555 1_555
C9 C10 1_555 1_555
C11 C12 1_555 1_555

#END
