
#######################################################################
#
#                 Cambridge Crystallographic Data Centre
#                                CCDC 
#
#######################################################################
#
# If this CIF has been generated from an entry in the Cambridge 
# Structural Database, then it will include bibliographic, chemical, 
# crystal, experimental, refinement or atomic coordinate data resulting 
# from the CCDC's data processing and validation procedures.
#
#######################################################################

data_KAVBEP
_chemical_formula_moiety         '2(C16 H10 Te4 1+),C16 H10 Te4,2(B1 F4 1-)'
_chemical_name_systematic        
"tris(3,4-Dimethylanthra(1,9-cd:4,10-c'd')bis((1,2)ditellurole)) bis(tetrafluoroborate)"
_symmetry_cell_setting           monoclinic
_symmetry_space_group_name_H-M   'C 2/m'
_symmetry_Int_Tables_number      12
_space_group_name_Hall           '-C 2y'
loop_
_symmetry_equiv_pos_site_id
_symmetry_equiv_pos_as_xyz
1 x,y,z
2 -x,y,-z
3 1/2+x,1/2+y,z
4 1/2-x,1/2+y,-z
5 -x,-y,-z
6 x,-y,z
7 1/2-x,1/2-y,-z
8 1/2+x,1/2-y,z
_cell_length_a                   16.437(5)
_cell_length_b                   14.585(4)
_cell_length_c                   11.623(4)
_cell_angle_alpha                90
_cell_angle_beta                 111.19(2)
_cell_angle_gamma                90
_cell_volume                     2598.03
_exptl_crystal_colour            black
_exptl_crystal_description       prismatic
_cell_formula_units_Z            2
loop_
_atom_site_label
_atom_site_type_symbol
_atom_site_fract_x
_atom_site_fract_y
_atom_site_fract_z
Te3 Te 1.22521(6) 0.40806(9) 0.06076(10)
C9 C 1.044(3) 0.173(3) 0.016(5)
C10 C 1.091(1) 0.241(2) 0.023(2)
C11 C 1.0457(9) 0.3321(9) 0.012(1)
C12 C 1.0892(8) 0.416(1) 0.022(1)
C13 C 1.047(1) 0.5000 0.012(2)
H6 H 1.0741 0.1165 0.0338
H10 H 1.1398 0.2370 0.1037
Te3E Te 1.22521(6) 0.59194(9) 0.06076(10)
Te3D Te 0.77479(6) 0.59194(9) -0.06076(10)
Te3A Te 0.77479(6) 0.40806(9) -0.06076(10)
C9E C 1.044(3) 0.827(3) 0.016(5)
C9D C 0.956(3) 0.827(3) -0.016(5)
C9A C 0.956(3) 0.173(3) -0.016(5)
C10E C 1.091(1) 0.759(2) 0.023(2)
C10D C 0.909(1) 0.759(2) -0.023(2)
C10A C 0.909(1) 0.241(2) -0.023(2)
C11E C 1.0457(9) 0.6679(9) 0.012(1)
C11D C 0.9543(9) 0.6679(9) -0.012(1)
C11A C 0.9543(9) 0.3321(9) -0.012(1)
C12E C 1.0892(8) 0.584(1) 0.022(1)
C12D C 0.9108(8) 0.584(1) -0.022(1)
C12A C 0.9108(8) 0.416(1) -0.022(1)
C13A C 0.953(1) 0.5000 -0.012(2)
H6A H 0.9259 0.1165 -0.0338
H6D H 0.9259 0.8835 -0.0338
H6E H 1.0741 0.8835 0.0338
H10A H 0.8602 0.2370 -0.1037
H10D H 0.8602 0.7630 -0.1037
H10E H 1.1398 0.7630 0.1037
F1 F 1.4177(9) 0.5000 0.147(2)
F2 F 1.4883(7) 0.4265(7) 0.319(1)
F3 F 1.5571(10) 0.5000 0.219(2)
B1 B 1.489(2) 0.5000 0.250(3)
F2E F 1.4883(7) 0.5735(7) 0.319(1)
Te1 Te 1.08078(6) 0.26084(6) 0.35291(9)
Te2 Te 0.91005(6) 0.26227(6) 0.30339(9)
C1 C 1.3146(7) 0.4515(8) 0.430(1)
C2 C 1.2386(8) 0.4076(9) 0.404(1)
C3 C 1.1580(7) 0.4519(7) 0.381(1)
C4 C 1.0784(7) 0.4020(8) 0.357(1)
C5 C 0.9988(7) 0.4514(7) 0.340(1)
C6 C 0.9175(7) 0.4047(8) 0.319(1)
C7 C 0.8407(7) 0.4521(8) 0.303(1)
C8 C 0.7584(8) 0.397(1) 0.285(1)
H1 H 1.3684 0.4175 0.4493
H2 H 1.2392 0.3407 0.3999
H3 H 0.7089 0.4355 0.2751
H4 H 0.7434 0.3577 0.2138
H5 H 0.7659 0.3576 0.3554
Te1E Te 1.08078(6) 0.73916(6) 0.35291(9)
Te2E Te 0.91005(6) 0.73773(6) 0.30339(9)
C1E C 1.3146(7) 0.5485(8) 0.430(1)
C2E C 1.2386(8) 0.5924(9) 0.404(1)
C3E C 1.1580(7) 0.5481(7) 0.381(1)
C4E C 1.0784(7) 0.5980(8) 0.357(1)
C5E C 0.9988(7) 0.5486(7) 0.340(1)
C6E C 0.9175(7) 0.5953(8) 0.319(1)
C7E C 0.8407(7) 0.5479(8) 0.303(1)
C8E C 0.7584(8) 0.603(1) 0.285(1)
H1E H 1.3684 0.5825 0.4493
H2E H 1.2392 0.6593 0.3999
H3E H 0.7089 0.5645 0.2751
H4E H 0.7434 0.6423 0.2138
H5E H 0.7659 0.6424 0.3554
H7? H 1.1552 0.2352 0.0372
H8? H 1.0554 0.1909 0.0151
H9? H 1.1200 0.2364 -0.0373
loop_
_geom_bond_atom_site_label_1
_geom_bond_atom_site_label_2
_geom_bond_site_symmetry_1
_geom_bond_site_symmetry_2
Te1 Te2 1_555 1_555
Te2 C6 1_555 1_555
Te3 C12 1_555 1_555
F1 B1 1_555 1_555
F2 B1 1_555 1_555
F3 B1 1_555 1_555
C1 C2 1_555 1_555
C2 C3 1_555 1_555
C3 C4 1_555 1_555
C4 Te1 1_555 1_555
C5 C4 1_555 1_555
C6 C5 1_555 1_555
C7 C6 1_555 1_555
C8 C7 1_555 1_555
C9 C10 1_555 1_555
C10 C11 1_555 1_555
C11 C12 1_555 1_555
C12 C13 1_555 1_555
C13 C12E 1_555 1_555
B1 F2E 1_555 1_555
H1 C1 1_555 1_555
H2 C2 1_555 1_555
H3 C8 1_555 1_555
H4 C8 1_555 1_555
H5 C8 1_555 1_555
H6 C9 1_555 1_555
H10 C10 1_555 1_555
Te1E Te2E 1_555 1_555
Te2E C6E 1_555 1_555
Te3E Te3 1_555 1_555
Te3D Te3A 1_555 1_555
Te3A C12A 1_555 1_555
C1E C1 1_555 1_555
C2E C1E 1_555 1_555
C3E C3 1_555 1_555
C4E Te1E 1_555 1_555
C5E C5 1_555 1_555
C6E C5E 1_555 1_555
C7E C7 1_555 1_555
C8E C7E 1_555 1_555
C9E C9D 1_555 1_555
C9D C10D 1_555 1_555
C9A C9 1_555 1_555
C10E C9E 1_555 1_555
C10D C11D 1_555 1_555
C10A C9A 1_555 1_555
C11E C10E 1_555 1_555
C11D C11E 1_555 1_555
C11A C11 1_555 1_555
C12E Te3E 1_555 1_555
C12D Te3D 1_555 1_555
C12A C11A 1_555 1_555
C13A C13 1_555 1_555
H1E C1E 1_555 1_555
H2E C2E 1_555 1_555
H3E C8E 1_555 1_555
H4E C8E 1_555 1_555
H5E C8E 1_555 1_555
H6A C9A 1_555 1_555
H6D C9D 1_555 1_555
H6E C9E 1_555 1_555
H10A C10A 1_555 1_555
H10D C10D 1_555 1_555
H10E C10E 1_555 1_555
C2E C3E 1_555 1_555
C3E C4E 1_555 1_555
C4E C5E 1_555 1_555
C6E C7E 1_555 1_555
C10A C11A 1_555 1_555
C11E C12E 1_555 1_555
C11D C12D 1_555 1_555
C12D C13A 1_555 1_555
C12A C13A 1_555 1_555

#END
