
#######################################################################
#
#                 Cambridge Crystallographic Data Centre
#                                CCDC 
#
#######################################################################
#
# If this CIF has been generated from an entry in the Cambridge 
# Structural Database, then it will include bibliographic, chemical, 
# crystal, experimental, refinement or atomic coordinate data resulting 
# from the CCDC's data processing and validation procedures.
#
#######################################################################

data_KAVWAG
_chemical_formula_moiety         'C25 H27 N1 O6'
_chemical_name_systematic        
'4-methoxy-6-oxo-1,2,3,4,4a,5,6,11b-octahydro[1,3]dioxolo[4,5-j]phenanthridin-2-yl 2,4,6-trimethylbenzoate'
_symmetry_cell_setting           triclinic
_symmetry_space_group_name_H-M   'P -1'
_symmetry_Int_Tables_number      2
_space_group_name_Hall           '-P 1'
loop_
_symmetry_equiv_pos_site_id
_symmetry_equiv_pos_as_xyz
1 x,y,z
2 -x,-y,-z
_cell_length_a                   6.4956(2)
_cell_length_b                   11.9554(3)
_cell_length_c                   15.2129(4)
_cell_angle_alpha                102.180(2)
_cell_angle_beta                 91.811(2)
_cell_angle_gamma                103.345(2)
_cell_volume                     1119.61
_exptl_crystal_colour            colorless
_exptl_crystal_description       plate
_cell_formula_units_Z            2
loop_
_atom_site_label
_atom_site_type_symbol
_atom_site_fract_x
_atom_site_fract_y
_atom_site_fract_z
O1 O 0.18197(15) 0.20245(9) 0.23759(6)
N1 N -0.23563(18) 0.09127(11) 0.45978(8)
O2 O -0.07522(17) -0.08845(9) 0.35861(7)
O3 O -0.47581(16) 0.14174(10) 0.55492(8)
C1 C 0.0300(2) 0.32005(12) 0.51517(9)
C2 C -0.1513(2) 0.28419(12) 0.55907(9)
C3 C 0.0573(2) 0.24110(12) 0.42644(9)
O4 O 0.4133(2) 0.15504(15) 0.13979(8)
C4 C -0.0174(2) 0.11254(12) 0.43354(9)
O5 O 0.25411(19) 0.59683(10) 0.68375(9)
C5 C 0.3050(2) 0.17790(13) 0.31115(9)
C6 C 0.2193(2) 0.05094(14) 0.31666(11)
C7 C -0.0070(2) 0.02843(12) 0.34525(10)
C8 C 0.2826(2) 0.26505(14) 0.39621(10)
C9 C -0.3006(2) 0.16696(12) 0.52445(10)
C10 C -0.1955(2) 0.35424(14) 0.63909(11)
C11 C 0.1331(2) 0.49186(13) 0.63314(11)
C12 C 0.2534(2) 0.18611(14) 0.15579(10)
O6 O -0.0527(2) 0.54006(11) 0.75179(9)
C13 C 0.1122(2) 0.21228(15) 0.08689(10)
C14 C 0.1763(2) 0.42723(13) 0.55348(11)
C15 C -0.0494(2) 0.45722(14) 0.67427(11)
C16 C -0.0875(3) 0.13665(16) 0.05712(10)
C17 C -0.1748(3) 0.03121(18) 0.09560(14)
C18 C -0.2068(3) 0.1614(2) -0.01104(12)
C19 C 0.0615(4) 0.3319(2) -0.01586(13)
C20 C -0.2687(5) 0.2807(3) -0.12292(16)
H1 H -0.3986 0.2203 -0.1367
H2 H -0.1919 0.2802 -0.1758
H3 H -0.3005 0.3562 -0.1034
C21 C 0.1888(3) 0.31112(17) 0.05121(11)
C22 C -0.1835(4) -0.17363(17) 0.28354(13)
H4 H -0.2235 -0.2489 0.2993
H5 H -0.0927 -0.1784 0.2350
H6 H -0.3086 -0.1519 0.2649
C23 C 0.4011(4) 0.3939(3) 0.08534(19)
C24 C 0.1449(3) 0.62361(18) 0.76234(13)
C25 C -0.1344(4) 0.2577(2) -0.04812(12)
H7 H 0.459(3) 0.1908(13) 0.2966(10)
H8 H 0.077(2) 0.0982(13) 0.4801(11)
H9 H 0.310(3) 0.0330(14) 0.3625(12)
H10 H -0.041(2) 0.2508(12) 0.3788(10)
H11 H -0.107(2) 0.0405(12) 0.2993(10)
H12 H 0.420(4) 0.418(2) 0.1534(18)
H13 H 0.384(3) 0.2587(14) 0.4441(11)
H14 H 0.304(3) 0.4566(15) 0.5245(12)
H15 H 0.321(2) 0.3450(15) 0.3868(10)
H16 H -0.251(4) 0.055(2) 0.1475(18)
H17 H 0.228(3) -0.0007(15) 0.2589(12)
H18 H -0.325(3) 0.3250(15) 0.6661(12)
H19 H 0.518(5) 0.356(3) 0.0674(19)
H20 H -0.312(3) 0.0191(17) 0.4483(11)
H21 H -0.063(4) -0.001(2) 0.1177(15)
H22 H 0.122(4) 0.708(2) 0.7687(16)
H23 H -0.269(4) -0.030(2) 0.0495(16)
H24 H 0.108(4) 0.401(2) -0.0425(16)
H25 H 0.224(4) 0.611(2) 0.8127(17)
H26 H 0.415(6) 0.459(3) 0.060(2)
H27 H -0.338(4) 0.1090(19) -0.0315(15)
loop_
_geom_bond_atom_site_label_1
_geom_bond_atom_site_label_2
_geom_bond_site_symmetry_1
_geom_bond_site_symmetry_2
O1 C5 1_555 1_555
N1 C4 1_555 1_555
O2 C7 1_555 1_555
O3 C9 1_555 1_555
C1 C2 1_555 1_555
C2 C9 1_555 1_555
C3 C1 1_555 1_555
O4 C12 1_555 1_555
C4 C3 1_555 1_555
O5 C11 1_555 1_555
C5 C6 1_555 1_555
C6 C7 1_555 1_555
C7 C4 1_555 1_555
C8 C3 1_555 1_555
C9 N1 1_555 1_555
C10 C2 1_555 1_555
C11 C14 1_555 1_555
C12 O1 1_555 1_555
O6 C15 1_555 1_555
C13 C12 1_555 1_555
C14 C1 1_555 1_555
C15 C10 1_555 1_555
C16 C13 1_555 1_555
C17 C16 1_555 1_555
C18 C16 1_555 1_555
C19 C21 1_555 1_555
C20 H1 1_555 1_555
H2 C20 1_555 1_555
H3 C20 1_555 1_555
C21 C13 1_555 1_555
C22 O2 1_555 1_555
H4 C22 1_555 1_555
H5 C22 1_555 1_555
H6 C22 1_555 1_555
C23 C21 1_555 1_555
C24 O5 1_555 1_555
C25 C18 1_555 1_555
H7 C5 1_555 1_555
H8 C4 1_555 1_555
H9 C6 1_555 1_555
H10 C3 1_555 1_555
H11 C7 1_555 1_555
H12 C23 1_555 1_555
H13 C8 1_555 1_555
H14 C14 1_555 1_555
H15 C8 1_555 1_555
H16 C17 1_555 1_555
H17 C6 1_555 1_555
H18 C10 1_555 1_555
H19 C23 1_555 1_555
H20 N1 1_555 1_555
H21 C17 1_555 1_555
H22 C24 1_555 1_555
H23 C17 1_555 1_555
H24 C19 1_555 1_555
H25 C24 1_555 1_555
H26 C23 1_555 1_555
H27 C18 1_555 1_555
C5 C8 1_555 1_555
C11 C15 1_555 1_555
O6 C24 1_555 1_555
C19 C25 1_555 1_555
C20 C25 1_555 1_555

#END
