
#######################################################################
#
#                 Cambridge Crystallographic Data Centre
#                                CCDC 
#
#######################################################################
#
# If this CIF has been generated from an entry in the Cambridge 
# Structural Database, then it will include bibliographic, chemical, 
# crystal, experimental, refinement or atomic coordinate data resulting 
# from the CCDC's data processing and validation procedures.
#
#######################################################################

data_KAWGAQ
_chemical_name_common            
"5,11,7,23-tetrabromo-2,8,14,20-tetrakis(2-phenylethyl)-6,10:12,16:18,22:24,4-O,O'-tetraethylenecalix[4]resorcinarene dichloromethane solvate"
_chemical_formula_moiety         'C68 H60 Br4 O8,3(C1 H2 Cl2)'
_chemical_name_systematic        
"cis-8,13,18,32-Tetrabromo-5,6,10,11,15,16,20,21-octahydro-1,25,27,29-tetrakis(2-phenylethyl)-2,24:3,23-dimetheno-1H,25H,27H,29H-bis(1,4)dioxonino(6,5-j:6',5'-j')benzo(1,2-e:5,4-e')bis(1,4)benzodioxonine dichloromethane clathrate dichloromethane solvate"
_symmetry_cell_setting           monoclinic
_symmetry_space_group_name_H-M   'P 21/c'
_symmetry_Int_Tables_number      14
_space_group_name_Hall           '-P 2ybc'
loop_
_symmetry_equiv_pos_site_id
_symmetry_equiv_pos_as_xyz
1 x,y,z
2 x,1/2-y,1/2+z
3 -x,-y,-z
4 -x,1/2+y,1/2-z
_cell_length_a                   16.853(9)
_cell_length_b                   16.312(10)
_cell_length_c                   24.371(16)
_cell_angle_alpha                90
_cell_angle_beta                 92.97(5)
_cell_angle_gamma                90
_cell_volume                     6690.74
_exptl_crystal_colour            colorless
_exptl_crystal_description       prism
_chemical_melting_point          '184-186 deg.C'
_cell_formula_units_Z            4
loop_
_atom_site_label
_atom_site_type_symbol
_atom_site_fract_x
_atom_site_fract_y
_atom_site_fract_z
C1 C 0.2532(8) -0.0116(6) -0.0011(4)
H1 H 0.2848(8) -0.0432(6) -0.0250(4)
H2 H 0.2371(8) -0.0466(6) 0.0280(4)
C2 C 0.1765(9) 0.0176(6) -0.0326(5)
H3 H 0.1918(9) 0.0430(6) -0.0660(5)
H4 H 0.1505(9) 0.0578(6) -0.0111(5)
C3 C 0.1193(5) -0.0506(4) -0.0454(4)
C4 C 0.0681(7) -0.0766(6) -0.0059(3)
H5 H 0.0690(10) -0.0502(8) 0.0293(3)
C5 C 0.0158(5) -0.1409(6) -0.0175(4)
H6 H -0.0195(7) -0.1589(9) 0.0097(6)
C6 C 0.0146(5) -0.1792(4) -0.0685(5)
H7 H -0.0216(7) -0.2235(6) -0.0766(7)
C7 C 0.0657(7) -0.1531(5) -0.1079(3)
H8 H 0.0649(10) -0.1795(8) -0.1432(3)
C8 C 0.1181(5) -0.0889(6) -0.0963(3)
H9 H 0.1534(7) -0.0709(9) -0.1236(5)
C9 C 0.4462(8) -0.2191(5) 0.0812(3)
H10 H 0.3953(8) -0.2120(5) 0.0965(3)
H11 H 0.4401(8) -0.2136(5) 0.0420(3)
C10 C 0.4768(8) -0.3017(5) 0.0971(4)
H12 H 0.4875(8) -0.3040(5) 0.1361(4)
H13 H 0.5261(8) -0.3090(5) 0.0796(4)
C11 C 0.4230(5) -0.3701(4) 0.0774(4)
C12 C 0.3579(6) -0.3927(5) 0.1067(2)
H14 H 0.3486(9) -0.3667(7) 0.1411(3)
C13 C 0.3061(4) -0.4530(6) 0.0861(4)
H15 H 0.2611(6) -0.4686(8) 0.1064(5)
C14 C 0.3195(5) -0.4905(4) 0.0363(4)
H16 H 0.2838(7) -0.5322(5) 0.0221(6)
C15 C 0.3847(6) -0.4679(5) 0.0070(2)
H17 H 0.3939(9) -0.4939(7) -0.0275(3)
C16 C 0.4364(4) -0.4077(5) 0.0276(3)
H18 H 0.4814(6) -0.3920(8) 0.0073(5)
C17 C 0.2908(9) -0.2354(6) 0.2464(4)
H19 H 0.2735(9) -0.2239(6) 0.2091(4)
H20 H 0.3292(9) -0.2788(6) 0.2460(4)
C18 C 0.2242(9) -0.2667(6) 0.2803(4)
H21 H 0.1867(9) -0.2227(6) 0.2829(4)
H22 H 0.2416(9) -0.2827(6) 0.3169(4)
C19 C 0.1788(8) -0.3395(5) 0.2534(3)
C20 C 0.2202(5) -0.4090(7) 0.2384(3)
H23 H 0.2768(5) -0.4117(11) 0.2449(5)
C21 C 0.1796(7) -0.4748(4) 0.2139(3)
H24 H 0.2081(11) -0.5228(6) 0.2035(5)
C22 C 0.0976(7) -0.4710(5) 0.2045(3)
H25 H 0.0695(11) -0.5164(7) 0.1876(4)
C23 C 0.0562(5) -0.4015(8) 0.2195(4)
H26 H -0.0004(5) -0.3989(12) 0.2130(6)
C24 C 0.0969(8) -0.3358(5) 0.2440(3)
H27 H 0.0683(11) -0.2878(7) 0.2544(5)
C25 C 0.0857(8) -0.0299(6) 0.1570(4)
H28 H 0.0529(8) -0.0077(6) 0.1273(4)
H29 H 0.1235(8) -0.0664(6) 0.1419(4)
C26 C 0.0347(9) -0.0827(6) 0.1915(4)
H30 H -0.0050(9) -0.0479(6) 0.2061(4)
H31 H 0.0664(9) -0.1060(6) 0.2215(4)
C27 C -0.0110(8) -0.1463(5) 0.1572(3)
C28 C 0.0328(5) -0.2128(7) 0.1398(4)
H32 H 0.0884(5) -0.2169(11) 0.1501(6)
C29 C -0.0040(7) -0.2736(5) 0.1076(4)
H33 H 0.0262(11) -0.3195(6) 0.0956(5)
C30 C -0.0846(8) -0.2677(5) 0.0927(3)
H34 H -0.1100(11) -0.3096(8) 0.0704(4)
C31 C -0.1283(5) -0.2012(8) 0.1101(4)
H35 H -0.1839(5) -0.1972(12) 0.0998(6)
C32 C -0.0915(8) -0.1405(5) 0.1423(4)
H36 H -0.1217(11) -0.0946(7) 0.1543(5)
Br1 Br 0.59655(12) 0.15484(6) 0.07248(4)
Br2 Br 0.16447(11) 0.33567(6) 0.09663(5)
Br3 Br 0.65084(13) -0.15838(7) 0.30551(4)
Br4 Br 0.27885(12) 0.11575(7) 0.37882(4)
C33 C 0.2391(10) 0.1879(6) 0.0649(5)
C34 C 0.5157(12) 0.0723(8) 0.0674(4)
O1 O 0.4807(6) -0.1612(4) 0.3392(2)
C35 C 0.4103(14) -0.1520(7) 0.2505(5)
O2 O 0.2668(7) 0.2342(4) 0.0224(3)
C36 C 0.3979(11) -0.0423(7) 0.0666(4)
H37 H 0.3627(11) -0.0882(7) 0.0613(4)
O3 O 0.1602(6) 0.1361(4) 0.2803(2)
O4 O 0.4288(6) 0.1696(4) 0.0254(2)
O5 O 0.6371(9) -0.1582(6) 0.1797(4)
C37 C 0.3018(11) 0.0611(6) 0.0245(4)
H38 H 0.3098(11) 0.1001(6) -0.0041(4)
C38 C 0.5325(14) -0.0072(9) 0.0845(5)
C39 C 0.4906(10) -0.0874(7) 0.3702(4)
H39 H 0.5404(10) -0.0642(7) 0.3606(4)
H40 H 0.4927(10) -0.0987(7) 0.4089(4)
C40 C 0.2552(9) 0.1037(6) 0.0669(4)
O6 O 0.1033(6) 0.2115(4) 0.1792(3)
O7 O 0.3542(9) -0.0511(5) 0.3606(3)
C41 C 0.2871(9) -0.0837(6) 0.2741(4)
C42 C 0.4445(14) 0.0941(8) 0.0468(5)
C43 C 0.1300(8) 0.0391(6) 0.1877(4)
H41 H 0.0925(8) 0.0752(6) 0.2036(4)
C44 C 0.6379(8) -0.0125(6) 0.1549(4)
H42 H 0.6730(8) 0.0337(6) 0.1539(4)
H43 H 0.5958(8) 0.0010(6) 0.1784(4)
C45 C 0.1392(9) 0.2550(6) 0.2260(4)
H44 H 0.0960(9) 0.2671(6) 0.2488(4)
H45 H 0.1624(9) 0.3057(6) 0.2150(4)
C46 C 0.1993(9) 0.2068(6) 0.2598(4)
H46 H 0.2399(9) 0.1910(6) 0.2357(4)
H47 H 0.2237(9) 0.2386(6) 0.2892(4)
C47 C 0.1718(9) 0.0930(6) 0.1477(4)
C48 C 0.2991(10) -0.0291(7) 0.3179(4)
C49 C 0.1892(9) 0.0119(6) 0.2333(4)
C50 C 0.2564(10) 0.0440(6) 0.3186(4)
C51 C 0.5573(13) -0.1510(8) 0.2605(6)
C52 C 0.2210(8) 0.0604(6) 0.1089(4)
H48 H 0.2322(8) 0.0027(6) 0.1105(4)
C53 C 0.1567(10) 0.1782(7) 0.1442(5)
C54 C 0.2316(9) -0.0606(6) 0.2328(4)
H49 H 0.2229(9) -0.0957(6) 0.2014(4)
C55 C 0.4029(9) 0.2299(7) 0.0625(4)
H50 H 0.4487(9) 0.2644(7) 0.0686(4)
H51 H 0.3894(9) 0.2065(7) 0.0970(4)
C56 C 0.6820(9) -0.0865(7) 0.1771(4)
H52 H 0.7259(9) -0.0962(7) 0.1543(4)
H53 H 0.7039(9) -0.0718(7) 0.2128(4)
C57 C 0.4954(16) -0.1495(8) 0.1695(5)
C58 C 0.4983(8) -0.1491(5) 0.1074(3)
H54 H 0.5492(8) -0.1565(5) 0.0922(3)
C59 C 0.3358(11) 0.2798(7) 0.0367(5)
H55 H 0.3227(11) 0.3232(7) 0.0613(5)
H56 H 0.3525(11) 0.3047(7) 0.0036(5)
C60 C 0.5634(17) -0.1504(9) 0.2018(6)
C61 C 0.1913(9) 0.2232(6) 0.1030(5)
C62 C 0.4213(12) -0.1488(7) 0.1932(5)
H57 H 0.3743(12) -0.1463(7) 0.1692(5)
O8 O 0.6127(8) -0.0273(5) 0.0987(3)
C63 C 0.4314(12) -0.0220(7) 0.3536(5)
H58 H 0.4353(12) -0.0068(7) 0.3158(5)
H59 H 0.4363(12) 0.0271(7) 0.3752(5)
C64 C 0.4851(16) -0.1531(9) 0.2821(5)
C65 C 0.2042(10) 0.0656(7) 0.2775(5)
C66 C 0.4760(14) -0.0644(7) 0.0845(4)
C67 C 0.3341(12) -0.1633(8) 0.2747(5)
H60 H 0.3397(12) -0.1772(8) 0.3130(5)
C68 C 0.3827(13) 0.0363(8) 0.0464(4)
Cl1 Cl 0.3926(3) 0.0788(2) 0.19812(14)
Cl2 Cl 0.5397(4) 0.1052(2) 0.25873(14)
C69 C 0.4613(10) 0.1429(7) 0.2176(6)
H61 H 0.4363(10) 0.1860(7) 0.2372(6)
H62 H 0.4827(10) 0.1663(7) 0.1854(6)
Cl3 Cl 0.2195(5) -0.2276(5) 0.0683(4)
Cl6 Cl 0.2483(6) -0.2885(5) -0.0373(4)
C71 C 0.1768(20) -0.3001(19) 0.0217(11)
H65 H 0.1226(20) -0.2893(19) 0.0099(11)
H66 H 0.1812(20) -0.3543(19) 0.0369(11)
Cl4 Cl -0.0759(6) -0.6034(5) 0.1400(3)
Cl5 Cl -0.0604(8) -0.5124(7) 0.0484(6)
C70 C -0.1258(21) -0.5535(27) 0.0816(15)
H63 H -0.1816(21) -0.5412(27) 0.0790(15)
H64 H -0.1148(21) -0.6010(27) 0.0601(15)
loop_
_geom_bond_atom_site_label_1
_geom_bond_atom_site_label_2
_geom_bond_site_symmetry_1
_geom_bond_site_symmetry_2
C1 H1 1_555 1_555
H2 C1 1_555 1_555
C2 C1 1_555 1_555
H3 C2 1_555 1_555
H4 C2 1_555 1_555
C3 C2 1_555 1_555
C4 C3 1_555 1_555
H5 C4 1_555 1_555
C5 C4 1_555 1_555
H6 C5 1_555 1_555
C6 C5 1_555 1_555
H7 C6 1_555 1_555
C7 C6 1_555 1_555
H8 C7 1_555 1_555
C8 C3 1_555 1_555
H9 C8 1_555 1_555
C9 H10 1_555 1_555
H11 C9 1_555 1_555
C10 C9 1_555 1_555
H12 C10 1_555 1_555
H13 C10 1_555 1_555
C11 C10 1_555 1_555
C12 C11 1_555 1_555
H14 C12 1_555 1_555
C13 C12 1_555 1_555
H15 C13 1_555 1_555
C14 C13 1_555 1_555
H16 C14 1_555 1_555
C15 C14 1_555 1_555
H17 C15 1_555 1_555
C16 C11 1_555 1_555
H18 C16 1_555 1_555
C17 H19 1_555 1_555
H20 C17 1_555 1_555
C18 C17 1_555 1_555
H21 C18 1_555 1_555
H22 C18 1_555 1_555
C19 C18 1_555 1_555
C20 C19 1_555 1_555
H23 C20 1_555 1_555
C21 C20 1_555 1_555
H24 C21 1_555 1_555
C22 C21 1_555 1_555
H25 C22 1_555 1_555
C23 C22 1_555 1_555
H26 C23 1_555 1_555
C24 C19 1_555 1_555
H27 C24 1_555 1_555
C25 H28 1_555 1_555
H29 C25 1_555 1_555
C26 C25 1_555 1_555
H30 C26 1_555 1_555
H31 C26 1_555 1_555
C27 C26 1_555 1_555
C28 C27 1_555 1_555
H32 C28 1_555 1_555
C29 C28 1_555 1_555
H33 C29 1_555 1_555
C30 C29 1_555 1_555
H34 C30 1_555 1_555
C31 C30 1_555 1_555
H35 C31 1_555 1_555
C32 C27 1_555 1_555
H36 C32 1_555 1_555
Br1 C34 1_555 1_555
Br2 C61 1_555 1_555
Br3 C51 1_555 1_555
Br4 C50 1_555 1_555
C33 O2 1_555 1_555
C34 C38 1_555 1_555
O1 C39 1_555 1_555
C35 C62 1_555 1_555
O2 C59 1_555 1_555
C36 H37 1_555 1_555
O3 C46 1_555 1_555
O4 C42 1_555 1_555
O5 C56 1_555 1_555
C37 C1 1_555 1_555
H38 C37 1_555 1_555
C38 O8 1_555 1_555
C39 H39 1_555 1_555
H40 C39 1_555 1_555
C40 C33 1_555 1_555
O6 C45 1_555 1_555
O7 C48 1_555 1_555
C41 C48 1_555 1_555
C42 C34 1_555 1_555
C43 C25 1_555 1_555
H41 C43 1_555 1_555
C44 H42 1_555 1_555
H43 C44 1_555 1_555
C45 H44 1_555 1_555
H45 C45 1_555 1_555
C46 C45 1_555 1_555
H46 C46 1_555 1_555
H47 C46 1_555 1_555
C47 C43 1_555 1_555
C48 C50 1_555 1_555
C49 C43 1_555 1_555
C50 C65 1_555 1_555
C51 C60 1_555 1_555
C52 C40 1_555 1_555
H48 C52 1_555 1_555
C53 O6 1_555 1_555
C54 C41 1_555 1_555
H49 C54 1_555 1_555
C55 O4 1_555 1_555
H50 C55 1_555 1_555
H51 C55 1_555 1_555
C56 C44 1_555 1_555
H52 C56 1_555 1_555
H53 C56 1_555 1_555
C57 C58 1_555 1_555
C58 C9 1_555 1_555
H54 C58 1_555 1_555
C59 C55 1_555 1_555
H55 C59 1_555 1_555
H56 C59 1_555 1_555
C60 O5 1_555 1_555
C61 C33 1_555 1_555
C62 C57 1_555 1_555
H57 C62 1_555 1_555
O8 C44 1_555 1_555
C63 C39 1_555 1_555
H58 C63 1_555 1_555
H59 C63 1_555 1_555
C64 O1 1_555 1_555
C65 O3 1_555 1_555
Cl1 C69 1_555 1_555
C66 C36 1_555 1_555
C67 C17 1_555 1_555
H60 C67 1_555 1_555
C68 C36 1_555 1_555
Cl2 C69 1_555 1_555
C69 H61 1_555 1_555
H62 C69 1_555 1_555
Cl3 C71 1_555 1_555
Cl4 C70 1_555 1_555
Cl5 C70 1_555 1_555
C70 H63 1_555 1_555
H64 C70 1_555 1_555
Cl6 C71 1_555 1_555
C71 H65 1_555 1_555
H66 C71 1_555 1_555
C7 C8 1_555 1_555
C15 C16 1_555 1_555
C23 C24 1_555 1_555
C31 C32 1_555 1_555
C35 C67 1_555 1_555
C35 C64 1_555 1_555
C37 C40 1_555 1_555
C37 C68 1_555 1_555
C38 C66 1_555 1_555
O7 C63 1_555 1_555
C41 C67 1_555 1_555
C42 C68 1_555 1_555
C47 C52 1_555 1_555
C47 C53 1_555 1_555
C49 C54 1_555 1_555
C49 C65 1_555 1_555
C51 C64 1_555 1_555
C53 C61 1_555 1_555
C57 C60 1_555 1_555
C58 C66 1_555 1_555

#END
