
#######################################################################
#
#                 Cambridge Crystallographic Data Centre
#                                CCDC 
#
#######################################################################
#
# If this CIF has been generated from an entry in the Cambridge 
# Structural Database, then it will include bibliographic, chemical, 
# crystal, experimental, refinement or atomic coordinate data resulting 
# from the CCDC's data processing and validation procedures.
#
#######################################################################

data_KAWTOU
_chemical_formula_moiety         'C4 N6 O9 2-,2(H4 N1 1+),H2 O1'
_chemical_name_systematic        
'ammonium (5-(dinitromethanidyl)-1,3,4-oxadiazol-2-yl)(dinitro)methanide monohydrate'
_symmetry_cell_setting           monoclinic
_symmetry_space_group_name_H-M   'C 2/m'
_symmetry_Int_Tables_number      12
_space_group_name_Hall           '-C 2y'
loop_
_symmetry_equiv_pos_site_id
_symmetry_equiv_pos_as_xyz
1 x,y,z
2 -x,y,-z
3 1/2+x,1/2+y,z
4 1/2-x,1/2+y,-z
5 -x,-y,-z
6 x,-y,z
7 1/2-x,1/2-y,-z
8 1/2+x,1/2-y,z
_cell_length_a                   12.9261(4)
_cell_length_b                   8.0809(2)
_cell_length_c                   11.9247(4)
_cell_angle_alpha                90
_cell_angle_beta                 96.7870(10)
_cell_angle_gamma                90
_cell_volume                     1236.86
_exptl_crystal_colour            colorless
_exptl_crystal_description       block
_cell_formula_units_Z            4
loop_
_atom_site_label
_atom_site_type_symbol
_atom_site_fract_x
_atom_site_fract_y
_atom_site_fract_z
O1 O 0.48930(10) 0.72313(15) 0.85382(10)
O2 O 0.36232(10) 0.83793(15) 0.92989(11)
N1 N 0.44126(11) 0.84958(16) 0.88062(11)
C1 C 0.48294(18) 1.0000 0.85448(18)
C2 C 0.57071(19) 1.0000 0.78791(19)
N2 N 0.66908(17) 1.0000 0.82060(17)
N3 N 0.71895(17) 1.0000 0.72193(17)
C3 C 0.64566(18) 1.0000 0.63895(19)
C4 C 0.65354(18) 1.0000 0.51783(19)
N4 N 0.64581(10) 0.85006(17) 0.46226(11)
O3 O 0.62936(10) 0.72616(15) 0.52165(10)
O4 O 0.65388(10) 0.83598(16) 0.36014(10)
O5 O 0.54892(12) 1.0000 0.67369(13)
O1E O 0.48930(10) 1.27687(15) 0.85382(10)
O2E O 0.36232(10) 1.16207(15) 0.92989(11)
N1E N 0.44126(11) 1.15042(16) 0.88062(11)
N4E N 0.64581(10) 1.14994(17) 0.46226(11)
O3E O 0.62936(10) 1.27384(15) 0.52165(10)
O4E O 0.65388(10) 1.16402(16) 0.36014(10)
O6 O 0.67191(16) 0.5000 0.73536(17)
H1 H 0.704(2) 0.579(3) 0.716(2)
H1E H 0.704(2) 0.421(3) 0.716(2)
N5 N 0.66801(18) 0.5000 0.97922(18)
H2 H 0.6372(18) 0.594(3) 0.9977(19)
H3 H 0.676(2) 0.5000 0.905(3)
H4 H 0.727(3) 0.5000 1.017(3)
H2E H 0.6372(18) 0.406(3) 0.9977(19)
N6 N 0.45061(13) 0.5000 0.66571(14)
H5 H 0.52148(13) 0.5000 0.6770(13)
H6 H 0.4257(7) 0.4124(5) 0.6228(5)
H7 H 0.4228(4) 0.5000 0.7324(3)
H6E H 0.4257(7) 0.5876(5) 0.6228(5)
loop_
_geom_bond_atom_site_label_1
_geom_bond_atom_site_label_2
_geom_bond_site_symmetry_1
_geom_bond_site_symmetry_2
O1 N1 1_555 1_555
O2 N1 1_555 1_555
N1 C1 1_555 1_555
C1 C2 1_555 1_555
C2 N2 1_555 1_555
N2 N3 1_555 1_555
N3 C3 1_555 1_555
C3 C4 1_555 1_555
C4 N4 1_555 1_555
N4 O3 1_555 1_555
O4 N4 1_555 1_555
O5 C2 1_555 1_555
O6 H1 1_555 1_555
N5 H2 1_555 1_555
H3 N5 1_555 1_555
H4 N5 1_555 1_555
N6 H5 1_555 1_555
H6 N6 1_555 1_555
H7 N6 1_555 1_555
O1E N1E 1_555 1_555
O2E N1E 1_555 1_555
N1E C1 1_555 1_555
N4E C4 1_555 1_555
O3E N4E 1_555 1_555
O4E N4E 1_555 1_555
H1E O6 1_555 1_555
H2E N5 1_555 1_555
H6E N6 1_555 1_555
C3 O5 1_555 1_555

#END
