
#######################################################################
#
#                 Cambridge Crystallographic Data Centre
#                                CCDC 
#
#######################################################################
#
# If this CIF has been generated from an entry in the Cambridge 
# Structural Database, then it will include bibliographic, chemical, 
# crystal, experimental, refinement or atomic coordinate data resulting 
# from the CCDC's data processing and validation procedures.
#
#######################################################################

data_KAXJIE
_chemical_formula_moiety         'C13 H14 N4 O1'
_chemical_name_systematic        1,3-bis(6-methylpyridin-3-yl)urea
_symmetry_cell_setting           monoclinic
_symmetry_space_group_name_H-M   'P 21/c'
_symmetry_Int_Tables_number      14
_space_group_name_Hall           '-P 2ybc'
loop_
_symmetry_equiv_pos_site_id
_symmetry_equiv_pos_as_xyz
1 x,y,z
2 -x,1/2+y,1/2-z
3 -x,-y,-z
4 x,1/2-y,1/2+z
_cell_length_a                   7.3327(3)
_cell_length_b                   8.3914(3)
_cell_length_c                   19.4356(9)
_cell_angle_alpha                90
_cell_angle_beta                 91.255(2)
_cell_angle_gamma                90
_cell_volume                     1195.62
_exptl_crystal_colour            colorless
_exptl_crystal_description       prism
_cell_formula_units_Z            4
loop_
_atom_site_label
_atom_site_type_symbol
_atom_site_fract_x
_atom_site_fract_y
_atom_site_fract_z
O1 O 0.2423(2) -0.0022(2) 0.42603(8)
N1 N 0.7934(3) 0.3067(2) 0.31394(9)
N2 N -0.3011(3) -0.3129(2) 0.31608(10)
N3 N 0.1122(3) -0.0734(2) 0.32441(9)
H1 H 0.1234 -0.0693 0.2805
N4 N 0.3803(3) 0.0653(2) 0.32343(9)
H2 H 0.366 0.0586 0.2795
C1 C -0.1485(3) -0.2331(3) 0.30117(12)
H3 H -0.1115 -0.2319 0.2557
C2 C 0.6417(3) 0.2275(3) 0.29964(12)
H4 H 0.601 0.2267 0.254
C3 C 0.5353(3) 0.1435(3) 0.34755(11)
C4 C -0.0439(3) -0.1529(3) 0.34941(11)
C5 C -0.1046(3) -0.1590(3) 0.41757(11)
H5 H -0.0386 -0.1077 0.4524
C6 C 0.5947(3) 0.1437(3) 0.41504(12)
H6 H 0.531 0.0907 0.449
C7 C 0.7527(3) 0.2258(3) 0.43000(12)
H7 H 0.7961 0.2282 0.4753
C8 C -0.2638(3) -0.2422(3) 0.43295(12)
H8 H -0.3036 -0.2458 0.478
C9 C -0.3608(3) -0.3181(3) 0.38190(11)
C10 C 0.8508(3) 0.3060(3) 0.37954(12)
C11 C 0.2446(3) -0.0038(3) 0.36316(11)
C12 C 1.0236(3) 0.3946(3) 0.39404(13)
H9 H 1.1256 0.33 0.3813
H10 H 1.0329 0.4191 0.4422
H11 H 1.0237 0.4916 0.3679
C13 C -0.5351(3) -0.4059(3) 0.39664(13)
H12 H -0.6376 -0.3422 0.3821
H13 H -0.5415 -0.4262 0.4451
H14 H -0.537 -0.5052 0.3721
loop_
_geom_bond_atom_site_label_1
_geom_bond_atom_site_label_2
_geom_bond_site_symmetry_1
_geom_bond_site_symmetry_2
O1 C11 1_555 1_555
N1 C2 1_555 1_555
N2 C1 1_555 1_555
N3 H1 1_555 1_555
N4 H2 1_555 1_555
C1 H3 1_555 1_555
C2 H4 1_555 1_555
C3 N4 1_555 1_555
C4 N3 1_555 1_555
C5 C4 1_555 1_555
H5 C5 1_555 1_555
C6 C3 1_555 1_555
H6 C6 1_555 1_555
C7 C6 1_555 1_555
H7 C7 1_555 1_555
C8 C5 1_555 1_555
H8 C8 1_555 1_555
C9 N2 1_555 1_555
C10 N1 1_555 1_555
C11 N3 1_555 1_555
C12 C10 1_555 1_555
H9 C12 1_555 1_555
H10 C12 1_555 1_555
H11 C12 1_555 1_555
C13 C9 1_555 1_555
H12 C13 1_555 1_555
H13 C13 1_555 1_555
H14 C13 1_555 1_555
N4 C11 1_555 1_555
C1 C4 1_555 1_555
C2 C3 1_555 1_555
C7 C10 1_555 1_555
C8 C9 1_555 1_555

#END
