
#######################################################################
#
#                 Cambridge Crystallographic Data Centre
#                                CCDC 
#
#######################################################################
#
# If this CIF has been generated from an entry in the Cambridge 
# Structural Database, then it will include bibliographic, chemical, 
# crystal, experimental, refinement or atomic coordinate data resulting 
# from the CCDC's data processing and validation procedures.
#
#######################################################################

data_KAXYIU
_chemical_formula_moiety         'C15 H12 N2 O3'
_chemical_name_systematic        
5-(4-methoxyphenyl)-3-phenyl-1,3,4-oxadiazol-2(3H)-one
_symmetry_cell_setting           orthorhombic
_symmetry_space_group_name_H-M   'P b c a'
_symmetry_Int_Tables_number      61
_space_group_name_Hall           '-P 2ac 2ab'
loop_
_symmetry_equiv_pos_site_id
_symmetry_equiv_pos_as_xyz
1 x,y,z
2 1/2-x,-y,1/2+z
3 -x,1/2+y,1/2-z
4 1/2+x,1/2-y,-z
5 -x,-y,-z
6 1/2+x,y,1/2-z
7 x,1/2-y,1/2+z
8 1/2-x,1/2+y,z
_cell_length_a                   11.031(2)
_cell_length_b                   7.7855(15)
_cell_length_c                   29.329(6)
_cell_angle_alpha                90
_cell_angle_beta                 90
_cell_angle_gamma                90
_cell_volume                     2518.83
_exptl_crystal_colour            colorless
_exptl_crystal_description       block
_cell_formula_units_Z            8
loop_
_atom_site_label
_atom_site_type_symbol
_atom_site_fract_x
_atom_site_fract_y
_atom_site_fract_z
N1 N 0.02943(10) 0.10228(14) 0.58929(4)
O1 O 0.20607(8) -0.01850(12) 0.57275(3)
O2 O 0.11383(10) 0.34911(13) 0.38218(3)
C1 C 0.11192(11) 0.15205(15) 0.51298(4)
C2 C 0.11144(11) 0.08272(16) 0.55888(4)
C3 C 0.19971(12) 0.17743(18) 0.43850(5)
H1 H 0.2605 0.1490 0.4179
C4 C 0.10667(12) 0.28728(16) 0.42520(4)
N2 N 0.07051(10) 0.00678(14) 0.62618(4)
C5 C -0.00042(12) -0.00417(16) 0.66647(4)
O3 O 0.24357(10) -0.16041(16) 0.63900(4)
C6 C 0.01442(12) 0.32581(16) 0.45575(5)
H2 H -0.0493 0.3967 0.4470
C7 C 0.20245(12) 0.11062(17) 0.48185(5)
H3 H 0.2651 0.0374 0.4904
C8 C 0.01801(12) 0.25824(18) 0.49910(5)
H4 H -0.0438 0.2844 0.5195
C9 C 0.17918(13) -0.06872(18) 0.61692(5)
C10 C 0.03945(14) -0.09817(19) 0.70373(5)
H5 H 0.1138 -0.1545 0.7028
C11 C 0.02028(17) 0.4618(2) 0.36684(5)
H6 H 0.0367 0.4966 0.3361
H7 H 0.0175 0.5613 0.3862
H8 H -0.0563 0.4033 0.3680
C12 C -0.11194(13) 0.07689(19) 0.66768(5)
H9 H -0.1396 0.1374 0.6424
C13 C -0.18191(15) 0.0674(2) 0.70663(5)
H10 H -0.2565 0.1229 0.7077
C14 C -0.03229(16) -0.1072(2) 0.74215(5)
H11 H -0.0061 -0.1706 0.7672
C15 C -0.14175(16) -0.0240(2) 0.74399(5)
H12 H -0.1887 -0.0291 0.7703
loop_
_geom_bond_atom_site_label_1
_geom_bond_atom_site_label_2
_geom_bond_site_symmetry_1
_geom_bond_site_symmetry_2
N1 C2 1_555 1_555
O1 C2 1_555 1_555
O2 C4 1_555 1_555
C1 C2 1_555 1_555
C3 H1 1_555 1_555
C4 C3 1_555 1_555
N2 N1 1_555 1_555
C5 N2 1_555 1_555
O3 C9 1_555 1_555
C6 C4 1_555 1_555
H2 C6 1_555 1_555
C7 C1 1_555 1_555
H3 C7 1_555 1_555
C8 C1 1_555 1_555
H4 C8 1_555 1_555
C9 O1 1_555 1_555
C10 C5 1_555 1_555
H5 C10 1_555 1_555
C11 O2 1_555 1_555
H6 C11 1_555 1_555
H7 C11 1_555 1_555
H8 C11 1_555 1_555
C12 C5 1_555 1_555
H9 C12 1_555 1_555
C13 C12 1_555 1_555
H10 C13 1_555 1_555
C14 C10 1_555 1_555
H11 C14 1_555 1_555
C15 C13 1_555 1_555
H12 C15 1_555 1_555
C3 C7 1_555 1_555
N2 C9 1_555 1_555
C6 C8 1_555 1_555
C14 C15 1_555 1_555

#END
