
#######################################################################
#
#                 Cambridge Crystallographic Data Centre
#                                CCDC 
#
#######################################################################
#
# If this CIF has been generated from an entry in the Cambridge 
# Structural Database, then it will include bibliographic, chemical, 
# crystal, experimental, refinement or atomic coordinate data resulting 
# from the CCDC's data processing and validation procedures.
#
#######################################################################

data_KAYDEW
_chemical_formula_moiety         'C25 H23 I1 N2 O2'
_chemical_name_systematic        
1-benzyl-3a-(2-hydroxyethyl)-3-(2-iodophenyl)-3,3a,8,8a-tetrahydropyrrolo[2,3-b]indol-2(1H)-one
_symmetry_cell_setting           monoclinic
_symmetry_space_group_name_H-M   'P 21'
_symmetry_Int_Tables_number      4
_space_group_name_Hall           'P 2yb'
loop_
_symmetry_equiv_pos_site_id
_symmetry_equiv_pos_as_xyz
1 x,y,z
2 -x,1/2+y,-z
_cell_length_a                   8.04752(15)
_cell_length_b                   8.79412(14)
_cell_length_c                   15.1588(3)
_cell_angle_alpha                90
_cell_angle_beta                 97.0754(17)
_cell_angle_gamma                90
_cell_volume                     1064.63
_exptl_crystal_colour            colorless
_exptl_crystal_description       plate
_cell_formula_units_Z            2
loop_
_atom_site_label
_atom_site_type_symbol
_atom_site_fract_x
_atom_site_fract_y
_atom_site_fract_z
I1 I 0.88896(4) 0.59741(4) 0.46351(3)
O1 O 0.7888(3) 1.1110(3) 0.35626(17)
O2 O 0.5120(4) 0.6704(3) 0.03297(17)
N1 N 0.6740(4) 1.0610(3) 0.21316(19)
N2 N 0.6936(4) 0.9418(3) 0.06909(19)
C1 C 0.6262(4) 0.9329(3) 0.1542(2)
H1 H 0.5023 0.9160 0.1461
C2 C 0.7226(4) 0.7971(4) 0.2039(2)
C3 C 0.7511(4) 0.8486(4) 0.3023(2)
H2 H 0.8642 0.8151 0.3303
C4 C 0.7445(4) 1.0217(4) 0.2966(2)
C5 C 0.8828(4) 0.8001(4) 0.1613(2)
C6 C 0.8590(4) 0.8863(4) 0.0831(2)
C7 C 0.9840(5) 0.9010(4) 0.0279(2)
H3 H 0.9684 0.9618 -0.0242
C8 C 1.1337(5) 0.8223(5) 0.0524(3)
H4 H 1.2210 0.8290 0.0158
C9 C 1.1575(5) 0.7344(5) 0.1294(3)
H5 H 1.2605 0.6822 0.1445
C10 C 1.0313(4) 0.7223(4) 0.1844(2)
H6 H 1.0470 0.6619 0.2367
C11 C 0.6354(4) 0.6418(4) 0.1904(2)
H7 H 0.6997 0.5669 0.2297
H8 H 0.5227 0.6501 0.2098
C12 C 0.6160(4) 0.5801(4) 0.0959(2)
H9 H 0.7284 0.5720 0.0761
H10 H 0.5685 0.4763 0.0961
C13 C 0.6177(5) 0.7951(4) 0.3582(2)
C14 C 0.6503(5) 0.6909(5) 0.4272(3)
C15 C 0.5244(5) 0.6454(5) 0.4780(3)
H11 H 0.5493 0.5753 0.5254
C16 C 0.3635(5) 0.7031(5) 0.4587(3)
H12 H 0.2781 0.6727 0.4930
C17 C 0.3279(5) 0.8050(4) 0.3894(3)
H13 H 0.2175 0.8434 0.3753
C18 C 0.4542(5) 0.8509(4) 0.3406(2)
H14 H 0.4288 0.9222 0.2938
C19 C 0.6184(5) 1.2164(4) 0.1919(2)
H15 H 0.6135 1.2329 0.1270
H16 H 0.7008 1.2887 0.2221
C20 C 0.4478(5) 1.2480(4) 0.2204(2)
C21 C 0.4339(6) 1.3179(5) 0.3012(3)
H17 H 0.5318 1.3525 0.3370
C22 C 0.2778(6) 1.3378(6) 0.3303(3)
H18 H 0.2698 1.3862 0.3856
C23 C 0.1332(6) 1.2869(6) 0.2785(3)
H19 H 0.0268 1.2995 0.2986
C24 C 0.1462(6) 1.2177(5) 0.1974(3)
H20 H 0.0483 1.1824 0.1618
C25 C 0.3020(5) 1.1999(5) 0.1679(3)
H21 H 0.3095 1.1546 0.1116
H22 H 0.677(9) 1.022(8) 0.041(4)
H23 H 0.563(9) 0.747(8) 0.024(4)
loop_
_geom_bond_atom_site_label_1
_geom_bond_atom_site_label_2
_geom_bond_site_symmetry_1
_geom_bond_site_symmetry_2
I1 C14 1_555 1_555
O1 C4 1_555 1_555
O2 C12 1_555 1_555
N1 C1 1_555 1_555
N2 C1 1_555 1_555
C1 H1 1_555 1_555
C2 C1 1_555 1_555
C3 C2 1_555 1_555
H2 C3 1_555 1_555
C4 N1 1_555 1_555
C5 C2 1_555 1_555
C6 N2 1_555 1_555
C7 C6 1_555 1_555
H3 C7 1_555 1_555
C8 C7 1_555 1_555
H4 C8 1_555 1_555
C9 C8 1_555 1_555
H5 C9 1_555 1_555
C10 C5 1_555 1_555
H6 C10 1_555 1_555
C11 C2 1_555 1_555
H7 C11 1_555 1_555
H8 C11 1_555 1_555
C12 C11 1_555 1_555
H9 C12 1_555 1_555
H10 C12 1_555 1_555
C13 C3 1_555 1_555
C14 C13 1_555 1_555
C15 C14 1_555 1_555
H11 C15 1_555 1_555
C16 C15 1_555 1_555
H12 C16 1_555 1_555
C17 C16 1_555 1_555
H13 C17 1_555 1_555
C18 C13 1_555 1_555
H14 C18 1_555 1_555
C19 N1 1_555 1_555
H15 C19 1_555 1_555
H16 C19 1_555 1_555
C20 C19 1_555 1_555
C21 C20 1_555 1_555
H17 C21 1_555 1_555
C22 C21 1_555 1_555
H18 C22 1_555 1_555
C23 C22 1_555 1_555
H19 C23 1_555 1_555
C24 C23 1_555 1_555
H20 C24 1_555 1_555
C25 C20 1_555 1_555
H21 C25 1_555 1_555
H22 N2 1_555 1_555
H23 O2 1_555 1_555
C3 C4 1_555 1_555
C5 C6 1_555 1_555
C9 C10 1_555 1_555
C17 C18 1_555 1_555
C24 C25 1_555 1_555

#END
