
#######################################################################
#
#                 Cambridge Crystallographic Data Centre
#                                CCDC 
#
#######################################################################
#
# If this CIF has been generated from an entry in the Cambridge 
# Structural Database, then it will include bibliographic, chemical, 
# crystal, experimental, refinement or atomic coordinate data resulting 
# from the CCDC's data processing and validation procedures.
#
#######################################################################

data_KAYFAU
_chemical_name_common            'anthriscifolmine C'
_chemical_formula_moiety         'C29 H31 N1 O7'
_chemical_name_systematic        
'2-acetoxy-11,19-dihydroxy-13-oxohetisan-3-yl benzoate'
_symmetry_cell_setting           orthorhombic
_symmetry_space_group_name_H-M   'P 21 21 21'
_symmetry_Int_Tables_number      19
_space_group_name_Hall           'P 2ac 2ab'
loop_
_symmetry_equiv_pos_site_id
_symmetry_equiv_pos_as_xyz
1 x,y,z
2 1/2-x,-y,1/2+z
3 1/2+x,1/2-y,-z
4 -x,1/2+y,1/2-z
_cell_length_a                   13.1758(7)
_cell_length_b                   18.3883(9)
_cell_length_c                   21.9022(13)
_cell_angle_alpha                90
_cell_angle_beta                 90
_cell_angle_gamma                90
_cell_volume                     5306.48
_cell_formula_units_Z            8
loop_
_atom_site_label
_atom_site_type_symbol
_atom_site_fract_x
_atom_site_fract_y
_atom_site_fract_z
C1 C 0.2457(2) -1.22841(16) -0.08531(15)
C2 C 0.1884(2) -1.29886(16) -0.08952(16)
H1 H 0.1874 -1.3244 -0.0503
C3 C 0.2413(3) -1.34257(17) -0.13768(18)
C4 C 0.2337(3) -1.30982(18) -0.19842(16)
H2 H 0.1883 -1.3386 -0.2236
H3 H 0.3000 -1.3096 -0.2176
C5 C 0.1936(2) -1.23168(16) -0.19404(14)
C6 C 0.1933(3) -1.18985(18) -0.25339(14)
H4 H 0.2618 -1.1880 -0.2696
H5 H 0.1510 -1.2151 -0.2828
C7 C 0.1542(2) -1.11331(16) -0.24514(14)
H6 H 0.1544 -1.0867 -0.2839
C8 C 0.0520(2) -1.10719(17) -0.21353(14)
H7 H -0.0042 -1.1293 -0.2362
C9 C 0.0422(2) -1.02316(17) -0.20532(16)
C10 C -0.0300(2) -1.00413(17) -0.15301(18)
H8 H -0.0997 -1.0125 -0.1671
C11 C -0.0157(2) -1.04440(17) -0.09299(17)
H9 H -0.0756 -1.0367 -0.0673
C12 C -0.0010(2) -1.12502(17) -0.10276(16)
H10 H -0.0660 -1.1464 -0.1133
H11 H 0.0209 -1.1467 -0.0646
C13 C 0.0755(2) -1.14465(15) -0.15224(13)
C14 C 0.0866(2) -1.22751(16) -0.16609(14)
H12 H 0.0364 -1.2418 -0.1969
C15 C 0.0808(2) -1.28053(16) -0.11126(15)
H13 H 0.0418 -1.2585 -0.0779
C16 C 0.2518(2) -1.18774(15) -0.14548(13)
H14 H 0.3221 -1.1783 -0.1577
C17 C 0.18932(19) -1.11820(15) -0.14237(13)
H15 H 0.1987 -1.0917 -0.1040
N1 N 0.21384(18) -1.07330(12) -0.19703(11)
C18 C 0.1565(2) -1.00386(15) -0.19208(15)
H16 H 0.1629 -0.9845 -0.1506
C19 C 0.2909(4) -1.4034(2) -0.1240(2)
H17 H 0.3247 -1.4290 -0.1545
H18 H 0.2917 -1.4204 -0.0840
C20 C 0.0015(3) -0.9881(2) -0.26321(19)
H19 H 0.0430 -1.0020 -0.2973
H20 H 0.0028 -0.9361 -0.2588
H21 H -0.0670 -1.0039 -0.2701
C21 C 0.0652(3) -0.96824(17) -0.01662(16)
C22 C 0.1640(3) -0.9452(2) 0.00597(19)
H22 H 0.2160 -0.9620 -0.0213
H23 H 0.1751 -0.9654 0.0458
H24 H 0.1660 -0.8931 0.0083
C23 C -0.0998(3) -0.88562(19) -0.12674(19)
C24 C -0.0718(3) -0.80814(18) -0.11848(16)
C25 C -0.1418(3) -0.7620(2) -0.09262(19)
H25 H -0.2045 -0.7797 -0.0800
C26 C -0.1185(5) -0.6892(2) -0.08547(19)
H26 H -0.1649 -0.6584 -0.0667
C27 C -0.0299(5) -0.6628(2) -0.1053(2)
H27 H -0.0165 -0.6134 -0.1012
C28 C 0.0409(4) -0.7069(2) -0.1313(3)
H28 H 0.1030 -0.6882 -0.1439
C29 C 0.0190(3) -0.7808(2) -0.1388(2)
H29 H 0.0659 -0.8113 -0.1575
O1 O 0.28516(19) -1.20538(14) -0.03915(11)
O2 O 0.0305(2) -1.34358(12) -0.13291(12)
H30 H 0.0440 -1.3781 -0.1107
O3 O 0.19506(18) -0.95330(12) -0.23413(10)
O4 O 0.07338(15) -1.01737(11) -0.06130(10)
O5 O -0.0168(2) -0.94643(16) 0.00130(15)
O6 O -0.01721(15) -0.92615(11) -0.14281(12)
O7 O -0.18286(19) -0.90993(15) -0.12346(19)
H31 H 0.263(4) -0.948(3) -0.221(2)
C30 C 0.4760(3) -0.72079(19) -0.08231(18)
H32 H 0.4972 -0.7440 -0.0441
C31 C 0.3628(3) -0.70095(18) -0.07910(18)
H33 H 0.3470 -0.6747 -0.0413
C32 C 0.3033(3) -0.77016(18) -0.08342(17)
C33 C 0.3266(2) -0.81223(16) -0.14140(14)
H34 H 0.2646 -0.8228 -0.1645
C34 C 0.3867(2) -0.88151(16) -0.12833(14)
N2 N 0.38405(18) -0.92730(13) -0.18490(11)
C35 C 0.4370(2) -0.99745(15) -0.17009(13)
C36 C 0.5525(2) -0.97722(16) -0.16786(14)
C37 C 0.6039(2) -0.99709(17) -0.10741(15)
H35 H 0.6772 -0.9900 -0.1125
C38 C 0.5710(2) -0.95500(17) -0.05104(15)
H36 H 0.6231 -0.9608 -0.0195
C39 C 0.5566(2) -0.87468(17) -0.06321(14)
H37 H 0.6230 -0.8518 -0.0642
H38 H 0.5196 -0.8538 -0.0292
C40 C 0.5007(2) -0.85516(16) -0.12227(13)
C41 C 0.4948(3) -0.77282(17) -0.13646(15)
H39 H 0.5565 -0.7579 -0.1580
C42 C 0.4038(3) -0.76867(17) -0.18057(15)
C43 C 0.3667(3) -0.69078(19) -0.1913(2)
H40 H 0.4212 -0.6622 -0.2090
H41 H 0.3107 -0.6913 -0.2200
C44 C 0.3337(3) -0.65700(18) -0.13434(19)
C45 C 0.4263(3) -0.81088(18) -0.23830(15)
H42 H 0.4790 -0.7861 -0.2612
H43 H 0.3658 -0.8126 -0.2635
C46 C 0.4610(2) -0.88886(17) -0.22387(13)
C47 C 0.5468(2) -0.89423(17) -0.17776(14)
C48 C 0.2801(4) -0.5954(2) -0.1309(3)
H44 H 0.2615 -0.5711 -0.1664
H45 H 0.2616 -0.5768 -0.0930
C49 C 0.6147(3) -1.0134(2) -0.21870(18)
H46 H 0.6091 -1.0653 -0.2153
H47 H 0.6847 -0.9995 -0.2149
H48 H 0.5894 -0.9981 -0.2577
C50 C 0.4804(3) -1.03161(18) 0.01939(15)
C51 C 0.3818(3) -1.0631(2) 0.0344(2)
H49 H 0.3424 -1.0285 0.0570
H50 H 0.3914 -1.1062 0.0585
H51 H 0.3467 -1.0754 -0.0026
C52 C 0.6642(3) -1.1202(2) -0.0986(2)
C53 C 0.6324(3) -1.1959(2) -0.09187(19)
C54 C 0.6998(3) -1.2504(2) -0.1063(2)
H52 H 0.7650 -1.2387 -0.1193
C55 C 0.6711(5) -1.3227(3) -0.1015(2)
H53 H 0.7171 -1.3592 -0.1113
C56 C 0.5776(5) -1.3401(3) -0.0828(2)
H54 H 0.5589 -1.3888 -0.0798
C57 C 0.5085(4) -1.2864(2) -0.0680(3)
H55 H 0.4438 -1.2990 -0.0546
C58 C 0.5351(3) -1.2153(2) -0.0729(2)
H56 H 0.4881 -1.1793 -0.0635
O8 O 0.5345(2) -0.65728(15) -0.09279(17)
H57 H 0.5109 -0.6234 -0.0730
O9 O 0.2432(2) -0.79023(15) -0.04607(12)
O10 O 0.41754(16) -1.04811(11) -0.21589(10)
H58 H 0.3563 -1.0554 -0.2181
O11 O 0.47607(15) -0.98449(12) -0.02808(10)
O12 O 0.5578(2) -1.04448(16) 0.04555(13)
O13 O 0.58663(15) -1.07345(12) -0.09611(11)
O14 O 0.7497(2) -1.10086(17) -0.1064(2)
H59 H 0.354(2) -0.9144(18) -0.0891(16)
H60 H 0.593(3) -0.871(2) -0.1886(17)
loop_
_geom_bond_atom_site_label_1
_geom_bond_atom_site_label_2
_geom_bond_site_symmetry_1
_geom_bond_site_symmetry_2
C1 C2 1_555 1_555
C2 H1 1_555 1_555
C3 C2 1_555 1_555
C4 C3 1_555 1_555
H2 C4 1_555 1_555
H3 C4 1_555 1_555
C5 C4 1_555 1_555
C6 C5 1_555 1_555
H4 C6 1_555 1_555
H5 C6 1_555 1_555
C7 C6 1_555 1_555
H6 C7 1_555 1_555
C8 C7 1_555 1_555
H7 C8 1_555 1_555
C9 C8 1_555 1_555
C10 C9 1_555 1_555
H8 C10 1_555 1_555
C11 C10 1_555 1_555
H9 C11 1_555 1_555
C12 C11 1_555 1_555
H10 C12 1_555 1_555
H11 C12 1_555 1_555
C13 C8 1_555 1_555
C14 C5 1_555 1_555
H12 C14 1_555 1_555
C15 C2 1_555 1_555
H13 C15 1_555 1_555
C16 C1 1_555 1_555
H14 C16 1_555 1_555
C17 C13 1_555 1_555
H15 C17 1_555 1_555
N1 C7 1_555 1_555
C18 C9 1_555 1_555
H16 C18 1_555 1_555
C19 C3 1_555 1_555
H17 C19 1_555 1_555
H18 C19 1_555 1_555
C20 C9 1_555 1_555
H19 C20 1_555 1_555
H20 C20 1_555 1_555
H21 C20 1_555 1_555
C21 C22 1_555 1_555
C22 H22 1_555 1_555
H23 C22 1_555 1_555
H24 C22 1_555 1_555
C23 C24 1_555 1_555
C24 C25 1_555 1_555
C25 H25 1_555 1_555
C26 C25 1_555 1_555
H26 C26 1_555 1_555
C27 C26 1_555 1_555
H27 C27 1_555 1_555
C28 C27 1_555 1_555
H28 C28 1_555 1_555
C29 C24 1_555 1_555
H29 C29 1_555 1_555
O1 C1 1_555 1_555
O2 C15 1_555 1_555
H30 O2 1_555 1_555
O3 C18 1_555 1_555
O4 C11 1_555 1_555
O5 C21 1_555 1_555
O6 C10 1_555 1_555
O7 C23 1_555 1_555
H31 O3 1_555 1_555
C30 H32 1_555 1_555
C31 C30 1_555 1_555
H33 C31 1_555 1_555
C32 C31 1_555 1_555
C33 C32 1_555 1_555
H34 C33 1_555 1_555
C34 C33 1_555 1_555
N2 C34 1_555 1_555
C35 N2 1_555 1_555
C36 C35 1_555 1_555
C37 C36 1_555 1_555
H35 C37 1_555 1_555
C38 C37 1_555 1_555
H36 C38 1_555 1_555
C39 C38 1_555 1_555
H37 C39 1_555 1_555
H38 C39 1_555 1_555
C40 C34 1_555 1_555
C41 C30 1_555 1_555
H39 C41 1_555 1_555
C42 C33 1_555 1_555
C43 C42 1_555 1_555
H40 C43 1_555 1_555
H41 C43 1_555 1_555
C44 C31 1_555 1_555
C45 C42 1_555 1_555
H42 C45 1_555 1_555
H43 C45 1_555 1_555
C46 N2 1_555 1_555
C47 C36 1_555 1_555
C48 C44 1_555 1_555
H44 C48 1_555 1_555
H45 C48 1_555 1_555
C49 C36 1_555 1_555
H46 C49 1_555 1_555
H47 C49 1_555 1_555
H48 C49 1_555 1_555
C50 C51 1_555 1_555
C51 H49 1_555 1_555
H50 C51 1_555 1_555
H51 C51 1_555 1_555
C52 C53 1_555 1_555
C53 C54 1_555 1_555
C54 H52 1_555 1_555
C55 C54 1_555 1_555
H53 C55 1_555 1_555
C56 C55 1_555 1_555
H54 C56 1_555 1_555
C57 C56 1_555 1_555
H55 C57 1_555 1_555
C58 C53 1_555 1_555
H56 C58 1_555 1_555
O8 C30 1_555 1_555
H57 O8 1_555 1_555
O9 C32 1_555 1_555
O10 C35 1_555 1_555
H58 O10 1_555 1_555
O11 C38 1_555 1_555
O12 C50 1_555 1_555
O13 C37 1_555 1_555
O14 C52 1_555 1_555
H59 C34 1_555 1_555
H60 C47 1_555 1_555
C5 C16 1_555 1_555
C12 C13 1_555 1_555
C13 C14 1_555 1_555
C14 C15 1_555 1_555
C16 C17 1_555 1_555
C17 N1 1_555 1_555
N1 C18 1_555 1_555
C21 O4 1_555 1_555
C23 O6 1_555 1_555
C28 C29 1_555 1_555
C39 C40 1_555 1_555
C40 C41 1_555 1_555
C40 C47 1_555 1_555
C41 C42 1_555 1_555
C43 C44 1_555 1_555
C45 C46 1_555 1_555
C46 C47 1_555 1_555
C50 O11 1_555 1_555
C52 O13 1_555 1_555
C57 C58 1_555 1_555

#END
