
#######################################################################
#
#                 Cambridge Crystallographic Data Centre
#                                CCDC 
#
#######################################################################
#
# If this CIF has been generated from an entry in the Cambridge 
# Structural Database, then it will include bibliographic, chemical, 
# crystal, experimental, refinement or atomic coordinate data resulting 
# from the CCDC's data processing and validation procedures.
#
#######################################################################

data_KAYGOI
_chemical_formula_moiety         'C9 H16 O4,C11 H9 N3 O1'
_chemical_name_systematic        'Azelaic acid N-(pyridin-2-yl)isonicotinamide'
_symmetry_cell_setting           triclinic
_symmetry_space_group_name_H-M   'P -1'
_symmetry_Int_Tables_number      2
_space_group_name_Hall           '-P 1'
loop_
_symmetry_equiv_pos_site_id
_symmetry_equiv_pos_as_xyz
1 x,y,z
2 -x,-y,-z
_cell_length_a                   5.6707(3)
_cell_length_b                   10.8221(6)
_cell_length_c                   17.0848(10)
_cell_angle_alpha                104.161(2)
_cell_angle_beta                 94.599(2)
_cell_angle_gamma                104.840(2)
_cell_volume                     971.226
_exptl_crystal_colour            colorless
_exptl_crystal_description       prism
_cell_formula_units_Z            2
loop_
_atom_site_label
_atom_site_type_symbol
_atom_site_fract_x
_atom_site_fract_y
_atom_site_fract_z
N1 N -0.25858(17) 0.10921(9) 0.12249(6)
C1 C -0.09887(19) 0.18471(10) 0.18835(7)
H1 H -0.1461 0.1849 0.2405
C2 C 0.13292(19) 0.26323(10) 0.18505(6)
H2 H 0.2415 0.3154 0.2339
C3 C 0.20400(18) 0.26450(10) 0.10960(6)
C4 C 0.0398(2) 0.18543(11) 0.04048(7)
H3 H 0.0824 0.1832 -0.0124
C5 C -0.1876(2) 0.10970(13) 0.04981(7)
H4 H -0.2990 0.0553 0.0021
C6 C 0.44514(18) 0.34696(10) 0.09565(6)
N2 N 0.60784(15) 0.42387(9) 0.16312(5)
H5 H 0.580(2) 0.4189(13) 0.2113(8)
O1 O 0.48524(14) 0.34297(9) 0.02629(5)
N3 N 1.00001(15) 0.53359(8) 0.23093(5)
C7 C 0.84199(18) 0.50762(9) 0.16283(6)
C8 C 0.90355(19) 0.56047(10) 0.09829(6)
H6 H 0.7848 0.5441 0.0517
C9 C 1.1429(2) 0.63759(11) 0.10419(7)
H7 H 1.1920 0.6740 0.0608
C10 C 1.31075(19) 0.66181(10) 0.17318(7)
H8 H 1.4769 0.7132 0.1777
C11 C 1.23079(19) 0.60948(10) 0.23520(7)
H9 H 1.3445 0.6280 0.2834
C12 C 0.71208(18) 0.40591(10) 0.37265(6)
O2 O 0.94448(13) 0.43755(8) 0.36061(5)
H10 H 0.952(3) 0.4721(14) 0.3150(9)
O3 O 0.55061(14) 0.42811(8) 0.33202(5)
C13 C 0.67374(19) 0.34247(11) 0.44075(6)
H11 H 0.7757 0.4055 0.4915
H12 H 0.7347 0.2629 0.4289
C14 C 0.40936(19) 0.30096(10) 0.45600(6)
H13 H 0.3075 0.2314 0.4076
H14 H 0.3420 0.3783 0.4648
C15 C 0.39727(19) 0.24770(12) 0.53050(7)
H15 H 0.4689 0.1719 0.5211
H16 H 0.5021 0.3181 0.5780
C16 C 0.14058(19) 0.20199(11) 0.55222(6)
H17 H 0.0622 0.2750 0.5581
H18 H 0.0383 0.1257 0.5073
C17 C 0.14816(19) 0.16110(12) 0.63106(7)
H19 H 0.2460 0.0966 0.6273
H20 H 0.2352 0.2405 0.6765
C18 C -0.10268(19) 0.09935(10) 0.65158(6)
H21 H -0.1843 0.0145 0.6095
H22 H -0.2073 0.1598 0.6511
C19 C -0.07949(19) 0.07351(11) 0.73490(7)
H23 H 0.0302 0.0157 0.7354
H24 H 0.0003 0.1591 0.7765
C20 C -0.32075(19) 0.00923(10) 0.75872(6)
O4 O -0.30458(14) 0.02164(8) 0.83852(5)
H25 H -0.460(3) -0.0254(14) 0.8497(9)
O5 O -0.50836(15) -0.04766(9) 0.71150(5)
loop_
_geom_bond_atom_site_label_1
_geom_bond_atom_site_label_2
_geom_bond_site_symmetry_1
_geom_bond_site_symmetry_2
N1 C1 1_555 1_555
C1 H1 1_555 1_555
C2 C1 1_555 1_555
H2 C2 1_555 1_555
C3 C2 1_555 1_555
C4 C3 1_555 1_555
H3 C4 1_555 1_555
C5 N1 1_555 1_555
H4 C5 1_555 1_555
C6 C3 1_555 1_555
N2 C6 1_555 1_555
H5 N2 1_555 1_555
O1 C6 1_555 1_555
N3 C7 1_555 1_555
C7 N2 1_555 1_555
C8 C7 1_555 1_555
H6 C8 1_555 1_555
C9 C8 1_555 1_555
H7 C9 1_555 1_555
C10 C9 1_555 1_555
H8 C10 1_555 1_555
C11 N3 1_555 1_555
H9 C11 1_555 1_555
C12 O2 1_555 1_555
O2 H10 1_555 1_555
O3 C12 1_555 1_555
C13 C12 1_555 1_555
H11 C13 1_555 1_555
H12 C13 1_555 1_555
C14 C13 1_555 1_555
H13 C14 1_555 1_555
H14 C14 1_555 1_555
C15 C14 1_555 1_555
H15 C15 1_555 1_555
H16 C15 1_555 1_555
C16 C15 1_555 1_555
H17 C16 1_555 1_555
H18 C16 1_555 1_555
C17 C16 1_555 1_555
H19 C17 1_555 1_555
H20 C17 1_555 1_555
C18 C17 1_555 1_555
H21 C18 1_555 1_555
H22 C18 1_555 1_555
C19 C18 1_555 1_555
H23 C19 1_555 1_555
H24 C19 1_555 1_555
C20 C19 1_555 1_555
O4 C20 1_555 1_555
H25 O4 1_555 1_555
O5 C20 1_555 1_555
C4 C5 1_555 1_555
C10 C11 1_555 1_555

#END
