
#######################################################################
#
#                 Cambridge Crystallographic Data Centre
#                                CCDC 
#
#######################################################################
#
# If this CIF has been generated from an entry in the Cambridge 
# Structural Database, then it will include bibliographic, chemical, 
# crystal, experimental, refinement or atomic coordinate data resulting 
# from the CCDC's data processing and validation procedures.
#
#######################################################################

data_KAYJAX
_chemical_formula_moiety         'C9 H16 O4,C11 H9 N3 O1'
_chemical_name_systematic        'Azelaic acid N-(pyridin-2-yl)nicotinamide'
_symmetry_cell_setting           monoclinic
_symmetry_space_group_name_H-M   'P 21/n'
_symmetry_Int_Tables_number      14
_space_group_name_Hall           '-P 2yn'
loop_
_symmetry_equiv_pos_site_id
_symmetry_equiv_pos_as_xyz
1 x,y,z
2 1/2-x,1/2+y,1/2-z
3 -x,-y,-z
4 1/2+x,1/2-y,1/2+z
_cell_length_a                   13.5588(13)
_cell_length_b                   9.4660(10)
_cell_length_c                   15.8384(15)
_cell_angle_alpha                90
_cell_angle_beta                 105.946(4)
_cell_angle_gamma                90
_cell_volume                     1954.6
_exptl_crystal_colour            colorless
_exptl_crystal_description       prism
_cell_formula_units_Z            4
loop_
_atom_site_label
_atom_site_type_symbol
_atom_site_fract_x
_atom_site_fract_y
_atom_site_fract_z
N1 N 0.24405(9) 0.27698(14) 0.42787(8)
C1 C 0.32300(11) 0.35221(17) 0.47750(9)
H1 H 0.3171 0.4522 0.4786
C2 C 0.41295(11) 0.28931(16) 0.52734(9)
C3 C 0.42162(12) 0.14371(17) 0.52373(10)
H2 H 0.4827 0.0980 0.5560
C4 C 0.34062(12) 0.06509(18) 0.47282(10)
H3 H 0.3449 -0.0349 0.4697
C5 C 0.25282(12) 0.13708(17) 0.42648(10)
H4 H 0.1966 0.0838 0.3923
C6 C 0.50226(11) 0.36940(17) 0.58464(10)
N2 N 0.47963(9) 0.49565(14) 0.61609(8)
H5 H 0.4138(15) 0.5263(19) 0.6023(11)
O1 O 0.58880(8) 0.31919(13) 0.60118(8)
N3 N 0.50542(9) 0.70781(14) 0.68866(8)
C7 C 0.54730(11) 0.58481(16) 0.67652(9)
C8 C 0.64821(11) 0.54893(18) 0.72045(10)
H6 H 0.6761 0.4600 0.7114
C9 C 0.70626(12) 0.64769(19) 0.77770(10)
H7 H 0.7759 0.6280 0.8071
C10 C 0.66340(11) 0.77423(18) 0.79222(10)
H8 H 0.7018 0.8415 0.8326
C11 C 0.56277(12) 0.80009(18) 0.74623(11)
H9 H 0.5326 0.8871 0.7557
C12 C -0.00813(11) 0.28022(17) 0.30307(10)
O2 O 0.06274(9) 0.38088(13) 0.33000(8)
H10 H 0.1266(16) 0.333(2) 0.3656(12)
O3 O 0.00892(8) 0.15614(13) 0.31699(8)
C13 C -0.11082(11) 0.34245(17) 0.25512(10)
H11 H -0.1010 0.4050 0.2080
H12 H -0.1350 0.4020 0.2968
C14 C -0.19463(11) 0.23560(16) 0.21419(10)
H13 H -0.1701 0.1711 0.1751
H14 H -0.2106 0.1782 0.2610
C15 C -0.29126(11) 0.31174(17) 0.16171(10)
H15 H -0.2731 0.3735 0.1178
H16 H -0.3161 0.3732 0.2021
C16 C -0.37856(10) 0.21413(17) 0.11413(10)
H17 H -0.3541 0.1504 0.0746
H18 H -0.3998 0.1551 0.1577
C17 C -0.47044(11) 0.29844(17) 0.06073(10)
H19 H -0.4486 0.3551 0.0165
H20 H -0.4919 0.3651 0.1005
C18 C -0.56287(11) 0.20911(16) 0.01363(10)
H21 H -0.5442 0.1466 -0.0296
H22 H -0.5842 0.1491 0.0567
C19 C -0.65132(11) 0.30527(17) -0.03315(10)
H23 H -0.6630 0.3745 0.0100
H24 H -0.6301 0.3590 -0.0789
C20 C -0.75144(11) 0.23311(17) -0.07572(10)
O4 O -0.82430(9) 0.32363(13) -0.11510(8)
H25 H -0.8858(15) 0.272(2) -0.1384(12)
O5 O -0.76624(8) 0.10708(13) -0.07476(8)
loop_
_geom_bond_atom_site_label_1
_geom_bond_atom_site_label_2
_geom_bond_site_symmetry_1
_geom_bond_site_symmetry_2
N1 C1 1_555 1_555
C1 H1 1_555 1_555
C2 C1 1_555 1_555
C3 C2 1_555 1_555
H2 C3 1_555 1_555
C4 C3 1_555 1_555
H3 C4 1_555 1_555
C5 N1 1_555 1_555
H4 C5 1_555 1_555
C6 C2 1_555 1_555
N2 C6 1_555 1_555
H5 N2 1_555 1_555
O1 C6 1_555 1_555
N3 C7 1_555 1_555
C7 N2 1_555 1_555
C8 C7 1_555 1_555
H6 C8 1_555 1_555
C9 C8 1_555 1_555
H7 C9 1_555 1_555
C10 C9 1_555 1_555
H8 C10 1_555 1_555
C11 N3 1_555 1_555
H9 C11 1_555 1_555
C12 O2 1_555 1_555
O2 H10 1_555 1_555
O3 C12 1_555 1_555
C13 C12 1_555 1_555
H11 C13 1_555 1_555
H12 C13 1_555 1_555
C14 C13 1_555 1_555
H13 C14 1_555 1_555
H14 C14 1_555 1_555
C15 C14 1_555 1_555
H15 C15 1_555 1_555
H16 C15 1_555 1_555
C16 C15 1_555 1_555
H17 C16 1_555 1_555
H18 C16 1_555 1_555
C17 C16 1_555 1_555
H19 C17 1_555 1_555
H20 C17 1_555 1_555
C18 C17 1_555 1_555
H21 C18 1_555 1_555
H22 C18 1_555 1_555
C19 C18 1_555 1_555
H23 C19 1_555 1_555
H24 C19 1_555 1_555
C20 C19 1_555 1_555
O4 C20 1_555 1_555
H25 O4 1_555 1_555
O5 C20 1_555 1_555
C4 C5 1_555 1_555
C10 C11 1_555 1_555

#END
