
#######################################################################
#
#                 Cambridge Crystallographic Data Centre
#                                CCDC 
#
#######################################################################
#
# If this CIF has been generated from an entry in the Cambridge 
# Structural Database, then it will include bibliographic, chemical, 
# crystal, experimental, refinement or atomic coordinate data resulting 
# from the CCDC's data processing and validation procedures.
#
#######################################################################

data_KAYQUZ
_chemical_formula_moiety         'C20 H24 O1'
_chemical_name_systematic        
{1-methyl-2-(4-methylphenyl)-3-[(4-methylphenyl)methyl]cyclopropyl}methanol
_symmetry_cell_setting           monoclinic
_symmetry_space_group_name_H-M   'I 2'
_symmetry_Int_Tables_number      5
_space_group_name_Hall           'I 2y'
loop_
_symmetry_equiv_pos_site_id
_symmetry_equiv_pos_as_xyz
1 x,y,z
2 -x,y,-z
3 1/2+x,1/2+y,1/2+z
4 1/2-x,1/2+y,1/2-z
_cell_length_a                   33.36(3)
_cell_length_b                   5.857(4)
_cell_length_c                   34.01(4)
_cell_angle_alpha                90
_cell_angle_beta                 90.950(12)
_cell_angle_gamma                90
_cell_volume                     6644.28
_cell_formula_units_Z            16
loop_
_atom_site_label
_atom_site_type_symbol
_atom_site_fract_x
_atom_site_fract_y
_atom_site_fract_z
C1 C 0.7011(5) 0.333(3) 0.6498(5)
C2 C 0.6946(5) 0.320(3) 0.6066(5)
H1 H 0.674054 0.204593 0.598333
C3 C 0.6775(5) 0.520(3) 0.6278(5)
H2 H 0.693123 0.663990 0.624184
C4 C 0.7438(5) 0.389(3) 0.6637(5)
H3 H 0.760302 0.248504 0.663584
H4 H 0.755928 0.499521 0.645284
C5 C 0.6814(5) 0.163(4) 0.6747(6)
H5 H 0.700123 0.037625 0.680389
H6 H 0.657674 0.102759 0.660869
H7 H 0.673413 0.234774 0.699315
C6 C 0.7296(5) 0.334(3) 0.5794(5)
C7 C 0.7365(6) 0.530(3) 0.5567(5)
H8 H 0.717712 0.651198 0.557429
C8 C 0.7707(5) 0.551(3) 0.5327(6)
H9 H 0.774993 0.685314 0.517646
C9 C 0.7966(5) 0.378(3) 0.5319(5)
C10 C 0.7893(6) 0.185(4) 0.5546(5)
H10 H 0.807870 0.062219 0.553893
C11 C 0.7571(5) 0.166(3) 0.5772(5)
H11 H 0.753555 0.030347 0.592172
C12 C 0.8340(6) 0.407(4) 0.5070(7)
H12 H 0.826466 0.477571 0.481791
H13 H 0.846071 0.257355 0.502255
H14 H 0.853278 0.504984 0.520954
C13 C 0.6325(5) 0.560(4) 0.6325(6)
H15 H 0.618476 0.411482 0.632887
H16 H 0.627865 0.637207 0.657973
C14 C 0.6159(5) 0.702(3) 0.6003(6)
C15 C 0.5943(5) 0.898(4) 0.6098(6)
H17 H 0.589989 0.935633 0.636536
C16 C 0.5787(6) 1.041(4) 0.5793(6)
H18 H 0.565220 1.178103 0.586002
C17 C 0.5829(5) 0.983(3) 0.5399(6)
C18 C 0.6023(5) 0.788(4) 0.5325(6)
H19 H 0.605346 0.739909 0.506097
C19 C 0.6177(6) 0.659(4) 0.5620(6)
H20 H 0.631254 0.523456 0.554612
C20 C 0.5672(6) 1.146(4) 0.5084(6)
H21 H 0.570808 1.077301 0.482427
H22 H 0.582099 1.289984 0.509989
H23 H 0.538695 1.175156 0.512527
O1 O 0.7440(4) 0.484(2) 0.7024(4)
H24 H 0.756181 0.395707 0.717932
C21 C 0.6552(5) 0.600(3) 0.7851(5)
C22 C 0.6093(5) 0.589(3) 0.7933(5)
H25 H 0.601005 0.456329 0.809725
C23 C 0.6365(5) 0.763(3) 0.8151(5)
H26 H 0.633500 0.923346 0.805424
C24 C 0.6669(5) 0.713(3) 0.7468(5)
H27 H 0.662300 0.605514 0.724806
H28 H 0.649611 0.848553 0.742194
C25 C 0.6802(5) 0.391(3) 0.7985(6)
H29 H 0.708771 0.425436 0.796369
H30 H 0.673433 0.259486 0.781802
H31 H 0.674082 0.354502 0.825920
C26 C 0.5801(5) 0.651(3) 0.7618(5)
C27 C 0.5710(5) 0.517(3) 0.7315(5)
H32 H 0.584198 0.373080 0.730959
C28 C 0.5449(5) 0.560(3) 0.7011(6)
H33 H 0.539601 0.451257 0.680920
C29 C 0.5254(5) 0.785(4) 0.7014(6)
C30 C 0.5337(5) 0.908(4) 0.7315(6)
H34 H 0.520585 1.051538 0.732317
C31 C 0.5592(5) 0.861(3) 0.7631(6)
H35 H 0.562447 0.963819 0.784480
C32 C 0.4954(6) 0.837(4) 0.6697(6)
H36 H 0.497474 0.998706 0.662366
H37 H 0.468352 0.806670 0.679335
H38 H 0.500467 0.741639 0.646750
C33 C 0.6450(5) 0.745(3) 0.8583(5)
H39 H 0.645119 0.581307 0.865823
H40 H 0.672055 0.806730 0.864005
C34 C 0.6154(5) 0.868(3) 0.8828(5)
C35 C 0.5762(5) 0.789(4) 0.8877(6)
H41 H 0.567966 0.648025 0.876499
C36 C 0.5489(5) 0.921(3) 0.9096(5)
H42 H 0.522792 0.861347 0.913752
C37 C 0.5580(6) 1.125(4) 0.9245(6)
C38 C 0.5967(5) 1.199(3) 0.9207(5)
H43 H 0.604043 1.336908 0.933463
C39 C 0.6257(5) 1.087(3) 0.8997(5)
H44 H 0.651567 1.151590 0.896512
C40 C 0.5263(6) 1.270(4) 0.9477(6)
H45 H 0.521691 1.199147 0.973337
H46 H 0.500991 1.274643 0.932597
H47 H 0.536368 1.425439 0.951487
O2 O 0.7069(3) 0.781(2) 0.7474(4)
H48 H 0.720407 0.690987 0.733762
C41 C 0.3463(5) 0.170(3) 0.7181(6)
C42 C 0.3899(5) 0.131(3) 0.7117(6)
H49 H 0.395142 -0.015681 0.697669
C43 C 0.3675(5) 0.299(3) 0.6865(5)
H50 H 0.373215 0.461989 0.693575
C44 C 0.3366(5) 0.299(3) 0.7558(5)
H51 H 0.338600 0.192676 0.778373
H52 H 0.356773 0.421230 0.760036
C45 C 0.3161(5) -0.012(3) 0.7081(6)
H53 H 0.319676 -0.141417 0.726118
H54 H 0.320010 -0.063683 0.681021
H55 H 0.288968 0.049575 0.710622
C46 C 0.4216(5) 0.184(3) 0.7423(6)
C47 C 0.4426(5) 0.389(3) 0.7424(6)
H56 H 0.437466 0.498448 0.722353
C48 C 0.4709(6) 0.434(4) 0.7716(6)
H57 H 0.485499 0.572801 0.770290
C49 C 0.4786(5) 0.294(4) 0.8012(6)
C50 C 0.4572(6) 0.080(3) 0.8013(6)
H58 H 0.461932 -0.025524 0.822104
C51 C 0.4299(6) 0.024(4) 0.7717(6)
H59 H 0.416960 -0.120680 0.771457
C52 C 0.5097(5) 0.350(4) 0.8330(6)
H60 H 0.508122 0.512539 0.839609
H61 H 0.536519 0.314459 0.823504
H62 H 0.504362 0.258678 0.856547
C53 C 0.3588(6) 0.266(4) 0.6447(6)
H63 H 0.333889 0.347182 0.637150
H64 H 0.354963 0.101046 0.639199
C54 C 0.3934(5) 0.356(4) 0.6214(6)
C55 C 0.4296(5) 0.235(4) 0.6167(5)
H65 H 0.432374 0.087036 0.627656
C56 C 0.4612(6) 0.330(3) 0.5962(6)
H66 H 0.485655 0.247959 0.594039
C57 C 0.4572(6) 0.543(3) 0.5788(6)
C58 C 0.4222(6) 0.665(4) 0.5821(6)
H67 H 0.419418 0.810529 0.570132
C59 C 0.3911(6) 0.572(4) 0.6030(6)
H68 H 0.367078 0.657764 0.605212
C60 C 0.4922(6) 0.638(4) 0.5568(6)
H69 H 0.506234 0.512782 0.543667
H70 H 0.510676 0.713821 0.575300
H71 H 0.482612 0.747890 0.537140
O3 O 0.2976(3) 0.398(2) 0.7546(4)
H72 H 0.298983 0.531072 0.745449
C61 C 0.2870(5) -0.007(3) 0.8553(5)
C62 C 0.2952(5) 0.043(3) 0.8973(5)
H73 H 0.308458 -0.080584 0.913014
C63 C 0.3194(4) 0.146(3) 0.8653(5)
H74 H 0.312194 0.308825 0.860244
C64 C 0.2505(5) 0.085(3) 0.8343(5)
H75 H 0.227225 -0.013707 0.839791
H76 H 0.244592 0.239992 0.844412
C65 C 0.2982(5) -0.260(3) 0.8413(6)
H77 H 0.324277 -0.304064 0.852703
H78 H 0.299588 -0.264202 0.812550
H79 H 0.277658 -0.367566 0.850064
C66 C 0.2660(5) 0.200(3) 0.9199(5)
C67 C 0.2778(5) 0.400(3) 0.9344(5)
H80 H 0.304375 0.450178 0.929990
C68 C 0.2522(5) 0.536(3) 0.9557(5)
H81 H 0.261812 0.679148 0.964928
C69 C 0.2126(5) 0.472(3) 0.9644(6)
C70 C 0.2034(6) 0.260(3) 0.9494(5)
H82 H 0.177217 0.203937 0.954366
C71 C 0.2277(5) 0.121(3) 0.9282(5)
H83 H 0.218810 -0.024769 0.919453
C72 C 0.1846(6) 0.619(4) 0.9854(6)
H84 H 0.164867 0.523572 0.998764
H85 H 0.170782 0.719700 0.966623
H86 H 0.199354 0.710764 1.004850
C73 C 0.3643(4) 0.105(3) 0.8643(5)
H87 H 0.369830 -0.054622 0.872158
H88 H 0.373393 0.124607 0.836967
C74 C 0.3885(5) 0.263(3) 0.8908(6)
C75 C 0.4071(5) 0.456(3) 0.8777(6)
H89 H 0.407917 0.485159 0.850277
C76 C 0.4255(5) 0.615(3) 0.9048(6)
H90 H 0.436653 0.752015 0.894683
C77 C 0.4273(5) 0.580(3) 0.9429(6)
C78 C 0.4080(5) 0.377(3) 0.9573(6)
H91 H 0.408106 0.344868 0.984706
C79 C 0.3900(5) 0.234(4) 0.9320(6)
H92 H 0.377300 0.102638 0.942527
C80 C 0.4468(6) 0.739(4) 0.9709(6)
H93 H 0.441845 0.896179 0.962461
H94 H 0.475698 0.709494 0.971833
H95 H 0.435707 0.715572 0.997147
O4 O 0.2562(3) 0.096(2) 0.7937(4)
H96 H 0.233852 0.105807 0.782135
loop_
_geom_bond_atom_site_label_1
_geom_bond_atom_site_label_2
_geom_bond_site_symmetry_1
_geom_bond_site_symmetry_2
C1 C2 1_555 1_555
C2 H1 1_555 1_555
C3 C1 1_555 1_555
H2 C3 1_555 1_555
C4 C1 1_555 1_555
H3 C4 1_555 1_555
H4 C4 1_555 1_555
C5 C1 1_555 1_555
H5 C5 1_555 1_555
H6 C5 1_555 1_555
H7 C5 1_555 1_555
C6 C2 1_555 1_555
C7 C6 1_555 1_555
H8 C7 1_555 1_555
C8 C7 1_555 1_555
H9 C8 1_555 1_555
C9 C8 1_555 1_555
C10 C9 1_555 1_555
H10 C10 1_555 1_555
C11 C6 1_555 1_555
H11 C11 1_555 1_555
C12 C9 1_555 1_555
H12 C12 1_555 1_555
H13 C12 1_555 1_555
H14 C12 1_555 1_555
C13 C3 1_555 1_555
H15 C13 1_555 1_555
H16 C13 1_555 1_555
C14 C13 1_555 1_555
C15 C14 1_555 1_555
H17 C15 1_555 1_555
C16 C15 1_555 1_555
H18 C16 1_555 1_555
C17 C16 1_555 1_555
C18 C17 1_555 1_555
H19 C18 1_555 1_555
C19 C14 1_555 1_555
H20 C19 1_555 1_555
C20 C17 1_555 1_555
H21 C20 1_555 1_555
H22 C20 1_555 1_555
H23 C20 1_555 1_555
O1 C4 1_555 1_555
H24 O1 1_555 1_555
C21 C22 1_555 1_555
C22 H25 1_555 1_555
C23 C21 1_555 1_555
H26 C23 1_555 1_555
C24 C21 1_555 1_555
H27 C24 1_555 1_555
H28 C24 1_555 1_555
C25 C21 1_555 1_555
H29 C25 1_555 1_555
H30 C25 1_555 1_555
H31 C25 1_555 1_555
C26 C22 1_555 1_555
C27 C26 1_555 1_555
H32 C27 1_555 1_555
C28 C27 1_555 1_555
H33 C28 1_555 1_555
C29 C28 1_555 1_555
C30 C29 1_555 1_555
H34 C30 1_555 1_555
C31 C26 1_555 1_555
H35 C31 1_555 1_555
C32 C29 1_555 1_555
H36 C32 1_555 1_555
H37 C32 1_555 1_555
H38 C32 1_555 1_555
C33 C23 1_555 1_555
H39 C33 1_555 1_555
H40 C33 1_555 1_555
C34 C33 1_555 1_555
C35 C34 1_555 1_555
H41 C35 1_555 1_555
C36 C35 1_555 1_555
H42 C36 1_555 1_555
C37 C36 1_555 1_555
C38 C37 1_555 1_555
H43 C38 1_555 1_555
C39 C34 1_555 1_555
H44 C39 1_555 1_555
C40 C37 1_555 1_555
H45 C40 1_555 1_555
H46 C40 1_555 1_555
H47 C40 1_555 1_555
O2 C24 1_555 1_555
H48 O2 1_555 1_555
C41 C42 1_555 1_555
C42 H49 1_555 1_555
C43 C41 1_555 1_555
H50 C43 1_555 1_555
C44 C41 1_555 1_555
H51 C44 1_555 1_555
H52 C44 1_555 1_555
C45 C41 1_555 1_555
H53 C45 1_555 1_555
H54 C45 1_555 1_555
H55 C45 1_555 1_555
C46 C42 1_555 1_555
C47 C46 1_555 1_555
H56 C47 1_555 1_555
C48 C47 1_555 1_555
H57 C48 1_555 1_555
C49 C48 1_555 1_555
C50 C49 1_555 1_555
H58 C50 1_555 1_555
C51 C46 1_555 1_555
H59 C51 1_555 1_555
C52 C49 1_555 1_555
H60 C52 1_555 1_555
H61 C52 1_555 1_555
H62 C52 1_555 1_555
C53 C43 1_555 1_555
H63 C53 1_555 1_555
H64 C53 1_555 1_555
C54 C53 1_555 1_555
C55 C54 1_555 1_555
H65 C55 1_555 1_555
C56 C55 1_555 1_555
H66 C56 1_555 1_555
C57 C56 1_555 1_555
C58 C57 1_555 1_555
H67 C58 1_555 1_555
C59 C54 1_555 1_555
H68 C59 1_555 1_555
C60 C57 1_555 1_555
H69 C60 1_555 1_555
H70 C60 1_555 1_555
H71 C60 1_555 1_555
O3 C44 1_555 1_555
H72 O3 1_555 1_555
C61 C62 1_555 1_555
C62 H73 1_555 1_555
C63 C61 1_555 1_555
H74 C63 1_555 1_555
C64 C61 1_555 1_555
H75 C64 1_555 1_555
H76 C64 1_555 1_555
C65 C61 1_555 1_555
H77 C65 1_555 1_555
H78 C65 1_555 1_555
H79 C65 1_555 1_555
C66 C62 1_555 1_555
C67 C66 1_555 1_555
H80 C67 1_555 1_555
C68 C67 1_555 1_555
H81 C68 1_555 1_555
C69 C68 1_555 1_555
C70 C69 1_555 1_555
H82 C70 1_555 1_555
C71 C66 1_555 1_555
H83 C71 1_555 1_555
C72 C69 1_555 1_555
H84 C72 1_555 1_555
H85 C72 1_555 1_555
H86 C72 1_555 1_555
C73 C63 1_555 1_555
H87 C73 1_555 1_555
H88 C73 1_555 1_555
C74 C73 1_555 1_555
C75 C74 1_555 1_555
H89 C75 1_555 1_555
C76 C75 1_555 1_555
H90 C76 1_555 1_555
C77 C76 1_555 1_555
C78 C77 1_555 1_555
H91 C78 1_555 1_555
C79 C74 1_555 1_555
H92 C79 1_555 1_555
C80 C77 1_555 1_555
H93 C80 1_555 1_555
H94 C80 1_555 1_555
H95 C80 1_555 1_555
O4 C64 1_555 1_555
H96 O4 1_555 1_555
C2 C3 1_555 1_555
C10 C11 1_555 1_555
C18 C19 1_555 1_555
C22 C23 1_555 1_555
C30 C31 1_555 1_555
C38 C39 1_555 1_555
C42 C43 1_555 1_555
C50 C51 1_555 1_555
C58 C59 1_555 1_555
C62 C63 1_555 1_555
C70 C71 1_555 1_555
C78 C79 1_555 1_555

#END
