
#######################################################################
#
#                 Cambridge Crystallographic Data Centre
#                                CCDC 
#
#######################################################################
#
# If this CIF has been generated from an entry in the Cambridge 
# Structural Database, then it will include bibliographic, chemical, 
# crystal, experimental, refinement or atomic coordinate data resulting 
# from the CCDC's data processing and validation procedures.
#
#######################################################################

data_KAZDIZ
_chemical_name_common            bis(15-Crown-5)stilbene
_chemical_formula_moiety         'C30 H40 O10'
_chemical_name_systematic        
15-((E)-2-(2,3,5,6,8,9,11,12-Octahydro-1,4,7,10,13-pentaoxabenzocyclododecen-15-yl)-1-ethenyl)-2,3,5,6,8,9,11,12-octahydro-1,4,7,10,13-pentaoxabenzocyclopentadecene
_symmetry_cell_setting           monoclinic
_symmetry_space_group_name_H-M   'P 21/c'
_symmetry_Int_Tables_number      14
_space_group_name_Hall           '-P 2ybc'
loop_
_symmetry_equiv_pos_site_id
_symmetry_equiv_pos_as_xyz
1 x,y,z
2 -x,1/2+y,1/2-z
3 -x,-y,-z
4 x,1/2-y,1/2+z
_cell_length_a                   19.4172(8)
_cell_length_b                   8.3901(4)
_cell_length_c                   8.5481(4)
_cell_angle_alpha                90
_cell_angle_beta                 92.262(2)
_cell_angle_gamma                90
_cell_volume                     1391.51
_chemical_melting_point          190-192deg.C
_cell_formula_units_Z            2
_exptl_crystal_recrystallization_method hexane/dichloromethane
loop_
_atom_site_label
_atom_site_type_symbol
_atom_site_fract_x
_atom_site_fract_y
_atom_site_fract_z
O1 O 0.17787(14) 0.5184(3) 0.6048(3)
O2 O 0.22187(15) 0.3223(3) 0.3815(3)
O3 O 0.39692(15) 0.4229(4) 0.5043(4)
O4 O 0.3908(2) 0.5108(6) 0.8328(5)
O5 O 0.26317(15) 0.6661(4) 0.8483(3)
C1 C 0.0267(2) 0.4569(5) 0.0271(5)
C2 C 0.06329(19) 0.4758(5) 0.1812(4)
C3 C 0.0399(2) 0.5762(5) 0.2989(5)
C4 C 0.0763(2) 0.5931(5) 0.4412(5)
C5 C 0.1382(2) 0.5106(4) 0.4706(4)
C6 C 0.1626(2) 0.4098(4) 0.3528(5)
C7 C 0.1256(2) 0.3920(5) 0.2126(5)
C8 C 0.1524(2) 0.6134(5) 0.7310(5)
C9 C 0.1993(2) 0.5895(5) 0.8728(5)
C10 C 0.3110(3) 0.6485(6) 0.9788(6)
C11 C 0.3820(3) 0.6617(6) 0.9221(6)
H1 H 0.4163 0.6695 1.0106
H2 H 0.3866 0.7560 0.8535
C12 C 0.4503(3) 0.5063(8) 0.7532(7)
H3 H 0.4897 0.4825 0.8266
H4 H 0.4585 0.6113 0.7045
C13 C 0.4449(3) 0.3814(7) 0.6302(7)
C14 C 0.3298(2) 0.3564(6) 0.5219(6)
C15 C 0.2856(2) 0.4133(5) 0.3843(5)
H5 H 0.111(3) 0.574(6) 0.752(5)
H6 H 0.153(2) 0.714(5) 0.701(4)
H7 H 0.175(2) 0.637(5) 0.971(5)
H8 H 0.208(2) 0.486(6) 0.896(5)
H9 H 0.307(3) 0.541(7) 1.018(6)
H10 H 0.312(3) 0.732(6) 1.048(6)
H11 H 0.493(3) 0.383(7) 0.585(7)
H12 H 0.433(2) 0.267(7) 0.671(6)
H13 H 0.316(2) 0.395(6) 0.618(6)
H14 H 0.334(3) 0.234(7) 0.511(6)
H15 H 0.273(2) 0.527(5) 0.403(5)
H16 H 0.313(2) 0.394(5) 0.282(6)
H17 H 0.059(2) 0.662(5) 0.516(5)
H18 H -0.006(2) 0.633(5) 0.279(5)
H19 H 0.142(2) 0.331(5) 0.140(5)
H20 H 0.044(2) 0.375(5) -0.034(5)
O1B O -0.17787(14) 0.4816(3) -0.6048(3)
O2B O -0.22187(15) 0.6777(3) -0.3815(3)
O3B O -0.39692(15) 0.5771(4) -0.5043(4)
O4B O -0.3908(2) 0.4892(6) -0.8328(5)
O5B O -0.26317(15) 0.3339(4) -0.8483(3)
C1B C -0.0267(2) 0.5431(5) -0.0271(5)
C2B C -0.06329(19) 0.5242(5) -0.1812(4)
C3B C -0.0399(2) 0.4238(5) -0.2989(5)
C4B C -0.0763(2) 0.4069(5) -0.4412(5)
C5B C -0.1382(2) 0.4894(4) -0.4706(4)
C6B C -0.1626(2) 0.5902(4) -0.3528(5)
C7B C -0.1256(2) 0.6080(5) -0.2126(5)
C8B C -0.1524(2) 0.3866(5) -0.7310(5)
C9B C -0.1993(2) 0.4105(5) -0.8728(5)
C10B C -0.3110(3) 0.3515(6) -0.9788(6)
C11B C -0.3820(3) 0.3383(6) -0.9221(6)
H1B H -0.4163 0.3305 -1.0106
H2B H -0.3866 0.2440 -0.8535
C12B C -0.4503(3) 0.4937(8) -0.7532(7)
H3B H -0.4897 0.5175 -0.8266
H4B H -0.4585 0.3887 -0.7045
C13B C -0.4449(3) 0.6186(7) -0.6302(7)
C14B C -0.3298(2) 0.6436(6) -0.5219(6)
C15B C -0.2856(2) 0.5867(5) -0.3843(5)
H5B H -0.111(3) 0.426(6) -0.752(5)
H6B H -0.153(2) 0.286(5) -0.701(4)
H7B H -0.175(2) 0.363(5) -0.971(5)
H8B H -0.208(2) 0.514(6) -0.896(5)
H9B H -0.307(3) 0.459(7) -1.018(6)
H10B H -0.312(3) 0.268(6) -1.048(6)
H11B H -0.493(3) 0.617(7) -0.585(7)
H12B H -0.433(2) 0.733(7) -0.671(6)
H13B H -0.316(2) 0.605(6) -0.618(6)
H14B H -0.334(3) 0.766(7) -0.511(6)
H15B H -0.273(2) 0.473(5) -0.403(5)
H16B H -0.313(2) 0.606(5) -0.282(6)
H17B H -0.059(2) 0.338(5) -0.516(5)
H18B H 0.006(2) 0.367(5) -0.279(5)
H19B H -0.142(2) 0.669(5) -0.140(5)
H20B H -0.044(2) 0.625(5) 0.034(5)
loop_
_geom_bond_atom_site_label_1
_geom_bond_atom_site_label_2
_geom_bond_site_symmetry_1
_geom_bond_site_symmetry_2
O1 C5 1_555 1_555
O2 C6 1_555 1_555
O3 C13 1_555 1_555
O4 C11 1_555 1_555
O5 C9 1_555 1_555
C1 C2 1_555 1_555
C2 C3 1_555 1_555
C3 C4 1_555 1_555
C4 C5 1_555 1_555
C5 C6 1_555 1_555
C6 C7 1_555 1_555
C7 C2 1_555 1_555
C8 O1 1_555 1_555
C9 C8 1_555 1_555
C10 O5 1_555 1_555
C11 C10 1_555 1_555
H1 C11 1_555 1_555
H2 C11 1_555 1_555
C12 O4 1_555 1_555
H3 C12 1_555 1_555
H4 C12 1_555 1_555
C13 C12 1_555 1_555
C14 O3 1_555 1_555
C15 O2 1_555 1_555
H5 C8 1_555 1_555
H6 C8 1_555 1_555
H7 C9 1_555 1_555
H8 C9 1_555 1_555
H9 C10 1_555 1_555
H10 C10 1_555 1_555
H11 C13 1_555 1_555
H12 C13 1_555 1_555
H13 C14 1_555 1_555
H14 C14 1_555 1_555
H15 C15 1_555 1_555
H16 C15 1_555 1_555
H17 C4 1_555 1_555
H18 C3 1_555 1_555
H19 C7 1_555 1_555
H20 C1 1_555 1_555
O1B C5B 1_555 1_555
O2B C6B 1_555 1_555
O3B C13B 1_555 1_555
O4B C11B 1_555 1_555
O5B C9B 1_555 1_555
C1B C1 1_555 1_555
C2B C1B 1_555 1_555
C3B C2B 1_555 1_555
C4B C3B 1_555 1_555
C5B C4B 1_555 1_555
C6B C5B 1_555 1_555
C7B C2B 1_555 1_555
C8B O1B 1_555 1_555
C9B C8B 1_555 1_555
C10B O5B 1_555 1_555
C11B C10B 1_555 1_555
H1B C11B 1_555 1_555
H2B C11B 1_555 1_555
C12B O4B 1_555 1_555
H3B C12B 1_555 1_555
H4B C12B 1_555 1_555
C13B C12B 1_555 1_555
C14B O3B 1_555 1_555
C15B O2B 1_555 1_555
H5B C8B 1_555 1_555
H6B C8B 1_555 1_555
H7B C9B 1_555 1_555
H8B C9B 1_555 1_555
H9B C10B 1_555 1_555
H10B C10B 1_555 1_555
H11B C13B 1_555 1_555
H12B C13B 1_555 1_555
H13B C14B 1_555 1_555
H14B C14B 1_555 1_555
H15B C15B 1_555 1_555
H16B C15B 1_555 1_555
H17B C4B 1_555 1_555
H18B C3B 1_555 1_555
H19B C7B 1_555 1_555
H20B C1B 1_555 1_555
C14 C15 1_555 1_555
C6B C7B 1_555 1_555
C14B C15B 1_555 1_555

#END
