
#######################################################################
#
#                 Cambridge Crystallographic Data Centre
#                                CCDC 
#
#######################################################################
#
# If this CIF has been generated from an entry in the Cambridge 
# Structural Database, then it will include bibliographic, chemical, 
# crystal, experimental, refinement or atomic coordinate data resulting 
# from the CCDC's data processing and validation procedures.
#
#######################################################################

data_KAZMED
_chemical_compound_source        'red algae Laurencia caespitosa Lamx'
_chemical_formula_moiety         'C15 H23 Br2 Cl1 O2'
_chemical_name_systematic        'Laucapyranoid B'
_chemical_properties_biological  'antimicrobial activity'
_symmetry_cell_setting           orthorhombic
_symmetry_space_group_name_H-M   'P 21 21 21'
_symmetry_Int_Tables_number      19
_space_group_name_Hall           'P 2ac 2ab'
loop_
_symmetry_equiv_pos_site_id
_symmetry_equiv_pos_as_xyz
1 x,y,z
2 1/2+x,1/2-y,-z
3 -x,1/2+y,1/2-z
4 1/2-x,-y,1/2+z
_cell_length_a                   8.024(4)
_cell_length_b                   8.773(3)
_cell_length_c                   24.608(3)
_cell_angle_alpha                90
_cell_angle_beta                 90
_cell_angle_gamma                90
_cell_volume                     1732.27
_chemical_melting_point          97-98deg.C
_cell_formula_units_Z            4
loop_
_atom_site_label
_atom_site_type_symbol
_atom_site_fract_x
_atom_site_fract_y
_atom_site_fract_z
Br1 Br 0.3442(3) 0.2594(3) 0.2822(1)
Br2 Br 0.5103(4) 0.0033(4) 0.0233(1)
Cl1 Cl 0.6460(10) 0.1310(8) 0.3663(2)
O1 O 0.9664(19) 0.0208(17) 0.1034(6)
O2 O 0.8507(20) 0.4145(16) 0.1313(6)
C1 C 0.5700(27) 0.1873(23) 0.2615(8)
C2 C 0.7005(26) 0.2271(27) 0.3046(8)
C3 C 0.8657(31) 0.1698(25) 0.2847(9)
C4 C 0.9161(26) 0.2271(26) 0.2284(9)
C5 C 0.7748(25) 0.1939(22) 0.1855(8)
C6 C 0.6040(25) 0.2552(27) 0.2062(8)
C7 C 0.9808(32) 0.1732(27) 0.1100(8)
C8 C 0.8270(24) 0.2497(25) 0.1275(7)
C9 C 0.6919(29) 0.2186(27) 0.0884(9)
C10 C 0.6802(28) 0.0504(22) 0.0772(8)
C11 C 0.8491(31) -0.0262(26) 0.0621(9)
C12 C 0.7085(28) 0.4018(26) 0.3207(9)
C13 C 1.1334(36) 0.2426(37) 0.1055(10)
C14 C 0.9163(37) 0.0407(35) 0.0065(12)
C15 C 0.8478(37) -0.1916(29) 0.0661(10)
H1 H 0.569 0.073 0.262
H2 H 0.864 0.051 0.284
H3 H 0.960 0.196 0.312
H4 H 0.929 0.345 0.229
H5 H 1.023 0.184 0.213
H6 H 0.766 0.079 0.187
H7 H 0.512 0.224 0.179
H8 H 0.603 0.371 0.208
H9 H 0.585 0.265 0.097
H10 H 0.728 0.263 0.049
H11 H 0.638 0.005 0.116
H12 H 0.596 0.448 0.334
H13 H 0.792 0.431 0.350
H14 H 0.739 0.468 0.287
H15 H 1.242 0.215 0.115
H16 H 1.157 0.372 0.104
H17 H 0.913 0.159 0.005
H18 H 1.022 0.006 -0.006
H19 H 0.828 0.014 -0.026
H20 H 0.951 -0.248 0.058
H21 H 0.799 -0.235 0.102
H22 H 0.758 -0.233 0.036
H23 H 0.744 0.467 0.143
loop_
_geom_bond_atom_site_label_1
_geom_bond_atom_site_label_2
_geom_bond_site_symmetry_1
_geom_bond_site_symmetry_2
Br1 C1 1_555 1_555
Br2 C10 1_555 1_555
Cl1 C2 1_555 1_555
O1 C7 1_555 1_555
O2 C8 1_555 1_555
C1 C2 1_555 1_555
C2 C3 1_555 1_555
C3 C4 1_555 1_555
C4 C5 1_555 1_555
C5 C6 1_555 1_555
C6 C1 1_555 1_555
C7 C8 1_555 1_555
C8 C5 1_555 1_555
C9 C8 1_555 1_555
C10 C9 1_555 1_555
C11 O1 1_555 1_555
C12 C2 1_555 1_555
C13 C7 1_555 1_555
C14 C11 1_555 1_555
C15 C11 1_555 1_555
H1 C1 1_555 1_555
H2 C3 1_555 1_555
H3 C3 1_555 1_555
H4 C4 1_555 1_555
H5 C4 1_555 1_555
H6 C5 1_555 1_555
H7 C6 1_555 1_555
H8 C6 1_555 1_555
H9 C9 1_555 1_555
H10 C9 1_555 1_555
H11 C10 1_555 1_555
H12 C12 1_555 1_555
H13 C12 1_555 1_555
H14 C12 1_555 1_555
H15 C13 1_555 1_555
H16 C13 1_555 1_555
H17 C14 1_555 1_555
H18 C14 1_555 1_555
H19 C14 1_555 1_555
H20 C15 1_555 1_555
H21 C15 1_555 1_555
H22 C15 1_555 1_555
H23 O2 1_555 1_555
C10 C11 1_555 1_555

#END
