
#######################################################################
#
#                 Cambridge Crystallographic Data Centre
#                                CCDC 
#
#######################################################################
#
# If this CIF has been generated from an entry in the Cambridge 
# Structural Database, then it will include bibliographic, chemical, 
# crystal, experimental, refinement or atomic coordinate data resulting 
# from the CCDC's data processing and validation procedures.
#
#######################################################################

data_KAZMUW
_chemical_formula_moiety         'C66 H66 N2 O10,C8 H8 O1'
_chemical_name_systematic        
'10,16,36,42-tetrabutoxy-28,50,54,56-tetraoxa-13,39-diazatridecacyclo[43.7.1.1^3,51^.1^23,27^.1^25,29^.0^2,7^.0^6,11^.0^15,20^.0^19,24^.0^32,37^.0^33,55^.0^41,46^.0^49,53^]hexapentaconta-2,4,6,8,10,15,17,19,21,23,29(55),30,32,34,36,41,43,45(53),46,48-icosaene-12,40-dione 2-phenyloxirane'
_symmetry_cell_setting           triclinic
_symmetry_space_group_name_H-M   'P -1'
_symmetry_Int_Tables_number      2
_space_group_name_Hall           '-P 1'
loop_
_symmetry_equiv_pos_site_id
_symmetry_equiv_pos_as_xyz
1 x,y,z
2 -x,-y,-z
_cell_length_a                   12.5032(7)
_cell_length_b                   16.7970(10)
_cell_length_c                   17.5538(10)
_cell_angle_alpha                78.622(3)
_cell_angle_beta                 82.793(3)
_cell_angle_gamma                69.513(3)
_cell_volume                     3379.15
_exptl_crystal_colour            colorless
_exptl_crystal_description       block
_cell_formula_units_Z            2
loop_
_atom_site_label
_atom_site_type_symbol
_atom_site_fract_x
_atom_site_fract_y
_atom_site_fract_z
O1 O 1.0939(5) 0.7685(4) 0.4729(4)
O2 O 0.9790(6) 0.9088(3) 0.4648(3)
O3 O 1.0961(3) 0.8269(3) 0.8890(3)
O4 O 1.2095(3) 0.6849(3) 0.9221(3)
O5 O 0.5794(4) 1.0775(2) 0.7680(4)
O6 O 1.0447(4) 0.3627(2) 0.8171(2)
O7 O 0.7810(3) 0.4573(2) 0.8836(2)
O8 O 0.7701(5) 0.4431(3) 0.6116(3)
O9 O 0.3664(5) 0.9178(3) 0.6299(3)
O10 O 0.4377(3) 0.9600(2) 0.9108(3)
N1 N 0.9526(4) 0.4805(2) 0.7359(2)
H1 H 0.9186 0.5367 0.7307
N2 N 0.5361(4) 0.9669(2) 0.7435(2)
H2 H 0.5392 0.9131 0.7593
C1 C 1.0378(9) 0.8413(5) 0.4223(4)
H3 H 1.0964 0.8590 0.3856
C2 C 0.9556(9) 0.8260(5) 0.3747(4)
H4 H 0.9979 0.7814 0.3422
H5 H 0.9160 0.8798 0.3399
C3 C 0.8688(7) 0.7960(4) 0.4315(3)
H6 H 0.8119 0.7860 0.4026
C4 C 0.8746(8) 0.9136(4) 0.4976(3)
C5 C 0.8246(8) 0.9726(4) 0.5504(4)
H7 H 0.8668 1.0059 0.5613
C6 C 0.7172(7) 0.9835(4) 0.5867(3)
H8 H 0.6889 1.0227 0.6227
C7 C 0.6492(6) 0.9388(3) 0.5720(3)
C8 C 0.5365(6) 0.9507(3) 0.6070(3)
C9 C 0.4729(6) 0.9064(3) 0.5902(3)
C10 C 0.5139(7) 0.8528(4) 0.5346(4)
H9 H 0.4671 0.8242 0.5213
C11 C 0.6211(7) 0.8404(4) 0.4985(3)
H10 H 0.6461 0.8042 0.4599
C12 C 0.6954(7) 0.8800(3) 0.5171(3)
C13 C 0.8083(7) 0.8657(4) 0.4827(3)
C14 C 0.4875(6) 1.0104(3) 0.6673(3)
H11 H 0.5062 1.0641 0.6500
H12 H 0.4032 1.0260 0.6727
C15 C 0.2978(7) 0.8685(4) 0.6155(4)
H13 H 0.3386 0.8061 0.6308
H14 H 0.2844 0.8797 0.5594
C16 C 0.1857(7) 0.8947(4) 0.6620(4)
H15 H 0.1444 0.9566 0.6446
H16 H 0.2004 0.8870 0.7176
C17 C 0.1104(8) 0.8428(6) 0.6540(5)
H17 H 0.0310 0.8738 0.6719
H18 H 0.1102 0.8402 0.5982
C18 C 0.1457(9) 0.7536(7) 0.6979(7)
H19 H 0.0846 0.7294 0.6991
H20 H 0.1605 0.7544 0.7513
H21 H 0.2155 0.7182 0.6724
C19 C 0.5750(4) 1.0027(3) 0.7895(4)
C20 C 0.6248(4) 0.9440(3) 0.8620(3)
C21 C 0.5526(4) 0.9206(3) 0.9214(3)
C22 C 0.5985(4) 0.8617(3) 0.9878(3)
H22 H 0.5486 0.8485 1.0300
C23 C 0.7145(4) 0.8230(3) 0.9921(3)
H23 H 0.7435 0.7799 1.0355
C24 C 0.7927(4) 0.8460(3) 0.9329(3)
C25 C 0.9139(4) 0.8095(3) 0.9378(3)
C26 C 0.9790(4) 0.8493(3) 0.8850(3)
C27 C 0.9341(4) 0.9146(3) 0.8238(3)
H24 H 0.9826 0.9400 0.7892
C28 C 0.8199(4) 0.9420(3) 0.8137(3)
H25 H 0.7901 0.9828 0.7692
C29 C 0.7450(3) 0.9106(3) 0.8685(3)
C30 C 0.3583(5) 0.9363(4) 0.9694(4)
H26 H 0.3720 0.9451 1.0209
H27 H 0.3670 0.8749 0.9724
C31 C 0.2400(5) 0.9931(6) 0.9462(6)
H28 H 0.2312 1.0537 0.9479
H29 H 0.1831 0.9770 0.9849
C32 C 0.2138(6) 0.9872(4) 0.8655(5)
H30 H 0.2172 0.9276 0.8644
H31 H 0.2727 1.0002 0.8268
C33 C 0.0917(6) 1.0520(6) 0.8424(6)
H32 H 0.0902 1.1113 0.8394
H33 H 0.0336 1.0408 0.8818
H34 H 0.0757 1.0442 0.7917
C34 C 0.9781(4) 0.7306(3) 0.9930(3)
H35 H 0.9264 0.7166 1.0380
C35 C 1.0753(5) 0.7503(4) 1.0207(3)
H36 H 1.0448 0.8032 1.0446
H37 H 1.1172 0.7020 1.0600
C36 C 1.1530(5) 0.7627(4) 0.9509(4)
H38 H 1.2127 0.7817 0.9674
C37 C 1.0296(4) 0.6555(3) 0.9477(2)
C38 C 1.1367(4) 0.6405(3) 0.9118(3)
C39 C 1.1860(4) 0.5781(3) 0.8639(3)
H39 H 1.2625 0.5681 0.8427
C40 C 1.1237(4) 0.5313(3) 0.8475(2)
H40 H 1.1551 0.4914 0.8124
C41 C 1.0130(3) 0.5425(3) 0.8830(2)
C42 C 0.9453(3) 0.4951(3) 0.8670(2)
C43 C 0.8394(3) 0.5056(3) 0.9031(3)
C44 C 0.7954(3) 0.5617(3) 0.9577(3)
H41 H 0.7232 0.5666 0.9846
C45 C 0.8578(3) 0.6094(3) 0.9716(2)
H42 H 0.8267 0.6480 1.0080
C46 C 0.9661(3) 0.6038(3) 0.9344(2)
C47 C 0.6665(4) 0.4710(3) 0.9146(5)
H43 H 0.6199 0.5326 0.9019
H44 H 0.6648 0.4542 0.9719
C48 C 0.6195(5) 0.4173(5) 0.8794(7)
H45 H 0.6711 0.3567 0.8885
H46 H 0.6178 0.4371 0.8224
C49 C 0.5002(6) 0.4214(6) 0.9124(8)
H47 H 0.5017 0.4060 0.9698
H48 H 0.4486 0.4817 0.9003
C50 C 0.4511(7) 0.3658(7) 0.8844(9)
H49 H 0.4744 0.3638 0.8292
H50 H 0.3674 0.3889 0.8909
H51 H 0.4785 0.3075 0.9144
C51 C 0.9857(4) 0.4390(3) 0.8056(3)
C52 C 0.9682(5) 0.4398(3) 0.6658(3)
H52 H 0.9345 0.3932 0.6764
H53 H 1.0507 0.4146 0.6511
C53 C 0.9099(5) 0.5081(3) 0.6011(2)
C54 C 0.8114(5) 0.5079(3) 0.5768(3)
C55 C 0.7536(5) 0.5725(4) 0.5163(3)
H54 H 0.6873 0.5695 0.4975
C56 C 0.7924(5) 0.6383(3) 0.4853(3)
H55 H 0.7524 0.6817 0.4454
C57 C 0.8924(4) 0.6434(3) 0.5117(2)
C58 C 0.9352(5) 0.7136(3) 0.4816(3)
C59 C 1.0403(6) 0.7067(4) 0.5027(4)
C60 C 1.1034(6) 0.6388(4) 0.5557(4)
H56 H 1.1765 0.6362 0.5681
C61 C 1.0607(5) 0.5774(4) 0.5890(3)
H57 H 1.1017 0.5336 0.6282
C62 C 0.9537(4) 0.5746(3) 0.5678(2)
C63 C 0.6749(9) 0.4396(7) 0.5860(6)
H58 H 0.6831 0.4444 0.5286
H59 H 0.6086 0.4891 0.5993
C64 C 0.6544(13) 0.3643(8) 0.6181(8)
H60 H 0.6369 0.3642 0.6747
H61 H 0.7261 0.3158 0.6117
C65 C 0.563(2) 0.3471(17) 0.5874(13)
H62 H 0.4886 0.3829 0.6093
H63 H 0.5648 0.3659 0.5303
C66 C 0.566(3) 0.2601(15) 0.6029(17)
H64 H 0.4930 0.2573 0.5921
H65 H 0.5813 0.2364 0.6578
H66 H 0.6276 0.2264 0.5697
C70 C 0.4530(11) 0.7033(11) 0.7918(16)
H74 H 0.3746 0.7081 0.7952
C71 C 0.507(2) 0.6755(13) 0.7412(17)
H75 H 0.4777 0.6448 0.7136
C72 C 0.6051(12) 0.7337(4) 0.8332(7)
H76 H 0.6394 0.7493 0.8706
C73 C 0.4853(15) 0.7292(7) 0.8449(7)
H77 H 0.4370 0.7448 0.8897
C74 C 0.6153(18) 0.6832(7) 0.7159(5)
H78 H 0.6532 0.6678 0.6679
C75 C 0.6599(6) 0.7127(3) 0.7624(5)
C76 C 0.8279(5) 0.7565(4) 0.6951(4)
H79 H 0.7810 0.7731 0.6494
H80 H 0.8780 0.7909 0.6949
O11 O 0.8666(3) 0.6701(2) 0.7285(2)
C77 C 0.7804(9) 0.7253(5) 0.7686(5)
H81 H 0.7965 0.7401 0.8175
C67? C 0.583(2) 0.4764(15) 0.6340(10)
H67? H 0.5566 0.5397 0.6178
H68? H 0.6069 0.4634 0.6879
C68? C 0.480(3) 0.443(5) 0.632(4)
H69? H 0.4680 0.4396 0.5784
H70? H 0.4939 0.3849 0.6644
C69? C 0.3727(18) 0.512(2) 0.6675(15)
H71? H 0.3769 0.5696 0.6484
H72? H 0.3729 0.5001 0.7245
H73? H 0.3023 0.5085 0.6516
C78? C 0.7505(10) 0.7103(7) 0.6941(5)
H82? H 0.7387 0.6957 0.6439
loop_
_geom_bond_atom_site_label_1
_geom_bond_atom_site_label_2
_geom_bond_site_symmetry_1
_geom_bond_site_symmetry_2
O1 C1 1_555 1_555
O2 C1 1_555 1_555
O3 C26 1_555 1_555
O4 C36 1_555 1_555
O5 C19 1_555 1_555
O6 C51 1_555 1_555
O7 C43 1_555 1_555
O8 C54 1_555 1_555
O9 C9 1_555 1_555
O10 C21 1_555 1_555
N1 H1 1_555 1_555
N2 H2 1_555 1_555
C1 H3 1_555 1_555
C2 C1 1_555 1_555
H4 C2 1_555 1_555
H5 C2 1_555 1_555
C3 C2 1_555 1_555
H6 C3 1_555 1_555
C4 O2 1_555 1_555
C5 C4 1_555 1_555
H7 C5 1_555 1_555
C6 C5 1_555 1_555
H8 C6 1_555 1_555
C7 C6 1_555 1_555
C8 C7 1_555 1_555
C9 C8 1_555 1_555
C10 C9 1_555 1_555
H9 C10 1_555 1_555
C11 C10 1_555 1_555
H10 C11 1_555 1_555
C12 C7 1_555 1_555
C13 C3 1_555 1_555
C14 N2 1_555 1_555
H11 C14 1_555 1_555
H12 C14 1_555 1_555
C15 O9 1_555 1_555
H13 C15 1_555 1_555
H14 C15 1_555 1_555
C16 C15 1_555 1_555
H15 C16 1_555 1_555
H16 C16 1_555 1_555
C17 C16 1_555 1_555
H17 C17 1_555 1_555
H18 C17 1_555 1_555
C18 C17 1_555 1_555
H19 C18 1_555 1_555
H20 C18 1_555 1_555
H21 C18 1_555 1_555
C19 N2 1_555 1_555
C20 C19 1_555 1_555
C21 C20 1_555 1_555
C22 C21 1_555 1_555
H22 C22 1_555 1_555
C23 C22 1_555 1_555
H23 C23 1_555 1_555
C24 C23 1_555 1_555
C25 C24 1_555 1_555
C26 C25 1_555 1_555
C27 C26 1_555 1_555
H24 C27 1_555 1_555
C28 C27 1_555 1_555
H25 C28 1_555 1_555
C29 C20 1_555 1_555
C30 O10 1_555 1_555
H26 C30 1_555 1_555
H27 C30 1_555 1_555
C31 C30 1_555 1_555
H28 C31 1_555 1_555
H29 C31 1_555 1_555
C32 C31 1_555 1_555
H30 C32 1_555 1_555
H31 C32 1_555 1_555
C33 C32 1_555 1_555
H32 C33 1_555 1_555
H33 C33 1_555 1_555
H34 C33 1_555 1_555
C34 C25 1_555 1_555
H35 C34 1_555 1_555
C35 C34 1_555 1_555
H36 C35 1_555 1_555
H37 C35 1_555 1_555
C36 O3 1_555 1_555
H38 C36 1_555 1_555
C37 C34 1_555 1_555
C38 O4 1_555 1_555
C39 C38 1_555 1_555
H39 C39 1_555 1_555
C40 C39 1_555 1_555
H40 C40 1_555 1_555
C41 C40 1_555 1_555
C42 C41 1_555 1_555
C43 C42 1_555 1_555
C44 C43 1_555 1_555
H41 C44 1_555 1_555
C45 C44 1_555 1_555
H42 C45 1_555 1_555
C46 C37 1_555 1_555
C47 O7 1_555 1_555
H43 C47 1_555 1_555
H44 C47 1_555 1_555
C48 C47 1_555 1_555
H45 C48 1_555 1_555
H46 C48 1_555 1_555
C49 C48 1_555 1_555
H47 C49 1_555 1_555
H48 C49 1_555 1_555
C50 C49 1_555 1_555
H49 C50 1_555 1_555
H50 C50 1_555 1_555
H51 C50 1_555 1_555
C51 N1 1_555 1_555
C52 N1 1_555 1_555
H52 C52 1_555 1_555
H53 C52 1_555 1_555
C53 C52 1_555 1_555
C54 C53 1_555 1_555
C55 C54 1_555 1_555
H54 C55 1_555 1_555
C56 C55 1_555 1_555
H55 C56 1_555 1_555
C57 C56 1_555 1_555
C58 C3 1_555 1_555
C59 O1 1_555 1_555
C60 C59 1_555 1_555
H56 C60 1_555 1_555
C61 C60 1_555 1_555
H57 C61 1_555 1_555
C62 C53 1_555 1_555
C63 O8 1_555 1_555
H58 C63 1_555 1_555
H59 C63 1_555 1_555
C64 C63 1_555 1_555
H60 C64 1_555 1_555
H61 C64 1_555 1_555
C65 C64 1_555 1_555
H62 C65 1_555 1_555
H63 C65 1_555 1_555
C66 C65 1_555 1_555
H64 C66 1_555 1_555
H65 C66 1_555 1_555
H66 C66 1_555 1_555
C70 H74 1_555 1_555
C71 C70 1_555 1_555
H75 C71 1_555 1_555
C72 H76 1_555 1_555
C73 C70 1_555 1_555
H77 C73 1_555 1_555
C74 C71 1_555 1_555
H78 C74 1_555 1_555
C75 C72 1_555 1_555
C76 H79 1_555 1_555
H80 C76 1_555 1_555
O11 C76 1_555 1_555
C77 C75 1_555 1_555
H81 C77 1_555 1_555
C4 C13 1_555 1_555
C8 C14 1_555 1_555
C11 C12 1_555 1_555
C12 C13 1_555 1_555
C24 C29 1_555 1_555
C28 C29 1_555 1_555
C35 C36 1_555 1_555
C37 C38 1_555 1_555
C41 C46 1_555 1_555
C42 C51 1_555 1_555
C45 C46 1_555 1_555
C57 C58 1_555 1_555
C57 C62 1_555 1_555
C58 C59 1_555 1_555
C61 C62 1_555 1_555
C72 C73 1_555 1_555
C74 C75 1_555 1_555
C76 C77 1_555 1_555
O11 C77 1_555 1_555

#END
