
#######################################################################
#
#                 Cambridge Crystallographic Data Centre
#                                CCDC 
#
#######################################################################
#
# If this CIF has been generated from an entry in the Cambridge 
# Structural Database, then it will include bibliographic, chemical, 
# crystal, experimental, refinement or atomic coordinate data resulting 
# from the CCDC's data processing and validation procedures.
#
#######################################################################

data_KEBCEC
_chemical_formula_moiety         'C40 H47 P1'
_chemical_name_systematic        
dicyclohexyl(2',6'-bis(3,5-dimethylphenyl)[1,1'-biphenyl]-2-yl)phosphane
_symmetry_cell_setting           monoclinic
_symmetry_space_group_name_H-M   'C 2/c'
_symmetry_Int_Tables_number      15
_space_group_name_Hall           '-C 2yn'
loop_
_symmetry_equiv_pos_site_id
_symmetry_equiv_pos_as_xyz
1 x,y,z
2 -x,y,1/2-z
3 1/2+x,1/2+y,z
4 1/2-x,1/2+y,1/2-z
5 -x,-y,-z
6 x,-y,1/2+z
7 1/2-x,1/2-y,-z
8 1/2+x,1/2-y,1/2+z
_cell_length_a                   27.563(16)
_cell_length_b                   13.898(8)
_cell_length_c                   20.022(12)
_cell_angle_alpha                90
_cell_angle_beta                 116.974(11)
_cell_angle_gamma                90
_cell_volume                     6835.46
_cell_formula_units_Z            8
loop_
_atom_site_label
_atom_site_type_symbol
_atom_site_fract_x
_atom_site_fract_y
_atom_site_fract_z
C1 C 0.58960(11) 0.2915(2) 0.72495(16)
H1 H 0.5819 0.3145 0.7627
C2 C 0.61744(13) 0.2061(2) 0.73593(19)
C3 C 0.62738(12) 0.1719(2) 0.6780(2)
H2 H 0.6459 0.1140 0.6845
C4 C 0.61053(12) 0.2213(2) 0.6105(2)
C5 C 0.58364(10) 0.3080(2) 0.60228(17)
H3 H 0.5727 0.3425 0.5580
C6 C 0.57251(10) 0.34499(19) 0.65858(14)
C7 C 0.61866(16) 0.1810(3) 0.5460(2)
H4 H 0.5839 0.1713 0.5035
H5 H 0.6376 0.1208 0.5606
H6 H 0.6397 0.2256 0.5331
C8 C 0.63790(18) 0.1521(3) 0.8097(2)
H7 H 0.6650 0.1901 0.8490
H8 H 0.6536 0.0920 0.8059
H9 H 0.6081 0.1402 0.8210
C9 C 0.53988(9) 0.43430(19) 0.64819(13)
C10 C 0.49324(10) 0.4276(2) 0.65755(15)
H10 H 0.4831 0.3682 0.6687
C11 C 0.46153(11) 0.5071(3) 0.65064(16)
H11 H 0.4305 0.5015 0.6576
C12 C 0.47590(11) 0.5940(2) 0.63351(16)
H12 H 0.4541 0.6473 0.6287
C13 C 0.52218(10) 0.6055(2) 0.62307(14)
C14 C 0.55512(9) 0.52390(18) 0.63119(13)
C15 C 0.53393(11) 0.7048(2) 0.60574(19)
C16 C 0.54035(11) 0.7263(2) 0.5424(2)
H13 H 0.5405 0.6761 0.5118
C17 C 0.54651(14) 0.8198(3) 0.5232(3)
C18 C 0.54635(18) 0.8930(4) 0.5709(4)
H14 H 0.5511 0.9562 0.5597
C19 C 0.5394(2) 0.8755(3) 0.6344(4)
C20 C 0.53347(15) 0.7814(3) 0.6513(2)
H15 H 0.5290 0.7684 0.6938
C21 C 0.5365(3) 0.9567(4) 0.6840(4)
H16 H 0.5645 1.0030 0.6925
H17 H 0.5415 0.9306 0.7311
H18 H 0.5015 0.9874 0.6595
C22 C 0.55004(18) 0.8414(3) 0.4527(3)
H19 H 0.5741 0.7963 0.4467
H20 H 0.5638 0.9055 0.4551
H21 H 0.5145 0.8364 0.4109
C23 C 0.60709(10) 0.53401(17) 0.62425(14)
C24 C 0.60439(11) 0.5293(2) 0.55321(15)
H22 H 0.5710 0.5187 0.5118
C25 C 0.65021(12) 0.5399(2) 0.54305(17)
H23 H 0.6478 0.5372 0.4952
C26 C 0.69985(12) 0.5547(2) 0.60464(17)
H24 H 0.7309 0.5633 0.5981
C27 C 0.70375(10) 0.55696(18) 0.67618(16)
H25 H 0.7376 0.5658 0.7172
C28 C 0.65767(9) 0.54606(16) 0.68784(14)
C29 C 0.72986(13) 0.3850(2) 0.81216(18)
H26 H 0.7266 0.3898 0.7620
H27 H 0.6991 0.3482 0.8093
C30 C 0.78290(15) 0.3321(3) 0.8629(2)
H28 H 0.7817 0.2675 0.8438
H29 H 0.8134 0.3655 0.8618
C31 C 0.79124(17) 0.3265(3) 0.9429(2)
H30 H 0.7624 0.2885 0.9448
H31 H 0.8256 0.2951 0.9739
C32 C 0.79120(16) 0.4253(3) 0.97298(19)
H32 H 0.8224 0.4610 0.9760
H33 H 0.7944 0.4202 1.0232
C33 C 0.73879(14) 0.4798(3) 0.92274(17)
H34 H 0.7082 0.4479 0.9248
H35 H 0.7411 0.5445 0.9422
C34 C 0.72832(10) 0.48577(19) 0.84148(14)
H36 H 0.7572 0.5245 0.8390
C35 C 0.67298(13) 0.6756(2) 0.80663(19)
H37 H 0.6493 0.7085 0.7597
C36 C 0.72714(15) 0.7176(2) 0.8287(2)
H38 H 0.7381 0.7051 0.7898
H39 H 0.7534 0.6871 0.8744
C37 C 0.7273(2) 0.8272(3) 0.8413(3)
H40 H 0.7642 0.8511 0.8609
H41 H 0.7057 0.8586 0.7936
C38 C 0.7054(3) 0.8526(3) 0.8935(3)
H42 H 0.7039 0.9221 0.8966
H43 H 0.7298 0.8286 0.9430
C39 C 0.6506(2) 0.7036(3) 0.8590(3)
H44 H 0.6719 0.6730 0.9072
H45 H 0.6135 0.6803 0.8395
C40 C 0.6510(2) 0.8127(3) 0.8704(3)
H46 H 0.6255 0.8429 0.8239
H47 H 0.6393 0.8268 0.9083
P1 P 0.66137(3) 0.54489(5) 0.78264(4)
loop_
_geom_bond_atom_site_label_1
_geom_bond_atom_site_label_2
_geom_bond_site_symmetry_1
_geom_bond_site_symmetry_2
C1 H1 1_555 1_555
C2 C1 1_555 1_555
C3 C2 1_555 1_555
H2 C3 1_555 1_555
C4 C3 1_555 1_555
C5 C4 1_555 1_555
H3 C5 1_555 1_555
C6 C1 1_555 1_555
C7 C4 1_555 1_555
H4 C7 1_555 1_555
H5 C7 1_555 1_555
H6 C7 1_555 1_555
C8 C2 1_555 1_555
H7 C8 1_555 1_555
H8 C8 1_555 1_555
H9 C8 1_555 1_555
C9 C6 1_555 1_555
C10 C9 1_555 1_555
H10 C10 1_555 1_555
C11 C10 1_555 1_555
H11 C11 1_555 1_555
C12 C11 1_555 1_555
H12 C12 1_555 1_555
C13 C12 1_555 1_555
C14 C9 1_555 1_555
C15 C13 1_555 1_555
C16 C15 1_555 1_555
H13 C16 1_555 1_555
C17 C16 1_555 1_555
C18 C17 1_555 1_555
H14 C18 1_555 1_555
C19 C18 1_555 1_555
C20 C15 1_555 1_555
H15 C20 1_555 1_555
C21 C19 1_555 1_555
H16 C21 1_555 1_555
H17 C21 1_555 1_555
H18 C21 1_555 1_555
C22 C17 1_555 1_555
H19 C22 1_555 1_555
H20 C22 1_555 1_555
H21 C22 1_555 1_555
C23 C14 1_555 1_555
C24 C23 1_555 1_555
H22 C24 1_555 1_555
C25 C24 1_555 1_555
H23 C25 1_555 1_555
C26 C25 1_555 1_555
H24 C26 1_555 1_555
C27 C26 1_555 1_555
H25 C27 1_555 1_555
C28 C23 1_555 1_555
C29 H26 1_555 1_555
H27 C29 1_555 1_555
C30 C29 1_555 1_555
H28 C30 1_555 1_555
H29 C30 1_555 1_555
C31 C30 1_555 1_555
H30 C31 1_555 1_555
H31 C31 1_555 1_555
C32 C31 1_555 1_555
H32 C32 1_555 1_555
H33 C32 1_555 1_555
C33 C32 1_555 1_555
H34 C33 1_555 1_555
H35 C33 1_555 1_555
C34 C29 1_555 1_555
H36 C34 1_555 1_555
C35 H37 1_555 1_555
C36 C35 1_555 1_555
H38 C36 1_555 1_555
H39 C36 1_555 1_555
C37 C36 1_555 1_555
H40 C37 1_555 1_555
H41 C37 1_555 1_555
C38 C37 1_555 1_555
H42 C38 1_555 1_555
H43 C38 1_555 1_555
C39 C35 1_555 1_555
H44 C39 1_555 1_555
H45 C39 1_555 1_555
C40 C38 1_555 1_555
H46 C40 1_555 1_555
H47 C40 1_555 1_555
P1 C28 1_555 1_555
C5 C6 1_555 1_555
C13 C14 1_555 1_555
C19 C20 1_555 1_555
C27 C28 1_555 1_555
C33 C34 1_555 1_555
C34 P1 1_555 1_555
C35 P1 1_555 1_555
C39 C40 1_555 1_555

#END
