
#######################################################################
#
#                 Cambridge Crystallographic Data Centre
#                                CCDC 
#
#######################################################################
#
# If this CIF has been generated from an entry in the Cambridge 
# Structural Database, then it will include bibliographic, chemical, 
# crystal, experimental, refinement or atomic coordinate data resulting 
# from the CCDC's data processing and validation procedures.
#
#######################################################################

data_KEBDUT
_chemical_formula_moiety         'C47 H46'
_chemical_name_systematic        
9,9'-(2,2-dihexyl-1H-indene-1,3(2H)-diylidene)bis(9H-fluorene)
_symmetry_cell_setting           triclinic
_symmetry_space_group_name_H-M   'P -1'
_symmetry_Int_Tables_number      2
_space_group_name_Hall           '-P 1'
loop_
_symmetry_equiv_pos_site_id
_symmetry_equiv_pos_as_xyz
1 x,y,z
2 -x,-y,-z
_cell_length_a                   9.6932(6)
_cell_length_b                   12.9292(7)
_cell_length_c                   27.7082(16)
_cell_angle_alpha                89.4324(17)
_cell_angle_beta                 89.2885(18)
_cell_angle_gamma                73.5182(17)
_cell_volume                     3329.52
_exptl_crystal_colour            yellow
_exptl_crystal_description       block-cut
_cell_formula_units_Z            4
loop_
_atom_site_label
_atom_site_type_symbol
_atom_site_fract_x
_atom_site_fract_y
_atom_site_fract_z
C1 C 0.6985(3) 0.8814(2) 0.15757(11)
C2 C 0.6164(3) 0.9866(2) 0.15325(11)
C3 C 0.4578(3) 1.0220(3) 0.14520(11)
C4 C 0.3605(4) 0.9642(3) 0.13457(11)
H1 H 0.3904 0.8876 0.1356
C5 C 0.2205(3) 1.0184(3) 0.12252(11)
H2 H 0.1542 0.9788 0.1158
C6 C 0.1757(4) 1.1314(3) 0.12019(12)
H3 H 0.0786 1.1678 0.1127
C7 C 0.2711(4) 1.1899(3) 0.12866(11)
H4 H 0.2413 1.2664 0.1264
C8 C 0.4127(3) 1.1351(3) 0.14070(11)
C9 C 0.5356(4) 1.1761(3) 0.14744(11)
C10 C 0.5432(4) 1.2818(3) 0.14939(12)
H5 H 0.4592 1.3403 0.1447
C11 C 0.6729(4) 1.3008(3) 0.15811(13)
H6 H 0.6793 1.3727 0.1593
C12 C 0.7956(4) 1.2142(3) 0.16520(12)
H7 H 0.8848 1.2280 0.1715
C13 C 0.7895(4) 1.1085(3) 0.16324(11)
H8 H 0.8736 1.0506 0.1687
C14 C 0.6601(3) 1.0876(3) 0.15333(11)
C15 C 0.6461(3) 0.7933(2) 0.17533(11)
C16 C 0.5328(3) 0.7966(2) 0.20819(11)
H9 H 0.4675 0.8637 0.2171
C17 C 0.5174(3) 0.7023(3) 0.22719(11)
H10 H 0.4402 0.7042 0.2490
C18 C 0.6145(4) 0.6028(3) 0.21488(12)
H11 H 0.6027 0.5380 0.2284
C19 C 0.7253(3) 0.5987(2) 0.18360(11)
H12 H 0.7912 0.5311 0.1758
C20 C 0.7432(3) 0.6934(2) 0.16282(11)
C21 C 0.8648(3) 0.7111(2) 0.13585(11)
C22 C 0.9658(3) 0.6354(2) 0.10999(11)
C23 C 0.9398(3) 0.5367(2) 0.08898(11)
C24 C 0.8152(4) 0.5073(3) 0.08202(12)
H13 H 0.7265 0.5509 0.0948
C25 C 0.8184(4) 0.4149(3) 0.05658(12)
H14 H 0.7325 0.3946 0.0525
C26 C 0.9477(4) 0.3517(3) 0.03697(12)
H15 H 0.9499 0.2872 0.0204
C27 C 1.0722(4) 0.3818(3) 0.04136(12)
H16 H 1.1596 0.3399 0.0271
C28 C 1.0679(3) 0.4747(2) 0.06707(11)
C29 C 1.1785(3) 0.5286(3) 0.07364(11)
C30 C 1.3235(4) 0.4948(3) 0.05998(12)
H17 H 1.3617 0.4282 0.0438
C31 C 1.4103(4) 0.5592(3) 0.07023(14)
H18 H 1.5086 0.5378 0.0605
C32 C 1.3546(4) 0.6562(3) 0.09493(13)
H19 H 1.4162 0.6987 0.1031
C33 C 1.2098(3) 0.6906(3) 0.10765(12)
H20 H 1.1726 0.7576 0.1236
C34 C 1.1187(3) 0.6281(3) 0.09720(11)
C35 C 0.8580(3) 0.8317(2) 0.14227(11)
C36 C 0.9660(3) 0.8396(3) 0.18271(11)
H21 H 1.0424 0.7701 0.1840
H22 H 1.0123 0.8957 0.1729
C37 C 0.9056(3) 0.8654(3) 0.23355(11)
H23 H 0.8567 0.8111 0.2439
H24 H 0.8334 0.9370 0.2336
C38 C 1.0250(4) 0.8654(3) 0.26936(12)
H25 H 1.1000 0.7952 0.2677
H26 H 0.9842 0.8734 0.3025
C39 C 1.0950(4) 0.9569(3) 0.25917(13)
H27 H 1.1338 0.9502 0.2258
H28 H 1.0207 1.0273 0.2617
C40 C 1.2142(4) 0.9546(3) 0.29357(13)
H29 H 1.2877 0.8837 0.2916
H30 H 1.1753 0.9634 0.3269
C41 C 1.2844(4) 1.0435(3) 0.28227(14)
H31 H 1.3649 1.0373 0.3042
H32 H 1.2135 1.1139 0.2865
H33 H 1.3200 1.0365 0.2489
C42 C 0.8897(3) 0.8821(2) 0.09417(11)
H34 H 0.8747 0.9603 0.0991
H35 H 0.9924 0.8500 0.0856
C43 C 0.7985(4) 0.8675(3) 0.05166(11)
H36 H 0.6959 0.8881 0.0617
H37 H 0.8262 0.7905 0.0424
C44 C 0.8167(5) 0.9358(3) 0.00781(13)
H38 H 0.9206 0.9174 -0.0003
H39 H 0.7680 0.9138 -0.0198
C45 C 0.7610(5) 1.0576(3) 0.01225(16)
H40 H 0.7986 1.0803 0.0422
H41 H 0.7973 1.0917 -0.0154
C46 C 0.6028(5) 1.0955(4) 0.0133(2)
H42 H 0.5684 1.0618 0.0415
H43 H 0.5669 1.0688 -0.0160
C47 C 0.5338(6) 1.2187(3) 0.01601(18)
H44 H 0.4288 1.2343 0.0164
H45 H 0.5639 1.2534 -0.0122
H46 H 0.5650 1.2464 0.0455
C48 C 0.8726(3) 0.2130(2) 0.36334(11)
C49 C 0.9718(3) 0.1366(2) 0.38933(11)
C50 C 0.9445(3) 0.0381(2) 0.41091(10)
C51 C 0.8184(3) 0.0080(2) 0.41779(11)
H47 H 0.7305 0.0513 0.4048
C52 C 0.8214(4) -0.0849(3) 0.44356(12)
H48 H 0.7354 -0.1056 0.4477
C53 C 0.9496(4) -0.1486(3) 0.46349(12)
H49 H 0.9509 -0.2135 0.4801
C54 C 1.0741(3) -0.1176(2) 0.45908(11)
H50 H 1.1607 -0.1595 0.4734
C55 C 1.0710(3) -0.0240(2) 0.43330(11)
C56 C 1.1820(3) 0.0307(2) 0.42674(11)
C57 C 1.3249(3) -0.0026(3) 0.44060(12)
H51 H 1.3618 -0.0693 0.4571
C58 C 1.4132(3) 0.0620(3) 0.43027(12)
H52 H 1.5109 0.0404 0.4400
C59 C 1.3583(3) 0.1588(3) 0.40561(12)
H53 H 1.4197 0.2025 0.3981
C60 C 1.2151(3) 0.1929(3) 0.39172(11)
H54 H 1.1797 0.2593 0.3748
C61 C 1.1230(3) 0.1300(2) 0.40245(11)
C62 C 0.7516(3) 0.1960(2) 0.33683(11)
C63 C 0.7351(3) 0.1019(2) 0.31667(11)
H55 H 0.8017 0.0343 0.3240
C64 C 0.6229(3) 0.1067(2) 0.28619(11)
H56 H 0.6107 0.0422 0.2732
C65 C 0.5265(3) 0.2060(3) 0.27415(11)
H57 H 0.4490 0.2083 0.2531
C66 C 0.5422(3) 0.3007(2) 0.29243(11)
H58 H 0.4780 0.3682 0.2834
C67 C 0.6546(3) 0.2961(2) 0.32464(11)
C68 C 0.7065(3) 0.3844(2) 0.34174(10)
C69 C 0.6241(3) 0.4889(2) 0.34624(10)
C70 C 0.4653(3) 0.5242(2) 0.35469(10)
C71 C 0.3668(3) 0.4668(3) 0.36522(11)
H59 H 0.3959 0.3903 0.3640
C72 C 0.2259(3) 0.5217(3) 0.37758(11)
H60 H 0.1587 0.4824 0.3844
C73 C 0.1822(3) 0.6340(3) 0.38004(11)
H61 H 0.0848 0.6706 0.3876
C74 C 0.2791(3) 0.6923(3) 0.37162(11)
H62 H 0.2498 0.7687 0.3741
C75 C 0.4211(3) 0.6374(2) 0.35930(10)
C76 C 0.5447(3) 0.6780(2) 0.35257(10)
C77 C 0.5534(4) 0.7836(3) 0.35130(11)
H63 H 0.4699 0.8424 0.3565
C78 C 0.6848(4) 0.8018(3) 0.34238(12)
H64 H 0.6921 0.8736 0.3416
C79 C 0.8070(4) 0.7158(3) 0.33448(12)
H65 H 0.8968 0.7294 0.3279
C80 C 0.7991(3) 0.6105(3) 0.33605(11)
H66 H 0.8828 0.5524 0.3303
C81 C 0.6679(3) 0.5898(2) 0.34611(10)
C82 C 0.8657(3) 0.3336(2) 0.35652(11)
C83 C 0.9758(3) 0.3416(2) 0.31552(11)
H67 H 1.0210 0.3983 0.3246
H68 H 1.0529 0.2724 0.3146
C84 C 0.9166(3) 0.3665(3) 0.26453(11)
H69 H 0.8551 0.3194 0.2571
H70 H 0.8563 0.4423 0.2628
C85 C 1.0378(4) 0.3488(3) 0.22714(13)
H71 H 1.0767 0.2698 0.2230
H72 H 0.9925 0.3779 0.1962
C86 C 0.8958(3) 0.3835(2) 0.40447(11)
H73 H 0.9982 0.3514 0.4128
H74 H 0.8805 0.4618 0.3994
C87 C 0.8027(4) 0.3674(3) 0.44735(11)
H75 H 0.8305 0.2902 0.4567
H76 H 0.7006 0.3878 0.4375
C88 C 0.8184(5) 0.4348(3) 0.49104(13)
H77 H 0.7674 0.4125 0.5186
H78 H 0.9217 0.4152 0.4993
C89 C 1.1634(5) 0.3916(4) 0.23297(18)
H79 H 1.2374 0.3597 0.2082
H80 H 1.2061 0.3709 0.2651
C90 C 1.1184(5) 0.5141(4) 0.2279(2)
H81 H 1.0478 0.5460 0.2536
H82 H 1.0712 0.5349 0.1963
C91 C 1.2491(8) 0.5591(6) 0.2314(3)
H83 H 1.2185 0.6370 0.2252
H84 H 1.3220 0.5239 0.2074
H85 H 1.2900 0.5451 0.2638
C92 C 0.7653(5) 0.5565(3) 0.48703(16)
H86 H 0.8049 0.5806 0.4572
H87 H 0.7996 0.5893 0.5149
C93 C 0.6019(5) 0.5939(4) 0.48578(19)
H88 H 0.5655 0.5617 0.5140
H89 H 0.5711 0.5635 0.4565
C94 C 0.5259(8) 0.7175(5) 0.4859(2)
H90 H 0.5503 0.7491 0.5155
H91 H 0.4215 0.7299 0.4846
H92 H 0.5582 0.7512 0.4578
C95? C 1.0989(12) 0.4565(10) 0.2392(4)
H93? H 1.0201 0.5241 0.2356
H94? H 1.1338 0.4519 0.2728
C96? C 1.2176(10) 0.4561(8) 0.2050(3)
H95? H 1.1792 0.4648 0.1718
H96? H 1.2907 0.3850 0.2070
C97? C 1.2907(18) 0.5437(14) 0.2140(6)
H97? H 1.3649 0.5401 0.1892
H98? H 1.3352 0.5329 0.2459
H99? H 1.2192 0.6145 0.2127
C98? C 0.6825(19) 0.5541(13) 0.4715(6)
H100? H 0.7259 0.5941 0.4480
H101? H 0.6056 0.5321 0.4549
C99? C 0.6183(19) 0.6260(14) 0.5116(7)
H102? H 0.6897 0.6327 0.5358
H103? H 0.5369 0.6068 0.5276
C100? C 0.572(2) 0.7217(13) 0.4791(6)
H104? H 0.6447 0.7172 0.4537
H105? H 0.5606 0.7876 0.4978
H106? H 0.4799 0.7234 0.4644
loop_
_geom_bond_atom_site_label_1
_geom_bond_atom_site_label_2
_geom_bond_site_symmetry_1
_geom_bond_site_symmetry_2
C1 C2 1_555 1_555
C2 C3 1_555 1_555
C3 C4 1_555 1_555
C4 H1 1_555 1_555
C5 C4 1_555 1_555
H2 C5 1_555 1_555
C6 C5 1_555 1_555
H3 C6 1_555 1_555
C7 C6 1_555 1_555
H4 C7 1_555 1_555
C8 C3 1_555 1_555
C9 C8 1_555 1_555
C10 C9 1_555 1_555
H5 C10 1_555 1_555
C11 C10 1_555 1_555
H6 C11 1_555 1_555
C12 C11 1_555 1_555
H7 C12 1_555 1_555
C13 C12 1_555 1_555
H8 C13 1_555 1_555
C14 C2 1_555 1_555
C15 C1 1_555 1_555
C16 C15 1_555 1_555
H9 C16 1_555 1_555
C17 C16 1_555 1_555
H10 C17 1_555 1_555
C18 C17 1_555 1_555
H11 C18 1_555 1_555
C19 C18 1_555 1_555
H12 C19 1_555 1_555
C20 C15 1_555 1_555
C21 C20 1_555 1_555
C22 C21 1_555 1_555
C23 C22 1_555 1_555
C24 C23 1_555 1_555
H13 C24 1_555 1_555
C25 C24 1_555 1_555
H14 C25 1_555 1_555
C26 C25 1_555 1_555
H15 C26 1_555 1_555
C27 C26 1_555 1_555
H16 C27 1_555 1_555
C28 C23 1_555 1_555
C29 C28 1_555 1_555
C30 C29 1_555 1_555
H17 C30 1_555 1_555
C31 C30 1_555 1_555
H18 C31 1_555 1_555
C32 C31 1_555 1_555
H19 C32 1_555 1_555
C33 C32 1_555 1_555
H20 C33 1_555 1_555
C34 C22 1_555 1_555
C35 C1 1_555 1_555
C36 C35 1_555 1_555
H21 C36 1_555 1_555
H22 C36 1_555 1_555
C37 C36 1_555 1_555
H23 C37 1_555 1_555
H24 C37 1_555 1_555
C38 C37 1_555 1_555
H25 C38 1_555 1_555
H26 C38 1_555 1_555
C39 C38 1_555 1_555
H27 C39 1_555 1_555
H28 C39 1_555 1_555
C40 C39 1_555 1_555
H29 C40 1_555 1_555
H30 C40 1_555 1_555
C41 C40 1_555 1_555
H31 C41 1_555 1_555
H32 C41 1_555 1_555
H33 C41 1_555 1_555
C42 C35 1_555 1_555
H34 C42 1_555 1_555
H35 C42 1_555 1_555
C43 C42 1_555 1_555
H36 C43 1_555 1_555
H37 C43 1_555 1_555
C44 C43 1_555 1_555
H38 C44 1_555 1_555
H39 C44 1_555 1_555
C45 C44 1_555 1_555
H40 C45 1_555 1_555
H41 C45 1_555 1_555
C46 C45 1_555 1_555
H42 C46 1_555 1_555
H43 C46 1_555 1_555
C47 C46 1_555 1_555
H44 C47 1_555 1_555
H45 C47 1_555 1_555
H46 C47 1_555 1_555
C48 C49 1_555 1_555
C49 C50 1_555 1_555
C50 C51 1_555 1_555
C51 H47 1_555 1_555
C52 C51 1_555 1_555
H48 C52 1_555 1_555
C53 C52 1_555 1_555
H49 C53 1_555 1_555
C54 C53 1_555 1_555
H50 C54 1_555 1_555
C55 C50 1_555 1_555
C56 C55 1_555 1_555
C57 C56 1_555 1_555
H51 C57 1_555 1_555
C58 C57 1_555 1_555
H52 C58 1_555 1_555
C59 C58 1_555 1_555
H53 C59 1_555 1_555
C60 C59 1_555 1_555
H54 C60 1_555 1_555
C61 C49 1_555 1_555
C62 C48 1_555 1_555
C63 C62 1_555 1_555
H55 C63 1_555 1_555
C64 C63 1_555 1_555
H56 C64 1_555 1_555
C65 C64 1_555 1_555
H57 C65 1_555 1_555
C66 C65 1_555 1_555
H58 C66 1_555 1_555
C67 C62 1_555 1_555
C68 C67 1_555 1_555
C69 C68 1_555 1_555
C70 C69 1_555 1_555
C71 C70 1_555 1_555
H59 C71 1_555 1_555
C72 C71 1_555 1_555
H60 C72 1_555 1_555
C73 C72 1_555 1_555
H61 C73 1_555 1_555
C74 C73 1_555 1_555
H62 C74 1_555 1_555
C75 C70 1_555 1_555
C76 C75 1_555 1_555
C77 C76 1_555 1_555
H63 C77 1_555 1_555
C78 C77 1_555 1_555
H64 C78 1_555 1_555
C79 C78 1_555 1_555
H65 C79 1_555 1_555
C80 C79 1_555 1_555
H66 C80 1_555 1_555
C81 C69 1_555 1_555
C82 C48 1_555 1_555
C83 C82 1_555 1_555
H67 C83 1_555 1_555
H68 C83 1_555 1_555
C84 C83 1_555 1_555
H69 C84 1_555 1_555
H70 C84 1_555 1_555
C85 C84 1_555 1_555
H71 C85 1_555 1_555
H72 C85 1_555 1_555
C86 C82 1_555 1_555
H73 C86 1_555 1_555
H74 C86 1_555 1_555
C87 C86 1_555 1_555
H75 C87 1_555 1_555
H76 C87 1_555 1_555
C88 C87 1_555 1_555
H77 C88 1_555 1_555
H78 C88 1_555 1_555
C89 C85 1_555 1_555
H79 C89 1_555 1_555
H80 C89 1_555 1_555
C90 C89 1_555 1_555
H81 C90 1_555 1_555
H82 C90 1_555 1_555
C91 C90 1_555 1_555
H83 C91 1_555 1_555
H84 C91 1_555 1_555
H85 C91 1_555 1_555
C92 C88 1_555 1_555
H86 C92 1_555 1_555
H87 C92 1_555 1_555
C93 C92 1_555 1_555
H88 C93 1_555 1_555
H89 C93 1_555 1_555
C94 C93 1_555 1_555
H90 C94 1_555 1_555
H91 C94 1_555 1_555
H92 C94 1_555 1_555
C7 C8 1_555 1_555
C9 C14 1_555 1_555
C13 C14 1_555 1_555
C19 C20 1_555 1_555
C21 C35 1_555 1_555
C27 C28 1_555 1_555
C29 C34 1_555 1_555
C33 C34 1_555 1_555
C54 C55 1_555 1_555
C56 C61 1_555 1_555
C60 C61 1_555 1_555
C66 C67 1_555 1_555
C68 C82 1_555 1_555
C74 C75 1_555 1_555
C76 C81 1_555 1_555
C80 C81 1_555 1_555

#END
