
#######################################################################
#
#                 Cambridge Crystallographic Data Centre
#                                CCDC 
#
#######################################################################
#
# If this CIF has been generated from an entry in the Cambridge 
# Structural Database, then it will include bibliographic, chemical, 
# crystal, experimental, refinement or atomic coordinate data resulting 
# from the CCDC's data processing and validation procedures.
#
#######################################################################

data_KEBFAB
_chemical_formula_moiety         'C42 H28'
_chemical_name_systematic        
9,9'-(2-methyl-2-phenyl-1H-indene-1,3(2H)-diylidene)bis(9H-fluorene)
_symmetry_cell_setting           triclinic
_symmetry_space_group_name_H-M   'P -1'
_symmetry_Int_Tables_number      2
_space_group_name_Hall           '-P 1'
loop_
_symmetry_equiv_pos_site_id
_symmetry_equiv_pos_as_xyz
1 x,y,z
2 -x,-y,-z
_cell_length_a                   9.4703(13)
_cell_length_b                   12.0235(18)
_cell_length_c                   13.838(2)
_cell_angle_alpha                103.629(4)
_cell_angle_beta                 96.792(4)
_cell_angle_gamma                91.837(4)
_cell_volume                     1517.63
_exptl_crystal_colour            orange
_exptl_crystal_description       block
_cell_formula_units_Z            2
loop_
_atom_site_label
_atom_site_type_symbol
_atom_site_fract_x
_atom_site_fract_y
_atom_site_fract_z
C1 C 0.5035(2) 1.05355(19) 0.71728(16)
C2 C 0.5037(2) 0.87616(18) 0.77031(17)
C3 C 0.6091(2) 1.05885(19) 0.89521(17)
H1 H 0.6592 1.1335 0.9023
H2 H 0.6622 1.0166 0.9386
H3 H 0.5134 1.0703 0.9146
C4 C 0.4961(2) 1.16824(19) 0.72406(16)
C5 C 0.7422(2) 0.96438(19) 0.74678(17)
C6 C 0.4106(2) 0.96502(19) 0.64495(17)
C7 C 0.4990(2) 0.80578(19) 0.83440(17)
C8 C 0.3686(2) 0.73854(19) 0.84510(18)
C9 C 0.6055(2) 1.26508(19) 0.76100(16)
C10 C 0.3489(2) 0.9677(2) 0.54852(17)
H4 H 0.3497 1.0375 0.5276
C11 C 0.5506(3) 0.70799(19) 0.96232(17)
C12 C 0.5974(2) 0.99024(18) 0.78591(16)
C13 C 0.7518(2) 1.2675(2) 0.78942(18)
H5 H 0.7966 1.1989 0.7933
C14 C 0.4008(2) 0.68300(19) 0.92305(17)
C15 C 0.3634(2) 1.22362(19) 0.69470(17)
C16 C 0.2220(2) 1.1807(2) 0.66985(18)
H6 H 0.1987 1.1009 0.6592
C17 C 0.5443(2) 1.36805(19) 0.75156(17)
C18 C 0.8711(2) 1.0069(2) 0.8053(2)
H7 H 0.8711 1.0524 0.8715
C19 C 0.3928(2) 1.3429(2) 0.71447(17)
C20 C 0.4106(2) 0.86207(19) 0.67563(17)
C21 C 0.2268(2) 0.7383(2) 0.8040(2)
H8 H 0.2020 0.7782 0.7533
C22 C 0.6246(3) 1.4715(2) 0.77485(19)
H9 H 0.5813 1.5404 0.7695
C23 C 0.3495(3) 0.7608(2) 0.60941(19)
H10 H 0.3504 0.6904 0.6293
C24 C 0.2957(3) 0.6234(2) 0.95629(19)
H11 H 0.3192 0.5850 1.0081
C25 C 0.1220(3) 0.6790(2) 0.8379(2)
H12 H 0.0254 0.6781 0.8095
C26 C 0.1465(3) 1.3729(2) 0.6776(2)
H13 H 0.0720 1.4224 0.6700
C27 C 0.8317(3) 1.3715(2) 0.81212(19)
H14 H 0.9314 1.3733 0.8322
C28 C 0.2858(3) 1.4176(2) 0.7054(2)
H15 H 0.3078 1.4978 0.7181
C29 C 0.6104(2) 0.78305(19) 0.91116(17)
C30 C 0.2871(3) 0.8681(2) 0.48429(18)
H16 H 0.2438 0.8694 0.4191
C31 C 0.7560(3) 0.8119(2) 0.93090(19)
H17 H 0.7996 0.8581 0.8944
C32 C 0.1152(3) 1.2558(2) 0.6608(2)
H18 H 0.0189 1.2263 0.6427
C33 C 0.7471(3) 0.8961(2) 0.65147(19)
H19 H 0.6608 0.8642 0.6107
C34 C 0.2878(3) 0.7648(2) 0.51453(19)
H20 H 0.2454 0.6966 0.4694
C35 C 0.6323(3) 0.6687(2) 1.03569(18)
H21 H 0.5904 0.6193 1.0703
C36 C 0.8374(3) 0.7719(2) 1.0051(2)
H22 H 0.9367 0.7926 1.0199
C37 C 0.8761(3) 0.8734(3) 0.6146(2)
H23 H 0.8772 0.8272 0.5488
C38 C 0.1561(3) 0.6211(2) 0.9124(2)
H24 H 0.0833 0.5796 0.9334
C39 C 1.0025(3) 0.9175(3) 0.6730(2)
H25 H 1.0906 0.9021 0.6477
C40 C 1.0002(3) 0.9836(2) 0.7678(2)
H26 H 1.0873 1.0139 0.8085
C41 C 0.7757(3) 0.7024(2) 1.0578(2)
H27 H 0.8324 0.6778 1.1093
C42 C 0.7691(3) 1.4724(2) 0.8061(2)
H28 H 0.8255 1.5427 0.8234
loop_
_geom_bond_atom_site_label_1
_geom_bond_atom_site_label_2
_geom_bond_site_symmetry_1
_geom_bond_site_symmetry_2
C1 C4 1_555 1_555
C2 C7 1_555 1_555
C3 H1 1_555 1_555
H2 C3 1_555 1_555
H3 C3 1_555 1_555
C4 C9 1_555 1_555
C5 C12 1_555 1_555
C6 C1 1_555 1_555
C7 C8 1_555 1_555
C8 C14 1_555 1_555
C9 C13 1_555 1_555
C10 C6 1_555 1_555
H4 C10 1_555 1_555
C11 C14 1_555 1_555
C12 C1 1_555 1_555
C13 H5 1_555 1_555
C14 C24 1_555 1_555
C15 C4 1_555 1_555
C16 C15 1_555 1_555
H6 C16 1_555 1_555
C17 C9 1_555 1_555
C18 C5 1_555 1_555
H7 C18 1_555 1_555
C19 C15 1_555 1_555
C20 C2 1_555 1_555
C21 C8 1_555 1_555
H8 C21 1_555 1_555
C22 C17 1_555 1_555
H9 C22 1_555 1_555
C23 C20 1_555 1_555
H10 C23 1_555 1_555
C24 H11 1_555 1_555
C25 C21 1_555 1_555
H12 C25 1_555 1_555
C26 H13 1_555 1_555
C27 C13 1_555 1_555
H14 C27 1_555 1_555
C28 C19 1_555 1_555
H15 C28 1_555 1_555
C29 C7 1_555 1_555
C30 C10 1_555 1_555
H16 C30 1_555 1_555
C31 C29 1_555 1_555
H17 C31 1_555 1_555
C32 C16 1_555 1_555
H18 C32 1_555 1_555
C33 C5 1_555 1_555
H19 C33 1_555 1_555
C34 C23 1_555 1_555
H20 C34 1_555 1_555
C35 C11 1_555 1_555
H21 C35 1_555 1_555
C36 C31 1_555 1_555
H22 C36 1_555 1_555
C37 C33 1_555 1_555
H23 C37 1_555 1_555
C38 C24 1_555 1_555
H24 C38 1_555 1_555
C39 C37 1_555 1_555
H25 C39 1_555 1_555
C40 C18 1_555 1_555
H26 C40 1_555 1_555
C41 C35 1_555 1_555
H27 C41 1_555 1_555
C42 C22 1_555 1_555
H28 C42 1_555 1_555
C2 C12 1_555 1_555
C3 C12 1_555 1_555
C6 C20 1_555 1_555
C11 C29 1_555 1_555
C17 C19 1_555 1_555
C25 C38 1_555 1_555
C26 C28 1_555 1_555
C26 C32 1_555 1_555
C27 C42 1_555 1_555
C30 C34 1_555 1_555
C36 C41 1_555 1_555
C39 C40 1_555 1_555

#END
