
#######################################################################
#
#                 Cambridge Crystallographic Data Centre
#                                CCDC 
#
#######################################################################
#
# If this CIF has been generated from an entry in the Cambridge 
# Structural Database, then it will include bibliographic, chemical, 
# crystal, experimental, refinement or atomic coordinate data resulting 
# from the CCDC's data processing and validation procedures.
#
#######################################################################

data_KEBHIJ
_chemical_formula_moiety         'C35 H32 N4 O9'
_chemical_name_systematic        
(4S,5S)-1,3-Dibenzyl-4,5-bis((1R,1'R)-p-nitrobenzoyloxyethyl)imidazolidin-2-one
_symmetry_cell_setting           monoclinic
_symmetry_space_group_name_H-M   'P 21'
_symmetry_Int_Tables_number      4
_space_group_name_Hall           'P 2yb'
loop_
_symmetry_equiv_pos_site_id
_symmetry_equiv_pos_as_xyz
1 x,y,z
2 -x,1/2+y,-z
_cell_length_a                   10.5246(11)
_cell_length_b                   22.836(2)
_cell_length_c                   13.6412(14)
_cell_angle_alpha                90
_cell_angle_beta                 95.132(2)
_cell_angle_gamma                90
_cell_volume                     3265.38
_chemical_melting_point          '162-163 deg.C'
_cell_formula_units_Z            4
_exptl_crystal_recrystallization_method 'ethyl acetate/hexane'
loop_
_atom_site_label
_atom_site_type_symbol
_atom_site_fract_x
_atom_site_fract_y
_atom_site_fract_z
O1 O 0.3921(1) 1.0534(1) 0.0346(1)
O2 O 0.2647(1) 0.8754(1) -0.2149(1)
O3 O 0.2534(2) 0.7817(1) -0.1650(1)
O4 O 0.5083(2) 0.7859(1) -0.6400(2)
O5 O 0.4992(2) 0.6961(1) -0.5946(2)
O6 O 0.2628(2) 0.8531(1) 0.2048(1)
O7 O 0.2393(2) 0.7566(1) 0.1815(1)
O8 O -0.0047(2) 0.8356(1) 0.6427(1)
O9 O 0.0066(2) 0.7417(1) 0.6381(1)
N1 N 0.3742(2) 0.9683(1) -0.0553(1)
N2 N 0.3115(2) 0.9679(1) 0.0982(1)
N3 N 0.4835(2) 0.7481(1) -0.5821(2)
N4 N 0.0172(2) 0.7901(1) 0.6012(2)
C1 C 0.3628(2) 1.0017(1) 0.0259(2)
C2 C 0.3210(2) 0.9098(1) -0.0476(2)
C3 C 0.2757(2) 0.9100(1) 0.0577(2)
C4 C 0.4230(2) 0.9921(1) -0.1434(2)
C5 C 0.5442(2) 0.9639(1) -0.1728(2)
C6 C 0.5658(3) 0.9625(1) -0.2709(2)
C7 C 0.6763(3) 0.9382(2) -0.3016(3)
C8 C 0.7662(3) 0.9149(2) -0.2337(3)
C9 C 0.7473(3) 0.9172(1) -0.1364(3)
C10 C 0.6359(2) 0.9412(1) -0.1053(2)
C11 C 0.2242(2) 0.9987(1) 0.1590(2)
C12 C 0.2439(2) 0.9910(1) 0.2698(2)
C13 C 0.3592(2) 0.9784(1) 0.3210(2)
C14 C 0.3700(3) 0.9779(1) 0.4242(2)
C15 C 0.2648(3) 0.9895(1) 0.4755(2)
C16 C 0.1495(3) 1.0009(1) 0.4241(2)
C17 C 0.1387(3) 1.0017(1) 0.3223(2)
C18 C 0.2112(2) 0.8944(1) -0.1240(2)
C19 C 0.1180(2) 0.9435(1) -0.1508(2)
C20 C 0.2792(2) 0.8174(1) -0.2249(2)
C21 C 0.3329(2) 0.8012(1) -0.3189(2)
C22 C 0.3764(2) 0.8427(1) -0.3821(2)
C23 C 0.4269(2) 0.8258(1) -0.4685(2)
C24 C 0.4324(2) 0.7671(1) -0.4893(2)
C25 C 0.3904(2) 0.7247(1) -0.4274(2)
C26 C 0.3401(2) 0.7421(1) -0.3421(2)
C27 C 0.3314(2) 0.8582(1) 0.1162(2)
C28 C 0.4730(2) 0.8615(1) 0.1467(2)
C29 C 0.2264(2) 0.7997(1) 0.2299(2)
C30 C 0.1659(2) 0.7991(1) 0.3251(2)
C31 C 0.1304(2) 0.7452(1) 0.3613(2)
C32 C 0.0791(2) 0.7419(1) 0.4515(2)
C33 C 0.0642(2) 0.7933(1) 0.5020(2)
C34 C 0.0949(2) 0.8472(1) 0.4664(2)
C35 C 0.1478(2) 0.8500(1) 0.3768(2)
O10 O 0.0536(2) 0.5220(1) 0.9604(1)
O11 O -0.0382(1) 0.7503(1) 1.0560(1)
O12 O -0.0073(2) 0.8428(1) 1.0050(1)
O13 O -0.2502(4) 0.8589(1) 1.4802(2)
O14 O -0.3367(3) 0.9310(1) 1.3989(2)
O17 O 0.4339(1) 0.6775(1) 0.9377(1)
O18 O 0.5087(2) 0.7682(1) 0.9742(1)
O19 O 0.8074(2) 0.6459(1) 0.5599(1)
O20 O 0.7575(2) 0.7354(1) 0.5195(1)
N5 N 0.0208(2) 0.6190(1) 0.9998(1)
N6 N 0.2104(2) 0.5928(1) 0.9545(1)
N7 N -0.2674(2) 0.8885(1) 1.4061(2)
N8 N 0.7608(2) 0.6938(1) 0.5763(2)
C36 C 0.0910(2) 0.5728(1) 0.9708(2)
C37 C 0.0993(2) 0.6718(1) 1.0164(2)
C38 C 0.2175(2) 0.6565(1) 0.9615(2)
C39 C -0.0956(2) 0.6099(1) 1.0479(2)
C40 C -0.0772(2) 0.6058(1) 1.1594(2)
C41 C 0.0297(3) 0.5805(1) 1.2074(2)
C42 C 0.0417(3) 0.5751(1) 1.3090(2)
C43 C -0.0547(4) 0.5951(1) 1.3627(2)
C44 C -0.1628(3) 0.6203(1) 1.3158(2)
C45 C -0.1737(3) 0.6253(1) 1.2142(2)
C46 C 0.2885(2) 0.5594(1) 0.8911(2)
C47 C 0.2639(2) 0.5727(1) 0.7828(2)
C48 C 0.1460(2) 0.5925(1) 0.7408(2)
C49 C 0.1251(2) 0.6017(1) 0.6401(2)
C50 C 0.2216(3) 0.5909(1) 0.5797(2)
C51 C 0.3393(3) 0.5712(1) 0.6203(2)
C52 C 0.3597(2) 0.5627(1) 0.7212(2)
C53 C 0.0386(2) 0.7289(1) 0.9780(2)
C54 C -0.0432(2) 0.7247(1) 0.8813(2)
C55 C -0.0484(2) 0.8089(1) 1.0626(2)
C56 C -0.1118(2) 0.8282(1) 1.1506(2)
C57 C -0.1456(2) 0.7886(1) 1.2214(2)
C58 C -0.1966(2) 0.8084(1) 1.3055(2)
C59 C -0.2143(2) 0.8676(1) 1.3156(2)
C60 C -0.1840(2) 0.9077(1) 1.2465(2)
C61 C -0.1305(2) 0.8880(1) 1.1634(2)
C62 C 0.3421(2) 0.6805(1) 1.0122(2)
C63 C 0.3943(2) 0.6479(1) 1.1029(2)
C64 C 0.5068(2) 0.7244(1) 0.9252(2)
C65 C 0.5835(2) 0.7154(1) 0.8389(2)
C66 C 0.6250(2) 0.7646(1) 0.7898(2)
C67 C 0.6838(2) 0.7581(1) 0.7042(2)
C68 C 0.7036(2) 0.7019(1) 0.6708(2)
C69 C 0.6698(2) 0.6523(1) 0.7201(2)
C70 C 0.6078(2) 0.6595(1) 0.8045(2)
O15? O -0.3153(15) 0.8661(7) 1.4596(13)
O16? O -0.2111(12) 0.9460(5) 1.4389(9)
loop_
_geom_bond_atom_site_label_1
_geom_bond_atom_site_label_2
_geom_bond_site_symmetry_1
_geom_bond_site_symmetry_2
O1 C1 1_555 1_555
O2 C18 1_555 1_555
O3 C20 1_555 1_555
O4 N3 1_555 1_555
O5 N3 1_555 1_555
O6 C27 1_555 1_555
O7 C29 1_555 1_555
O8 N4 1_555 1_555
O9 N4 1_555 1_555
N1 C1 1_555 1_555
N2 C1 1_555 1_555
N3 C24 1_555 1_555
N4 C33 1_555 1_555
C2 N1 1_555 1_555
C3 N2 1_555 1_555
C4 N1 1_555 1_555
C5 C4 1_555 1_555
C6 C5 1_555 1_555
C7 C6 1_555 1_555
C8 C7 1_555 1_555
C9 C8 1_555 1_555
C10 C5 1_555 1_555
C11 N2 1_555 1_555
C12 C11 1_555 1_555
C13 C12 1_555 1_555
C14 C13 1_555 1_555
C15 C14 1_555 1_555
C16 C15 1_555 1_555
C17 C12 1_555 1_555
C18 C2 1_555 1_555
C19 C18 1_555 1_555
C20 O2 1_555 1_555
C21 C20 1_555 1_555
C22 C21 1_555 1_555
C23 C22 1_555 1_555
C24 C23 1_555 1_555
C25 C24 1_555 1_555
C26 C21 1_555 1_555
C27 C3 1_555 1_555
C28 C27 1_555 1_555
C29 O6 1_555 1_555
C30 C29 1_555 1_555
C31 C30 1_555 1_555
C32 C31 1_555 1_555
C33 C32 1_555 1_555
C34 C33 1_555 1_555
C35 C30 1_555 1_555
O10 C36 1_555 1_555
O11 C53 1_555 1_555
O12 C55 1_555 1_555
O13 N7 1_555 1_555
O14 N7 1_555 1_555
O17 C62 1_555 1_555
O18 C64 1_555 1_555
O19 N8 1_555 1_555
O20 N8 1_555 1_555
N5 C36 1_555 1_555
N6 C36 1_555 1_555
N7 C59 1_555 1_555
N8 C68 1_555 1_555
C37 N5 1_555 1_555
C38 N6 1_555 1_555
C39 N5 1_555 1_555
C40 C39 1_555 1_555
C41 C40 1_555 1_555
C42 C41 1_555 1_555
C43 C42 1_555 1_555
C44 C43 1_555 1_555
C45 C40 1_555 1_555
C46 N6 1_555 1_555
C47 C46 1_555 1_555
C48 C47 1_555 1_555
C49 C48 1_555 1_555
C50 C49 1_555 1_555
C51 C50 1_555 1_555
C52 C47 1_555 1_555
C53 C37 1_555 1_555
C54 C53 1_555 1_555
C55 O11 1_555 1_555
C56 C55 1_555 1_555
C57 C56 1_555 1_555
C58 C57 1_555 1_555
C59 C58 1_555 1_555
C60 C59 1_555 1_555
C61 C56 1_555 1_555
C62 C38 1_555 1_555
C63 C62 1_555 1_555
C64 O17 1_555 1_555
C65 C64 1_555 1_555
C66 C65 1_555 1_555
C67 C66 1_555 1_555
C68 C67 1_555 1_555
C69 C68 1_555 1_555
C70 C65 1_555 1_555
C2 C3 1_555 1_555
C9 C10 1_555 1_555
C16 C17 1_555 1_555
C25 C26 1_555 1_555
C34 C35 1_555 1_555
C37 C38 1_555 1_555
C44 C45 1_555 1_555
C51 C52 1_555 1_555
C60 C61 1_555 1_555
C69 C70 1_555 1_555

#END
