
#######################################################################
#
#                 Cambridge Crystallographic Data Centre
#                                CCDC 
#
#######################################################################
#
# If this CIF has been generated from an entry in the Cambridge 
# Structural Database, then it will include bibliographic, chemical, 
# crystal, experimental, refinement or atomic coordinate data resulting 
# from the CCDC's data processing and validation procedures.
#
#######################################################################

data_KEBQUE
_chemical_formula_moiety         'C24 H18 N8 O1,C3 H7 N1 O1'
_chemical_name_systematic        
'3,5-Dihydro-5-(4-methylphenyl)-3-phenyl-6-phenylamino-1,2,3-triazolo(4,5-d)-1,2,4-triazolo(1,5-a)pyrimidin-9-one dimethylformamide solvate'
_symmetry_cell_setting           monoclinic
_symmetry_space_group_name_H-M   'P 21/n'
_symmetry_Int_Tables_number      14
_space_group_name_Hall           '-P 2yn'
loop_
_symmetry_equiv_pos_site_id
_symmetry_equiv_pos_as_xyz
1 x,y,z
2 1/2-x,1/2+y,1/2-z
3 -x,-y,-z
4 1/2+x,1/2-y,1/2+z
_cell_length_a                   12.902(3)
_cell_length_b                   12.479(3)
_cell_length_c                   15.918(4)
_cell_angle_alpha                90
_cell_angle_beta                 100.206(4)
_cell_angle_gamma                90
_cell_volume                     2522.31
_exptl_crystal_colour            colorless
_exptl_crystal_description       block
_chemical_melting_point          'above 300deg.C'
_cell_formula_units_Z            4
loop_
_atom_site_label
_atom_site_type_symbol
_atom_site_fract_x
_atom_site_fract_y
_atom_site_fract_z
C1 C 0.58599(19) 0.15265(19) -0.01518(15)
C2 C 0.62775(19) 0.0592(2) -0.04239(15)
C3 C 0.65823(19) -0.0289(2) 0.01456(16)
C4 C 0.59346(19) 0.09615(19) 0.11423(15)
C5 C 0.6233(2) -0.0116(2) 0.22670(16)
C6 C 0.6371(2) -0.1468(2) 0.34117(16)
C7 C 0.6311(2) -0.2371(2) 0.28995(17)
H1 H 0.6236 -0.2297 0.2310
C8 C 0.6361(2) -0.3380(2) 0.32605(18)
H2 H 0.6312 -0.3982 0.2912
C9 C 0.6485(2) -0.3503(2) 0.41329(18)
H3 H 0.6512 -0.4184 0.4373
C10 C 0.6566(2) -0.2612(2) 0.46426(18)
H4 H 0.6662 -0.2691 0.5232
C11 C 0.6508(2) -0.1597(2) 0.42922(17)
H5 H 0.6559 -0.0998 0.4645
C12 C 0.5463(2) 0.17374(19) 0.24607(14)
C13 C 0.4414(2) 0.1761(2) 0.25103(17)
H6 H 0.3965 0.1220 0.2265
C14 C 0.4033(2) 0.2609(2) 0.29332(18)
H7 H 0.3323 0.2625 0.2975
C15 C 0.4683(2) 0.3429(2) 0.32927(16)
C16 C 0.5736(2) 0.3373(2) 0.32352(17)
H8 H 0.6188 0.3915 0.3476
C17 C 0.6134(2) 0.2530(2) 0.28269(17)
H9 H 0.6847 0.2499 0.2800
C18 C 0.4252(3) 0.4380(2) 0.3702(2)
H10 H 0.4588 0.4429 0.4290
H11 H 0.3506 0.4295 0.3671
H12 H 0.4386 0.5022 0.3408
C19 C 0.5292(2) 0.3241(2) -0.09438(15)
C20 C 0.4324(2) 0.3426(2) -0.07328(17)
H13 H 0.3956 0.2877 -0.0521
C21 C 0.3902(3) 0.4454(3) -0.08417(19)
H14 H 0.3246 0.4596 -0.0701
C22 C 0.4446(4) 0.5257(3) -0.1154(2)
H15 H 0.4159 0.5941 -0.1228
C23 C 0.5417(4) 0.5055(3) -0.1359(2)
H16 H 0.5786 0.5605 -0.1568
C24 C 0.5855(3) 0.4033(3) -0.12586(19)
H17 H 0.6510 0.3891 -0.1401
N1 N 0.57293(17) 0.21775(17) -0.08429(13)
N2 N 0.60598(19) 0.16621(19) -0.15137(14)
N3 N 0.63901(18) 0.07084(18) -0.12595(13)
N4 N 0.56676(16) 0.17801(16) 0.06380(12)
N5 N 0.63332(15) -0.00083(15) 0.09515(12)
N6 N 0.65351(17) -0.06886(16) 0.16637(13)
N7 N 0.58720(16) 0.08948(15) 0.19899(12)
N8 N 0.62484(18) -0.04137(17) 0.30827(13)
H25 H 0.6176 0.0087 0.3439
O1 O 0.69934(15) -0.11368(15) 0.00306(12)
C25 C 0.3661(3) 0.8333(3) 0.4990(2)
H18 H 0.3642 0.7679 0.5268
C26 C 0.3563(3) 0.7283(3) 0.3714(2)
H19 H 0.3606 0.6705 0.4117
H20 H 0.4144 0.7240 0.3413
H21 H 0.2913 0.7232 0.3314
C27 C 0.3639(3) 0.9287(3) 0.3695(2)
H22 H 0.2938 0.9563 0.3527
H23 H 0.3940 0.9147 0.3196
H24 H 0.4064 0.9803 0.4048
N9 N 0.36009(19) 0.83058(19) 0.41669(15)
O2 O 0.3741(3) 0.91349(19) 0.54306(15)
loop_
_geom_bond_atom_site_label_1
_geom_bond_atom_site_label_2
_geom_bond_site_symmetry_1
_geom_bond_site_symmetry_2
C1 C2 1_555 1_555
C2 C3 1_555 1_555
C3 N5 1_555 1_555
C4 N4 1_555 1_555
C5 N6 1_555 1_555
C6 C7 1_555 1_555
C7 H1 1_555 1_555
C8 C7 1_555 1_555
H2 C8 1_555 1_555
C9 C8 1_555 1_555
H3 C9 1_555 1_555
C10 C9 1_555 1_555
H4 C10 1_555 1_555
C11 C6 1_555 1_555
H5 C11 1_555 1_555
C12 C13 1_555 1_555
C13 H6 1_555 1_555
C14 C13 1_555 1_555
H7 C14 1_555 1_555
C15 C14 1_555 1_555
C16 C15 1_555 1_555
H8 C16 1_555 1_555
C17 C12 1_555 1_555
H9 C17 1_555 1_555
C18 C15 1_555 1_555
H10 C18 1_555 1_555
H11 C18 1_555 1_555
H12 C18 1_555 1_555
C19 C20 1_555 1_555
C20 H13 1_555 1_555
C21 C20 1_555 1_555
H14 C21 1_555 1_555
C22 C21 1_555 1_555
H15 C22 1_555 1_555
C23 C22 1_555 1_555
H16 C23 1_555 1_555
C24 C19 1_555 1_555
H17 C24 1_555 1_555
C25 H18 1_555 1_555
C26 H19 1_555 1_555
H20 C26 1_555 1_555
H21 C26 1_555 1_555
C27 H22 1_555 1_555
H23 C27 1_555 1_555
H24 C27 1_555 1_555
N1 C1 1_555 1_555
N2 N1 1_555 1_555
N3 C2 1_555 1_555
N4 C1 1_555 1_555
N5 C4 1_555 1_555
N6 N5 1_555 1_555
N7 C4 1_555 1_555
N8 C5 1_555 1_555
H25 N8 1_555 1_555
N9 C25 1_555 1_555
O1 C3 1_555 1_555
O2 C25 1_555 1_555
C5 N7 1_555 1_555
C6 N8 1_555 1_555
C10 C11 1_555 1_555
C12 N7 1_555 1_555
C16 C17 1_555 1_555
C19 N1 1_555 1_555
C23 C24 1_555 1_555
C26 N9 1_555 1_555
C27 N9 1_555 1_555
N2 N3 1_555 1_555

#END
