
#######################################################################
#
#                 Cambridge Crystallographic Data Centre
#                                CCDC 
#
#######################################################################
#
# If this CIF has been generated from an entry in the Cambridge 
# Structural Database, then it will include bibliographic, chemical, 
# crystal, experimental, refinement or atomic coordinate data resulting 
# from the CCDC's data processing and validation procedures.
#
#######################################################################

data_KECHOS
_chemical_formula_moiety         'C26 H22 Cl1 N1 O4'
_chemical_name_systematic        
"(1'S,2'S,3'S,4'R)-4''-chloro-3'-nitro-5'-phenyl-1',2',3',4'-tetrahydro-(1,1':2',1''-terphenyl)-4'-yl acetate"
_symmetry_cell_setting           monoclinic
_symmetry_space_group_name_H-M   'P 21'
_symmetry_Int_Tables_number      4
_space_group_name_Hall           'P 2yb'
loop_
_symmetry_equiv_pos_site_id
_symmetry_equiv_pos_as_xyz
1 x,y,z
2 -x,1/2+y,-z
_cell_length_a                   11.281(2)
_cell_length_b                   9.2626(13)
_cell_length_c                   12.156(2)
_cell_angle_alpha                90
_cell_angle_beta                 114.59(2)
_cell_angle_gamma                90
_cell_volume                     1155
_exptl_crystal_colour            colorless
_exptl_crystal_description       block
_cell_formula_units_Z            2
loop_
_atom_site_label
_atom_site_type_symbol
_atom_site_fract_x
_atom_site_fract_y
_atom_site_fract_z
Cl1 Cl -0.36438(14) -0.7694(2) 0.05567(12)
O1 O -1.0032(3) -0.7391(5) -0.4157(3)
O2 O -0.8868(4) -0.8985(4) -0.4546(3)
O3 O -0.9481(3) -0.7730(4) -0.7012(2)
O4 O -1.1362(3) -0.8432(4) -0.6939(3)
N1 N -0.9217(4) -0.7755(6) -0.4524(3)
C1 C -0.7213(4) -0.6899(5) -0.4720(4)
H1 H -0.7178 -0.7775 -0.5156
C2 C -0.6681(4) -0.5625(5) -0.5205(4)
H2 H -0.6396 -0.4883 -0.4573
C3 C -0.7658(5) -0.4928(6) -0.6326(4)
H3 H -0.7350 -0.4199 -0.6665
C4 C -0.8919(5) -0.5241(5) -0.6888(4)
C5 C -0.9471(5) -0.6402(5) -0.6365(4)
H4 H -1.0364 -0.6149 -0.6497
C6 C -0.8630(4) -0.6573(5) -0.5012(4)
H5 H -0.8664 -0.5665 -0.4613
C7 C -0.6389(4) -0.7135(5) -0.3388(4)
C8 C -0.5575(5) -0.8301(6) -0.2992(4)
H6 H -0.5586 -0.8990 -0.3553
C9 C -0.4739(5) -0.8493(6) -0.1796(5)
H7 H -0.4196 -0.9296 -0.1556
C10 C -0.4717(5) -0.7490(7) -0.0967(4)
C11 C -0.5513(5) -0.6308(7) -0.1305(5)
H8 H -0.5500 -0.5634 -0.0733
C12 C -0.6349(5) -0.6130(6) -0.2527(4)
H9 H -0.6887 -0.5324 -0.2766
C13 C -0.5484(4) -0.6092(6) -0.5379(4)
C14 C -0.5596(5) -0.6789(6) -0.6411(5)
H10 H -0.6425 -0.6991 -0.7001
C15 C -0.4526(6) -0.7204(7) -0.6610(6)
H11 H -0.4635 -0.7675 -0.7321
C16 C -0.3297(6) -0.6912(7) -0.5742(7)
H12 H -0.2566 -0.7160 -0.5871
C17 C -0.3157(5) -0.6255(8) -0.4692(7)
H13 H -0.2325 -0.6089 -0.4094
C18 C -0.4233(5) -0.5830(6) -0.4500(5)
H14 H -0.4120 -0.5368 -0.3784
C19 C -0.9815(5) -0.4500(6) -0.8021(4)
C20 C -0.9340(6) -0.3625(7) -0.8671(5)
H15 H -0.8443 -0.3522 -0.8410
C21 C -1.0165(8) -0.2903(9) -0.9696(6)
H16 H -0.9814 -0.2302 -1.0098
C22 C -1.1469(9) -0.3049(9) -1.0129(6)
H17 H -1.2020 -0.2567 -1.0826
C23 C -1.1951(7) -0.3915(10) -0.9522(7)
H18 H -1.2850 -0.4028 -0.9811
C24 C -1.1139(6) -0.4652(8) -0.8466(6)
H19 H -1.1501 -0.5244 -0.8069
C25 C -1.0502(5) -0.8642(6) -0.7252(4)
C26 C -1.0422(6) -0.9900(6) -0.7989(5)
H20 H -0.9696 -0.9773 -0.8197
H21 H -1.1213 -0.9964 -0.8714
H22 H -1.0306 -1.0772 -0.7527
loop_
_geom_bond_atom_site_label_1
_geom_bond_atom_site_label_2
_geom_bond_site_symmetry_1
_geom_bond_site_symmetry_2
Cl1 C10 1_555 1_555
O1 N1 1_555 1_555
O2 N1 1_555 1_555
O3 C5 1_555 1_555
O4 C25 1_555 1_555
N1 C6 1_555 1_555
C1 H1 1_555 1_555
C2 C1 1_555 1_555
H2 C2 1_555 1_555
C3 C2 1_555 1_555
H3 C3 1_555 1_555
C4 C3 1_555 1_555
C5 C4 1_555 1_555
H4 C5 1_555 1_555
C6 C1 1_555 1_555
H5 C6 1_555 1_555
C7 C1 1_555 1_555
C8 C7 1_555 1_555
H6 C8 1_555 1_555
C9 C8 1_555 1_555
H7 C9 1_555 1_555
C10 C9 1_555 1_555
C11 C10 1_555 1_555
H8 C11 1_555 1_555
C12 C7 1_555 1_555
H9 C12 1_555 1_555
C13 C2 1_555 1_555
C14 C13 1_555 1_555
H10 C14 1_555 1_555
C15 C14 1_555 1_555
H11 C15 1_555 1_555
C16 C15 1_555 1_555
H12 C16 1_555 1_555
C17 C16 1_555 1_555
H13 C17 1_555 1_555
C18 C13 1_555 1_555
H14 C18 1_555 1_555
C19 C4 1_555 1_555
C20 C19 1_555 1_555
H15 C20 1_555 1_555
C21 C20 1_555 1_555
H16 C21 1_555 1_555
C22 C21 1_555 1_555
H17 C22 1_555 1_555
C23 C22 1_555 1_555
H18 C23 1_555 1_555
C24 C19 1_555 1_555
H19 C24 1_555 1_555
C25 O3 1_555 1_555
C26 C25 1_555 1_555
H20 C26 1_555 1_555
H21 C26 1_555 1_555
H22 C26 1_555 1_555
C5 C6 1_555 1_555
C11 C12 1_555 1_555
C17 C18 1_555 1_555
C23 C24 1_555 1_555

#END
