
#######################################################################
#
#                 Cambridge Crystallographic Data Centre
#                                CCDC 
#
#######################################################################
#
# If this CIF has been generated from an entry in the Cambridge 
# Structural Database, then it will include bibliographic, chemical, 
# crystal, experimental, refinement or atomic coordinate data resulting 
# from the CCDC's data processing and validation procedures.
#
#######################################################################

data_KECJAE
_chemical_formula_moiety         'C18 H12 N4'
_chemical_name_systematic        2,7-bis(2-Pyridyl)-1,8-naphthyridine
_symmetry_cell_setting           monoclinic
_symmetry_space_group_name_H-M   'P 21/n'
_symmetry_Int_Tables_number      14
_space_group_name_Hall           '-P 2yn'
loop_
_symmetry_equiv_pos_site_id
_symmetry_equiv_pos_as_xyz
1 x,y,z
2 1/2-x,1/2+y,1/2-z
3 -x,-y,-z
4 1/2+x,1/2-y,1/2+z
_cell_length_a                   10.706(2)
_cell_length_b                   8.6905(17)
_cell_length_c                   15.208(3)
_cell_angle_alpha                90
_cell_angle_beta                 105.60(3)
_cell_angle_gamma                90
_cell_volume                     1362.84
_exptl_crystal_colour            colorless
_exptl_crystal_description       block
_chemical_melting_point          '224-225 deg.C'
_cell_formula_units_Z            4
_exptl_crystal_recrystallization_method dichloromethane/n-hexane
loop_
_atom_site_label
_atom_site_type_symbol
_atom_site_fract_x
_atom_site_fract_y
_atom_site_fract_z
N1 N 0.70597(10) 0.06895(12) 0.54885(7)
N2 N 0.83412(10) -0.09374(13) 0.49132(7)
N3 N 1.01295(11) -0.32513(13) 0.37158(7)
N4 N 0.49523(12) 0.34808(16) 0.60660(8)
C1 C 1.11679(15) -0.41797(17) 0.38997(11)
C2 C 1.19169(15) -0.45079(18) 0.47688(11)
C3 C 1.15782(14) -0.38232(18) 0.54875(11)
C4 C 1.05249(14) -0.28553(17) 0.53217(10)
C5 C 0.98137(13) -0.25997(15) 0.44261(9)
C6 C 0.86470(13) -0.15875(16) 0.42124(9)
C7 C 0.79229(15) -0.13460(18) 0.32956(10)
C8 C 0.68786(15) -0.03975(19) 0.31210(10)
C9 C 0.65349(13) 0.03426(16) 0.38439(9)
C10 C 0.54990(15) 0.13866(18) 0.37449(11)
C11 C 0.52730(14) 0.20577(18) 0.44938(10)
C12 C 0.60891(13) 0.16808(15) 0.53657(9)
C13 C 0.59094(13) 0.24487(15) 0.61939(10)
C14 C 0.67347(16) 0.21542(19) 0.70509(10)
C15 C 0.65731(16) 0.29620(19) 0.77924(11)
C16 C 0.56073(16) 0.40326(19) 0.76703(11)
C17 C 0.48241(18) 0.4242(2) 0.68034(12)
C18 C 0.72991(13) 0.00280(15) 0.47395(9)
H1 H 1.1391(13) -0.4718(17) 0.3361(10)
H2 H 1.2617(15) -0.5216(18) 0.4862(10)
H3 H 1.2073(15) -0.4028(17) 0.6096(10)
H4 H 1.0267(14) -0.2320(16) 0.5802(10)
H5 H 0.8173(14) -0.1904(16) 0.2793(11)
H6 H 0.6375(14) -0.0220(16) 0.2526(10)
H7 H 0.4976(14) 0.1637(16) 0.3143(10)
H8 H 0.4594(15) 0.2813(17) 0.4468(10)
H9 H 0.7417(15) 0.1378(19) 0.7126(10)
H10 H 0.7138(14) 0.2789(17) 0.8370(11)
H11 H 0.5457(14) 0.4597(17) 0.8184(11)
H12 H 0.4106(18) 0.502(2) 0.6669(12)
loop_
_geom_bond_atom_site_label_1
_geom_bond_atom_site_label_2
_geom_bond_site_symmetry_1
_geom_bond_site_symmetry_2
N1 C12 1_555 1_555
N2 C6 1_555 1_555
N3 C1 1_555 1_555
N4 C13 1_555 1_555
C1 C2 1_555 1_555
C2 C3 1_555 1_555
C3 C4 1_555 1_555
C4 C5 1_555 1_555
C5 N3 1_555 1_555
C6 C5 1_555 1_555
C7 C6 1_555 1_555
C8 C7 1_555 1_555
C9 C8 1_555 1_555
C10 C9 1_555 1_555
C11 C10 1_555 1_555
C12 C11 1_555 1_555
C13 C12 1_555 1_555
C14 C13 1_555 1_555
C15 C14 1_555 1_555
C16 C15 1_555 1_555
C17 N4 1_555 1_555
C18 N1 1_555 1_555
H1 C1 1_555 1_555
H2 C2 1_555 1_555
H3 C3 1_555 1_555
H4 C4 1_555 1_555
H5 C7 1_555 1_555
H6 C8 1_555 1_555
H7 C10 1_555 1_555
H8 C11 1_555 1_555
H9 C14 1_555 1_555
H10 C15 1_555 1_555
H11 C16 1_555 1_555
H12 C17 1_555 1_555
N2 C18 1_555 1_555
C9 C18 1_555 1_555
C16 C17 1_555 1_555

#END
