
#######################################################################
#
#                 Cambridge Crystallographic Data Centre
#                                CCDC 
#
#######################################################################
#
# If this CIF has been generated from an entry in the Cambridge 
# Structural Database, then it will include bibliographic, chemical, 
# crystal, experimental, refinement or atomic coordinate data resulting 
# from the CCDC's data processing and validation procedures.
#
#######################################################################

data_KEDGAD
_chemical_formula_moiety         'C23 H15 Br1 Cl1 N5 O2,2(C3 H7 N1 O1)'
_chemical_name_systematic        
'2,4-Diamino-5-(4-bromophenyl)-9-(4-chlorophenyl)-6-oxo-5,6,8,9-tetrahydrofuro[3,4-b][1,8]naphthyridine-3-carbonitrile dimethylformamide solvate'
_symmetry_cell_setting           triclinic
_symmetry_space_group_name_H-M   'P -1'
_symmetry_Int_Tables_number      2
_space_group_name_Hall           '-P 1'
loop_
_symmetry_equiv_pos_site_id
_symmetry_equiv_pos_as_xyz
1 x,y,z
2 -x,-y,-z
_cell_length_a                   10.1900(9)
_cell_length_b                   11.9520(11)
_cell_length_c                   14.0640(13)
_cell_angle_alpha                83.637(2)
_cell_angle_beta                 82.4320(10)
_cell_angle_gamma                68.6670(10)
_cell_volume                     1577.93
_exptl_crystal_colour            yellow
_exptl_crystal_description       block
_cell_formula_units_Z            2
loop_
_atom_site_label
_atom_site_type_symbol
_atom_site_fract_x
_atom_site_fract_y
_atom_site_fract_z
Br1 Br 0.2808(3) 0.5023(2) 0.95406(15)
Cl1 Cl 1.1500(4) 0.4001(5) 0.2250(4)
N1 N 0.6386(9) 0.7027(8) 0.4581(7)
N2 N 0.7546(9) 0.8091(8) 0.5187(6)
N3 N 0.8820(11) 0.9095(9) 0.5709(8)
H1 H 0.9540 0.8681 0.5345
H2 H 0.8891 0.9619 0.6052
N4 N 0.3925(10) 0.9918(8) 0.6967(7)
H3 H 0.3163 0.9760 0.6992
H4 H 0.3960 1.0448 0.7320
N5 N 0.6484(13) 1.1160(11) 0.7408(9)
O1 O 0.3484(8) 0.6293(8) 0.3880(6)
O2 O 0.1549(9) 0.7429(8) 0.4787(6)
C1 C 0.7541(13) 0.8918(11) 0.5743(9)
C2 C 0.6382(13) 0.9536(10) 0.6356(8)
C3 C 0.5072(12) 0.9333(10) 0.6370(8)
C4 C 0.5093(11) 0.8454(10) 0.5771(8)
C5 C 0.3709(12) 0.8119(11) 0.5836(8)
H5 H 0.2881 0.8861 0.5788
C6 C 0.3879(12) 0.7414(10) 0.4991(8)
C7 C 0.5139(12) 0.6870(11) 0.4458(9)
C8 C 0.6323(11) 0.7893(10) 0.5210(8)
C9 C 0.2859(13) 0.7107(11) 0.4616(9)
C10 C 0.4967(12) 0.6143(11) 0.3737(9)
H6 H 0.5215 0.6433 0.3092
H7 H 0.5556 0.5304 0.3840
C11 C 0.6420(13) 1.0446(13) 0.6934(10)
C12 C 0.3508(12) 0.7411(11) 0.6753(8)
C13 C 0.4649(13) 0.6632(11) 0.7245(9)
H8 H 0.5560 0.6609 0.7025
C14 C 0.4462(15) 0.5893(12) 0.8050(9)
H9 H 0.5236 0.5345 0.8339
C15 C 0.3070(17) 0.5996(13) 0.8417(10)
C16 C 0.1912(17) 0.6737(13) 0.7961(10)
H10 H 0.1004 0.6761 0.8187
C17 C 0.2146(13) 0.7461(12) 0.7138(9)
H11 H 0.1369 0.7990 0.6841
C18 C 0.7686(12) 0.6329(11) 0.4025(9)
C19 C 0.8478(13) 0.5233(12) 0.4395(10)
H12 H 0.8224 0.4957 0.5010
C20 C 0.9656(13) 0.4529(12) 0.3861(11)
H13 H 1.0229 0.3788 0.4120
C21 C 0.9979(13) 0.4932(12) 0.2940(11)
C22 C 0.9183(14) 0.6001(13) 0.2556(11)
H14 H 0.9416 0.6261 0.1930
C23 C 0.7998(13) 0.6719(12) 0.3107(10)
H15 H 0.7425 0.7460 0.2849
N6 N 0.949(3) 0.143(3) 0.803(3)
O3 O 1.076(2) 0.032(2) 0.6889(16)
C24 C 0.989(3) 0.127(3) 0.713(3)
H16 H 0.9503 0.1880 0.6665
C25 C 0.841(3) 0.260(3) 0.832(2)
H17 H 0.8256 0.3171 0.7774
H18 H 0.8746 0.2895 0.8813
H19 H 0.7545 0.2481 0.8564
C26 C 1.004(3) 0.054(4) 0.882(3)
H20 H 0.9514 0.0003 0.8927
H21 H 0.9935 0.0940 0.9395
H22 H 1.1020 0.0085 0.8656
N7 N 0.377(2) 0.1596(15) 0.0144(13)
O4 O 0.3304(16) 0.1268(13) -0.1261(10)
C27 C 0.408(3) 0.154(2) -0.0799(18)
H23 H 0.4873 0.1693 -0.1104
C28 C 0.464(3) 0.190(2) 0.0747(16)
H24 H 0.4867 0.1312 0.1283
H25 H 0.4135 0.2681 0.0980
H26 H 0.5504 0.1899 0.0375
C29 C 0.247(3) 0.146(3) 0.0641(17)
H27 H 0.1664 0.2090 0.0408
H28 H 0.2463 0.1503 0.1319
H29 H 0.2447 0.0692 0.0521
loop_
_geom_bond_atom_site_label_1
_geom_bond_atom_site_label_2
_geom_bond_site_symmetry_1
_geom_bond_site_symmetry_2
Br1 C15 1_555 1_555
Cl1 C21 1_555 1_555
N1 C7 1_555 1_555
N2 C1 1_555 1_555
N3 H1 1_555 1_555
H2 N3 1_555 1_555
N4 H3 1_555 1_555
H4 N4 1_555 1_555
N5 C11 1_555 1_555
N6 C24 1_555 1_555
N7 C27 1_555 1_555
O1 C9 1_555 1_555
O2 C9 1_555 1_555
O3 C24 1_555 1_555
O4 C27 1_555 1_555
C1 N3 1_555 1_555
C2 C1 1_555 1_555
C3 N4 1_555 1_555
C4 C3 1_555 1_555
C5 C4 1_555 1_555
H5 C5 1_555 1_555
C6 C5 1_555 1_555
C7 C6 1_555 1_555
C8 N1 1_555 1_555
C9 C6 1_555 1_555
C10 O1 1_555 1_555
H6 C10 1_555 1_555
H7 C10 1_555 1_555
C11 C2 1_555 1_555
C12 C5 1_555 1_555
C13 C12 1_555 1_555
H8 C13 1_555 1_555
C14 C13 1_555 1_555
H9 C14 1_555 1_555
C15 C14 1_555 1_555
C16 C15 1_555 1_555
H10 C16 1_555 1_555
C17 C12 1_555 1_555
H11 C17 1_555 1_555
C18 N1 1_555 1_555
C19 C18 1_555 1_555
H12 C19 1_555 1_555
C20 C19 1_555 1_555
H13 C20 1_555 1_555
C21 C20 1_555 1_555
C22 C21 1_555 1_555
H14 C22 1_555 1_555
C23 C18 1_555 1_555
H15 C23 1_555 1_555
C24 H16 1_555 1_555
C25 N6 1_555 1_555
H17 C25 1_555 1_555
H18 C25 1_555 1_555
H19 C25 1_555 1_555
C26 N6 1_555 1_555
H20 C26 1_555 1_555
H21 C26 1_555 1_555
H22 C26 1_555 1_555
C27 H23 1_555 1_555
C28 N7 1_555 1_555
H24 C28 1_555 1_555
H25 C28 1_555 1_555
H26 C28 1_555 1_555
C29 N7 1_555 1_555
H27 C29 1_555 1_555
H28 C29 1_555 1_555
H29 C29 1_555 1_555
N2 C8 1_555 1_555
C2 C3 1_555 1_555
C4 C8 1_555 1_555
C7 C10 1_555 1_555
C16 C17 1_555 1_555
C22 C23 1_555 1_555

#END
