
#######################################################################
#
#                 Cambridge Crystallographic Data Centre
#                                CCDC 
#
#######################################################################
#
# If this CIF has been generated from an entry in the Cambridge 
# Structural Database, then it will include bibliographic, chemical, 
# crystal, experimental, refinement or atomic coordinate data resulting 
# from the CCDC's data processing and validation procedures.
#
#######################################################################

data_KEDHEJ
_chemical_formula_moiety         'C45 H53 N1 O2 S2'
_chemical_name_systematic        
1-(4-methyl-2,6-bis(octyloxy)phenyl)-3,10-bis(methylsulfanyl)-1H-phenanthro[1,10,9,8-cdefg]carbazole
_symmetry_cell_setting           monoclinic
_symmetry_space_group_name_H-M   'P 21/c'
_symmetry_Int_Tables_number      14
_space_group_name_Hall           '-P 2ybc'
loop_
_symmetry_equiv_pos_site_id
_symmetry_equiv_pos_as_xyz
1 x,y,z
2 -x,1/2+y,1/2-z
3 -x,-y,-z
4 x,1/2-y,1/2+z
_cell_length_a                   27.1864(9)
_cell_length_b                   16.5974(6)
_cell_length_c                   17.5663(6)
_cell_angle_alpha                90
_cell_angle_beta                 106.1760(10)
_cell_angle_gamma                90
_cell_volume                     7612.53
_exptl_crystal_colour            yellow
_exptl_crystal_description       parallelepiped
_cell_formula_units_Z            8
loop_
_atom_site_label
_atom_site_type_symbol
_atom_site_fract_x
_atom_site_fract_y
_atom_site_fract_z
S1 S 0.80218(2) 0.22656(3) 0.42538(2)
S2 S 1.18956(2) 0.13106(2) 0.62897(2)
O1 O 0.97837(4) 0.30836(6) 0.32616(6)
O2 O 1.05393(4) 0.36815(6) 0.59332(6)
N1 N 1.00663(5) 0.26179(7) 0.48158(7)
C1 C 0.95792(6) 0.22971(9) 0.47852(9)
C2 C 0.90630(6) 0.25388(9) 0.44766(9)
H1 H 0.8978 0.3035 0.4202
C3 C 0.86825(6) 0.20235(9) 0.45884(9)
C4 C 0.87884(6) 0.12498(9) 0.49968(9)
C5 C 0.84252(6) 0.06926(10) 0.51199(9)
H2 H 0.8069 0.0808 0.4936
C6 C 0.85928(7) -0.00236(10) 0.55103(9)
H3 H 0.8344 -0.0396 0.5581
C7 C 0.91134(7) -0.02265(10) 0.58081(9)
H4 H 0.9208 -0.0728 0.6069
C8 C 0.94900(6) 0.03003(9) 0.57230(9)
C9 C 1.00556(6) 0.01634(9) 0.60296(9)
C10 C 1.02890(7) -0.05028(9) 0.64623(9)
H5 H 1.0084 -0.0923 0.6579
C11 C 1.08247(7) -0.05581(10) 0.67282(10)
H6 H 1.0972 -0.1020 0.7024
C12 C 1.11493(6) 0.00297(10) 0.65799(9)
H7 H 1.1510 -0.0033 0.6774
C13 C 1.09404(6) 0.07199(9) 0.61401(9)
C14 C 1.12214(6) 0.13917(9) 0.59244(9)
C15 C 1.09862(6) 0.20519(9) 0.54814(9)
H8 H 1.1183 0.2474 0.5347
C16 C 1.04435(6) 0.20724(9) 0.52374(9)
C17 C 1.01879(6) 0.14327(9) 0.54479(9)
C18 C 1.03989(6) 0.07587(9) 0.58809(9)
C19 C 0.93081(6) 0.10299(9) 0.52998(9)
C20 C 0.96666(6) 0.15670(9) 0.51746(8)
C21 C 1.01764(6) 0.34069(9) 0.45901(9)
C22 C 1.00470(6) 0.36385(9) 0.37894(9)
C23 C 1.01907(6) 0.43983(9) 0.35836(9)
H9 H 1.0109 0.4552 0.3042
C24 C 1.04520(6) 0.49303(9) 0.41661(10)
C25 C 1.05736(6) 0.47083(9) 0.49602(9)
H10 H 1.0749 0.5075 0.5359
C26 C 1.04382(6) 0.39492(9) 0.51714(9)
C27 C 0.96685(7) 0.32862(10) 0.24316(9)
H11 H 0.9988 0.3316 0.2267
H12 H 0.9494 0.3815 0.2331
C28 C 0.93245(7) 0.26351(10) 0.19761(9)
H13 H 0.9487 0.2106 0.2141
H14 H 0.9293 0.2704 0.1405
C29 C 0.87881(6) 0.26304(10) 0.20929(10)
H15 H 0.8808 0.2420 0.2628
H16 H 0.8658 0.3190 0.2062
C30 C 0.84156(7) 0.21179(11) 0.14747(10)
H17 H 0.8565 0.1574 0.1475
H18 H 0.8379 0.2358 0.0946
C31 C 0.78838(7) 0.20296(11) 0.15945(10)
H19 H 0.7782 0.2551 0.1779
H20 H 0.7636 0.1903 0.1078
C32 C 0.78534(6) 0.13774(11) 0.21886(10)
H21 H 0.7956 0.0857 0.2004
H22 H 0.8102 0.1505 0.2704
C33 C 0.73257(7) 0.12830(12) 0.23127(11)
H23 H 0.7071 0.1203 0.1792
H24 H 0.7235 0.1785 0.2547
C34 C 0.72944(8) 0.05791(14) 0.28503(13)
H25 H 0.7365 0.0076 0.2608
H26 H 0.6950 0.0555 0.2924
H27 H 0.7547 0.0652 0.3366
C35 C 1.08643(6) 0.41631(9) 0.65483(9)
H28 H 1.0723 0.4714 0.6536
H29 H 1.1212 0.4200 0.6474
C36 C 1.08878(6) 0.37609(10) 0.73301(9)
H30 H 1.0540 0.3759 0.7405
H31 H 1.1112 0.4084 0.7764
C37 C 1.10876(7) 0.29002(10) 0.73937(10)
H32 H 1.1410 0.2889 0.7236
H33 H 1.0835 0.2558 0.7017
C38 C 1.11882(7) 0.25446(10) 0.82222(10)
H34 H 1.0868 0.2564 0.8387
H35 H 1.1448 0.2877 0.8599
C39 C 1.13766(7) 0.16747(10) 0.82635(10)
H36 H 1.1099 0.1333 0.7934
H37 H 1.1670 0.1647 0.8034
C40 C 1.15409(6) 0.13339(11) 0.90992(10)
H38 H 1.1247 0.1360 0.9329
H39 H 1.1818 0.1675 0.9429
C41 C 1.17288(7) 0.04663(12) 0.91359(11)
H40 H 1.1453 0.0126 0.8803
H41 H 1.2024 0.0440 0.8910
C42 C 1.18897(8) 0.01246(17) 0.99733(13)
H42 H 1.2161 0.0461 1.0308
H43 H 1.2017 -0.0426 0.9960
H44 H 1.1595 0.0119 1.0191
C43 C 0.80076(7) 0.31763(11) 0.36973(11)
H45 H 0.8187 0.3604 0.4052
H46 H 0.7651 0.3337 0.3456
H47 H 0.8177 0.3085 0.3280
C44 C 1.21231(7) 0.22192(11) 0.59535(12)
H48 H 1.2004 0.2243 0.5374
H49 H 1.2498 0.2226 0.6126
H50 H 1.1991 0.2685 0.6177
C45 C 1.05950(7) 0.57562(9) 0.39383(11)
H51 H 1.0327 0.6142 0.3961
H52 H 1.0631 0.5740 0.3399
H53 H 1.0920 0.5923 0.4307
S3 S 0.65811(2) 0.08840(3) 0.60833(2)
S4 S 0.28716(2) 0.29030(3) 0.42967(3)
O3 O 0.54451(4) 0.37577(6) 0.58002(6)
O4 O 0.46849(4) 0.29649(6) 0.31935(6)
N2 N 0.49087(5) 0.26758(7) 0.47771(7)
C46 C 0.52309(6) 0.20536(9) 0.51834(8)
C47 C 0.57612(6) 0.18748(9) 0.53743(9)
H54 H 0.5996 0.2235 0.5240
C48 C 0.59262(6) 0.11522(9) 0.57650(9)
C49 C 0.55810(7) 0.05636(9) 0.59636(9)
C50 C 0.57119(7) -0.02129(10) 0.62872(9)
H55 H 0.6058 -0.0388 0.6427
C51 C 0.53323(8) -0.07161(10) 0.63988(10)
H56 H 0.5425 -0.1241 0.6605
C52 C 0.48160(8) -0.04864(10) 0.62216(9)
H57 H 0.4571 -0.0853 0.6316
C53 C 0.46582(7) 0.02717(9) 0.59085(9)
C54 C 0.41184(7) 0.05758(9) 0.56692(9)
C55 C 0.36949(7) 0.01765(10) 0.57839(10)
H58 H 0.3738 -0.0331 0.6044
C56 C 0.32044(7) 0.05175(11) 0.55187(10)
H59 H 0.2924 0.0230 0.5610
C57 C 0.31082(7) 0.12499(11) 0.51319(10)
H60 H 0.2768 0.1452 0.4955
C58 C 0.35210(6) 0.16969(10) 0.50013(9)
C59 C 0.34928(6) 0.24792(10) 0.46128(9)
C60 C 0.39182(6) 0.28764(9) 0.44986(9)
H61 H 0.3884 0.3385 0.4240
C61 C 0.44027(6) 0.25005(9) 0.47788(9)
C62 C 0.44196(6) 0.17765(9) 0.51666(9)
C63 C 0.40118(6) 0.13414(9) 0.52835(9)
C64 C 0.50580(6) 0.07737(9) 0.57840(9)
C65 C 0.49202(6) 0.15105(9) 0.54154(8)
C66 C 0.50777(6) 0.33938(8) 0.44861(9)
C67 C 0.53614(6) 0.39562(9) 0.50223(9)
C68 C 0.55300(6) 0.46627(9) 0.47527(9)
H62 H 0.5721 0.5045 0.5121
C69 C 0.54185(6) 0.48099(9) 0.39419(9)
C70 C 0.51378(6) 0.42514(9) 0.33993(9)
H63 H 0.5065 0.4352 0.2847
C71 C 0.49641(6) 0.35446(9) 0.36686(9)
C72 C 0.57899(6) 0.42541(10) 0.63810(9)
H64 H 0.5658 0.4812 0.6355
H65 H 0.6132 0.4266 0.6285
C73 C 0.58251(7) 0.38873(10) 0.71810(9)
H66 H 0.5484 0.3917 0.7280
H67 H 0.6066 0.4210 0.7595
C74 C 0.60034(7) 0.30118(10) 0.72559(9)
H68 H 0.5722 0.2668 0.6942
H69 H 0.6296 0.2958 0.7027
C75 C 0.61655(7) 0.27076(11) 0.81079(10)
H70 H 0.5868 0.2736 0.8329
H71 H 0.6436 0.3066 0.8429
C76 C 0.63667(7) 0.18449(10) 0.81798(10)
H72 H 0.6092 0.1484 0.7876
H73 H 0.6654 0.1812 0.7937
C77 C 0.65502(7) 0.15460(11) 0.90313(10)
H74 H 0.6825 0.1907 0.9335
H75 H 0.6263 0.1576 0.9274
C78 C 0.67519(7) 0.06869(11) 0.90988(11)
H76 H 0.7062 0.0670 0.8909
H77 H 0.6491 0.0335 0.8748
C79 C 0.68841(7) 0.03537(13) 0.99402(12)
H78 H 0.7166 0.0667 1.0281
H79 H 0.6988 -0.0211 0.9938
H80 H 0.6583 0.0391 1.0142
C80 C 0.44767(7) 0.31420(9) 0.23609(9)
H81 H 0.4755 0.3190 0.2100
H82 H 0.4282 0.3654 0.2288
C81 C 0.41272(7) 0.24448(9) 0.20143(9)
H83 H 0.4326 0.1938 0.2123
H84 H 0.4003 0.2512 0.1432
C82 C 0.36686(7) 0.23746(10) 0.23452(10)
H85 H 0.3443 0.2846 0.2166
H86 H 0.3792 0.2396 0.2931
C83 C 0.33517(6) 0.16080(10) 0.21033(10)
H87 H 0.3163 0.1642 0.1534
H88 H 0.3585 0.1139 0.2174
C84 C 0.29711(7) 0.14740(10) 0.25840(10)
H89 H 0.2729 0.1933 0.2492
H90 H 0.3160 0.1471 0.3154
C85 C 0.26647(7) 0.06945(10) 0.23892(10)
H91 H 0.2444 0.0722 0.1837
H92 H 0.2905 0.0239 0.2423
C86 C 0.23309(7) 0.05290(10) 0.29378(11)
H93 H 0.2081 0.0973 0.2888
H94 H 0.2549 0.0521 0.3493
C87 C 0.20415(7) -0.02670(11) 0.27575(12)
H95 H 0.1819 -0.0259 0.2212
H96 H 0.1833 -0.0342 0.3126
H97 H 0.2287 -0.0711 0.2818
C88 C 0.68702(7) 0.15378(12) 0.55177(12)
H98 H 0.6687 0.1490 0.4954
H99 H 0.7229 0.1384 0.5600
H100 H 0.6852 0.2096 0.5690
C89 C 0.29269(7) 0.36390(11) 0.35747(11)
H101 H 0.3131 0.4096 0.3844
H102 H 0.2585 0.3827 0.3282
H103 H 0.3095 0.3395 0.3205
C90 C 0.55922(6) 0.55886(9) 0.36615(10)
H104 H 0.5367 0.6027 0.3731
H105 H 0.5578 0.5542 0.3100
H106 H 0.5945 0.5704 0.3971
loop_
_geom_bond_atom_site_label_1
_geom_bond_atom_site_label_2
_geom_bond_site_symmetry_1
_geom_bond_site_symmetry_2
S1 C3 1_555 1_555
S2 C14 1_555 1_555
O1 C22 1_555 1_555
O2 C26 1_555 1_555
N1 C1 1_555 1_555
C1 C2 1_555 1_555
C2 H1 1_555 1_555
C3 C2 1_555 1_555
C4 C3 1_555 1_555
C5 C4 1_555 1_555
H2 C5 1_555 1_555
C6 C5 1_555 1_555
H3 C6 1_555 1_555
C7 C6 1_555 1_555
H4 C7 1_555 1_555
C8 C7 1_555 1_555
C9 C8 1_555 1_555
C10 C9 1_555 1_555
H5 C10 1_555 1_555
C11 C10 1_555 1_555
H6 C11 1_555 1_555
C12 C11 1_555 1_555
H7 C12 1_555 1_555
C13 C12 1_555 1_555
C14 C13 1_555 1_555
C15 C14 1_555 1_555
H8 C15 1_555 1_555
C16 N1 1_555 1_555
C17 C16 1_555 1_555
C18 C9 1_555 1_555
C19 C4 1_555 1_555
C20 C1 1_555 1_555
C21 N1 1_555 1_555
C22 C21 1_555 1_555
C23 C22 1_555 1_555
H9 C23 1_555 1_555
C24 C23 1_555 1_555
C25 C24 1_555 1_555
H10 C25 1_555 1_555
C26 C21 1_555 1_555
C27 O1 1_555 1_555
H11 C27 1_555 1_555
H12 C27 1_555 1_555
C28 C27 1_555 1_555
H13 C28 1_555 1_555
H14 C28 1_555 1_555
C29 C28 1_555 1_555
H15 C29 1_555 1_555
H16 C29 1_555 1_555
C30 C29 1_555 1_555
H17 C30 1_555 1_555
H18 C30 1_555 1_555
C31 C30 1_555 1_555
H19 C31 1_555 1_555
H20 C31 1_555 1_555
C32 C31 1_555 1_555
H21 C32 1_555 1_555
H22 C32 1_555 1_555
C33 C32 1_555 1_555
H23 C33 1_555 1_555
H24 C33 1_555 1_555
C34 C33 1_555 1_555
H25 C34 1_555 1_555
H26 C34 1_555 1_555
H27 C34 1_555 1_555
C35 O2 1_555 1_555
H28 C35 1_555 1_555
H29 C35 1_555 1_555
C36 C35 1_555 1_555
H30 C36 1_555 1_555
H31 C36 1_555 1_555
C37 C36 1_555 1_555
H32 C37 1_555 1_555
H33 C37 1_555 1_555
C38 C37 1_555 1_555
H34 C38 1_555 1_555
H35 C38 1_555 1_555
C39 C38 1_555 1_555
H36 C39 1_555 1_555
H37 C39 1_555 1_555
C40 C39 1_555 1_555
H38 C40 1_555 1_555
H39 C40 1_555 1_555
C41 C40 1_555 1_555
H40 C41 1_555 1_555
H41 C41 1_555 1_555
C42 C41 1_555 1_555
H42 C42 1_555 1_555
H43 C42 1_555 1_555
H44 C42 1_555 1_555
C43 S1 1_555 1_555
H45 C43 1_555 1_555
H46 C43 1_555 1_555
H47 C43 1_555 1_555
C44 S2 1_555 1_555
H48 C44 1_555 1_555
H49 C44 1_555 1_555
H50 C44 1_555 1_555
C45 C24 1_555 1_555
H51 C45 1_555 1_555
H52 C45 1_555 1_555
H53 C45 1_555 1_555
S3 C48 1_555 1_555
S4 C59 1_555 1_555
O3 C67 1_555 1_555
O4 C71 1_555 1_555
N2 C46 1_555 1_555
C46 C47 1_555 1_555
C47 H54 1_555 1_555
C48 C47 1_555 1_555
C49 C48 1_555 1_555
C50 C49 1_555 1_555
H55 C50 1_555 1_555
C51 C50 1_555 1_555
H56 C51 1_555 1_555
C52 C51 1_555 1_555
H57 C52 1_555 1_555
C53 C52 1_555 1_555
C54 C53 1_555 1_555
C55 C54 1_555 1_555
H58 C55 1_555 1_555
C56 C55 1_555 1_555
H59 C56 1_555 1_555
C57 C56 1_555 1_555
H60 C57 1_555 1_555
C58 C57 1_555 1_555
C59 C58 1_555 1_555
C60 C59 1_555 1_555
H61 C60 1_555 1_555
C61 N2 1_555 1_555
C62 C61 1_555 1_555
C63 C54 1_555 1_555
C64 C49 1_555 1_555
C65 C46 1_555 1_555
C66 N2 1_555 1_555
C67 C66 1_555 1_555
C68 C67 1_555 1_555
H62 C68 1_555 1_555
C69 C68 1_555 1_555
C70 C69 1_555 1_555
H63 C70 1_555 1_555
C71 C66 1_555 1_555
C72 O3 1_555 1_555
H64 C72 1_555 1_555
H65 C72 1_555 1_555
C73 C72 1_555 1_555
H66 C73 1_555 1_555
H67 C73 1_555 1_555
C74 C73 1_555 1_555
H68 C74 1_555 1_555
H69 C74 1_555 1_555
C75 C74 1_555 1_555
H70 C75 1_555 1_555
H71 C75 1_555 1_555
C76 C75 1_555 1_555
H72 C76 1_555 1_555
H73 C76 1_555 1_555
C77 C76 1_555 1_555
H74 C77 1_555 1_555
H75 C77 1_555 1_555
C78 C77 1_555 1_555
H76 C78 1_555 1_555
H77 C78 1_555 1_555
C79 C78 1_555 1_555
H78 C79 1_555 1_555
H79 C79 1_555 1_555
H80 C79 1_555 1_555
C80 O4 1_555 1_555
H81 C80 1_555 1_555
H82 C80 1_555 1_555
C81 C80 1_555 1_555
H83 C81 1_555 1_555
H84 C81 1_555 1_555
C82 C81 1_555 1_555
H85 C82 1_555 1_555
H86 C82 1_555 1_555
C83 C82 1_555 1_555
H87 C83 1_555 1_555
H88 C83 1_555 1_555
C84 C83 1_555 1_555
H89 C84 1_555 1_555
H90 C84 1_555 1_555
C85 C84 1_555 1_555
H91 C85 1_555 1_555
H92 C85 1_555 1_555
C86 C85 1_555 1_555
H93 C86 1_555 1_555
H94 C86 1_555 1_555
C87 C86 1_555 1_555
H95 C87 1_555 1_555
H96 C87 1_555 1_555
H97 C87 1_555 1_555
C88 S3 1_555 1_555
H98 C88 1_555 1_555
H99 C88 1_555 1_555
H100 C88 1_555 1_555
C89 S4 1_555 1_555
H101 C89 1_555 1_555
H102 C89 1_555 1_555
H103 C89 1_555 1_555
C90 C69 1_555 1_555
H104 C90 1_555 1_555
H105 C90 1_555 1_555
H106 C90 1_555 1_555
C8 C19 1_555 1_555
C13 C18 1_555 1_555
C15 C16 1_555 1_555
C17 C18 1_555 1_555
C17 C20 1_555 1_555
C19 C20 1_555 1_555
C25 C26 1_555 1_555
C53 C64 1_555 1_555
C58 C63 1_555 1_555
C60 C61 1_555 1_555
C62 C63 1_555 1_555
C62 C65 1_555 1_555
C64 C65 1_555 1_555
C70 C71 1_555 1_555

#END
