
#######################################################################
#
#                 Cambridge Crystallographic Data Centre
#                                CCDC 
#
#######################################################################
#
# If this CIF has been generated from an entry in the Cambridge 
# Structural Database, then it will include bibliographic, chemical, 
# crystal, experimental, refinement or atomic coordinate data resulting 
# from the CCDC's data processing and validation procedures.
#
#######################################################################

data_KEFZED
_chemical_formula_moiety         'C22 H22 Cl1 N1 O4'
_chemical_name_systematic        
'ethyl 1-benzyl-4-[(4-chlorophenyl)methyl]-2-hydroxy-2-methyl-5-oxo-2,5-dihydro-1H-pyrrole-3-carboxylate'
_symmetry_cell_setting           orthorhombic
_symmetry_space_group_name_H-M   'P 21 21 2'
_symmetry_Int_Tables_number      18
_space_group_name_Hall           'P 2 2ab'
loop_
_symmetry_equiv_pos_site_id
_symmetry_equiv_pos_as_xyz
1 x,y,z
2 1/2+x,1/2-y,-z
3 1/2-x,1/2+y,-z
4 -x,-y,z
_cell_length_a                   13.4035(11)
_cell_length_b                   28.882(2)
_cell_length_c                   5.1236(4)
_cell_angle_alpha                90
_cell_angle_beta                 90
_cell_angle_gamma                90
_cell_volume                     1983.45
_exptl_crystal_colour            colorless
_exptl_crystal_description       block
_cell_formula_units_Z            4
loop_
_atom_site_label
_atom_site_type_symbol
_atom_site_fract_x
_atom_site_fract_y
_atom_site_fract_z
H1 H -0.144(2) 0.7304(10) 0.633(6)
Cl1 Cl 0.29288(6) 0.48559(2) 0.32602(16)
O1 O 0.21329(11) 0.74320(6) 0.3028(3)
O2 O -0.06574(12) 0.63071(6) -0.0176(4)
O3 O -0.09034(14) 0.72115(6) 0.6221(3)
C1 C 0.07315(17) 0.69797(8) 0.1428(5)
C2 C 0.12352(17) 0.73453(8) 0.3026(5)
O4 O -0.19190(12) 0.67440(6) 0.1348(4)
C3 C -0.10408(18) 0.66792(8) 0.1025(5)
C4 C 0.13271(18) 0.66967(8) -0.0465(5)
H2 H 0.1886 0.6882 -0.1060
H3 H 0.0912 0.6632 -0.1972
N1 N 0.05173(14) 0.75579(7) 0.4437(4)
C5 C 0.05890(19) 0.84137(9) 0.5019(5)
C6 C 0.17286(18) 0.62405(9) 0.0573(5)
C7 C -0.02416(17) 0.69884(8) 0.1989(5)
C8 C 0.1673(2) 0.55871(9) 0.3513(6)
H4 H 0.1387 0.5439 0.4941
C9 C -0.11563(18) 0.77444(8) 0.2625(5)
H5 H -0.0857 0.7853 0.1037
H6 H -0.1236 0.7999 0.3811
H7 H -0.1797 0.7612 0.2248
C10 C -0.04872(17) 0.73782(8) 0.3866(4)
C11 C -0.1370(2) 0.59725(10) -0.1150(7)
H8 H -0.1730 0.6099 -0.2630
H9 H -0.1847 0.5893 0.0201
C12 C 0.2876(2) 0.55992(10) 0.0082(6)
H10 H 0.3397 0.5458 -0.0814
C13 C 0.0391(2) 0.92854(9) 0.2779(7)
H11 H 0.0328 0.9578 0.2034
C14 C 0.07100(19) 0.79383(8) 0.6242(5)
H12 H 0.1385 0.7909 0.6908
H13 H 0.0257 0.7913 0.7711
C15 C -0.0067(2) 0.87367(9) 0.6050(6)
H14 H -0.0451 0.8660 0.7499
C16 C 0.24488(19) 0.53858(9) 0.2190(5)
C17 C 0.11414(18) 0.85325(8) 0.2834(5)
H15 H 0.1586 0.8320 0.2125
C18 C 0.13200(19) 0.60138(9) 0.2697(5)
H16 H 0.0796 0.6151 0.3598
C19 C 0.10389(19) 0.89662(9) 0.1692(6)
H17 H 0.1403 0.9041 0.0207
C20 C 0.25209(19) 0.60289(10) -0.0701(6)
H18 H 0.2820 0.6178 -0.2107
C21 C -0.0157(2) 0.91737(10) 0.4942(6)
H19 H -0.0590 0.9390 0.5670
C22 C -0.0793(3) 0.55530(11) -0.1953(11)
H20 H -0.1244 0.5323 -0.2619
H21 H -0.0444 0.5430 -0.0471
H22 H -0.0323 0.5636 -0.3286
loop_
_geom_bond_atom_site_label_1
_geom_bond_atom_site_label_2
_geom_bond_site_symmetry_1
_geom_bond_site_symmetry_2
H1 O3 1_555 1_555
Cl1 C16 1_555 1_555
O1 C2 1_555 1_555
O2 C3 1_555 1_555
O3 C10 1_555 1_555
C1 C2 1_555 1_555
C2 N1 1_555 1_555
O4 C3 1_555 1_555
C3 C7 1_555 1_555
C4 C1 1_555 1_555
H2 C4 1_555 1_555
H3 C4 1_555 1_555
N1 C10 1_555 1_555
C5 C14 1_555 1_555
C6 C4 1_555 1_555
C7 C1 1_555 1_555
C8 H4 1_555 1_555
C9 H5 1_555 1_555
H6 C9 1_555 1_555
H7 C9 1_555 1_555
C10 C7 1_555 1_555
C11 O2 1_555 1_555
H8 C11 1_555 1_555
H9 C11 1_555 1_555
C12 H10 1_555 1_555
C13 H11 1_555 1_555
C14 N1 1_555 1_555
H12 C14 1_555 1_555
H13 C14 1_555 1_555
C15 C5 1_555 1_555
H14 C15 1_555 1_555
C16 C8 1_555 1_555
C17 C5 1_555 1_555
H15 C17 1_555 1_555
C18 C6 1_555 1_555
H16 C18 1_555 1_555
C19 C13 1_555 1_555
H17 C19 1_555 1_555
C20 C6 1_555 1_555
H18 C20 1_555 1_555
C21 C13 1_555 1_555
H19 C21 1_555 1_555
C22 C11 1_555 1_555
H20 C22 1_555 1_555
H21 C22 1_555 1_555
H22 C22 1_555 1_555
C8 C18 1_555 1_555
C9 C10 1_555 1_555
C12 C16 1_555 1_555
C12 C20 1_555 1_555
C15 C21 1_555 1_555
C17 C19 1_555 1_555

#END
