
#######################################################################
#
#                 Cambridge Crystallographic Data Centre
#                                CCDC 
#
#######################################################################
#
# If this CIF has been generated from an entry in the Cambridge 
# Structural Database, then it will include bibliographic, chemical, 
# crystal, experimental, refinement or atomic coordinate data resulting 
# from the CCDC's data processing and validation procedures.
#
#######################################################################

data_KEGCEG
_chemical_formula_moiety         'C16 H12 I2 O8,C2 H6 O1 S1,H2 O1'
_chemical_name_systematic        
'Ethane-1,2-diyl bis(2-iodinylbenzoate) dimethylsulfoxide solvate monohydrate'
_symmetry_cell_setting           triclinic
_symmetry_space_group_name_H-M   'P -1'
_symmetry_Int_Tables_number      2
_space_group_name_Hall           '-P 1'
loop_
_symmetry_equiv_pos_site_id
_symmetry_equiv_pos_as_xyz
1 x,y,z
2 -x,-y,-z
_cell_length_a                   8.385(5)
_cell_length_b                   12.554(7)
_cell_length_c                   13.003(6)
_cell_angle_alpha                61.31(3)
_cell_angle_beta                 71.80(4)
_cell_angle_gamma                73.44(4)
_cell_volume                     1125.57
_exptl_crystal_colour            colorless
_exptl_crystal_description       block
_cell_formula_units_Z            2
loop_
_atom_site_label
_atom_site_type_symbol
_atom_site_fract_x
_atom_site_fract_y
_atom_site_fract_z
C1 C 0.7394(5) 0.4825(4) 0.3840(4)
C2 C 0.8123(6) 0.5140(4) 0.4455(4)
H1 H 0.9060 0.4631 0.4779
C3 C 0.7432(6) 0.6233(4) 0.4581(4)
H2 H 0.7937 0.6468 0.4967
C4 C 0.6010(6) 0.6966(4) 0.4139(4)
H3 H 0.5556 0.7691 0.4230
C5 C 0.5244(6) 0.6623(4) 0.3552(4)
H4 H 0.4274 0.7114 0.3263
C6 C 0.5931(5) 0.5552(4) 0.3402(4)
C7 C 0.5116(5) 0.5108(4) 0.2840(4)
C8 C 0.2941(7) 0.5526(4) 0.1851(5)
H5 H 0.2775 0.4673 0.2315
H6 H 0.3633 0.5629 0.1066
C9 C 0.1262(7) 0.6364(4) 0.1737(5)
H7 H 0.0700 0.6220 0.1277
H8 H 0.0539 0.6190 0.2527
C10 C 0.1117(6) 0.8240(4) 0.1824(4)
C11 C 0.1552(6) 0.9506(4) 0.1142(4)
C12 C 0.2215(8) 1.0005(5) -0.0084(5)
H9 H 0.2397 0.9546 -0.0509
C13 C 0.2609(10) 1.1195(6) -0.0679(5)
H10 H 0.3089 1.1515 -0.1495
C14 C 0.2290(9) 1.1894(5) -0.0067(5)
H11 H 0.2544 1.2689 -0.0471
C15 C 0.1588(7) 1.1418(5) 0.1158(5)
H12 H 0.1363 1.1892 0.1575
C16 C 0.1229(6) 1.0232(4) 0.1746(4)
I1 I 0.86812(3) 0.32406(2) 0.35168(2)
I2 I 0.03282(4) 0.95196(2) 0.36527(3)
O1 O 1.0471(4) 0.3013(3) 0.4114(3)
O2 O 0.9468(5) 0.4061(4) 0.1925(3)
O3 O 0.5654(4) 0.4143(3) 0.2769(3)
O4 O 0.3754(4) 0.5872(3) 0.2456(3)
O5 O 0.1513(4) 0.7644(3) 0.1145(3)
O6 O 0.0506(5) 0.7816(3) 0.2882(3)
O7 O 0.2315(4) 0.8629(3) 0.4062(3)
O8 O 0.0305(6) 1.0943(3) 0.3693(3)
O9 O 0.7587(6) 0.5421(4) 0.9974(4)
H13 H 0.7429 0.5369 0.9383
H14 H 0.8295 0.4854 1.0370
S1 S 0.6223(4) 0.1513(3) 0.2875(3)
O10 O 0.7311(6) 0.0337(5) 0.2853(6)
C17 C 0.4217(13) 0.1269(12) 0.3602(12)
H15 H 0.4072 0.0491 0.3703
H16 H 0.3432 0.1914 0.3143
H17 H 0.4004 0.1265 0.4373
C18 C 0.5879(17) 0.2440(8) 0.1449(8)
H18 H 0.7013 0.2629 0.1166
H19 H 0.5117 0.3059 0.1679
H20 H 0.5529 0.2422 0.0822
S2? S 0.5837(10) 0.1022(7) 0.2670(6)
loop_
_geom_bond_atom_site_label_1
_geom_bond_atom_site_label_2
_geom_bond_site_symmetry_1
_geom_bond_site_symmetry_2
C1 C2 1_555 1_555
C2 H1 1_555 1_555
C3 C2 1_555 1_555
H2 C3 1_555 1_555
C4 C3 1_555 1_555
H3 C4 1_555 1_555
C5 C4 1_555 1_555
H4 C5 1_555 1_555
C6 C1 1_555 1_555
C7 C6 1_555 1_555
C8 H5 1_555 1_555
H6 C8 1_555 1_555
C9 C8 1_555 1_555
H7 C9 1_555 1_555
H8 C9 1_555 1_555
C10 C11 1_555 1_555
C11 C12 1_555 1_555
C12 H9 1_555 1_555
C13 C12 1_555 1_555
H10 C13 1_555 1_555
C14 C13 1_555 1_555
H11 C14 1_555 1_555
C15 C14 1_555 1_555
H12 C15 1_555 1_555
C16 C11 1_555 1_555
I1 C1 1_555 1_555
I2 C16 1_555 1_555
O1 I1 1_555 1_555
O2 I1 1_555 1_555
O3 C7 1_555 1_555
O4 C7 1_555 1_555
O5 C9 1_555 1_555
O6 C10 1_555 1_555
O7 I2 1_555 1_555
O8 I2 1_555 1_555
O9 H13 1_555 1_555
H14 O9 1_555 1_555
S1 O10 1_555 1_555
C17 S1 1_555 1_555
H15 C17 1_555 1_555
H16 C17 1_555 1_555
H17 C17 1_555 1_555
C18 S1 1_555 1_555
H18 C18 1_555 1_555
H19 C18 1_555 1_555
H20 C18 1_555 1_555
C5 C6 1_555 1_555
C8 O4 1_555 1_555
C10 O5 1_555 1_555
C15 C16 1_555 1_555

#END
