
#######################################################################
#
#                 Cambridge Crystallographic Data Centre
#                                CCDC 
#
#######################################################################
#
# If this CIF has been generated from an entry in the Cambridge 
# Structural Database, then it will include bibliographic, chemical, 
# crystal, experimental, refinement or atomic coordinate data resulting 
# from the CCDC's data processing and validation procedures.
#
#######################################################################

data_KEGMAN
_chemical_formula_moiety         'C21 H23 N1 O5 S1'
_chemical_name_systematic        
'ethyl 2-methyl-1-((4-methylphenyl)sulfonyl)-5-oxo-3-phenylprolinate'
_symmetry_cell_setting           orthorhombic
_symmetry_space_group_name_H-M   'P b c a'
_symmetry_Int_Tables_number      61
_space_group_name_Hall           '-P 2ac 2ab'
loop_
_symmetry_equiv_pos_site_id
_symmetry_equiv_pos_as_xyz
1 x,y,z
2 1/2-x,-y,1/2+z
3 1/2+x,1/2-y,-z
4 -x,1/2+y,1/2-z
5 -x,-y,-z
6 1/2+x,y,1/2-z
7 1/2-x,1/2+y,z
8 x,1/2-y,1/2+z
_cell_length_a                   20.6097(11)
_cell_length_b                   8.9853(4)
_cell_length_c                   21.9169(8)
_cell_angle_alpha                90
_cell_angle_beta                 90
_cell_angle_gamma                90
_cell_volume                     4058.67
_exptl_crystal_colour            colorless
_exptl_crystal_description       block
_chemical_melting_point          '433-434 K'
_cell_formula_units_Z            8
_exptl_crystal_recrystallization_method 'dichloromethane/petroleum ether'
loop_
_atom_site_label
_atom_site_type_symbol
_atom_site_fract_x
_atom_site_fract_y
_atom_site_fract_z
S1 S 0.13017(5) 0.33430(10) 0.46762(4)
O1 O -0.00227(12) 0.2404(3) 0.42724(10)
O2 O 0.15794(13) 0.1928(3) 0.64434(11)
O3 O 0.14016(12) 0.0340(3) 0.56751(10)
O4 O 0.18314(12) 0.3389(3) 0.50950(11)
O5 O 0.10477(14) 0.4701(3) 0.44361(12)
N1 N 0.07123(13) 0.2481(3) 0.50647(11)
C1 C -0.0698(2) 0.2639(5) 0.66255(17)
H1 H -0.0892 0.3191 0.6316
C2 C -0.0907(3) 0.2797(6) 0.7229(2)
H2 H -0.1237 0.3466 0.7319
C3 C -0.0632(3) 0.1980(6) 0.7689(2)
H3 H -0.0773 0.2093 0.8089
C4 C -0.0149(3) 0.1003(6) 0.75537(19)
H4 H 0.0042 0.0443 0.7862
C5 C 0.0056(2) 0.0847(5) 0.69614(17)
H5 H 0.0383 0.0164 0.6875
C6 C -0.02047(18) 0.1665(4) 0.64909(15)
C7 C 0.00745(16) 0.1499(4) 0.58562(13)
H6 H 0.0196 0.0451 0.5809
C8 C -0.03577(17) 0.1885(4) 0.53176(13)
H7 H -0.0628 0.1043 0.5207
H8 H -0.0636 0.2723 0.5415
C9 C 0.00932(17) 0.2272(4) 0.48093(15)
C10 C 0.07056(16) 0.2436(4) 0.57441(13)
C11 C 0.06755(19) 0.3998(4) 0.60185(15)
H9 H 0.1054 0.4549 0.5900
H10 H 0.0659 0.3928 0.6455
H11 H 0.0294 0.4500 0.5873
C12 C 0.12914(17) 0.1579(4) 0.59924(15)
C13 C 0.1894(2) -0.0666(5) 0.5923(2)
H12 H 0.2320 -0.0356 0.5785
H13 H 0.1888 -0.0617 0.6365
C14 C 0.1773(2) -0.2167(6) 0.5730(3)
H14 H 0.1851 -0.2249 0.5299
H15 H 0.1330 -0.2423 0.5815
H16 H 0.2056 -0.2832 0.5946
C15 C 0.15090(17) 0.2191(4) 0.40654(14)
C16 C 0.1260(2) 0.2470(5) 0.34912(16)
H17 H 0.0940 0.3188 0.3439
C17 C 0.1488(2) 0.1683(6) 0.29974(17)
H18 H 0.1315 0.1869 0.2613
C18 C 0.1963(2) 0.0630(6) 0.30602(18)
C19 C 0.2187(2) 0.0340(6) 0.3634(2)
H19 H 0.2497 -0.0401 0.3686
C20 C 0.1968(2) 0.1105(5) 0.41405(17)
H20 H 0.2131 0.0887 0.4526
C21 C 0.2233(3) -0.0176(7) 0.2506(2)
H21 H 0.1932 -0.0097 0.2174
H22 H 0.2300 -0.1206 0.2604
H23 H 0.2639 0.0266 0.2390
loop_
_geom_bond_atom_site_label_1
_geom_bond_atom_site_label_2
_geom_bond_site_symmetry_1
_geom_bond_site_symmetry_2
S1 O4 1_555 1_555
O1 C9 1_555 1_555
O2 C12 1_555 1_555
O3 C12 1_555 1_555
O5 S1 1_555 1_555
N1 S1 1_555 1_555
C1 H1 1_555 1_555
C2 C1 1_555 1_555
H2 C2 1_555 1_555
C3 C2 1_555 1_555
H3 C3 1_555 1_555
C4 C3 1_555 1_555
H4 C4 1_555 1_555
C5 C4 1_555 1_555
H5 C5 1_555 1_555
C6 C1 1_555 1_555
C7 C6 1_555 1_555
H6 C7 1_555 1_555
C8 C7 1_555 1_555
H7 C8 1_555 1_555
H8 C8 1_555 1_555
C9 N1 1_555 1_555
C10 N1 1_555 1_555
C11 C10 1_555 1_555
H9 C11 1_555 1_555
H10 C11 1_555 1_555
H11 C11 1_555 1_555
C12 C10 1_555 1_555
C13 O3 1_555 1_555
H12 C13 1_555 1_555
H13 C13 1_555 1_555
C14 C13 1_555 1_555
H14 C14 1_555 1_555
H15 C14 1_555 1_555
H16 C14 1_555 1_555
C15 S1 1_555 1_555
C16 C15 1_555 1_555
H17 C16 1_555 1_555
C17 C16 1_555 1_555
H18 C17 1_555 1_555
C18 C17 1_555 1_555
C19 C18 1_555 1_555
H19 C19 1_555 1_555
C20 C15 1_555 1_555
H20 C20 1_555 1_555
C21 C18 1_555 1_555
H21 C21 1_555 1_555
H22 C21 1_555 1_555
H23 C21 1_555 1_555
C5 C6 1_555 1_555
C7 C10 1_555 1_555
C8 C9 1_555 1_555
C19 C20 1_555 1_555

#END
