
#######################################################################
#
#                 Cambridge Crystallographic Data Centre
#                                CCDC 
#
#######################################################################
#
# If this CIF has been generated from an entry in the Cambridge 
# Structural Database, then it will include bibliographic, chemical, 
# crystal, experimental, refinement or atomic coordinate data resulting 
# from the CCDC's data processing and validation procedures.
#
#######################################################################

data_KEGNES
_chemical_formula_moiety         'C30 H36 O7'
_chemical_name_systematic        
'7-acetyl-3a-hydroxy-1,1,3,5-tetramethyl-1a-[(2-methylpropanoyl)oxy]-6-oxo-1a,2,3,3a,3b,6,6a,7,7a,7b-decahydro-1H-cyclopenta[a]cyclopropa[e]inden-2-yl benzoate'
_symmetry_cell_setting           orthorhombic
_symmetry_space_group_name_H-M   'P 21 21 21'
_symmetry_Int_Tables_number      19
_space_group_name_Hall           'P 2ac 2ab'
loop_
_symmetry_equiv_pos_site_id
_symmetry_equiv_pos_as_xyz
1 x,y,z
2 1/2+x,1/2-y,-z
3 -x,1/2+y,1/2-z
4 1/2-x,-y,1/2+z
_cell_length_a                   8.2009(4)
_cell_length_b                   17.7433(7)
_cell_length_c                   18.2546(7)
_cell_angle_alpha                90
_cell_angle_beta                 90
_cell_angle_gamma                90
_cell_volume                     2656.25
_exptl_crystal_colour            colorless
_exptl_crystal_description       needle
_cell_formula_units_Z            4
loop_
_atom_site_label
_atom_site_type_symbol
_atom_site_fract_x
_atom_site_fract_y
_atom_site_fract_z
O1 O -0.1276(10) 0.1735(4) 0.2135(3)
O2 O 0.3478(9) -0.0390(4) 0.0060(3)
O3 O 0.3086(11) -0.0485(4) -0.1158(3)
O4 O 0.1790(11) 0.3061(4) 0.2668(3)
O5 O -0.0051(10) -0.0063(4) -0.0326(3)
O6 O 0.0002(10) 0.1021(4) -0.0961(3)
O7 O 0.2132(10) 0.1918(4) -0.0084(3)
H1 H 0.1314 0.1679 -0.0234
C1 C -0.0880(13) 0.2290(6) 0.1800(5)
C2 C 0.0475(12) 0.2219(5) 0.1222(5)
H2 H 0.0012 0.2397 0.0746
C3 C 0.1161(13) 0.1443(5) 0.1094(4)
H3 H 0.1585 0.1255 0.1574
C4 C 0.2660(14) 0.1609(5) 0.0600(4)
C5 C 0.3669(13) 0.0905(5) 0.0486(4)
H4 H 0.3951 0.0686 0.0974
C6 C 0.2639(13) 0.0328(5) 0.0056(4)
H5 H 0.2631 0.0503 -0.0464
C7 C 0.3660(13) -0.0716(5) -0.0593(4)
C8 C 0.4735(13) -0.1406(5) -0.0550(5)
C9 C 0.5594(16) -0.1579(6) 0.0087(5)
H6 H 0.5510 -0.1264 0.0506
C10 C 0.6580(16) -0.2223(6) 0.0104(5)
H7 H 0.7185 -0.2342 0.0533
C11 C 0.6671(16) -0.2687(7) -0.0509(5)
H8 H 0.7337 -0.3125 -0.0496
C12 C 0.4864(14) -0.1841(6) -0.1159(5)
H9 H 0.4332 -0.1697 -0.1599
C13 C 0.5808(15) -0.2517(6) -0.1130(5)
H10 H 0.5838 -0.2847 -0.1540
C14 C 0.3490(14) 0.2279(6) 0.0996(5)
H11 H 0.4093 0.2612 0.0647
C15 C 0.2055(16) 0.2702(6) 0.1376(5)
H12 H 0.1934 0.3222 0.1171
C16 C 0.2511(14) 0.2735(6) 0.2189(5)
C17 C 0.4050(15) 0.2293(6) 0.2279(5)
C18 C 0.4551(15) 0.2045(6) 0.1643(5)
H13 H 0.5501 0.1744 0.1589
C19 C 0.4850(18) 0.2204(7) 0.3018(5)
H14 H 0.5924 0.1971 0.2956
H15 H 0.4169 0.1884 0.3330
H16 H 0.4976 0.2700 0.3246
C20 C -0.1675(15) 0.3038(6) 0.1882(5)
H17 H -0.2234 0.3171 0.1426
H18 H -0.0847 0.3419 0.1993
H19 H -0.2470 0.3017 0.2283
C21 C 0.0060(14) 0.0821(5) 0.0775(4)
H20 H -0.1053 0.0984 0.0618
C22 C 0.0894(14) 0.0258(6) 0.0282(4)
C23 C -0.0299(15) 0.0313(5) -0.0922(5)
C24 C -0.1053(17) -0.0126(7) -0.1538(5)
H21 H -0.0923 -0.0674 -0.1425
C25 C -0.013(2) 0.0039(11) -0.2241(6)
H22 H -0.0635 -0.0232 -0.2649
H23 H 0.1009 -0.0126 -0.2187
H24 H -0.0152 0.0582 -0.2339
C26 C -0.2838(17) 0.0033(8) -0.1614(6)
H25 H -0.3365 -0.0010 -0.1134
H26 H -0.3326 -0.0331 -0.1953
H27 H -0.2992 0.0544 -0.1805
C27 C 0.0210(13) 0.0019(5) 0.1010(4)
C28 C 0.1402(16) -0.0208(6) 0.1624(5)
H28 H 0.0924 -0.0084 0.2101
H29 H 0.2430 0.0066 0.1563
H30 H 0.1611 -0.0751 0.1598
C29 C -0.1340(14) -0.0436(6) 0.1024(5)
H31 H -0.1827 -0.0408 0.1513
H32 H -0.1094 -0.0962 0.0905
H33 H -0.2107 -0.0233 0.0663
C30 C 0.5259(15) 0.1058(6) 0.0057(5)
H34 H 0.5891 0.0591 0.0019
H35 H 0.5903 0.1439 0.0316
H36 H 0.4991 0.1241 -0.0435
loop_
_geom_bond_atom_site_label_1
_geom_bond_atom_site_label_2
_geom_bond_site_symmetry_1
_geom_bond_site_symmetry_2
O1 C1 1_555 1_555
O2 C6 1_555 1_555
O3 C7 1_555 1_555
O4 C16 1_555 1_555
O5 C22 1_555 1_555
O6 C23 1_555 1_555
O7 H1 1_555 1_555
C1 C2 1_555 1_555
C2 H2 1_555 1_555
C3 C2 1_555 1_555
H3 C3 1_555 1_555
C4 O7 1_555 1_555
C5 C4 1_555 1_555
H4 C5 1_555 1_555
C6 C5 1_555 1_555
H5 C6 1_555 1_555
C7 O2 1_555 1_555
C8 C7 1_555 1_555
C9 C8 1_555 1_555
H6 C9 1_555 1_555
C10 C9 1_555 1_555
H7 C10 1_555 1_555
C11 C10 1_555 1_555
H8 C11 1_555 1_555
C12 C8 1_555 1_555
H9 C12 1_555 1_555
C13 C11 1_555 1_555
H10 C13 1_555 1_555
C14 C4 1_555 1_555
H11 C14 1_555 1_555
C15 C2 1_555 1_555
H12 C15 1_555 1_555
C16 C15 1_555 1_555
C17 C16 1_555 1_555
C18 C14 1_555 1_555
H13 C18 1_555 1_555
C19 C17 1_555 1_555
H14 C19 1_555 1_555
H15 C19 1_555 1_555
H16 C19 1_555 1_555
C20 C1 1_555 1_555
H17 C20 1_555 1_555
H18 C20 1_555 1_555
H19 C20 1_555 1_555
C21 C3 1_555 1_555
H20 C21 1_555 1_555
C22 C6 1_555 1_555
C23 O5 1_555 1_555
C24 C23 1_555 1_555
H21 C24 1_555 1_555
C25 C24 1_555 1_555
H22 C25 1_555 1_555
H23 C25 1_555 1_555
H24 C25 1_555 1_555
C26 C24 1_555 1_555
H25 C26 1_555 1_555
H26 C26 1_555 1_555
H27 C26 1_555 1_555
C27 C21 1_555 1_555
C28 C27 1_555 1_555
H28 C28 1_555 1_555
H29 C28 1_555 1_555
H30 C28 1_555 1_555
C29 C27 1_555 1_555
H31 C29 1_555 1_555
H32 C29 1_555 1_555
H33 C29 1_555 1_555
C30 C5 1_555 1_555
H34 C30 1_555 1_555
H35 C30 1_555 1_555
H36 C30 1_555 1_555
C3 C4 1_555 1_555
C12 C13 1_555 1_555
C14 C15 1_555 1_555
C17 C18 1_555 1_555
C21 C22 1_555 1_555
C22 C27 1_555 1_555

#END
