
#######################################################################
#
#                 Cambridge Crystallographic Data Centre
#                                CCDC 
#
#######################################################################
#
# If this CIF has been generated from an entry in the Cambridge 
# Structural Database, then it will include bibliographic, chemical, 
# crystal, experimental, refinement or atomic coordinate data resulting 
# from the CCDC's data processing and validation procedures.
#
#######################################################################

data_KEGPOE
_chemical_formula_moiety         'C34 H31 Br1 N2 O4'
_chemical_name_systematic        
'ethyl 1-benzyl-4-{1-[(4-bromophenyl)amino]-2-methoxy-2-oxo-1-phenylethyl}-1,4-dihydroquinoline-3-carboxylate'
_symmetry_cell_setting           monoclinic
_symmetry_space_group_name_H-M   'P 2/c'
_symmetry_Int_Tables_number      13
_space_group_name_Hall           '-P 2yc'
loop_
_symmetry_equiv_pos_site_id
_symmetry_equiv_pos_as_xyz
1 x,y,z
2 -x,y,1/2-z
3 -x,-y,-z
4 x,-y,1/2+z
_cell_length_a                   12.1984(4)
_cell_length_b                   10.6577(4)
_cell_length_c                   23.0168(8)
_cell_angle_alpha                90
_cell_angle_beta                 102.0070(10)
_cell_angle_gamma                90
_cell_volume                     2926.88
_exptl_crystal_colour            colorless
_exptl_crystal_description       block
_cell_formula_units_Z            4
loop_
_atom_site_label
_atom_site_type_symbol
_atom_site_fract_x
_atom_site_fract_y
_atom_site_fract_z
Br1 Br 0.37569(3) 0.06908(4) 0.286367(15)
O1 O 0.95113(18) 0.0961(2) 0.66466(10)
O2 O 1.06471(16) 0.26220(19) 0.68856(9)
O3 O 0.91169(17) 0.18803(19) 0.52454(10)
O4 O 0.79509(17) 0.04316(17) 0.54479(9)
N1 N 0.62671(17) 0.2041(2) 0.53384(9)
H1 H 0.5880 0.1918 0.5606
N2 N 0.80260(18) 0.5058(2) 0.66559(9)
C1 C 0.8283(3) 0.5691(3) 0.78975(14)
H2 H 0.8060 0.4889 0.7764
C2 C 0.8451(3) 0.5965(4) 0.85020(16)
H3 H 0.8330 0.5352 0.8769
C3 C 0.8797(3) 0.7148(5) 0.87011(18)
H4 H 0.8923 0.7332 0.9105
C4 C 0.8955(3) 0.8052(4) 0.8306(2)
H5 H 0.9183 0.8851 0.8441
C5 C 0.8780(3) 0.7791(3) 0.77100(16)
H6 H 0.8886 0.8417 0.7445
C6 C 0.8445(2) 0.6595(3) 0.74972(13)
C7 C 0.8314(3) 0.6351(3) 0.68389(12)
H7 H 0.7736 0.6903 0.6625
H8 H 0.9011 0.6570 0.6723
C8 C 0.6922(2) 0.4611(3) 0.66001(11)
C9 C 0.6064(3) 0.5378(3) 0.67192(13)
H9 H 0.6192 0.6231 0.6787
C10 C 0.5040(3) 0.4877(4) 0.67367(15)
H10 H 0.4466 0.5400 0.6800
C11 C 0.4850(3) 0.3616(4) 0.66619(15)
H11 H 0.4168 0.3275 0.6702
C12 C 0.5679(2) 0.2850(3) 0.65257(12)
H12 H 0.5546 0.1994 0.6475
C13 C 0.6709(2) 0.3340(3) 0.64639(11)
C14 C 0.7576(2) 0.2542(2) 0.62554(10)
H13 H 0.7492 0.1679 0.6386
C15 C 0.8724(2) 0.2993(2) 0.65548(11)
C16 C 0.8872(2) 0.4208(2) 0.67035(11)
H14 H 0.9600 0.4487 0.6848
C17 C 0.9635(2) 0.2085(3) 0.66929(11)
C18 C 1.1603(3) 0.1790(3) 0.70256(14)
H15 H 1.1386 0.1022 0.7198
H16 H 1.2191 0.2186 0.7317
C19 C 1.2037(3) 0.1483(4) 0.64870(17)
H17 H 1.2668 0.0929 0.6591
H18 H 1.2266 0.2241 0.6320
H19 H 1.1459 0.1081 0.6201
C20 C 0.8541(3) 0.4439(3) 0.53282(12)
H20 H 0.9198 0.4004 0.5483
C21 C 0.8595(3) 0.5661(3) 0.51268(15)
H21 H 0.9288 0.6046 0.5152
C22 C 0.7626(3) 0.6306(3) 0.48898(15)
H22 H 0.7666 0.7121 0.4751
C23 C 0.6612(3) 0.5749(3) 0.48593(15)
H23 H 0.5959 0.6185 0.4698
C24 C 0.6548(3) 0.4545(3) 0.50662(13)
H24 H 0.5848 0.4185 0.5049
C25 C 0.7503(2) 0.3859(2) 0.52992(11)
C26 C 0.7389(2) 0.2537(2) 0.55412(11)
C27 C 0.8261(2) 0.1610(3) 0.53866(11)
C28 C 0.8768(3) -0.0516(3) 0.53838(18)
H25 H 0.8469 -0.1333 0.5435
H26 H 0.9441 -0.0387 0.5679
H27 H 0.8935 -0.0457 0.4995
C29 C 0.5754(2) 0.1746(2) 0.47605(11)
C30 C 0.4649(2) 0.1316(2) 0.46598(12)
H28 H 0.4295 0.1239 0.4979
C31 C 0.4076(2) 0.1006(3) 0.41012(13)
H29 H 0.3340 0.0721 0.4042
C32 C 0.4597(2) 0.1117(3) 0.36304(12)
C33 C 0.5678(2) 0.1551(3) 0.37103(13)
H30 H 0.6020 0.1632 0.3387
C34 C 0.6256(2) 0.1866(3) 0.42750(12)
H31 H 0.6988 0.2161 0.4329
loop_
_geom_bond_atom_site_label_1
_geom_bond_atom_site_label_2
_geom_bond_site_symmetry_1
_geom_bond_site_symmetry_2
Br1 C32 1_555 1_555
O1 C17 1_555 1_555
O2 C17 1_555 1_555
O3 C27 1_555 1_555
O4 C27 1_555 1_555
N1 H1 1_555 1_555
N2 C7 1_555 1_555
C1 H2 1_555 1_555
C2 C1 1_555 1_555
H3 C2 1_555 1_555
C3 C2 1_555 1_555
H4 C3 1_555 1_555
C4 C3 1_555 1_555
H5 C4 1_555 1_555
C5 C4 1_555 1_555
H6 C5 1_555 1_555
C6 C1 1_555 1_555
C7 C6 1_555 1_555
H7 C7 1_555 1_555
H8 C7 1_555 1_555
C8 N2 1_555 1_555
C9 C8 1_555 1_555
H9 C9 1_555 1_555
C10 C9 1_555 1_555
H10 C10 1_555 1_555
C11 C10 1_555 1_555
H11 C11 1_555 1_555
C12 C11 1_555 1_555
H12 C12 1_555 1_555
C13 C8 1_555 1_555
C14 C13 1_555 1_555
H13 C14 1_555 1_555
C15 C14 1_555 1_555
C16 N2 1_555 1_555
H14 C16 1_555 1_555
C17 C15 1_555 1_555
C18 O2 1_555 1_555
H15 C18 1_555 1_555
H16 C18 1_555 1_555
C19 C18 1_555 1_555
H17 C19 1_555 1_555
H18 C19 1_555 1_555
H19 C19 1_555 1_555
C20 H20 1_555 1_555
C21 C20 1_555 1_555
H21 C21 1_555 1_555
C22 C21 1_555 1_555
H22 C22 1_555 1_555
C23 C22 1_555 1_555
H23 C23 1_555 1_555
C24 C23 1_555 1_555
H24 C24 1_555 1_555
C25 C20 1_555 1_555
C26 N1 1_555 1_555
C27 C26 1_555 1_555
C28 O4 1_555 1_555
H25 C28 1_555 1_555
H26 C28 1_555 1_555
H27 C28 1_555 1_555
C29 N1 1_555 1_555
C30 C29 1_555 1_555
H28 C30 1_555 1_555
C31 C30 1_555 1_555
H29 C31 1_555 1_555
C32 C31 1_555 1_555
C33 C32 1_555 1_555
H30 C33 1_555 1_555
C34 C29 1_555 1_555
H31 C34 1_555 1_555
C5 C6 1_555 1_555
C12 C13 1_555 1_555
C14 C26 1_555 1_555
C15 C16 1_555 1_555
C24 C25 1_555 1_555
C25 C26 1_555 1_555
C33 C34 1_555 1_555

#END
