
#######################################################################
#
#                 Cambridge Crystallographic Data Centre
#                                CCDC 
#
#######################################################################
#
# If this CIF has been generated from an entry in the Cambridge 
# Structural Database, then it will include bibliographic, chemical, 
# crystal, experimental, refinement or atomic coordinate data resulting 
# from the CCDC's data processing and validation procedures.
#
#######################################################################

data_KEGRUM
_chemical_formula_moiety         'C30 H26 B1 N1'
_chemical_name_systematic        
16-(2,4,6-trimethylphenyl)-10b,16-dihydronaphtho[1,2-d]pyrido[2,1-a][2,3]benzazaborepine
_symmetry_cell_setting           monoclinic
_symmetry_space_group_name_H-M   'P 21/n'
_symmetry_Int_Tables_number      14
_space_group_name_Hall           '-P 2yn'
loop_
_symmetry_equiv_pos_site_id
_symmetry_equiv_pos_as_xyz
1 x,y,z
2 1/2-x,1/2+y,1/2-z
3 -x,-y,-z
4 1/2+x,1/2-y,1/2+z
_cell_length_a                   9.1115(5)
_cell_length_b                   14.7945(9)
_cell_length_c                   16.9449(11)
_cell_angle_alpha                90
_cell_angle_beta                 100.6638(17)
_cell_angle_gamma                90
_cell_volume                     2244.73
_exptl_crystal_colour            yellow
_exptl_crystal_description       Plate
_cell_formula_units_Z            4
loop_
_atom_site_label
_atom_site_type_symbol
_atom_site_fract_x
_atom_site_fract_y
_atom_site_fract_z
B1 B 0.5874(2) 0.25971(14) 0.45583(12)
N1 N 0.74303(16) 0.24598(10) 0.46071(9)
C1 C 0.6314(2) 0.25800(13) 0.28167(11)
C2 C 0.5870(2) 0.21038(15) 0.21003(12)
H1 H 0.4905 0.2180 0.1812
C3 C 0.6829(2) 0.15244(15) 0.18107(12)
H2 H 0.6506 0.1212 0.1334
C4 C 0.8268(2) 0.14077(15) 0.22268(12)
H3 H 0.8916 0.1016 0.2032
C5 C 0.8744(2) 0.18760(14) 0.29357(12)
H4 H 0.9715 0.1798 0.3215
C6 C 0.7784(2) 0.24625(13) 0.32353(11)
C7 C 0.82297(19) 0.29372(13) 0.40331(11)
H5 H 0.7840 0.3556 0.3969
C8 C 0.9879(2) 0.29969(14) 0.43418(12)
H6 H 1.0424 0.3451 0.4149
C9 C 1.0579(2) 0.24213(15) 0.48801(13)
H7 H 1.1608 0.2459 0.5051
C10 C 0.9726(2) 0.17300(15) 0.52017(12)
H8 H 1.0216 0.1253 0.5498
C11 C 0.8237(2) 0.17782(13) 0.50728(11)
H9 H 0.7713 0.1341 0.5302
C12 C 0.5244(2) 0.32131(13) 0.30994(11)
C13 C 0.50489(19) 0.32724(13) 0.38959(11)
C14 C 0.4351(2) 0.37448(15) 0.24980(13)
H10 H 0.4493 0.3696 0.1970
C15 C 0.3296(2) 0.43220(15) 0.26696(13)
H11 H 0.2715 0.4650 0.2258
C16 C 0.3072(2) 0.44299(13) 0.34661(13)
C17 C 0.3956(2) 0.39112(13) 0.40824(12)
C18 C 0.3763(2) 0.40781(13) 0.48798(12)
H12 H 0.4327 0.3751 0.5298
C19 C 0.2770(2) 0.47086(13) 0.50518(13)
H13 H 0.2689 0.4814 0.5583
C20 C 0.1873(2) 0.51970(14) 0.44344(14)
H14 H 0.1181 0.5613 0.4555
C21 C 0.2020(2) 0.50594(14) 0.36589(14)
H15 H 0.1423 0.5383 0.3250
C22 C 0.50400(19) 0.20051(12) 0.51149(11)
C23 C 0.4017(2) 0.13431(13) 0.47634(13)
C24 C 0.3351(2) 0.07733(14) 0.52519(15)
H16 H 0.2688 0.0332 0.5012
C25 C 0.3641(2) 0.08416(14) 0.60778(15)
C26 C 0.4634(2) 0.14980(14) 0.64223(13)
H17 H 0.4833 0.1560 0.6978
C27 C 0.5347(2) 0.20699(13) 0.59576(12)
C28 C 0.6430(2) 0.27572(15) 0.63872(12)
H18 H 0.6865 0.2532 0.6909
H19 H 0.5910 0.3311 0.6443
H20 H 0.7203 0.2866 0.6083
C29 C 0.3627(3) 0.12266(18) 0.38697(14)
H21 H 0.3107 0.0665 0.3747
H22 H 0.4525 0.1223 0.3649
H23 H 0.2999 0.1717 0.3641
C30 C 0.2899(3) 0.02211(18) 0.65946(18)
H24 H 0.2218 -0.0174 0.6257
H25 H 0.2361 0.0575 0.6921
H26 H 0.3646 -0.0132 0.6933
loop_
_geom_bond_atom_site_label_1
_geom_bond_atom_site_label_2
_geom_bond_site_symmetry_1
_geom_bond_site_symmetry_2
B1 N1 1_555 1_555
N1 C7 1_555 1_555
C1 C2 1_555 1_555
C2 H1 1_555 1_555
C3 C2 1_555 1_555
H2 C3 1_555 1_555
C4 C3 1_555 1_555
H3 C4 1_555 1_555
C5 C4 1_555 1_555
H4 C5 1_555 1_555
C6 C1 1_555 1_555
C7 C6 1_555 1_555
H5 C7 1_555 1_555
C8 C7 1_555 1_555
H6 C8 1_555 1_555
C9 C8 1_555 1_555
H7 C9 1_555 1_555
C10 C9 1_555 1_555
H8 C10 1_555 1_555
C11 N1 1_555 1_555
H9 C11 1_555 1_555
C12 C1 1_555 1_555
C13 B1 1_555 1_555
C14 C12 1_555 1_555
H10 C14 1_555 1_555
C15 C14 1_555 1_555
H11 C15 1_555 1_555
C16 C15 1_555 1_555
C17 C13 1_555 1_555
C18 C17 1_555 1_555
H12 C18 1_555 1_555
C19 C18 1_555 1_555
H13 C19 1_555 1_555
C20 C19 1_555 1_555
H14 C20 1_555 1_555
C21 C16 1_555 1_555
H15 C21 1_555 1_555
C22 B1 1_555 1_555
C23 C22 1_555 1_555
C24 C23 1_555 1_555
H16 C24 1_555 1_555
C25 C24 1_555 1_555
C26 C25 1_555 1_555
H17 C26 1_555 1_555
C27 C22 1_555 1_555
C28 C27 1_555 1_555
H18 C28 1_555 1_555
H19 C28 1_555 1_555
H20 C28 1_555 1_555
C29 C23 1_555 1_555
H21 C29 1_555 1_555
H22 C29 1_555 1_555
H23 C29 1_555 1_555
C30 C25 1_555 1_555
H24 C30 1_555 1_555
H25 C30 1_555 1_555
H26 C30 1_555 1_555
C5 C6 1_555 1_555
C10 C11 1_555 1_555
C12 C13 1_555 1_555
C16 C17 1_555 1_555
C20 C21 1_555 1_555
C26 C27 1_555 1_555

#END
