
#######################################################################
#
#                 Cambridge Crystallographic Data Centre
#                                CCDC 
#
#######################################################################
#
# If this CIF has been generated from an entry in the Cambridge 
# Structural Database, then it will include bibliographic, chemical, 
# crystal, experimental, refinement or atomic coordinate data resulting 
# from the CCDC's data processing and validation procedures.
#
#######################################################################

data_KEGREW
_chemical_formula_moiety         'C46 H36 B1 N1'
_chemical_name_systematic        
6-(9,10-diphenylanthracen-2-yl)-6-(2,4,6-trimethylphenyl)-6H-pyrido[1,2-b][2,1]benzazaborole-5-ium-6-ide
_symmetry_cell_setting           monoclinic
_symmetry_space_group_name_H-M   'P 21/n'
_symmetry_Int_Tables_number      14
_space_group_name_Hall           '-P 2yn'
loop_
_symmetry_equiv_pos_site_id
_symmetry_equiv_pos_as_xyz
1 x,y,z
2 1/2-x,1/2+y,1/2-z
3 -x,-y,-z
4 1/2+x,1/2-y,1/2+z
_cell_length_a                   13.7790(4)
_cell_length_b                   10.4066(2)
_cell_length_c                   24.1478(6)
_cell_angle_alpha                90
_cell_angle_beta                 103.5334(9)
_cell_angle_gamma                90
_cell_volume                     3366.47
_exptl_crystal_colour            yellow
_exptl_crystal_description       plate
_cell_formula_units_Z            4
loop_
_atom_site_label
_atom_site_type_symbol
_atom_site_fract_x
_atom_site_fract_y
_atom_site_fract_z
B1 B 0.94710(16) 0.3513(2) 0.20576(9)
N1 N 1.06563(13) 0.36513(16) 0.20887(8)
C1 C 0.94755(14) 0.44088(17) 0.26104(8)
C2 C 0.87088(16) 0.4776(2) 0.28557(10)
H1 H 0.8068 0.4397 0.2726
C3 C 0.8851(2) 0.5682(2) 0.32851(11)
H2 H 0.8314 0.5913 0.3450
C4 C 0.9773(2) 0.6250(3) 0.34739(11)
H3 H 0.9872 0.6872 0.3770
C5 C 1.0547(2) 0.5917(2) 0.32348(10)
H4 H 1.1182 0.6312 0.3361
C6 C 1.03936(15) 0.49975(19) 0.28052(9)
C7 C 1.11085(15) 0.4519(2) 0.24978(9)
C8 C 1.21127(17) 0.4833(3) 0.25690(13)
H5 H 1.2425 0.5421 0.2856
C9 C 1.2643(2) 0.4276(3) 0.22155(17)
H6 H 1.3327 0.4485 0.2256
C10 C 1.2179(2) 0.3404(3) 0.17984(16)
H7 H 1.2542 0.3027 0.1550
C11 C 1.1193(2) 0.3097(2) 0.17492(11)
H8 H 1.0882 0.2485 0.1472
C12 C 0.91874(13) 0.19856(17) 0.20644(8)
C13 C 0.93989(14) 0.12723(18) 0.25792(8)
C14 C 0.92231(16) -0.00457(19) 0.25778(9)
H9 H 0.9357 -0.0492 0.2931
C15 C 0.88602(17) -0.07289(19) 0.20810(9)
C16 C 0.86755(17) -0.0049(2) 0.15762(9)
H10 H 0.8437 -0.0499 0.1229
C17 C 0.88260(14) 0.12739(18) 0.15583(8)
C18 C 0.98272(19) 0.1866(2) 0.31554(9)
H11 H 1.0021 0.1185 0.3440
H12 H 0.9323 0.2417 0.3262
H13 H 1.0415 0.2382 0.3138
C19 C 0.8663(3) -0.2155(2) 0.20950(12)
H14 H 0.8236 -0.2424 0.1730
H15 H 0.8328 -0.2344 0.2402
H16 H 0.9297 -0.2623 0.2163
C20 C 0.85743(19) 0.1868(2) 0.09687(9)
H17 H 0.8485 0.1186 0.0681
H18 H 0.9119 0.2436 0.0925
H19 H 0.7956 0.2365 0.0918
C21 C 0.88706(14) 0.44244(17) 0.15429(8)
C22 C 0.93438(14) 0.51812(17) 0.12265(8)
H20 H 1.0044 0.5082 0.1276
C23 C 0.88458(14) 0.61162(17) 0.08235(8)
C24 C 0.93768(14) 0.68923(18) 0.05210(8)
C25 C 0.88631(15) 0.77711(18) 0.01142(8)
C26 C 0.93682(17) 0.8567(2) -0.02110(9)
H21 H 1.0071 0.8490 -0.0158
C27 C 0.88649(19) 0.9434(2) -0.05950(9)
H22 H 0.9218 0.9941 -0.0810
C28 C 0.78273(19) 0.9583(2) -0.06760(10)
H23 H 0.7485 1.0201 -0.0940
C29 C 0.73088(17) 0.8843(2) -0.03767(9)
H24 H 0.6607 0.8950 -0.0438
C30 C 0.78008(15) 0.79087(18) 0.00271(8)
C31 C 0.72749(14) 0.71587(17) 0.03439(8)
C32 C 0.77863(14) 0.62580(17) 0.07381(8)
C33 C 0.72951(14) 0.54644(18) 0.10735(8)
H25 H 0.6594 0.5542 0.1028
C34 C 0.78104(14) 0.45998(18) 0.14562(8)
H26 H 0.7457 0.4097 0.1672
C35 C 1.04886(14) 0.67855(18) 0.06418(8)
C36 C 1.10709(16) 0.7219(2) 0.11612(9)
H27 H 1.0760 0.7610 0.1431
C37 C 1.20980(18) 0.7083(2) 0.12853(10)
H28 H 1.2490 0.7384 0.1639
C38 C 1.25556(17) 0.6509(3) 0.08969(11)
H29 H 1.3260 0.6409 0.0985
C39 C 1.19892(17) 0.6082(3) 0.03798(11)
H30 H 1.2305 0.5693 0.0112
C40 C 1.09599(16) 0.6221(2) 0.02522(9)
H31 H 1.0573 0.5928 -0.0104
C41 C 0.61832(14) 0.73745(18) 0.02682(8)
C42 C 0.58444(17) 0.8358(2) 0.05597(10)
H32 H 0.6313 0.8864 0.0821
C43 C 0.48320(18) 0.8619(3) 0.04771(11)
H33 H 0.4613 0.9297 0.0682
C44 C 0.41471(17) 0.7895(2) 0.00991(11)
H34 H 0.3455 0.8082 0.0035
C45 C 0.44662(19) 0.6911(3) -0.01830(13)
H35 H 0.3992 0.6399 -0.0439
C46 C 0.54805(18) 0.6644(2) -0.01009(11)
H36 H 0.5691 0.5951 -0.0301
loop_
_geom_bond_atom_site_label_1
_geom_bond_atom_site_label_2
_geom_bond_site_symmetry_1
_geom_bond_site_symmetry_2
B1 N1 1_555 1_555
N1 C7 1_555 1_555
C1 B1 1_555 1_555
C2 C1 1_555 1_555
H1 C2 1_555 1_555
C3 C2 1_555 1_555
H2 C3 1_555 1_555
C4 C3 1_555 1_555
H3 C4 1_555 1_555
C5 C4 1_555 1_555
H4 C5 1_555 1_555
C6 C1 1_555 1_555
C7 C6 1_555 1_555
C8 C7 1_555 1_555
H5 C8 1_555 1_555
C9 C8 1_555 1_555
H6 C9 1_555 1_555
C10 C9 1_555 1_555
H7 C10 1_555 1_555
C11 N1 1_555 1_555
H8 C11 1_555 1_555
C12 B1 1_555 1_555
C13 C12 1_555 1_555
C14 C13 1_555 1_555
H9 C14 1_555 1_555
C15 C14 1_555 1_555
C16 C15 1_555 1_555
H10 C16 1_555 1_555
C17 C12 1_555 1_555
C18 C13 1_555 1_555
H11 C18 1_555 1_555
H12 C18 1_555 1_555
H13 C18 1_555 1_555
C19 C15 1_555 1_555
H14 C19 1_555 1_555
H15 C19 1_555 1_555
H16 C19 1_555 1_555
C20 C17 1_555 1_555
H17 C20 1_555 1_555
H18 C20 1_555 1_555
H19 C20 1_555 1_555
C21 B1 1_555 1_555
C22 C21 1_555 1_555
H20 C22 1_555 1_555
C23 C22 1_555 1_555
C24 C23 1_555 1_555
C25 C24 1_555 1_555
C26 C25 1_555 1_555
H21 C26 1_555 1_555
C27 C26 1_555 1_555
H22 C27 1_555 1_555
C28 C27 1_555 1_555
H23 C28 1_555 1_555
C29 C28 1_555 1_555
H24 C29 1_555 1_555
C30 C25 1_555 1_555
C31 C30 1_555 1_555
C32 C23 1_555 1_555
C33 C32 1_555 1_555
H25 C33 1_555 1_555
C34 C21 1_555 1_555
H26 C34 1_555 1_555
C35 C24 1_555 1_555
C36 C35 1_555 1_555
H27 C36 1_555 1_555
C37 C36 1_555 1_555
H28 C37 1_555 1_555
C38 C37 1_555 1_555
H29 C38 1_555 1_555
C39 C38 1_555 1_555
H30 C39 1_555 1_555
C40 C35 1_555 1_555
H31 C40 1_555 1_555
C41 C31 1_555 1_555
C42 C41 1_555 1_555
H32 C42 1_555 1_555
C43 C42 1_555 1_555
H33 C43 1_555 1_555
C44 C43 1_555 1_555
H34 C44 1_555 1_555
C45 C44 1_555 1_555
H35 C45 1_555 1_555
C46 C41 1_555 1_555
H36 C46 1_555 1_555
C5 C6 1_555 1_555
C10 C11 1_555 1_555
C16 C17 1_555 1_555
C29 C30 1_555 1_555
C31 C32 1_555 1_555
C33 C34 1_555 1_555
C39 C40 1_555 1_555
C45 C46 1_555 1_555

#END
