
#######################################################################
#
#                 Cambridge Crystallographic Data Centre
#                                CCDC 
#
#######################################################################
#
# If this CIF has been generated from an entry in the Cambridge 
# Structural Database, then it will include bibliographic, chemical, 
# crystal, experimental, refinement or atomic coordinate data resulting 
# from the CCDC's data processing and validation procedures.
#
#######################################################################

data_KEGXUP
_chemical_formula_moiety         'C12 H24 O6,H3 O1 1+,H1 Br2 1-'
_chemical_name_systematic        '(18-Crown-6) oxonium hydrogen dibromide'
_symmetry_cell_setting           monoclinic
_symmetry_space_group_name_H-M   'P 21/c'
_symmetry_Int_Tables_number      14
_space_group_name_Hall           '-P 2ybc'
loop_
_symmetry_equiv_pos_site_id
_symmetry_equiv_pos_as_xyz
1 x,y,z
2 -x,1/2+y,1/2-z
3 -x,-y,-z
4 x,1/2-y,1/2+z
_cell_length_a                   10.588(1)
_cell_length_b                   21.060(2)
_cell_length_c                   8.753(1)
_cell_angle_alpha                90
_cell_angle_beta                 95.25(4)
_cell_angle_gamma                90
_cell_volume                     1943.58
_cell_formula_units_Z            4
loop_
_atom_site_label
_atom_site_type_symbol
_atom_site_fract_x
_atom_site_fract_y
_atom_site_fract_z
Br1 Br 0.3589(1) 0.15869(6) 0.4365(2)
Br2 Br 0.5504(1) 0.08192(7) 0.2096(2)
H1 H 0.473 0.125 0.361
O1 O 0.1624(6) 0.3896(4) 0.4358(9)
O2 O 0.0641(6) 0.2694(3) 0.4788(8)
O3 O -0.1948(7) 0.2568(4) 0.437(1)
O4 O -0.3297(7) 0.3449(5) 0.267(1)
O5 O -0.2242(8) 0.4606(4) 0.222(1)
O6 O 0.0318(8) 0.4752(4) 0.243(1)
C1 C 0.2422(9) 0.3359(7) 0.477(1)
C2 C 0.173(1) 0.2926(6) 0.570(1)
C3 C 0.002(1) 0.2189(5) 0.550(1)
C4 C -0.115(1) 0.2035(6) 0.452(2)
C5 C -0.311(1) 0.2403(7) 0.353(2)
C6 C -0.390(1) 0.2984(9) 0.344(2)
C7 C -0.402(1) 0.4045(8) 0.253(2)
C8 C -0.347(1) 0.4465(8) 0.148(2)
C9 C -0.172(2) 0.5035(8) 0.131(2)
C10 C -0.056(2) 0.5264(6) 0.212(2)
C11 C 0.146(1) 0.4918(7) 0.329(2)
C12 C 0.227(1) 0.4335(7) 0.350(2)
H2 H 0.319 0.348 0.529
H3 H 0.260 0.313 0.383
H4 H 0.225 0.257 0.607
H5 H 0.146 0.315 0.657
H6 H -0.023 0.231 0.649
H7 H 0.055 0.182 0.565
H8 H -0.089 0.189 0.355
H9 H -0.155 0.167 0.497
H10 H -0.349 0.204 0.397
H11 H -0.296 0.228 0.248
H12 H -0.476 0.289 0.303
H13 H -0.401 0.311 0.454
H14 H -0.404 0.424 0.354
H15 H -0.490 0.396 0.217
H16 H -0.232 0.538 0.102
H17 H -0.155 0.484 0.033
H18 H -0.016 0.560 0.154
H19 H -0.074 0.546 0.308
H20 H 0.132 0.507 0.431
H21 H 0.192 0.525 0.282
H22 H 0.239 0.417 0.247
H23 H 0.311 0.443 0.397
O7 O -0.0885(6) 0.3714(3) 0.3763(9)
H24 H -0.082 0.361 0.279
loop_
_geom_bond_atom_site_label_1
_geom_bond_atom_site_label_2
_geom_bond_site_symmetry_1
_geom_bond_site_symmetry_2
Br1 H1 1_555 1_555
Br2 H1 1_555 1_555
O1 C1 1_555 1_555
O2 C2 1_555 1_555
O3 C4 1_555 1_555
O4 C6 1_555 1_555
O5 C8 1_555 1_555
O6 C10 1_555 1_555
C1 C2 1_555 1_555
C2 H4 1_555 1_555
C3 O2 1_555 1_555
C4 C3 1_555 1_555
C5 O3 1_555 1_555
C6 C5 1_555 1_555
C7 O4 1_555 1_555
C8 C7 1_555 1_555
C9 O5 1_555 1_555
C10 C9 1_555 1_555
C11 O6 1_555 1_555
C12 O1 1_555 1_555
H2 C1 1_555 1_555
H3 C1 1_555 1_555
H5 C2 1_555 1_555
H6 C3 1_555 1_555
H7 C3 1_555 1_555
H8 C4 1_555 1_555
H9 C4 1_555 1_555
H10 C5 1_555 1_555
H11 C5 1_555 1_555
H12 C6 1_555 1_555
H13 C6 1_555 1_555
H14 C7 1_555 1_555
H15 C7 1_555 1_555
H16 C9 1_555 1_555
H17 C9 1_555 1_555
H18 C10 1_555 1_555
H19 C10 1_555 1_555
H20 C11 1_555 1_555
H21 C11 1_555 1_555
H22 C12 1_555 1_555
H23 C12 1_555 1_555
O7 H24 1_555 1_555
C11 C12 1_555 1_555

#END
