
#######################################################################
#
#                 Cambridge Crystallographic Data Centre
#                                CCDC 
#
#######################################################################
#
# If this CIF has been generated from an entry in the Cambridge 
# Structural Database, then it will include bibliographic, chemical, 
# crystal, experimental, refinement or atomic coordinate data resulting 
# from the CCDC's data processing and validation procedures.
#
#######################################################################

data_KEHJIR
_chemical_formula_moiety         'C36 H30 Mg1 N2 O8 P2'
_chemical_name_systematic        
"bis((Nitrato-O,O')-(triphenylphosphine oxide-O))-magnesium(ii)"
_symmetry_cell_setting           monoclinic
_symmetry_space_group_name_H-M   'C 2/c'
_symmetry_Int_Tables_number      15
_space_group_name_Hall           '-C 2yn'
loop_
_symmetry_equiv_pos_site_id
_symmetry_equiv_pos_as_xyz
1 x,y,z
2 1/2+x,1/2+y,z
3 -x,y,1/2-z
4 1/2-x,1/2+y,1/2-z
5 -x,-y,-z
6 1/2-x,1/2-y,-z
7 x,-y,1/2+z
8 1/2+x,1/2-y,1/2+z
_cell_length_a                   15.343(3)
_cell_length_b                   13.705(2)
_cell_length_c                   17.202(3)
_cell_angle_alpha                90
_cell_angle_beta                 96.971(4)
_cell_angle_gamma                90
_cell_volume                     3590.43
_exptl_crystal_colour            colorless
_exptl_crystal_description       block
_cell_formula_units_Z            4
_exptl_crystal_recrystallization_method 'dichloromethane/diethyl ether'
loop_
_atom_site_label
_atom_site_type_symbol
_atom_site_fract_x
_atom_site_fract_y
_atom_site_fract_z
Mg1 Mg 0.0000 0.21512(7) 0.2500
N1 N -0.04037(13) 0.11542(15) 0.36365(12)
O1 O 0.01675(11) 0.18344(12) 0.36951(9)
O2 O -0.07777(11) 0.09942(12) 0.29501(10)
O3 O -0.05672(13) 0.06916(15) 0.42045(12)
P1 P 0.17346(4) 0.37310(4) 0.27559(3)
O4 O 0.09691(11) 0.30659(12) 0.25405(9)
C1 C 0.22869(17) 0.39467(15) 0.19055(13)
C2 C 0.1827(2) 0.3726(2) 0.11782(15)
H1 H 0.1237 0.3504 0.1144
C3 C 0.2229(3) 0.3830(3) 0.05071(17)
H2 H 0.1919 0.3666 0.0012
C4 C 0.3074(3) 0.4169(2) 0.0555(2)
H3 H 0.3342 0.4251 0.0089
C5 C 0.3542(3) 0.43936(19) 0.1269(2)
H4 H 0.4129 0.4624 0.1296
C6 C 0.3142(2) 0.42786(17) 0.19538(16)
H5 H 0.3457 0.4428 0.2449
C7 C 0.25025(14) 0.32026(15) 0.35094(11)
C8 C 0.24597(15) 0.22010(16) 0.36511(13)
H6 H 0.2029 0.1811 0.3353
C9 C 0.30489(16) 0.17797(18) 0.42277(14)
H7 H 0.3020 0.1100 0.4329
C10 C 0.36779(17) 0.23456(19) 0.46561(14)
H8 H 0.4080 0.2052 0.5051
C11 C 0.37293(17) 0.33348(19) 0.45156(14)
H9 H 0.4169 0.3717 0.4809
C12 C 0.31406(16) 0.37662(17) 0.39486(13)
H10 H 0.3170 0.4448 0.3857
C13 C 0.13613(15) 0.48775(16) 0.31009(12)
C14 C 0.17814(18) 0.57577(17) 0.30173(16)
H11 H 0.2312 0.5773 0.2784
C15 C 0.1433(2) 0.66181(19) 0.32719(17)
H12 H 0.1725 0.7220 0.3213
C16 C 0.0666(2) 0.6600(2) 0.36092(18)
H13 H 0.0424 0.7191 0.3776
C17 C 0.02480(19) 0.5726(2) 0.37060(19)
H14 H -0.0282 0.5716 0.3940
C18 C 0.05978(17) 0.4864(2) 0.34635(16)
H15 H 0.0317 0.4262 0.3544
N1B N 0.04037(13) 0.11542(15) 0.13635(12)
O1B O -0.01675(11) 0.18344(12) 0.13049(9)
O2B O 0.07777(11) 0.09942(12) 0.20499(10)
O3B O 0.05672(13) 0.06916(15) 0.07955(12)
P1B P -0.17346(4) 0.37310(4) 0.22441(3)
O4B O -0.09691(11) 0.30659(12) 0.24595(9)
C1B C -0.22869(17) 0.39467(15) 0.30945(13)
C2B C -0.1827(2) 0.3726(2) 0.38218(15)
H1B H -0.1237 0.3504 0.3856
C3B C -0.2229(3) 0.3830(3) 0.44929(17)
H2B H -0.1919 0.3666 0.4988
C4B C -0.3074(3) 0.4169(2) 0.4445(2)
H3B H -0.3342 0.4251 0.4911
C5B C -0.3542(3) 0.43936(19) 0.3731(2)
H4B H -0.4129 0.4624 0.3704
C6B C -0.3142(2) 0.42786(17) 0.30462(16)
H5B H -0.3457 0.4428 0.2551
C7B C -0.25025(14) 0.32026(15) 0.14906(11)
C8B C -0.24597(15) 0.22010(16) 0.13489(13)
H6B H -0.2029 0.1811 0.1647
C9B C -0.30489(16) 0.17797(18) 0.07723(14)
H7B H -0.3020 0.1100 0.0671
C10B C -0.36779(17) 0.23456(19) 0.03439(14)
H8B H -0.4080 0.2052 -0.0051
C11B C -0.37293(17) 0.33348(19) 0.04844(14)
H9B H -0.4169 0.3717 0.0191
C12B C -0.31406(16) 0.37662(17) 0.10514(13)
H10B H -0.3170 0.4448 0.1143
C13B C -0.13613(15) 0.48775(16) 0.18991(12)
C14B C -0.17814(18) 0.57577(17) 0.19827(16)
H11B H -0.2312 0.5773 0.2216
C15B C -0.1433(2) 0.66181(19) 0.17281(17)
H12B H -0.1725 0.7220 0.1787
C16B C -0.0666(2) 0.6600(2) 0.13908(18)
H13B H -0.0424 0.7191 0.1224
C17B C -0.02480(19) 0.5726(2) 0.12940(19)
H14B H 0.0282 0.5716 0.1060
C18B C -0.05978(17) 0.4864(2) 0.15365(16)
H15B H -0.0317 0.4262 0.1456
loop_
_geom_bond_atom_site_label_1
_geom_bond_atom_site_label_2
_geom_bond_site_symmetry_1
_geom_bond_site_symmetry_2
Mg1 O1 1_555 1_555
N1 O1 1_555 1_555
O2 Mg1 1_555 1_555
O3 N1 1_555 1_555
P1 O4 1_555 1_555
O4 Mg1 1_555 1_555
C1 P1 1_555 1_555
C2 C1 1_555 1_555
H1 C2 1_555 1_555
C3 C2 1_555 1_555
H2 C3 1_555 1_555
C4 C3 1_555 1_555
H3 C4 1_555 1_555
C5 C4 1_555 1_555
H4 C5 1_555 1_555
C6 C1 1_555 1_555
H5 C6 1_555 1_555
C7 P1 1_555 1_555
C8 C7 1_555 1_555
H6 C8 1_555 1_555
C9 C8 1_555 1_555
H7 C9 1_555 1_555
C10 C9 1_555 1_555
H8 C10 1_555 1_555
C11 C10 1_555 1_555
H9 C11 1_555 1_555
C12 C7 1_555 1_555
H10 C12 1_555 1_555
C13 P1 1_555 1_555
C14 C13 1_555 1_555
H11 C14 1_555 1_555
C15 C14 1_555 1_555
H12 C15 1_555 1_555
C16 C15 1_555 1_555
H13 C16 1_555 1_555
C17 C16 1_555 1_555
H14 C17 1_555 1_555
C18 C13 1_555 1_555
H15 C18 1_555 1_555
N1B O1B 1_555 1_555
O1B Mg1 1_555 1_555
O2B Mg1 1_555 1_555
O3B N1B 1_555 1_555
P1B O4B 1_555 1_555
O4B Mg1 1_555 1_555
C1B P1B 1_555 1_555
C2B C1B 1_555 1_555
H1B C2B 1_555 1_555
C3B C2B 1_555 1_555
H2B C3B 1_555 1_555
C4B C3B 1_555 1_555
H3B C4B 1_555 1_555
C5B C4B 1_555 1_555
H4B C5B 1_555 1_555
C6B C1B 1_555 1_555
H5B C6B 1_555 1_555
C7B P1B 1_555 1_555
C8B C7B 1_555 1_555
H6B C8B 1_555 1_555
C9B C8B 1_555 1_555
H7B C9B 1_555 1_555
C10B C9B 1_555 1_555
H8B C10B 1_555 1_555
C11B C10B 1_555 1_555
H9B C11B 1_555 1_555
C12B C7B 1_555 1_555
H10B C12B 1_555 1_555
C13B P1B 1_555 1_555
C14B C13B 1_555 1_555
H11B C14B 1_555 1_555
C15B C14B 1_555 1_555
H12B C15B 1_555 1_555
C16B C15B 1_555 1_555
H13B C16B 1_555 1_555
C17B C16B 1_555 1_555
H14B C17B 1_555 1_555
C18B C13B 1_555 1_555
H15B C18B 1_555 1_555
N1 O2 1_555 1_555
C5 C6 1_555 1_555
C11 C12 1_555 1_555
C17 C18 1_555 1_555
N1B O2B 1_555 1_555
C5B C6B 1_555 1_555
C11B C12B 1_555 1_555
C17B C18B 1_555 1_555

#END
