
#######################################################################
#
#                 Cambridge Crystallographic Data Centre
#                                CCDC 
#
#######################################################################
#
# If this CIF has been generated from an entry in the Cambridge 
# Structural Database, then it will include bibliographic, chemical, 
# crystal, experimental, refinement or atomic coordinate data resulting 
# from the CCDC's data processing and validation procedures.
#
#######################################################################

data_KEHTUM
_chemical_formula_moiety         'C20 H18 O5'
_chemical_name_systematic        
11,12,13,14-Tetrahydro-12,13-dimethyl-11,14-epoxycyclo-octa(1,2-f:3,4-f')bis(1,3)benzodioxole
_symmetry_cell_setting           orthorhombic
_symmetry_space_group_name_H-M   'P 21 21 21'
_symmetry_Int_Tables_number      19
_space_group_name_Hall           'P 2ac 2ab'
loop_
_symmetry_equiv_pos_site_id
_symmetry_equiv_pos_as_xyz
1 x,y,z
2 1/2+x,1/2-y,-z
3 -x,1/2+y,1/2-z
4 1/2-x,-y,1/2+z
_cell_length_a                   6.659(2)
_cell_length_b                   11.358(2)
_cell_length_c                   21.307(4)
_cell_angle_alpha                90
_cell_angle_beta                 90
_cell_angle_gamma                90
_cell_volume                     1611.51
_cell_formula_units_Z            4
loop_
_atom_site_label
_atom_site_type_symbol
_atom_site_fract_x
_atom_site_fract_y
_atom_site_fract_z
O1 O 1.0510(2) 0.2972(1) 0.1712(1)
O2 O 1.0555(3) 0.0959(1) 0.1854(1)
O3 O 0.1728(2) -0.1334(1) 0.4541(1)
O4 O 0.4979(2) -0.1875(1) 0.4306(1)
O5 O 0.2888(2) 0.3079(1) 0.2936(1)
C1 C 1.1670(4) 0.1933(2) 0.1611(1)
C2 C 0.9089(3) 0.2657(2) 0.2149(1)
C3 C 0.7749(3) 0.3347(2) 0.2453(1)
C4 C 0.6395(3) 0.2810(2) 0.2867(1)
C5 C 0.4787(3) 0.3561(2) 0.3144(1)
C6 C 0.4688(3) 0.3631(2) 0.3866(1)
C7 C 0.2467(3) 0.3377(2) 0.3992(1)
C8 C 0.2077(3) 0.2489(2) 0.3464(1)
C9 C 0.3036(3) 0.1292(2) 0.3585(1)
C10 C 0.1829(3) 0.0541(2) 0.3952(1)
C11 C 0.2596(3) -0.0490(2) 0.4162(1)
C12 C 0.3112(4) -0.2271(2) 0.4555(2)
C13 C 0.4539(3) -0.0810(2) 0.4021(1)
C14 C 0.5742(3) -0.0132(2) 0.3655(1)
C15 C 0.5007(3) 0.0947(2) 0.3410(1)
C16 C 0.6408(3) 0.1577(2) 0.2970(1)
C17 C 0.7816(3) 0.0894(2) 0.2632(1)
C18 C 0.9116(3) 0.1454(2) 0.2234(1)
C19 C 0.1943(4) 0.3038(3) 0.4655(1)
C20 C 0.5479(6) 0.4783(2) 0.4127(2)
H1 H 1.1734(34) 0.1898(19) 0.1167(10)
H2 H 1.2937(34) 0.1960(19) 0.1884(10)
H3 H 0.7608(33) 0.4191(15) 0.2391(8)
H4 H 0.4923(27) 0.4356(18) 0.2950(9)
H5 H 0.5453(29) 0.2967(15) 0.4054(9)
H6 H 0.1719(34) 0.4077(18) 0.3872(10)
H7 H 0.0672(31) 0.2364(17) 0.3386(9)
H8 H 0.0423(34) 0.0796(18) 0.4069(10)
H9 H 0.3284(44) -0.2707(26) 0.4922(15)
H10 H 0.2487(64) -0.2860(32) 0.4127(19)
H11 H 0.7107(35) -0.0385(18) 0.3582(10)
H12 H 0.7863(32) 0.0055(19) 0.2657(9)
H13 H 0.2548(43) 0.2267(22) 0.4780(12)
H14 H 0.2439(41) 0.3653(23) 0.4941(12)
H15 H 0.0526(53) 0.2907(28) 0.4678(16)
H16 H 0.4690(43) 0.5403(24) 0.3894(13)
H17 H 0.5251(35) 0.4831(21) 0.4609(13)
H18 H 0.7000(50) 0.4915(27) 0.4010(15)
loop_
_geom_bond_atom_site_label_1
_geom_bond_atom_site_label_2
_geom_bond_site_symmetry_1
_geom_bond_site_symmetry_2
O1 C1 1_555 1_555
O2 C1 1_555 1_555
O3 C11 1_555 1_555
O4 C12 1_555 1_555
O5 C5 1_555 1_555
C1 H1 1_555 1_555
C2 O1 1_555 1_555
C3 C2 1_555 1_555
C4 C3 1_555 1_555
C5 C4 1_555 1_555
C6 C5 1_555 1_555
C7 C6 1_555 1_555
C8 O5 1_555 1_555
C9 C8 1_555 1_555
C10 C9 1_555 1_555
C11 C10 1_555 1_555
C12 O3 1_555 1_555
C13 O4 1_555 1_555
C14 C13 1_555 1_555
C15 C9 1_555 1_555
C16 C4 1_555 1_555
C17 C16 1_555 1_555
C18 O2 1_555 1_555
C19 C7 1_555 1_555
C20 C6 1_555 1_555
H2 C1 1_555 1_555
H3 C3 1_555 1_555
H4 C5 1_555 1_555
H5 C6 1_555 1_555
H6 C7 1_555 1_555
H7 C8 1_555 1_555
H8 C10 1_555 1_555
H9 C12 1_555 1_555
H10 C12 1_555 1_555
H11 C14 1_555 1_555
H12 C17 1_555 1_555
H13 C19 1_555 1_555
H14 C19 1_555 1_555
H15 C19 1_555 1_555
H16 C20 1_555 1_555
H17 C20 1_555 1_555
H18 C20 1_555 1_555
C2 C18 1_555 1_555
C7 C8 1_555 1_555
C11 C13 1_555 1_555
C14 C15 1_555 1_555
C15 C16 1_555 1_555
C17 C18 1_555 1_555

#END
