
#######################################################################
#
#                 Cambridge Crystallographic Data Centre
#                                CCDC 
#
#######################################################################
#
# If this CIF has been generated from an entry in the Cambridge 
# Structural Database, then it will include bibliographic, chemical, 
# crystal, experimental, refinement or atomic coordinate data resulting 
# from the CCDC's data processing and validation procedures.
#
#######################################################################

data_KEHXEC
_chemical_formula_moiety         'C2 N6 O4 2-,2(H4 N1 1+)'
_chemical_name_systematic        
'ammonium 5-(dinitromethylene)tetrazole-1,4-diide'
_symmetry_cell_setting           orthorhombic
_symmetry_space_group_name_H-M   'P b c n'
_symmetry_Int_Tables_number      60
_space_group_name_Hall           '-P 2n 2ab'
loop_
_symmetry_equiv_pos_site_id
_symmetry_equiv_pos_as_xyz
1 x,y,z
2 1/2-x,1/2-y,1/2+z
3 -x,y,1/2-z
4 1/2+x,1/2-y,-z
5 -x,-y,-z
6 1/2+x,1/2+y,1/2-z
7 x,-y,1/2+z
8 1/2-x,1/2+y,z
_cell_length_a                   9.8920(19)
_cell_length_b                   9.4530(18)
_cell_length_c                   9.1562(17)
_cell_angle_alpha                90
_cell_angle_beta                 90
_cell_angle_gamma                90
_cell_volume                     856.188
_exptl_crystal_colour            yellow
_exptl_crystal_description       block
_cell_formula_units_Z            4
loop_
_atom_site_label
_atom_site_type_symbol
_atom_site_fract_x
_atom_site_fract_y
_atom_site_fract_z
N1 N 0.6594(2) 0.1714(2) 0.0674(2)
H1 H 0.635(3) 0.099(2) 0.114(3)
H2 H 0.7245(19) 0.208(2) 0.110(2)
H3 H 0.689(4) 0.141(4) -0.011(2)
H4 H 0.589(3) 0.238(4) 0.074(3)
N2 N 0.9427(2) 0.41585(18) 0.2144(2)
N3 N 0.90429(18) 0.28264(18) 0.1895(2)
N4 N 0.91324(17) -0.02233(18) 0.34200(18)
O1 O 0.84266(17) 0.05203(16) 0.42548(19)
O2 O 0.90197(16) -0.15357(15) 0.34461(19)
C1 C 1.0000 0.2037(3) 0.2500
C2 C 1.0000 0.0491(3) 0.2500
N2B N 1.0573(2) 0.41585(18) 0.2856(2)
N3B N 1.09571(18) 0.28264(18) 0.3105(2)
N4B N 1.08676(17) -0.02233(18) 0.15800(18)
O1B O 1.15734(17) 0.05203(16) 0.07452(19)
O2B O 1.09803(16) -0.15357(15) 0.15539(19)
loop_
_geom_bond_atom_site_label_1
_geom_bond_atom_site_label_2
_geom_bond_site_symmetry_1
_geom_bond_site_symmetry_2
N1 H1 1_555 1_555
H2 N1 1_555 1_555
H3 N1 1_555 1_555
H4 N1 1_555 1_555
N2 N3 1_555 1_555
N3 C1 1_555 1_555
N4 O1 1_555 1_555
O2 N4 1_555 1_555
C1 C2 1_555 1_555
C2 N4 1_555 1_555
N2B N2 1_555 1_555
N3B C1 1_555 1_555
N4B C2 1_555 1_555
O1B N4B 1_555 1_555
O2B N4B 1_555 1_555
N2B N3B 1_555 1_555

#END
