
#######################################################################
#
#                 Cambridge Crystallographic Data Centre
#                                CCDC 
#
#######################################################################
#
# If this CIF has been generated from an entry in the Cambridge 
# Structural Database, then it will include bibliographic, chemical, 
# crystal, experimental, refinement or atomic coordinate data resulting 
# from the CCDC's data processing and validation procedures.
#
#######################################################################

data_KEHXIF
_chemical_formula_moiety         'C26 H41 N3 O7'
_chemical_name_systematic        
'N-t-Butoxycarbonylisoleucyl-valyl-tyrosine methyl ester'
_symmetry_cell_setting           monoclinic
_symmetry_space_group_name_H-M   'P 21'
_symmetry_Int_Tables_number      4
_space_group_name_Hall           'P 2yb'
loop_
_symmetry_equiv_pos_site_id
_symmetry_equiv_pos_as_xyz
1 x,y,z
2 -x,1/2+y,-z
_cell_length_a                   16.289(18)
_cell_length_b                   4.979(7)
_cell_length_c                   18.931(19)
_cell_angle_alpha                90
_cell_angle_beta                 103.575(10)
_cell_angle_gamma                90
_cell_volume                     1492.47
_exptl_crystal_colour            white
_exptl_crystal_description       needle
_chemical_melting_point          '110-112 deg.C'
_cell_formula_units_Z            2
_exptl_crystal_recrystallization_method methanol/water
loop_
_atom_site_label
_atom_site_type_symbol
_atom_site_fract_x
_atom_site_fract_y
_atom_site_fract_z
C5 C 0.3453(11) 0.686(4) 0.4382(11)
C6 C 0.3631(12) 0.879(3) 0.3813(8)
H10 H 0.3452 0.7997 0.3340
H11 H 0.4225 0.9162 0.3912
H12 H 0.3327 1.0437 0.3827
C7 C 0.2549(9) 0.573(4) 0.4165(9)
H13 H 0.2482 0.4355 0.4501
H14 H 0.2449 0.4994 0.3684
H15 H 0.2152 0.7153 0.4173
C8 C 0.4130(11) 0.472(3) 0.4575(10)
H16 H 0.4674 0.5510 0.4605
H17 H 0.4029 0.3349 0.4207
H18 H 0.4115 0.3931 0.5035
O1 O 0.3417(5) 0.8606(11) 0.5043(3)
C9 C 0.3479(6) 0.7467(17) 0.5696(4)
O2 O 0.3533(6) 0.5109(12) 0.5801(3)
N1 N 0.3545(4) 0.9414(11) 0.6210(3)
H19 H 0.3591 1.1071 0.6097
C10 C 0.3538(5) 0.8677(15) 0.6958(4)
H20 H 0.3489 0.6722 0.6992
C11 C 0.4331(6) 0.962(2) 0.7504(4)
H21 H 0.4375 1.1577 0.7477
C12 C 0.4255(7) 0.881(3) 0.8275(5)
H22 H 0.3832 0.7447 0.8240
H23 H 0.4099 1.0357 0.8518
H24 H 0.4788 0.8137 0.8546
C13 C 0.5128(6) 0.830(3) 0.7326(6)
H25 H 0.5077 0.6367 0.7359
H26 H 0.5132 0.8726 0.6827
C14 C 0.5949(8) 0.912(3) 0.7797(7)
H27 H 0.5981 0.8537 0.8286
H28 H 0.6000 1.1041 0.7788
H29 H 0.6399 0.8316 0.7622
C15 C 0.2749(5) 0.9994(16) 0.7101(4)
O3 O 0.2636(4) 1.2416(11) 0.7114(4)
N2 N 0.2124(4) 0.8221(12) 0.7163(3)
H30 H 0.2241 0.6536 0.7204
C16 C 0.1264(5) 0.9092(15) 0.7161(4)
H31 H 0.1244 1.1059 0.7158
C17 C 0.0635(6) 0.803(2) 0.6480(5)
H32 H 0.0673 0.6062 0.6490
C18 C -0.0248(7) 0.875(3) 0.6468(7)
H33 H -0.0289 1.0653 0.6528
H34 H -0.0420 0.7840 0.6857
H35 H -0.0607 0.8217 0.6012
C19 C 0.0864(9) 0.900(3) 0.5777(6)
H36 H 0.0974 1.0891 0.5809
H37 H 0.0402 0.8636 0.5369
H38 H 0.1358 0.8062 0.5716
C20 C 0.1027(4) 0.8058(13) 0.7851(4)
O4 O 0.1012(4) 0.5655(10) 0.7982(3)
N3 N 0.0839(4) 0.9989(12) 0.8284(3)
H39 H 0.0864 1.1637 0.8155
C21 C 0.0592(5) 0.9418(15) 0.8971(5)
H40 H 0.0740 0.7548 0.9104
C22 C -0.0369(6) 0.973(2) 0.8871(6)
O5 O -0.0725(5) 1.1217(17) 0.9171(5)
O6 O -0.0776(4) 0.796(2) 0.8376(4)
C23 C -0.1695(6) 0.806(4) 0.8213(7)
H41 H -0.1879 0.9890 0.8122
H42 H -0.1889 0.7376 0.8619
H43 H -0.1922 0.6995 0.7790
C24 C 0.1064(5) 1.1202(16) 0.9583(4)
H44 H 0.0906 1.3054 0.9463
H45 H 0.0884 1.0754 1.0022
C25 C 0.2006(5) 1.0983(16) 0.9736(4)
C26 C 0.2443(6) 0.9078(17) 1.0207(5)
H46 H 0.2142 0.7893 1.0431
C27 C 0.3330(6) 0.8873(19) 1.0359(5)
H47 H 0.3609 0.7583 1.0683
C28 C 0.3779(5) 1.0594(17) 1.0025(4)
C29 C 0.3366(6) 1.2551(19) 0.9562(5)
H48 H 0.3673 1.3764 0.9352
C30 C 0.2494(6) 1.2713(18) 0.9408(5)
H49 H 0.2222 1.3997 0.9078
O7 O 0.4660(4) 1.0330(13) 1.0166(4)
H50 H 0.4784 0.8737 1.0158
C1? C 0.3126(12) 0.686(4) 0.4366(12)
C2? C 0.3966(11) 0.560(4) 0.4300(10)
H1? H 0.4426 0.6532 0.4615
H2? H 0.4019 0.5744 0.3807
H3? H 0.3979 0.3743 0.4437
C3? C 0.2475(11) 0.481(4) 0.4479(11)
H4? H 0.1983 0.5726 0.4551
H5? H 0.2711 0.3734 0.4899
H6? H 0.2321 0.3671 0.4059
C4? C 0.2781(13) 0.882(3) 0.3750(8)
H7? H 0.3096 1.0465 0.3833
H8? H 0.2197 0.9182 0.3731
H9? H 0.2831 0.8050 0.3297
loop_
_geom_bond_atom_site_label_1
_geom_bond_atom_site_label_2
_geom_bond_site_symmetry_1
_geom_bond_site_symmetry_2
C5 C6 1_555 1_555
C6 H10 1_555 1_555
H11 C6 1_555 1_555
H12 C6 1_555 1_555
C7 C5 1_555 1_555
H13 C7 1_555 1_555
H14 C7 1_555 1_555
H15 C7 1_555 1_555
C8 C5 1_555 1_555
H16 C8 1_555 1_555
H17 C8 1_555 1_555
H18 C8 1_555 1_555
O1 C5 1_555 1_555
C9 O1 1_555 1_555
O2 C9 1_555 1_555
N1 C9 1_555 1_555
H19 N1 1_555 1_555
C10 N1 1_555 1_555
H20 C10 1_555 1_555
C11 C10 1_555 1_555
H21 C11 1_555 1_555
C12 C11 1_555 1_555
H22 C12 1_555 1_555
H23 C12 1_555 1_555
H24 C12 1_555 1_555
C13 C11 1_555 1_555
H25 C13 1_555 1_555
H26 C13 1_555 1_555
C14 C13 1_555 1_555
H27 C14 1_555 1_555
H28 C14 1_555 1_555
H29 C14 1_555 1_555
C15 C10 1_555 1_555
O3 C15 1_555 1_555
N2 C15 1_555 1_555
H30 N2 1_555 1_555
C16 N2 1_555 1_555
H31 C16 1_555 1_555
C17 C16 1_555 1_555
H32 C17 1_555 1_555
C18 C17 1_555 1_555
H33 C18 1_555 1_555
H34 C18 1_555 1_555
H35 C18 1_555 1_555
C19 C17 1_555 1_555
H36 C19 1_555 1_555
H37 C19 1_555 1_555
H38 C19 1_555 1_555
C20 C16 1_555 1_555
O4 C20 1_555 1_555
N3 C20 1_555 1_555
H39 N3 1_555 1_555
C21 N3 1_555 1_555
H40 C21 1_555 1_555
C22 C21 1_555 1_555
O5 C22 1_555 1_555
O6 C22 1_555 1_555
C23 O6 1_555 1_555
H41 C23 1_555 1_555
H42 C23 1_555 1_555
H43 C23 1_555 1_555
C24 C21 1_555 1_555
H44 C24 1_555 1_555
H45 C24 1_555 1_555
C25 C24 1_555 1_555
C26 C25 1_555 1_555
H46 C26 1_555 1_555
C27 C26 1_555 1_555
H47 C27 1_555 1_555
C28 C27 1_555 1_555
C29 C28 1_555 1_555
H48 C29 1_555 1_555
C30 C25 1_555 1_555
H49 C30 1_555 1_555
O7 C28 1_555 1_555
H50 O7 1_555 1_555
C29 C30 1_555 1_555

#END
