
#######################################################################
#
#                 Cambridge Crystallographic Data Centre
#                                CCDC 
#
#######################################################################
#
# If this CIF has been generated from an entry in the Cambridge 
# Structural Database, then it will include bibliographic, chemical, 
# crystal, experimental, refinement or atomic coordinate data resulting 
# from the CCDC's data processing and validation procedures.
#
#######################################################################

data_KEJLUI
_chemical_formula_moiety         'C30 H51 N3 O3'
_chemical_name_systematic        
'3\b-N-Methylpiperazino-16\b-morpholino-5\a-androstan-17\b-yl acetate'
_symmetry_cell_setting           orthorhombic
_symmetry_space_group_name_H-M   'P 21 21 21'
_symmetry_Int_Tables_number      19
_space_group_name_Hall           'P 2ac 2ab'
loop_
_symmetry_equiv_pos_site_id
_symmetry_equiv_pos_as_xyz
1 x,y,z
2 1/2-x,-y,1/2+z
3 -x,1/2+y,1/2-z
4 1/2+x,1/2-y,-z
_cell_length_a                   8.3847(9)
_cell_length_b                   14.5470(15)
_cell_length_c                   24.150(3)
_cell_angle_alpha                90
_cell_angle_beta                 90
_cell_angle_gamma                90
_cell_volume                     2945.63
_exptl_crystal_colour            colorless
_exptl_crystal_description       block
_cell_formula_units_Z            4
loop_
_atom_site_label
_atom_site_type_symbol
_atom_site_fract_x
_atom_site_fract_y
_atom_site_fract_z
C1 C 0.2277(3) -0.18736(18) 0.82126(11)
H1 H 0.3405 -0.1949 0.8135
H2 H 0.2133 -0.1930 0.8610
C2 C 0.1364(4) -0.2640(2) 0.79286(12)
H3 H 0.1733 -0.3227 0.8070
H4 H 0.1586 -0.2623 0.7535
C3 C -0.0434(4) -0.25655(19) 0.80189(11)
H5 H -0.0966 -0.3042 0.7799
C4 C -0.0943(4) -0.16245(19) 0.78027(11)
H6 H -0.2083 -0.1551 0.7855
H7 H -0.0724 -0.1590 0.7409
C5 C -0.0070(3) -0.08439(18) 0.80990(10)
H8 H -0.0280 -0.0933 0.8495
C6 C -0.0727(3) 0.00984(18) 0.79588(12)
H9 H -0.1873 0.0102 0.8012
H10 H -0.0513 0.0236 0.7573
C7 C 0.0035(3) 0.08315(18) 0.83243(12)
H11 H -0.0336 0.1433 0.8208
H12 H -0.0303 0.0738 0.8704
C8 C 0.1848(3) 0.08095(17) 0.82986(10)
H13 H 0.2175 0.0986 0.7924
C9 C 0.2498(3) -0.01607(16) 0.84161(10)
H14 H 0.2131 -0.0315 0.8790
C10 C 0.1763(3) -0.08999(18) 0.80325(10)
C11 C 0.4325(4) -0.01771(19) 0.84450(13)
H15 H 0.4666 -0.0778 0.8572
H16 H 0.4750 -0.0088 0.8075
C12 C 0.5027(3) 0.05552(18) 0.88288(13)
H17 H 0.4747 0.0411 0.9209
H18 H 0.6181 0.0546 0.8799
C13 C 0.4416(3) 0.15174(17) 0.86857(11)
C14 C 0.2586(3) 0.14847(17) 0.87047(10)
H19 H 0.2312 0.1255 0.9074
C15 C 0.2092(3) 0.24871(18) 0.86988(13)
H20 H 0.0996 0.2561 0.8819
H21 H 0.2214 0.2753 0.8333
C16 C 0.3266(3) 0.29233(18) 0.91154(11)
H22 H 0.2761 0.2867 0.9480
C17 C 0.4723(3) 0.22502(18) 0.91228(10)
H23 H 0.4765 0.1951 0.9486
C18 C -0.2741(5) -0.3603(3) 1.01286(13)
H24 H -0.2184 -0.3118 1.0317
H25 H -0.2396 -0.4186 1.0270
H26 H -0.3867 -0.3535 1.0188
C19 C -0.0706(4) -0.3615(2) 0.94357(13)
H27 H -0.0311 -0.4195 0.9579
H28 H -0.0168 -0.3123 0.9632
C20 C -0.0324(4) -0.35493(19) 0.88330(12)
H29 H 0.0820 -0.3600 0.8781
H30 H -0.0827 -0.4055 0.8638
C21 C -0.2578(4) -0.2634(2) 0.86954(13)
H31 H -0.3100 -0.3125 0.8493
H32 H -0.2975 -0.2054 0.8553
C22 C -0.2996(4) -0.2710(2) 0.92967(14)
H33 H -0.2547 -0.2191 0.9495
H34 H -0.4146 -0.2687 0.9338
C23 C 0.2276(4) -0.0745(2) 0.74246(11)
H35 H 0.1750 -0.1184 0.7191
H36 H 0.3410 -0.0820 0.7393
H37 H 0.1986 -0.0134 0.7312
C24 C 0.5072(4) 0.1821(2) 0.81169(11)
H38 H 0.4669 0.2421 0.8028
H39 H 0.4739 0.1391 0.7838
H40 H 0.6216 0.1840 0.8131
C25 C 0.6729(4) 0.3221(2) 0.94628(15)
C26 C 0.8139(4) 0.3784(3) 0.93078(17)
H41 H 0.7884 0.4424 0.9347
H42 H 0.8426 0.3659 0.8930
H43 H 0.9018 0.3634 0.9546
C27 C 0.3694(4) 0.4286(2) 0.85039(14)
H44 H 0.2607 0.4327 0.8368
H45 H 0.4291 0.3893 0.8255
C28 C 0.4426(5) 0.5223(2) 0.85136(18)
H46 H 0.5529 0.5175 0.8631
H47 H 0.4412 0.5478 0.8142
C29 C 0.3611(5) 0.5461(2) 0.94050(19)
H48 H 0.3015 0.5872 0.9644
H49 H 0.4699 0.5435 0.9541
C30 C 0.2870(5) 0.4492(2) 0.94359(17)
H50 H 0.2959 0.4255 0.9810
H51 H 0.1748 0.4521 0.9339
N1 N -0.2401(3) -0.35540(17) 0.95364(10)
N2 N -0.0875(3) -0.26854(14) 0.86029(9)
N3 N 0.3698(3) 0.38916(15) 0.90561(10)
O1 O 0.6206(2) 0.27227(12) 0.90344(8)
O2 O 0.6154(3) 0.31968(17) 0.99171(10)
O3 O 0.3615(3) 0.58143(16) 0.88707(15)
loop_
_geom_bond_atom_site_label_1
_geom_bond_atom_site_label_2
_geom_bond_site_symmetry_1
_geom_bond_site_symmetry_2
C1 H1 1_555 1_555
H2 C1 1_555 1_555
C2 C1 1_555 1_555
H3 C2 1_555 1_555
H4 C2 1_555 1_555
C3 C2 1_555 1_555
H5 C3 1_555 1_555
C4 C3 1_555 1_555
H6 C4 1_555 1_555
H7 C4 1_555 1_555
C5 C4 1_555 1_555
H8 C5 1_555 1_555
C6 C5 1_555 1_555
H9 C6 1_555 1_555
H10 C6 1_555 1_555
C7 C6 1_555 1_555
H11 C7 1_555 1_555
H12 C7 1_555 1_555
C8 C7 1_555 1_555
H13 C8 1_555 1_555
C9 C8 1_555 1_555
H14 C9 1_555 1_555
C10 C1 1_555 1_555
C11 C9 1_555 1_555
H15 C11 1_555 1_555
H16 C11 1_555 1_555
C12 C11 1_555 1_555
H17 C12 1_555 1_555
H18 C12 1_555 1_555
C13 C12 1_555 1_555
C14 C8 1_555 1_555
H19 C14 1_555 1_555
C15 C14 1_555 1_555
H20 C15 1_555 1_555
H21 C15 1_555 1_555
C16 C15 1_555 1_555
H22 C16 1_555 1_555
C17 C13 1_555 1_555
H23 C17 1_555 1_555
C18 H24 1_555 1_555
H25 C18 1_555 1_555
H26 C18 1_555 1_555
C19 H27 1_555 1_555
H28 C19 1_555 1_555
C20 C19 1_555 1_555
H29 C20 1_555 1_555
H30 C20 1_555 1_555
C21 H31 1_555 1_555
H32 C21 1_555 1_555
C22 C21 1_555 1_555
H33 C22 1_555 1_555
H34 C22 1_555 1_555
C23 C10 1_555 1_555
H35 C23 1_555 1_555
H36 C23 1_555 1_555
H37 C23 1_555 1_555
C24 C13 1_555 1_555
H38 C24 1_555 1_555
H39 C24 1_555 1_555
H40 C24 1_555 1_555
C25 C26 1_555 1_555
C26 H41 1_555 1_555
H42 C26 1_555 1_555
H43 C26 1_555 1_555
C27 H44 1_555 1_555
H45 C27 1_555 1_555
C28 C27 1_555 1_555
H46 C28 1_555 1_555
H47 C28 1_555 1_555
C29 H48 1_555 1_555
H49 C29 1_555 1_555
C30 C29 1_555 1_555
H50 C30 1_555 1_555
H51 C30 1_555 1_555
N1 C18 1_555 1_555
N2 C3 1_555 1_555
N3 C16 1_555 1_555
O1 C17 1_555 1_555
O2 C25 1_555 1_555
O3 C28 1_555 1_555
C5 C10 1_555 1_555
C9 C10 1_555 1_555
C13 C14 1_555 1_555
C16 C17 1_555 1_555
C19 N1 1_555 1_555
C20 N2 1_555 1_555
C21 N2 1_555 1_555
C22 N1 1_555 1_555
C25 O1 1_555 1_555
C27 N3 1_555 1_555
C29 O3 1_555 1_555
C30 N3 1_555 1_555

#END
