
#######################################################################
#
#                 Cambridge Crystallographic Data Centre
#                                CCDC 
#
#######################################################################
#
# If this CIF has been generated from an entry in the Cambridge 
# Structural Database, then it will include bibliographic, chemical, 
# crystal, experimental, refinement or atomic coordinate data resulting 
# from the CCDC's data processing and validation procedures.
#
#######################################################################

data_KEKHOY
_chemical_formula_moiety         'C12 H8 N4 O1,C7 H6 O3,3.5(H2 O1)'
_chemical_name_systematic        
'transoid-2,5-bis(3-Pyridyl)-1,3,4-oxadiazole 3-hydroxybenzoic acid hydrate'
_symmetry_cell_setting           monoclinic
_symmetry_space_group_name_H-M   'P 21/n'
_symmetry_Int_Tables_number      14
_space_group_name_Hall           '-P 2yn'
loop_
_symmetry_equiv_pos_site_id
_symmetry_equiv_pos_as_xyz
1 x,y,z
2 1/2-x,1/2+y,1/2-z
3 -x,-y,-z
4 1/2+x,1/2-y,1/2+z
_cell_length_a                   18.513(7)
_cell_length_b                   5.856(2)
_cell_length_c                   18.699(7)
_cell_angle_alpha                90
_cell_angle_beta                 97.427(5)
_cell_angle_gamma                90
_cell_volume                     2010.19
_exptl_crystal_colour            colorless
_exptl_crystal_description       Block
_cell_formula_units_Z            4
loop_
_atom_site_label
_atom_site_type_symbol
_atom_site_fract_x
_atom_site_fract_y
_atom_site_fract_z
O1 O 0.65200(11) 0.4690(4) 0.22235(12)
N1 N 0.72437(18) 0.3419(6) -0.01254(16)
N2 N 0.69975(16) 0.1342(5) 0.20086(15)
N3 N 0.68215(16) 0.1338(5) 0.27155(15)
N4 N 0.56646(16) 0.7054(5) 0.40352(16)
C1 C 0.63923(19) 0.2951(7) 0.40930(19)
H3 H 0.6624 0.1540 0.4107
C2 C 0.6150(2) 0.3819(7) 0.4699(2)
H4 H 0.6232 0.3044 0.5136
C3 C 0.5788(2) 0.5831(7) 0.4647(2)
H5 H 0.5615 0.6399 0.5057
C4 C 0.5926(2) 0.6232(7) 0.34601(19)
H6 H 0.5860 0.7078 0.3036
C5 C 0.62878(18) 0.4195(6) 0.34627(17)
C6 C 0.65518(18) 0.3322(6) 0.28163(18)
C7 C 0.68180(18) 0.3319(6) 0.17502(18)
C8 C 0.68767(18) 0.4206(6) 0.10325(17)
C9 C 0.66292(19) 0.6329(6) 0.08040(19)
H7 H 0.6428 0.7316 0.1114
C10 C 0.6686(2) 0.6959(7) 0.0105(2)
H8 H 0.6516 0.8374 -0.0068
C11 C 0.7001(2) 0.5454(7) -0.0339(2)
H9 H 0.7042 0.5905 -0.0809
C12 C 0.7190(2) 0.2822(6) 0.05503(19)
H10 H 0.7371 0.1404 0.0710
O2 O 0.26342(14) 0.9910(4) 0.11268(14)
H1 H 0.2548 0.9120 0.0763
O3 O 0.00158(14) 0.5785(5) 0.21690(13)
O4 O 0.03723(15) 0.5262(5) 0.10943(13)
H2 H 0.0073 0.4226 0.1076
C13 C 0.0418(2) 0.6260(6) 0.17241(19)
C14 C 0.09924(19) 0.8048(6) 0.18367(17)
C15 C 0.15529(18) 0.8101(6) 0.14109(16)
H11 H 0.1579 0.6995 0.1058
C16 C 0.20679(19) 0.9794(6) 0.15128(17)
C17 C 0.2022(2) 1.1456(6) 0.20283(18)
H12 H 0.2367 1.2617 0.2091
C18 C 0.1474(2) 1.1393(7) 0.2443(2)
H13 H 0.1448 1.2516 0.2790
C19 C 0.0961(2) 0.9714(7) 0.23604(19)
H14 H 0.0592 0.9684 0.2653
O5 O 0.9781(8) 0.647(4) 0.6246(6)
O6 O 0.9775(4) 0.7078(14) 0.4830(4)
O7 O 0.9793(3) 0.7454(13) 0.3501(3)
O8? O 0.9949(4) 0.6090(13) 0.3666(7)
O9? O 0.9907(6) 0.528(4) 0.5981(5)
O10? O 0.9989(4) 0.534(2) 0.4734(4)
O11? O 0.9669(5) 0.7624(17) 0.5733(10)
loop_
_geom_bond_atom_site_label_1
_geom_bond_atom_site_label_2
_geom_bond_site_symmetry_1
_geom_bond_site_symmetry_2
O1 C6 1_555 1_555
O2 H1 1_555 1_555
O3 C13 1_555 1_555
O4 H2 1_555 1_555
N1 C11 1_555 1_555
N2 N3 1_555 1_555
N3 C6 1_555 1_555
N4 C3 1_555 1_555
C1 H3 1_555 1_555
C2 C1 1_555 1_555
H4 C2 1_555 1_555
C3 C2 1_555 1_555
H5 C3 1_555 1_555
C4 N4 1_555 1_555
H6 C4 1_555 1_555
C5 C1 1_555 1_555
C6 C5 1_555 1_555
C7 O1 1_555 1_555
C8 C7 1_555 1_555
C9 C8 1_555 1_555
H7 C9 1_555 1_555
C10 C9 1_555 1_555
H8 C10 1_555 1_555
C11 C10 1_555 1_555
H9 C11 1_555 1_555
C12 N1 1_555 1_555
H10 C12 1_555 1_555
C13 O4 1_555 1_555
C14 C13 1_555 1_555
C15 C14 1_555 1_555
H11 C15 1_555 1_555
C16 O2 1_555 1_555
C17 C16 1_555 1_555
H12 C17 1_555 1_555
C18 C17 1_555 1_555
H13 C18 1_555 1_555
C19 C14 1_555 1_555
H14 C19 1_555 1_555
N2 C7 1_555 1_555
C4 C5 1_555 1_555
C8 C12 1_555 1_555
C15 C16 1_555 1_555
C18 C19 1_555 1_555

#END
