
#######################################################################
#
#                 Cambridge Crystallographic Data Centre
#                                CCDC 
#
#######################################################################
#
# If this CIF has been generated from an entry in the Cambridge 
# Structural Database, then it will include bibliographic, chemical, 
# crystal, experimental, refinement or atomic coordinate data resulting 
# from the CCDC's data processing and validation procedures.
#
#######################################################################

data_KEKPUM
_chemical_formula_moiety         'C49 H32 Br2 Cl1 N3 O3,C1 H4 O1'
_chemical_name_systematic        
"(R,R)/(S,S)-2'-(3'',3''-Diphenyl-1''-(4-bromophenyl)azetidin-2''-one)oxy-5'-chloro-3,3-diphenyl-1-(4-bromophenyl)spiro(azetidine-4,3'-indolenine)-2-one methanol solvate"
_symmetry_cell_setting           monoclinic
_symmetry_space_group_name_H-M   'P 21/c'
_symmetry_Int_Tables_number      14
_space_group_name_Hall           '-P 2ybc'
loop_
_symmetry_equiv_pos_site_id
_symmetry_equiv_pos_as_xyz
1 x,y,z
2 -x,1/2+y,1/2-z
3 -x,-y,-z
4 x,1/2-y,1/2+z
_cell_length_a                   17.945(4)
_cell_length_b                   8.9190(18)
_cell_length_c                   28.366(6)
_cell_angle_alpha                90
_cell_angle_beta                 105.70(3)
_cell_angle_gamma                90
_cell_volume                     4370.64
_exptl_crystal_colour            colorless
_exptl_crystal_description       block
_cell_formula_units_Z            4
loop_
_atom_site_label
_atom_site_type_symbol
_atom_site_fract_x
_atom_site_fract_y
_atom_site_fract_z
Br1 Br 0.22747(11) 0.29367(14) 0.36254(3)
Br2 Br 0.26071(11) -0.33613(15) -0.09546(4)
Cl1 Cl 0.6416(2) 0.3312(2) 0.23531(11)
N1 N 0.3024(5) 0.3847(5) 0.16918(16)
N2 N 0.3461(5) 0.0155(5) 0.14699(17)
N3 N 0.1472(6) -0.0745(5) 0.06921(19)
O1 O 0.2498(4) 0.6103(4) 0.13194(15)
O2 O 0.2268(5) 0.1232(4) 0.11505(15)
O3 O 0.0134(5) -0.1205(6) 0.05447(19)
C1 C 0.2828(6) 0.3640(6) 0.2143(2)
C2 C 0.3140(6) 0.2433(7) 0.2433(2)
H1 H 0.3462 0.1760 0.2333
C3 C 0.2967(6) 0.2240(7) 0.2873(2)
H2 H 0.3178 0.1431 0.3072
C4 C 0.2491(7) 0.3219(8) 0.3023(3)
C5 C 0.2191(7) 0.4431(8) 0.2733(3)
H3 H 0.1874 0.5111 0.2836
C6 C 0.2362(6) 0.4646(7) 0.2281(2)
H4 H 0.2160 0.5460 0.2083
C7 C 0.2826(6) 0.4929(6) 0.13328(19)
C8 C 0.3205(6) 0.4061(5) 0.10004(19)
C9 C 0.3412(6) 0.2830(6) 0.14322(19)
C10 C 0.3024(8) 0.1269(6) 0.1339(2)
C11 C 0.4228(7) 0.0783(7) 0.1682(2)
C12 C 0.4218(6) 0.2349(6) 0.1673(2)
C13 C 0.4892(7) 0.3143(7) 0.1883(2)
H5 H 0.4888 0.4186 0.1884
C14 C 0.5578(7) 0.2361(8) 0.2094(3)
C15 C 0.5575(7) 0.0814(8) 0.2103(3)
H6 H 0.6031 0.0300 0.2245
C16 C 0.4884(7) -0.0003(7) 0.1899(2)
H7 H 0.4878 -0.1045 0.1913
C17 C 0.3929(6) 0.4811(6) 0.0927(2)
C18 C 0.4161(7) 0.6226(7) 0.1115(2)
H8 H 0.3860 0.6755 0.1278
C19 C 0.4843(9) 0.6855(10) 0.1059(3)
H9 H 0.4969 0.7824 0.1174
C20 C 0.5348(8) 0.6112(10) 0.0840(3)
H10 H 0.5810 0.6544 0.0818
C21 C 0.5121(9) 0.4689(11) 0.0656(3)
H11 H 0.5439 0.4132 0.0512
C22 C 0.4413(9) 0.4097(10) 0.0687(3)
H12 H 0.4257 0.3176 0.0540
C23 C 0.2671(6) 0.3562(6) 0.0511(2)
C24 C 0.2793(6) 0.2259(6) 0.0279(2)
H13 H 0.3220 0.1664 0.0421
C25 C 0.2288(6) 0.1824(6) -0.0161(2)
H14 H 0.2381 0.0955 -0.0317
C26 C 0.1647(7) 0.2686(7) -0.0366(3)
H15 H 0.1299 0.2384 -0.0656
C27 C 0.1523(7) 0.3967(8) -0.0146(3)
H16 H 0.1090 0.4548 -0.0288
C28 C 0.2046(6) 0.4435(7) 0.0296(2)
H17 H 0.1966 0.5334 0.0440
C29 C 0.1848(7) -0.0135(6) 0.1179(2)
H18 H 0.2166 -0.0880 0.1398
C30 C 0.1055(7) 0.0090(6) 0.1276(2)
C31 C 0.0780(9) -0.0720(7) 0.0776(3)
C32 C 0.1759(8) -0.1345(6) 0.0315(2)
C33 C 0.1238(7) -0.1580(7) -0.0141(2)
H19 H 0.0719 -0.1339 -0.0187
C34 C 0.1477(9) -0.2153(8) -0.0516(3)
H20 H 0.1126 -0.2320 -0.0819
C35 C 0.2242(9) -0.2481(8) -0.0443(3)
C36 C 0.2803(7) -0.2246(7) 0.0007(2)
H21 H 0.3325 -0.2454 0.0050
C37 C 0.2513(7) -0.1669(6) 0.0388(2)
H22 H 0.2852 -0.1511 0.0696
C38 C 0.0934(7) -0.0749(7) 0.1710(2)
C39 C 0.1539(7) -0.0872(8) 0.2129(3)
H23 H 0.2028 -0.0501 0.2140
C40 C 0.1389(10) -0.1597(11) 0.2550(4)
H24 H 0.1771 -0.1647 0.2846
C41 C 0.0691(10) -0.2193(11) 0.2506(4)
H25 H 0.0615 -0.2725 0.2772
C42 C 0.0097(8) -0.2079(10) 0.2109(4)
H26 H -0.0385 -0.2480 0.2100
C43 C 0.0229(8) -0.1321(9) 0.1701(3)
H27 H -0.0178 -0.1211 0.1420
C44 C 0.0788(7) 0.1715(6) 0.1247(2)
C45 C 0.0692(7) 0.2538(7) 0.0819(3)
H28 H 0.0776 0.2073 0.0544
C46 C 0.0478(7) 0.4015(8) 0.0791(3)
H29 H 0.0426 0.4547 0.0502
C47 C 0.0341(7) 0.4715(8) 0.1193(3)
H30 H 0.0195 0.5718 0.1176
C48 C 0.0420(7) 0.3912(8) 0.1621(3)
H31 H 0.0291 0.4346 0.1887
C49 C 0.0702(7) 0.2417(7) 0.1651(3)
H32 H 0.0829 0.1919 0.1950
O4 O 0.4789(11) 0.0164(18) 0.0298(5)
H33 H 0.4591 0.0984 0.0213
C50 C 0.5622(12) 0.031(2) 0.0563(8)
H34 H 0.5820 0.1235 0.0469
H35 H 0.5905 -0.0515 0.0481
H36 H 0.5680 0.0322 0.0909
loop_
_geom_bond_atom_site_label_1
_geom_bond_atom_site_label_2
_geom_bond_site_symmetry_1
_geom_bond_site_symmetry_2
Br1 C4 1_555 1_555
Br2 C35 1_555 1_555
Cl1 C14 1_555 1_555
N1 C1 1_555 1_555
N2 C10 1_555 1_555
N3 C29 1_555 1_555
O1 C7 1_555 1_555
O2 C10 1_555 1_555
O3 C31 1_555 1_555
C1 C2 1_555 1_555
C2 H1 1_555 1_555
C3 C2 1_555 1_555
H2 C3 1_555 1_555
C4 C3 1_555 1_555
C5 C4 1_555 1_555
H3 C5 1_555 1_555
C6 C1 1_555 1_555
H4 C6 1_555 1_555
C7 N1 1_555 1_555
C8 C7 1_555 1_555
C9 N1 1_555 1_555
C10 C9 1_555 1_555
C11 N2 1_555 1_555
C12 C9 1_555 1_555
C13 C12 1_555 1_555
H5 C13 1_555 1_555
C14 C13 1_555 1_555
C15 C14 1_555 1_555
H6 C15 1_555 1_555
C16 C11 1_555 1_555
H7 C16 1_555 1_555
C17 C8 1_555 1_555
C18 C17 1_555 1_555
H8 C18 1_555 1_555
C19 C18 1_555 1_555
H9 C19 1_555 1_555
C20 C19 1_555 1_555
H10 C20 1_555 1_555
C21 C20 1_555 1_555
H11 C21 1_555 1_555
C22 C17 1_555 1_555
H12 C22 1_555 1_555
C23 C8 1_555 1_555
C24 C23 1_555 1_555
H13 C24 1_555 1_555
C25 C24 1_555 1_555
H14 C25 1_555 1_555
C26 C25 1_555 1_555
H15 C26 1_555 1_555
C27 C26 1_555 1_555
H16 C27 1_555 1_555
C28 C23 1_555 1_555
H17 C28 1_555 1_555
C29 O2 1_555 1_555
H18 C29 1_555 1_555
C30 C29 1_555 1_555
C31 N3 1_555 1_555
C32 N3 1_555 1_555
C33 C32 1_555 1_555
H19 C33 1_555 1_555
C34 C33 1_555 1_555
H20 C34 1_555 1_555
C35 C34 1_555 1_555
C36 C35 1_555 1_555
H21 C36 1_555 1_555
C37 C32 1_555 1_555
H22 C37 1_555 1_555
C38 C30 1_555 1_555
C39 C38 1_555 1_555
H23 C39 1_555 1_555
C40 C39 1_555 1_555
H24 C40 1_555 1_555
C41 C40 1_555 1_555
H25 C41 1_555 1_555
C42 C41 1_555 1_555
H26 C42 1_555 1_555
C43 C38 1_555 1_555
H27 C43 1_555 1_555
C44 C30 1_555 1_555
C45 C44 1_555 1_555
H28 C45 1_555 1_555
C46 C45 1_555 1_555
H29 C46 1_555 1_555
C47 C46 1_555 1_555
H30 C47 1_555 1_555
C48 C47 1_555 1_555
H31 C48 1_555 1_555
C49 C44 1_555 1_555
H32 C49 1_555 1_555
O4 H33 1_555 1_555
C50 O4 1_555 1_555
H34 C50 1_555 1_555
H35 C50 1_555 1_555
H36 C50 1_555 1_555
C5 C6 1_555 1_555
C8 C9 1_555 1_555
C11 C12 1_555 1_555
C15 C16 1_555 1_555
C21 C22 1_555 1_555
C27 C28 1_555 1_555
C30 C31 1_555 1_555
C36 C37 1_555 1_555
C42 C43 1_555 1_555
C48 C49 1_555 1_555

#END
