
#######################################################################
#
#                 Cambridge Crystallographic Data Centre
#                                CCDC 
#
#######################################################################
#
# If this CIF has been generated from an entry in the Cambridge 
# Structural Database, then it will include bibliographic, chemical, 
# crystal, experimental, refinement or atomic coordinate data resulting 
# from the CCDC's data processing and validation procedures.
#
#######################################################################

data_KEKROI
_chemical_formula_moiety         'C26 H24 N6 O10,0.5(C1 H1 Cl3)'
_chemical_name_systematic        
'(+-)-Diethyl 2,9-dinitro-6,13-dioxo-5,7,12,13b,13c,14-hexahydro-5a,6a,12a,13a-tetra-azabenzo(5,6)azuleno(2,1,8-ija)benzo(f)azulene-13b,13c-dicarboxylate chloroform solvate'
_symmetry_cell_setting           monoclinic
_symmetry_space_group_name_H-M   'P 21/n'
_symmetry_Int_Tables_number      14
_space_group_name_Hall           '-P 2yn'
loop_
_symmetry_equiv_pos_site_id
_symmetry_equiv_pos_as_xyz
1 x,y,z
2 1/2-x,1/2+y,1/2-z
3 -x,-y,-z
4 1/2+x,1/2-y,1/2+z
_cell_length_a                   9.9450(8)
_cell_length_b                   22.6112(17)
_cell_length_c                   25.928(2)
_cell_angle_alpha                90
_cell_angle_beta                 95.379(2)
_cell_angle_gamma                90
_cell_volume                     5804.71
_exptl_crystal_colour            colorless
_exptl_crystal_description       block
_cell_formula_units_Z            8
loop_
_atom_site_label
_atom_site_type_symbol
_atom_site_fract_x
_atom_site_fract_y
_atom_site_fract_z
C1 C -0.2766(3) 0.20146(13) 0.06220(11)
C2 C -0.3371(3) 0.24901(14) 0.08336(10)
H1 H -0.4207 0.2451 0.0964
C3 C -0.2715(2) 0.30255(13) 0.08483(9)
H2 H -0.3115 0.3353 0.0988
C4 C -0.1465(2) 0.30844(11) 0.06578(9)
C5 C -0.0867(2) 0.25912(11) 0.04437(9)
C6 C -0.1527(3) 0.20553(12) 0.04258(10)
H3 H -0.1142 0.1725 0.0283
C7 C -0.0766(2) 0.36757(11) 0.06850(9)
H4 H -0.0623 0.3800 0.0336
H5 H -0.1358 0.3964 0.0825
C8 C 0.0511(2) 0.26391(11) 0.02430(9)
H6 H 0.0748 0.2260 0.0101
H7 H 0.0470 0.2927 -0.0035
C9 C 0.0533(2) 0.36243(9) 0.15335(9)
C10 C 0.2335(2) 0.24160(12) 0.09338(9)
C11 C 0.1734(2) 0.34157(10) 0.08254(9)
C12 C 0.2410(3) 0.37682(12) 0.04090(10)
C13 C 0.2141(4) 0.44403(19) -0.02909(15)
H8 H 0.2689 0.4773 -0.0160
H9 H 0.2709 0.4173 -0.0467
C14 C 0.1075(5) 0.46420(18) -0.06384(16)
H10 H 0.0545 0.4311 -0.0771
H11 H 0.1434 0.4846 -0.0920
H12 H 0.0517 0.4907 -0.0462
C15 C 0.2687(2) 0.33335(10) 0.13344(9)
C16 C 0.3886(3) 0.37753(13) 0.14160(10)
C17 C 0.4401(4) 0.48026(15) 0.14113(15)
H13 H 0.3931 0.5158 0.1502
H14 H 0.5057 0.4705 0.1699
C18 C 0.5100(4) 0.49183(17) 0.09586(17)
H15 H 0.5546 0.4565 0.0861
H16 H 0.5756 0.5225 0.1035
H17 H 0.4462 0.5042 0.0679
C19 C 0.2158(3) 0.33303(10) 0.22757(9)
H18 H 0.1567 0.3552 0.2482
H19 H 0.3074 0.3466 0.2367
C20 C 0.3773(2) 0.24197(12) 0.17645(10)
H20 H 0.4488 0.2666 0.1929
H21 H 0.4187 0.2061 0.1649
C21 C 0.2070(2) 0.26842(10) 0.24071(9)
C22 C 0.2819(2) 0.22580(11) 0.21626(9)
C23 C 0.2691(3) 0.16699(12) 0.22981(11)
H22 H 0.3196 0.1386 0.2143
C24 C 0.1832(3) 0.14940(12) 0.26591(11)
H23 H 0.1754 0.1098 0.2748
C25 C 0.1097(3) 0.19222(12) 0.28825(10)
C26 C 0.1209(2) 0.25091(11) 0.27650(9)
H24 H 0.0705 0.2789 0.2926
N1 N -0.3450(3) 0.14476(14) 0.06111(13)
N2 N 0.05344(19) 0.36806(8) 0.10010(7)
N3 N 0.15613(19) 0.28140(9) 0.06441(7)
N4 N 0.17840(19) 0.34524(8) 0.17285(7)
N5 N 0.31361(19) 0.27332(9) 0.13095(8)
N6 N 0.0114(3) 0.17446(13) 0.32456(9)
O1 O -0.4474(3) 0.13966(13) 0.08265(17)
O2 O -0.2980(3) 0.10402(13) 0.03855(12)
O3 O -0.04188(16) 0.37313(7) 0.17806(6)
O4 O 0.23753(19) 0.18868(8) 0.08677(7)
O5 O 0.3556(2) 0.36684(9) 0.03319(7)
O6 O 0.1587(2) 0.41282(10) 0.01463(8)
O7 O 0.5012(2) 0.36382(10) 0.15664(9)
O8 O 0.34291(19) 0.43188(8) 0.13299(8)
O9 O -0.0629(2) 0.21234(10) 0.33973(7)
O10 O 0.0091(3) 0.12261(11) 0.33763(11)
C27 C 0.6895(3) 0.69573(12) 0.29201(10)
C28 C 0.7600(3) 0.65294(12) 0.26880(11)
H25 H 0.7509 0.6132 0.2772
C29 C 0.8453(3) 0.67050(12) 0.23250(11)
H26 H 0.8934 0.6419 0.2162
C30 C 0.8612(2) 0.72923(11) 0.21976(9)
C31 C 0.7884(2) 0.77204(11) 0.24523(9)
C32 C 0.7017(2) 0.75448(11) 0.28108(9)
H27 H 0.6523 0.7824 0.2976
C33 C 0.9564(3) 0.74589(12) 0.18021(10)
H28 H 1.0282 0.7701 0.1970
H29 H 0.9974 0.7101 0.1682
C34 C 0.7981(3) 0.83692(10) 0.23263(9)
H30 H 0.7399 0.8591 0.2536
H31 H 0.8901 0.8502 0.2415
C35 C 0.8166(2) 0.74741(12) 0.09704(9)
C36 C 0.6326(3) 0.86493(10) 0.15880(9)
C37 C 0.8497(2) 0.83821(11) 0.13861(9)
C38 C 0.9687(3) 0.88214(14) 0.14632(11)
C39 C 1.0198(4) 0.98573(17) 0.1463(2)
H32 H 1.1014 0.9745 0.1310
H33 H 0.9821 1.0204 0.1282
C40 C 1.0519(7) 0.9994(2) 0.2017(2)
H36 H 0.9702 1.0087 0.2170
H37 H 1.1122 1.0326 0.2052
H38 H 1.0943 0.9657 0.2189
C42 C 0.7536(3) 0.84710(11) 0.08773(9)
C43 C 0.8195(3) 0.88404(13) 0.04682(11)
C44 C 0.7858(4) 0.9522(2) -0.02241(17)
H42 H 0.8486 0.9828 -0.0095
H43 H 0.8323 0.9254 -0.0439
C45 C 0.6751(5) 0.9774(2) -0.05109(19)
H44 H 0.6150 0.9467 -0.0645
H45 H 0.7054 0.9997 -0.0793
H46 H 0.6285 1.0031 -0.0293
C46 C 0.6346(2) 0.77079(12) 0.02787(10)
H47 H 0.6594 0.7337 0.0126
H48 H 0.6293 0.8006 0.0009
C47 C 0.5028(3) 0.87162(12) 0.07488(10)
H49 H 0.5159 0.8855 0.0403
H50 H 0.4429 0.8993 0.0899
C48 C 0.4965(2) 0.76415(12) 0.04806(9)
C49 C 0.4357(3) 0.81182(13) 0.07077(9)
C50 C 0.3107(3) 0.80443(16) 0.08968(10)
H51 H 0.2698 0.8364 0.1045
C51 C 0.2467(3) 0.75058(17) 0.08687(11)
H52 H 0.1630 0.7457 0.0996
C52 C 0.3097(3) 0.70386(15) 0.06461(11)
C53 C 0.4333(3) 0.70982(13) 0.04484(10)
H53 H 0.4731 0.6778 0.0297
N7 N 0.5929(3) 0.67813(12) 0.32893(9)
N8 N 0.8939(2) 0.77789(9) 0.13533(8)
N9 N 0.7597(2) 0.84924(8) 0.17827(7)
N10 N 0.7385(2) 0.78740(9) 0.06818(7)
N11 N 0.6328(2) 0.87173(9) 0.10601(7)
N12 N 0.2454(3) 0.64638(18) 0.06205(15)
O11 O 0.5931(3) 0.62706(11) 0.34349(10)
O12 O 0.5165(2) 0.71583(10) 0.34316(7)
O13 O 0.82086(19) 0.69468(8) 0.08904(7)
O14 O 0.53675(17) 0.87298(7) 0.18415(6)
O15 O 1.0833(2) 0.86735(10) 0.15789(9)
O16 O 0.9213(2) 0.93663(9) 0.14131(8)
O17 O 0.9345(2) 0.87612(9) 0.03894(8)
O18 O 0.7345(2) 0.91965(10) 0.02138(9)
O19 O 0.2904(3) 0.60635(14) 0.03755(13)
O20 O 0.1468(4) 0.63943(17) 0.08494(19)
C54 C 0.5286(4) -0.01242(15) 0.25082(13)
H54 H 0.515(3) -0.0549(15) 0.2449(11)
Cl1 Cl 0.5031(2) 0.02460(6) 0.19247(5)
Cl2 Cl 0.69296(12) -0.00038(5) 0.28034(6)
Cl3 Cl 0.41603(14) 0.01270(6) 0.29364(6)
H34? H 1.1119 0.9714 0.1469
H35? H 1.0108 1.0095 0.1769
C41? C 0.993(8) 1.007(3) 0.0910(10)
H39? H 0.8991 1.0160 0.0837
H40? H 1.0193 0.9774 0.0677
H41? H 1.0452 1.0426 0.0866
Cl4? Cl 0.6042(13) 0.0064(6) 0.1943(4)
Cl5? Cl 0.3550(8) -0.0036(11) 0.2359(8)
Cl6? Cl 0.583(2) 0.0315(11) 0.3003(5)
loop_
_geom_bond_atom_site_label_1
_geom_bond_atom_site_label_2
_geom_bond_site_symmetry_1
_geom_bond_site_symmetry_2
C1 C2 1_555 1_555
C2 H1 1_555 1_555
C3 C2 1_555 1_555
H2 C3 1_555 1_555
C4 C3 1_555 1_555
C5 C4 1_555 1_555
C6 C1 1_555 1_555
H3 C6 1_555 1_555
C7 C4 1_555 1_555
H4 C7 1_555 1_555
H5 C7 1_555 1_555
C8 C5 1_555 1_555
H6 C8 1_555 1_555
H7 C8 1_555 1_555
C9 N2 1_555 1_555
C10 N3 1_555 1_555
C11 C12 1_555 1_555
C12 O5 1_555 1_555
C13 H8 1_555 1_555
H9 C13 1_555 1_555
C14 C13 1_555 1_555
H10 C14 1_555 1_555
H11 C14 1_555 1_555
H12 C14 1_555 1_555
C15 C11 1_555 1_555
C16 C15 1_555 1_555
C17 H13 1_555 1_555
H14 C17 1_555 1_555
C18 C17 1_555 1_555
H15 C18 1_555 1_555
H16 C18 1_555 1_555
H17 C18 1_555 1_555
C19 H18 1_555 1_555
H19 C19 1_555 1_555
C20 H20 1_555 1_555
H21 C20 1_555 1_555
C21 C19 1_555 1_555
C22 C20 1_555 1_555
C23 C22 1_555 1_555
H22 C23 1_555 1_555
C24 C23 1_555 1_555
H23 C24 1_555 1_555
C25 C24 1_555 1_555
C26 C21 1_555 1_555
H24 C26 1_555 1_555
C27 C28 1_555 1_555
C28 H25 1_555 1_555
C29 C28 1_555 1_555
H26 C29 1_555 1_555
C30 C29 1_555 1_555
C31 C30 1_555 1_555
C32 C27 1_555 1_555
H27 C32 1_555 1_555
C33 C30 1_555 1_555
H28 C33 1_555 1_555
H29 C33 1_555 1_555
C34 C31 1_555 1_555
H30 C34 1_555 1_555
H31 C34 1_555 1_555
C35 N8 1_555 1_555
C36 N9 1_555 1_555
C37 C38 1_555 1_555
C38 O15 1_555 1_555
C39 H32 1_555 1_555
H33 C39 1_555 1_555
C40 C39 1_555 1_555
H36 C40 1_555 1_555
H37 C40 1_555 1_555
H38 C40 1_555 1_555
C42 C37 1_555 1_555
C43 C42 1_555 1_555
C44 H42 1_555 1_555
H43 C44 1_555 1_555
C45 C44 1_555 1_555
H44 C45 1_555 1_555
H45 C45 1_555 1_555
H46 C45 1_555 1_555
C46 H47 1_555 1_555
H48 C46 1_555 1_555
C47 H49 1_555 1_555
H50 C47 1_555 1_555
C48 C46 1_555 1_555
C49 C47 1_555 1_555
C50 C49 1_555 1_555
H51 C50 1_555 1_555
C51 C50 1_555 1_555
H52 C51 1_555 1_555
C52 C51 1_555 1_555
C53 C48 1_555 1_555
H53 C53 1_555 1_555
C54 H54 1_555 1_555
Cl1 C54 1_555 1_555
Cl2 C54 1_555 1_555
Cl3 C54 1_555 1_555
N1 C1 1_555 1_555
N2 C7 1_555 1_555
N3 C8 1_555 1_555
N4 C9 1_555 1_555
N5 C10 1_555 1_555
N6 C25 1_555 1_555
N7 C27 1_555 1_555
N8 C33 1_555 1_555
N9 C34 1_555 1_555
N10 C35 1_555 1_555
N11 C36 1_555 1_555
N12 C52 1_555 1_555
O1 N1 1_555 1_555
O2 N1 1_555 1_555
O3 C9 1_555 1_555
O4 C10 1_555 1_555
O6 C12 1_555 1_555
O7 C16 1_555 1_555
O8 C16 1_555 1_555
O9 N6 1_555 1_555
O10 N6 1_555 1_555
O11 N7 1_555 1_555
O12 N7 1_555 1_555
O13 C35 1_555 1_555
O14 C36 1_555 1_555
O16 C38 1_555 1_555
O17 C43 1_555 1_555
O18 C43 1_555 1_555
O19 N12 1_555 1_555
O20 N12 1_555 1_555
C5 C6 1_555 1_555
C11 N2 1_555 1_555
C11 N3 1_555 1_555
C13 O6 1_555 1_555
C15 N4 1_555 1_555
C15 N5 1_555 1_555
C17 O8 1_555 1_555
C19 N4 1_555 1_555
C20 N5 1_555 1_555
C21 C22 1_555 1_555
C25 C26 1_555 1_555
C31 C32 1_555 1_555
C37 N8 1_555 1_555
C37 N9 1_555 1_555
C39 O16 1_555 1_555
C42 N10 1_555 1_555
C42 N11 1_555 1_555
C44 O18 1_555 1_555
C46 N10 1_555 1_555
C47 N11 1_555 1_555
C48 C49 1_555 1_555
C52 C53 1_555 1_555

#END
