
#######################################################################
#
#                 Cambridge Crystallographic Data Centre
#                                CCDC 
#
#######################################################################
#
# If this CIF has been generated from an entry in the Cambridge 
# Structural Database, then it will include bibliographic, chemical, 
# crystal, experimental, refinement or atomic coordinate data resulting 
# from the CCDC's data processing and validation procedures.
#
#######################################################################

data_KEKSOJ
_chemical_formula_moiety         'C28 H30 N4 O8,C1 H1 Cl3,1.5(H2 O1)'
_chemical_name_systematic        
'Diethyl 1,4-dimethoxy-6,13-dioxo-5,7,12,13b,13c,14-hexahydro-5a,6a,12a,13a-tetra-azabenzo(5,6)azuleno(2,1,8-ija)benzo(f)azulene-13b,13c-dicarboxylate chloroform solvate sesquihydrate'
_symmetry_cell_setting           orthorhombic
_symmetry_space_group_name_H-M   'P c c n'
_symmetry_Int_Tables_number      56
_space_group_name_Hall           '-P 2ab 2ac'
loop_
_symmetry_equiv_pos_site_id
_symmetry_equiv_pos_as_xyz
1 x,y,z
2 1/2-x,1/2-y,z
3 -x,1/2+y,1/2-z
4 1/2+x,-y,1/2-z
5 -x,-y,-z
6 1/2+x,1/2+y,-z
7 x,1/2-y,1/2+z
8 1/2-x,y,1/2+z
_cell_length_a                   22.813(5)
_cell_length_b                   14.951(3)
_cell_length_c                   18.936(4)
_cell_angle_alpha                90
_cell_angle_beta                 90
_cell_angle_gamma                90
_cell_volume                     6458.64
_cell_formula_units_Z            8
loop_
_atom_site_label
_atom_site_type_symbol
_atom_site_fract_x
_atom_site_fract_y
_atom_site_fract_z
C1 C 0.6909(2) 0.8449(3) 0.1418(2)
H1 H 0.6762 0.9024 0.1559
H2 H 0.6826 0.8354 0.0927
H3 H 0.7325 0.8428 0.1493
C2 C 0.6886(2) 0.8616(3) 0.5100(2)
H4 H 0.7299 0.8682 0.5022
H5 H 0.6813 0.8544 0.5597
H6 H 0.6685 0.9138 0.4932
C3 C 0.66829(16) 0.7822(2) 0.25450(19)
C4 C 0.70063(17) 0.8470(2) 0.2895(2)
H7 H 0.7218 0.8890 0.2638
C5 C 0.70147(17) 0.8492(2) 0.3623(2)
H8 H 0.7228 0.8933 0.3856
C6 C 0.67088(15) 0.7865(2) 0.40069(19)
C7 C 0.63937(13) 0.7186(2) 0.36596(18)
C8 C 0.63774(14) 0.7170(2) 0.29248(18)
C9 C 0.60001(14) 0.6506(2) 0.25206(18)
H9 H 0.5592 0.6636 0.2619
H10 H 0.6062 0.6600 0.2019
C10 C 0.60535(14) 0.6533(2) 0.41091(17)
H11 H 0.6154 0.6636 0.4600
H12 H 0.5639 0.6658 0.4055
C11 C 0.65598(14) 0.5093(2) 0.23779(17)
C12 C 0.65269(13) 0.5053(2) 0.43060(17)
C13 C 0.59127(13) 0.5169(2) 0.33275(16)
C14 C 0.52342(15) 0.5118(2) 0.3337(2)
C15 C 0.43845(19) 0.5242(4) 0.4059(3)
H13 H 0.4204 0.4933 0.3665
H14 H 0.4275 0.4933 0.4490
C16 C 0.4176(2) 0.6146(4) 0.4085(4)
H15 H 0.4349 0.6446 0.4482
H16 H 0.3758 0.6146 0.4134
H17 H 0.4283 0.6450 0.3658
C17 C 0.62262(14) 0.4226(2) 0.33280(17)
C18 C 0.58021(16) 0.3430(2) 0.3240(2)
C19 C 0.5092(3) 0.2549(5) 0.3773(4)
H18 H 0.4910 0.2581 0.3311
H19 H 0.5267 0.1962 0.3825
C20 C 0.4666(3) 0.2678(5) 0.4300(4)
H20 H 0.4828 0.2528 0.4752
H21 H 0.4334 0.2300 0.4206
H22 H 0.4543 0.3292 0.4301
C21 C 0.70737(16) 0.3646(2) 0.25915(19)
H23 H 0.7190 0.3679 0.2099
H24 H 0.6926 0.3047 0.2679
C22 C 0.76055(15) 0.3803(2) 0.3050(2)
C23 C 0.81429(18) 0.3997(3) 0.2737(2)
H25 H 0.8173 0.4017 0.2248
C24 C 0.86327(18) 0.4159(3) 0.3149(3)
H26 H 0.8990 0.4286 0.2935
C25 C 0.85944(18) 0.4132(3) 0.3869(3)
H27 H 0.8923 0.4246 0.4145
C26 C 0.80606(16) 0.3933(3) 0.4186(2)
H28 H 0.8036 0.3909 0.4676
C27 C 0.75665(15) 0.3770(2) 0.3785(2)
C28 C 0.69890(15) 0.3561(2) 0.41434(19)
H29 H 0.6856 0.2977 0.3988
H30 H 0.7052 0.3530 0.4649
N1 N 0.61063(11) 0.55629(17) 0.26771(13)
N2 N 0.61549(11) 0.55876(17) 0.39461(14)
N3 N 0.66049(12) 0.42900(18) 0.27196(14)
N4 N 0.65279(11) 0.42212(17) 0.39978(13)
O1 O 0.66343(13) 0.77727(18) 0.18243(14)
O2 O 0.66797(13) 0.78561(17) 0.47338(14)
O3 O 0.68553(11) 0.53384(17) 0.18799(13)
O4 O 0.68031(10) 0.52655(16) 0.48336(12)
O5 O 0.50263(11) 0.5226(2) 0.39776(15)
O6 O 0.49567(12) 0.4970(3) 0.28255(16)
O7 O 0.55488(14) 0.3239(2) 0.38308(17)
O8 O 0.57233(16) 0.3062(2) 0.26920(18)
C29 C 0.53926(19) 0.4196(3) 0.1259(2)
H31 H 0.5474 0.4251 0.1765
Cl1 Cl 0.59630(8) 0.36011(12) 0.08875(10)
Cl2 Cl 0.47226(7) 0.36603(12) 0.11704(11)
Cl3 Cl 0.53577(8) 0.52735(10) 0.09122(10)
O10 O 0.74187(18) 0.4350(2) 0.59243(18)
H33 H 0.7649(17) 0.468(2) 0.616(2)
H34 H 0.7277(19) 0.464(2) 0.5580(17)
O9? O 0.7752(5) 0.2505(11) 0.5713(6)
H32? H 0.7875 0.2212 0.6049
H35? H 0.760(5) 0.300(4) 0.584(5)
loop_
_geom_bond_atom_site_label_1
_geom_bond_atom_site_label_2
_geom_bond_site_symmetry_1
_geom_bond_site_symmetry_2
C1 H1 1_555 1_555
H2 C1 1_555 1_555
H3 C1 1_555 1_555
C2 H4 1_555 1_555
H5 C2 1_555 1_555
H6 C2 1_555 1_555
C3 C4 1_555 1_555
C4 H7 1_555 1_555
C5 C4 1_555 1_555
H8 C5 1_555 1_555
C6 C5 1_555 1_555
C7 C6 1_555 1_555
C8 C3 1_555 1_555
C9 C8 1_555 1_555
H9 C9 1_555 1_555
H10 C9 1_555 1_555
C10 C7 1_555 1_555
H11 C10 1_555 1_555
H12 C10 1_555 1_555
C11 N1 1_555 1_555
C12 N2 1_555 1_555
C13 C14 1_555 1_555
C14 O5 1_555 1_555
C15 H13 1_555 1_555
H14 C15 1_555 1_555
C16 C15 1_555 1_555
H15 C16 1_555 1_555
H16 C16 1_555 1_555
H17 C16 1_555 1_555
C17 C13 1_555 1_555
C18 C17 1_555 1_555
C19 H18 1_555 1_555
H19 C19 1_555 1_555
C20 C19 1_555 1_555
H20 C20 1_555 1_555
H21 C20 1_555 1_555
H22 C20 1_555 1_555
C21 H23 1_555 1_555
H24 C21 1_555 1_555
C22 C21 1_555 1_555
C23 C22 1_555 1_555
H25 C23 1_555 1_555
C24 C23 1_555 1_555
H26 C24 1_555 1_555
C25 C24 1_555 1_555
H27 C25 1_555 1_555
C26 C25 1_555 1_555
H28 C26 1_555 1_555
C27 C22 1_555 1_555
C28 C27 1_555 1_555
H29 C28 1_555 1_555
H30 C28 1_555 1_555
C29 H31 1_555 1_555
Cl1 C29 1_555 1_555
Cl2 C29 1_555 1_555
Cl3 C29 1_555 1_555
N1 C9 1_555 1_555
N2 C10 1_555 1_555
N3 C11 1_555 1_555
N4 C12 1_555 1_555
O1 C1 1_555 1_555
O2 C2 1_555 1_555
O3 C11 1_555 1_555
O4 C12 1_555 1_555
O5 C15 1_555 1_555
O6 C14 1_555 1_555
O7 C18 1_555 1_555
O8 C18 1_555 1_555
O10 H33 1_555 1_555
H34 O10 1_555 1_555
C3 O1 1_555 1_555
C6 O2 1_555 1_555
C7 C8 1_555 1_555
C13 N1 1_555 1_555
C13 N2 1_555 1_555
C17 N3 1_555 1_555
C17 N4 1_555 1_555
C19 O7 1_555 1_555
C21 N3 1_555 1_555
C26 C27 1_555 1_555
C28 N4 1_555 1_555

#END
