
#######################################################################
#
#                 Cambridge Crystallographic Data Centre
#                                CCDC 
#
#######################################################################
#
# If this CIF has been generated from an entry in the Cambridge 
# Structural Database, then it will include bibliographic, chemical, 
# crystal, experimental, refinement or atomic coordinate data resulting 
# from the CCDC's data processing and validation procedures.
#
#######################################################################

data_KEKULN10
_chemical_name_common            Kekulene
_chemical_formula_moiety         'C48 H24'
_chemical_name_systematic        
Cyclo(d.e.d.e.d.e.d.e.d.e.d.e)dodecakis-benzene
_symmetry_cell_setting           monoclinic
_symmetry_space_group_name_H-M   'C 2/c'
_symmetry_Int_Tables_number      15
_space_group_name_Hall           '-C 2yn'
loop_
_symmetry_equiv_pos_site_id
_symmetry_equiv_pos_as_xyz
1 x,y,z
2 1/2+x,1/2+y,z
3 -x,y,1/2-z
4 1/2-x,1/2+y,1/2-z
5 -x,-y,-z
6 1/2-x,1/2-y,-z
7 x,-y,1/2+z
8 1/2+x,1/2-y,1/2+z
_cell_length_a                   27.951(4)
_cell_length_b                   4.579(1)
_cell_length_c                   22.680(2)
_cell_angle_alpha                90
_cell_angle_beta                 109.64(1)
_cell_angle_gamma                90
_cell_volume                     2733.89
_exptl_crystal_colour            golden-yellow
_cell_formula_units_Z            4
loop_
_atom_site_label
_atom_site_type_symbol
_atom_site_fract_x
_atom_site_fract_y
_atom_site_fract_z
C1 C 0.17207 1.08970 0.27390
C2 C 0.12601 0.98740 0.27051
C3 C 0.11987 0.77400 0.31410
C4 C 0.07298 0.66050 0.31217
C5 C 0.06793 0.45290 0.35486
C6 C 0.01930 0.33880 0.35304
C7 C 0.01570 0.14070 0.39552
C8 C 0.05953 0.03140 0.44481
C9 C 0.05637 -0.17260 0.48900
C10 C 0.09979 -0.27650 0.53532
C11 C 0.09739 -0.48500 0.58167
C12 C 0.13933 -0.58740 0.62609
C13 C 0.18988 -0.49440 0.63015
C14 C 0.23430 -0.59200 0.67536
C15 C 0.21776 0.99110 0.32139
C16 C 0.21391 0.78530 0.36621
C17 C 0.16411 0.67400 0.36212
C18 C 0.15855 0.46800 0.40406
C19 C 0.11232 0.35230 0.40228
C20 C 0.10788 0.13670 0.44716
C21 C 0.15044 0.02870 0.49298
C22 C 0.14836 -0.17630 0.53720
C23 C 0.19369 -0.28990 0.58519
C24 C 0.25839 0.69340 0.41179
H1 H 0.17510 1.24800 0.24290
H2 H 0.09490 1.05900 0.23780
H3 H 0.04220 0.73800 0.28030
H4 H -0.01230 0.41100 0.32030
H5 H -0.01790 0.07000 0.39430
H6 H 0.02150 -0.24900 0.48750
H7 H 0.06300 -0.55200 0.58020
H8 H 0.13830 -0.72600 0.65920
H9 H 0.23100 -0.73800 0.70670
H10 H 0.18890 0.39700 0.43710
H11 H 0.18520 0.09400 0.49390
H12 H 0.25510 0.55000 0.44350
C15E C 0.28224 -0.49110 0.67861
C14E C 0.26570 1.09200 0.32464
C24E C 0.24161 -0.19340 0.58821
C23E C 0.30631 0.78990 0.41481
C1E C 0.32793 -0.58970 0.72610
C16E C 0.28609 -0.28530 0.63379
C13E C 0.31012 0.99440 0.36985
H9E H 0.26900 1.23800 0.29330
H12E H 0.24490 -0.05000 0.55650
C22E C 0.35164 0.67630 0.46280
C2E C 0.37399 -0.48740 0.72949
H1E H 0.32490 -0.74800 0.75710
C17E C 0.33589 -0.17400 0.63788
C12E C 0.36067 1.08740 0.37391
C10E C 0.40021 0.77650 0.46468
C21E C 0.34956 0.47130 0.50702
C3E C 0.38013 -0.27400 0.68590
H2E H 0.40510 -0.55900 0.76220
C18E C 0.34145 0.03200 0.59594
C11E C 0.40261 0.98500 0.41833
H8E H 0.36170 1.22600 0.34080
C9E C 0.44363 0.67260 0.51100
C20E C 0.39212 0.36330 0.55284
H11E H 0.31480 0.40600 0.50610
C4E C 0.42702 -0.16050 0.68783
C19E C 0.38768 0.14770 0.59772
H10E H 0.31110 0.10300 0.56290
H7E H 0.43700 1.05200 0.41980
C8E C 0.44047 0.46860 0.55519
H6E H 0.47850 0.74900 0.51250
C5E C 0.43207 0.04710 0.64514
H3E H 0.45780 -0.23800 0.71970
C7E C 0.48430 0.35930 0.60448
C6E C 0.48070 0.16120 0.64696
H5E H 0.51790 0.43000 0.60570
H4E H 0.51230 0.08900 0.67970
loop_
_geom_bond_atom_site_label_1
_geom_bond_atom_site_label_2
_geom_bond_site_symmetry_1
_geom_bond_site_symmetry_2
C1 C2 1_555 1_555
C2 C3 1_555 1_555
C3 C4 1_555 1_555
C4 C5 1_555 1_555
C5 C6 1_555 1_555
C6 C7 1_555 1_555
C7 C8 1_555 1_555
C8 C9 1_555 1_555
C9 C10 1_555 1_555
C10 C11 1_555 1_555
C11 C12 1_555 1_555
C12 C13 1_555 1_555
C13 C14 1_555 1_555
C14 H9 1_555 1_555
C15 C1 1_555 1_555
C16 C15 1_555 1_555
C17 C3 1_555 1_555
C18 C17 1_555 1_555
C19 C5 1_555 1_555
C20 C8 1_555 1_555
C21 C20 1_555 1_555
C22 C10 1_555 1_555
C23 C13 1_555 1_555
C24 C16 1_555 1_555
H1 C1 1_555 1_555
H2 C2 1_555 1_555
H3 C4 1_555 1_555
H4 C6 1_555 1_555
H5 C7 1_555 1_555
H6 C9 1_555 1_555
H7 C11 1_555 1_555
H8 C12 1_555 1_555
H10 C18 1_555 1_555
H11 C21 1_555 1_555
H12 C24 1_555 1_555
C15E C14 1_555 1_555
C14E C15 1_555 1_555
C24E C23 1_555 1_555
C23E C24 1_555 1_555
C1E C15E 1_555 1_555
C16E C15E 1_555 1_555
C13E C14E 1_555 1_555
H9E C14E 1_555 1_555
H12E C24E 1_555 1_555
C22E C23E 1_555 1_555
C2E C1E 1_555 1_555
H1E C1E 1_555 1_555
C17E C16E 1_555 1_555
C12E C13E 1_555 1_555
C10E C22E 1_555 1_555
C21E C22E 1_555 1_555
C3E C2E 1_555 1_555
H2E C2E 1_555 1_555
C18E C17E 1_555 1_555
C11E C12E 1_555 1_555
H8E C12E 1_555 1_555
C9E C10E 1_555 1_555
C20E C21E 1_555 1_555
H11E C21E 1_555 1_555
C4E C3E 1_555 1_555
C19E C18E 1_555 1_555
H10E C18E 1_555 1_555
H7E C11E 1_555 1_555
C8E C9E 1_555 1_555
H6E C9E 1_555 1_555
C5E C4E 1_555 1_555
H3E C4E 1_555 1_555
C7E C8E 1_555 1_555
C6E C5E 1_555 1_555
H5E C7E 1_555 1_555
H4E C6E 1_555 1_555
C16 C17 1_555 1_555
C18 C19 1_555 1_555
C19 C20 1_555 1_555
C21 C22 1_555 1_555
C22 C23 1_555 1_555
C24E C16E 1_555 1_555
C23E C13E 1_555 1_555
C17E C3E 1_555 1_555
C10E C11E 1_555 1_555
C20E C19E 1_555 1_555
C20E C8E 1_555 1_555
C19E C5E 1_555 1_555
C7E C6E 1_555 1_555

#END
