
#######################################################################
#
#                 Cambridge Crystallographic Data Centre
#                                CCDC 
#
#######################################################################
#
# If this CIF has been generated from an entry in the Cambridge 
# Structural Database, then it will include bibliographic, chemical, 
# crystal, experimental, refinement or atomic coordinate data resulting 
# from the CCDC's data processing and validation procedures.
#
#######################################################################

data_KELFAL
_chemical_formula_moiety         'C18 H15 N1 O6 S1'
_chemical_name_systematic        
3a,6-dimethyl-3a,6,13b,13c-tetrahydro-1H,5H,8H-8\l^6^-furo[4',3',2':4,5]isoquinolino[2,1-c][1,2,3]benzoxathiazine-1,5,8,8-tetrone
_symmetry_cell_setting           monoclinic
_symmetry_space_group_name_H-M   'C c'
_symmetry_Int_Tables_number      9
_space_group_name_Hall           'C -2yc'
loop_
_symmetry_equiv_pos_site_id
_symmetry_equiv_pos_as_xyz
1 x,y,z
2 x,-y,1/2+z
3 1/2+x,1/2+y,z
4 1/2+x,1/2-y,1/2+z
_cell_length_a                   21.556(8)
_cell_length_b                   6.463(2)
_cell_length_c                   14.192(5)
_cell_angle_alpha                90
_cell_angle_beta                 125.07(3)
_cell_angle_gamma                90
_cell_volume                     1618.22
_exptl_crystal_colour            colorless
_exptl_crystal_description       plate
_cell_formula_units_Z            4
loop_
_atom_site_label
_atom_site_type_symbol
_atom_site_fract_x
_atom_site_fract_y
_atom_site_fract_z
S1 S 0.57151(3) 0.28619(8) 0.57900(4)
O1 O 0.35999(10) 0.6163(3) 0.63731(15)
O2 O 0.30397(9) 0.6893(3) 0.45009(14)
O3 O 0.45360(10) 0.8484(3) 0.25741(15)
O4 O 0.59168(11) 0.1580(3) 0.67346(16)
O5 O 0.51536(10) 0.2133(3) 0.46507(15)
O6 O 0.64701(9) 0.3236(3) 0.58778(15)
N1 N 0.55507(10) 0.5199(3) 0.60158(15)
C1 C 0.50838(13) 0.5398(4) 0.64867(19)
H1 H 0.5085 0.4071 0.6822
C2 C 0.42887(12) 0.5894(4) 0.54952(19)
C3 C 0.36467(13) 0.6283(4) 0.5567(2)
C4 C 0.32491(13) 0.6858(4) 0.3689(2)
C5 C 0.40651(12) 0.6243(3) 0.44188(19)
C6 C 0.45629(12) 0.6434(4) 0.40040(18)
H2 H 0.4537 0.5149 0.3616
C7 C 0.53891(12) 0.6717(4) 0.51127(18)
H3 H 0.5408 0.8092 0.5420
C8 C 0.42872(13) 0.8239(4) 0.31483(19)
C9 C 0.36871(13) 0.9618(4) 0.30024(19)
H4 H 0.3650 1.0961 0.2739
C10 C 0.31994(14) 0.8997(4) 0.3235(2)
H5 H 0.2824 0.9898 0.3116
C11 C 0.54262(14) 0.7053(4) 0.7423(2)
H6 H 0.5934 0.6665 0.8034
H7 H 0.5125 0.7185 0.7720
H8 H 0.5436 0.8353 0.7103
C12 C 0.27226(14) 0.5348(4) 0.2729(2)
H9 H 0.2761 0.4011 0.3053
H10 H 0.2866 0.5246 0.2202
H11 H 0.2210 0.5837 0.2326
C13 C 0.60297(12) 0.6640(4) 0.49576(18)
C14 C 0.61814(13) 0.8332(4) 0.45065(19)
H12 H 0.5866 0.9485 0.4256
C15 C 0.67909(14) 0.8326(5) 0.4425(2)
H13 H 0.6882 0.9470 0.4124
C16 C 0.72654(14) 0.6621(5) 0.4791(2)
H14 H 0.7674 0.6620 0.4732
C17 C 0.71321(14) 0.4920(4) 0.5242(2)
H15 H 0.7445 0.3764 0.5484
C18 C 0.65228(13) 0.4975(4) 0.5326(2)
loop_
_geom_bond_atom_site_label_1
_geom_bond_atom_site_label_2
_geom_bond_site_symmetry_1
_geom_bond_site_symmetry_2
S1 O4 1_555 1_555
O1 C3 1_555 1_555
O2 C3 1_555 1_555
O3 C8 1_555 1_555
O5 S1 1_555 1_555
O6 S1 1_555 1_555
N1 S1 1_555 1_555
C1 N1 1_555 1_555
H1 C1 1_555 1_555
C2 C1 1_555 1_555
C3 C2 1_555 1_555
C4 O2 1_555 1_555
C5 C2 1_555 1_555
C6 C5 1_555 1_555
H2 C6 1_555 1_555
C7 N1 1_555 1_555
H3 C7 1_555 1_555
C8 C6 1_555 1_555
C9 C8 1_555 1_555
H4 C9 1_555 1_555
C10 C4 1_555 1_555
H5 C10 1_555 1_555
C11 C1 1_555 1_555
H6 C11 1_555 1_555
H7 C11 1_555 1_555
H8 C11 1_555 1_555
C12 C4 1_555 1_555
H9 C12 1_555 1_555
H10 C12 1_555 1_555
H11 C12 1_555 1_555
C13 C7 1_555 1_555
C14 C13 1_555 1_555
H12 C14 1_555 1_555
C15 C14 1_555 1_555
H13 C15 1_555 1_555
C16 C15 1_555 1_555
H14 C16 1_555 1_555
C17 C16 1_555 1_555
H15 C17 1_555 1_555
C18 O6 1_555 1_555
C4 C5 1_555 1_555
C6 C7 1_555 1_555
C9 C10 1_555 1_555
C13 C18 1_555 1_555
C17 C18 1_555 1_555

#END
