
#######################################################################
#
#                 Cambridge Crystallographic Data Centre
#                                CCDC 
#
#######################################################################
#
# If this CIF has been generated from an entry in the Cambridge 
# Structural Database, then it will include bibliographic, chemical, 
# crystal, experimental, refinement or atomic coordinate data resulting 
# from the CCDC's data processing and validation procedures.
#
#######################################################################

data_KELJAM
_chemical_formula_moiety         'C114 H105 N27 S9,C1 H1 Cl3'
_chemical_name_systematic        
"(4-Propylthiolato-2,2'-bipyrid-6-yl)octakis((pyrimidin-4,6-diyl)(4-propylthiolatopyrid-2,6-diyl))-2-pyridine chloroform solvate"
_symmetry_cell_setting           monoclinic
_symmetry_space_group_name_H-M   'P 21'
_symmetry_Int_Tables_number      4
_space_group_name_Hall           'P 2yb'
loop_
_symmetry_equiv_pos_site_id
_symmetry_equiv_pos_as_xyz
1 x,y,z
2 -x,1/2+y,-z
_cell_length_a                   15.565(3)
_cell_length_b                   24.386(5)
_cell_length_c                   15.634(8)
_cell_angle_alpha                90.00
_cell_angle_beta                 109.24(5)
_cell_angle_gamma                90.00
_cell_volume                     5602.72
_exptl_crystal_colour            colorless
_chemical_melting_point          287-289deg.C
_cell_formula_units_Z            2
loop_
_atom_site_label
_atom_site_type_symbol
_atom_site_fract_x
_atom_site_fract_y
_atom_site_fract_z
C1 C 0.5781(4) 0.9624(2) 0.6771(4)
H1 H 0.5626 0.9619 0.6143
C2 C 0.6661(4) 0.9672(3) 0.7298(5)
H2 H 0.7115 0.9699 0.7034
C3 C 0.6889(5) 0.9679(3) 0.8235(5)
H3 H 0.7490 0.9708 0.8611
C4 C 0.6192(4) 0.9642(3) 0.8580(4)
H4 H 0.6340 0.9650 0.9207
N1 N 0.5319(3) 0.9596(2) 0.8090(3)
C5 C 0.5104(4) 0.9581(2) 0.7176(4)
N2 N 0.3917(3) 0.94329(17) 0.5740(3)
C6 C 0.4122(4) 0.9528(2) 0.6639(3)
C7 C 0.3468(4) 0.9580(2) 0.7053(3)
H5 H 0.3634 0.9645 0.7673
C8 C 0.2559(4) 0.9535(2) 0.6530(3)
C9 C 0.2336(4) 0.9440(2) 0.5603(3)
H6 H 0.1732 0.9412 0.5233
C10 C 0.3038(4) 0.9387(2) 0.5245(3)
S1 S 0.17799(10) 0.96051(8) 0.71179(9)
C11 C 0.0685(3) 0.9679(3) 0.6252(4)
H7 H 0.0696 0.9991 0.5870
H8 H 0.0549 0.9354 0.5875
C12 C -0.0063(4) 0.9765(3) 0.6696(4)
H9 H -0.0078 0.9444 0.7057
H10 H 0.0107 1.0076 0.7104
C13 C -0.0960(4) 0.9858(3) 0.6070(5)
H11 H -0.1379 0.9901 0.6398
H12 H -0.1141 0.9550 0.5667
H13 H -0.0961 1.0184 0.5726
C14 C 0.3549(4) 0.9158(2) 0.3920(3)
H14 H 0.4153 0.9152 0.4294
C15 C 0.2845(4) 0.9266(2) 0.4264(3)
N3 N 0.1981(3) 0.9279(2) 0.3722(3)
C16 C 0.1831(5) 0.9177(3) 0.2848(4)
H15 H 0.1227 0.9177 0.2474
N4 N 0.2456(4) 0.9074(2) 0.2445(3)
C17 C 0.3310(4) 0.9060(2) 0.3002(3)
N5 N 0.4878(3) 0.88746(17) 0.3187(2)
C18 C 0.4057(4) 0.8958(2) 0.2600(3)
C19 C 0.3850(4) 0.8966(2) 0.1650(3)
H16 H 0.3257 0.9015 0.1260
C20 C 0.4584(5) 0.8896(2) 0.1321(3)
C21 C 0.5443(4) 0.8818(2) 0.1931(3)
H17 H 0.5939 0.8780 0.1729
C22 C 0.5566(4) 0.8799(2) 0.2863(3)
S2 S 0.44799(15) 0.89039(7) 0.01685(9)
C23 C 0.3288(7) 0.8955(5) -0.0429(4)
H18 H 0.3032 0.9236 -0.0145
H19 H 0.3200 0.9071 -0.1045
C24 C 0.2753(6) 0.8404(5) -0.0457(5)
H20 H 0.2788 0.8308 0.0156
H21 H 0.2117 0.8463 -0.0803
C25 C 0.3112(9) 0.7911(6) -0.0879(7)
H22 H 0.2763 0.7589 -0.0863
H23 H 0.3741 0.7847 -0.0538
H24 H 0.3054 0.7995 -0.1496
C26 C 0.6532(3) 0.8628(2) 0.4450(3)
H25 H 0.6015 0.8621 0.4624
C27 C 0.6461(4) 0.8707(2) 0.3552(3)
N6 N 0.7222(4) 0.86861(19) 0.3298(3)
C28 C 0.8002(4) 0.8610(2) 0.3959(4)
H26 H 0.8516 0.8588 0.3783
N7 N 0.8147(3) 0.85590(19) 0.4843(3)
C29 C 0.7384(3) 0.8560(2) 0.5078(3)
N8 N 0.6719(2) 0.83804(16) 0.6223(2)
C30 C 0.7502(3) 0.84748(19) 0.6052(3)
C31 C 0.8335(3) 0.8504(2) 0.6730(3)
H27 H 0.8860 0.8567 0.6585
C32 C 0.8389(3) 0.8438(2) 0.7627(3)
C33 C 0.7578(3) 0.8332(2) 0.7808(3)
H28 H 0.7580 0.8278 0.8398
C34 C 0.6785(3) 0.83109(19) 0.7089(3)
S3 S 0.94663(10) 0.84977(8) 0.84571(10)
C35 C 0.9254(4) 0.8412(3) 0.9510(4)
H29 H 0.8849 0.8698 0.9576
H30 H 0.8962 0.8061 0.9513
C36 C 1.0152(5) 0.8438(4) 1.0298(5)
H31 H 1.0573 0.8169 1.0207
H32 H 1.0422 0.8798 1.0320
C37 C 0.9987(7) 0.8323(5) 1.1187(6)
H33 H 1.0554 0.8345 1.1677
H34 H 0.9733 0.7963 1.1169
H35 H 0.9571 0.8590 1.1276
C38 C 0.5099(3) 0.81512(18) 0.6509(3)
H36 H 0.5113 0.8138 0.5919
C39 C 0.5880(3) 0.82243(18) 0.7233(3)
N9 N 0.5884(3) 0.82304(18) 0.8090(2)
C40 C 0.5063(3) 0.8181(2) 0.8186(3)
H37 H 0.5053 0.8188 0.8777
N10 N 0.4269(3) 0.81228(18) 0.7545(3)
C41 C 0.4286(3) 0.80971(18) 0.6689(3)
N11 N 0.3474(2) 0.79093(16) 0.5122(2)
C42 C 0.3410(3) 0.80191(19) 0.5938(3)
C43 C 0.2583(3) 0.8075(2) 0.6089(3)
H38 H 0.2567 0.8149 0.6667
C44 C 0.1777(3) 0.8019(2) 0.5361(3)
C45 C 0.1847(3) 0.7904(2) 0.4512(3)
H39 H 0.1327 0.7865 0.4008
C46 C 0.2703(3) 0.78491(18) 0.4430(3)
S4 S 0.06791(10) 0.80982(8) 0.54142(12)
C47 C 0.0860(5) 0.8112(3) 0.6624(5)
H40 H 0.1287 0.8404 0.6896
H41 H 0.0289 0.8201 0.6713
C48 C 0.1228(7) 0.7569(4) 0.7128(6)
H42 H 0.1807 0.7492 0.7045
H43 H 0.1352 0.7634 0.7770
C49 C 0.0696(9) 0.7091(4) 0.6899(9)
H44 H 0.1020 0.6790 0.7256
H45 H 0.0570 0.7012 0.6268
H46 H 0.0133 0.7146 0.7015
C53 C 0.3673(3) 0.76475(19) 0.3461(3)
H54 H 0.4193 0.7662 0.3969
C54 C 0.2816(3) 0.77240(19) 0.3538(3)
N12 N 0.2068(3) 0.7690(2) 0.2812(3)
C55 C 0.2203(4) 0.7591(3) 0.2033(3)
H55 H 0.1681 0.7563 0.1528
N13 N 0.2990(3) 0.7524(2) 0.1881(2)
C56 C 0.3734(3) 0.75500(19) 0.2621(3)
N14 N 0.5341(2) 0.74015(15) 0.3271(2)
C57 C 0.4624(3) 0.74716(19) 0.2499(3)
C58 C 0.4738(3) 0.7481(2) 0.1645(3)
H56 H 0.4237 0.7521 0.1123
C59 C 0.5604(3) 0.74290(19) 0.1585(3)
C60 C 0.6330(3) 0.73603(19) 0.2377(3)
H57 H 0.6919 0.7325 0.2361
C61 C 0.6160(3) 0.73444(17) 0.3200(3)
S6 S 0.56854(10) 0.74663(6) 0.04920(8)
C62 C 0.6906(5) 0.7489(3) 0.0673(4)
H58 H 0.7198 0.7193 0.1080
H59 H 0.6999 0.7422 0.0098
C63 C 0.7374(5) 0.8023(3) 0.1062(4)
H60 H 0.7252 0.8100 0.1620
H61 H 0.8025 0.7974 0.1214
C64 C 0.7097(6) 0.8507(4) 0.0458(5)
H62 H 0.7419 0.8825 0.0761
H63 H 0.6454 0.8565 0.0308
H64 H 0.7238 0.8444 -0.0087
C65 C 0.6735(3) 0.71820(19) 0.4872(3)
H65 H 0.6140 0.7174 0.4878
C66 C 0.6922(3) 0.72639(18) 0.4075(3)
N15 N 0.7771(3) 0.72765(16) 0.4049(2)
C67 C 0.8426(3) 0.7214(2) 0.4847(3)
H66 H 0.9020 0.7228 0.4839
N16 N 0.8328(3) 0.71342(18) 0.5662(2)
C68 C 0.7462(3) 0.71134(19) 0.5658(3)
N17 N 0.6469(3) 0.69446(15) 0.6515(2)
C69 C 0.7334(3) 0.70056(18) 0.6554(3)
C70 C 0.8064(3) 0.6975(2) 0.7350(3)
H67 H 0.8655 0.7022 0.7344
C71 C 0.7904(4) 0.6875(2) 0.8156(3)
C72 C 0.7005(3) 0.6817(2) 0.8129(3)
H68 H 0.6871 0.6757 0.8659
C73 C 0.6312(3) 0.68511(19) 0.7300(3)
S7 S 0.87507(11) 0.68144(7) 0.92225(8)
C74 C 0.9789(4) 0.6879(3) 0.8971(4)
H69 H 0.9819 0.6595 0.8547
H70 H 0.9807 0.7232 0.8693
C75 C 1.0594(5) 0.6826(4) 0.9837(4)
H71 H 1.0597 0.6462 1.0089
H72 H 1.0534 0.7090 1.0277
C76 C 1.1489(6) 0.6923(5) 0.9663(6)
H73 H 1.1985 0.6888 1.0221
H74 H 1.1490 0.7285 0.9422
H75 H 1.1555 0.6657 0.9236
C77 C 0.4690(3) 0.6693(2) 0.6384(3)
H76 H 0.4844 0.6679 0.5858
C78 C 0.5351(3) 0.67773(19) 0.7220(3)
N18 N 0.5125(3) 0.67979(19) 0.7988(2)
C79 C 0.4246(4) 0.6746(3) 0.7864(3)
H77 H 0.4088 0.6770 0.8387
N19 N 0.3556(3) 0.66629(19) 0.7102(3)
C80 C 0.3799(3) 0.66294(19) 0.6350(3)
N20 N 0.3354(2) 0.64395(16) 0.4762(2)
C81 C 0.3072(3) 0.65268(19) 0.5474(3)
C82 C 0.2154(3) 0.6505(2) 0.5407(3)
H78 H 0.1984 0.6557 0.5918
C83 C 0.1501(3) 0.6405(2) 0.4575(4)
C84 C 0.1790(3) 0.6313(2) 0.3828(3)
H79 H 0.1373 0.6238 0.3259
C85 C 0.2716(3) 0.63379(19) 0.3961(3)
S8 S 0.03611(10) 0.63865(8) 0.45385(12)
C86 C -0.0282(4) 0.6362(3) 0.3358(5)
H80 H -0.0035 0.6073 0.3081
H81 H -0.0904 0.6263 0.3293
C87 C -0.0296(5) 0.6893(4) 0.2837(6)
H82 H -0.0639 0.7173 0.3024
H83 H 0.0319 0.7026 0.2948
C88 C -0.0729(10) 0.6763(7) 0.1873(8)
H84 H -0.0758 0.7088 0.1518
H85 H -0.1334 0.6628 0.1774
H86 H -0.0379 0.6488 0.1696
C89 C 0.3982(3) 0.6195(2) 0.3326(3)
H87 H 0.4409 0.6233 0.3901
C90 C 0.3062(3) 0.62300(19) 0.3190(3)
N21 N 0.2430(3) 0.6167(2) 0.2371(3)
C91 C 0.2773(4) 0.6080(3) 0.1697(3)
H88 H 0.2347 0.6033 0.1124
N22 N 0.3630(3) 0.60542(19) 0.1742(2)
C92 C 0.4251(3) 0.60993(19) 0.2569(3)
N23 N 0.5817(2) 0.59936(16) 0.3487(2)
C93 C 0.5220(3) 0.60385(19) 0.2648(3)
C94 C 0.5478(3) 0.6026(2) 0.1874(3)
H89 H 0.5043 0.6064 0.1303
C95 C 0.6378(3) 0.5958(2) 0.1963(3)
C96 C 0.7026(3) 0.5918(2) 0.2841(3)
H90 H 0.7644 0.5883 0.2927
C97 C 0.6699(3) 0.59336(19) 0.3576(3)
S9 S 0.68101(11) 0.59165(7) 0.10580(9)
C98 C 0.5769(4) 0.5917(3) 0.0091(3)
H91 H 0.5395 0.6224 0.0150
H92 H 0.5923 0.5975 -0.0455
C99 C 0.5216(5) 0.5397(3) -0.0017(4)
H93 H 0.5489 0.5117 -0.0286
H94 H 0.5238 0.5268 0.0577
C100 C 0.4257(7) 0.5470(4) -0.0585(5)
H95 H 0.3941 0.5127 -0.0634
H96 H 0.4229 0.5592 -0.1177
H97 H 0.3976 0.5738 -0.0313
C101 C 0.6948(3) 0.57611(19) 0.5198(3)
H98 H 0.6322 0.5763 0.5074
C102 C 0.7330(3) 0.58544(19) 0.4517(3)
N24 N 0.8225(3) 0.58651(18) 0.4692(2)
C103 C 0.8735(3) 0.5785(2) 0.5555(3)
H99 H 0.9361 0.5804 0.5683
N25 N 0.8446(3) 0.56804(18) 0.6262(3)
C104 C 0.7542(3) 0.56664(19) 0.6065(3)
N26 N 0.6243(3) 0.54852(16) 0.6486(2)
C105 C 0.7146(3) 0.55378(19) 0.6801(3)
C106 C 0.7677(3) 0.5488(2) 0.7696(3)
H100 H 0.8304 0.5534 0.7878
C107 C 0.7233(3) 0.5364(2) 0.8326(3)
C108 C 0.6292(3) 0.5315(2) 0.8011(3)
H101 H 0.5979 0.5245 0.8414
C109 C 0.5820(3) 0.5369(2) 0.7091(3)
S10 S 0.77549(10) 0.52800(7) 0.94927(8)
C110 C 0.8953(4) 0.5262(3) 0.9676(4)
H102 H 0.9090 0.4972 0.9317
H103 H 0.9147 0.5608 0.9493
C111 C 0.9453(5) 0.5161(4) 1.0674(4)
H104 H 0.9288 0.5447 1.1023
H105 H 0.9252 0.4814 1.0844
C112 C 1.0467(5) 0.5149(5) 1.0919(6)
H106 H 1.0738 0.5082 1.1557
H107 H 1.0676 0.5496 1.0771
H108 H 1.0639 0.4863 1.0586
N27 N 0.4382(3) 0.5232(2) 0.7298(3)
C113 C 0.3485(4) 0.5141(3) 0.6966(4)
H109 H 0.3171 0.5113 0.7377
C114 C 0.2998(4) 0.5086(2) 0.6067(4)
H110 H 0.2374 0.5023 0.5871
C115 C 0.3475(4) 0.5129(3) 0.5452(4)
H111 H 0.3172 0.5094 0.4833
C116 C 0.4384(4) 0.5221(2) 0.5767(3)
H112 H 0.4711 0.5249 0.5367
C117 C 0.4828(3) 0.5274(2) 0.6705(3)
C118 C 0.0487(7) 0.5081(4) 0.7372(6)
H113 H -0.0131 0.5232 0.7154
Cl1 Cl 0.1224(5) 0.5674(3) 0.7330(6)
Cl2 Cl 0.0621(7) 0.4878(5) 0.8453(6)
Cl3 Cl 0.0447(11) 0.4533(7) 0.6642(11)
S5? S 0.06791(10) 0.80982(8) 0.54142(12)
C50? C 0.0860(5) 0.8112(3) 0.6624(5)
H47? H 0.1511 0.8113 0.6945
H48? H 0.0617 0.8453 0.6766
C51? C 0.0439(14) 0.7642(5) 0.6979(10)
H49? H 0.0553 0.7711 0.7618
H50? H -0.0214 0.7665 0.6683
C52? C 0.0696(9) 0.7091(4) 0.6899(9)
H51? H 0.0363 0.6851 0.7162
H52? H 0.1336 0.7049 0.7210
H53? H 0.0561 0.7002 0.6270
Cl4? Cl 0.1102(7) 0.5495(5) 0.6904(8)
Cl5? Cl 0.0703(8) 0.5220(6) 0.8576(7)
Cl6? Cl 0.0936(14) 0.4412(6) 0.7336(15)
Cl7? Cl 0.0664(15) 0.4949(9) 0.6390(12)
Cl8? Cl 0.0360(18) 0.5590(10) 0.7949(15)
Cl9? Cl 0.082(3) 0.4477(11) 0.793(2)
loop_
_geom_bond_atom_site_label_1
_geom_bond_atom_site_label_2
_geom_bond_site_symmetry_1
_geom_bond_site_symmetry_2
C1 H1 1_555 1_555
C2 C1 1_555 1_555
H2 C2 1_555 1_555
C3 C2 1_555 1_555
H3 C3 1_555 1_555
C4 C3 1_555 1_555
H4 C4 1_555 1_555
N1 C4 1_555 1_555
C5 C1 1_555 1_555
N2 C6 1_555 1_555
C6 C5 1_555 1_555
C7 C6 1_555 1_555
H5 C7 1_555 1_555
C8 C7 1_555 1_555
C9 C8 1_555 1_555
H6 C9 1_555 1_555
C10 N2 1_555 1_555
S1 C8 1_555 1_555
C11 S1 1_555 1_555
H7 C11 1_555 1_555
H8 C11 1_555 1_555
C12 C11 1_555 1_555
H9 C12 1_555 1_555
H10 C12 1_555 1_555
C13 C12 1_555 1_555
H11 C13 1_555 1_555
H12 C13 1_555 1_555
H13 C13 1_555 1_555
C14 H14 1_555 1_555
C15 C10 1_555 1_555
N3 C15 1_555 1_555
C16 N3 1_555 1_555
H15 C16 1_555 1_555
N4 C16 1_555 1_555
C17 C14 1_555 1_555
N5 C18 1_555 1_555
C18 C17 1_555 1_555
C19 C18 1_555 1_555
H16 C19 1_555 1_555
C20 C19 1_555 1_555
C21 C20 1_555 1_555
H17 C21 1_555 1_555
C22 N5 1_555 1_555
S2 C20 1_555 1_555
C23 S2 1_555 1_555
H18 C23 1_555 1_555
H19 C23 1_555 1_555
C24 C23 1_555 1_555
H20 C24 1_555 1_555
H21 C24 1_555 1_555
C25 C24 1_555 1_555
H22 C25 1_555 1_555
H23 C25 1_555 1_555
H24 C25 1_555 1_555
C26 H25 1_555 1_555
C27 C22 1_555 1_555
N6 C27 1_555 1_555
C28 N6 1_555 1_555
H26 C28 1_555 1_555
N7 C28 1_555 1_555
C29 C26 1_555 1_555
N8 C30 1_555 1_555
C30 C29 1_555 1_555
C31 C30 1_555 1_555
H27 C31 1_555 1_555
C32 C31 1_555 1_555
C33 C32 1_555 1_555
H28 C33 1_555 1_555
C34 N8 1_555 1_555
S3 C32 1_555 1_555
C35 S3 1_555 1_555
H29 C35 1_555 1_555
H30 C35 1_555 1_555
C36 C35 1_555 1_555
H31 C36 1_555 1_555
H32 C36 1_555 1_555
C37 C36 1_555 1_555
H33 C37 1_555 1_555
H34 C37 1_555 1_555
H35 C37 1_555 1_555
C38 H36 1_555 1_555
C39 C34 1_555 1_555
N9 C39 1_555 1_555
C40 N9 1_555 1_555
H37 C40 1_555 1_555
N10 C40 1_555 1_555
C41 C38 1_555 1_555
N11 C42 1_555 1_555
C42 C41 1_555 1_555
C43 C42 1_555 1_555
H38 C43 1_555 1_555
C44 C43 1_555 1_555
C45 C44 1_555 1_555
H39 C45 1_555 1_555
C46 N11 1_555 1_555
S4 C44 1_555 1_555
C47 S4 1_555 1_555
H40 C47 1_555 1_555
H41 C47 1_555 1_555
C48 C47 1_555 1_555
H42 C48 1_555 1_555
H43 C48 1_555 1_555
C49 C48 1_555 1_555
H44 C49 1_555 1_555
H45 C49 1_555 1_555
H46 C49 1_555 1_555
C53 H54 1_555 1_555
C54 C46 1_555 1_555
N12 C54 1_555 1_555
C55 N12 1_555 1_555
H55 C55 1_555 1_555
N13 C55 1_555 1_555
C56 C53 1_555 1_555
N14 C57 1_555 1_555
C57 C56 1_555 1_555
C58 C57 1_555 1_555
H56 C58 1_555 1_555
C59 C58 1_555 1_555
C60 C59 1_555 1_555
H57 C60 1_555 1_555
C61 N14 1_555 1_555
S6 C59 1_555 1_555
C62 S6 1_555 1_555
H58 C62 1_555 1_555
H59 C62 1_555 1_555
C63 C62 1_555 1_555
H60 C63 1_555 1_555
H61 C63 1_555 1_555
C64 C63 1_555 1_555
H62 C64 1_555 1_555
H63 C64 1_555 1_555
H64 C64 1_555 1_555
C65 H65 1_555 1_555
C66 C61 1_555 1_555
N15 C66 1_555 1_555
C67 N15 1_555 1_555
H66 C67 1_555 1_555
N16 C67 1_555 1_555
C68 C65 1_555 1_555
N17 C69 1_555 1_555
C69 C68 1_555 1_555
C70 C69 1_555 1_555
H67 C70 1_555 1_555
C71 C70 1_555 1_555
C72 C71 1_555 1_555
H68 C72 1_555 1_555
C73 N17 1_555 1_555
S7 C71 1_555 1_555
C74 S7 1_555 1_555
H69 C74 1_555 1_555
H70 C74 1_555 1_555
C75 C74 1_555 1_555
H71 C75 1_555 1_555
H72 C75 1_555 1_555
C76 C75 1_555 1_555
H73 C76 1_555 1_555
H74 C76 1_555 1_555
H75 C76 1_555 1_555
C77 H76 1_555 1_555
C78 C73 1_555 1_555
N18 C78 1_555 1_555
C79 N18 1_555 1_555
H77 C79 1_555 1_555
N19 C79 1_555 1_555
C80 C77 1_555 1_555
N20 C81 1_555 1_555
C81 C80 1_555 1_555
C82 C81 1_555 1_555
H78 C82 1_555 1_555
C83 C82 1_555 1_555
C84 C83 1_555 1_555
H79 C84 1_555 1_555
C85 N20 1_555 1_555
S8 C83 1_555 1_555
C86 S8 1_555 1_555
H80 C86 1_555 1_555
H81 C86 1_555 1_555
C87 C86 1_555 1_555
H82 C87 1_555 1_555
H83 C87 1_555 1_555
C88 C87 1_555 1_555
H84 C88 1_555 1_555
H85 C88 1_555 1_555
H86 C88 1_555 1_555
C89 H87 1_555 1_555
C90 C85 1_555 1_555
N21 C90 1_555 1_555
C91 N21 1_555 1_555
H88 C91 1_555 1_555
N22 C91 1_555 1_555
C92 C89 1_555 1_555
N23 C93 1_555 1_555
C93 C92 1_555 1_555
C94 C93 1_555 1_555
H89 C94 1_555 1_555
C95 C94 1_555 1_555
C96 C95 1_555 1_555
H90 C96 1_555 1_555
C97 N23 1_555 1_555
S9 C95 1_555 1_555
C98 S9 1_555 1_555
H91 C98 1_555 1_555
H92 C98 1_555 1_555
C99 C98 1_555 1_555
H93 C99 1_555 1_555
H94 C99 1_555 1_555
C100 C99 1_555 1_555
H95 C100 1_555 1_555
H96 C100 1_555 1_555
H97 C100 1_555 1_555
C101 H98 1_555 1_555
C102 C97 1_555 1_555
N24 C102 1_555 1_555
C103 N24 1_555 1_555
H99 C103 1_555 1_555
N25 C103 1_555 1_555
C104 C101 1_555 1_555
N26 C105 1_555 1_555
C105 C104 1_555 1_555
C106 C105 1_555 1_555
H100 C106 1_555 1_555
C107 C106 1_555 1_555
C108 C107 1_555 1_555
H101 C108 1_555 1_555
C109 N26 1_555 1_555
S10 C107 1_555 1_555
C110 S10 1_555 1_555
H102 C110 1_555 1_555
H103 C110 1_555 1_555
C111 C110 1_555 1_555
H104 C111 1_555 1_555
H105 C111 1_555 1_555
C112 C111 1_555 1_555
H106 C112 1_555 1_555
H107 C112 1_555 1_555
H108 C112 1_555 1_555
N27 C113 1_555 1_555
C113 H109 1_555 1_555
C114 C113 1_555 1_555
H110 C114 1_555 1_555
C115 C114 1_555 1_555
H111 C115 1_555 1_555
C116 C115 1_555 1_555
H112 C116 1_555 1_555
C117 C109 1_555 1_555
C118 H113 1_555 1_555
Cl1 C118 1_555 1_555
Cl2 C118 1_555 1_555
Cl3 C118 1_555 1_555
N1 C5 1_555 1_555
C9 C10 1_555 1_555
C14 C15 1_555 1_555
N4 C17 1_555 1_555
C21 C22 1_555 1_555
C26 C27 1_555 1_555
N7 C29 1_555 1_555
C33 C34 1_555 1_555
C38 C39 1_555 1_555
N10 C41 1_555 1_555
C45 C46 1_555 1_555
C53 C54 1_555 1_555
N13 C56 1_555 1_555
C60 C61 1_555 1_555
C65 C66 1_555 1_555
N16 C68 1_555 1_555
C72 C73 1_555 1_555
C77 C78 1_555 1_555
N19 C80 1_555 1_555
C84 C85 1_555 1_555
C89 C90 1_555 1_555
N22 C92 1_555 1_555
C96 C97 1_555 1_555
C101 C102 1_555 1_555
N25 C104 1_555 1_555
C108 C109 1_555 1_555
N27 C117 1_555 1_555
C116 C117 1_555 1_555

#END
