
#######################################################################
#
#                 Cambridge Crystallographic Data Centre
#                                CCDC 
#
#######################################################################
#
# If this CIF has been generated from an entry in the Cambridge 
# Structural Database, then it will include bibliographic, chemical, 
# crystal, experimental, refinement or atomic coordinate data resulting 
# from the CCDC's data processing and validation procedures.
#
#######################################################################

data_KELSAX
_chemical_formula_moiety         'C74 H68 Li2 N6 O2 P4'
_chemical_name_systematic        
bis(\m~2~-7-((((Diphenyl)phosphoranyl)imino)diphenylphosphanyl)quinolin-8-amido)-bis(tetrahydrofuran)-di-lithium
_symmetry_cell_setting           monoclinic
_symmetry_space_group_name_H-M   'P 21/c'
_symmetry_Int_Tables_number      14
_space_group_name_Hall           '-P 2ybc'
loop_
_symmetry_equiv_pos_site_id
_symmetry_equiv_pos_as_xyz
1 x,y,z
2 -x,1/2+y,1/2-z
3 -x,-y,-z
4 x,1/2-y,1/2+z
_cell_length_a                   22.241(5)
_cell_length_b                   14.057(3)
_cell_length_c                   21.494(5)
_cell_angle_alpha                90
_cell_angle_beta                 109.734(6)
_cell_angle_gamma                90
_cell_volume                     6325.26
_exptl_crystal_colour            yellow
_exptl_crystal_description       prism
_cell_formula_units_Z            4
loop_
_atom_site_label
_atom_site_type_symbol
_atom_site_fract_x
_atom_site_fract_y
_atom_site_fract_z
Li1 Li 0.2190(2) -0.4680(3) 0.0591(2)
Li2 Li 0.2638(2) -0.5532(3) 0.1606(2)
P1 P 0.36062(3) -0.27600(5) 0.25739(3)
P2 P 0.26438(3) -0.18716(5) 0.29824(3)
P3 P 0.12647(3) -0.75335(5) -0.03690(3)
P4 P 0.25968(3) -0.81928(5) 0.01915(3)
O1 O 0.15152(8) -0.37908(14) 0.01537(9)
O2 O 0.33742(9) -0.61886(15) 0.21295(10)
N1 N 0.29681(9) -0.44710(16) 0.03105(9)
N2 N 0.27757(9) -0.41345(14) 0.14592(10)
H1 H 0.2558 -0.3740 0.1658
N3 N 0.28835(9) -0.25986(15) 0.24946(10)
N4 N 0.18966(9) -0.58694(15) 0.19184(10)
N5 N 0.20341(9) -0.60777(14) 0.07274(10)
H2 H 0.2264 -0.6455 0.0532
N6 N 0.19331(9) -0.78286(14) -0.03976(9)
C1 C 0.33933(11) -0.38898(18) 0.07504(12)
C2 C 0.32726(11) -0.36942(17) 0.13681(11)
C3 C 0.36999(10) -0.30344(17) 0.18046(11)
C4 C 0.42184(11) -0.26506(17) 0.16502(12)
H3 H 0.4503 -0.2234 0.1960
C5 C 0.43296(11) -0.28484(17) 0.10794(12)
H4 H 0.4682 -0.2565 0.0994
C6 C 0.39175(11) -0.34793(17) 0.06129(11)
C7 C 0.39961(12) -0.3731(2) 0.00081(12)
H5 H 0.4343 -0.3479 -0.0102
C8 C 0.35798(13) -0.4329(2) -0.04115(13)
H6 H 0.3637 -0.4511 -0.0813
C9 C 0.30622(13) -0.4680(2) -0.02511(13)
H7 H 0.2765 -0.5086 -0.0558
C10 C 0.39817(12) -0.37193(18) 0.31343(12)
C11 C 0.45238(12) -0.4173(2) 0.31065(14)
H8 H 0.4696 -0.3996 0.2775
C12 C 0.48200(14) -0.4881(2) 0.35534(14)
H9 H 0.5189 -0.5193 0.3525
C13 C 0.45724(16) -0.5127(2) 0.40394(15)
H10 H 0.4779 -0.5600 0.4355
C14 C 0.40343(17) -0.4699(3) 0.40707(16)
H11 H 0.3864 -0.4881 0.4404
C15 C 0.37313(14) -0.3995(2) 0.36151(14)
H12 H 0.3353 -0.3704 0.3635
C16 C 0.40992(11) -0.17235(17) 0.28971(12)
C17 C 0.39578(12) -0.08943(18) 0.25215(14)
H13 H 0.3628 -0.0894 0.2103
C18 C 0.42963(13) -0.0077(2) 0.27577(15)
H14 H 0.4204 0.0483 0.2494
C19 C 0.47701(14) -0.0053(2) 0.33721(16)
H15 H 0.4997 0.0520 0.3531
C20 C 0.49089(13) -0.0864(2) 0.37496(14)
H16 H 0.5232 -0.0854 0.4173
C21 C 0.45747(12) -0.1703(2) 0.35117(13)
H17 H 0.4674 -0.2264 0.3773
C22 C 0.23646(10) -0.08040(18) 0.24668(12)
C23 C 0.22548(12) -0.0794(2) 0.17946(13)
H18 H 0.2297 -0.1365 0.1577
C24 C 0.20818(13) 0.0049(2) 0.14298(14)
H19 H 0.1999 0.0046 0.0966
C25 C 0.20328(12) 0.0883(2) 0.17490(14)
H20 H 0.1923 0.1458 0.1505
C26 C 0.21394(13) 0.0887(2) 0.24041(15)
H21 H 0.2097 0.1461 0.2618
C27 C 0.23090(12) 0.00601(19) 0.27640(13)
H22 H 0.2391 0.0077 0.3227
C28 C 0.18630(11) -0.23896(17) 0.29025(11)
C29 C 0.15180(11) -0.20076(18) 0.32792(12)
H23 H 0.1678 -0.1465 0.3548
C30 C 0.09462(12) -0.24101(19) 0.32654(13)
H24 H 0.0718 -0.2145 0.3526
C31 C 0.07068(12) -0.3193(2) 0.28760(14)
H25 H 0.0315 -0.3469 0.2868
C32 C 0.10374(12) -0.3575(2) 0.24975(14)
H26 H 0.0872 -0.4113 0.2227
C33 C 0.16135(12) -0.31744(19) 0.25093(12)
H27 H 0.1838 -0.3441 0.2245
C34 C 0.14789(11) -0.64564(17) 0.14766(11)
C35 C 0.15789(10) -0.65965(17) 0.08421(11)
C36 C 0.11738(11) -0.72905(17) 0.04148(11)
C37 C 0.06813(11) -0.77427(17) 0.05867(11)
H28 H 0.0411 -0.8182 0.0284
C38 C 0.05792(11) -0.75740(17) 0.11663(11)
H29 H 0.0238 -0.7882 0.1259
C39 C 0.09835(11) -0.69384(17) 0.16293(11)
C40 C 0.09331(12) -0.67561(19) 0.22562(12)
H30 H 0.0604 -0.7053 0.2376
C41 C 0.13500(13) -0.6161(2) 0.26902(13)
H31 H 0.1315 -0.6035 0.3111
C42 C 0.18324(13) -0.5736(2) 0.25019(13)
H32 H 0.2129 -0.5331 0.2810
C43 C 0.06655(11) -0.84262(17) -0.07659(11)
C44 C 0.07528(12) -0.93534(18) -0.05287(13)
H33 H 0.1133 -0.9517 -0.0179
C45 C 0.02941(13) -1.00403(19) -0.07950(13)
H34 H 0.0358 -1.0668 -0.0621
C46 C -0.02548(13) -0.9825(2) -0.13096(13)
H35 H -0.0570 -1.0300 -0.1486
C47 C -0.03447(12) -0.89229(19) -0.15663(13)
H36 H -0.0718 -0.8777 -0.1929
C48 C 0.01111(11) -0.82186(18) -0.12953(12)
H37 H 0.0044 -0.7593 -0.1472
C49 C 0.09848(11) -0.64757(17) -0.08725(12)
C50 C 0.11500(12) -0.63254(19) -0.14295(13)
H38 H 0.1450 -0.6736 -0.1519
C51 C 0.08820(13) -0.5580(2) -0.18606(14)
H39 H 0.0998 -0.5486 -0.2243
C52 C 0.04521(13) -0.4982(2) -0.17330(14)
H40 H 0.0265 -0.4480 -0.2031
C53 C 0.02894(13) -0.5106(2) -0.11760(14)
H41 H -0.0004 -0.4683 -0.1085
C54 C 0.05564(12) -0.58526(18) -0.07441(13)
H42 H 0.0444 -0.5936 -0.0359
C55 C 0.32029(11) -0.77434(18) -0.01490(13)
C56 C 0.30376(12) -0.7133(2) -0.06867(14)
H43 H 0.2603 -0.6964 -0.0902
C57 C 0.35078(13) -0.6768(2) -0.09095(15)
H44 H 0.3389 -0.6347 -0.1277
C58 C 0.41326(13) -0.6997(2) -0.06183(15)
H45 H 0.4447 -0.6734 -0.0777
C59 C 0.43066(13) -0.7613(2) -0.00896(15)
H46 H 0.4742 -0.7786 0.0114
C60 C 0.38457(12) -0.7983(2) 0.01468(14)
H47 H 0.3970 -0.8404 0.0514
C61 C 0.26696(11) -0.94582(18) 0.00044(12)
C62 C 0.23135(12) -0.98701(19) -0.05927(13)
H48 H 0.2016 -0.9492 -0.0921
C63 C 0.23826(14) -1.0818(2) -0.07184(15)
H49 H 0.2123 -1.1088 -0.1126
C64 C 0.28187(14) -1.1375(2) -0.02649(15)
H50 H 0.2875 -1.2021 -0.0362
C65 C 0.31811(15) -1.0982(2) 0.03442(16)
H51 H 0.3481 -1.1362 0.0669
C66 C 0.30982(13) -1.0037(2) 0.04683(13)
H52 H 0.3342 -0.9775 0.0884
C67 C 0.10203(14) -0.37393(17) 0.04371(18)
H53 H 0.1084 -0.4215 0.0793
H54 H 0.0594 -0.3832 0.0099
C68 C 0.1103(2) -0.2723(3) 0.07114(19)
H55 H 0.0705 -0.2482 0.0765
H56 H 0.1457 -0.2681 0.1140
C69 C 0.12612(16) -0.2190(2) 0.01646(15)
H57 H 0.0892 -0.2156 -0.0251
H58 H 0.1429 -0.1543 0.0303
C70 C 0.17562(16) -0.2843(2) 0.01161(17)
H59 H 0.1833 -0.2752 -0.0308
H60 H 0.2162 -0.2735 0.0484
C71 C 0.38317(15) -0.6452(3) 0.1831(2)
H61 H 0.4224 -0.6066 0.2013
H62 H 0.3656 -0.6352 0.1347
C72 C 0.39728(15) -0.7460(3) 0.19807(12)
H63 H 0.4434 -0.7582 0.2080
H64 H 0.3730 -0.7856 0.1597
C73 C 0.3780(2) -0.7711(3) 0.2582(2)
H65 H 0.3499 -0.8278 0.2496
H66 H 0.4159 -0.7826 0.2980
C74 C 0.34223(14) -0.6816(2) 0.26564(17)
H67 H 0.2990 -0.6987 0.2655
H68 H 0.3654 -0.6502 0.3082
C75? C 0.0912(2) -0.2695(3) 0.0574(2)
C76? C 0.40178(18) -0.7394(4) 0.27075(17)
H69? H 0.1144 -0.4107 0.0854
H70? H 0.0621 -0.4015 0.0129
H71? H 0.0451 -0.2533 0.0419
H72? H 0.1103 -0.2541 0.1050
H73? H 0.0960 -0.2036 -0.0281
H74? H 0.1456 -0.1591 0.0383
H75? H 0.4381 -0.7657 0.1930
H76? H 0.3622 -0.7881 0.1717
H77? H 0.4004 -0.8032 0.2898
H78? H 0.4412 -0.7062 0.2977
H79? H 0.3039 -0.7226 0.2554
H80? H 0.3479 -0.6465 0.3072
loop_
_geom_bond_atom_site_label_1
_geom_bond_atom_site_label_2
_geom_bond_site_symmetry_1
_geom_bond_site_symmetry_2
Li1 O1 1_555 1_555
Li2 O2 1_555 1_555
P1 N3 1_555 1_555
P2 N3 1_555 1_555
P3 N6 1_555 1_555
P4 N6 1_555 1_555
O1 C67 1_555 1_555
O2 C71 1_555 1_555
N1 Li1 1_555 1_555
N2 Li1 1_555 1_555
H1 N2 1_555 1_555
N4 Li2 1_555 1_555
N5 Li1 1_555 1_555
H2 N5 1_555 1_555
C1 N1 1_555 1_555
C2 N2 1_555 1_555
C3 P1 1_555 1_555
C4 C3 1_555 1_555
H3 C4 1_555 1_555
C5 C4 1_555 1_555
H4 C5 1_555 1_555
C6 C1 1_555 1_555
C7 C6 1_555 1_555
H5 C7 1_555 1_555
C8 C7 1_555 1_555
H6 C8 1_555 1_555
C9 N1 1_555 1_555
H7 C9 1_555 1_555
C10 P1 1_555 1_555
C11 C10 1_555 1_555
H8 C11 1_555 1_555
C12 C11 1_555 1_555
H9 C12 1_555 1_555
C13 C12 1_555 1_555
H10 C13 1_555 1_555
C14 C13 1_555 1_555
H11 C14 1_555 1_555
C15 C10 1_555 1_555
H12 C15 1_555 1_555
C16 P1 1_555 1_555
C17 C16 1_555 1_555
H13 C17 1_555 1_555
C18 C17 1_555 1_555
H14 C18 1_555 1_555
C19 C18 1_555 1_555
H15 C19 1_555 1_555
C20 C19 1_555 1_555
H16 C20 1_555 1_555
C21 C16 1_555 1_555
H17 C21 1_555 1_555
C22 P2 1_555 1_555
C23 C22 1_555 1_555
H18 C23 1_555 1_555
C24 C23 1_555 1_555
H19 C24 1_555 1_555
C25 C24 1_555 1_555
H20 C25 1_555 1_555
C26 C25 1_555 1_555
H21 C26 1_555 1_555
C27 C22 1_555 1_555
H22 C27 1_555 1_555
C28 P2 1_555 1_555
C29 C28 1_555 1_555
H23 C29 1_555 1_555
C30 C29 1_555 1_555
H24 C30 1_555 1_555
C31 C30 1_555 1_555
H25 C31 1_555 1_555
C32 C31 1_555 1_555
H26 C32 1_555 1_555
C33 C28 1_555 1_555
H27 C33 1_555 1_555
C34 N4 1_555 1_555
C35 N5 1_555 1_555
C36 P3 1_555 1_555
C37 C36 1_555 1_555
H28 C37 1_555 1_555
C38 C37 1_555 1_555
H29 C38 1_555 1_555
C39 C34 1_555 1_555
C40 C39 1_555 1_555
H30 C40 1_555 1_555
C41 C40 1_555 1_555
H31 C41 1_555 1_555
C42 N4 1_555 1_555
H32 C42 1_555 1_555
C43 P3 1_555 1_555
C44 C43 1_555 1_555
H33 C44 1_555 1_555
C45 C44 1_555 1_555
H34 C45 1_555 1_555
C46 C45 1_555 1_555
H35 C46 1_555 1_555
C47 C46 1_555 1_555
H36 C47 1_555 1_555
C48 C43 1_555 1_555
H37 C48 1_555 1_555
C49 P3 1_555 1_555
C50 C49 1_555 1_555
H38 C50 1_555 1_555
C51 C50 1_555 1_555
H39 C51 1_555 1_555
C52 C51 1_555 1_555
H40 C52 1_555 1_555
C53 C52 1_555 1_555
H41 C53 1_555 1_555
C54 C49 1_555 1_555
H42 C54 1_555 1_555
C55 P4 1_555 1_555
C56 C55 1_555 1_555
H43 C56 1_555 1_555
C57 C56 1_555 1_555
H44 C57 1_555 1_555
C58 C57 1_555 1_555
H45 C58 1_555 1_555
C59 C58 1_555 1_555
H46 C59 1_555 1_555
C60 C55 1_555 1_555
H47 C60 1_555 1_555
C61 P4 1_555 1_555
C62 C61 1_555 1_555
H48 C62 1_555 1_555
C63 C62 1_555 1_555
H49 C63 1_555 1_555
C64 C63 1_555 1_555
H50 C64 1_555 1_555
C65 C64 1_555 1_555
H51 C65 1_555 1_555
C66 C61 1_555 1_555
H52 C66 1_555 1_555
C67 H53 1_555 1_555
H54 C67 1_555 1_555
C68 C67 1_555 1_555
H55 C68 1_555 1_555
H56 C68 1_555 1_555
C69 C68 1_555 1_555
H57 C69 1_555 1_555
H58 C69 1_555 1_555
C70 O1 1_555 1_555
H59 C70 1_555 1_555
H60 C70 1_555 1_555
C71 H61 1_555 1_555
H62 C71 1_555 1_555
C72 C71 1_555 1_555
H63 C72 1_555 1_555
H64 C72 1_555 1_555
C73 C72 1_555 1_555
H65 C73 1_555 1_555
H66 C73 1_555 1_555
C74 O2 1_555 1_555
H67 C74 1_555 1_555
H68 C74 1_555 1_555
Li2 N2 1_555 1_555
Li2 N5 1_555 1_555
C1 C2 1_555 1_555
C2 C3 1_555 1_555
C5 C6 1_555 1_555
C8 C9 1_555 1_555
C14 C15 1_555 1_555
C20 C21 1_555 1_555
C26 C27 1_555 1_555
C32 C33 1_555 1_555
C34 C35 1_555 1_555
C35 C36 1_555 1_555
C38 C39 1_555 1_555
C41 C42 1_555 1_555
C47 C48 1_555 1_555
C53 C54 1_555 1_555
C59 C60 1_555 1_555
C65 C66 1_555 1_555
C69 C70 1_555 1_555
C73 C74 1_555 1_555

#END
