
#######################################################################
#
#                 Cambridge Crystallographic Data Centre
#                                CCDC 
#
#######################################################################
#
# If this CIF has been generated from an entry in the Cambridge 
# Structural Database, then it will include bibliographic, chemical, 
# crystal, experimental, refinement or atomic coordinate data resulting 
# from the CCDC's data processing and validation procedures.
#
#######################################################################

data_KEMPIB
_chemical_formula_moiety         'C15 H23 N1 O3'
_chemical_name_systematic        
(1S*,4S*,5R*,6S*,8S*,11R*)-5,6-Epoxy-1-hydroxy-6-isopropyl-3,11-dimethyl-3-azatricyclo(6.2.1.0^4,11^)undecan-2-one
_symmetry_cell_setting           triclinic
_symmetry_space_group_name_H-M   'P -1'
_symmetry_Int_Tables_number      2
_space_group_name_Hall           '-P 1'
loop_
_symmetry_equiv_pos_site_id
_symmetry_equiv_pos_as_xyz
1 x,y,z
2 -x,-y,-z
_cell_length_a                   7.2170(6)
_cell_length_b                   8.5578(10)
_cell_length_c                   12.4342(14)
_cell_angle_alpha                97.017(9)
_cell_angle_beta                 91.733(8)
_cell_angle_gamma                109.799(8)
_cell_volume                     715.036
_exptl_crystal_colour            colorless
_cell_formula_units_Z            2
loop_
_atom_site_label
_atom_site_type_symbol
_atom_site_fract_x
_atom_site_fract_y
_atom_site_fract_z
C1 C 0.8335(2) 0.1226(2) 0.13177(14)
C2 C 0.8588(2) 0.2096(2) 0.03118(14)
N1 N 0.7498(2) 0.3082(2) 0.03322(10)
C3 C 0.6322(2) 0.3053(2) 0.12673(13)
C4 C 0.6649(2) 0.4808(2) 0.18065(13)
C5 C 0.7108(3) 0.5354(2) 0.29777(13)
C6 C 0.7323(3) 0.4090(3) 0.3666(2)
C7 C 0.8023(3) 0.2760(2) 0.30589(14)
C8 C 1.0171(3) 0.3346(3) 0.2771(2)
C9 C 1.0276(3) 0.1845(3) 0.2037(2)
C10 C 0.6837(2) 0.1842(2) 0.19742(13)
C11 C 0.4948(3) 0.0440(3) 0.2157(2)
O1 O 0.7589(2) -0.05295(15) 0.09832(12)
O2 O 0.9633(2) 0.1914(2) -0.04277(11)
C12 C 0.7196(4) 0.3876(3) -0.0595(2)
O3 O 0.5119(2) 0.4944(2) 0.24862(11)
C13 C 0.8057(4) 0.7213(2) 0.3385(2)
C14 C 0.7123(7) 0.7702(4) 0.4394(2)
C15 C 1.0286(4) 0.7737(4) 0.3557(3)
H1 H 0.491(3) 0.255(2) 0.0992(12)
H2 H 0.707(3) 0.567(2) 0.1348(14)
H3 H 0.822(3) 0.463(2) 0.428(2)
H4 H 0.604(3) 0.354(3) 0.392(2)
H5 H 0.792(3) 0.191(2) 0.3536(14)
H6 H 1.039(3) 0.432(2) 0.2382(14)
H7 H 1.113(3) 0.365(3) 0.338(2)
H8 H 1.142(3) 0.209(2) 0.160(2)
H9 H 1.025(3) 0.095(3) 0.246(2)
H10 H 0.413(3) 0.088(2) 0.260(2)
H11 H 0.526(3) -0.039(2) 0.252(2)
H12 H 0.419(3) -0.019(3) 0.146(2)
H13 H 0.853(3) -0.081(3) 0.075(2)
H14 H 0.748(3) 0.505(3) -0.042(2)
H15 H 0.575(4) 0.340(3) -0.085(2)
H16 H 0.797(4) 0.363(3) -0.116(2)
H17 H 0.772(3) 0.776(2) 0.281(2)
H18 H 0.564(6) 0.733(4) 0.424(3)
H19 H 0.737(4) 0.708(4) 0.497(2)
H20 H 0.757(4) 0.891(4) 0.460(2)
H21 H 1.076(4) 0.709(4) 0.402(2)
H22 H 1.092(4) 0.893(4) 0.384(2)
H23 H 1.083(5) 0.748(4) 0.290(3)
loop_
_geom_bond_atom_site_label_1
_geom_bond_atom_site_label_2
_geom_bond_site_symmetry_1
_geom_bond_site_symmetry_2
C1 C2 1_555 1_555
C2 N1 1_555 1_555
N1 C3 1_555 1_555
C3 C4 1_555 1_555
C4 C5 1_555 1_555
C5 C6 1_555 1_555
C6 C7 1_555 1_555
C7 C8 1_555 1_555
C8 C9 1_555 1_555
C9 C1 1_555 1_555
C10 C1 1_555 1_555
C11 C10 1_555 1_555
O1 C1 1_555 1_555
O2 C2 1_555 1_555
C12 N1 1_555 1_555
O3 C4 1_555 1_555
C13 C5 1_555 1_555
C14 C13 1_555 1_555
C15 C13 1_555 1_555
H1 C3 1_555 1_555
H2 C4 1_555 1_555
H3 C6 1_555 1_555
H4 C6 1_555 1_555
H5 C7 1_555 1_555
H6 C8 1_555 1_555
H7 C8 1_555 1_555
H8 C9 1_555 1_555
H9 C9 1_555 1_555
H10 C11 1_555 1_555
H11 C11 1_555 1_555
H12 C11 1_555 1_555
H13 O1 1_555 1_555
H14 C12 1_555 1_555
H15 C12 1_555 1_555
H16 C12 1_555 1_555
H17 C13 1_555 1_555
H18 C14 1_555 1_555
H19 C14 1_555 1_555
H20 C14 1_555 1_555
H21 C15 1_555 1_555
H22 C15 1_555 1_555
H23 C15 1_555 1_555
C3 C10 1_555 1_555
C5 O3 1_555 1_555
C7 C10 1_555 1_555

#END
