
#######################################################################
#
#                 Cambridge Crystallographic Data Centre
#                                CCDC 
#
#######################################################################
#
# If this CIF has been generated from an entry in the Cambridge 
# Structural Database, then it will include bibliographic, chemical, 
# crystal, experimental, refinement or atomic coordinate data resulting 
# from the CCDC's data processing and validation procedures.
#
#######################################################################

data_KEMWUU
_chemical_formula_moiety         'C3 H3 N3 O3,C3 H9 N6 3+,3(Cl1 1-)'
_chemical_name_systematic        'Cyanuric acid melamine trihydrochloride'
_symmetry_cell_setting           monoclinic
_symmetry_space_group_name_H-M   'C 2/c'
_symmetry_Int_Tables_number      15
_space_group_name_Hall           '-C 2yn'
loop_
_symmetry_equiv_pos_site_id
_symmetry_equiv_pos_as_xyz
1 x,y,z
2 1/2+x,1/2+y,z
3 -x,y,1/2-z
4 1/2-x,1/2+y,1/2-z
5 -x,-y,-z
6 1/2-x,1/2-y,-z
7 x,-y,1/2+z
8 1/2+x,1/2-y,1/2+z
_cell_length_a                   9.853(2)
_cell_length_b                   15.305(1)
_cell_length_c                   10.082(2)
_cell_angle_alpha                90
_cell_angle_beta                 81.28(1)
_cell_angle_gamma                90
_cell_volume                     1502.79
_exptl_crystal_colour            colorless
_cell_formula_units_Z            4
_exptl_crystal_preparation       'lubricant action'
loop_
_atom_site_label
_atom_site_type_symbol
_atom_site_fract_x
_atom_site_fract_y
_atom_site_fract_z
Cl1 Cl 0.2441(1) 0.0757(1) 0.4985(1)
Cl2 Cl 0.1126(4) 0.2493(3) 0.3687(4)
O1 O 0.3492(3) 0.1558(2) 0.1007(3)
O2 O 0.5000 -0.1010(3) 0.2500
N1 N 0.5000 0.1563(3) 0.2500
N2 N 0.4239(3) 0.0271(2) 0.1739(3)
C1 C 0.5000 -0.0217(4) 0.2500
C2 C 0.4193(4) 0.1161(3) 0.1693(4)
H1 H 0.500 0.212(4) 0.250
H2 H 0.379(4) -0.001(3) 0.129(4)
C2B C 0.5807(4) 0.1161(3) 0.3307(4)
N2B N 0.5761(3) 0.0271(2) 0.3261(3)
O1B O 0.6508(3) 0.1558(2) 0.3993(3)
H2B H 0.621(4) -0.001(3) 0.371(4)
N3 N 0.5000 0.3429(3) 0.2500
N4 N 0.5000 0.6086(3) 0.2500
N5 N 0.4206(3) 0.4782(2) 0.1766(3)
N6 N 0.3443(3) 0.3476(2) 0.1028(4)
C3 C 0.5000 0.5225(4) 0.2500
C4 C 0.4232(4) 0.3888(3) 0.1775(4)
H3 H 0.556(6) 0.642(4) 0.307(5)
H4 H 0.363(6) 0.509(4) 0.111(5)
H5 H 0.288(4) 0.373(3) 0.057(4)
H6 H 0.344(5) 0.281(3) 0.106(5)
C4B C 0.5768(4) 0.3888(3) 0.3225(4)
N5B N 0.5794(3) 0.4782(2) 0.3234(3)
H3B H 0.444(6) 0.642(4) 0.193(5)
N6B N 0.6557(3) 0.3476(2) 0.3972(4)
H4B H 0.637(6) 0.509(4) 0.389(5)
H5B H 0.712(4) 0.373(3) 0.443(4)
H6B H 0.656(5) 0.281(3) 0.394(5)
loop_
_geom_bond_atom_site_label_1
_geom_bond_atom_site_label_2
_geom_bond_site_symmetry_1
_geom_bond_site_symmetry_2
O1 C2 1_555 1_555
O2 C1 1_555 1_555
N1 C2 1_555 1_555
N2 C1 1_555 1_555
C1 N2B 1_555 1_555
C2 N2 1_555 1_555
H1 N1 1_555 1_555
H2 N2 1_555 1_555
N3 C4 1_555 1_555
N4 C3 1_555 1_555
N5 C3 1_555 1_555
N6 C4 1_555 1_555
C3 N5B 1_555 1_555
C4 N5 1_555 1_555
H3 N4 1_555 1_555
H4 N5 1_555 1_555
H5 N6 1_555 1_555
H6 N6 1_555 1_555
C2B N1 1_555 1_555
N2B C2B 1_555 1_555
O1B C2B 1_555 1_555
H2B N2B 1_555 1_555
C4B N3 1_555 1_555
N5B C4B 1_555 1_555
H3B N4 1_555 1_555
N6B C4B 1_555 1_555
H4B N5B 1_555 1_555
H5B N6B 1_555 1_555
H6B N6B 1_555 1_555

#END
