
#######################################################################
#
#                 Cambridge Crystallographic Data Centre
#                                CCDC 
#
#######################################################################
#
# If this CIF has been generated from an entry in the Cambridge 
# Structural Database, then it will include bibliographic, chemical, 
# crystal, experimental, refinement or atomic coordinate data resulting 
# from the CCDC's data processing and validation procedures.
#
#######################################################################

data_KEMZEH
_chemical_formula_moiety         'C31 H52 O2'
_chemical_name_systematic        'Cholesteryl isobutyrate'
_symmetry_cell_setting           monoclinic
_symmetry_space_group_name_H-M   'P 21'
_symmetry_Int_Tables_number      4
_space_group_name_Hall           'P 2yb'
loop_
_symmetry_equiv_pos_site_id
_symmetry_equiv_pos_as_xyz
1 x,y,z
2 -x,1/2+y,-z
_cell_length_a                   15.115(8)
_cell_length_b                   9.636(5)
_cell_length_c                   20.224(9)
_cell_angle_alpha                90
_cell_angle_beta                 93.15(5)
_cell_angle_gamma                90
_cell_volume                     2941.14
_exptl_crystal_colour            colorless
_chemical_melting_point          132deg.C
_cell_formula_units_Z            4
loop_
_atom_site_label
_atom_site_type_symbol
_atom_site_fract_x
_atom_site_fract_y
_atom_site_fract_z
C1 C 1.0255(7) 0.2048(11) 0.8102(4)
C2 C 0.9680(10) 0.2294(13) 0.7472(5)
C3 C 0.8733(8) 0.2211(13) 0.7644(5)
C4 C 0.8536(7) 0.3300(13) 0.8159(5)
C5 C 0.9165(7) 0.3129(10) 0.8769(5)
C6 C 0.8816(6) 0.3086(13) 0.9369(5)
C7 C 0.9351(6) 0.2986(12) 1.0006(4)
C8 C 1.0350(5) 0.3232(10) 0.9936(4)
C9 C 1.0620(6) 0.2493(10) 0.9310(4)
C10 C 1.0123(5) 0.3039(10) 0.8665(4)
C11 C 1.1649(6) 0.2452(15) 0.9241(4)
C12 C 1.2192(7) 0.1977(14) 0.9904(4)
C13 C 1.1879(6) 0.2852(12) 1.0506(4)
C14 C 1.0896(5) 0.2700(11) 1.0525(4)
C15 C 1.0679(7) 0.3260(13) 1.1208(4)
C16 C 1.1514(6) 0.2849(13) 1.1656(5)
C17 C 1.2224(6) 0.2241(12) 1.1195(4)
C18 C 1.2199(7) 0.4382(12) 1.0462(5)
C19 C 1.0418(8) 0.4501(12) 0.8480(5)
C20 C 1.3146(7) 0.2438(17) 1.1463(5)
C21 C 1.3895(8) 0.2054(28) 1.1016(5)
C22 C 1.3288(7) 0.1884(17) 1.2171(5)
C23 C 1.4130(7) 0.2316(23) 1.2536(5)
C24 C 1.4180(8) 0.1948(19) 1.3233(6)
C25 C 1.5019(12) 0.2080(38) 1.3605(7)
C26 C 1.5003(10) 0.1812(50) 1.4339(7)
C27 C 1.5583(19) 0.3070(33) 1.3523(14)
C28 C 0.7520(9) 0.1665(20) 0.6857(7)
C29 C 0.6978(9) 0.2389(33) 0.6280(6)
C30 C 0.6227(11) 0.1944(52) 0.6261(9)
C31 C 0.7433(12) 0.2443(21) 0.5718(8)
O1 O 0.8201(6) 0.2501(10) 0.7049(4)
O2 O 0.7430(7) 0.0607(17) 0.7181(6)
C32 C 0.8125(6) -0.1831(12) 0.3370(5)
C33 C 0.7391(6) -0.1498(13) 0.2804(5)
C34 C 0.6679(6) -0.2595(13) 0.2877(5)
C35 C 0.6300(6) -0.2530(13) 0.3534(5)
C36 C 0.6973(5) -0.2702(13) 0.4094(5)
C37 C 0.6898(6) -0.3614(14) 0.4561(5)
C38 C 0.7533(7) -0.3777(13) 0.5160(4)
C39 C 0.8209(5) -0.2594(10) 0.5251(4)
C40 C 0.8524(5) -0.2245(9) 0.4566(4)
C41 C 0.7779(6) -0.1702(11) 0.4076(5)
C42 C 0.9354(6) -0.1250(12) 0.4617(4)
C43 C 1.0097(6) -0.1747(12) 0.5139(4)
C44 C 0.9673(6) -0.1910(10) 0.5806(4)
C45 C 0.8950(5) -0.2990(10) 0.5708(4)
C46 C 0.8732(7) -0.3444(16) 0.6445(4)
C47 C 0.9649(7) -0.3325(16) 0.6839(5)
C48 C 1.0308(6) -0.2614(10) 0.6376(4)
C49 C 0.9355(8) -0.0490(12) 0.6055(6)
C50 C 0.7514(8) -0.0227(12) 0.4229(6)
C51 C 1.0981(7) -0.1713(11) 0.6747(5)
C52 C 1.1698(7) -0.1150(12) 0.6277(5)
C53 C 1.1506(7) -0.2645(14) 0.7293(4)
C54 C 1.2052(8) -0.1787(17) 0.7801(6)
C55 C 1.2552(9) -0.2855(18) 0.8302(5)
C56 C 1.3237(13) -0.2376(24) 0.8697(10)
C57 C 1.3521(15) -0.3384(29) 0.9290(9)
C58 C 1.3043(12) -0.1172(33) 0.9084(10)
C59 C 0.5672(17) -0.3084(22) 0.1956(10)
C60 C 0.4843(13) -0.2531(27) 0.1534(7)
C61 C 0.4174(11) -0.3493(29) 0.1145(11)
C62 C 0.5360(13) -0.2151(29) 0.0908(9)
O3 O 0.5968(5) -0.2214(11) 0.2355(5)
O4 O 0.5580(8) -0.4356(20) 0.2235(7)
loop_
_geom_bond_atom_site_label_1
_geom_bond_atom_site_label_2
_geom_bond_site_symmetry_1
_geom_bond_site_symmetry_2
C1 C2 1_555 1_555
C2 C3 1_555 1_555
C3 C4 1_555 1_555
C4 C5 1_555 1_555
C5 C6 1_555 1_555
C6 C7 1_555 1_555
C7 C8 1_555 1_555
C8 C9 1_555 1_555
C9 C10 1_555 1_555
C10 C1 1_555 1_555
C11 C9 1_555 1_555
C12 C11 1_555 1_555
C13 C12 1_555 1_555
C14 C8 1_555 1_555
C15 C14 1_555 1_555
C16 C15 1_555 1_555
C17 C13 1_555 1_555
C18 C13 1_555 1_555
C19 C10 1_555 1_555
C20 C17 1_555 1_555
C21 C20 1_555 1_555
C22 C20 1_555 1_555
C23 C22 1_555 1_555
C24 C23 1_555 1_555
C25 C24 1_555 1_555
C26 C25 1_555 1_555
C27 C25 1_555 1_555
C28 C29 1_555 1_555
C29 C30 1_555 1_555
C31 C29 1_555 1_555
O1 C3 1_555 1_555
O2 C28 1_555 1_555
C32 C33 1_555 1_555
C33 C34 1_555 1_555
C34 C35 1_555 1_555
C35 C36 1_555 1_555
C36 C37 1_555 1_555
C37 C38 1_555 1_555
C38 C39 1_555 1_555
C39 C40 1_555 1_555
C40 C41 1_555 1_555
C41 C32 1_555 1_555
C42 C40 1_555 1_555
C43 C42 1_555 1_555
C44 C43 1_555 1_555
C45 C39 1_555 1_555
C46 C45 1_555 1_555
C47 C46 1_555 1_555
C48 C44 1_555 1_555
C49 C44 1_555 1_555
C50 C41 1_555 1_555
C51 C48 1_555 1_555
C52 C51 1_555 1_555
C53 C51 1_555 1_555
C54 C53 1_555 1_555
C55 C54 1_555 1_555
C56 C55 1_555 1_555
C57 C56 1_555 1_555
C58 C56 1_555 1_555
C59 C60 1_555 1_555
C60 C61 1_555 1_555
C62 C60 1_555 1_555
O3 C34 1_555 1_555
O4 C59 1_555 1_555
C5 C10 1_555 1_555
C13 C14 1_555 1_555
C16 C17 1_555 1_555
C28 O1 1_555 1_555
C36 C41 1_555 1_555
C44 C45 1_555 1_555
C47 C48 1_555 1_555
C59 O3 1_555 1_555

#END
