
#######################################################################
#
#                 Cambridge Crystallographic Data Centre
#                                CCDC 
#
#######################################################################
#
# If this CIF has been generated from an entry in the Cambridge 
# Structural Database, then it will include bibliographic, chemical, 
# crystal, experimental, refinement or atomic coordinate data resulting 
# from the CCDC's data processing and validation procedures.
#
#######################################################################

data_KEMZIO
_chemical_formula_moiety         'C24 H25 N1 O3 S1'
_chemical_name_systematic        
1-[(4-methylphenyl)sulfonyl]-3-phenyl-5-(prop-2-en-1-yl)-1,3a,4,5,7,7a-hexahydro-6H-indol-6-one
_symmetry_cell_setting           monoclinic
_symmetry_space_group_name_H-M   'P 21/c'
_symmetry_Int_Tables_number      14
_space_group_name_Hall           '-P 2ybc'
loop_
_symmetry_equiv_pos_site_id
_symmetry_equiv_pos_as_xyz
1 x,y,z
2 -x,1/2+y,1/2-z
3 -x,-y,-z
4 x,1/2-y,1/2+z
_cell_length_a                   8.7132(6)
_cell_length_b                   15.2630(8)
_cell_length_c                   16.3007(8)
_cell_angle_alpha                90
_cell_angle_beta                 102.860(5)
_cell_angle_gamma                90
_cell_volume                     2113.45
_exptl_crystal_colour            'light colorless'
_exptl_crystal_description       block
_cell_formula_units_Z            4
loop_
_atom_site_label
_atom_site_type_symbol
_atom_site_fract_x
_atom_site_fract_y
_atom_site_fract_z
S1 S 0.43073(9) 0.08603(5) 0.18511(4)
O1 O 0.3264(2) 0.14082(13) 0.21854(13)
O2 O 0.3780(2) 0.04431(14) 0.10528(11)
O3 O 0.5812(3) 0.23739(19) -0.05665(13)
N1 N 0.5806(3) 0.14880(15) 0.17625(13)
C1 C 0.6572(3) 0.19885(18) 0.24666(15)
H1 H 0.6058 0.2217 0.2861
C2 C 0.8095(3) 0.20981(18) 0.25068(15)
C3 C 0.8576(3) 0.1619(2) 0.17877(16)
H2 H 0.9426 0.1204 0.2008
C4 C 0.7056(4) 0.1117(2) 0.13601(17)
H3 H 0.7192 0.0493 0.1498
C5 C 0.6620(4) 0.1224(2) 0.04096(18)
H4 H 0.7358 0.0890 0.0168
H5 H 0.5582 0.0975 0.0200
C6 C 0.6614(4) 0.2154(3) 0.01094(18)
C7 C 0.7687(4) 0.2771(2) 0.06814(17)
H6 H 0.7101 0.2988 0.1088
C8 C 0.9089(3) 0.2259(2) 0.11819(16)
H7 H 0.9856 0.2664 0.1497
H8 H 0.9586 0.1938 0.0797
C9 C 0.9165(3) 0.2686(2) 0.30849(16)
C10 C 1.0783(3) 0.2530(2) 0.32858(18)
H9 H 1.1194 0.2046 0.3062
C11 C 1.1783(4) 0.3098(3) 0.3822(2)
H10 H 1.2860 0.2989 0.3953
C12 C 1.1210(5) 0.3817(3) 0.4159(2)
H11 H 1.1891 0.4187 0.4521
C13 C 0.9621(4) 0.3986(3) 0.39589(19)
H12 H 0.9224 0.4475 0.4183
C14 C 0.8607(4) 0.3427(2) 0.34219(17)
H13 H 0.7535 0.3550 0.3285
C15 C 0.8153(5) 0.3577(3) 0.0230(3)
H14 H 0.9060 0.3445 -0.0002
H15 H 0.7290 0.3751 -0.0227
C16 C 0.5062(3) 0.00551(18) 0.25942(16)
C17 C 0.5176(4) 0.0224(2) 0.34393(18)
H16 H 0.4818 0.0752 0.3611
C18 C 0.5826(4) -0.0400(2) 0.40230(18)
H17 H 0.5895 -0.0286 0.4591
C19 C 0.6376(3) -0.1184(2) 0.37933(19)
C20 C 0.6276(4) -0.13350(19) 0.29503(19)
H18 H 0.6654 -0.1860 0.2783
C21 C 0.5628(3) -0.07278(19) 0.23517(17)
H19 H 0.5570 -0.0842 0.1785
C22 C 0.7087(4) -0.1850(2) 0.4451(2)
H20 H 0.7470 -0.2340 0.4185
H21 H 0.6301 -0.2047 0.4738
H22 H 0.7944 -0.1587 0.4848
C23 C 0.8543(13) 0.4308(6) 0.0874(7)
H23 H 0.7692 0.4433 0.1113
C24 C 0.9730(14) 0.4801(9) 0.1181(9)
H24 H 1.0660 0.4742 0.0995
H25 H 0.9658 0.5216 0.1588
H26? H 0.8592 0.3355 -0.0226
H27? H 0.7177 0.3869 -0.0031
C25? C 0.9194(14) 0.4243(8) 0.0627(8)
H28? H 1.0004 0.4470 0.0403
C26? C 0.8904(18) 0.4501(11) 0.1325(8)
H29? H 0.8079 0.4252 0.1520
H30? H 0.9519 0.4936 0.1636
loop_
_geom_bond_atom_site_label_1
_geom_bond_atom_site_label_2
_geom_bond_site_symmetry_1
_geom_bond_site_symmetry_2
S1 O1 1_555 1_555
O2 S1 1_555 1_555
O3 C6 1_555 1_555
N1 S1 1_555 1_555
C1 N1 1_555 1_555
H1 C1 1_555 1_555
C2 C1 1_555 1_555
C3 C2 1_555 1_555
H2 C3 1_555 1_555
C4 N1 1_555 1_555
H3 C4 1_555 1_555
C5 C4 1_555 1_555
H4 C5 1_555 1_555
H5 C5 1_555 1_555
C6 C5 1_555 1_555
C7 C6 1_555 1_555
H6 C7 1_555 1_555
C8 C3 1_555 1_555
H7 C8 1_555 1_555
H8 C8 1_555 1_555
C9 C2 1_555 1_555
C10 C9 1_555 1_555
H9 C10 1_555 1_555
C11 C10 1_555 1_555
H10 C11 1_555 1_555
C12 C11 1_555 1_555
H11 C12 1_555 1_555
C13 C12 1_555 1_555
H12 C13 1_555 1_555
C14 C9 1_555 1_555
H13 C14 1_555 1_555
C15 C7 1_555 1_555
H14 C15 1_555 1_555
H15 C15 1_555 1_555
C16 S1 1_555 1_555
C17 C16 1_555 1_555
H16 C17 1_555 1_555
C18 C17 1_555 1_555
H17 C18 1_555 1_555
C19 C18 1_555 1_555
C20 C19 1_555 1_555
H18 C20 1_555 1_555
C21 C16 1_555 1_555
H19 C21 1_555 1_555
C22 C19 1_555 1_555
H20 C22 1_555 1_555
H21 C22 1_555 1_555
H22 C22 1_555 1_555
C23 C15 1_555 1_555
H23 C23 1_555 1_555
C24 C23 1_555 1_555
H24 C24 1_555 1_555
H25 C24 1_555 1_555
C3 C4 1_555 1_555
C7 C8 1_555 1_555
C13 C14 1_555 1_555
C20 C21 1_555 1_555

#END
