
#######################################################################
#
#                 Cambridge Crystallographic Data Centre
#                                CCDC 
#
#######################################################################
#
# If this CIF has been generated from an entry in the Cambridge 
# Structural Database, then it will include bibliographic, chemical, 
# crystal, experimental, refinement or atomic coordinate data resulting 
# from the CCDC's data processing and validation procedures.
#
#######################################################################

data_KEMZAE
_chemical_formula_moiety         'C34 H24 N6 O2,2(C1 H4 O1)'
_chemical_name_systematic        
"N,N'-bis(2-Quinolinecarbaldehyde)-2,2'-bibenzoylhydrazone methanol solvate"
_symmetry_cell_setting           orthorhombic
_symmetry_space_group_name_H-M   'P 21 21 21'
_symmetry_Int_Tables_number      19
_space_group_name_Hall           'P 2ac 2ab'
loop_
_symmetry_equiv_pos_site_id
_symmetry_equiv_pos_as_xyz
1 x,y,z
2 1/2-x,-y,1/2+z
3 -x,1/2+y,1/2-z
4 1/2+x,1/2-y,-z
_cell_length_a                   10.930(2)
_cell_length_b                   12.558(2)
_cell_length_c                   22.710(4)
_cell_angle_alpha                90
_cell_angle_beta                 90
_cell_angle_gamma                90
_cell_volume                     3117.15
_exptl_crystal_colour            yellow
_exptl_crystal_description       prism
_cell_formula_units_Z            4
_exptl_crystal_preparation       'fluorescent sensor'
loop_
_atom_site_label
_atom_site_type_symbol
_atom_site_fract_x
_atom_site_fract_y
_atom_site_fract_z
N1 N 0.4997(4) 0.6713(3) 0.39573(19)
N2 N 0.2787(4) 0.7246(3) 0.2871(2)
N3 N 0.2026(4) 0.6651(3) 0.2528(2)
H1 H 0.2000 0.5970 0.2568
N4 N 0.3874(4) 0.7406(3) 0.1322(2)
H2 H 0.3982 0.8074 0.1258
N5 N 0.4652(4) 0.6849(3) 0.1680(2)
N6 N 0.6992(4) 0.7483(3) 0.2680(2)
O1 O 0.1337(4) 0.8084(2) 0.20267(16)
O2 O 0.2808(3) 0.5908(3) 0.11019(19)
C1 C 0.4452(5) 0.8424(4) 0.3554(2)
H3 H 0.3959 0.8809 0.3297
C2 C 0.5286(5) 0.8927(4) 0.3896(3)
H4 H 0.5392 0.9659 0.3863
C3 C 0.5995(5) 0.8340(4) 0.4302(3)
C4 C 0.6885(5) 0.8792(4) 0.4678(3)
H5 H 0.7021 0.9523 0.4667
C5 C 0.7533(6) 0.8187(5) 0.5047(3)
H6 H 0.8119 0.8501 0.5288
C6 C 0.7344(6) 0.7091(5) 0.5076(3)
H7 H 0.7780 0.6681 0.5345
C7 C 0.6513(5) 0.6621(4) 0.4709(3)
H8 H 0.6416 0.5886 0.4720
C8 C 0.5811(5) 0.7219(4) 0.4319(2)
C9 C 0.4344(5) 0.7302(4) 0.3595(2)
C10 C 0.3491(5) 0.6731(4) 0.3215(2)
H9 H 0.3462 0.5991 0.3224
C11 C 0.1316(5) 0.7137(4) 0.2124(2)
C12 C 0.0476(4) 0.6388(4) 0.1799(2)
C13 C -0.0086(5) 0.5575(4) 0.2117(2)
H10 H 0.0077 0.5502 0.2517
C14 C -0.0879(5) 0.4880(4) 0.1845(3)
H11 H -0.1257 0.4342 0.2060
C15 C -0.1102(6) 0.4989(4) 0.1263(3)
H12 H -0.1625 0.4511 0.1078
C16 C -0.0565(5) 0.5799(4) 0.0936(3)
H13 H -0.0745 0.5869 0.0538
C17 C 0.0243(5) 0.6508(4) 0.1204(2)
C18 C 0.0765(5) 0.7362(4) 0.0813(2)
C19 C -0.0049(5) 0.7971(4) 0.0489(2)
H14 H -0.0886 0.7871 0.0537
C20 C 0.0374(6) 0.8728(4) 0.0095(3)
H15 H -0.0182 0.9123 -0.0125
C21 C 0.1608(6) 0.8902(4) 0.0026(3)
H16 H 0.1893 0.9403 -0.0242
C22 C 0.2402(5) 0.8324(4) 0.0360(2)
H17 H 0.3236 0.8461 0.0328
C23 C 0.2010(5) 0.7531(4) 0.0751(2)
C24 C 0.2921(5) 0.6874(4) 0.1070(3)
C25 C 0.5404(5) 0.7391(4) 0.1981(2)
H18 H 0.5437 0.8126 0.1935
C26 C 0.6220(5) 0.6868(4) 0.2401(3)
C27 C 0.6127(5) 0.5754(4) 0.2500(3)
H19 H 0.5551 0.5345 0.2301
C28 C 0.6895(5) 0.5308(4) 0.2889(3)
H20 H 0.6854 0.4579 0.2959
C29 C 0.7759(5) 0.5925(4) 0.3194(3)
C30 C 0.8608(5) 0.5522(5) 0.3608(3)
H21 H 0.8608 0.4798 0.3694
C31 C 0.9419(6) 0.6169(5) 0.3881(3)
H22 H 0.9983 0.5885 0.4144
C32 C 0.9412(6) 0.7261(5) 0.3769(3)
H23 H 0.9964 0.7703 0.3962
C33 C 0.8594(6) 0.7685(5) 0.3377(3)
H24 H 0.8594 0.8415 0.3309
C34 C 0.7761(5) 0.7039(4) 0.3078(3)
O3 O 0.5012(4) 0.4445(3) 0.4001(2)
H25 H 0.4935 0.5191 0.3992
C35 C 0.4010(6) 0.4177(4) 0.4351(3)
H26 H 0.3964 0.3419 0.4401
H27 H 0.4087 0.4512 0.4729
H28 H 0.3280 0.4426 0.4161
C36 C 0.8468(6) 0.8998(5) 0.1781(3)
H29 H 0.8764 0.9558 0.1532
H30 H 0.9142 0.8679 0.1987
H31 H 0.8065 0.8469 0.1546
O4 O 0.7606(4) 0.9452(3) 0.2194(2)
H32 H 0.7406 0.8812 0.2401
loop_
_geom_bond_atom_site_label_1
_geom_bond_atom_site_label_2
_geom_bond_site_symmetry_1
_geom_bond_site_symmetry_2
N1 C8 1_555 1_555
N2 N3 1_555 1_555
N3 H1 1_555 1_555
N4 H2 1_555 1_555
N5 N4 1_555 1_555
N6 C26 1_555 1_555
O1 C11 1_555 1_555
O2 C24 1_555 1_555
C1 H3 1_555 1_555
C2 C1 1_555 1_555
H4 C2 1_555 1_555
C3 C2 1_555 1_555
C4 C3 1_555 1_555
H5 C4 1_555 1_555
C5 C4 1_555 1_555
H6 C5 1_555 1_555
C6 C5 1_555 1_555
H7 C6 1_555 1_555
C7 C6 1_555 1_555
H8 C7 1_555 1_555
C8 C3 1_555 1_555
C9 N1 1_555 1_555
C10 N2 1_555 1_555
H9 C10 1_555 1_555
C11 N3 1_555 1_555
C12 C11 1_555 1_555
C13 C12 1_555 1_555
H10 C13 1_555 1_555
C14 C13 1_555 1_555
H11 C14 1_555 1_555
C15 C14 1_555 1_555
H12 C15 1_555 1_555
C16 C15 1_555 1_555
H13 C16 1_555 1_555
C17 C12 1_555 1_555
C18 C17 1_555 1_555
C19 C18 1_555 1_555
H14 C19 1_555 1_555
C20 C19 1_555 1_555
H15 C20 1_555 1_555
C21 C20 1_555 1_555
H16 C21 1_555 1_555
C22 C21 1_555 1_555
H17 C22 1_555 1_555
C23 C18 1_555 1_555
C24 N4 1_555 1_555
C25 N5 1_555 1_555
H18 C25 1_555 1_555
C26 C25 1_555 1_555
C27 C26 1_555 1_555
H19 C27 1_555 1_555
C28 C27 1_555 1_555
H20 C28 1_555 1_555
C29 C28 1_555 1_555
C30 C29 1_555 1_555
H21 C30 1_555 1_555
C31 C30 1_555 1_555
H22 C31 1_555 1_555
C32 C31 1_555 1_555
H23 C32 1_555 1_555
C33 C32 1_555 1_555
H24 C33 1_555 1_555
C34 N6 1_555 1_555
O3 H25 1_555 1_555
C35 O3 1_555 1_555
H26 C35 1_555 1_555
H27 C35 1_555 1_555
H28 C35 1_555 1_555
C36 H29 1_555 1_555
H30 C36 1_555 1_555
H31 C36 1_555 1_555
O4 C36 1_555 1_555
H32 O4 1_555 1_555
C1 C9 1_555 1_555
C7 C8 1_555 1_555
C9 C10 1_555 1_555
C16 C17 1_555 1_555
C22 C23 1_555 1_555
C23 C24 1_555 1_555
C29 C34 1_555 1_555
C33 C34 1_555 1_555

#END
