
#######################################################################
#
#                 Cambridge Crystallographic Data Centre
#                                CCDC 
#
#######################################################################
#
# If this CIF has been generated from an entry in the Cambridge 
# Structural Database, then it will include bibliographic, chemical, 
# crystal, experimental, refinement or atomic coordinate data resulting 
# from the CCDC's data processing and validation procedures.
#
#######################################################################

data_KENBUC
_chemical_formula_moiety         
'C36 H36 N24 O12,2(C7 H12 N2 O3 S1),2(H3 B1 O3),10(H2 O1)'
_chemical_name_systematic        
'Cucurbit[6]uril 3-(3-methyl-1H-imidazol-3-ium-1-yl)propane-1-sulfonate boric acid decahydrate'
_symmetry_cell_setting           triclinic
_symmetry_space_group_name_H-M   'P -1'
_symmetry_Int_Tables_number      2
_space_group_name_Hall           '-P 1'
loop_
_symmetry_equiv_pos_site_id
_symmetry_equiv_pos_as_xyz
1 x,y,z
2 -x,-y,-z
_cell_length_a                   12.3982(11)
_cell_length_b                   12.9274(12)
_cell_length_c                   13.0295(12)
_cell_angle_alpha                93.7850(10)
_cell_angle_beta                 113.7120(10)
_cell_angle_gamma                104.7370(10)
_cell_volume                     1815.41
_cell_formula_units_Z            1
loop_
_atom_site_label
_atom_site_type_symbol
_atom_site_fract_x
_atom_site_fract_y
_atom_site_fract_z
S1 S -0.23486(4) 0.35605(3) 0.50662(4)
O12 O -0.28342(13) 0.38507(11) 0.58574(13)
O13 O -0.30541(12) 0.24985(10) 0.43334(12)
O14 O -0.21866(12) 0.44183(10) 0.44138(11)
N13 N 0.07738(13) 0.09989(12) 0.75756(12)
N14 N 0.10242(12) 0.21962(11) 0.65511(12)
C19 C 0.08583(16) 0.20273(14) 0.74789(15)
H32 H 0.0808 0.2555 0.7987
C20 C 0.09002(17) 0.04941(15) 0.66821(16)
H33 H 0.0883 -0.0242 0.6546
C21 C 0.10514(16) 0.12388(14) 0.60416(15)
H34 H 0.1157 0.1128 0.5364
C22 C 0.11370(16) 0.32246(13) 0.61301(15)
H35 H 0.1681 0.3286 0.5737
H36 H 0.1532 0.3840 0.6787
C23 C -0.01113(15) 0.33077(14) 0.53094(14)
H37 H 0.0019 0.3915 0.4904
H38 H -0.0582 0.2625 0.4734
C24 C -0.08502(16) 0.35028(14) 0.59515(15)
H39 H -0.0380 0.4197 0.6509
H40 H -0.0934 0.2912 0.6387
C25 C 0.05577(19) 0.04966(16) 0.84788(17)
H41 H 0.0854 0.1060 0.9155
H42 H 0.1005 -0.0040 0.8676
H43 H -0.0330 0.0134 0.8210
O1 O 0.47176(13) 0.32256(12) 0.55211(12)
H1 H 0.4551 0.2642 0.5798
H2 H 0.5490 0.3387 0.5656
O2 O 0.77102(15) 0.05764(11) 0.47776(13)
H3 H 0.7443 0.1126 0.4597
H4 H 0.7871 0.0569 0.5484
O3 O 0.59676(13) 0.85437(12) 0.36030(12)
H5 H 0.6144 0.8295 0.3082
H6 H 0.6546 0.9125 0.4026
O4 O 0.38635(13) 0.23154(11) 0.83042(12)
H7 H 0.3664 0.1834 0.8673
H8 H 0.3851 0.2930 0.8570
O5 O 0.57747(12) 0.51923(11) 0.35187(12)
H9 H 0.6431 0.5065 0.3973
H10 H 0.5647 0.5707 0.3872
O6 O 0.70341(12) 0.70416(10) 1.00133(10)
O7 O 0.82173(11) 0.87258(10) 0.61964(11)
O8 O 0.98741(11) 0.64536(10) 1.11901(10)
O9 O 1.09382(12) 0.82475(10) 0.73142(11)
O10 O 1.21271(12) 0.87324(10) 1.29721(11)
O11 O 1.34663(12) 1.04454(10) 0.92552(11)
N1 N 0.61241(13) 0.75524(11) 0.82762(12)
N2 N 0.72963(13) 0.64799(11) 0.84271(12)
N3 N 0.66986(13) 0.83025(11) 0.68386(12)
N4 N 0.77908(13) 0.71655(12) 0.69202(12)
N5 N 0.93012(13) 0.61823(11) 0.92483(12)
N6 N 1.13004(13) 0.66739(11) 1.04415(12)
N7 N 0.97398(13) 0.67577(11) 0.76564(12)
N8 N 1.16868(13) 0.75375(11) 0.89459(12)
N9 N 1.28965(13) 0.83332(11) 1.16950(12)
N10 N 1.36641(13) 1.00008(11) 1.27425(12)
N11 N 1.34724(13) 0.90260(11) 1.02355(12)
N12 N 1.41237(13) 1.07053(11) 1.12136(12)
C1 C 0.68414(15) 0.70305(13) 0.90163(15)
C2 C 0.76311(15) 0.81301(13) 0.66068(14)
C3 C 0.60588(15) 0.73586(13) 0.71419(14)
H14 H 0.5187 0.7021 0.6549
C4 C 0.68487(15) 0.65828(13) 0.72389(14)
H15 H 0.6344 0.5862 0.6718
C5 C 0.53800(16) 0.81152(13) 0.85531(15)
H16 H 0.5291 0.7881 0.9231
H17 H 0.4543 0.7893 0.7909
C6 C 0.79812(15) 0.57412(13) 0.88977(15)
H18 H 0.7652 0.5066 0.8320
H19 H 0.7844 0.5542 0.9566
C7 C 0.86000(16) 0.66672(14) 0.66746(14)
H20 H 0.8805 0.7009 0.6091
H21 H 0.8150 0.5886 0.6343
C8 C 1.01326(16) 0.64546(12) 1.03797(14)
C9 C 1.08036(16) 0.75905(13) 0.79147(14)
C10 C 0.98912(15) 0.60710(13) 0.84980(14)
H22 H 0.9666 0.5291 0.8142
C11 C 1.12933(15) 0.65343(13) 0.93244(14)
H23 H 1.1753 0.6019 0.9259
C12 C 1.24062(16) 0.71549(13) 1.15024(15)
H24 H 1.3055 0.6837 1.1507
H25 H 1.2216 0.6953 1.2145
C13 C 1.29763(15) 0.81343(14) 0.92843(15)
H26 H 1.3473 0.7626 0.9491
H27 H 1.3057 0.8423 0.8625
C14 C 1.28185(16) 0.89963(13) 1.25188(14)
C15 C 1.36580(15) 1.00939(14) 1.01378(15)
C16 C 1.38828(15) 0.88706(13) 1.14006(15)
H28 H 1.4541 0.8504 1.1612
C17 C 1.43846(15) 1.00462(13) 1.20972(15)
H29 H 1.5291 1.0251 1.2609
C18 C 0.61145(16) 0.91156(13) 0.63848(14)
H30 H 0.6428 0.9418 0.5844
H31 H 0.5211 0.8759 0.5953
O6A O 1.29659(12) 1.29584(10) 0.99867(10)
O7A O 1.17827(11) 1.12742(10) 1.38036(11)
O8A O 1.01259(11) 1.35464(10) 0.88099(10)
O9A O 0.90618(12) 1.17525(10) 1.26858(11)
O10A O 0.78729(12) 1.12676(10) 0.70279(11)
O11A O 0.65337(12) 0.95546(10) 1.07448(11)
N1A N 1.38759(13) 1.24476(11) 1.17238(12)
N2A N 1.27037(13) 1.35201(11) 1.15729(12)
N3A N 1.33014(13) 1.16975(11) 1.31614(12)
N4A N 1.22092(13) 1.28345(12) 1.30798(12)
N5A N 1.06988(13) 1.38177(11) 1.07517(12)
N6A N 0.86996(13) 1.33261(11) 0.95585(12)
N7A N 1.02602(13) 1.32423(11) 1.23436(12)
N8A N 0.83132(13) 1.24625(11) 1.10541(12)
N9A N 0.71035(13) 1.16668(11) 0.83050(12)
N10A N 0.63359(13) 0.99992(11) 0.72575(12)
N11A N 0.65276(13) 1.09740(11) 0.97645(12)
N12A N 0.58763(13) 0.92947(11) 0.87864(12)
C1A C 1.31586(15) 1.29695(13) 1.09837(15)
C2A C 1.23689(15) 1.18699(13) 1.33932(14)
C3A C 1.39412(15) 1.26414(13) 1.28581(14)
H14A H 1.4813 1.2979 1.3451
C4A C 1.31513(15) 1.34172(13) 1.27611(14)
H15A H 1.3656 1.4138 1.3282
C5A C 1.46200(16) 1.18848(13) 1.14469(15)
H16A H 1.4709 1.2119 1.0769
H17A H 1.5457 1.2107 1.2091
C6A C 1.20188(15) 1.42588(13) 1.11023(15)
H18A H 1.2348 1.4934 1.1680
H19A H 1.2156 1.4458 1.0434
C7A C 1.14000(16) 1.33328(14) 1.33254(14)
H20A H 1.1195 1.2991 1.3909
H21A H 1.1850 1.4114 1.3657
C8A C 0.98674(16) 1.35454(12) 0.96203(14)
C9A C 0.91964(16) 1.24095(13) 1.20853(14)
C10A C 1.01088(15) 1.39290(13) 1.15020(14)
H22A H 1.0334 1.4709 1.1858
C11A C 0.87067(15) 1.34657(13) 1.06756(14)
H23A H 0.8247 1.3981 1.0741
C12A C 0.75938(16) 1.28451(13) 0.84976(15)
H24A H 0.6945 1.3163 0.8493
H25A H 0.7784 1.3047 0.7855
C13A C 0.70237(15) 1.18657(14) 1.07157(15)
H26A H 0.6527 1.2374 1.0509
H27A H 0.6943 1.1577 1.1375
C14A C 0.71815(16) 1.10037(13) 0.74812(14)
C15A C 0.63420(15) 0.99061(14) 0.98622(15)
C16A C 0.61172(15) 1.11294(13) 0.85994(15)
H28A H 0.5459 1.1496 0.8388
C17A C 0.56154(15) 0.99538(13) 0.79028(15)
H29A H 0.4709 0.9749 0.7391
C18A C 1.38855(16) 1.08844(13) 1.36152(14)
H30A H 1.3572 1.0582 1.4156
H31A H 1.4789 1.1241 1.4047
O15 O 0.71928(13) 0.41387(11) 0.20413(11)
H11 H 0.7241 0.4295 0.2696
O16 O 0.56854(13) 0.51249(11) 0.14781(11)
H12 H 0.5757 0.5108 0.2164
O17 O 0.62562(12) 0.43306(11) 0.01714(11)
H13 H 0.5700 0.4574 -0.0282
B1 B 0.63667(19) 0.45432(16) 0.12518(18)
loop_
_geom_bond_atom_site_label_1
_geom_bond_atom_site_label_2
_geom_bond_site_symmetry_1
_geom_bond_site_symmetry_2
S1 O12 1_555 1_555
O1 H1 1_555 1_555
H2 O1 1_555 1_555
O2 H3 1_555 1_555
H4 O2 1_555 1_555
O3 H5 1_555 1_555
H6 O3 1_555 1_555
O4 H7 1_555 1_555
H8 O4 1_555 1_555
O5 H9 1_555 1_555
H10 O5 1_555 1_555
O6 C1 1_555 1_555
O7 C2 1_555 1_555
O8 C8 1_555 1_555
O9 C9 1_555 1_555
O10 C14 1_555 1_555
O11 C15 1_555 1_555
O13 S1 1_555 1_555
O14 S1 1_555 1_555
O15 H11 1_555 1_555
O16 H12 1_555 1_555
O17 H13 1_555 1_555
N1 C1 1_555 1_555
N2 C1 1_555 1_555
N3 C2 1_555 1_555
N4 C2 1_555 1_555
N5 C6 1_555 1_555
N6 C8 1_555 1_555
N7 C7 1_555 1_555
N8 C9 1_555 1_555
N9 C12 1_555 1_555
N10 C14 1_555 1_555
N11 C13 1_555 1_555
N12 C15 1_555 1_555
N13 C19 1_555 1_555
N14 C19 1_555 1_555
B1 O15 1_555 1_555
C3 N1 1_555 1_555
H14 C3 1_555 1_555
C4 N2 1_555 1_555
H15 C4 1_555 1_555
C5 N1 1_555 1_555
H16 C5 1_555 1_555
H17 C5 1_555 1_555
C6 N2 1_555 1_555
H18 C6 1_555 1_555
H19 C6 1_555 1_555
C7 N4 1_555 1_555
H20 C7 1_555 1_555
H21 C7 1_555 1_555
C8 N5 1_555 1_555
C9 N7 1_555 1_555
C10 N5 1_555 1_555
H22 C10 1_555 1_555
C11 N6 1_555 1_555
H23 C11 1_555 1_555
C12 N6 1_555 1_555
H24 C12 1_555 1_555
H25 C12 1_555 1_555
C13 N8 1_555 1_555
H26 C13 1_555 1_555
H27 C13 1_555 1_555
C14 N9 1_555 1_555
C15 N11 1_555 1_555
C16 N9 1_555 1_555
H28 C16 1_555 1_555
C17 N10 1_555 1_555
H29 C17 1_555 1_555
C18 N3 1_555 1_555
H30 C18 1_555 1_555
H31 C18 1_555 1_555
C19 H32 1_555 1_555
C20 N13 1_555 1_555
H33 C20 1_555 1_555
C21 N14 1_555 1_555
H34 C21 1_555 1_555
C22 N14 1_555 1_555
H35 C22 1_555 1_555
H36 C22 1_555 1_555
C23 C22 1_555 1_555
H37 C23 1_555 1_555
H38 C23 1_555 1_555
C24 S1 1_555 1_555
H39 C24 1_555 1_555
H40 C24 1_555 1_555
C25 N13 1_555 1_555
H41 C25 1_555 1_555
H42 C25 1_555 1_555
H43 C25 1_555 1_555
O6A C1A 1_555 1_555
O7A C2A 1_555 1_555
O8A C8A 1_555 1_555
O9A C9A 1_555 1_555
O10A C14A 1_555 1_555
O11A C15A 1_555 1_555
N1A C1A 1_555 1_555
N2A C1A 1_555 1_555
N3A C2A 1_555 1_555
N4A C2A 1_555 1_555
N5A C6A 1_555 1_555
N6A C8A 1_555 1_555
N7A C7A 1_555 1_555
N8A C9A 1_555 1_555
N9A C12A 1_555 1_555
N10A C18 1_555 1_555
N11A C13A 1_555 1_555
N12A C5 1_555 1_555
C3A N1A 1_555 1_555
H14A C3A 1_555 1_555
C4A N2A 1_555 1_555
H15A C4A 1_555 1_555
C5A N12 1_555 1_555
H16A C5A 1_555 1_555
H17A C5A 1_555 1_555
C6A N2A 1_555 1_555
H18A C6A 1_555 1_555
H19A C6A 1_555 1_555
C7A N4A 1_555 1_555
H20A C7A 1_555 1_555
H21A C7A 1_555 1_555
C8A N5A 1_555 1_555
C9A N7A 1_555 1_555
C10A N5A 1_555 1_555
H22A C10A 1_555 1_555
C11A N6A 1_555 1_555
H23A C11A 1_555 1_555
C12A N6A 1_555 1_555
H24A C12A 1_555 1_555
H25A C12A 1_555 1_555
C13A N8A 1_555 1_555
H26A C13A 1_555 1_555
H27A C13A 1_555 1_555
C14A N9A 1_555 1_555
C15A N11A 1_555 1_555
C16A N9A 1_555 1_555
H28A C16A 1_555 1_555
C17A N10A 1_555 1_555
H29A C17A 1_555 1_555
C18A N10 1_555 1_555
H30A C18A 1_555 1_555
H31A C18A 1_555 1_555
O16 B1 1_555 1_555
O17 B1 1_555 1_555
N3 C3 1_555 1_555
N4 C4 1_555 1_555
N7 C10 1_555 1_555
N8 C11 1_555 1_555
N11 C16 1_555 1_555
N12 C17 1_555 1_555
C3 C4 1_555 1_555
C10 C11 1_555 1_555
C16 C17 1_555 1_555
C20 C21 1_555 1_555
C23 C24 1_555 1_555
N1A C5A 1_555 1_555
N3A C3A 1_555 1_555
N3A C18A 1_555 1_555
N4A C4A 1_555 1_555
N7A C10A 1_555 1_555
N8A C11A 1_555 1_555
N10A C14A 1_555 1_555
N11A C16A 1_555 1_555
N12A C15A 1_555 1_555
N12A C17A 1_555 1_555
C3A C4A 1_555 1_555
C10A C11A 1_555 1_555
C16A C17A 1_555 1_555

#END
