
#######################################################################
#
#                 Cambridge Crystallographic Data Centre
#                                CCDC 
#
#######################################################################
#
# If this CIF has been generated from an entry in the Cambridge 
# Structural Database, then it will include bibliographic, chemical, 
# crystal, experimental, refinement or atomic coordinate data resulting 
# from the CCDC's data processing and validation procedures.
#
#######################################################################

data_KENBUB
_chemical_formula_moiety         'C51 H51 B3 N6 O3'
_chemical_name_systematic        
bis(2-(1-n-Butylbenzimidazol-2-yl)phenyl-N)(2-(1-n-butylbenzimidazol-2-yl)phenyl)-1,3,5-boroxine
_symmetry_cell_setting           triclinic
_symmetry_space_group_name_H-M   'P -1'
_symmetry_Int_Tables_number      2
_space_group_name_Hall           '-P 1'
loop_
_symmetry_equiv_pos_site_id
_symmetry_equiv_pos_as_xyz
1 x,y,z
2 -x,-y,-z
_cell_length_a                   11.223(2)
_cell_length_b                   13.252(3)
_cell_length_c                   16.734(3)
_cell_angle_alpha                75.48(3)
_cell_angle_beta                 73.58(3)
_cell_angle_gamma                70.65(3)
_cell_volume                     2218.27
_exptl_crystal_colour            colorless
_exptl_crystal_description       plate
_chemical_melting_point          '235.6-239.9 deg.C'
_cell_formula_units_Z            2
loop_
_atom_site_label
_atom_site_type_symbol
_atom_site_fract_x
_atom_site_fract_y
_atom_site_fract_z
B1 B 0.3539(3) 0.5975(3) 0.8162(2)
B2 B 0.3646(3) 0.5638(3) 0.6795(2)
B3 B 0.3444(4) 0.4204(3) 0.8053(2)
O1 O 0.37434(19) 0.49009(15) 0.84913(11)
O2 O 0.32786(19) 0.63924(15) 0.73814(11)
O3 O 0.3550(2) 0.45749(15) 0.71716(11)
C1 C 0.2637(3) 0.8484(2) 0.78207(18)
N1 N 0.1386(3) 0.8917(2) 0.79390(17)
N2 N 0.3294(3) 0.8677(2) 0.69941(15)
C2 C 0.0018(5) 0.9975(4) 0.6878(3)
H1 H -0.0815 1.0196 0.7232
C3 C 0.0110(8) 1.0389(5) 0.6018(4)
H2 H -0.0640 1.0804 0.5804
C4 C 0.1258(8) 1.0229(4) 0.5443(4)
H3 H 0.1314 1.0506 0.4856
C5 C 0.2434(5) 0.9660(3) 0.5673(2)
H4 H 0.3281 0.9501 0.5325
C6 C 0.2350(4) 0.9256(3) 0.6537(2)
C7 C 0.1189(4) 0.9409(3) 0.7132(2)
C8 C 0.4665(4) 0.8211(3) 0.6640(2)
H5 H 0.4862 0.8110 0.6045
H6 H 0.4934 0.7488 0.6992
C12 C 0.5364(7) 0.9063(5) 0.6251(4)
H14 H 0.4813 0.9696 0.5939
H15 H 0.6169 0.8770 0.5846
C13 C 0.5693(7) 0.9402(6) 0.6946(4)
H16 H 0.4892 0.9634 0.7375
H17 H 0.6044 1.0033 0.6695
C14 C 0.6685(7) 0.8499(5) 0.7387(4)
H18 H 0.6848 0.8752 0.7837
H19 H 0.7495 0.8293 0.6970
H20 H 0.6346 0.7869 0.7629
C15 C 0.3326(3) 0.7876(2) 0.85104(17)
C16 C 0.3546(3) 0.8475(2) 0.90023(18)
H21 H 0.3275 0.9245 0.8878
C17 C 0.4153(3) 0.7964(2) 0.96730(18)
H22 H 0.4311 0.8382 0.9997
C18 C 0.4531(3) 0.6842(2) 0.98642(18)
H23 H 0.4946 0.6482 1.0322
C19 C 0.4293(3) 0.6250(2) 0.93810(18)
H24 H 0.4543 0.5480 0.9520
C20 C 0.3696(3) 0.6744(2) 0.86919(17)
N3 N 0.5174(2) 0.55966(18) 0.63090(14)
N4 N 0.6486(3) 0.6072(2) 0.51115(14)
C21 C 0.5290(3) 0.6004(2) 0.54892(17)
C22 C 0.8490(3) 0.5608(3) 0.5724(2)
H25 H 0.9058 0.5819 0.5215
C23 C 0.8888(3) 0.5195(3) 0.6476(2)
H26 H 0.9756 0.5122 0.6483
C24 C 0.8065(3) 0.4882(3) 0.7226(2)
H27 H 0.8386 0.4603 0.7729
C25 C 0.6793(3) 0.4967(2) 0.72569(19)
H28 H 0.6233 0.4749 0.7768
C26 C 0.6370(3) 0.5387(2) 0.64993(18)
C27 C 0.7206(3) 0.5699(2) 0.57509(18)
C28 C 0.6983(3) 0.6505(2) 0.42265(18)
H29 H 0.6581 0.6304 0.3856
H30 H 0.7930 0.6175 0.4074
C29 C 0.6697(3) 0.7732(3) 0.40749(18)
H31 H 0.7151 0.7928 0.4417
H32 H 0.5757 0.8056 0.4268
C30 C 0.7117(4) 0.8205(3) 0.3149(2)
H33 H 0.6619 0.8046 0.2817
H34 H 0.6892 0.9005 0.3092
C31 C 0.8508(5) 0.7794(4) 0.2784(3)
H35 H 0.8696 0.8129 0.2187
H36 H 0.8741 0.7004 0.2830
H37 H 0.9012 0.7976 0.3092
C32 C 0.4063(3) 0.6337(2) 0.52122(17)
C33 C 0.3815(3) 0.6760(2) 0.44059(18)
H38 H 0.4493 0.6864 0.3930
C34 C 0.2546(3) 0.7027(3) 0.43199(19)
H39 H 0.2350 0.7304 0.3776
C35 C 0.1569(3) 0.6889(3) 0.50194(19)
H40 H 0.0702 0.7097 0.4955
C36 C 0.1837(3) 0.6453(2) 0.58147(19)
H41 H 0.1154 0.6350 0.6287
C37 C 0.3096(3) 0.6165(2) 0.59308(17)
N5 N 0.1968(2) 0.41545(19) 0.85366(14)
N6 N 0.0748(3) 0.3205(2) 0.94868(15)
C38 C 0.1945(3) 0.3196(2) 0.90196(17)
C39 C -0.1356(3) 0.4714(3) 0.9579(2)
H42 H -0.1883 0.4312 0.9991
C40 C -0.1852(3) 0.5784(3) 0.9245(2)
H43 H -0.2745 0.6128 0.9432
C41 C -0.1092(3) 0.6383(3) 0.8639(2)
H44 H -0.1479 0.7118 0.8419
C42 C 0.0220(3) 0.5925(3) 0.83542(18)
H45 H 0.0749 0.6332 0.7951
C43 C 0.0725(3) 0.4848(3) 0.86847(17)
C44 C -0.0050(3) 0.4251(3) 0.92863(18)
C45 C 0.0338(3) 0.2307(3) 1.01064(18)
H46 H -0.0439 0.2615 1.0525
H47 H 0.1035 0.1891 1.0414
C46 C 0.0035(3) 0.1535(3) 0.97080(19)
H48 H 0.0841 0.1157 0.9345
H49 H -0.0273 0.0978 1.0162
C47 C -0.0976(3) 0.2091(3) 0.9181(2)
H50 H -0.0662 0.2631 0.8713
H51 H -0.1780 0.2484 0.9538
C48 C -0.1280(3) 0.1282(3) 0.8815(2)
H52 H -0.1938 0.1670 0.8480
H53 H -0.1604 0.0754 0.9277
H54 H -0.0490 0.0903 0.8452
C49 C 0.3224(3) 0.2385(2) 0.89046(17)
C50 C 0.3568(3) 0.1268(3) 0.92141(19)
H55 H 0.2956 0.0929 0.9602
C51 C 0.4833(3) 0.0674(3) 0.89359(19)
H56 H 0.5098 -0.0085 0.9136
C52 C 0.5708(3) 0.1176(2) 0.83751(19)
H57 H 0.6566 0.0755 0.8179
C53 C 0.5358(3) 0.2283(2) 0.80905(18)
H58 H 0.5985 0.2616 0.7715
C54 C 0.4108(3) 0.2915(2) 0.83454(17)
C9? C 0.5557(10) 0.8894(10) 0.6767(8)
H7? H 0.5422 0.9601 0.6378
H8? H 0.5281 0.9042 0.7353
C10? C 0.7045(8) 0.8295(8) 0.6584(7)
H9? H 0.7178 0.7564 0.6939
H10? H 0.7346 0.8204 0.5983
C11? C 0.7837(11) 0.8914(9) 0.6773(7)
H11? H 0.8759 0.8523 0.6640
H12? H 0.7568 0.8973 0.7374
H13? H 0.7691 0.9643 0.6429
loop_
_geom_bond_atom_site_label_1
_geom_bond_atom_site_label_2
_geom_bond_site_symmetry_1
_geom_bond_site_symmetry_2
B1 O1 1_555 1_555
B2 O2 1_555 1_555
B3 O1 1_555 1_555
O2 B1 1_555 1_555
O3 B2 1_555 1_555
C1 N1 1_555 1_555
N1 C7 1_555 1_555
N2 C1 1_555 1_555
C2 H1 1_555 1_555
C3 C2 1_555 1_555
H2 C3 1_555 1_555
C4 C3 1_555 1_555
H3 C4 1_555 1_555
C5 C4 1_555 1_555
H4 C5 1_555 1_555
C6 N2 1_555 1_555
C7 C2 1_555 1_555
C8 N2 1_555 1_555
H5 C8 1_555 1_555
H6 C8 1_555 1_555
C12 C8 1_555 1_555
H14 C12 1_555 1_555
H15 C12 1_555 1_555
C13 C12 1_555 1_555
H16 C13 1_555 1_555
H17 C13 1_555 1_555
C14 C13 1_555 1_555
H18 C14 1_555 1_555
H19 C14 1_555 1_555
H20 C14 1_555 1_555
C15 C1 1_555 1_555
C16 C15 1_555 1_555
H21 C16 1_555 1_555
C17 C16 1_555 1_555
H22 C17 1_555 1_555
C18 C17 1_555 1_555
H23 C18 1_555 1_555
C19 C18 1_555 1_555
H24 C19 1_555 1_555
C20 B1 1_555 1_555
N3 B2 1_555 1_555
N4 C21 1_555 1_555
C21 N3 1_555 1_555
C22 H25 1_555 1_555
C23 C22 1_555 1_555
H26 C23 1_555 1_555
C24 C23 1_555 1_555
H27 C24 1_555 1_555
C25 C24 1_555 1_555
H28 C25 1_555 1_555
C26 N3 1_555 1_555
C27 N4 1_555 1_555
C28 N4 1_555 1_555
H29 C28 1_555 1_555
H30 C28 1_555 1_555
C29 C28 1_555 1_555
H31 C29 1_555 1_555
H32 C29 1_555 1_555
C30 C29 1_555 1_555
H33 C30 1_555 1_555
H34 C30 1_555 1_555
C31 C30 1_555 1_555
H35 C31 1_555 1_555
H36 C31 1_555 1_555
H37 C31 1_555 1_555
C32 C21 1_555 1_555
C33 C32 1_555 1_555
H38 C33 1_555 1_555
C34 C33 1_555 1_555
H39 C34 1_555 1_555
C35 C34 1_555 1_555
H40 C35 1_555 1_555
C36 C35 1_555 1_555
H41 C36 1_555 1_555
C37 B2 1_555 1_555
N5 B3 1_555 1_555
N6 C38 1_555 1_555
C38 N5 1_555 1_555
C39 H42 1_555 1_555
C40 C39 1_555 1_555
H43 C40 1_555 1_555
C41 C40 1_555 1_555
H44 C41 1_555 1_555
C42 C41 1_555 1_555
H45 C42 1_555 1_555
C43 N5 1_555 1_555
C44 N6 1_555 1_555
C45 N6 1_555 1_555
H46 C45 1_555 1_555
H47 C45 1_555 1_555
C46 C45 1_555 1_555
H48 C46 1_555 1_555
H49 C46 1_555 1_555
C47 C46 1_555 1_555
H50 C47 1_555 1_555
H51 C47 1_555 1_555
C48 C47 1_555 1_555
H52 C48 1_555 1_555
H53 C48 1_555 1_555
H54 C48 1_555 1_555
C49 C38 1_555 1_555
C50 C49 1_555 1_555
H55 C50 1_555 1_555
C51 C50 1_555 1_555
H56 C51 1_555 1_555
C52 C51 1_555 1_555
H57 C52 1_555 1_555
C53 C52 1_555 1_555
H58 C53 1_555 1_555
C54 B3 1_555 1_555
B3 O3 1_555 1_555
C5 C6 1_555 1_555
C6 C7 1_555 1_555
C15 C20 1_555 1_555
C19 C20 1_555 1_555
C22 C27 1_555 1_555
C25 C26 1_555 1_555
C26 C27 1_555 1_555
C32 C37 1_555 1_555
C36 C37 1_555 1_555
C39 C44 1_555 1_555
C42 C43 1_555 1_555
C43 C44 1_555 1_555
C49 C54 1_555 1_555
C53 C54 1_555 1_555

#END
