
#######################################################################
#
#                 Cambridge Crystallographic Data Centre
#                                CCDC 
#
#######################################################################
#
# If this CIF has been generated from an entry in the Cambridge 
# Structural Database, then it will include bibliographic, chemical, 
# crystal, experimental, refinement or atomic coordinate data resulting 
# from the CCDC's data processing and validation procedures.
#
#######################################################################

data_KENCIQ01
_chemical_formula_moiety         'C16 H10 N2 O1'
_chemical_name_systematic        1'H,3H-2,3'-bi-indol-3-one
_symmetry_cell_setting           orthorhombic
_symmetry_space_group_name_H-M   'P c a 21'
_symmetry_Int_Tables_number      29
_space_group_name_Hall           'P 2c -2ac'
loop_
_symmetry_equiv_pos_site_id
_symmetry_equiv_pos_as_xyz
1 x,y,z
2 -x,-y,1/2+z
3 1/2+x,-y,z
4 1/2-x,y,1/2+z
_cell_length_a                   24.4406(8)
_cell_length_b                   4.3182(2)
_cell_length_c                   11.0826(4)
_cell_angle_alpha                90
_cell_angle_beta                 90
_cell_angle_gamma                90
_cell_volume                     1169.65
_exptl_crystal_colour            red
_exptl_crystal_description       block
_chemical_melting_point          '214-215 deg.C'
_cell_formula_units_Z            4
loop_
_atom_site_label
_atom_site_type_symbol
_atom_site_fract_x
_atom_site_fract_y
_atom_site_fract_z
O1 O 0.64212(8) 0.7455(6) 0.6646(2)
N1 N 0.47102(10) 0.5311(5) 0.6993(2)
H1 H 0.4534 0.6135 0.7583
N2 N 0.60491(9) 0.2892(5) 0.4166(2)
C1 C 0.49092(11) 0.2461(6) 0.5346(2)
C2 C 0.59199(11) 0.4198(7) 0.5193(3)
C3 C 0.53971(11) 0.4092(7) 0.5741(2)
C4 C 0.66230(11) 0.3539(7) 0.3969(3)
C5 C 0.47897(11) 0.0386(7) 0.4444(3)
H2 H 0.5065 -0.0279 0.3926
C6 C 0.52472(12) 0.5776(7) 0.6748(3)
H3 H 0.5480 0.7041 0.7192
C7 C 0.68543(12) 0.5313(7) 0.4872(3)
C8 C 0.44903(12) 0.3315(7) 0.6153(3)
C9 C 0.39576(12) 0.2235(7) 0.6033(3)
H4 H 0.3684 0.2857 0.6564
C10 C 0.64118(13) 0.5951(7) 0.5736(3)
C11 C 0.42576(12) -0.0729(6) 0.4303(3)
H5 H 0.4175 -0.2092 0.3679
C12 C 0.77154(11) 0.5128(7) 0.3892(3)
H6 H 0.8084 0.5659 0.3854
C13 C 0.38487(12) 0.0228(7) 0.5110(3)
H7 H 0.3495 -0.0522 0.5014
C14 C 0.69328(12) 0.2489(7) 0.3019(3)
H8 H 0.6781 0.1276 0.2411
C15 C 0.74872(13) 0.3325(6) 0.3005(3)
H9 H 0.7707 0.2636 0.2375
C16 C 0.73973(11) 0.6152(7) 0.4840(3)
H10 H 0.7547 0.7383 0.5445
loop_
_geom_bond_atom_site_label_1
_geom_bond_atom_site_label_2
_geom_bond_site_symmetry_1
_geom_bond_site_symmetry_2
O1 C10 1_555 1_555
N1 H1 1_555 1_555
N2 C2 1_555 1_555
C1 C3 1_555 1_555
C2 C3 1_555 1_555
C3 C6 1_555 1_555
C4 N2 1_555 1_555
C5 C1 1_555 1_555
H2 C5 1_555 1_555
C6 N1 1_555 1_555
H3 C6 1_555 1_555
C7 C4 1_555 1_555
C8 N1 1_555 1_555
C9 C8 1_555 1_555
H4 C9 1_555 1_555
C10 C2 1_555 1_555
C11 C5 1_555 1_555
H5 C11 1_555 1_555
C12 H6 1_555 1_555
C13 C9 1_555 1_555
H7 C13 1_555 1_555
C14 C4 1_555 1_555
H8 C14 1_555 1_555
C15 C12 1_555 1_555
H9 C15 1_555 1_555
C16 C7 1_555 1_555
H10 C16 1_555 1_555
C1 C8 1_555 1_555
C7 C10 1_555 1_555
C11 C13 1_555 1_555
C12 C16 1_555 1_555
C14 C15 1_555 1_555

#END
