
#######################################################################
#
#                 Cambridge Crystallographic Data Centre
#                                CCDC 
#
#######################################################################
#
# If this CIF has been generated from an entry in the Cambridge 
# Structural Database, then it will include bibliographic, chemical, 
# crystal, experimental, refinement or atomic coordinate data resulting 
# from the CCDC's data processing and validation procedures.
#
#######################################################################

data_KENGER
_chemical_formula_moiety         'C21 H18 Cl2 F3 N5 O3'
_chemical_name_systematic        
N-(4-Chloro-2-(isopropylcarbamoyl)phenyl)-1-(3-chloropyridin-2-yl)-3-(2,2,2-trifluoroethoxy)-1H-pyrazole-5-carboxamide
_symmetry_cell_setting           monoclinic
_symmetry_space_group_name_H-M   'P 21/n'
_symmetry_Int_Tables_number      14
_space_group_name_Hall           '-P 2yn'
loop_
_symmetry_equiv_pos_site_id
_symmetry_equiv_pos_as_xyz
1 x,y,z
2 1/2-x,1/2+y,1/2-z
3 -x,-y,-z
4 1/2+x,1/2-y,1/2+z
_cell_length_a                   11.976(2)
_cell_length_b                   14.274(3)
_cell_length_c                   14.350(3)
_cell_angle_alpha                90
_cell_angle_beta                 111.73(3)
_cell_angle_gamma                90
_cell_volume                     2278.75
_cell_formula_units_Z            4
loop_
_atom_site_label
_atom_site_type_symbol
_atom_site_fract_x
_atom_site_fract_y
_atom_site_fract_z
Cl1 Cl -0.03684(5) 0.15298(5) 0.03265(5)
Cl2 Cl 1.00166(6) 0.22707(5) 0.53393(5)
F1 F 0.80680(18) 0.57745(13) 0.70306(15)
F2 F 0.82184(14) 0.69325(11) 0.61515(14)
F3 F 0.97963(16) 0.63545(12) 0.72713(14)
O1 O 0.35802(15) 0.46577(11) 0.14665(13)
O2 O 0.56489(14) 0.18492(12) 0.33023(13)
O3 O 0.77378(15) 0.53621(12) 0.50736(14)
N1 N 0.22973(18) 0.43396(14) -0.01133(16)
N2 N 0.44873(18) 0.30931(14) 0.24813(16)
N3 N 0.83165(18) 0.39670(14) 0.44998(15)
N4 N 0.76591(17) 0.32323(14) 0.39453(16)
N5 N 0.76241(18) 0.24391(14) 0.25235(16)
C1 C 0.3361(2) 0.26799(17) 0.19636(18)
C2 C 0.3039(2) 0.18072(17) 0.22339(19)
H1 H 0.3594 0.1466 0.2751
C3 C 0.1897(2) 0.14503(17) 0.1734(2)
H2 H 0.1686 0.0868 0.1910
C4 C 0.1074(2) 0.19632(17) 0.09735(19)
C5 C 0.1373(2) 0.28242(17) 0.06945(19)
H3 H 0.0805 0.3162 0.0183
C6 C 0.2527(2) 0.31906(16) 0.11770(18)
C7 C 0.2841(2) 0.41252(17) 0.0854(2)
C8 C 0.2500(2) 0.52341(17) -0.0532(2)
H4 H 0.3362 0.5374 -0.0238
C9 C 0.1839(3) 0.60201(19) -0.0256(2)
H5 H 0.0989 0.5909 -0.0554
H6 H 0.2026 0.6603 -0.0498
H7 H 0.2079 0.6049 0.0460
C10 C 0.2151(3) 0.51351(18) -0.1653(2)
H8 H 0.2613 0.4642 -0.1790
H9 H 0.2308 0.5713 -0.1925
H10 H 0.1311 0.4988 -0.1956
C11 C 0.5509(2) 0.26914(17) 0.31144(19)
C12 C 0.6446(2) 0.33983(16) 0.36252(18)
C13 C 0.6310(2) 0.42449(17) 0.40124(18)
H11 H 0.5597 0.4552 0.3937
C14 C 0.7485(2) 0.45464(17) 0.45479(19)
C15 C 0.8907(2) 0.54678(18) 0.5823(2)
H12 H 0.9460 0.5723 0.5537
H13 H 0.9215 0.4871 0.6135
C16 C 0.8743(2) 0.61317(19) 0.6568(2)
C17 C 0.8214(2) 0.25737(16) 0.35024(19)
C18 C 0.9283(2) 0.21232(17) 0.40594(19)
C19 C 0.9766(2) 0.15102(18) 0.3556(2)
H14 H 1.0488 0.1204 0.3898
C20 C 0.9166(2) 0.13611(18) 0.2548(2)
H15 H 0.9471 0.0952 0.2196
C21 C 0.8096(2) 0.18330(18) 0.2065(2)
H16 H 0.7685 0.1721 0.1384
H17 H 0.1889(19) 0.3891(13) -0.0541(15)
H18 H 0.449(2) 0.3705(8) 0.2329(19)
loop_
_geom_bond_atom_site_label_1
_geom_bond_atom_site_label_2
_geom_bond_site_symmetry_1
_geom_bond_site_symmetry_2
Cl1 C4 1_555 1_555
Cl2 C18 1_555 1_555
F1 C16 1_555 1_555
F2 C16 1_555 1_555
F3 C16 1_555 1_555
O1 C7 1_555 1_555
O2 C11 1_555 1_555
O3 C14 1_555 1_555
N1 C7 1_555 1_555
N2 C1 1_555 1_555
N3 N4 1_555 1_555
N4 C12 1_555 1_555
N5 C17 1_555 1_555
C1 C2 1_555 1_555
C2 H1 1_555 1_555
C3 C2 1_555 1_555
H2 C3 1_555 1_555
C4 C3 1_555 1_555
C5 C4 1_555 1_555
H3 C5 1_555 1_555
C6 C1 1_555 1_555
C7 C6 1_555 1_555
C8 N1 1_555 1_555
H4 C8 1_555 1_555
C9 C8 1_555 1_555
H5 C9 1_555 1_555
H6 C9 1_555 1_555
H7 C9 1_555 1_555
C10 C8 1_555 1_555
H8 C10 1_555 1_555
H9 C10 1_555 1_555
H10 C10 1_555 1_555
C11 N2 1_555 1_555
C12 C11 1_555 1_555
C13 C12 1_555 1_555
H11 C13 1_555 1_555
C14 N3 1_555 1_555
C15 O3 1_555 1_555
H12 C15 1_555 1_555
H13 C15 1_555 1_555
C16 C15 1_555 1_555
C17 N4 1_555 1_555
C18 C17 1_555 1_555
C19 C18 1_555 1_555
H14 C19 1_555 1_555
C20 C19 1_555 1_555
H15 C20 1_555 1_555
C21 N5 1_555 1_555
H16 C21 1_555 1_555
H17 N1 1_555 1_555
H18 N2 1_555 1_555
C5 C6 1_555 1_555
C13 C14 1_555 1_555
C20 C21 1_555 1_555

#END
