
#######################################################################
#
#                 Cambridge Crystallographic Data Centre
#                                CCDC 
#
#######################################################################
#
# If this CIF has been generated from an entry in the Cambridge 
# Structural Database, then it will include bibliographic, chemical, 
# crystal, experimental, refinement or atomic coordinate data resulting 
# from the CCDC's data processing and validation procedures.
#
#######################################################################

data_KENLEV
_chemical_formula_moiety         'C17 H14 O2 S1'
_chemical_name_systematic        
(R)-3-Formyl-2-(2-methoxyphenyl)-2H-benzothiopyran
_symmetry_cell_setting           orthorhombic
_symmetry_space_group_name_H-M   'P 21 21 21'
_symmetry_Int_Tables_number      19
_space_group_name_Hall           'P 2ac 2ab'
loop_
_symmetry_equiv_pos_site_id
_symmetry_equiv_pos_as_xyz
1 x,y,z
2 1/2-x,-y,1/2+z
3 -x,1/2+y,1/2-z
4 1/2+x,1/2-y,-z
_cell_length_a                   5.9360(2)
_cell_length_b                   10.2325(4)
_cell_length_c                   22.8396(10)
_cell_angle_alpha                90
_cell_angle_beta                 90
_cell_angle_gamma                90
_cell_volume                     1387.28
_exptl_crystal_colour            yellow
_exptl_crystal_description       needle
_cell_formula_units_Z            4
loop_
_atom_site_label
_atom_site_type_symbol
_atom_site_fract_x
_atom_site_fract_y
_atom_site_fract_z
S1 S 0.50549(5) 0.09681(3) 0.105772(14)
O1 O 0.9170(3) -0.25751(10) 0.04407(7)
O2 O 0.4597(2) -0.23946(12) 0.16202(6)
C1 C 0.69362(19) 0.22699(11) 0.09737(5)
C2 C 0.6252(2) 0.35206(12) 0.11532(5)
H1 H 0.482(4) 0.361(2) 0.1369(9)
C3 C 0.7595(3) 0.46022(12) 0.10366(6)
H2 H 0.708(4) 0.543(3) 0.1173(11)
C4 C 0.9646(3) 0.44620(11) 0.07508(6)
H3 H 1.060(4) 0.524(2) 0.0696(10)
C5 C 1.0337(2) 0.32292(11) 0.05779(5)
H4 H 1.183(4) 0.3123(19) 0.0381(9)
C6 C 0.90091(18) 0.21218(10) 0.06804(4)
C7 C 0.97425(19) 0.08609(10) 0.04634(4)
H5 H 1.106(3) 0.0803(18) 0.0225(8)
C8 C 0.8791(2) -0.02952(10) 0.05988(5)
C9 C 0.6868(2) -0.04858(11) 0.10168(5)
H6 H 0.596(4) -0.1143(19) 0.0871(9)
C10 C 0.7617(2) -0.09208(11) 0.16203(5)
C11 C 0.9469(2) -0.03673(13) 0.18941(6)
H7 H 1.023(4) 0.025(2) 0.1734(9)
C12 C 1.0088(3) -0.07356(15) 0.24589(6)
H8 H 1.127(4) -0.036(2) 0.2629(9)
C13 C 0.8869(3) -0.16924(16) 0.27436(6)
H9 H 0.923(4) -0.193(2) 0.3121(9)
C14 C 0.7036(3) -0.22765(14) 0.24780(6)
H10 H 0.616(4) -0.289(2) 0.2654(9)
C15 C 0.6390(2) -0.18930(12) 0.19161(6)
C16 C 0.9801(3) -0.14653(12) 0.03405(7)
H11 H 1.100(4) -0.129(2) 0.0094(10)
C17 C 0.3294(7) -0.3385(3) 0.19026(19)
H12 H 0.1939 -0.3516 0.1680
H13 H 0.2989 -0.3167 0.2304
H14 H 0.4059 -0.4209 0.1878
C18? C 0.2859(12) -0.3280(6) 0.1770(3)
H15? H 0.2147 -0.2924 0.2112
H16? H 0.3492 -0.4121 0.1856
H17? H 0.1811 -0.3375 0.1453
C19? C 0.3644(14) -0.3448(7) 0.2033(4)
H18? H 0.4862 -0.3901 0.2221
H19? H 0.2756 -0.4082 0.1826
H20? H 0.2767 -0.3037 0.2334
loop_
_geom_bond_atom_site_label_1
_geom_bond_atom_site_label_2
_geom_bond_site_symmetry_1
_geom_bond_site_symmetry_2
S1 C1 1_555 1_555
O1 C16 1_555 1_555
O2 C15 1_555 1_555
C1 C2 1_555 1_555
C2 H1 1_555 1_555
C3 C2 1_555 1_555
H2 C3 1_555 1_555
C4 C3 1_555 1_555
H3 C4 1_555 1_555
C5 C4 1_555 1_555
H4 C5 1_555 1_555
C6 C1 1_555 1_555
C7 C6 1_555 1_555
H5 C7 1_555 1_555
C8 C7 1_555 1_555
C9 S1 1_555 1_555
H6 C9 1_555 1_555
C10 C9 1_555 1_555
C11 C10 1_555 1_555
H7 C11 1_555 1_555
C12 C11 1_555 1_555
H8 C12 1_555 1_555
C13 C12 1_555 1_555
H9 C13 1_555 1_555
C14 C13 1_555 1_555
H10 C14 1_555 1_555
C15 C10 1_555 1_555
C16 C8 1_555 1_555
H11 C16 1_555 1_555
C17 O2 1_555 1_555
H12 C17 1_555 1_555
H13 C17 1_555 1_555
H14 C17 1_555 1_555
C5 C6 1_555 1_555
C8 C9 1_555 1_555
C14 C15 1_555 1_555

#END
