
#######################################################################
#
#                 Cambridge Crystallographic Data Centre
#                                CCDC 
#
#######################################################################
#
# If this CIF has been generated from an entry in the Cambridge 
# Structural Database, then it will include bibliographic, chemical, 
# crystal, experimental, refinement or atomic coordinate data resulting 
# from the CCDC's data processing and validation procedures.
#
#######################################################################

data_KEPGIV
_chemical_formula_moiety         'C32 H48 Na2 O14 2+,2(I1 1-)'
_chemical_name_systematic        
'(\m~2~-1,5-bis(2-(2-(2-(2-Methoxyethoxy)ethoxy)ethoxy)ethoxy) anthracene-9,10-dione)-bis(aqua-sodium) di-iodide'
_symmetry_cell_setting           monoclinic
_symmetry_space_group_name_H-M   'C c'
_symmetry_Int_Tables_number      9
_space_group_name_Hall           'C -2yc'
loop_
_symmetry_equiv_pos_site_id
_symmetry_equiv_pos_as_xyz
1 x,y,z
2 1/2+x,1/2+y,z
3 x,-y,1/2+z
4 1/2+x,1/2-y,1/2+z
_cell_length_a                   11.429(5)
_cell_length_b                   16.153(6)
_cell_length_c                   22.472(6)
_cell_angle_alpha                90
_cell_angle_beta                 104.56(4)
_cell_angle_gamma                90
_cell_volume                     4015.38
_exptl_crystal_colour            yellow
_chemical_melting_point          173-174deg.C
_cell_formula_units_Z            4
loop_
_atom_site_label
_atom_site_type_symbol
_atom_site_fract_x
_atom_site_fract_y
_atom_site_fract_z
I1 I 0.0026 0.0229(1) 0.2202
I2 I 0.3149(2) 0.2271(1) 0.8446(1)
Na1 Na 0.0407(8) 0.5921(5) 0.1414(4)
Na2 Na -0.0694(7) 0.1585(5) -0.0767(4)
O1 O -0.114(1) 0.5350(9) 0.0598(6)
O2 O -0.141(1) 0.2159(9) 0.0055(6)
O3 O -0.122(1) 0.5013(9) 0.1718(7)
O4 O -0.064(2) 0.658(1) 0.2104(7)
O5 O -0.022(2) 0.734(1) 0.1117(8)
O6 O 0.126(1) 0.637(1) 0.0597(7)
O7 O 0.137(1) 0.474(1) 0.1007(7)
O8 O -0.264(1) 0.2502(9) -0.1067(6)
O9 O -0.239(2) 0.094(1) -0.1451(7)
O10 O -0.103(2) 0.016(1) -0.0481(9)
O11 O 0.101(1) 0.112(1) 0.0041(7)
O12 O 0.072(2) 0.275(1) -0.0367(8)
C1 C -0.137(2) 0.461(1) 0.0468(8)
C2 C -0.123(2) 0.419(1) 0.1577(9)
C3 C -0.113(2) 0.357(1) 0.201(1)
C4 C -0.108(2) 0.276(2) 0.185(1)
C5 C -0.117(2) 0.255(2) 0.124(1)
C6 C -0.155(2) 0.288(1) 0.0171(9)
C7 C -0.250(2) 0.330(1) -0.093(1)
C8 C -0.283(2) 0.393(1) -0.135(1)
C9 C -0.266(2) 0.475(2) -0.119(1)
C10 C -0.211(2) 0.497(1) -0.060(1)
C11 C -0.180(2) 0.435(1) -0.0168(9)
C12 C -0.133(2) 0.399(1) 0.0960(9)
C13 C -0.132(2) 0.315(1) 0.0816(9)
C14 C -0.198(2) 0.350(1) -0.0322(9)
C15 C -0.126(2) 0.524(2) 0.232(1)
C16 C -0.149(3) 0.614(2) 0.234(1)
C17 C -0.092(3) 0.746(1) 0.200(1)
C18 C -0.001(3) 0.779(2) 0.167(1)
C19 C 0.037(3) 0.762(2) 0.068(1)
C20 C 0.060(3) 0.700(2) 0.027(1)
C21 C 0.149(3) 0.569(2) 0.025(1)
C22 C 0.219(3) 0.506(2) 0.067(1)
C23 C 0.184(3) 0.407(2) 0.137(1)
C24 C -0.326(2) 0.229(2) -0.166(1)
C25 C -0.350(3) 0.134(2) -0.166(1)
C26 C -0.256(3) 0.008(2) -0.134(1)
C27 C -0.134(3) -0.025(2) -0.099(1)
C28 C 0.005(2) -0.015(2) -0.005(1)
C29 C 0.065(3) 0.050(2) 0.042(1)
C30 C 0.157(3) 0.176(2) 0.040(1)
C31 C 0.183(2) 0.245(2) -0.003(1)
C32 C 0.087(3) 0.343(2) -0.072(1)
O13 O 0.209(2) 0.603(1) 0.2251(8)
O14 O 0.019(2) 0.147(1) -0.1591(7)
loop_
_geom_bond_atom_site_label_1
_geom_bond_atom_site_label_2
_geom_bond_site_symmetry_1
_geom_bond_site_symmetry_2
Na1 O1 1_555 1_555
Na2 O2 1_555 1_555
O1 C1 1_555 1_555
O2 C6 1_555 1_555
O3 Na1 1_555 1_555
O4 Na1 1_555 1_555
O5 Na1 1_555 1_555
O6 Na1 1_555 1_555
O7 Na1 1_555 1_555
O8 Na2 1_555 1_555
O9 Na2 1_555 1_555
O10 Na2 1_555 1_555
O11 Na2 1_555 1_555
O12 Na2 1_555 1_555
C1 C11 1_555 1_555
C2 O3 1_555 1_555
C3 C2 1_555 1_555
C4 C3 1_555 1_555
C5 C4 1_555 1_555
C6 C13 1_555 1_555
C7 O8 1_555 1_555
C8 C7 1_555 1_555
C9 C8 1_555 1_555
C10 C9 1_555 1_555
C11 C10 1_555 1_555
C12 C1 1_555 1_555
C13 C5 1_555 1_555
C14 C6 1_555 1_555
C15 O3 1_555 1_555
C16 O4 1_555 1_555
C17 O4 1_555 1_555
C18 O5 1_555 1_555
C19 O5 1_555 1_555
C20 O6 1_555 1_555
C21 O6 1_555 1_555
C22 O7 1_555 1_555
C23 O7 1_555 1_555
C24 O8 1_555 1_555
C25 O9 1_555 1_555
C26 O9 1_555 1_555
C27 O10 1_555 1_555
C28 O10 1_555 1_555
C29 O11 1_555 1_555
C30 O11 1_555 1_555
C31 O12 1_555 1_555
C32 O12 1_555 1_555
O13 Na1 1_555 1_555
O14 Na2 1_555 1_555
C2 C12 1_555 1_555
C7 C14 1_555 1_555
C11 C14 1_555 1_555
C12 C13 1_555 1_555
C15 C16 1_555 1_555
C17 C18 1_555 1_555
C19 C20 1_555 1_555
C21 C22 1_555 1_555
C24 C25 1_555 1_555
C26 C27 1_555 1_555
C28 C29 1_555 1_555
C30 C31 1_555 1_555

#END
