
#######################################################################
#
#                 Cambridge Crystallographic Data Centre
#                                CCDC 
#
#######################################################################
#
# If this CIF has been generated from an entry in the Cambridge 
# Structural Database, then it will include bibliographic, chemical, 
# crystal, experimental, refinement or atomic coordinate data resulting 
# from the CCDC's data processing and validation procedures.
#
#######################################################################

data_KEPMID
_chemical_formula_moiety         'C26 H24 Cl1 N1 O4'
_chemical_name_systematic        
'Ethyl (9-benzyl-6-chloro-4-(cyclopropylcarbonyl)-4,9-dihydropyrano[2,3-b]indol-2(3H)-ylidene)acetate'
_symmetry_cell_setting           monoclinic
_symmetry_space_group_name_H-M   'P 21/c'
_symmetry_Int_Tables_number      14
_space_group_name_Hall           '-P 2ybc'
loop_
_symmetry_equiv_pos_site_id
_symmetry_equiv_pos_as_xyz
1 x,y,z
2 -x,1/2+y,1/2-z
3 -x,-y,-z
4 x,1/2-y,1/2+z
_cell_length_a                   9.5133(13)
_cell_length_b                   20.392(3)
_cell_length_c                   23.662(3)
_cell_angle_alpha                90
_cell_angle_beta                 94.199(3)
_cell_angle_gamma                90
_cell_volume                     4577.99
_exptl_crystal_colour            colorless
_exptl_crystal_description       prismatic
_cell_formula_units_Z            8
loop_
_atom_site_label
_atom_site_type_symbol
_atom_site_fract_x
_atom_site_fract_y
_atom_site_fract_z
Cl1 Cl 1.40906(15) 0.49252(8) 0.05239(5)
N1 N 1.0108(3) 0.46280(14) 0.22628(13)
O1 O 0.7870(4) 0.67676(17) 0.17123(13)
O2 O 0.8999(3) 0.54542(11) 0.27557(10)
O3 O 0.8213(4) 0.74183(15) 0.33459(14)
O4 O 0.6842(3) 0.68514(14) 0.38950(13)
C1 C 1.1263(4) 0.52439(18) 0.16465(16)
C2 C 1.2202(5) 0.5342(2) 0.12280(16)
H1 H 1.2378 0.5761 0.1094
C3 C 1.2855(5) 0.4806(3) 0.10209(17)
C4 C 1.2576(5) 0.4182(3) 0.11934(18)
H2 H 1.3020 0.3831 0.1031
C5 C 1.1657(5) 0.4065(2) 0.16001(18)
H3 H 1.1472 0.3640 0.1717
C6 C 1.1009(4) 0.45995(19) 0.18329(16)
C7 C 0.9818(4) 0.52796(18) 0.23381(16)
C8 C 1.0456(4) 0.56694(18) 0.19734(15)
C9 C 1.0184(4) 0.63973(18) 0.19896(15)
H4 H 1.1031 0.6632 0.1890
C10 C 0.9879(4) 0.65725(18) 0.25951(16)
H5 H 1.0767 0.6591 0.2823
H6 H 0.9472 0.7009 0.2593
C11 C 0.8918(4) 0.61186(18) 0.28754(16)
C12 C 0.8040(5) 0.62553(19) 0.32663(17)
H7 H 0.7564 0.5904 0.3415
C13 C 0.7743(5) 0.6905(2) 0.34875(18)
C14 C 0.8969(5) 0.65631(18) 0.15611(17)
C15 C 0.9176(5) 0.6455(2) 0.09628(17)
H8 H 1.0090 0.6271 0.0879
C16 C 0.8509(7) 0.6908(3) 0.0530(2)
H9 H 0.7952 0.7267 0.0663
H10 H 0.9032 0.7011 0.0205
C17 C 0.7956(7) 0.6270(4) 0.0566(2)
H11 H 0.8127 0.5965 0.0264
H12 H 0.7046 0.6222 0.0722
C18 C 0.9635(4) 0.40889(18) 0.26048(16)
H13 H 0.9550 0.3696 0.2374
H14 H 0.8708 0.4192 0.2726
C19 C 1.0622(4) 0.39543(18) 0.31189(17)
C20 C 1.0465(5) 0.4290(2) 0.36198(18)
H15 H 0.9751 0.4600 0.3635
C21 C 1.1348(7) 0.4173(3) 0.4093(2)
H16 H 1.1224 0.4395 0.4429
C22 C 1.2415(7) 0.3724(3) 0.4067(3)
H17 H 1.3026 0.3650 0.4385
C23 C 1.2592(6) 0.3386(3) 0.3579(3)
H18 H 1.3311 0.3078 0.3566
C24 C 1.1700(5) 0.3503(2) 0.3107(2)
H19 H 1.1825 0.3275 0.2774
C25 C 0.6421(6) 0.7456(2) 0.4158(2)
H20 H 0.5889 0.7728 0.3882
H21 H 0.7246 0.7698 0.4304
C26 C 0.5549(6) 0.7284(3) 0.4621(2)
H22 H 0.4749 0.7033 0.4475
H23 H 0.5231 0.7677 0.4795
H24 H 0.6095 0.7028 0.4899
Cl2 Cl 0.05346(14) 0.63894(6) 0.46094(5)
N2 N 0.4338(4) 0.66746(14) 0.27968(13)
O5 O 0.6726(3) 0.45322(15) 0.33401(12)
O6 O 0.5499(3) 0.58539(12) 0.23218(10)
O7 O 0.6354(4) 0.38885(14) 0.17304(13)
O8 O 0.7592(3) 0.44912(13) 0.11514(12)
C27 C 0.3276(4) 0.60638(17) 0.34461(15)
C28 C 0.2380(4) 0.59682(19) 0.38726(15)
H25 H 0.2237 0.5551 0.4017
C29 C 0.1707(4) 0.6504(2) 0.40772(16)
C30 C 0.1902(5) 0.7131(2) 0.38832(17)
H26 H 0.1433 0.7480 0.4039
C31 C 0.2787(4) 0.72447(19) 0.34590(16)
H27 H 0.2928 0.7666 0.3325
C32 C 0.3467(4) 0.67075(18) 0.32370(15)
C33 C 0.4677(4) 0.60270(18) 0.27407(16)
C34 C 0.4095(4) 0.56396(17) 0.31210(15)
C35 C 0.4394(4) 0.49145(17) 0.31030(14)
H28 H 0.3568 0.4675 0.3217
C36 C 0.4639(4) 0.47361(17) 0.24930(15)
H29 H 0.5032 0.4297 0.2489
H30 H 0.3734 0.4725 0.2276
C37 C 0.5589(4) 0.51870(17) 0.22042(15)
C38 C 0.6457(4) 0.50572(19) 0.18065(15)
H31 H 0.6919 0.5412 0.1657
C39 C 0.6759(5) 0.4413(2) 0.15808(17)
C40 C 0.5652(5) 0.47440(18) 0.35069(16)
C41 C 0.5529(5) 0.4856(2) 0.41182(16)
H32 H 0.4633 0.5038 0.4225
C42 C 0.6265(6) 0.4399(3) 0.4532(2)
H33 H 0.5804 0.4296 0.4874
H34 H 0.6795 0.4040 0.4383
C43 C 0.6813(6) 0.5052(3) 0.4478(2)
H35 H 0.7686 0.5101 0.4295
H36 H 0.6694 0.5357 0.4785
C44 C 0.4877(5) 0.72173(18) 0.24640(16)
H37 H 0.5847 0.7125 0.2390
H38 H 0.4870 0.7617 0.2686
C45 C 0.4034(4) 0.73266(18) 0.19092(17)
C46 C 0.4301(5) 0.6969(2) 0.14356(18)
H39 H 0.5003 0.6651 0.1460
C47 C 0.3541(6) 0.7076(2) 0.0923(2)
H40 H 0.3739 0.6833 0.0606
C48 C 0.2500(6) 0.7537(3) 0.0882(2)
H41 H 0.1986 0.7609 0.0538
C49 C 0.2220(6) 0.7889(3) 0.1343(3)
H42 H 0.1506 0.8202 0.1314
C50 C 0.2970(5) 0.7795(2) 0.1855(2)
H43 H 0.2764 0.8045 0.2167
C51 C 0.7968(6) 0.3908(2) 0.0860(2)
H44 H 0.7123 0.3679 0.0716
H45 H 0.8504 0.3618 0.1119
C52 C 0.8814(6) 0.4086(3) 0.0390(2)
H46 H 0.8267 0.4361 0.0128
H47 H 0.9088 0.3696 0.0200
H48 H 0.9641 0.4319 0.0534
loop_
_geom_bond_atom_site_label_1
_geom_bond_atom_site_label_2
_geom_bond_site_symmetry_1
_geom_bond_site_symmetry_2
Cl1 C3 1_555 1_555
N1 C6 1_555 1_555
O1 C14 1_555 1_555
O2 C7 1_555 1_555
O3 C13 1_555 1_555
O4 C13 1_555 1_555
C1 C2 1_555 1_555
C2 H1 1_555 1_555
C3 C2 1_555 1_555
C4 C3 1_555 1_555
H2 C4 1_555 1_555
C5 C4 1_555 1_555
H3 C5 1_555 1_555
C6 C1 1_555 1_555
C7 N1 1_555 1_555
C8 C1 1_555 1_555
C9 C8 1_555 1_555
H4 C9 1_555 1_555
C10 C9 1_555 1_555
H5 C10 1_555 1_555
H6 C10 1_555 1_555
C11 O2 1_555 1_555
C12 C11 1_555 1_555
H7 C12 1_555 1_555
C13 C12 1_555 1_555
C14 C9 1_555 1_555
C15 C14 1_555 1_555
H8 C15 1_555 1_555
C16 C15 1_555 1_555
H9 C16 1_555 1_555
H10 C16 1_555 1_555
C17 C15 1_555 1_555
H11 C17 1_555 1_555
H12 C17 1_555 1_555
C18 N1 1_555 1_555
H13 C18 1_555 1_555
H14 C18 1_555 1_555
C19 C18 1_555 1_555
C20 C19 1_555 1_555
H15 C20 1_555 1_555
C21 C20 1_555 1_555
H16 C21 1_555 1_555
C22 C21 1_555 1_555
H17 C22 1_555 1_555
C23 C22 1_555 1_555
H18 C23 1_555 1_555
C24 C19 1_555 1_555
H19 C24 1_555 1_555
C25 O4 1_555 1_555
H20 C25 1_555 1_555
H21 C25 1_555 1_555
C26 C25 1_555 1_555
H22 C26 1_555 1_555
H23 C26 1_555 1_555
H24 C26 1_555 1_555
Cl2 C29 1_555 1_555
N2 C32 1_555 1_555
O5 C40 1_555 1_555
O6 C33 1_555 1_555
O7 C39 1_555 1_555
O8 C39 1_555 1_555
C27 C28 1_555 1_555
C28 H25 1_555 1_555
C29 C28 1_555 1_555
C30 C29 1_555 1_555
H26 C30 1_555 1_555
C31 C30 1_555 1_555
H27 C31 1_555 1_555
C32 C27 1_555 1_555
C33 N2 1_555 1_555
C34 C27 1_555 1_555
C35 C34 1_555 1_555
H28 C35 1_555 1_555
C36 C35 1_555 1_555
H29 C36 1_555 1_555
H30 C36 1_555 1_555
C37 O6 1_555 1_555
C38 C37 1_555 1_555
H31 C38 1_555 1_555
C39 C38 1_555 1_555
C40 C35 1_555 1_555
C41 C40 1_555 1_555
H32 C41 1_555 1_555
C42 C41 1_555 1_555
H33 C42 1_555 1_555
H34 C42 1_555 1_555
C43 C41 1_555 1_555
H35 C43 1_555 1_555
H36 C43 1_555 1_555
C44 N2 1_555 1_555
H37 C44 1_555 1_555
H38 C44 1_555 1_555
C45 C44 1_555 1_555
C46 C45 1_555 1_555
H39 C46 1_555 1_555
C47 C46 1_555 1_555
H40 C47 1_555 1_555
C48 C47 1_555 1_555
H41 C48 1_555 1_555
C49 C48 1_555 1_555
H42 C49 1_555 1_555
C50 C45 1_555 1_555
H43 C50 1_555 1_555
C51 O8 1_555 1_555
H44 C51 1_555 1_555
H45 C51 1_555 1_555
C52 C51 1_555 1_555
H46 C52 1_555 1_555
H47 C52 1_555 1_555
H48 C52 1_555 1_555
C5 C6 1_555 1_555
C7 C8 1_555 1_555
C10 C11 1_555 1_555
C16 C17 1_555 1_555
C23 C24 1_555 1_555
C31 C32 1_555 1_555
C33 C34 1_555 1_555
C36 C37 1_555 1_555
C42 C43 1_555 1_555
C49 C50 1_555 1_555

#END
