
#######################################################################
#
#                 Cambridge Crystallographic Data Centre
#                                CCDC 
#
#######################################################################
#
# If this CIF has been generated from an entry in the Cambridge 
# Structural Database, then it will include bibliographic, chemical, 
# crystal, experimental, refinement or atomic coordinate data resulting 
# from the CCDC's data processing and validation procedures.
#
#######################################################################

data_KEPNEB
_chemical_formula_moiety         'C25 H22 Cl1 N1 O5'
_chemical_name_systematic        
'(2-methyl-4-vinyltetrahydrofuran-3-yl)(2-naphthyl)methyl 2-chloro-5-nitrobenzoate'
_symmetry_cell_setting           monoclinic
_symmetry_space_group_name_H-M   'P 21'
_symmetry_Int_Tables_number      4
_space_group_name_Hall           'P 2yb'
loop_
_symmetry_equiv_pos_site_id
_symmetry_equiv_pos_as_xyz
1 x,y,z
2 -x,1/2+y,-z
_cell_length_a                   6.2612(7)
_cell_length_b                   13.7174(15)
_cell_length_c                   12.8045(14)
_cell_angle_alpha                90
_cell_angle_beta                 96.576(2)
_cell_angle_gamma                90
_cell_volume                     1092.51
_exptl_crystal_colour            colorless
_exptl_crystal_description       block
_cell_formula_units_Z            2
loop_
_atom_site_label
_atom_site_type_symbol
_atom_site_fract_x
_atom_site_fract_y
_atom_site_fract_z
Cl1 Cl 0.32031(8) 0.97801(4) 0.30977(4)
O1 O 0.1982(3) 0.46234(12) 0.35445(13)
O2 O 0.4730(2) 0.77552(10) 0.34315(10)
O3 O 0.8341(2) 0.77405(12) 0.37648(13)
O4 O 1.1678(3) 0.87221(19) 0.06453(15)
O5 O 1.0806(4) 1.0130(2) -0.00576(17)
N1 N 1.0533(4) 0.9452(2) 0.05379(16)
C1 C 0.1236(4) 0.51095(19) 0.25842(19)
H1 H -0.0307 0.5276 0.2563
H2 H 0.1435 0.4692 0.1972
C2 C 0.2596(4) 0.60303(16) 0.25753(16)
H3 H 0.1815 0.6538 0.2120
C3 C 0.2699(3) 0.63279(15) 0.37526(15)
H4 H 0.1378 0.6710 0.3851
C4 C 0.2596(4) 0.53407(16) 0.43338(16)
H5 H 0.4065 0.5179 0.4682
C5 C 0.1026(4) 0.53239(19) 0.51580(18)
H6 H -0.0406 0.5514 0.4833
H7 H 0.1509 0.5782 0.5723
H8 H 0.0966 0.4665 0.5449
C6 C 0.4742(4) 0.58158(17) 0.22028(17)
H9 H 0.5566 0.5292 0.2524
C7 C 0.5548(5) 0.6315(2) 0.1453(2)
H10 H 0.4761 0.6842 0.1118
H11 H 0.6913 0.6145 0.1251
C8 C 0.4662(3) 0.69297(14) 0.41693(15)
H12 H 0.5984 0.6524 0.4151
C9 C 0.4617(3) 0.73272(15) 0.52690(15)
C10 C 0.2784(3) 0.78478(16) 0.55254(16)
H13 H 0.1632 0.7978 0.4994
C11 C 0.2667(4) 0.81637(16) 0.65343(17)
H14 H 0.1438 0.8514 0.6695
C12 C 0.4373(4) 0.79699(16) 0.73419(16)
C13 C 0.4249(4) 0.82457(17) 0.84089(18)
H15 H 0.2998 0.8562 0.8597
C14 C 0.5940(5) 0.80541(19) 0.91639(18)
H16 H 0.5843 0.8234 0.9873
C15 C 0.7804(5) 0.75969(19) 0.88998(18)
H17 H 0.8961 0.7474 0.9430
C16 C 0.7974(4) 0.73239(18) 0.78759(18)
H18 H 0.9254 0.7022 0.7703
C17 C 0.6246(4) 0.74926(16) 0.70821(16)
C18 C 0.6316(3) 0.71747(15) 0.60245(15)
H19 H 0.7563 0.6852 0.5842
C19 C 0.6693(3) 0.80682(15) 0.33100(15)
C20 C 0.6745(3) 0.88619(15) 0.25066(15)
C21 C 0.5312(3) 0.96427(16) 0.23448(16)
C22 C 0.5586(4) 1.03597(18) 0.15971(18)
H20 H 0.4603 1.0888 0.1501
C23 C 0.7273(4) 1.0304(2) 0.09992(18)
H21 H 0.7457 1.0784 0.0482
C24 C 0.8696(4) 0.95332(18) 0.11680(17)
C25 C 0.8479(3) 0.88160(17) 0.19099(16)
H22 H 0.9494 0.8300 0.2012
loop_
_geom_bond_atom_site_label_1
_geom_bond_atom_site_label_2
_geom_bond_site_symmetry_1
_geom_bond_site_symmetry_2
Cl1 C21 1_555 1_555
O1 C1 1_555 1_555
O2 C8 1_555 1_555
O3 C19 1_555 1_555
O4 N1 1_555 1_555
O5 N1 1_555 1_555
N1 C24 1_555 1_555
C1 H1 1_555 1_555
H2 C1 1_555 1_555
C2 C1 1_555 1_555
H3 C2 1_555 1_555
C3 C2 1_555 1_555
H4 C3 1_555 1_555
C4 O1 1_555 1_555
H5 C4 1_555 1_555
C5 C4 1_555 1_555
H6 C5 1_555 1_555
H7 C5 1_555 1_555
H8 C5 1_555 1_555
C6 C2 1_555 1_555
H9 C6 1_555 1_555
C7 C6 1_555 1_555
H10 C7 1_555 1_555
H11 C7 1_555 1_555
C8 C3 1_555 1_555
H12 C8 1_555 1_555
C9 C8 1_555 1_555
C10 C9 1_555 1_555
H13 C10 1_555 1_555
C11 C10 1_555 1_555
H14 C11 1_555 1_555
C12 C11 1_555 1_555
C13 C12 1_555 1_555
H15 C13 1_555 1_555
C14 C13 1_555 1_555
H16 C14 1_555 1_555
C15 C14 1_555 1_555
H17 C15 1_555 1_555
C16 C15 1_555 1_555
H18 C16 1_555 1_555
C17 C12 1_555 1_555
C18 C9 1_555 1_555
H19 C18 1_555 1_555
C19 O2 1_555 1_555
C20 C19 1_555 1_555
C21 C20 1_555 1_555
C22 C21 1_555 1_555
H20 C22 1_555 1_555
C23 C22 1_555 1_555
H21 C23 1_555 1_555
C24 C23 1_555 1_555
C25 C20 1_555 1_555
H22 C25 1_555 1_555
C3 C4 1_555 1_555
C16 C17 1_555 1_555
C17 C18 1_555 1_555
C24 C25 1_555 1_555

#END
