
#######################################################################
#
#                 Cambridge Crystallographic Data Centre
#                                CCDC 
#
#######################################################################
#
# If this CIF has been generated from an entry in the Cambridge 
# Structural Database, then it will include bibliographic, chemical, 
# crystal, experimental, refinement or atomic coordinate data resulting 
# from the CCDC's data processing and validation procedures.
#
#######################################################################

data_KEPROM02
_chemical_compound_source        
'leaves of Andrographis paniculata Nees. (Acanthaceae)'
_chemical_name_common            14-Deoxyandrographolide
_chemical_formula_moiety         'C20 H30 O4'
_chemical_name_systematic        
ent-3\b-Hydroxy-8(17),13(14)-labdadiene-16,15-olide
_chemical_properties_biological  
'Andrographis paniculata is used to treat fevers, dysentery, general debility and certain forms of dyspepsia'
_symmetry_cell_setting           monoclinic
_symmetry_space_group_name_H-M   'P 21'
_symmetry_Int_Tables_number      4
_space_group_name_Hall           'P 2yb'
loop_
_symmetry_equiv_pos_site_id
_symmetry_equiv_pos_as_xyz
1 x,y,z
2 -x,1/2+y,-z
_cell_length_a                   6.744(2)
_cell_length_b                   6.988(2)
_cell_length_c                   19.377(3)
_cell_angle_alpha                90
_cell_angle_beta                 93.19(3)
_cell_angle_gamma                90
_cell_volume                     911.766
_exptl_crystal_colour            colorless
_exptl_crystal_description       cylinder
_chemical_melting_point          '448 K'
_cell_formula_units_Z            2
_exptl_crystal_recrystallization_method methanol
loop_
_atom_site_label
_atom_site_type_symbol
_atom_site_fract_x
_atom_site_fract_y
_atom_site_fract_z
C1 C 0.6883(4) 0.5357(4) 0.25512(12)
H1 H 0.5706 0.4590 0.2610
H2 H 0.7236 0.5220 0.2075
C2 C 0.8563(4) 0.4583(4) 0.30206(13)
H3 H 0.9766 0.5299 0.2948
H4 H 0.8801 0.3255 0.2906
C3 C 0.8077(4) 0.4730(4) 0.37699(12)
H5 H 0.6865 0.3988 0.3831
C4 C 0.7691(3) 0.6805(3) 0.39969(10)
C5 C 0.6117(3) 0.7730(3) 0.34805(10)
H6 H 0.4880 0.7054 0.3564
C6 C 0.5670(4) 0.9824(4) 0.36349(12)
H7 H 0.6783 1.0611 0.3513
H8 H 0.5505 0.9976 0.4126
C7 C 0.3794(4) 1.0502(4) 0.32324(15)
H9 H 0.2650 0.9908 0.3426
H10 H 0.3670 1.1875 0.3288
C8 C 0.3776(4) 1.0043(4) 0.24724(14)
C9 C 0.4338(3) 0.7991(4) 0.23086(12)
H11 H 0.3349 0.7182 0.2518
C10 C 0.6389(3) 0.7461(4) 0.26850(10)
C11 C 0.4189(4) 0.7520(6) 0.15320(13)
H12 H 0.4763 0.8568 0.1282
H13 H 0.4975 0.6386 0.1454
C12 C 0.2145(3) 0.7190(5) 0.12452(11)
H14 H 0.1309 0.8210 0.1405
H15 H 0.1670 0.6001 0.1435
C13 C 0.1878(3) 0.7089(4) 0.04827(11)
C14 C 0.3163(4) 0.7087(5) -0.00097(13)
H16 H 0.4537 0.7101 0.0065
C15 C 0.2087(5) 0.7059(7) -0.06974(14)
H17 H 0.2396 0.8188 -0.0962
H18 H 0.2431 0.5929 -0.0956
C16 C -0.0128(4) 0.7050(5) 0.01416(14)
C17 C 0.7979(3) 0.8743(4) 0.23930(12)
H19 H 0.7982 0.8570 0.1902
H20 H 0.9257 0.8406 0.2601
H21 H 0.7696 1.0057 0.2494
C18 C 0.6816(4) 0.6731(4) 0.47192(11)
H22 H 0.7626 0.5920 0.5019
H23 H 0.5490 0.6230 0.4676
H24 H 0.6790 0.7998 0.4910
C19 C 0.9647(3) 0.7945(4) 0.40506(12)
H25 H 1.0243 0.7901 0.3607
H26 H 0.9345 0.9273 0.4146
C20 C 0.3274(5) 1.1371(6) 0.2001(2)
H27 H 0.2930 1.2595 0.2141
H28 H 0.3267 1.1074 0.1533
O1 O 0.9667(3) 0.3839(3) 0.41743(10)
H29 H 0.9254 0.3458 0.4540
O2 O 1.1061(3) 0.7276(3) 0.45678(9)
H30 H 1.1126 0.6106 0.4550
O3 O 0.0022(3) 0.7034(5) -0.05481(10)
O4 O -0.1710(3) 0.7026(5) 0.04002(12)
loop_
_geom_bond_atom_site_label_1
_geom_bond_atom_site_label_2
_geom_bond_site_symmetry_1
_geom_bond_site_symmetry_2
C1 H1 1_555 1_555
H2 C1 1_555 1_555
C2 C1 1_555 1_555
H3 C2 1_555 1_555
H4 C2 1_555 1_555
C3 C2 1_555 1_555
H5 C3 1_555 1_555
C4 C3 1_555 1_555
C5 C4 1_555 1_555
H6 C5 1_555 1_555
C6 C5 1_555 1_555
H7 C6 1_555 1_555
H8 C6 1_555 1_555
C7 C6 1_555 1_555
H9 C7 1_555 1_555
H10 C7 1_555 1_555
C8 C7 1_555 1_555
C9 C8 1_555 1_555
H11 C9 1_555 1_555
C10 C1 1_555 1_555
C11 C9 1_555 1_555
H12 C11 1_555 1_555
H13 C11 1_555 1_555
C12 C11 1_555 1_555
H14 C12 1_555 1_555
H15 C12 1_555 1_555
C13 C12 1_555 1_555
C14 C13 1_555 1_555
H16 C14 1_555 1_555
C15 C14 1_555 1_555
H17 C15 1_555 1_555
H18 C15 1_555 1_555
C16 C13 1_555 1_555
C17 C10 1_555 1_555
H19 C17 1_555 1_555
H20 C17 1_555 1_555
H21 C17 1_555 1_555
C18 C4 1_555 1_555
H22 C18 1_555 1_555
H23 C18 1_555 1_555
H24 C18 1_555 1_555
C19 C4 1_555 1_555
H25 C19 1_555 1_555
H26 C19 1_555 1_555
C20 C8 1_555 1_555
H27 C20 1_555 1_555
H28 C20 1_555 1_555
O1 C3 1_555 1_555
H29 O1 1_555 1_555
O2 C19 1_555 1_555
H30 O2 1_555 1_555
O3 C15 1_555 1_555
O4 C16 1_555 1_555
C5 C10 1_555 1_555
C9 C10 1_555 1_555
C16 O3 1_555 1_555

#END
