
#######################################################################
#
#                 Cambridge Crystallographic Data Centre
#                                CCDC 
#
#######################################################################
#
# If this CIF has been generated from an entry in the Cambridge 
# Structural Database, then it will include bibliographic, chemical, 
# crystal, experimental, refinement or atomic coordinate data resulting 
# from the CCDC's data processing and validation procedures.
#
#######################################################################

data_KEPXOT
_chemical_formula_moiety         'C37 H28 O1 P2'
_chemical_name_systematic        bis(2-Diphenylphosphinophenyl)methanone
_symmetry_cell_setting           orthorhombic
_symmetry_space_group_name_H-M   'P b c a'
_symmetry_Int_Tables_number      61
_space_group_name_Hall           '-P 2ac 2ab'
loop_
_symmetry_equiv_pos_site_id
_symmetry_equiv_pos_as_xyz
1 x,y,z
2 1/2-x,-y,1/2+z
3 -x,1/2+y,1/2-z
4 1/2+x,1/2-y,-z
5 -x,-y,-z
6 1/2+x,y,1/2-z
7 x,1/2-y,1/2+z
8 1/2-x,1/2+y,z
_cell_length_a                   10.7428(8)
_cell_length_b                   15.7149(12)
_cell_length_c                   34.298(3)
_cell_angle_alpha                90
_cell_angle_beta                 90
_cell_angle_gamma                90
_cell_volume                     5790.26
_exptl_crystal_colour            yellow
_chemical_melting_point          135-138deg.C
_cell_formula_units_Z            8
_exptl_crystal_recrystallization_method dichloromethane/hexane
loop_
_atom_site_label
_atom_site_type_symbol
_atom_site_fract_x
_atom_site_fract_y
_atom_site_fract_z
P1 P 0.59792(6) 0.00877(4) 0.172945(17)
P2 P 0.28202(7) 0.09254(4) 0.096351(18)
O1 O 0.58853(18) -0.05307(14) 0.09529(5)
C1 C 0.4599(2) -0.05936(14) 0.16887(6)
C2 C 0.3996(2) -0.09218(16) 0.20150(7)
C3 C 0.2963(2) -0.14251(16) 0.19868(7)
H1 H 0.2600 -0.1649 0.2210
C4 C 0.2461(2) -0.15988(17) 0.16258(7)
H2 H 0.1755 -0.1938 0.1604
C5 C 0.3013(2) -0.12649(15) 0.12960(7)
H3 H 0.2657 -0.1363 0.1053
C6 C 0.4086(2) -0.07881(14) 0.13227(6)
C7 C 0.4757(3) -0.05525(16) 0.09574(7)
C8 C 0.4029(2) -0.04207(16) 0.05897(6)
C9 C 0.4360(3) -0.09206(18) 0.02715(8)
C10 C 0.3709(4) -0.0843(2) -0.00729(8)
C11 C 0.2752(3) -0.0283(2) -0.01020(7)
H4 H 0.2312 -0.0239 -0.0335
C12 C 0.2428(3) 0.02175(19) 0.02087(8)
C13 C 0.3069(3) 0.01673(15) 0.05600(6)
C14 C 0.7187(2) -0.07083(15) 0.18113(6)
C15 C 0.6986(3) -0.15786(17) 0.18043(8)
H5 H 0.6185 -0.1786 0.1766
C16 C 0.7955(3) -0.21403(19) 0.18537(9)
H6 H 0.7802 -0.2723 0.1849
C17 C 0.9137(3) -0.1849(3) 0.19090(9)
C18 C 0.9360(3) -0.0994(3) 0.19098(8)
C19 C 0.8397(2) -0.04291(18) 0.18595(7)
H7 H 0.8563 0.0152 0.1858
C20 C 0.5743(2) 0.05499(15) 0.22175(7)
C21 C 0.6515(3) 0.0441(2) 0.25313(8)
C22 C 0.6315(3) 0.0886(2) 0.28796(8)
H8 H 0.6846 0.0802 0.3090
C23 C 0.5355(4) 0.1438(2) 0.29113(10)
H9 H 0.5227 0.1737 0.3142
C24 C 0.4576(4) 0.1552(2) 0.26026(11)
C25 C 0.4767(3) 0.11169(17) 0.22562(8)
H10 H 0.4231 0.1207 0.2047
C26 C 0.3610(3) 0.18614(16) 0.07587(7)
C27 C 0.4613(3) 0.21683(19) 0.09676(8)
H11 H 0.4817 0.1917 0.1205
C28 C 0.5323(3) 0.2842(2) 0.08318(11)
H12 H 0.6001 0.3035 0.0975
C29 C 0.5020(4) 0.3217(2) 0.04879(12)
H13 H 0.5484 0.3676 0.0398
C30 C 0.4045(4) 0.2925(2) 0.02752(12)
C31 C 0.3336(4) 0.2251(2) 0.04071(9)
C32 C 0.1156(3) 0.11325(17) 0.09229(7)
C33 C 0.0611(3) 0.1926(2) 0.08845(8)
H14 H 0.1117 0.2395 0.0838
C34 C -0.0651(4) 0.2043(3) 0.09131(11)
C35 C -0.1410(4) 0.1360(3) 0.09719(9)
C36 C -0.0912(3) 0.0564(2) 0.10056(8)
H15 H -0.1430 0.0097 0.1043
C37 C 0.0347(3) 0.0454(2) 0.09851(8)
H16 H 0.0674 -0.0090 0.1014
H17 H 0.434(2) -0.0814(14) 0.2253(7)
H18 H 0.509(2) -0.1278(15) 0.0283(7)
H19 H 0.402(2) -0.1163(18) -0.0273(9)
H20 H 0.176(2) 0.0606(16) 0.0193(7)
H21 H 0.983(3) -0.2242(19) 0.1927(8)
H22 H 1.013(3) -0.0774(19) 0.1920(8)
H23 H 0.719(2) 0.0050(16) 0.2520(7)
H24 H 0.391(3) 0.190(2) 0.2604(8)
H25 H 0.381(3) 0.320(2) 0.0030(10)
H26 H 0.263(2) 0.2013(17) 0.0269(8)
H27 H -0.103(3) 0.258(3) 0.0828(11)
H28 H -0.226(3) 0.1437(18) 0.0970(8)
loop_
_geom_bond_atom_site_label_1
_geom_bond_atom_site_label_2
_geom_bond_site_symmetry_1
_geom_bond_site_symmetry_2
P1 C1 1_555 1_555
P2 C13 1_555 1_555
O1 C7 1_555 1_555
C1 C2 1_555 1_555
C2 C3 1_555 1_555
C3 H1 1_555 1_555
C4 C3 1_555 1_555
H2 C4 1_555 1_555
C5 C4 1_555 1_555
H3 C5 1_555 1_555
C6 C1 1_555 1_555
C7 C6 1_555 1_555
C8 C7 1_555 1_555
C9 C8 1_555 1_555
C10 C9 1_555 1_555
C11 C10 1_555 1_555
H4 C11 1_555 1_555
C12 C11 1_555 1_555
C13 C8 1_555 1_555
C14 P1 1_555 1_555
C15 C14 1_555 1_555
H5 C15 1_555 1_555
C16 C15 1_555 1_555
H6 C16 1_555 1_555
C17 C16 1_555 1_555
C18 C17 1_555 1_555
C19 C14 1_555 1_555
H7 C19 1_555 1_555
C20 P1 1_555 1_555
C21 C20 1_555 1_555
C22 C21 1_555 1_555
H8 C22 1_555 1_555
C23 C22 1_555 1_555
H9 C23 1_555 1_555
C24 C23 1_555 1_555
C25 C20 1_555 1_555
H10 C25 1_555 1_555
C26 P2 1_555 1_555
C27 C26 1_555 1_555
H11 C27 1_555 1_555
C28 C27 1_555 1_555
H12 C28 1_555 1_555
C29 C28 1_555 1_555
H13 C29 1_555 1_555
C30 C29 1_555 1_555
C31 C26 1_555 1_555
C32 P2 1_555 1_555
C33 C32 1_555 1_555
H14 C33 1_555 1_555
C34 C33 1_555 1_555
C35 C34 1_555 1_555
C36 C35 1_555 1_555
H15 C36 1_555 1_555
C37 C32 1_555 1_555
H16 C37 1_555 1_555
H17 C2 1_555 1_555
H18 C9 1_555 1_555
H19 C10 1_555 1_555
H20 C12 1_555 1_555
H21 C17 1_555 1_555
H22 C18 1_555 1_555
H23 C21 1_555 1_555
H24 C24 1_555 1_555
H25 C30 1_555 1_555
H26 C31 1_555 1_555
H27 C34 1_555 1_555
H28 C35 1_555 1_555
C5 C6 1_555 1_555
C12 C13 1_555 1_555
C18 C19 1_555 1_555
C24 C25 1_555 1_555
C30 C31 1_555 1_555
C36 C37 1_555 1_555

#END
