
#######################################################################
#
#                 Cambridge Crystallographic Data Centre
#                                CCDC 
#
#######################################################################
#
# If this CIF has been generated from an entry in the Cambridge 
# Structural Database, then it will include bibliographic, chemical, 
# crystal, experimental, refinement or atomic coordinate data resulting 
# from the CCDC's data processing and validation procedures.
#
#######################################################################

data_KEPXAG
_chemical_formula_moiety         'C42 H31 N3'
_chemical_name_systematic        
tetraphenyl-(2-(cyclopenta-2,4-dien-1-ylidene)-1-[4-(dimethylamino)phenyl]ethylidene)propanedinitrile
_symmetry_cell_setting           triclinic
_symmetry_space_group_name_H-M   'P -1'
_symmetry_Int_Tables_number      2
_space_group_name_Hall           '-P 1'
loop_
_symmetry_equiv_pos_site_id
_symmetry_equiv_pos_as_xyz
1 x,y,z
2 -x,-y,-z
_cell_length_a                   10.1004(3)
_cell_length_b                   10.1085(3)
_cell_length_c                   15.9835(4)
_cell_angle_alpha                77.1840(10)
_cell_angle_beta                 89.472(2)
_cell_angle_gamma                76.6920(10)
_cell_volume                     1547.02
_exptl_crystal_colour            red
_exptl_crystal_description       stick
_cell_formula_units_Z            2
loop_
_atom_site_label
_atom_site_type_symbol
_atom_site_fract_x
_atom_site_fract_y
_atom_site_fract_z
N1 N 0.82427(15) 1.15158(14) 0.99622(8)
N2 N 0.59320(15) 1.29923(13) 0.76047(8)
N3 N 0.69835(12) 0.50556(11) 1.17822(7)
C1 C 0.66554(14) 1.09327(13) 0.89198(8)
C2 C 0.61268(13) 0.97716(13) 0.90080(8)
C3 C 0.50477(14) 0.99077(13) 0.83481(8)
H1 H 0.4230(15) 1.0615(15) 0.8400(9)
C4 C 0.50711(13) 0.92446(12) 0.77043(8)
C5 C 0.61661(13) 0.82122(12) 0.74284(8)
C6 C 0.57007(12) 0.79470(12) 0.67018(8)
C7 C 0.42756(12) 0.87859(12) 0.64795(7)
C8 C 0.38997(12) 0.95410(12) 0.70837(7)
C9 C 0.75484(15) 1.12060(14) 0.95167(9)
C10 C 0.62447(15) 1.20701(14) 0.81830(9)
C11 C 0.64176(13) 0.85432(12) 0.97024(8)
C12 C 0.74588(14) 0.82608(13) 1.03425(9)
H2 H 0.8091(15) 0.8853(15) 1.0301(9)
C13 C 0.76361(14) 0.71345(13) 1.10230(9)
H3 H 0.8375(15) 0.6978(15) 1.1446(10)
C14 C 0.68041(13) 0.61673(13) 1.11050(8)
C15 C 0.57991(15) 0.64071(14) 1.04467(8)
H4 H 0.5161(16) 0.5823(16) 1.0456(9)
C16 C 0.56146(14) 0.75598(13) 0.97789(8)
H5 H 0.4884(15) 0.7699(15) 0.9350(9)
C17 C 0.6236(2) 0.39903(18) 1.18110(12)
H6 H 0.6421(17) 0.3713(17) 1.1206(12)
H7 H 0.6637(17) 0.3203(18) 1.2284(11)
H8 H 0.527(2) 0.431(2) 1.1949(13)
C18 C 0.77760(19) 0.50033(17) 1.25503(10)
H9 H 0.7691(15) 0.4196(16) 1.3015(9)
H10 H 0.881(2) 0.483(2) 1.2477(12)
H11 H 0.742(2) 0.585(2) 1.2801(13)
C19 C 0.74801(13) 0.75074(13) 0.79071(7)
C20 C 0.77376(14) 0.60811(14) 0.82834(9)
H12 H 0.7063(15) 0.5579(15) 0.8159(9)
C21 C 0.89136(15) 0.54187(16) 0.87874(9)
H13 H 0.9029(16) 0.4402(17) 0.9058(10)
C22 C 0.98502(15) 0.61663(16) 0.89159(9)
H14 H 1.0667(17) 0.5731(17) 0.9283(11)
C23 C 0.96300(14) 0.75667(16) 0.85241(9)
H15 H 1.0264(16) 0.8083(16) 0.8599(9)
C24 C 0.84554(13) 0.82338(14) 0.80180(8)
H16 H 0.8302(14) 0.9184(15) 0.7740(9)
C25 C 0.64513(13) 0.69419(12) 0.62227(8)
C26 C 0.77737(14) 0.69748(13) 0.59833(8)
H17 H 0.8188(15) 0.7662(16) 0.6109(9)
C27 C 0.84825(15) 0.60181(15) 0.55441(9)
H18 H 0.9422(17) 0.6057(16) 0.5400(10)
C28 C 0.78808(15) 0.50249(14) 0.53359(9)
H19 H 0.8325(15) 0.4356(16) 0.5015(9)
C29 C 0.65793(15) 0.49731(14) 0.55776(9)
H20 H 0.6142(16) 0.4284(17) 0.5448(10)
C30 C 0.58625(14) 0.59282(13) 0.60145(8)
H21 H 0.4947(15) 0.5887(15) 0.6178(9)
C31 C 0.34527(13) 0.87585(12) 0.57286(8)
C32 C 0.40223(15) 0.88119(12) 0.49249(8)
H22 H 0.4980(16) 0.8846(15) 0.4881(9)
C33 C 0.32441(17) 0.88121(14) 0.42128(9)
H23 H 0.3670(16) 0.8848(16) 0.3694(11)
C34 C 0.19012(17) 0.87300(14) 0.42951(10)
H24 H 0.1349(16) 0.8724(16) 0.3837(10)
C35 C 0.13336(16) 0.86446(14) 0.50907(10)
H25 H 0.0415(17) 0.8570(16) 0.5129(10)
C36 C 0.20917(14) 0.86707(13) 0.58026(9)
H26 H 0.1688(16) 0.8610(16) 0.6391(10)
C37 C 0.25741(13) 1.04850(12) 0.71645(8)
C38 C 0.18099(14) 1.01829(14) 0.78843(9)
H27 H 0.2173(14) 0.9340(15) 0.8335(9)
C39 C 0.05534(14) 1.10478(16) 0.79699(10)
H28 H 0.0024(17) 1.0814(17) 0.8490(11)
C40 C 0.00525(15) 1.22385(16) 0.73437(10)
H29 H -0.0833(16) 1.2874(16) 0.7417(10)
C41 C 0.08073(15) 1.25522(15) 0.66294(10)
H30 H 0.0453(16) 1.3378(17) 0.6184(10)
C42 C 0.20518(14) 1.16895(14) 0.65335(9)
H31 H 0.2609(15) 1.1861(15) 0.6036(10)
loop_
_geom_bond_atom_site_label_1
_geom_bond_atom_site_label_2
_geom_bond_site_symmetry_1
_geom_bond_site_symmetry_2
N1 C9 1_555 1_555
N2 C10 1_555 1_555
N3 C14 1_555 1_555
C1 C2 1_555 1_555
C2 C3 1_555 1_555
C3 H1 1_555 1_555
C4 C3 1_555 1_555
C5 C4 1_555 1_555
C6 C5 1_555 1_555
C7 C6 1_555 1_555
C8 C4 1_555 1_555
C9 C1 1_555 1_555
C10 C1 1_555 1_555
C11 C2 1_555 1_555
C12 C11 1_555 1_555
H2 C12 1_555 1_555
C13 C12 1_555 1_555
H3 C13 1_555 1_555
C14 C13 1_555 1_555
C15 C14 1_555 1_555
H4 C15 1_555 1_555
C16 C11 1_555 1_555
H5 C16 1_555 1_555
C17 N3 1_555 1_555
H6 C17 1_555 1_555
H7 C17 1_555 1_555
H8 C17 1_555 1_555
C18 N3 1_555 1_555
H9 C18 1_555 1_555
H10 C18 1_555 1_555
H11 C18 1_555 1_555
C19 C5 1_555 1_555
C20 C19 1_555 1_555
H12 C20 1_555 1_555
C21 C20 1_555 1_555
H13 C21 1_555 1_555
C22 C21 1_555 1_555
H14 C22 1_555 1_555
C23 C22 1_555 1_555
H15 C23 1_555 1_555
C24 C19 1_555 1_555
H16 C24 1_555 1_555
C25 C6 1_555 1_555
C26 C25 1_555 1_555
H17 C26 1_555 1_555
C27 C26 1_555 1_555
H18 C27 1_555 1_555
C28 C27 1_555 1_555
H19 C28 1_555 1_555
C29 C28 1_555 1_555
H20 C29 1_555 1_555
C30 C25 1_555 1_555
H21 C30 1_555 1_555
C31 C7 1_555 1_555
C32 C31 1_555 1_555
H22 C32 1_555 1_555
C33 C32 1_555 1_555
H23 C33 1_555 1_555
C34 C33 1_555 1_555
H24 C34 1_555 1_555
C35 C34 1_555 1_555
H25 C35 1_555 1_555
C36 C31 1_555 1_555
H26 C36 1_555 1_555
C37 C8 1_555 1_555
C38 C37 1_555 1_555
H27 C38 1_555 1_555
C39 C38 1_555 1_555
H28 C39 1_555 1_555
C40 C39 1_555 1_555
H29 C40 1_555 1_555
C41 C40 1_555 1_555
H30 C41 1_555 1_555
C42 C37 1_555 1_555
H31 C42 1_555 1_555
C7 C8 1_555 1_555
C15 C16 1_555 1_555
C23 C24 1_555 1_555
C29 C30 1_555 1_555
C35 C36 1_555 1_555
C41 C42 1_555 1_555

#END
