
#######################################################################
#
#                 Cambridge Crystallographic Data Centre
#                                CCDC 
#
#######################################################################
#
# If this CIF has been generated from an entry in the Cambridge 
# Structural Database, then it will include bibliographic, chemical, 
# crystal, experimental, refinement or atomic coordinate data resulting 
# from the CCDC's data processing and validation procedures.
#
#######################################################################

data_KEQKOI
_chemical_formula_moiety         'C23 H28 N4'
_chemical_name_systematic        2,2,6,6-tetrakis(1H-pyrrol-2-yl)heptane
_symmetry_cell_setting           monoclinic
_symmetry_space_group_name_H-M   'P 21/n'
_symmetry_Int_Tables_number      14
_space_group_name_Hall           '-P 2yn'
loop_
_symmetry_equiv_pos_site_id
_symmetry_equiv_pos_as_xyz
1 x,y,z
2 1/2-x,1/2+y,1/2-z
3 -x,-y,-z
4 1/2+x,1/2-y,1/2+z
_cell_length_a                   10.558(3)
_cell_length_b                   14.448(5)
_cell_length_c                   13.595(4)
_cell_angle_alpha                90
_cell_angle_beta                 97.920(7)
_cell_angle_gamma                90
_cell_volume                     2054.03
_exptl_crystal_colour            colorless
_exptl_crystal_description       block
_cell_formula_units_Z            4
loop_
_atom_site_label
_atom_site_type_symbol
_atom_site_fract_x
_atom_site_fract_y
_atom_site_fract_z
N1 N 0.0515(3) 0.4036(4) 0.1198(3)
C1 C 0.1744(4) 0.3771(4) 0.1566(3)
C2 C 0.7631(4) 0.2586(4) 0.0448(3)
C3 C 0.2573(4) 0.3264(4) 0.0922(3)
C4 C 0.1967(4) 0.2358(4) 0.0553(4)
N2 N 0.9058(4) 0.2353(5) 0.2424(3)
N3 N 0.8543(4) 0.2311(5) -0.0135(3)
C5 C 0.4803(4) 0.2502(5) 0.1032(4)
N4 N 0.1527(4) 0.1738(4) 0.1187(4)
C6 C 0.8794(5) 0.3002(6) -0.0739(4)
H1 H 0.9380 0.2979 -0.1190
C7 C 0.6092(4) 0.2364(5) 0.1696(4)
C8 C 0.3885(4) 0.3062(5) 0.1559(4)
C9 C 0.7176(4) 0.1916(5) 0.1186(4)
C10 C 0.8054(5) 0.3735(5) -0.0582(4)
H2 H 0.8028 0.4304 -0.0903
C11 C 0.7325(4) 0.3464(5) 0.0169(4)
H3 H 0.6730 0.3832 0.0430
C12 C 0.0005(5) 0.4527(5) 0.1900(4)
H4 H -0.0814 0.4777 0.1827
C13 C 0.8274(4) 0.1675(5) 0.1980(3)
C14 C 0.1965(5) 0.4115(5) 0.2501(4)
H5 H 0.2720 0.4047 0.2936
C15 C 0.9979(5) 0.1968(6) 0.3116(4)
H6 H 1.0629 0.2282 0.3513
C16 C 0.6673(5) 0.1025(5) 0.0655(4)
H7 H 0.7356 0.0723 0.0382
H8 H 0.6000 0.1175 0.0130
H9 H 0.6348 0.0620 0.1121
C17 C 0.8693(5) 0.0850(5) 0.2398(4)
H10 H 0.8340 0.0270 0.2243
C18 C 0.1813(5) 0.1964(6) -0.0369(4)
H11 H 0.2039 0.2222 -0.0947
C19 C 0.1100(6) 0.0971(5) 0.0669(7)
H12 H 0.0760 0.0448 0.0934
C20 C 0.0867(5) 0.4594(6) 0.2708(4)
H13 H 0.0765 0.4897 0.3296
C21 C 0.1245(6) 0.1089(7) -0.0278(7)
H14 H 0.1014 0.0669 -0.0790
C22 C 0.9759(5) 0.1045(6) 0.3107(4)
H15 H 1.0235 0.0610 0.3505
C23 C 0.2757(5) 0.3866(5) 0.0029(4)
H16 H 0.3221 0.3524 -0.0410
H17 H 0.3229 0.4412 0.0253
H18 H 0.1938 0.4040 -0.0317
H19 H 0.494(3) 0.273(4) 0.038(3)
H20 H 0.596(3) 0.204(4) 0.231(3)
H21 H 0.376(4) 0.278(4) 0.222(4)
H22 H 0.638(4) 0.301(4) 0.198(3)
H23 H 0.441(5) 0.181(6) 0.088(4)
H24 H 0.010(4) 0.388(5) 0.059(4)
H25 H 0.433(5) 0.359(6) 0.172(4)
H26 H 0.153(4) 0.177(5) 0.191(4)
H27 H 0.908(5) 0.300(6) 0.221(5)
H28 H 0.897(6) 0.178(7) 0.000(5)
loop_
_geom_bond_atom_site_label_1
_geom_bond_atom_site_label_2
_geom_bond_site_symmetry_1
_geom_bond_site_symmetry_2
N1 C1 1_555 1_555
C1 C3 1_555 1_555
C2 N3 1_555 1_555
C3 C4 1_555 1_555
C4 N4 1_555 1_555
N2 C13 1_555 1_555
N3 C6 1_555 1_555
C5 C7 1_555 1_555
N4 C19 1_555 1_555
C6 H1 1_555 1_555
C7 C9 1_555 1_555
C8 C3 1_555 1_555
C9 C2 1_555 1_555
C10 C6 1_555 1_555
H2 C10 1_555 1_555
C11 C2 1_555 1_555
H3 C11 1_555 1_555
C12 N1 1_555 1_555
H4 C12 1_555 1_555
C13 C9 1_555 1_555
C14 C1 1_555 1_555
H5 C14 1_555 1_555
C15 N2 1_555 1_555
H6 C15 1_555 1_555
C16 C9 1_555 1_555
H7 C16 1_555 1_555
H8 C16 1_555 1_555
H9 C16 1_555 1_555
C17 C13 1_555 1_555
H10 C17 1_555 1_555
C18 C4 1_555 1_555
H11 C18 1_555 1_555
C19 H12 1_555 1_555
C20 C12 1_555 1_555
H13 C20 1_555 1_555
C21 C18 1_555 1_555
H14 C21 1_555 1_555
C22 C15 1_555 1_555
H15 C22 1_555 1_555
C23 C3 1_555 1_555
H16 C23 1_555 1_555
H17 C23 1_555 1_555
H18 C23 1_555 1_555
H19 C5 1_555 1_555
H20 C7 1_555 1_555
H21 C8 1_555 1_555
H22 C7 1_555 1_555
H23 C5 1_555 1_555
H24 N1 1_555 1_555
H25 C8 1_555 1_555
H26 N4 1_555 1_555
H27 N2 1_555 1_555
H28 N3 1_555 1_555
C5 C8 1_555 1_555
C10 C11 1_555 1_555
C14 C20 1_555 1_555
C17 C22 1_555 1_555
C19 C21 1_555 1_555

#END
