
#######################################################################
#
#                 Cambridge Crystallographic Data Centre
#                                CCDC 
#
#######################################################################
#
# If this CIF has been generated from an entry in the Cambridge 
# Structural Database, then it will include bibliographic, chemical, 
# crystal, experimental, refinement or atomic coordinate data resulting 
# from the CCDC's data processing and validation procedures.
#
#######################################################################

data_KEQLOI
_chemical_formula_moiety         'C19 H21 Cl1 N5 O3 P1 S1'
_chemical_name_systematic        
'O-1-((E)-1-(1-((6-Chloropyridin-3-yl)methyl)-5-methyl-1H-1,2,3-triazol-4-yl)ethyleneamino) O-ethyl O-phenyl phosphorothioate'
_symmetry_cell_setting           triclinic
_symmetry_space_group_name_H-M   'P -1'
_symmetry_Int_Tables_number      2
_space_group_name_Hall           '-P 1'
loop_
_symmetry_equiv_pos_site_id
_symmetry_equiv_pos_as_xyz
1 x,y,z
2 -x,-y,-z
_cell_length_a                   8.5491(11)
_cell_length_b                   10.7464(14)
_cell_length_c                   13.8045(17)
_cell_angle_alpha                89.373(2)
_cell_angle_beta                 76.631(2)
_cell_angle_gamma                68.565(2)
_cell_volume                     1144.74
_exptl_crystal_colour            colorless
_exptl_crystal_description       block
_chemical_melting_point          '365-367 K'
_cell_formula_units_Z            2
_exptl_crystal_recrystallization_method 'ethyl acetate/petroleum ether'
loop_
_atom_site_label
_atom_site_type_symbol
_atom_site_fract_x
_atom_site_fract_y
_atom_site_fract_z
C1 C 0.3069(4) 1.4950(3) 0.9346(3)
C2 C 0.3298(4) 1.3869(4) 0.9896(2)
H1 H 0.2442 1.3861 1.0449
C3 C 0.4831(4) 1.2792(3) 0.9610(2)
H2 H 0.5039 1.2037 0.9971
C4 C 0.6064(4) 1.2836(3) 0.87811(19)
C5 C 0.5663(5) 1.3971(3) 0.8292(3)
H3 H 0.6488 1.4008 0.7732
C6 C 0.7793(4) 1.1706(3) 0.8435(2)
H4 H 0.8488 1.1960 0.7867
H5 H 0.8396 1.1551 0.8967
C7 C 0.7614(5) 1.0776(3) 0.6364(2)
H6 H 0.7046 1.1721 0.6550
H7 H 0.7057 1.0513 0.5919
H8 H 0.8808 1.0577 0.6034
C8 C 0.7510(3) 1.0025(3) 0.72746(18)
C9 C 0.7267(3) 0.8845(2) 0.74660(18)
C10 C 0.7006(3) 0.7898(2) 0.68249(18)
C11 C 0.6502(5) 0.6794(3) 0.7289(2)
H9 H 0.5937 0.6490 0.6871
H10 H 0.5725 0.7120 0.7935
H11 H 0.7520 0.6063 0.7360
C12 C 0.8108(9) 0.4609(6) 0.3629(5)
H12 H 0.8381 0.4336 0.2923
H13 H 0.9191 0.4429 0.3816
C13 C 0.7091(4) 0.9050(3) 0.3042(2)
C14 C 0.7119(4) 0.8550(4) 0.2126(2)
H14 H 0.6866 0.7786 0.2070
C15 C 0.7518(5) 0.9177(5) 0.1306(3)
H15 H 0.7535 0.8844 0.0683
C16 C 0.7890(5) 1.0277(5) 0.1384(3)
H16 H 0.8156 1.0701 0.0813
C17 C 0.7885(6) 1.0779(4) 0.2283(4)
H17 H 0.8156 1.1536 0.2326
C18 C 0.7471(5) 1.0154(4) 0.3145(3)
H18 H 0.7456 1.0485 0.3768
Cl1 Cl 0.11413(13) 1.63496(11) 0.96939(12)
N1 N 0.4190(4) 1.5031(3) 0.8547(3)
N2 N 0.7616(3) 1.0467(2) 0.81519(15)
N3 N 0.7470(4) 0.9601(3) 0.88574(17)
N4 N 0.7254(4) 0.8626(2) 0.84390(17)
N5 N 0.7253(3) 0.8112(2) 0.59082(16)
O1 O 0.6898(3) 0.7145(2) 0.53524(14)
O2 O 0.7081(4) 0.6062(3) 0.37940(17)
O3 O 0.6579(3) 0.8461(2) 0.39081(15)
P1 P 0.77589(10) 0.70651(8) 0.41932(5)
S1 S 1.01879(11) 0.66671(9) 0.38187(7)
C19 C 0.7216(12) 0.3816(10) 0.4193(7)
H19 H 0.7069 0.4001 0.4894
H20 H 0.7888 0.2880 0.4008
H21 H 0.6102 0.4041 0.4052
loop_
_geom_bond_atom_site_label_1
_geom_bond_atom_site_label_2
_geom_bond_site_symmetry_1
_geom_bond_site_symmetry_2
C1 C2 1_555 1_555
C2 H1 1_555 1_555
C3 C2 1_555 1_555
H2 C3 1_555 1_555
C4 C3 1_555 1_555
C5 C4 1_555 1_555
H3 C5 1_555 1_555
C6 C4 1_555 1_555
H4 C6 1_555 1_555
H5 C6 1_555 1_555
C7 H6 1_555 1_555
H7 C7 1_555 1_555
H8 C7 1_555 1_555
C8 C7 1_555 1_555
C9 C8 1_555 1_555
C10 C9 1_555 1_555
C11 C10 1_555 1_555
H9 C11 1_555 1_555
H10 C11 1_555 1_555
H11 C11 1_555 1_555
C12 H12 1_555 1_555
H13 C12 1_555 1_555
C13 C14 1_555 1_555
C14 H14 1_555 1_555
C15 C14 1_555 1_555
H15 C15 1_555 1_555
C16 C15 1_555 1_555
H16 C16 1_555 1_555
C17 C16 1_555 1_555
H17 C17 1_555 1_555
C18 C13 1_555 1_555
H18 C18 1_555 1_555
Cl1 C1 1_555 1_555
N1 C1 1_555 1_555
N2 C6 1_555 1_555
N3 N2 1_555 1_555
N4 C9 1_555 1_555
N5 C10 1_555 1_555
O1 N5 1_555 1_555
O2 C12 1_555 1_555
O3 C13 1_555 1_555
P1 O1 1_555 1_555
S1 P1 1_555 1_555
C19 C12 1_555 1_555
H19 C19 1_555 1_555
H20 C19 1_555 1_555
H21 C19 1_555 1_555
C5 N1 1_555 1_555
C8 N2 1_555 1_555
C17 C18 1_555 1_555
N3 N4 1_555 1_555
O2 P1 1_555 1_555
O3 P1 1_555 1_555

#END
