
#######################################################################
#
#                 Cambridge Crystallographic Data Centre
#                                CCDC 
#
#######################################################################
#
# If this CIF has been generated from an entry in the Cambridge 
# Structural Database, then it will include bibliographic, chemical, 
# crystal, experimental, refinement or atomic coordinate data resulting 
# from the CCDC's data processing and validation procedures.
#
#######################################################################

data_KEQLOH
_chemical_name_common            
'4,8,14,18,23,27-Hexa-azonia-1,11-diaza-6,16,25(1,3)-tribenzenabicyclo(9.9.9)nonacosaphane fluoride bis(hydrogen difluoride) sesquikis(hexafluorosilicate) heptahydrate clathrate'
_chemical_formula_moiety         
'C36 H60 N8 6+,1.5(F6 Si1 2-),2(H1 F2 1-),F1 1-,7(H2 O1)'
_chemical_name_systematic        
'4,8,14,18,23,27-Hexa-ammonio-1,11-diaza-6,16,25(1,3)-tribenzenabicyclo(9.9.9)nonacosaphane fluoride bis(hydrogen difluoride) sesquikis(hexafluorosilicate) heptahydrate clathrate'
_symmetry_cell_setting           triclinic
_symmetry_space_group_name_H-M   'P -1'
_symmetry_Int_Tables_number      2
_space_group_name_Hall           '-P 1'
loop_
_symmetry_equiv_pos_site_id
_symmetry_equiv_pos_as_xyz
1 x,y,z
2 -x,-y,-z
_cell_length_a                   14.243(3)
_cell_length_b                   17.128(4)
_cell_length_c                   11.384(3)
_cell_angle_alpha                98.68(2)
_cell_angle_beta                 107.74(2)
_cell_angle_gamma                106.73(2)
_cell_volume                     2444.93
_exptl_crystal_colour            colorless
_exptl_crystal_description       prism
_chemical_melting_point          490K
_cell_formula_units_Z            2
_exptl_crystal_recrystallization_method 'aqueous ethanol'
loop_
_atom_site_label
_atom_site_type_symbol
_atom_site_fract_x
_atom_site_fract_y
_atom_site_fract_z
Si1 Si 0.14309(9) -0.27586(7) 0.3740(1)
F1 F 0.0611(2) -0.3728(1) 0.2878(2)
F2 F 0.2241(2) -0.1766(1) 0.4586(2)
F3 F 0.1639(2) -0.3074(2) 0.5081(2)
F4 F 0.0421(2) -0.2527(2) 0.3940(3)
F5 F 0.1197(2) -0.2395(1) 0.2415(2)
F6 F 0.2425(2) -0.2987(2) 0.3526(3)
Si2 Si 0.0000 0.0000 0.0000
F7 F -0.0758(2) 0.0374(2) 0.0602(2)
F8 F 0.1039(2) 0.0524(1) 0.1359(2)
F9 F -0.0273(2) -0.0825(1) 0.0604(2)
F7A F 0.0758(2) -0.0374(2) -0.0602(2)
F8A F -0.1039(2) -0.0524(1) -0.1359(2)
F9A F 0.0273(2) 0.0825(1) -0.0604(2)
F10 F 0.1664(2) 0.3065(1) 0.2387(2)
F11 F 0.4770(2) 0.1430(2) 0.6580(3)
F12 F 0.3895(2) 0.0524(2) 0.7432(3)
H1 H 0.4525 0.1210 0.7265
F13 F 0.7457(2) 0.4495(2) 0.1908(3)
F14 F 0.6724(2) 0.3882(2) -0.0234(3)
H2 H 0.6987 0.4137 0.0916
O1 O 0.2778(2) 0.1927(2) 0.2451(3)
H3 H 0.2014 0.1461 0.2001
H4 H 0.2494 0.2402 0.2468
O2 O 0.6739(3) 0.3315(3) 0.3080(3)
H5 H 0.6753 0.3661 0.2690
H6 H 0.7189 0.3085 0.3598
O3 O 0.2260(3) 0.5611(2) 0.1749(3)
H7 H 0.2159 0.6129 0.2312
H8 H 0.2666 0.5969 0.1377
O4 O 0.6366(4) 0.2200(2) -0.0967(4)
H9 H 0.6710 0.2327 -0.1626
H10 H 0.6480 0.2819 -0.0768
O5 O 0.2855(3) -0.1129(2) 0.7229(3)
H11 H 0.2128(3) -0.0921(3) 0.6860(4)
H12 H 0.3036 -0.1397 0.6451
O6 O 0.5683(2) 0.1747(2) 0.0925(4)
H13 H 0.6042 0.1960 0.0329
H14 H 0.6329 0.1667 0.1685
O7 O 0.1363(2) 0.4000(2) 0.6437(3)
H15 H 0.1716 0.4536 0.7138
H16 H 0.0775 0.3650 0.6632
N1 N 0.3710(2) 0.0273(2) 0.2449(3)
N2 N -0.0199(2) 0.3738(2) 0.2266(3)
N3 N 0.1247(2) -0.0756(2) 0.2995(3)
N4 N -0.0161(2) 0.1987(2) 0.2179(3)
N5 N 0.4636(2) 0.1961(2) 0.4456(3)
N6 N 0.1916(2) 0.4305(2) 0.4373(3)
N7 N 0.3591(2) 0.1216(2) 0.0481(3)
N8 N 0.1117(2) 0.3908(2) 0.0625(3)
C1 C 0.2813(3) -0.0452(2) 0.2394(4)
C2 C 0.2373(3) -0.0210(2) 0.3372(4)
C3 C 0.0788(3) -0.0599(2) 0.4008(4)
C4 C 0.1003(3) 0.0329(2) 0.4455(4)
C5 C 0.0353(3) 0.0706(2) 0.3780(4)
C6 C 0.0557(3) 0.1567(2) 0.4176(4)
C7 C 0.1423(3) 0.2055(2) 0.5256(4)
C8 C 0.2077(3) 0.1690(3) 0.5947(4)
C9 C 0.1862(3) 0.0828(3) 0.5558(4)
C10 C -0.0192(3) 0.1947(3) 0.3472(4)
C11 C -0.1069(3) 0.2169(2) 0.1339(4)
C12 C -0.1164(3) 0.2984(2) 0.1945(4)
C13 C 0.4620(3) 0.0523(2) 0.3665(4)
C14 C 0.5239(3) 0.1463(2) 0.4022(4)
C15 C 0.5205(3) 0.2899(2) 0.4718(4)
C16 C 0.4718(3) 0.3391(2) 0.5396(4)
C17 C 0.4133(3) 0.3840(2) 0.4768(4)
C18 C 0.3705(3) 0.4307(2) 0.5422(4)
C19 C 0.3878(3) 0.4340(3) 0.6684(4)
C20 C 0.4444(4) 0.3891(3) 0.7303(4)
C21 C 0.4880(3) 0.3432(3) 0.6662(4)
C22 C 0.3070(3) 0.4791(2) 0.4772(4)
C23 C 0.1260(3) 0.4847(2) 0.4063(4)
C24 C 0.0102(3) 0.4314(2) 0.3531(4)
C25 C 0.4020(3) 0.0075(2) 0.1346(4)
C26 C 0.3363(3) 0.0280(2) 0.0190(4)
C27 C 0.3000(3) 0.1474(3) -0.0634(4)
C28 C 0.3163(3) 0.2403(2) -0.0262(4)
C29 C 0.2289(3) 0.2644(3) -0.0479(4)
C30 C 0.2396(3) 0.3488(3) -0.0195(4)
C31 C 0.3386(4) 0.4094(3) 0.0344(4)
C32 C 0.4267(4) 0.3865(3) 0.0581(5)
C33 C 0.4164(4) 0.3021(3) 0.0263(5)
C34 C 0.1418(3) 0.3713(3) -0.0521(4)
C35 C -0.0008(3) 0.3844(2) 0.0187(3)
C36 C -0.0291(3) 0.4202(2) 0.1275(3)
H17 H 0.2237 -0.0565 0.1341
H18 H 0.0680 -0.0722 0.2097
H19 H 0.1221 -0.1392 0.2879
H20 H -0.0363 0.1302 0.1646
H21 H 0.0575 0.2460 0.2271
H22 H 0.4782 0.1811 0.5423
H23 H 0.3908 0.1651 0.3698
H24 H 0.1663 0.4006 0.5106
H25 H 0.1616 0.3797 0.3549
H26 H 0.4515 0.1510 0.0864
H27 H 0.3372 0.1511 0.1140
H28 H 0.1558 0.4480 0.1200
H29 H 0.1303 0.3495 0.1229
loop_
_geom_bond_atom_site_label_1
_geom_bond_atom_site_label_2
_geom_bond_site_symmetry_1
_geom_bond_site_symmetry_2
Si1 F1 1_555 1_555
F2 Si1 1_555 1_555
F3 Si1 1_555 1_555
F4 Si1 1_555 1_555
F5 Si1 1_555 1_555
F6 Si1 1_555 1_555
Si2 F7 1_555 1_555
F8 Si2 1_555 1_555
F9 Si2 1_555 1_555
F11 H1 1_555 1_555
F12 H1 1_555 1_555
F13 H2 1_555 1_555
F14 H2 1_555 1_555
O1 H3 1_555 1_555
H4 O1 1_555 1_555
O2 H5 1_555 1_555
H6 O2 1_555 1_555
O3 H7 1_555 1_555
H8 O3 1_555 1_555
O4 H9 1_555 1_555
H10 O4 1_555 1_555
O5 H11 1_555 1_555
H12 O5 1_555 1_555
O6 H13 1_555 1_555
H14 O6 1_555 1_555
O7 H15 1_555 1_555
H16 O7 1_555 1_555
N1 C1 1_555 1_555
N2 C12 1_555 1_555
N3 C2 1_555 1_555
N4 C10 1_555 1_555
N5 C14 1_555 1_555
N6 C22 1_555 1_555
N7 C26 1_555 1_555
N8 C34 1_555 1_555
C1 C2 1_555 1_555
C3 N3 1_555 1_555
C4 C3 1_555 1_555
C5 C4 1_555 1_555
C6 C5 1_555 1_555
C7 C6 1_555 1_555
C8 C7 1_555 1_555
C9 C4 1_555 1_555
C10 C6 1_555 1_555
C11 N4 1_555 1_555
C12 C11 1_555 1_555
C13 N1 1_555 1_555
C14 C13 1_555 1_555
C15 N5 1_555 1_555
C16 C15 1_555 1_555
C17 C16 1_555 1_555
C18 C17 1_555 1_555
C19 C18 1_555 1_555
C20 C19 1_555 1_555
C21 C16 1_555 1_555
C22 C18 1_555 1_555
C23 N6 1_555 1_555
C24 N2 1_555 1_555
C25 N1 1_555 1_555
C26 C25 1_555 1_555
C27 N7 1_555 1_555
C28 C27 1_555 1_555
C29 C28 1_555 1_555
C30 C29 1_555 1_555
C31 C30 1_555 1_555
C32 C31 1_555 1_555
C33 C28 1_555 1_555
C34 C30 1_555 1_555
C35 N8 1_555 1_555
C36 N2 1_555 1_555
H17 C1 1_555 1_555
H18 N3 1_555 1_555
H19 N3 1_555 1_555
H20 N4 1_555 1_555
H21 N4 1_555 1_555
H22 N5 1_555 1_555
H23 N5 1_555 1_555
H24 N6 1_555 1_555
H25 N6 1_555 1_555
H26 N7 1_555 1_555
H27 N7 1_555 1_555
H28 N8 1_555 1_555
H29 N8 1_555 1_555
F7A Si2 1_555 1_555
F8A Si2 1_555 1_555
F9A Si2 1_555 1_555
C8 C9 1_555 1_555
C20 C21 1_555 1_555
C23 C24 1_555 1_555
C32 C33 1_555 1_555
C35 C36 1_555 1_555

#END
