
#######################################################################
#
#                 Cambridge Crystallographic Data Centre
#                                CCDC 
#
#######################################################################
#
# If this CIF has been generated from an entry in the Cambridge 
# Structural Database, then it will include bibliographic, chemical, 
# crystal, experimental, refinement or atomic coordinate data resulting 
# from the CCDC's data processing and validation procedures.
#
#######################################################################

data_KEQTOS
_chemical_formula_moiety         'C33 H33 N5 O2 S1,C2 H3 N1'
_chemical_name_systematic        
'2-[(1-{[4-(dimethylamino)phenyl]acetyl}pyrrolidin-2-yl)carbonyl]-N-(pyren-1-ylmethyl)hydrazinecarbothioamide acetonitrile solvate'
_symmetry_cell_setting           monoclinic
_symmetry_space_group_name_H-M   'P 21/n'
_symmetry_Int_Tables_number      14
_space_group_name_Hall           '-P 2yn'
loop_
_symmetry_equiv_pos_site_id
_symmetry_equiv_pos_as_xyz
1 x,y,z
2 1/2-x,1/2+y,1/2-z
3 -x,-y,-z
4 1/2+x,1/2-y,1/2+z
_cell_length_a                   14.700(2)
_cell_length_b                   8.4865(12)
_cell_length_c                   26.024(4)
_cell_angle_alpha                90
_cell_angle_beta                 98.902(13)
_cell_angle_gamma                90
_cell_volume                     3207.43
_exptl_crystal_colour            colorless
_exptl_crystal_description       block
_cell_formula_units_Z            4
loop_
_atom_site_label
_atom_site_type_symbol
_atom_site_fract_x
_atom_site_fract_y
_atom_site_fract_z
S1 S 0.8504(2) 0.4433(5) 0.47127(8)
O1 O 0.7919(3) 0.5429(7) 0.67424(16)
O2 O 0.9679(4) 0.3616(9) 0.6391(2)
N1 N 0.3803(5) 0.4487(15) 0.6991(4)
N2 N 0.9180(3) 0.4967(8) 0.73300(19)
N3 N 0.9512(5) 0.6095(10) 0.6085(2)
H1 H 0.9498 0.7101 0.6165
N4 N 0.9387(5) 0.5639(12) 0.5567(2)
H2 H 0.9845 0.5743 0.5389
N5 N 0.7907(5) 0.4931(9) 0.5621(2)
H3 H 0.8022 0.5283 0.5943
C1 C 0.3268(7) 0.505(2) 0.7372(8)
H4 H 0.2619 0.4774 0.7262
H5 H 0.3331 0.6193 0.7404
H6 H 0.3490 0.4553 0.7708
C2 C 0.3326(6) 0.3704(19) 0.6546(5)
H7 H 0.3596 0.2658 0.6516
H8 H 0.3379 0.4321 0.6234
H9 H 0.2675 0.3594 0.6582
C3 C 0.47614(19) 0.4382(7) 0.7122(2)
C4 C 0.5204(3) 0.5124(7) 0.7568(2)
H10 H 0.4856 0.5690 0.7785
C5 C 0.6157(3) 0.5039(6) 0.76954(15)
H11 H 0.6459 0.5547 0.8000
C6 C 0.66665(19) 0.4212(6) 0.73773(15)
C7 C 0.6224(3) 0.3470(6) 0.69316(15)
H12 H 0.6572 0.2904 0.6714
C8 C 0.5271(3) 0.3554(7) 0.68040(16)
H13 H 0.4969 0.3047 0.6499
C9 C 0.7709(4) 0.4090(10) 0.7535(2)
H14 H 0.7880 0.4564 0.7884
H15 H 0.7881 0.2962 0.7562
C10 C 0.8258(4) 0.4875(10) 0.7169(2)
C11 C 0.9682(4) 0.4333(11) 0.7812(3)
H16 H 0.9520 0.3216 0.7858
H17 H 0.9553 0.4947 0.8116
C12 C 1.0658(6) 0.4494(18) 0.7741(6)
H18 H 1.1019 0.4944 0.8060
H19 H 1.0914 0.3442 0.7682
C13 C 1.0736(5) 0.5495(17) 0.7307(4)
H20 H 1.1135 0.4997 0.7080
H21 H 1.1011 0.6518 0.7430
C14 C 0.9769(4) 0.5741(11) 0.7009(2)
H22 H 0.9624 0.6892 0.6983
C15 C 0.9655(5) 0.5015(13) 0.6464(3)
C16 C 0.8580(6) 0.5040(12) 0.5330(3)
C17 C 0.6997(5) 0.4269(10) 0.5443(3)
H23 H 0.6878 0.4304 0.5058
H24 H 0.6531 0.4944 0.5572
C18 C 0.6870(4) 0.2611(9) 0.5614(2)
C19 C 0.7605(5) 0.1644(12) 0.5811(3)
H25 H 0.8216 0.2038 0.5845
C20 C 0.7456(6) 0.0135(12) 0.5954(3)
H26 H 0.7971 -0.0518 0.6071
C21 C 0.6578(6) -0.0483(10) 0.5936(3)
C22 C 0.5799(3) 0.0488(5) 0.57417(17)
C23 C 0.5939(2) 0.2010(5) 0.55732(17)
C24 C 0.5190(3) 0.2948(5) 0.53771(18)
H27 H 0.5286 0.3988 0.5262
C25 C 0.4301(2) 0.2363(7) 0.5350(2)
H28 H 0.3789 0.3004 0.5216
C26 C 0.4160(2) 0.0841(7) 0.5518(2)
C27 C 0.4909(4) -0.0097(5) 0.57141(19)
C28 C 0.4741(9) -0.1617(14) 0.5885(4)
C29 C 0.5536(11) -0.2579(13) 0.6076(4)
H29 H 0.5442 -0.3623 0.6188
C30 C 0.6399(9) -0.2049(12) 0.6100(3)
H30 H 0.6900 -0.2721 0.6228
C31 C 0.3871(13) -0.2259(18) 0.5870(5)
H31 H 0.3773 -0.3302 0.5982
C32 C 0.3151(12) -0.125(3) 0.5677(6)
H32 H 0.2542 -0.1637 0.5665
C33 C 0.3242(7) 0.023(2) 0.5507(4)
H33 H 0.2718 0.0853 0.5383
N6 N 0.9908(7) 0.9431(12) 0.6009(4)
C34 C 1.0214(7) 1.0339(13) 0.5811(4)
C35 C 1.0554(11) 1.1611(17) 0.5519(5)
H34 H 1.0928 1.1173 0.5273
H35 H 1.0931 1.2326 0.5759
H36 H 1.0032 1.2192 0.5328
loop_
_geom_bond_atom_site_label_1
_geom_bond_atom_site_label_2
_geom_bond_site_symmetry_1
_geom_bond_site_symmetry_2
S1 C16 1_555 1_555
O1 C10 1_555 1_555
O2 C15 1_555 1_555
N1 C1 1_555 1_555
N2 C10 1_555 1_555
N3 H1 1_555 1_555
N4 N3 1_555 1_555
H2 N4 1_555 1_555
N5 H3 1_555 1_555
C1 H4 1_555 1_555
H5 C1 1_555 1_555
H6 C1 1_555 1_555
C2 N1 1_555 1_555
H7 C2 1_555 1_555
H8 C2 1_555 1_555
H9 C2 1_555 1_555
C3 N1 1_555 1_555
C4 C3 1_555 1_555
H10 C4 1_555 1_555
C5 C4 1_555 1_555
H11 C5 1_555 1_555
C6 C5 1_555 1_555
C7 C6 1_555 1_555
H12 C7 1_555 1_555
C8 C3 1_555 1_555
H13 C8 1_555 1_555
C9 C6 1_555 1_555
H14 C9 1_555 1_555
H15 C9 1_555 1_555
C10 C9 1_555 1_555
C11 N2 1_555 1_555
H16 C11 1_555 1_555
H17 C11 1_555 1_555
C12 C11 1_555 1_555
H18 C12 1_555 1_555
H19 C12 1_555 1_555
C13 C12 1_555 1_555
H20 C13 1_555 1_555
H21 C13 1_555 1_555
C14 N2 1_555 1_555
H22 C14 1_555 1_555
C15 N3 1_555 1_555
C16 N4 1_555 1_555
C17 N5 1_555 1_555
H23 C17 1_555 1_555
H24 C17 1_555 1_555
C18 C17 1_555 1_555
C19 C18 1_555 1_555
H25 C19 1_555 1_555
C20 C19 1_555 1_555
H26 C20 1_555 1_555
C21 C20 1_555 1_555
C22 C21 1_555 1_555
C23 C18 1_555 1_555
C24 C23 1_555 1_555
H27 C24 1_555 1_555
C25 C24 1_555 1_555
H28 C25 1_555 1_555
C26 C25 1_555 1_555
C27 C22 1_555 1_555
C28 C27 1_555 1_555
C29 C28 1_555 1_555
H29 C29 1_555 1_555
C30 C21 1_555 1_555
H30 C30 1_555 1_555
C31 C28 1_555 1_555
H31 C31 1_555 1_555
C32 C31 1_555 1_555
H32 C32 1_555 1_555
C33 C26 1_555 1_555
H33 C33 1_555 1_555
N6 C34 1_555 1_555
C34 C35 1_555 1_555
C35 H34 1_555 1_555
H35 C35 1_555 1_555
H36 C35 1_555 1_555
N5 C16 1_555 1_555
C7 C8 1_555 1_555
C13 C14 1_555 1_555
C14 C15 1_555 1_555
C22 C23 1_555 1_555
C26 C27 1_555 1_555
C29 C30 1_555 1_555
C32 C33 1_555 1_555

#END
