
#######################################################################
#
#                 Cambridge Crystallographic Data Centre
#                                CCDC 
#
#######################################################################
#
# If this CIF has been generated from an entry in the Cambridge 
# Structural Database, then it will include bibliographic, chemical, 
# crystal, experimental, refinement or atomic coordinate data resulting 
# from the CCDC's data processing and validation procedures.
#
#######################################################################

data_KEQVIN
_chemical_formula_moiety         'C17 H23 N1 O3'
_chemical_name_systematic        
3-Hydroxy-6-methyl-13-azatetracyclo[11.3.1.0^1,9^.0^4,9^]heptadec-3-ene-2,8-dione
_symmetry_cell_setting           orthorhombic
_symmetry_space_group_name_H-M   'P 21 21 21'
_symmetry_Int_Tables_number      19
_space_group_name_Hall           'P 2ac 2ab'
loop_
_symmetry_equiv_pos_site_id
_symmetry_equiv_pos_as_xyz
1 x,y,z
2 1/2-x,-y,1/2+z
3 -x,1/2+y,1/2-z
4 1/2+x,1/2-y,-z
_cell_length_a                   6.35940(10)
_cell_length_b                   13.3290(2)
_cell_length_c                   17.5422(3)
_cell_angle_alpha                90
_cell_angle_beta                 90
_cell_angle_gamma                90
_cell_volume                     1486.95
_exptl_crystal_colour            colorless
_exptl_crystal_description       block
_cell_formula_units_Z            4
loop_
_atom_site_label
_atom_site_type_symbol
_atom_site_fract_x
_atom_site_fract_y
_atom_site_fract_z
O1 O 0.8389(4) 0.52146(17) 0.29241(13)
O2 O 0.9781(3) 0.63103(15) 0.15970(12)
H1 H 0.9976 0.6508 0.1160
O3 O 0.2844(3) 0.3689(2) 0.10515(16)
N1 N 0.7831(4) 0.21050(16) 0.22744(14)
C1 C 0.5944(5) 0.1999(2) 0.2753(2)
H2 H 0.6355 0.2081 0.3282
H3 H 0.5408 0.1322 0.2695
C2 C 0.4172(4) 0.2730(2) 0.25837(19)
H4 H 0.3555 0.2571 0.2093
H5 H 0.3086 0.2664 0.2969
C3 C 0.4972(5) 0.3800(2) 0.25748(18)
H6 H 0.5334 0.3994 0.3091
H7 H 0.3848 0.4237 0.2404
C4 C 0.6914(4) 0.3964(2) 0.20568(16)
C5 C 0.8032(4) 0.4935(2) 0.22769(17)
C6 C 0.8627(4) 0.5460(2) 0.15812(17)
C7 C 0.7779(4) 0.5025(2) 0.09752(17)
C8 C 0.7679(5) 0.5444(3) 0.01946(19)
H8 H 0.8546 0.5040 -0.0141
H9 H 0.8253 0.6118 0.0199
C9 C 0.7765(5) 0.1638(2) 0.15174(19)
H10 H 0.7213 0.0964 0.1579
H11 H 0.9202 0.1572 0.1339
C10 C 0.6507(5) 0.2147(2) 0.08903(19)
H12 H 0.5053 0.2199 0.1053
H13 H 0.6542 0.1727 0.0439
C11 C 0.7305(5) 0.3200(2) 0.06772(17)
H14 H 0.6903 0.3332 0.0153
H15 H 0.8829 0.3189 0.0695
C12 C 0.6537(4) 0.4085(2) 0.11704(16)
C13 C 0.4256(4) 0.4265(2) 0.09200(17)
C14 C 0.3844(5) 0.5166(3) 0.0449(2)
H16 H 0.3618 0.5726 0.0792
H17 H 0.2534 0.5056 0.0178
C15 C 0.5451(6) 0.5478(4) -0.0120(2)
H18 H 0.5408 0.4963 -0.0519
C16 C 0.4963(8) 0.6448(4) -0.0519(3)
H19 H 0.3545 0.6431 -0.0706
H20 H 0.5915 0.6537 -0.0938
H21 H 0.5117 0.6995 -0.0168
C17 C 0.8564(4) 0.3144(2) 0.22667(16)
H22 H 0.9720 0.3192 0.1908
H23 H 0.9121 0.3299 0.2768
loop_
_geom_bond_atom_site_label_1
_geom_bond_atom_site_label_2
_geom_bond_site_symmetry_1
_geom_bond_site_symmetry_2
O1 C5 1_555 1_555
O2 H1 1_555 1_555
O3 C13 1_555 1_555
N1 C1 1_555 1_555
C1 H2 1_555 1_555
H3 C1 1_555 1_555
C2 C1 1_555 1_555
H4 C2 1_555 1_555
H5 C2 1_555 1_555
C3 C2 1_555 1_555
H6 C3 1_555 1_555
H7 C3 1_555 1_555
C4 C3 1_555 1_555
C5 C4 1_555 1_555
C6 O2 1_555 1_555
C7 C6 1_555 1_555
C8 C7 1_555 1_555
H8 C8 1_555 1_555
H9 C8 1_555 1_555
C9 N1 1_555 1_555
H10 C9 1_555 1_555
H11 C9 1_555 1_555
C10 C9 1_555 1_555
H12 C10 1_555 1_555
H13 C10 1_555 1_555
C11 C10 1_555 1_555
H14 C11 1_555 1_555
H15 C11 1_555 1_555
C12 C4 1_555 1_555
C13 C12 1_555 1_555
C14 C13 1_555 1_555
H16 C14 1_555 1_555
H17 C14 1_555 1_555
C15 C8 1_555 1_555
H18 C15 1_555 1_555
C16 C15 1_555 1_555
H19 C16 1_555 1_555
H20 C16 1_555 1_555
H21 C16 1_555 1_555
C17 N1 1_555 1_555
H22 C17 1_555 1_555
H23 C17 1_555 1_555
C4 C17 1_555 1_555
C5 C6 1_555 1_555
C7 C12 1_555 1_555
C11 C12 1_555 1_555
C14 C15 1_555 1_555

#END
