
#######################################################################
#
#                 Cambridge Crystallographic Data Centre
#                                CCDC 
#
#######################################################################
#
# If this CIF has been generated from an entry in the Cambridge 
# Structural Database, then it will include bibliographic, chemical, 
# crystal, experimental, refinement or atomic coordinate data resulting 
# from the CCDC's data processing and validation procedures.
#
#######################################################################

data_KEQYIP
_chemical_formula_moiety         'C12 H9 Cl1 N4 O1'
_chemical_name_systematic        
N'-(2-Chlorobenzylidene)pyrazine-2-carbohydrazide
_symmetry_cell_setting           monoclinic
_symmetry_space_group_name_H-M   'P n'
_symmetry_Int_Tables_number      7
_space_group_name_Hall           'P -2yac'
loop_
_symmetry_equiv_pos_site_id
_symmetry_equiv_pos_as_xyz
1 x,y,z
2 1/2+x,-y,1/2+z
_cell_length_a                   6.7912(12)
_cell_length_b                   3.8852(8)
_cell_length_c                   22.113(4)
_cell_angle_alpha                90
_cell_angle_beta                 95.999(9)
_cell_angle_gamma                90
_cell_volume                     580.26
_exptl_crystal_colour            colorless
_exptl_crystal_description       block
_chemical_melting_point          '492-495 K'
_cell_formula_units_Z            2
_exptl_crystal_recrystallization_method methanol
loop_
_atom_site_label
_atom_site_type_symbol
_atom_site_fract_x
_atom_site_fract_y
_atom_site_fract_z
Cl1 Cl 0.58385(13) 0.6529(3) 0.63141(5)
O1 O 0.7753(4) 1.0620(9) 0.94094(13)
N1 N 1.1845(4) 0.5941(8) 0.89704(13)
N2 N 1.3235(5) 0.6986(9) 1.01884(15)
N3 N 0.8248(5) 0.8137(9) 0.85123(16)
N4 N 0.6461(4) 0.9191(8) 0.82152(14)
C1 C 1.0757(5) 0.7552(10) 0.93508(16)
C2 C 1.1413(5) 0.8065(10) 0.99513(17)
H1 H 1.0594 0.9173 1.0202
C3 C 1.4310(5) 0.5445(11) 0.98091(18)
H2 H 1.5572 0.4698 0.9954
C4 C 1.3646(5) 0.4881(10) 0.92012(16)
H3 H 1.4461 0.3755 0.8952
C5 C 0.8763(5) 0.8935(9) 0.91035(16)
C6 C 0.6086(5) 0.8103(9) 0.76765(18)
H4 H 0.6998 0.6694 0.7511
C7 C 0.4228(5) 0.9028(9) 0.73060(17)
C8 C 0.3959(6) 0.8386(8) 0.66793(18)
C9 C 0.2228(6) 0.9356(11) 0.63304(19)
H5 H 0.2096 0.8986 0.5913
C10 C 0.0721(6) 1.0853(11) 0.65986(19)
H6 H -0.0445 1.1464 0.6365
C11 C 0.0929(6) 1.1467(11) 0.7225(2)
H7 H -0.0091 1.2495 0.7410
C12 C 0.2668(5) 1.0531(10) 0.75692(18)
H8 H 0.2794 1.0918 0.7986
H9 H 0.908(8) 0.753(13) 0.829(3)
loop_
_geom_bond_atom_site_label_1
_geom_bond_atom_site_label_2
_geom_bond_site_symmetry_1
_geom_bond_site_symmetry_2
Cl1 C8 1_555 1_555
O1 C5 1_555 1_555
N1 C1 1_555 1_555
N2 C2 1_555 1_555
N3 N4 1_555 1_555
N4 C6 1_555 1_555
C1 C2 1_555 1_555
C2 H1 1_555 1_555
C3 N2 1_555 1_555
H2 C3 1_555 1_555
C4 N1 1_555 1_555
H3 C4 1_555 1_555
C5 N3 1_555 1_555
C6 H4 1_555 1_555
C7 C6 1_555 1_555
C8 C7 1_555 1_555
C9 C8 1_555 1_555
H5 C9 1_555 1_555
C10 C9 1_555 1_555
H6 C10 1_555 1_555
C11 C10 1_555 1_555
H7 C11 1_555 1_555
C12 C7 1_555 1_555
H8 C12 1_555 1_555
H9 N3 1_555 1_555
C1 C5 1_555 1_555
C3 C4 1_555 1_555
C11 C12 1_555 1_555

#END
