
#######################################################################
#
#                 Cambridge Crystallographic Data Centre
#                                CCDC 
#
#######################################################################
#
# If this CIF has been generated from an entry in the Cambridge 
# Structural Database, then it will include bibliographic, chemical, 
# crystal, experimental, refinement or atomic coordinate data resulting 
# from the CCDC's data processing and validation procedures.
#
#######################################################################

data_KERBAK
_chemical_formula_moiety         'C7 H16 N4 O2'
_chemical_name_systematic        bis(1,3-Dimethylureido)methane
_symmetry_cell_setting           orthorhombic
_symmetry_space_group_name_H-M   'P b c a'
_symmetry_Int_Tables_number      61
_space_group_name_Hall           '-P 2ac 2ab'
loop_
_symmetry_equiv_pos_site_id
_symmetry_equiv_pos_as_xyz
1 x,y,z
2 1/2-x,-y,1/2+z
3 1/2+x,1/2-y,-z
4 -x,1/2+y,1/2-z
5 -x,-y,-z
6 1/2+x,y,1/2-z
7 1/2-x,1/2+y,z
8 x,1/2-y,1/2+z
_cell_length_a                   14.350(5)
_cell_length_b                   12.115(4)
_cell_length_c                   12.015(5)
_cell_angle_alpha                90
_cell_angle_beta                 90
_cell_angle_gamma                90
_cell_volume                     2088.81
_exptl_crystal_colour            colorless
_chemical_melting_point          145.0-146.2deg.C
_cell_formula_units_Z            8
loop_
_atom_site_label
_atom_site_type_symbol
_atom_site_fract_x
_atom_site_fract_y
_atom_site_fract_z
C1 C 0.1064(6) 0.3705(7) -0.0347(7)
C2 C 0.0881(5) 0.4001(6) 0.1659(6)
C3 C 0.2304(6) 0.4499(9) 0.2745(7)
C4 C 0.0733(5) 0.4469(6) 0.3635(5)
C5 C -0.0120(6) 0.6186(7) 0.3145(6)
C6 C 0.1126(5) 0.6164(6) 0.4585(5)
C7 C 0.1557(6) 0.7906(7) 0.5459(7)
N1 N 0.1443(4) 0.3910(5) 0.0767(5)
N2 N 0.1302(4) 0.4241(5) 0.26605
N3 N 0.0579(4) 0.5610(5) 0.3843(5)
N4 N 0.1035(4) 0.7265(5) 0.4635(5)
O1 O 0.0024(3) 0.3883(4) 0.1594(4)
O2 O 0.1671(3) 0.5653(4) 0.5211(4)
H1 H 0.216(6) 0.405(7) 0.067(7)
H2 H 0.062(5) 0.764(6) 0.429(6)
H3 H 0.066(5) 0.289(7) -0.040(7)
H4 H 0.159(7) 0.349(8) -0.084(8)
H5 H 0.055(7) 0.405(8) -0.043(8)
H6 H 0.253(6) 0.476(6) 0.339(6)
H7 H 0.267(7) 0.377(8) 0.247(8)
H8 H 0.248(8) 0.503(9) 0.207(8)
H9 H 0.104(5) 0.416(6) 0.420(6)
H10 H 0.012(6) 0.399(7) 0.363(7)
H11 H -0.045(6) 0.562(7) 0.293(7)
H12 H -0.055(6) 0.672(7) 0.350(7)
H13 H 0.025(7) 0.696(7) 0.266(9)
H14 H 0.155(5) 0.842(6) 0.541(7)
H15 H 0.238(6) 0.782(6) 0.524(6)
H16 H 0.137(6) 0.766(7) 0.615(7)
loop_
_geom_bond_atom_site_label_1
_geom_bond_atom_site_label_2
_geom_bond_site_symmetry_1
_geom_bond_site_symmetry_2
C1 N1 1_555 1_555
C2 N1 1_555 1_555
C3 N2 1_555 1_555
C4 N2 1_555 1_555
C5 N3 1_555 1_555
C6 N3 1_555 1_555
C7 N4 1_555 1_555
N1 H1 1_555 1_555
N2 C2 1_555 1_555
N3 C4 1_555 1_555
N4 C6 1_555 1_555
O1 C2 1_555 1_555
O2 C6 1_555 1_555
H2 N4 1_555 1_555
H3 C1 1_555 1_555
H4 C1 1_555 1_555
H5 C1 1_555 1_555
H6 C3 1_555 1_555
H7 C3 1_555 1_555
H8 C3 1_555 1_555
H9 C4 1_555 1_555
H10 C4 1_555 1_555
H11 C5 1_555 1_555
H12 C5 1_555 1_555
H13 C5 1_555 1_555
H14 C7 1_555 1_555
H15 C7 1_555 1_555
H16 C7 1_555 1_555

#END
