
#######################################################################
#
#                 Cambridge Crystallographic Data Centre
#                                CCDC 
#
#######################################################################
#
# If this CIF has been generated from an entry in the Cambridge 
# Structural Database, then it will include bibliographic, chemical, 
# crystal, experimental, refinement or atomic coordinate data resulting 
# from the CCDC's data processing and validation procedures.
#
#######################################################################

data_KERKUO
_chemical_formula_moiety         'C10 H8 N2 O2'
_chemical_name_systematic        (5Z)-5-Benzylideneimidazolidine-2,4-dione
_symmetry_cell_setting           monoclinic
_symmetry_space_group_name_H-M   'P 21/n'
_symmetry_Int_Tables_number      14
_space_group_name_Hall           '-P 2yn'
loop_
_symmetry_equiv_pos_site_id
_symmetry_equiv_pos_as_xyz
1 x,y,z
2 1/2-x,1/2+y,1/2-z
3 -x,-y,-z
4 1/2+x,1/2-y,1/2+z
_cell_length_a                   5.0249(13)
_cell_length_b                   9.302(2)
_cell_length_c                   19.136(5)
_cell_angle_alpha                90
_cell_angle_beta                 91.532(4)
_cell_angle_gamma                90
_cell_volume                     894.128
_exptl_crystal_colour            colorless
_exptl_crystal_description       block
_cell_formula_units_Z            4
_exptl_crystal_recrystallization_method methanol
loop_
_atom_site_label
_atom_site_type_symbol
_atom_site_fract_x
_atom_site_fract_y
_atom_site_fract_z
O1 O 0.7623(2) 0.02530(11) 0.06737(6)
O2 O 0.7291(3) -0.39699(13) -0.05373(7)
N1 N 0.4871(3) -0.31164(13) 0.03821(6)
H1 H 0.3803 -0.3828 0.0434
N2 N 0.7958(3) -0.17218(13) -0.00463(7)
H2 H 0.9197 -0.1418 -0.0310
C1 C 0.1289(4) -0.20340(18) 0.24640(9)
H3 H 0.2249 -0.1280 0.2667
C2 C -0.0506(4) -0.2778(2) 0.28566(9)
H4 H -0.0714 -0.2542 0.3324
C3 C -0.1987(4) -0.38652(19) 0.25609(10)
H5 H -0.3237 -0.4349 0.2823
C4 C -0.1617(3) -0.42371(19) 0.18757(10)
H6 H -0.2610 -0.4981 0.1675
C5 C 0.0218(3) -0.35135(17) 0.14834(8)
H7 H 0.0467 -0.3784 0.1022
C6 C 0.1694(3) -0.23900(16) 0.17685(8)
C7 C 0.3615(3) -0.15593(16) 0.13767(8)
H8 H 0.4009 -0.0656 0.1561
C8 C 0.4896(3) -0.18890(15) 0.07973(8)
C9 C 0.6945(3) -0.09519(16) 0.04918(8)
C10 C 0.6748(3) -0.30505(16) -0.01158(8)
loop_
_geom_bond_atom_site_label_1
_geom_bond_atom_site_label_2
_geom_bond_site_symmetry_1
_geom_bond_site_symmetry_2
O1 C9 1_555 1_555
O2 C10 1_555 1_555
N1 H1 1_555 1_555
N2 H2 1_555 1_555
C1 H3 1_555 1_555
C2 C1 1_555 1_555
H4 C2 1_555 1_555
C3 C2 1_555 1_555
H5 C3 1_555 1_555
C4 C3 1_555 1_555
H6 C4 1_555 1_555
C5 C4 1_555 1_555
H7 C5 1_555 1_555
C6 C1 1_555 1_555
C7 C6 1_555 1_555
H8 C7 1_555 1_555
C8 N1 1_555 1_555
C9 N2 1_555 1_555
C10 N1 1_555 1_555
N2 C10 1_555 1_555
C5 C6 1_555 1_555
C7 C8 1_555 1_555
C8 C9 1_555 1_555

#END
