
#######################################################################
#
#                 Cambridge Crystallographic Data Centre
#                                CCDC 
#
#######################################################################
#
# If this CIF has been generated from an entry in the Cambridge 
# Structural Database, then it will include bibliographic, chemical, 
# crystal, experimental, refinement or atomic coordinate data resulting 
# from the CCDC's data processing and validation procedures.
#
#######################################################################

data_KERMID
_chemical_formula_moiety         'C3 H8 N1 O3 1+,C7 H7 O3 S1 1-'
_chemical_name_systematic        'L-Serine p-toluenesulfonate'
_symmetry_cell_setting           orthorhombic
_symmetry_space_group_name_H-M   'P 21 21 21'
_symmetry_Int_Tables_number      19
_space_group_name_Hall           'P 2ac 2ab'
loop_
_symmetry_equiv_pos_site_id
_symmetry_equiv_pos_as_xyz
1 x,y,z
2 1/2+x,1/2-y,-z
3 -x,1/2+y,1/2-z
4 1/2-x,-y,1/2+z
_cell_length_a                   6.853
_cell_length_b                   27.306(2)
_cell_length_c                   6.783
_cell_angle_alpha                90
_cell_angle_beta                 90
_cell_angle_gamma                90
_cell_volume                     1269.29
_exptl_crystal_colour            colorless
_cell_formula_units_Z            4
loop_
_atom_site_label
_atom_site_type_symbol
_atom_site_fract_x
_atom_site_fract_y
_atom_site_fract_z
S1 S 0.9370(2) 0.3978 0.2261(2)
O1 O 0.8554(7) 0.3961(2) 0.4241(7)
O2 O 0.9077(7) 0.4443(1) 0.1253(6)
O3 O 1.1421(6) 0.3834(2) 0.2207(7)
C1 C 0.4866(18) 0.2626(3) -0.3137(15)
C2 C 0.6271(9) 0.3378(2) 0.1393(10)
C3 C 0.8121(7) 0.3551(2) 0.0833(8)
C4 C 0.7808(11) 0.3104(2) -0.2232(10)
C5 C 0.5270(10) 0.3069(2) 0.0123(13)
C6 C 0.5992(11) 0.2941(2) -0.1696(10)
C7 C 0.8909(9) 0.3410(2) -0.0985(9)
H1 H 0.365(2) 0.252 -0.244(1)
H2 H 0.589(2) 0.237 -0.296(1)
H3 H 0.459(2) 0.267 -0.457(1)
H4 H 0.558(8) 0.354(2) 0.297(9)
H5 H 0.831(10) 0.299(2) -0.374(10)
H6 H 0.400(13) 0.298(3) 0.032(14)
H7 H 1.037(6) 0.350(3) -0.141(14)
C8 C 0.5253(8) 0.4339(2) -0.2366(8)
O4 O 0.4740(7) 0.4853(2) 0.0512(6)
N1 N 0.7147(6) 0.4600(2) -0.2595(7)
C9 C 0.4373(8) 0.4255(2) -0.4383(8)
O5 O 0.4747(7) 0.4515(2) -0.5744(6)
C10 C 0.3854(8) 0.4656(2) -0.1150(8)
O6 O 0.3171(8) 0.3888(2) -0.4386(8)
H8 H 0.559(1) 0.401 -0.183(1)
H9 H 0.792(1) 0.463 -0.136(1)
H10 H 0.671(1) 0.493 -0.305(1)
H11 H 0.797(1) 0.444 -0.364(1)
H12 H 0.294(1) 0.437 -0.103(1)
H13 H 0.310(1) 0.496 -0.147(1)
H14 H 0.481(10) 0.469(2) 0.186(10)
H15 H 0.282(8) 0.380(2) -0.530(9)
loop_
_geom_bond_atom_site_label_1
_geom_bond_atom_site_label_2
_geom_bond_site_symmetry_1
_geom_bond_site_symmetry_2
S1 O1 1_555 1_555
O2 S1 1_555 1_555
O3 S1 1_555 1_555
C1 C6 1_555 1_555
C2 C3 1_555 1_555
C3 S1 1_555 1_555
C4 C6 1_555 1_555
C5 C2 1_555 1_555
C6 C5 1_555 1_555
C7 C3 1_555 1_555
H1 C1 1_555 1_555
H2 C1 1_555 1_555
H3 C1 1_555 1_555
H4 C2 1_555 1_555
H5 C4 1_555 1_555
H6 C5 1_555 1_555
H7 C7 1_555 1_555
C8 N1 1_555 1_555
O4 C10 1_555 1_555
N1 H9 1_555 1_555
C9 C8 1_555 1_555
O5 C9 1_555 1_555
C10 C8 1_555 1_555
O6 C9 1_555 1_555
H8 C8 1_555 1_555
H10 N1 1_555 1_555
H11 N1 1_555 1_555
H12 C10 1_555 1_555
H13 C10 1_555 1_555
H14 O4 1_555 1_555
H15 O6 1_555 1_555
C4 C7 1_555 1_555

#END
