
#######################################################################
#
#                 Cambridge Crystallographic Data Centre
#                                CCDC 
#
#######################################################################
#
# If this CIF has been generated from an entry in the Cambridge 
# Structural Database, then it will include bibliographic, chemical, 
# crystal, experimental, refinement or atomic coordinate data resulting 
# from the CCDC's data processing and validation procedures.
#
#######################################################################

data_KERTAD
_chemical_formula_moiety         'C19 H16 N6 O4'
_chemical_name_systematic        
6-Isopropyl-5-(3-nitrophenoxy)-3-phenyl-3H-1,2,3-triazolo(4,5-d)pyrimidin-7(6H)-one
_symmetry_cell_setting           monoclinic
_symmetry_space_group_name_H-M   'C 2/c'
_symmetry_Int_Tables_number      15
_space_group_name_Hall           '-C 2yn'
loop_
_symmetry_equiv_pos_site_id
_symmetry_equiv_pos_as_xyz
1 x,y,z
2 1/2+x,1/2+y,z
3 -x,y,1/2-z
4 1/2-x,1/2+y,1/2-z
5 -x,-y,-z
6 1/2-x,1/2-y,-z
7 x,-y,1/2+z
8 1/2+x,1/2-y,1/2+z
_cell_length_a                   18.2261(14)
_cell_length_b                   11.6455(9)
_cell_length_c                   18.1673(14)
_cell_angle_alpha                90
_cell_angle_beta                 93.7370(10)
_cell_angle_gamma                90
_cell_volume                     3847.85
_exptl_crystal_colour            colorless
_exptl_crystal_description       block
_chemical_melting_point          '435 K'
_cell_formula_units_Z            8
_exptl_crystal_recrystallization_method hexane/dichloromethane
loop_
_atom_site_label
_atom_site_type_symbol
_atom_site_fract_x
_atom_site_fract_y
_atom_site_fract_z
C1 C -0.14844(9) 0.57996(15) 0.23941(10)
H1 H -0.1801 0.5350 0.2654
C2 C -0.14970(12) 0.69705(16) 0.24577(12)
H2 H -0.1822 0.7313 0.2765
C3 C -0.10373(11) 0.76443(16) 0.20748(12)
H3 H -0.1049 0.8439 0.2120
C4 C -0.05609(12) 0.71322(16) 0.16257(12)
H4 H -0.0247 0.7585 0.1365
C5 C -0.05378(10) 0.59527(15) 0.15526(10)
H5 H -0.0214 0.5612 0.1244
C6 C -0.09999(8) 0.52915(12) 0.19423(8)
C7 C -0.07518(7) 0.22573(12) 0.17441(7)
C8 C -0.04549(7) 0.33292(11) 0.16928(7)
C9 C -0.03457(8) 0.12651(12) 0.15592(7)
C10 C 0.05786(7) 0.26797(12) 0.12908(7)
C11 C 0.08140(9) 0.05871(14) 0.10423(9)
H6 H 0.0514 -0.0105 0.1084
C12 C 0.09446(12) 0.06951(19) 0.02322(10)
H7 H 0.0506 0.0974 -0.0030
H8 H 0.1070 -0.0043 0.0041
H9 H 0.1341 0.1223 0.0171
C13 C 0.14985(11) 0.03869(17) 0.15416(12)
H10 H 0.1834 0.1015 0.1494
H11 H 0.1729 -0.0315 0.1404
H12 H 0.1367 0.0334 0.2044
C14 C 0.15620(7) 0.38609(12) 0.09341(8)
C15 C 0.11842(8) 0.47450(13) 0.05873(8)
H13 H 0.0699 0.4658 0.0403
C16 C 0.15540(8) 0.57705(14) 0.05223(8)
C17 C 0.22798(9) 0.59109(15) 0.07633(9)
H14 H 0.2516 0.6611 0.0711
C18 C 0.26462(9) 0.49890(17) 0.10841(10)
H15 H 0.3140 0.5059 0.1241
C19 C 0.22893(8) 0.39623(15) 0.11751(9)
H16 H 0.2538 0.3343 0.1398
N1 N -0.09887(6) 0.40620(10) 0.18803(6)
N2 N -0.15978(7) 0.34354(12) 0.20429(7)
N3 N -0.14532(7) 0.23524(12) 0.19638(7)
N4 N 0.02307(6) 0.35820(10) 0.14883(6)
N5 N 0.03553(6) 0.15566(10) 0.13053(6)
N6 N 0.11402(9) 0.67514(13) 0.02015(8)
O1 O -0.05395(6) 0.02655(9) 0.15910(7)
O2 O 0.12488(5) 0.27766(8) 0.10310(6)
O3 O 0.04858(8) 0.66428(12) 0.00450(8)
O4 O 0.14652(9) 0.76402(13) 0.01074(12)
loop_
_geom_bond_atom_site_label_1
_geom_bond_atom_site_label_2
_geom_bond_site_symmetry_1
_geom_bond_site_symmetry_2
C1 H1 1_555 1_555
C2 C1 1_555 1_555
H2 C2 1_555 1_555
C3 C2 1_555 1_555
H3 C3 1_555 1_555
C4 C3 1_555 1_555
H4 C4 1_555 1_555
C5 C4 1_555 1_555
H5 C5 1_555 1_555
C6 C1 1_555 1_555
C7 C8 1_555 1_555
C8 N1 1_555 1_555
C9 C7 1_555 1_555
C10 N4 1_555 1_555
C11 H6 1_555 1_555
C12 C11 1_555 1_555
H7 C12 1_555 1_555
H8 C12 1_555 1_555
H9 C12 1_555 1_555
C13 C11 1_555 1_555
H10 C13 1_555 1_555
H11 C13 1_555 1_555
H12 C13 1_555 1_555
C14 C15 1_555 1_555
C15 H13 1_555 1_555
C16 C15 1_555 1_555
C17 C16 1_555 1_555
H14 C17 1_555 1_555
C18 C17 1_555 1_555
H15 C18 1_555 1_555
C19 C14 1_555 1_555
H16 C19 1_555 1_555
N1 C6 1_555 1_555
N2 N1 1_555 1_555
N3 C7 1_555 1_555
N4 C8 1_555 1_555
N5 C9 1_555 1_555
N6 C16 1_555 1_555
O1 C9 1_555 1_555
O2 C10 1_555 1_555
O3 N6 1_555 1_555
O4 N6 1_555 1_555
C5 C6 1_555 1_555
C10 N5 1_555 1_555
C11 N5 1_555 1_555
C14 O2 1_555 1_555
C18 C19 1_555 1_555
N2 N3 1_555 1_555

#END
