
#######################################################################
#
#                 Cambridge Crystallographic Data Centre
#                                CCDC 
#
#######################################################################
#
# If this CIF has been generated from an entry in the Cambridge 
# Structural Database, then it will include bibliographic, chemical, 
# crystal, experimental, refinement or atomic coordinate data resulting 
# from the CCDC's data processing and validation procedures.
#
#######################################################################

data_KESJAT
_chemical_formula_moiety         'C32 H66 Br10 Mg6 O10'
_chemical_name_systematic        
bis((\m~3~-Bromo)-(\m~3~-hydroxo)-tetrakis(\m~2~-bromo)-tetrakis(tetrahydrofuran)-tri-magnesium)
_symmetry_cell_setting           monoclinic
_symmetry_space_group_name_H-M   'P 21/n'
_symmetry_Int_Tables_number      14
_space_group_name_Hall           '-P 2yn'
loop_
_symmetry_equiv_pos_site_id
_symmetry_equiv_pos_as_xyz
1 x,y,z
2 1/2+x,1/2-y,1/2+z
3 -x,-y,-z
4 1/2-x,1/2+y,1/2-z
_cell_length_a                   11.824(4)
_cell_length_b                   13.830(5)
_cell_length_c                   17.006(7)
_cell_angle_alpha                90
_cell_angle_beta                 96.24(2)
_cell_angle_gamma                90
_cell_volume                     2764.45
_exptl_crystal_colour            colorless
_exptl_crystal_description       block
_cell_formula_units_Z            2
loop_
_atom_site_label
_atom_site_type_symbol
_atom_site_fract_x
_atom_site_fract_y
_atom_site_fract_z
Br1 Br 0.08292(10) -0.32246(9) 1.01474(7)
Br2 Br -0.10213(10) -0.44435(9) 0.72975(7)
Br3 Br -0.22106(10) -0.41913(10) 0.93451(8)
Br4 Br 0.30670(10) -0.56761(10) 0.84736(8)
Br5 Br 0.16970(11) -0.33508(9) 0.81243(8)
Mg1 Mg -0.0345(3) -0.3756(3) 0.8755(2)
Mg2 Mg 0.0988(3) -0.5253(2) 0.7797(2)
Mg3 Mg 0.2069(3) -0.4585(3) 0.9492(2)
O1 O 0.0451(6) -0.6680(5) 0.7727(5)
O2 O -0.0882(7) -0.2369(5) 0.8513(4)
O3 O 0.1483(6) -0.5235(6) 0.6664(4)
O4 O 0.3567(6) -0.3938(6) 0.9921(5)
C1 C 0.3839(10) -0.3627(9) 1.0726(7)
H1 H 0.4308(10) -0.4103(9) 1.1027(7)
H2 H 0.3152(10) -0.3525(9) 1.0980(7)
C2 C -0.0876(12) -0.1883(8) 0.7775(7)
H3 H -0.1512(12) -0.2099(8) 0.7409(7)
H4 H -0.0178(12) -0.2027(8) 0.7547(7)
C3 C 0.0984(11) -0.7473(8) 0.8178(9)
H5 H 0.1077(11) -0.7318(8) 0.8738(9)
H6 H 0.1726(11) -0.7609(8) 0.8011(9)
O5 O 0.0568(5) -0.4999(4) 0.8899(4)
C4 C -0.0962(13) -0.0840(9) 0.7910(9)
H7 H -0.0266(13) -0.0515(9) 0.7807(9)
H8 H -0.1592(13) -0.0566(9) 0.7570(9)
C5 C -0.1319(13) -0.1710(10) 0.9046(9)
H9 H -0.0917(13) -0.1778(10) 0.9572(9)
H10 H -0.2122(13) -0.1829(10) 0.9075(9)
C6 C 0.4479(11) -0.3634(11) 0.9495(9)
H11 H 0.4191(11) -0.3445(11) 0.8961(9)
H12 H 0.5019(11) -0.4157(11) 0.9464(9)
C7 C 0.4465(13) -0.2712(10) 1.0669(8)
H13 H 0.5023(13) -0.2626(10) 1.1125(8)
H14 H 0.3947(13) -0.2166(10) 1.0635(8)
C8 C 0.5040(13) -0.2799(11) 0.9925(9)
H15 H 0.4936(13) -0.2214(11) 0.9611(9)
H16 H 0.5848(13) -0.2916(11) 1.0050(9)
C9 C -0.1148(15) -0.0745(10) 0.8735(9)
H17 H -0.1811(15) -0.0346(10) 0.8784(9)
H18 H -0.0494(15) -0.0441(10) 0.9030(9)
C10 C -0.0626(13) -0.7002(10) 0.7376(10)
H19 H -0.0658(13) -0.6963(10) 0.6805(10)
H20 H -0.1222(13) -0.6593(10) 0.7545(10)
C11 C 0.1267(14) -0.4497(12) 0.6093(8)
H21 H 0.1517(14) -0.3878(12) 0.6317(8)
H22 H 0.0458(14) -0.4457(12) 0.5924(8)
C12 C 0.0229(16) -0.8306(10) 0.8026(11)
H23 H 0.0581(16) -0.8785(10) 0.7715(11)
H24 H 0.0079(16) -0.8601(10) 0.8522(11)
C13 C 0.1884(18) -0.4724(18) 0.5422(11)
H25 H 0.1358(18) -0.4856(18) 0.4956(11)
H26 H 0.2368(18) -0.4187(18) 0.5307(11)
C14 C 0.2268(15) -0.5880(12) 0.6388(10)
H27 H 0.1944(15) -0.6524(12) 0.6335(10)
H28 H 0.2953(15) -0.5908(12) 0.6758(10)
C15 C 0.2531(20) -0.5532(16) 0.5635(12)
H29 H 0.3333(20) -0.5370(16) 0.5664(12)
H30 H 0.2375(20) -0.6033(16) 0.5239(12)
C16 C -0.0796(15) -0.7974(12) 0.7610(12)
H31 H -0.1408(15) -0.8006(12) 0.7946(12)
H32 H -0.0999(15) -0.8375(12) 0.7148(12)
H33 H 0.0072(15) -0.5491(12) 0.9207(12)
Br3B Br 0.22106(10) -0.58087(10) 1.06549(8)
Mg1B Mg 0.0345(3) -0.6244(3) 1.1245(2)
Br1B Br -0.08292(10) -0.67754(9) 0.98526(7)
Mg3B Mg -0.2069(3) -0.5415(3) 1.0508(2)
Br4B Br -0.30670(10) -0.43239(10) 1.15264(8)
Mg2B Mg -0.0988(3) -0.4747(2) 1.2203(2)
Br2B Br 0.10213(10) -0.55565(9) 1.27025(7)
Br5B Br -0.16970(11) -0.66492(9) 1.18757(8)
O1B O -0.0451(6) -0.3320(5) 1.2273(5)
C3B C -0.0984(11) -0.2527(8) 1.1822(9)
H5B H -0.1077(11) -0.2682(8) 1.1262(9)
H6B H -0.1726(11) -0.2391(8) 1.1989(9)
C12B C -0.0229(16) -0.1694(10) 1.1974(11)
H23B H -0.0581(16) -0.1215(10) 1.2285(11)
H24B H -0.0079(16) -0.1399(10) 1.1478(11)
C16B C 0.0796(15) -0.2026(12) 1.2390(12)
C10B C 0.0626(13) -0.2998(10) 1.2624(10)
H19B H 0.0658(13) -0.3037(10) 1.3195(10)
H20B H 0.1222(13) -0.3407(10) 1.2455(10)
H31B H 0.1408(15) -0.1994(12) 1.2054(12)
H32B H 0.0999(15) -0.1625(12) 1.2852(12)
O3B O -0.1483(6) -0.4765(6) 1.3336(4)
C11B C -0.1267(14) -0.5503(12) 1.3907(8)
H21B H -0.1517(14) -0.6122(12) 1.3683(8)
H22B H -0.0458(14) -0.5543(12) 1.4076(8)
C13B C -0.1884(18) -0.5276(18) 1.4578(11)
H25B H -0.1358(18) -0.5144(18) 1.5044(11)
H26B H -0.2368(18) -0.5813(18) 1.4693(11)
C15B C -0.2531(20) -0.4468(16) 1.4365(12)
C14B C -0.2268(15) -0.4120(12) 1.3612(10)
H27B H -0.1944(15) -0.3476(12) 1.3665(10)
H28B H -0.2953(15) -0.4092(12) 1.3242(10)
H29B H -0.3333(20) -0.4630(16) 1.4336(12)
H30B H -0.2375(20) -0.3967(16) 1.4761(12)
O5B O -0.0568(5) -0.5001(4) 1.1101(4)
O2B O 0.0882(7) -0.7631(5) 1.1487(4)
C2B C 0.0876(12) -0.8117(8) 1.2225(7)
H3B H 0.1512(12) -0.7901(8) 1.2591(7)
H4B H 0.0178(12) -0.7973(8) 1.2453(7)
C4B C 0.0962(13) -0.9160(9) 1.2090(9)
H7B H 0.0266(13) -0.9485(9) 1.2193(9)
H8B H 0.1592(13) -0.9434(9) 1.2430(9)
C9B C 0.1148(15) -0.9255(10) 1.1265(9)
C5B C 0.1319(13) -0.8290(10) 1.0954(9)
H9B H 0.0917(13) -0.8222(10) 1.0428(9)
H10B H 0.2122(13) -0.8171(10) 1.0925(9)
H17B H 0.1811(15) -0.9654(10) 1.1216(9)
H18B H 0.0494(15) -0.9559(10) 1.0970(9)
O4B O -0.3567(6) -0.6062(6) 1.0079(5)
C1B C -0.3839(10) -0.6373(9) 0.9274(7)
H1B H -0.4308(10) -0.5897(9) 0.8973(7)
H2B H -0.3152(10) -0.6475(9) 0.9020(7)
C7B C -0.4465(13) -0.7288(10) 0.9331(8)
H13B H -0.5023(13) -0.7374(10) 0.8875(8)
H14B H -0.3947(13) -0.7834(10) 0.9365(8)
C8B C -0.5040(13) -0.7201(11) 1.0075(9)
C6B C -0.4479(11) -0.6366(11) 1.0505(9)
H11B H -0.4191(11) -0.6555(11) 1.1039(9)
H12B H -0.5019(11) -0.5843(11) 1.0536(9)
H15B H -0.4936(13) -0.7786(11) 1.0389(9)
H16B H -0.5848(13) -0.7084(11) 0.9950(9)
H33B H -0.0072(15) -0.4509(12) 1.0793(12)
loop_
_geom_bond_atom_site_label_1
_geom_bond_atom_site_label_2
_geom_bond_site_symmetry_1
_geom_bond_site_symmetry_2
Br1 Mg1 1_555 1_555
Br2 Mg1 1_555 1_555
Br3 Mg1 1_555 1_555
Br4 Mg2 1_555 1_555
Br5 Mg1 1_555 1_555
Mg1 O2 1_555 1_555
Mg2 Br2 1_555 1_555
Mg3 Br1 1_555 1_555
O1 Mg2 1_555 1_555
O2 C2 1_555 1_555
O3 Mg2 1_555 1_555
O4 Mg3 1_555 1_555
C1 O4 1_555 1_555
H1 C1 1_555 1_555
H2 C1 1_555 1_555
C2 H3 1_555 1_555
H4 C2 1_555 1_555
C3 O1 1_555 1_555
H5 C3 1_555 1_555
H6 C3 1_555 1_555
O5 Mg1 1_555 1_555
C4 C2 1_555 1_555
H7 C4 1_555 1_555
H8 C4 1_555 1_555
C5 O2 1_555 1_555
H9 C5 1_555 1_555
H10 C5 1_555 1_555
C6 O4 1_555 1_555
H11 C6 1_555 1_555
H12 C6 1_555 1_555
C7 C1 1_555 1_555
H13 C7 1_555 1_555
H14 C7 1_555 1_555
C8 C6 1_555 1_555
H15 C8 1_555 1_555
H16 C8 1_555 1_555
C9 C4 1_555 1_555
H17 C9 1_555 1_555
H18 C9 1_555 1_555
C10 O1 1_555 1_555
H19 C10 1_555 1_555
H20 C10 1_555 1_555
C11 O3 1_555 1_555
H21 C11 1_555 1_555
H22 C11 1_555 1_555
C12 C3 1_555 1_555
H23 C12 1_555 1_555
H24 C12 1_555 1_555
C13 C11 1_555 1_555
H25 C13 1_555 1_555
H26 C13 1_555 1_555
C14 O3 1_555 1_555
H27 C14 1_555 1_555
H28 C14 1_555 1_555
C15 C13 1_555 1_555
H29 C15 1_555 1_555
H30 C15 1_555 1_555
C16 C10 1_555 1_555
H31 C16 1_555 1_555
H32 C16 1_555 1_555
H33 O5 1_555 1_555
Br3B Mg3 1_555 1_555
Mg1B Br3B 1_555 1_555
Br1B Mg1B 1_555 1_555
Mg3B Br3 1_555 1_555
Br4B Mg3B 1_555 1_555
Mg2B Br4B 1_555 1_555
Br2B Mg1B 1_555 1_555
Br5B Mg1B 1_555 1_555
O1B Mg2B 1_555 1_555
C3B O1B 1_555 1_555
H5B C3B 1_555 1_555
H6B C3B 1_555 1_555
C12B C3B 1_555 1_555
H23B C12B 1_555 1_555
H24B C12B 1_555 1_555
C16B C12B 1_555 1_555
C10B O1B 1_555 1_555
H19B C10B 1_555 1_555
H20B C10B 1_555 1_555
H31B C16B 1_555 1_555
H32B C16B 1_555 1_555
O3B Mg2B 1_555 1_555
C11B O3B 1_555 1_555
H21B C11B 1_555 1_555
H22B C11B 1_555 1_555
C13B C11B 1_555 1_555
H25B C13B 1_555 1_555
H26B C13B 1_555 1_555
C15B C13B 1_555 1_555
C14B O3B 1_555 1_555
H27B C14B 1_555 1_555
H28B C14B 1_555 1_555
H29B C15B 1_555 1_555
H30B C15B 1_555 1_555
O5B Mg1B 1_555 1_555
O2B Mg1B 1_555 1_555
C2B O2B 1_555 1_555
H3B C2B 1_555 1_555
H4B C2B 1_555 1_555
C4B C2B 1_555 1_555
H7B C4B 1_555 1_555
H8B C4B 1_555 1_555
C9B C4B 1_555 1_555
C5B O2B 1_555 1_555
H9B C5B 1_555 1_555
H10B C5B 1_555 1_555
H17B C9B 1_555 1_555
H18B C9B 1_555 1_555
O4B Mg3B 1_555 1_555
C1B O4B 1_555 1_555
H1B C1B 1_555 1_555
H2B C1B 1_555 1_555
C7B C1B 1_555 1_555
H13B C7B 1_555 1_555
H14B C7B 1_555 1_555
C8B C7B 1_555 1_555
C6B O4B 1_555 1_555
H11B C6B 1_555 1_555
H12B C6B 1_555 1_555
H15B C8B 1_555 1_555
H16B C8B 1_555 1_555
H33B O5B 1_555 1_555
Br4 Mg3 1_555 1_555
Br5 Mg2 1_555 1_555
Br5 Mg3 1_555 1_555
Mg2 O5 1_555 1_555
Mg3 O5 1_555 1_555
C5 C9 1_555 1_555
C7 C8 1_555 1_555
C12 C16 1_555 1_555
C14 C15 1_555 1_555
Br1B Mg3B 1_555 1_555
Mg3B O5B 1_555 1_555
Mg3B Br5B 1_555 1_555
Mg2B Br2B 1_555 1_555
Mg2B O5B 1_555 1_555
Mg2B Br5B 1_555 1_555
C16B C10B 1_555 1_555
C15B C14B 1_555 1_555
C9B C5B 1_555 1_555
C8B C6B 1_555 1_555

#END
