
#######################################################################
#
#                 Cambridge Crystallographic Data Centre
#                                CCDC 
#
#######################################################################
#
# If this CIF has been generated from an entry in the Cambridge 
# Structural Database, then it will include bibliographic, chemical, 
# crystal, experimental, refinement or atomic coordinate data resulting 
# from the CCDC's data processing and validation procedures.
#
#######################################################################

data_KETBAP
_chemical_formula_moiety         'C33 H24 O1 Si1'
_chemical_name_systematic        2-phenyl-3-(triphenylsilyl)-1H-inden-1-one
_symmetry_cell_setting           triclinic
_symmetry_space_group_name_H-M   'P -1'
_symmetry_Int_Tables_number      2
_space_group_name_Hall           '-P 1'
loop_
_symmetry_equiv_pos_site_id
_symmetry_equiv_pos_as_xyz
1 x,y,z
2 -x,-y,-z
_cell_length_a                   7.8675(3)
_cell_length_b                   10.1106(4)
_cell_length_c                   15.6264(6)
_cell_angle_alpha                86.5614(6)
_cell_angle_beta                 85.1575(6)
_cell_angle_gamma                79.7560(6)
_cell_volume                     1217.54
_exptl_crystal_colour            yellow
_exptl_crystal_description       prism
_cell_formula_units_Z            2
loop_
_atom_site_label
_atom_site_type_symbol
_atom_site_fract_x
_atom_site_fract_y
_atom_site_fract_z
C1 C 0.77285(15) 0.56203(13) 0.08837(7)
C2 C 0.85751(14) 0.53036(11) 0.17271(7)
C3 C 0.91340(14) 0.39514(11) 0.18184(7)
C4 C 0.86209(14) 0.33046(12) 0.10580(7)
C5 C 0.77978(15) 0.43016(13) 0.05001(7)
C6 C 0.71477(18) 0.40032(16) -0.02440(8)
H1 H 0.6583 0.4697 -0.0612
C7 C 0.73413(18) 0.26576(17) -0.04419(8)
H2 H 0.6919 0.2425 -0.0954
C8 C 0.81452(17) 0.16615(15) 0.01040(9)
H3 H 0.8261 0.0747 -0.0038
C9 C 0.87964(16) 0.19677(13) 0.08651(8)
H4 H 0.9343 0.1274 0.1238
C10 C 0.85870(14) 0.63808(11) 0.23161(7)
C11 C 0.90356(17) 0.76110(13) 0.20074(9)
H5 H 0.9375 0.7743 0.1415
C12 C 0.8986(2) 0.86377(13) 0.25650(11)
H6 H 0.9319 0.9462 0.2353
C13 C 0.84585(19) 0.84749(13) 0.34243(10)
H7 H 0.8414 0.9187 0.3800
C14 C 0.79957(17) 0.72715(13) 0.37351(8)
H8 H 0.7631 0.7155 0.4326
C15 C 0.80630(14) 0.62304(11) 0.31855(7)
H9 H 0.7747 0.5404 0.3405
C16 C 1.16946(14) 0.41302(11) 0.31762(7)
C17 C 1.29286(16) 0.46613(13) 0.26269(8)
H10 H 1.3068 0.4444 0.2039
C18 C 1.39539(17) 0.54981(14) 0.29197(9)
H11 H 1.4764 0.5864 0.2532
C19 C 1.37932(16) 0.57981(13) 0.37784(9)
H12 H 1.4499 0.6364 0.3983
C20 C 1.26016(16) 0.52716(13) 0.43377(8)
H13 H 1.2500 0.5468 0.4929
C21 C 1.15502(15) 0.44553(11) 0.40394(7)
H14 H 1.0721 0.4114 0.4429
C22 C 0.88429(14) 0.23478(10) 0.35264(7)
C23 C 0.93384(15) 0.18245(11) 0.43392(7)
H15 H 1.0508 0.1765 0.4470
C24 C 0.81510(17) 0.13912(12) 0.49557(8)
H16 H 0.8509 0.1053 0.5504
C25 C 0.64463(17) 0.14517(12) 0.47707(9)
H17 H 0.5635 0.1157 0.5192
C26 C 0.59292(16) 0.19429(13) 0.39697(9)
H18 H 0.4764 0.1976 0.3839
C27 C 0.71129(15) 0.23875(12) 0.33559(8)
H19 H 0.6741 0.2725 0.2810
C28 C 1.20413(14) 0.16278(11) 0.22165(7)
C29 C 1.26581(17) 0.04494(12) 0.26865(8)
H20 H 1.2144 0.0291 0.3247
C30 C 1.4014(2) -0.04986(14) 0.23484(10)
H21 H 1.4423 -0.1291 0.2681
C31 C 1.47678(18) -0.02924(15) 0.15332(10)
H22 H 1.5694 -0.0941 0.1304
C32 C 1.41686(17) 0.08628(14) 0.10511(9)
H23 H 1.4675 0.1005 0.0487
C33 C 1.28264(16) 0.18149(12) 0.13914(8)
H24 H 1.2433 0.2609 0.1057
O1 O 0.70934(14) 0.67230(10) 0.05981(6)
Si1 Si 1.03997(4) 0.30054(3) 0.27045(2)
loop_
_geom_bond_atom_site_label_1
_geom_bond_atom_site_label_2
_geom_bond_site_symmetry_1
_geom_bond_site_symmetry_2
C1 C2 1_555 1_555
C2 C3 1_555 1_555
C3 C4 1_555 1_555
C4 C5 1_555 1_555
C5 C1 1_555 1_555
C6 C5 1_555 1_555
H1 C6 1_555 1_555
C7 C6 1_555 1_555
H2 C7 1_555 1_555
C8 C7 1_555 1_555
H3 C8 1_555 1_555
C9 C4 1_555 1_555
H4 C9 1_555 1_555
C10 C2 1_555 1_555
C11 C10 1_555 1_555
H5 C11 1_555 1_555
C12 C11 1_555 1_555
H6 C12 1_555 1_555
C13 C12 1_555 1_555
H7 C13 1_555 1_555
C14 C13 1_555 1_555
H8 C14 1_555 1_555
C15 C10 1_555 1_555
H9 C15 1_555 1_555
C16 C17 1_555 1_555
C17 H10 1_555 1_555
C18 C17 1_555 1_555
H11 C18 1_555 1_555
C19 C18 1_555 1_555
H12 C19 1_555 1_555
C20 C19 1_555 1_555
H13 C20 1_555 1_555
C21 C16 1_555 1_555
H14 C21 1_555 1_555
C22 C23 1_555 1_555
C23 H15 1_555 1_555
C24 C23 1_555 1_555
H16 C24 1_555 1_555
C25 C24 1_555 1_555
H17 C25 1_555 1_555
C26 C25 1_555 1_555
H18 C26 1_555 1_555
C27 C22 1_555 1_555
H19 C27 1_555 1_555
C28 C29 1_555 1_555
C29 H20 1_555 1_555
C30 C29 1_555 1_555
H21 C30 1_555 1_555
C31 C30 1_555 1_555
H22 C31 1_555 1_555
C32 C31 1_555 1_555
H23 C32 1_555 1_555
C33 C28 1_555 1_555
H24 C33 1_555 1_555
O1 C1 1_555 1_555
Si1 C3 1_555 1_555
C8 C9 1_555 1_555
C14 C15 1_555 1_555
C16 Si1 1_555 1_555
C20 C21 1_555 1_555
C22 Si1 1_555 1_555
C26 C27 1_555 1_555
C28 Si1 1_555 1_555
C32 C33 1_555 1_555

#END
