
#######################################################################
#
#                 Cambridge Crystallographic Data Centre
#                                CCDC 
#
#######################################################################
#
# If this CIF has been generated from an entry in the Cambridge 
# Structural Database, then it will include bibliographic, chemical, 
# crystal, experimental, refinement or atomic coordinate data resulting 
# from the CCDC's data processing and validation procedures.
#
#######################################################################

data_KETCIY
_chemical_formula_moiety         'C18 H16 B1 F2 N1 O2'
_chemical_name_systematic        
'[1-(9-ethyl-9H-carbazol-3-yl)-3-(oxy)but-2-en-1-onato](difluoro)boron'
_symmetry_cell_setting           monoclinic
_symmetry_space_group_name_H-M   'C 2/c'
_symmetry_Int_Tables_number      15
_space_group_name_Hall           '-C 2yn'
loop_
_symmetry_equiv_pos_site_id
_symmetry_equiv_pos_as_xyz
1 x,y,z
2 -x,y,1/2-z
3 1/2+x,1/2+y,z
4 1/2-x,1/2+y,1/2-z
5 -x,-y,-z
6 x,-y,1/2+z
7 1/2-x,1/2-y,-z
8 1/2+x,1/2-y,1/2+z
_cell_length_a                   21.231(4)
_cell_length_b                   9.2009(18)
_cell_length_c                   16.416(3)
_cell_angle_alpha                90
_cell_angle_beta                 105.76(3)
_cell_angle_gamma                90
_cell_volume                     3086.22
_exptl_crystal_colour            yellow
_exptl_crystal_description       rod
_cell_formula_units_Z            8
loop_
_atom_site_label
_atom_site_type_symbol
_atom_site_fract_x
_atom_site_fract_y
_atom_site_fract_z
F1 F 0.10267(10) 0.3928(2) 0.21405(13)
F2 F 0.17665(9) 0.2112(2) 0.23136(11)
O1 O 0.17959(11) 0.3658(3) 0.34386(13)
O2 O 0.09161(12) 0.1901(3) 0.29196(15)
N1 N 0.33411(11) 0.7097(3) 0.66351(14)
C1 C 0.43151(14) 0.8514(3) 0.64812(19)
H1 H 0.4427 0.8913 0.7036
C2 C 0.46765(15) 0.8814(4) 0.5923(2)
H2 H 0.5048 0.9429 0.6100
C3 C 0.45159(16) 0.8245(4) 0.5103(2)
H3 H 0.4778 0.8476 0.4735
C4 C 0.39767(15) 0.7343(3) 0.48250(19)
H4 H 0.3864 0.6966 0.4265
C5 C 0.36055(13) 0.7000(3) 0.53731(17)
C6 C 0.37788(13) 0.7600(3) 0.61971(17)
C7 C 0.30415(14) 0.6087(3) 0.53188(17)
C8 C 0.29036(13) 0.6162(3) 0.61200(17)
C9 C 0.23967(15) 0.5389(3) 0.62976(18)
H5 H 0.2314 0.5441 0.6837
C10 C 0.20185(15) 0.4542(3) 0.56596(18)
H6 H 0.1669 0.3999 0.5768
C11 C 0.21285(13) 0.4447(3) 0.48495(17)
C12 C 0.26440(13) 0.5239(3) 0.46828(17)
H7 H 0.2721 0.5196 0.4140
C13 C 0.17040(14) 0.3579(3) 0.41870(17)
C14 C 0.12174(15) 0.2674(3) 0.43159(19)
H8 H 0.1144 0.2635 0.4861
C15 C 0.08399(14) 0.1834(3) 0.36779(19)
C16 C 0.03191(15) 0.0826(4) 0.3783(2)
H9 H -0.0110 0.1192 0.3461
H10 H 0.0333 0.0763 0.4383
H11 H 0.0391 -0.0140 0.3574
C17 C 0.33708(15) 0.7454(3) 0.75141(18)
H12 H 0.2926 0.7385 0.7595
H13 H 0.3525 0.8467 0.7634
C18 C 0.38265(18) 0.6441(4) 0.8129(2)
H14 H 0.3665 0.5441 0.8028
H15 H 0.3843 0.6723 0.8710
H16 H 0.4266 0.6503 0.8048
B1 B 0.13747(18) 0.2901(4) 0.2688(2)
loop_
_geom_bond_atom_site_label_1
_geom_bond_atom_site_label_2
_geom_bond_site_symmetry_1
_geom_bond_site_symmetry_2
F1 B1 1_555 1_555
F2 B1 1_555 1_555
O1 C13 1_555 1_555
O2 C15 1_555 1_555
N1 C6 1_555 1_555
C1 H1 1_555 1_555
C2 C1 1_555 1_555
H2 C2 1_555 1_555
C3 C2 1_555 1_555
H3 C3 1_555 1_555
C4 C3 1_555 1_555
H4 C4 1_555 1_555
C5 C4 1_555 1_555
C6 C1 1_555 1_555
C7 C5 1_555 1_555
C8 N1 1_555 1_555
C9 C8 1_555 1_555
H5 C9 1_555 1_555
C10 C9 1_555 1_555
H6 C10 1_555 1_555
C11 C10 1_555 1_555
C12 C7 1_555 1_555
H7 C12 1_555 1_555
C13 C11 1_555 1_555
C14 C13 1_555 1_555
H8 C14 1_555 1_555
C15 C14 1_555 1_555
C16 C15 1_555 1_555
H9 C16 1_555 1_555
H10 C16 1_555 1_555
H11 C16 1_555 1_555
C17 N1 1_555 1_555
H12 C17 1_555 1_555
H13 C17 1_555 1_555
C18 C17 1_555 1_555
H14 C18 1_555 1_555
H15 C18 1_555 1_555
H16 C18 1_555 1_555
B1 O1 1_555 1_555
O2 B1 1_555 1_555
C5 C6 1_555 1_555
C7 C8 1_555 1_555
C11 C12 1_555 1_555

#END
