
#######################################################################
#
#                 Cambridge Crystallographic Data Centre
#                                CCDC 
#
#######################################################################
#
# If this CIF has been generated from an entry in the Cambridge 
# Structural Database, then it will include bibliographic, chemical, 
# crystal, experimental, refinement or atomic coordinate data resulting 
# from the CCDC's data processing and validation procedures.
#
#######################################################################

data_KETMUS
_chemical_formula_moiety         'C25 H25 N1 O4 S1'
_chemical_name_systematic        
4-(Benzyloxymethyl)-3-(4-methylphenylsulfonyl)-1-phenyl-6-oxa-3-azabicyclo(3.1.0)hexane
_symmetry_cell_setting           orthorhombic
_symmetry_space_group_name_H-M   'P 21 21 21'
_symmetry_Int_Tables_number      19
_space_group_name_Hall           'P 2ac 2ab'
loop_
_symmetry_equiv_pos_site_id
_symmetry_equiv_pos_as_xyz
1 x,y,z
2 1/2-x,-y,1/2+z
3 -x,1/2+y,1/2-z
4 1/2+x,1/2-y,-z
_cell_length_a                   7.7777(16)
_cell_length_b                   16.074(3)
_cell_length_c                   18.523(4)
_cell_angle_alpha                90
_cell_angle_beta                 90
_cell_angle_gamma                90
_cell_volume                     2315.72
_exptl_crystal_colour            colorless
_exptl_crystal_description       prism
_chemical_melting_point          '115-116 deg.C'
_cell_formula_units_Z            4
_exptl_crystal_recrystallization_method 'ethyl acetate/dichloromethane'
loop_
_atom_site_label
_atom_site_type_symbol
_atom_site_fract_x
_atom_site_fract_y
_atom_site_fract_z
C1 C -0.6170(11) 0.5111(6) 0.6036(4)
H1 H -0.7104 0.5236 0.5742
C2 C -0.3999(9) 0.6746(4) 0.9218(4)
H2 H -0.3211 0.6929 0.9592
H3 H -0.5135 0.6959 0.9330
C3 C -0.4437(10) 0.5505(4) 0.9844(4)
H4 H -0.5554 0.5703 1.0001
H5 H -0.3595 0.5676 1.0201
C4 C -0.4468(8) 0.4578(4) 0.9803(4)
C5 C -0.5074(9) 0.4178(5) 0.9201(4)
H6 H -0.5412 0.4489 0.8802
C6 C -0.5192(11) 0.3321(6) 0.9176(5)
H7 H -0.5639 0.3058 0.8770
C7 C -0.4638(14) 0.2857(5) 0.9761(6)
H8 H -0.4692 0.2280 0.9751
C8 C -0.4023(13) 0.3255(6) 1.0342(6)
H9 H -0.3642 0.2945 1.0735
C9 C -0.3941(10) 0.4112(6) 1.0373(4)
H10 H -0.3522 0.4371 1.0786
O1 O 0.1460(6) 0.6879(3) 0.8309(3)
O2 O -0.3828(6) 0.7036(2) 0.7196(2)
O3 O -0.4035(6) 0.5864(3) 0.9186(2)
C10 C -0.0081(10) 0.8098(4) 0.7675(3)
C11 C 0.0846(10) 0.7929(5) 0.7050(4)
H11 H 0.1532 0.7457 0.7013
C12 C 0.0710(10) 0.8496(6) 0.6479(4)
H12 H 0.1328 0.8389 0.6059
C13 C -0.0282(11) 0.9196(6) 0.6506(4)
C14 C -0.1163(9) 0.9340(4) 0.7136(4)
H13 H -0.1845 0.9813 0.7176
C15 C -0.1059(9) 0.8796(5) 0.7714(4)
H14 H -0.1667 0.8910 0.8135
C16 C -0.0401(10) 0.9794(5) 0.5880(4)
H15 H 0.0316 0.9601 0.5492
H16 H -0.0023 1.0335 0.6031
H17 H -0.1571 0.9827 0.5717
C17 C -0.3425(8) 0.7062(4) 0.8500(3)
H18 H -0.3442 0.7671 0.8504
C18 C -0.4473(8) 0.6756(4) 0.7883(4)
H19 H -0.5709 0.6664 0.7947
C19 C -0.3470(8) 0.6186(4) 0.7427(3)
C20 C -0.1698(8) 0.6134(4) 0.7750(4)
H20 H -0.1494 0.5586 0.7951
H21 H -0.0829 0.6247 0.7387
C21 C -0.4189(8) 0.5525(4) 0.6953(3)
C22 C -0.3481(9) 0.4739(4) 0.6933(3)
H22 H -0.2576 0.4608 0.7241
C23 C -0.4110(11) 0.4135(5) 0.6454(4)
H23 H -0.3631 0.3605 0.6444
C24 C -0.5430(11) 0.4336(6) 0.6005(4)
H24 H -0.5834 0.3947 0.5675
C25 C -0.5535(9) 0.5704(4) 0.6501(4)
H25 H -0.6024 0.6232 0.6508
N1 N -0.1659(6) 0.6770(3) 0.8319(3)
O4 O -0.0305(6) 0.7849(2) 0.9049(2)
S1 S -0.0026(3) 0.73853(11) 0.83922(11)
loop_
_geom_bond_atom_site_label_1
_geom_bond_atom_site_label_2
_geom_bond_site_symmetry_1
_geom_bond_site_symmetry_2
C1 H1 1_555 1_555
C2 H2 1_555 1_555
H3 C2 1_555 1_555
C3 H4 1_555 1_555
H5 C3 1_555 1_555
C4 C3 1_555 1_555
C5 C4 1_555 1_555
H6 C5 1_555 1_555
C6 C5 1_555 1_555
H7 C6 1_555 1_555
C7 C6 1_555 1_555
H8 C7 1_555 1_555
C8 C7 1_555 1_555
H9 C8 1_555 1_555
C9 C4 1_555 1_555
H10 C9 1_555 1_555
O1 S1 1_555 1_555
O2 C18 1_555 1_555
O3 C2 1_555 1_555
C10 C11 1_555 1_555
C11 H11 1_555 1_555
C12 C11 1_555 1_555
H12 C12 1_555 1_555
C13 C12 1_555 1_555
C14 C13 1_555 1_555
H13 C14 1_555 1_555
C15 C10 1_555 1_555
H14 C15 1_555 1_555
C16 C13 1_555 1_555
H15 C16 1_555 1_555
H16 C16 1_555 1_555
H17 C16 1_555 1_555
C17 C2 1_555 1_555
H18 C17 1_555 1_555
C18 C17 1_555 1_555
H19 C18 1_555 1_555
C19 O2 1_555 1_555
C20 C19 1_555 1_555
H20 C20 1_555 1_555
H21 C20 1_555 1_555
C21 C19 1_555 1_555
C22 C21 1_555 1_555
H22 C22 1_555 1_555
C23 C22 1_555 1_555
H23 C23 1_555 1_555
C24 C1 1_555 1_555
H24 C24 1_555 1_555
C25 C1 1_555 1_555
H25 C25 1_555 1_555
N1 C17 1_555 1_555
O4 S1 1_555 1_555
S1 C10 1_555 1_555
C3 O3 1_555 1_555
C8 C9 1_555 1_555
C14 C15 1_555 1_555
C18 C19 1_555 1_555
C20 N1 1_555 1_555
C21 C25 1_555 1_555
C23 C24 1_555 1_555
N1 S1 1_555 1_555

#END
