
#######################################################################
#
#                 Cambridge Crystallographic Data Centre
#                                CCDC 
#
#######################################################################
#
# If this CIF has been generated from an entry in the Cambridge 
# Structural Database, then it will include bibliographic, chemical, 
# crystal, experimental, refinement or atomic coordinate data resulting 
# from the CCDC's data processing and validation procedures.
#
#######################################################################

data_KETSUY
_chemical_formula_moiety         'C1 H7 N4 O1 1+,C7 H7 O3 S1 1-'
_chemical_name_systematic        'Carbohydrazidium p-toluenesulfonate'
_symmetry_cell_setting           orthorhombic
_symmetry_space_group_name_H-M   'P b c a'
_symmetry_Int_Tables_number      61
_space_group_name_Hall           '-P 2ac 2ab'
loop_
_symmetry_equiv_pos_site_id
_symmetry_equiv_pos_as_xyz
1 x,y,z
2 1/2-x,-y,1/2+z
3 -x,1/2+y,1/2-z
4 1/2+x,1/2-y,-z
5 -x,-y,-z
6 1/2+x,y,1/2-z
7 x,1/2-y,1/2+z
8 1/2-x,1/2+y,z
_cell_length_a                   10.646(1)
_cell_length_b                   8.185(1)
_cell_length_c                   26.402(4)
_cell_angle_alpha                90
_cell_angle_beta                 90
_cell_angle_gamma                90
_cell_volume                     2300.6
_exptl_crystal_colour            colorless
_exptl_crystal_description       flake
_cell_formula_units_Z            8
loop_
_atom_site_label
_atom_site_type_symbol
_atom_site_fract_x
_atom_site_fract_y
_atom_site_fract_z
S1 S 0.56435(6) 0.22828(7) 0.63592(2)
O1 O 0.43482(15) 0.1733(2) 0.64012(7)
O2 O 0.65117(15) 0.0931(2) 0.64663(6)
O3 O 0.5939(2) 0.3708(2) 0.66540(6)
C1 C 0.6465(3) 0.4036(4) 0.41504(9)
H1 H 0.7135 0.4818 0.4127
H2 H 0.5712 0.4500 0.4012
H3 H 0.6686 0.3072 0.3964
C2 C 0.6248(2) 0.3594(3) 0.47003(9)
C3 C 0.6954(3) 0.4315(3) 0.50794(10)
H4 H 0.7562 0.5082 0.4993
C4 C 0.6775(2) 0.3922(3) 0.55842(9)
H5 H 0.7264 0.4414 0.5833
C5 C 0.5871(2) 0.2797(3) 0.57163(8)
C6 C 0.5146(2) 0.2097(3) 0.53429(10)
H6 H 0.4523 0.1351 0.5430
C7 C 0.5339(3) 0.2495(3) 0.48409(10)
H7 H 0.4843 0.2009 0.4593
O4 O 0.08444(14) 0.14537(19) 0.73263(6)
N1 N 0.26436(19) 0.3641(3) 0.70536(8)
N2 N 0.13489(19) 0.3906(3) 0.69677(8)
N3 N -0.06391(19) 0.2890(3) 0.69016(8)
N4 N -0.15432(18) 0.1802(2) 0.71041(7)
H8 H -0.1170 0.0873 0.7193
H9 H -0.2128 0.1598 0.6872
H10 H -0.1901 0.2253 0.7375
C8 C 0.0560(2) 0.2682(3) 0.70899(8)
H11 H -0.092(2) 0.3817(18) 0.6797(9)
H12 H 0.298(2) 0.4547(19) 0.7142(9)
H13 H 0.111(2) 0.464(2) 0.6752(7)
H14 H 0.295(3) 0.325(3) 0.6771(7)
H15? H 0.5887 0.3442 0.3941
H16? H 0.7310 0.3760 0.4057
H17? H 0.6336 0.5188 0.4105
loop_
_geom_bond_atom_site_label_1
_geom_bond_atom_site_label_2
_geom_bond_site_symmetry_1
_geom_bond_site_symmetry_2
S1 O1 1_555 1_555
O2 S1 1_555 1_555
O3 S1 1_555 1_555
C1 H1 1_555 1_555
H2 C1 1_555 1_555
H3 C1 1_555 1_555
C2 C1 1_555 1_555
C3 C2 1_555 1_555
H4 C3 1_555 1_555
C4 C3 1_555 1_555
H5 C4 1_555 1_555
C5 S1 1_555 1_555
C6 C5 1_555 1_555
H6 C6 1_555 1_555
C7 C2 1_555 1_555
H7 C7 1_555 1_555
O4 C8 1_555 1_555
N1 N2 1_555 1_555
N2 C8 1_555 1_555
N3 N4 1_555 1_555
N4 H8 1_555 1_555
H9 N4 1_555 1_555
H10 N4 1_555 1_555
C8 N3 1_555 1_555
H11 N3 1_555 1_555
H12 N1 1_555 1_555
H13 N2 1_555 1_555
H14 N1 1_555 1_555
C4 C5 1_555 1_555
C6 C7 1_555 1_555

#END
