
#######################################################################
#
#                 Cambridge Crystallographic Data Centre
#                                CCDC 
#
#######################################################################
#
# If this CIF has been generated from an entry in the Cambridge 
# Structural Database, then it will include bibliographic, chemical, 
# crystal, experimental, refinement or atomic coordinate data resulting 
# from the CCDC's data processing and validation procedures.
#
#######################################################################

data_KETWOX01
_chemical_formula_moiety         'C25 H16 O1'
_chemical_name_systematic        2,7-diphenyl-9H-fluoren-9-one
_symmetry_cell_setting           orthorhombic
_symmetry_space_group_name_H-M   'C m c 21'
_symmetry_Int_Tables_number      36
_space_group_name_Hall           'C 2n -2'
loop_
_symmetry_equiv_pos_site_id
_symmetry_equiv_pos_as_xyz
1 x,y,z
2 -x,-y,1/2+z
3 -x,y,z
4 x,-y,1/2+z
5 1/2+x,1/2+y,z
6 1/2-x,1/2-y,1/2+z
7 1/2-x,1/2+y,z
8 1/2+x,1/2-y,1/2+z
_cell_length_a                   34.844(3)
_cell_length_b                   6.8460(5)
_cell_length_c                   7.2121(6)
_cell_angle_alpha                90
_cell_angle_beta                 90
_cell_angle_gamma                90
_cell_volume                     1720.39
_exptl_crystal_colour            yellow
_exptl_crystal_description       block
_cell_formula_units_Z            4
loop_
_atom_site_label
_atom_site_type_symbol
_atom_site_fract_x
_atom_site_fract_y
_atom_site_fract_z
O1 O 0.5000 0.1940(4) 0.9491(3)
C1 C 0.5000 0.2147(4) 0.7826(4)
C2 C 0.53403(6) 0.2328(3) 0.6590(3)
C3 C 0.57233(6) 0.2275(3) 0.7036(3)
H1 H 0.5800 0.2043 0.8251
C4 C 0.59972(6) 0.2574(3) 0.5637(3)
C5 C 0.58656(6) 0.2890(3) 0.3844(3)
H2 H 0.6045 0.3092 0.2908
C6 C 0.54781(6) 0.2919(3) 0.3386(3)
H3 H 0.5400 0.3115 0.2167
C7 C 0.52126(5) 0.2650(3) 0.4778(3)
C8 C 0.64127(6) 0.2549(3) 0.6087(3)
C9 C 0.66672(6) 0.3797(3) 0.5193(3)
H4 H 0.6577 0.4650 0.4288
C10 C 0.70527(6) 0.3779(3) 0.5639(3)
H5 H 0.7220 0.4627 0.5036
C11 C 0.71920(7) 0.2525(3) 0.6959(4)
H6 H 0.7452 0.2510 0.7242
C12 C 0.69434(6) 0.1289(3) 0.7861(4)
H7 H 0.7035 0.0442 0.8767
C13 C 0.65576(6) 0.1300(3) 0.7427(3)
H8 H 0.6392 0.0455 0.8044
C2B C 0.46597(6) 0.2328(3) 0.6590(3)
C3B C 0.42767(6) 0.2275(3) 0.7036(3)
H1B H 0.4200 0.2043 0.8251
C4B C 0.40028(6) 0.2574(3) 0.5637(3)
C5B C 0.41344(6) 0.2890(3) 0.3844(3)
H2B H 0.3955 0.3092 0.2908
C6B C 0.45219(6) 0.2919(3) 0.3386(3)
H3B H 0.4600 0.3115 0.2167
C7B C 0.47874(5) 0.2650(3) 0.4778(3)
C8B C 0.35873(6) 0.2549(3) 0.6087(3)
C9B C 0.33328(6) 0.3797(3) 0.5193(3)
H4B H 0.3423 0.4650 0.4288
C10B C 0.29473(6) 0.3779(3) 0.5639(3)
H5B H 0.2780 0.4627 0.5036
C11B C 0.28080(7) 0.2525(3) 0.6959(4)
H6B H 0.2548 0.2510 0.7242
C12B C 0.30566(6) 0.1289(3) 0.7861(4)
H7B H 0.2965 0.0442 0.8767
C13B C 0.34424(6) 0.1300(3) 0.7427(3)
H8B H 0.3608 0.0455 0.8044
loop_
_geom_bond_atom_site_label_1
_geom_bond_atom_site_label_2
_geom_bond_site_symmetry_1
_geom_bond_site_symmetry_2
O1 C1 1_555 1_555
C1 C2 1_555 1_555
C2 C3 1_555 1_555
C3 H1 1_555 1_555
C4 C3 1_555 1_555
C5 C4 1_555 1_555
H2 C5 1_555 1_555
C6 C5 1_555 1_555
H3 C6 1_555 1_555
C7 C2 1_555 1_555
C8 C4 1_555 1_555
C9 C8 1_555 1_555
H4 C9 1_555 1_555
C10 C9 1_555 1_555
H5 C10 1_555 1_555
C11 C10 1_555 1_555
H6 C11 1_555 1_555
C12 C11 1_555 1_555
H7 C12 1_555 1_555
C13 C8 1_555 1_555
H8 C13 1_555 1_555
C2B C1 1_555 1_555
C3B C2B 1_555 1_555
H1B C3B 1_555 1_555
C4B C3B 1_555 1_555
C5B C4B 1_555 1_555
H2B C5B 1_555 1_555
C6B C5B 1_555 1_555
H3B C6B 1_555 1_555
C7B C7 1_555 1_555
C8B C4B 1_555 1_555
C9B C8B 1_555 1_555
H4B C9B 1_555 1_555
C10B C9B 1_555 1_555
H5B C10B 1_555 1_555
C11B C10B 1_555 1_555
H6B C11B 1_555 1_555
C12B C11B 1_555 1_555
H7B C12B 1_555 1_555
C13B C8B 1_555 1_555
H8B C13B 1_555 1_555
C6 C7 1_555 1_555
C12 C13 1_555 1_555
C2B C7B 1_555 1_555
C6B C7B 1_555 1_555
C12B C13B 1_555 1_555

#END
