
#######################################################################
#
#                 Cambridge Crystallographic Data Centre
#                                CCDC 
#
#######################################################################
#
# If this CIF has been generated from an entry in the Cambridge 
# Structural Database, then it will include bibliographic, chemical, 
# crystal, experimental, refinement or atomic coordinate data resulting 
# from the CCDC's data processing and validation procedures.
#
#######################################################################

data_KETXAJ
_chemical_formula_moiety         'C48 H50 N8 O2'
_chemical_name_systematic        
trans-1,15-bis(2,2,4-Trimethyl-3-pentoxy)phthalocyanine
_symmetry_cell_setting           monoclinic
_symmetry_space_group_name_H-M   'P 21/a'
_symmetry_Int_Tables_number      14
_space_group_name_Hall           '-P 2yab'
loop_
_symmetry_equiv_pos_site_id
_symmetry_equiv_pos_as_xyz
1 x,y,z
2 1/2-x,1/2+y,-z
3 -x,-y,-z
4 1/2+x,1/2-y,z
_cell_length_a                   15.520(5)
_cell_length_b                   19.063(4)
_cell_length_c                   29.528(8)
_cell_angle_alpha                90
_cell_angle_beta                 101.172(11)
_cell_angle_gamma                90
_cell_volume                     8570.54
_exptl_crystal_colour            green
_exptl_crystal_description       prism
_cell_formula_units_Z            8
_exptl_crystal_recrystallization_method chloroform
loop_
_atom_site_label
_atom_site_type_symbol
_atom_site_fract_x
_atom_site_fract_y
_atom_site_fract_z
N1 N 0.00562(19) 0.50832(13) 0.24262(8)
N2 N -0.03852(19) 0.50941(13) 0.31649(9)
N3 N 0.07560(19) 0.42279(13) 0.31513(8)
H2 H 0.0832 0.4267 0.2871
N4 N 0.1757(2) 0.32728(15) 0.34251(9)
N5 N 0.1811(2) 0.35131(14) 0.26259(9)
N6 N 0.2102(2) 0.34092(16) 0.18560(10)
N7 N 0.11376(19) 0.43942(13) 0.19073(8)
H4 H 0.1085 0.4370 0.2191
N8 N 0.01358(19) 0.53430(13) 0.16327(8)
O1 O -0.1867(2) 0.61136(17) 0.30621(9)
O2 O 0.3024(3) 0.20390(19) 0.18476(10)
C1 C -0.0173(2) 0.54253(16) 0.20152(10)
C2 C -0.0874(2) 0.59077(17) 0.20545(11)
C3 C -0.1339(3) 0.6369(2) 0.17341(12)
H9 H -0.1213 0.6419 0.1440
C4 C -0.1987(3) 0.6746(2) 0.18705(14)
H10 H -0.2310 0.7061 0.1665
C5 C -0.2183(3) 0.6674(2) 0.23118(14)
H11 H -0.2634 0.6941 0.2390
C6 C -0.1731(3) 0.6221(2) 0.26300(12)
C7 C -0.1056(2) 0.58280(16) 0.24985(11)
C8 C -0.0452(2) 0.53069(16) 0.27351(10)
C9 C 0.0183(2) 0.46063(16) 0.33529(10)
C10 C 0.0253(2) 0.43934(17) 0.38312(11)
C11 C -0.0182(3) 0.4599(2) 0.41755(12)
H12 H -0.0611 0.4946 0.4123
C12 C 0.0037(4) 0.4277(2) 0.45967(13)
H13 H -0.0253 0.4404 0.4832
C13 C 0.0685(4) 0.3766(2) 0.46770(12)
H14 H 0.0830 0.3564 0.4969
C14 C 0.1117(3) 0.3549(2) 0.43375(12)
H15 H 0.1544 0.3201 0.4391
C15 C 0.0886(2) 0.38767(17) 0.39106(10)
C16 C 0.1187(2) 0.37745(17) 0.34779(11)
C17 C 0.2002(3) 0.31483(18) 0.30345(12)
C18 C 0.2514(3) 0.2541(2) 0.29513(13)
C19 C 0.2834(4) 0.1988(2) 0.32418(14)
H16 H 0.2757 0.1972 0.3546
C20 C 0.3265(4) 0.1470(3) 0.30588(17)
H17 H 0.3519 0.1107 0.3249
C21 C 0.3339(4) 0.1467(3) 0.26010(18)
H18 H 0.3622 0.1092 0.2490
C22 C 0.3010(4) 0.1997(3) 0.23052(15)
C23 C 0.2599(3) 0.2563(2) 0.24909(13)
C24 C 0.2160(3) 0.31930(19) 0.22907(12)
C25 C 0.1647(2) 0.39686(18) 0.16929(11)
C26 C 0.1584(2) 0.41919(18) 0.12148(11)
C27 C 0.1975(3) 0.39604(19) 0.08561(12)
H19 H 0.2372 0.3590 0.0898
C28 C 0.1760(3) 0.4293(2) 0.04400(13)
H20 H 0.2015 0.4145 0.0196
C29 C 0.1165(3) 0.4850(2) 0.03723(11)
H21 H 0.1026 0.5065 0.0085
C30 C 0.0782(3) 0.50832(18) 0.07270(12)
H22 H 0.0383 0.5452 0.0684
C31 C 0.1011(2) 0.47529(17) 0.11482(10)
C32 C 0.0730(2) 0.48631(17) 0.15887(10)
C65 C -0.2569(4) 0.6433(4) 0.32370(17)
H37 H -0.2902 0.6710 0.2982
C66 C -0.2131(7) 0.6986(6) 0.3620(2)
C67 C -0.3167(6) 0.5885(6) 0.3336(4)
C68 C 0.3343(9) 0.1505(5) 0.1589(2)
H38 H 0.3630 0.1150 0.1807
C69 C 0.2778(13) 0.1175(6) 0.1264(4)
C70 C 0.4063(11) 0.1827(6) 0.1342(3)
C77 C -0.1599(9) 0.7569(5) 0.3387(4)
C78 C -0.1529(9) 0.6535(7) 0.4009(2)
C80 C -0.3585(8) 0.5530(7) 0.2863(4)
C81 C -0.2659(8) 0.5343(7) 0.3680(5)
C82 C -0.3872(12) 0.6354(12) 0.3579(7)
C89 C 0.3350(7) 0.0764(4) 0.0928(2)
C90 C 0.2258(13) 0.0798(13) 0.1609(5)
C91 C 0.204(2) 0.1705(11) 0.1062(11)
C92 C 0.4745(16) 0.2198(15) 0.1683(11)
C93 C 0.339(3) 0.2337(14) 0.0997(5)
N9 N 0.1685(2) 0.63864(14) 0.22228(9)
N10 N 0.1080(2) 0.66042(14) 0.29081(10)
N11 N 0.2159(2) 0.56711(15) 0.30683(9)
H6 H 0.2298 0.5624 0.2802
N12 N 0.3071(2) 0.47844(16) 0.35038(10)
N13 N 0.3308(2) 0.48321(15) 0.27233(10)
N14 N 0.3860(2) 0.45814(16) 0.20266(11)
N15 N 0.2838(2) 0.55520(14) 0.18786(9)
H8 H 0.2670 0.5581 0.2139
N16 N 0.19923(19) 0.64822(14) 0.14551(9)
O3 O 0.08970(19) 0.76525(14) 0.10158(8)
O4 O 0.4218(2) 0.35999(16) 0.39510(10)
C33 C 0.1577(2) 0.66723(17) 0.17871(11)
C34 C 0.0938(2) 0.72267(17) 0.17630(11)
C35 C 0.0591(3) 0.77013(19) 0.14128(13)
C36 C -0.0009(3) 0.8180(2) 0.15158(14)
H23 H -0.0239 0.8512 0.1294
C37 C -0.0282(4) 0.8188(2) 0.19345(17)
H24 H -0.0707 0.8509 0.1982
C38 C 0.0066(3) 0.7728(2) 0.22840(13)
H25 H -0.0103 0.7741 0.2569
C39 C 0.0672(3) 0.72501(18) 0.21904(12)
C40 C 0.1152(3) 0.67144(17) 0.24779(12)
C41 C 0.1554(3) 0.61327(18) 0.31822(12)
C42 C 0.1497(3) 0.60563(19) 0.36629(12)
C43 C 0.0999(3) 0.6391(2) 0.39384(14)
H26 H 0.0593 0.6735 0.3817
C44 C 0.1115(4) 0.6206(3) 0.43889(15)
H27 H 0.0787 0.6426 0.4580
C45 C 0.1711(4) 0.5695(3) 0.45688(14)
H28 H 0.1781 0.5579 0.4880
C46 C 0.2208(3) 0.5352(2) 0.42965(13)
H29 H 0.2610 0.5006 0.4418
C47 C 0.2088(3) 0.55412(19) 0.38371(12)
C48 C 0.2494(3) 0.53074(18) 0.34533(12)
C49 C 0.3440(3) 0.45614(19) 0.31601(13)
C50 C 0.4044(3) 0.3977(2) 0.31777(15)
C51 C 0.4425(3) 0.3508(3) 0.35300(17)
C52 C 0.4942(5) 0.2989(3) 0.3406(2)
H30 H 0.5188 0.2659 0.3625
C53 C 0.5105(6) 0.2942(4) 0.2968(3)
H31 H 0.5447 0.2571 0.2899
C54 C 0.4798(5) 0.3406(4) 0.2630(2)
H32 H 0.4952 0.3381 0.2342
C55 C 0.4241(3) 0.3921(3) 0.27356(15)
C56 C 0.3786(3) 0.4477(2) 0.24568(14)
C57 C 0.3427(3) 0.50838(19) 0.17661(12)
C58 C 0.3546(3) 0.5202(2) 0.12921(13)
C59 C 0.4062(3) 0.4870(2) 0.10246(16)
H33 H 0.4431 0.4501 0.1139
C60 C 0.4004(4) 0.5113(3) 0.05794(18)
H34 H 0.4337 0.4897 0.0389
C61 C 0.3478(4) 0.5657(3) 0.04114(15)
H35 H 0.3462 0.5812 0.0111
C62 C 0.2959(3) 0.5988(2) 0.06828(13)
H36 H 0.2589 0.6357 0.0566
C63 C 0.3009(2) 0.57565(19) 0.11281(12)
C64 C 0.2568(2) 0.59633(17) 0.15028(11)
C71 C 0.0491(3) 0.7996(2) 0.06004(13)
H39 H 0.0031 0.8305 0.0673
C72 C 0.1192(4) 0.8456(3) 0.0454(2)
C73 C 0.0041(4) 0.7424(3) 0.02683(17)
C74 C 0.4775(4) 0.3340(3) 0.43659(18)
H40 H 0.5056 0.2905 0.4293
C75 C 0.5490(8) 0.3896(7) 0.4525(3)
C76 C 0.4171(5) 0.3174(4) 0.47042(18)
C83 C 0.2063(4) 0.8076(4) 0.0441(3)
C84 C 0.1364(5) 0.9079(4) 0.0794(4)
C85 C -0.0376(10) 0.7793(7) -0.0177(3)
C86 C 0.0659(4) 0.6846(3) 0.0155(2)
C87 C -0.0633(5) 0.7061(5) 0.0513(3)
C94 C 0.6291(11) 0.3586(9) 0.4552(12)
C95 C 0.5347(10) 0.4603(6) 0.4311(4)
C96 C 0.4807(8) 0.2999(5) 0.5178(2)
C97 C 0.3632(6) 0.3829(4) 0.4802(2)
C98 C 0.3571(5) 0.2562(4) 0.4490(2)
Ni1? Ni 0.2486(5) 0.5610(3) 0.2467(2)
Ni2? Ni 0.0920(6) 0.4306(4) 0.2524(3)
H1? H 0.0462 0.4771 0.2486
H3? H 0.1509 0.3894 0.2587
H5? H 0.2038 0.6048 0.2322
H7? H 0.2969 0.5181 0.2629
C79? C -0.288(2) 0.7091(13) 0.3885(7)
C88? C 0.0806(14) 0.8686(12) -0.0019(8)
loop_
_geom_bond_atom_site_label_1
_geom_bond_atom_site_label_2
_geom_bond_site_symmetry_1
_geom_bond_site_symmetry_2
N1 C1 1_555 1_555
N2 C8 1_555 1_555
N3 H2 1_555 1_555
N4 C16 1_555 1_555
N5 C17 1_555 1_555
N6 C24 1_555 1_555
N7 H4 1_555 1_555
N8 C1 1_555 1_555
N9 C33 1_555 1_555
N10 C40 1_555 1_555
N11 H6 1_555 1_555
N12 C48 1_555 1_555
N13 C49 1_555 1_555
N14 C56 1_555 1_555
N15 H8 1_555 1_555
N16 C33 1_555 1_555
O1 C6 1_555 1_555
O2 C22 1_555 1_555
O3 C35 1_555 1_555
O4 C51 1_555 1_555
C1 C2 1_555 1_555
C2 C3 1_555 1_555
C3 H9 1_555 1_555
C4 C3 1_555 1_555
H10 C4 1_555 1_555
C5 C4 1_555 1_555
H11 C5 1_555 1_555
C6 C5 1_555 1_555
C7 C2 1_555 1_555
C8 N1 1_555 1_555
C9 N2 1_555 1_555
C10 C9 1_555 1_555
C11 C10 1_555 1_555
H12 C11 1_555 1_555
C12 C11 1_555 1_555
H13 C12 1_555 1_555
C13 C12 1_555 1_555
H14 C13 1_555 1_555
C14 C13 1_555 1_555
H15 C14 1_555 1_555
C15 C10 1_555 1_555
C16 N3 1_555 1_555
C17 N4 1_555 1_555
C18 C17 1_555 1_555
C19 C18 1_555 1_555
H16 C19 1_555 1_555
C20 C19 1_555 1_555
H17 C20 1_555 1_555
C21 C20 1_555 1_555
H18 C21 1_555 1_555
C22 C21 1_555 1_555
C23 C18 1_555 1_555
C24 N5 1_555 1_555
C25 N6 1_555 1_555
C26 C25 1_555 1_555
C27 C26 1_555 1_555
H19 C27 1_555 1_555
C28 C27 1_555 1_555
H20 C28 1_555 1_555
C29 C28 1_555 1_555
H21 C29 1_555 1_555
C30 C29 1_555 1_555
H22 C30 1_555 1_555
C31 C26 1_555 1_555
C32 N7 1_555 1_555
C33 C34 1_555 1_555
C34 C35 1_555 1_555
C35 C36 1_555 1_555
C36 H23 1_555 1_555
C37 C36 1_555 1_555
H24 C37 1_555 1_555
C38 C37 1_555 1_555
H25 C38 1_555 1_555
C39 C34 1_555 1_555
C40 N9 1_555 1_555
C41 N10 1_555 1_555
C42 C41 1_555 1_555
C43 C42 1_555 1_555
H26 C43 1_555 1_555
C44 C43 1_555 1_555
H27 C44 1_555 1_555
C45 C44 1_555 1_555
H28 C45 1_555 1_555
C46 C45 1_555 1_555
H29 C46 1_555 1_555
C47 C42 1_555 1_555
C48 N11 1_555 1_555
C49 N12 1_555 1_555
C50 C49 1_555 1_555
C51 C50 1_555 1_555
C52 C51 1_555 1_555
H30 C52 1_555 1_555
C53 C52 1_555 1_555
H31 C53 1_555 1_555
C54 C53 1_555 1_555
H32 C54 1_555 1_555
C55 C50 1_555 1_555
C56 N13 1_555 1_555
C57 N14 1_555 1_555
C58 C57 1_555 1_555
C59 C58 1_555 1_555
H33 C59 1_555 1_555
C60 C59 1_555 1_555
H34 C60 1_555 1_555
C61 C60 1_555 1_555
H35 C61 1_555 1_555
C62 C61 1_555 1_555
H36 C62 1_555 1_555
C63 C58 1_555 1_555
C64 N15 1_555 1_555
C65 O1 1_555 1_555
H37 C65 1_555 1_555
C66 C65 1_555 1_555
C67 C65 1_555 1_555
C68 O2 1_555 1_555
H38 C68 1_555 1_555
C69 C68 1_555 1_555
C70 C68 1_555 1_555
C71 O3 1_555 1_555
H39 C71 1_555 1_555
C72 C71 1_555 1_555
C73 C71 1_555 1_555
C74 O4 1_555 1_555
H40 C74 1_555 1_555
C75 C74 1_555 1_555
C76 C74 1_555 1_555
C77 C66 1_555 1_555
C78 C66 1_555 1_555
C80 C67 1_555 1_555
C81 C67 1_555 1_555
C82 C67 1_555 1_555
C83 C72 1_555 1_555
C84 C72 1_555 1_555
C85 C73 1_555 1_555
C86 C73 1_555 1_555
C87 C73 1_555 1_555
C89 C69 1_555 1_555
C90 C69 1_555 1_555
C91 C69 1_555 1_555
C92 C70 1_555 1_555
C93 C70 1_555 1_555
C94 C75 1_555 1_555
C95 C75 1_555 1_555
C96 C76 1_555 1_555
C97 C76 1_555 1_555
C98 C76 1_555 1_555
N3 C9 1_555 1_555
N7 C25 1_555 1_555
N8 C32 1_555 1_555
N11 C41 1_555 1_555
N15 C57 1_555 1_555
N16 C64 1_555 1_555
C6 C7 1_555 1_555
C7 C8 1_555 1_555
C14 C15 1_555 1_555
C15 C16 1_555 1_555
C22 C23 1_555 1_555
C23 C24 1_555 1_555
C30 C31 1_555 1_555
C31 C32 1_555 1_555
C38 C39 1_555 1_555
C39 C40 1_555 1_555
C46 C47 1_555 1_555
C47 C48 1_555 1_555
C54 C55 1_555 1_555
C55 C56 1_555 1_555
C62 C63 1_555 1_555
C63 C64 1_555 1_555

#END
