
#######################################################################
#
#                 Cambridge Crystallographic Data Centre
#                                CCDC 
#
#######################################################################
#
# If this CIF has been generated from an entry in the Cambridge 
# Structural Database, then it will include bibliographic, chemical, 
# crystal, experimental, refinement or atomic coordinate data resulting 
# from the CCDC's data processing and validation procedures.
#
#######################################################################

data_KETZIS
_chemical_formula_moiety         'C15 H22 O4 S2'
_chemical_name_systematic        
Perhydrodipyrano(3,2-b:3',2'-h)(1,7)dioxacycloundecane-6,11-dithione
_symmetry_cell_setting           monoclinic
_symmetry_space_group_name_H-M   'P 21'
_symmetry_Int_Tables_number      4
_space_group_name_Hall           'P 2yb'
loop_
_symmetry_equiv_pos_site_id
_symmetry_equiv_pos_as_xyz
1 x,y,z
2 -x,1/2+y,-z
_cell_length_a                   9.206(2)
_cell_length_b                   7.745(1)
_cell_length_c                   12.380(2)
_cell_angle_alpha                90
_cell_angle_beta                 110.77(2)
_cell_angle_gamma                90
_cell_volume                     825.334
_cell_formula_units_Z            2
loop_
_atom_site_label
_atom_site_type_symbol
_atom_site_fract_x
_atom_site_fract_y
_atom_site_fract_z
S1 S 0.0405(1) 0.647 0.78947(9)
S2 S -0.5604(1) 1.0127(2) 0.72890(9)
C1 C -0.3573(4) 0.3818(5) 0.9766(3)
C2 C -0.5239(4) 0.4353(5) 0.9128(3)
C3 C -0.5348(3) 0.5233(5) 0.7998(2)
C4 C -0.4146(3) 0.6653(4) 0.8225(2)
C5 C -0.2516(3) 0.5982(4) 0.8893(2)
C6 C -0.1282(3) 0.7405(5) 0.9243(2)
C7 C -0.0650(3) 0.7816(4) 0.8310(2)
C8 C -0.0625(3) 1.0086(4) 0.6957(2)
C9 C 0.0376(3) 1.1675(5) 0.7387(3)
C10 C 0.0587(3) 1.2580(5) 0.6363(3)
C11 C -0.0987(4) 1.2945(5) 0.5454(3)
C12 C -0.2159(3) 1.0525(4) 0.5992(2)
C13 C -0.3112(3) 0.8916(5) 0.5457(2)
C14 C -0.4775(3) 0.8977(5) 0.5481(2)
C15 C -0.4828(3) 0.8753(4) 0.6668(2)
O1 O -0.2545(2) 0.5254(4) 0.9945(2)
O2 O -0.1063(2) 0.9397(3) 0.7895(1)
O3 O -0.1857(2) 1.1401(4) 0.5086(2)
O4 O -0.4143(2) 0.7266(3) 0.7120(1)
H1 H -0.4425 0.7547 0.8657
H2 H -0.2234 0.5195 0.8409
H3 H -0.0052 0.9312 0.6666
H4 H -0.2743 1.1228 0.6334
H5 H -0.3460 0.3320 1.0495
H6 H -0.3283 0.2966 0.9314
H7 H -0.5914 0.3377 0.8987
H8 H -0.5559 0.5154 0.9604
H9 H -0.5156 0.4389 0.7503
H10 H -0.6363 0.5693 0.7632
H11 H -0.1757 0.8431 0.9407
H12 H -0.0462 0.7064 0.9918
H13 H -0.0137 1.2438 0.7751
H14 H 0.1346 1.1349 0.7936
H15 H 0.1139 1.3656 0.6620
H16 H 0.1184 1.1884 0.6049
H17 H -0.1557 1.3702 0.5781
H18 H -0.0866 1.3506 0.4813
H19 H -0.3152 0.8799 0.4683
H20 H -0.2600 0.7924 0.5888
H21 H -0.5221 1.0062 0.5166
H22 H -0.5370 0.8080 0.4979
loop_
_geom_bond_atom_site_label_1
_geom_bond_atom_site_label_2
_geom_bond_site_symmetry_1
_geom_bond_site_symmetry_2
S1 C7 1_555 1_555
S2 C15 1_555 1_555
C1 C2 1_555 1_555
C2 C3 1_555 1_555
C3 C4 1_555 1_555
C4 C5 1_555 1_555
C5 C6 1_555 1_555
C6 C7 1_555 1_555
C7 O2 1_555 1_555
C8 C9 1_555 1_555
C9 C10 1_555 1_555
C10 C11 1_555 1_555
C11 O3 1_555 1_555
C12 C8 1_555 1_555
C13 C12 1_555 1_555
C14 C13 1_555 1_555
C15 C14 1_555 1_555
O1 C1 1_555 1_555
O2 C8 1_555 1_555
O3 C12 1_555 1_555
O4 C4 1_555 1_555
H1 C4 1_555 1_555
H2 C5 1_555 1_555
H3 C8 1_555 1_555
H4 C12 1_555 1_555
H5 C1 1_555 1_555
H6 C1 1_555 1_555
H7 C2 1_555 1_555
H8 C2 1_555 1_555
H9 C3 1_555 1_555
H10 C3 1_555 1_555
H11 C6 1_555 1_555
H12 C6 1_555 1_555
H13 C9 1_555 1_555
H14 C9 1_555 1_555
H15 C10 1_555 1_555
H16 C10 1_555 1_555
H17 C11 1_555 1_555
H18 C11 1_555 1_555
H19 C13 1_555 1_555
H20 C13 1_555 1_555
H21 C14 1_555 1_555
H22 C14 1_555 1_555
C5 O1 1_555 1_555
C15 O4 1_555 1_555

#END
