
#######################################################################
#
#                 Cambridge Crystallographic Data Centre
#                                CCDC 
#
#######################################################################
#
# If this CIF has been generated from an entry in the Cambridge 
# Structural Database, then it will include bibliographic, chemical, 
# crystal, experimental, refinement or atomic coordinate data resulting 
# from the CCDC's data processing and validation procedures.
#
#######################################################################

data_KETZOY
_chemical_formula_moiety         'C16 H24 O4 S2'
_chemical_name_systematic        
Perhydrodipyrano(3,2-b:3',2'-i)(1,8)dioxacyclododecane-7,12-dithione
_symmetry_cell_setting           orthorhombic
_symmetry_space_group_name_H-M   'P 21 21 21'
_symmetry_Int_Tables_number      19
_space_group_name_Hall           'P 2ac 2ab'
loop_
_symmetry_equiv_pos_site_id
_symmetry_equiv_pos_as_xyz
1 x,y,z
2 1/2+x,1/2-y,-z
3 -x,1/2+y,1/2-z
4 1/2-x,-y,1/2+z
_cell_length_a                   9.260(1)
_cell_length_b                   15.875(2)
_cell_length_c                   12.126(3)
_cell_angle_alpha                90
_cell_angle_beta                 90
_cell_angle_gamma                90
_cell_volume                     1782.55
_cell_formula_units_Z            4
loop_
_atom_site_label
_atom_site_type_symbol
_atom_site_fract_x
_atom_site_fract_y
_atom_site_fract_z
S1 S 0.3853(3) 0.1201(1) 0.6941(2)
S2 S 0.5906(4) -0.1585(2) 0.3517(2)
C1 C 0.5245(9) 0.0633(5) 0.6656(6)
C2 C 0.6374(9) 0.0870(5) 0.5810(6)
C3 C 0.574(1) 0.1043(5) 0.4645(6)
C4 C 0.616(1) 0.1913(5) 0.3105(6)
C5 C 0.594(1) 0.1201(5) 0.2296(6)
C6 C 0.495(1) 0.0511(5) 0.2795(6)
C7 C 0.5568(9) 0.0275(5) 0.3935(6)
C8 C 0.465(1) -0.1138(5) 0.4228(6)
C9 C 0.338(1) -0.1591(5) 0.4728(7)
C10 C 0.324(1) -0.1420(5) 0.5982(6)
C11 C 0.453(1) -0.1740(5) 0.6603(6)
C12 C 0.4705(9) -0.1416(5) 0.7807(6)
C13 C 0.391(1) -0.1635(5) 0.9615(6)
C14 C 0.395(1) -0.0728(5) 0.9863(6)
C15 C 0.496(1) -0.0223(6) 0.9107(6)
C16 C 0.4589(9) -0.0497(5) 0.7922(5)
O1 O 0.4542(6) -0.0317(3) 0.4444(4)
O2 O 0.5579(7) -0.0109(3) 0.7142(4)
O3 O 0.6733(6) 0.1581(3) 0.4114(4)
O4 O 0.3611(7) -0.1787(3) 0.8465(4)
H1 H 0.4766 0.1270 0.4782
H2 H 0.6505 0.0030 0.3849
H3 H 0.5675 -0.1572 0.8013
H4 H 0.3603 -0.0322 0.7767
H5 H 0.7078 0.0420 0.5687
H6 H 0.6903 0.1359 0.6014
H7 H 0.5214 0.2190 0.3223
H8 H 0.6764 0.2336 0.2777
H9 H 0.6837 0.0934 0.2113
H10 H 0.5517 0.1384 0.1591
H11 H 0.4863 0.0043 0.2308
H12 H 0.3978 0.0755 0.2865
H13 H 0.3475 -0.2193 0.4603
H14 H 0.2489 -0.1425 0.4361
H15 H 0.2373 -0.1716 0.6302
H16 H 0.3100 -0.0843 0.6150
H17 H 0.5340 -0.1579 0.6177
H18 H 0.4476 -0.2346 0.6616
H19 H 0.3202 -0.1903 1.0092
H20 H 0.4841 -0.1848 0.9837
H21 H 0.4138 -0.0607 1.0619
H22 H 0.2932 -0.0501 0.9742
H23 H 0.5940 -0.0355 0.9269
H24 H 0.4847 0.0382 0.9184
loop_
_geom_bond_atom_site_label_1
_geom_bond_atom_site_label_2
_geom_bond_site_symmetry_1
_geom_bond_site_symmetry_2
S1 C1 1_555 1_555
S2 C8 1_555 1_555
C1 C2 1_555 1_555
C2 C3 1_555 1_555
C3 C7 1_555 1_555
C4 C5 1_555 1_555
C5 C6 1_555 1_555
C6 C7 1_555 1_555
C7 O1 1_555 1_555
C8 C9 1_555 1_555
C9 C10 1_555 1_555
C10 C11 1_555 1_555
C11 C12 1_555 1_555
C12 C16 1_555 1_555
C13 C14 1_555 1_555
C14 C15 1_555 1_555
C15 C16 1_555 1_555
C16 O2 1_555 1_555
O1 C8 1_555 1_555
O2 C1 1_555 1_555
O3 C3 1_555 1_555
O4 C12 1_555 1_555
H1 C3 1_555 1_555
H2 C7 1_555 1_555
H3 C12 1_555 1_555
H4 C16 1_555 1_555
H5 C2 1_555 1_555
H6 C2 1_555 1_555
H7 C4 1_555 1_555
H8 C4 1_555 1_555
H9 C5 1_555 1_555
H10 C5 1_555 1_555
H11 C6 1_555 1_555
H12 C6 1_555 1_555
H13 C9 1_555 1_555
H14 C9 1_555 1_555
H15 C10 1_555 1_555
H16 C10 1_555 1_555
H17 C11 1_555 1_555
H18 C11 1_555 1_555
H19 C13 1_555 1_555
H20 C13 1_555 1_555
H21 C14 1_555 1_555
H22 C14 1_555 1_555
H23 C15 1_555 1_555
H24 C15 1_555 1_555
C4 O3 1_555 1_555
C13 O4 1_555 1_555

#END
