
#######################################################################
#
#                 Cambridge Crystallographic Data Centre
#                                CCDC 
#
#######################################################################
#
# If this CIF has been generated from an entry in the Cambridge 
# Structural Database, then it will include bibliographic, chemical, 
# crystal, experimental, refinement or atomic coordinate data resulting 
# from the CCDC's data processing and validation procedures.
#
#######################################################################

data_KEVJAY
_chemical_formula_moiety         'C32 H34 N2 2+,C1 H4 O1,H2 O1,2(Cl1 1-)'
_chemical_name_systematic        
"N,N,N',N'-Tetrabenzylbut-2-yne-1,4-diaminium dichloride methanol solvate monohydrate"
_symmetry_cell_setting           monoclinic
_symmetry_space_group_name_H-M   'P 21/c'
_symmetry_Int_Tables_number      14
_space_group_name_Hall           '-P 2ybc'
loop_
_symmetry_equiv_pos_site_id
_symmetry_equiv_pos_as_xyz
1 x,y,z
2 -x,1/2+y,1/2-z
3 -x,-y,-z
4 x,1/2-y,1/2+z
_cell_length_a                   8.889(2)
_cell_length_b                   23.792(5)
_cell_length_c                   14.681(3)
_cell_angle_alpha                90
_cell_angle_beta                 90.277(4)
_cell_angle_gamma                90
_cell_volume                     3104.81
_exptl_crystal_colour            white
_exptl_crystal_description       block
_cell_formula_units_Z            4
loop_
_atom_site_label
_atom_site_type_symbol
_atom_site_fract_x
_atom_site_fract_y
_atom_site_fract_z
N1 N 0.2667(3) 0.25637(13) 0.4273(2)
H1 H 0.301(4) 0.2578(15) 0.492(3)
N2 N -0.2122(3) 0.27892(14) 0.1568(2)
H2 H -0.232(4) 0.2798(15) 0.103(3)
C1 C 0.2856(4) 0.19774(16) 0.3908(3)
H3 H 0.2421 0.1961 0.3301
H4 H 0.3923 0.1899 0.3853
C2 C 0.2156(4) 0.15271(16) 0.4476(3)
C3 C 0.0706(5) 0.13368(19) 0.4333(3)
H5 H 0.0113 0.1498 0.3879
C4 C 0.0139(7) 0.0911(2) 0.4857(5)
H6 H -0.0842 0.0788 0.4758
C5 C 0.0984(9) 0.0665(2) 0.5516(4)
H7 H 0.0592 0.0373 0.5862
C6 C 0.2416(8) 0.0850(2) 0.5668(4)
H8 H 0.2998 0.0687 0.6124
C7 C 0.2998(6) 0.12756(19) 0.5152(3)
H9 H 0.3978 0.1397 0.5259
C8 C 0.3716(4) 0.29428(17) 0.3752(2)
H10 H 0.4741 0.2847 0.3919
H11 H 0.3597 0.2864 0.3108
C9 C 0.3507(4) 0.35566(18) 0.3894(3)
C10 C 0.3790(5) 0.3814(2) 0.4725(3)
H12 H 0.4073 0.3598 0.5225
C11 C 0.3652(6) 0.4388(3) 0.4811(4)
H13 H 0.3849 0.4558 0.5370
C12 C 0.3227(8) 0.4713(2) 0.4083(6)
H14 H 0.3142 0.5101 0.4140
C13 C 0.2929(9) 0.4455(3) 0.3270(5)
H15 H 0.2627 0.4670 0.2772
C14 C 0.3069(7) 0.3887(2) 0.3178(4)
H16 H 0.2863 0.3721 0.2617
C15 C 0.1071(4) 0.27584(16) 0.4263(2)
H17 H 0.0455 0.2490 0.4590
H18 H 0.1003 0.3117 0.4574
C16 C 0.0493(4) 0.28189(15) 0.3342(2)
C17 C 0.0057(4) 0.28719(16) 0.2589(3)
C18 C -0.0478(4) 0.29192(16) 0.1644(2)
H19 H 0.0084 0.2661 0.1263
H20 H -0.0296 0.3298 0.1424
C19 C -0.2500(4) 0.21955(17) 0.1847(3)
H21 H -0.2247 0.2149 0.2486
H22 H -0.3577 0.2142 0.1784
C20 C -0.1719(4) 0.17473(17) 0.1316(3)
C21 C -0.2356(6) 0.1533(2) 0.0547(4)
H23 H -0.3244 0.1692 0.0329
C22 C -0.1749(11) 0.1101(3) 0.0090(4)
H24 H -0.2256 0.0948 -0.0407
C23 C -0.0415(10) 0.0886(3) 0.0348(6)
H25 H 0.0024 0.0599 0.0011
C24 C 0.0286(7) 0.1089(3) 0.1097(5)
H26 H 0.1205 0.0939 0.1281
C25 C -0.0371(5) 0.1525(2) 0.1595(3)
H27 H 0.0105 0.1664 0.2113
C26 C -0.3107(5) 0.31828(19) 0.2106(3)
H28 H -0.3016 0.3090 0.2748
H29 H -0.4146 0.3123 0.1928
C27 C -0.2719(7) 0.3806(3) 0.1977(6)
C28 C -0.1867(9) 0.4107(3) 0.2596(4)
H30 H -0.1420 0.3920 0.3083
C29 C -0.1666(11) 0.4675(3) 0.2507(6)
H31 H -0.1086 0.4871 0.2930
C30 C -0.2329(11) 0.4954(4) 0.1790(8)
H32 H -0.2205 0.5340 0.1727
C31 C -0.3168(12) 0.4662(5) 0.1172(7)
H33 H -0.3610 0.4850 0.0684
C32 C -0.3364(10) 0.4093(5) 0.1264(6)
H34 H -0.3941 0.3899 0.0838
Cl1 Cl 0.33613(11) 0.26033(5) 0.63141(6)
Cl2 Cl 0.71488(12) 0.28767(5) 0.95141(7)
O1 O 0.3760(10) 0.3853(3) 0.7108(6)
H40 H 0.388(9) 0.350(2) 0.691(9)
H41 H 0.461(7) 0.399(2) 0.735(5)
C39 C 0.6718(16) 0.4216(5) 0.8369(12)
H42 H 0.6663 0.4522 0.7942
H43 H 0.7698 0.4048 0.8343
H44 H 0.6540 0.4356 0.8972
O2 O 0.5892(12) 0.3911(4) 0.8201(11)
H45 H 0.621(9) 0.3578(11) 0.840(5)
C33? C -0.3106(19) 0.3773(10) 0.1906(18)
C34? C -0.292(2) 0.4110(9) 0.2658(13)
H35? H -0.2842 0.3949 0.3234
C35? C -0.286(3) 0.4684(8) 0.2565(17)
H36? H -0.2739 0.4910 0.3076
C36? C -0.298(3) 0.4923(10) 0.172(2)
H37? H -0.2945 0.5311 0.1651
C37? C -0.316(4) 0.4587(16) 0.0962(17)
H38? H -0.3243 0.4748 0.0387
C38? C -0.323(3) 0.4013(15) 0.1058(17)
H39? H -0.3351 0.3787 0.0547
loop_
_geom_bond_atom_site_label_1
_geom_bond_atom_site_label_2
_geom_bond_site_symmetry_1
_geom_bond_site_symmetry_2
N1 H1 1_555 1_555
N2 H2 1_555 1_555
C1 N1 1_555 1_555
H3 C1 1_555 1_555
H4 C1 1_555 1_555
C2 C1 1_555 1_555
C3 C2 1_555 1_555
H5 C3 1_555 1_555
C4 C3 1_555 1_555
H6 C4 1_555 1_555
C5 C4 1_555 1_555
H7 C5 1_555 1_555
C6 C5 1_555 1_555
H8 C6 1_555 1_555
C7 C2 1_555 1_555
H9 C7 1_555 1_555
C8 N1 1_555 1_555
H10 C8 1_555 1_555
H11 C8 1_555 1_555
C9 C8 1_555 1_555
C10 C9 1_555 1_555
H12 C10 1_555 1_555
C11 C10 1_555 1_555
H13 C11 1_555 1_555
C12 C11 1_555 1_555
H14 C12 1_555 1_555
C13 C12 1_555 1_555
H15 C13 1_555 1_555
C14 C9 1_555 1_555
H16 C14 1_555 1_555
C15 N1 1_555 1_555
H17 C15 1_555 1_555
H18 C15 1_555 1_555
C16 C15 1_555 1_555
C17 C16 1_555 1_555
C18 N2 1_555 1_555
H19 C18 1_555 1_555
H20 C18 1_555 1_555
C19 N2 1_555 1_555
H21 C19 1_555 1_555
H22 C19 1_555 1_555
C20 C19 1_555 1_555
C21 C20 1_555 1_555
H23 C21 1_555 1_555
C22 C21 1_555 1_555
H24 C22 1_555 1_555
C23 C22 1_555 1_555
H25 C23 1_555 1_555
C24 C23 1_555 1_555
H26 C24 1_555 1_555
C25 C20 1_555 1_555
H27 C25 1_555 1_555
C26 N2 1_555 1_555
H28 C26 1_555 1_555
H29 C26 1_555 1_555
C27 C26 1_555 1_555
C28 C27 1_555 1_555
H30 C28 1_555 1_555
C29 C28 1_555 1_555
H31 C29 1_555 1_555
C30 C29 1_555 1_555
H32 C30 1_555 1_555
C31 C30 1_555 1_555
H33 C31 1_555 1_555
C32 C27 1_555 1_555
H34 C32 1_555 1_555
O1 H40 1_555 1_555
H41 O1 1_555 1_555
C39 H42 1_555 1_555
H43 C39 1_555 1_555
H44 C39 1_555 1_555
O2 C39 1_555 1_555
H45 O2 1_555 1_555
C6 C7 1_555 1_555
C13 C14 1_555 1_555
C17 C18 1_555 1_555
C24 C25 1_555 1_555
C31 C32 1_555 1_555

#END
