
#######################################################################
#
#                 Cambridge Crystallographic Data Centre
#                                CCDC 
#
#######################################################################
#
# If this CIF has been generated from an entry in the Cambridge 
# Structural Database, then it will include bibliographic, chemical, 
# crystal, experimental, refinement or atomic coordinate data resulting 
# from the CCDC's data processing and validation procedures.
#
#######################################################################

data_KEVPAF
_chemical_formula_moiety         'C22 H28 O3'
_chemical_name_systematic        
1-(9-hydroxy-1a,4a,7-trimethyl-1,1a,2,3,4,4a,9b,9c-octahydrocyclobuta[kl]xanthen-1-yl)-3-methylbut-2-en-1-one
_symmetry_cell_setting           monoclinic
_symmetry_space_group_name_H-M   'P 21'
_symmetry_Int_Tables_number      4
_space_group_name_Hall           'P 2yb'
loop_
_symmetry_equiv_pos_site_id
_symmetry_equiv_pos_as_xyz
1 x,y,z
2 -x,1/2+y,-z
_cell_length_a                   9.3931(2)
_cell_length_b                   9.21820(10)
_cell_length_c                   11.7674(2)
_cell_angle_alpha                90
_cell_angle_beta                 111.6900(10)
_cell_angle_gamma                90
_cell_volume                     946.768
_exptl_crystal_colour            colorless
_exptl_crystal_description       plate
_cell_formula_units_Z            2
loop_
_atom_site_label
_atom_site_type_symbol
_atom_site_fract_x
_atom_site_fract_y
_atom_site_fract_z
O1 O 0.85334(15) 0.10304(18) 0.23696(12)
O2 O 0.35774(16) 0.30234(19) 0.16693(13)
H1 H 0.3512 0.2980 0.0939
O3 O 0.31342(16) 0.2322(2) -0.07956(13)
C1 C 0.9066(2) 0.2171(3) 0.17500(17)
C2 C 0.7740(2) 0.2991(2) 0.07688(17)
H2 H 0.7968 0.4051 0.0768
C3 C 0.6148(2) 0.2727(2) 0.08556(17)
H3 H 0.5508 0.3624 0.0613
C4 C 0.4885(2) 0.2331(2) 0.24045(18)
C5 C 0.4952(2) 0.1808(3) 0.3528(2)
H4 H 0.4111 0.1955 0.3779
C6 C 0.6245(2) 0.1068(3) 0.42891(18)
C7 C 0.7456(2) 0.0830(3) 0.39044(18)
H5 H 0.8332 0.0306 0.4408
C8 C 1.0067(2) 0.1352(3) 0.12050(19)
H6 H 1.0805 0.0740 0.1846
H7 H 1.0660 0.2056 0.0922
C9 C 0.9121(2) 0.0394(3) 0.01331(18)
H8 H 0.9814 -0.0205 -0.0135
H9 H 0.8471 -0.0267 0.0397
C10 C 0.8111(2) 0.1327(3) -0.09306(18)
H10 H 0.7464 0.0684 -0.1595
H11 H 0.8772 0.1899 -0.1251
C11 C 0.7077(2) 0.2361(3) -0.05709(17)
C12 C 0.5747(2) 0.1680(2) -0.02399(17)
H12 H 0.6022 0.0666 0.0062
C13 C 0.4095(2) 0.1734(2) -0.11166(18)
C14 C 0.3733(2) 0.1019(3) -0.23035(18)
H13 H 0.4490 0.0388 -0.2384
C15 C 0.2431(2) 0.1170(3) -0.32910(18)
C16 C 0.2236(3) 0.0336(3) -0.44382(19)
H14 H 0.2343 0.0997 -0.5053
H15 H 0.1217 -0.0110 -0.4755
H16 H 0.3020 -0.0423 -0.4254
C17 C 0.1132(3) 0.2145(3) -0.3354(2)
H17 H 0.0453 0.1639 -0.3023
H18 H 0.0556 0.2413 -0.4207
H19 H 0.1536 0.3023 -0.2872
C18 C 1.0012(2) 0.3235(3) 0.27353(19)
H20 H 0.9344 0.3727 0.3086
H21 H 1.0484 0.3955 0.2371
H22 H 1.0815 0.2705 0.3381
C19 C 0.6498(2) 0.3590(3) -0.15007(19)
H23 H 0.7369 0.4172 -0.1506
H24 H 0.5793 0.4205 -0.1276
H25 H 0.5962 0.3179 -0.2316
C20 C 0.6327(3) 0.0520(4) 0.5522(2)
H26 H 0.5841 -0.0436 0.5426
H27 H 0.5792 0.1198 0.5868
H28 H 0.7402 0.0442 0.6072
C21 C 0.6126(2) 0.2157(2) 0.20347(17)
C22 C 0.7380(2) 0.1363(2) 0.27782(17)
loop_
_geom_bond_atom_site_label_1
_geom_bond_atom_site_label_2
_geom_bond_site_symmetry_1
_geom_bond_site_symmetry_2
O1 C1 1_555 1_555
O2 H1 1_555 1_555
O3 C13 1_555 1_555
C1 C2 1_555 1_555
C2 H2 1_555 1_555
C3 C2 1_555 1_555
H3 C3 1_555 1_555
C4 O2 1_555 1_555
C5 C4 1_555 1_555
H4 C5 1_555 1_555
C6 C5 1_555 1_555
C7 C6 1_555 1_555
H5 C7 1_555 1_555
C8 C1 1_555 1_555
H6 C8 1_555 1_555
H7 C8 1_555 1_555
C9 C8 1_555 1_555
H8 C9 1_555 1_555
H9 C9 1_555 1_555
C10 C9 1_555 1_555
H10 C10 1_555 1_555
H11 C10 1_555 1_555
C11 C2 1_555 1_555
C12 C3 1_555 1_555
H12 C12 1_555 1_555
C13 C12 1_555 1_555
C14 C13 1_555 1_555
H13 C14 1_555 1_555
C15 C14 1_555 1_555
C16 C15 1_555 1_555
H14 C16 1_555 1_555
H15 C16 1_555 1_555
H16 C16 1_555 1_555
C17 C15 1_555 1_555
H17 C17 1_555 1_555
H18 C17 1_555 1_555
H19 C17 1_555 1_555
C18 C1 1_555 1_555
H20 C18 1_555 1_555
H21 C18 1_555 1_555
H22 C18 1_555 1_555
C19 C11 1_555 1_555
H23 C19 1_555 1_555
H24 C19 1_555 1_555
H25 C19 1_555 1_555
C20 C6 1_555 1_555
H26 C20 1_555 1_555
H27 C20 1_555 1_555
H28 C20 1_555 1_555
C21 C3 1_555 1_555
C22 O1 1_555 1_555
C4 C21 1_555 1_555
C7 C22 1_555 1_555
C10 C11 1_555 1_555
C11 C12 1_555 1_555
C21 C22 1_555 1_555

#END
