
#######################################################################
#
#                 Cambridge Crystallographic Data Centre
#                                CCDC 
#
#######################################################################
#
# If this CIF has been generated from an entry in the Cambridge 
# Structural Database, then it will include bibliographic, chemical, 
# crystal, experimental, refinement or atomic coordinate data resulting 
# from the CCDC's data processing and validation procedures.
#
#######################################################################

data_KEVQUY
_chemical_formula_moiety         'C27 H26 N4 O5'
_chemical_name_systematic        
N-(\a-(1-Phenyl-3-methyl-5-pyrazolone-4-ylidene)benzyl)-N'-3,4,5-trimethoxybenzoylhydrazine
_symmetry_cell_setting           triclinic
_symmetry_space_group_name_H-M   'P -1'
_symmetry_Int_Tables_number      2
_space_group_name_Hall           '-P 1'
loop_
_symmetry_equiv_pos_site_id
_symmetry_equiv_pos_as_xyz
1 x,y,z
2 -x,-y,-z
_cell_length_a                   9.1895(18)
_cell_length_b                   12.201(2)
_cell_length_c                   12.500(3)
_cell_angle_alpha                78.32(3)
_cell_angle_beta                 74.23(3)
_cell_angle_gamma                68.86(3)
_cell_volume                     1249.45
_exptl_crystal_colour            yellow
_exptl_crystal_description       prismatic
_cell_formula_units_Z            2
_exptl_crystal_recrystallization_method ethanol
loop_
_atom_site_label
_atom_site_type_symbol
_atom_site_fract_x
_atom_site_fract_y
_atom_site_fract_z
O1 O 0.9358(2) 0.64408(18) 0.04250(16)
O2 O 0.8275(2) 0.8197(2) 0.37901(18)
O3 O 0.2333(3) 0.8427(2) 0.4786(2)
O4 O 0.2296(2) 0.66895(19) 0.37920(17)
O5 O 0.4947(3) 0.5266(2) 0.2666(2)
N1 N 1.0684(3) 0.8309(2) -0.1857(2)
N2 N 0.9910(3) 0.7480(2) -0.13334(19)
N3 N 1.0550(3) 0.7518(2) 0.2001(2)
N4 N 0.9127(3) 0.7278(3) 0.2235(2)
C1 C 0.9976(3) 0.7177(2) -0.0225(2)
C2 C 1.0870(3) 0.7835(2) -0.0022(2)
C3 C 1.1298(3) 0.8489(3) -0.1095(3)
C4 C 1.2152(4) 0.9371(3) -0.1407(3)
H1 H 1.2239 0.9646 -0.2190
H2 H 1.3202 0.9011 -0.1253
H3 H 1.1568 1.0027 -0.0979
C5 C 1.1306(3) 0.7818(2) 0.0975(2)
C6 C 1.2712(3) 0.8143(3) 0.0980(2)
C7 C 1.4190(3) 0.7558(3) 0.0362(3)
H4 H 1.4297 0.6969 -0.0051
C8 C 1.5509(4) 0.7851(4) 0.0362(3)
H5 H 1.6512 0.7450 -0.0043
C9 C 1.5340(4) 0.8728(4) 0.0953(3)
H6 H 1.6233 0.8923 0.0945
C10 C 1.3883(4) 0.9327(3) 0.1558(3)
H7 H 1.3786 0.9931 0.1949
C11 C 1.2551(4) 0.9031(3) 0.1588(3)
H8 H 1.1559 0.9423 0.2011
C12 C 0.9094(3) 0.7136(3) -0.1957(2)
C13 C 0.8579(4) 0.7881(3) -0.2869(3)
H9 H 0.8808 0.8587 -0.3091
C14 C 0.7727(4) 0.7579(4) -0.3447(3)
H10 H 0.7387 0.8084 -0.4061
C15 C 0.7370(4) 0.6540(4) -0.3132(3)
H11 H 0.6770 0.6351 -0.3514
C16 C 0.7913(4) 0.5791(3) -0.2246(3)
H12 H 0.7690 0.5082 -0.2034
C17 C 0.8793(4) 0.6072(3) -0.1659(3)
H13 H 0.9176 0.5546 -0.1070
C18 C 0.8048(3) 0.7625(3) 0.3189(2)
C19 C 0.6583(3) 0.7286(3) 0.3411(2)
C20 C 0.5203(3) 0.7981(3) 0.4061(2)
H14 H 0.5239 0.8582 0.4396
C21 C 0.3778(3) 0.7773(3) 0.4205(3)
C22 C 0.3735(3) 0.6855(3) 0.3723(2)
C23 C 0.5129(3) 0.6139(3) 0.3099(3)
C24 C 0.6555(3) 0.6355(3) 0.2945(3)
H15 H 0.7491 0.5878 0.2531
C25 C 0.2298(5) 0.9340(4) 0.5350(4)
H16 H 0.1219 0.9720 0.5726
H17 H 0.2689 0.9911 0.4817
H18 H 0.2960 0.9007 0.5888
C26 C 0.1701(4) 0.6089(4) 0.4830(3)
H19 H 0.0708 0.6008 0.4809
H20 H 0.1531 0.6535 0.5429
H21 H 0.2463 0.5318 0.4951
C27 C 0.6357(5) 0.4483(4) 0.2050(4)
H22 H 0.6080 0.3907 0.1797
H23 H 0.7105 0.4089 0.2523
H24 H 0.6831 0.4929 0.1416
H25 H 1.103(4) 0.741(3) 0.264(3)
H26 H 0.903(3) 0.681(3) 0.169(3)
loop_
_geom_bond_atom_site_label_1
_geom_bond_atom_site_label_2
_geom_bond_site_symmetry_1
_geom_bond_site_symmetry_2
O1 C1 1_555 1_555
O2 C18 1_555 1_555
O3 C21 1_555 1_555
O4 C22 1_555 1_555
O5 C23 1_555 1_555
N1 N2 1_555 1_555
N2 C1 1_555 1_555
N3 N4 1_555 1_555
N4 C18 1_555 1_555
C1 C2 1_555 1_555
C2 C3 1_555 1_555
C3 N1 1_555 1_555
C4 C3 1_555 1_555
H1 C4 1_555 1_555
H2 C4 1_555 1_555
H3 C4 1_555 1_555
C5 N3 1_555 1_555
C6 C5 1_555 1_555
C7 C6 1_555 1_555
H4 C7 1_555 1_555
C8 C7 1_555 1_555
H5 C8 1_555 1_555
C9 C8 1_555 1_555
H6 C9 1_555 1_555
C10 C9 1_555 1_555
H7 C10 1_555 1_555
C11 C6 1_555 1_555
H8 C11 1_555 1_555
C12 N2 1_555 1_555
C13 C12 1_555 1_555
H9 C13 1_555 1_555
C14 C13 1_555 1_555
H10 C14 1_555 1_555
C15 C14 1_555 1_555
H11 C15 1_555 1_555
C16 C15 1_555 1_555
H12 C16 1_555 1_555
C17 C12 1_555 1_555
H13 C17 1_555 1_555
C18 C19 1_555 1_555
C19 C20 1_555 1_555
C20 H14 1_555 1_555
C21 C20 1_555 1_555
C22 C21 1_555 1_555
C23 C22 1_555 1_555
C24 C19 1_555 1_555
H15 C24 1_555 1_555
C25 O3 1_555 1_555
H16 C25 1_555 1_555
H17 C25 1_555 1_555
H18 C25 1_555 1_555
C26 O4 1_555 1_555
H19 C26 1_555 1_555
H20 C26 1_555 1_555
H21 C26 1_555 1_555
C27 O5 1_555 1_555
H22 C27 1_555 1_555
H23 C27 1_555 1_555
H24 C27 1_555 1_555
H25 N3 1_555 1_555
H26 N4 1_555 1_555
C2 C5 1_555 1_555
C10 C11 1_555 1_555
C16 C17 1_555 1_555
C23 C24 1_555 1_555

#END
