
#######################################################################
#
#                 Cambridge Crystallographic Data Centre
#                                CCDC 
#
#######################################################################
#
# If this CIF has been generated from an entry in the Cambridge 
# Structural Database, then it will include bibliographic, chemical, 
# crystal, experimental, refinement or atomic coordinate data resulting 
# from the CCDC's data processing and validation procedures.
#
#######################################################################

data_KEVXUG
_chemical_formula_moiety         'C13 H20 N4'
_chemical_name_systematic        
2-Ethyl-4-((2-ethyl-4-methyl-1H-imidazol-5-yl)methyl)-5-methyl-1H-imidazole
_symmetry_cell_setting           monoclinic
_symmetry_space_group_name_H-M   'C c'
_symmetry_Int_Tables_number      9
_space_group_name_Hall           'C -2yc'
loop_
_symmetry_equiv_pos_site_id
_symmetry_equiv_pos_as_xyz
1 x,y,z
2 x,-y,1/2+z
3 1/2+x,1/2+y,z
4 1/2+x,1/2-y,1/2+z
_cell_length_a                   15.1991(14)
_cell_length_b                   10.2064(11)
_cell_length_c                   8.8579(9)
_cell_angle_alpha                90
_cell_angle_beta                 96.8420(10)
_cell_angle_gamma                90
_cell_volume                     1364.32
_exptl_crystal_colour            white
_exptl_crystal_description       Prism
_cell_formula_units_Z            4
loop_
_atom_site_label
_atom_site_type_symbol
_atom_site_fract_x
_atom_site_fract_y
_atom_site_fract_z
N1 N 0.3984(3) 0.3928(6) 0.9044(5)
H1 H 0.3543 0.4034 0.9558
N2 N 0.5060(4) 0.2970(6) 0.8037(6)
N3 N 0.2758(3) 0.6121(6) 0.6307(6)
N4 N 0.1714(4) 0.6827(6) 0.7583(6)
H2 H 0.1195 0.7047 0.7787
C1 C 0.4076(4) 0.6293(7) 0.8307(8)
H3 H 0.4199 0.6628 0.9335
H4 H 0.4420 0.6804 0.7664
C2 C 0.4406(5) 0.2788(7) 0.8849(8)
C3 C 0.5046(4) 0.4294(8) 0.7663(7)
C4 C 0.4376(4) 0.4872(7) 0.8287(7)
C5 C 0.4177(6) 0.1530(9) 0.9531(9)
H5 H 0.4689 0.1211 1.0185
H6 H 0.3706 0.1679 1.0159
C6 C 0.3894(8) 0.0532(12) 0.8408(15)
H7 H 0.3337 0.0782 0.7857
H8 H 0.3827 -0.0289 0.8912
H9 H 0.4330 0.0443 0.7715
C7 C 0.5721(4) 0.4875(8) 0.6778(9)
H10 H 0.5558 0.5761 0.6507
H11 H 0.5753 0.4370 0.5872
H12 H 0.6289 0.4870 0.7385
C8 C 0.1910(5) 0.6343(8) 0.6239(8)
C9 C 0.2475(4) 0.6909(6) 0.8559(7)
C10 C 0.3111(4) 0.6484(6) 0.7775(7)
C11 C 0.1217(5) 0.6106(9) 0.4930(9)
H13 H 0.1120 0.5170 0.4816
H14 H 0.0665 0.6500 0.5149
C12 C 0.1444(8) 0.6622(11) 0.3539(12)
H15 H 0.1525 0.7553 0.3634
H16 H 0.0977 0.6439 0.2739
H17 H 0.1984 0.6224 0.3305
C13 C 0.2485(6) 0.7368(8) 1.0156(9)
H18 H 0.2070 0.6864 1.0651
H19 H 0.2322 0.8277 1.0159
H20 H 0.3068 0.7260 1.0687
loop_
_geom_bond_atom_site_label_1
_geom_bond_atom_site_label_2
_geom_bond_site_symmetry_1
_geom_bond_site_symmetry_2
N1 H1 1_555 1_555
N2 C2 1_555 1_555
N3 C8 1_555 1_555
N4 H2 1_555 1_555
C1 H3 1_555 1_555
H4 C1 1_555 1_555
C2 N1 1_555 1_555
C3 N2 1_555 1_555
C4 N1 1_555 1_555
C5 C2 1_555 1_555
H5 C5 1_555 1_555
H6 C5 1_555 1_555
C6 C5 1_555 1_555
H7 C6 1_555 1_555
H8 C6 1_555 1_555
H9 C6 1_555 1_555
C7 C3 1_555 1_555
H10 C7 1_555 1_555
H11 C7 1_555 1_555
H12 C7 1_555 1_555
C8 N4 1_555 1_555
C9 N4 1_555 1_555
C10 N3 1_555 1_555
C11 C8 1_555 1_555
H13 C11 1_555 1_555
H14 C11 1_555 1_555
C12 C11 1_555 1_555
H15 C12 1_555 1_555
H16 C12 1_555 1_555
H17 C12 1_555 1_555
C13 C9 1_555 1_555
H18 C13 1_555 1_555
H19 C13 1_555 1_555
H20 C13 1_555 1_555
C1 C4 1_555 1_555
C1 C10 1_555 1_555
C3 C4 1_555 1_555
C9 C10 1_555 1_555

#END
