
#######################################################################
#
#                 Cambridge Crystallographic Data Centre
#                                CCDC 
#
#######################################################################
#
# If this CIF has been generated from an entry in the Cambridge 
# Structural Database, then it will include bibliographic, chemical, 
# crystal, experimental, refinement or atomic coordinate data resulting 
# from the CCDC's data processing and validation procedures.
#
#######################################################################

data_KEXFIF
_chemical_formula_moiety         'C20 H16 Br1 N1 O5'
_chemical_name_systematic        
"t-butyl 5'-bromo-3,3'-dioxo-3H-spiro[2-benzofuran-1,2'-indole]-1'(3'H)-carboxylate"
_symmetry_cell_setting           monoclinic
_symmetry_space_group_name_H-M   'P 21/n'
_symmetry_Int_Tables_number      14
_space_group_name_Hall           '-P 2yn'
loop_
_symmetry_equiv_pos_site_id
_symmetry_equiv_pos_as_xyz
1 x,y,z
2 1/2-x,1/2+y,1/2-z
3 -x,-y,-z
4 1/2+x,1/2-y,1/2+z
_cell_length_a                   8.8076(18)
_cell_length_b                   15.706(3)
_cell_length_c                   13.288(3)
_cell_angle_alpha                90
_cell_angle_beta                 99.32(3)
_cell_angle_gamma                90
_cell_volume                     1813.89
_exptl_crystal_colour            colorless
_exptl_crystal_description       Block
_cell_formula_units_Z            4
loop_
_atom_site_label
_atom_site_type_symbol
_atom_site_fract_x
_atom_site_fract_y
_atom_site_fract_z
Br1 Br 0.00830(3) 0.61579(2) 0.71048(2)
C1 C 0.0776(3) 0.51708(15) 0.64960(17)
C2 C -0.0281(3) 0.45220(15) 0.61796(17)
H1 H -0.1304 0.4593 0.6255
C3 C 0.0166(3) 0.37747(15) 0.57560(16)
H2 H -0.0536 0.3341 0.5554
C4 C 0.1706(3) 0.36992(14) 0.56445(16)
C5 C 0.2748(2) 0.43578(15) 0.59383(16)
C6 C 0.2304(3) 0.51081(15) 0.63703(16)
H3 H 0.3001 0.5546 0.6565
C7 C 0.4273(3) 0.41021(15) 0.57419(16)
C8 C 0.4089(2) 0.31807(14) 0.53001(16)
C9 C 0.4765(2) 0.30471(14) 0.43394(17)
C10 C 0.4301(3) 0.33411(15) 0.33632(17)
H4 H 0.3441 0.3689 0.3204
C11 C 0.5169(3) 0.30986(16) 0.26202(18)
H5 H 0.4877 0.3282 0.1952
C12 C 0.6470(3) 0.25845(16) 0.28660(18)
H6 H 0.7036 0.2435 0.2360
C13 C 0.6932(3) 0.22936(16) 0.38534(18)
H7 H 0.7803 0.1956 0.4022
C14 C 0.6044(2) 0.25253(14) 0.45783(17)
C15 C 0.6159(3) 0.22487(15) 0.56466(18)
C16 C 0.1765(3) 0.22224(15) 0.49754(16)
C17 C 0.2343(3) 0.08446(15) 0.42633(18)
C18 C 0.0946(3) 0.08559(18) 0.34222(19)
H8 H 0.0040 0.0977 0.3712
H9 H 0.0838 0.0311 0.3092
H10 H 0.1079 0.1287 0.2932
C19 C 0.3779(3) 0.05692(17) 0.3856(2)
H11 H 0.3913 0.0921 0.3286
H12 H 0.3675 -0.0014 0.3641
H13 H 0.4658 0.0626 0.4382
C20 C 0.2107(3) 0.03169(16) 0.51845(19)
H14 H 0.2988 0.0375 0.5709
H15 H 0.1977 -0.0271 0.4990
H16 H 0.1206 0.0513 0.5436
N1 N 0.2456(2) 0.30033(12) 0.52506(14)
O1 O 0.54927(18) 0.44634(10) 0.59089(12)
O2 O 0.49846(17) 0.26383(10) 0.60547(11)
O3 O 0.70288(19) 0.17687(12) 0.61450(13)
O4 O 0.04644(18) 0.20538(11) 0.50802(13)
O5 O 0.27624(18) 0.17284(10) 0.46041(12)
loop_
_geom_bond_atom_site_label_1
_geom_bond_atom_site_label_2
_geom_bond_site_symmetry_1
_geom_bond_site_symmetry_2
Br1 C1 1_555 1_555
C1 C2 1_555 1_555
C2 H1 1_555 1_555
C3 C2 1_555 1_555
H2 C3 1_555 1_555
C4 C3 1_555 1_555
C5 C4 1_555 1_555
C6 C1 1_555 1_555
H3 C6 1_555 1_555
C7 C5 1_555 1_555
C8 C7 1_555 1_555
C9 C8 1_555 1_555
C10 C9 1_555 1_555
H4 C10 1_555 1_555
C11 C10 1_555 1_555
H5 C11 1_555 1_555
C12 C11 1_555 1_555
H6 C12 1_555 1_555
C13 C12 1_555 1_555
H7 C13 1_555 1_555
C14 C9 1_555 1_555
C15 C14 1_555 1_555
C16 N1 1_555 1_555
C17 C18 1_555 1_555
C18 H8 1_555 1_555
H9 C18 1_555 1_555
H10 C18 1_555 1_555
C19 C17 1_555 1_555
H11 C19 1_555 1_555
H12 C19 1_555 1_555
H13 C19 1_555 1_555
C20 C17 1_555 1_555
H14 C20 1_555 1_555
H15 C20 1_555 1_555
H16 C20 1_555 1_555
N1 C4 1_555 1_555
O1 C7 1_555 1_555
O2 C8 1_555 1_555
O3 C15 1_555 1_555
O4 C16 1_555 1_555
O5 C16 1_555 1_555
C5 C6 1_555 1_555
C8 N1 1_555 1_555
C13 C14 1_555 1_555
C15 O2 1_555 1_555
C17 O5 1_555 1_555

#END
