
#######################################################################
#
#                 Cambridge Crystallographic Data Centre
#                                CCDC 
#
#######################################################################
#
# If this CIF has been generated from an entry in the Cambridge 
# Structural Database, then it will include bibliographic, chemical, 
# crystal, experimental, refinement or atomic coordinate data resulting 
# from the CCDC's data processing and validation procedures.
#
#######################################################################

data_KEXYOC01
_chemical_formula_moiety         'C12 H9 Cl1 N4 O3'
_chemical_name_systematic        
1-(2-chloronicotinoyl)-2-(2-nitrophenyl)hydrazine
_symmetry_cell_setting           monoclinic
_symmetry_space_group_name_H-M   'P 21'
_symmetry_Int_Tables_number      4
_space_group_name_Hall           'P 2yb'
loop_
_symmetry_equiv_pos_site_id
_symmetry_equiv_pos_as_xyz
1 x,y,z
2 -x,1/2+y,-z
_cell_length_a                   6.1515(9)
_cell_length_b                   4.7875(5)
_cell_length_c                   20.748(3)
_cell_angle_alpha                90
_cell_angle_beta                 97.540(7)
_cell_angle_gamma                90
_cell_volume                     605.752
_exptl_crystal_colour            colorless
_exptl_crystal_description       plate
_cell_formula_units_Z            2
loop_
_atom_site_label
_atom_site_type_symbol
_atom_site_fract_x
_atom_site_fract_y
_atom_site_fract_z
N1 N 0.7971(9) 0.5085(10) 0.4416(3)
C1 C 0.6167(10) 0.4421(12) 0.4014(3)
Cl1 Cl 0.4469(3) 0.2082(3) 0.43361(7)
C2 C 0.5620(10) 0.5563(12) 0.3396(3)
C3 C 0.7040(10) 0.7599(11) 0.3206(3)
C4 C 0.8900(11) 0.8347(14) 0.3620(4)
C5 C 0.9281(10) 0.7009(18) 0.4215(3)
C6 C 0.3635(11) 0.4649(13) 0.2949(3)
O1 O 0.2910(6) 0.2292(9) 0.29115(19)
N2 N 0.2682(7) 0.6745(11) 0.2574(2)
N3 N 0.0656(8) 0.6119(9) 0.2218(3)
C7 C -0.0018(9) 0.7351(14) 0.1640(3)
C8 C -0.2067(9) 0.6761(14) 0.1277(3)
N4 N -0.3483(9) 0.4628(11) 0.1478(3)
O2 O -0.2886(7) 0.3158(8) 0.1962(2)
O3 O -0.5370(7) 0.4344(9) 0.1159(3)
C9 C -0.2830(11) 0.8197(12) 0.0705(3)
C10 C -0.1554(11) 1.0244(13) 0.0476(3)
C11 C 0.0477(10) 1.0816(13) 0.0825(3)
C12 C 0.1264(11) 0.9459(12) 0.1389(3)
H1 H 0.6727 0.8470 0.2793
H2 H 0.9880 0.9728 0.3500
H3 H 1.0565 0.7500 0.4499
H4 H 0.3055 0.8444 0.2708
H5 H 0.0101 0.4509 0.2320
H6 H -0.4228 0.7762 0.0475
H7 H -0.2053 1.1236 0.0088
H8 H 0.1363 1.2217 0.0667
H9 H 0.2666 0.9925 0.1611
loop_
_geom_bond_atom_site_label_1
_geom_bond_atom_site_label_2
_geom_bond_site_symmetry_1
_geom_bond_site_symmetry_2
N1 C1 1_555 1_555
C1 Cl1 1_555 1_555
C2 C1 1_555 1_555
C3 C2 1_555 1_555
C4 C3 1_555 1_555
C5 N1 1_555 1_555
C6 C2 1_555 1_555
O1 C6 1_555 1_555
N2 C6 1_555 1_555
N3 N2 1_555 1_555
C7 N3 1_555 1_555
C8 C7 1_555 1_555
N4 C8 1_555 1_555
O2 N4 1_555 1_555
O3 N4 1_555 1_555
C9 C8 1_555 1_555
C10 C9 1_555 1_555
C11 C10 1_555 1_555
C12 C7 1_555 1_555
H1 C3 1_555 1_555
H2 C4 1_555 1_555
H3 C5 1_555 1_555
H4 N2 1_555 1_555
H5 N3 1_555 1_555
H6 C9 1_555 1_555
H7 C10 1_555 1_555
H8 C11 1_555 1_555
H9 C12 1_555 1_555
C4 C5 1_555 1_555
C11 C12 1_555 1_555

#END
