
#######################################################################
#
#                 Cambridge Crystallographic Data Centre
#                                CCDC 
#
#######################################################################
#
# If this CIF has been generated from an entry in the Cambridge 
# Structural Database, then it will include bibliographic, chemical, 
# crystal, experimental, refinement or atomic coordinate data resulting 
# from the CCDC's data processing and validation procedures.
#
#######################################################################

data_KEXYUI
_chemical_formula_moiety         'C12 H9 Cl1 N4 O3'
_chemical_name_systematic        
1-(2-chloronicotinoyl)-2-(3-nitrophenyl)hydrazine
_symmetry_cell_setting           monoclinic
_symmetry_space_group_name_H-M   'P 21/c'
_symmetry_Int_Tables_number      14
_space_group_name_Hall           '-P 2ybc'
loop_
_symmetry_equiv_pos_site_id
_symmetry_equiv_pos_as_xyz
1 x,y,z
2 -x,1/2+y,1/2-z
3 -x,-y,-z
4 x,1/2-y,1/2+z
_cell_length_a                   9.0691(3)
_cell_length_b                   19.6472(5)
_cell_length_c                   7.4302(3)
_cell_angle_alpha                90
_cell_angle_beta                 110.424(2)
_cell_angle_gamma                90
_cell_volume                     1240.7
_exptl_crystal_colour            orange
_exptl_crystal_description       lath
_chemical_melting_point          '414 K'
_cell_formula_units_Z            4
_exptl_crystal_recrystallization_method 1,2-dichloroethane/ethanol
loop_
_atom_site_label
_atom_site_type_symbol
_atom_site_fract_x
_atom_site_fract_y
_atom_site_fract_z
N1 N 0.36899(17) 0.80745(7) 0.4421(2)
C1 C 0.3389(2) 0.74119(9) 0.4288(2)
Cl1 Cl 0.15503(5) 0.71722(2) 0.43272(7)
C2 C 0.44130(19) 0.69122(8) 0.4125(2)
C3 C 0.5866(2) 0.71285(9) 0.4090(2)
C4 C 0.6214(2) 0.78155(9) 0.4220(2)
C5 C 0.5094(2) 0.82676(9) 0.4376(2)
C6 C 0.40690(18) 0.61610(8) 0.4118(2)
O1 O 0.44131(15) 0.58397(6) 0.56164(17)
N2 N 0.34214(16) 0.58839(7) 0.2368(2)
N3 N 0.31788(16) 0.51815(7) 0.2151(2)
C7 C 0.18102(19) 0.49346(8) 0.2406(2)
C8 C 0.05760(19) 0.53618(9) 0.2356(2)
C9 C -0.07730(19) 0.50727(9) 0.2484(2)
N4 N -0.20544(17) 0.55395(9) 0.2445(2)
O2 O -0.18025(16) 0.61564(7) 0.2464(2)
O3 O -0.33072(16) 0.52980(8) 0.2403(2)
C10 C -0.0974(2) 0.43853(10) 0.2659(2)
C11 C 0.0274(2) 0.39661(10) 0.2719(3)
C12 C 0.1649(2) 0.42346(9) 0.2603(2)
H1 H 0.6611 0.6807 0.3977
H2 H 0.7199 0.7974 0.4203
H3 H 0.5333 0.8740 0.4454
H4 H 0.3273 0.6139 0.1346
H5 H 0.4033 0.4957 0.2825
H6 H 0.0657 0.5841 0.2237
H7 H -0.1923 0.4206 0.2736
H8 H 0.0183 0.3488 0.2842
H9 H 0.2492 0.3939 0.2657
loop_
_geom_bond_atom_site_label_1
_geom_bond_atom_site_label_2
_geom_bond_site_symmetry_1
_geom_bond_site_symmetry_2
N1 C1 1_555 1_555
C1 Cl1 1_555 1_555
C2 C1 1_555 1_555
C3 C2 1_555 1_555
C4 C3 1_555 1_555
C5 N1 1_555 1_555
C6 C2 1_555 1_555
O1 C6 1_555 1_555
N2 C6 1_555 1_555
N3 N2 1_555 1_555
C7 N3 1_555 1_555
C8 C7 1_555 1_555
C9 C8 1_555 1_555
N4 C9 1_555 1_555
O2 N4 1_555 1_555
O3 N4 1_555 1_555
C10 C9 1_555 1_555
C11 C10 1_555 1_555
C12 C7 1_555 1_555
H1 C3 1_555 1_555
H2 C4 1_555 1_555
H3 C5 1_555 1_555
H4 N2 1_555 1_555
H5 N3 1_555 1_555
H6 C8 1_555 1_555
H7 C10 1_555 1_555
H8 C11 1_555 1_555
H9 C12 1_555 1_555
C4 C5 1_555 1_555
C11 C12 1_555 1_555

#END
