
#######################################################################
#
#                 Cambridge Crystallographic Data Centre
#                                CCDC 
#
#######################################################################
#
# If this CIF has been generated from an entry in the Cambridge 
# Structural Database, then it will include bibliographic, chemical, 
# crystal, experimental, refinement or atomic coordinate data resulting 
# from the CCDC's data processing and validation procedures.
#
#######################################################################

data_KEYSIT
_chemical_formula_moiety         'C20 H14 N2 O4 S1'
_chemical_name_systematic        
N-[2-(2,2-dioxo-2H-1,2\l^6^,3-benzoxathiazin-4-yl)phenyl]benzamide
_symmetry_cell_setting           triclinic
_symmetry_space_group_name_H-M   'P -1'
_symmetry_Int_Tables_number      2
_space_group_name_Hall           '-P 1'
loop_
_symmetry_equiv_pos_site_id
_symmetry_equiv_pos_as_xyz
1 x,y,z
2 -x,-y,-z
_cell_length_a                   9.2350(19)
_cell_length_b                   9.804(2)
_cell_length_c                   9.895(2)
_cell_angle_alpha                100.762(2)
_cell_angle_beta                 91.839(2)
_cell_angle_gamma                103.357(2)
_cell_volume                     853.671
_exptl_crystal_colour            'metallic whiteish white'
_exptl_crystal_description       plate
_cell_formula_units_Z            2
loop_
_atom_site_label
_atom_site_type_symbol
_atom_site_fract_x
_atom_site_fract_y
_atom_site_fract_z
S1 S 0.13036(5) 0.64638(4) 0.40651(4)
O1 O -0.02839(14) 0.56513(13) 0.32771(13)
O2 O 0.09679(16) 0.69995(14) 0.54104(14)
O3 O 0.20552(17) 0.74291(13) 0.32811(15)
O4 O 0.38983(13) 0.51803(13) 0.13020(13)
N1 N 0.22189(15) 0.52430(14) 0.41037(14)
N2 N 0.52844(15) 0.49530(15) 0.31151(16)
H1 H 0.6007 0.5372 0.3731
C1 C -0.03129(18) 0.46062(17) 0.21057(17)
C2 C 0.19875(17) 0.41701(16) 0.30709(16)
C3 C 0.29359(18) 0.31517(16) 0.31044(17)
C4 C 0.44928(18) 0.35531(17) 0.31691(17)
C5 C 0.5298(2) 0.2546(2) 0.3278(2)
H2 H 0.6335 0.2806 0.3316
C6 C 0.4582(3) 0.1169(2) 0.3331(2)
H3 H 0.5138 0.0509 0.3431
C7 C 0.3054(3) 0.0758(2) 0.3237(2)
H4 H 0.2573 -0.0182 0.3255
C8 C 0.2237(2) 0.17404(18) 0.3116(2)
H5 H 0.1200 0.1456 0.3040
C9 C 0.49677(18) 0.56782(18) 0.21405(18)
C10 C 0.59818(18) 0.71051(18) 0.21493(18)
C11 C 0.5829(2) 0.7729(2) 0.1029(2)
H6 H 0.5128 0.7247 0.0299
C12 C 0.6707(2) 0.9059(2) 0.0984(2)
H7 H 0.6598 0.9472 0.0225
C13 C 0.7742(2) 0.9775(2) 0.2056(3)
H8 H 0.8332 1.0675 0.2028
C14 C 0.7902(3) 0.9166(3) 0.3159(3)
H9 H 0.8607 0.9652 0.3885
C15 C 0.7032(2) 0.7838(2) 0.3213(2)
H10 H 0.7154 0.7432 0.3974
C16 C 0.07972(17) 0.38663(16) 0.19779(16)
C17 C 0.07014(19) 0.28262(18) 0.07911(18)
H11 H 0.1444 0.2326 0.0660
C18 C -0.0471(2) 0.2527(2) -0.01887(19)
H12 H -0.0523 0.1825 -0.0976
C19 C -0.1575(2) 0.3267(2) -0.00070(19)
H13 H -0.2377 0.3050 -0.0667
C20 C -0.15004(19) 0.4317(2) 0.11348(19)
H14 H -0.2237 0.4825 0.1253
loop_
_geom_bond_atom_site_label_1
_geom_bond_atom_site_label_2
_geom_bond_site_symmetry_1
_geom_bond_site_symmetry_2
S1 O1 1_555 1_555
O1 C1 1_555 1_555
O2 S1 1_555 1_555
O3 S1 1_555 1_555
O4 C9 1_555 1_555
N1 S1 1_555 1_555
N2 H1 1_555 1_555
C1 C16 1_555 1_555
C2 N1 1_555 1_555
C3 C2 1_555 1_555
C4 N2 1_555 1_555
C5 C4 1_555 1_555
H2 C5 1_555 1_555
C6 C5 1_555 1_555
H3 C6 1_555 1_555
C7 C6 1_555 1_555
H4 C7 1_555 1_555
C8 C3 1_555 1_555
H5 C8 1_555 1_555
C9 N2 1_555 1_555
C10 C9 1_555 1_555
C11 C10 1_555 1_555
H6 C11 1_555 1_555
C12 C11 1_555 1_555
H7 C12 1_555 1_555
C13 C12 1_555 1_555
H8 C13 1_555 1_555
C14 C13 1_555 1_555
H9 C14 1_555 1_555
C15 C10 1_555 1_555
H10 C15 1_555 1_555
C16 C2 1_555 1_555
C17 C16 1_555 1_555
H11 C17 1_555 1_555
C18 C17 1_555 1_555
H12 C18 1_555 1_555
C19 C18 1_555 1_555
H13 C19 1_555 1_555
C20 C1 1_555 1_555
H14 C20 1_555 1_555
C3 C4 1_555 1_555
C7 C8 1_555 1_555
C14 C15 1_555 1_555
C19 C20 1_555 1_555

#END
