
#######################################################################
#
#                 Cambridge Crystallographic Data Centre
#                                CCDC 
#
#######################################################################
#
# If this CIF has been generated from an entry in the Cambridge 
# Structural Database, then it will include bibliographic, chemical, 
# crystal, experimental, refinement or atomic coordinate data resulting 
# from the CCDC's data processing and validation procedures.
#
#######################################################################

data_KEZGEE
_chemical_formula_moiety         'C14 H15 N3 O3'
_chemical_name_systematic        
2-(4-phenyl-2H-1,2,3-triazol-2-yl)-6,8-dioxabicyclo[3.2.1]octan-4-ol
_symmetry_cell_setting           monoclinic
_symmetry_space_group_name_H-M   'P 21'
_symmetry_Int_Tables_number      4
_space_group_name_Hall           'P 2yb'
loop_
_symmetry_equiv_pos_site_id
_symmetry_equiv_pos_as_xyz
1 x,y,z
2 -x,1/2+y,-z
_cell_length_a                   5.3340(14)
_cell_length_b                   28.191(8)
_cell_length_c                   13.242(4)
_cell_angle_alpha                90
_cell_angle_beta                 90.465(4)
_cell_angle_gamma                90
_cell_volume                     1991.14
_exptl_crystal_colour            colorless
_exptl_crystal_description       plate
_cell_formula_units_Z            6
loop_
_atom_site_label
_atom_site_type_symbol
_atom_site_fract_x
_atom_site_fract_y
_atom_site_fract_z
O1 O 0.6007(10) 0.17648(19) -0.3919(5)
O2 O 0.2886(9) 0.2306(2) -0.3770(4)
O3 O 0.6270(10) 0.17222(18) -0.1726(5)
H1 H 0.5338 0.1491 -0.1710
N1 N 0.4459(12) 0.3189(2) -0.2905(5)
N2 N 0.3089(12) 0.3136(2) -0.2080(6)
N3 N 0.3962(15) 0.3585(3) -0.3427(6)
C1 C 0.4093(14) 0.1920(3) -0.3272(7)
H2 H 0.2890 0.1663 -0.3161
C2 C 0.5070(13) 0.2100(3) -0.2275(6)
H3 H 0.3668 0.2222 -0.1878
C3 C 0.6968(13) 0.2492(3) -0.2428(6)
H4 H 0.7170 0.2668 -0.1802
H5 H 0.8576 0.2353 -0.2593
C4 C 0.6196(13) 0.2832(3) -0.3260(6)
H6 H 0.7703 0.2992 -0.3506
C5 C 0.1610(14) 0.3525(3) -0.2044(7)
C6 C -0.0117(13) 0.3605(3) -0.1211(7)
C7 C 0.0215(17) 0.3358(3) -0.0325(8)
H7 H 0.1504 0.3138 -0.0262
C8 C -0.1410(17) 0.3442(3) 0.0484(8)
H8 H -0.1199 0.3272 0.1081
C9 C -0.3306(16) 0.3770(3) 0.0411(9)
H9 H -0.4338 0.3831 0.0959
C10 C 0.6685(15) 0.2166(3) -0.4545(7)
H10 H 0.6352 0.2101 -0.5252
H11 H 0.8442 0.2247 -0.4458
C11 C 0.4979(14) 0.2565(3) -0.4150(6)
H12 H 0.4475 0.2782 -0.4692
C12 C -0.2039(15) 0.3928(3) -0.1284(8)
H13 H -0.2258 0.4096 -0.1883
C13 C -0.3647(17) 0.4009(3) -0.0498(9)
H14 H -0.4962 0.4223 -0.0574
C14 C 0.2190(17) 0.3795(3) -0.2886(7)
H15 H 0.1441 0.4083 -0.3050
O4 O 0.3536(9) 0.49781(19) 0.1207(5)
O5 O 0.0301(10) 0.60330(17) 0.2137(5)
H16 H 0.1432 0.6229 0.2102
O6 O 0.0743(11) 0.5448(2) 0.0368(5)
N4 N 0.2901(11) 0.4119(2) 0.2701(5)
N5 N 0.1498(12) 0.4504(2) 0.2906(6)
N6 N 0.1783(15) 0.4685(3) 0.3820(7)
C15 C 0.9470(15) 0.2923(3) 0.3926(7)
H17 H 1.0584 0.2673 0.4021
C16 C 0.9650(16) 0.3325(3) 0.4515(7)
H18 H 1.0958 0.3355 0.4979
C17 C 0.7896(14) 0.3686(3) 0.4419(7)
H19 H 0.7980 0.3946 0.4851
C18 C 0.6019(13) 0.3665(3) 0.3690(6)
C19 C 0.4225(14) 0.4046(3) 0.3557(7)
C20 C -0.0092(13) 0.4716(3) 0.2121(7)
H20 H -0.1648 0.4533 0.2062
C21 C 0.1247(13) 0.4704(3) 0.1127(6)
H21 H 0.1608 0.4376 0.0925
C22 C 0.2583(16) 0.5449(3) 0.1159(8)
H22 H 0.3926 0.5675 0.1012
C23 C 0.1359(14) 0.5564(3) 0.2165(8)
H23 H 0.2622 0.5547 0.2705
C24 C 0.7625(16) 0.2895(3) 0.3195(7)
H24 H 0.7535 0.2632 0.2775
C25 C 0.5899(16) 0.3261(3) 0.3086(7)
H25 H 0.4638 0.3236 0.2599
C26 C 0.3479(19) 0.4403(3) 0.4244(8)
H26 H 0.4092 0.4435 0.4900
C27 C -0.0731(14) 0.5227(3) 0.2392(7)
H27 H -0.2217 0.5323 0.2017
H28 H -0.1115 0.5244 0.3106
C28 C -0.0166(15) 0.4968(3) 0.0284(7)
H29 H 0.0217 0.4835 -0.0373
H30 H -0.1963 0.4954 0.0387
O7 O 0.3139(9) 0.22480(19) 0.0064(4)
O8 O 0.0281(8) 0.20969(18) 0.1273(4)
O9 O 0.2898(9) 0.12772(19) -0.0560(4)
H31 H 0.1737 0.1208 -0.0943
N7 N 0.2059(13) 0.1467(2) 0.2818(6)
N8 N 0.0436(14) 0.1124(3) 0.2579(6)
N9 N 0.1881(17) 0.1624(3) 0.3769(6)
C29 C 0.1099(14) 0.1944(3) 0.0315(7)
H32 H -0.0256 0.1978 -0.0185
C30 C 0.1918(13) 0.1433(3) 0.0384(6)
H33 H 0.0501 0.1233 0.0579
C31 C 0.4058(14) 0.1383(3) 0.1159(6)
H34 H 0.4195 0.1053 0.1361
H35 H 0.5623 0.1473 0.0844
C32 C 0.3672(15) 0.1688(3) 0.2100(7)
H36 H 0.5310 0.1739 0.2423
C33 C -0.0905(17) 0.1049(3) 0.3423(9)
C34 C -0.2835(18) 0.0682(4) 0.3474(9)
C35 C -0.447(2) 0.0633(4) 0.4292(9)
H37 H -0.4279 0.0835 0.4843
C36 C -0.633(2) 0.0304(5) 0.4313(13)
H38 H -0.7376 0.0286 0.4869
C37 C -0.665(2) 0.0008(5) 0.3547(14)
H39 H -0.7913 -0.0220 0.3568
C38 C 0.4147(16) 0.2421(3) 0.1004(7)
H40 H 0.3958 0.2762 0.1055
H41 H 0.5909 0.2341 0.1072
C39 C 0.2613(13) 0.2171(3) 0.1794(6)
H42 H 0.2382 0.2374 0.2387
C40 C 0.005(2) 0.1359(4) 0.4153(9)
H43 H -0.0520 0.1378 0.4815
C41 C -0.315(2) 0.0377(4) 0.2668(11)
H44 H -0.2098 0.0393 0.2112
C42 C -0.509(3) 0.0040(4) 0.2707(12)
H45 H -0.5334 -0.0166 0.2165
loop_
_geom_bond_atom_site_label_1
_geom_bond_atom_site_label_2
_geom_bond_site_symmetry_1
_geom_bond_site_symmetry_2
O1 C1 1_555 1_555
O2 C1 1_555 1_555
O3 H1 1_555 1_555
N1 N2 1_555 1_555
N2 C5 1_555 1_555
N3 N1 1_555 1_555
C1 H2 1_555 1_555
C2 O3 1_555 1_555
H3 C2 1_555 1_555
C3 C2 1_555 1_555
H4 C3 1_555 1_555
H5 C3 1_555 1_555
C4 N1 1_555 1_555
H6 C4 1_555 1_555
C5 C6 1_555 1_555
C6 C7 1_555 1_555
C7 H7 1_555 1_555
C8 C7 1_555 1_555
H8 C8 1_555 1_555
C9 C8 1_555 1_555
H9 C9 1_555 1_555
C10 O1 1_555 1_555
H10 C10 1_555 1_555
H11 C10 1_555 1_555
C11 O2 1_555 1_555
H12 C11 1_555 1_555
C12 C6 1_555 1_555
H13 C12 1_555 1_555
C13 C9 1_555 1_555
H14 C13 1_555 1_555
C14 N3 1_555 1_555
H15 C14 1_555 1_555
O4 C21 1_555 1_555
O5 H16 1_555 1_555
O6 C22 1_555 1_555
N4 N5 1_555 1_555
N5 N6 1_555 1_555
N6 C26 1_555 1_555
C15 H17 1_555 1_555
C16 C15 1_555 1_555
H18 C16 1_555 1_555
C17 C16 1_555 1_555
H19 C17 1_555 1_555
C18 C17 1_555 1_555
C19 N4 1_555 1_555
C20 N5 1_555 1_555
H20 C20 1_555 1_555
C21 C20 1_555 1_555
H21 C21 1_555 1_555
C22 O4 1_555 1_555
H22 C22 1_555 1_555
C23 O5 1_555 1_555
H23 C23 1_555 1_555
C24 C15 1_555 1_555
H24 C24 1_555 1_555
C25 C18 1_555 1_555
H25 C25 1_555 1_555
C26 C19 1_555 1_555
H26 C26 1_555 1_555
C27 C20 1_555 1_555
H27 C27 1_555 1_555
H28 C27 1_555 1_555
C28 O6 1_555 1_555
H29 C28 1_555 1_555
H30 C28 1_555 1_555
O7 C29 1_555 1_555
O8 C29 1_555 1_555
O9 H31 1_555 1_555
N7 N8 1_555 1_555
N8 C33 1_555 1_555
N9 N7 1_555 1_555
C29 H32 1_555 1_555
C30 O9 1_555 1_555
H33 C30 1_555 1_555
C31 C30 1_555 1_555
H34 C31 1_555 1_555
H35 C31 1_555 1_555
C32 N7 1_555 1_555
H36 C32 1_555 1_555
C33 C34 1_555 1_555
C34 C35 1_555 1_555
C35 H37 1_555 1_555
C36 C35 1_555 1_555
H38 C36 1_555 1_555
C37 C36 1_555 1_555
H39 C37 1_555 1_555
C38 O7 1_555 1_555
H40 C38 1_555 1_555
H41 C38 1_555 1_555
C39 O8 1_555 1_555
H42 C39 1_555 1_555
C40 N9 1_555 1_555
H43 C40 1_555 1_555
C41 C34 1_555 1_555
H44 C41 1_555 1_555
C42 C37 1_555 1_555
H45 C42 1_555 1_555
C1 C2 1_555 1_555
C3 C4 1_555 1_555
C4 C11 1_555 1_555
C5 C14 1_555 1_555
C10 C11 1_555 1_555
C12 C13 1_555 1_555
C18 C19 1_555 1_555
C21 C28 1_555 1_555
C22 C23 1_555 1_555
C23 C27 1_555 1_555
C24 C25 1_555 1_555
C29 C30 1_555 1_555
C31 C32 1_555 1_555
C32 C39 1_555 1_555
C33 C40 1_555 1_555
C38 C39 1_555 1_555
C41 C42 1_555 1_555

#END
