
#######################################################################
#
#                 Cambridge Crystallographic Data Centre
#                                CCDC 
#
#######################################################################
#
# If this CIF has been generated from an entry in the Cambridge 
# Structural Database, then it will include bibliographic, chemical, 
# crystal, experimental, refinement or atomic coordinate data resulting 
# from the CCDC's data processing and validation procedures.
#
#######################################################################

data_KEZXAR
_chemical_formula_moiety         'C34 H22 B2 F4 N2 O4,2(C9 H12),2(C6 H4 S4)'
_chemical_name_systematic        
"1,1'-bis[2-(2,4-difluorophenyl)-2H-1,3,2-benzodioxaborol-2-yl]-4,4'-bi-1-pyridine bis(2-(2H-1,3-dithiol-2-ylidene)-2H-1,3-dithiole) bis(1,3,5-trimethylbenzene)"
_symmetry_cell_setting           triclinic
_symmetry_space_group_name_H-M   'P -1'
_symmetry_Int_Tables_number      2
_space_group_name_Hall           '-P 1'
loop_
_symmetry_equiv_pos_site_id
_symmetry_equiv_pos_as_xyz
1 x,y,z
2 -x,-y,-z
_cell_length_a                   10.6571(6)
_cell_length_b                   11.8609(6)
_cell_length_c                   12.5886(6)
_cell_angle_alpha                96.084(4)
_cell_angle_beta                 92.772(4)
_cell_angle_gamma                109.662(5)
_cell_volume                     1484.01
_exptl_crystal_colour            'metallic dark green'
_exptl_crystal_description       block
_cell_formula_units_Z            1
_exptl_crystal_recrystallization_method Mesitylene
loop_
_atom_site_label
_atom_site_type_symbol
_atom_site_fract_x
_atom_site_fract_y
_atom_site_fract_z
F1 F 0.9580(2) 0.83920(17) 0.08961(16)
F2 F 0.9356(2) 0.61902(16) 0.38020(16)
O1 O 0.9693(2) 1.15553(17) 0.30438(16)
O2 O 1.0554(2) 1.10339(17) 0.14420(16)
N1 N 0.8086(2) 1.0423(2) 0.14610(19)
C1 C 0.9395(3) 0.9325(3) 0.2595(2)
C2 C 0.9497(3) 0.8341(3) 0.1964(2)
C3 C 0.9486(4) 0.7281(3) 0.2336(3)
H1 H 0.9566 0.6643 0.1880
C4 C 0.9353(3) 0.7216(3) 0.3405(3)
C5 C 0.9226(3) 0.8146(3) 0.4091(3)
H2 H 0.9130 0.8080 0.4814
C6 C 0.9246(3) 0.9182(3) 0.3671(3)
H3 H 0.9156 0.9813 0.4129
C7 C 1.0621(3) 1.2556(3) 0.2736(2)
C8 C 1.1113(3) 1.2253(3) 0.1783(3)
C9 C 1.2068(3) 1.3106(3) 0.1324(3)
H4 H 1.2409 1.2904 0.0694
C10 C 1.2510(4) 1.4295(3) 0.1842(3)
H5 H 1.3142 1.4897 0.1542
C11 C 1.2027(4) 1.4591(3) 0.2789(3)
H6 H 1.2344 1.5386 0.3118
C12 C 1.1067(3) 1.3715(3) 0.3261(3)
H7 H 1.0745 1.3908 0.3903
C13 C 0.7085(3) 1.0659(3) 0.1945(2)
H8 H 0.7213 1.0929 0.2677
C14 C 0.5889(3) 1.0518(3) 0.1401(2)
H9 H 0.5232 1.0710 0.1762
C15 C 0.5645(3) 1.0087(2) 0.0303(2)
C16 C 0.6697(3) 0.9848(3) -0.0182(2)
H10 H 0.6594 0.9571 -0.0911
C17 C 0.7879(3) 1.0018(3) 0.0404(2)
H11 H 0.8560 0.9847 0.0061
B1 B 0.9490(3) 1.0579(3) 0.2159(3)
F1A F 0.0420(2) 1.16080(17) -0.08961(16)
F2A F 0.0644(2) 1.38098(16) -0.38020(16)
O1A O 0.0307(2) 0.84447(17) -0.30438(16)
O2A O -0.0554(2) 0.89661(17) -0.14420(16)
N1A N 0.1914(2) 0.9577(2) -0.14610(19)
C1A C 0.0605(3) 1.0675(3) -0.2595(2)
C2A C 0.0503(3) 1.1659(3) -0.1964(2)
C3A C 0.0514(4) 1.2719(3) -0.2336(3)
H1A H 0.0434 1.3357 -0.1880
C4A C 0.0647(3) 1.2784(3) -0.3405(3)
C5A C 0.0774(3) 1.1854(3) -0.4091(3)
H2A H 0.0870 1.1920 -0.4814
C6A C 0.0754(3) 1.0818(3) -0.3671(3)
H3A H 0.0844 1.0187 -0.4129
C7A C -0.0621(3) 0.7444(3) -0.2736(2)
C8A C -0.1113(3) 0.7747(3) -0.1783(3)
C9A C -0.2068(3) 0.6894(3) -0.1324(3)
H4A H -0.2409 0.7096 -0.0694
C10A C -0.2510(4) 0.5705(3) -0.1842(3)
H5A H -0.3142 0.5103 -0.1542
C11A C -0.2027(4) 0.5409(3) -0.2789(3)
H6A H -0.2344 0.4614 -0.3118
C12A C -0.1067(3) 0.6285(3) -0.3261(3)
H7A H -0.0745 0.6092 -0.3903
C13A C 0.2915(3) 0.9341(3) -0.1945(2)
H8A H 0.2787 0.9071 -0.2677
C14A C 0.4111(3) 0.9482(3) -0.1401(2)
H9A H 0.4768 0.9290 -0.1762
C15A C 0.4355(3) 0.9913(2) -0.0303(2)
C16A C 0.3303(3) 1.0152(3) 0.0182(2)
H10A H 0.3406 1.0429 0.0911
C17A C 0.2121(3) 0.9982(3) -0.0404(2)
H11A H 0.1440 1.0153 -0.0061
B1A B 0.0510(3) 0.9421(3) -0.2159(3)
C18 C 0.5647(4) 0.3762(3) 0.3959(3)
C19 C 0.4399(3) 0.2883(3) 0.3635(3)
H12 H 0.3705 0.3110 0.3365
C20 C 0.4181(3) 0.1672(3) 0.3710(3)
C21 C 0.5234(3) 0.1354(3) 0.4110(3)
H13 H 0.5101 0.0543 0.4149
C22 C 0.6487(3) 0.2216(3) 0.4455(3)
C23 C 0.6661(3) 0.3420(3) 0.4369(3)
H14 H 0.7488 0.4008 0.4597
C24 C 0.5860(4) 0.5068(3) 0.3829(4)
H15 H 0.6524 0.5589 0.4373
H16 H 0.5033 0.5216 0.3897
H17 H 0.6156 0.5226 0.3134
C25 C 0.2825(3) 0.0738(3) 0.3374(3)
H18 H 0.2251 0.0731 0.3940
H19 H 0.2910 -0.0043 0.3230
H20 H 0.2447 0.0928 0.2739
C26 C 0.7598(4) 0.1862(4) 0.4929(3)
H21 H 0.8391 0.2200 0.4573
H22 H 0.7341 0.0998 0.4837
H23 H 0.7773 0.2162 0.5680
S1 S 0.57842(9) 0.72358(8) 0.11793(7)
S2 S 0.36690(9) 0.78314(8) 0.22882(7)
S3 S 0.38179(10) 0.64567(8) -0.10589(7)
S4 S 0.16777(9) 0.69287(8) 0.01172(8)
C27 C 0.4158(3) 0.7298(3) 0.1079(3)
C28 C 0.5995(4) 0.7545(3) 0.2578(3)
H24 H 0.6754 0.7529 0.2964
C29 C 0.5033(4) 0.7801(3) 0.3067(3)
H25 H 0.5090 0.7961 0.3811
C30 C 0.3331(3) 0.6945(3) 0.0171(3)
C31 C 0.2211(5) 0.6003(3) -0.1716(3)
H26 H 0.2036 0.5630 -0.2422
C32 C 0.1257(4) 0.6203(3) -0.1188(3)
H27 H 0.0384 0.5964 -0.1503
loop_
_geom_bond_atom_site_label_1
_geom_bond_atom_site_label_2
_geom_bond_site_symmetry_1
_geom_bond_site_symmetry_2
F1 C2 1_555 1_555
F2 C4 1_555 1_555
O1 C7 1_555 1_555
O2 C8 1_555 1_555
N1 C13 1_555 1_555
C1 C2 1_555 1_555
C2 C3 1_555 1_555
C3 H1 1_555 1_555
C4 C3 1_555 1_555
C5 C4 1_555 1_555
H2 C5 1_555 1_555
C6 C1 1_555 1_555
H3 C6 1_555 1_555
C7 C8 1_555 1_555
C8 C9 1_555 1_555
C9 H4 1_555 1_555
C10 C9 1_555 1_555
H5 C10 1_555 1_555
C11 C10 1_555 1_555
H6 C11 1_555 1_555
C12 C7 1_555 1_555
H7 C12 1_555 1_555
C13 H8 1_555 1_555
C14 C13 1_555 1_555
H9 C14 1_555 1_555
C15 C14 1_555 1_555
C16 C15 1_555 1_555
H10 C16 1_555 1_555
C17 N1 1_555 1_555
H11 C17 1_555 1_555
B1 O1 1_555 1_555
C18 C19 1_555 1_555
C19 H12 1_555 1_555
C20 C19 1_555 1_555
C21 C20 1_555 1_555
H13 C21 1_555 1_555
C22 C21 1_555 1_555
C23 C18 1_555 1_555
H14 C23 1_555 1_555
C24 C18 1_555 1_555
H15 C24 1_555 1_555
H16 C24 1_555 1_555
H17 C24 1_555 1_555
C25 C20 1_555 1_555
H18 C25 1_555 1_555
H19 C25 1_555 1_555
H20 C25 1_555 1_555
C26 C22 1_555 1_555
H21 C26 1_555 1_555
H22 C26 1_555 1_555
H23 C26 1_555 1_555
S1 C27 1_555 1_555
S2 C27 1_555 1_555
S3 C30 1_555 1_555
S4 C30 1_555 1_555
C27 C30 1_555 1_555
C28 S1 1_555 1_555
H24 C28 1_555 1_555
C29 S2 1_555 1_555
H25 C29 1_555 1_555
C31 S3 1_555 1_555
H26 C31 1_555 1_555
C32 S4 1_555 1_555
H27 C32 1_555 1_555
F1A C2A 1_555 1_555
F2A C4A 1_555 1_555
O1A C7A 1_555 1_555
O2A C8A 1_555 1_555
N1A C13A 1_555 1_555
C1A C2A 1_555 1_555
C2A C3A 1_555 1_555
C3A H1A 1_555 1_555
C4A C3A 1_555 1_555
C5A C4A 1_555 1_555
H2A C5A 1_555 1_555
C6A C1A 1_555 1_555
H3A C6A 1_555 1_555
C7A C8A 1_555 1_555
C8A C9A 1_555 1_555
C9A H4A 1_555 1_555
C10A C9A 1_555 1_555
H5A C10A 1_555 1_555
C11A C10A 1_555 1_555
H6A C11A 1_555 1_555
C12A C7A 1_555 1_555
H7A C12A 1_555 1_555
C13A H8A 1_555 1_555
C14A C13A 1_555 1_555
H9A C14A 1_555 1_555
C15A C15 1_555 1_555
C16A C15A 1_555 1_555
H10A C16A 1_555 1_555
C17A N1A 1_555 1_555
H11A C17A 1_555 1_555
B1A O1A 1_555 1_555
O2 B1 1_555 1_555
N1 B1 1_555 1_555
C1 B1 1_555 1_555
C5 C6 1_555 1_555
C11 C12 1_555 1_555
C16 C17 1_555 1_555
C22 C23 1_555 1_555
C28 C29 1_555 1_555
C31 C32 1_555 1_555
O2A B1A 1_555 1_555
N1A B1A 1_555 1_555
C1A B1A 1_555 1_555
C5A C6A 1_555 1_555
C11A C12A 1_555 1_555
C14A C15A 1_555 1_555
C16A C17A 1_555 1_555

#END
