
#######################################################################
#
#                 Cambridge Crystallographic Data Centre
#                                CCDC 
#
#######################################################################
#
# If this CIF has been generated from an entry in the Cambridge 
# Structural Database, then it will include bibliographic, chemical, 
# crystal, experimental, refinement or atomic coordinate data resulting 
# from the CCDC's data processing and validation procedures.
#
#######################################################################

data_KEZYUM
_chemical_formula_moiety         'C38 H26 N2 O5,2(H2 O1)'
_chemical_name_systematic        
"2'-hydroxy[1,1'-binaphthalen]-2-yl 1-{5-hydroxy-4-[(hydroxyimino)methyl]-2-methylpyridin-3-yl}naphthalene-2-carboxylate dihydrate"
_symmetry_cell_setting           trigonal
_symmetry_space_group_name_H-M   'P 31'
_symmetry_Int_Tables_number      144
_space_group_name_Hall           'P 31'
loop_
_symmetry_equiv_pos_site_id
_symmetry_equiv_pos_as_xyz
1 x,y,z
2 -y,x-y,1/3+z
3 -x+y,-x,2/3+z
_cell_length_a                   10.3096(2)
_cell_length_b                   10.3096(2)
_cell_length_c                   27.7720(5)
_cell_angle_alpha                90
_cell_angle_beta                 90
_cell_angle_gamma                120
_cell_volume                     2556.36
_exptl_crystal_colour            colorless
_exptl_crystal_description       prismatic
_cell_formula_units_Z            3
loop_
_atom_site_label
_atom_site_type_symbol
_atom_site_fract_x
_atom_site_fract_y
_atom_site_fract_z
N1 N 0.7347(4) 0.3234(4) 0.63799(11)
N2 N 0.2414(4) 0.3004(5) 0.61436(14)
O1 O 0.3038(3) 0.0871(3) 0.32902(9)
H1 H 0.3930 0.1130 0.3284
O2 O 0.6008(3) 0.3148(3) 0.43832(10)
O3 O 0.6888(4) 0.2878(4) 0.50917(11)
O4 O 0.3490(4) 0.1710(4) 0.67022(12)
H2 H 0.2858 0.1914 0.6610
O5 O 0.1315(4) 0.3186(5) 0.59286(14)
H3 H 0.0562 0.2803 0.6097
C1 C 0.2726(5) 0.0200(5) 0.46031(15)
C2 C 0.3496(6) 0.0051(6) 0.50061(17)
H4 H 0.4439 0.0155 0.4965
C3 C 0.2857(7) -0.0245(8) 0.5453(2)
H5 H 0.3376 -0.0333 0.5713
C4 C 0.1442(8) -0.0417(9) 0.5527(2)
H6 H 0.1032 -0.0606 0.5835
C5 C 0.0669(7) -0.0311(8) 0.5153(2)
H7 H -0.0277 -0.0436 0.5206
C6 C 0.1275(5) -0.0009(6) 0.46767(18)
C7 C 0.0478(6) 0.0061(8) 0.4281(2)
H8 H -0.0479 -0.0085 0.4327
C8 C 0.1070(5) 0.0337(6) 0.3829(2)
H9 H 0.0511 0.0358 0.3570
C9 C 0.2537(4) 0.0592(4) 0.37547(14)
C10 C 0.3364(4) 0.0515(4) 0.41336(13)
C11 C 0.4871(4) 0.0708(4) 0.40455(13)
C12 C 0.5029(5) -0.0432(5) 0.38032(14)
C13 C 0.3773(6) -0.1787(6) 0.36527(18)
H10 H 0.2815 -0.1942 0.3704
C14 C 0.3951(8) -0.2871(7) 0.3432(2)
H11 H 0.3120 -0.3761 0.3334
C15 C 0.5419(9) -0.2626(8) 0.33540(19)
H12 H 0.5541 -0.3371 0.3209
C16 C 0.6616(7) -0.1357(7) 0.34836(17)
H13 H 0.7563 -0.1219 0.3422
C17 C 0.6482(5) -0.0208(5) 0.37129(14)
C18 C 0.7742(5) 0.1148(6) 0.38587(16)
H14 H 0.8695 0.1309 0.3792
C19 C 0.7598(5) 0.2230(6) 0.40944(17)
H15 H 0.8437 0.3113 0.4193
C20 C 0.6146(4) 0.1975(4) 0.41836(13)
C21 C 0.6500(4) 0.3571(5) 0.48464(13)
C22 C 0.6508(4) 0.4979(5) 0.49738(14)
C23 C 0.6533(6) 0.5923(5) 0.46017(16)
H16 H 0.6531 0.5649 0.4283
C24 C 0.6560(6) 0.7228(6) 0.47027(17)
H17 H 0.6552 0.7820 0.4451
C25 C 0.6600(5) 0.7694(5) 0.51776(16)
C26 C 0.6677(6) 0.9072(6) 0.5292(2)
H18 H 0.6665 0.9669 0.5043
C27 C 0.6765(7) 0.9540(6) 0.5744(2)
H19 H 0.6830 1.0456 0.5807
C28 C 0.6759(6) 0.8619(6) 0.6133(2)
H20 H 0.6812 0.8936 0.6450
C29 C 0.6678(5) 0.7293(5) 0.60405(17)
H21 H 0.6676 0.6710 0.6296
C30 C 0.6594(4) 0.6766(5) 0.55614(15)
C31 C 0.6519(4) 0.5382(4) 0.54521(14)
C32 C 0.6337(4) 0.4349(4) 0.58604(12)
C33 C 0.7543(4) 0.4222(5) 0.60291(14)
C34 C 0.6003(5) 0.2427(5) 0.65781(14)
H22 H 0.5885 0.1736 0.6814
C35 C 0.4782(5) 0.2547(4) 0.64569(13)
C36 C 0.4925(4) 0.3506(4) 0.60754(13)
C37 C 0.3635(5) 0.3610(5) 0.59006(15)
H23 H 0.3704 0.4112 0.5615
C38 C 0.9102(5) 0.5140(6) 0.58364(17)
H24 H 0.9809 0.5347 0.6091
H25 H 0.9234 0.6066 0.5710
H26 H 0.9260 0.4597 0.5585
O6 O 0.1958(8) 0.4104(7) 0.4487(3)
H27 H 0.2210 0.4753 0.4703
H28 H 0.2744 0.4028 0.4502
O7 O 0.0657(5) 0.6067(4) 0.45402(18)
H29 H 0.0361 0.6153 0.4293
H30 H 0.1308 0.5994 0.4626
loop_
_geom_bond_atom_site_label_1
_geom_bond_atom_site_label_2
_geom_bond_site_symmetry_1
_geom_bond_site_symmetry_2
N1 C33 1_555 1_555
N2 O5 1_555 1_555
O1 H1 1_555 1_555
O2 C20 1_555 1_555
O3 C21 1_555 1_555
O4 H2 1_555 1_555
O5 H3 1_555 1_555
C1 C2 1_555 1_555
C2 H4 1_555 1_555
C3 C2 1_555 1_555
H5 C3 1_555 1_555
C4 C3 1_555 1_555
H6 C4 1_555 1_555
C5 C4 1_555 1_555
H7 C5 1_555 1_555
C6 C1 1_555 1_555
C7 C6 1_555 1_555
H8 C7 1_555 1_555
C8 C7 1_555 1_555
H9 C8 1_555 1_555
C9 O1 1_555 1_555
C10 C1 1_555 1_555
C11 C10 1_555 1_555
C12 C11 1_555 1_555
C13 C12 1_555 1_555
H10 C13 1_555 1_555
C14 C13 1_555 1_555
H11 C14 1_555 1_555
C15 C14 1_555 1_555
H12 C15 1_555 1_555
C16 C15 1_555 1_555
H13 C16 1_555 1_555
C17 C12 1_555 1_555
C18 C17 1_555 1_555
H14 C18 1_555 1_555
C19 C18 1_555 1_555
H15 C19 1_555 1_555
C20 C11 1_555 1_555
C21 O2 1_555 1_555
C22 C21 1_555 1_555
C23 C22 1_555 1_555
H16 C23 1_555 1_555
C24 C23 1_555 1_555
H17 C24 1_555 1_555
C25 C24 1_555 1_555
C26 C25 1_555 1_555
H18 C26 1_555 1_555
C27 C26 1_555 1_555
H19 C27 1_555 1_555
C28 C27 1_555 1_555
H20 C28 1_555 1_555
C29 C28 1_555 1_555
H21 C29 1_555 1_555
C30 C25 1_555 1_555
C31 C22 1_555 1_555
C32 C31 1_555 1_555
C33 C32 1_555 1_555
C34 N1 1_555 1_555
H22 C34 1_555 1_555
C35 O4 1_555 1_555
C36 C32 1_555 1_555
C37 N2 1_555 1_555
H23 C37 1_555 1_555
C38 C33 1_555 1_555
H24 C38 1_555 1_555
H25 C38 1_555 1_555
H26 C38 1_555 1_555
O6 H27 1_555 1_555
H28 O6 1_555 1_555
O7 H29 1_555 1_555
H30 O7 1_555 1_555
C5 C6 1_555 1_555
C8 C9 1_555 1_555
C9 C10 1_555 1_555
C16 C17 1_555 1_555
C19 C20 1_555 1_555
C29 C30 1_555 1_555
C30 C31 1_555 1_555
C34 C35 1_555 1_555
C35 C36 1_555 1_555
C36 C37 1_555 1_555

#END
