
#######################################################################
#
#                 Cambridge Crystallographic Data Centre
#                                CCDC 
#
#######################################################################
#
# If this CIF has been generated from an entry in the Cambridge 
# Structural Database, then it will include bibliographic, chemical, 
# crystal, experimental, refinement or atomic coordinate data resulting 
# from the CCDC's data processing and validation procedures.
#
#######################################################################

data_KIBBUS01
_chemical_formula_moiety         'C10 H8 F3 N3 O1'
_chemical_name_systematic        1-(p-Methoxyphenyl)-4-trifluoromethyltriazole
_symmetry_cell_setting           orthorhombic
_symmetry_space_group_name_H-M   'P m n b'
_symmetry_Int_Tables_number      62
_space_group_name_Hall           '-P 2bc 2a'
loop_
_symmetry_equiv_pos_site_id
_symmetry_equiv_pos_as_xyz
1 x,y,z
2 1/2-x,y,z
3 1/2+x,1/2-y,1/2+z
4 -x,1/2-y,1/2+z
5 -x,-y,-z
6 1/2+x,-y,-z
7 1/2-x,1/2+y,1/2-z
8 x,1/2+y,1/2-z
_cell_length_a                   6.9302(4)
_cell_length_b                   11.0054(9)
_cell_length_c                   13.867(2)
_cell_angle_alpha                90
_cell_angle_beta                 90
_cell_angle_gamma                90
_cell_volume                     1057.63
_cell_formula_units_Z            4
loop_
_atom_site_label
_atom_site_type_symbol
_atom_site_fract_x
_atom_site_fract_y
_atom_site_fract_z
F1 F 0.2500 0.4774(3) 0.0774(3)
F2 F 0.4000 0.6416(3) 0.0523(3)
O1 O 0.2500 0.4695(5) 0.7403(4)
N1 N 0.2500 0.6086(4) 0.3556(3)
N2 N 0.2500 0.7259(4) 0.3289(4)
N3 N 0.2500 0.7317(4) 0.2352(4)
C1 C 0.2500 0.5750(5) 0.4552(4)
C2 C 0.2500 0.4533(5) 0.4810(4)
C3 C 0.2500 0.4239(5) 0.5767(5)
C4 C 0.2500 0.5102(6) 0.6478(4)
C5 C 0.2500 0.6329(5) 0.6204(5)
C6 C 0.2500 0.6654(5) 0.5254(5)
C7 C 0.2500 0.5388(5) 0.2765(4)
C8 C 0.2500 0.6161(5) 0.2014(4)
C9 C 0.2500 0.5934(5) 0.0979(5)
C10 C 0.2500 0.5577(8) 0.8164(5)
H1 H 0.2500 0.399(5) 0.437(4)
H2 H 0.2500 0.365(5) 0.587(5)
H3 H 0.2500 0.676(5) 0.666(5)
H4 H 0.2500 0.752(7) 0.496(5)
H5 H 0.2500 0.471(5) 0.280(4)
H6 H 0.2500 0.518(6) 0.868(5)
H7 H 0.36(1) 0.597(4) 0.815(4)
F2A F 0.1000 0.6416(3) 0.0523(3)
H7A H 0.14(1) 0.597(4) 0.815(4)
loop_
_geom_bond_atom_site_label_1
_geom_bond_atom_site_label_2
_geom_bond_site_symmetry_1
_geom_bond_site_symmetry_2
F1 C9 1_555 1_555
F2 C9 1_555 1_555
O1 C4 1_555 1_555
N1 N2 1_555 1_555
N2 N3 1_555 1_555
N3 C8 1_555 1_555
C1 N1 1_555 1_555
C2 C1 1_555 1_555
C3 C2 1_555 1_555
C4 C3 1_555 1_555
C5 C4 1_555 1_555
C6 C1 1_555 1_555
C7 N1 1_555 1_555
C8 C7 1_555 1_555
C9 C8 1_555 1_555
C10 O1 1_555 1_555
H1 C2 1_555 1_555
H2 C3 1_555 1_555
H3 C5 1_555 1_555
H4 C6 1_555 1_555
H5 C7 1_555 1_555
H6 C10 1_555 1_555
H7 C10 1_555 1_555
F2A C9 1_555 1_555
H7A C10 1_555 1_555
C5 C6 1_555 1_555

#END
