
#######################################################################
#
#                 Cambridge Crystallographic Data Centre
#                                CCDC 
#
#######################################################################
#
# If this CIF has been generated from an entry in the Cambridge 
# Structural Database, then it will include bibliographic, chemical, 
# crystal, experimental, refinement or atomic coordinate data resulting 
# from the CCDC's data processing and validation procedures.
#
#######################################################################

data_KICHAI
_chemical_formula_moiety         'C18 H17 N1 O3'
_chemical_name_systematic        
"methyl 3-[2'-(acetylamino)[1,1'-biphenyl]-2-yl]prop-2-enoate"
_symmetry_cell_setting           triclinic
_symmetry_space_group_name_H-M   'P -1'
_symmetry_Int_Tables_number      2
_space_group_name_Hall           '-P 1'
loop_
_symmetry_equiv_pos_site_id
_symmetry_equiv_pos_as_xyz
1 x,y,z
2 -x,-y,-z
_cell_length_a                   10.0742(7)
_cell_length_b                   10.3625(8)
_cell_length_c                   14.4143(11)
_cell_angle_alpha                79.532(4)
_cell_angle_beta                 78.546(4)
_cell_angle_gamma                89.614(5)
_cell_volume                     1449.58
_exptl_crystal_colour            colorless
_exptl_crystal_description       Tabular
_cell_formula_units_Z            4
loop_
_atom_site_label
_atom_site_type_symbol
_atom_site_fract_x
_atom_site_fract_y
_atom_site_fract_z
O1 O 0.85076(17) 0.09502(17) 0.05451(13)
O2 O 0.62794(17) 0.11604(18) 0.11070(14)
O3 O 0.26954(17) 0.70228(17) 0.17487(14)
N1 N 0.4544(2) 0.59927(19) 0.22015(15)
H1 H 0.5431 0.6074 0.2114
C1 C 0.8163(3) 0.0103(3) -0.0075(2)
H2 H 0.7600 -0.0644 0.0318
H3 H 0.8995 -0.0218 -0.0428
H4 H 0.7662 0.0599 -0.0533
C2 C 0.7453(3) 0.1444(2) 0.10867(18)
C3 C 0.7919(2) 0.2342(2) 0.16455(18)
H5 H 0.8861 0.2508 0.1589
C4 C 0.7016(3) 0.2921(2) 0.22311(19)
H6 H 0.6089 0.2741 0.2243
C5 C 0.7296(2) 0.3811(2) 0.28627(18)
C6 C 0.6200(2) 0.4420(2) 0.33767(18)
C7 C 0.4753(2) 0.4074(2) 0.33932(18)
C8 C 0.3943(2) 0.4856(2) 0.28505(18)
C9 C 0.3922(3) 0.6980(2) 0.16930(19)
C10 C 0.4872(3) 0.8020(3) 0.10253(19)
H7 H 0.4844 0.7975 0.0356
H8 H 0.5796 0.7873 0.1132
H9 H 0.4591 0.8888 0.1154
C11 C 0.8612(2) 0.4064(2) 0.29660(19)
H10 H 0.9350 0.3642 0.2635
C12 C 0.8851(3) 0.4931(2) 0.35515(19)
H11 H 0.9750 0.5089 0.3623
C13 C 0.7789(2) 0.5566(2) 0.40306(19)
H12 H 0.7959 0.6171 0.4418
C14 C 0.6473(3) 0.5313(2) 0.39416(19)
H13 H 0.5747 0.5752 0.4269
C15 C 0.2579(2) 0.4484(2) 0.29410(19)
H14 H 0.2015 0.5021 0.2586
C16 C 0.2060(3) 0.3331(2) 0.3551(2)
H15 H 0.1137 0.3084 0.3608
C17 C 0.2855(2) 0.2531(2) 0.40776(19)
H16 H 0.2490 0.1738 0.4489
C18 C 0.4200(3) 0.2910(3) 0.39933(19)
H17 H 0.4756 0.2367 0.4352
O4 O 0.35034(17) 0.37781(16) 0.05399(13)
O5 O 0.12775(17) 0.33204(17) 0.10805(14)
O6 O -0.23276(17) -0.28783(17) 0.17453(14)
N2 N -0.0509(2) -0.2072(2) 0.22166(15)
H18 H 0.0378 -0.2116 0.2145
C19 C -0.0123(2) -0.3502(3) 0.1039(2)
H19 H -0.0351 -0.4445 0.1191
H20 H 0.0799 -0.3358 0.1130
H21 H -0.0179 -0.3157 0.0369
C20 C -0.1104(2) -0.2806(2) 0.16971(19)
C21 C -0.1143(2) -0.1252(2) 0.28547(18)
C22 C -0.0331(2) -0.0698(2) 0.33808(18)
C23 C 0.1104(2) -0.1058(2) 0.33851(18)
C24 C 0.2217(2) -0.0233(2) 0.28627(18)
C25 C 0.1970(2) 0.0976(2) 0.22170(18)
H22 H 0.1048 0.1163 0.2208
C26 C 0.2883(2) 0.1839(2) 0.16437(18)
H23 H 0.3822 0.1687 0.1601
C27 C 0.2439(2) 0.3024(2) 0.10780(18)
C28 C 0.3171(3) 0.4942(2) -0.0081(2)
H24 H 0.2661 0.4689 -0.0536
H25 H 0.4007 0.5420 -0.0438
H26 H 0.2619 0.5507 0.0310
C29 C -0.2522(3) -0.0969(2) 0.29594(19)
H27 H -0.3079 -0.1360 0.2620
C30 C -0.3069(3) -0.0113(3) 0.3564(2)
H28 H -0.4006 0.0069 0.3640
C31 C -0.2273(3) 0.0483(2) 0.40605(19)
H29 H -0.2653 0.1080 0.4462
C32 C -0.0907(3) 0.0188(2) 0.39571(19)
H30 H -0.0353 0.0599 0.4287
C33 C 0.1354(3) -0.2221(2) 0.39746(19)
H31 H 0.0613 -0.2788 0.4320
C34 C 0.2653(3) -0.2567(2) 0.40669(19)
H32 H 0.2802 -0.3370 0.4464
C35 C 0.3744(3) -0.1735(3) 0.35754(19)
H33 H 0.4638 -0.1957 0.3650
C36 C 0.3524(2) -0.0579(2) 0.29759(19)
H34 H 0.4272 -0.0017 0.2638
loop_
_geom_bond_atom_site_label_1
_geom_bond_atom_site_label_2
_geom_bond_site_symmetry_1
_geom_bond_site_symmetry_2
O1 C1 1_555 1_555
O2 C2 1_555 1_555
O3 C9 1_555 1_555
N1 H1 1_555 1_555
C1 H2 1_555 1_555
H3 C1 1_555 1_555
H4 C1 1_555 1_555
C2 O1 1_555 1_555
C3 C2 1_555 1_555
H5 C3 1_555 1_555
C4 C3 1_555 1_555
H6 C4 1_555 1_555
C5 C4 1_555 1_555
C6 C5 1_555 1_555
C7 C6 1_555 1_555
C8 N1 1_555 1_555
C9 N1 1_555 1_555
C10 C9 1_555 1_555
H7 C10 1_555 1_555
H8 C10 1_555 1_555
H9 C10 1_555 1_555
C11 C5 1_555 1_555
H10 C11 1_555 1_555
C12 C11 1_555 1_555
H11 C12 1_555 1_555
C13 C12 1_555 1_555
H12 C13 1_555 1_555
C14 C6 1_555 1_555
H13 C14 1_555 1_555
C15 C8 1_555 1_555
H14 C15 1_555 1_555
C16 C15 1_555 1_555
H15 C16 1_555 1_555
C17 C16 1_555 1_555
H16 C17 1_555 1_555
C18 C7 1_555 1_555
H17 C18 1_555 1_555
O4 C27 1_555 1_555
O5 C27 1_555 1_555
O6 C20 1_555 1_555
N2 H18 1_555 1_555
C19 H19 1_555 1_555
H20 C19 1_555 1_555
H21 C19 1_555 1_555
C20 N2 1_555 1_555
C21 N2 1_555 1_555
C22 C21 1_555 1_555
C23 C22 1_555 1_555
C24 C23 1_555 1_555
C25 C24 1_555 1_555
H22 C25 1_555 1_555
C26 C25 1_555 1_555
H23 C26 1_555 1_555
C27 C26 1_555 1_555
C28 O4 1_555 1_555
H24 C28 1_555 1_555
H25 C28 1_555 1_555
H26 C28 1_555 1_555
C29 C21 1_555 1_555
H27 C29 1_555 1_555
C30 C29 1_555 1_555
H28 C30 1_555 1_555
C31 C30 1_555 1_555
H29 C31 1_555 1_555
C32 C22 1_555 1_555
H30 C32 1_555 1_555
C33 C23 1_555 1_555
H31 C33 1_555 1_555
C34 C33 1_555 1_555
H32 C34 1_555 1_555
C35 C34 1_555 1_555
H33 C35 1_555 1_555
C36 C24 1_555 1_555
H34 C36 1_555 1_555
C7 C8 1_555 1_555
C13 C14 1_555 1_555
C17 C18 1_555 1_555
C19 C20 1_555 1_555
C31 C32 1_555 1_555
C35 C36 1_555 1_555

#END
