
#######################################################################
#
#                 Cambridge Crystallographic Data Centre
#                                CCDC 
#
#######################################################################
#
# If this CIF has been generated from an entry in the Cambridge 
# Structural Database, then it will include bibliographic, chemical, 
# crystal, experimental, refinement or atomic coordinate data resulting 
# from the CCDC's data processing and validation procedures.
#
#######################################################################

data_KICYED
_chemical_formula_moiety         'C24 H32 O4'
_chemical_name_systematic        
'methyl 8-(benzyloxy)-1,4-dimethyl-7-(propan-2-yl)-2,3,3a,4,5,6,7,8-octahydro-4,7-epoxyazulene-6-carboxylate'
_symmetry_cell_setting           orthorhombic
_symmetry_space_group_name_H-M   'P 21 21 21'
_symmetry_Int_Tables_number      19
_space_group_name_Hall           'P 2ac 2ab'
loop_
_symmetry_equiv_pos_site_id
_symmetry_equiv_pos_as_xyz
1 x,y,z
2 1/2-x,-y,1/2+z
3 -x,1/2+y,1/2-z
4 1/2+x,1/2-y,-z
_cell_length_a                   6.2248(12)
_cell_length_b                   17.160(3)
_cell_length_c                   19.636(4)
_cell_angle_alpha                90
_cell_angle_beta                 90
_cell_angle_gamma                90
_cell_volume                     2097.47
_cell_formula_units_Z            4
loop_
_atom_site_label
_atom_site_type_symbol
_atom_site_fract_x
_atom_site_fract_y
_atom_site_fract_z
O1 O 0.71900(19) 0.51432(8) 0.18604(6)
O2 O 0.5294(2) 0.71882(8) 0.09918(7)
O3 O 0.1855(2) 0.68717(8) 0.11629(7)
O4 O 0.3921(2) 0.39484(7) 0.12523(6)
C1 C 0.8806(3) 0.55359(16) 0.29196(10)
H1 H 0.9353 0.5005 0.2982
H2 H 0.8524 0.5771 0.3366
H3 H 0.9877 0.5848 0.2676
C2 C 0.6753(3) 0.55105(12) 0.25125(9)
C3 C 0.6000(3) 0.63058(11) 0.22762(9)
H4 H 0.7205 0.6617 0.2091
H5 H 0.5306 0.6598 0.2651
C4 C 0.4388(3) 0.60957(9) 0.17210(8)
H6 H 0.2998 0.5972 0.1952
C5 C 0.5339(3) 0.52950(10) 0.14421(8)
C6 C 0.3626(3) 0.46659(10) 0.16146(9)
H7 H 0.2191 0.4880 0.1483
C7 C 0.3617(3) 0.45507(11) 0.23801(9)
C8 C 0.2637(4) 0.39689(12) 0.27210(11)
C9 C 0.3301(5) 0.39961(15) 0.34615(11)
H8 H 0.3600 0.3467 0.3639
H9 H 0.2180 0.4244 0.3746
C10 C 0.5350(4) 0.44927(15) 0.34410(10)
H10 H 0.6628 0.4169 0.3339
H11 H 0.5578 0.4769 0.3878
C11 C 0.4888(3) 0.50700(12) 0.28601(9)
H12 H 0.3873 0.5471 0.3042
C12 C 0.1100(4) 0.33786(12) 0.24537(14)
H13 H 0.0675 0.3520 0.1989
H14 H -0.0175 0.3362 0.2746
H15 H 0.1789 0.2865 0.2450
C13 C 0.3967(3) 0.67657(10) 0.12444(9)
C14 C 0.1227(4) 0.75123(12) 0.07261(12)
H16 H 0.1983 0.7986 0.0867
H17 H -0.0327 0.7595 0.0762
H18 H 0.1598 0.7389 0.0253
C15 C 0.6106(3) 0.52411(11) 0.06952(8)
H19 H 0.6553 0.4687 0.0626
C16 C 0.8073(4) 0.57269(12) 0.05406(10)
H20 H 0.8571 0.5614 0.0077
H21 H 0.9213 0.5601 0.0867
H22 H 0.7710 0.6281 0.0578
C17 C 0.4291(3) 0.53877(12) 0.01817(9)
H23 H 0.3833 0.5933 0.0210
H24 H 0.3073 0.5047 0.0287
H25 H 0.4809 0.5277 -0.0280
C18 C 0.5661(3) 0.34565(10) 0.14490(10)
H26 H 0.5645 0.3378 0.1948
H27 H 0.7045 0.3701 0.1323
C19 C 0.5422(3) 0.26854(10) 0.10907(9)
C20 C 0.7153(3) 0.21650(12) 0.10947(10)
H28 H 0.8441 0.2299 0.1326
C21 C 0.6997(4) 0.14556(12) 0.07634(11)
H29 H 0.8182 0.1107 0.0769
C22 C 0.5133(4) 0.12479(12) 0.04242(11)
H30 H 0.5043 0.0763 0.0193
C23 C 0.3402(4) 0.17547(12) 0.04253(11)
H31 H 0.2110 0.1615 0.0199
C24 C 0.3555(3) 0.24731(11) 0.07596(10)
H32 H 0.2361 0.2818 0.0759
loop_
_geom_bond_atom_site_label_1
_geom_bond_atom_site_label_2
_geom_bond_site_symmetry_1
_geom_bond_site_symmetry_2
O1 C2 1_555 1_555
O2 C13 1_555 1_555
O3 C13 1_555 1_555
O4 C6 1_555 1_555
C1 H1 1_555 1_555
H2 C1 1_555 1_555
H3 C1 1_555 1_555
C2 C1 1_555 1_555
C3 C2 1_555 1_555
H4 C3 1_555 1_555
H5 C3 1_555 1_555
C4 C3 1_555 1_555
H6 C4 1_555 1_555
C5 O1 1_555 1_555
C6 C5 1_555 1_555
H7 C6 1_555 1_555
C7 C6 1_555 1_555
C8 C7 1_555 1_555
C9 C8 1_555 1_555
H8 C9 1_555 1_555
H9 C9 1_555 1_555
C10 C9 1_555 1_555
H10 C10 1_555 1_555
H11 C10 1_555 1_555
C11 C2 1_555 1_555
H12 C11 1_555 1_555
C12 C8 1_555 1_555
H13 C12 1_555 1_555
H14 C12 1_555 1_555
H15 C12 1_555 1_555
C13 C4 1_555 1_555
C14 O3 1_555 1_555
H16 C14 1_555 1_555
H17 C14 1_555 1_555
H18 C14 1_555 1_555
C15 C5 1_555 1_555
H19 C15 1_555 1_555
C16 C15 1_555 1_555
H20 C16 1_555 1_555
H21 C16 1_555 1_555
H22 C16 1_555 1_555
C17 C15 1_555 1_555
H23 C17 1_555 1_555
H24 C17 1_555 1_555
H25 C17 1_555 1_555
C18 O4 1_555 1_555
H26 C18 1_555 1_555
H27 C18 1_555 1_555
C19 C18 1_555 1_555
C20 C19 1_555 1_555
H28 C20 1_555 1_555
C21 C20 1_555 1_555
H29 C21 1_555 1_555
C22 C21 1_555 1_555
H30 C22 1_555 1_555
C23 C22 1_555 1_555
H31 C23 1_555 1_555
C24 C19 1_555 1_555
H32 C24 1_555 1_555
C4 C5 1_555 1_555
C7 C11 1_555 1_555
C10 C11 1_555 1_555
C23 C24 1_555 1_555

#END
