
#######################################################################
#
#                 Cambridge Crystallographic Data Centre
#                                CCDC 
#
#######################################################################
#
# If this CIF has been generated from an entry in the Cambridge 
# Structural Database, then it will include bibliographic, chemical, 
# crystal, experimental, refinement or atomic coordinate data resulting 
# from the CCDC's data processing and validation procedures.
#
#######################################################################

data_KIDNIV
_chemical_formula_moiety         'C15 H17 N4 O1 1+,C8 H5 O4 1-'
_chemical_name_systematic        
'2-((Imidazol-1-yl)methyl)-6-((imidazol-3-ium-1-yl)methyl)-4-methylphenol isophthalate'
_symmetry_cell_setting           triclinic
_symmetry_space_group_name_H-M   'P -1'
_symmetry_Int_Tables_number      2
_space_group_name_Hall           '-P 1'
loop_
_symmetry_equiv_pos_site_id
_symmetry_equiv_pos_as_xyz
1 x,y,z
2 -x,-y,-z
_cell_length_a                   7.319(4)
_cell_length_b                   11.978(5)
_cell_length_c                   12.368(8)
_cell_angle_alpha                107.28(4)
_cell_angle_beta                 95.95(5)
_cell_angle_gamma                90.14(4)
_cell_volume                     1029.12
_exptl_crystal_colour            colorless
_exptl_crystal_description       block
_chemical_melting_point          169-170deg.C
_cell_formula_units_Z            2
loop_
_atom_site_label
_atom_site_type_symbol
_atom_site_fract_x
_atom_site_fract_y
_atom_site_fract_z
O1 O 0.2516(4) 0.2890(2) 0.7516(2)
N1 N 0.1091(4) 0.0735(2) 0.8517(2)
N2 N -0.1443(4) 0.1214(3) 0.9295(2)
N3 N 0.4247(4) 0.3355(2) 0.5005(2)
N4 N 0.6791(4) 0.3459(2) 0.4283(3)
C1 C 0.2513(4) 0.1895(3) 0.6609(3)
C2 C 0.2667(4) 0.0842(3) 0.6870(3)
C3 C 0.2653(4) -0.0200(3) 0.6000(3)
C4 C 0.2477(4) -0.0240(3) 0.4858(3)
C5 C 0.2360(4) 0.0814(3) 0.4630(3)
C6 C 0.2387(4) 0.1888(3) 0.5475(3)
C7 C 0.2456(6) -0.1378(4) 0.3913(4)
C8 C 0.2878(5) 0.0826(4) 0.8088(3)
C9 C 0.0115(5) 0.1612(3) 0.9076(3)
C10 C -0.1468(5) 0.0023(3) 0.8839(3)
C11 C 0.0093(5) -0.0285(3) 0.8361(3)
C12 C 0.2374(5) 0.2974(3) 0.5109(3)
C13 C 0.5115(5) 0.2987(3) 0.4073(3)
C14 C 0.7013(6) 0.4151(3) 0.5393(4)
C15 C 0.5448(5) 0.4092(3) 0.5852(3)
H4 H 0.285(4) -0.093(3) 0.621(3)
H5 H 0.221(4) 0.086(3) 0.377(3)
H6 H 0.054(4) 0.240(3) 0.928(3)
H7 H -0.259(6) -0.046(4) 0.889(3)
H8 H 0.064(5) -0.103(3) 0.802(3)
H9 H 0.455(5) 0.247(3) 0.334(3)
H10 H 0.813(6) 0.462(4) 0.567(4)
H11 H 0.512(5) 0.441(3) 0.659(3)
H13 H 0.225(10) -0.127(6) 0.318(7)
H14 H 0.364(8) -0.172(5) 0.381(5)
H15 H 0.153(7) -0.191(4) 0.398(4)
H16 H 0.347(4) 0.151(3) 0.858(3)
H17 H 0.352(5) 0.021(3) 0.817(3)
H18 H 0.188(5) 0.361(3) 0.562(3)
H19 H 0.154(6) 0.283(3) 0.429(4)
H20 H 0.240(6) 0.366(4) 0.747(4)
H22 H 0.776(7) 0.342(4) 0.352(5)
O2 O -0.6223(4) 0.7402(2) 0.9740(2)
O3 O -0.5122(3) 0.8268(2) 0.8570(2)
O4 O 0.0754(3) 0.6716(2) 0.7063(2)
O5 O 0.1818(3) 0.5068(2) 0.7296(2)
C16 C -0.3724(5) 0.6571(3) 0.8822(3)
C17 C -0.3934(9) 0.5619(6) 0.9183(7)
H1 H -0.4966 0.5539 0.9538
C18 C -0.2638(11) 0.4766(7) 0.9033(10)
H2 H -0.2802 0.4121 0.9289
C19 C -0.1098(8) 0.4866(5) 0.8503(6)
H3 H -0.0211 0.4301 0.8419
C20 C -0.0890(5) 0.5796(3) 0.8107(3)
C21 C -0.2210(4) 0.6646(3) 0.8269(3)
C22 C -0.5129(5) 0.7499(3) 0.9035(3)
C23 C 0.0694(4) 0.5855(3) 0.7461(3)
H12 H -0.203(5) 0.736(3) 0.798(3)
H21 H -0.729(8) 0.801(5) 1.014(5)
loop_
_geom_bond_atom_site_label_1
_geom_bond_atom_site_label_2
_geom_bond_site_symmetry_1
_geom_bond_site_symmetry_2
O1 C1 1_555 1_555
O2 C22 1_555 1_555
O3 C22 1_555 1_555
O4 C23 1_555 1_555
O5 C23 1_555 1_555
N1 C8 1_555 1_555
N2 C9 1_555 1_555
N3 C12 1_555 1_555
N4 C13 1_555 1_555
C1 C2 1_555 1_555
C2 C3 1_555 1_555
C3 C4 1_555 1_555
C4 C5 1_555 1_555
C5 C6 1_555 1_555
C6 C1 1_555 1_555
C7 C4 1_555 1_555
C8 C2 1_555 1_555
C9 N1 1_555 1_555
C10 N2 1_555 1_555
C11 N1 1_555 1_555
C12 C6 1_555 1_555
C13 N3 1_555 1_555
C14 N4 1_555 1_555
C15 N3 1_555 1_555
C16 C17 1_555 1_555
C17 H1 1_555 1_555
C18 C17 1_555 1_555
H2 C18 1_555 1_555
C19 C18 1_555 1_555
H3 C19 1_555 1_555
C20 C19 1_555 1_555
C21 C16 1_555 1_555
C22 C16 1_555 1_555
C23 C20 1_555 1_555
H4 C3 1_555 1_555
H5 C5 1_555 1_555
H6 C9 1_555 1_555
H7 C10 1_555 1_555
H8 C11 1_555 1_555
H9 C13 1_555 1_555
H10 C14 1_555 1_555
H11 C15 1_555 1_555
H12 C21 1_555 1_555
H13 C7 1_555 1_555
H14 C7 1_555 1_555
H15 C7 1_555 1_555
H16 C8 1_555 1_555
H17 C8 1_555 1_555
H18 C12 1_555 1_555
H19 C12 1_555 1_555
H20 O1 1_555 1_555
H21 O2 1_555 1_555
H22 N4 1_555 1_555
C10 C11 1_555 1_555
C14 C15 1_555 1_555
C20 C21 1_555 1_555

#END
