
#######################################################################
#
#                 Cambridge Crystallographic Data Centre
#                                CCDC 
#
#######################################################################
#
# If this CIF has been generated from an entry in the Cambridge 
# Structural Database, then it will include bibliographic, chemical, 
# crystal, experimental, refinement or atomic coordinate data resulting 
# from the CCDC's data processing and validation procedures.
#
#######################################################################

data_KIDQEV
_chemical_formula_moiety         'C21 H12 Br5 N1 O3'
_chemical_name_systematic        
1,2,3,4,5-Pentabromo-6-((4-(2-(4-nitrophenyl)vinyl)phenoxy)methyl)benzene
_symmetry_cell_setting           monoclinic
_symmetry_space_group_name_H-M   'P 21/c'
_symmetry_Int_Tables_number      14
_space_group_name_Hall           '-P 2ybc'
loop_
_symmetry_equiv_pos_site_id
_symmetry_equiv_pos_as_xyz
1 x,y,z
2 -x,1/2+y,1/2-z
3 -x,-y,-z
4 x,1/2-y,1/2+z
_cell_length_a                   17.1341(16)
_cell_length_b                   8.3500(7)
_cell_length_c                   16.4627(15)
_cell_angle_alpha                90
_cell_angle_beta                 111.0440(10)
_cell_angle_gamma                90
_cell_volume                     2198.23
_cell_formula_units_Z            4
loop_
_atom_site_label
_atom_site_type_symbol
_atom_site_fract_x
_atom_site_fract_y
_atom_site_fract_z
Br1 Br 0.71490(7) 0.48436(10) 0.10752(6)
Br2 Br 0.83149(7) 0.46973(10) -0.01022(6)
Br3 Br 0.97714(6) 0.73567(10) 0.01686(5)
Br4 Br 1.01862(7) 0.99361(11) 0.17407(6)
Br5 Br 0.90621(7) 1.00085(11) 0.29717(6)
N1 N 0.5240(6) 0.3837(12) 0.8897(6)
O1 O 0.7973(3) 0.6276(6) 0.3157(3)
O2 O 0.5548(5) 0.2943(8) 0.9507(4)
O3 O 0.4781(15) 0.506(3) 0.8945(14)
C1 C 0.7574(5) 0.6082(8) 0.3745(5)
C2 C 0.7912(5) 0.4948(8) 0.4380(5)
H1 H 0.8377 0.4364 0.4388
C3 C 0.7571(5) 0.4672(8) 0.5003(5)
H2 H 0.7809 0.3918 0.5438
C4 C 0.6858(6) 0.5532(9) 0.4984(5)
C5 C 0.6529(5) 0.6663(9) 0.4338(5)
H3 H 0.6067 0.7261 0.4324
C6 C 0.6878(5) 0.6914(9) 0.3710(5)
H4 H 0.6639 0.7650 0.3265
C7 C 0.6449(5) 0.5310(9) 0.5634(5)
H5 H 0.5969 0.5910 0.5549
C8 C 0.6690(6) 0.4368(9) 0.6309(5)
H6 H 0.7163 0.3743 0.6396
C9 C 0.6268(6) 0.4216(8) 0.6948(5)
C10 C 0.6674(5) 0.3308(9) 0.7698(5)
H7 H 0.7174 0.2787 0.7768
C11 C 0.6321(6) 0.3196(9) 0.8335(5)
H8 H 0.6580 0.2573 0.8827
C12 C 0.5622(6) 0.3966(10) 0.8249(5)
C13 C 0.5201(6) 0.4837(10) 0.7501(6)
H9 H 0.4699 0.5346 0.7438
C14 C 0.5532(6) 0.4940(9) 0.6855(5)
H10 H 0.5249 0.5512 0.6350
C15 C 0.7634(5) 0.7429(8) 0.2494(5)
H11 H 0.7638 0.8480 0.2747
H12 H 0.7062 0.7156 0.2142
C16 C 0.8178(5) 0.7422(9) 0.1944(5)
C17 C 0.8036(5) 0.6293(8) 0.1283(5)
C18 C 0.8517(5) 0.6263(8) 0.0768(5)
C19 C 0.9134(5) 0.7351(9) 0.0895(5)
C20 C 0.9299(5) 0.8471(8) 0.1547(5)
C21 C 0.8827(6) 0.8477(8) 0.2068(5)
O4? O 0.4489(18) 0.411(4) 0.8680(17)
loop_
_geom_bond_atom_site_label_1
_geom_bond_atom_site_label_2
_geom_bond_site_symmetry_1
_geom_bond_site_symmetry_2
Br1 C17 1_555 1_555
Br2 C18 1_555 1_555
Br3 C19 1_555 1_555
Br4 C20 1_555 1_555
Br5 C21 1_555 1_555
N1 O2 1_555 1_555
O1 C1 1_555 1_555
O3 N1 1_555 1_555
C1 C2 1_555 1_555
C2 H1 1_555 1_555
C3 C2 1_555 1_555
H2 C3 1_555 1_555
C4 C3 1_555 1_555
C5 C4 1_555 1_555
H3 C5 1_555 1_555
C6 C1 1_555 1_555
H4 C6 1_555 1_555
C7 C4 1_555 1_555
H5 C7 1_555 1_555
C8 C7 1_555 1_555
H6 C8 1_555 1_555
C9 C8 1_555 1_555
C10 C9 1_555 1_555
H7 C10 1_555 1_555
C11 C10 1_555 1_555
H8 C11 1_555 1_555
C12 N1 1_555 1_555
C13 C12 1_555 1_555
H9 C13 1_555 1_555
C14 C9 1_555 1_555
H10 C14 1_555 1_555
C15 O1 1_555 1_555
H11 C15 1_555 1_555
H12 C15 1_555 1_555
C16 C15 1_555 1_555
C17 C16 1_555 1_555
C18 C17 1_555 1_555
C19 C18 1_555 1_555
C20 C19 1_555 1_555
C21 C16 1_555 1_555
C5 C6 1_555 1_555
C11 C12 1_555 1_555
C13 C14 1_555 1_555
C20 C21 1_555 1_555

#END
