
#######################################################################
#
#                 Cambridge Crystallographic Data Centre
#                                CCDC 
#
#######################################################################
#
# If this CIF has been generated from an entry in the Cambridge 
# Structural Database, then it will include bibliographic, chemical, 
# crystal, experimental, refinement or atomic coordinate data resulting 
# from the CCDC's data processing and validation procedures.
#
#######################################################################

data_KIDREW
_chemical_formula_moiety         'C13 H9 F2 N1'
_chemical_name_systematic        2-Fluoro-N-(3-fluorobenzylidene)aniline
_symmetry_cell_setting           orthorhombic
_symmetry_space_group_name_H-M   'P 21 21 21'
_symmetry_Int_Tables_number      19
_space_group_name_Hall           'P 2ac 2ab'
loop_
_symmetry_equiv_pos_site_id
_symmetry_equiv_pos_as_xyz
1 x,y,z
2 1/2+x,1/2-y,-z
3 -x,1/2+y,1/2-z
4 1/2-x,-y,1/2+z
_cell_length_a                   6.4645(2)
_cell_length_b                   12.0553(4)
_cell_length_c                   13.1914(4)
_cell_angle_alpha                90
_cell_angle_beta                 90
_cell_angle_gamma                90
_cell_volume                     1028.03
_exptl_crystal_colour            colorless
_exptl_crystal_description       irregular
_cell_formula_units_Z            4
loop_
_atom_site_label
_atom_site_type_symbol
_atom_site_fract_x
_atom_site_fract_y
_atom_site_fract_z
C1 C 0.4273(3) 0.22844(16) 0.27178(15)
C2 C 0.2328(4) 0.22199(18) 0.22672(17)
H1 H 0.1230 0.1840 0.2597
C3 C 0.2010(4) 0.2724(2) 0.13202(18)
H2 H 0.0691 0.2682 0.1005
C4 C 0.3601(4) 0.32787(19) 0.08455(17)
H3 H 0.3397 0.3616 0.0202
C5 C 0.5492(4) 0.33352(18) 0.13223(17)
C6 C 0.5865(4) 0.28519(16) 0.22382(17)
H4 H 0.7193 0.2902 0.2543
C7 C 0.6564(3) 0.11428(16) 0.50563(15)
C8 C 0.5032(3) 0.10227(15) 0.57931(15)
H5 H 0.3718 0.1358 0.5694
C9 C 0.5407(4) 0.04197(17) 0.66685(16)
H6 H 0.4349 0.0344 0.7163
C10 C 0.7314(4) -0.00736(18) 0.68269(15)
H7 H 0.7553 -0.0493 0.7425
C11 C 0.8868(3) 0.00421(19) 0.61169(17)
H8 H 1.0182 -0.0292 0.6220
C12 C 0.8472(3) 0.06542(17) 0.52526(16)
C13 C 0.4600(3) 0.17166(16) 0.36928(15)
H9 H 0.3482 0.1330 0.3998
N1 N 0.6347(3) 0.17331(14) 0.41347(13)
F1 F 0.9992(2) 0.07529(12) 0.45508(11)
F2 F 0.7036(3) 0.38969(13) 0.08586(11)
loop_
_geom_bond_atom_site_label_1
_geom_bond_atom_site_label_2
_geom_bond_site_symmetry_1
_geom_bond_site_symmetry_2
C1 C2 1_555 1_555
C2 H1 1_555 1_555
C3 C2 1_555 1_555
H2 C3 1_555 1_555
C4 C3 1_555 1_555
H3 C4 1_555 1_555
C5 C4 1_555 1_555
C6 C1 1_555 1_555
H4 C6 1_555 1_555
C7 C8 1_555 1_555
C8 H5 1_555 1_555
C9 C8 1_555 1_555
H6 C9 1_555 1_555
C10 C9 1_555 1_555
H7 C10 1_555 1_555
C11 C10 1_555 1_555
H8 C11 1_555 1_555
C12 C7 1_555 1_555
C13 C1 1_555 1_555
H9 C13 1_555 1_555
N1 C7 1_555 1_555
F1 C12 1_555 1_555
F2 C5 1_555 1_555
C5 C6 1_555 1_555
C11 C12 1_555 1_555
C13 N1 1_555 1_555

#END
