
#######################################################################
#
#                 Cambridge Crystallographic Data Centre
#                                CCDC 
#
#######################################################################
#
# If this CIF has been generated from an entry in the Cambridge 
# Structural Database, then it will include bibliographic, chemical, 
# crystal, experimental, refinement or atomic coordinate data resulting 
# from the CCDC's data processing and validation procedures.
#
#######################################################################

data_KIDRIA
_chemical_formula_moiety         'C13 H9 F2 N1'
_chemical_name_systematic        3-Fluoro-N-(3-fluorobenzylidene)aniline
_symmetry_cell_setting           monoclinic
_symmetry_space_group_name_H-M   'P 21/c'
_symmetry_Int_Tables_number      14
_space_group_name_Hall           '-P 2ybc'
loop_
_symmetry_equiv_pos_site_id
_symmetry_equiv_pos_as_xyz
1 x,y,z
2 -x,1/2+y,1/2-z
3 -x,-y,-z
4 x,1/2-y,1/2+z
_cell_length_a                   7.2124(15)
_cell_length_b                   5.8634(13)
_cell_length_c                   12.443(3)
_cell_angle_alpha                90
_cell_angle_beta                 108.521(2)
_cell_angle_gamma                90
_cell_volume                     498.951
_cell_formula_units_Z            2
loop_
_atom_site_label
_atom_site_type_symbol
_atom_site_fract_x
_atom_site_fract_y
_atom_site_fract_z
F1 F 0.77567(11) 0.60482(19) 0.41401(6)
C1 C 0.64312(16) 0.3553(3) 0.13375(10)
C2 C 0.65414(16) 0.5118(3) 0.22060(9)
H1 H 0.5893 0.6548 0.2051
C3 C 0.76268(17) 0.4504(3) 0.32961(10)
C4 C 0.85838(17) 0.2463(3) 0.35763(10)
H2 H 0.9313 0.2116 0.4339
C5 C 0.84539(17) 0.0921(3) 0.27115(11)
H3 H 0.9099 -0.0511 0.2878
C6 C 0.73765(18) 0.1470(3) 0.15963(10)
H4 H 0.7290 0.0403 0.1008
C7 C 0.5254(9) 0.395(2) 0.0162(7)
H5 H 0.518(4) 0.257(7) -0.031(2)
F1B F 0.22433(11) 0.39518(19) -0.41401(6)
C1B C 0.35688(16) 0.6447(3) -0.13375(10)
C2B C 0.34586(16) 0.4882(3) -0.22060(9)
H1B H 0.4107 0.3452 -0.2051
C3B C 0.23732(17) 0.5496(3) -0.32961(10)
C4B C 0.14162(17) 0.7537(3) -0.35763(10)
H2B H 0.0687 0.7884 -0.4339
C5B C 0.15461(17) 0.9079(3) -0.27115(11)
H3B H 0.0901 1.0511 -0.2878
C6B C 0.26235(18) 0.8530(3) -0.15963(10)
H4B H 0.2710 0.9597 -0.1008
C7B C 0.4746(9) 0.605(2) -0.0162(7)
H5B H 0.482(4) 0.743(7) 0.031(2)
N1? N 0.5427(7) 0.407(2) 0.0155(6)
loop_
_geom_bond_atom_site_label_1
_geom_bond_atom_site_label_2
_geom_bond_site_symmetry_1
_geom_bond_site_symmetry_2
F1 C3 1_555 1_555
C1 C2 1_555 1_555
C2 H1 1_555 1_555
C3 C2 1_555 1_555
C4 C3 1_555 1_555
H2 C4 1_555 1_555
C5 C4 1_555 1_555
H3 C5 1_555 1_555
C6 C1 1_555 1_555
H4 C6 1_555 1_555
C7 C1 1_555 1_555
H5 C7 1_555 1_555
F1B C3B 1_555 1_555
C1B C2B 1_555 1_555
C2B H1B 1_555 1_555
C3B C2B 1_555 1_555
C4B C3B 1_555 1_555
H2B C4B 1_555 1_555
C5B C4B 1_555 1_555
H3B C5B 1_555 1_555
C6B C1B 1_555 1_555
H4B C6B 1_555 1_555
C7B C7 1_555 1_555
H5B C7B 1_555 1_555
C5 C6 1_555 1_555
C1B C7B 1_555 1_555
C5B C6B 1_555 1_555

#END
