
#######################################################################
#
#                 Cambridge Crystallographic Data Centre
#                                CCDC 
#
#######################################################################
#
# If this CIF has been generated from an entry in the Cambridge 
# Structural Database, then it will include bibliographic, chemical, 
# crystal, experimental, refinement or atomic coordinate data resulting 
# from the CCDC's data processing and validation procedures.
#
#######################################################################

data_KIDTOJ
_chemical_formula_moiety         'C46 H45 B1 N4 2+,2(Cl1 1-),1.5(C1 H2 Cl2)'
_chemical_name_systematic        
"1,1'-{4'-[bis(2,4,6-trimethylphenyl)boranyl][1,1'-biphenyl]-3,5-diyl}bis(3-methyl-1H-benzimidazol-3-ium) bis(chloride) dichloromethane solvate"
_symmetry_cell_setting           monoclinic
_symmetry_space_group_name_H-M   'P 21/c'
_symmetry_Int_Tables_number      14
_space_group_name_Hall           '-P 2ybc'
loop_
_symmetry_equiv_pos_site_id
_symmetry_equiv_pos_as_xyz
1 x,y,z
2 -x,1/2+y,1/2-z
3 -x,-y,-z
4 x,1/2-y,1/2+z
_cell_length_a                   21.2714(5)
_cell_length_b                   14.2277(3)
_cell_length_c                   15.3723(3)
_cell_angle_alpha                90
_cell_angle_beta                 91.2270(10)
_cell_angle_gamma                90
_cell_volume                     4651.25
_exptl_crystal_colour            colorless
_exptl_crystal_description       Block
_cell_formula_units_Z            4
loop_
_atom_site_label
_atom_site_type_symbol
_atom_site_fract_x
_atom_site_fract_y
_atom_site_fract_z
B1 B 0.86675(18) 0.5024(3) 0.1775(3)
N1 N 0.45567(12) 0.37708(17) 0.14376(16)
N2 N 0.41915(13) 0.32388(19) 0.01914(17)
N3 N 0.46980(11) 0.61550(18) 0.36682(16)
N4 N 0.43846(12) 0.66799(18) 0.49188(16)
C1 C 0.46554(15) 0.3700(2) 0.0580(2)
H1 H 0.5010 0.3948 0.0294
C2 C 0.37467(15) 0.3008(2) 0.0811(2)
C3 C 0.31773(17) 0.2530(3) 0.0730(3)
H2 H 0.3026 0.2291 0.0188
C4 C 0.28491(17) 0.2426(3) 0.1483(3)
H3 H 0.2458 0.2102 0.1460
C5 C 0.30688(17) 0.2779(3) 0.2286(3)
H4 H 0.2821 0.2693 0.2787
C6 C 0.36372(16) 0.3250(2) 0.2368(2)
H5 H 0.3790 0.3483 0.2912
C7 C 0.39712(14) 0.3361(2) 0.1606(2)
C8 C 0.4130(2) 0.3062(3) -0.0745(2)
H6 H 0.4516 0.3259 -0.1030
H7 H 0.3773 0.3418 -0.0985
H8 H 0.4061 0.2389 -0.0845
C9 C 0.48227(15) 0.6189(2) 0.4527(2)
H9 H 0.5174 0.5902 0.4812
C10 C 0.39346(14) 0.6961(2) 0.4302(2)
C11 C 0.33756(15) 0.7458(2) 0.4385(2)
H10 H 0.3240 0.7685 0.4931
C12 C 0.30315(16) 0.7599(3) 0.3631(3)
H11 H 0.2644 0.7929 0.3658
C13 C 0.32340(17) 0.7273(2) 0.2819(3)
H12 H 0.2982 0.7396 0.2314
C14 C 0.37863(15) 0.6782(2) 0.2734(2)
H13 H 0.3924 0.6562 0.2186
C15 C 0.41327(14) 0.6625(2) 0.3501(2)
C16 C 0.43298(19) 0.6782(3) 0.5858(2)
H14 H 0.4715 0.6554 0.6148
H15 H 0.3970 0.6414 0.6056
H16 H 0.4267 0.7445 0.6002
C17 C 0.50115(14) 0.5542(2) 0.30771(19)
C18 C 0.46368(14) 0.4944(2) 0.25770(19)
H17 H 0.4193 0.4940 0.2629
C19 C 0.49334(14) 0.4355(2) 0.19994(19)
C20 C 0.55782(14) 0.4353(2) 0.1918(2)
H18 H 0.5770 0.3936 0.1520
C21 C 0.59478(14) 0.4964(2) 0.24203(19)
C22 C 0.56632(14) 0.5566(2) 0.30109(19)
H19 H 0.5909 0.5983 0.3361
C23 C 0.66384(14) 0.4987(2) 0.2285(2)
C24 C 0.70693(15) 0.5069(2) 0.2984(2)
H20 H 0.6923 0.5134 0.3561
C25 C 0.77110(16) 0.5053(3) 0.2830(2)
H21 H 0.7999 0.5073 0.3310
C26 C 0.79432(15) 0.5009(2) 0.1985(2)
C27 C 0.75026(15) 0.4955(2) 0.1301(2)
H22 H 0.7647 0.4938 0.0720
C28 C 0.68609(15) 0.4926(2) 0.1440(2)
H23 H 0.6574 0.4865 0.0962
C29 C 0.88354(15) 0.5410(3) 0.0860(2)
C30 C 0.86334(16) 0.6318(3) 0.0585(2)
C31 C 0.87169(17) 0.6609(3) -0.0266(3)
H24 H 0.8586 0.7223 -0.0431
C32 C 0.89840(17) 0.6037(3) -0.0883(3)
C33 C 0.91839(17) 0.5152(3) -0.0621(3)
H25 H 0.9374 0.4752 -0.1034
C34 C 0.91164(15) 0.4827(3) 0.0228(2)
C35 C 0.93245(18) 0.3841(3) 0.0436(3)
H26 H 0.9640 0.3642 0.0019
H27 H 0.8962 0.3417 0.0397
H28 H 0.9507 0.3820 0.1026
C36 C 0.9067(2) 0.6373(4) -0.1804(3)
H29 H 0.8789 0.6910 -0.1919
H30 H 0.8962 0.5863 -0.2210
H31 H 0.9505 0.6565 -0.1882
C37 C 0.8341(2) 0.7002(3) 0.1213(3)
H32 H 0.7987 0.7324 0.0923
H33 H 0.8656 0.7465 0.1402
H34 H 0.8190 0.6658 0.1720
C38 C 0.91453(16) 0.4634(3) 0.2486(2)
C39 C 0.96397(18) 0.5198(3) 0.2810(3)
C40 C 1.0019(2) 0.4850(4) 0.3510(3)
H35 H 1.0350 0.5232 0.3740
C41 C 0.9920(3) 0.3963(4) 0.3872(3)
C42 C 0.9463(2) 0.3412(4) 0.3519(3)
H36 H 0.9409 0.2793 0.3737
C43 C 0.90716(18) 0.3727(3) 0.2848(3)
C44 C 0.8578(2) 0.3042(4) 0.2510(4)
H37 H 0.8703 0.2400 0.2666
H38 H 0.8539 0.3097 0.1876
H39 H 0.8173 0.3188 0.2770
C45 C 0.9768(2) 0.6171(4) 0.2453(4)
H40 H 0.9701 0.6170 0.1820
H41 H 1.0205 0.6348 0.2591
H42 H 0.9483 0.6625 0.2717
C46 C 1.0337(3) 0.3615(6) 0.4616(4)
H43 H 1.0457 0.2961 0.4509
H44 H 1.0107 0.3653 0.5161
H45 H 1.0715 0.4006 0.4661
C47 C 0.2308(4) 0.5452(6) 0.4553(6)
H46 H 0.2723 0.5456 0.4856
H47 H 0.2377 0.5651 0.3945
Cl1 Cl 0.18650(18) 0.6259(2) 0.5015(3)
Cl2 Cl 0.20542(18) 0.4350(2) 0.4527(3)
C48 C 0.2472(2) 0.9697(4) 0.6172(3)
H48 H 0.2920 0.9772 0.6024
H49 H 0.2228 1.0176 0.5843
Cl3 Cl 0.22164(6) 0.85683(9) 0.58437(8)
Cl4 Cl 0.23899(12) 0.98913(13) 0.72677(11)
Cl5 Cl 0.59064(4) 0.42714(6) -0.05634(5)
Cl6 Cl 0.61932(4) 0.55486(5) 0.54558(5)
loop_
_geom_bond_atom_site_label_1
_geom_bond_atom_site_label_2
_geom_bond_site_symmetry_1
_geom_bond_site_symmetry_2
B1 C26 1_555 1_555
N1 C1 1_555 1_555
N2 C1 1_555 1_555
N3 C9 1_555 1_555
N4 C9 1_555 1_555
C1 H1 1_555 1_555
C2 N2 1_555 1_555
C3 C2 1_555 1_555
H2 C3 1_555 1_555
C4 C3 1_555 1_555
H3 C4 1_555 1_555
C5 C4 1_555 1_555
H4 C5 1_555 1_555
C6 C5 1_555 1_555
H5 C6 1_555 1_555
C7 N1 1_555 1_555
C8 N2 1_555 1_555
H6 C8 1_555 1_555
H7 C8 1_555 1_555
H8 C8 1_555 1_555
C9 H9 1_555 1_555
C10 N4 1_555 1_555
C11 C10 1_555 1_555
H10 C11 1_555 1_555
C12 C11 1_555 1_555
H11 C12 1_555 1_555
C13 C12 1_555 1_555
H12 C13 1_555 1_555
C14 C13 1_555 1_555
H13 C14 1_555 1_555
C15 N3 1_555 1_555
C16 N4 1_555 1_555
H14 C16 1_555 1_555
H15 C16 1_555 1_555
H16 C16 1_555 1_555
C17 N3 1_555 1_555
C18 C17 1_555 1_555
H17 C18 1_555 1_555
C19 N1 1_555 1_555
C20 C19 1_555 1_555
H18 C20 1_555 1_555
C21 C20 1_555 1_555
C22 C17 1_555 1_555
H19 C22 1_555 1_555
C23 C21 1_555 1_555
C24 C23 1_555 1_555
H20 C24 1_555 1_555
C25 C24 1_555 1_555
H21 C25 1_555 1_555
C26 C25 1_555 1_555
C27 C26 1_555 1_555
H22 C27 1_555 1_555
C28 C23 1_555 1_555
H23 C28 1_555 1_555
C29 B1 1_555 1_555
C30 C29 1_555 1_555
C31 C30 1_555 1_555
H24 C31 1_555 1_555
C32 C31 1_555 1_555
C33 C32 1_555 1_555
H25 C33 1_555 1_555
C34 C29 1_555 1_555
C35 C34 1_555 1_555
H26 C35 1_555 1_555
H27 C35 1_555 1_555
H28 C35 1_555 1_555
C36 C32 1_555 1_555
H29 C36 1_555 1_555
H30 C36 1_555 1_555
H31 C36 1_555 1_555
C37 C30 1_555 1_555
H32 C37 1_555 1_555
H33 C37 1_555 1_555
H34 C37 1_555 1_555
C38 B1 1_555 1_555
C39 C38 1_555 1_555
C40 C39 1_555 1_555
H35 C40 1_555 1_555
C41 C40 1_555 1_555
C42 C41 1_555 1_555
H36 C42 1_555 1_555
C43 C38 1_555 1_555
C44 C43 1_555 1_555
H37 C44 1_555 1_555
H38 C44 1_555 1_555
H39 C44 1_555 1_555
C45 C39 1_555 1_555
H40 C45 1_555 1_555
H41 C45 1_555 1_555
H42 C45 1_555 1_555
C46 C41 1_555 1_555
H43 C46 1_555 1_555
H44 C46 1_555 1_555
H45 C46 1_555 1_555
C47 H46 1_555 1_555
H47 C47 1_555 1_555
Cl1 C47 1_555 1_555
Cl2 C47 1_555 1_555
C48 H48 1_555 1_555
H49 C48 1_555 1_555
Cl3 C48 1_555 1_555
Cl4 C48 1_555 1_555
C2 C7 1_555 1_555
C6 C7 1_555 1_555
C10 C15 1_555 1_555
C14 C15 1_555 1_555
C18 C19 1_555 1_555
C21 C22 1_555 1_555
C27 C28 1_555 1_555
C33 C34 1_555 1_555
C42 C43 1_555 1_555

#END
