
#######################################################################
#
#                 Cambridge Crystallographic Data Centre
#                                CCDC 
#
#######################################################################
#
# If this CIF has been generated from an entry in the Cambridge 
# Structural Database, then it will include bibliographic, chemical, 
# crystal, experimental, refinement or atomic coordinate data resulting 
# from the CCDC's data processing and validation procedures.
#
#######################################################################

data_KIDVAW
_chemical_formula_moiety         'C18 H17 F3 O3'
_chemical_name_systematic        
'Methyl 2-hydroxy-4-methyl-3-(2-phenylethyl)-6-(trifluoromethyl)benzoate'
_symmetry_cell_setting           triclinic
_symmetry_space_group_name_H-M   'P -1'
_symmetry_Int_Tables_number      2
_space_group_name_Hall           '-P 1'
loop_
_symmetry_equiv_pos_site_id
_symmetry_equiv_pos_as_xyz
1 x,y,z
2 -x,-y,-z
_cell_length_a                   5.1267(4)
_cell_length_b                   13.0479(9)
_cell_length_c                   13.6958(9)
_cell_angle_alpha                114.829(5)
_cell_angle_beta                 98.070(5)
_cell_angle_gamma                98.626(5)
_cell_volume                     800.668
_exptl_crystal_colour            colorless
_exptl_crystal_description       prism
_cell_formula_units_Z            2
loop_
_atom_site_label
_atom_site_type_symbol
_atom_site_fract_x
_atom_site_fract_y
_atom_site_fract_z
C1 C 0.1186(9) -0.0176(4) 0.3074(3)
H1 H 0.2608 -0.0114 0.3636
C2 C 0.0995(9) -0.0914(4) 0.1976(3)
H2 H 0.2310 -0.1363 0.1793
C3 C -0.2931(9) -0.0372(4) 0.1428(4)
H3 H -0.4362 -0.0437 0.0868
C4 C -0.2799(9) 0.0374(4) 0.2515(3)
H4 H -0.4121 0.0819 0.2698
C5 C -0.0328(5) 0.50423(19) 0.70523(19)
C6 C -0.0221(5) 0.41163(19) 0.60605(19)
C7 C 0.1489(5) 0.3357(2) 0.6028(2)
C8 C 0.2969(5) 0.3478(2) 0.7015(2)
C9 C 0.2795(5) 0.4374(2) 0.8015(2)
H5 H 0.3783 0.4444 0.8689
C10 C 0.1239(5) 0.5154(2) 0.80463(19)
C11 C -0.2097(5) 0.5815(2) 0.6959(2)
C12 C -0.3329(9) 0.7600(3) 0.7792(3)
H6 H -0.2721 0.8344 0.8461
H7 H -0.5167 0.7225 0.7758
H8 H -0.3326 0.7736 0.7140
C13 C 0.1589(5) 0.2434(2) 0.4917(2)
H9 H 0.3400 0.2257 0.4962
H10 H 0.1343 0.2740 0.4369
C14 C -0.0571(6) 0.1309(2) 0.4515(2)
H11 H -0.0150 0.0933 0.4994
H12 H -0.2355 0.1500 0.4585
C15 C -0.0741(5) 0.0470(2) 0.3334(2)
C16 C -0.1037(6) -0.1025(2) 0.1135(2)
H13 H -0.1124 -0.1532 0.0384
C17 C 0.4776(6) 0.2676(2) 0.7067(3)
H14 H 0.4712 0.2095 0.6317
H15 H 0.4143 0.2284 0.7493
H16 H 0.6642 0.3129 0.7425
C18 C 0.1238(6) 0.6073(2) 0.9183(2)
F1 F -0.1241(3) 0.61357(14) 0.93608(13)
F2 F 0.2534(4) 0.71362(14) 0.93971(14)
F3 F 0.2486(4) 0.58557(18) 0.99787(13)
O1 O -0.1710(4) 0.38862(16) 0.50660(14)
O2 O -0.3869(4) 0.55480(17) 0.61619(17)
O3 O -0.1509(5) 0.68533(18) 0.78149(16)
H17 H -0.272(7) 0.438(3) 0.518(3)
C19? C 0.0239(15) -0.0520(4) 0.2990(6)
H18? H 0.1059 -0.0687 0.3556
C20? C 0.0173(15) -0.1299(7) 0.1923(4)
H19? H 0.0901 -0.1966 0.1750
C21? C -0.2088(16) -0.0052(5) 0.1373(6)
H20? H -0.2897 0.0112 0.0804
C22? C -0.1912(15) 0.0670(7) 0.2474(5)
H21? H -0.2633 0.1340 0.2650
loop_
_geom_bond_atom_site_label_1
_geom_bond_atom_site_label_2
_geom_bond_site_symmetry_1
_geom_bond_site_symmetry_2
C1 H1 1_555 1_555
C2 C1 1_555 1_555
H2 C2 1_555 1_555
C3 H3 1_555 1_555
C4 C3 1_555 1_555
H4 C4 1_555 1_555
C5 C6 1_555 1_555
C6 C7 1_555 1_555
C7 C8 1_555 1_555
C8 C9 1_555 1_555
C9 H5 1_555 1_555
C10 C5 1_555 1_555
C11 C5 1_555 1_555
C12 H6 1_555 1_555
H7 C12 1_555 1_555
H8 C12 1_555 1_555
C13 C7 1_555 1_555
H9 C13 1_555 1_555
H10 C13 1_555 1_555
C14 C13 1_555 1_555
H11 C14 1_555 1_555
H12 C14 1_555 1_555
C15 C1 1_555 1_555
C16 C2 1_555 1_555
H13 C16 1_555 1_555
C17 C8 1_555 1_555
H14 C17 1_555 1_555
H15 C17 1_555 1_555
H16 C17 1_555 1_555
C18 C10 1_555 1_555
F1 C18 1_555 1_555
F2 C18 1_555 1_555
F3 C18 1_555 1_555
O1 C6 1_555 1_555
O2 C11 1_555 1_555
O3 C11 1_555 1_555
H17 O1 1_555 1_555
C3 C16 1_555 1_555
C4 C15 1_555 1_555
C9 C10 1_555 1_555
C12 O3 1_555 1_555
C14 C15 1_555 1_555

#END
