
#######################################################################
#
#                 Cambridge Crystallographic Data Centre
#                                CCDC 
#
#######################################################################
#
# If this CIF has been generated from an entry in the Cambridge 
# Structural Database, then it will include bibliographic, chemical, 
# crystal, experimental, refinement or atomic coordinate data resulting 
# from the CCDC's data processing and validation procedures.
#
#######################################################################

data_KIDVEZ
_chemical_formula_moiety         'C16 H22 N8 O2,6(H2 O1)'
_chemical_name_systematic        
'1,10-bis(2-Pyrazinylcarbonyl)-1,4,7,10-tetraazadecane hexahydrate'
_symmetry_cell_setting           monoclinic
_symmetry_space_group_name_H-M   'P 21/c'
_symmetry_Int_Tables_number      14
_space_group_name_Hall           '-P 2ybc'
loop_
_symmetry_equiv_pos_site_id
_symmetry_equiv_pos_as_xyz
1 x,y,z
2 -x,1/2+y,1/2-z
3 -x,-y,-z
4 x,1/2-y,1/2+z
_cell_length_a                   4.6039(9)
_cell_length_b                   6.8600(14)
_cell_length_c                   38.115(8)
_cell_angle_alpha                90
_cell_angle_beta                 93.143(4)
_cell_angle_gamma                90
_cell_volume                     1201.97
_cell_formula_units_Z            2
loop_
_atom_site_label
_atom_site_type_symbol
_atom_site_fract_x
_atom_site_fract_y
_atom_site_fract_z
O1 O 0.7731(6) 0.5020(3) 0.65961(6)
N1 N 0.2343(7) 0.7815(6) 0.72783(8)
N2 N 0.4902(6) 0.9738(4) 0.67316(7)
N3 N 0.8583(5) 0.7880(3) 0.63261(6)
H1 H 0.8048 0.9087 0.6317
N4 N 1.0660(4) 0.6022(3) 0.54539(5)
H2 H 1.1904 0.5145 0.5519
C1 C 0.4116(8) 0.6919(6) 0.70662(8)
H3 H 0.4498 0.5601 0.7102
C2 C 0.1876(8) 0.9683(8) 0.72099(10)
H4 H 0.0654 1.0377 0.7351
C3 C 0.3121(8) 1.0638(6) 0.69394(10)
H5 H 0.2703 1.1950 0.6901
C4 C 0.5404(6) 0.7852(5) 0.67974(7)
C5 C 0.7357(6) 0.6786(4) 0.65618(7)
C6 C 1.0463(6) 0.7146(4) 0.60634(6)
H6 H 1.1451 0.5983 0.6152
H7 H 1.1929 0.8117 0.6018
C7 C 0.8746(5) 0.6669(4) 0.57231(6)
H8 H 0.7344 0.5652 0.5766
H9 H 0.7684 0.7816 0.5640
C8 C 0.9008(6) 0.5277(4) 0.51423(6)
H10 H 0.7654 0.6268 0.5054
H11 H 0.7891 0.4146 0.5207
O1B O 1.2269(6) 0.4980(3) 0.34039(6)
N1B N 1.7657(7) 0.2185(6) 0.27217(8)
N2B N 1.5098(6) 0.0262(4) 0.32684(7)
N3B N 1.1417(5) 0.2120(3) 0.36739(6)
H1B H 1.1952 0.0913 0.3683
N4B N 0.9340(4) 0.3978(3) 0.45461(5)
H2B H 0.8096 0.4855 0.4481
C1B C 1.5884(8) 0.3081(6) 0.29338(8)
H3B H 1.5502 0.4399 0.2898
C2B C 1.8124(8) 0.0317(8) 0.27901(10)
H4B H 1.9346 -0.0377 0.2649
C3B C 1.6879(8) -0.0638(6) 0.30606(10)
H5B H 1.7297 -0.1950 0.3099
C4B C 1.4596(6) 0.2148(5) 0.32026(7)
C5B C 1.2643(6) 0.3214(4) 0.34382(7)
C6B C 0.9537(6) 0.2854(4) 0.39366(6)
H6B H 0.8549 0.4017 0.3848
H7B H 0.8071 0.1883 0.3982
C7B C 1.1254(5) 0.3331(4) 0.42769(6)
H8B H 1.2656 0.4348 0.4234
H9B H 1.2316 0.2184 0.4360
C8B C 1.0992(6) 0.4723(4) 0.48577(6)
H10B H 1.2346 0.3732 0.4946
H11B H 1.2109 0.5854 0.4793
O2 O 0.2607(5) 0.9690(3) 0.51977(6)
H12 H 0.238(6) 0.859(2) 0.5290(7)
H13 H 0.403(10) 0.970(6) 0.5065(15)
O3 O 0.3235(5) 0.2344(3) 0.57354(6)
H15 H 0.484(4) 0.225(5) 0.5853(7)
H16 H 0.306(6) 0.151(4) 0.5573(6)
O4 O 0.8432(5) 0.1969(3) 0.61265(6)
H17 H 0.841(6) 0.287(3) 0.6280(6)
H18 H 0.985(5) 0.212(4) 0.5997(7)
H14? H 0.129(9) 0.995(6) 0.5041(13)
loop_
_geom_bond_atom_site_label_1
_geom_bond_atom_site_label_2
_geom_bond_site_symmetry_1
_geom_bond_site_symmetry_2
O1 C5 1_555 1_555
N1 C1 1_555 1_555
N2 C3 1_555 1_555
N3 H1 1_555 1_555
N4 H2 1_555 1_555
C1 H3 1_555 1_555
C2 N1 1_555 1_555
H4 C2 1_555 1_555
C3 C2 1_555 1_555
H5 C3 1_555 1_555
C4 N2 1_555 1_555
C5 N3 1_555 1_555
C6 N3 1_555 1_555
H6 C6 1_555 1_555
H7 C6 1_555 1_555
C7 N4 1_555 1_555
H8 C7 1_555 1_555
H9 C7 1_555 1_555
C8 N4 1_555 1_555
H10 C8 1_555 1_555
H11 C8 1_555 1_555
O2 H12 1_555 1_555
H13 O2 1_555 1_555
O3 H15 1_555 1_555
H16 O3 1_555 1_555
O4 H17 1_555 1_555
H18 O4 1_555 1_555
O1B C5B 1_555 1_555
N1B C1B 1_555 1_555
N2B C3B 1_555 1_555
N3B H1B 1_555 1_555
N4B H2B 1_555 1_555
C1B H3B 1_555 1_555
C2B N1B 1_555 1_555
H4B C2B 1_555 1_555
C3B C2B 1_555 1_555
H5B C3B 1_555 1_555
C4B N2B 1_555 1_555
C5B N3B 1_555 1_555
C6B N3B 1_555 1_555
H6B C6B 1_555 1_555
H7B C6B 1_555 1_555
C7B N4B 1_555 1_555
H8B C7B 1_555 1_555
H9B C7B 1_555 1_555
C8B C8 1_555 1_555
H10B C8B 1_555 1_555
H11B C8B 1_555 1_555
C1 C4 1_555 1_555
C4 C5 1_555 1_555
C6 C7 1_555 1_555
N4B C8B 1_555 1_555
C1B C4B 1_555 1_555
C4B C5B 1_555 1_555
C6B C7B 1_555 1_555

#END
