
#######################################################################
#
#                 Cambridge Crystallographic Data Centre
#                                CCDC 
#
#######################################################################
#
# If this CIF has been generated from an entry in the Cambridge 
# Structural Database, then it will include bibliographic, chemical, 
# crystal, experimental, refinement or atomic coordinate data resulting 
# from the CCDC's data processing and validation procedures.
#
#######################################################################

data_KIDXON
_chemical_formula_moiety         'C27 H17 N1 O5,1.5(C2 H6 O1 S1),0.5(H2 O1)'
_chemical_name_systematic        
'9-(4-hydroxy-2-oxo-2H-1-benzopyran-3-yl)-2-methyl-8-phenylpyrano[2,3-e]indol-4(7H)-one dimethyl sulfoxide solvate hemihydrate'
_symmetry_cell_setting           monoclinic
_symmetry_space_group_name_H-M   'P 21/c'
_symmetry_Int_Tables_number      14
_space_group_name_Hall           '-P 2ybc'
loop_
_symmetry_equiv_pos_site_id
_symmetry_equiv_pos_as_xyz
1 x,y,z
2 -x,1/2+y,1/2-z
3 -x,-y,-z
4 x,1/2-y,1/2+z
_cell_length_a                   20.451(2)
_cell_length_b                   29.075(3)
_cell_length_c                   9.8797(9)
_cell_angle_alpha                90
_cell_angle_beta                 103.894(2)
_cell_angle_gamma                90
_cell_volume                     5702.72
_exptl_crystal_colour            colorless
_exptl_crystal_description       block
_cell_formula_units_Z            8
loop_
_atom_site_label
_atom_site_type_symbol
_atom_site_fract_x
_atom_site_fract_y
_atom_site_fract_z
C1 C 0.0137(3) 0.39671(16) 0.6459(5)
H1 H 0.0376 0.3730 0.7056
H2 H -0.0336 0.3899 0.6228
H3 H 0.0296 0.3981 0.5620
C2 C 0.0255(2) 0.44186(15) 0.7192(4)
C3 C 0.0005(2) 0.48199(15) 0.6685(4)
H4 H -0.0256 0.4833 0.5776
C4 C 0.0125(2) 0.52360(15) 0.7495(4)
C5 C 0.05367(19) 0.51825(13) 0.8896(4)
C6 C 0.07741(19) 0.47482(13) 0.9354(4)
C7 C 0.11353(18) 0.46732(12) 1.0726(4)
C8 C 0.12431(19) 0.50542(13) 1.1632(4)
C9 C 0.1026(2) 0.54970(13) 1.1201(4)
H5 H 0.1115 0.5744 1.1816
C10 C 0.0681(2) 0.55567(14) 0.9853(4)
H6 H 0.0536 0.5850 0.9547
C11 C 0.14051(19) 0.42761(13) 1.1522(4)
C12 C 0.1368(2) 0.37925(13) 1.1054(4)
C13 C 0.1854(2) 0.36372(16) 1.0319(4)
C14 C 0.0903(2) 0.34956(14) 1.1305(4)
C15 C 0.0888(2) 0.30234(14) 1.0838(5)
C16 C 0.1361(3) 0.28906(16) 1.0128(5)
C17 C 0.1396(3) 0.24410(19) 0.9669(6)
H7 H 0.1718 0.2356 0.9194
C18 C 0.0944(4) 0.2128(2) 0.9936(7)
H8 H 0.0961 0.1824 0.9646
C19 C 0.0460(4) 0.2256(2) 1.0631(8)
H9 H 0.0154 0.2039 1.0800
C20 C 0.0433(3) 0.26965(17) 1.1069(6)
H10 H 0.0104 0.2780 1.1529
C21 C 0.1660(2) 0.44276(13) 1.2866(4)
C22 C 0.1950(2) 0.41621(13) 1.4129(4)
C23 C 0.2423(2) 0.38262(16) 1.4125(5)
H11 H 0.2579 0.3776 1.3328
C24 C 0.2665(3) 0.35642(17) 1.5295(6)
H12 H 0.2978 0.3334 1.5276
C25 C 0.2454(3) 0.36365(18) 1.6477(6)
H13 H 0.2627 0.3460 1.7267
C26 C 0.1984(3) 0.39725(18) 1.6502(5)
H14 H 0.1833 0.4021 1.7306
C27 C 0.1737(2) 0.42379(15) 1.5328(4)
H15 H 0.1425 0.4469 1.5351
N1 N 0.15664(17) 0.48989(11) 1.2931(3)
O1 O 0.04368(16) 0.35976(10) 1.1985(4)
H16 H 0.0475 0.3868 1.2228
O2 O 0.18275(17) 0.31918(11) 0.9859(3)
O3 O 0.23017(19) 0.38701(13) 1.0063(4)
O4 O 0.06516(13) 0.43711(9) 0.8505(3)
O5 O -0.01301(15) 0.56101(10) 0.7020(3)
C28 C 0.5579(3) 0.61438(17) 0.2003(5)
H17 H 0.5603 0.6386 0.2675
H18 H 0.6026 0.6047 0.1991
H19 H 0.5352 0.6254 0.1096
C29 C 0.5200(2) 0.57482(15) 0.2388(4)
C30 C 0.5060(2) 0.53498(15) 0.1718(4)
H20 H 0.5215 0.5301 0.0918
C31 C 0.4680(2) 0.49924(15) 0.2184(4)
C32 C 0.4397(2) 0.51163(13) 0.3353(4)
C33 C 0.45804(19) 0.55370(13) 0.4003(4)
C34 C 0.43458(19) 0.56705(13) 0.5159(4)
C35 C 0.39004(19) 0.53750(14) 0.5614(4)
C36 C 0.3688(2) 0.49562(14) 0.4943(4)
H21 H 0.3382 0.4769 0.5241
C37 C 0.3943(2) 0.48322(14) 0.3852(4)
H22 H 0.3816 0.4552 0.3415
C38 C 0.4074(2) 0.59965(13) 0.7013(4)
C39 C 0.3995(2) 0.62866(14) 0.8167(4)
C40 C 0.3987(3) 0.67631(17) 0.8062(6)
H23 H 0.4026 0.6900 0.7234
C41 C 0.3925(3) 0.7034(2) 0.9160(7)
H24 H 0.3924 0.7353 0.9076
C42 C 0.3864(3) 0.6835(2) 1.0385(7)
H25 H 0.3819 0.7018 1.1130
C43 C 0.3869(3) 0.6367(2) 1.0506(6)
H26 H 0.3828 0.6233 1.1335
C44 C 0.3934(2) 0.60945(18) 0.9416(5)
H27 H 0.3938 0.5776 0.9515
C45 C 0.44610(19) 0.60609(13) 0.6057(4)
C46 C 0.4911(2) 0.64514(13) 0.5965(4)
C47 C 0.5529(2) 0.65066(13) 0.6830(4)
C48 C 0.5953(2) 0.68890(14) 0.6655(4)
C49 C 0.6594(2) 0.69732(16) 0.7499(5)
H28 H 0.6773 0.6777 0.8239
C50 C 0.6961(3) 0.73413(18) 0.7248(5)
H29 H 0.7388 0.7394 0.7815
C51 C 0.6701(3) 0.76357(19) 0.6157(6)
H30 H 0.6955 0.7885 0.5991
C52 C 0.6073(3) 0.75636(18) 0.5317(5)
H31 H 0.5895 0.7765 0.4590
C53 C 0.5710(2) 0.71895(15) 0.5565(4)
C54 C 0.4678(2) 0.67678(14) 0.4841(5)
N2 N 0.37384(17) 0.55786(11) 0.6748(3)
O6 O 0.45864(16) 0.46118(10) 0.1595(3)
O7 O 0.49901(13) 0.58443(9) 0.3558(3)
O8 O 0.58062(14) 0.62244(10) 0.7880(3)
H32 H 0.5545 0.6014 0.7917
O9 O 0.50866(16) 0.71243(10) 0.4667(3)
O10 O 0.41369(17) 0.67506(11) 0.4003(4)
O11 O 0.1703(2) 0.54630(14) 0.5268(4)
S2 S 0.8256(4) 0.3106(3) 0.1980(10)
C57 C 0.8991(10) 0.3144(9) 0.320(2)
H39 H 0.8914 0.3290 0.4022
H40 H 0.9169 0.2841 0.3436
H41 H 0.9307 0.3322 0.2844
C58 C 0.8105(15) 0.3679(5) 0.160(3)
H42 H 0.7966 0.3827 0.2353
H43 H 0.8510 0.3822 0.1473
H44 H 0.7756 0.3709 0.0759
O13 O 0.8468(10) 0.2879(5) 0.0835(19)
S3 S 0.25250(19) 0.64296(12) 0.4428(4)
C59 C 0.2498(10) 0.6960(6) 0.345(3)
H45 H 0.2947 0.7048 0.3426
H46 H 0.2235 0.6914 0.2514
H47 H 0.2297 0.7198 0.3889
C60 C 0.2725(6) 0.6092(4) 0.3217(13)
H48 H 0.3194 0.6128 0.3242
H49 H 0.2636 0.5777 0.3402
H50 H 0.2460 0.6177 0.2313
O14 O 0.1783(9) 0.6357(7) 0.433(2)
S5 S 0.24898(11) 0.49313(9) 0.8745(2)
C63 C 0.2679(4) 0.5166(4) 1.0475(7)
H57 H 0.2602 0.4936 1.1117
H58 H 0.3143 0.5260 1.0731
H59 H 0.2395 0.5426 1.0503
C64 C 0.3198(3) 0.4565(3) 0.8955(9)
H60 H 0.3152 0.4312 0.9551
H61 H 0.3227 0.4449 0.8061
H62 H 0.3599 0.4734 0.9366
O16 O 0.2622(3) 0.53079(17) 0.7803(4)
S1? S 0.8574(6) 0.3347(5) 0.1398(14)
C55? C 0.7840(15) 0.3452(14) 0.203(5)
H33? H 0.7949 0.3413 0.3028
H34? H 0.7686 0.3760 0.1805
H35? H 0.7493 0.3238 0.1612
C56? C 0.9002(12) 0.3517(10) 0.303(2)
H36? H 0.8770 0.3410 0.3706
H37? H 0.9449 0.3391 0.3236
H38? H 0.9029 0.3847 0.3065
O12? O 0.860(2) 0.3375(15) -0.015(3)
S4? S 0.2019(6) 0.6612(4) 0.3476(13)
C61? C 0.2591(13) 0.6961(9) 0.472(3)
H51? H 0.2824 0.7168 0.4241
H52? H 0.2344 0.7135 0.5260
H53? H 0.2912 0.6768 0.5332
C62? C 0.2581(15) 0.6389(12) 0.265(4)
H54? H 0.2796 0.6634 0.2267
H55? H 0.2913 0.6215 0.3296
H56? H 0.2351 0.6191 0.1906
O15? O 0.163(2) 0.6275(15) 0.414(5)
S6? S 0.2464(14) 0.5113(13) 0.910(5)
C65? C 0.272(4) 0.552(2) 1.042(7)
H63? H 0.2437 0.5786 1.0220
H64? H 0.2688 0.5390 1.1296
H65? H 0.3179 0.5606 1.0473
C66? C 0.281(4) 0.535(3) 0.779(6)
H66? H 0.2531 0.5606 0.7368
H67? H 0.3254 0.5459 0.8196
H68? H 0.2817 0.5123 0.7100
O17? O 0.298(2) 0.4721(16) 0.962(8)
loop_
_geom_bond_atom_site_label_1
_geom_bond_atom_site_label_2
_geom_bond_site_symmetry_1
_geom_bond_site_symmetry_2
C1 H1 1_555 1_555
H2 C1 1_555 1_555
H3 C1 1_555 1_555
C2 C1 1_555 1_555
C3 C2 1_555 1_555
H4 C3 1_555 1_555
C4 C3 1_555 1_555
C5 C4 1_555 1_555
C6 C5 1_555 1_555
C7 C6 1_555 1_555
C8 C7 1_555 1_555
C9 C8 1_555 1_555
H5 C9 1_555 1_555
C10 C5 1_555 1_555
H6 C10 1_555 1_555
C11 C7 1_555 1_555
C12 C11 1_555 1_555
C13 C12 1_555 1_555
C14 C12 1_555 1_555
C15 C14 1_555 1_555
C16 C15 1_555 1_555
C17 C16 1_555 1_555
H7 C17 1_555 1_555
C18 C17 1_555 1_555
H8 C18 1_555 1_555
C19 C18 1_555 1_555
H9 C19 1_555 1_555
C20 C15 1_555 1_555
H10 C20 1_555 1_555
C21 C11 1_555 1_555
C22 C21 1_555 1_555
C23 C22 1_555 1_555
H11 C23 1_555 1_555
C24 C23 1_555 1_555
H12 C24 1_555 1_555
C25 C24 1_555 1_555
H13 C25 1_555 1_555
C26 C25 1_555 1_555
H14 C26 1_555 1_555
C27 C22 1_555 1_555
H15 C27 1_555 1_555
N1 C8 1_555 1_555
O1 C14 1_555 1_555
H16 O1 1_555 1_555
O2 C13 1_555 1_555
O3 C13 1_555 1_555
O4 C2 1_555 1_555
O5 C4 1_555 1_555
C28 H17 1_555 1_555
H18 C28 1_555 1_555
H19 C28 1_555 1_555
C29 C28 1_555 1_555
C30 C29 1_555 1_555
H20 C30 1_555 1_555
C31 C30 1_555 1_555
C32 C31 1_555 1_555
C33 C32 1_555 1_555
C34 C33 1_555 1_555
C35 C34 1_555 1_555
C36 C35 1_555 1_555
H21 C36 1_555 1_555
C37 C32 1_555 1_555
H22 C37 1_555 1_555
C38 C39 1_555 1_555
C39 C40 1_555 1_555
C40 H23 1_555 1_555
C41 C40 1_555 1_555
H24 C41 1_555 1_555
C42 C41 1_555 1_555
H25 C42 1_555 1_555
C43 C42 1_555 1_555
H26 C43 1_555 1_555
C44 C39 1_555 1_555
H27 C44 1_555 1_555
C45 C34 1_555 1_555
C46 C45 1_555 1_555
C47 C46 1_555 1_555
C48 C47 1_555 1_555
C49 C48 1_555 1_555
H28 C49 1_555 1_555
C50 C49 1_555 1_555
H29 C50 1_555 1_555
C51 C50 1_555 1_555
H30 C51 1_555 1_555
C52 C51 1_555 1_555
H31 C52 1_555 1_555
C53 C48 1_555 1_555
C54 C46 1_555 1_555
N2 C35 1_555 1_555
O6 C31 1_555 1_555
O7 C29 1_555 1_555
O8 C47 1_555 1_555
H32 O8 1_555 1_555
O9 C53 1_555 1_555
O10 C54 1_555 1_555
S2 C57 1_555 1_555
C57 H39 1_555 1_555
H40 C57 1_555 1_555
H41 C57 1_555 1_555
C58 S2 1_555 1_555
H42 C58 1_555 1_555
H43 C58 1_555 1_555
H44 C58 1_555 1_555
O13 S2 1_555 1_555
S3 C59 1_555 1_555
C59 H45 1_555 1_555
H46 C59 1_555 1_555
H47 C59 1_555 1_555
C60 S3 1_555 1_555
H48 C60 1_555 1_555
H49 C60 1_555 1_555
H50 C60 1_555 1_555
O14 S3 1_555 1_555
S5 C63 1_555 1_555
C63 H57 1_555 1_555
H58 C63 1_555 1_555
H59 C63 1_555 1_555
C64 S5 1_555 1_555
H60 C64 1_555 1_555
H61 C64 1_555 1_555
H62 C64 1_555 1_555
O16 S5 1_555 1_555
C6 O4 1_555 1_555
C9 C10 1_555 1_555
C16 O2 1_555 1_555
C19 C20 1_555 1_555
C21 N1 1_555 1_555
C26 C27 1_555 1_555
C33 O7 1_555 1_555
C36 C37 1_555 1_555
C38 C45 1_555 1_555
C38 N2 1_555 1_555
C43 C44 1_555 1_555
C52 C53 1_555 1_555
C54 O9 1_555 1_555

#END
