
#######################################################################
#
#                 Cambridge Crystallographic Data Centre
#                                CCDC 
#
#######################################################################
#
# If this CIF has been generated from an entry in the Cambridge 
# Structural Database, then it will include bibliographic, chemical, 
# crystal, experimental, refinement or atomic coordinate data resulting 
# from the CCDC's data processing and validation procedures.
#
#######################################################################

data_KIFFOX
_chemical_formula_moiety         'C17 H14 Br1 N1 O1'
_chemical_name_systematic        
(E)-3-benzylidene-2-(2-bromoethyl)isoindolin-1-one
_symmetry_cell_setting           triclinic
_symmetry_space_group_name_H-M   'P -1'
_symmetry_Int_Tables_number      2
_space_group_name_Hall           '-P 1'
loop_
_symmetry_equiv_pos_site_id
_symmetry_equiv_pos_as_xyz
1 x,y,z
2 -x,-y,-z
_cell_length_a                   8.7086(18)
_cell_length_b                   8.8445(17)
_cell_length_c                   10.632(2)
_cell_angle_alpha                75.519(4)
_cell_angle_beta                 70.336(4)
_cell_angle_gamma                71.145(4)
_cell_volume                     720.54
_exptl_crystal_colour            colorless
_exptl_crystal_description       block
_cell_formula_units_Z            2
loop_
_atom_site_label
_atom_site_type_symbol
_atom_site_fract_x
_atom_site_fract_y
_atom_site_fract_z
Br1 Br 0.18906(7) 0.30405(5) 1.00035(4)
O1 O -0.0152(4) 0.7387(3) 0.6591(3)
N1 N 0.1363(4) 0.4841(4) 0.6113(3)
C1 C 0.0777(4) 0.6485(4) 0.5787(4)
C2 C 0.2514(5) 0.4127(4) 0.4992(4)
C3 C 0.2585(5) 0.5455(4) 0.3826(4)
C4 C 0.1538(5) 0.6874(5) 0.4320(4)
C5 C 0.3406(5) 0.5513(5) 0.2470(4)
H1 H 0.4095 0.4578 0.2119
C6 C 0.3180(6) 0.7002(6) 0.1636(5)
H2 H 0.3719 0.7058 0.0714
C7 C 0.2182(6) 0.8395(5) 0.2137(5)
H3 H 0.2084 0.9378 0.1555
C8 C 0.1320(6) 0.8358(5) 0.3494(4)
H4 H 0.0621 0.9294 0.3836
C9 C 0.1019(5) 0.4024(5) 0.7512(4)
H5 H 0.0997 0.2926 0.7544
H6 H -0.0079 0.4586 0.8032
C10 C 0.2366(6) 0.3997(6) 0.8118(4)
H7 H 0.2433 0.5094 0.8030
H8 H 0.3452 0.3384 0.7625
C11 C 0.3342(5) 0.2559(5) 0.5021(4)
H9 H 0.3074 0.1863 0.5828
C12 C 0.4650(5) 0.1855(4) 0.3865(4)
C13 C 0.4292(5) 0.1108(5) 0.3043(4)
H10 H 0.3199 0.1023 0.3224
C14 C 0.5537(6) 0.0486(6) 0.1956(5)
H11 H 0.5284 -0.0022 0.1413
C15 C 0.7145(6) 0.0618(5) 0.1680(4)
H12 H 0.7978 0.0210 0.0939
C16 C 0.7540(5) 0.1340(5) 0.2479(5)
H13 H 0.8635 0.1425 0.2288
C17 C 0.6288(5) 0.1948(5) 0.3582(4)
H14 H 0.6556 0.2424 0.4139
loop_
_geom_bond_atom_site_label_1
_geom_bond_atom_site_label_2
_geom_bond_site_symmetry_1
_geom_bond_site_symmetry_2
Br1 C10 1_555 1_555
O1 C1 1_555 1_555
N1 C1 1_555 1_555
C1 C4 1_555 1_555
C2 N1 1_555 1_555
C3 C2 1_555 1_555
C4 C3 1_555 1_555
C5 C3 1_555 1_555
H1 C5 1_555 1_555
C6 C5 1_555 1_555
H2 C6 1_555 1_555
C7 C6 1_555 1_555
H3 C7 1_555 1_555
C8 C4 1_555 1_555
H4 C8 1_555 1_555
C9 N1 1_555 1_555
H5 C9 1_555 1_555
H6 C9 1_555 1_555
C10 C9 1_555 1_555
H7 C10 1_555 1_555
H8 C10 1_555 1_555
C11 C2 1_555 1_555
H9 C11 1_555 1_555
C12 C11 1_555 1_555
C13 C12 1_555 1_555
H10 C13 1_555 1_555
C14 C13 1_555 1_555
H11 C14 1_555 1_555
C15 C14 1_555 1_555
H12 C15 1_555 1_555
C16 C15 1_555 1_555
H13 C16 1_555 1_555
C17 C12 1_555 1_555
H14 C17 1_555 1_555
C7 C8 1_555 1_555
C16 C17 1_555 1_555

#END
