
#######################################################################
#
#                 Cambridge Crystallographic Data Centre
#                                CCDC 
#
#######################################################################
#
# If this CIF has been generated from an entry in the Cambridge 
# Structural Database, then it will include bibliographic, chemical, 
# crystal, experimental, refinement or atomic coordinate data resulting 
# from the CCDC's data processing and validation procedures.
#
#######################################################################

data_KIFFEN
_chemical_formula_moiety         'Cs1 1+,C3 N7 O3 1-'
_chemical_name_systematic        
'cesium 5-(4-nitro-1,2,5-oxadiazol-3-yl)tetrazol-2-ide'
_symmetry_cell_setting           orthorhombic
_symmetry_space_group_name_H-M   'P c a 21'
_symmetry_Int_Tables_number      29
_space_group_name_Hall           'P 2c -2ac'
loop_
_symmetry_equiv_pos_site_id
_symmetry_equiv_pos_as_xyz
1 x,y,z
2 -x,-y,1/2+z
3 1/2+x,-y,z
4 1/2-x,y,1/2+z
_cell_length_a                   10.376(2)
_cell_length_b                   10.128(2)
_cell_length_c                   7.6675(15)
_cell_angle_alpha                90
_cell_angle_beta                 90
_cell_angle_gamma                90
_cell_volume                     805.763
_exptl_crystal_colour            colorless
_exptl_crystal_description       rod
_cell_formula_units_Z            4
loop_
_atom_site_label
_atom_site_type_symbol
_atom_site_fract_x
_atom_site_fract_y
_atom_site_fract_z
Cs1 Cs -0.08681(11) -0.38067(11) 0.0333(9)
N1 N 0.0847(13) 0.201(2) 0.060(4)
C1 C -0.149(3) 0.1222(19) -0.044(3)
N2 N -0.3460(18) 0.3633(19) -0.235(5)
N3 N -0.139(2) 0.338(3) -0.182(3)
O1 O 0.117(2) 0.2528(19) -0.084(3)
O2 O -0.1284(14) -0.0662(16) 0.079(2)
N4 N -0.2126(17) 0.0175(17) -0.015(2)
N5 N -0.332(2) 0.2473(19) -0.156(3)
O3 O 0.1356(19) 0.2090(19) 0.194(3)
C2 C -0.202(2) 0.232(3) -0.129(4)
C3 C -0.026(3) 0.1084(18) 0.034(6)
N6 N -0.0140(17) -0.002(2) 0.115(3)
N7 N -0.233(2) 0.4207(18) -0.262(3)
loop_
_geom_bond_atom_site_label_1
_geom_bond_atom_site_label_2
_geom_bond_site_symmetry_1
_geom_bond_site_symmetry_2
N1 O1 1_555 1_555
C1 N4 1_555 1_555
N2 N5 1_555 1_555
N3 C2 1_555 1_555
O2 N4 1_555 1_555
N5 C2 1_555 1_555
O3 N1 1_555 1_555
C2 C1 1_555 1_555
C3 N1 1_555 1_555
N6 O2 1_555 1_555
N7 N2 1_555 1_555
C1 C3 1_555 1_555
N3 N7 1_555 1_555
C3 N6 1_555 1_555

#END
