
#######################################################################
#
#                 Cambridge Crystallographic Data Centre
#                                CCDC 
#
#######################################################################
#
# If this CIF has been generated from an entry in the Cambridge 
# Structural Database, then it will include bibliographic, chemical, 
# crystal, experimental, refinement or atomic coordinate data resulting 
# from the CCDC's data processing and validation procedures.
#
#######################################################################

data_KIFGAK
_chemical_formula_moiety         'C17 H15 Br1 F1 N1 O2'
_chemical_name_systematic        
2-(2-bromoethyl)-3-(4-fluorobenzyl)-3-hydroxyisoindolin-1-one
_symmetry_cell_setting           monoclinic
_symmetry_space_group_name_H-M   'C 2/c'
_symmetry_Int_Tables_number      15
_space_group_name_Hall           '-C 2yn'
loop_
_symmetry_equiv_pos_site_id
_symmetry_equiv_pos_as_xyz
1 x,y,z
2 -x,y,1/2-z
3 1/2+x,1/2+y,z
4 1/2-x,1/2+y,1/2-z
5 -x,-y,-z
6 x,-y,1/2+z
7 1/2-x,1/2-y,-z
8 1/2+x,1/2-y,1/2+z
_cell_length_a                   22.456(5)
_cell_length_b                   9.0378(18)
_cell_length_c                   16.536(3)
_cell_angle_alpha                90
_cell_angle_beta                 105.133(7)
_cell_angle_gamma                90
_cell_volume                     3239.65
_exptl_crystal_colour            colorless
_exptl_crystal_description       block
_cell_formula_units_Z            8
loop_
_atom_site_label
_atom_site_type_symbol
_atom_site_fract_x
_atom_site_fract_y
_atom_site_fract_z
Br1 Br 0.428882(18) 0.11728(6) 0.46498(3)
F1 F 0.04459(19) -0.4339(3) 0.3378(2)
O1 O 0.26352(13) -0.0306(3) 0.23157(15)
O2 O 0.21597(10) 0.3181(2) 0.39499(11)
H1 H 0.2270 0.3668 0.3597
N1 N 0.24220(11) 0.0903(3) 0.34115(14)
C1 C 0.22893(15) 0.0471(3) 0.26028(18)
C2 C 0.19324(13) 0.1810(3) 0.36081(15)
C3 C 0.14760(13) 0.1910(3) 0.27524(16)
C4 C 0.16863(15) 0.1098(3) 0.21748(17)
C5 C 0.09350(15) 0.2699(3) 0.2508(2)
H2 H 0.0789 0.3245 0.2893
C6 C 0.06113(17) 0.2655(4) 0.1663(2)
H3 H 0.0245 0.3184 0.1484
C7 C 0.08242(19) 0.1845(4) 0.1092(2)
H4 H 0.0600 0.1830 0.0533
C8 C 0.13621(19) 0.1062(4) 0.13388(19)
H5 H 0.1507 0.0516 0.0953
C9 C 0.30110(14) 0.0605(4) 0.40094(18)
H6 H 0.3112 -0.0435 0.3988
H7 H 0.2980 0.0826 0.4571
C10 C 0.35178(17) 0.1532(5) 0.3816(2)
H8 H 0.3411 0.2572 0.3816
H9 H 0.3562 0.1282 0.3265
C11 C 0.16651(16) 0.1070(3) 0.42752(17)
H10 H 0.1998 0.0925 0.4778
H11 H 0.1371 0.1744 0.4416
C12 C 0.13495(15) -0.0395(3) 0.40287(17)
C13 C 0.1680(2) -0.1692(4) 0.4061(3)
H12 H 0.2109 -0.1676 0.4234
C14 C 0.1370(3) -0.3026(4) 0.3833(3)
H13 H 0.1589 -0.3903 0.3848
C15 C 0.0749(3) -0.3028(5) 0.3592(3)
C16 C 0.0412(2) -0.1811(5) 0.3560(3)
H14 H -0.0017 -0.1853 0.3395
C17 C 0.07168(18) -0.0472(4) 0.3779(2)
H15 H 0.0487 0.0391 0.3756
loop_
_geom_bond_atom_site_label_1
_geom_bond_atom_site_label_2
_geom_bond_site_symmetry_1
_geom_bond_site_symmetry_2
Br1 C10 1_555 1_555
F1 C15 1_555 1_555
O1 C1 1_555 1_555
O2 H1 1_555 1_555
N1 C1 1_555 1_555
C1 C4 1_555 1_555
C2 O2 1_555 1_555
C3 C2 1_555 1_555
C4 C3 1_555 1_555
C5 C3 1_555 1_555
H2 C5 1_555 1_555
C6 C5 1_555 1_555
H3 C6 1_555 1_555
C7 C6 1_555 1_555
H4 C7 1_555 1_555
C8 C4 1_555 1_555
H5 C8 1_555 1_555
C9 N1 1_555 1_555
H6 C9 1_555 1_555
H7 C9 1_555 1_555
C10 C9 1_555 1_555
H8 C10 1_555 1_555
H9 C10 1_555 1_555
C11 C2 1_555 1_555
H10 C11 1_555 1_555
H11 C11 1_555 1_555
C12 C11 1_555 1_555
C13 C12 1_555 1_555
H12 C13 1_555 1_555
C14 C13 1_555 1_555
H13 C14 1_555 1_555
C15 C14 1_555 1_555
C16 C15 1_555 1_555
H14 C16 1_555 1_555
C17 C12 1_555 1_555
H15 C17 1_555 1_555
N1 C2 1_555 1_555
C7 C8 1_555 1_555
C16 C17 1_555 1_555

#END
