
#######################################################################
#
#                 Cambridge Crystallographic Data Centre
#                                CCDC 
#
#######################################################################
#
# If this CIF has been generated from an entry in the Cambridge 
# Structural Database, then it will include bibliographic, chemical, 
# crystal, experimental, refinement or atomic coordinate data resulting 
# from the CCDC's data processing and validation procedures.
#
#######################################################################

data_KIFHUC01
_chemical_formula_moiety         'C18 H17 N1 O3'
_chemical_name_systematic        
'1-Methyl-3-indolethylidene(isopropylidene)succinic anhydride'
_symmetry_cell_setting           monoclinic
_symmetry_space_group_name_H-M   'P 21/n'
_symmetry_Int_Tables_number      14
_space_group_name_Hall           '-P 2yn'
loop_
_symmetry_equiv_pos_site_id
_symmetry_equiv_pos_as_xyz
1 x,y,z
2 1/2-x,1/2+y,1/2-z
3 -x,-y,-z
4 1/2+x,1/2-y,1/2+z
_cell_length_a                   11.006(3)
_cell_length_b                   10.172(2)
_cell_length_c                   14.046(3)
_cell_angle_alpha                90
_cell_angle_beta                 102.78(2)
_cell_angle_gamma                90
_cell_volume                     1533.54
_cell_formula_units_Z            4
loop_
_atom_site_label
_atom_site_type_symbol
_atom_site_fract_x
_atom_site_fract_y
_atom_site_fract_z
C1 C -0.0078(3) 0.3177(3) 0.4823(3)
C2 C 0.0925(3) 0.3144(4) 0.5624(3)
C3 C 0.0665(4) 0.3393(4) 0.6520(3)
C4 C -0.0535(4) 0.3675(4) 0.6617(3)
C5 C -0.1530(3) 0.3713(4) 0.5818(3)
C6 C -0.1304(3) 0.3445(3) 0.4895(2)
C7 C -0.2054(3) 0.3451(3) 0.3913(2)
C8 C -0.3375(3) 0.3719(3) 0.3590(2)
C9 C -0.4243(3) 0.3286(3) 0.4077(2)
C10 C -0.5472(4) 0.3919(4) 0.3941(3)
C11 C -0.5217(3) 0.2704(4) 0.5355(3)
C12 C -0.4166(3) 0.2365(4) 0.4894(3)
C13 C -0.3499(3) 0.1255(4) 0.5130(3)
C14 C -0.3505(4) 0.0464(4) 0.6039(3)
C15 C -0.2711(4) 0.0668(4) 0.4496(3)
C16 C -0.1250(3) 0.3205(4) 0.3313(2)
C17 C 0.1012(5) 0.2660(7) 0.3459(4)
C18 C -0.3754(4) 0.4574(5) 0.2696(3)
O1 O -0.6043(3) 0.4652(3) 0.3350(2)
O2 O -0.5522(3) 0.2327(3) 0.6074(2)
O3 O -0.5981(2) 0.3585(3) 0.4746(2)
N1 N -0.0072(3) 0.3004(3) 0.3842(1)
loop_
_geom_bond_atom_site_label_1
_geom_bond_atom_site_label_2
_geom_bond_site_symmetry_1
_geom_bond_site_symmetry_2
C1 C2 1_555 1_555
C2 C3 1_555 1_555
C3 C4 1_555 1_555
C4 C5 1_555 1_555
C5 C6 1_555 1_555
C6 C1 1_555 1_555
C7 C6 1_555 1_555
C8 C7 1_555 1_555
C9 C8 1_555 1_555
C10 C9 1_555 1_555
C11 C12 1_555 1_555
C12 C9 1_555 1_555
C13 C12 1_555 1_555
C14 C13 1_555 1_555
C15 C13 1_555 1_555
C16 C7 1_555 1_555
C17 N1 1_555 1_555
C18 C8 1_555 1_555
O1 C10 1_555 1_555
O2 C11 1_555 1_555
O3 C10 1_555 1_555
N1 C1 1_555 1_555
C11 O3 1_555 1_555
C16 N1 1_555 1_555

#END
