
#######################################################################
#
#                 Cambridge Crystallographic Data Centre
#                                CCDC 
#
#######################################################################
#
# If this CIF has been generated from an entry in the Cambridge 
# Structural Database, then it will include bibliographic, chemical, 
# crystal, experimental, refinement or atomic coordinate data resulting 
# from the CCDC's data processing and validation procedures.
#
#######################################################################

data_KIFQEY
_chemical_formula_moiety         'C80 H92 N2 O4 S2,2(C1 H2 Cl2)'
_chemical_name_systematic        
"N,N'-[(4,4,9,9-tetrahexyl-4,9-dihydro-s-indaceno[1,2-b:5,6-b']bisthiophene 2,7-diyl)bis(4,1-phenylene)]bis[4-methoxy-N-(4-methoxyphenyl)aniline] dichloromethane solvate"
_symmetry_cell_setting           triclinic
_symmetry_space_group_name_H-M   'P -1'
_symmetry_Int_Tables_number      2
_space_group_name_Hall           '-P 1'
loop_
_symmetry_equiv_pos_site_id
_symmetry_equiv_pos_as_xyz
1 x,y,z
2 -x,-y,-z
_cell_length_a                   11.8347(7)
_cell_length_b                   11.8480(7)
_cell_length_c                   15.4459(8)
_cell_angle_alpha                103.656(2)
_cell_angle_beta                 100.909(2)
_cell_angle_gamma                109.745(2)
_cell_volume                     1893.2
_exptl_crystal_description       cuboid
_cell_formula_units_Z            1
loop_
_atom_site_label
_atom_site_type_symbol
_atom_site_fract_x
_atom_site_fract_y
_atom_site_fract_z
Cl1 Cl 0.70137(6) 0.18397(7) 1.64524(4)
Cl2 Cl 0.53260(7) 0.16372(6) 1.47408(5)
C1 C 0.5593(2) 0.1899(2) 1.59395(17)
H1 H 0.5604 0.2739 1.6243
H2 H 0.4895 0.1248 1.6043
S1 S 0.47324(3) 0.45922(3) 1.26649(2)
O1 O 0.04831(10) 0.63597(11) 1.85384(7)
O2 O 0.20840(12) -0.10821(11) 1.65596(9)
N1 N 0.20880(12) 0.34416(11) 1.60552(8)
C2 C 0.0951(2) 0.76960(18) 1.87391(14)
H3 H 0.0517 0.8046 1.9140
H4 H 0.0803 0.7891 1.8156
H5 H 0.1854 0.8073 1.9060
C3 C 0.09178(13) 0.57038(14) 1.79197(9)
C4 C 0.18989(13) 0.62740(14) 1.75852(10)
H6 H 0.2304 0.7172 1.7771
C5 C 0.22817(13) 0.55151(13) 1.69747(9)
H7 H 0.2962 0.5905 1.6756
C6 C 0.16918(13) 0.42045(13) 1.66799(9)
C7 C 0.06949(13) 0.36448(14) 1.70132(9)
H8 H 0.0272 0.2748 1.6814
C8 C 0.03239(13) 0.43930(14) 1.76321(10)
H9 H -0.0345 0.4004 1.7862
C9 C 0.21079(13) 0.22897(13) 1.61753(9)
C10 C 0.16399(15) 0.12010(14) 1.54127(10)
H10 H 0.1312 0.1230 1.4811
C11 C 0.16405(15) 0.00603(14) 1.55094(11)
H11 H 0.1334 -0.0674 1.4976
C12 C 0.20894(14) 0.00051(14) 1.63862(11)
C13 C 0.25714(15) 0.11000(15) 1.71562(11)
H12 H 0.2888 0.1068 1.7759
C14 C 0.25927(14) 0.22335(14) 1.70518(10)
H13 H 0.2940 0.2978 1.7581
C15 C 0.1487(2) -0.22236(17) 1.57764(15)
H14 H 0.1475 -0.2947 1.5984
H15 H 0.1954 -0.2164 1.5316
H16 H 0.0624 -0.2341 1.5493
C16 C 0.24361(13) 0.37943(13) 1.53000(9)
C17 C 0.33761(13) 0.35132(13) 1.49976(9)
H17 H 0.3814 0.3126 1.5323
C18 C 0.36805(13) 0.37918(13) 1.42281(9)
H18 H 0.4316 0.3580 1.4028
C19 C 0.30726(12) 0.43780(13) 1.37411(9)
C20 C 0.21580(13) 0.46998(13) 1.40676(9)
H19 H 0.1750 0.5125 1.3761
C21 C 0.18394(13) 0.44079(14) 1.48300(10)
H20 H 0.1210 0.4627 1.5035
C22 C 0.33523(12) 0.46226(12) 1.29013(9)
C23 C 0.26321(12) 0.48419(12) 1.22036(9)
H21 H 0.1852 0.4901 1.2208
C24 C 0.31867(12) 0.49691(12) 1.14796(9)
C25 C 0.43115(12) 0.48464(12) 1.16258(9)
C26 C 0.48084(12) 0.49150(12) 1.08393(8)
C27 C 0.58907(12) 0.48197(12) 1.06597(9)
H22 H 0.6479 0.4700 1.1101
C28 C 0.60768(12) 0.49064(12) 0.98134(9)
C29 C 0.71842(12) 0.48516(12) 0.94568(8)
C30 C 0.84352(12) 0.59240(13) 1.01036(9)
H23 H 0.8616 0.5773 1.0709
H24 H 0.9113 0.5873 0.9827
C31 C 0.84857(13) 0.72667(13) 1.02897(10)
H25 H 0.8410 0.7470 0.9701
H26 H 0.7766 0.7312 1.0512
C32 C 0.97057(14) 0.82434(14) 1.10143(10)
H27 H 0.9777 0.8030 1.1599
H28 H 1.0421 0.8187 1.0789
C33 C 0.98067(17) 0.95952(15) 1.12267(13)
H29 H 0.9127 0.9666 1.1494
H30 H 0.9676 0.9790 1.0636
C34 C 1.10676(18) 1.05806(17) 1.19037(14)
H31 H 1.1736 1.0580 1.1603
H32 H 1.1045 1.1430 1.2023
C35 C 0.72918(13) 0.35640(13) 0.93583(9)
H33 H 0.7971 0.3550 0.9073
H34 H 0.7546 0.3508 0.9990
C36 C 0.61017(14) 0.23934(14) 0.87810(11)
H35 H 0.5846 0.2429 0.8143
H36 H 0.5416 0.2393 0.9062
C37 C 0.62923(15) 0.11715(14) 0.87274(12)
H37 H 0.6967 0.1170 0.8434
H38 H 0.6577 0.1157 0.9368
C38 C 0.51185(17) -0.00239(16) 0.81800(15)
H39 H 0.4843 -0.0017 0.7536
H40 H 0.4440 -0.0015 0.8467
C39 C 0.53053(19) -0.12492(17) 0.81415(17)
H41 H 0.4578 -0.1969 0.7663
H42 H 0.6065 -0.1200 0.7945
C40 C 1.1410(12) 1.0362(10) 1.2834(7)
H43 H 1.0712 1.0262 1.3105
H44 H 1.2162 1.1090 1.3260
H45 H 1.1578 0.9593 1.2735
C41 C 0.5437(12) -0.1495(8) 0.9005(8)
H46 H 0.6194 -0.0821 0.9471
H47 H 0.5506 -0.2312 0.8923
H48 H 0.4700 -0.1520 0.9215
S1A S 0.52676(3) 0.54078(3) 0.73351(2)
O1A O 0.95169(10) 0.36403(11) 0.14616(7)
O2A O 0.79160(12) 1.10821(11) 0.34404(9)
N1A N 0.79120(12) 0.65584(11) 0.39448(8)
C2A C 0.9049(2) 0.23040(18) 0.12609(14)
H3A H 0.9483 0.1954 0.0860
H4A H 0.9197 0.2109 0.1844
H5A H 0.8146 0.1927 0.0940
C3A C 0.90822(13) 0.42962(14) 0.20803(9)
C4A C 0.81011(13) 0.37260(14) 0.24148(10)
H6A H 0.7696 0.2828 0.2229
C5A C 0.77183(13) 0.44849(13) 0.30253(9)
H7A H 0.7038 0.4095 0.3244
C6A C 0.83082(13) 0.57955(13) 0.33201(9)
C7A C 0.93051(13) 0.63552(14) 0.29868(9)
H8A H 0.9728 0.7252 0.3186
C8A C 0.96761(13) 0.56070(14) 0.23679(10)
H9A H 1.0345 0.5996 0.2138
C9A C 0.78921(13) 0.77103(13) 0.38247(9)
C10A C 0.83601(15) 0.87990(14) 0.45873(10)
H10A H 0.8688 0.8770 0.5189
C11A C 0.83595(15) 0.99397(14) 0.44906(11)
H11A H 0.8666 1.0674 0.5024
C12A C 0.79106(14) 0.99949(14) 0.36138(11)
C13A C 0.74286(15) 0.89000(15) 0.28438(11)
H12A H 0.7112 0.8932 0.2241
C14A C 0.74073(14) 0.77665(14) 0.29482(10)
H13A H 0.7060 0.7022 0.2419
C15A C 0.8513(2) 1.22236(17) 0.42236(15)
H14A H 0.8525 1.2947 0.4016
H15A H 0.8046 1.2164 0.4684
H16A H 0.9376 1.2341 0.4507
C16A C 0.75639(13) 0.62057(13) 0.47000(9)
C17A C 0.66239(13) 0.64868(13) 0.50024(9)
H17A H 0.6186 0.6874 0.4677
C18A C 0.63195(13) 0.62082(13) 0.57719(9)
H18A H 0.5684 0.6420 0.5972
C19A C 0.69274(12) 0.56220(13) 0.62589(9)
C20A C 0.78420(13) 0.53002(13) 0.59324(9)
H19A H 0.8250 0.4875 0.6239
C21A C 0.81606(13) 0.55921(14) 0.51700(10)
H20A H 0.8790 0.5373 0.4965
C22A C 0.66477(12) 0.53774(12) 0.70987(9)
C23A C 0.73679(12) 0.51581(12) 0.77964(9)
H21A H 0.8148 0.5099 0.7792
C24A C 0.68133(12) 0.50309(12) 0.85204(9)
C25A C 0.56885(12) 0.51536(12) 0.83742(9)
C26A C 0.51916(12) 0.50850(12) 0.91607(8)
C27A C 0.41093(12) 0.51803(12) 0.93403(9)
H22A H 0.3521 0.5300 0.8899
C28A C 0.39232(12) 0.50936(12) 1.01866(9)
C29A C 0.28158(12) 0.51484(12) 1.05432(8)
C30A C 0.15648(12) 0.40760(13) 0.98964(9)
H23A H 0.1384 0.4227 0.9291
H24A H 0.0887 0.4127 1.0173
C31A C 0.15143(13) 0.27333(13) 0.97103(10)
H25A H 0.1590 0.2530 1.0299
H26A H 0.2234 0.2688 0.9488
C32A C 0.02943(14) 0.17566(14) 0.89857(10)
H27A H 0.0223 0.1970 0.8401
H28A H -0.0421 0.1813 0.9211
C33A C 0.01933(17) 0.04048(15) 0.87733(13)
H29A H 0.0873 0.0334 0.8506
H30A H 0.0324 0.0210 0.9364
C34A C -0.10676(18) -0.05806(17) 0.80963(14)
H31A H -0.1736 -0.0580 0.8397
H32A H -0.1045 -0.1430 0.7977
C35A C 0.27082(13) 0.64360(13) 1.06417(9)
H33A H 0.2029 0.6450 1.0927
H34A H 0.2454 0.6492 1.0010
C36A C 0.38983(14) 0.76066(14) 1.12190(11)
H35A H 0.4154 0.7571 1.1857
H36A H 0.4584 0.7607 1.0938
C37A C 0.37077(15) 0.88285(14) 1.12726(12)
H37A H 0.3033 0.8830 1.1566
H38A H 0.3423 0.8843 1.0632
C38A C 0.48815(17) 1.00239(16) 1.18200(15)
H39A H 0.5157 1.0017 1.2464
H40A H 0.5560 1.0015 1.1533
C39A C 0.46947(19) 1.12492(17) 1.18585(17)
H41A H 0.5422 1.1969 1.2337
H42A H 0.3935 1.1200 1.2055
C40A C -0.1410(12) -0.0362(10) 0.7166(7)
H43A H -0.0712 -0.0262 0.6895
H44A H -0.2162 -0.1090 0.6740
H45A H -0.1578 0.0407 0.7265
C41A C 0.4563(12) 1.1495(8) 1.0995(8)
H46A H 0.3806 1.0821 1.0529
H47A H 0.4494 1.2312 1.1077
H48A H 0.5300 1.1520 1.0785
H49? H 1.1757 1.0361 1.1748
H50? H 1.1196 1.1426 1.1844
H51? H 0.5881 -0.1328 0.7764
H52? H 0.4488 -0.1980 0.7826
C42? C 1.1095(19) 1.0623(17) 1.2872(13)
H53? H 1.0409 1.0836 1.3023
H54? H 1.1900 1.1267 1.3300
H55? H 1.0994 0.9793 1.2934
C43? C 0.590(2) -0.1310(16) 0.9212(14)
H56? H 0.6774 -0.0687 0.9482
H57? H 0.5875 -0.2161 0.9154
H58? H 0.5402 -0.1116 0.9618
loop_
_geom_bond_atom_site_label_1
_geom_bond_atom_site_label_2
_geom_bond_site_symmetry_1
_geom_bond_site_symmetry_2
Cl1 C1 1_555 1_555
Cl2 C1 1_555 1_555
C1 H1 1_555 1_555
H2 C1 1_555 1_555
S1 C22 1_555 1_555
O1 C2 1_555 1_555
O2 C12 1_555 1_555
N1 C6 1_555 1_555
C2 H3 1_555 1_555
H4 C2 1_555 1_555
H5 C2 1_555 1_555
C3 O1 1_555 1_555
C4 C3 1_555 1_555
H6 C4 1_555 1_555
C5 C4 1_555 1_555
H7 C5 1_555 1_555
C6 C5 1_555 1_555
C7 C6 1_555 1_555
H8 C7 1_555 1_555
C8 C3 1_555 1_555
H9 C8 1_555 1_555
C9 N1 1_555 1_555
C10 C9 1_555 1_555
H10 C10 1_555 1_555
C11 C10 1_555 1_555
H11 C11 1_555 1_555
C12 C11 1_555 1_555
C13 C12 1_555 1_555
H12 C13 1_555 1_555
C14 C9 1_555 1_555
H13 C14 1_555 1_555
C15 O2 1_555 1_555
H14 C15 1_555 1_555
H15 C15 1_555 1_555
H16 C15 1_555 1_555
C16 N1 1_555 1_555
C17 C16 1_555 1_555
H17 C17 1_555 1_555
C18 C17 1_555 1_555
H18 C18 1_555 1_555
C19 C18 1_555 1_555
C20 C19 1_555 1_555
H19 C20 1_555 1_555
C21 C16 1_555 1_555
H20 C21 1_555 1_555
C22 C19 1_555 1_555
C23 C22 1_555 1_555
H21 C23 1_555 1_555
C24 C23 1_555 1_555
C25 S1 1_555 1_555
C26 C25 1_555 1_555
C27 C26 1_555 1_555
H22 C27 1_555 1_555
C28 C27 1_555 1_555
C29 C28 1_555 1_555
C30 C29 1_555 1_555
H23 C30 1_555 1_555
H24 C30 1_555 1_555
C31 C30 1_555 1_555
H25 C31 1_555 1_555
H26 C31 1_555 1_555
C32 C31 1_555 1_555
H27 C32 1_555 1_555
H28 C32 1_555 1_555
C33 C32 1_555 1_555
H29 C33 1_555 1_555
H30 C33 1_555 1_555
C34 C33 1_555 1_555
H31 C34 1_555 1_555
H32 C34 1_555 1_555
C35 C29 1_555 1_555
H33 C35 1_555 1_555
H34 C35 1_555 1_555
C36 C35 1_555 1_555
H35 C36 1_555 1_555
H36 C36 1_555 1_555
C37 C36 1_555 1_555
H37 C37 1_555 1_555
H38 C37 1_555 1_555
C38 C37 1_555 1_555
H39 C38 1_555 1_555
H40 C38 1_555 1_555
C39 C38 1_555 1_555
H41 C39 1_555 1_555
H42 C39 1_555 1_555
C40 C34 1_555 1_555
H43 C40 1_555 1_555
H44 C40 1_555 1_555
H45 C40 1_555 1_555
C41 C39 1_555 1_555
H46 C41 1_555 1_555
H47 C41 1_555 1_555
H48 C41 1_555 1_555
S1A C22A 1_555 1_555
O1A C2A 1_555 1_555
O2A C12A 1_555 1_555
N1A C6A 1_555 1_555
C2A H3A 1_555 1_555
H4A C2A 1_555 1_555
H5A C2A 1_555 1_555
C3A O1A 1_555 1_555
C4A C3A 1_555 1_555
H6A C4A 1_555 1_555
C5A C4A 1_555 1_555
H7A C5A 1_555 1_555
C6A C5A 1_555 1_555
C7A C6A 1_555 1_555
H8A C7A 1_555 1_555
C8A C3A 1_555 1_555
H9A C8A 1_555 1_555
C9A N1A 1_555 1_555
C10A C9A 1_555 1_555
H10A C10A 1_555 1_555
C11A C10A 1_555 1_555
H11A C11A 1_555 1_555
C12A C11A 1_555 1_555
C13A C12A 1_555 1_555
H12A C13A 1_555 1_555
C14A C9A 1_555 1_555
H13A C14A 1_555 1_555
C15A O2A 1_555 1_555
H14A C15A 1_555 1_555
H15A C15A 1_555 1_555
H16A C15A 1_555 1_555
C16A N1A 1_555 1_555
C17A C16A 1_555 1_555
H17A C17A 1_555 1_555
C18A C17A 1_555 1_555
H18A C18A 1_555 1_555
C19A C18A 1_555 1_555
C20A C19A 1_555 1_555
H19A C20A 1_555 1_555
C21A C16A 1_555 1_555
H20A C21A 1_555 1_555
C22A C19A 1_555 1_555
C23A C22A 1_555 1_555
H21A C23A 1_555 1_555
C24A C29 1_555 1_555
C25A S1A 1_555 1_555
C26A C28 1_555 1_555
C27A C26A 1_555 1_555
H22A C27A 1_555 1_555
C28A C26 1_555 1_555
C29A C24 1_555 1_555
C30A C29A 1_555 1_555
H23A C30A 1_555 1_555
H24A C30A 1_555 1_555
C31A C30A 1_555 1_555
H25A C31A 1_555 1_555
H26A C31A 1_555 1_555
C32A C31A 1_555 1_555
H27A C32A 1_555 1_555
H28A C32A 1_555 1_555
C33A C32A 1_555 1_555
H29A C33A 1_555 1_555
H30A C33A 1_555 1_555
C34A C33A 1_555 1_555
H31A C34A 1_555 1_555
H32A C34A 1_555 1_555
C35A C29A 1_555 1_555
H33A C35A 1_555 1_555
H34A C35A 1_555 1_555
C36A C35A 1_555 1_555
H35A C36A 1_555 1_555
H36A C36A 1_555 1_555
C37A C36A 1_555 1_555
H37A C37A 1_555 1_555
H38A C37A 1_555 1_555
C38A C37A 1_555 1_555
H39A C38A 1_555 1_555
H40A C38A 1_555 1_555
C39A C38A 1_555 1_555
H41A C39A 1_555 1_555
H42A C39A 1_555 1_555
C40A C34A 1_555 1_555
H43A C40A 1_555 1_555
H44A C40A 1_555 1_555
H45A C40A 1_555 1_555
C41A C39A 1_555 1_555
H46A C41A 1_555 1_555
H47A C41A 1_555 1_555
H48A C41A 1_555 1_555
C7 C8 1_555 1_555
C13 C14 1_555 1_555
C20 C21 1_555 1_555
C24 C25 1_555 1_555
C7A C8A 1_555 1_555
C13A C14A 1_555 1_555
C20A C21A 1_555 1_555
C23A C24A 1_555 1_555
C24A C25A 1_555 1_555
C25A C26A 1_555 1_555
C27A C28A 1_555 1_555
C28A C29A 1_555 1_555

#END
