
#######################################################################
#
#                 Cambridge Crystallographic Data Centre
#                                CCDC 
#
#######################################################################
#
# If this CIF has been generated from an entry in the Cambridge 
# Structural Database, then it will include bibliographic, chemical, 
# crystal, experimental, refinement or atomic coordinate data resulting 
# from the CCDC's data processing and validation procedures.
#
#######################################################################

data_KIFYEF
_chemical_formula_moiety         'C16 H12 I1 N1 O3 S1'
_chemical_name_systematic        
2-(Iodomethylene)-1-((4-methylphenyl)sulfonyl)-1,2-dihydro-3H-indol-3-one
_symmetry_cell_setting           monoclinic
_symmetry_space_group_name_H-M   'P 21/n'
_symmetry_Int_Tables_number      14
_space_group_name_Hall           '-P 2yn'
loop_
_symmetry_equiv_pos_site_id
_symmetry_equiv_pos_as_xyz
1 x,y,z
2 1/2-x,1/2+y,1/2-z
3 -x,-y,-z
4 1/2+x,1/2-y,1/2+z
_cell_length_a                   10.3301(6)
_cell_length_b                   13.0994(6)
_cell_length_c                   11.3043(7)
_cell_angle_alpha                90
_cell_angle_beta                 97.7640(10)
_cell_angle_gamma                90
_cell_volume                     1515.65
_exptl_crystal_colour            yellow
_exptl_crystal_description       block
_cell_formula_units_Z            4
loop_
_atom_site_label
_atom_site_type_symbol
_atom_site_fract_x
_atom_site_fract_y
_atom_site_fract_z
C1 C 0.8780(3) 0.1794(2) 0.9483(3)
C2 C 0.8792(3) 0.1587(2) 1.0637(3)
H1 H 0.9612 0.1385 1.1053
C3 C 0.9853(3) 0.1405(3) 0.8820(3)
C4 C 0.9286(3) 0.1437(2) 0.7554(3)
C5 C 0.9801(3) 0.1110(3) 0.6542(3)
H2 H 1.0652 0.0821 0.6603
C6 C 0.9038(3) 0.1219(3) 0.5446(3)
H3 H 0.9368 0.1010 0.4739
C7 C 0.7790(3) 0.1633(2) 0.5375(3)
H4 H 0.7282 0.1698 0.4613
C8 C 0.7260(3) 0.1955(2) 0.6378(3)
H5 H 0.6403 0.2231 0.6320
C9 C 0.8041(3) 0.1854(2) 0.7466(3)
C10 C 0.8289(3) 0.4116(2) 0.8019(3)
C11 C 0.9477(3) 0.4391(2) 0.8674(3)
H6 H 0.9711 0.4143 0.9464
C12 C 1.0313(3) 0.5031(2) 0.8161(3)
H7 H 1.1124 0.5223 0.8605
C13 C 0.9979(3) 0.5398(2) 0.7001(3)
C14 C 1.0840(3) 0.6149(3) 0.6471(3)
H8 H 1.0594 0.6174 0.5604
H9 H 1.1754 0.5935 0.6655
H10 H 1.0732 0.6827 0.6811
C15 C 0.8807(3) 0.5075(2) 0.6351(3)
H11 H 0.8590 0.5295 0.5548
C16 C 0.7953(3) 0.4442(2) 0.6850(3)
H12 H 0.7152 0.4235 0.6400
I1 I 0.72735(2) 0.164690(17) 1.164194(17)
N1 N 0.7716(2) 0.21477(19) 0.8624(2)
O1 O 1.0913(2) 0.1091(2) 0.9269(2)
O2 O 0.7316(2) 0.36197(17) 0.99464(19)
O3 O 0.5943(2) 0.34011(17) 0.7986(2)
S1 S 0.71915(7) 0.33704(5) 0.87068(6)
loop_
_geom_bond_atom_site_label_1
_geom_bond_atom_site_label_2
_geom_bond_site_symmetry_1
_geom_bond_site_symmetry_2
C1 C2 1_555 1_555
C2 H1 1_555 1_555
C3 C1 1_555 1_555
C4 C3 1_555 1_555
C5 C4 1_555 1_555
H2 C5 1_555 1_555
C6 C5 1_555 1_555
H3 C6 1_555 1_555
C7 C6 1_555 1_555
H4 C7 1_555 1_555
C8 C7 1_555 1_555
H5 C8 1_555 1_555
C9 C4 1_555 1_555
C10 C11 1_555 1_555
C11 H6 1_555 1_555
C12 C11 1_555 1_555
H7 C12 1_555 1_555
C13 C12 1_555 1_555
C14 C13 1_555 1_555
H8 C14 1_555 1_555
H9 C14 1_555 1_555
H10 C14 1_555 1_555
C15 C13 1_555 1_555
H11 C15 1_555 1_555
C16 C10 1_555 1_555
H12 C16 1_555 1_555
I1 C2 1_555 1_555
N1 C1 1_555 1_555
O1 C3 1_555 1_555
O2 S1 1_555 1_555
O3 S1 1_555 1_555
S1 C10 1_555 1_555
C8 C9 1_555 1_555
C9 N1 1_555 1_555
C15 C16 1_555 1_555
N1 S1 1_555 1_555

#END
