
#######################################################################
#
#                 Cambridge Crystallographic Data Centre
#                                CCDC 
#
#######################################################################
#
# If this CIF has been generated from an entry in the Cambridge 
# Structural Database, then it will include bibliographic, chemical, 
# crystal, experimental, refinement or atomic coordinate data resulting 
# from the CCDC's data processing and validation procedures.
#
#######################################################################

data_KIGKOB
_chemical_formula_moiety         'C8 H10 N4 O2,C11 H8 O3'
_chemical_name_systematic        'Caffeine 3-hydroxy-2-naphthoic acid'
_symmetry_cell_setting           monoclinic
_symmetry_space_group_name_H-M   'P 21/c'
_symmetry_Int_Tables_number      14
_space_group_name_Hall           '-P 2ybc'
loop_
_symmetry_equiv_pos_site_id
_symmetry_equiv_pos_as_xyz
1 x,y,z
2 -x,1/2+y,1/2-z
3 -x,-y,-z
4 x,1/2-y,1/2+z
_cell_length_a                   9.040(9)
_cell_length_b                   24.42(2)
_cell_length_c                   8.654(8)
_cell_angle_alpha                90
_cell_angle_beta                 117.015(14)
_cell_angle_gamma                90
_cell_volume                     1701.98
_exptl_crystal_colour            colorless
_exptl_crystal_description       plate
_cell_formula_units_Z            4
_exptl_crystal_recrystallization_method acetonitrile
loop_
_atom_site_label
_atom_site_type_symbol
_atom_site_fract_x
_atom_site_fract_y
_atom_site_fract_z
O1 O 0.14466(16) 0.93493(6) -0.26931(18)
O2 O 0.55036(17) 1.03267(6) -0.32345(19)
N1 N 0.35070(18) 0.98038(6) -0.3027(2)
N2 N 0.63524(19) 0.96688(7) -0.1155(2)
N3 N 0.6917(2) 0.89857(7) 0.1079(2)
N4 N 0.4284(2) 0.87852(7) 0.0408(2)
C1 C 0.2243(2) 1.00765(8) -0.4586(3)
H1 H 0.1931 1.0417 -0.4262
H2 H 0.1284 0.9845 -0.5127
H3 H 0.2689 1.0145 -0.5384
C2 C 0.5145(2) 0.99570(8) -0.2521(3)
C3 C 0.8101(2) 0.97882(9) -0.0608(3)
H4 H 0.8622 0.9896 0.0589
H5 H 0.8191 1.0080 -0.1304
H6 H 0.8639 0.9467 -0.0751
C4 C 0.5881(2) 0.92876(8) -0.0311(3)
C5 C 0.5892(3) 0.86882(9) 0.1464(3)
H7 H 0.6256 0.8438 0.2373
C6 C 0.2864(3) 0.85454(9) 0.0517(3)
H8 H 0.3242 0.8280 0.1436
H9 H 0.2158 0.8370 -0.0562
H10 H 0.2253 0.8828 0.0750
C7 C 0.4265(2) 0.91783(8) -0.0759(3)
C8 C 0.2924(2) 0.94296(8) -0.2202(2)
O3 O 1.02081(18) 0.88116(6) 0.28815(19)
H11 H 0.905(3) 0.8889(9) 0.237(3)
O4 O 0.92309(17) 0.82559(6) 0.42418(19)
O5 O 1.1223(2) 0.76783(6) 0.6851(2)
H12 H 1.033(4) 0.7823(11) 0.611(4)
C9 C 1.0399(2) 0.84517(8) 0.4096(3)
C10 C 1.2139(2) 0.83053(8) 0.5277(2)
C11 C 1.3436(2) 0.85433(7) 0.5136(2)
H13 H 1.3217 0.8804 0.4274
C12 C 1.5103(2) 0.84069(8) 0.6259(2)
C13 C 1.6446(3) 0.86481(8) 0.6117(3)
H14 H 1.6244 0.8905 0.5251
C14 C 1.8040(3) 0.85112(9) 0.7229(3)
H15 H 1.8921 0.8675 0.7128
C15 C 1.8343(3) 0.81194(9) 0.8535(3)
H16 H 1.9432 0.8024 0.9288
C16 C 1.7081(3) 0.78789(9) 0.8714(3)
H17 H 1.7315 0.7624 0.9593
C17 C 1.5403(2) 0.80117(7) 0.7575(2)
C18 C 1.4068(3) 0.77770(8) 0.7730(3)
H18 H 1.4273 0.7522 0.8602
C19 C 1.2462(2) 0.79160(8) 0.6622(3)
loop_
_geom_bond_atom_site_label_1
_geom_bond_atom_site_label_2
_geom_bond_site_symmetry_1
_geom_bond_site_symmetry_2
O1 C8 1_555 1_555
O2 C2 1_555 1_555
N1 C1 1_555 1_555
N2 C2 1_555 1_555
N3 C4 1_555 1_555
N4 C5 1_555 1_555
C1 H1 1_555 1_555
H2 C1 1_555 1_555
H3 C1 1_555 1_555
C2 N1 1_555 1_555
C3 N2 1_555 1_555
H4 C3 1_555 1_555
H5 C3 1_555 1_555
H6 C3 1_555 1_555
C4 N2 1_555 1_555
C5 N3 1_555 1_555
H7 C5 1_555 1_555
C6 N4 1_555 1_555
H8 C6 1_555 1_555
H9 C6 1_555 1_555
H10 C6 1_555 1_555
C7 N4 1_555 1_555
C8 N1 1_555 1_555
O3 H11 1_555 1_555
O4 C9 1_555 1_555
O5 H12 1_555 1_555
C9 O3 1_555 1_555
C10 C9 1_555 1_555
C11 C10 1_555 1_555
H13 C11 1_555 1_555
C12 C11 1_555 1_555
C13 C12 1_555 1_555
H14 C13 1_555 1_555
C14 C13 1_555 1_555
H15 C14 1_555 1_555
C15 C14 1_555 1_555
H16 C15 1_555 1_555
C16 C15 1_555 1_555
H17 C16 1_555 1_555
C17 C12 1_555 1_555
C18 C17 1_555 1_555
H18 C18 1_555 1_555
C19 O5 1_555 1_555
C4 C7 1_555 1_555
C7 C8 1_555 1_555
C10 C19 1_555 1_555
C16 C17 1_555 1_555
C18 C19 1_555 1_555

#END
