
#######################################################################
#
#                 Cambridge Crystallographic Data Centre
#                                CCDC 
#
#######################################################################
#
# If this CIF has been generated from an entry in the Cambridge 
# Structural Database, then it will include bibliographic, chemical, 
# crystal, experimental, refinement or atomic coordinate data resulting 
# from the CCDC's data processing and validation procedures.
#
#######################################################################

data_KIGSIE
_chemical_name_common            TTF-41
_chemical_formula_moiety         'C24 H14 N2 S10'
_chemical_name_systematic        
2,2'-((2-(4,5-bis(2-thienylsulfanyl)-1,3-dithiol-2-ylidene)-1,3-dithiole-4,5-diyl)disulfanediyl)dipyridine
_symmetry_cell_setting           triclinic
_symmetry_space_group_name_H-M   'P -1'
_symmetry_Int_Tables_number      2
_space_group_name_Hall           '-P 1'
loop_
_symmetry_equiv_pos_site_id
_symmetry_equiv_pos_as_xyz
1 x,y,z
2 -x,-y,-z
_cell_length_a                   10.5640(4)
_cell_length_b                   11.1127(4)
_cell_length_c                   12.5580(5)
_cell_angle_alpha                81.337(3)
_cell_angle_beta                 75.997(3)
_cell_angle_gamma                87.516(3)
_cell_volume                     1414.08
_exptl_crystal_colour            red
_exptl_crystal_description       block
_chemical_melting_point          '385 K'
_cell_formula_units_Z            2
loop_
_atom_site_label
_atom_site_type_symbol
_atom_site_fract_x
_atom_site_fract_y
_atom_site_fract_z
C1 C 0.9516(3) 0.1319(2) 0.6430(2)
C2 C 0.9701(3) 0.1316(2) 0.7456(2)
C3 C 0.8524(3) 0.1333(3) 0.4744(2)
C4 C 0.9701(3) 0.1830(3) 0.4318(2)
C5 C 0.9211(2) 0.1460(2) 0.9534(2)
C6 C 1.0370(3) 0.2001(2) 0.9101(2)
C7 C 0.6085(3) 0.1856(3) 0.4370(3)
C8 C 0.5063(4) 0.1733(5) 0.3893(3)
H1 H 0.5115 0.1180 0.3397
C9 C 0.3990(5) 0.2423(7) 0.4153(5)
H2 H 0.3303 0.2371 0.3819
C10 C 0.3913(5) 0.3180(6) 0.4892(6)
H3 H 0.3164 0.3646 0.5095
C11 C 0.4969(7) 0.3267(6) 0.5356(5)
H4 H 0.4899 0.3782 0.5887
C12 C 1.1120(3) 0.3623(3) 0.2755(2)
C13 C 1.0678(4) 0.4469(3) 0.3452(3)
H5 H 0.9974 0.4310 0.4061
C14 C 1.1321(6) 0.5564(4) 0.3211(4)
H6 H 1.1075 0.6150 0.3679
C15 C 1.2308(6) 0.5790(4) 0.2298(5)
H7 H 1.2743 0.6530 0.2124
C16 C 1.2644(5) 0.4911(4) 0.1647(4)
H8 H 1.3304 0.5080 0.1005
C17 C 0.6815(3) 0.1110(3) 1.0999(2)
C18 C 0.6115(3) 0.0002(3) 1.1399(3)
H9 H 0.6481 -0.0743 1.1615
C19 C 0.4798(4) 0.0205(5) 1.1417(4)
H10 H 0.4183 -0.0413 1.1646
C20 C 0.4487(4) 0.1353(5) 1.1080(4)
H11 H 0.3646 0.1614 1.1053
C21 C 1.2042(3) 0.3819(3) 0.9029(2)
C22 C 1.3637(5) 0.5157(5) 0.7837(4)
H12 H 1.4408 0.5508 0.7398
C23 C 1.2500(6) 0.5718(4) 0.7911(4)
H13 H 1.2421 0.6480 0.7509
N1 N 0.6102(4) 0.2629(4) 0.5067(3)
N2 N 1.2094(3) 0.3816(3) 0.1862(2)
S1 S 0.81162(8) 0.07624(8) 0.61656(6)
S2 S 1.07071(7) 0.18674(8) 0.52411(6)
S3 S 0.85534(7) 0.07135(7) 0.86576(5)
S4 S 1.10879(7) 0.19409(7) 0.76914(5)
S5 S 0.74982(9) 0.09763(8) 0.39367(6)
S6 S 1.04040(9) 0.21705(8) 0.28935(6)
S7 S 0.84726(7) 0.12843(8) 1.09563(6)
S8 S 1.12753(7) 0.25521(7) 0.99222(6)
S9 S 0.57886(11) 0.22711(11) 1.07102(10)
S10 S 1.36057(15) 0.38462(16) 0.85431(15)
C24 C 1.13033(19) 0.50424(16) 0.87014(16)
H14 H 1.0434 0.5277 0.8915
S11? S 1.13033(19) 0.50424(16) 0.87014(16)
C25? C 1.36057(15) 0.38462(16) 0.85431(15)
H15? H 1.4261 0.3286 0.8644
loop_
_geom_bond_atom_site_label_1
_geom_bond_atom_site_label_2
_geom_bond_site_symmetry_1
_geom_bond_site_symmetry_2
C1 C2 1_555 1_555
C2 S3 1_555 1_555
C3 C4 1_555 1_555
C4 S2 1_555 1_555
C5 C6 1_555 1_555
C6 S4 1_555 1_555
C7 C8 1_555 1_555
C8 H1 1_555 1_555
C9 C8 1_555 1_555
H2 C9 1_555 1_555
C10 C9 1_555 1_555
H3 C10 1_555 1_555
C11 C10 1_555 1_555
H4 C11 1_555 1_555
C12 C13 1_555 1_555
C13 H5 1_555 1_555
C14 C13 1_555 1_555
H6 C14 1_555 1_555
C15 C14 1_555 1_555
H7 C15 1_555 1_555
C16 C15 1_555 1_555
H8 C16 1_555 1_555
C17 C18 1_555 1_555
C18 H9 1_555 1_555
C19 C18 1_555 1_555
H10 C19 1_555 1_555
C20 C19 1_555 1_555
H11 C20 1_555 1_555
C21 S8 1_555 1_555
C22 H12 1_555 1_555
C23 C22 1_555 1_555
H13 C23 1_555 1_555
N1 C7 1_555 1_555
N2 C12 1_555 1_555
S1 C1 1_555 1_555
S2 C1 1_555 1_555
S3 C5 1_555 1_555
S4 C2 1_555 1_555
S5 C3 1_555 1_555
S6 C4 1_555 1_555
S7 C5 1_555 1_555
S8 C6 1_555 1_555
S9 C17 1_555 1_555
S10 C21 1_555 1_555
C24 C21 1_555 1_555
H14 C24 1_555 1_555
C3 S1 1_555 1_555
C7 S5 1_555 1_555
C11 N1 1_555 1_555
C12 S6 1_555 1_555
C16 N2 1_555 1_555
C17 S7 1_555 1_555
C20 S9 1_555 1_555
C22 S10 1_555 1_555
C23 C24 1_555 1_555

#END
