
#######################################################################
#
#                 Cambridge Crystallographic Data Centre
#                                CCDC 
#
#######################################################################
#
# If this CIF has been generated from an entry in the Cambridge 
# Structural Database, then it will include bibliographic, chemical, 
# crystal, experimental, refinement or atomic coordinate data resulting 
# from the CCDC's data processing and validation procedures.
#
#######################################################################

data_KIGTOL
_chemical_name_common            TTF-28
_chemical_formula_moiety         'C26 H16 N4 S8'
_chemical_name_systematic        
2-((2-(4,5-bis(pyridin-2-ylsulfanyl)-1,3-dithiol-2-ylidene)-5-(pyridin-2-ylsulfanyl)-1,3-dithiol-4-yl)sulfanyl)pyridine
_symmetry_cell_setting           monoclinic
_symmetry_space_group_name_H-M   'P 21/c'
_symmetry_Int_Tables_number      14
_space_group_name_Hall           '-P 2ybc'
loop_
_symmetry_equiv_pos_site_id
_symmetry_equiv_pos_as_xyz
1 x,y,z
2 -x,1/2+y,1/2-z
3 -x,-y,-z
4 x,1/2-y,1/2+z
_cell_length_a                   13.373(15)
_cell_length_b                   11.410(13)
_cell_length_c                   19.01(2)
_cell_angle_alpha                90
_cell_angle_beta                 105.458(13)
_cell_angle_gamma                90
_cell_volume                     2795.73
_exptl_crystal_colour            red
_exptl_crystal_description       block
_chemical_melting_point          '431 K'
_cell_formula_units_Z            4
loop_
_atom_site_label
_atom_site_type_symbol
_atom_site_fract_x
_atom_site_fract_y
_atom_site_fract_z
C1 C 0.6654(2) 0.3635(3) 0.15990(17)
C2 C 0.6405(2) 0.4489(3) 0.11008(17)
C3 C 0.7683(2) 0.2027(3) 0.24370(17)
C4 C 0.7135(3) 0.2576(3) 0.28303(18)
C5 C 0.6517(3) 0.5978(3) 0.01166(18)
C6 C 0.5935(3) 0.6496(3) 0.04969(17)
C7 C 0.9692(3) 0.1228(3) 0.27042(17)
C8 C 1.0063(3) 0.2339(3) 0.28467(18)
H1 H 0.9638 0.2947 0.2918
C9 C 1.1091(3) 0.2529(4) 0.2881(2)
H2 H 1.1374 0.3276 0.2970
C10 C 1.1685(3) 0.1615(4) 0.2783(2)
H3 H 1.2382 0.1723 0.2808
C11 C 1.1250(4) 0.0545(4) 0.2649(2)
H4 H 1.1667 -0.0076 0.2584
C12 C 0.7687(3) 0.3496(3) 0.4191(2)
C13 C 0.7533(3) 0.3672(4) 0.4842(2)
H5 H 0.7132 0.3150 0.5027
C14 C 0.7960(5) 0.4610(5) 0.5234(3)
H6 H 0.7859 0.4741 0.5693
C15 C 0.8532(6) 0.5355(5) 0.4962(4)
H7 H 0.8830 0.6013 0.5224
C16 C 0.8669(6) 0.5126(6) 0.4286(4)
H8 H 0.9056 0.5650 0.4091
C17 C 0.8133(3) 0.6528(3) -0.04794(18)
C18 C 0.8801(3) 0.6467(3) 0.02062(18)
H9 H 0.8554 0.6401 0.0618
C19 C 0.9837(3) 0.6504(4) 0.0265(2)
H10 H 1.0311 0.6466 0.0722
C20 C 1.0177(3) 0.6595(4) -0.0341(2)
H11 H 1.0882 0.6617 -0.0311
C21 C 0.9452(4) 0.6655(4) -0.1000(2)
H12 H 0.9685 0.6725 -0.1417
C22 C 0.5523(3) 0.8654(3) 0.1038(2)
C23 C 0.4962(3) 0.9675(4) 0.0989(3)
H13 H 0.4500 0.9905 0.0553
C24 C 0.5113(4) 1.0343(4) 0.1610(3)
H14 H 0.4754 1.1043 0.1602
C25 C 0.5794(4) 0.9967(5) 0.2238(3)
H15 H 0.5900 1.0402 0.2665
C26 C 0.6313(3) 0.8957(5) 0.2231(2)
H16 H 0.6778 0.8712 0.2663
N1 N 1.0254(3) 0.0325(3) 0.26042(18)
N2 N 0.8269(4) 0.4174(4) 0.3893(2)
N3 N 0.8434(3) 0.6619(3) -0.10819(15)
N4 N 0.6195(2) 0.8287(3) 0.16378(18)
S1 S 0.74393(8) 0.24488(8) 0.15228(5)
S2 S 0.62163(7) 0.35984(9) 0.23823(5)
S3 S 0.68625(7) 0.45130(8) 0.03261(5)
S4 S 0.55836(7) 0.56488(8) 0.11576(5)
S5 S 0.84286(7) 0.07856(8) 0.27077(5)
S6 S 0.71494(8) 0.22177(9) 0.37194(5)
S7 S 0.67638(8) 0.65507(10) -0.06669(5)
S8 S 0.53071(8) 0.78210(9) 0.02273(5)
loop_
_geom_bond_atom_site_label_1
_geom_bond_atom_site_label_2
_geom_bond_site_symmetry_1
_geom_bond_site_symmetry_2
C1 C2 1_555 1_555
C2 S3 1_555 1_555
C3 C4 1_555 1_555
C4 S2 1_555 1_555
C5 C6 1_555 1_555
C6 S4 1_555 1_555
C7 C8 1_555 1_555
C8 H1 1_555 1_555
C9 C8 1_555 1_555
H2 C9 1_555 1_555
C10 C9 1_555 1_555
H3 C10 1_555 1_555
C11 C10 1_555 1_555
H4 C11 1_555 1_555
C12 C13 1_555 1_555
C13 H5 1_555 1_555
C14 C13 1_555 1_555
H6 C14 1_555 1_555
C15 C14 1_555 1_555
H7 C15 1_555 1_555
C16 C15 1_555 1_555
H8 C16 1_555 1_555
C17 C18 1_555 1_555
C18 H9 1_555 1_555
C19 C18 1_555 1_555
H10 C19 1_555 1_555
C20 C19 1_555 1_555
H11 C20 1_555 1_555
C21 C20 1_555 1_555
H12 C21 1_555 1_555
C22 C23 1_555 1_555
C23 H13 1_555 1_555
C24 C23 1_555 1_555
H14 C24 1_555 1_555
C25 C24 1_555 1_555
H15 C25 1_555 1_555
C26 C25 1_555 1_555
H16 C26 1_555 1_555
N1 C7 1_555 1_555
N2 C12 1_555 1_555
N3 C17 1_555 1_555
N4 C22 1_555 1_555
S1 C1 1_555 1_555
S2 C1 1_555 1_555
S3 C5 1_555 1_555
S4 C2 1_555 1_555
S5 C3 1_555 1_555
S6 C4 1_555 1_555
S7 C5 1_555 1_555
S8 C6 1_555 1_555
C3 S1 1_555 1_555
C7 S5 1_555 1_555
C11 N1 1_555 1_555
C12 S6 1_555 1_555
C16 N2 1_555 1_555
C17 S7 1_555 1_555
C21 N3 1_555 1_555
C22 S8 1_555 1_555
C26 N4 1_555 1_555

#END
