
#######################################################################
#
#                 Cambridge Crystallographic Data Centre
#                                CCDC 
#
#######################################################################
#
# If this CIF has been generated from an entry in the Cambridge 
# Structural Database, then it will include bibliographic, chemical, 
# crystal, experimental, refinement or atomic coordinate data resulting 
# from the CCDC's data processing and validation procedures.
#
#######################################################################

data_KIGTEC
_chemical_formula_moiety         'C39 H34 F1 N1 O8 S3'
_chemical_name_systematic        
N-{[6-fluoro-2-methyl-2-{[(4-methylphenyl)sulfonyl]methyl}-4-oxo-3,4-dihydronaphthalen-1(2H)-ylidene](4-methoxyphenyl)methyl}-N-(phenylsulfonyl)benzenesulfonamide
_symmetry_cell_setting           monoclinic
_symmetry_space_group_name_H-M   'P 21/c'
_symmetry_Int_Tables_number      14
_space_group_name_Hall           '-P 2ybc'
loop_
_symmetry_equiv_pos_site_id
_symmetry_equiv_pos_as_xyz
1 x,y,z
2 -x,1/2+y,1/2-z
3 -x,-y,-z
4 x,1/2-y,1/2+z
_cell_length_a                   13.6597(13)
_cell_length_b                   23.060(2)
_cell_length_c                   12.2080(12)
_cell_angle_alpha                90
_cell_angle_beta                 111.881(3)
_cell_angle_gamma                90
_cell_volume                     3568.41
_exptl_crystal_colour            white
_exptl_crystal_description       block
_cell_formula_units_Z            4
loop_
_atom_site_label
_atom_site_type_symbol
_atom_site_fract_x
_atom_site_fract_y
_atom_site_fract_z
S1 S 0.17709(8) 0.46925(4) 0.74625(8)
S2 S 0.29112(8) 0.55737(5) 0.92591(8)
S3 S 0.32639(9) 0.70451(4) 0.50864(10)
N1 N 0.2300(2) 0.53625(12) 0.7828(2)
F1 F 0.5843(2) 0.43384(11) 0.6684(2)
O1 O 0.2345(3) 0.47005(13) 0.3437(3)
O2 O -0.1372(3) 0.71816(19) 0.7153(4)
O3 O 0.0986(2) 0.47591(11) 0.6314(2)
O4 O 0.1484(2) 0.44983(11) 0.8406(2)
O5 O 0.3444(2) 0.50733(13) 0.9871(2)
O6 O 0.3481(2) 0.60773(12) 0.9182(2)
O7 O 0.2573(2) 0.73416(12) 0.5538(3)
O8 O 0.3566(3) 0.73299(13) 0.4220(3)
C1 C 0.2422(3) 0.50502(17) 0.4206(3)
C2 C 0.1588(3) 0.54883(16) 0.4066(3)
H1 H 0.1026 0.5301 0.4239
H2 H 0.1296 0.5604 0.3243
C3 C 0.1907(3) 0.60468(16) 0.4829(3)
C4 C 0.2399(3) 0.57972(14) 0.6082(3)
C5 C 0.3342(3) 0.54278(14) 0.6238(3)
C6 C 0.3338(3) 0.50558(15) 0.5335(3)
C7 C 0.4184(3) 0.46926(16) 0.5486(4)
H3 H 0.4176 0.4442 0.4885
C8 C 0.5027(3) 0.47062(17) 0.6521(4)
C9 C 0.5090(3) 0.50876(17) 0.7396(4)
H4 H 0.5694 0.5106 0.8079
C10 C 0.4246(3) 0.54462(15) 0.7258(3)
H5 H 0.4281 0.5705 0.7856
C11 C 0.0888(3) 0.63990(19) 0.4513(4)
H6 H 0.0386 0.6185 0.4730
H7 H 0.0602 0.6472 0.3678
H8 H 0.1038 0.6761 0.4931
C12 C 0.1976(3) 0.58095(14) 0.6912(3)
C13 C 0.1142(3) 0.61948(16) 0.6992(3)
C14 C 0.0199(3) 0.5970(2) 0.6994(4)
H9 H 0.0101 0.5571 0.6947
C15 C -0.0588(4) 0.6314(2) 0.7062(4)
H10 H -0.1211 0.6150 0.7059
C16 C -0.0458(4) 0.6890(3) 0.7134(4)
C17 C 0.0465(4) 0.71474(19) 0.7180(4)
H11 H 0.0550 0.7548 0.7252
C18 C 0.1283(4) 0.67889(18) 0.7116(3)
H12 H 0.1918 0.6953 0.7157
C19 C -0.1267(6) 0.7740(3) 0.7308(6)
H13 H -0.0750 0.7820 0.8078
H14 H -0.1931 0.7906 0.7242
H15 H -0.1043 0.7906 0.6719
C20 C 0.2691(3) 0.63753(16) 0.4417(3)
H16 H 0.2335 0.6449 0.3579
H17 H 0.3268 0.6112 0.4500
C21 C 0.4423(3) 0.68669(16) 0.6282(4)
C22 C 0.4474(4) 0.69284(17) 0.7425(4)
H18 H 0.3888 0.7052 0.7575
C23 C 0.5411(4) 0.68023(19) 0.8347(4)
H19 H 0.5455 0.6850 0.9120
C24 C 0.6293(4) 0.6606(2) 0.8137(5)
C25 C 0.6209(4) 0.6552(2) 0.6984(5)
H20 H 0.6789 0.6424 0.6826
C26 C 0.5296(4) 0.66813(19) 0.6067(4)
H21 H 0.5260 0.6645 0.5294
C27 C 0.7307(5) 0.6465(3) 0.9151(6)
H22 H 0.7681 0.6818 0.9461
H23 H 0.7735 0.6219 0.8877
H24 H 0.7148 0.6270 0.9760
C28 C 0.2712(3) 0.42017(15) 0.7336(3)
C29 C 0.3637(4) 0.40773(18) 0.8267(4)
H25 H 0.3826 0.4285 0.8969
C30 C 0.4282(4) 0.3638(2) 0.8145(5)
H26 H 0.4907 0.3549 0.8768
C31 C 0.4003(5) 0.3338(2) 0.7119(5)
H27 H 0.4446 0.3047 0.7048
C32 C 0.3087(4) 0.34537(19) 0.6184(5)
H28 H 0.2900 0.3240 0.5490
C33 C 0.2444(4) 0.38976(17) 0.6296(4)
H29 H 0.1828 0.3990 0.5663
C34 C 0.1969(3) 0.57823(17) 0.9843(3)
C35 C 0.1510(4) 0.53703(18) 1.0321(3)
H30 H 0.1682 0.4980 1.0320
C36 C 0.0788(4) 0.5550(2) 1.0801(4)
H31 H 0.0469 0.5278 1.1123
C37 C 0.0542(4) 0.6124(2) 1.0807(4)
H32 H 0.0046 0.6240 1.1117
C38 C 0.1025(4) 0.6530(2) 1.0355(4)
H33 H 0.0856 0.6920 1.0365
C39 C 0.1759(4) 0.63635(18) 0.9886(3)
H34 H 0.2104 0.6639 0.9604
H35? H 0.2826 0.6144 0.6391
loop_
_geom_bond_atom_site_label_1
_geom_bond_atom_site_label_2
_geom_bond_site_symmetry_1
_geom_bond_site_symmetry_2
S1 N1 1_555 1_555
S2 N1 1_555 1_555
S3 O7 1_555 1_555
N1 C12 1_555 1_555
F1 C8 1_555 1_555
O1 C1 1_555 1_555
O2 C16 1_555 1_555
O3 S1 1_555 1_555
O4 S1 1_555 1_555
O5 S2 1_555 1_555
O6 S2 1_555 1_555
O8 S3 1_555 1_555
C1 C2 1_555 1_555
C2 H1 1_555 1_555
H2 C2 1_555 1_555
C3 C2 1_555 1_555
C4 C3 1_555 1_555
C5 C4 1_555 1_555
C6 C1 1_555 1_555
C7 C6 1_555 1_555
H3 C7 1_555 1_555
C8 C7 1_555 1_555
C9 C8 1_555 1_555
H4 C9 1_555 1_555
C10 C5 1_555 1_555
H5 C10 1_555 1_555
C11 C3 1_555 1_555
H6 C11 1_555 1_555
H7 C11 1_555 1_555
H8 C11 1_555 1_555
C12 C4 1_555 1_555
C13 C12 1_555 1_555
C14 C13 1_555 1_555
H9 C14 1_555 1_555
C15 C14 1_555 1_555
H10 C15 1_555 1_555
C16 C15 1_555 1_555
C17 C16 1_555 1_555
H11 C17 1_555 1_555
C18 C13 1_555 1_555
H12 C18 1_555 1_555
C19 O2 1_555 1_555
H13 C19 1_555 1_555
H14 C19 1_555 1_555
H15 C19 1_555 1_555
C20 S3 1_555 1_555
H16 C20 1_555 1_555
H17 C20 1_555 1_555
C21 S3 1_555 1_555
C22 C21 1_555 1_555
H18 C22 1_555 1_555
C23 C22 1_555 1_555
H19 C23 1_555 1_555
C24 C23 1_555 1_555
C25 C24 1_555 1_555
H20 C25 1_555 1_555
C26 C21 1_555 1_555
H21 C26 1_555 1_555
C27 C24 1_555 1_555
H22 C27 1_555 1_555
H23 C27 1_555 1_555
H24 C27 1_555 1_555
C28 S1 1_555 1_555
C29 C28 1_555 1_555
H25 C29 1_555 1_555
C30 C29 1_555 1_555
H26 C30 1_555 1_555
C31 C30 1_555 1_555
H27 C31 1_555 1_555
C32 C31 1_555 1_555
H28 C32 1_555 1_555
C33 C28 1_555 1_555
H29 C33 1_555 1_555
C34 S2 1_555 1_555
C35 C34 1_555 1_555
H30 C35 1_555 1_555
C36 C35 1_555 1_555
H31 C36 1_555 1_555
C37 C36 1_555 1_555
H32 C37 1_555 1_555
C38 C37 1_555 1_555
H33 C38 1_555 1_555
C39 C34 1_555 1_555
H34 C39 1_555 1_555
C3 C20 1_555 1_555
C5 C6 1_555 1_555
C9 C10 1_555 1_555
C17 C18 1_555 1_555
C25 C26 1_555 1_555
C32 C33 1_555 1_555
C38 C39 1_555 1_555

#END
