
#######################################################################
#
#                 Cambridge Crystallographic Data Centre
#                                CCDC 
#
#######################################################################
#
# If this CIF has been generated from an entry in the Cambridge 
# Structural Database, then it will include bibliographic, chemical, 
# crystal, experimental, refinement or atomic coordinate data resulting 
# from the CCDC's data processing and validation procedures.
#
#######################################################################

data_KIGWUU
_chemical_name_common            TTF28-III
_chemical_formula_moiety         'C26 H16 N4 S8,C1 S2'
_chemical_name_systematic        
'2-((2-(4,5-bis(pyridin-2-ylsulfanyl)-1,3-dithiol-2-ylidene)-5-(pyridin-2-ylsulfanyl)-1,3-dithiol-4-yl)sulfanyl)pyridine carbon disulfide solvate'
_symmetry_cell_setting           monoclinic
_symmetry_space_group_name_H-M   'C 2/c'
_symmetry_Int_Tables_number      15
_space_group_name_Hall           '-C 2yn'
loop_
_symmetry_equiv_pos_site_id
_symmetry_equiv_pos_as_xyz
1 x,y,z
2 -x,y,1/2-z
3 1/2+x,1/2+y,z
4 1/2-x,1/2+y,1/2-z
5 -x,-y,-z
6 x,-y,1/2+z
7 1/2-x,1/2-y,-z
8 1/2+x,1/2-y,1/2+z
_cell_length_a                   19.6536(12)
_cell_length_b                   6.0071(3)
_cell_length_c                   27.0431(10)
_cell_angle_alpha                90
_cell_angle_beta                 90.526(4)
_cell_angle_gamma                90
_cell_volume                     3192.6
_exptl_crystal_colour            red
_exptl_crystal_description       block
_chemical_melting_point          '492 K'
_cell_formula_units_Z            4
loop_
_atom_site_label
_atom_site_type_symbol
_atom_site_fract_x
_atom_site_fract_y
_atom_site_fract_z
S1 S 0.32272(4) 0.98167(12) 0.48467(3)
S2 S 0.34521(4) 0.60249(11) 0.41425(3)
S3 S 0.18498(4) 1.07929(13) 0.44544(3)
S4 S 0.19016(4) 0.71175(12) 0.37056(3)
N1 N 0.14246(14) 0.8120(4) 0.28488(10)
C1 C 0.29424(15) 0.8246(4) 0.43356(10)
C2 C 0.41393(14) 0.7364(4) 0.38408(10)
C3 C 0.23203(15) 0.8694(4) 0.41578(10)
N2 N 0.45799(14) 0.5886(4) 0.36790(12)
C4 C 0.25177(14) 1.1604(4) 0.48511(9)
C5 C 0.18093(14) 0.8997(4) 0.32037(10)
C6 C 0.21026(16) 1.1096(4) 0.31775(11)
H1 H 0.2382 1.1626 0.3431
C7 C 0.42049(17) 0.9620(4) 0.37671(12)
H2 H 0.3877 1.0610 0.3880
C8 C 0.5235(2) 0.8889(6) 0.33511(18)
H3 H 0.5618 0.9366 0.3181
C9 C 0.19667(19) 1.2362(5) 0.27669(12)
H4 H 0.2142 1.3795 0.2740
C10 C 0.1572(2) 1.1496(7) 0.23984(14)
H5 H 0.1474 1.2325 0.2116
C11 C 0.51190(19) 0.6667(6) 0.34385(19)
H6 H 0.5436 0.5647 0.3323
C12 C 0.47688(19) 1.0360(5) 0.35226(15)
H7 H 0.4832 1.1878 0.3474
C13 C 0.1323(2) 0.9400(7) 0.24501(13)
H8 H 0.1064 0.8816 0.2191
S1F S 0.17728(4) 1.51833(12) 0.51533(3)
S2F S 0.15479(4) 1.89751(11) 0.58575(3)
S3F S 0.31502(4) 1.42071(13) 0.55456(3)
S4F S 0.30984(4) 1.78825(12) 0.62944(3)
N1F N 0.35754(14) 1.6880(4) 0.71512(10)
C1F C 0.20576(15) 1.6754(4) 0.56644(10)
C2F C 0.08607(14) 1.7636(4) 0.61592(10)
C3F C 0.26797(15) 1.6306(4) 0.58422(10)
N2F N 0.04201(14) 1.9114(4) 0.63210(12)
C4F C 0.24823(14) 1.3396(4) 0.51489(9)
C5F C 0.31907(14) 1.6003(4) 0.67963(10)
C6F C 0.28974(16) 1.3904(4) 0.68225(11)
H1F H 0.2618 1.3374 0.6569
C7F C 0.07951(17) 1.5380(4) 0.62329(12)
H2F H 0.1123 1.4390 0.6120
C8F C -0.0235(2) 1.6111(6) 0.66489(18)
H3F H -0.0618 1.5634 0.6819
C9F C 0.30333(19) 1.2638(5) 0.72331(12)
H4F H 0.2858 1.1205 0.7260
C10F C 0.3428(2) 1.3504(7) 0.76016(14)
H5F H 0.3526 1.2675 0.7884
C11F C -0.01190(19) 1.8333(6) 0.65615(19)
H6F H -0.0436 1.9353 0.6677
C12F C 0.02312(19) 1.4640(5) 0.64774(15)
H7F H 0.0168 1.3122 0.6526
C13F C 0.3677(2) 1.5600(7) 0.75499(13)
H8F H 0.3936 1.6184 0.7809
S5 S 0.50811(9) 0.2683(3) 0.47946(8)
C14 C 0.5000 0.5000 0.5000
S5D S 0.49189(9) 0.7317(3) 0.52054(8)
loop_
_geom_bond_atom_site_label_1
_geom_bond_atom_site_label_2
_geom_bond_site_symmetry_1
_geom_bond_site_symmetry_2
S1 C1 1_555 1_555
S2 C1 1_555 1_555
S3 C3 1_555 1_555
S4 C3 1_555 1_555
N1 C5 1_555 1_555
C1 C3 1_555 1_555
C2 S2 1_555 1_555
N2 C2 1_555 1_555
C4 S1 1_555 1_555
C5 S4 1_555 1_555
C6 C5 1_555 1_555
H1 C6 1_555 1_555
C7 C2 1_555 1_555
H2 C7 1_555 1_555
C8 H3 1_555 1_555
C9 C6 1_555 1_555
H4 C9 1_555 1_555
C10 C9 1_555 1_555
H5 C10 1_555 1_555
C11 N2 1_555 1_555
H6 C11 1_555 1_555
C12 C7 1_555 1_555
H7 C12 1_555 1_555
C13 N1 1_555 1_555
H8 C13 1_555 1_555
S5 C14 1_555 1_555
C14 S5D 1_555 1_555
S1F C1F 1_555 1_555
S2F C1F 1_555 1_555
S3F C3F 1_555 1_555
S4F C3F 1_555 1_555
N1F C5F 1_555 1_555
C1F C3F 1_555 1_555
C2F S2F 1_555 1_555
N2F C2F 1_555 1_555
C4F C4 1_555 1_555
C5F S4F 1_555 1_555
C6F C5F 1_555 1_555
H1F C6F 1_555 1_555
C7F C2F 1_555 1_555
H2F C7F 1_555 1_555
C8F H3F 1_555 1_555
C9F C6F 1_555 1_555
H4F C9F 1_555 1_555
C10F C9F 1_555 1_555
H5F C10F 1_555 1_555
C11F N2F 1_555 1_555
H6F C11F 1_555 1_555
C12F C7F 1_555 1_555
H7F C12F 1_555 1_555
C13F N1F 1_555 1_555
H8F C13F 1_555 1_555
S3 C4 1_555 1_555
C8 C11 1_555 1_555
C8 C12 1_555 1_555
C10 C13 1_555 1_555
S1F C4F 1_555 1_555
S3F C4F 1_555 1_555
C8F C11F 1_555 1_555
C8F C12F 1_555 1_555
C10F C13F 1_555 1_555

#END
