
#######################################################################
#
#                 Cambridge Crystallographic Data Centre
#                                CCDC 
#
#######################################################################
#
# If this CIF has been generated from an entry in the Cambridge 
# Structural Database, then it will include bibliographic, chemical, 
# crystal, experimental, refinement or atomic coordinate data resulting 
# from the CCDC's data processing and validation procedures.
#
#######################################################################

data_KIGXIK
_chemical_formula_moiety         'C19 H20 F1 N1 O2 S1'
_chemical_name_systematic        
2-(t-butylsulfinyl)-1-(3-fluorophenyl)-1,4-dihydroisoquinolin-3(2H)-one
_symmetry_cell_setting           orthorhombic
_symmetry_space_group_name_H-M   'P 21 21 21'
_symmetry_Int_Tables_number      19
_space_group_name_Hall           'P 2ac 2ab'
loop_
_symmetry_equiv_pos_site_id
_symmetry_equiv_pos_as_xyz
1 x,y,z
2 1/2-x,-y,1/2+z
3 -x,1/2+y,1/2-z
4 1/2+x,1/2-y,-z
_cell_length_a                   8.4084(8)
_cell_length_b                   13.5716(13)
_cell_length_c                   15.4024(17)
_cell_angle_alpha                90
_cell_angle_beta                 90
_cell_angle_gamma                90
_cell_volume                     1757.65
_exptl_crystal_colour            colorless
_exptl_crystal_description       prismatic
_cell_formula_units_Z            4
loop_
_atom_site_label
_atom_site_type_symbol
_atom_site_fract_x
_atom_site_fract_y
_atom_site_fract_z
S1 S 1.07042(12) 0.60559(7) 0.60662(6)
F1 F 0.4095(4) 0.8076(2) 0.7989(2)
N1 N 0.9757(3) 0.5602(2) 0.70063(19)
O1 O 1.1027(4) 0.41568(19) 0.67818(19)
O2 O 1.0798(4) 0.71305(18) 0.62051(17)
C1 C 0.9727(4) 0.6182(3) 0.8521(2)
C2 C 0.9980(5) 0.6984(3) 0.9068(3)
H1 H 0.9706 0.7614 0.8884
C3 C 1.0633(7) 0.6849(4) 0.9879(3)
H2 H 1.0810 0.7390 1.0237
C4 C 1.1023(6) 0.5924(4) 1.0161(3)
H3 H 1.1447 0.5838 1.0713
C5 C 1.0791(6) 0.5123(3) 0.9632(3)
H4 H 1.1068 0.4496 0.9824
C6 C 1.0140(4) 0.5250(3) 0.8809(3)
C7 C 0.9910(6) 0.4402(3) 0.8192(3)
H5 H 1.0594 0.3860 0.8364
H6 H 0.8817 0.4176 0.8225
C8 C 1.0285(4) 0.4689(3) 0.7275(3)
C9 C 0.9049(4) 0.6319(2) 0.7622(2)
H7 H 0.9376 0.6975 0.7426
C10 C 0.7233(4) 0.6312(3) 0.7627(2)
C11 C 0.6330(5) 0.5481(3) 0.7470(3)
H8 H 0.6829 0.4889 0.7337
C12 C 0.4678(5) 0.5524(4) 0.7509(3)
H9 H 0.4084 0.4958 0.7408
C13 C 0.3916(5) 0.6392(3) 0.7695(3)
H10 H 0.2813 0.6425 0.7729
C14 C 0.4836(5) 0.7204(3) 0.7828(3)
C15 C 0.6463(5) 0.7198(3) 0.7804(3)
H11 H 0.7040 0.7772 0.7902
C16 C 0.9177(5) 0.5874(3) 0.5219(2)
C17 C 0.8829(7) 0.4776(3) 0.5156(3)
H12 H 0.8338 0.4556 0.5684
H13 H 0.9806 0.4423 0.5068
H14 H 0.8126 0.4656 0.4677
C18 C 1.0019(6) 0.6247(4) 0.4399(3)
H15 H 0.9323 0.6177 0.3909
H16 H 1.0968 0.5868 0.4303
H17 H 1.0294 0.6928 0.4471
C19 C 0.7722(6) 0.6497(4) 0.5405(3)
H18 H 0.7055 0.6517 0.4900
H19 H 0.8048 0.7154 0.5553
H20 H 0.7141 0.6216 0.5881
loop_
_geom_bond_atom_site_label_1
_geom_bond_atom_site_label_2
_geom_bond_site_symmetry_1
_geom_bond_site_symmetry_2
S1 N1 1_555 1_555
F1 C14 1_555 1_555
N1 C8 1_555 1_555
O1 C8 1_555 1_555
O2 S1 1_555 1_555
C1 C2 1_555 1_555
C2 H1 1_555 1_555
C3 C2 1_555 1_555
H2 C3 1_555 1_555
C4 C3 1_555 1_555
H3 C4 1_555 1_555
C5 C4 1_555 1_555
H4 C5 1_555 1_555
C6 C1 1_555 1_555
C7 C6 1_555 1_555
H5 C7 1_555 1_555
H6 C7 1_555 1_555
C8 C7 1_555 1_555
C9 N1 1_555 1_555
H7 C9 1_555 1_555
C10 C9 1_555 1_555
C11 C10 1_555 1_555
H8 C11 1_555 1_555
C12 C11 1_555 1_555
H9 C12 1_555 1_555
C13 C12 1_555 1_555
H10 C13 1_555 1_555
C14 C13 1_555 1_555
C15 C10 1_555 1_555
H11 C15 1_555 1_555
C16 S1 1_555 1_555
C17 C16 1_555 1_555
H12 C17 1_555 1_555
H13 C17 1_555 1_555
H14 C17 1_555 1_555
C18 C16 1_555 1_555
H15 C18 1_555 1_555
H16 C18 1_555 1_555
H17 C18 1_555 1_555
C19 C16 1_555 1_555
H18 C19 1_555 1_555
H19 C19 1_555 1_555
H20 C19 1_555 1_555
C1 C9 1_555 1_555
C5 C6 1_555 1_555
C14 C15 1_555 1_555

#END
