
#######################################################################
#
#                 Cambridge Crystallographic Data Centre
#                                CCDC 
#
#######################################################################
#
# If this CIF has been generated from an entry in the Cambridge 
# Structural Database, then it will include bibliographic, chemical, 
# crystal, experimental, refinement or atomic coordinate data resulting 
# from the CCDC's data processing and validation procedures.
#
#######################################################################

data_KIHDIP
_chemical_compound_source        'roots of Cynanchum stauntonii'
_chemical_name_common            
'3beta-Hydroxy-18-hydroperoxy-15,20alpha:18,20beta-diepoxy-13,14:14,15-disecopregna-5,12-dien-14-oic acid 16-oxylactone'
_chemical_formula_moiety         'C21 H28 O7'
_chemical_name_systematic        Stauntonine
_chemical_properties_biological  
'parent plant used in Chinese medicine as an antitussive and expectorant; vasodilator'
_symmetry_cell_setting           orthorhombic
_symmetry_space_group_name_H-M   'P 21 21 21'
_symmetry_Int_Tables_number      19
_space_group_name_Hall           'P 2ac 2ab'
loop_
_symmetry_equiv_pos_site_id
_symmetry_equiv_pos_as_xyz
1 x,y,z
2 1/2-x,-y,1/2+z
3 1/2+x,1/2-y,-z
4 -x,1/2+y,1/2-z
_cell_length_a                   7.926(1)
_cell_length_b                   8.254(1)
_cell_length_c                   29.791(2)
_cell_angle_alpha                90
_cell_angle_beta                 90
_cell_angle_gamma                90
_cell_volume                     1948.96
_exptl_crystal_colour            colorless
_exptl_crystal_description       prisms
_chemical_melting_point          '173-175 deg.C'
_cell_formula_units_Z            4
_exptl_crystal_recrystallization_method 'ethyl acetate'
loop_
_atom_site_label
_atom_site_type_symbol
_atom_site_fract_x
_atom_site_fract_y
_atom_site_fract_z
O1 O 0.5983(7) 0.5586(6) 0.2313(1)
O2 O 1.2563(6) 0.8367(6) 0.0302(1)
O3 O 1.5017(6) 0.8663(6) 0.0681(1)
O4 O 1.8023(6) 1.1548(7) 0.0436(1)
O5 O 1.6842(6) 1.1894(7) 0.1141(1)
O6 O 1.4661(6) 1.2605(6) 0.1638(1)
O7 O 1.5666(6) 1.2307(6) 0.2049(1)
C1 C 0.8797(10) 0.8801(9) 0.1824(3)
C2 C 0.7636(10) 0.7967(9) 0.2161(3)
C3 C 0.7102(9) 0.6298(9) 0.1981(2)
C4 C 0.8649(9) 0.5260(8) 0.1909(2)
C5 C 0.9926(9) 0.6050(8) 0.1596(2)
C6 C 1.0703(10) 0.5186(8) 0.1279(2)
C7 C 1.2066(10) 0.5840(8) 0.0978(2)
C8 C 1.2656(8) 0.7540(8) 0.1084(2)
C9 C 1.1137(8) 0.8579(8) 0.1258(2)
C10 C 1.0378(9) 0.7804(8) 0.1691(2)
C11 C 1.1519(10) 1.0402(9) 0.1348(2)
C12 C 1.2376(8) 1.1138(8) 0.0944(2)
C13 C 1.4018(9) 1.1501(8) 0.0932(2)
C14 C 1.3338(9) 0.8235(8) 0.0644(2)
C15 C 1.7546(10) 0.9882(10) 0.0379(2)
C16 C 1.5604(9) 0.9869(9) 0.0357(2)
C17 C 1.5059(8) 1.1601(9) 0.0513(2)
C18 C 1.5249(8) 1.1427(9) 0.1317(2)
C19 C 1.1681(11) 0.7780(11) 0.2085(2)
C20 C 1.6735(9) 1.2392(10) 0.0663(2)
C21 C 1.6931(10) 1.4158(9) 0.0615(3)
H1 H 0.617 0.574 0.262
H2 H 1.619 1.329 0.212
H3 H 0.803 0.906 0.153
H4 H 0.918 0.997 0.197
H5 H 0.835 0.782 0.248
H6 H 0.656 0.873 0.224
H7 H 0.644 0.646 0.166
H8 H 0.829 0.408 0.177
H9 H 0.926 0.502 0.223
H10 H 1.031 0.391 0.123
H11 H 1.315 0.501 0.100
H12 H 1.161 0.581 0.063
H13 H 1.365 0.752 0.134
H14 H 1.017 0.856 0.100
H15 H 1.235 1.048 0.164
H16 H 1.036 1.103 0.143
H17 H 1.160 1.138 0.065
H18 H 1.811 0.937 0.007
H19 H 1.800 0.913 0.066
H20 H 1.517 0.960 0.002
H21 H 1.444 1.226 0.024
H22 H 1.528 1.020 0.147
H23 H 1.194 0.900 0.221
H24 H 1.283 0.720 0.199
H25 H 1.103 0.709 0.235
H26 H 1.666 1.461 0.028
H27 H 1.819 1.458 0.071
H28 H 1.601 1.470 0.086
loop_
_geom_bond_atom_site_label_1
_geom_bond_atom_site_label_2
_geom_bond_site_symmetry_1
_geom_bond_site_symmetry_2
O1 C3 1_555 1_555
O2 C14 1_555 1_555
O3 C14 1_555 1_555
O4 C15 1_555 1_555
O5 C18 1_555 1_555
O6 O7 1_555 1_555
O7 H2 1_555 1_555
C1 C2 1_555 1_555
C2 C3 1_555 1_555
C3 C4 1_555 1_555
C4 C5 1_555 1_555
C5 C6 1_555 1_555
C6 C7 1_555 1_555
C7 C8 1_555 1_555
C8 C9 1_555 1_555
C9 C10 1_555 1_555
C10 C1 1_555 1_555
C11 C9 1_555 1_555
C12 C11 1_555 1_555
C13 C12 1_555 1_555
C14 C8 1_555 1_555
C15 C16 1_555 1_555
C16 O3 1_555 1_555
C17 C13 1_555 1_555
C18 O6 1_555 1_555
C19 C10 1_555 1_555
C20 O4 1_555 1_555
C21 C20 1_555 1_555
H1 O1 1_555 1_555
H3 C1 1_555 1_555
H4 C1 1_555 1_555
H5 C2 1_555 1_555
H6 C2 1_555 1_555
H7 C3 1_555 1_555
H8 C4 1_555 1_555
H9 C4 1_555 1_555
H10 C6 1_555 1_555
H11 C7 1_555 1_555
H12 C7 1_555 1_555
H13 C8 1_555 1_555
H14 C9 1_555 1_555
H15 C11 1_555 1_555
H16 C11 1_555 1_555
H17 C12 1_555 1_555
H18 C15 1_555 1_555
H19 C15 1_555 1_555
H20 C16 1_555 1_555
H21 C17 1_555 1_555
H22 C18 1_555 1_555
H23 C19 1_555 1_555
H24 C19 1_555 1_555
H25 C19 1_555 1_555
H26 C21 1_555 1_555
H27 C21 1_555 1_555
H28 C21 1_555 1_555
O5 C20 1_555 1_555
C5 C10 1_555 1_555
C13 C18 1_555 1_555
C16 C17 1_555 1_555
C17 C20 1_555 1_555

#END
