
#######################################################################
#
#                 Cambridge Crystallographic Data Centre
#                                CCDC 
#
#######################################################################
#
# If this CIF has been generated from an entry in the Cambridge 
# Structural Database, then it will include bibliographic, chemical, 
# crystal, experimental, refinement or atomic coordinate data resulting 
# from the CCDC's data processing and validation procedures.
#
#######################################################################

data_KIHHIV
_chemical_formula_moiety         'C25 H21 N1 O3 S1'
_chemical_name_systematic        
3-(4-methoxyphenyl)-2-nitro-4-phenyl-1,2,3,4-tetrahydrodibenzo[b,d]thiophene
_symmetry_cell_setting           orthorhombic
_symmetry_space_group_name_H-M   'P 21 21 21'
_symmetry_Int_Tables_number      19
_space_group_name_Hall           'P 2ac 2ab'
loop_
_symmetry_equiv_pos_site_id
_symmetry_equiv_pos_as_xyz
1 x,y,z
2 1/2-x,-y,1/2+z
3 1/2+x,1/2-y,-z
4 -x,1/2+y,1/2-z
_cell_length_a                   6.1844(5)
_cell_length_b                   11.5875(6)
_cell_length_c                   29.206(2)
_cell_angle_alpha                90
_cell_angle_beta                 90
_cell_angle_gamma                90
_cell_volume                     2092.95
_exptl_crystal_colour            colorless
_exptl_crystal_description       block
_cell_formula_units_Z            4
loop_
_atom_site_label
_atom_site_type_symbol
_atom_site_fract_x
_atom_site_fract_y
_atom_site_fract_z
S1 S -0.53486(18) -0.71236(8) -0.18657(3)
O1 O 0.3494(6) -0.6083(3) -0.05169(11)
O2 O 0.0659(5) -0.6241(3) -0.01104(9)
O3 O 0.0461(5) -0.0781(2) -0.04374(9)
N1 N 0.1568(6) -0.6186(3) -0.04748(12)
C1 C -0.4914(7) -0.8582(3) -0.17492(11)
C2 C -0.6000(7) -0.9519(3) -0.19370(13)
H1 H -0.7106 -0.9416 -0.2149
C3 C -0.5377(8) -1.0612(3) -0.17977(13)
H2 H -0.6068 -1.1254 -0.1920
C4 C -0.3733(8) -1.0768(4) -0.14768(14)
H3 H -0.3349 -1.1510 -0.1386
C5 C -0.2683(8) -0.9839(3) -0.12946(13)
H4 H -0.1591 -0.9949 -0.1080
C6 C -0.3251(7) -0.8723(3) -0.14308(12)
C7 C -0.2363(6) -0.7636(3) -0.12799(12)
C8 C -0.3339(6) -0.6725(3) -0.14755(12)
C9 C -0.2883(7) -0.5476(3) -0.13732(12)
H5 H -0.4284 -0.5098 -0.1327
C10 C -0.1630(6) -0.5407(3) -0.09039(12)
H6 H -0.2645 -0.5652 -0.0665
C11 C 0.0221(6) -0.6289(3) -0.09070(11)
H7 H 0.1147 -0.6143 -0.1173
C12 C -0.0613(7) -0.7519(3) -0.09311(12)
H8 H 0.0569 -0.8033 -0.1008
H9 H -0.1166 -0.7744 -0.0633
C13 C -0.0953(6) -0.4185(3) -0.07880(12)
C14 C -0.2364(7) -0.3489(3) -0.05395(11)
H10 H -0.3686 -0.3789 -0.0445
C15 C -0.1847(7) -0.2370(3) -0.04313(11)
H11 H -0.2814 -0.1925 -0.0263
C16 C 0.0097(8) -0.1902(3) -0.05696(11)
C17 C 0.1525(7) -0.2561(3) -0.08230(13)
H12 H 0.2832 -0.2251 -0.0922
C18 C 0.0976(7) -0.3695(3) -0.09279(13)
H13 H 0.1939 -0.4139 -0.1098
C19 C 0.2482(8) -0.0274(3) -0.05506(14)
H14 H 0.2607 -0.0211 -0.0877
H15 H 0.3632 -0.0749 -0.0435
H16 H 0.2575 0.0480 -0.0416
C20 C -0.2243(7) -0.3678(3) -0.18321(13)
H17 H -0.3402 -0.3350 -0.1676
C21 C -0.1069(8) -0.3011(3) -0.21363(13)
H18 H -0.1426 -0.2240 -0.2182
C22 C 0.0639(8) -0.3499(3) -0.23725(13)
H19 H 0.1461 -0.3051 -0.2571
C23 C 0.1120(7) -0.4654(3) -0.23121(14)
H20 H 0.2244 -0.4989 -0.2477
C24 C -0.0064(7) -0.5310(3) -0.20084(11)
H21 H 0.0255 -0.6089 -0.1972
C25 C -0.1729(7) -0.4818(3) -0.17558(12)
loop_
_geom_bond_atom_site_label_1
_geom_bond_atom_site_label_2
_geom_bond_site_symmetry_1
_geom_bond_site_symmetry_2
S1 C1 1_555 1_555
O1 N1 1_555 1_555
O2 N1 1_555 1_555
O3 C16 1_555 1_555
N1 C11 1_555 1_555
C1 C2 1_555 1_555
C2 H1 1_555 1_555
C3 C2 1_555 1_555
H2 C3 1_555 1_555
C4 C3 1_555 1_555
H3 C4 1_555 1_555
C5 C4 1_555 1_555
H4 C5 1_555 1_555
C6 C1 1_555 1_555
C7 C6 1_555 1_555
C8 S1 1_555 1_555
C9 C8 1_555 1_555
H5 C9 1_555 1_555
C10 C9 1_555 1_555
H6 C10 1_555 1_555
C11 C10 1_555 1_555
H7 C11 1_555 1_555
C12 C7 1_555 1_555
H8 C12 1_555 1_555
H9 C12 1_555 1_555
C13 C10 1_555 1_555
C14 C13 1_555 1_555
H10 C14 1_555 1_555
C15 C14 1_555 1_555
H11 C15 1_555 1_555
C16 C15 1_555 1_555
C17 C16 1_555 1_555
H12 C17 1_555 1_555
C18 C13 1_555 1_555
H13 C18 1_555 1_555
C19 O3 1_555 1_555
H14 C19 1_555 1_555
H15 C19 1_555 1_555
H16 C19 1_555 1_555
C20 H17 1_555 1_555
C21 C20 1_555 1_555
H18 C21 1_555 1_555
C22 C21 1_555 1_555
H19 C22 1_555 1_555
C23 C22 1_555 1_555
H20 C23 1_555 1_555
C24 C23 1_555 1_555
H21 C24 1_555 1_555
C25 C9 1_555 1_555
C5 C6 1_555 1_555
C7 C8 1_555 1_555
C11 C12 1_555 1_555
C17 C18 1_555 1_555
C20 C25 1_555 1_555
C24 C25 1_555 1_555

#END
