
#######################################################################
#
#                 Cambridge Crystallographic Data Centre
#                                CCDC 
#
#######################################################################
#
# If this CIF has been generated from an entry in the Cambridge 
# Structural Database, then it will include bibliographic, chemical, 
# crystal, experimental, refinement or atomic coordinate data resulting 
# from the CCDC's data processing and validation procedures.
#
#######################################################################

data_KIHLOD
_chemical_formula_moiety         'C35 H35 N3 O7'
_chemical_name_systematic        
'Diethyl 18,20,25-trioxo-19-phenyl-17,19,21-triazaheptacyclo[14.5.2.1^2,15^.1^4,13^.1^6,11^.0^2,15^.0^17,21^]hexacosa-6,8,10,22-tetraene-4,13-dicarboxylate'
_symmetry_cell_setting           monoclinic
_symmetry_space_group_name_H-M   'P 21/n'
_symmetry_Int_Tables_number      14
_space_group_name_Hall           '-P 2yn'
loop_
_symmetry_equiv_pos_site_id
_symmetry_equiv_pos_as_xyz
1 x,y,z
2 1/2-x,1/2+y,1/2-z
3 -x,-y,-z
4 1/2+x,1/2-y,1/2+z
_cell_length_a                   20.519(3)
_cell_length_b                   12.385(1)
_cell_length_c                   12.068(2)
_cell_angle_alpha                90
_cell_angle_beta                 99.279(5)
_cell_angle_gamma                90
_cell_volume                     3026.68
_exptl_crystal_colour            colorless
_exptl_crystal_description       platelet
_chemical_melting_point          '228-229 deg.C'
_cell_formula_units_Z            4
loop_
_atom_site_label
_atom_site_type_symbol
_atom_site_fract_x
_atom_site_fract_y
_atom_site_fract_z
O1 O 0.21702(7) -0.5173(1) 1.0412(1)
O2 O 0.16583(9) -0.4870(1) 0.8221(1)
O3 O 0.08206(7) -0.3709(1) 0.7959(1)
O4 O 0.36922(9) -0.3120(2) 1.1690(2)
O5 O 0.33876(8) -0.4489(2) 1.0540(2)
O6 O 0.21485(8) -0.2792(1) 0.6435(1)
O7 O 0.40307(8) -0.2366(2) 0.8989(2)
N1 N 0.32027(8) -0.2777(1) 0.7498(1)
N2 N 0.23356(8) -0.2530(1) 0.8362(1)
N3 N 0.29256(8) -0.2393(1) 0.9168(1)
C1 C 0.20592(9) -0.4222(1) 1.0469(2)
C2 C 0.1355(1) -0.4980(2) 1.2331(2)
C3 C 0.1763(1) -0.0798(1) 1.0414(2)
C4 C 0.16868(10) -0.1768(1) 0.9650(2)
C5 C 0.18476(10) -0.1640(1) 0.8460(2)
C6 C 0.2214(1) -0.0611(2) 0.8322(2)
C7 C 0.2747(1) -0.0489(2) 0.9064(2)
C8 C 0.2888(1) -0.1404(2) 0.9883(2)
C9 C 0.2306(1) -0.1625(1) 1.0498(2)
C10 C 0.2400(1) -0.2358(1) 1.1513(2)
C11 C 0.25435(9) -0.3560(1) 1.1341(2)
C12 C 0.2532(1) -0.4157(2) 1.2503(2)
C13 C 0.1866(1) -0.4185(2) 1.2862(2)
C14 C 0.1698(1) -0.3502(2) 1.3623(2)
C15 C 0.1040(2) -0.3371(2) 1.3870(2)
C16 C 0.0475(1) -0.3465(2) 1.3131(2)
C17 C 0.0430(1) -0.3731(2) 1.1957(2)
C18 C 0.08512(10) -0.4379(2) 1.1524(2)
C19 C 0.08447(9) -0.4499(1) 1.0286(2)
C20 C 0.13931(9) -0.3816(1) 0.9809(1)
C21 C 0.12030(9) -0.2622(1) 0.9891(2)
C22 C 0.13326(9) -0.4202(1) 0.8581(2)
C23 C 0.0645(1) -0.4060(2) 0.6804(2)
C24 C 0.0072(2) -0.3427(4) 0.6294(3)
C25 C 0.3271(1) -0.3684(2) 1.1197(2)
C26 C 0.4083(1) -0.4723(3) 1.0506(4)
C27 C 0.4080(3) -0.5656(5) 0.9727(8)
C29 C 0.25179(10) -0.2693(1) 0.7308(2)
C30 C 0.3458(1) -0.2477(2) 0.8594(2)
C31 C 0.3603(1) -0.2991(2) 0.6643(2)
C32 C 0.3466(1) -0.2475(2) 0.5625(2)
C33 C 0.3849(2) -0.2717(2) 0.4803(2)
C34 C 0.4358(2) -0.3429(2) 0.5003(3)
C35 C 0.4494(2) -0.3915(2) 0.6026(3)
C36 C 0.4117(1) -0.3714(2) 0.6863(2)
H1 H 0.1559 -0.5518 1.1941
H2 H 0.1149 -0.5312 1.2893
H3 H 0.1826 -0.0102 1.0119
H4 H 0.1505 -0.0739 1.0998
H5 H 0.2072 -0.0101 0.7748
H6 H 0.3027 0.0130 0.9089
H7 H 0.3286 -0.1293 1.0393
H8 H 0.2009 -0.2322 1.1839
H9 H 0.2761 -0.2081 1.2029
H10 H 0.2676 -0.4879 1.2437
H11 H 0.2829 -0.3795 1.3069
H12 H 0.0999 -0.3196 1.4624
H13 H 0.0073 -0.3337 1.3406
H14 H 0.0075 -0.3431 1.1448
H15 H 0.0424 -0.4280 0.9908
H16 H 0.0911 -0.5241 1.0133
H17 H 0.0807 -0.2514 0.9377
H18 H 0.1122 -0.2504 1.0634
H19 H 0.1006 -0.3942 0.6413
H20 H 0.0536 -0.4806 0.6779
H21 H -0.0045 -0.3616 0.5524
H22 H -0.0288 -0.3556 0.6675
H23 H 0.0182 -0.2674 0.6344
H24 H 0.3118 -0.1964 0.5484
H25 H 0.3752 -0.2383 0.4090
H26 H 0.4615 -0.3579 0.4435
H27 H 0.4862 -0.4414 0.6169
H28 H 0.4213 -0.4066 0.7569
H29 H 0.1464 -0.1706 0.7909
H30 H 0.2039 -0.3073 1.4033
C28? C 0.4328(6) -0.535(1) 1.134(2)
loop_
_geom_bond_atom_site_label_1
_geom_bond_atom_site_label_2
_geom_bond_site_symmetry_1
_geom_bond_site_symmetry_2
O1 C1 1_555 1_555
O2 C22 1_555 1_555
O3 C22 1_555 1_555
O4 C25 1_555 1_555
O5 C25 1_555 1_555
O6 C29 1_555 1_555
O7 C30 1_555 1_555
N1 C29 1_555 1_555
N2 N3 1_555 1_555
N3 C8 1_555 1_555
C1 C11 1_555 1_555
C2 C13 1_555 1_555
C3 C4 1_555 1_555
C4 C5 1_555 1_555
C5 N2 1_555 1_555
C6 C5 1_555 1_555
C7 C6 1_555 1_555
C8 C7 1_555 1_555
C9 C3 1_555 1_555
C10 C9 1_555 1_555
C11 C10 1_555 1_555
C12 C11 1_555 1_555
C13 C12 1_555 1_555
C14 C13 1_555 1_555
C15 C14 1_555 1_555
C16 C15 1_555 1_555
C17 C16 1_555 1_555
C18 C2 1_555 1_555
C19 C18 1_555 1_555
C20 C1 1_555 1_555
C21 C4 1_555 1_555
C22 C20 1_555 1_555
C23 O3 1_555 1_555
C24 C23 1_555 1_555
C25 C11 1_555 1_555
C26 O5 1_555 1_555
C27 C26 1_555 1_555
C29 N2 1_555 1_555
C30 N1 1_555 1_555
C31 N1 1_555 1_555
C32 C31 1_555 1_555
C33 C32 1_555 1_555
C34 C33 1_555 1_555
C35 C34 1_555 1_555
C36 C31 1_555 1_555
H1 C2 1_555 1_555
H2 C2 1_555 1_555
H3 C3 1_555 1_555
H4 C3 1_555 1_555
H5 C6 1_555 1_555
H6 C7 1_555 1_555
H7 C8 1_555 1_555
H8 C10 1_555 1_555
H9 C10 1_555 1_555
H10 C12 1_555 1_555
H11 C12 1_555 1_555
H12 C15 1_555 1_555
H13 C16 1_555 1_555
H14 C17 1_555 1_555
H15 C19 1_555 1_555
H16 C19 1_555 1_555
H17 C21 1_555 1_555
H18 C21 1_555 1_555
H19 C23 1_555 1_555
H20 C23 1_555 1_555
H21 C24 1_555 1_555
H22 C24 1_555 1_555
H23 C24 1_555 1_555
H24 C32 1_555 1_555
H25 C33 1_555 1_555
H26 C34 1_555 1_555
H27 C35 1_555 1_555
H28 C36 1_555 1_555
H29 C5 1_555 1_555
H30 C14 1_555 1_555
N3 C30 1_555 1_555
C4 C9 1_555 1_555
C8 C9 1_555 1_555
C17 C18 1_555 1_555
C19 C20 1_555 1_555
C20 C21 1_555 1_555
C35 C36 1_555 1_555

#END
