
#######################################################################
#
#                 Cambridge Crystallographic Data Centre
#                                CCDC 
#
#######################################################################
#
# If this CIF has been generated from an entry in the Cambridge 
# Structural Database, then it will include bibliographic, chemical, 
# crystal, experimental, refinement or atomic coordinate data resulting 
# from the CCDC's data processing and validation procedures.
#
#######################################################################

data_KIJBEL
_chemical_compound_source        'Physalis minima L'
_chemical_name_common            
'(22R)-13,20,22-Trihydroxy-1,14-dioxo-13,14-secoergosta-2,5,24-trien-18,26-dioic acid 18,20:26,22-dilactone methanol solvate'
_chemical_formula_moiety         'C28 H34 O7,C1 H4 O1'
_chemical_name_systematic        'Withaphysalin P methanol solvate'
_chemical_properties_biological  
'moderate cytotoxic activity against HCT-116 colorectal carcinoma and NCI-H460 non-small cell lung cancer cell lines'
_symmetry_cell_setting           orthorhombic
_symmetry_space_group_name_H-M   'P 21 21 21'
_symmetry_Int_Tables_number      19
_space_group_name_Hall           'P 2ac 2ab'
loop_
_symmetry_equiv_pos_site_id
_symmetry_equiv_pos_as_xyz
1 x,y,z
2 1/2-x,-y,1/2+z
3 -x,1/2+y,1/2-z
4 1/2+x,1/2-y,-z
_cell_length_a                   11.1346(18)
_cell_length_b                   13.3118(19)
_cell_length_c                   18.222(3)
_cell_angle_alpha                90
_cell_angle_beta                 90
_cell_angle_gamma                90
_cell_volume                     2700.89
_exptl_crystal_colour            colorless
_exptl_crystal_description       cubic
_cell_formula_units_Z            4
loop_
_atom_site_label
_atom_site_type_symbol
_atom_site_fract_x
_atom_site_fract_y
_atom_site_fract_z
O1 O 0.7985(3) 0.27092(19) 0.08871(16)
O2 O 0.7463(3) 0.4885(2) 0.08497(17)
O3 O 0.3116(3) 0.4709(2) 0.02536(17)
O4 O 0.8634(3) 0.5602(2) -0.04686(18)
O5 O 0.7707(2) 0.69729(19) -0.00846(15)
O6 O 0.5565(2) 0.67621(17) -0.08212(16)
O7 O 0.4575(3) 0.6158(3) -0.17582(17)
C1 C 0.7265(4) 0.2044(3) 0.1026(2)
C2 C 0.7700(5) 0.1101(3) 0.1383(2)
H2 H 0.8518 0.0964 0.1392
C3 C 0.6943(5) 0.0458(3) 0.1685(2)
H3 H 0.7258 -0.0112 0.1909
C4 C 0.5638(5) 0.0590(3) 0.1687(2)
H4 H 0.5339 0.0444 0.2176
H5 H 0.5286 0.0104 0.1354
C5 C 0.5216(4) 0.1621(3) 0.1469(2)
C6 C 0.4326(4) 0.2061(3) 0.1791(2)
H6 H 0.3954 0.1715 0.2171
C7 C 0.3833(4) 0.3091(3) 0.1604(2)
H7 H 0.4118 0.3578 0.1959
H8 H 0.2962 0.3078 0.1626
C8 C 0.4239(4) 0.3403(3) 0.0828(2)
C9 C 0.5581(4) 0.3229(3) 0.0718(2)
C10 C 0.5939(4) 0.2098(2) 0.0837(2)
C11 C 0.6013(4) 0.3584(2) -0.00480(19)
H9 H 0.5493 0.3275 -0.0410
H10 H 0.6812 0.3311 -0.0124
C12 C 0.6073(4) 0.4733(2) -0.0227(2)
H11 H 0.6383 0.4805 -0.0722
H12 H 0.5257 0.4989 -0.0230
C13 C 0.6824(3) 0.5418(3) 0.0279(2)
C14 C 0.3855(4) 0.4477(3) 0.0720(3)
C15 C 0.4407(4) 0.5275(3) 0.1201(2)
H13 H 0.5101 0.4993 0.1448
H14 H 0.3829 0.5466 0.1574
C16 C 0.4800(4) 0.6227(3) 0.0782(2)
H15 H 0.4405 0.6236 0.0308
H16 H 0.4535 0.6814 0.1052
C17 C 0.6154(4) 0.6297(3) 0.0664(2)
C18 C 0.7802(4) 0.5956(3) -0.0141(2)
C19 C 0.5695(4) 0.1449(3) 0.0145(2)
H17 H 0.5862 0.0757 0.0253
H18 H 0.6203 0.1670 -0.0249
H19 H 0.4869 0.1518 0.0002
C20 C 0.6564(4) 0.7258(3) 0.0263(2)
C21 C 0.6848(4) 0.8123(3) 0.0788(2)
H20 H 0.7246 0.8651 0.0524
H21 H 0.7361 0.7885 0.1174
H22 H 0.6115 0.8375 0.0995
C22 C 0.5717(4) 0.7625(3) -0.0338(2)
C23 C 0.6201(4) 0.8520(3) -0.0778(2)
H23 H 0.6193 0.9119 -0.0475
H24 H 0.7022 0.8390 -0.0927
C24 C 0.5430(4) 0.8676(3) -0.1440(2)
C25 C 0.4820(4) 0.7924(4) -0.1749(2)
C26 C 0.4948(4) 0.6900(3) -0.1457(3)
C27 C 0.4040(5) 0.8003(4) -0.2438(2)
H25 H 0.4358 0.7572 -0.2813
H26 H 0.4040 0.8685 -0.2610
H27 H 0.3233 0.7803 -0.2324
C28 C 0.5449(5) 0.9741(3) -0.1725(2)
H28 H 0.4950 1.0156 -0.1422
H29 H 0.5153 0.9752 -0.2220
H30 H 0.6258 0.9991 -0.1716
H34 H 0.379(3) 0.299(2) 0.0494(17)
H35 H 0.602(3) 0.363(2) 0.1034(16)
H36 H 0.666(2) 0.630(2) 0.1114(12)
H37 H 0.4862(18) 0.776(2) -0.0211(18)
H38 H 0.779(4) 0.443(2) 0.0589(19)
O8 O 0.8034(12) 0.6405(7) 0.7840(4)
H1 H 0.8626 0.6424 0.8108
C29 C 0.8023(8) 0.5507(7) 0.7458(4)
H31 H 0.7822 0.5632 0.6954
H32 H 0.7436 0.5065 0.7671
H33 H 0.8802 0.5200 0.7485
loop_
_geom_bond_atom_site_label_1
_geom_bond_atom_site_label_2
_geom_bond_site_symmetry_1
_geom_bond_site_symmetry_2
O1 C1 1_555 1_555
O2 C13 1_555 1_555
O3 C14 1_555 1_555
O4 C18 1_555 1_555
O5 C18 1_555 1_555
O6 C22 1_555 1_555
O7 C26 1_555 1_555
O8 H1 1_555 1_555
C1 C2 1_555 1_555
C2 H2 1_555 1_555
C3 C2 1_555 1_555
H3 C3 1_555 1_555
C4 C3 1_555 1_555
H4 C4 1_555 1_555
H5 C4 1_555 1_555
C5 C4 1_555 1_555
C6 C5 1_555 1_555
H6 C6 1_555 1_555
C7 C6 1_555 1_555
H7 C7 1_555 1_555
H8 C7 1_555 1_555
C8 C7 1_555 1_555
C9 C8 1_555 1_555
C10 C1 1_555 1_555
C11 C9 1_555 1_555
H9 C11 1_555 1_555
H10 C11 1_555 1_555
C12 C11 1_555 1_555
H11 C12 1_555 1_555
H12 C12 1_555 1_555
C13 C12 1_555 1_555
C14 C8 1_555 1_555
C15 C14 1_555 1_555
H13 C15 1_555 1_555
H14 C15 1_555 1_555
C16 C15 1_555 1_555
H15 C16 1_555 1_555
H16 C16 1_555 1_555
C17 C13 1_555 1_555
C18 C13 1_555 1_555
C19 C10 1_555 1_555
H17 C19 1_555 1_555
H18 C19 1_555 1_555
H19 C19 1_555 1_555
C20 O5 1_555 1_555
C21 C20 1_555 1_555
H20 C21 1_555 1_555
H21 C21 1_555 1_555
H22 C21 1_555 1_555
C22 C20 1_555 1_555
C23 C22 1_555 1_555
H23 C23 1_555 1_555
H24 C23 1_555 1_555
C24 C23 1_555 1_555
C25 C24 1_555 1_555
C26 O6 1_555 1_555
C27 C25 1_555 1_555
H25 C27 1_555 1_555
H26 C27 1_555 1_555
H27 C27 1_555 1_555
C28 C24 1_555 1_555
H28 C28 1_555 1_555
H29 C28 1_555 1_555
H30 C28 1_555 1_555
C29 O8 1_555 1_555
H31 C29 1_555 1_555
H32 C29 1_555 1_555
H33 C29 1_555 1_555
H34 C8 1_555 1_555
H35 C9 1_555 1_555
H36 C17 1_555 1_555
H37 C22 1_555 1_555
H38 O2 1_555 1_555
C5 C10 1_555 1_555
C9 C10 1_555 1_555
C16 C17 1_555 1_555
C17 C20 1_555 1_555
C25 C26 1_555 1_555

#END
