
#######################################################################
#
#                 Cambridge Crystallographic Data Centre
#                                CCDC 
#
#######################################################################
#
# If this CIF has been generated from an entry in the Cambridge 
# Structural Database, then it will include bibliographic, chemical, 
# crystal, experimental, refinement or atomic coordinate data resulting 
# from the CCDC's data processing and validation procedures.
#
#######################################################################

data_KIJVAD
_chemical_formula_moiety         'C14 H13 N1 O3'
_chemical_name_systematic        
'phenyl 7-oxo-2-azabicyclo[2.2.2]oct-5-ene-2-carboxylate'
_symmetry_cell_setting           monoclinic
_symmetry_space_group_name_H-M   'P 21'
_symmetry_Int_Tables_number      4
_space_group_name_Hall           'P 2yb'
loop_
_symmetry_equiv_pos_site_id
_symmetry_equiv_pos_as_xyz
1 x,y,z
2 -x,1/2+y,-z
_cell_length_a                   10.0137(6)
_cell_length_b                   10.3706(6)
_cell_length_c                   11.9870(7)
_cell_angle_alpha                90
_cell_angle_beta                 109.801(2)
_cell_angle_gamma                90
_cell_volume                     1171.23
_exptl_crystal_colour            colorless
_exptl_crystal_description       plate
_cell_formula_units_Z            4
loop_
_atom_site_label
_atom_site_type_symbol
_atom_site_fract_x
_atom_site_fract_y
_atom_site_fract_z
O1 O 0.47167(17) 0.09698(17) 0.11094(14)
O2 O 0.42195(15) 0.29366(14) 0.41828(13)
O3 O 0.18105(14) 0.28762(13) 0.36748(11)
N1 N 0.28914(16) 0.13855(16) 0.29596(13)
C1 C 0.3898(2) 0.05695(17) 0.15656(17)
C2 C 0.4129(2) 0.06642(19) 0.28914(16)
H1 H 0.5046 0.1095 0.3343
C3 C 0.4052(3) -0.0699(2) 0.33116(18)
H2 H 0.4804 -0.1100 0.3922
C4 C 0.2833(3) -0.1276(2) 0.27444(18)
H3 H 0.2635 -0.2135 0.2917
C5 C 0.1784(2) -0.0475(2) 0.18077(17)
H4 H 0.0884 -0.0960 0.1414
C6 C 0.2506(2) -0.00839(19) 0.09093(16)
H5 H 0.2677 -0.0858 0.0493
H6 H 0.1885 0.0511 0.0312
C7 C 0.1510(2) 0.0756(2) 0.24076(17)
H7 H 0.0855 0.1335 0.1814
H8 H 0.1079 0.0540 0.3015
C8 C 0.3087(2) 0.24386(19) 0.36534(15)
C9 C 0.1821(2) 0.39282(19) 0.44171(16)
C10 C 0.2278(2) 0.5137(2) 0.42235(17)
H9 H 0.2647 0.5274 0.3600
C11 C 0.2189(2) 0.6145(2) 0.49509(18)
H10 H 0.2495 0.6982 0.4823
C12 C 0.1658(2) 0.5944(2) 0.58631(18)
H11 H 0.1604 0.6639 0.6362
C13 C 0.1205(3) 0.4725(2) 0.60452(18)
H12 H 0.0843 0.4586 0.6672
C14 C 0.1278(2) 0.3708(2) 0.53187(17)
H13 H 0.0960 0.2873 0.5438
O4 O 0.83370(19) 0.35340(16) 0.20450(15)
O5 O 0.92392(14) 0.74524(14) 0.20299(11)
O6 O 0.70579(14) 0.82807(13) 0.10209(12)
N2 N 0.72261(16) 0.65666(15) 0.21807(14)
C15 C 0.7524(2) 0.42916(19) 0.22378(17)
C16 C 0.7995(2) 0.55121(18) 0.29767(15)
H14 H 0.9048 0.5633 0.3259
C17 C 0.7423(2) 0.5390(2) 0.39828(16)
H15 H 0.8011 0.5406 0.4793
C18 C 0.6029(2) 0.5260(2) 0.36392(17)
H16 H 0.5529 0.5171 0.4181
C19 C 0.5300(2) 0.5265(2) 0.23088(17)
H17 H 0.4250 0.5165 0.2096
C20 C 0.5927(2) 0.4167(2) 0.17841(19)
H18 H 0.5646 0.3324 0.2022
H19 H 0.5564 0.4218 0.0908
C21 C 0.5669(2) 0.6540(2) 0.18306(17)
H20 H 0.5229 0.6577 0.0957
H21 H 0.5326 0.7282 0.2178
C22 C 0.7958(2) 0.74148(18) 0.17718(15)
C23 C 0.76796(19) 0.91197(18) 0.04229(16)
C24 C 0.8223(2) 0.86454(19) -0.04170(16)
H22 H 0.8202 0.7746 -0.0574
C25 C 0.8794(2) 0.9491(2) -0.10224(17)
H23 H 0.9179 0.9173 -0.1593
C26 C 0.8808(2) 1.0803(2) -0.08007(17)
H24 H 0.9203 1.1384 -0.1217
C27 C 0.8246(2) 1.12636(19) 0.00275(17)
H25 H 0.8247 1.2164 0.0172
C28 C 0.7677(2) 1.04209(19) 0.06532(15)
H26 H 0.7297 1.0737 0.1226
loop_
_geom_bond_atom_site_label_1
_geom_bond_atom_site_label_2
_geom_bond_site_symmetry_1
_geom_bond_site_symmetry_2
O1 C1 1_555 1_555
O2 C8 1_555 1_555
O3 C8 1_555 1_555
N1 C2 1_555 1_555
C1 C2 1_555 1_555
C2 H1 1_555 1_555
C3 C2 1_555 1_555
H2 C3 1_555 1_555
C4 C3 1_555 1_555
H3 C4 1_555 1_555
C5 C4 1_555 1_555
H4 C5 1_555 1_555
C6 C1 1_555 1_555
H5 C6 1_555 1_555
H6 C6 1_555 1_555
C7 N1 1_555 1_555
H7 C7 1_555 1_555
H8 C7 1_555 1_555
C8 N1 1_555 1_555
C9 O3 1_555 1_555
C10 C9 1_555 1_555
H9 C10 1_555 1_555
C11 C10 1_555 1_555
H10 C11 1_555 1_555
C12 C11 1_555 1_555
H11 C12 1_555 1_555
C13 C12 1_555 1_555
H12 C13 1_555 1_555
C14 C9 1_555 1_555
H13 C14 1_555 1_555
O4 C15 1_555 1_555
O5 C22 1_555 1_555
O6 C22 1_555 1_555
N2 C16 1_555 1_555
C15 C16 1_555 1_555
C16 H14 1_555 1_555
C17 C16 1_555 1_555
H15 C17 1_555 1_555
C18 C17 1_555 1_555
H16 C18 1_555 1_555
C19 C18 1_555 1_555
H17 C19 1_555 1_555
C20 C15 1_555 1_555
H18 C20 1_555 1_555
H19 C20 1_555 1_555
C21 N2 1_555 1_555
H20 C21 1_555 1_555
H21 C21 1_555 1_555
C22 N2 1_555 1_555
C23 O6 1_555 1_555
C24 C23 1_555 1_555
H22 C24 1_555 1_555
C25 C24 1_555 1_555
H23 C25 1_555 1_555
C26 C25 1_555 1_555
H24 C26 1_555 1_555
C27 C26 1_555 1_555
H25 C27 1_555 1_555
C28 C23 1_555 1_555
H26 C28 1_555 1_555
C5 C6 1_555 1_555
C5 C7 1_555 1_555
C13 C14 1_555 1_555
C19 C20 1_555 1_555
C19 C21 1_555 1_555
C27 C28 1_555 1_555

#END
