
#######################################################################
#
#                 Cambridge Crystallographic Data Centre
#                                CCDC 
#
#######################################################################
#
# If this CIF has been generated from an entry in the Cambridge 
# Structural Database, then it will include bibliographic, chemical, 
# crystal, experimental, refinement or atomic coordinate data resulting 
# from the CCDC's data processing and validation procedures.
#
#######################################################################

data_KIKDOY
_chemical_compound_source        'bark of Cryptocarya bracteolata'
_chemical_formula_moiety         'C12 H12 O5'
_chemical_name_systematic        6,7,8-Trimethoxycoumarin
_chemical_properties_biological  
'evaluated for a variety of biological activities'
_symmetry_cell_setting           orthorhombic
_symmetry_space_group_name_H-M   'P b c a'
_symmetry_Int_Tables_number      61
_space_group_name_Hall           '-P 2ac 2ab'
loop_
_symmetry_equiv_pos_site_id
_symmetry_equiv_pos_as_xyz
1 x,y,z
2 1/2-x,-y,1/2+z
3 -x,1/2+y,1/2-z
4 1/2+x,1/2-y,-z
5 -x,-y,-z
6 1/2+x,y,1/2-z
7 x,1/2-y,1/2+z
8 1/2-x,1/2+y,z
_cell_length_a                   13.9688(6)
_cell_length_b                   8.1164(4)
_cell_length_c                   19.7900(10)
_cell_angle_alpha                90
_cell_angle_beta                 90
_cell_angle_gamma                90
_cell_volume                     2243.72
_exptl_crystal_colour            colorless
_exptl_crystal_description       prism
_cell_formula_units_Z            8
loop_
_atom_site_label
_atom_site_type_symbol
_atom_site_fract_x
_atom_site_fract_y
_atom_site_fract_z
O1 O 0.65727(10) 0.89131(17) 0.55051(7)
O2 O 0.61944(7) 0.74494(13) 0.46074(5)
O3 O 0.67995(7) 0.60631(14) 0.34306(6)
O4 O 0.55894(8) 0.41023(14) 0.26964(6)
O5 O 0.37230(8) 0.38596(15) 0.30093(6)
C1 C 0.59401(13) 0.8219(2) 0.52022(8)
C2 C 0.49443(13) 0.8134(2) 0.53901(8)
H1 H 0.4745 0.8655 0.5784
C3 C 0.42979(12) 0.7333(2) 0.50165(8)
H2 H 0.3660 0.7320 0.5151
C4 C 0.45761(10) 0.64940(18) 0.44103(7)
C5 C 0.55343(10) 0.65873(17) 0.42246(7)
C6 C 0.58711(9) 0.58398(18) 0.36371(7)
C7 C 0.52399(10) 0.49282(18) 0.32449(7)
C8 C 0.42667(10) 0.48059(19) 0.34304(8)
C9 C 0.39418(10) 0.55879(19) 0.40050(8)
H3 H 0.3299 0.5514 0.4124
C10 C 0.74647(13) 0.4929(3) 0.37015(11)
H4 H 0.8092 0.5169 0.3529
H5 H 0.7285 0.3831 0.3574
H6 H 0.7469 0.5018 0.4185
C11 C 0.52936(13) 0.4738(3) 0.20538(8)
H7 H 0.5565 0.4078 0.1700
H8 H 0.5510 0.5855 0.2008
H9 H 0.4608 0.4706 0.2024
C12 C 0.27263(12) 0.3741(2) 0.31493(11)
H10 H 0.2426 0.3051 0.2817
H11 H 0.2445 0.4820 0.3135
H12 H 0.2635 0.3274 0.3590
loop_
_geom_bond_atom_site_label_1
_geom_bond_atom_site_label_2
_geom_bond_site_symmetry_1
_geom_bond_site_symmetry_2
O1 C1 1_555 1_555
O2 C1 1_555 1_555
O3 C6 1_555 1_555
O4 C7 1_555 1_555
O5 C8 1_555 1_555
C1 C2 1_555 1_555
C2 H1 1_555 1_555
C3 C2 1_555 1_555
H2 C3 1_555 1_555
C4 C3 1_555 1_555
C5 O2 1_555 1_555
C6 C5 1_555 1_555
C7 C6 1_555 1_555
C8 C7 1_555 1_555
C9 C4 1_555 1_555
H3 C9 1_555 1_555
C10 O3 1_555 1_555
H4 C10 1_555 1_555
H5 C10 1_555 1_555
H6 C10 1_555 1_555
C11 O4 1_555 1_555
H7 C11 1_555 1_555
H8 C11 1_555 1_555
H9 C11 1_555 1_555
C12 O5 1_555 1_555
H10 C12 1_555 1_555
H11 C12 1_555 1_555
H12 C12 1_555 1_555
C4 C5 1_555 1_555
C8 C9 1_555 1_555

#END
