
#######################################################################
#
#                 Cambridge Crystallographic Data Centre
#                                CCDC 
#
#######################################################################
#
# If this CIF has been generated from an entry in the Cambridge 
# Structural Database, then it will include bibliographic, chemical, 
# crystal, experimental, refinement or atomic coordinate data resulting 
# from the CCDC's data processing and validation procedures.
#
#######################################################################

data_KIKGIV
_chemical_formula_moiety         'C18 H24 N2 O2'
_chemical_name_systematic        1,6-bis(2-Aminophenoxy)hexane
_symmetry_cell_setting           monoclinic
_symmetry_space_group_name_H-M   'P 21/c'
_symmetry_Int_Tables_number      14
_space_group_name_Hall           '-P 2ybc'
loop_
_symmetry_equiv_pos_site_id
_symmetry_equiv_pos_as_xyz
1 x,y,z
2 -x,1/2+y,1/2-z
3 -x,-y,-z
4 x,1/2-y,1/2+z
_cell_length_a                   8.9200(13)
_cell_length_b                   6.4935(9)
_cell_length_c                   14.464(2)
_cell_angle_alpha                90
_cell_angle_beta                 95.378(6)
_cell_angle_gamma                90
_cell_volume                     834.096
_exptl_crystal_colour            colorless
_exptl_crystal_description       prism
_cell_formula_units_Z            2
_exptl_crystal_recrystallization_method ethanol/dichloromethane
loop_
_atom_site_label
_atom_site_type_symbol
_atom_site_fract_x
_atom_site_fract_y
_atom_site_fract_z
C1 C 0.91315(15) 0.3758(2) 0.14192(9)
H1 H 0.9703 0.4957 0.1438
C2 C 0.84506(13) 0.31610(19) 0.21986(8)
C3 C 0.76042(13) 0.13443(19) 0.21573(8)
C4 C 0.74420(16) 0.0200(2) 0.13524(10)
H2 H 0.6869 -0.0998 0.1326
C5 C 0.81346(18) 0.0835(3) 0.05801(9)
H3 H 0.8027 0.0059 0.0038
C6 C 0.89747(17) 0.2600(2) 0.06157(9)
H4 H 0.9440 0.3021 0.0098
C7 C 0.62464(16) -0.1047(2) 0.30452(10)
H5 H 0.6828 -0.2159 0.2809
H6 H 0.5271 -0.1002 0.2688
C8 C 0.60592(16) -0.1384(2) 0.40572(10)
H7 H 0.7047 -0.1372 0.4400
H8 H 0.5630 -0.2741 0.4130
C9 C 0.50761(14) 0.0188(2) 0.44852(9)
H9 H 0.4082 0.0166 0.4151
H10 H 0.5498 0.1548 0.4411
N1 N 0.85419(15) 0.43023(19) 0.30098(8)
H11 H 0.9039 0.5439 0.3046
H12 H 0.8102 0.3875 0.3478
O1 O 0.70143(10) 0.08709(14) 0.29728(6)
C1B C 0.08685(15) -0.3758(2) 0.85808(9)
H1B H 0.0297 -0.4957 0.8562
C2B C 0.15494(13) -0.31610(19) 0.78014(8)
C3B C 0.23958(13) -0.13443(19) 0.78427(8)
C4B C 0.25580(16) -0.0200(2) 0.86476(10)
H2B H 0.3131 0.0998 0.8674
C5B C 0.18654(18) -0.0835(3) 0.94199(9)
H3B H 0.1973 -0.0059 0.9962
C6B C 0.10253(17) -0.2600(2) 0.93843(9)
H4B H 0.0560 -0.3021 0.9902
C7B C 0.37536(16) 0.1047(2) 0.69548(10)
H5B H 0.3172 0.2159 0.7191
H6B H 0.4729 0.1002 0.7312
C8B C 0.39408(16) 0.1384(2) 0.59428(10)
H7B H 0.2953 0.1372 0.5600
H8B H 0.4370 0.2741 0.5870
C9B C 0.49239(14) -0.0188(2) 0.55148(9)
H9B H 0.5918 -0.0166 0.5849
H10B H 0.4502 -0.1548 0.5589
N1B N 0.14581(15) -0.43023(19) 0.69902(8)
H11B H 0.0961 -0.5439 0.6954
H12B H 0.1898 -0.3875 0.6522
O1B O 0.29857(10) -0.08709(14) 0.70272(6)
loop_
_geom_bond_atom_site_label_1
_geom_bond_atom_site_label_2
_geom_bond_site_symmetry_1
_geom_bond_site_symmetry_2
C1 H1 1_555 1_555
C2 C1 1_555 1_555
C3 C2 1_555 1_555
C4 C3 1_555 1_555
H2 C4 1_555 1_555
C5 C4 1_555 1_555
H3 C5 1_555 1_555
C6 C1 1_555 1_555
H4 C6 1_555 1_555
C7 H5 1_555 1_555
H6 C7 1_555 1_555
C8 C7 1_555 1_555
H7 C8 1_555 1_555
H8 C8 1_555 1_555
C9 C8 1_555 1_555
H9 C9 1_555 1_555
H10 C9 1_555 1_555
N1 C2 1_555 1_555
H11 N1 1_555 1_555
H12 N1 1_555 1_555
O1 C3 1_555 1_555
C1B H1B 1_555 1_555
C2B C1B 1_555 1_555
C3B C2B 1_555 1_555
C4B C3B 1_555 1_555
H2B C4B 1_555 1_555
C5B C4B 1_555 1_555
H3B C5B 1_555 1_555
C6B C1B 1_555 1_555
H4B C6B 1_555 1_555
C7B H5B 1_555 1_555
H6B C7B 1_555 1_555
C8B C7B 1_555 1_555
H7B C8B 1_555 1_555
H8B C8B 1_555 1_555
C9B C9 1_555 1_555
H9B C9B 1_555 1_555
H10B C9B 1_555 1_555
N1B C2B 1_555 1_555
H11B N1B 1_555 1_555
H12B N1B 1_555 1_555
O1B C3B 1_555 1_555
C5 C6 1_555 1_555
C7 O1 1_555 1_555
C5B C6B 1_555 1_555
C7B O1B 1_555 1_555
C8B C9B 1_555 1_555

#END
