
#######################################################################
#
#                 Cambridge Crystallographic Data Centre
#                                CCDC 
#
#######################################################################
#
# If this CIF has been generated from an entry in the Cambridge 
# Structural Database, then it will include bibliographic, chemical, 
# crystal, experimental, refinement or atomic coordinate data resulting 
# from the CCDC's data processing and validation procedures.
#
#######################################################################

data_KIKKAR
_chemical_formula_moiety         'C29 H28 O2'
_chemical_name_systematic        2,2-bis(4-(Benzyloxy)phenyl)propane
_symmetry_cell_setting           monoclinic
_symmetry_space_group_name_H-M   'C 2/c'
_symmetry_Int_Tables_number      15
_space_group_name_Hall           '-C 2yn'
loop_
_symmetry_equiv_pos_site_id
_symmetry_equiv_pos_as_xyz
1 x,y,z
2 1/2+x,1/2+y,z
3 -x,y,1/2-z
4 1/2-x,1/2+y,1/2-z
5 -x,-y,-z
6 1/2-x,1/2-y,-z
7 x,-y,1/2+z
8 1/2+x,1/2-y,1/2+z
_cell_length_a                   18.808(4)
_cell_length_b                   6.3900(13)
_cell_length_c                   18.925(4)
_cell_angle_alpha                90
_cell_angle_beta                 90.97(3)
_cell_angle_gamma                90
_cell_volume                     2274.14
_exptl_crystal_colour            colorless
_exptl_crystal_description       block
_cell_formula_units_Z            4
_exptl_crystal_recrystallization_method acetone
loop_
_atom_site_label
_atom_site_type_symbol
_atom_site_fract_x
_atom_site_fract_y
_atom_site_fract_z
O1 O 0.23856(6) 0.1080(2) 0.36046(6)
C1 C 0.43148(10) -0.2644(4) 0.48738(12)
H1 H 0.4754 -0.3060 0.5057
C2 C 0.40194(11) -0.0813(4) 0.50883(13)
H2 H 0.4255 0.0019 0.5420
C3 C 0.33710(10) -0.0191(3) 0.48132(12)
H3 H 0.3173 0.1061 0.4964
C4 C 0.30101(9) -0.1383(3) 0.43194(10)
C5 C 0.33134(11) -0.3246(3) 0.41111(10)
H4 H 0.3079 -0.4089 0.3781
C6 C 0.39667(11) -0.3867(4) 0.43914(11)
H5 H 0.4168 -0.5124 0.4249
C7 C 0.22947(9) -0.0712(3) 0.40375(11)
H6 H 0.2080 -0.1836 0.3763
H7 H 0.1983 -0.0383 0.4426
C8 C 0.17851(8) 0.2026(3) 0.33329(8)
C9 C 0.10960(9) 0.1519(3) 0.35085(9)
H8 H 0.1010 0.0431 0.3822
C10 C 0.05346(8) 0.2643(3) 0.32147(9)
H9 H 0.0073 0.2276 0.3333
C11 C 0.06324(8) 0.4287(2) 0.27526(8)
C12 C 0.13292(9) 0.4733(3) 0.25751(9)
H10 H 0.1416 0.5804 0.2255
C13 C 0.18954(9) 0.3632(3) 0.28597(9)
H11 H 0.2356 0.3974 0.2732
C14 C 0.0000 0.5628(4) 0.2500
C15 C -0.02072(10) 0.7045(3) 0.31224(11)
H12 H -0.0571 0.8003 0.2970
H13 H 0.0202 0.7815 0.3284
H14 H -0.0382 0.6197 0.3501
O1B O -0.23856(6) 0.1080(2) 0.13954(6)
C1B C -0.43148(10) -0.2644(4) 0.01262(12)
H1B H -0.4754 -0.3060 -0.0057
C2B C -0.40194(11) -0.0813(4) -0.00883(13)
H2B H -0.4255 0.0019 -0.0420
C3B C -0.33710(10) -0.0191(3) 0.01868(12)
H3B H -0.3173 0.1061 0.0036
C4B C -0.30101(9) -0.1383(3) 0.06806(10)
C5B C -0.33134(11) -0.3246(3) 0.08889(10)
H4B H -0.3079 -0.4089 0.1219
C6B C -0.39667(11) -0.3867(4) 0.06086(11)
H5B H -0.4168 -0.5124 0.0751
C7B C -0.22947(9) -0.0712(3) 0.09625(11)
H6B H -0.2080 -0.1836 0.1237
H7B H -0.1983 -0.0383 0.0574
C8B C -0.17851(8) 0.2026(3) 0.16671(8)
C9B C -0.10960(9) 0.1519(3) 0.14915(9)
H8B H -0.1010 0.0431 0.1178
C10B C -0.05346(8) 0.2643(3) 0.17853(9)
H9B H -0.0073 0.2276 0.1667
C11B C -0.06324(8) 0.4287(2) 0.22474(8)
C12B C -0.13292(9) 0.4733(3) 0.24249(9)
H10B H -0.1416 0.5804 0.2745
C13B C -0.18954(9) 0.3632(3) 0.21403(9)
H11B H -0.2356 0.3974 0.2268
C15B C 0.02072(10) 0.7045(3) 0.18776(11)
H12B H 0.0571 0.8003 0.2030
H13B H -0.0202 0.7815 0.1716
H14B H 0.0382 0.6197 0.1499
loop_
_geom_bond_atom_site_label_1
_geom_bond_atom_site_label_2
_geom_bond_site_symmetry_1
_geom_bond_site_symmetry_2
O1 C7 1_555 1_555
C1 H1 1_555 1_555
C2 C1 1_555 1_555
H2 C2 1_555 1_555
C3 C2 1_555 1_555
H3 C3 1_555 1_555
C4 C3 1_555 1_555
C5 C4 1_555 1_555
H4 C5 1_555 1_555
C6 C1 1_555 1_555
H5 C6 1_555 1_555
C7 C4 1_555 1_555
H6 C7 1_555 1_555
H7 C7 1_555 1_555
C8 O1 1_555 1_555
C9 C8 1_555 1_555
H8 C9 1_555 1_555
C10 C9 1_555 1_555
H9 C10 1_555 1_555
C11 C10 1_555 1_555
C12 C11 1_555 1_555
H10 C12 1_555 1_555
C13 C8 1_555 1_555
H11 C13 1_555 1_555
C14 C11 1_555 1_555
C15 C14 1_555 1_555
H12 C15 1_555 1_555
H13 C15 1_555 1_555
H14 C15 1_555 1_555
O1B C7B 1_555 1_555
C1B H1B 1_555 1_555
C2B C1B 1_555 1_555
H2B C2B 1_555 1_555
C3B C2B 1_555 1_555
H3B C3B 1_555 1_555
C4B C3B 1_555 1_555
C5B C4B 1_555 1_555
H4B C5B 1_555 1_555
C6B C1B 1_555 1_555
H5B C6B 1_555 1_555
C7B C4B 1_555 1_555
H6B C7B 1_555 1_555
H7B C7B 1_555 1_555
C8B O1B 1_555 1_555
C9B C8B 1_555 1_555
H8B C9B 1_555 1_555
C10B C9B 1_555 1_555
H9B C10B 1_555 1_555
C11B C14 1_555 1_555
C12B C11B 1_555 1_555
H10B C12B 1_555 1_555
C13B C8B 1_555 1_555
H11B C13B 1_555 1_555
C15B C14 1_555 1_555
H12B C15B 1_555 1_555
H13B C15B 1_555 1_555
H14B C15B 1_555 1_555
C5 C6 1_555 1_555
C12 C13 1_555 1_555
C5B C6B 1_555 1_555
C10B C11B 1_555 1_555
C12B C13B 1_555 1_555

#END
