
#######################################################################
#
#                 Cambridge Crystallographic Data Centre
#                                CCDC 
#
#######################################################################
#
# If this CIF has been generated from an entry in the Cambridge 
# Structural Database, then it will include bibliographic, chemical, 
# crystal, experimental, refinement or atomic coordinate data resulting 
# from the CCDC's data processing and validation procedures.
#
#######################################################################

data_KIKMUP
_chemical_formula_moiety         '2(H4 N1 1+),C4 H2 N10 O4 2-,3(H2 O1)'
_chemical_name_systematic        
'bis(Ammonium) 2,5-dinitramide-7-amino[1,2,4]triazolo[1,5-a][1,3,5]triazine trihydrate'
_symmetry_cell_setting           monoclinic
_symmetry_space_group_name_H-M   'P 21/c'
_symmetry_Int_Tables_number      14
_space_group_name_Hall           '-P 2ybc'
loop_
_symmetry_equiv_pos_site_id
_symmetry_equiv_pos_as_xyz
1 x,y,z
2 -x,1/2+y,1/2-z
3 -x,-y,-z
4 x,1/2-y,1/2+z
_cell_length_a                   8.8384(9)
_cell_length_b                   20.599(2)
_cell_length_c                   7.5457(8)
_cell_angle_alpha                90
_cell_angle_beta                 90.749(4)
_cell_angle_gamma                90
_cell_volume                     1373.67
_exptl_crystal_description       needle
_cell_formula_units_Z            4
loop_
_atom_site_label
_atom_site_type_symbol
_atom_site_fract_x
_atom_site_fract_y
_atom_site_fract_z
C1 C 0.1689(4) 0.55377(15) 0.3949(4)
C2 C 0.0135(4) 0.49349(14) 0.2523(4)
C3 C -0.0760(4) 0.40568(14) 0.1108(4)
C4 C 0.1722(4) 0.40156(16) 0.2165(4)
N1 N 0.0244(3) 0.55217(12) 0.3236(3)
N2 N 0.2509(3) 0.50009(12) 0.3757(4)
N3 N 0.1480(3) 0.46184(13) 0.2833(4)
N4 N -0.1046(3) 0.46635(12) 0.1662(3)
N5 N 0.0568(3) 0.37312(12) 0.1311(3)
N6 N 0.2069(3) 0.61235(12) 0.4723(4)
N7 N 0.3426(3) 0.61810(13) 0.5450(3)
N8 N -0.1803(3) 0.36536(12) 0.0280(4)
N9 N -0.3153(3) 0.38676(13) -0.0226(4)
N10 N 0.3065(3) 0.37488(15) 0.2399(4)
H1 H 0.323(4) 0.3365(17) 0.199(5)
H2 H 0.375(4) 0.3977(19) 0.290(5)
O1 O 0.3765(3) 0.67341(11) 0.6036(4)
O2 O 0.4366(3) 0.57251(10) 0.5592(3)
O3 O -0.3586(3) 0.44399(11) -0.0091(4)
O4 O -0.4014(3) 0.34552(11) -0.0949(3)
N11 N 0.6237(3) 0.54615(13) 0.2428(4)
H3 H 0.667(3) 0.5847(10) 0.269(4)
H4 H 0.690(3) 0.5201(12) 0.191(3)
H5 H 0.593(3) 0.5279(13) 0.345(3)
H6 H 0.543(3) 0.5524(13) 0.172(3)
N12 N 0.1886(4) 0.73819(16) 0.2943(5)
H7 H 0.190(4) 0.7763(19) 0.367(5)
H8 H 0.098(5) 0.7434(18) 0.217(5)
H9 H 0.178(5) 0.705(2) 0.361(5)
H10 H 0.285(5) 0.7318(18) 0.235(6)
O5 O 0.1820(3) 0.34362(12) 0.6590(4)
H11 H 0.170(5) 0.3278(17) 0.760(3)
H12 H 0.118(4) 0.3728(14) 0.656(5)
O6 O 0.5889(4) 0.74667(17) 0.8949(5)
H13 H 0.517(3) 0.750(3) 0.966(5)
H14 H 0.662(3) 0.746(2) 0.973(5)
O7 O 0.0734(3) 0.25999(13) 0.9233(3)
H15 H 0.074(5) 0.2899(13) 0.994(4)
H16 H 0.109(3) 0.2281(12) 0.975(5)
loop_
_geom_bond_atom_site_label_1
_geom_bond_atom_site_label_2
_geom_bond_site_symmetry_1
_geom_bond_site_symmetry_2
C1 N1 1_555 1_555
C2 N1 1_555 1_555
C3 N4 1_555 1_555
C4 N3 1_555 1_555
N2 C1 1_555 1_555
N3 C2 1_555 1_555
N4 C2 1_555 1_555
N5 C3 1_555 1_555
N6 C1 1_555 1_555
N7 N6 1_555 1_555
N8 C3 1_555 1_555
N9 N8 1_555 1_555
N10 C4 1_555 1_555
H1 N10 1_555 1_555
H2 N10 1_555 1_555
O1 N7 1_555 1_555
O2 N7 1_555 1_555
O3 N9 1_555 1_555
O4 N9 1_555 1_555
N11 H3 1_555 1_555
H4 N11 1_555 1_555
H5 N11 1_555 1_555
H6 N11 1_555 1_555
N12 H7 1_555 1_555
H8 N12 1_555 1_555
H9 N12 1_555 1_555
H10 N12 1_555 1_555
O5 H11 1_555 1_555
H12 O5 1_555 1_555
O6 H13 1_555 1_555
H14 O6 1_555 1_555
O7 H15 1_555 1_555
H16 O7 1_555 1_555
C4 N5 1_555 1_555
N2 N3 1_555 1_555

#END
