
#######################################################################
#
#                 Cambridge Crystallographic Data Centre
#                                CCDC 
#
#######################################################################
#
# If this CIF has been generated from an entry in the Cambridge 
# Structural Database, then it will include bibliographic, chemical, 
# crystal, experimental, refinement or atomic coordinate data resulting 
# from the CCDC's data processing and validation procedures.
#
#######################################################################

data_KIKTAA
_chemical_formula_moiety         'C16 H20 N2 S4'
_chemical_name_systematic        
5,5'-Dimethyl-2,2'-(p-phenylenebis(methylenethio))bis(4,5-dihydrothiazole)
_symmetry_cell_setting           monoclinic
_symmetry_space_group_name_H-M   'P 21/c'
_symmetry_Int_Tables_number      14
_space_group_name_Hall           '-P 2ybc'
loop_
_symmetry_equiv_pos_site_id
_symmetry_equiv_pos_as_xyz
1 x,y,z
2 -x,1/2+y,1/2-z
3 -x,-y,-z
4 x,1/2-y,1/2+z
_cell_length_a                   6.9337(8)
_cell_length_b                   16.133(2)
_cell_length_c                   8.2475(10)
_cell_angle_alpha                90
_cell_angle_beta                 99.519(6)
_cell_angle_gamma                90
_cell_volume                     909.874
_exptl_crystal_colour            colorless
_exptl_crystal_description       plate
_chemical_melting_point          '378-379 K'
_cell_formula_units_Z            2
_exptl_crystal_recrystallization_method chloroform/ethanol
loop_
_atom_site_label
_atom_site_type_symbol
_atom_site_fract_x
_atom_site_fract_y
_atom_site_fract_z
S1 S 0.45045(15) 0.88289(6) 0.58489(15)
S2 S 0.25410(12) 0.71998(6) 0.49929(12)
N1 N 0.6275(4) 0.74297(17) 0.6648(3)
C1 C 0.8272(6) 0.9020(3) 0.5154(6)
H1 H 0.9653 0.9008 0.5552
H2 H 0.7913 0.9553 0.4683
H3 H 0.7945 0.8599 0.4331
C2 C 0.7177(5) 0.8862(2) 0.6559(5)
H4 H 0.7487 0.9298 0.7387
C3 C 0.7621(6) 0.8028(3) 0.7355(5)
H5 H 0.8931 0.7859 0.7229
H6 H 0.7577 0.8070 0.8521
C4 C 0.4649(5) 0.7737(2) 0.5910(4)
C5 C 0.3269(5) 0.6153(2) 0.5662(5)
H7 H 0.4316 0.5966 0.5104
H8 H 0.3752 0.6153 0.6835
C6 C 0.1541(5) 0.4940(2) 0.4149(4)
H9 H 0.2573 0.4895 0.3563
C7 C 0.1553(5) 0.5568(2) 0.5287(4)
C8 C -0.0019(5) 0.5621(2) 0.6133(4)
H10 H -0.0046 0.6042 0.6900
S1B S -0.45045(15) 0.11711(6) 0.41511(15)
S2B S -0.25410(12) 0.28002(6) 0.50071(12)
N1B N -0.6275(4) 0.25703(17) 0.3352(3)
C1B C -0.8272(6) 0.0980(3) 0.4846(6)
H1B H -0.9653 0.0992 0.4448
H2B H -0.7913 0.0447 0.5317
H3B H -0.7945 0.1401 0.5669
C2B C -0.7177(5) 0.1138(2) 0.3441(5)
H4B H -0.7487 0.0702 0.2613
C3B C -0.7621(6) 0.1972(3) 0.2645(5)
H5B H -0.8931 0.2141 0.2771
H6B H -0.7577 0.1930 0.1479
C4B C -0.4649(5) 0.2263(2) 0.4090(4)
C5B C -0.3269(5) 0.3847(2) 0.4338(5)
H7B H -0.4316 0.4034 0.4896
H8B H -0.3752 0.3847 0.3165
C6B C -0.1541(5) 0.5060(2) 0.5851(4)
H9B H -0.2573 0.5105 0.6437
C7B C -0.1553(5) 0.4432(2) 0.4713(4)
C8B C 0.0019(5) 0.4379(2) 0.3867(4)
H10B H 0.0046 0.3958 0.3100
loop_
_geom_bond_atom_site_label_1
_geom_bond_atom_site_label_2
_geom_bond_site_symmetry_1
_geom_bond_site_symmetry_2
S1 C2 1_555 1_555
S2 C4 1_555 1_555
N1 C3 1_555 1_555
C1 H1 1_555 1_555
H2 C1 1_555 1_555
H3 C1 1_555 1_555
C2 C1 1_555 1_555
H4 C2 1_555 1_555
C3 C2 1_555 1_555
H5 C3 1_555 1_555
H6 C3 1_555 1_555
C4 S1 1_555 1_555
C5 S2 1_555 1_555
H7 C5 1_555 1_555
H8 C5 1_555 1_555
C6 H9 1_555 1_555
C7 C5 1_555 1_555
C8 C7 1_555 1_555
H10 C8 1_555 1_555
S1B C2B 1_555 1_555
S2B C4B 1_555 1_555
N1B C3B 1_555 1_555
C1B H1B 1_555 1_555
H2B C1B 1_555 1_555
H3B C1B 1_555 1_555
C2B C1B 1_555 1_555
H4B C2B 1_555 1_555
C3B C2B 1_555 1_555
H5B C3B 1_555 1_555
H6B C3B 1_555 1_555
C4B S1B 1_555 1_555
C5B S2B 1_555 1_555
H7B C5B 1_555 1_555
H8B C5B 1_555 1_555
C6B C8 1_555 1_555
H9B C6B 1_555 1_555
C7B C5B 1_555 1_555
C8B C6 1_555 1_555
H10B C8B 1_555 1_555
N1 C4 1_555 1_555
C6 C7 1_555 1_555
N1B C4B 1_555 1_555
C6B C7B 1_555 1_555
C7B C8B 1_555 1_555

#END
