
#######################################################################
#
#                 Cambridge Crystallographic Data Centre
#                                CCDC 
#
#######################################################################
#
# If this CIF has been generated from an entry in the Cambridge 
# Structural Database, then it will include bibliographic, chemical, 
# crystal, experimental, refinement or atomic coordinate data resulting 
# from the CCDC's data processing and validation procedures.
#
#######################################################################

data_KILQUR
_chemical_formula_moiety         'C28 H16 N2'
_chemical_name_systematic        gauche-9,9'-Dicyano-9,9'-bifluorenyl
_symmetry_cell_setting           monoclinic
_symmetry_space_group_name_H-M   'P 21/c'
_symmetry_Int_Tables_number      14
_space_group_name_Hall           '-P 2ybc'
loop_
_symmetry_equiv_pos_site_id
_symmetry_equiv_pos_as_xyz
1 x,y,z
2 -x,1/2+y,1/2-z
3 -x,-y,-z
4 x,1/2-y,1/2+z
_cell_length_a                   14.810(3)
_cell_length_b                   16.056(3)
_cell_length_c                   18.079(4)
_cell_angle_alpha                90
_cell_angle_beta                 110.97(3)
_cell_angle_gamma                90
_cell_volume                     4014.26
_exptl_crystal_colour            colorless
_exptl_crystal_description       prisms
_chemical_melting_point          264.5-265.5deg.C(dec.)
_cell_formula_units_Z            8
_exptl_crystal_recrystallization_method 'glacial acetic acid'
loop_
_atom_site_label
_atom_site_type_symbol
_atom_site_fract_x
_atom_site_fract_y
_atom_site_fract_z
C1 C 0.2420(2) 0.1061(2) 0.0103(2)
C2 C 0.1842(3) 0.0425(2) -0.0354(2)
C3 C 0.1666(2) -0.0292(2) -0.0006(2)
C4 C 0.2063(2) -0.0400(2) 0.0806(2)
C5 C 0.3192(2) -0.0273(2) 0.2724(2)
C6 C 0.3697(3) -0.0036(3) 0.3497(2)
C7 C 0.4143(2) 0.0732(3) 0.3671(2)
C8 C 0.4135(2) 0.1278(2) 0.3077(2)
C9 C 0.3545(2) 0.1502(2) 0.1535(2)
C10 C 0.2834(2) 0.0941(2) 0.0908(2)
C11 C 0.2658(2) 0.0218(2) 0.1264(2)
C12 C 0.3169(2) 0.0270(2) 0.2119(2)
C13 C 0.3658(2) 0.1033(2) 0.2302(2)
C14 C 0.3135(2) 0.2341(2) 0.1530(2)
C15 C 0.5371(2) 0.2798(2) 0.2405(2)
C16 C 0.6137(2) 0.3010(2) 0.3096(2)
C17 C 0.6862(3) 0.2435(2) 0.3477(2)
C18 C 0.6838(2) 0.1642(2) 0.3178(2)
C19 C 0.6387(2) -0.0119(2) 0.2201(2)
C20 C 0.6055(3) -0.0759(2) 0.1665(2)
C21 C 0.5226(2) -0.0671(2) 0.1004(2)
C22 C 0.4693(2) 0.0067(2) 0.0871(2)
C23 C 0.4571(2) 0.1574(2) 0.1417(2)
C24 C 0.5341(2) 0.1992(2) 0.2126(2)
C25 C 0.6070(2) 0.1417(2) 0.2505(2)
C26 C 0.5868(2) 0.0629(2) 0.2068(2)
C27 C 0.5011(2) 0.0712(2) 0.1411(2)
C28 C 0.4432(2) 0.2046(2) 0.0679(2)
N1 N 0.2816(2) 0.2993(2) 0.1511(2)
N2 N 0.4340(2) 0.2411(2) 0.0122(2)
H1 H 0.2520 0.1569 -0.0137
H2 H 0.1557 0.0495 -0.0917
H3 H 0.1265 -0.0718 -0.0335
H4 H 0.1938 -0.0892 0.1056
H5 H 0.2864 -0.0799 0.2603
H6 H 0.3742 -0.0408 0.3925
H7 H 0.4465 0.0887 0.4215
H8 H 0.4453 0.1809 0.3199
H9 H 0.4881 0.3196 0.2133
H10 H 0.6169 0.3561 0.3311
H11 H 0.7376 0.2592 0.3956
H12 H 0.7347 0.1252 0.3427
H13 H 0.6972 -0.0177 0.2654
H14 H 0.6400 -0.1278 0.1757
H15 H 0.5016 -0.1124 0.0635
H16 H 0.4114 0.0130 0.0414
C29 C 0.1171(2) 0.2966(2) 0.2782(2)
C30 C 0.1607(2) 0.2239(2) 0.3174(2)
C31 C 0.1568(2) 0.1509(2) 0.2762(2)
C32 C 0.1118(2) 0.1481(2) 0.1953(2)
C33 C 0.0143(2) 0.1878(2) 0.0055(2)
C34 C -0.0256(2) 0.2227(2) -0.0690(2)
C35 C -0.0540(2) 0.3050(2) -0.0790(2)
C36 C -0.0444(2) 0.3554(2) -0.0146(2)
C37 C 0.0135(2) 0.3611(2) 0.1407(1)
C38 C 0.0709(2) 0.2933(2) 0.1974(2)
C39 C 0.0701(2) 0.2200(2) 0.1552(2)
C40 C 0.0247(2) 0.2376(2) 0.0707(2)
C41 C -0.0055(2) 0.3210(2) 0.0598(2)
C42 C 0.0712(2) 0.4385(2) 0.1514(2)
C43 C -0.1346(2) 0.5234(2) 0.0731(2)
C44 C -0.2028(3) 0.5631(2) 0.0094(2)
C45 C -0.2865(3) 0.5227(3) -0.0362(2)
C46 C -0.3047(2) 0.4412(3) -0.0202(2)
C47 C -0.3057(2) 0.2529(3) 0.0531(2)
C48 C -0.2887(3) 0.1804(3) 0.0966(2)
C49 C -0.2052(3) 0.1698(2) 0.1628(2)
C50 C -0.1352(2) 0.2319(2) 0.1857(2)
C51 C -0.0868(2) 0.3822(2) 0.1524(1)
C52 C -0.1511(2) 0.4413(2) 0.0887(1)
C53 C -0.2361(2) 0.3995(2) 0.0432(2)
C54 C -0.2361(2) 0.3155(2) 0.0755(2)
C55 C -0.1508(2) 0.3044(2) 0.1408(2)
C56 C -0.0651(2) 0.4182(2) 0.2316(2)
N3 N 0.1158(2) 0.4981(2) 0.1622(2)
N4 N -0.0492(2) 0.4456(2) 0.2933(2)
H17 H 0.1193 0.3477 0.3063
H18 H 0.1944 0.2252 0.3737
H19 H 0.1850 0.1012 0.3046
H20 H 0.1090 0.0975 0.1663
H21 H 0.0339 0.1305 0.0123
H22 H -0.0339 0.1894 -0.1151
H23 H -0.0805 0.3282 -0.1314
H24 H -0.0644 0.4127 -0.0212
H25 H -0.0765 0.5512 0.1054
H26 H -0.1917 0.6194 -0.0030
H27 H -0.3332 0.5521 -0.0793
H28 H -0.3630 0.4132 -0.0518
H29 H -0.3641 0.2608 0.0082
H30 H -0.3351 0.1361 0.0808
H31 H -0.1962 0.1196 0.1934
H32 H -0.0771 0.2252 0.2311
loop_
_geom_bond_atom_site_label_1
_geom_bond_atom_site_label_2
_geom_bond_site_symmetry_1
_geom_bond_site_symmetry_2
C1 C2 1_555 1_555
C2 C3 1_555 1_555
C3 C4 1_555 1_555
C4 C11 1_555 1_555
C5 C6 1_555 1_555
C6 C7 1_555 1_555
C7 C8 1_555 1_555
C8 C13 1_555 1_555
C9 C10 1_555 1_555
C10 C1 1_555 1_555
C11 C10 1_555 1_555
C12 C5 1_555 1_555
C13 C9 1_555 1_555
C14 C9 1_555 1_555
C15 C16 1_555 1_555
C16 C17 1_555 1_555
C17 C18 1_555 1_555
C18 C25 1_555 1_555
C19 C20 1_555 1_555
C20 C21 1_555 1_555
C21 C22 1_555 1_555
C22 C27 1_555 1_555
C23 C9 1_555 1_555
C24 C15 1_555 1_555
C25 C24 1_555 1_555
C26 C19 1_555 1_555
C27 C23 1_555 1_555
C28 C23 1_555 1_555
C29 C30 1_555 1_555
C30 C31 1_555 1_555
C31 C32 1_555 1_555
C32 C39 1_555 1_555
C33 C34 1_555 1_555
C34 C35 1_555 1_555
C35 C36 1_555 1_555
C36 C41 1_555 1_555
C37 C38 1_555 1_555
C38 C29 1_555 1_555
C39 C38 1_555 1_555
C40 C33 1_555 1_555
C41 C37 1_555 1_555
C42 C37 1_555 1_555
C43 C44 1_555 1_555
C44 C45 1_555 1_555
C45 C46 1_555 1_555
C46 C53 1_555 1_555
C47 C48 1_555 1_555
C48 C49 1_555 1_555
C49 C50 1_555 1_555
C50 C55 1_555 1_555
C51 C37 1_555 1_555
C52 C43 1_555 1_555
C53 C52 1_555 1_555
C54 C47 1_555 1_555
C55 C51 1_555 1_555
C56 C51 1_555 1_555
N1 C14 1_555 1_555
N2 C28 1_555 1_555
N3 C42 1_555 1_555
N4 C56 1_555 1_555
H1 C1 1_555 1_555
H2 C2 1_555 1_555
H3 C3 1_555 1_555
H4 C4 1_555 1_555
H5 C5 1_555 1_555
H6 C6 1_555 1_555
H7 C7 1_555 1_555
H8 C8 1_555 1_555
H9 C15 1_555 1_555
H10 C16 1_555 1_555
H11 C17 1_555 1_555
H12 C18 1_555 1_555
H13 C19 1_555 1_555
H14 C20 1_555 1_555
H15 C21 1_555 1_555
H16 C22 1_555 1_555
H17 C29 1_555 1_555
H18 C30 1_555 1_555
H19 C31 1_555 1_555
H20 C32 1_555 1_555
H21 C33 1_555 1_555
H22 C34 1_555 1_555
H23 C35 1_555 1_555
H24 C36 1_555 1_555
H25 C43 1_555 1_555
H26 C44 1_555 1_555
H27 C45 1_555 1_555
H28 C46 1_555 1_555
H29 C47 1_555 1_555
H30 C48 1_555 1_555
H31 C49 1_555 1_555
H32 C50 1_555 1_555
C11 C12 1_555 1_555
C12 C13 1_555 1_555
C23 C24 1_555 1_555
C25 C26 1_555 1_555
C26 C27 1_555 1_555
C39 C40 1_555 1_555
C40 C41 1_555 1_555
C51 C52 1_555 1_555
C53 C54 1_555 1_555
C54 C55 1_555 1_555

#END
