
#######################################################################
#
#                 Cambridge Crystallographic Data Centre
#                                CCDC 
#
#######################################################################
#
# If this CIF has been generated from an entry in the Cambridge 
# Structural Database, then it will include bibliographic, chemical, 
# crystal, experimental, refinement or atomic coordinate data resulting 
# from the CCDC's data processing and validation procedures.
#
#######################################################################

data_KIMQAB
_chemical_formula_moiety         'C28 H18 N2'
_chemical_name_systematic        
trans-4,4'-(1,2-diphenylethene-1,2-diyl)dibenzonitrile
_symmetry_cell_setting           monoclinic
_symmetry_space_group_name_H-M   'P 21/c'
_symmetry_Int_Tables_number      14
_space_group_name_Hall           '-P 2ybc'
loop_
_symmetry_equiv_pos_site_id
_symmetry_equiv_pos_as_xyz
1 x,y,z
2 -x,1/2+y,1/2-z
3 -x,-y,-z
4 x,1/2-y,1/2+z
_cell_length_a                   21.11(2)
_cell_length_b                   9.964(11)
_cell_length_c                   22.05(2)
_cell_angle_alpha                90
_cell_angle_beta                 113.015(9)
_cell_angle_gamma                90
_cell_volume                     4268.82
_exptl_crystal_colour            colorless
_exptl_crystal_description       block
_cell_formula_units_Z            8
_exptl_crystal_recrystallization_method Dichloromethane/Methanol
_exptl_crystal_preparation       Luminescent
loop_
_atom_site_label
_atom_site_type_symbol
_atom_site_fract_x
_atom_site_fract_y
_atom_site_fract_z
C1 C -0.08241(11) 1.0170(3) 0.04620(12)
C2 C -0.04837(9) 1.0148(2) 0.11694(9)
C3 C 0.01857(9) 1.06095(19) 0.14701(9)
H1 H 0.0410 1.0954 0.1216
C4 C 0.05197(8) 1.05601(17) 0.21442(8)
H2 H 0.0967 1.0884 0.2340
C5 C 0.02031(7) 1.00363(15) 0.25396(8)
C6 C -0.04763(8) 0.95975(17) 0.22285(9)
H3 H -0.0705 0.9263 0.2481
C7 C -0.08129(9) 0.96527(19) 0.15534(10)
H4 H -0.1265 0.9354 0.1355
C8 C 0.05603(8) 1.00012(15) 0.32725(8)
C9 C 0.01175(8) 1.03819(17) 0.36341(8)
C10 C -0.01060(11) 0.9402(2) 0.39422(11)
H5 H 0.0040 0.8520 0.3945
C11 C -0.05465(14) 0.9722(3) 0.42471(13)
H6 H -0.0703 0.9051 0.4447
C12 C -0.07541(12) 1.1023(3) 0.42568(12)
H7 H -0.1046 1.1237 0.4467
C13 C -0.05316(10) 1.1998(2) 0.39582(10)
H8 H -0.0666 1.2884 0.3969
C14 C -0.01054(9) 1.16737(19) 0.36383(8)
H9 H 0.0033 1.2342 0.3422
C15 C 0.12228(8) 0.96201(14) 0.35900(7)
C16 C 0.16352(8) 0.89625(16) 0.32594(7)
C17 C 0.14038(9) 0.77957(17) 0.28963(8)
H10 H 0.0977 0.7445 0.2844
C18 C 0.17957(11) 0.7148(2) 0.26116(9)
H11 H 0.1633 0.6364 0.2372
C19 C 0.24222(11) 0.7653(2) 0.26800(9)
H12 H 0.2683 0.7221 0.2483
C20 C 0.26654(9) 0.8804(2) 0.30419(9)
H13 H 0.3090 0.9152 0.3086
C21 C 0.22821(8) 0.94467(17) 0.33403(8)
H14 H 0.2457 1.0206 0.3596
C22 C 0.15975(8) 0.97614(15) 0.43191(7)
C23 C 0.16516(8) 1.09832(16) 0.46374(8)
H15 H 0.1428 1.1731 0.4396
C24 C 0.20324(8) 1.11100(16) 0.53075(8)
H16 H 0.2066 1.1937 0.5513
C25 C 0.23641(8) 0.99961(17) 0.56705(8)
C26 C 0.23154(9) 0.87810(17) 0.53604(8)
H17 H 0.2534 0.8031 0.5603
C27 C 0.19465(9) 0.86683(16) 0.46949(8)
H18 H 0.1929 0.7845 0.4490
C28 C 0.27473(10) 1.00779(17) 0.63672(11)
N1 N -0.10762(11) 1.0180(3) -0.00989(11)
N2 N 0.30581(9) 1.01088(16) 0.69321(9)
C29 C 0.59856(9) 0.87552(17) 0.53238(8)
C30 C 0.55741(7) 0.80880(16) 0.56255(7)
C31 C 0.52708(8) 0.88471(16) 0.59622(7)
H19 H 0.5331 0.9773 0.5991
C32 C 0.48798(8) 0.82299(15) 0.62543(7)
H20 H 0.4688 0.8746 0.6490
C33 C 0.47649(7) 0.68550(14) 0.62050(6)
C34 C 0.50780(7) 0.61068(15) 0.58694(7)
H21 H 0.5014 0.5182 0.5836
C35 C 0.54814(8) 0.67085(16) 0.55853(7)
H22 H 0.5692 0.6190 0.5367
C36 C 0.43310(7) 0.62416(13) 0.65273(7)
C37 C 0.45610(7) 0.65819(13) 0.72408(7)
C38 C 0.52112(8) 0.62164(14) 0.76889(7)
H23 H 0.5501 0.5726 0.7546
C39 C 0.54304(9) 0.65758(16) 0.83455(8)
H24 H 0.5862 0.6309 0.8643
C40 C 0.50141(10) 0.73229(16) 0.85596(8)
H25 H 0.5164 0.7566 0.9001
C41 C 0.43746(10) 0.77133(17) 0.81213(8)
H26 H 0.4094 0.8230 0.8265
C42 C 0.41487(8) 0.73386(15) 0.74669(8)
H27 H 0.3713 0.7599 0.7174
C43 C 0.37607(7) 0.55014(13) 0.61987(7)
C44 C 0.34594(7) 0.53305(14) 0.54645(7)
C45 C 0.34002(8) 0.63956(16) 0.50399(7)
H28 H 0.3569 0.7235 0.5213
C46 C 0.30950(9) 0.6230(2) 0.43639(8)
H29 H 0.3062 0.6955 0.4088
C47 C 0.28394(9) 0.4996(2) 0.40977(9)
H30 H 0.2633 0.4887 0.3643
C48 C 0.28911(8) 0.39332(18) 0.45071(8)
H31 H 0.2719 0.3099 0.4330
C49 C 0.31981(7) 0.40925(16) 0.51853(7)
H32 H 0.3230 0.3361 0.5458
C50 C 0.33740(7) 0.47986(13) 0.65478(7)
C51 C 0.37054(7) 0.40013(13) 0.70967(7)
H33 H 0.4183 0.3951 0.7272
C52 C 0.33426(8) 0.32823(14) 0.73885(7)
H34 H 0.3575 0.2747 0.7754
C53 C 0.26314(8) 0.33595(14) 0.71365(8)
C54 C 0.22874(8) 0.41692(15) 0.65944(7)
H35 H 0.1811 0.4240 0.6429
C55 C 0.26562(7) 0.48673(15) 0.63019(7)
H36 H 0.2423 0.5394 0.5934
C56 C 0.22502(9) 0.26089(17) 0.74380(9)
N3 N 0.63011(9) 0.93072(17) 0.50821(8)
N4 N 0.19425(8) 0.20299(18) 0.76818(9)
loop_
_geom_bond_atom_site_label_1
_geom_bond_atom_site_label_2
_geom_bond_site_symmetry_1
_geom_bond_site_symmetry_2
C1 C2 1_555 1_555
C2 C3 1_555 1_555
C3 H1 1_555 1_555
C4 C3 1_555 1_555
H2 C4 1_555 1_555
C5 C4 1_555 1_555
C6 C5 1_555 1_555
H3 C6 1_555 1_555
C7 C2 1_555 1_555
H4 C7 1_555 1_555
C8 C5 1_555 1_555
C9 C8 1_555 1_555
C10 C9 1_555 1_555
H5 C10 1_555 1_555
C11 C10 1_555 1_555
H6 C11 1_555 1_555
C12 C11 1_555 1_555
H7 C12 1_555 1_555
C13 C12 1_555 1_555
H8 C13 1_555 1_555
C14 C9 1_555 1_555
H9 C14 1_555 1_555
C15 C8 1_555 1_555
C16 C15 1_555 1_555
C17 C16 1_555 1_555
H10 C17 1_555 1_555
C18 C17 1_555 1_555
H11 C18 1_555 1_555
C19 C18 1_555 1_555
H12 C19 1_555 1_555
C20 C19 1_555 1_555
H13 C20 1_555 1_555
C21 C16 1_555 1_555
H14 C21 1_555 1_555
C22 C15 1_555 1_555
C23 C22 1_555 1_555
H15 C23 1_555 1_555
C24 C23 1_555 1_555
H16 C24 1_555 1_555
C25 C24 1_555 1_555
C26 C25 1_555 1_555
H17 C26 1_555 1_555
C27 C22 1_555 1_555
H18 C27 1_555 1_555
C28 C25 1_555 1_555
N1 C1 1_555 1_555
N2 C28 1_555 1_555
C29 C30 1_555 1_555
C30 C31 1_555 1_555
C31 H19 1_555 1_555
C32 C31 1_555 1_555
H20 C32 1_555 1_555
C33 C32 1_555 1_555
C34 C33 1_555 1_555
H21 C34 1_555 1_555
C35 C30 1_555 1_555
H22 C35 1_555 1_555
C36 C33 1_555 1_555
C37 C36 1_555 1_555
C38 C37 1_555 1_555
H23 C38 1_555 1_555
C39 C38 1_555 1_555
H24 C39 1_555 1_555
C40 C39 1_555 1_555
H25 C40 1_555 1_555
C41 C40 1_555 1_555
H26 C41 1_555 1_555
C42 C37 1_555 1_555
H27 C42 1_555 1_555
C43 C36 1_555 1_555
C44 C43 1_555 1_555
C45 C44 1_555 1_555
H28 C45 1_555 1_555
C46 C45 1_555 1_555
H29 C46 1_555 1_555
C47 C46 1_555 1_555
H30 C47 1_555 1_555
C48 C47 1_555 1_555
H31 C48 1_555 1_555
C49 C44 1_555 1_555
H32 C49 1_555 1_555
C50 C43 1_555 1_555
C51 C50 1_555 1_555
H33 C51 1_555 1_555
C52 C51 1_555 1_555
H34 C52 1_555 1_555
C53 C52 1_555 1_555
C54 C53 1_555 1_555
H35 C54 1_555 1_555
C55 C50 1_555 1_555
H36 C55 1_555 1_555
C56 C53 1_555 1_555
N3 C29 1_555 1_555
N4 C56 1_555 1_555
C6 C7 1_555 1_555
C13 C14 1_555 1_555
C20 C21 1_555 1_555
C26 C27 1_555 1_555
C34 C35 1_555 1_555
C41 C42 1_555 1_555
C48 C49 1_555 1_555
C54 C55 1_555 1_555

#END
