
#######################################################################
#
#                 Cambridge Crystallographic Data Centre
#                                CCDC 
#
#######################################################################
#
# If this CIF has been generated from an entry in the Cambridge 
# Structural Database, then it will include bibliographic, chemical, 
# crystal, experimental, refinement or atomic coordinate data resulting 
# from the CCDC's data processing and validation procedures.
#
#######################################################################

data_KIPQUV
_chemical_formula_moiety         'C26 H36 Si1'
_chemical_name_systematic        
trans-4-t-Butyl-1-(1,1-dimethylallyl)-1-(4-phenylphenyl)silacyclohexane
_symmetry_cell_setting           orthorhombic
_symmetry_space_group_name_H-M   'P b c a'
_symmetry_Int_Tables_number      61
_space_group_name_Hall           '-P 2ac 2ab'
loop_
_symmetry_equiv_pos_site_id
_symmetry_equiv_pos_as_xyz
1 x,y,z
2 1/2-x,-y,1/2+z
3 1/2+x,1/2-y,-z
4 -x,1/2+y,1/2-z
5 -x,-y,-z
6 1/2+x,y,1/2-z
7 1/2-x,1/2+y,z
8 x,1/2-y,1/2+z
_cell_length_a                   18.457(2)
_cell_length_b                   23.884(4)
_cell_length_c                   10.867(1)
_cell_angle_alpha                90
_cell_angle_beta                 90
_cell_angle_gamma                90
_cell_volume                     4790.47
_exptl_crystal_colour            colorless
_exptl_crystal_description       prismatic
_cell_formula_units_Z            8
loop_
_atom_site_label
_atom_site_type_symbol
_atom_site_fract_x
_atom_site_fract_y
_atom_site_fract_z
Si1 Si 0.14204(5) 0.09837(6) 0.73872(10)
C1 C 0.1966(2) 0.0803(2) 0.6205(4)
C2 C 0.1741(2) 0.0303(2) 0.5196(4)
C3 C 0.1225(1) 0.0597(2) 0.4533(3)
C4 C 0.0721(2) 0.0628(2) 0.5402(4)
C5 C 0.0788(2) 0.1182(2) 0.6450(4)
C6 C 0.1095(2) 0.0204(2) 0.3300(4)
C7 C 0.1605(2) 0.0198(3) 0.2457(4)
C8 C 0.0631(2) 0.0613(3) 0.2609(4)
C9 C 0.0906(2) -0.0568(3) 0.3520(5)
C10 C 0.1622(2) 0.1750(2) 0.8473(4)
C11 C 0.1779(3) 0.2443(3) 0.7742(5)
C12 C 0.1129(3) 0.1896(3) 0.9332(6)
C13 C 0.2113(3) 0.1508(3) 0.9252(6)
C14 C 0.2565(5) 0.1801(7) 0.921(1)
C15 C 0.1293(2) 0.0143(2) 0.8305(3)
C16 C 0.1717(2) -0.0349(2) 0.8573(4)
C17 C 0.1627(2) -0.0970(2) 0.9255(4)
C18 C 0.1096(2) -0.1143(2) 0.9683(3)
C19 C 0.0995(2) -0.1830(2) 1.0354(4)
C20 C 0.0514(2) -0.2220(3) 1.0180(5)
C21 C 0.0424(3) -0.2865(3) 1.0797(6)
C22 C 0.0807(3) -0.3129(3) 1.1584(6)
C23 C 0.1286(3) -0.2757(3) 1.1769(5)
C24 C 0.1381(2) -0.2113(3) 1.1149(5)
C25 C 0.0670(2) -0.0664(2) 0.9428(4)
C26 C 0.0766(2) -0.0041(2) 0.8768(4)
H1 H 0.2015 0.1158 1.0024
H2 H 0.0764 -0.3552 1.2021
H3 H 0.0084 -0.3101 1.0690
H4 H 0.0242 -0.2023 0.9648
H5 H 0.1585 -0.2926 1.2342
H6 H 0.1698 -0.1867 1.1316
H7 H 0.2325 0.0615 0.6559
H8 H 0.2049 0.1244 0.5880
H9 H 0.2053 0.0259 0.4590
H10 H 0.1675 -0.0168 0.5492
H11 H 0.1305 0.1100 0.4304
H12 H 0.0442 0.1184 0.6896
H13 H 0.0820 0.1673 0.6134
H14 H 0.0401 0.0740 0.4966
H15 H 0.0547 -0.0576 0.3969
H16 H 0.1195 -0.0888 0.3959
H17 H 0.0839 -0.0819 0.2836
H18 H 0.1513 0.0013 0.1667
H19 H 0.1771 0.0678 0.2354
H20 H 0.1897 -0.0119 0.2760
H21 H 0.0576 0.0376 0.1821
H22 H 0.0749 0.1159 0.2417
H23 H 0.0279 0.0581 0.3008
H24 H 0.1939 -0.1280 0.9391
H25 H 0.2088 -0.0258 0.8255
H26 H 0.0470 0.0245 0.8566
H27 H 0.0300 -0.0754 0.9706
H28 H 0.0696 0.0141 0.5797
H29 H 0.1931 0.2824 0.8256
H30 H 0.2055 0.2350 0.7109
H31 H 0.0797 0.1931 0.8913
H32 H 0.1103 0.1456 0.9880
H33 H 0.1396 0.2663 0.7280
H34 H 0.1167 0.2350 0.9997
H35 H 0.2849 0.1722 0.9866
H36 H 0.2685 0.2116 0.8556
loop_
_geom_bond_atom_site_label_1
_geom_bond_atom_site_label_2
_geom_bond_site_symmetry_1
_geom_bond_site_symmetry_2
Si1 C1 1_555 1_555
C1 C2 1_555 1_555
C2 C3 1_555 1_555
C3 C4 1_555 1_555
C4 C5 1_555 1_555
C5 Si1 1_555 1_555
C6 C3 1_555 1_555
C7 C6 1_555 1_555
C8 C6 1_555 1_555
C9 C6 1_555 1_555
C10 Si1 1_555 1_555
C11 C10 1_555 1_555
C12 C10 1_555 1_555
C13 C10 1_555 1_555
C14 C13 1_555 1_555
C15 Si1 1_555 1_555
C16 C15 1_555 1_555
C17 C16 1_555 1_555
C18 C17 1_555 1_555
C19 C18 1_555 1_555
C20 C19 1_555 1_555
C21 C20 1_555 1_555
C22 C21 1_555 1_555
C23 C22 1_555 1_555
C24 C19 1_555 1_555
C25 C18 1_555 1_555
C26 C15 1_555 1_555
H1 C13 1_555 1_555
H2 C22 1_555 1_555
H3 C21 1_555 1_555
H4 C20 1_555 1_555
H5 C23 1_555 1_555
H6 C24 1_555 1_555
H7 C1 1_555 1_555
H8 C1 1_555 1_555
H9 C2 1_555 1_555
H10 C2 1_555 1_555
H11 C3 1_555 1_555
H12 C5 1_555 1_555
H13 C5 1_555 1_555
H14 C4 1_555 1_555
H15 C9 1_555 1_555
H16 C9 1_555 1_555
H17 C9 1_555 1_555
H18 C7 1_555 1_555
H19 C7 1_555 1_555
H20 C7 1_555 1_555
H21 C8 1_555 1_555
H22 C8 1_555 1_555
H23 C8 1_555 1_555
H24 C17 1_555 1_555
H25 C16 1_555 1_555
H26 C26 1_555 1_555
H27 C25 1_555 1_555
H28 C4 1_555 1_555
H29 C11 1_555 1_555
H30 C11 1_555 1_555
H31 C12 1_555 1_555
H32 C12 1_555 1_555
H33 C11 1_555 1_555
H34 C12 1_555 1_555
H35 C14 1_555 1_555
H36 C14 1_555 1_555
C23 C24 1_555 1_555
C25 C26 1_555 1_555

#END
