
#######################################################################
#
#                 Cambridge Crystallographic Data Centre
#                                CCDC 
#
#######################################################################
#
# If this CIF has been generated from an entry in the Cambridge 
# Structural Database, then it will include bibliographic, chemical, 
# crystal, experimental, refinement or atomic coordinate data resulting 
# from the CCDC's data processing and validation procedures.
#
#######################################################################

data_KIRHOI
_chemical_formula_moiety         'C11 H7 N5 O2'
_chemical_name_systematic        
2-(1,1-Dicyanopent-4-yn-1-yl)-5-nitropyrimidine
_symmetry_cell_setting           monoclinic
_symmetry_space_group_name_H-M   'P 21/n'
_symmetry_Int_Tables_number      14
_space_group_name_Hall           '-P 2yn'
loop_
_symmetry_equiv_pos_site_id
_symmetry_equiv_pos_as_xyz
1 x,y,z
2 1/2-x,1/2+y,1/2-z
3 -x,-y,-z
4 1/2+x,1/2-y,1/2+z
_cell_length_a                   22.604(2)
_cell_length_b                   10.271(2)
_cell_length_c                   10.146(2)
_cell_angle_alpha                90
_cell_angle_beta                 98.75(2)
_cell_angle_gamma                90
_cell_volume                     2328.14
_cell_formula_units_Z            8
loop_
_atom_site_label
_atom_site_type_symbol
_atom_site_fract_x
_atom_site_fract_y
_atom_site_fract_z
C1 C 0.0828(2) 0.3066(5) 0.0155(5)
C2 C 0.1457(3) 0.3848(6) 0.1898(5)
C3 C 0.1365(2) 0.2741(6) 0.2579(5)
C4 C 0.0955(3) 0.1818(6) 0.2006(5)
C5 C 0.0558(2) 0.3234(6) -0.1320(5)
C6 C 0.1059(2) 0.3098(6) -0.2227(5)
C7 C 0.1357(3) 0.1776(6) -0.2165(5)
C8 C 0.1751(3) 0.1471(6) -0.0901(6)
C9 C 0.2059(3) 0.1234(7) 0.0102(6)
C10 C 0.0080(3) 0.2248(7) -0.1709(6)
C11 C 0.0295(3) 0.4545(6) -0.1542(6)
N1 N 0.0679(2) 0.1997(5) 0.0759(4)
N2 N 0.1703(2) 0.2546(6) 0.3919(5)
N3 N 0.1187(2) 0.4021(5) 0.0645(4)
N4 N -0.0279(3) 0.1491(7) -0.2045(6)
N5 N 0.0105(3) 0.5555(6) -0.1738(6)
O1 O 0.2026(3) 0.3420(6) 0.4396(5)
O2 O 0.1669(2) 0.1473(6) 0.4416(5)
H1 H 0.176(3) 0.451(7) 0.227(6)
H2 H 0.090(3) 0.094(7) 0.248(6)
H3 H 0.235(3) 0.116(7) 0.087(7)
H4 H 0.090(2) 0.326(5) -0.311(5)
H5 H 0.139(2) 0.380(5) -0.196(5)
H6 H 0.108(20) 0.105(5) -0.237(5)
H7 H 0.157(3) 0.165(6) -0.291(6)
C12 C 0.3942(2) 0.2568(5) 0.7662(5)
C13 C 0.3325(3) 0.1704(6) 0.5920(6)
C14 C 0.3505(3) 0.2678(6) 0.5131(5)
C15 C 0.3928(3) 0.3571(6) 0.5675(5)
C16 C 0.4171(2) 0.2584(6) 0.9158(5)
C17 C 0.3846(3) 0.3656(7) 0.9876(5)
C18 C 0.3169(3) 0.3450(8) 0.9771(6)
C19 C 0.2819(3) 0.3884(6) 0.8512(6)
C20 C 0.2537(3) 0.4260(7) 0.7530(6)
C21 C 0.4109(3) 0.1301(7) 0.9752(6)
C22 C 0.4822(3) 0.2909(7) 0.9414(6)
N6 N 0.3549(2) 0.1647(4) 0.7226(4)
N7 N 0.4150(2) 0.3529(5) 0.6965(4)
N8 N 0.3251(2) 0.2750(6) 0.3711(5)
N9 N 0.4050(4) 0.0330(8) 1.0262(7)
N10 N 0.5307(3) 0.3201(7) 0.9675(6)
O3 O 0.2965(3) 0.1799(6) 0.3231(5)
O4 O 0.3320(3) 0.3776(6) 0.3130(4)
H8 H 0.305(4) 0.093(8) 0.569(8)
H9 H 0.405(3) 0.427(6) 0.516(6)
H10 H 0.230(3) 0.451(8) 0.673(7)
H11 H 0.405(2) 0.360(5) 1.081(5)
H12 H 0.392(2) 0.454(5) 0.945(5)
H13 H 0.312(3) 0.252(7) 0.993(6)
H14 H 0.299(3) 0.389(7) 1.056(6)
loop_
_geom_bond_atom_site_label_1
_geom_bond_atom_site_label_2
_geom_bond_site_symmetry_1
_geom_bond_site_symmetry_2
C1 C5 1_555 1_555
C2 C3 1_555 1_555
C3 C4 1_555 1_555
C4 N1 1_555 1_555
C5 C6 1_555 1_555
C6 C7 1_555 1_555
C7 C8 1_555 1_555
C8 C9 1_555 1_555
C9 H3 1_555 1_555
C10 C5 1_555 1_555
C11 C5 1_555 1_555
N1 C1 1_555 1_555
N2 C3 1_555 1_555
N3 C1 1_555 1_555
N4 C10 1_555 1_555
N5 C11 1_555 1_555
O1 N2 1_555 1_555
O2 N2 1_555 1_555
C12 C16 1_555 1_555
C13 C14 1_555 1_555
C14 C15 1_555 1_555
C15 N7 1_555 1_555
C16 C17 1_555 1_555
C17 C18 1_555 1_555
C18 C19 1_555 1_555
C19 C20 1_555 1_555
C20 H10 1_555 1_555
C21 C16 1_555 1_555
C22 C16 1_555 1_555
N6 C12 1_555 1_555
N7 C12 1_555 1_555
N8 C14 1_555 1_555
N9 C21 1_555 1_555
N10 C22 1_555 1_555
O3 N8 1_555 1_555
O4 N8 1_555 1_555
H1 C2 1_555 1_555
H2 C4 1_555 1_555
H4 C6 1_555 1_555
H5 C6 1_555 1_555
H6 C7 1_555 1_555
H7 C7 1_555 1_555
H8 C13 1_555 1_555
H9 C15 1_555 1_555
H11 C17 1_555 1_555
H12 C17 1_555 1_555
H13 C18 1_555 1_555
H14 C18 1_555 1_555
C2 N3 1_555 1_555
C13 N6 1_555 1_555

#END
