
#######################################################################
#
#                 Cambridge Crystallographic Data Centre
#                                CCDC 
#
#######################################################################
#
# If this CIF has been generated from an entry in the Cambridge 
# Structural Database, then it will include bibliographic, chemical, 
# crystal, experimental, refinement or atomic coordinate data resulting 
# from the CCDC's data processing and validation procedures.
#
#######################################################################

data_KIRKUU
_chemical_formula_moiety         'C16 H16 O5'
_chemical_name_systematic        
'diethyl 4-hydroxynaphthalene-1,3-dicarboxylate'
_symmetry_cell_setting           monoclinic
_symmetry_space_group_name_H-M   'P 21/n'
_symmetry_Int_Tables_number      14
_space_group_name_Hall           '-P 2yn'
loop_
_symmetry_equiv_pos_site_id
_symmetry_equiv_pos_as_xyz
1 x,y,z
2 1/2-x,1/2+y,1/2-z
3 -x,-y,-z
4 1/2+x,1/2-y,1/2+z
_cell_length_a                   11.132(4)
_cell_length_b                   6.731(2)
_cell_length_c                   18.771(7)
_cell_angle_alpha                90
_cell_angle_beta                 94.065(7)
_cell_angle_gamma                90
_cell_volume                     1402.96
_exptl_crystal_colour            white
_exptl_crystal_description       needle
_cell_formula_units_Z            4
loop_
_atom_site_label
_atom_site_type_symbol
_atom_site_fract_x
_atom_site_fract_y
_atom_site_fract_z
O1 O 0.31373(14) 0.6867(2) 0.02329(9)
H1 H 0.3319 0.6901 0.0664
O2 O 0.27921(14) 0.7186(3) 0.15782(9)
O3 O -0.24270(14) 0.7847(2) 0.03232(9)
O4 O -0.24863(15) 0.8048(3) -0.08633(9)
O5 O 0.08952(14) 0.7740(2) 0.18769(9)
C1 C 0.1193(2) 0.7406(3) 0.06619(13)
C2 C 0.19282(19) 0.7122(3) 0.01116(13)
C3 C -0.1912(2) 0.7843(3) -0.02983(13)
C4 C 0.0174(2) 0.7328(3) -0.07691(13)
C5 C 0.1444(2) 0.7085(3) -0.06140(13)
C6 C 0.1707(2) 0.7436(3) 0.14030(13)
C7 C -0.0571(2) 0.7583(3) -0.01869(13)
C8 C -0.0065(2) 0.7609(3) 0.04990(13)
H2 H -0.0564 0.7766 0.0872
C9 C 0.2204(2) 0.6767(3) -0.11738(14)
H3 H 0.3027 0.6609 -0.1067
C10 C 0.0504(2) 0.6933(4) -0.20323(14)
H4 H 0.0192 0.6878 -0.2505
C11 C -0.0254(2) 0.7252(3) -0.14992(14)
H5 H -0.1072 0.7423 -0.1619
C12 C 0.1300(2) 0.7695(4) 0.26326(13)
H6 H 0.1911 0.8699 0.2739
H7 H 0.1635 0.6405 0.2763
C13 C 0.1754(2) 0.6687(4) -0.18717(14)
H8 H 0.2265 0.6474 -0.2235
C14 C -0.3714(2) 0.8156(4) 0.02923(13)
H9 H -0.4132 0.7044 0.0058
H10 H -0.3929 0.9359 0.0029
C15 C 0.0209(2) 0.8105(4) 0.30333(14)
H11 H 0.0429 0.8087 0.3537
H12 H -0.0389 0.7105 0.2920
H13 H -0.0111 0.9387 0.2900
C16 C -0.4049(2) 0.8333(4) 0.10552(14)
H14 H -0.4901 0.8544 0.1061
H15 H -0.3627 0.9436 0.1281
H16 H -0.3831 0.7133 0.1309
loop_
_geom_bond_atom_site_label_1
_geom_bond_atom_site_label_2
_geom_bond_site_symmetry_1
_geom_bond_site_symmetry_2
O1 H1 1_555 1_555
O2 C6 1_555 1_555
O3 C3 1_555 1_555
O4 C3 1_555 1_555
O5 C6 1_555 1_555
C1 C2 1_555 1_555
C2 O1 1_555 1_555
C3 C7 1_555 1_555
C4 C5 1_555 1_555
C5 C2 1_555 1_555
C6 C1 1_555 1_555
C7 C4 1_555 1_555
C8 C1 1_555 1_555
H2 C8 1_555 1_555
C9 C5 1_555 1_555
H3 C9 1_555 1_555
C10 H4 1_555 1_555
C11 C4 1_555 1_555
H5 C11 1_555 1_555
C12 O5 1_555 1_555
H6 C12 1_555 1_555
H7 C12 1_555 1_555
C13 C9 1_555 1_555
H8 C13 1_555 1_555
C14 O3 1_555 1_555
H9 C14 1_555 1_555
H10 C14 1_555 1_555
C15 C12 1_555 1_555
H11 C15 1_555 1_555
H12 C15 1_555 1_555
H13 C15 1_555 1_555
C16 C14 1_555 1_555
H14 C16 1_555 1_555
H15 C16 1_555 1_555
H16 C16 1_555 1_555
C7 C8 1_555 1_555
C10 C11 1_555 1_555
C10 C13 1_555 1_555

#END
