
#######################################################################
#
#                 Cambridge Crystallographic Data Centre
#                                CCDC 
#
#######################################################################
#
# If this CIF has been generated from an entry in the Cambridge 
# Structural Database, then it will include bibliographic, chemical, 
# crystal, experimental, refinement or atomic coordinate data resulting 
# from the CCDC's data processing and validation procedures.
#
#######################################################################

data_KIRLOO
_chemical_formula_moiety         'C24 H27 N1 O5 S1'
_chemical_name_systematic        
N-(3,4-Dimethoxybenzyl)-N-(2-hydroxy-2-phenylethyl)-4-methylbenzenesulfonamide
_symmetry_cell_setting           monoclinic
_symmetry_space_group_name_H-M   'C 2/c'
_symmetry_Int_Tables_number      15
_space_group_name_Hall           '-C 2yn'
loop_
_symmetry_equiv_pos_site_id
_symmetry_equiv_pos_as_xyz
1 x,y,z
2 -x,y,1/2-z
3 1/2+x,1/2+y,z
4 1/2-x,1/2+y,1/2-z
5 -x,-y,-z
6 x,-y,1/2+z
7 1/2-x,1/2-y,-z
8 1/2+x,1/2-y,1/2+z
_cell_length_a                   20.4458(19)
_cell_length_b                   8.6442(7)
_cell_length_c                   27.520(2)
_cell_angle_alpha                90
_cell_angle_beta                 110.550(2)
_cell_angle_gamma                90
_cell_volume                     4554.32
_exptl_crystal_colour            colorless
_exptl_crystal_description       block
_cell_formula_units_Z            8
loop_
_atom_site_label
_atom_site_type_symbol
_atom_site_fract_x
_atom_site_fract_y
_atom_site_fract_z
C1 C 0.29041(12) 0.4354(3) 0.14233(10)
N1 N 0.15699(10) 0.3554(2) 0.13336(8)
O1 O 0.25427(10) 0.1745(2) 0.17113(9)
S1 S 0.22889(3) 0.28519(7) 0.12992(3)
C2 C 0.28657(14) 0.5398(4) 0.10360(11)
H1 H 0.2527 0.5291 0.0708
O2 O 0.21383(11) 0.2371(2) 0.07750(8)
C3 C 0.33386(16) 0.6610(4) 0.11415(12)
H2 H 0.3305 0.7333 0.0884
O3 O 0.16355(15) 0.4402(3) 0.26539(10)
H3 H 0.1602 0.5168 0.2819
C4 C 0.38596(15) 0.6768(4) 0.16222(11)
O4 O -0.16600(9) 0.2443(2) -0.00677(8)
C5 C 0.38857(15) 0.5703(4) 0.20027(11)
H4 H 0.4230 0.5796 0.2329
O5 O -0.14346(9) 0.5194(2) 0.02981(8)
C6 C 0.34137(14) 0.4508(4) 0.19100(11)
H5 H 0.3436 0.3808 0.2172
C7 C 0.4377(2) 0.8068(5) 0.17254(15)
H6 H 0.4607 0.8189 0.2093
H7 H 0.4139 0.9008 0.1581
H8 H 0.4718 0.7836 0.1568
C8 C 0.14276(14) 0.3501(3) 0.18178(10)
H9 H 0.1629 0.2557 0.2000
H10 H 0.0926 0.3436 0.1732
C9 C 0.17000(16) 0.4861(3) 0.21897(12)
H11 H 0.2197 0.5001 0.2247
C10 C 0.13257(16) 0.6363(3) 0.19875(11)
C11 C 0.1653(2) 0.7531(4) 0.18150(14)
H12 H 0.2112 0.7404 0.1832
C12 C 0.1303(4) 0.8879(5) 0.16196(18)
H13 H 0.1529 0.9660 0.1507
C13 C 0.0640(4) 0.9082(5) 0.15886(19)
H14 H 0.0408 0.9990 0.1445
C14 C 0.0289(3) 0.7958(5) 0.17678(17)
H15 H -0.0167 0.8113 0.1753
C15 C 0.06453(18) 0.6594(4) 0.19704(13)
H16 H 0.0425 0.5831 0.2095
C16 C 0.11286(11) 0.4498(3) 0.08998(9)
H17 H 0.1337 0.4536 0.0633
H18 H 0.1112 0.5547 0.1021
C17 C 0.03887(11) 0.3874(3) 0.06662(8)
C18 C 0.02648(13) 0.2380(3) 0.04806(11)
H19 H 0.0639 0.1717 0.0521
C19 C -0.04152(14) 0.1854(3) 0.02329(11)
H20 H -0.0493 0.0845 0.0109
C20 C -0.09728(12) 0.2825(3) 0.01714(9)
C21 C -0.08493(11) 0.4332(3) 0.03680(9)
C22 C -0.01728(12) 0.4843(3) 0.06115(9)
H21 H -0.0093 0.5847 0.0740
C23 C -0.18095(17) 0.0913(4) -0.02653(15)
H22 H -0.1638 0.0775 -0.0545
H23 H -0.2305 0.0748 -0.0390
H24 H -0.1587 0.0185 0.0006
C24 C -0.13463(16) 0.6725(4) 0.05011(14)
H25 H -0.1109 0.6690 0.0870
H26 H -0.1795 0.7202 0.0425
H27 H -0.1075 0.7317 0.0345
loop_
_geom_bond_atom_site_label_1
_geom_bond_atom_site_label_2
_geom_bond_site_symmetry_1
_geom_bond_site_symmetry_2
C1 S1 1_555 1_555
N1 S1 1_555 1_555
O1 S1 1_555 1_555
S1 O2 1_555 1_555
C2 C1 1_555 1_555
H1 C2 1_555 1_555
C3 C2 1_555 1_555
H2 C3 1_555 1_555
O3 H3 1_555 1_555
C4 C3 1_555 1_555
O4 C20 1_555 1_555
C5 C4 1_555 1_555
H4 C5 1_555 1_555
O5 C21 1_555 1_555
C6 C1 1_555 1_555
H5 C6 1_555 1_555
C7 C4 1_555 1_555
H6 C7 1_555 1_555
H7 C7 1_555 1_555
H8 C7 1_555 1_555
C8 N1 1_555 1_555
H9 C8 1_555 1_555
H10 C8 1_555 1_555
C9 O3 1_555 1_555
H11 C9 1_555 1_555
C10 C9 1_555 1_555
C11 C10 1_555 1_555
H12 C11 1_555 1_555
C12 C11 1_555 1_555
H13 C12 1_555 1_555
C13 C12 1_555 1_555
H14 C13 1_555 1_555
C14 C13 1_555 1_555
H15 C14 1_555 1_555
C15 C10 1_555 1_555
H16 C15 1_555 1_555
C16 N1 1_555 1_555
H17 C16 1_555 1_555
H18 C16 1_555 1_555
C17 C16 1_555 1_555
C18 C17 1_555 1_555
H19 C18 1_555 1_555
C19 C18 1_555 1_555
H20 C19 1_555 1_555
C20 C19 1_555 1_555
C21 C20 1_555 1_555
C22 C17 1_555 1_555
H21 C22 1_555 1_555
C23 O4 1_555 1_555
H22 C23 1_555 1_555
H23 C23 1_555 1_555
H24 C23 1_555 1_555
C24 O5 1_555 1_555
H25 C24 1_555 1_555
H26 C24 1_555 1_555
H27 C24 1_555 1_555
C5 C6 1_555 1_555
C8 C9 1_555 1_555
C14 C15 1_555 1_555
C21 C22 1_555 1_555

#END
