
#######################################################################
#
#                 Cambridge Crystallographic Data Centre
#                                CCDC 
#
#######################################################################
#
# If this CIF has been generated from an entry in the Cambridge 
# Structural Database, then it will include bibliographic, chemical, 
# crystal, experimental, refinement or atomic coordinate data resulting 
# from the CCDC's data processing and validation procedures.
#
#######################################################################

data_KIRXIT
_chemical_compound_source        'Neoplaconema napellum IFB-E016'
_chemical_name_common            Neoplaether
_chemical_formula_moiety         'C18 H19 N1 O7'
_chemical_name_systematic        
'Methyl 2-(2-carbamoyl-3-methoxy-5-methylphenoxy)-3-methoxy-5-hydroxybenzoate'
_chemical_properties_biological  
'cytotoxic activity against the human nasopharyngeal epidermoid tumour KB cell line; antifungal activity against Candida albicans'
_symmetry_cell_setting           triclinic
_symmetry_space_group_name_H-M   'P -1'
_symmetry_Int_Tables_number      2
_space_group_name_Hall           '-P 1'
loop_
_symmetry_equiv_pos_site_id
_symmetry_equiv_pos_as_xyz
1 x,y,z
2 -x,-y,-z
_cell_length_a                   9.1720(18)
_cell_length_b                   9.6490(19)
_cell_length_c                   11.790(2)
_cell_angle_alpha                104.25(3)
_cell_angle_beta                 97.42(3)
_cell_angle_gamma                110.16(3)
_cell_volume                     922.73
_chemical_melting_point          298-299deg.C
_cell_formula_units_Z            2
_exptl_crystal_recrystallization_method dmso
loop_
_atom_site_label
_atom_site_type_symbol
_atom_site_fract_x
_atom_site_fract_y
_atom_site_fract_z
N1 N 0.1285(3) 0.0612(3) 0.8866(3)
H1 H 0.1462 0.0327 0.9488
H2 H 0.2071 0.1081 0.8588
O1 O 0.1576(2) 0.3280(2) 0.83015(19)
O2 O 0.3887(3) 0.2306(3) 0.7814(3)
O3 O 0.6217(3) 0.4073(3) 0.8007(4)
O4 O 0.5596(3) 0.9121(3) 0.8457(3)
H3 H 0.6502 0.9184 0.8417
O5 O 0.0635(3) 0.5588(3) 0.8719(3)
O6 O -0.1341(3) -0.0342(3) 0.8722(2)
O7 O -0.2431(4) -0.1635(3) 0.6261(3)
C1 C 0.4175(4) 0.4966(3) 0.8190(3)
C2 C 0.2635(4) 0.4725(3) 0.8324(3)
C3 C 0.2134(4) 0.5958(4) 0.8565(3)
C4 C 0.3166(4) 0.7426(4) 0.8614(3)
H4 H 0.2835 0.8250 0.8762
C5 C 0.4692(4) 0.7663(4) 0.8440(3)
C6 C 0.5210(4) 0.6456(4) 0.8251(3)
H5 H 0.6247 0.6634 0.8163
C7 C 0.4714(4) 0.3648(4) 0.8002(3)
C8 C 0.6848(6) 0.2857(6) 0.7863(7)
H6 H 0.6458 0.2234 0.8366
H7 H 0.7994 0.3325 0.8093
H8 H 0.6506 0.2213 0.7037
C9 C 0.0073(5) 0.6795(5) 0.9049(5)
H9 H 0.0830 0.7618 0.9732
H10 H -0.0937 0.6394 0.9251
H11 H -0.0053 0.7190 0.8386
C10 C 0.0479(4) 0.2327(3) 0.7244(3)
C11 C -0.0433(4) 0.0835(3) 0.7249(3)
C12 C -0.1628(4) -0.0173(4) 0.6211(3)
C13 C -0.1882(5) 0.0297(5) 0.5213(3)
H12 H -0.2664 -0.0389 0.4528
C14 C -0.0974(5) 0.1789(4) 0.5230(3)
C15 C 0.0207(4) 0.2800(4) 0.6252(3)
H13 H 0.0819 0.3802 0.6268
C16 C -0.1272(7) 0.2294(6) 0.4146(4)
H14 H -0.1826 0.2977 0.4302
H15 H -0.1912 0.1398 0.3466
H16 H -0.0271 0.2828 0.3977
C17 C -0.0188(4) 0.0332(3) 0.8338(3)
C18 C -0.3754(7) -0.2670(6) 0.5302(5)
H17 H -0.4490 -0.2184 0.5178
H18 H -0.4280 -0.3599 0.5496
H19 H -0.3391 -0.2927 0.4581
loop_
_geom_bond_atom_site_label_1
_geom_bond_atom_site_label_2
_geom_bond_site_symmetry_1
_geom_bond_site_symmetry_2
N1 H1 1_555 1_555
H2 N1 1_555 1_555
O1 C2 1_555 1_555
O2 C7 1_555 1_555
O3 C7 1_555 1_555
O4 H3 1_555 1_555
O5 C3 1_555 1_555
O6 C17 1_555 1_555
O7 C12 1_555 1_555
C1 C2 1_555 1_555
C2 C3 1_555 1_555
C3 C4 1_555 1_555
C4 H4 1_555 1_555
C5 O4 1_555 1_555
C6 C1 1_555 1_555
H5 C6 1_555 1_555
C7 C1 1_555 1_555
C8 O3 1_555 1_555
H6 C8 1_555 1_555
H7 C8 1_555 1_555
H8 C8 1_555 1_555
C9 O5 1_555 1_555
H9 C9 1_555 1_555
H10 C9 1_555 1_555
H11 C9 1_555 1_555
C10 O1 1_555 1_555
C11 C10 1_555 1_555
C12 C11 1_555 1_555
C13 C12 1_555 1_555
H12 C13 1_555 1_555
C14 C13 1_555 1_555
C15 C10 1_555 1_555
H13 C15 1_555 1_555
C16 C14 1_555 1_555
H14 C16 1_555 1_555
H15 C16 1_555 1_555
H16 C16 1_555 1_555
C17 N1 1_555 1_555
C18 O7 1_555 1_555
H17 C18 1_555 1_555
H18 C18 1_555 1_555
H19 C18 1_555 1_555
C4 C5 1_555 1_555
C5 C6 1_555 1_555
C11 C17 1_555 1_555
C14 C15 1_555 1_555

#END
