
#######################################################################
#
#                 Cambridge Crystallographic Data Centre
#                                CCDC 
#
#######################################################################
#
# If this CIF has been generated from an entry in the Cambridge 
# Structural Database, then it will include bibliographic, chemical, 
# crystal, experimental, refinement or atomic coordinate data resulting 
# from the CCDC's data processing and validation procedures.
#
#######################################################################

data_KISBOG
_chemical_formula_moiety         'C33 H40 N2 O5 S1 Si1'
_chemical_name_systematic        
N-benzyl-N-(5-{[t-butyl(dimethyl)silyl]oxy}-1-oxo-4-phenyl-4a,5,6,7-tetrahydro-1H-pyrrolo[1,2-c][1,3]oxazin-3-yl)-4-methylbenzene-1-sulfonamide
_symmetry_cell_setting           monoclinic
_symmetry_space_group_name_H-M   'P 21'
_symmetry_Int_Tables_number      4
_space_group_name_Hall           'P 2yb'
loop_
_symmetry_equiv_pos_site_id
_symmetry_equiv_pos_as_xyz
1 x,y,z
2 -x,1/2+y,-z
_cell_length_a                   8.3716(4)
_cell_length_b                   50.033(3)
_cell_length_c                   8.3726(4)
_cell_angle_alpha                90
_cell_angle_beta                 107.8990(10)
_cell_angle_gamma                90
_cell_volume                     3337.18
_exptl_crystal_colour            colorless
_exptl_crystal_description       prismatic
_cell_formula_units_Z            4
loop_
_atom_site_label
_atom_site_type_symbol
_atom_site_fract_x
_atom_site_fract_y
_atom_site_fract_z
S1 S 0.0979(2) 0.39210(4) 0.1056(3)
Si1 Si 0.7768(3) 0.29625(5) 0.2287(3)
O1 O 0.6413(10) 0.42472(16) 0.5293(8)
O2 O 0.4672(7) 0.41489(12) 0.2766(7)
O3 O 0.7818(8) 0.32928(11) 0.2190(7)
O4 O 0.1716(8) 0.37648(13) 0.2507(8)
O5 O -0.0279(7) 0.38097(12) -0.0362(8)
N1 N 0.7177(8) 0.39263(15) 0.3803(8)
N2 N 0.2535(8) 0.40260(14) 0.0430(8)
C1 C 0.6138(11) 0.41092(19) 0.4049(12)
C2 C 0.4198(9) 0.39689(16) 0.1435(9)
C3 C 0.5178(9) 0.37818(16) 0.1180(9)
C4 C 0.6912(8) 0.37471(15) 0.2370(8)
H1 H 0.7731 0.3789 0.1785
C5 C 0.7338(10) 0.34754(16) 0.3230(10)
H2 H 0.6389 0.3406 0.3556
C6 C 0.8821(13) 0.3546(2) 0.4795(12)
H3 H 0.8803 0.3433 0.5732
H4 H 0.9878 0.3518 0.4568
C7 C 0.8633(13) 0.3831(3) 0.5196(12)
H5 H 0.8416 0.3847 0.6265
H6 H 0.9637 0.3931 0.5241
C8 C 0.4648(9) 0.36073(15) -0.0328(9)
C9 C 0.3276(11) 0.34344(17) -0.0593(11)
H7 H 0.2724 0.3418 0.0213
C10 C 0.2741(14) 0.3286(2) -0.2082(13)
H8 H 0.1816 0.3173 -0.2277
C11 C 0.3552(16) 0.3305(3) -0.3221(14)
H9 H 0.3175 0.3208 -0.4212
C12 C 0.4905(17) 0.3463(3) -0.2959(14)
H10 H 0.5469 0.3470 -0.3757
C13 C 0.5470(13) 0.3616(2) -0.1516(12)
H11 H 0.6409 0.3724 -0.1350
C14 C 0.2201(11) 0.41279(18) -0.1294(10)
H12 H 0.0998 0.4143 -0.1814
H13 H 0.2619 0.4000 -0.1939
C15 C 0.2999(10) 0.43964(16) -0.1375(10)
C16 C 0.2738(13) 0.4612(2) -0.0459(13)
H14 H 0.2138 0.4591 0.0301
C17 C 0.3381(15) 0.4862(2) -0.0679(15)
H15 H 0.3202 0.5008 -0.0065
C18 C 0.4255(15) 0.4894(2) -0.1768(16)
H16 H 0.4658 0.5062 -0.1917
C19 C 0.4560(14) 0.4681(2) -0.2663(13)
H17 H 0.5177 0.4704 -0.3406
C20 C 0.3950(12) 0.4434(2) -0.2458(10)
H18 H 0.4174 0.4289 -0.3051
C21 C 0.0076(10) 0.42082(17) 0.1647(10)
C22 C 0.0907(12) 0.4334(2) 0.3163(12)
H19 H 0.1959 0.4275 0.3813
C23 C 0.0154(14) 0.4545(2) 0.3681(13)
H20 H 0.0709 0.4630 0.4686
C24 C -0.1426(13) 0.4636(2) 0.2734(13)
C25 C -0.2230(12) 0.45103(18) 0.1242(11)
H21 H -0.3289 0.4567 0.0596
C26 C -0.1445(9) 0.42937(17) 0.0691(11)
H22 H -0.1978 0.4211 -0.0327
C27 C -0.2281(19) 0.4863(3) 0.3327(16)
H23 H -0.2890 0.4795 0.4041
H24 H -0.3044 0.4951 0.2375
H25 H -0.1453 0.4989 0.3942
C28 C 0.5578(15) 0.2844(3) 0.142(2)
H26 H 0.4955 0.2892 0.2165
H27 H 0.5571 0.2653 0.1296
H28 H 0.5070 0.2925 0.0341
C29 C 0.862(2) 0.2844(3) 0.4501(16)
H29 H 0.9650 0.2935 0.5045
H30 H 0.8813 0.2655 0.4510
H31 H 0.7818 0.2881 0.5086
C30 C 0.9140(14) 0.28537(18) 0.0999(14)
C31 C 0.839(2) 0.2962(3) -0.0784(15)
H32 H 0.7224 0.2917 -0.1196
H33 H 0.8969 0.2884 -0.1501
H34 H 0.8522 0.3153 -0.0775
C32 C 1.0908(17) 0.2949(3) 0.182(2)
H35 H 1.0932 0.3140 0.1826
H36 H 1.1623 0.2882 0.1207
H37 H 1.1298 0.2884 0.2954
C33 C 0.9132(19) 0.2542(2) 0.090(2)
H38 H 0.9420 0.2469 0.2017
H39 H 0.9938 0.2484 0.0372
H40 H 0.8035 0.2481 0.0264
S2 S 0.6514(3) 0.61107(4) 1.1158(2)
Si2 Si 0.5509(3) 0.70766(5) 0.4416(3)
O6 O 0.2250(9) 0.58100(16) 0.5774(9)
O7 O 0.4801(7) 0.58923(11) 0.7470(7)
O8 O 0.5563(8) 0.67478(11) 0.4380(8)
O9 O 0.7956(8) 0.61950(14) 1.2497(7)
O10 O 0.5157(8) 0.62901(11) 1.0436(8)
N3 N 0.3803(8) 0.61241(14) 0.4982(8)
N4 N 0.7177(8) 0.60085(14) 0.9624(7)
C34 C 0.3528(11) 0.59394(18) 0.6000(10)
C35 C 0.6173(9) 0.60668(15) 0.7963(9)
C36 C 0.6487(9) 0.62557(15) 0.6989(9)
C37 C 0.5285(9) 0.62917(15) 0.5260(9)
H41 H 0.5854 0.6245 0.4435
C38 C 0.4481(9) 0.65699(16) 0.4835(9)
H42 H 0.4195 0.6641 0.5804
C39 C 0.2883(12) 0.6515(2) 0.3403(13)
H43 H 0.3077 0.6541 0.2330
H44 H 0.1994 0.6635 0.3469
C40 C 0.2396(12) 0.6226(2) 0.3588(12)
H45 H 0.1350 0.6216 0.3856
H46 H 0.2281 0.6125 0.2567
C41 C 0.8014(9) 0.64278(15) 0.7528(9)
C42 C 0.9191(11) 0.6410(2) 0.6696(11)
H47 H 0.8981 0.6305 0.5741
C43 C 1.0691(13) 0.6550(3) 0.7272(16)
H48 H 1.1509 0.6531 0.6739
C44 C 1.0966(14) 0.6719(2) 0.8655(14)
H49 H 1.1953 0.6818 0.9023
C45 C 0.9810(14) 0.6740(2) 0.9449(13)
H50 H 1.0003 0.6853 1.0370
C46 C 0.8306(11) 0.65931(18) 0.8915(10)
H51 H 0.7517 0.6607 0.9487
C47 C 0.8869(10) 0.58992(18) 0.9929(11)
H52 H 0.9382 0.5879 1.1130
H53 H 0.9533 0.6028 0.9542
C48 C 0.8957(9) 0.56350(17) 0.9101(10)
C49 C 0.8312(13) 0.5404(2) 0.9632(15)
H54 H 0.7763 0.5414 1.0442
C50 C 0.8501(16) 0.5164(2) 0.8946(19)
H55 H 0.8051 0.5012 0.9276
C51 C 0.9327(16) 0.5142(3) 0.7795(16)
H56 H 0.9472 0.4975 0.7376
C52 C 0.9959(15) 0.5368(3) 0.7237(13)
H57 H 1.0501 0.5356 0.6423
C53 C 0.9754(11) 0.56135(19) 0.7939(11)
H58 H 1.0181 0.5767 0.7592
C54 C 0.5683(10) 0.58288(16) 1.1888(9)
C55 C 0.6541(12) 0.57130(17) 1.3412(10)
H59 H 0.7614 0.5771 1.4007
C56 C 0.5787(14) 0.55109(19) 1.4036(12)
H60 H 0.6359 0.5435 1.5068
C57 C 0.4211(13) 0.5417(2) 1.3175(11)
C58 C 0.3364(12) 0.5530(2) 1.1617(12)
H61 H 0.2316 0.5466 1.0989
C59 C 0.4104(11) 0.57376(19) 1.1026(11)
H62 H 0.3519 0.5818 1.0015
C60 C 0.338(2) 0.5198(3) 1.3904(18)
H63 H 0.4205 0.5066 1.4439
H64 H 0.2507 0.5115 1.3019
H65 H 0.2912 0.5273 1.4714
C61 C 0.639(2) 0.7193(3) 0.6580(14)
H66 H 0.5755 0.7119 0.7255
H67 H 0.6333 0.7385 0.6606
H68 H 0.7537 0.7137 0.7015
C62 C 0.3282(17) 0.7192(3) 0.354(2)
H69 H 0.2825 0.7131 0.2406
H70 H 0.3247 0.7384 0.3561
H71 H 0.2631 0.7121 0.4208
C63 C 0.6779(14) 0.71802(19) 0.3081(13)
C64 C 0.5932(19) 0.7086(3) 0.1265(14)
H72 H 0.5827 0.6895 0.1245
H73 H 0.6602 0.7139 0.0573
H74 H 0.4837 0.7165 0.0845
C65 C 0.692(2) 0.7489(2) 0.306(2)
H75 H 0.5894 0.7563 0.2353
H76 H 0.7830 0.7538 0.2645
H77 H 0.7141 0.7556 0.4184
C66 C 0.8541(16) 0.7059(3) 0.369(2)
H78 H 0.9125 0.7127 0.4784
H79 H 0.9145 0.7107 0.2921
H80 H 0.8458 0.6868 0.3734
loop_
_geom_bond_atom_site_label_1
_geom_bond_atom_site_label_2
_geom_bond_site_symmetry_1
_geom_bond_site_symmetry_2
S1 O4 1_555 1_555
Si1 O3 1_555 1_555
O1 C1 1_555 1_555
O2 C1 1_555 1_555
O3 C5 1_555 1_555
O5 S1 1_555 1_555
N1 C1 1_555 1_555
N2 S1 1_555 1_555
C2 O2 1_555 1_555
C3 C2 1_555 1_555
C4 N1 1_555 1_555
H1 C4 1_555 1_555
C5 C4 1_555 1_555
H2 C5 1_555 1_555
C6 C5 1_555 1_555
H3 C6 1_555 1_555
H4 C6 1_555 1_555
C7 N1 1_555 1_555
H5 C7 1_555 1_555
H6 C7 1_555 1_555
C8 C3 1_555 1_555
C9 C8 1_555 1_555
H7 C9 1_555 1_555
C10 C9 1_555 1_555
H8 C10 1_555 1_555
C11 C10 1_555 1_555
H9 C11 1_555 1_555
C12 C11 1_555 1_555
H10 C12 1_555 1_555
C13 C8 1_555 1_555
H11 C13 1_555 1_555
C14 N2 1_555 1_555
H12 C14 1_555 1_555
H13 C14 1_555 1_555
C15 C14 1_555 1_555
C16 C15 1_555 1_555
H14 C16 1_555 1_555
C17 C16 1_555 1_555
H15 C17 1_555 1_555
C18 C17 1_555 1_555
H16 C18 1_555 1_555
C19 C18 1_555 1_555
H17 C19 1_555 1_555
C20 C15 1_555 1_555
H18 C20 1_555 1_555
C21 S1 1_555 1_555
C22 C21 1_555 1_555
H19 C22 1_555 1_555
C23 C22 1_555 1_555
H20 C23 1_555 1_555
C24 C23 1_555 1_555
C25 C24 1_555 1_555
H21 C25 1_555 1_555
C26 C21 1_555 1_555
H22 C26 1_555 1_555
C27 C24 1_555 1_555
H23 C27 1_555 1_555
H24 C27 1_555 1_555
H25 C27 1_555 1_555
C28 Si1 1_555 1_555
H26 C28 1_555 1_555
H27 C28 1_555 1_555
H28 C28 1_555 1_555
C29 Si1 1_555 1_555
H29 C29 1_555 1_555
H30 C29 1_555 1_555
H31 C29 1_555 1_555
C30 Si1 1_555 1_555
C31 C30 1_555 1_555
H32 C31 1_555 1_555
H33 C31 1_555 1_555
H34 C31 1_555 1_555
C32 C30 1_555 1_555
H35 C32 1_555 1_555
H36 C32 1_555 1_555
H37 C32 1_555 1_555
C33 C30 1_555 1_555
H38 C33 1_555 1_555
H39 C33 1_555 1_555
H40 C33 1_555 1_555
S2 O9 1_555 1_555
Si2 O8 1_555 1_555
O6 C34 1_555 1_555
O7 C34 1_555 1_555
O8 C38 1_555 1_555
O10 S2 1_555 1_555
N3 C34 1_555 1_555
N4 S2 1_555 1_555
C35 O7 1_555 1_555
C36 C35 1_555 1_555
C37 N3 1_555 1_555
H41 C37 1_555 1_555
C38 C37 1_555 1_555
H42 C38 1_555 1_555
C39 C38 1_555 1_555
H43 C39 1_555 1_555
H44 C39 1_555 1_555
C40 N3 1_555 1_555
H45 C40 1_555 1_555
H46 C40 1_555 1_555
C41 C36 1_555 1_555
C42 C41 1_555 1_555
H47 C42 1_555 1_555
C43 C42 1_555 1_555
H48 C43 1_555 1_555
C44 C43 1_555 1_555
H49 C44 1_555 1_555
C45 C44 1_555 1_555
H50 C45 1_555 1_555
C46 C41 1_555 1_555
H51 C46 1_555 1_555
C47 N4 1_555 1_555
H52 C47 1_555 1_555
H53 C47 1_555 1_555
C48 C47 1_555 1_555
C49 C48 1_555 1_555
H54 C49 1_555 1_555
C50 C49 1_555 1_555
H55 C50 1_555 1_555
C51 C50 1_555 1_555
H56 C51 1_555 1_555
C52 C51 1_555 1_555
H57 C52 1_555 1_555
C53 C48 1_555 1_555
H58 C53 1_555 1_555
C54 S2 1_555 1_555
C55 C54 1_555 1_555
H59 C55 1_555 1_555
C56 C55 1_555 1_555
H60 C56 1_555 1_555
C57 C56 1_555 1_555
C58 C57 1_555 1_555
H61 C58 1_555 1_555
C59 C54 1_555 1_555
H62 C59 1_555 1_555
C60 C57 1_555 1_555
H63 C60 1_555 1_555
H64 C60 1_555 1_555
H65 C60 1_555 1_555
C61 Si2 1_555 1_555
H66 C61 1_555 1_555
H67 C61 1_555 1_555
H68 C61 1_555 1_555
C62 Si2 1_555 1_555
H69 C62 1_555 1_555
H70 C62 1_555 1_555
H71 C62 1_555 1_555
C63 Si2 1_555 1_555
C64 C63 1_555 1_555
H72 C64 1_555 1_555
H73 C64 1_555 1_555
H74 C64 1_555 1_555
C65 C63 1_555 1_555
H75 C65 1_555 1_555
H76 C65 1_555 1_555
H77 C65 1_555 1_555
C66 C63 1_555 1_555
H78 C66 1_555 1_555
H79 C66 1_555 1_555
H80 C66 1_555 1_555
N2 C2 1_555 1_555
C3 C4 1_555 1_555
C6 C7 1_555 1_555
C12 C13 1_555 1_555
C19 C20 1_555 1_555
C25 C26 1_555 1_555
N4 C35 1_555 1_555
C36 C37 1_555 1_555
C39 C40 1_555 1_555
C45 C46 1_555 1_555
C52 C53 1_555 1_555
C58 C59 1_555 1_555

#END
