
#######################################################################
#
#                 Cambridge Crystallographic Data Centre
#                                CCDC 
#
#######################################################################
#
# If this CIF has been generated from an entry in the Cambridge 
# Structural Database, then it will include bibliographic, chemical, 
# crystal, experimental, refinement or atomic coordinate data resulting 
# from the CCDC's data processing and validation procedures.
#
#######################################################################

data_KISQEJ
_chemical_formula_moiety         'C54 H64 F6 S4'
_chemical_name_systematic        
5,5'''-bis(p-trifluoromethylphenyl)-3,3'''-didodecyl-2,2':5',2'':5'',2'''-quaterthiophene
_symmetry_cell_setting           monoclinic
_symmetry_space_group_name_H-M   'P 21/c'
_symmetry_Int_Tables_number      14
_space_group_name_Hall           '-P 2ybc'
loop_
_symmetry_equiv_pos_site_id
_symmetry_equiv_pos_as_xyz
1 x,y,z
2 -x,1/2+y,1/2-z
3 -x,-y,-z
4 x,1/2-y,1/2+z
_cell_length_a                   19.189(3)
_cell_length_b                   5.5056(9)
_cell_length_c                   26.365(4)
_cell_angle_alpha                90
_cell_angle_beta                 110.876(4)
_cell_angle_gamma                90
_cell_volume                     2602.53
_exptl_crystal_colour            orange
_exptl_crystal_description       needle
_cell_formula_units_Z            2
_exptl_crystal_recrystallization_method hexane
loop_
_atom_site_label
_atom_site_type_symbol
_atom_site_fract_x
_atom_site_fract_y
_atom_site_fract_z
S1 S 0.4369(3) 0.3092(6) 0.04237(16)
C1 C 0.4921(9) 0.512(3) 0.0232(5)
F1 F 0.2725(8) 0.451(2) 0.4256(5)
S2 S 0.4316(3) 0.5386(6) 0.19964(17)
C2 C 0.5171(10) 0.683(3) 0.0610(7)
H1 H 0.5480 0.8076 0.0579
F2 F 0.3437(7) 0.695(3) 0.4448(5)
C3 C 0.4944(10) 0.665(3) 0.1056(7)
H2 H 0.5076 0.7745 0.1345
F3 F 0.2477(13) 0.787(3) 0.3941(6)
C4 C 0.4508(12) 0.468(4) 0.1013(6)
C5 C 0.4138(12) 0.395(3) 0.1360(8)
C6 C 0.3603(13) 0.216(4) 0.1314(9)
C7 C 0.3347(10) 0.195(2) 0.1735(10)
H3 H 0.3000 0.0796 0.1750
C8 C 0.3679(12) 0.370(4) 0.2148(8)
C9 C 0.3562(11) 0.438(5) 0.2647(12)
C10 C 0.3827(9) 0.647(3) 0.2985(8)
H4 H 0.4126 0.7595 0.2896
C11 C 0.3643(14) 0.684(4) 0.3443(9)
H5 H 0.3870 0.8104 0.3677
C12 C 0.3139(13) 0.540(5) 0.3563(9)
C13 C 0.2862(9) 0.330(3) 0.3259(10)
H6 H 0.2545 0.2217 0.3341
C14 C 0.3107(13) 0.295(3) 0.2817(9)
H7 H 0.2933 0.1545 0.2614
C15 C 0.282(2) 0.614(4) 0.3966(9)
C16 C 0.3229(8) 0.034(2) 0.0840(5)
H8 H 0.3035 0.1289 0.0509
H9 H 0.3623 -0.0676 0.0805
C17 C 0.2605(9) -0.134(2) 0.0853(5)
H10 H 0.2784 -0.2398 0.1168
H11 H 0.2191 -0.0396 0.0877
C18 C 0.2354(9) -0.283(2) 0.0342(5)
H12 H 0.2200 -0.1750 0.0031
H13 H 0.2771 -0.3789 0.0328
C19 C 0.1732(8) -0.446(2) 0.0309(5)
H14 H 0.1315 -0.3509 0.0324
H15 H 0.1886 -0.5551 0.0619
C20 C 0.1479(8) -0.597(2) -0.0216(5)
H16 H 0.1348 -0.4864 -0.0522
H17 H 0.1898 -0.6937 -0.0223
C21 C 0.0822(8) -0.766(2) -0.0295(5)
H18 H 0.0394 -0.6705 -0.0303
H19 H 0.0944 -0.8756 0.0013
C22 C 0.0607(7) -0.920(2) -0.0828(5)
H20 H 0.0490 -0.8092 -0.1133
H21 H 0.1039 -1.0139 -0.0818
C23 C -0.0062(8) -1.096(2) -0.0932(6)
H22 H 0.0046 -1.2080 -0.0629
H23 H -0.0503 -1.0041 -0.0955
C24 C -0.0219(8) -1.240(2) -0.1453(5)
H24 H 0.0224 -1.3320 -0.1427
H25 H -0.0317 -1.1271 -0.1753
C25 C -0.0878(9) -1.416(3) -0.1581(7)
H26 H -0.0792 -1.5270 -0.1280
H27 H -0.1329 -1.3247 -0.1625
C26 C -0.0983(10) -1.560(3) -0.2097(7)
H28 H -0.0524 -1.6427 -0.2064
H29 H -0.1107 -1.4499 -0.2405
C27 C -0.1618(10) -1.747(3) -0.2190(8)
H30 H -0.1684 -1.8375 -0.2516
H31 H -0.2073 -1.6638 -0.2227
H32 H -0.1491 -1.8561 -0.1887
S1B S 0.5631(3) 0.6908(6) -0.04237(16)
C1B C 0.5079(9) 0.488(3) -0.0232(5)
F1B F 0.7275(8) 0.549(2) -0.4256(5)
S2B S 0.5684(3) 0.4614(6) -0.19964(17)
C2B C 0.4829(10) 0.317(3) -0.0610(7)
H1B H 0.4520 0.1924 -0.0579
F2B F 0.6563(7) 0.305(3) -0.4448(5)
C3B C 0.5056(10) 0.335(3) -0.1056(7)
H2B H 0.4924 0.2255 -0.1345
F3B F 0.7523(13) 0.213(3) -0.3941(6)
C4B C 0.5492(12) 0.532(4) -0.1013(6)
C5B C 0.5862(12) 0.605(3) -0.1360(8)
C6B C 0.6397(13) 0.784(4) -0.1314(9)
C7B C 0.6653(10) 0.805(2) -0.1735(10)
H3B H 0.7000 0.9204 -0.1750
C8B C 0.6321(12) 0.630(4) -0.2148(8)
C9B C 0.6438(11) 0.562(5) -0.2647(12)
C10B C 0.6173(9) 0.353(3) -0.2985(8)
H4B H 0.5874 0.2405 -0.2896
C11B C 0.6357(14) 0.316(4) -0.3443(9)
H5B H 0.6130 0.1896 -0.3677
C12B C 0.6861(13) 0.460(5) -0.3563(9)
C13B C 0.7138(9) 0.670(3) -0.3259(10)
H6B H 0.7455 0.7783 -0.3341
C14B C 0.6893(13) 0.705(3) -0.2817(9)
H7B H 0.7067 0.8455 -0.2614
C15B C 0.718(2) 0.386(4) -0.3966(9)
C16B C 0.6771(8) 0.966(2) -0.0840(5)
H8B H 0.6965 0.8711 -0.0509
H9B H 0.6377 1.0676 -0.0805
C17B C 0.7395(9) 1.134(2) -0.0853(5)
H10B H 0.7216 1.2398 -0.1168
H11B H 0.7809 1.0396 -0.0877
C18B C 0.7646(9) 1.283(2) -0.0342(5)
H12B H 0.7800 1.1750 -0.0031
H13B H 0.7229 1.3789 -0.0328
C19B C 0.8268(8) 1.446(2) -0.0309(5)
H14B H 0.8685 1.3509 -0.0324
H15B H 0.8114 1.5551 -0.0619
C20B C 0.8521(8) 1.597(2) 0.0216(5)
H16B H 0.8652 1.4864 0.0522
H17B H 0.8102 1.6937 0.0223
C21B C 0.9178(8) 1.766(2) 0.0295(5)
H18B H 0.9606 1.6705 0.0303
H19B H 0.9056 1.8756 -0.0013
C22B C 0.9393(7) 1.920(2) 0.0828(5)
H20B H 0.9510 1.8092 0.1133
H21B H 0.8961 2.0139 0.0818
C23B C 1.0062(8) 2.096(2) 0.0932(6)
H22B H 0.9954 2.2080 0.0629
H23B H 1.0503 2.0041 0.0955
C24B C 1.0219(8) 2.240(2) 0.1453(5)
H24B H 0.9776 2.3320 0.1427
H25B H 1.0317 2.1271 0.1753
C25B C 1.0878(9) 2.416(3) 0.1581(7)
H26B H 1.0792 2.5270 0.1280
H27B H 1.1329 2.3247 0.1625
C26B C 1.0983(10) 2.560(3) 0.2097(7)
H28B H 1.0524 2.6427 0.2064
H29B H 1.1107 2.4499 0.2405
C27B C 1.1618(10) 2.747(3) 0.2190(8)
H30B H 1.1684 2.8375 0.2516
H31B H 1.2073 2.6638 0.2227
H32B H 1.1491 2.8561 0.1887
loop_
_geom_bond_atom_site_label_1
_geom_bond_atom_site_label_2
_geom_bond_site_symmetry_1
_geom_bond_site_symmetry_2
S1 C1 1_555 1_555
C1 C2 1_555 1_555
F1 C15 1_555 1_555
S2 C5 1_555 1_555
C2 H1 1_555 1_555
F2 C15 1_555 1_555
C3 C2 1_555 1_555
H2 C3 1_555 1_555
F3 C15 1_555 1_555
C4 S1 1_555 1_555
C5 C4 1_555 1_555
C6 C5 1_555 1_555
C7 C6 1_555 1_555
H3 C7 1_555 1_555
C8 S2 1_555 1_555
C9 C8 1_555 1_555
C10 C9 1_555 1_555
H4 C10 1_555 1_555
C11 C10 1_555 1_555
H5 C11 1_555 1_555
C12 C11 1_555 1_555
C13 C12 1_555 1_555
H6 C13 1_555 1_555
C14 C9 1_555 1_555
H7 C14 1_555 1_555
C15 C12 1_555 1_555
C16 C6 1_555 1_555
H8 C16 1_555 1_555
H9 C16 1_555 1_555
C17 C16 1_555 1_555
H10 C17 1_555 1_555
H11 C17 1_555 1_555
C18 C17 1_555 1_555
H12 C18 1_555 1_555
H13 C18 1_555 1_555
C19 C18 1_555 1_555
H14 C19 1_555 1_555
H15 C19 1_555 1_555
C20 C19 1_555 1_555
H16 C20 1_555 1_555
H17 C20 1_555 1_555
C21 C20 1_555 1_555
H18 C21 1_555 1_555
H19 C21 1_555 1_555
C22 C21 1_555 1_555
H20 C22 1_555 1_555
H21 C22 1_555 1_555
C23 C22 1_555 1_555
H22 C23 1_555 1_555
H23 C23 1_555 1_555
C24 C23 1_555 1_555
H24 C24 1_555 1_555
H25 C24 1_555 1_555
C25 C24 1_555 1_555
H26 C25 1_555 1_555
H27 C25 1_555 1_555
C26 C25 1_555 1_555
H28 C26 1_555 1_555
H29 C26 1_555 1_555
C27 C26 1_555 1_555
H30 C27 1_555 1_555
H31 C27 1_555 1_555
H32 C27 1_555 1_555
S1B C1B 1_555 1_555
C1B C1 1_555 1_555
F1B C15B 1_555 1_555
S2B C5B 1_555 1_555
C2B C1B 1_555 1_555
H1B C2B 1_555 1_555
F2B C15B 1_555 1_555
C3B C2B 1_555 1_555
H2B C3B 1_555 1_555
F3B C15B 1_555 1_555
C4B S1B 1_555 1_555
C5B C4B 1_555 1_555
C6B C5B 1_555 1_555
C7B C6B 1_555 1_555
H3B C7B 1_555 1_555
C8B S2B 1_555 1_555
C9B C8B 1_555 1_555
C10B C9B 1_555 1_555
H4B C10B 1_555 1_555
C11B C10B 1_555 1_555
H5B C11B 1_555 1_555
C12B C11B 1_555 1_555
C13B C12B 1_555 1_555
H6B C13B 1_555 1_555
C14B C9B 1_555 1_555
H7B C14B 1_555 1_555
C15B C12B 1_555 1_555
C16B C6B 1_555 1_555
H8B C16B 1_555 1_555
H9B C16B 1_555 1_555
C17B C16B 1_555 1_555
H10B C17B 1_555 1_555
H11B C17B 1_555 1_555
C18B C17B 1_555 1_555
H12B C18B 1_555 1_555
H13B C18B 1_555 1_555
C19B C18B 1_555 1_555
H14B C19B 1_555 1_555
H15B C19B 1_555 1_555
C20B C19B 1_555 1_555
H16B C20B 1_555 1_555
H17B C20B 1_555 1_555
C21B C20B 1_555 1_555
H18B C21B 1_555 1_555
H19B C21B 1_555 1_555
C22B C21B 1_555 1_555
H20B C22B 1_555 1_555
H21B C22B 1_555 1_555
C23B C22B 1_555 1_555
H22B C23B 1_555 1_555
H23B C23B 1_555 1_555
C24B C23B 1_555 1_555
H24B C24B 1_555 1_555
H25B C24B 1_555 1_555
C25B C24B 1_555 1_555
H26B C25B 1_555 1_555
H27B C25B 1_555 1_555
C26B C25B 1_555 1_555
H28B C26B 1_555 1_555
H29B C26B 1_555 1_555
C27B C26B 1_555 1_555
H30B C27B 1_555 1_555
H31B C27B 1_555 1_555
H32B C27B 1_555 1_555
C3 C4 1_555 1_555
C7 C8 1_555 1_555
C13 C14 1_555 1_555
C3B C4B 1_555 1_555
C7B C8B 1_555 1_555
C13B C14B 1_555 1_555

#END
