
#######################################################################
#
#                 Cambridge Crystallographic Data Centre
#                                CCDC 
#
#######################################################################
#
# If this CIF has been generated from an entry in the Cambridge 
# Structural Database, then it will include bibliographic, chemical, 
# crystal, experimental, refinement or atomic coordinate data resulting 
# from the CCDC's data processing and validation procedures.
#
#######################################################################

data_KITDUO
_chemical_formula_moiety         'C42 H48 N4 O2'
_chemical_name_systematic        
"4,4'-(10,10,20,20-Tetraethyl-5,15-dimethyl-5,10,15,20,22,24-hexahydroporphyrin-5,15-diyl)diphenol unknown solvate"
_symmetry_cell_setting           monoclinic
_symmetry_space_group_name_H-M   'P 21/c'
_symmetry_Int_Tables_number      14
_space_group_name_Hall           '-P 2ybc'
loop_
_symmetry_equiv_pos_site_id
_symmetry_equiv_pos_as_xyz
1 x,y,z
2 -x,1/2+y,1/2-z
3 -x,-y,-z
4 x,1/2-y,1/2+z
_cell_length_a                   12.764(2)
_cell_length_b                   13.761(3)
_cell_length_c                   15.643(2)
_cell_angle_alpha                90
_cell_angle_beta                 118.494(11)
_cell_angle_gamma                90
_cell_volume                     2414.79
_cell_formula_units_Z            2
loop_
_atom_site_label
_atom_site_type_symbol
_atom_site_fract_x
_atom_site_fract_y
_atom_site_fract_z
O1 O -0.1070(3) 0.5233(2) 0.6159(2)
H1 H -0.1257 0.5792 0.5965
N1 N 0.3648(2) 0.38342(19) 0.99826(18)
H2 H 0.3636 0.4092 0.9477
N2 N 0.3869(2) 0.62998(19) 1.00244(19)
H3 H 0.3831 0.6009 0.9524
C1 C 0.1143(3) 0.6058(3) 0.8583(3)
H4 H 0.1478 0.6639 0.8899
C2 C 0.0307(3) 0.6085(3) 0.7614(3)
H5 H 0.0103 0.6677 0.7287
C3 C -0.0229(3) 0.5244(3) 0.7125(3)
C4 C 0.0083(3) 0.4366(3) 0.7630(3)
H6 H -0.0279 0.3793 0.7311
C5 C 0.0931(3) 0.4343(3) 0.8607(3)
H7 H 0.1122 0.3752 0.8936
C6 C 0.1507(3) 0.5194(2) 0.9109(3)
C7 C 0.2413(3) 0.5168(3) 1.0210(3)
C8 C 0.1694(4) 0.5215(3) 1.0770(4)
H8 H 0.2233 0.5236 1.1457
H9 H 0.1195 0.4651 1.0622
H10 H 0.1207 0.5789 1.0581
C9 C 0.3248(3) 0.6023(3) 1.0510(2)
C10 C 0.3569(4) 0.6651(3) 1.1266(3)
H11 H 0.3304 0.6636 1.1726
C11 C 0.4380(4) 0.7333(3) 1.1227(3)
H12 H 0.4732 0.7847 1.1656
C12 C 0.4555(3) 0.7109(2) 1.0462(2)
C13 C 0.3105(3) 0.4219(3) 1.0483(2)
C14 C 0.3326(4) 0.3585(3) 1.1221(3)
H13 H 0.3053 0.3645 1.1674
C15 C 0.4048(4) 0.2810(3) 1.1178(3)
H14 H 0.4344 0.2291 1.1609
C16 C 0.4224(3) 0.2963(2) 1.0414(2)
C17 C 0.5194(3) 0.7681(3) 1.0013(3)
C18 C 0.6125(5) 0.8354(3) 1.0768(5)
H15 H 0.5728 0.8768 1.1025
H16 H 0.6431 0.8771 1.0437
C19 C 0.7202(4) 0.7867(4) 1.1638(4)
H17 H 0.6919 0.7395 1.1931
H18 H 0.7660 0.8353 1.2109
H19 H 0.7695 0.7552 1.1411
C20 C 0.4291(5) 0.8293(4) 0.9182(5)
H20 H 0.3882 0.7863 0.8628
H21 H 0.4736 0.8753 0.9012
C21 C 0.3337(7) 0.8866(7) 0.9283(8)
H22 H 0.3447 0.8792 0.9931
H23 H 0.2563 0.8626 0.8825
H24 H 0.3397 0.9540 0.9157
O1B O 1.1070(3) 0.4767(2) 1.3841(2)
H1B H 1.1257 0.4208 1.4035
N1B N 0.6352(2) 0.61658(19) 1.00174(18)
H2B H 0.6364 0.5908 1.0523
N2B N 0.6131(2) 0.37002(19) 0.99756(19)
H3B H 0.6169 0.3991 1.0476
C1B C 0.8857(3) 0.3942(3) 1.1417(3)
H4B H 0.8522 0.3361 1.1101
C2B C 0.9693(3) 0.3915(3) 1.2386(3)
H5B H 0.9897 0.3323 1.2713
C3B C 1.0229(3) 0.4756(3) 1.2875(3)
C4B C 0.9917(3) 0.5634(3) 1.2370(3)
H6B H 1.0279 0.6207 1.2689
C5B C 0.9069(3) 0.5657(3) 1.1393(3)
H7B H 0.8878 0.6248 1.1064
C6B C 0.8493(3) 0.4806(2) 1.0891(3)
C7B C 0.7587(3) 0.4832(3) 0.9790(3)
C8B C 0.8306(4) 0.4785(3) 0.9230(4)
H8B H 0.7767 0.4764 0.8543
H9B H 0.8805 0.5349 0.9378
H10B H 0.8793 0.4211 0.9419
C9B C 0.6752(3) 0.3977(3) 0.9490(2)
C10B C 0.6431(4) 0.3349(3) 0.8734(3)
H11B H 0.6696 0.3364 0.8274
C11B C 0.5620(4) 0.2667(3) 0.8773(3)
H12B H 0.5268 0.2153 0.8344
C12B C 0.5445(3) 0.2891(2) 0.9538(2)
C13B C 0.6895(3) 0.5781(3) 0.9517(2)
C14B C 0.6674(4) 0.6415(3) 0.8779(3)
H13B H 0.6947 0.6355 0.8326
C15B C 0.5952(4) 0.7190(3) 0.8822(3)
H14B H 0.5656 0.7709 0.8391
C16B C 0.5776(3) 0.7037(2) 0.9586(2)
C17B C 0.4806(3) 0.2319(3) 0.9987(3)
C18B C 0.3875(5) 0.1646(3) 0.9232(5)
H15B H 0.4272 0.1232 0.8975
H16B H 0.3569 0.1229 0.9563
C19B C 0.2798(4) 0.2133(4) 0.8362(4)
H17B H 0.3081 0.2605 0.8069
H18B H 0.2340 0.1647 0.7891
H19B H 0.2305 0.2448 0.8589
C20B C 0.5709(5) 0.1707(4) 1.0818(5)
H20B H 0.6118 0.2137 1.1372
H21B H 0.5264 0.1247 1.0988
C21B C 0.6663(7) 0.1134(7) 1.0717(8)
H22B H 0.6553 0.1208 1.0069
H23B H 0.7437 0.1374 1.1175
H24B H 0.6603 0.0460 1.0843
loop_
_geom_bond_atom_site_label_1
_geom_bond_atom_site_label_2
_geom_bond_site_symmetry_1
_geom_bond_site_symmetry_2
O1 H1 1_555 1_555
N1 H2 1_555 1_555
N2 H3 1_555 1_555
C1 H4 1_555 1_555
C2 C1 1_555 1_555
H5 C2 1_555 1_555
C3 O1 1_555 1_555
C4 C3 1_555 1_555
H6 C4 1_555 1_555
C5 C4 1_555 1_555
H7 C5 1_555 1_555
C6 C1 1_555 1_555
C7 C6 1_555 1_555
C8 C7 1_555 1_555
H8 C8 1_555 1_555
H9 C8 1_555 1_555
H10 C8 1_555 1_555
C9 N2 1_555 1_555
C10 C9 1_555 1_555
H11 C10 1_555 1_555
C11 C10 1_555 1_555
H12 C11 1_555 1_555
C12 N2 1_555 1_555
C13 N1 1_555 1_555
C14 C13 1_555 1_555
H13 C14 1_555 1_555
C15 C14 1_555 1_555
H14 C15 1_555 1_555
C16 N1 1_555 1_555
C17 C12 1_555 1_555
C18 C17 1_555 1_555
H15 C18 1_555 1_555
H16 C18 1_555 1_555
C19 C18 1_555 1_555
H17 C19 1_555 1_555
H18 C19 1_555 1_555
H19 C19 1_555 1_555
C20 C17 1_555 1_555
H20 C20 1_555 1_555
H21 C20 1_555 1_555
C21 C20 1_555 1_555
H22 C21 1_555 1_555
H23 C21 1_555 1_555
H24 C21 1_555 1_555
O1B H1B 1_555 1_555
N1B H2B 1_555 1_555
N2B H3B 1_555 1_555
C1B H4B 1_555 1_555
C2B C1B 1_555 1_555
H5B C2B 1_555 1_555
C3B O1B 1_555 1_555
C4B C3B 1_555 1_555
H6B C4B 1_555 1_555
C5B C4B 1_555 1_555
H7B C5B 1_555 1_555
C6B C1B 1_555 1_555
C7B C6B 1_555 1_555
C8B C7B 1_555 1_555
H8B C8B 1_555 1_555
H9B C8B 1_555 1_555
H10B C8B 1_555 1_555
C9B N2B 1_555 1_555
C10B C9B 1_555 1_555
H11B C10B 1_555 1_555
C11B C10B 1_555 1_555
H12B C11B 1_555 1_555
C12B N2B 1_555 1_555
C13B N1B 1_555 1_555
C14B C13B 1_555 1_555
H13B C14B 1_555 1_555
C15B C14B 1_555 1_555
H14B C15B 1_555 1_555
C16B C17 1_555 1_555
C17B C16 1_555 1_555
C18B C17B 1_555 1_555
H15B C18B 1_555 1_555
H16B C18B 1_555 1_555
C19B C18B 1_555 1_555
H17B C19B 1_555 1_555
H18B C19B 1_555 1_555
H19B C19B 1_555 1_555
C20B C17B 1_555 1_555
H20B C20B 1_555 1_555
H21B C20B 1_555 1_555
C21B C20B 1_555 1_555
H22B C21B 1_555 1_555
H23B C21B 1_555 1_555
H24B C21B 1_555 1_555
C2 C3 1_555 1_555
C5 C6 1_555 1_555
C7 C9 1_555 1_555
C7 C13 1_555 1_555
C11 C12 1_555 1_555
C15 C16 1_555 1_555
N1B C16B 1_555 1_555
C2B C3B 1_555 1_555
C5B C6B 1_555 1_555
C7B C9B 1_555 1_555
C7B C13B 1_555 1_555
C11B C12B 1_555 1_555
C12B C17B 1_555 1_555
C15B C16B 1_555 1_555

#END
