
#######################################################################
#
#                 Cambridge Crystallographic Data Centre
#                                CCDC 
#
#######################################################################
#
# If this CIF has been generated from an entry in the Cambridge 
# Structural Database, then it will include bibliographic, chemical, 
# crystal, experimental, refinement or atomic coordinate data resulting 
# from the CCDC's data processing and validation procedures.
#
#######################################################################

data_KITFOK01
_chemical_formula_moiety         'C50 H56 N4 O6,2(C2 H6 O1)'
_chemical_name_systematic        
"Dimethyl 2,2'-((7',17'-dimethyl-21',22',23',24'-tetraazadispiro[cyclohexane-1,2'-pentacyclo[16.2.1.1^3,6^.1^8,11^.1^13,16^]tetracosane-12',1''-cyclohexane]-1'(20'),3',5',8',10',13',15',18'-octaene-7',17'-diyl)bis(4,1-phenyleneoxy))diacetate ethanol solvate"
_symmetry_cell_setting           triclinic
_symmetry_space_group_name_H-M   'P -1'
_symmetry_Int_Tables_number      2
_space_group_name_Hall           '-P 1'
loop_
_symmetry_equiv_pos_site_id
_symmetry_equiv_pos_as_xyz
1 x,y,z
2 -x,-y,-z
_cell_length_a                   10.595(3)
_cell_length_b                   11.475(3)
_cell_length_c                   11.867(4)
_cell_angle_alpha                65.948(8)
_cell_angle_beta                 70.493(8)
_cell_angle_gamma                84.305(9)
_cell_volume                     1240.73
_cell_formula_units_Z            1
loop_
_atom_site_label
_atom_site_type_symbol
_atom_site_fract_x
_atom_site_fract_y
_atom_site_fract_z
C1 C 0.2294(3) 0.4430(3) 1.2281(3)
C2 C 0.1014(3) 0.4530(4) 1.2275(4)
H1 H 0.0322 0.4867 1.2763
C3 C 0.0913(3) 0.4038(4) 1.1410(4)
H2 H 0.0140 0.3998 1.1220
C4 C 0.2123(3) 0.3628(3) 1.0892(3)
C5 C 0.2551(3) 0.2987(3) 0.9948(3)
C6 C 0.1904(3) 0.3642(3) 0.8871(3)
H3 H 0.0952 0.3700 0.9273
H4 H 0.2288 0.4504 0.8347
C7 C 0.2097(4) 0.2942(5) 0.7986(4)
H5 H 0.1662 0.3393 0.7336
H6 H 0.3046 0.2930 0.7536
C8 C 0.1517(5) 0.1585(6) 0.8758(6)
H7 H 0.0553 0.1598 0.9139
H8 H 0.1691 0.1147 0.8177
C9 C 0.2115(5) 0.0874(4) 0.9816(5)
H9 H 0.3052 0.0746 0.9428
H10 H 0.1660 0.0041 1.0347
C10 C 0.2003(4) 0.1586(3) 1.0678(4)
H11 H 0.2480 0.1128 1.1290
H12 H 0.1066 0.1575 1.1180
C11 C 0.4051(3) 0.3055(3) 0.9350(3)
C12 C 0.4992(3) 0.2151(3) 0.9363(3)
H13 H 0.4839 0.1277 0.9855
C13 C 0.6237(3) 0.2771(3) 0.8502(3)
H14 H 0.7047 0.2378 0.8322
C14 C 0.6048(3) 0.4045(3) 0.7981(3)
C15 C 0.7029(3) 0.5146(3) 0.7006(3)
C16 C 0.8102(3) 0.4678(3) 0.6058(3)
H15 H 0.8726 0.5371 0.5422
H16 H 0.7681 0.4368 0.5625
H17 H 0.8570 0.4000 0.6534
C17 C 0.6367(3) 0.6260(3) 0.6177(3)
C18 C 0.6779(3) 0.7510(3) 0.5760(3)
H18 H 0.7426 0.7685 0.6048
C19 C 0.6264(3) 0.8507(3) 0.4933(3)
H19 H 0.6572 0.9341 0.4659
C20 C 0.5297(3) 0.8271(3) 0.4514(3)
C21 C 0.4855(3) 0.7044(3) 0.4909(3)
H20 H 0.4196 0.6878 0.4630
C22 C 0.5399(3) 0.6049(3) 0.5729(3)
H21 H 0.5105 0.5214 0.5985
C23 C 0.3917(4) 0.9177(4) 0.3165(3)
H22 H 0.4161 0.8454 0.2921
H23 H 0.3966 0.9930 0.2378
C24 C 0.2505(4) 0.8958(3) 0.4068(4)
C25 C 0.0295(5) 0.8581(6) 0.4210(6)
H24 H 0.0119 0.7846 0.5020
H25 H -0.0169 0.8467 0.3689
H26 H -0.0010 0.9328 0.4379
N1 N 0.2968(2) 0.3884(2) 1.1426(2)
H27 H 0.3805 0.3726 1.1249
N2 N 0.4720(2) 0.4200(2) 0.8518(2)
H28 H 0.4350 0.4926 0.8352
O1 O 0.4844(2) 0.9340(2) 0.3699(2)
O2 O 0.2141(3) 0.9009(4) 0.5102(3)
O3 O 0.1711(3) 0.8733(3) 0.3521(3)
C1A C 0.7706(3) 0.5570(3) 0.7719(3)
C2A C 0.8986(3) 0.5470(4) 0.7725(4)
H1A H 0.9678 0.5133 0.7237
C3A C 0.9087(3) 0.5962(4) 0.8590(4)
H2A H 0.9860 0.6002 0.8780
C4A C 0.7877(3) 0.6372(3) 0.9108(3)
C5A C 0.7449(3) 0.7013(3) 1.0052(3)
C6A C 0.8096(3) 0.6358(3) 1.1129(3)
H3A H 0.9048 0.6300 1.0727
H4A H 0.7712 0.5496 1.1653
C7A C 0.7903(4) 0.7058(5) 1.2014(4)
H5A H 0.8338 0.6607 1.2664
H6A H 0.6954 0.7070 1.2464
C8A C 0.8483(5) 0.8415(6) 1.1242(6)
H7A H 0.9447 0.8402 1.0861
H8A H 0.8309 0.8853 1.1823
C9A C 0.7885(5) 0.9126(4) 1.0184(5)
H9A H 0.6948 0.9254 1.0572
H10A H 0.8340 0.9959 0.9653
C10A C 0.7997(4) 0.8414(3) 0.9322(4)
H11A H 0.7520 0.8872 0.8710
H12A H 0.8934 0.8425 0.8820
C11A C 0.5949(3) 0.6945(3) 1.0650(3)
C12A C 0.5008(3) 0.7849(3) 1.0637(3)
H13A H 0.5161 0.8723 1.0145
C13A C 0.3763(3) 0.7229(3) 1.1498(3)
H14A H 0.2953 0.7622 1.1678
C14A C 0.3952(3) 0.5955(3) 1.2019(3)
C15A C 0.2971(3) 0.4854(3) 1.2994(3)
C16A C 0.1898(3) 0.5322(3) 1.3942(3)
H15A H 0.1274 0.4629 1.4578
H16A H 0.2319 0.5632 1.4375
H17A H 0.1430 0.6000 1.3466
C17A C 0.3633(3) 0.3740(3) 1.3823(3)
C18A C 0.3221(3) 0.2490(3) 1.4240(3)
H18A H 0.2574 0.2315 1.3952
C19A C 0.3736(3) 0.1493(3) 1.5067(3)
H19A H 0.3428 0.0659 1.5341
C20A C 0.4703(3) 0.1729(3) 1.5486(3)
C21A C 0.5145(3) 0.2956(3) 1.5091(3)
H20A H 0.5804 0.3122 1.5370
C22A C 0.4601(3) 0.3951(3) 1.4271(3)
H21A H 0.4895 0.4786 1.4015
C23A C 0.6083(4) 0.0823(4) 1.6835(3)
H22A H 0.5839 0.1546 1.7079
H23A H 0.6034 0.0070 1.7622
C24A C 0.7495(4) 0.1042(3) 1.5932(4)
C25A C 0.9705(5) 0.1419(6) 1.5790(6)
H24A H 0.9881 0.2154 1.4980
H25A H 1.0169 0.1533 1.6311
H26A H 1.0010 0.0672 1.5621
N1A N 0.7032(2) 0.6116(2) 0.8574(2)
H27A H 0.6195 0.6274 0.8751
N2A N 0.5280(2) 0.5800(2) 1.1482(2)
H28A H 0.5650 0.5074 1.1648
O1A O 0.5156(2) 0.0660(2) 1.6301(2)
O2A O 0.7859(3) 0.0991(4) 1.4898(3)
O3A O 0.8289(3) 0.1267(3) 1.6479(3)
C26 C 0.6460(5) 0.2281(5) 0.1802(5)
H29 H 0.6155 0.2168 0.2709
H30 H 0.6017 0.1607 0.1758
C27 C 0.7792(5) 0.2072(6) 0.1475(7)
H31 H 0.8164 0.2334 0.0547
H32 H 0.7925 0.1179 0.1900
H33 H 0.8229 0.2555 0.1746
O4 O 0.5988(3) 0.3431(2) 0.1110(2)
H34 H 0.6340 0.3617 0.0326
loop_
_geom_bond_atom_site_label_1
_geom_bond_atom_site_label_2
_geom_bond_site_symmetry_1
_geom_bond_site_symmetry_2
C1 C2 1_555 1_555
C2 H1 1_555 1_555
C3 C2 1_555 1_555
H2 C3 1_555 1_555
C4 C3 1_555 1_555
C5 C4 1_555 1_555
C6 C5 1_555 1_555
H3 C6 1_555 1_555
H4 C6 1_555 1_555
C7 C6 1_555 1_555
H5 C7 1_555 1_555
H6 C7 1_555 1_555
C8 C7 1_555 1_555
H7 C8 1_555 1_555
H8 C8 1_555 1_555
C9 C8 1_555 1_555
H9 C9 1_555 1_555
H10 C9 1_555 1_555
C10 C5 1_555 1_555
H11 C10 1_555 1_555
H12 C10 1_555 1_555
C11 C5 1_555 1_555
C12 C11 1_555 1_555
H13 C12 1_555 1_555
C13 C12 1_555 1_555
H14 C13 1_555 1_555
C14 C13 1_555 1_555
C15 C14 1_555 1_555
C16 C15 1_555 1_555
H15 C16 1_555 1_555
H16 C16 1_555 1_555
H17 C16 1_555 1_555
C17 C15 1_555 1_555
C18 C17 1_555 1_555
H18 C18 1_555 1_555
C19 C18 1_555 1_555
H19 C19 1_555 1_555
C20 C19 1_555 1_555
C21 C20 1_555 1_555
H20 C21 1_555 1_555
C22 C17 1_555 1_555
H21 C22 1_555 1_555
C23 H22 1_555 1_555
H23 C23 1_555 1_555
C24 C23 1_555 1_555
C25 H24 1_555 1_555
H25 C25 1_555 1_555
H26 C25 1_555 1_555
N1 C1 1_555 1_555
H27 N1 1_555 1_555
N2 C11 1_555 1_555
H28 N2 1_555 1_555
O1 C20 1_555 1_555
O2 C24 1_555 1_555
O3 C24 1_555 1_555
C26 H29 1_555 1_555
H30 C26 1_555 1_555
C27 C26 1_555 1_555
H31 C27 1_555 1_555
H32 C27 1_555 1_555
H33 C27 1_555 1_555
O4 C26 1_555 1_555
H34 O4 1_555 1_555
C1A C15 1_555 1_555
C2A C1A 1_555 1_555
H1A C2A 1_555 1_555
C3A C2A 1_555 1_555
H2A C3A 1_555 1_555
C4A C3A 1_555 1_555
C5A C4A 1_555 1_555
C6A C5A 1_555 1_555
H3A C6A 1_555 1_555
H4A C6A 1_555 1_555
C7A C6A 1_555 1_555
H5A C7A 1_555 1_555
H6A C7A 1_555 1_555
C8A C7A 1_555 1_555
H7A C8A 1_555 1_555
H8A C8A 1_555 1_555
C9A C8A 1_555 1_555
H9A C9A 1_555 1_555
H10A C9A 1_555 1_555
C10A C5A 1_555 1_555
H11A C10A 1_555 1_555
H12A C10A 1_555 1_555
C11A C5A 1_555 1_555
C12A C11A 1_555 1_555
H13A C12A 1_555 1_555
C13A C12A 1_555 1_555
H14A C13A 1_555 1_555
C14A C13A 1_555 1_555
C15A C1 1_555 1_555
C16A C15A 1_555 1_555
H15A C16A 1_555 1_555
H16A C16A 1_555 1_555
H17A C16A 1_555 1_555
C17A C15A 1_555 1_555
C18A C17A 1_555 1_555
H18A C18A 1_555 1_555
C19A C18A 1_555 1_555
H19A C19A 1_555 1_555
C20A C19A 1_555 1_555
C21A C20A 1_555 1_555
H20A C21A 1_555 1_555
C22A C17A 1_555 1_555
H21A C22A 1_555 1_555
C23A H22A 1_555 1_555
H23A C23A 1_555 1_555
C24A C23A 1_555 1_555
C25A H24A 1_555 1_555
H25A C25A 1_555 1_555
H26A C25A 1_555 1_555
N1A C1A 1_555 1_555
H27A N1A 1_555 1_555
N2A C11A 1_555 1_555
H28A N2A 1_555 1_555
O1A C20A 1_555 1_555
O2A C24A 1_555 1_555
O3A C24A 1_555 1_555
C4 N1 1_555 1_555
C9 C10 1_555 1_555
C14 N2 1_555 1_555
C21 C22 1_555 1_555
C23 O1 1_555 1_555
C25 O3 1_555 1_555
C4A N1A 1_555 1_555
C9A C10A 1_555 1_555
C14A C15A 1_555 1_555
C14A N2A 1_555 1_555
C21A C22A 1_555 1_555
C23A O1A 1_555 1_555
C25A O3A 1_555 1_555

#END
