
#######################################################################
#
#                 Cambridge Crystallographic Data Centre
#                                CCDC 
#
#######################################################################
#
# If this CIF has been generated from an entry in the Cambridge 
# Structural Database, then it will include bibliographic, chemical, 
# crystal, experimental, refinement or atomic coordinate data resulting 
# from the CCDC's data processing and validation procedures.
#
#######################################################################

data_KITREL
_chemical_formula_moiety         'C22 H24 O3'
_chemical_name_systematic        
(1S,2R,3S,5S)-2-Benzyloxy-3-benzyloxymethyl-5-ethynylcyclopentanol
_symmetry_cell_setting           monoclinic
_symmetry_space_group_name_H-M   'P 21'
_symmetry_Int_Tables_number      4
_space_group_name_Hall           'P 2yb'
loop_
_symmetry_equiv_pos_site_id
_symmetry_equiv_pos_as_xyz
1 x,y,z
2 -x,1/2+y,-z
_cell_length_a                   12.397(3)
_cell_length_b                   4.9112(12)
_cell_length_c                   15.630(4)
_cell_angle_alpha                90
_cell_angle_beta                 104.474(4)
_cell_angle_gamma                90
_cell_volume                     921.416
_exptl_crystal_colour            colorless
_exptl_crystal_description       acicular
_chemical_melting_point          '66-67 deg.C'
_cell_formula_units_Z            2
loop_
_atom_site_label
_atom_site_type_symbol
_atom_site_fract_x
_atom_site_fract_y
_atom_site_fract_z
O1 O -0.42248(10) -0.3907(3) 0.34990(8)
O2 O -0.40980(11) -0.6054(3) 0.13111(8)
C1 C -0.49578(16) -0.4700(4) 0.16006(13)
H1 H -0.5602 -0.4372 0.1091
H2 H -0.4684 -0.2917 0.1862
C2 C -0.31858(14) -0.3706(5) 0.41553(12)
H3 H -0.3187 -0.5022 0.4635
H4 H -0.3118 -0.1856 0.4415
C3 C -0.53125(15) -0.6434(4) 0.22798(12)
H5 H -0.5438 -0.8327 0.2039
C4 C -0.21909(15) -0.4256(4) 0.37917(13)
C5 C -0.37483(18) -0.4420(5) 0.06780(14)
H6 H -0.3480 -0.2637 0.0943
H7 H -0.4386 -0.4090 0.0164
C6 C -0.28282(17) -0.5829(4) 0.03778(13)
C7 C -0.64073(15) -0.6544(4) 0.33874(11)
H8 H -0.6448 -0.4979 0.3788
O3 O -0.48490(9) -0.7954(3) 0.46424(7)
H9 H -0.4953 -0.6410 0.4839
C8 C -0.26305(18) -0.5069(6) -0.04146(14)
H10 H -0.3078 -0.3694 -0.0758
C9 C -0.1315(2) -0.8951(6) 0.05530(19)
H11 H -0.0859 -1.0318 0.0893
C10 C -0.2156(2) -0.7761(5) 0.08697(16)
H12 H -0.2263 -0.8290 0.1427
C11 C -0.52545(13) -0.7972(4) 0.37170(11)
H13 H -0.5350 -0.9918 0.3524
C12 C -0.17868(19) -0.6278(7) -0.07205(15)
H14 H -0.1669 -0.5751 -0.1275
C13 C -0.11285(19) -0.3405(6) 0.27356(18)
H15 H -0.1043 -0.2456 0.2227
C14 C -0.20468(18) -0.2926(5) 0.30636(15)
H16 H -0.2590 -0.1641 0.2775
C15 C -0.64089(15) -0.5430(4) 0.24635(12)
H17 H -0.7057 -0.6137 0.2013
H18 H -0.6440 -0.3416 0.2458
C16 C -0.03422(19) -0.5252(6) 0.31462(18)
H19 H 0.0283 -0.5621 0.2916
C17 C -0.04586(19) -0.6554(6) 0.38818(18)
H20 H 0.0100 -0.7786 0.4181
C18 C -0.13911(18) -0.6091(5) 0.41992(15)
H21 H -0.1478 -0.7055 0.4705
C19 C -0.45206(15) -0.6602(4) 0.31896(12)
H22 H -0.3849 -0.7724 0.3186
C20 C -0.73279(15) -0.8435(5) 0.33882(13)
C21 C -0.8048(2) -0.9975(6) 0.33739(15)
H23 H -0.8635 -1.1230 0.3362
C22 C -0.1138(2) -0.8186(6) -0.02363(18)
H24 H -0.0556 -0.9001 -0.0444
loop_
_geom_bond_atom_site_label_1
_geom_bond_atom_site_label_2
_geom_bond_site_symmetry_1
_geom_bond_site_symmetry_2
O1 C2 1_555 1_555
O2 C1 1_555 1_555
C1 H1 1_555 1_555
H2 C1 1_555 1_555
C2 H3 1_555 1_555
H4 C2 1_555 1_555
C3 C1 1_555 1_555
H5 C3 1_555 1_555
C4 C2 1_555 1_555
C5 O2 1_555 1_555
H6 C5 1_555 1_555
H7 C5 1_555 1_555
C6 C5 1_555 1_555
C7 H8 1_555 1_555
O3 H9 1_555 1_555
C8 C6 1_555 1_555
H10 C8 1_555 1_555
C9 H11 1_555 1_555
C10 C6 1_555 1_555
H12 C10 1_555 1_555
C11 C7 1_555 1_555
H13 C11 1_555 1_555
C12 C8 1_555 1_555
H14 C12 1_555 1_555
C13 H15 1_555 1_555
C14 C4 1_555 1_555
H16 C14 1_555 1_555
C15 C3 1_555 1_555
H17 C15 1_555 1_555
H18 C15 1_555 1_555
C16 C13 1_555 1_555
H19 C16 1_555 1_555
C17 C16 1_555 1_555
H20 C17 1_555 1_555
C18 C4 1_555 1_555
H21 C18 1_555 1_555
C19 O1 1_555 1_555
H22 C19 1_555 1_555
C20 C7 1_555 1_555
C21 C20 1_555 1_555
H23 C21 1_555 1_555
C22 C9 1_555 1_555
H24 C22 1_555 1_555
C3 C19 1_555 1_555
C7 C15 1_555 1_555
O3 C11 1_555 1_555
C9 C10 1_555 1_555
C11 C19 1_555 1_555
C12 C22 1_555 1_555
C13 C14 1_555 1_555
C17 C18 1_555 1_555

#END
