
#######################################################################
#
#                 Cambridge Crystallographic Data Centre
#                                CCDC 
#
#######################################################################
#
# If this CIF has been generated from an entry in the Cambridge 
# Structural Database, then it will include bibliographic, chemical, 
# crystal, experimental, refinement or atomic coordinate data resulting 
# from the CCDC's data processing and validation procedures.
#
#######################################################################

data_KITYUK
_chemical_formula_moiety         'C26 H20 F3 N1 O2,C2 H3 N1'
_chemical_name_systematic        
'2-(phenylamino)-3-[3,3,3-trifluoro-1-(4-methylphenyl)propyl]naphthalene-1,4-dione acetonitrile solvate'
_symmetry_cell_setting           monoclinic
_symmetry_space_group_name_H-M   'C 2/c'
_symmetry_Int_Tables_number      15
_space_group_name_Hall           '-C 2yn'
loop_
_symmetry_equiv_pos_site_id
_symmetry_equiv_pos_as_xyz
1 x,y,z
2 -x,y,1/2-z
3 1/2+x,1/2+y,z
4 1/2-x,1/2+y,1/2-z
5 -x,-y,-z
6 x,-y,1/2+z
7 1/2-x,1/2-y,-z
8 1/2+x,1/2-y,1/2+z
_cell_length_a                   29.6415(5)
_cell_length_b                   8.72785(14)
_cell_length_c                   18.2127(3)
_cell_angle_alpha                90
_cell_angle_beta                 90.6805(14)
_cell_angle_gamma                90
_cell_volume                     4711.41
_exptl_crystal_colour            red
_exptl_crystal_description       block
_cell_formula_units_Z            8
loop_
_atom_site_label
_atom_site_type_symbol
_atom_site_fract_x
_atom_site_fract_y
_atom_site_fract_z
F1 F 0.72336(3) 0.13763(12) 0.31379(6)
F2 F 0.73877(4) 0.33353(14) 0.38015(7)
O1 O 0.47365(4) 0.37106(13) 0.46075(6)
F3 F 0.69197(4) 0.35358(15) 0.29036(7)
O2 O 0.63373(4) 0.14504(13) 0.53838(7)
N1 N 0.53865(4) 0.42949(15) 0.37132(7)
H1 H 0.515594 0.487481 0.377927
C1 C 0.55528(5) 0.13055(16) 0.55222(8)
C2 C 0.55024(5) 0.33931(16) 0.42958(8)
C3 C 0.51313(5) 0.19362(16) 0.53543(8)
C4 C 0.50915(5) 0.30618(17) 0.47539(8)
C5 C 0.65732(5) 0.47355(17) 0.46618(8)
C6 C 0.59251(5) 0.29060(16) 0.45172(8)
C7 C 0.55883(5) 0.44219(17) 0.30150(8)
C8 C 0.59656(5) 0.18664(16) 0.51441(8)
C9 C 0.63594(5) 0.34960(17) 0.41767(8)
H2 H 0.626921 0.400686 0.371885
C10 C 0.55554(5) 0.58165(18) 0.26497(8)
H3 H 0.541731 0.664817 0.287380
C11 C 0.55913(6) 0.02040(17) 0.60720(8)
H4 H 0.587004 -0.023471 0.618114
C12 C 0.68849(5) 0.44444(19) 0.52246(9)
H5 H 0.697701 0.344460 0.531967
C13 C 0.47517(5) 0.15008(18) 0.57462(8)
H6 H 0.447200 0.193217 0.563663
C14 C 0.66723(5) 0.21686(18) 0.39537(9)
H7 H 0.680255 0.172040 0.439503
H8 H 0.649202 0.138452 0.371270
C15 C 0.70475(5) 0.2622(2) 0.34529(9)
C16 C 0.52098(6) -0.02369(18) 0.64574(8)
H9 H 0.523427 -0.097784 0.682269
C17 C 0.64436(5) 0.62480(18) 0.45426(9)
H10 H 0.623691 0.646804 0.416915
C18 C 0.57974(5) 0.31838(18) 0.26801(8)
H11 H 0.581543 0.224420 0.291948
C19 C 0.47933(6) 0.04202(19) 0.63009(9)
H12 H 0.454161 0.013506 0.656859
C20 C 0.69272(5) 0.71505(19) 0.55262(9)
C21 C 0.66152(6) 0.74345(19) 0.49676(10)
H13 H 0.652021 0.843333 0.487767
C22 C 0.59793(6) 0.3360(2) 0.19847(9)
H14 H 0.612749 0.254149 0.176654
C23 C 0.70578(6) 0.5641(2) 0.56430(9)
H15 H 0.726750 0.542608 0.601268
C24 C 0.57298(6) 0.5963(2) 0.19477(9)
H16 H 0.570343 0.689118 0.170047
C25 C 0.59423(6) 0.4740(2) 0.16134(9)
H17 H 0.605896 0.484460 0.114425
C26 C 0.71229(7) 0.8440(2) 0.59823(11)
H18 H 0.742872 0.862518 0.583907
H19 H 0.711694 0.816396 0.649229
H20 H 0.694726 0.935188 0.590542
N2 N 0.87999(6) 0.4477(2) 0.22324(12)
C27 C 0.85382(6) 0.3593(2) 0.23844(11)
C28 C 0.82039(8) 0.2473(4) 0.2594(2)
H21 H 0.791554 0.275752 0.239071
H22 H 0.818565 0.243570 0.311973
H23 H 0.828843 0.148398 0.241114
loop_
_geom_bond_atom_site_label_1
_geom_bond_atom_site_label_2
_geom_bond_site_symmetry_1
_geom_bond_site_symmetry_2
F1 C15 1_555 1_555
F2 C15 1_555 1_555
O1 C4 1_555 1_555
F3 C15 1_555 1_555
O2 C8 1_555 1_555
N1 H1 1_555 1_555
C1 C3 1_555 1_555
C2 N1 1_555 1_555
C3 C4 1_555 1_555
C4 C2 1_555 1_555
C5 C9 1_555 1_555
C6 C2 1_555 1_555
C7 N1 1_555 1_555
C8 C1 1_555 1_555
C9 C6 1_555 1_555
H2 C9 1_555 1_555
C10 C7 1_555 1_555
H3 C10 1_555 1_555
C11 C1 1_555 1_555
H4 C11 1_555 1_555
C12 C5 1_555 1_555
H5 C12 1_555 1_555
C13 C3 1_555 1_555
H6 C13 1_555 1_555
C14 C9 1_555 1_555
H7 C14 1_555 1_555
H8 C14 1_555 1_555
C15 C14 1_555 1_555
C16 C11 1_555 1_555
H9 C16 1_555 1_555
C17 C5 1_555 1_555
H10 C17 1_555 1_555
C18 C7 1_555 1_555
H11 C18 1_555 1_555
C19 C13 1_555 1_555
H12 C19 1_555 1_555
C20 C21 1_555 1_555
C21 C17 1_555 1_555
H13 C21 1_555 1_555
C22 C18 1_555 1_555
H14 C22 1_555 1_555
C23 C12 1_555 1_555
H15 C23 1_555 1_555
C24 C10 1_555 1_555
H16 C24 1_555 1_555
C25 C22 1_555 1_555
H17 C25 1_555 1_555
C26 C20 1_555 1_555
H18 C26 1_555 1_555
H19 C26 1_555 1_555
H20 C26 1_555 1_555
N2 C27 1_555 1_555
C27 C28 1_555 1_555
C28 H21 1_555 1_555
H22 C28 1_555 1_555
H23 C28 1_555 1_555
C6 C8 1_555 1_555
C16 C19 1_555 1_555
C20 C23 1_555 1_555
C24 C25 1_555 1_555

#END
