
#######################################################################
#
#                 Cambridge Crystallographic Data Centre
#                                CCDC 
#
#######################################################################
#
# If this CIF has been generated from an entry in the Cambridge 
# Structural Database, then it will include bibliographic, chemical, 
# crystal, experimental, refinement or atomic coordinate data resulting 
# from the CCDC's data processing and validation procedures.
#
#######################################################################

data_KIVFUT
_chemical_formula_moiety         'C8 H16 N1 1+,Cl1 O4 1-'
_chemical_name_systematic        '3-methylquinuclidinium perchlorate'
_symmetry_cell_setting           orthorhombic
_symmetry_space_group_name_H-M   'P n m a'
_symmetry_Int_Tables_number      62
_space_group_name_Hall           '-P 2ac 2n'
loop_
_symmetry_equiv_pos_site_id
_symmetry_equiv_pos_as_xyz
1 x,y,z
2 1/2-x,-y,1/2+z
3 -x,1/2+y,-z
4 1/2+x,1/2-y,1/2-z
5 -x,-y,-z
6 1/2+x,y,1/2-z
7 x,1/2-y,z
8 1/2-x,1/2+y,1/2+z
_cell_length_a                   11.4473(7)
_cell_length_b                   8.1623(6)
_cell_length_c                   11.6646(7)
_cell_angle_alpha                90
_cell_angle_beta                 90
_cell_angle_gamma                90
_cell_volume                     1089.9
_exptl_crystal_colour            colorless
_exptl_crystal_description       block
_cell_formula_units_Z            4
loop_
_atom_site_label
_atom_site_type_symbol
_atom_site_fract_x
_atom_site_fract_y
_atom_site_fract_z
Cl1 Cl 0.9555(2) 0.244(4) 0.3153(2)
O1 O 0.8319(10) 0.292(2) 0.2940(11)
O2 O 0.9967(18) 0.168(2) 0.2121(13)
O3 O 0.9660(15) 0.131(2) 0.4135(12)
O4 O 1.0215(15) 0.3945(16) 0.3453(18)
Cl1F Cl 0.9555(2) 0.256(4) 0.3153(2)
O1F O 0.8319(10) 0.208(2) 0.2940(11)
O2F O 0.9967(18) 0.332(2) 0.2121(13)
O3F O 0.9660(15) 0.369(2) 0.4135(12)
O4F O 1.0215(15) 0.1055(16) 0.3453(18)
N1 N 0.1934(7) 0.279(2) 0.5297(7)
H1 H 0.1295 0.3156 0.4929
C1 C 0.1651(8) 0.259(4) 0.6545(8)
H2 H 0.0944 0.1975 0.6643
H3 H 0.1540 0.3657 0.6876
C2 C 0.2703(10) 0.1744(14) 0.7141(7)
H4 H 0.2488 0.0648 0.7355
C3 C 0.3031(13) 0.278(3) 0.8200(9)
H5 H 0.3669 0.2266 0.8593
H6 H 0.3262 0.3864 0.7964
H7 H 0.2371 0.2860 0.8705
C4 C 0.3724(11) 0.176(3) 0.6312(12)
H8 H 0.4405 0.1354 0.6702
C5 C 0.3412(16) 0.058(3) 0.5345(17)
H9 H 0.3300 -0.0498 0.5654
H10 H 0.4025 0.0532 0.4784
C6 C 0.2258(14) 0.1131(19) 0.4826(14)
H11 H 0.2360 0.1209 0.4011
H12 H 0.1639 0.0367 0.4975
C7 C 0.3936(14) 0.343(3) 0.5935(15)
H13 H 0.4672 0.3500 0.5544
H14 H 0.3972 0.4130 0.6597
C8 C 0.2920(15) 0.402(2) 0.5166(15)
H15 H 0.2661 0.5091 0.5379
H16 H 0.3184 0.4042 0.4385
N1F N 0.1934(7) 0.221(2) 0.5297(7)
H1F H 0.1295 0.1844 0.4929
C1F C 0.1651(8) 0.241(4) 0.6545(8)
H2F H 0.0944 0.3025 0.6643
H3F H 0.1540 0.1343 0.6876
C2F C 0.2703(10) 0.3256(14) 0.7141(7)
H4F H 0.2488 0.4352 0.7355
C3F C 0.3031(13) 0.222(3) 0.8200(9)
H5F H 0.3669 0.2734 0.8593
H6F H 0.3262 0.1136 0.7964
H7F H 0.2371 0.2140 0.8705
C4F C 0.3724(11) 0.324(3) 0.6312(12)
H8F H 0.4405 0.3646 0.6702
C5F C 0.3412(16) 0.442(3) 0.5345(17)
H9F H 0.3300 0.5498 0.5654
H10F H 0.4025 0.4468 0.4784
C6F C 0.2258(14) 0.3869(19) 0.4826(14)
H11F H 0.2360 0.3791 0.4011
H12F H 0.1639 0.4633 0.4975
C7F C 0.3936(14) 0.157(3) 0.5935(15)
H13F H 0.4672 0.1500 0.5544
H14F H 0.3972 0.0870 0.6597
C8F C 0.2920(15) 0.098(2) 0.5166(15)
H15F H 0.2661 -0.0091 0.5379
H16F H 0.3184 0.0958 0.4385
loop_
_geom_bond_atom_site_label_1
_geom_bond_atom_site_label_2
_geom_bond_site_symmetry_1
_geom_bond_site_symmetry_2
Cl1 O1 1_555 1_555
O1 Cl1F 1_555 1_555
O2 Cl1 1_555 1_555
O3 Cl1 1_555 1_555
O4 Cl1 1_555 1_555
N1 H1 1_555 1_555
H1 N1F 1_555 1_555
C1 N1 1_555 1_555
H2 C1 1_555 1_555
H3 C1 1_555 1_555
C2 C1 1_555 1_555
H4 C2 1_555 1_555
C3 C2 1_555 1_555
H5 C3 1_555 1_555
H6 C3 1_555 1_555
H7 C3 1_555 1_555
C4 C2 1_555 1_555
H8 C4 1_555 1_555
C5 C4 1_555 1_555
H9 C5 1_555 1_555
H10 C5 1_555 1_555
C6 N1 1_555 1_555
H11 C6 1_555 1_555
H12 C6 1_555 1_555
C7 C4 1_555 1_555
H13 C7 1_555 1_555
H14 C7 1_555 1_555
C8 N1 1_555 1_555
H15 C8 1_555 1_555
H16 C8 1_555 1_555
Cl1F O2 1_555 1_555
O1F Cl1 1_555 1_555
O2F Cl1 1_555 1_555
O3F Cl1 1_555 1_555
O4F Cl1 1_555 1_555
N1F C1 1_555 1_555
H1F N1 1_555 1_555
C1F N1 1_555 1_555
H2F C1 1_555 1_555
H3F C1 1_555 1_555
C2F C1 1_555 1_555
H4F C2F 1_555 1_555
C3F C2 1_555 1_555
H5F C3 1_555 1_555
H6F C2 1_555 1_555
H7F C3 1_555 1_555
C4F C4 1_555 1_555
H8F C7 1_555 1_555
C5F C7 1_555 1_555
H9F C5F 1_555 1_555
H10F C5F 1_555 1_555
C6F N1 1_555 1_555
H11F C6F 1_555 1_555
H12F C6F 1_555 1_555
C7F H8 1_555 1_555
H13F C7F 1_555 1_555
H14F C4 1_555 1_555
C8F C4 1_555 1_555
H15F C5 1_555 1_555
H16F C5 1_555 1_555
O1 O1F 1_555 1_555
O2 O2F 1_555 1_555
O2 O4F 1_555 1_555
O3 Cl1F 1_555 1_555
O3 O4F 1_555 1_555
O4 Cl1F 1_555 1_555
O4 O2F 1_555 1_555
O4 O3F 1_555 1_555
H1 C6F 1_555 1_555
H2 C1F 1_555 1_555
H3 C1F 1_555 1_555
C2 C1F 1_555 1_555
C2 C2F 1_555 1_555
C3 C2F 1_555 1_555
H5 C3F 1_555 1_555
H6 C2F 1_555 1_555
H7 C3F 1_555 1_555
C5 C6 1_555 1_555
C5 C7F 1_555 1_555
C5 C8F 1_555 1_555
C6 N1F 1_555 1_555
C6 H1F 1_555 1_555
C6 C8F 1_555 1_555
C6 H15F 1_555 1_555
C6 H16F 1_555 1_555
C7 C8 1_555 1_555
C7 C7F 1_555 1_555
H14 C4F 1_555 1_555
C8 C4F 1_555 1_555
C8 C5F 1_555 1_555
C8 C6F 1_555 1_555
H15 C5F 1_555 1_555
H15 C6F 1_555 1_555
H16 C5F 1_555 1_555
H16 C6F 1_555 1_555
Cl1F O1F 1_555 1_555
Cl1F O2F 1_555 1_555
Cl1F O3F 1_555 1_555
Cl1F O4F 1_555 1_555
N1F H1F 1_555 1_555
N1F C1F 1_555 1_555
N1F C6F 1_555 1_555
N1F C8F 1_555 1_555
C1F H2F 1_555 1_555
C1F H3F 1_555 1_555
C1F C2F 1_555 1_555
C2F C3F 1_555 1_555
C2F C4F 1_555 1_555
C3F H5F 1_555 1_555
C3F H6F 1_555 1_555
C3F H7F 1_555 1_555
C4F H8F 1_555 1_555
C4F C5F 1_555 1_555
C4F C7F 1_555 1_555
C5F C6F 1_555 1_555
C7F H14F 1_555 1_555
C7F C8F 1_555 1_555
C8F H15F 1_555 1_555
C8F H16F 1_555 1_555

#END
