
#######################################################################
#
#                 Cambridge Crystallographic Data Centre
#                                CCDC 
#
#######################################################################
#
# If this CIF has been generated from an entry in the Cambridge 
# Structural Database, then it will include bibliographic, chemical, 
# crystal, experimental, refinement or atomic coordinate data resulting 
# from the CCDC's data processing and validation procedures.
#
#######################################################################

data_KIVNIN
_chemical_formula_moiety         'C56 H70 N4 Na2 O4,C4 H8 O1'
_chemical_name_systematic        
"bis(8-(3,5-Di-t-butyl-2-oxybenzylideneamino)quinoline-N,N',O,O)-bis(tetrahydrofuran)-di-sodium tetrahydrofuran solvate"
_symmetry_cell_setting           monoclinic
_symmetry_space_group_name_H-M   'P 21/c'
_symmetry_Int_Tables_number      14
_space_group_name_Hall           '-P 2ybc'
loop_
_symmetry_equiv_pos_site_id
_symmetry_equiv_pos_as_xyz
1 x,y,z
2 -x,1/2+y,1/2-z
3 -x,-y,-z
4 x,1/2-y,1/2+z
_cell_length_a                   12.8235(13)
_cell_length_b                   24.651(2)
_cell_length_c                   18.3519(19)
_cell_angle_alpha                90
_cell_angle_beta                 107.192(2)
_cell_angle_gamma                90
_cell_volume                     5542.06
_exptl_crystal_colour            orange-yellow
_exptl_crystal_description       block
_cell_formula_units_Z            4
loop_
_atom_site_label
_atom_site_type_symbol
_atom_site_fract_x
_atom_site_fract_y
_atom_site_fract_z
Na1 Na 0.21294(9) 0.44756(4) 0.30062(6)
Na2 Na 0.11313(9) 0.55534(5) 0.28444(7)
O1 O 0.02975(16) 0.47665(8) 0.25179(12)
O2 O 0.27025(15) 0.52729(7) 0.26330(11)
O3 O 0.19416(19) 0.35704(9) 0.26029(14)
O4 O 0.04319(19) 0.60524(9) 0.17138(13)
N1 N 0.14768(19) 0.46508(10) 0.40860(14)
N2 N 0.35768(19) 0.43140(10) 0.42799(13)
N3 N 0.23316(19) 0.62979(9) 0.33198(13)
N4 N 0.0339(2) 0.61582(11) 0.35612(15)
C1 C -0.0436(2) 0.44620(11) 0.26600(16)
C2 C -0.1409(2) 0.43019(12) 0.20729(16)
C3 C -0.2110(2) 0.39333(12) 0.22526(16)
H1 H -0.2736 0.3824 0.1855
C4 C -0.1962(2) 0.37090(11) 0.29791(16)
C5 C -0.1073(2) 0.38926(12) 0.35508(16)
H2 H -0.0971 0.3767 0.4056
C6 C -0.0311(2) 0.42591(12) 0.34154(16)
C7 C 0.0596(2) 0.43940(12) 0.40691(17)
H3 H 0.0535 0.4279 0.4549
C8 C 0.2250(2) 0.47048(12) 0.48173(17)
C9 C 0.2003(3) 0.49277(13) 0.54301(18)
H4 H 0.1290 0.5066 0.5368
C10 C 0.2794(3) 0.49555(14) 0.61552(18)
H5 H 0.2604 0.5106 0.6575
C11 C 0.3827(3) 0.47670(13) 0.62549(18)
H6 H 0.4347 0.4779 0.6746
C12 C 0.4130(2) 0.45547(12) 0.56326(17)
C13 C 0.5197(2) 0.43718(12) 0.56946(17)
H7 H 0.5753 0.4394 0.6169
C14 C 0.5423(3) 0.41646(13) 0.50744(18)
H8 H 0.6136 0.4037 0.5109
C15 C 0.4589(2) 0.41413(13) 0.43809(17)
H9 H 0.4761 0.3992 0.3953
C16 C 0.3343(2) 0.45223(11) 0.49043(16)
C17 C -0.1680(2) 0.45527(13) 0.12730(17)
C18 C -0.2709(3) 0.43068(15) 0.07169(19)
H10 H -0.2832 0.4470 0.0212
H11 H -0.3339 0.4379 0.0901
H12 H -0.2614 0.3914 0.0683
C19 C -0.0768(3) 0.44653(17) 0.09087(19)
H13 H -0.0088 0.4621 0.1237
H14 H -0.0961 0.4643 0.0409
H15 H -0.0668 0.4076 0.0846
C20 C -0.1888(3) 0.51588(14) 0.1340(2)
H16 H -0.1230 0.5331 0.1672
H17 H -0.2494 0.5209 0.1557
H18 H -0.2076 0.5326 0.0833
C21 C -0.2708(2) 0.32721(12) 0.31484(18)
C22 C -0.2052(3) 0.27476(13) 0.3374(2)
H19 H -0.2513 0.2469 0.3504
H20 H -0.1417 0.2817 0.3817
H21 H -0.1805 0.2621 0.2947
C23 C -0.3690(3) 0.31520(14) 0.2459(2)
H22 H -0.3436 0.3016 0.2039
H23 H -0.4112 0.3485 0.2299
H24 H -0.4152 0.2878 0.2597
C24 C -0.3130(3) 0.34579(14) 0.3812(2)
H25 H -0.3525 0.3801 0.3677
H26 H -0.2511 0.3509 0.4271
H27 H -0.3622 0.3182 0.3910
C25 C 0.3281(2) 0.55601(11) 0.23099(15)
C26 C 0.3820(2) 0.53173(11) 0.17984(15)
C27 C 0.4471(2) 0.56364(11) 0.14941(16)
H28 H 0.4838 0.5466 0.1175
C28 C 0.4630(2) 0.61974(12) 0.16229(16)
C29 C 0.4083(2) 0.64294(12) 0.20814(16)
H29 H 0.4154 0.6809 0.2169
C30 C 0.3420(2) 0.61328(11) 0.24297(15)
C31 C 0.2928(2) 0.64552(11) 0.28971(15)
H30 H 0.3058 0.6834 0.2895
C32 C 0.1967(3) 0.66972(12) 0.37378(16)
C33 C 0.2569(3) 0.71451(13) 0.40608(18)
H31 H 0.3280 0.7193 0.4012
C34 C 0.2147(4) 0.75364(15) 0.4464(2)
H32 H 0.2567 0.7848 0.4668
C35 C 0.1143(4) 0.74672(16) 0.4560(2)
H33 H 0.0862 0.7735 0.4823
C36 C 0.0519(3) 0.70049(15) 0.42754(18)
C37 C -0.0516(3) 0.69039(19) 0.4378(2)
H34 H -0.0815 0.7154 0.4656
C38 C -0.1080(3) 0.6451(2) 0.4081(2)
H35 H -0.1777 0.6381 0.4145
C39 C -0.0619(3) 0.60843(17) 0.3676(2)
H36 H -0.1019 0.5766 0.3474
C40 C 0.0922(3) 0.66143(13) 0.38593(17)
C41 C 0.3672(2) 0.47105(11) 0.16097(16)
C42 C 0.4272(3) 0.45273(13) 0.1041(2)
H37 H 0.4002 0.4735 0.0567
H38 H 0.4139 0.4140 0.0932
H39 H 0.5057 0.4590 0.1261
C43 C 0.2455(3) 0.45828(12) 0.12452(17)
H40 H 0.2042 0.4696 0.1591
H41 H 0.2362 0.4192 0.1151
H42 H 0.2186 0.4779 0.0761
C44 C 0.4144(2) 0.43719(12) 0.23393(17)
H43 H 0.4943 0.4386 0.2488
H44 H 0.3902 0.3995 0.2242
H45 H 0.3888 0.4520 0.2751
C45 C 0.5436(3) 0.65146(13) 0.13095(18)
C46 C 0.5437(5) 0.6307(2) 0.0534(3)
H46 H 0.4709 0.6353 0.0171
H47 H 0.5632 0.5921 0.0571
H48 H 0.5971 0.6511 0.0356
C47 C 0.6594(3) 0.64353(18) 0.1865(3)
H49 H 0.6758 0.6047 0.1929
H50 H 0.6629 0.6595 0.2361
H51 H 0.7128 0.6613 0.1659
C48 C 0.5199(3) 0.71183(14) 0.1261(2)
H52 H 0.5702 0.7302 0.1031
H53 H 0.5296 0.7263 0.1774
H54 H 0.4446 0.7180 0.0946
C49 C 0.0986(3) 0.33454(15) 0.2074(2)
H55 H 0.1172 0.3178 0.1637
H56 H 0.0433 0.3631 0.1877
C50 C 0.0567(4) 0.2934(2) 0.2492(3)
H57 H -0.0084 0.3071 0.2620
H58 H 0.0365 0.2599 0.2185
C51 C 0.1449(5) 0.2830(3) 0.3177(4)
H59 H 0.1666 0.2443 0.3198
H60 H 0.1215 0.2912 0.3633
C52 C 0.2361(4) 0.31738(16) 0.3162(3)
H61 H 0.2685 0.3346 0.3666
H62 H 0.2933 0.2958 0.3032
C53 C 0.0621(4) 0.5974(2) 0.0993(2)
H63 H 0.0629 0.5582 0.0875
H64 H 0.1330 0.6133 0.0995
C54 C -0.0296(4) 0.62522(18) 0.0416(2)
H65 H -0.0039 0.6420 0.0010
H66 H -0.0892 0.5994 0.0180
C55 C -0.0660(5) 0.6665(2) 0.0859(2)
H67 H -0.1465 0.6659 0.0735
H68 H -0.0435 0.7030 0.0736
C56 C -0.0156(3) 0.65451(15) 0.1677(2)
H69 H 0.0342 0.6842 0.1926
H70 H -0.0726 0.6505 0.1938
O5 O 0.2805(3) 0.25266(12) 0.51089(15)
C57 C 0.3015(5) 0.21664(18) 0.5737(2)
H71 H 0.3530 0.1879 0.5691
H72 H 0.2329 0.1993 0.5763
C58 C 0.3494(4) 0.2500(2) 0.6424(3)
H73 H 0.4003 0.2283 0.6831
H74 H 0.2918 0.2653 0.6623
C59 C 0.4088(4) 0.2939(2) 0.6149(3)
H75 H 0.4006 0.3291 0.6386
H76 H 0.4875 0.2853 0.6270
C60 C 0.3562(3) 0.29565(16) 0.5306(2)
H77 H 0.3184 0.3308 0.5158
H78 H 0.4121 0.2917 0.5036
loop_
_geom_bond_atom_site_label_1
_geom_bond_atom_site_label_2
_geom_bond_site_symmetry_1
_geom_bond_site_symmetry_2
Na1 O1 1_555 1_555
Na2 O1 1_555 1_555
O1 C1 1_555 1_555
O2 Na1 1_555 1_555
O3 Na1 1_555 1_555
O4 Na2 1_555 1_555
O5 C57 1_555 1_555
N1 Na1 1_555 1_555
N2 Na1 1_555 1_555
N3 Na2 1_555 1_555
N4 Na2 1_555 1_555
C1 C2 1_555 1_555
C2 C3 1_555 1_555
C3 H1 1_555 1_555
C4 C3 1_555 1_555
C5 C4 1_555 1_555
H2 C5 1_555 1_555
C6 C1 1_555 1_555
C7 N1 1_555 1_555
H3 C7 1_555 1_555
C8 N1 1_555 1_555
C9 C8 1_555 1_555
H4 C9 1_555 1_555
C10 C9 1_555 1_555
H5 C10 1_555 1_555
C11 C10 1_555 1_555
H6 C11 1_555 1_555
C12 C11 1_555 1_555
C13 C12 1_555 1_555
H7 C13 1_555 1_555
C14 C13 1_555 1_555
H8 C14 1_555 1_555
C15 N2 1_555 1_555
H9 C15 1_555 1_555
C16 N2 1_555 1_555
C17 C2 1_555 1_555
C18 C17 1_555 1_555
H10 C18 1_555 1_555
H11 C18 1_555 1_555
H12 C18 1_555 1_555
C19 C17 1_555 1_555
H13 C19 1_555 1_555
H14 C19 1_555 1_555
H15 C19 1_555 1_555
C20 C17 1_555 1_555
H16 C20 1_555 1_555
H17 C20 1_555 1_555
H18 C20 1_555 1_555
C21 C4 1_555 1_555
C22 C21 1_555 1_555
H19 C22 1_555 1_555
H20 C22 1_555 1_555
H21 C22 1_555 1_555
C23 C21 1_555 1_555
H22 C23 1_555 1_555
H23 C23 1_555 1_555
H24 C23 1_555 1_555
C24 C21 1_555 1_555
H25 C24 1_555 1_555
H26 C24 1_555 1_555
H27 C24 1_555 1_555
C25 O2 1_555 1_555
C26 C25 1_555 1_555
C27 C26 1_555 1_555
H28 C27 1_555 1_555
C28 C27 1_555 1_555
C29 C28 1_555 1_555
H29 C29 1_555 1_555
C30 C25 1_555 1_555
C31 N3 1_555 1_555
H30 C31 1_555 1_555
C32 N3 1_555 1_555
C33 C32 1_555 1_555
H31 C33 1_555 1_555
C34 C33 1_555 1_555
H32 C34 1_555 1_555
C35 C34 1_555 1_555
H33 C35 1_555 1_555
C36 C35 1_555 1_555
C37 C36 1_555 1_555
H34 C37 1_555 1_555
C38 C37 1_555 1_555
H35 C38 1_555 1_555
C39 N4 1_555 1_555
H36 C39 1_555 1_555
C40 N4 1_555 1_555
C41 C26 1_555 1_555
C42 C41 1_555 1_555
H37 C42 1_555 1_555
H38 C42 1_555 1_555
H39 C42 1_555 1_555
C43 C41 1_555 1_555
H40 C43 1_555 1_555
H41 C43 1_555 1_555
H42 C43 1_555 1_555
C44 C41 1_555 1_555
H43 C44 1_555 1_555
H44 C44 1_555 1_555
H45 C44 1_555 1_555
C45 C28 1_555 1_555
C46 C45 1_555 1_555
H46 C46 1_555 1_555
H47 C46 1_555 1_555
H48 C46 1_555 1_555
C47 C45 1_555 1_555
H49 C47 1_555 1_555
H50 C47 1_555 1_555
H51 C47 1_555 1_555
C48 C45 1_555 1_555
H52 C48 1_555 1_555
H53 C48 1_555 1_555
H54 C48 1_555 1_555
C49 O3 1_555 1_555
H55 C49 1_555 1_555
H56 C49 1_555 1_555
C50 C49 1_555 1_555
H57 C50 1_555 1_555
H58 C50 1_555 1_555
C51 C50 1_555 1_555
H59 C51 1_555 1_555
H60 C51 1_555 1_555
C52 O3 1_555 1_555
H61 C52 1_555 1_555
H62 C52 1_555 1_555
C53 O4 1_555 1_555
H63 C53 1_555 1_555
H64 C53 1_555 1_555
C54 C53 1_555 1_555
H65 C54 1_555 1_555
H66 C54 1_555 1_555
C55 C54 1_555 1_555
H67 C55 1_555 1_555
H68 C55 1_555 1_555
C56 O4 1_555 1_555
H69 C56 1_555 1_555
H70 C56 1_555 1_555
C57 H71 1_555 1_555
H72 C57 1_555 1_555
C58 C57 1_555 1_555
H73 C58 1_555 1_555
H74 C58 1_555 1_555
C59 C58 1_555 1_555
H75 C59 1_555 1_555
H76 C59 1_555 1_555
C60 O5 1_555 1_555
H77 C60 1_555 1_555
H78 C60 1_555 1_555
Na2 O2 1_555 1_555
C5 C6 1_555 1_555
C6 C7 1_555 1_555
C8 C16 1_555 1_555
C12 C16 1_555 1_555
C14 C15 1_555 1_555
C29 C30 1_555 1_555
C30 C31 1_555 1_555
C32 C40 1_555 1_555
C36 C40 1_555 1_555
C38 C39 1_555 1_555
C51 C52 1_555 1_555
C55 C56 1_555 1_555
C59 C60 1_555 1_555

#END
