
#######################################################################
#
#                 Cambridge Crystallographic Data Centre
#                                CCDC 
#
#######################################################################
#
# If this CIF has been generated from an entry in the Cambridge 
# Structural Database, then it will include bibliographic, chemical, 
# crystal, experimental, refinement or atomic coordinate data resulting 
# from the CCDC's data processing and validation procedures.
#
#######################################################################

data_KIVRIS
_chemical_formula_moiety         'C24 H20 O5'
_chemical_name_systematic        
'Ethyl 7a-benzoyl-7-hydroxy-7a,8-dihydrobenzo[h]cyclopropa[b]chromene-8a(7H)-carboxylate'
_symmetry_cell_setting           monoclinic
_symmetry_space_group_name_H-M   'P 21/n'
_symmetry_Int_Tables_number      14
_space_group_name_Hall           '-P 2yn'
loop_
_symmetry_equiv_pos_site_id
_symmetry_equiv_pos_as_xyz
1 x,y,z
2 1/2-x,1/2+y,1/2-z
3 -x,-y,-z
4 1/2+x,1/2-y,1/2+z
_cell_length_a                   7.5610(8)
_cell_length_b                   25.357(3)
_cell_length_c                   10.1889(10)
_cell_angle_alpha                90
_cell_angle_beta                 96.502(2)
_cell_angle_gamma                90
_cell_volume                     1940.89
_cell_formula_units_Z            4
loop_
_atom_site_label
_atom_site_type_symbol
_atom_site_fract_x
_atom_site_fract_y
_atom_site_fract_z
C1 C 1.0553(2) 0.20728(7) 0.00771(16)
C2 C 0.9039(2) 0.18950(6) 0.05497(15)
C3 C 0.8837(2) 0.13655(7) 0.09731(15)
C4 C 0.7278(3) 0.11856(7) 0.14829(17)
H1 H 0.6361 0.1421 0.1585
C5 C 0.7113(4) 0.06681(8) 0.1827(2)
H2 H 0.6079 0.0551 0.2148
C6 C 0.8509(4) 0.03144(9) 0.1692(2)
H3 H 0.8384 -0.0038 0.1915
C7 C 1.0048(4) 0.04800(9) 0.1239(2)
H4 H 1.0969 0.0241 0.1182
C8 C 1.0263(3) 0.10117(8) 0.08529(19)
C9 C 1.1816(3) 0.11985(9) 0.0361(2)
H5 H 1.2754 0.0967 0.0286
C10 C 1.1966(3) 0.17098(9) -0.0005(2)
H6 H 1.3012 0.1824 -0.0315
C11 C 1.0821(2) 0.26445(7) -0.02587(16)
H7 H 1.1461 0.2807 0.0529
C12 C 0.9055(2) 0.29395(6) -0.05345(14)
C13 C 0.7430(2) 0.26822(6) -0.00474(14)
C14 C 0.7645(2) 0.26930(7) -0.14948(15)
H8 H 0.7931 0.2364 -0.1908
H9 H 0.6875 0.2927 -0.2055
C15 C 0.9259(2) 0.35331(7) -0.05235(15)
C16 C 0.98684(19) 0.37949(6) 0.07662(15)
C17 C 1.0394(2) 0.43203(7) 0.07491(18)
H10 H 1.0351 0.4499 -0.0051
C18 C 1.0976(3) 0.45787(8) 0.1907(2)
H11 H 1.1310 0.4931 0.1888
C19 C 1.1063(3) 0.43132(9) 0.3099(2)
H12 H 1.1474 0.4486 0.3880
C20 C 1.0540(3) 0.37927(8) 0.31290(18)
H13 H 1.0587 0.3616 0.3933
C21 C 0.9945(2) 0.35315(7) 0.19725(15)
H14 H 0.9596 0.3180 0.1999
C22 C 0.6024(2) 0.30072(6) 0.04870(16)
C23 C 0.4459(13) 0.3806(4) 0.0265(15)
H15 H 0.4296 0.3728 0.1176
H16 H 0.3317 0.3775 -0.0268
C24 C 0.5188(8) 0.43554(19) 0.0160(9)
H17 H 0.6241 0.4395 0.0773
H18 H 0.4311 0.4608 0.0361
H19 H 0.5478 0.4414 -0.0722
O1 O 1.18918(18) 0.27197(6) -0.13020(13)
H20 H 1.1388 0.2593 -0.1985
O2 O 0.75863(15) 0.22114(4) 0.06785(11)
O3 O 0.9010(2) 0.37860(5) -0.15315(12)
O4 O 0.52894(19) 0.28857(6) 0.14258(14)
O5 O 0.57300(17) 0.34427(5) -0.02034(14)
C25? C 0.4434(14) 0.3828(4) 0.0133(15)
H21? H 0.3438 0.3652 0.0470
H22? H 0.3988 0.4031 -0.0640
C26? C 0.5370(8) 0.4181(3) 0.1170(12)
H23? H 0.5634 0.3987 0.1978
H24? H 0.4618 0.4475 0.1317
H25? H 0.6458 0.4307 0.0879
loop_
_geom_bond_atom_site_label_1
_geom_bond_atom_site_label_2
_geom_bond_site_symmetry_1
_geom_bond_site_symmetry_2
C1 C2 1_555 1_555
C2 C3 1_555 1_555
C3 C4 1_555 1_555
C4 H1 1_555 1_555
C5 C4 1_555 1_555
H2 C5 1_555 1_555
C6 C5 1_555 1_555
H3 C6 1_555 1_555
C7 C6 1_555 1_555
H4 C7 1_555 1_555
C8 C3 1_555 1_555
C9 C8 1_555 1_555
H5 C9 1_555 1_555
C10 C1 1_555 1_555
H6 C10 1_555 1_555
C11 C1 1_555 1_555
H7 C11 1_555 1_555
C12 C11 1_555 1_555
C13 C12 1_555 1_555
C14 C12 1_555 1_555
H8 C14 1_555 1_555
H9 C14 1_555 1_555
C15 C12 1_555 1_555
C16 C15 1_555 1_555
C17 C16 1_555 1_555
H10 C17 1_555 1_555
C18 C17 1_555 1_555
H11 C18 1_555 1_555
C19 C18 1_555 1_555
H12 C19 1_555 1_555
C20 C19 1_555 1_555
H13 C20 1_555 1_555
C21 C16 1_555 1_555
H14 C21 1_555 1_555
C22 C13 1_555 1_555
C23 H15 1_555 1_555
H16 C23 1_555 1_555
C24 C23 1_555 1_555
H17 C24 1_555 1_555
H18 C24 1_555 1_555
H19 C24 1_555 1_555
O1 C11 1_555 1_555
H20 O1 1_555 1_555
O2 C2 1_555 1_555
O3 C15 1_555 1_555
O4 C22 1_555 1_555
O5 C22 1_555 1_555
C7 C8 1_555 1_555
C9 C10 1_555 1_555
C13 C14 1_555 1_555
C13 O2 1_555 1_555
C20 C21 1_555 1_555
C23 O5 1_555 1_555

#END
