
#######################################################################
#
#                 Cambridge Crystallographic Data Centre
#                                CCDC 
#
#######################################################################
#
# If this CIF has been generated from an entry in the Cambridge 
# Structural Database, then it will include bibliographic, chemical, 
# crystal, experimental, refinement or atomic coordinate data resulting 
# from the CCDC's data processing and validation procedures.
#
#######################################################################

data_KIWLAG
_chemical_formula_moiety         'C9 H10 N2 O5'
_chemical_name_systematic        'methyl (4-methoxy-2-nitrophenyl)carbamate'
_symmetry_cell_setting           monoclinic
_symmetry_space_group_name_H-M   'P 21/c'
_symmetry_Int_Tables_number      14
_space_group_name_Hall           '-P 2ybc'
loop_
_symmetry_equiv_pos_site_id
_symmetry_equiv_pos_as_xyz
1 x,y,z
2 -x,1/2+y,1/2-z
3 -x,-y,-z
4 x,1/2-y,1/2+z
_cell_length_a                   3.8905(5)
_cell_length_b                   20.385(2)
_cell_length_c                   12.7499(11)
_cell_angle_alpha                90
_cell_angle_beta                 90.055(9)
_cell_angle_gamma                90
_cell_volume                     1011.17
_exptl_crystal_colour            yellow
_exptl_crystal_description       needle
_chemical_melting_point          '135-137 deg.C'
_cell_formula_units_Z            4
loop_
_atom_site_label
_atom_site_type_symbol
_atom_site_fract_x
_atom_site_fract_y
_atom_site_fract_z
C1 C 0.3541(12) 0.56924(19) 0.7124(3)
C2 C 0.5230(12) 0.5448(2) 0.8015(3)
C3 C 0.5965(12) 0.47837(19) 0.8129(3)
H1 H 0.7098 0.4634 0.8725
C4 C 0.5008(11) 0.43502(19) 0.7357(3)
C5 C 0.3407(13) 0.4580(2) 0.6461(3)
H2 H 0.2817 0.4290 0.5927
C6 C 0.2690(12) 0.5234(2) 0.6361(3)
H3 H 0.1585 0.5378 0.5757
C7 C 0.1144(13) 0.6669(2) 0.6217(3)
C8 C -0.0542(15) 0.7733(2) 0.5657(4)
H4 H 0.0974 0.7748 0.5064
H5 H -0.0803 0.8166 0.5941
H6 H -0.2745 0.7569 0.5441
C9 C 0.4590(15) 0.3236(2) 0.6801(4)
H7 H 0.5692 0.3306 0.6137
H8 H 0.2150 0.3286 0.6721
H9 H 0.5093 0.2802 0.7048
N1 N 0.2704(10) 0.63568(16) 0.7027(3)
H10 H 0.3252 0.6600 0.7552
N2 N 0.6345(11) 0.58727(19) 0.8878(3)
O1 O 0.5643(13) 0.64565(16) 0.8868(3)
O2 O 0.8056(12) 0.56396(16) 0.9578(3)
O3 O 0.5834(10) 0.37063(13) 0.7542(2)
O4 O 0.0127(11) 0.64313(14) 0.5421(2)
O5 O 0.0884(11) 0.73056(14) 0.6449(2)
loop_
_geom_bond_atom_site_label_1
_geom_bond_atom_site_label_2
_geom_bond_site_symmetry_1
_geom_bond_site_symmetry_2
C1 C2 1_555 1_555
C2 C3 1_555 1_555
C3 H1 1_555 1_555
C4 C3 1_555 1_555
C5 C4 1_555 1_555
H2 C5 1_555 1_555
C6 C1 1_555 1_555
H3 C6 1_555 1_555
C7 N1 1_555 1_555
C8 H4 1_555 1_555
H5 C8 1_555 1_555
H6 C8 1_555 1_555
C9 H7 1_555 1_555
H8 C9 1_555 1_555
H9 C9 1_555 1_555
N1 C1 1_555 1_555
H10 N1 1_555 1_555
N2 C2 1_555 1_555
O1 N2 1_555 1_555
O2 N2 1_555 1_555
O3 C4 1_555 1_555
O4 C7 1_555 1_555
O5 C7 1_555 1_555
C5 C6 1_555 1_555
C8 O5 1_555 1_555
C9 O3 1_555 1_555

#END
