
#######################################################################
#
#                 Cambridge Crystallographic Data Centre
#                                CCDC 
#
#######################################################################
#
# If this CIF has been generated from an entry in the Cambridge 
# Structural Database, then it will include bibliographic, chemical, 
# crystal, experimental, refinement or atomic coordinate data resulting 
# from the CCDC's data processing and validation procedures.
#
#######################################################################

data_KIWSAN
_chemical_formula_moiety         'C58 H72 Na2 O14 P2,C4 H8 O1'
_chemical_name_systematic        
'bis(\m-1,4,7,10,13,16-hexaoxacyclooctadecane)-bis(4,6-diphenylphosphinin-2-olato)-di-sodium tetrahydrofuran solvate'
_symmetry_cell_setting           monoclinic
_symmetry_space_group_name_H-M   'C 2/c'
_symmetry_Int_Tables_number      15
_space_group_name_Hall           '-C 2yn'
loop_
_symmetry_equiv_pos_site_id
_symmetry_equiv_pos_as_xyz
1 x,y,z
2 -x,y,1/2-z
3 1/2+x,1/2+y,z
4 1/2-x,1/2+y,1/2-z
5 -x,-y,-z
6 x,-y,1/2+z
7 1/2-x,1/2-y,-z
8 1/2+x,1/2-y,1/2+z
_cell_length_a                   27.5839(10)
_cell_length_b                   9.1559(2)
_cell_length_c                   28.1190(11)
_cell_angle_alpha                90
_cell_angle_beta                 121.726(5)
_cell_angle_gamma                90
_cell_volume                     6040.43
_exptl_crystal_colour            yellow
_exptl_crystal_description       block
_cell_formula_units_Z            4
loop_
_atom_site_label
_atom_site_type_symbol
_atom_site_fract_x
_atom_site_fract_y
_atom_site_fract_z
P1 P 0.39685(2) 0.75423(4) 0.43210(2)
Na1 Na 0.31128(3) 0.39561(6) 0.48392(3)
O1 O 0.38671(4) 0.52553(11) 0.57916(5)
O2 O 0.26859(4) 0.54863(11) 0.52721(5)
O3 O 0.42098(4) 0.30260(12) 0.53352(5)
O4 O 0.18683(4) 0.32393(11) 0.45882(5)
O5 O 0.22321(5) 0.29025(13) 0.38240(5)
O6 O 0.33607(5) 0.28048(13) 0.42001(5)
O7 O 0.32653(5) 0.60779(12) 0.45272(5)
C1 C 0.27799(6) 0.72532(15) 0.36600(6)
H1 H 0.2432 0.6908 0.3611
C2 C 0.32351(6) 0.86569(15) 0.32481(6)
H2 H 0.3183 0.9182 0.2933
C3 C 0.27465(6) 0.80886(15) 0.32262(6)
C4 C 0.21738(6) 0.83884(16) 0.27244(6)
C5 C 0.37853(6) 0.84891(15) 0.37041(6)
C6 C 0.32922(7) 0.68759(15) 0.41698(6)
C7 C 0.42626(6) 0.90737(16) 0.36562(6)
C8 C 0.20608(6) 0.96963(16) 0.24264(6)
H3 H 0.2354 1.0405 0.2546
C9 C 0.17295(6) 0.73673(16) 0.25334(6)
H4 H 0.1796 0.6469 0.2727
C10 C 0.11940(7) 0.76474(17) 0.20660(7)
H5 H 0.0898 0.6945 0.1944
C11 C 0.10916(6) 0.89521(18) 0.17782(7)
H6 H 0.0726 0.9146 0.1459
C12 C 0.36005(7) 0.66289(16) 0.57363(7)
H7 H 0.3506 0.7103 0.5381
H8 H 0.3860 0.7280 0.6049
C13 C 0.17010(6) 0.35627(17) 0.36523(7)
H9 H 0.1425 0.3361 0.3252
H10 H 0.1746 0.4634 0.3706
C14 C 0.21955(7) 0.50957(17) 0.52940(7)
H11 H 0.2067 0.5948 0.5416
H12 H 0.2295 0.4300 0.5569
C15 C 0.24210(7) 0.31260(18) 0.34452(7)
H13 H 0.2497 0.4175 0.3427
H14 H 0.2127 0.2794 0.3065
C16 C 0.15256(7) 0.99760(17) 0.19573(7)
H15 H 0.1457 1.0868 0.1759
C17 C 0.14945(6) 0.29174(17) 0.40073(7)
H16 H 0.1110 0.3306 0.3881
H17 H 0.1462 0.1845 0.3955
C18 C 0.47133(6) 0.98633(16) 0.40897(7)
H18 H 0.4726 1.0006 0.4431
C19 C 0.42685(7) 0.88381(17) 0.31682(7)
H19 H 0.3971 0.8288 0.2872
C20 C 0.30661(7) 0.63613(17) 0.57420(7)
H20 H 0.3161 0.5855 0.6092
H21 H 0.2882 0.7304 0.5726
C21 C 0.29560(7) 0.22567(18) 0.36596(7)
H22 H 0.2881 0.1209 0.3682
H23 H 0.3102 0.2362 0.3406
C22 C 0.43300(7) 0.31545(19) 0.49006(7)
H24 H 0.4725 0.2834 0.5039
H25 H 0.4291 0.4184 0.4778
C23 C 0.43847(6) 0.53772(17) 0.57962(7)
H26 H 0.4670 0.5945 0.6126
H27 H 0.4316 0.5878 0.5454
C24 C 0.51429(7) 1.04418(18) 0.40260(8)
H28 H 0.5442 1.0994 0.4321
C25 C 0.17262(7) 0.46044(16) 0.47305(7)
H29 H 0.1369 0.4499 0.4731
H30 H 0.1662 0.5347 0.4447
C26 C 0.45971(6) 0.38428(17) 0.58209(7)
H31 H 0.4973 0.3883 0.5855
H32 H 0.4648 0.3344 0.6157
C27 C 0.39160(7) 0.22119(18) 0.44207(7)
H33 H 0.4014 0.2197 0.4129
H34 H 0.3931 0.1198 0.4550
C28 C 0.47042(7) 0.93984(19) 0.31095(8)
H35 H 0.4704 0.9219 0.2777
C29 C 0.51374(7) 1.02176(18) 0.35366(8)
H36 H 0.5429 1.0623 0.3493
P1F P 0.10315(2) -0.25423(4) 0.56790(2)
Na1F Na 0.18872(3) 0.10439(6) 0.51608(3)
O1F O 0.11329(4) -0.02553(11) 0.42084(5)
O2F O 0.23141(4) -0.04863(11) 0.47279(5)
O3F O 0.07902(4) 0.19740(12) 0.46648(5)
O4F O 0.31317(4) 0.17607(11) 0.54118(5)
O5F O 0.27679(5) 0.20975(13) 0.61760(5)
O6F O 0.16393(5) 0.21952(13) 0.57999(5)
O7F O 0.17347(5) -0.10779(12) 0.54728(5)
C1F C 0.22201(6) -0.22532(15) 0.63400(6)
H1F H 0.2568 -0.1908 0.6389
C2F C 0.17649(6) -0.36569(15) 0.67519(6)
H2F H 0.1817 -0.4182 0.7067
C3F C 0.22535(6) -0.30886(15) 0.67738(6)
C4F C 0.28262(6) -0.33884(16) 0.72756(6)
C5F C 0.12147(6) -0.34891(15) 0.62959(6)
C6F C 0.17078(7) -0.18759(15) 0.58302(6)
C7F C 0.07374(6) -0.40737(16) 0.63438(6)
C8F C 0.29392(6) -0.46963(16) 0.75736(6)
H3F H 0.2646 -0.5405 0.7454
C9F C 0.32705(6) -0.23673(16) 0.74666(6)
H4F H 0.3204 -0.1469 0.7273
C10F C 0.38060(7) -0.26474(17) 0.79340(7)
H5F H 0.4102 -0.1945 0.8056
C11F C 0.39084(6) -0.39521(18) 0.82218(7)
H6F H 0.4274 -0.4146 0.8541
C12F C 0.13995(7) -0.16289(16) 0.42637(7)
H7F H 0.1494 -0.2103 0.4619
H8F H 0.1140 -0.2280 0.3951
C13F C 0.32990(6) 0.14373(17) 0.63477(7)
H9F H 0.3575 0.1639 0.6748
H10F H 0.3254 0.0366 0.6294
C14F C 0.28045(7) -0.00957(17) 0.47060(7)
H11F H 0.2933 -0.0948 0.4584
H12F H 0.2705 0.0700 0.4431
C15F C 0.25790(7) 0.18740(18) 0.65548(7)
H13F H 0.2503 0.0825 0.6573
H14F H 0.2873 0.2206 0.6935
C16F C 0.34744(7) -0.49760(17) 0.80427(7)
H15F H 0.3543 -0.5868 0.8241
C17F C 0.35055(6) 0.20826(17) 0.59927(7)
H16F H 0.3890 0.1694 0.6119
H17F H 0.3538 0.3155 0.6045
C18F C 0.02867(6) -0.48633(16) 0.59103(7)
H18F H 0.0274 -0.5006 0.5569
C19F C 0.07315(7) -0.38381(17) 0.68318(7)
H19F H 0.1029 -0.3288 0.7128
C20F C 0.19339(7) -0.13613(17) 0.42580(7)
H20F H 0.1839 -0.0855 0.3908
H21F H 0.2118 -0.2304 0.4274
C21F C 0.20440(7) 0.27433(18) 0.63404(7)
H22F H 0.2119 0.3791 0.6318
H23F H 0.1898 0.2638 0.6594
C22F C 0.06700(7) 0.18455(19) 0.50994(7)
H24F H 0.0275 0.2166 0.4961
H25F H 0.0709 0.0816 0.5222
C23F C 0.06153(6) -0.03772(17) 0.42038(7)
H26F H 0.0330 -0.0945 0.3874
H27F H 0.0684 -0.0878 0.4546
C24F C -0.01429(7) -0.54418(18) 0.59740(8)
H28F H -0.0442 -0.5994 0.5679
C25F C 0.32738(7) 0.03956(16) 0.52695(7)
H29F H 0.3631 0.0501 0.5269
H30F H 0.3338 -0.0347 0.5553
C26F C 0.04029(6) 0.11572(17) 0.41791(7)
H31F H 0.0027 0.1117 0.4145
H32F H 0.0352 0.1656 0.3843
C27F C 0.10840(7) 0.27881(18) 0.55793(7)
H33F H 0.0986 0.2803 0.5871
H34F H 0.1069 0.3802 0.5450
C28F C 0.02958(7) -0.43984(19) 0.68905(8)
H35F H 0.0296 -0.4219 0.7223
C29F C -0.01374(7) -0.52176(18) 0.64634(8)
H36F H -0.0429 -0.5623 0.6507
O8? O 0.47429(12) 0.6484(3) 0.22604(13)
C30? C 0.44138(13) 0.5358(4) 0.23220(16)
H37? H 0.4028 0.5298 0.1982
H38? H 0.4376 0.5568 0.2647
C31? C 0.4739(2) 0.3922(3) 0.2412(2)
H39? H 0.4629 0.3453 0.2051
H40? H 0.4674 0.3228 0.2643
C32? C 0.53597(16) 0.4460(4) 0.27205(19)
H41? H 0.5513 0.4602 0.3124
H42? H 0.5609 0.3774 0.2673
C33? C 0.52980(13) 0.5918(4) 0.24246(17)
H43? H 0.5600 0.6607 0.2681
H44? H 0.5328 0.5766 0.2092
loop_
_geom_bond_atom_site_label_1
_geom_bond_atom_site_label_2
_geom_bond_site_symmetry_1
_geom_bond_site_symmetry_2
P1 C5 1_555 1_555
Na1 O1 1_555 1_555
O1 C12 1_555 1_555
O2 Na1 1_555 1_555
O3 Na1 1_555 1_555
O4 C17 1_555 1_555
O5 Na1 1_555 1_555
O6 Na1 1_555 1_555
O7 Na1 1_555 1_555
C1 H1 1_555 1_555
C2 H2 1_555 1_555
C3 C1 1_555 1_555
C4 C3 1_555 1_555
C5 C2 1_555 1_555
C6 P1 1_555 1_555
C7 C5 1_555 1_555
C8 C4 1_555 1_555
H3 C8 1_555 1_555
C9 C4 1_555 1_555
H4 C9 1_555 1_555
C10 C9 1_555 1_555
H5 C10 1_555 1_555
C11 C10 1_555 1_555
H6 C11 1_555 1_555
C12 H7 1_555 1_555
H8 C12 1_555 1_555
C13 O5 1_555 1_555
H9 C13 1_555 1_555
H10 C13 1_555 1_555
C14 O2 1_555 1_555
H11 C14 1_555 1_555
H12 C14 1_555 1_555
C15 O5 1_555 1_555
H13 C15 1_555 1_555
H14 C15 1_555 1_555
C16 C8 1_555 1_555
H15 C16 1_555 1_555
C17 C13 1_555 1_555
H16 C17 1_555 1_555
H17 C17 1_555 1_555
C18 C7 1_555 1_555
H18 C18 1_555 1_555
C19 C7 1_555 1_555
H19 C19 1_555 1_555
C20 O2 1_555 1_555
H20 C20 1_555 1_555
H21 C20 1_555 1_555
C21 O6 1_555 1_555
H22 C21 1_555 1_555
H23 C21 1_555 1_555
C22 O3 1_555 1_555
H24 C22 1_555 1_555
H25 C22 1_555 1_555
C23 O1 1_555 1_555
H26 C23 1_555 1_555
H27 C23 1_555 1_555
C24 C18 1_555 1_555
H28 C24 1_555 1_555
C25 O4 1_555 1_555
H29 C25 1_555 1_555
H30 C25 1_555 1_555
C26 O3 1_555 1_555
H31 C26 1_555 1_555
H32 C26 1_555 1_555
C27 O6 1_555 1_555
H33 C27 1_555 1_555
H34 C27 1_555 1_555
C28 C19 1_555 1_555
H35 C28 1_555 1_555
C29 C24 1_555 1_555
H36 C29 1_555 1_555
P1F C5F 1_555 1_555
Na1F O4 1_555 1_555
O1F Na1F 1_555 1_555
O2F Na1F 1_555 1_555
O3F Na1F 1_555 1_555
O4F Na1 1_555 1_555
O5F Na1F 1_555 1_555
O6F Na1F 1_555 1_555
O7F Na1F 1_555 1_555
C1F H1F 1_555 1_555
C2F H2F 1_555 1_555
C3F C1F 1_555 1_555
C4F C3F 1_555 1_555
C5F C2F 1_555 1_555
C6F P1F 1_555 1_555
C7F C5F 1_555 1_555
C8F C4F 1_555 1_555
H3F C8F 1_555 1_555
C9F C4F 1_555 1_555
H4F C9F 1_555 1_555
C10F C9F 1_555 1_555
H5F C10F 1_555 1_555
C11F C10F 1_555 1_555
H6F C11F 1_555 1_555
C12F O1F 1_555 1_555
H7F C12F 1_555 1_555
H8F C12F 1_555 1_555
C13F O5F 1_555 1_555
H9F C13F 1_555 1_555
H10F C13F 1_555 1_555
C14F O2F 1_555 1_555
H11F C14F 1_555 1_555
H12F C14F 1_555 1_555
C15F O5F 1_555 1_555
H13F C15F 1_555 1_555
H14F C15F 1_555 1_555
C16F C8F 1_555 1_555
H15F C16F 1_555 1_555
C17F O4F 1_555 1_555
H16F C17F 1_555 1_555
H17F C17F 1_555 1_555
C18F C7F 1_555 1_555
H18F C18F 1_555 1_555
C19F C7F 1_555 1_555
H19F C19F 1_555 1_555
C20F O2F 1_555 1_555
H20F C20F 1_555 1_555
H21F C20F 1_555 1_555
C21F O6F 1_555 1_555
H22F C21F 1_555 1_555
H23F C21F 1_555 1_555
C22F O3F 1_555 1_555
H24F C22F 1_555 1_555
H25F C22F 1_555 1_555
C23F O1F 1_555 1_555
H26F C23F 1_555 1_555
H27F C23F 1_555 1_555
C24F C18F 1_555 1_555
H28F C24F 1_555 1_555
C25F O4F 1_555 1_555
H29F C25F 1_555 1_555
H30F C25F 1_555 1_555
C26F O3F 1_555 1_555
H31F C26F 1_555 1_555
H32F C26F 1_555 1_555
C27F O6F 1_555 1_555
H33F C27F 1_555 1_555
H34F C27F 1_555 1_555
C28F C19F 1_555 1_555
H35F C28F 1_555 1_555
C29F C24F 1_555 1_555
H36F C29F 1_555 1_555
O7 C6 1_555 1_555
C1 C6 1_555 1_555
C2 C3 1_555 1_555
C11 C16 1_555 1_555
C12 C20 1_555 1_555
C14 C25 1_555 1_555
C15 C21 1_555 1_555
C22 C27 1_555 1_555
C23 C26 1_555 1_555
C28 C29 1_555 1_555
O7F C6F 1_555 1_555
C1F C6F 1_555 1_555
C2F C3F 1_555 1_555
C11F C16F 1_555 1_555
C12F C20F 1_555 1_555
C13F C17F 1_555 1_555
C14F C25F 1_555 1_555
C15F C21F 1_555 1_555
C22F C27F 1_555 1_555
C23F C26F 1_555 1_555
C28F C29F 1_555 1_555

#END
