
#######################################################################
#
#                 Cambridge Crystallographic Data Centre
#                                CCDC 
#
#######################################################################
#
# If this CIF has been generated from an entry in the Cambridge 
# Structural Database, then it will include bibliographic, chemical, 
# crystal, experimental, refinement or atomic coordinate data resulting 
# from the CCDC's data processing and validation procedures.
#
#######################################################################

data_KIWWUK
_chemical_formula_moiety         'C27 H37 B1 N2'
_chemical_name_systematic        
3,5-Di-t-butyl-1-(2,6-dimethylphenyl)-2-((2,6-dimethylphenyl)imino)-2H-1,2-azaborol-1-ium-2-ide
_symmetry_cell_setting           orthorhombic
_symmetry_space_group_name_H-M   'P n m a'
_symmetry_Int_Tables_number      62
_space_group_name_Hall           '-P 2ac 2n'
loop_
_symmetry_equiv_pos_site_id
_symmetry_equiv_pos_as_xyz
1 x,y,z
2 1/2-x,-y,1/2+z
3 -x,1/2+y,-z
4 1/2+x,1/2-y,1/2-z
5 -x,-y,-z
6 1/2+x,y,1/2-z
7 x,1/2-y,z
8 1/2-x,1/2+y,1/2+z
_cell_length_a                   19.302(5)
_cell_length_b                   11.162(3)
_cell_length_c                   11.311(3)
_cell_angle_alpha                90
_cell_angle_beta                 90
_cell_angle_gamma                90
_cell_volume                     2436.94
_exptl_crystal_colour            blue
_exptl_crystal_description       prism
_cell_formula_units_Z            4
_exptl_crystal_recrystallization_method toluene
loop_
_atom_site_label
_atom_site_type_symbol
_atom_site_fract_x
_atom_site_fract_y
_atom_site_fract_z
B1 B 0.07310(8) 0.2500 0.12037(14)
N1 N 0.14248(6) 0.2500 0.12324(10)
N2 N 0.03363(6) 0.2500 0.24164(10)
C1 C 0.18849(7) 0.2500 0.02974(12)
C2 C 0.21335(5) 0.14059(10) -0.01668(9)
C3 C 0.25678(5) 0.14274(13) -0.11510(10)
H1 H 0.2725 0.0693 -0.1481
C4 C 0.27748(8) 0.2500 -0.16564(14)
H2 H 0.3057 0.2500 -0.2345
C5 C 0.19126(6) 0.02436(11) 0.03845(11)
H3 H 0.1415 0.0126 0.0258
H4 H 0.2009 0.0264 0.1235
H5 H 0.2169 -0.0418 0.0021
C6 C 0.07145(7) 0.2500 0.35198(12)
C7 C 0.09174(5) 0.14052(10) 0.40016(9)
C8 C 0.13157(6) 0.14271(11) 0.50277(10)
H6 H 0.1455 0.0694 0.5381
C9 C 0.15109(9) 0.2500 0.55405(14)
H7 H 0.1779 0.2500 0.6245
C10 C 0.07052(6) 0.02436(10) 0.34384(11)
H8 H 0.0209 0.0110 0.3570
H9 H 0.0970 -0.0415 0.3790
H10 H 0.0798 0.0278 0.2587
C11 C 0.00994(7) 0.2500 0.02935(12)
C12 C -0.04781(7) 0.2500 0.09631(13)
H11 H -0.0933 0.2500 0.0642
C13 C -0.03344(7) 0.2500 0.22347(12)
C14 C 0.01013(7) 0.2500 -0.10455(12)
C15 C -0.06353(7) 0.2500 -0.15550(13)
H12 H -0.0612 0.2500 -0.2421
H13 H -0.0882 0.3217 -0.1285
C16 C 0.04807(5) 0.13835(10) -0.14947(9)
H14 H 0.0961 0.1394 -0.1211
H15 H 0.0477 0.1378 -0.2361
H16 H 0.0247 0.0664 -0.1199
C17 C -0.09288(7) 0.2500 0.31090(13)
C18 C -0.13702(6) 0.13799(11) 0.28549(11)
H17 H -0.1533 0.1403 0.2035
H18 H -0.1769 0.1365 0.3390
H19 H -0.1089 0.0660 0.2978
C19 C -0.07244(8) 0.2500 0.44129(14)
H20 H -0.1143 0.2500 0.4903
H21 H -0.0449 0.3217 0.4586
H13F H -0.0882 0.1783 -0.1285
H21F H -0.0449 0.1783 0.4586
C2F C 0.21335(5) 0.35941(10) -0.01668(9)
C3F C 0.25678(5) 0.35726(13) -0.11510(10)
H1F H 0.2725 0.4307 -0.1481
C5F C 0.19126(6) 0.47564(11) 0.03845(11)
H3F H 0.1415 0.4874 0.0258
H4F H 0.2009 0.4736 0.1235
H5F H 0.2169 0.5418 0.0021
C7F C 0.09174(5) 0.35948(10) 0.40016(9)
C8F C 0.13157(6) 0.35729(11) 0.50277(10)
H6F H 0.1455 0.4306 0.5381
C10F C 0.07052(6) 0.47564(10) 0.34384(11)
H8F H 0.0209 0.4890 0.3570
H9F H 0.0970 0.5415 0.3790
H10F H 0.0798 0.4722 0.2587
C16F C 0.04807(5) 0.36165(10) -0.14947(9)
H14F H 0.0961 0.3606 -0.1211
H15F H 0.0477 0.3622 -0.2361
H16F H 0.0247 0.4336 -0.1199
C18F C -0.13702(6) 0.36201(11) 0.28549(11)
H17F H -0.1533 0.3597 0.2035
H18F H -0.1769 0.3635 0.3390
H19F H -0.1089 0.4340 0.2978
H22? H -0.0882 0.3217 -0.1285
H23? H -0.0449 0.3217 0.4586
loop_
_geom_bond_atom_site_label_1
_geom_bond_atom_site_label_2
_geom_bond_site_symmetry_1
_geom_bond_site_symmetry_2
B1 N1 1_555 1_555
N1 C1 1_555 1_555
N2 B1 1_555 1_555
C1 C2 1_555 1_555
C2 C3 1_555 1_555
C3 H1 1_555 1_555
C4 C3 1_555 1_555
H2 C4 1_555 1_555
C5 C2 1_555 1_555
H3 C5 1_555 1_555
H4 C5 1_555 1_555
H5 C5 1_555 1_555
C6 N2 1_555 1_555
C7 C6 1_555 1_555
C8 C7 1_555 1_555
H6 C8 1_555 1_555
C9 C8 1_555 1_555
H7 C9 1_555 1_555
C10 C7 1_555 1_555
H8 C10 1_555 1_555
H9 C10 1_555 1_555
H10 C10 1_555 1_555
C11 B1 1_555 1_555
C12 C11 1_555 1_555
H11 C12 1_555 1_555
C13 N2 1_555 1_555
C14 C11 1_555 1_555
C15 C14 1_555 1_555
H12 C15 1_555 1_555
H13 C15 1_555 1_555
C16 C14 1_555 1_555
H14 C16 1_555 1_555
H15 C16 1_555 1_555
H16 C16 1_555 1_555
C17 C13 1_555 1_555
C18 C17 1_555 1_555
H17 C18 1_555 1_555
H18 C18 1_555 1_555
H19 C18 1_555 1_555
C19 C17 1_555 1_555
H20 C19 1_555 1_555
H21 C19 1_555 1_555
H13F C15 1_555 1_555
H21F C19 1_555 1_555
C2F C1 1_555 1_555
C3F C4 1_555 1_555
H1F C3F 1_555 1_555
C5F C2F 1_555 1_555
H3F C5F 1_555 1_555
H4F C5F 1_555 1_555
H5F C5F 1_555 1_555
C7F C6 1_555 1_555
C8F C9 1_555 1_555
H6F C8F 1_555 1_555
C10F C7F 1_555 1_555
H8F C10F 1_555 1_555
H9F C10F 1_555 1_555
H10F C10F 1_555 1_555
C16F C14 1_555 1_555
H14F C16F 1_555 1_555
H15F C16F 1_555 1_555
H16F C16F 1_555 1_555
C18F C17 1_555 1_555
H17F C18F 1_555 1_555
H18F C18F 1_555 1_555
H19F C18F 1_555 1_555
C12 C13 1_555 1_555
C2F C3F 1_555 1_555
C7F C8F 1_555 1_555

#END
