
#######################################################################
#
#                 Cambridge Crystallographic Data Centre
#                                CCDC 
#
#######################################################################
#
# If this CIF has been generated from an entry in the Cambridge 
# Structural Database, then it will include bibliographic, chemical, 
# crystal, experimental, refinement or atomic coordinate data resulting 
# from the CCDC's data processing and validation procedures.
#
#######################################################################

data_KIXLIO
_chemical_formula_moiety         'C14 H22 B1 N1 O2'
_chemical_name_systematic        
7-benzyl-1,5-dioxa-7-azonia-6-borataspiro[5.5]undecane
_symmetry_cell_setting           monoclinic
_symmetry_space_group_name_H-M   'P 21/c'
_symmetry_Int_Tables_number      14
_space_group_name_Hall           '-P 2ybc'
loop_
_symmetry_equiv_pos_site_id
_symmetry_equiv_pos_as_xyz
1 x,y,z
2 -x,1/2+y,1/2-z
3 -x,-y,-z
4 x,1/2-y,1/2+z
_cell_length_a                   9.1581(4)
_cell_length_b                   17.0898(8)
_cell_length_c                   9.3556(4)
_cell_angle_alpha                90
_cell_angle_beta                 112.0740(10)
_cell_angle_gamma                90
_cell_volume                     1356.92
_exptl_crystal_colour            colorless
_exptl_crystal_description       block
_cell_formula_units_Z            4
loop_
_atom_site_label
_atom_site_type_symbol
_atom_site_fract_x
_atom_site_fract_y
_atom_site_fract_z
O1 O 0.22809(18) 0.95994(9) 0.12073(16)
O2 O 0.40531(18) 1.04629(8) 0.32247(15)
N1 N 0.31966(19) 0.92008(9) 0.38920(19)
B1 B 0.3695(3) 0.96614(13) 0.2604(2)
C1 C 0.3006(3) 0.83428(11) 0.3553(3)
C2 C 0.4472(3) 0.79764(12) 0.3457(3)
C3 C 0.4920(3) 0.83395(13) 0.2195(3)
C4 C 0.5198(3) 0.92168(12) 0.2491(3)
C5 C 0.1734(2) 0.95480(12) 0.4001(2)
C6 C 0.1072(2) 0.90872(11) 0.4992(2)
C7 C 0.1803(3) 0.90841(13) 0.6586(3)
C8 C 0.1212(3) 0.86342(14) 0.7480(3)
C9 C -0.0115(3) 0.81855(14) 0.6785(3)
C10 C -0.0874(3) 0.81940(14) 0.5201(3)
C11 C -0.0286(3) 0.86443(13) 0.4315(3)
C12 C 0.2065(3) 1.01836(15) 0.0104(3)
C13 C 0.2245(4) 1.09763(16) 0.0751(3)
C14 C 0.3751(3) 1.10657(14) 0.2129(3)
H1 H 0.272(3) 0.8084(13) 0.436(3)
H2 H 0.211(3) 0.8296(13) 0.256(3)
H3 H 0.400(3) 0.9272(12) 0.482(3)
H4 H 0.431(3) 0.7417(16) 0.330(3)
H5 H 0.537(3) 0.8029(13) 0.446(3)
H6 H 0.582(3) 0.8071(14) 0.212(3)
H7 H 0.405(3) 0.8258(14) 0.117(3)
H8 H 0.614(3) 0.9281(13) 0.345(3)
H9 H 0.543(3) 0.9471(14) 0.164(3)
H10 H 0.201(3) 1.0076(14) 0.439(2)
H11 H 0.097(3) 0.9570(12) 0.294(3)
H12 H 0.275(3) 0.9402(15) 0.707(3)
H13 H 0.173(3) 0.8641(15) 0.855(3)
H14 H -0.052(3) 0.7869(17) 0.740(3)
H15 H -0.182(3) 0.7880(16) 0.469(3)
H16 H -0.080(3) 0.8652(14) 0.323(3)
H17 H 0.105(3) 1.0102(15) -0.077(3)
H18 H 0.292(3) 1.0100(17) -0.037(3)
H19 H 0.123(4) 1.107(2) 0.118(4)
H20 H 0.228(4) 1.1387(19) 0.000(4)
H21 H 0.387(3) 1.1540(17) 0.267(3)
H22 H 0.464(4) 1.104(2) 0.158(4)
loop_
_geom_bond_atom_site_label_1
_geom_bond_atom_site_label_2
_geom_bond_site_symmetry_1
_geom_bond_site_symmetry_2
O1 B1 1_555 1_555
O2 B1 1_555 1_555
N1 B1 1_555 1_555
B1 C4 1_555 1_555
C1 N1 1_555 1_555
C2 C1 1_555 1_555
C3 C2 1_555 1_555
C4 C3 1_555 1_555
C5 N1 1_555 1_555
C6 C5 1_555 1_555
C7 C6 1_555 1_555
C8 C7 1_555 1_555
C9 C8 1_555 1_555
C10 C9 1_555 1_555
C11 C6 1_555 1_555
C12 O1 1_555 1_555
C13 C12 1_555 1_555
C14 O2 1_555 1_555
H1 C1 1_555 1_555
H2 C1 1_555 1_555
H3 N1 1_555 1_555
H4 C2 1_555 1_555
H5 C2 1_555 1_555
H6 C3 1_555 1_555
H7 C3 1_555 1_555
H8 C4 1_555 1_555
H9 C4 1_555 1_555
H10 C5 1_555 1_555
H11 C5 1_555 1_555
H12 C7 1_555 1_555
H13 C8 1_555 1_555
H14 C9 1_555 1_555
H15 C10 1_555 1_555
H16 C11 1_555 1_555
H17 C12 1_555 1_555
H18 C12 1_555 1_555
H19 C13 1_555 1_555
H20 C13 1_555 1_555
H21 C14 1_555 1_555
H22 C14 1_555 1_555
C10 C11 1_555 1_555
C13 C14 1_555 1_555

#END
