
#######################################################################
#
#                 Cambridge Crystallographic Data Centre
#                                CCDC 
#
#######################################################################
#
# If this CIF has been generated from an entry in the Cambridge 
# Structural Database, then it will include bibliographic, chemical, 
# crystal, experimental, refinement or atomic coordinate data resulting 
# from the CCDC's data processing and validation procedures.
#
#######################################################################

data_KIYDOO
_chemical_formula_moiety         'C21 H18 N2 O3 S1'
_chemical_name_systematic        
5'-methyl-6a,6b,7,11a-tetrahydro-6H,9H-spiro[1-benzopyrano[3',4':3,4]pyrrolo[1,2-c][1,3]thiazole-11,3'-indole]-2',6(1'H)-dione
_symmetry_cell_setting           triclinic
_symmetry_space_group_name_H-M   'P -1'
_symmetry_Int_Tables_number      2
_space_group_name_Hall           '-P 1'
loop_
_symmetry_equiv_pos_site_id
_symmetry_equiv_pos_as_xyz
1 x,y,z
2 -x,-y,-z
_cell_length_a                   8.3648(5)
_cell_length_b                   9.7648(6)
_cell_length_c                   11.9677(7)
_cell_angle_alpha                112.622(1)
_cell_angle_beta                 99.388(1)
_cell_angle_gamma                91.885(1)
_cell_volume                     885.313
_exptl_crystal_colour            colorless
_exptl_crystal_description       Block
_cell_formula_units_Z            2
loop_
_atom_site_label
_atom_site_type_symbol
_atom_site_fract_x
_atom_site_fract_y
_atom_site_fract_z
S1 S -0.29132(5) 0.74000(6) 0.23215(5)
O1 O 0.28203(16) 0.52624(15) 0.43732(11)
O2 O 0.13654(18) 0.64554(16) 0.57307(11)
O3 O 0.33381(14) 0.85985(13) 0.48566(10)
N1 N 0.00582(14) 0.86415(13) 0.35425(11)
N2 N 0.38289(15) 0.95200(14) 0.34299(12)
H1 H 0.470194 1.010156 0.384421
C1 C 0.1543(2) 0.60502(18) 0.46820(14)
C2 C 0.3272(2) 0.48986(17) 0.32294(14)
C3 C 0.4559(2) 0.4032(2) 0.30405(18)
H2 H 0.504909 0.372078 0.364539
C4 C 0.5103(2) 0.3637(2) 0.19411(19)
H3 H 0.597736 0.306867 0.180813
C5 C 0.4360(2) 0.4081(2) 0.10393(18)
H4 H 0.472276 0.380135 0.029583
C6 C 0.3071(2) 0.49431(17) 0.12417(15)
H5 H 0.257290 0.523540 0.062749
C7 C 0.25060(17) 0.53824(15) 0.23529(13)
C8 C 0.10802(17) 0.62702(14) 0.25841(12)
H6 H 0.022930 0.584116 0.184089
C9 C 0.03505(18) 0.62333(16) 0.36667(12)
H7 H -0.050188 0.539144 0.334102
C10 C -0.04772(19) 0.76820(17) 0.41498(13)
H8 H -0.011738 0.818793 0.504508
C11 C -0.2345(2) 0.7416(2) 0.3835(2)
H9 H -0.281609 0.820745 0.442410
H10 H -0.271795 0.647102 0.384579
C12 C -0.1351(2) 0.8969(2) 0.28430(17)
H11 H -0.105957 0.911235 0.214080
H12 H -0.175301 0.987402 0.335626
C13 C 0.13847(16) 0.79580(15) 0.28968(12)
C14 C 0.29735(17) 0.87016(15) 0.38586(13)
C15 C 0.31155(17) 0.93035(16) 0.22215(14)
C16 C 0.3694(2) 0.98465(19) 0.14429(16)
H13 H 0.466289 1.047091 0.169880
C17 C 0.2784(2) 0.94312(19) 0.02629(16)
H14 H 0.315011 0.980334 -0.026878
C18 C 0.1343(2) 0.84777(16) -0.01552(14)
C19 C 0.07923(19) 0.79402(15) 0.06572(13)
H15 H -0.015862 0.729181 0.039691
C20 C 0.16607(17) 0.83718(14) 0.18489(13)
C21 C 0.0385(3) 0.8044(2) -0.14405(15)
H16 H -0.023462 0.884117 -0.147536
H17 H -0.034059 0.716052 -0.165745
H18 H 0.111978 0.785222 -0.200908
loop_
_geom_bond_atom_site_label_1
_geom_bond_atom_site_label_2
_geom_bond_site_symmetry_1
_geom_bond_site_symmetry_2
S1 C11 1_555 1_555
O1 C1 1_555 1_555
O2 C1 1_555 1_555
O3 C14 1_555 1_555
N1 C10 1_555 1_555
N2 H1 1_555 1_555
C1 C9 1_555 1_555
C2 O1 1_555 1_555
C3 C2 1_555 1_555
H2 C3 1_555 1_555
C4 C3 1_555 1_555
H3 C4 1_555 1_555
C5 C4 1_555 1_555
H4 C5 1_555 1_555
C6 C5 1_555 1_555
H5 C6 1_555 1_555
C7 C2 1_555 1_555
C8 C7 1_555 1_555
H6 C8 1_555 1_555
C9 C8 1_555 1_555
H7 C9 1_555 1_555
C10 C9 1_555 1_555
H8 C10 1_555 1_555
C11 C10 1_555 1_555
H9 C11 1_555 1_555
H10 C11 1_555 1_555
C12 S1 1_555 1_555
H11 C12 1_555 1_555
H12 C12 1_555 1_555
C13 N1 1_555 1_555
C14 N2 1_555 1_555
C15 N2 1_555 1_555
C16 C15 1_555 1_555
H13 C16 1_555 1_555
C17 C16 1_555 1_555
H14 C17 1_555 1_555
C18 C17 1_555 1_555
C19 C18 1_555 1_555
H15 C19 1_555 1_555
C20 C13 1_555 1_555
C21 C18 1_555 1_555
H16 C21 1_555 1_555
H17 C21 1_555 1_555
H18 C21 1_555 1_555
N1 C12 1_555 1_555
C6 C7 1_555 1_555
C8 C13 1_555 1_555
C13 C14 1_555 1_555
C15 C20 1_555 1_555
C19 C20 1_555 1_555

#END
