
#######################################################################
#
#                 Cambridge Crystallographic Data Centre
#                                CCDC 
#
#######################################################################
#
# If this CIF has been generated from an entry in the Cambridge 
# Structural Database, then it will include bibliographic, chemical, 
# crystal, experimental, refinement or atomic coordinate data resulting 
# from the CCDC's data processing and validation procedures.
#
#######################################################################

data_KIYFOP
_chemical_name_common            
(8aS,9R,10S,12aR)-10-Hydroxy-9-propyldecahydrobenzo[b]pyrrolo[1,2-a]azepin-5(1H)-one
_chemical_formula_moiety         'C16 H27 N1 O2'
_chemical_name_systematic        
(8aS,9R,10S,12aR)-10-Hydroxy-9-propyldecahydro-1H,5H-pyrrolo[2,1-k][1]benzazepin-5-one
_symmetry_cell_setting           orthorhombic
_symmetry_space_group_name_H-M   'P n a 21'
_symmetry_Int_Tables_number      33
_space_group_name_Hall           'P 2c -2n'
loop_
_symmetry_equiv_pos_site_id
_symmetry_equiv_pos_as_xyz
1 x,y,z
2 -x,-y,1/2+z
3 1/2+x,1/2-y,z
4 1/2-x,1/2+y,1/2+z
_cell_length_a                   20.4107(7)
_cell_length_b                   8.6349(3)
_cell_length_c                   16.7557(6)
_cell_angle_alpha                90
_cell_angle_beta                 90
_cell_angle_gamma                90
_cell_volume                     2953.1
_exptl_crystal_colour            colorless
_exptl_crystal_description       Irregular
_chemical_melting_point          '134-135 deg.C'
_cell_formula_units_Z            8
loop_
_atom_site_label
_atom_site_type_symbol
_atom_site_fract_x
_atom_site_fract_y
_atom_site_fract_z
O1 O 0.66728(4) 0.01506(10) 0.42015(6)
O2 O 0.53736(5) 0.46267(10) 0.71198(5)
H1 H 0.5473(9) 0.536(2) 0.7406(12)
N1 N 0.61433(5) 0.23184(11) 0.45332(6)
C1 C 0.64079(6) 0.09432(14) 0.47279(7)
C2 C 0.63975(7) 0.03697(15) 0.55818(8)
H2 H 0.6638(8) 0.108(2) 0.5905(10)
H3 H 0.6625(9) -0.059(2) 0.5557(10)
C3 C 0.57162(7) 0.01387(14) 0.59326(8)
H4 H 0.5426(8) -0.0389(19) 0.5542(10)
H5 H 0.5748(8) -0.0569(18) 0.6383(10)
C4 C 0.53918(6) 0.16436(13) 0.61961(7)
H6 H 0.5679(7) 0.2146(16) 0.6588(9)
H7 H 0.4988(8) 0.1355(17) 0.6485(9)
C5 C 0.51930(6) 0.27685(12) 0.55310(7)
H8 H 0.4905(7) 0.2165(15) 0.5138(8)
C6 C 0.47859(6) 0.41367(13) 0.58819(7)
H9 H 0.4623(7) 0.4696(16) 0.5426(9)
C7 C 0.52033(6) 0.52955(13) 0.63641(7)
H10 H 0.4928(7) 0.6240(16) 0.6458(8)
C8 C 0.58202(6) 0.58141(14) 0.59174(8)
H11 H 0.6107(8) 0.6349(19) 0.6309(10)
H12 H 0.5693(7) 0.6581(17) 0.5501(9)
C9 C 0.62019(6) 0.44804(14) 0.55295(8)
H13 H 0.6402(7) 0.3819(18) 0.5938(9)
H14 H 0.6564(8) 0.4888(17) 0.5178(9)
C10 C 0.57495(6) 0.34649(12) 0.50125(7)
C11 C 0.54486(6) 0.44146(14) 0.43199(7)
H15 H 0.5063(7) 0.3847(16) 0.4121(9)
H16 H 0.5299(7) 0.5443(18) 0.4497(9)
C12 C 0.59797(6) 0.44894(14) 0.36865(8)
H17 H 0.6310(8) 0.5249(17) 0.3818(9)
H18 H 0.5815(8) 0.472(2) 0.3164(11)
C13 C 0.62634(6) 0.28669(14) 0.37026(7)
H19 H 0.6036(7) 0.2218(15) 0.3321(9)
H20 H 0.6729(7) 0.2864(16) 0.3593(9)
C14 C 0.41805(6) 0.35690(13) 0.63425(7)
H21 H 0.4308(8) 0.3197(17) 0.6869(9)
H22 H 0.3979(7) 0.2666(17) 0.6034(9)
C15 C 0.36451(7) 0.47832(15) 0.64408(8)
H23 H 0.3841(8) 0.570(2) 0.6740(9)
H24 H 0.3507(8) 0.5176(18) 0.5914(11)
C16 C 0.30448(7) 0.41634(17) 0.68795(9)
H25 H 0.2868(8) 0.332(2) 0.6587(11)
H26 H 0.3170(8) 0.3798(19) 0.7421(11)
H27 H 0.2714(9) 0.489(2) 0.6915(11)
O3 O 0.45376(5) 0.25351(10) 0.28451(6)
O4 O 0.22380(4) -0.22534(10) 0.43785(6)
H28 H 0.1992(9) -0.301(2) 0.4309(10)
N2 N 0.43193(5) 0.02836(11) 0.34455(6)
C17 C 0.41248(6) 0.16646(14) 0.31594(7)
C18 C 0.34244(7) 0.21842(14) 0.32334(8)
H29 H 0.3419(7) 0.315(2) 0.2958(9)
H30 H 0.3125(8) 0.1472(19) 0.2933(10)
C19 C 0.31960(6) 0.23242(14) 0.41012(8)
H31 H 0.2815(8) 0.3014(18) 0.4117(9)
H32 H 0.3551(8) 0.2767(18) 0.4408(10)
C20 C 0.29921(6) 0.07752(14) 0.44606(8)
H33 H 0.2665(8) 0.0299(17) 0.4105(9)
H34 H 0.2781(7) 0.0955(17) 0.5009(9)
C21 C 0.35477(6) -0.03941(13) 0.46118(7)
H35 H 0.3878(7) 0.0090(14) 0.4969(8)
C22 C 0.32832(6) -0.18598(13) 0.50533(7)
H36 H 0.3673(7) -0.2499(16) 0.5197(9)
C23 C 0.28705(6) -0.29234(13) 0.45171(7)
H37 H 0.2796(7) -0.3920(17) 0.4812(8)
C24 C 0.32081(6) -0.33069(13) 0.37233(8)
H38 H 0.3546(7) -0.4082(16) 0.3811(8)
H39 H 0.2889(8) -0.3804(19) 0.3385(10)
C25 C 0.35063(6) -0.18899(13) 0.33083(7)
H40 H 0.3765(7) -0.2216(17) 0.2847(10)
H41 H 0.3144(7) -0.1209(16) 0.3117(8)
C26 C 0.39486(6) -0.09662(13) 0.38826(6)
C27 C 0.45289(6) -0.19727(13) 0.41763(7)
H42 H 0.4679(7) -0.1534(17) 0.4660(9)
H43 H 0.4405(7) -0.3050(16) 0.4259(8)
C28 C 0.50563(6) -0.18204(14) 0.35392(8)
H44 H 0.4936(7) -0.2438(18) 0.3090(9)
H45 H 0.5505(8) -0.2111(18) 0.3727(10)
C29 C 0.50153(6) -0.01183(14) 0.33304(7)
H46 H 0.5146(8) 0.0168(17) 0.2788(10)
H47 H 0.5270(7) 0.0480(17) 0.3691(9)
C30 C 0.29211(6) -0.15165(14) 0.58338(7)
H48 H 0.2524(8) -0.0943(17) 0.5731(9)
H49 H 0.2796(7) -0.2535(18) 0.6068(8)
C31 C 0.33249(7) -0.06477(16) 0.64540(8)
H50 H 0.3740(8) -0.121(2) 0.6596(10)
H51 H 0.3484(9) 0.035(2) 0.6220(10)
C32 C 0.29300(8) -0.0319(2) 0.72081(8)
H52 H 0.2780(10) -0.132(2) 0.7448(13)
H53 H 0.3186(10) 0.025(2) 0.7607(13)
H54 H 0.2525(10) 0.028(2) 0.7061(11)
loop_
_geom_bond_atom_site_label_1
_geom_bond_atom_site_label_2
_geom_bond_site_symmetry_1
_geom_bond_site_symmetry_2
O1 C1 1_555 1_555
O2 H1 1_555 1_555
N1 C1 1_555 1_555
C1 C2 1_555 1_555
C2 H2 1_555 1_555
H3 C2 1_555 1_555
C3 C2 1_555 1_555
H4 C3 1_555 1_555
H5 C3 1_555 1_555
C4 C3 1_555 1_555
H6 C4 1_555 1_555
H7 C4 1_555 1_555
C5 C4 1_555 1_555
H8 C5 1_555 1_555
C6 C5 1_555 1_555
H9 C6 1_555 1_555
C7 O2 1_555 1_555
H10 C7 1_555 1_555
C8 C7 1_555 1_555
H11 C8 1_555 1_555
H12 C8 1_555 1_555
C9 C8 1_555 1_555
H13 C9 1_555 1_555
H14 C9 1_555 1_555
C10 N1 1_555 1_555
C11 C10 1_555 1_555
H15 C11 1_555 1_555
H16 C11 1_555 1_555
C12 C11 1_555 1_555
H17 C12 1_555 1_555
H18 C12 1_555 1_555
C13 N1 1_555 1_555
H19 C13 1_555 1_555
H20 C13 1_555 1_555
C14 C6 1_555 1_555
H21 C14 1_555 1_555
H22 C14 1_555 1_555
C15 C14 1_555 1_555
H23 C15 1_555 1_555
H24 C15 1_555 1_555
C16 C15 1_555 1_555
H25 C16 1_555 1_555
H26 C16 1_555 1_555
H27 C16 1_555 1_555
O3 C17 1_555 1_555
O4 H28 1_555 1_555
N2 C17 1_555 1_555
C17 C18 1_555 1_555
C18 H29 1_555 1_555
H30 C18 1_555 1_555
C19 C18 1_555 1_555
H31 C19 1_555 1_555
H32 C19 1_555 1_555
C20 C19 1_555 1_555
H33 C20 1_555 1_555
H34 C20 1_555 1_555
C21 C20 1_555 1_555
H35 C21 1_555 1_555
C22 C21 1_555 1_555
H36 C22 1_555 1_555
C23 O4 1_555 1_555
H37 C23 1_555 1_555
C24 C23 1_555 1_555
H38 C24 1_555 1_555
H39 C24 1_555 1_555
C25 C24 1_555 1_555
H40 C25 1_555 1_555
H41 C25 1_555 1_555
C26 N2 1_555 1_555
C27 C26 1_555 1_555
H42 C27 1_555 1_555
H43 C27 1_555 1_555
C28 C27 1_555 1_555
H44 C28 1_555 1_555
H45 C28 1_555 1_555
C29 N2 1_555 1_555
H46 C29 1_555 1_555
H47 C29 1_555 1_555
C30 C22 1_555 1_555
H48 C30 1_555 1_555
H49 C30 1_555 1_555
C31 C30 1_555 1_555
H50 C31 1_555 1_555
H51 C31 1_555 1_555
C32 C31 1_555 1_555
H52 C32 1_555 1_555
H53 C32 1_555 1_555
H54 C32 1_555 1_555
C5 C10 1_555 1_555
C6 C7 1_555 1_555
C9 C10 1_555 1_555
C12 C13 1_555 1_555
C21 C26 1_555 1_555
C22 C23 1_555 1_555
C25 C26 1_555 1_555
C28 C29 1_555 1_555

#END
