
#######################################################################
#
#                 Cambridge Crystallographic Data Centre
#                                CCDC 
#
#######################################################################
#
# If this CIF has been generated from an entry in the Cambridge 
# Structural Database, then it will include bibliographic, chemical, 
# crystal, experimental, refinement or atomic coordinate data resulting 
# from the CCDC's data processing and validation procedures.
#
#######################################################################

data_KIYTIY
_chemical_formula_moiety         'C25 H18 O4 S1'
_chemical_name_systematic        
4-{4-[(4-methoxyphenyl)sulfonyl]phenyl}dibenzo[b,d]furan
_symmetry_cell_setting           triclinic
_symmetry_space_group_name_H-M   'P -1'
_symmetry_Int_Tables_number      2
_space_group_name_Hall           '-P 1'
loop_
_symmetry_equiv_pos_site_id
_symmetry_equiv_pos_as_xyz
1 x,y,z
2 -x,-y,-z
_cell_length_a                   10.7900(5)
_cell_length_b                   12.1584(6)
_cell_length_c                   17.7615(9)
_cell_angle_alpha                89.357(4)
_cell_angle_beta                 76.058(4)
_cell_angle_gamma                63.676(5)
_cell_volume                     2014.67
_exptl_crystal_colour            colorless
_exptl_crystal_description       block
_cell_formula_units_Z            4
loop_
_atom_site_label
_atom_site_type_symbol
_atom_site_fract_x
_atom_site_fract_y
_atom_site_fract_z
S1 S 0.32995(4) 0.39806(4) 0.41360(2)
O1 O 0.25374(14) 0.36505(13) 0.48054(7)
O2 O 0.33685(15) 0.01426(12) 0.14815(7)
O3 O 0.43768(14) 0.43261(13) 0.42147(8)
O4 O -0.08104(15) 0.78912(13) 0.27723(8)
C1 C 0.20400(17) 0.51674(14) 0.37498(9)
C2 C 0.40912(16) 0.27389(14) 0.33883(8)
C3 C 0.51707(17) 0.09176(14) 0.21502(9)
C4 C 0.51897(17) 0.26673(16) 0.27632(9)
H1 H 0.5559 0.3230 0.2755
C5 C 0.24335(18) 0.59649(16) 0.33096(10)
H2 H 0.3354 0.5887 0.3228
C6 C 0.4841(2) -0.03788(15) 0.11972(9)
C7 C 0.00806(18) 0.69703(15) 0.31059(9)
C8 C 0.57292(17) 0.17504(16) 0.21524(9)
H3 H 0.6478 0.1689 0.1736
C9 C 0.57222(19) -0.00384(15) 0.14791(9)
C10 C 0.35423(19) 0.19047(15) 0.34111(9)
H4 H 0.2820 0.1950 0.3839
C11 C 0.4077(2) 0.10025(15) 0.27921(9)
H5 H 0.3703 0.0443 0.2803
C12 C 0.14482(19) 0.68723(16) 0.29950(10)
H6 H 0.1697 0.7422 0.2707
C13 C -0.03078(18) 0.61716(17) 0.35484(11)
H7 H -0.1226 0.6243 0.3628
C14 C 0.06761(18) 0.52720(16) 0.38690(10)
H8 H 0.0423 0.4733 0.4167
C15 C 0.5339(2) -0.12884(16) 0.05723(10)
C16 C 0.4079(3) -0.13394(18) 0.04728(11)
C17 C 0.2915(3) -0.0451(2) 0.10320(11)
C18 C 0.6797(3) -0.18865(18) 0.02031(11)
H9 H 0.7154 -0.2496 -0.0213
C19 C 0.7177(2) -0.06538(19) 0.10869(11)
H10 H 0.7817 -0.0452 0.1247
C20 C 0.7695(3) -0.1562(2) 0.04622(13)
H11 H 0.8671 -0.1955 0.0217
C21 C 0.3807(3) -0.2028(2) -0.00322(13)
H12 H 0.4554 -0.2631 -0.0411
C22 C 0.1521(3) -0.0191(3) 0.11169(14)
H13 H 0.0774 0.0416 0.1493
C23 C -0.2207(2) 0.8001(2) 0.28510(15)
H14 H -0.2131 0.7285 0.2581
H15 H -0.2757 0.8726 0.2631
H16 H -0.2673 0.8066 0.3394
C24 C 0.2416(4) -0.1794(3) 0.00431(15)
H17 H 0.2225 -0.2250 -0.0289
C25 C 0.1286(4) -0.0895(3) 0.06013(17)
H18 H 0.0354 -0.0758 0.0634
S2 S 0.79288(4) 0.41752(4) 0.15584(2)
O5 O 0.18886(12) 0.93555(10) 0.35019(7)
O6 O 0.75273(15) 0.44766(14) 0.08393(7)
O7 O 0.80873(15) 0.30185(12) 0.18371(9)
O8 O 1.32378(15) 0.45232(16) 0.14164(9)
C26 C 0.26118(16) 0.93184(14) 0.40563(9)
C27 C 0.39606(16) 0.84004(14) 0.40547(9)
C28 C 0.48442(15) 0.73414(14) 0.34418(9)
C29 C 0.18010(17) 1.03263(14) 0.46286(9)
C30 C 0.57563(18) 0.64980(15) 0.20831(9)
H19 H 0.5760 0.6594 0.1562
C31 C 0.57410(17) 0.61984(15) 0.36381(9)
H20 H 0.5727 0.6091 0.4159
C32 C 0.66655(16) 0.53831(14) 0.22926(9)
C33 C 0.05943(18) 1.04161(16) 0.37347(10)
C34 C 0.95299(17) 0.42675(15) 0.14915(9)
C35 C 0.66508(17) 0.52235(15) 0.30669(9)
H21 H 0.7249 0.4466 0.3202
C36 C 0.48434(17) 0.74667(14) 0.26589(9)
H22 H 0.4220 0.8212 0.2523
C37 C 0.04874(18) 1.10441(15) 0.44104(10)
C38 C 0.44664(19) 0.85489(16) 0.46809(10)
H23 H 0.5365 0.7961 0.4712
C39 C 1.19815(18) 0.45051(17) 0.14252(10)
C40 C 0.97851(19) 0.51405(17) 0.10686(11)
H24 H 0.9128 0.5649 0.0807
C41 C 0.2343(2) 1.04357(17) 0.52405(10)
H25 H 0.1816 1.1098 0.5629
C42 C 1.0507(2) 0.35122(17) 0.18888(11)
H26 H 1.0334 0.2929 0.2179
C43 C 0.3677(2) 0.95424(19) 0.52600(11)
H27 H 0.4057 0.9603 0.5666
C44 C 1.1012(2) 0.52611(18) 0.10328(11)
H28 H 1.1184 0.5847 0.0747
C45 C 1.1727(2) 0.36330(19) 0.18502(11)
H29 H 1.2385 0.3125 0.2112
C46 C -0.0478(2) 1.0804(2) 0.33549(13)
H30 H -0.0390 1.0362 0.2905
C47 C -0.0756(2) 1.21407(18) 0.47250(12)
H31 H -0.0849 1.2587 0.5175
C48 C -0.1698(2) 1.1892(2) 0.36841(15)
H32 H -0.2446 1.2191 0.3445
C49 C -0.1831(2) 1.2541(2) 0.43556(15)
H33 H -0.2667 1.3265 0.4561
C50 C 1.3537(3) 0.5426(3) 0.10017(15)
H34 H 1.3572 0.5302 0.0463
H35 H 1.4443 0.5349 0.1041
H36 H 1.2796 0.6237 0.1222
loop_
_geom_bond_atom_site_label_1
_geom_bond_atom_site_label_2
_geom_bond_site_symmetry_1
_geom_bond_site_symmetry_2
S1 O1 1_555 1_555
O2 C6 1_555 1_555
O3 S1 1_555 1_555
O4 C7 1_555 1_555
C1 S1 1_555 1_555
C2 S1 1_555 1_555
C3 C8 1_555 1_555
C4 C2 1_555 1_555
H1 C4 1_555 1_555
C5 C1 1_555 1_555
H2 C5 1_555 1_555
C6 C9 1_555 1_555
C7 C12 1_555 1_555
C8 C4 1_555 1_555
H3 C8 1_555 1_555
C9 C3 1_555 1_555
C10 C2 1_555 1_555
H4 C10 1_555 1_555
C11 C3 1_555 1_555
H5 C11 1_555 1_555
C12 C5 1_555 1_555
H6 C12 1_555 1_555
C13 C7 1_555 1_555
H7 C13 1_555 1_555
C14 C1 1_555 1_555
H8 C14 1_555 1_555
C15 C6 1_555 1_555
C16 C15 1_555 1_555
C17 O2 1_555 1_555
C18 C15 1_555 1_555
H9 C18 1_555 1_555
C19 C9 1_555 1_555
H10 C19 1_555 1_555
C20 C18 1_555 1_555
H11 C20 1_555 1_555
C21 C16 1_555 1_555
H12 C21 1_555 1_555
C22 C17 1_555 1_555
H13 C22 1_555 1_555
C23 O4 1_555 1_555
H14 C23 1_555 1_555
H15 C23 1_555 1_555
H16 C23 1_555 1_555
C24 C21 1_555 1_555
H17 C24 1_555 1_555
C25 C22 1_555 1_555
H18 C25 1_555 1_555
S2 O6 1_555 1_555
O5 C26 1_555 1_555
O7 S2 1_555 1_555
O8 C39 1_555 1_555
C26 C27 1_555 1_555
C27 C28 1_555 1_555
C28 C31 1_555 1_555
C29 C26 1_555 1_555
C30 H19 1_555 1_555
C31 H20 1_555 1_555
C32 S2 1_555 1_555
C33 O5 1_555 1_555
C34 S2 1_555 1_555
C35 C31 1_555 1_555
H21 C35 1_555 1_555
C36 C28 1_555 1_555
H22 C36 1_555 1_555
C37 C29 1_555 1_555
C38 C27 1_555 1_555
H23 C38 1_555 1_555
C39 C44 1_555 1_555
C40 C34 1_555 1_555
H24 C40 1_555 1_555
C41 C29 1_555 1_555
H25 C41 1_555 1_555
C42 C34 1_555 1_555
H26 C42 1_555 1_555
C43 C38 1_555 1_555
H27 C43 1_555 1_555
C44 C40 1_555 1_555
H28 C44 1_555 1_555
C45 C39 1_555 1_555
H29 C45 1_555 1_555
C46 C33 1_555 1_555
H30 C46 1_555 1_555
C47 C37 1_555 1_555
H31 C47 1_555 1_555
C48 C46 1_555 1_555
H32 C48 1_555 1_555
C49 C47 1_555 1_555
H33 C49 1_555 1_555
C50 O8 1_555 1_555
H34 C50 1_555 1_555
H35 C50 1_555 1_555
H36 C50 1_555 1_555
C10 C11 1_555 1_555
C13 C14 1_555 1_555
C16 C17 1_555 1_555
C19 C20 1_555 1_555
C24 C25 1_555 1_555
C30 C32 1_555 1_555
C30 C36 1_555 1_555
C32 C35 1_555 1_555
C33 C37 1_555 1_555
C41 C43 1_555 1_555
C42 C45 1_555 1_555
C48 C49 1_555 1_555

#END
