
#######################################################################
#
#                 Cambridge Crystallographic Data Centre
#                                CCDC 
#
#######################################################################
#
# If this CIF has been generated from an entry in the Cambridge 
# Structural Database, then it will include bibliographic, chemical, 
# crystal, experimental, refinement or atomic coordinate data resulting 
# from the CCDC's data processing and validation procedures.
#
#######################################################################

data_KIYTET
_chemical_formula_moiety         'C16 H25 N1 O2'
_chemical_name_systematic        
9-Propyloctahydro-1H,5H-pyrrolo[2,1-k][1]benzazepine-5,10(6H)-dione
_symmetry_cell_setting           monoclinic
_symmetry_space_group_name_H-M   'P 21/n'
_symmetry_Int_Tables_number      14
_space_group_name_Hall           '-P 2yn'
loop_
_symmetry_equiv_pos_site_id
_symmetry_equiv_pos_as_xyz
1 x,y,z
2 1/2-x,1/2+y,1/2-z
3 -x,-y,-z
4 1/2+x,1/2-y,1/2+z
_cell_length_a                   9.7778(6)
_cell_length_b                   8.0904(5)
_cell_length_c                   18.0100(11)
_cell_angle_alpha                90
_cell_angle_beta                 94.851(2)
_cell_angle_gamma                90
_cell_volume                     1419.6
_exptl_crystal_colour            colorless
_exptl_crystal_description       rectangular
_cell_formula_units_Z            4
_exptl_crystal_recrystallization_method 'hexanes/ethyl acetate'
loop_
_atom_site_label
_atom_site_type_symbol
_atom_site_fract_x
_atom_site_fract_y
_atom_site_fract_z
O1 O 0.2661(4) 0.5933(5) 0.58932(19)
O2 O 0.2090(4) 0.3143(5) 0.20613(19)
N1 N 0.2736(4) 0.3870(5) 0.5063(2)
C1 C 0.2532(4) 0.5478(6) 0.5236(3)
C2 C 0.2124(5) 0.6733(6) 0.4628(3)
H1 H 0.199(4) 0.790(6) 0.488(2)
H2 H 0.279(6) 0.688(7) 0.435(3)
C3 C 0.0782(5) 0.6335(6) 0.4175(3)
H3 H 0.012(5) 0.602(6) 0.454(3)
H4 H 0.047(5) 0.737(6) 0.390(3)
C4 C 0.0892(5) 0.4989(6) 0.3592(2)
H5 H 0.158(6) 0.534(7) 0.322(3)
H6 H 0.007(7) 0.478(9) 0.332(4)
C5 C 0.1241(4) 0.3230(6) 0.3872(2)
H7 H 0.058(5) 0.286(6) 0.418(2)
C6 C 0.1220(5) 0.2064(6) 0.3181(2)
H8 H 0.163(5) 0.105(6) 0.337(2)
C7 C 0.2323(5) 0.2680(6) 0.2704(3)
C8 C 0.3758(5) 0.2696(7) 0.3098(3)
H9 H 0.418(5) 0.158(7) 0.317(3)
H10 H 0.436(6) 0.318(7) 0.275(3)
C9 C 0.3823(5) 0.3537(7) 0.3868(3)
H11 H 0.386(6) 0.480(8) 0.382(3)
H12 H 0.467(6) 0.317(7) 0.410(3)
C10 C 0.2645(4) 0.3006(6) 0.4327(2)
C11 C 0.2812(5) 0.1179(6) 0.4589(3)
H13 H 0.191(6) 0.073(7) 0.471(3)
H14 H 0.318(5) 0.044(6) 0.421(3)
C12 C 0.3716(6) 0.1249(7) 0.5319(3)
H15 H 0.370(5) 0.031(7) 0.563(3)
H16 H 0.464(7) 0.153(9) 0.524(4)
C13 C 0.3153(5) 0.2754(6) 0.5690(3)
H17 H 0.238(6) 0.249(7) 0.603(3)
H18 H 0.392(5) 0.339(6) 0.603(3)
C14 C -0.0174(5) 0.1862(6) 0.2743(3)
H19 H -0.047(5) 0.283(6) 0.252(2)
H20 H 0.002(5) 0.102(7) 0.230(3)
C15 C -0.1240(5) 0.1011(7) 0.3175(3)
H21 H -0.128(5) 0.171(7) 0.363(3)
H22 H -0.074(6) -0.010(7) 0.336(3)
C16 C -0.2621(6) 0.0889(7) 0.2725(3)
H23 H -0.2984 0.2002 0.2621
H24 H -0.3262 0.0269 0.3009
H25 H -0.2509 0.0318 0.2254
loop_
_geom_bond_atom_site_label_1
_geom_bond_atom_site_label_2
_geom_bond_site_symmetry_1
_geom_bond_site_symmetry_2
O1 C1 1_555 1_555
O2 C7 1_555 1_555
N1 C1 1_555 1_555
C1 C2 1_555 1_555
C2 H1 1_555 1_555
H2 C2 1_555 1_555
C3 C2 1_555 1_555
H3 C3 1_555 1_555
H4 C3 1_555 1_555
C4 C3 1_555 1_555
H5 C4 1_555 1_555
H6 C4 1_555 1_555
C5 C4 1_555 1_555
H7 C5 1_555 1_555
C6 C5 1_555 1_555
H8 C6 1_555 1_555
C7 C6 1_555 1_555
C8 C7 1_555 1_555
H9 C8 1_555 1_555
H10 C8 1_555 1_555
C9 C8 1_555 1_555
H11 C9 1_555 1_555
H12 C9 1_555 1_555
C10 N1 1_555 1_555
C11 C10 1_555 1_555
H13 C11 1_555 1_555
H14 C11 1_555 1_555
C12 C11 1_555 1_555
H15 C12 1_555 1_555
H16 C12 1_555 1_555
C13 N1 1_555 1_555
H17 C13 1_555 1_555
H18 C13 1_555 1_555
C14 C6 1_555 1_555
H19 C14 1_555 1_555
H20 C14 1_555 1_555
C15 C14 1_555 1_555
H21 C15 1_555 1_555
H22 C15 1_555 1_555
C16 C15 1_555 1_555
H23 C16 1_555 1_555
H24 C16 1_555 1_555
H25 C16 1_555 1_555
C5 C10 1_555 1_555
C9 C10 1_555 1_555
C12 C13 1_555 1_555

#END
