
#######################################################################
#
#                 Cambridge Crystallographic Data Centre
#                                CCDC 
#
#######################################################################
#
# If this CIF has been generated from an entry in the Cambridge 
# Structural Database, then it will include bibliographic, chemical, 
# crystal, experimental, refinement or atomic coordinate data resulting 
# from the CCDC's data processing and validation procedures.
#
#######################################################################

data_KIZRUH
_chemical_formula_moiety         'C17 H20 Cl1 N1 O1'
_chemical_name_systematic        N-(Adamantyl)-2-chlorobenzamide
_symmetry_cell_setting           monoclinic
_symmetry_space_group_name_H-M   'C c'
_symmetry_Int_Tables_number      9
_space_group_name_Hall           'C -2yc'
loop_
_symmetry_equiv_pos_site_id
_symmetry_equiv_pos_as_xyz
1 x,y,z
2 x,-y,1/2+z
3 1/2+x,1/2+y,z
4 1/2+x,1/2-y,1/2+z
_cell_length_a                   22.796(8)
_cell_length_b                   9.847(3)
_cell_length_c                   13.788(4)
_cell_angle_alpha                90
_cell_angle_beta                 108.889(9)
_cell_angle_gamma                90
_cell_volume                     2928.35
_exptl_crystal_colour            colorless
_exptl_crystal_description       prismatic
_chemical_melting_point          '165-167 deg.C'
_cell_formula_units_Z            8
loop_
_atom_site_label
_atom_site_type_symbol
_atom_site_fract_x
_atom_site_fract_y
_atom_site_fract_z
Cl1 Cl 0.09802(9) 0.6649(2) 0.05658(14)
N1 N 0.2770(3) 0.5383(6) 0.1491(5)
O1 O 0.2371(2) 0.7388(5) 0.1802(4)
C1 C 0.2368(3) 0.6159(6) 0.1761(5)
C2 C 0.1889(3) 0.5362(6) 0.2070(5)
C3 C 0.2063(4) 0.4471(7) 0.2861(6)
H1 H 0.2484 0.4306 0.3176
C4 C 0.1640(4) 0.3790(8) 0.3225(6)
H2 H 0.1777 0.3192 0.3774
C5 C 0.1021(4) 0.4019(8) 0.2761(6)
H3 H 0.0732 0.3571 0.2991
C6 C 0.0823(3) 0.4917(7) 0.1946(6)
H4 H 0.0402 0.5072 0.1626
C7 C 0.1253(3) 0.5573(6) 0.1618(5)
C8 C 0.3327(3) 0.5823(6) 0.1258(4)
C9 C 0.3203(4) 0.7060(8) 0.0551(6)
H5 H 0.3074 0.7823 0.0879
H6 H 0.2873 0.6860 -0.0082
C10 C 0.3808(4) 0.7423(9) 0.0316(6)
H7 H 0.3734 0.8225 -0.0128
C11 C 0.4322(5) 0.7722(10) 0.1296(9)
H8 H 0.4207 0.8478 0.1647
H9 H 0.4696 0.7965 0.1147
C12 C 0.4439(5) 0.6446(12) 0.1980(7)
H10 H 0.4778 0.6624 0.2617
C13 C 0.4613(4) 0.5284(12) 0.1424(7)
H11 H 0.4994 0.5500 0.1286
H12 H 0.4686 0.4478 0.1850
C14 C 0.4117(4) 0.5016(7) 0.0454(8)
H13 H 0.4237 0.4252 0.0104
C15 C 0.3510(4) 0.4656(8) 0.0675(8)
H14 H 0.3180 0.4496 0.0034
H15 H 0.3571 0.3832 0.1081
C16 C 0.3851(4) 0.6156(11) 0.2224(6)
H16 H 0.3919 0.5398 0.2697
H17 H 0.3741 0.6942 0.2552
C17 C 0.3998(4) 0.6237(9) -0.0227(6)
H18 H 0.3671 0.6042 -0.0864
H19 H 0.4370 0.6470 -0.0388
H39 H 0.275(3) 0.455(2) 0.154(5)
Cl2 Cl 0.43115(9) 0.1610(2) 0.23142(14)
N2 N 0.2512(3) 0.0407(5) 0.1358(4)
O2 O 0.2922(2) 0.2413(4) 0.2077(4)
C18 C 0.2920(3) 0.1183(6) 0.2051(5)
C19 C 0.3401(3) 0.0378(6) 0.2871(5)
C20 C 0.3217(3) -0.0516(7) 0.3463(5)
H20 H 0.2796 -0.0675 0.3324
C21 C 0.3639(4) -0.1203(8) 0.4269(6)
H21 H 0.3501 -0.1784 0.4681
C22 C 0.4264(4) -0.1016(8) 0.4454(6)
H22 H 0.4549 -0.1491 0.4981
C23 C 0.4470(3) -0.0124(7) 0.3859(5)
H23 H 0.4892 0.0011 0.3983
C24 C 0.4032(3) 0.0566(6) 0.3071(5)
C25 C 0.1961(3) 0.0853(6) 0.0517(4)
C26 C 0.2113(3) 0.1979(8) -0.0120(5)
H24 H 0.2427 0.1671 -0.0404
H25 H 0.2273 0.2764 0.0309
C27 C 0.1509(5) 0.2372(9) -0.1004(6)
H26 H 0.1605 0.3094 -0.1419
C28 C 0.1035(5) 0.2866(9) -0.0563(6)
H27 H 0.0664 0.3133 -0.1108
H28 H 0.1192 0.3651 -0.0132
C29 C 0.0885(4) 0.1735(10) 0.0067(6)
H29 H 0.0568 0.2061 0.0351
C30 C 0.0637(4) 0.0516(10) -0.0589(6)
H30 H 0.0261 0.0753 -0.1137
H31 H 0.0540 -0.0198 -0.0181
C31 C 0.1140(4) 0.0018(8) -0.1045(7)
H32 H 0.0988 -0.0775 -0.1484
C32 C 0.1722(4) -0.0361(8) -0.0166(7)
H33 H 0.1627 -0.1091 0.0232
H34 H 0.2039 -0.0680 -0.0441
C33 C 0.1281(4) 0.1146(10) -0.1663(6)
H35 H 0.0909 0.1378 -0.2222
H36 H 0.1593 0.0850 -0.1955
C34 C 0.1469(4) 0.1346(10) 0.0960(6)
H37 H 0.1621 0.2127 0.1398
H38 H 0.1371 0.0633 0.1369
H40 H 0.253(3) -0.039(3) 0.153(4)
loop_
_geom_bond_atom_site_label_1
_geom_bond_atom_site_label_2
_geom_bond_site_symmetry_1
_geom_bond_site_symmetry_2
Cl1 C7 1_555 1_555
Cl2 C24 1_555 1_555
N1 C1 1_555 1_555
N2 C18 1_555 1_555
O1 C1 1_555 1_555
O2 C18 1_555 1_555
C1 C2 1_555 1_555
C2 C3 1_555 1_555
C3 H1 1_555 1_555
C4 C3 1_555 1_555
H2 C4 1_555 1_555
C5 C4 1_555 1_555
H3 C5 1_555 1_555
C6 C5 1_555 1_555
H4 C6 1_555 1_555
C7 C2 1_555 1_555
C8 N1 1_555 1_555
C9 C8 1_555 1_555
H5 C9 1_555 1_555
H6 C9 1_555 1_555
C10 C9 1_555 1_555
H7 C10 1_555 1_555
C11 C10 1_555 1_555
H8 C11 1_555 1_555
H9 C11 1_555 1_555
C12 C11 1_555 1_555
H10 C12 1_555 1_555
C13 C12 1_555 1_555
H11 C13 1_555 1_555
H12 C13 1_555 1_555
C14 C13 1_555 1_555
H13 C14 1_555 1_555
C15 C8 1_555 1_555
H14 C15 1_555 1_555
H15 C15 1_555 1_555
C16 C8 1_555 1_555
H16 C16 1_555 1_555
H17 C16 1_555 1_555
C17 C10 1_555 1_555
H18 C17 1_555 1_555
H19 C17 1_555 1_555
C18 C19 1_555 1_555
C19 C20 1_555 1_555
C20 H20 1_555 1_555
C21 C20 1_555 1_555
H21 C21 1_555 1_555
C22 C21 1_555 1_555
H22 C22 1_555 1_555
C23 C22 1_555 1_555
H23 C23 1_555 1_555
C24 C19 1_555 1_555
C25 N2 1_555 1_555
C26 C25 1_555 1_555
H24 C26 1_555 1_555
H25 C26 1_555 1_555
C27 C26 1_555 1_555
H26 C27 1_555 1_555
C28 C27 1_555 1_555
H27 C28 1_555 1_555
H28 C28 1_555 1_555
C29 C28 1_555 1_555
H29 C29 1_555 1_555
C30 C29 1_555 1_555
H30 C30 1_555 1_555
H31 C30 1_555 1_555
C31 C30 1_555 1_555
H32 C31 1_555 1_555
C32 C25 1_555 1_555
H33 C32 1_555 1_555
H34 C32 1_555 1_555
C33 C27 1_555 1_555
H35 C33 1_555 1_555
H36 C33 1_555 1_555
C34 C25 1_555 1_555
H37 C34 1_555 1_555
H38 C34 1_555 1_555
H39 N1 1_555 1_555
H40 N2 1_555 1_555
C6 C7 1_555 1_555
C12 C16 1_555 1_555
C14 C15 1_555 1_555
C14 C17 1_555 1_555
C23 C24 1_555 1_555
C29 C34 1_555 1_555
C31 C32 1_555 1_555
C31 C33 1_555 1_555

#END
