
#######################################################################
#
#                 Cambridge Crystallographic Data Centre
#                                CCDC 
#
#######################################################################
#
# If this CIF has been generated from an entry in the Cambridge 
# Structural Database, then it will include bibliographic, chemical, 
# crystal, experimental, refinement or atomic coordinate data resulting 
# from the CCDC's data processing and validation procedures.
#
#######################################################################

data_KIZVOF
_chemical_formula_moiety         'C26 H22 N1 P1 S1'
_chemical_name_systematic        
Diphenyl(2-(2-(methylsulfanyl)phenyliminomethyl)phenyl)phosphine
_symmetry_cell_setting           monoclinic
_symmetry_space_group_name_H-M   'P 21/a'
_symmetry_Int_Tables_number      14
_space_group_name_Hall           '-P 2yab'
loop_
_symmetry_equiv_pos_site_id
_symmetry_equiv_pos_as_xyz
1 x,y,z
2 1/2-x,1/2+y,-z
3 -x,-y,-z
4 1/2+x,1/2-y,z
_cell_length_a                   10.4453(4)
_cell_length_b                   15.2797(6)
_cell_length_c                   13.4194(5)
_cell_angle_alpha                90
_cell_angle_beta                 97.7604(6)
_cell_angle_gamma                90
_cell_volume                     2122.13
_exptl_crystal_colour            'pale yellow'
_exptl_crystal_description       plate
_cell_formula_units_Z            4
loop_
_atom_site_label
_atom_site_type_symbol
_atom_site_fract_x
_atom_site_fract_y
_atom_site_fract_z
P1 P 0.38128(6) 0.14697(4) 0.04147(5)
C1 C 0.3627(2) 0.25283(16) 0.10451(18)
C2 C 0.2755(3) 0.31576(17) 0.06202(19)
C3 C 0.2712(3) 0.39859(17) 0.1044(2)
C4 C 0.3531(3) 0.42020(17) 0.1904(2)
C5 C 0.4390(2) 0.35825(17) 0.23509(19)
C6 C 0.4460(2) 0.27518(16) 0.19275(18)
C7 C 0.5382(2) 0.21105(17) 0.24274(19)
N1 N 0.5912(2) 0.22095(14) 0.33384(16)
C8 C 0.6701(2) 0.15249(18) 0.37838(19)
C9 C 0.6389(3) 0.06415(18) 0.3622(2)
C10 C 0.7198(3) -0.00014(19) 0.4077(2)
C11 C 0.8297(3) 0.02232(19) 0.4707(2)
C12 C 0.8600(3) 0.11035(19) 0.4906(2)
C13 C 0.7800(2) 0.17585(18) 0.44548(19)
S1 S 0.80721(7) 0.28911(5) 0.46252(5)
C14 C 0.9562(3) 0.2919(2) 0.5457(2)
C15 C 0.2362(2) 0.14490(17) -0.05304(19)
C16 C 0.2530(3) 0.16788(17) -0.1504(2)
C17 C 0.1477(3) 0.16967(18) -0.2271(2)
C18 C 0.0266(3) 0.14720(19) -0.2053(2)
C19 C 0.0089(3) 0.1228(2) -0.1088(2)
C20 C 0.1123(3) 0.12179(19) -0.0326(2)
C21 C 0.3443(2) 0.06632(16) 0.13516(18)
C22 C 0.2745(3) 0.08495(17) 0.2144(2)
C23 C 0.2568(3) 0.02067(19) 0.2846(2)
C24 C 0.3080(3) -0.06262(19) 0.2768(2)
C25 C 0.3776(3) -0.08171(18) 0.1987(2)
C26 C 0.3970(3) -0.01741(17) 0.1292(2)
H1 H 0.2150 0.3012 0.0000
H2 H 0.2083 0.4429 0.0723
H3 H 0.3503 0.4801 0.2201
H4 H 0.4968 0.3732 0.2984
H5 H 0.5603 0.1582 0.2045
H6 H 0.5580 0.0475 0.3176
H7 H 0.6983 -0.0632 0.3947
H8 H 0.8884 -0.0245 0.5025
H9 H 0.9395 0.1262 0.5374
H10 H 0.9816 0.3541 0.5609
H11 H 0.9452 0.2609 0.6097
H12 H 1.0251 0.2622 0.5131
H13 H 0.3411 0.1833 -0.1661
H14 H 0.1602 0.1871 -0.2969
H15 H -0.0490 0.1486 -0.2597
H16 H -0.0791 0.1058 -0.0941
H17 H 0.0988 0.1046 0.0371
H18 H 0.2372 0.1447 0.2206
H19 H 0.2068 0.0345 0.3411
H20 H 0.2946 -0.1086 0.3275
H21 H 0.4139 -0.1417 0.1924
H22 H 0.4493 -0.0311 0.0740
loop_
_geom_bond_atom_site_label_1
_geom_bond_atom_site_label_2
_geom_bond_site_symmetry_1
_geom_bond_site_symmetry_2
P1 C1 1_555 1_555
C1 C2 1_555 1_555
C2 C3 1_555 1_555
C3 C4 1_555 1_555
C4 C5 1_555 1_555
C5 C6 1_555 1_555
C6 C1 1_555 1_555
C7 C6 1_555 1_555
N1 C7 1_555 1_555
C8 N1 1_555 1_555
C9 C8 1_555 1_555
C10 C9 1_555 1_555
C11 C10 1_555 1_555
C12 C11 1_555 1_555
C13 C8 1_555 1_555
S1 C13 1_555 1_555
C14 S1 1_555 1_555
C15 P1 1_555 1_555
C16 C15 1_555 1_555
C17 C16 1_555 1_555
C18 C17 1_555 1_555
C19 C18 1_555 1_555
C20 C15 1_555 1_555
C21 P1 1_555 1_555
C22 C21 1_555 1_555
C23 C22 1_555 1_555
C24 C23 1_555 1_555
C25 C24 1_555 1_555
C26 C21 1_555 1_555
H1 C2 1_555 1_555
H2 C3 1_555 1_555
H3 C4 1_555 1_555
H4 C5 1_555 1_555
H5 C7 1_555 1_555
H6 C9 1_555 1_555
H7 C10 1_555 1_555
H8 C11 1_555 1_555
H9 C12 1_555 1_555
H10 C14 1_555 1_555
H11 C14 1_555 1_555
H12 C14 1_555 1_555
H13 C16 1_555 1_555
H14 C17 1_555 1_555
H15 C18 1_555 1_555
H16 C19 1_555 1_555
H17 C20 1_555 1_555
H18 C22 1_555 1_555
H19 C23 1_555 1_555
H20 C24 1_555 1_555
H21 C25 1_555 1_555
H22 C26 1_555 1_555
C12 C13 1_555 1_555
C19 C20 1_555 1_555
C25 C26 1_555 1_555

#END
