
#######################################################################
#
#                 Cambridge Crystallographic Data Centre
#                                CCDC 
#
#######################################################################
#
# If this CIF has been generated from an entry in the Cambridge 
# Structural Database, then it will include bibliographic, chemical, 
# crystal, experimental, refinement or atomic coordinate data resulting 
# from the CCDC's data processing and validation procedures.
#
#######################################################################

data_KIZVAR
_chemical_name_common            
2-(1-(2-(2-(quinoxalin-3-yl)imidazolidin-1-yl)ethyl)imidazolidin-2-yl)quinoxaline
_chemical_formula_moiety         'C24 H26 N8'
_chemical_name_systematic        
1,2-bis(2-(Quinoxalin-3-yl)imidazolidin-1-yl)ethane
_symmetry_cell_setting           triclinic
_symmetry_space_group_name_H-M   'P -1'
_symmetry_Int_Tables_number      2
_space_group_name_Hall           '-P 1'
loop_
_symmetry_equiv_pos_site_id
_symmetry_equiv_pos_as_xyz
1 x,y,z
2 -x,-y,-z
_cell_length_a                   9.6680(19)
_cell_length_b                   10.334(2)
_cell_length_c                   11.389(2)
_cell_angle_alpha                104.12(3)
_cell_angle_beta                 102.95(3)
_cell_angle_gamma                100.48(3)
_cell_volume                     1041.19
_exptl_crystal_colour            yellow
_exptl_crystal_description       block
_chemical_melting_point          '117.8-119.4 deg.C'
_cell_formula_units_Z            2
_exptl_crystal_recrystallization_method 'ethyl acetate/diethyl ether'
_exptl_crystal_preparation       'weakly luminescent'
loop_
_atom_site_label
_atom_site_type_symbol
_atom_site_fract_x
_atom_site_fract_y
_atom_site_fract_z
N1 N 0.31899(10) 0.42075(10) 0.57286(9)
N2 N 0.24737(9) 0.28645(9) 0.74915(8)
N3 N -0.07310(10) 0.38695(11) 0.70867(11)
H1 H -0.0821(18) 0.3335(19) 0.6290(17)
N4 N 0.11324(9) 0.57789(9) 0.83928(8)
N5 N 0.43457(9) 0.67617(9) 0.87615(8)
N6 N 0.57614(10) 0.87512(10) 0.85471(9)
H2 H 0.6424(16) 0.9363(16) 0.9211(15)
N7 N 0.24068(9) 0.92863(9) 0.87355(8)
N8 N 0.15420(10) 0.80398(10) 0.60821(8)
C1 C 0.38951(11) 0.32486(11) 0.60427(9)
C2 C 0.50377(12) 0.29616(12) 0.55218(10)
H3 H 0.5342 0.3459 0.4985
C3 C 0.57100(12) 0.19672(12) 0.57880(11)
H4 H 0.6477 0.1777 0.5432
C4 C 0.52738(12) 0.12238(12) 0.65863(11)
H5 H 0.5733 0.0523 0.6749
C5 C 0.41921(11) 0.15077(11) 0.71270(10)
H6 H 0.3909 0.1009 0.7669
C6 C 0.34952(11) 0.25407(10) 0.68808(9)
C7 C 0.21796(12) 0.44498(11) 0.62881(10)
H7 H 0.1637 0.5078 0.6070
C8 C 0.18525(11) 0.38174(11) 0.72096(10)
C9 C 0.07826(11) 0.42693(11) 0.79043(10)
H8 H 0.0822 0.3866 0.8622
C10 C -0.12398(13) 0.51275(14) 0.71071(14)
H9 H -0.2289 0.4973 0.7081
H10 H -0.1090 0.5467 0.6393
C11 C -0.02764(12) 0.61140(12) 0.83529(12)
H11 H -0.0216 0.7084 0.8366
H12 H -0.0634 0.5947 0.9065
C12 C 0.21967(12) 0.63692(11) 0.96342(10)
H13 H 0.1853 0.5923 1.0229
H14 H 0.2240 0.7363 0.9940
C13 C 0.37341(12) 0.62083(11) 0.96509(10)
H15 H 0.4393 0.6677 1.0513
H16 H 0.3713 0.5216 0.9459
C14 C 0.58160(12) 0.65653(12) 0.87939(11)
H17 H 0.5776 0.5604 0.8344
H18 H 0.6446 0.6812 0.9671
C15 C 0.63472(12) 0.75562(13) 0.81146(11)
H19 H 0.7432 0.7826 0.8347
H20 H 0.5962 0.7142 0.7189
C16 C 0.44839(11) 0.82445(10) 0.89627(9)
H21 H 0.4650 0.8725 0.9877
C17 C 0.31252(10) 0.84914(10) 0.81763(9)
C18 C 0.26963(11) 0.78882(11) 0.68396(10)
H22 H 0.3280 0.7348 0.6481
C19 C 0.11930(11) 0.94916(10) 0.79707(10)
C20 C 0.03757(12) 1.03450(12) 0.85112(11)
H23 H 0.0672 1.0789 0.9395
C21 C -0.08495(13) 1.05342(13) 0.77599(12)
H24 H -0.1397 1.1111 0.8126
C22 C -0.12994(13) 0.98793(13) 0.64499(12)
H25 H -0.2156 1.0009 0.5941
C23 C -0.05158(12) 0.90580(12) 0.59029(11)
H26 H -0.0826 0.8625 0.5017
C24 C 0.07524(11) 0.88523(10) 0.66522(10)
loop_
_geom_bond_atom_site_label_1
_geom_bond_atom_site_label_2
_geom_bond_site_symmetry_1
_geom_bond_site_symmetry_2
N1 C1 1_555 1_555
N2 C6 1_555 1_555
N3 H1 1_555 1_555
N4 C9 1_555 1_555
N5 C13 1_555 1_555
N6 H2 1_555 1_555
N7 C17 1_555 1_555
N8 C18 1_555 1_555
C1 C2 1_555 1_555
C2 H3 1_555 1_555
C3 C2 1_555 1_555
H4 C3 1_555 1_555
C4 C3 1_555 1_555
H5 C4 1_555 1_555
C5 C4 1_555 1_555
H6 C5 1_555 1_555
C6 C1 1_555 1_555
C7 N1 1_555 1_555
H7 C7 1_555 1_555
C8 N2 1_555 1_555
C9 N3 1_555 1_555
H8 C9 1_555 1_555
C10 N3 1_555 1_555
H9 C10 1_555 1_555
H10 C10 1_555 1_555
C11 N4 1_555 1_555
H11 C11 1_555 1_555
H12 C11 1_555 1_555
C12 N4 1_555 1_555
H13 C12 1_555 1_555
H14 C12 1_555 1_555
C13 C12 1_555 1_555
H15 C13 1_555 1_555
H16 C13 1_555 1_555
C14 N5 1_555 1_555
H17 C14 1_555 1_555
H18 C14 1_555 1_555
C15 N6 1_555 1_555
H19 C15 1_555 1_555
H20 C15 1_555 1_555
C16 N5 1_555 1_555
H21 C16 1_555 1_555
C17 C16 1_555 1_555
C18 C17 1_555 1_555
H22 C18 1_555 1_555
C19 N7 1_555 1_555
C20 C19 1_555 1_555
H23 C20 1_555 1_555
C21 C20 1_555 1_555
H24 C21 1_555 1_555
C22 C21 1_555 1_555
H25 C22 1_555 1_555
C23 C22 1_555 1_555
H26 C23 1_555 1_555
C24 N8 1_555 1_555
N6 C16 1_555 1_555
C5 C6 1_555 1_555
C7 C8 1_555 1_555
C8 C9 1_555 1_555
C10 C11 1_555 1_555
C14 C15 1_555 1_555
C19 C24 1_555 1_555
C23 C24 1_555 1_555

#END
