
#######################################################################
#
#                 Cambridge Crystallographic Data Centre
#                                CCDC 
#
#######################################################################
#
# If this CIF has been generated from an entry in the Cambridge 
# Structural Database, then it will include bibliographic, chemical, 
# crystal, experimental, refinement or atomic coordinate data resulting 
# from the CCDC's data processing and validation procedures.
#
#######################################################################

data_KIZXEX
_chemical_formula_moiety         'C16 H36 N1 1+,C24 H13 N5 O2,Cl1 1-'
_chemical_name_systematic        
"Tetra-n-butylammonium 13-nitro-5,6-dihydrodi-indolo(3,2-a:2',3'-c)phenazine chloride"
_symmetry_cell_setting           triclinic
_symmetry_space_group_name_H-M   'P -1'
_symmetry_Int_Tables_number      2
_space_group_name_Hall           '-P 1'
loop_
_symmetry_equiv_pos_site_id
_symmetry_equiv_pos_as_xyz
1 x,y,z
2 -x,-y,-z
_cell_length_a                   10.0553(19)
_cell_length_b                   13.715(2)
_cell_length_c                   15.384(3)
_cell_angle_alpha                64.024(7)
_cell_angle_beta                 80.245(12)
_cell_angle_gamma                70.714(10)
_cell_volume                     1799.46
_exptl_crystal_colour            red
_exptl_crystal_description       prism
_cell_formula_units_Z            2
_exptl_crystal_recrystallization_method chloroform/n-hexane
loop_
_atom_site_label
_atom_site_type_symbol
_atom_site_fract_x
_atom_site_fract_y
_atom_site_fract_z
C1 C 0.4666(3) 0.0437(3) 0.65517(19)
C2 C 0.4851(3) -0.0675(3) 0.6653(2)
H1 H 0.5499 -0.1305 0.7099
C3 C 0.4078(3) -0.0823(2) 0.6096(2)
H2 H 0.4200 -0.1565 0.6151
C4 C 0.3094(3) 0.0112(2) 0.54353(19)
C5 C 0.2893(3) 0.1219(2) 0.53745(19)
C6 C 0.3715(3) 0.1365(2) 0.59408(19)
H3 H 0.3611 0.2098 0.5898
C7 C 0.1158(3) 0.1958(2) 0.42763(18)
C8 C 0.1425(3) 0.0831(2) 0.43008(18)
C9 C 0.0622(3) 0.0703(2) 0.36903(19)
C10 C 0.0585(3) -0.0261(2) 0.35526(19)
C11 C 0.1313(3) -0.1420(2) 0.3944(2)
H4 H 0.2035 -0.1714 0.4394
C12 C 0.0952(3) -0.2121(2) 0.3657(2)
H5 H 0.1436 -0.2908 0.3917
C13 C -0.0104(3) -0.1702(2) 0.2996(2)
H6 H -0.0332 -0.2212 0.2823
C14 C -0.0827(3) -0.0565(2) 0.2588(2)
H7 H -0.1538 -0.0279 0.2132
C15 C -0.0469(3) 0.0146(2) 0.28755(19)
C16 C -0.0397(3) 0.1629(2) 0.30942(18)
C17 C -0.0679(3) 0.2718(2) 0.30863(18)
C18 C -0.1612(3) 0.4525(2) 0.28508(19)
C19 C -0.2437(3) 0.5649(2) 0.25493(19)
H8 H -0.3103 0.5970 0.2056
C20 C -0.2257(3) 0.6283(2) 0.29917(19)
H9 H -0.2817 0.7048 0.2808
C21 C -0.1256(3) 0.5808(2) 0.37080(19)
H10 H -0.1161 0.6256 0.4008
C22 C -0.0404(3) 0.4700(2) 0.39883(18)
H11 H 0.0283 0.4394 0.4465
C23 C -0.0573(3) 0.4040(2) 0.35559(18)
C24 C 0.0049(3) 0.2878(2) 0.36839(18)
N1 N 0.5512(3) 0.0569(2) 0.71482(18)
N2 N 0.1911(2) 0.21417(18) 0.47926(15)
N3 N 0.2371(2) -0.00678(18) 0.48780(16)
N4 N -0.1646(2) 0.37040(18) 0.25678(16)
N5 N -0.1047(2) 0.13023(19) 0.25973(17)
O1 O 0.5253(3) 0.1516(2) 0.71460(18)
O2 O 0.6456(2) -0.0269(2) 0.76278(17)
H48 H -0.178(2) 0.176(2) 0.2197(19)
H49 H -0.222(3) 0.377(3) 0.2140(18)
C25 C 0.2908(3) 0.5084(2) 0.1203(2)
H12 H 0.2750 0.5460 0.0498
H13 H 0.3916 0.4646 0.1295
C26 C 0.2036(4) 0.4263(3) 0.1668(3)
H14 H 0.1024 0.4678 0.1558
H15 H 0.2178 0.3874 0.2374
C27 C 0.2484(4) 0.3387(3) 0.1228(3)
H16 H 0.3516 0.3035 0.1281
H17 H 0.2024 0.2782 0.1605
C28 C 0.2106(5) 0.3892(4) 0.0179(3)
H18 H 0.1087 0.4248 0.0119
H19 H 0.2388 0.3293 -0.0057
H20 H 0.2600 0.4463 -0.0205
C29 C 0.1106(3) 0.6750(2) 0.1404(2)
H21 H 0.0476 0.6267 0.1756
H22 H 0.0955 0.7291 0.1700
C30 C 0.0638(3) 0.7424(2) 0.0368(2)
H23 H 0.0681 0.6904 0.0069
H24 H 0.1268 0.7898 -0.0013
C31 C -0.0877(3) 0.8177(3) 0.0370(2)
H25 H -0.1490 0.7688 0.0755
H26 H -0.0905 0.8670 0.0692
C32 C -0.1460(3) 0.8907(3) -0.0623(2)
H27 H -0.0931 0.9459 -0.0983
H28 H -0.2455 0.9308 -0.0568
H29 H -0.1373 0.8431 -0.0966
C33 C 0.3657(3) 0.6668(2) 0.10390(19)
H30 H 0.3516 0.6972 0.0336
H31 H 0.4621 0.6140 0.1171
C34 C 0.3564(3) 0.7646(2) 0.1287(2)
H32 H 0.3826 0.7349 0.1968
H33 H 0.2583 0.8147 0.1218
C35 C 0.4549(3) 0.8325(3) 0.0621(2)
H34 H 0.4593 0.8869 0.0868
H35 H 0.5508 0.7799 0.0647
C36 C 0.4121(4) 0.8970(3) -0.0421(2)
H36 H 0.4164 0.8434 -0.0694
H37 H 0.4764 0.9424 -0.0791
H38 H 0.3156 0.9470 -0.0455
C37 C 0.2782(3) 0.5488(2) 0.26662(19)
H39 H 0.2513 0.6118 0.2873
H40 H 0.2098 0.5046 0.2978
C38 C 0.4215(3) 0.4732(2) 0.30541(19)
H41 H 0.4915 0.5165 0.2785
H42 H 0.4514 0.4091 0.2859
C39 C 0.4147(3) 0.4287(3) 0.4151(2)
H43 H 0.3499 0.3808 0.4412
H44 H 0.3747 0.4937 0.4334
C40 C 0.5575(3) 0.3597(3) 0.4617(2)
H45 H 0.5987 0.2959 0.4430
H46 H 0.5451 0.3310 0.5322
H47 H 0.6204 0.4079 0.4397
N6 N 0.2614(2) 0.59980(18) 0.15763(15)
Cl1 Cl 0.64580(7) 0.32961(5) 0.13849(5)
loop_
_geom_bond_atom_site_label_1
_geom_bond_atom_site_label_2
_geom_bond_site_symmetry_1
_geom_bond_site_symmetry_2
C1 C2 1_555 1_555
C2 H1 1_555 1_555
C3 C2 1_555 1_555
H2 C3 1_555 1_555
C4 C3 1_555 1_555
C5 C4 1_555 1_555
C6 C1 1_555 1_555
H3 C6 1_555 1_555
C7 C8 1_555 1_555
C8 C9 1_555 1_555
C9 C10 1_555 1_555
C10 C11 1_555 1_555
C11 H4 1_555 1_555
C12 C11 1_555 1_555
H5 C12 1_555 1_555
C13 C12 1_555 1_555
H6 C13 1_555 1_555
C14 C13 1_555 1_555
H7 C14 1_555 1_555
C15 C10 1_555 1_555
C16 C9 1_555 1_555
C17 C16 1_555 1_555
C18 C19 1_555 1_555
C19 H8 1_555 1_555
C20 C19 1_555 1_555
H9 C20 1_555 1_555
C21 C20 1_555 1_555
H10 C21 1_555 1_555
C22 C21 1_555 1_555
H11 C22 1_555 1_555
C23 C18 1_555 1_555
C24 C7 1_555 1_555
C25 H12 1_555 1_555
H13 C25 1_555 1_555
C26 C25 1_555 1_555
H14 C26 1_555 1_555
H15 C26 1_555 1_555
C27 C26 1_555 1_555
H16 C27 1_555 1_555
H17 C27 1_555 1_555
C28 C27 1_555 1_555
H18 C28 1_555 1_555
H19 C28 1_555 1_555
H20 C28 1_555 1_555
C29 H21 1_555 1_555
H22 C29 1_555 1_555
C30 C29 1_555 1_555
H23 C30 1_555 1_555
H24 C30 1_555 1_555
C31 C30 1_555 1_555
H25 C31 1_555 1_555
H26 C31 1_555 1_555
C32 C31 1_555 1_555
H27 C32 1_555 1_555
H28 C32 1_555 1_555
H29 C32 1_555 1_555
C33 H30 1_555 1_555
H31 C33 1_555 1_555
C34 C33 1_555 1_555
H32 C34 1_555 1_555
H33 C34 1_555 1_555
C35 C34 1_555 1_555
H34 C35 1_555 1_555
H35 C35 1_555 1_555
C36 C35 1_555 1_555
H36 C36 1_555 1_555
H37 C36 1_555 1_555
H38 C36 1_555 1_555
C37 H39 1_555 1_555
H40 C37 1_555 1_555
C38 C37 1_555 1_555
H41 C38 1_555 1_555
H42 C38 1_555 1_555
C39 C38 1_555 1_555
H43 C39 1_555 1_555
H44 C39 1_555 1_555
C40 C39 1_555 1_555
H45 C40 1_555 1_555
H46 C40 1_555 1_555
H47 C40 1_555 1_555
N1 C1 1_555 1_555
N2 C5 1_555 1_555
N3 C4 1_555 1_555
N4 C17 1_555 1_555
N5 C15 1_555 1_555
N6 C25 1_555 1_555
O1 N1 1_555 1_555
O2 N1 1_555 1_555
H48 N5 1_555 1_555
H49 N4 1_555 1_555
C5 C6 1_555 1_555
C7 N2 1_555 1_555
C8 N3 1_555 1_555
C14 C15 1_555 1_555
C16 N5 1_555 1_555
C17 C24 1_555 1_555
C18 N4 1_555 1_555
C22 C23 1_555 1_555
C23 C24 1_555 1_555
C29 N6 1_555 1_555
C33 N6 1_555 1_555
C37 N6 1_555 1_555

#END
