
#######################################################################
#
#                 Cambridge Crystallographic Data Centre
#                                CCDC 
#
#######################################################################
#
# If this CIF has been generated from an entry in the Cambridge 
# Structural Database, then it will include bibliographic, chemical, 
# crystal, experimental, refinement or atomic coordinate data resulting 
# from the CCDC's data processing and validation procedures.
#
#######################################################################

data_KOBJAP
_chemical_formula_moiety         'C40 H32 O12'
_chemical_name_systematic        
'3,9,15,21-tetraoxopentacyclo[20.2.2.2^4,7^.2^10,13^.2^16,19^]dotriaconta-1(24),4,6,10,12,16,18,22,25,27,29,31-dodecaene-2,8,14,20-tetrayl tetraacetate'
_symmetry_cell_setting           tetragonal
_symmetry_space_group_name_H-M   'P -4 21 c'
_symmetry_Int_Tables_number      114
_space_group_name_Hall           'P -4 2n'
loop_
_symmetry_equiv_pos_site_id
_symmetry_equiv_pos_as_xyz
1 x,y,z
2 -x,-y,z
3 y,-x,-z
4 -y,x,-z
5 1/2-x,1/2+y,1/2-z
6 1/2+x,1/2-y,1/2-z
7 1/2-y,1/2-x,1/2+z
8 1/2+y,1/2+x,1/2+z
_cell_length_a                   14.1566(6)
_cell_length_b                   14.1566(6)
_cell_length_c                   10.2623(4)
_cell_angle_alpha                90
_cell_angle_beta                 90
_cell_angle_gamma                90
_cell_volume                     2056.66
_exptl_crystal_colour            colorless
_exptl_crystal_description       polyhedron
_cell_formula_units_Z            2
loop_
_atom_site_label
_atom_site_type_symbol
_atom_site_fract_x
_atom_site_fract_y
_atom_site_fract_z
C1 C 0.26515(17) 1.04191(13) 0.4624(2)
H1 H 0.2693 1.0747 0.3786
H2 H 0.3203 1.0579 0.5158
H3 H 0.2074 1.0614 0.5078
C2 C 0.26274(13) 0.93751(12) 0.43981(16)
C3 C 0.34800(11) 0.79544(10) 0.45793(14)
H4 H 0.3190 0.7798 0.3717
C4 C 0.29133(10) 0.74718(10) 0.56546(14)
C5 C 0.45106(10) 0.76736(11) 0.45567(15)
C6 C 0.49896(12) 0.74034(12) 0.56756(15)
H5 H 0.4661 0.7366 0.6481
C7 C 0.59481(12) 0.71873(12) 0.56267(16)
H6 H 0.6270 0.6996 0.6395
C8 C 0.64343(11) 0.72519(10) 0.44517(15)
C9 C 0.59488(12) 0.75106(13) 0.33267(16)
H7 H 0.6274 0.7545 0.2519
C10 C 0.49935(12) 0.77181(13) 0.33800(16)
H8 H 0.4667 0.7892 0.2608
O1 O 0.19828(9) 0.89446(9) 0.39318(13)
O2 O 0.34503(8) 0.89627(8) 0.47670(11)
O3 O 0.26041(8) 0.79262(8) 0.65633(11)
C1B C 1.04191(13) 0.73485(17) 0.5376(2)
H1B H 1.0747 0.7307 0.6214
H2B H 1.0579 0.6797 0.4842
H3B H 1.0614 0.7926 0.4922
C2B C 0.93751(12) 0.73726(13) 0.56019(16)
C3B C 0.79544(10) 0.65200(11) 0.54207(14)
H4B H 0.7798 0.6810 0.6283
C4B C 0.74718(10) 0.70867(10) 0.43454(14)
C5B C 0.76736(11) 0.54894(10) 0.54433(15)
C6B C 0.74034(12) 0.50104(12) 0.43244(15)
H5B H 0.7366 0.5339 0.3519
C7B C 0.71873(12) 0.40519(12) 0.43733(16)
H6B H 0.6996 0.3730 0.3605
C8B C 0.72519(10) 0.35657(11) 0.55483(15)
C9B C 0.75106(13) 0.40512(12) 0.66733(16)
H7B H 0.7545 0.3726 0.7481
C10B C 0.77181(13) 0.50065(12) 0.66200(16)
H8B H 0.7892 0.5333 0.7392
O1B O 0.89446(9) 0.80172(9) 0.60682(13)
O2B O 0.89627(8) 0.65497(8) 0.52330(11)
O3B O 0.79262(8) 0.73959(8) 0.34367(11)
C1C C -0.04191(13) 0.26515(17) 0.5376(2)
H1C H -0.0747 0.2693 0.6214
H2C H -0.0579 0.3203 0.4842
H3C H -0.0614 0.2074 0.4922
C2C C 0.06249(12) 0.26274(13) 0.56019(16)
C3C C 0.20456(10) 0.34800(11) 0.54207(14)
H4C H 0.2202 0.3190 0.6283
C4C C 0.25282(10) 0.29133(10) 0.43454(14)
C5C C 0.23264(11) 0.45106(10) 0.54433(15)
C6C C 0.25966(12) 0.49896(12) 0.43244(15)
H5C H 0.2634 0.4661 0.3519
C7C C 0.28127(12) 0.59481(12) 0.43733(16)
H6C H 0.3004 0.6270 0.3605
C8C C 0.27481(10) 0.64343(11) 0.55483(15)
C9C C 0.24894(13) 0.59488(12) 0.66733(16)
H7C H 0.2455 0.6274 0.7481
C10C C 0.22819(13) 0.49935(12) 0.66200(16)
H8C H 0.2108 0.4667 0.7392
O1C O 0.10554(9) 0.19828(9) 0.60682(13)
O2C O 0.10373(8) 0.34503(8) 0.52330(11)
O3C O 0.20738(8) 0.26041(8) 0.34367(11)
C1A C 0.73485(17) -0.04191(13) 0.4624(2)
H1A H 0.7307 -0.0747 0.3786
H2A H 0.6797 -0.0579 0.5158
H3A H 0.7926 -0.0614 0.5078
C2A C 0.73726(13) 0.06249(12) 0.43981(16)
C3A C 0.65200(11) 0.20456(10) 0.45793(14)
H4A H 0.6810 0.2202 0.3717
C4A C 0.70867(10) 0.25282(10) 0.56546(14)
C5A C 0.54894(10) 0.23264(11) 0.45567(15)
C6A C 0.50104(12) 0.25966(12) 0.56756(15)
H5A H 0.5339 0.2634 0.6481
C7A C 0.40519(12) 0.28127(12) 0.56267(16)
H6A H 0.3730 0.3004 0.6395
C8A C 0.35657(11) 0.27481(10) 0.44517(15)
C9A C 0.40512(12) 0.24894(13) 0.33267(16)
H7A H 0.3726 0.2455 0.2519
C10A C 0.50065(12) 0.22819(13) 0.33800(16)
H8A H 0.5333 0.2108 0.2608
O1A O 0.80172(9) 0.10554(9) 0.39318(13)
O2A O 0.65497(8) 0.10373(8) 0.47670(11)
O3A O 0.73959(8) 0.20738(8) 0.65633(11)
loop_
_geom_bond_atom_site_label_1
_geom_bond_atom_site_label_2
_geom_bond_site_symmetry_1
_geom_bond_site_symmetry_2
C1 H1 1_555 1_555
H2 C1 1_555 1_555
H3 C1 1_555 1_555
C2 C1 1_555 1_555
C3 H4 1_555 1_555
C4 C3 1_555 1_555
C5 C3 1_555 1_555
C6 C5 1_555 1_555
H5 C6 1_555 1_555
C7 C6 1_555 1_555
H6 C7 1_555 1_555
C8 C7 1_555 1_555
C9 C8 1_555 1_555
H7 C9 1_555 1_555
C10 C5 1_555 1_555
H8 C10 1_555 1_555
O1 C2 1_555 1_555
O2 C2 1_555 1_555
O3 C4 1_555 1_555
C1B H1B 1_555 1_555
H2B C1B 1_555 1_555
H3B C1B 1_555 1_555
C2B C1B 1_555 1_555
C3B H4B 1_555 1_555
C4B C8 1_555 1_555
C5B C3B 1_555 1_555
C6B C5B 1_555 1_555
H5B C6B 1_555 1_555
C7B C6B 1_555 1_555
H6B C7B 1_555 1_555
C8B C7B 1_555 1_555
C9B C8B 1_555 1_555
H7B C9B 1_555 1_555
C10B C5B 1_555 1_555
H8B C10B 1_555 1_555
O1B C2B 1_555 1_555
O2B C2B 1_555 1_555
O3B C4B 1_555 1_555
C1C H1C 1_555 1_555
H2C C1C 1_555 1_555
H3C C1C 1_555 1_555
C2C C1C 1_555 1_555
C3C H4C 1_555 1_555
C4C C3C 1_555 1_555
C5C C3C 1_555 1_555
C6C C5C 1_555 1_555
H5C C6C 1_555 1_555
C7C C6C 1_555 1_555
H6C C7C 1_555 1_555
C8C C4 1_555 1_555
C9C C8C 1_555 1_555
H7C C9C 1_555 1_555
C10C C5C 1_555 1_555
H8C C10C 1_555 1_555
O1C C2C 1_555 1_555
O2C C2C 1_555 1_555
O3C C4C 1_555 1_555
C1A H1A 1_555 1_555
H2A C1A 1_555 1_555
H3A C1A 1_555 1_555
C2A C1A 1_555 1_555
C3A H4A 1_555 1_555
C4A C8B 1_555 1_555
C5A C3A 1_555 1_555
C6A C5A 1_555 1_555
H5A C6A 1_555 1_555
C7A C6A 1_555 1_555
H6A C7A 1_555 1_555
C8A C4C 1_555 1_555
C9A C8A 1_555 1_555
H7A C9A 1_555 1_555
C10A C5A 1_555 1_555
H8A C10A 1_555 1_555
O1A C2A 1_555 1_555
O2A C2A 1_555 1_555
O3A C4A 1_555 1_555
C3 O2 1_555 1_555
C9 C10 1_555 1_555
C3B C4B 1_555 1_555
C3B O2B 1_555 1_555
C9B C10B 1_555 1_555
C3C O2C 1_555 1_555
C7C C8C 1_555 1_555
C9C C10C 1_555 1_555
C3A C4A 1_555 1_555
C3A O2A 1_555 1_555
C7A C8A 1_555 1_555
C9A C10A 1_555 1_555

#END
