
#######################################################################
#
#                 Cambridge Crystallographic Data Centre
#                                CCDC 
#
#######################################################################
#
# If this CIF has been generated from an entry in the Cambridge 
# Structural Database, then it will include bibliographic, chemical, 
# crystal, experimental, refinement or atomic coordinate data resulting 
# from the CCDC's data processing and validation procedures.
#
#######################################################################

data_KOBMEW
_chemical_formula_moiety         'C23 H32 O3,C1 H4 O1,1.5(H2 O1)'
_chemical_name_systematic        
'1-ethoxy-11a-hydroxy-4a,5,8-trimethyl-12-methylidene-3a,4,4a,5,6,7,8,9,10,11,11a,11b-dodecahydro-3H-8,11-methanobenzo[de]fluoren-3-one methanol solvate sesquihydrate'
_symmetry_cell_setting           orthorhombic
_symmetry_space_group_name_H-M   'P 21 21 21'
_symmetry_Int_Tables_number      19
_space_group_name_Hall           'P 2ac 2ab'
loop_
_symmetry_equiv_pos_site_id
_symmetry_equiv_pos_as_xyz
1 x,y,z
2 1/2-x,-y,1/2+z
3 -x,1/2+y,1/2-z
4 1/2+x,1/2-y,-z
_cell_length_a                   7.6487(2)
_cell_length_b                   23.4372(7)
_cell_length_c                   25.9784(8)
_cell_angle_alpha                90
_cell_angle_beta                 90
_cell_angle_gamma                90
_cell_volume                     4656.99
_exptl_crystal_colour            colorless
_exptl_crystal_description       prism
_cell_formula_units_Z            8
loop_
_atom_site_label
_atom_site_type_symbol
_atom_site_fract_x
_atom_site_fract_y
_atom_site_fract_z
O1 O 0.8321(2) 0.70158(6) 0.64076(6)
H1 H 0.863037 0.687911 0.669232
O2 O 0.3983(3) 0.54385(7) 0.69437(9)
O3 O 0.4838(2) 0.72803(6) 0.62623(6)
C1 C 0.7772(3) 0.60116(8) 0.62293(7)
H2 H 0.901085 0.603460 0.635088
C2 C 0.7136(3) 0.66303(8) 0.61598(7)
C3 C 0.7181(3) 0.67601(9) 0.55762(8)
H3 H 0.697212 0.717553 0.551379
C4 C 0.8945(3) 0.65866(9) 0.53675(8)
C5 C 0.9245(3) 0.59381(9) 0.53592(8)
C6 C 1.1090(3) 0.57962(9) 0.55599(9)
H4 H 1.196365 0.590957 0.529791
H5 H 1.131975 0.602106 0.587535
C7 C 1.1312(3) 0.51647(9) 0.56805(9)
H6 H 1.115252 0.494059 0.536092
H7 H 1.251372 0.509621 0.580756
C8 C 1.0007(3) 0.49615(9) 0.60829(9)
H8 H 1.017757 0.520509 0.639488
C9 C 0.8080(3) 0.50456(8) 0.59046(8)
C10 C 0.7803(3) 0.56756(8) 0.57117(7)
C11 C 1.0095(3) 0.69657(10) 0.52022(10)
H9 H 0.982236 0.736100 0.521260
H10 H 1.119478 0.684293 0.507311
C12 C 0.9111(3) 0.57269(10) 0.47951(8)
H11 H 0.798640 0.584556 0.464907
H12 H 0.919554 0.530981 0.478737
H13 H 1.006487 0.589196 0.459209
C13 C 1.0439(4) 0.43466(10) 0.62401(11)
H14 H 0.955573 0.420856 0.648337
H15 H 1.159329 0.433598 0.640349
H16 H 1.044381 0.410242 0.593387
C14 C 0.7537(3) 0.45803(9) 0.55204(10)
H17 H 0.636458 0.466361 0.538840
H18 H 0.753140 0.420895 0.569371
H19 H 0.837008 0.457143 0.523374
C15 C 0.6872(3) 0.50155(8) 0.63783(8)
H20 H 0.733996 0.474083 0.663287
H21 H 0.568718 0.488937 0.627508
C16 C 0.6795(3) 0.56228(8) 0.66141(8)
H22 H 0.747558 0.561792 0.694280
C17 C 0.4948(3) 0.57908(9) 0.67394(8)
C18 C 0.4351(3) 0.63649(9) 0.66390(8)
H23 H 0.323381 0.647843 0.676198
C19 C 0.5331(3) 0.67452(9) 0.63758(8)
C20 C 0.3132(3) 0.74746(10) 0.64265(9)
H24 H 0.302928 0.745428 0.680589
H25 H 0.220267 0.723605 0.627157
C21 C 0.2977(5) 0.80806(13) 0.62458(14)
H26 H 0.303194 0.809143 0.586908
H27 H 0.393862 0.830665 0.638921
H28 H 0.185860 0.823958 0.636130
C22 C 0.6003(3) 0.57667(9) 0.54562(8)
H29 H 0.506666 0.564602 0.569557
H30 H 0.591912 0.553012 0.514152
C23 C 0.5756(3) 0.64027(9) 0.53150(8)
H31 H 0.582718 0.645063 0.493693
H32 H 0.458915 0.653382 0.542967
O4 O 0.1295(2) 0.74678(6) 0.77402(6)
H33 H 0.113816 0.781599 0.767914
O5 O 0.6751(2) 0.63039(7) 0.78424(7)
O6 O 0.4314(2) 0.81459(6) 0.78472(6)
C24 C 0.2452(3) 0.67856(8) 0.83419(7)
H34 H 0.130071 0.662688 0.822848
C25 C 0.2516(3) 0.74061(8) 0.81523(7)
C26 C 0.2005(3) 0.77883(9) 0.86142(8)
H35 H 0.178585 0.818852 0.849737
C27 C 0.0391(3) 0.75438(9) 0.88645(9)
C28 C 0.0699(3) 0.69785(9) 0.91460(8)
C29 C -0.0795(3) 0.65535(10) 0.90355(9)
H36 H -0.186393 0.668176 0.921665
H37 H -0.104669 0.655299 0.866163
C30 C -0.0355(3) 0.59500(11) 0.92056(10)
H38 H -0.135795 0.569607 0.913118
H39 H -0.015218 0.594592 0.958199
C31 C 0.1263(3) 0.57252(9) 0.89318(9)
H40 H 0.102076 0.574567 0.855397
C32 C 0.2904(3) 0.61026(9) 0.90351(9)
C33 C 0.2481(3) 0.67483(9) 0.89402(7)
C34 C -0.1146(3) 0.78026(11) 0.88392(12)
H41 H -0.125595 0.815361 0.865925
H42 H -0.213739 0.763730 0.900109
C35 C 0.0726(4) 0.70950(12) 0.97320(9)
H43 H 0.157243 0.739766 0.980745
H44 H 0.106331 0.674616 0.991488
H45 H -0.043949 0.721490 0.984505
C36 C 0.1547(4) 0.50924(11) 0.90638(13)
H46 H 0.264155 0.496026 0.890809
H47 H 0.057019 0.486677 0.892909
H48 H 0.161011 0.504693 0.943833
C37 C 0.3687(4) 0.59712(12) 0.95671(10)
H49 H 0.408012 0.557338 0.957690
H50 H 0.279613 0.603188 0.983275
H51 H 0.468277 0.622451 0.963093
C38 C 0.4288(3) 0.59804(10) 0.86188(9)
H52 H 0.424852 0.557369 0.851658
H53 H 0.547247 0.606638 0.875171
C39 C 0.3865(3) 0.63660(8) 0.81524(8)
H54 H 0.333102 0.612120 0.787904
C40 C 0.5506(3) 0.66231(9) 0.79368(8)
C41 C 0.5611(3) 0.72265(9) 0.78322(9)
H55 H 0.665240 0.737662 0.768582
C42 C 0.4281(3) 0.75825(9) 0.79356(8)
C43 C 0.5888(4) 0.83886(11) 0.76264(11)
H56 H 0.609431 0.823055 0.727825
H57 H 0.691250 0.829853 0.784484
C44 C 0.5624(5) 0.90174(12) 0.75981(19)
H58 H 0.663304 0.919396 0.742848
H59 H 0.550373 0.917218 0.794670
H60 H 0.456292 0.909984 0.740034
C45 C 0.3950(3) 0.71456(9) 0.91285(8)
H61 H 0.409723 0.710230 0.950505
H62 H 0.506483 0.703780 0.896086
C46 C 0.3515(3) 0.77713(9) 0.90011(8)
H63 H 0.317985 0.797659 0.931914
H64 H 0.455552 0.796183 0.885300
O7 O 0.8233(3) 0.81656(7) 0.65284(7)
H65 H 0.821600 0.781722 0.645258
C47 C 0.7913(5) 0.84861(14) 0.60923(13)
H66 H 0.899412 0.852403 0.589282
H67 H 0.749496 0.886542 0.619248
H68 H 0.702213 0.829614 0.588211
O8 O 0.8785(3) 0.45990(8) 0.77468(13)
H69 H 0.955268 0.483166 0.764972
C48 C 0.7586(5) 0.48796(15) 0.80819(16)
H70 H 0.659712 0.502557 0.788157
H71 H 0.817731 0.519762 0.825431
H72 H 0.716017 0.460859 0.834036
O9 O 1.0834(2) 0.54699(7) 0.74371(8)
H73 H 1.178270 0.544042 0.725380
H74 H 1.043233 0.580755 0.736540
O10 O 0.9573(2) 0.65973(7) 0.73002(6)
H75 H 0.865(5) 0.6525(14) 0.7503(14)
H76 H 1.009(5) 0.6893(16) 0.7440(16)
O11 O 1.0195(3) 0.84775(8) 0.73790(9)
H77 H 0.965069 0.840761 0.709183
H78 H 1.064017 0.881862 0.736856
loop_
_geom_bond_atom_site_label_1
_geom_bond_atom_site_label_2
_geom_bond_site_symmetry_1
_geom_bond_site_symmetry_2
O1 H1 1_555 1_555
O2 C17 1_555 1_555
O3 C19 1_555 1_555
C1 H2 1_555 1_555
C2 O1 1_555 1_555
C3 C2 1_555 1_555
H3 C3 1_555 1_555
C4 C3 1_555 1_555
C5 C4 1_555 1_555
C6 C5 1_555 1_555
H4 C6 1_555 1_555
H5 C6 1_555 1_555
C7 C6 1_555 1_555
H6 C7 1_555 1_555
H7 C7 1_555 1_555
C8 C7 1_555 1_555
H8 C8 1_555 1_555
C9 C8 1_555 1_555
C10 C1 1_555 1_555
C11 C4 1_555 1_555
H9 C11 1_555 1_555
H10 C11 1_555 1_555
C12 C5 1_555 1_555
H11 C12 1_555 1_555
H12 C12 1_555 1_555
H13 C12 1_555 1_555
C13 C8 1_555 1_555
H14 C13 1_555 1_555
H15 C13 1_555 1_555
H16 C13 1_555 1_555
C14 C9 1_555 1_555
H17 C14 1_555 1_555
H18 C14 1_555 1_555
H19 C14 1_555 1_555
C15 C9 1_555 1_555
H20 C15 1_555 1_555
H21 C15 1_555 1_555
C16 C1 1_555 1_555
H22 C16 1_555 1_555
C17 C16 1_555 1_555
C18 C17 1_555 1_555
H23 C18 1_555 1_555
C19 C2 1_555 1_555
C20 O3 1_555 1_555
H24 C20 1_555 1_555
H25 C20 1_555 1_555
C21 C20 1_555 1_555
H26 C21 1_555 1_555
H27 C21 1_555 1_555
H28 C21 1_555 1_555
C22 C10 1_555 1_555
H29 C22 1_555 1_555
H30 C22 1_555 1_555
C23 C3 1_555 1_555
H31 C23 1_555 1_555
H32 C23 1_555 1_555
O4 H33 1_555 1_555
O5 C40 1_555 1_555
O6 C42 1_555 1_555
C24 H34 1_555 1_555
C25 O4 1_555 1_555
C26 C25 1_555 1_555
H35 C26 1_555 1_555
C27 C26 1_555 1_555
C28 C27 1_555 1_555
C29 C28 1_555 1_555
H36 C29 1_555 1_555
H37 C29 1_555 1_555
C30 C29 1_555 1_555
H38 C30 1_555 1_555
H39 C30 1_555 1_555
C31 C30 1_555 1_555
H40 C31 1_555 1_555
C32 C31 1_555 1_555
C33 C24 1_555 1_555
C34 C27 1_555 1_555
H41 C34 1_555 1_555
H42 C34 1_555 1_555
C35 C28 1_555 1_555
H43 C35 1_555 1_555
H44 C35 1_555 1_555
H45 C35 1_555 1_555
C36 C31 1_555 1_555
H46 C36 1_555 1_555
H47 C36 1_555 1_555
H48 C36 1_555 1_555
C37 C32 1_555 1_555
H49 C37 1_555 1_555
H50 C37 1_555 1_555
H51 C37 1_555 1_555
C38 C32 1_555 1_555
H52 C38 1_555 1_555
H53 C38 1_555 1_555
C39 C24 1_555 1_555
H54 C39 1_555 1_555
C40 C39 1_555 1_555
C41 C40 1_555 1_555
H55 C41 1_555 1_555
C42 C25 1_555 1_555
C43 O6 1_555 1_555
H56 C43 1_555 1_555
H57 C43 1_555 1_555
C44 C43 1_555 1_555
H58 C44 1_555 1_555
H59 C44 1_555 1_555
H60 C44 1_555 1_555
C45 C33 1_555 1_555
H61 C45 1_555 1_555
H62 C45 1_555 1_555
C46 C26 1_555 1_555
H63 C46 1_555 1_555
H64 C46 1_555 1_555
O7 H65 1_555 1_555
C47 O7 1_555 1_555
H66 C47 1_555 1_555
H67 C47 1_555 1_555
H68 C47 1_555 1_555
O8 H69 1_555 1_555
C48 O8 1_555 1_555
H70 C48 1_555 1_555
H71 C48 1_555 1_555
H72 C48 1_555 1_555
O9 H73 1_555 1_555
H74 O9 1_555 1_555
O10 H75 1_555 1_555
H76 O10 1_555 1_555
O11 H77 1_555 1_555
H78 O11 1_555 1_555
C1 C2 1_555 1_555
C5 C10 1_555 1_555
C9 C10 1_555 1_555
C15 C16 1_555 1_555
C18 C19 1_555 1_555
C22 C23 1_555 1_555
C24 C25 1_555 1_555
C28 C33 1_555 1_555
C32 C33 1_555 1_555
C38 C39 1_555 1_555
C41 C42 1_555 1_555
C45 C46 1_555 1_555

#END
