
#######################################################################
#
#                 Cambridge Crystallographic Data Centre
#                                CCDC 
#
#######################################################################
#
# If this CIF has been generated from an entry in the Cambridge 
# Structural Database, then it will include bibliographic, chemical, 
# crystal, experimental, refinement or atomic coordinate data resulting 
# from the CCDC's data processing and validation procedures.
#
#######################################################################

data_KOBNOE01
_chemical_formula_moiety         'C7 H10 N2,C7 H4 N2 O6'
_chemical_name_systematic        
'3,5-dinitrobenzoic acid N,N-dimethylpyridin-4-amine'
_symmetry_cell_setting           orthorhombic
_symmetry_space_group_name_H-M   'P 21 21 21'
_symmetry_Int_Tables_number      19
_space_group_name_Hall           'P 2ac 2ab'
loop_
_symmetry_equiv_pos_site_id
_symmetry_equiv_pos_as_xyz
1 x,y,z
2 1/2-x,-y,1/2+z
3 1/2+x,1/2-y,-z
4 -x,1/2+y,1/2-z
_cell_length_a                   5.8884(15)
_cell_length_b                   13.750(4)
_cell_length_c                   18.609(5)
_cell_angle_alpha                90
_cell_angle_beta                 90
_cell_angle_gamma                90
_cell_volume                     1506.69
_exptl_crystal_colour            colorless
_exptl_crystal_description       prismatic
_cell_formula_units_Z            4
loop_
_atom_site_label
_atom_site_type_symbol
_atom_site_fract_x
_atom_site_fract_y
_atom_site_fract_z
C1 C -0.3250(4) 0.92615(19) 0.82476(12)
H1 H -0.3201 0.9728 0.8631
H2 H -0.3277 0.8617 0.8445
H3 H -0.4592 0.9365 0.7965
C2 C 0.0402(4) 1.00879(17) 0.80344(13)
H4 H -0.0170 1.0416 0.8452
H5 H 0.0664 1.0553 0.7659
H6 H 0.1802 0.9767 0.8151
N1 N -0.0209(3) 0.76230(11) 0.60245(8)
N2 N -0.1244(3) 0.93747(12) 0.77942(8)
C3 C 0.1106(3) 0.88502(12) 0.68030(9)
H7 H 0.2235 0.9292 0.6927
C4 C -0.0901(3) 0.87944(12) 0.72169(9)
C5 C -0.2522(3) 0.81073(12) 0.69956(10)
H8 H -0.3862 0.8033 0.7255
C6 C -0.2138(3) 0.75518(13) 0.64044(11)
H9 H -0.3243 0.7110 0.6259
C7 C 0.1390(3) 0.82612(13) 0.62252(10)
H10 H 0.2728 0.8301 0.5962
O1 O 0.0618(2) 0.62949(10) 0.50150(7)
H11 H 0.0279 0.6752 0.5277
C8 C 0.2161(3) 0.47757(12) 0.41670(9)
H12 H 0.0805 0.5072 0.4034
C9 C 0.4972(3) 0.35107(13) 0.39665(10)
H13 H 0.5503 0.2982 0.3704
C10 C 0.5407(3) 0.46637(12) 0.49423(9)
H14 H 0.6261 0.4893 0.5327
O2 O 0.3768(3) 0.62723(11) 0.56752(8)
C11 C 0.2984(3) 0.39839(12) 0.37863(9)
C12 C 0.2540(3) 0.59780(11) 0.51871(9)
C13 C 0.3397(3) 0.51199(11) 0.47503(9)
O3 O 0.8984(3) 0.27275(11) 0.44032(9)
N3 N 0.8189(3) 0.33530(11) 0.47966(10)
N4 N 0.1656(3) 0.36154(13) 0.31739(9)
O4 O 0.9013(3) 0.35799(12) 0.53693(10)
C14 C 0.6128(3) 0.38631(12) 0.45545(10)
O5 O -0.0078(3) 0.40429(12) 0.30089(9)
O6 O 0.2333(3) 0.28965(14) 0.28703(11)
loop_
_geom_bond_atom_site_label_1
_geom_bond_atom_site_label_2
_geom_bond_site_symmetry_1
_geom_bond_site_symmetry_2
C1 H1 1_555 1_555
H2 C1 1_555 1_555
H3 C1 1_555 1_555
C2 H4 1_555 1_555
H5 C2 1_555 1_555
H6 C2 1_555 1_555
N1 C6 1_555 1_555
N2 C1 1_555 1_555
C3 H7 1_555 1_555
C4 N2 1_555 1_555
C5 C4 1_555 1_555
H8 C5 1_555 1_555
C6 C5 1_555 1_555
H9 C6 1_555 1_555
C7 N1 1_555 1_555
H10 C7 1_555 1_555
O1 H11 1_555 1_555
C8 H12 1_555 1_555
C9 H13 1_555 1_555
C10 H14 1_555 1_555
O2 C12 1_555 1_555
C11 C8 1_555 1_555
C12 O1 1_555 1_555
C13 C8 1_555 1_555
O3 N3 1_555 1_555
N3 O4 1_555 1_555
N4 C11 1_555 1_555
C14 C9 1_555 1_555
O5 N4 1_555 1_555
O6 N4 1_555 1_555
C2 N2 1_555 1_555
C3 C4 1_555 1_555
C3 C7 1_555 1_555
C9 C11 1_555 1_555
C10 C13 1_555 1_555
C10 C14 1_555 1_555
C12 C13 1_555 1_555
N3 C14 1_555 1_555

#END
