
#######################################################################
#
#                 Cambridge Crystallographic Data Centre
#                                CCDC 
#
#######################################################################
#
# If this CIF has been generated from an entry in the Cambridge 
# Structural Database, then it will include bibliographic, chemical, 
# crystal, experimental, refinement or atomic coordinate data resulting 
# from the CCDC's data processing and validation procedures.
#
#######################################################################

data_KOCCUD
_chemical_formula_moiety         'C29 H46 Be1 Cl1 N5 Si2,C7 H8'
_chemical_name_systematic        
'(bis(trimethylsilyl)amido)-(carbodi(1-methyl-3-isopropylbenzimidazol-2-ylidene))-chloro-beryllium toluene solvate'
_symmetry_cell_setting           monoclinic
_symmetry_space_group_name_H-M   'P 21/n'
_symmetry_Int_Tables_number      14
_space_group_name_Hall           '-P 2yn'
loop_
_symmetry_equiv_pos_site_id
_symmetry_equiv_pos_as_xyz
1 x,y,z
2 1/2-x,1/2+y,1/2-z
3 -x,-y,-z
4 1/2+x,1/2-y,1/2+z
_cell_length_a                   9.0264(6)
_cell_length_b                   24.8747(19)
_cell_length_c                   16.8657(12)
_cell_angle_alpha                90
_cell_angle_beta                 90.557(2)
_cell_angle_gamma                90
_cell_volume                     3786.66
_exptl_crystal_colour            yellow
_exptl_crystal_description       block
_chemical_melting_point          '340 K'
_cell_formula_units_Z            4
_chemical_properties_physical    Air-sensitive,Moisture-sensitive
_exptl_crystal_recrystallization_method 
'Re-crystallisation from solvent: hexanes, toluene'
loop_
_atom_site_label
_atom_site_type_symbol
_atom_site_fract_x
_atom_site_fract_y
_atom_site_fract_z
Cl1 Cl 0.54345(5) 0.25380(2) 0.46926(3)
Si1 Si 0.60318(5) 0.12823(2) 0.54405(3)
Si2 Si 0.84546(5) 0.10088(2) 0.43252(3)
N1 N 0.72264(15) 0.31022(5) 0.25650(7)
N2 N 0.86827(15) 0.29578(5) 0.35977(8)
N3 N 0.77485(14) 0.19058(5) 0.18201(7)
N4 N 0.58419(14) 0.14920(5) 0.23752(8)
N5 N 0.69591(14) 0.14090(5) 0.45624(8)
C1 C 0.70683(17) 0.21973(6) 0.31795(9)
C2 C 0.76564(17) 0.27196(6) 0.31064(9)
C3 C 0.60159(19) 0.30440(7) 0.19972(10)
H1 H 0.639245 0.288905 0.15044
H2 H 0.558074 0.339744 0.188673
H3 H 0.525813 0.280634 0.22175
C4 C 0.95631(19) 0.26662(7) 0.42032(10)
H4 H 0.91798 0.228921 0.421763
C5 C 1.1192(2) 0.26353(8) 0.39696(12)
H5 H 1.12668 0.249459 0.342872
H6 H 1.172258 0.239621 0.433652
H7 H 1.163121 0.29953 0.399362
C6 C 0.9346(2) 0.29037(8) 0.50286(10)
H8 H 0.975688 0.326815 0.504611
H9 H 0.985482 0.267849 0.54225
H10 H 0.828548 0.291683 0.514709
C7 C 0.89184(18) 0.34874(6) 0.33570(9)
C8 C 0.9859(2) 0.38844(7) 0.36392(10)
H11 H 1.052846 0.381855 0.406649
C9 C 0.9783(2) 0.43826(7) 0.32714(11)
H12 H 1.04204 0.466279 0.34488
C10 C 0.8800(2) 0.44818(7) 0.26509(11)
H13 H 0.875173 0.483217 0.242806
C11 C 0.7889(2) 0.40825(7) 0.23490(10)
H14 H 0.723357 0.414762 0.19157
C12 C 0.79807(18) 0.35809(6) 0.27108(9)
C13 C 0.68751(17) 0.19002(6) 0.24919(9)
C14 C 0.91323(18) 0.21991(7) 0.17388(10)
H15 H 0.893733 0.2547 0.148585
H16 H 0.981538 0.199064 0.141145
H17 H 0.957684 0.225733 0.226423
C15 C 0.44387(17) 0.14621(7) 0.28128(10)
H18 H 0.451161 0.172395 0.326139
C16 C 0.31431(19) 0.16426(8) 0.22817(11)
H19 H 0.332748 0.200824 0.209013
H20 H 0.22248 0.163708 0.258685
H21 H 0.304897 0.13978 0.182873
C17 C 0.4187(2) 0.09086(7) 0.31736(10)
H22 H 0.406693 0.064296 0.27488
H23 H 0.329185 0.091572 0.349741
H24 H 0.504131 0.081115 0.35068
C18 C 0.61110(17) 0.12368(6) 0.16541(9)
C19 C 0.54308(19) 0.08061(7) 0.12759(10)
H25 H 0.458594 0.063552 0.149416
C20 C 0.6034(2) 0.06344(7) 0.05658(10)
H26 H 0.559656 0.033766 0.029748
C21 C 0.72618(19) 0.08842(7) 0.02353(10)
H27 H 0.7657 0.075021 -0.024587
C22 C 0.79183(18) 0.13269(6) 0.05985(9)
H28 H 0.873717 0.150682 0.036858
C23 C 0.73236(17) 0.14933(6) 0.13104(9)
C24 C 0.9438(2) 0.11988(8) 0.33938(12)
H29 H 0.877106 0.114777 0.293785
H30 H 1.031563 0.097135 0.333237
H31 H 0.974071 0.157659 0.34236
C25 C 0.7989(2) 0.02841(7) 0.41451(13)
H32 H 0.780404 0.01058 0.465277
H33 H 0.881928 0.010759 0.388015
H34 H 0.710074 0.026002 0.380831
C26 C 0.9916(2) 0.10454(8) 0.51244(12)
H35 H 1.025819 0.141752 0.518042
H36 H 1.075276 0.081489 0.498219
H37 H 0.949925 0.092301 0.562751
C27 C 0.6249(2) 0.05728(8) 0.58111(12)
H38 H 0.580325 0.032352 0.542717
H39 H 0.575189 0.053576 0.632222
H40 H 0.730407 0.048969 0.587675
C28 C 0.6728(2) 0.17146(8) 0.62765(11)
H41 H 0.777434 0.163335 0.638193
H42 H 0.614971 0.164189 0.675328
H43 H 0.662513 0.20942 0.613077
C29 C 0.39711(19) 0.13621(9) 0.53252(11)
H44 H 0.375395 0.169905 0.504619
H45 H 0.351425 0.136958 0.584979
H46 H 0.357027 0.105939 0.501932
Be1 Be 0.6580(2) 0.19688(9) 0.41332(12)
C30 C 0.6586(3) 0.41790(12) 0.47709(14)
H47 H 0.615699 0.433184 0.52524
H48 H 0.756948 0.433462 0.468624
H49 H 0.667489 0.378831 0.482974
C31 C 0.5603(2) 0.43047(9) 0.40733(12)
C32 C 0.4792(2) 0.38950(9) 0.36973(14)
H50 H 0.488921 0.353328 0.387104
C33 C 0.3855(3) 0.40200(13) 0.30744(15)
H51 H 0.32947 0.374281 0.282598
C34 C 0.3720(3) 0.45347(16) 0.28099(15)
H52 H 0.307567 0.461536 0.237725
C35 C 0.4514(3) 0.49341(13) 0.31689(17)
H53 H 0.442218 0.529354 0.298457
C36 C 0.5443(2) 0.48203(9) 0.37938(14)
H54 H 0.598601 0.510336 0.403834
loop_
_geom_bond_atom_site_label_1
_geom_bond_atom_site_label_2
_geom_bond_site_symmetry_1
_geom_bond_site_symmetry_2
Cl1 Be1 1_555 1_555
Si1 N5 1_555 1_555
Si2 N5 1_555 1_555
N1 C2 1_555 1_555
N2 C2 1_555 1_555
N3 C13 1_555 1_555
N4 C13 1_555 1_555
N5 Be1 1_555 1_555
C1 C2 1_555 1_555
C3 N1 1_555 1_555
H1 C3 1_555 1_555
H2 C3 1_555 1_555
H3 C3 1_555 1_555
C4 N2 1_555 1_555
H4 C4 1_555 1_555
C5 C4 1_555 1_555
H5 C5 1_555 1_555
H6 C5 1_555 1_555
H7 C5 1_555 1_555
C6 C4 1_555 1_555
H8 C6 1_555 1_555
H9 C6 1_555 1_555
H10 C6 1_555 1_555
C7 N2 1_555 1_555
C8 C7 1_555 1_555
H11 C8 1_555 1_555
C9 C8 1_555 1_555
H12 C9 1_555 1_555
C10 C9 1_555 1_555
H13 C10 1_555 1_555
C11 C10 1_555 1_555
H14 C11 1_555 1_555
C12 N1 1_555 1_555
C13 C1 1_555 1_555
C14 N3 1_555 1_555
H15 C14 1_555 1_555
H16 C14 1_555 1_555
H17 C14 1_555 1_555
C15 N4 1_555 1_555
H18 C15 1_555 1_555
C16 C15 1_555 1_555
H19 C16 1_555 1_555
H20 C16 1_555 1_555
H21 C16 1_555 1_555
C17 C15 1_555 1_555
H22 C17 1_555 1_555
H23 C17 1_555 1_555
H24 C17 1_555 1_555
C18 N4 1_555 1_555
C19 C18 1_555 1_555
H25 C19 1_555 1_555
C20 C19 1_555 1_555
H26 C20 1_555 1_555
C21 C20 1_555 1_555
H27 C21 1_555 1_555
C22 C21 1_555 1_555
H28 C22 1_555 1_555
C23 N3 1_555 1_555
C24 Si2 1_555 1_555
H29 C24 1_555 1_555
H30 C24 1_555 1_555
H31 C24 1_555 1_555
C25 Si2 1_555 1_555
H32 C25 1_555 1_555
H33 C25 1_555 1_555
H34 C25 1_555 1_555
C26 Si2 1_555 1_555
H35 C26 1_555 1_555
H36 C26 1_555 1_555
H37 C26 1_555 1_555
C27 Si1 1_555 1_555
H38 C27 1_555 1_555
H39 C27 1_555 1_555
H40 C27 1_555 1_555
C28 Si1 1_555 1_555
H41 C28 1_555 1_555
H42 C28 1_555 1_555
H43 C28 1_555 1_555
C29 Si1 1_555 1_555
H44 C29 1_555 1_555
H45 C29 1_555 1_555
H46 C29 1_555 1_555
Be1 C1 1_555 1_555
C30 H47 1_555 1_555
H48 C30 1_555 1_555
H49 C30 1_555 1_555
C31 C30 1_555 1_555
C32 C31 1_555 1_555
H50 C32 1_555 1_555
C33 C32 1_555 1_555
H51 C33 1_555 1_555
C34 C33 1_555 1_555
H52 C34 1_555 1_555
C35 C34 1_555 1_555
H53 C35 1_555 1_555
C36 C31 1_555 1_555
H54 C36 1_555 1_555
C7 C12 1_555 1_555
C11 C12 1_555 1_555
C18 C23 1_555 1_555
C22 C23 1_555 1_555
C35 C36 1_555 1_555

#END
