
#######################################################################
#
#                 Cambridge Crystallographic Data Centre
#                                CCDC 
#
#######################################################################
#
# If this CIF has been generated from an entry in the Cambridge 
# Structural Database, then it will include bibliographic, chemical, 
# crystal, experimental, refinement or atomic coordinate data resulting 
# from the CCDC's data processing and validation procedures.
#
#######################################################################

data_KOCXAE
_chemical_compound_source        'the endophytic fungus Xylaria cf. curta.'
_chemical_name_common            'Curtachalasin C methanol solvate'
_chemical_formula_moiety         'C29 H33 N1 O4,0.25(C1 H4 O1)'
_chemical_name_systematic        
'2-benzyl-11-(1-hydroxyethylidene)-6-methoxy-5,9,13-trimethyl-2,3,6,8,9,11-hexahydro-1,5-methanonaphtho[2,3-d]azocine-4,10(1H,5H)-dione methanol solvate'
_chemical_properties_biological  
'significant resistance reversal activity against fluconazole-resistant Candida albicans.'
_symmetry_cell_setting           orthorhombic
_symmetry_space_group_name_H-M   'P 21 21 21'
_symmetry_Int_Tables_number      19
_space_group_name_Hall           'P 2ac 2ab'
loop_
_symmetry_equiv_pos_site_id
_symmetry_equiv_pos_as_xyz
1 x,y,z
2 1/2+x,1/2-y,-z
3 -x,1/2+y,1/2-z
4 1/2-x,-y,1/2+z
_cell_length_a                   7.3578(3)
_cell_length_b                   10.3435(4)
_cell_length_c                   32.9360(11)
_cell_angle_alpha                90
_cell_angle_beta                 90
_cell_angle_gamma                90
_cell_volume                     2506.61
_exptl_crystal_colour            'light colorless'
_exptl_crystal_description       Prism
_cell_formula_units_Z            4
loop_
_atom_site_label
_atom_site_type_symbol
_atom_site_fract_x
_atom_site_fract_y
_atom_site_fract_z
O1 O 1.0572(2) 0.10628(14) 0.66989(5)
H1 H 0.341(4) 0.190(3) 0.7102(9)
H2 H 0.494(4) 0.289(3) 0.6982(8)
C1 C 0.8946(3) 0.09213(17) 0.66228(6)
O2 O 0.8484(2) 0.14772(14) 0.55112(4)
H3 H -0.093(4) 0.600(3) 0.6069(10)
N1 N 0.7691(2) 0.11760(16) 0.69092(5)
C2 C 0.5726(3) 0.09932(17) 0.68891(6)
H4 H 0.542956 0.016502 0.703107
H5 H 0.810(4) 0.144(3) 0.7126(8)
O3 O -0.0147(2) 0.62759(14) 0.56456(5)
C3 C 0.0570(3) 0.49908(18) 0.63676(6)
C4 C 0.5126(3) 0.08582(16) 0.64435(5)
H6 H 0.386896 0.049083 0.644102
O4 O -0.0936(2) 0.56952(14) 0.63520(5)
C5 C 0.5172(4) 0.1590(2) 0.82640(7)
H7 H 0.460132 0.1098 0.847159
C6 C 0.2494(3) 0.7009(2) 0.51050(6)
H8 H 0.339261 0.703353 0.488565
H9 H 0.265316 0.776489 0.528068
H10 H 0.126739 0.701734 0.49889
C7 C 0.0906(3) 0.4452(2) 0.67831(6)
H11 H 0.03168 0.360633 0.680732
H12 H 0.040484 0.504214 0.698727
H13 H 0.221706 0.435656 0.682653
C8 C 0.6385(3) -0.01074(17) 0.62299(6)
H14 H 0.648259 -0.088973 0.640693
C9 C 0.6595(4) 0.2407(2) 0.83603(7)
H15 H 0.70038 0.246941 0.863318
C10 C 0.6567(3) 0.25560(16) 0.59875(5)
C11 C 0.5599(3) -0.05393(19) 0.58225(6)
H16 H 0.554712 0.020096 0.563712
H17 H 0.437103 -0.088228 0.586368
H18 H 0.637391 -0.121349 0.570534
C12 C 0.1697(3) 0.48608(17) 0.60345(6)
C13 C 0.5085(3) 0.21335(16) 0.62153(5)
C14 C 0.4770(3) 0.20944(19) 0.71182(6)
C15 C 0.3501(3) 0.28747(16) 0.62257(5)
H19 H 0.248398 0.256338 0.6374
C16 C 0.3364(3) 0.40594(17) 0.60248(5)
C17 C 0.9684(3) -0.04730(19) 0.60359(7)
H20 H 0.93961 -0.067975 0.575271
H21 H 0.964018 -0.126414 0.619929
H22 H 1.090458 -0.009702 0.60511
C18 C 1.0162(3) 0.1888(2) 0.53416(7)
H23 H 1.015292 0.173477 0.504801
H24 H 1.116027 0.140083 0.546568
H25 H 1.033165 0.281309 0.539415
C19 C 0.6812(4) 0.3035(2) 0.76604(7)
H26 H 0.737612 0.353982 0.7455
C20 C 0.8286(3) 0.17599(17) 0.59373(6)
H27 H 0.934206 0.23042 0.602313
C21 C 0.8293(3) 0.05000(17) 0.61994(6)
C22 C 0.6415(3) 0.37245(17) 0.57748(5)
H28 H 0.741314 0.401421 0.561618
C23 C 0.4852(3) 0.44698(17) 0.57890(5)
C24 C 0.4652(3) 0.56991(17) 0.55471(6)
H29 H 0.558801 0.572518 0.533133
H30 H 0.484138 0.645351 0.572713
C25 C 0.2755(3) 0.57777(18) 0.53542(6)
H31 H 0.261897 0.502407 0.516645
C26 C 0.1311(3) 0.56577(17) 0.56813(6)
C27 C 0.7426(4) 0.3136(2) 0.80606(7)
H32 H 0.840288 0.369844 0.812634
C28 C 0.5383(3) 0.22069(19) 0.75558(6)
C29 C 0.4568(3) 0.1482(2) 0.78641(7)
H33 H 0.359614 0.091264 0.780081
O5 O 1.0532(14) 0.1851(10) 0.7541(3)
H34 H 0.959581 0.168071 0.76765
C30 C 1.1322(15) 0.3109(15) 0.7683(4)
H35 H 1.095928 0.314994 0.796288
H36 H 1.261819 0.319374 0.766449
H37 H 1.075208 0.379784 0.753509
loop_
_geom_bond_atom_site_label_1
_geom_bond_atom_site_label_2
_geom_bond_site_symmetry_1
_geom_bond_site_symmetry_2
O1 C1 1_555 1_555
H1 C14 1_555 1_555
H2 C14 1_555 1_555
C1 N1 1_555 1_555
O2 C18 1_555 1_555
H3 O4 1_555 1_555
N1 C2 1_555 1_555
C2 H4 1_555 1_555
H5 N1 1_555 1_555
O3 C26 1_555 1_555
C3 O4 1_555 1_555
C4 C2 1_555 1_555
H6 C4 1_555 1_555
C5 H7 1_555 1_555
C6 H8 1_555 1_555
H9 C6 1_555 1_555
H10 C6 1_555 1_555
C7 C3 1_555 1_555
H11 C7 1_555 1_555
H12 C7 1_555 1_555
H13 C7 1_555 1_555
C8 C4 1_555 1_555
H14 C8 1_555 1_555
C9 C5 1_555 1_555
H15 C9 1_555 1_555
C10 C13 1_555 1_555
C11 C8 1_555 1_555
H16 C11 1_555 1_555
H17 C11 1_555 1_555
H18 C11 1_555 1_555
C12 C3 1_555 1_555
C13 C4 1_555 1_555
C14 C2 1_555 1_555
C15 C13 1_555 1_555
H19 C15 1_555 1_555
C16 C12 1_555 1_555
C17 H20 1_555 1_555
H21 C17 1_555 1_555
H22 C17 1_555 1_555
C18 H23 1_555 1_555
H24 C18 1_555 1_555
H25 C18 1_555 1_555
C19 H26 1_555 1_555
C20 O2 1_555 1_555
H27 C20 1_555 1_555
C21 C1 1_555 1_555
C22 C10 1_555 1_555
H28 C22 1_555 1_555
C23 C16 1_555 1_555
C24 C23 1_555 1_555
H29 C24 1_555 1_555
H30 C24 1_555 1_555
C25 C6 1_555 1_555
H31 C25 1_555 1_555
C26 C12 1_555 1_555
C27 C9 1_555 1_555
H32 C27 1_555 1_555
C28 C14 1_555 1_555
C29 C5 1_555 1_555
H33 C29 1_555 1_555
O5 H34 1_555 1_555
C30 O5 1_555 1_555
H35 C30 1_555 1_555
H36 C30 1_555 1_555
H37 C30 1_555 1_555
C8 C21 1_555 1_555
C10 C20 1_555 1_555
C15 C16 1_555 1_555
C17 C21 1_555 1_555
C19 C27 1_555 1_555
C19 C28 1_555 1_555
C20 C21 1_555 1_555
C22 C23 1_555 1_555
C24 C25 1_555 1_555
C25 C26 1_555 1_555
C28 C29 1_555 1_555

#END
