
#######################################################################
#
#                 Cambridge Crystallographic Data Centre
#                                CCDC 
#
#######################################################################
#
# If this CIF has been generated from an entry in the Cambridge 
# Structural Database, then it will include bibliographic, chemical, 
# crystal, experimental, refinement or atomic coordinate data resulting 
# from the CCDC's data processing and validation procedures.
#
#######################################################################

data_KODQAW
_chemical_formula_moiety         'C25 H33 Li1 N2 O1'
_chemical_name_systematic        
(N,N'-bis(2,6-Dimethylphenyl)pentane-2,4-diiminato)-(tetrahydrofuran)-lithium
_symmetry_cell_setting           monoclinic
_symmetry_space_group_name_H-M   'P 21/n'
_symmetry_Int_Tables_number      14
_space_group_name_Hall           '-P 2yn'
loop_
_symmetry_equiv_pos_site_id
_symmetry_equiv_pos_as_xyz
1 x,y,z
2 1/2-x,1/2+y,1/2-z
3 -x,-y,-z
4 1/2+x,1/2-y,1/2+z
_cell_length_a                   14.036(5)
_cell_length_b                   13.261(4)
_cell_length_c                   14.248(5)
_cell_angle_alpha                90
_cell_angle_beta                 115.437(6)
_cell_angle_gamma                90
_cell_volume                     2394.91
_cell_formula_units_Z            4
loop_
_atom_site_label
_atom_site_type_symbol
_atom_site_fract_x
_atom_site_fract_y
_atom_site_fract_z
Li1 Li 0.9877(4) 0.1565(5) 0.2203(6)
O1 O 1.0141(2) 0.0284(2) 0.2796(2)
N1 N 0.8743(2) 0.2480(2) 0.1965(2)
N2 N 1.0690(2) 0.2317(2) 0.1667(2)
C1 C 0.8662(2) 0.3329(3) 0.1448(3)
C2 C 0.9420(2) 0.3659(3) 0.1118(3)
C3 C 1.0383(2) 0.3212(3) 0.1249(3)
C4 C 0.7700(4) 0.4001(4) 0.1154(5)
C5 C 1.1054(4) 0.3828(4) 0.0854(5)
C6 C 0.7974(2) 0.2258(2) 0.2349(3)
C7 C 0.7131(2) 0.1607(3) 0.1802(3)
C8 C 0.6418(3) 0.1373(3) 0.2209(4)
C9 C 0.6548(3) 0.1751(4) 0.3156(4)
C10 C 0.7384(4) 0.2374(3) 0.3710(4)
C11 C 0.8115(3) 0.2627(3) 0.3324(3)
C12 C 0.6993(3) 0.1165(3) 0.0766(3)
C13 C 0.9048(3) 0.3292(3) 0.3960(3)
C14 C 1.1679(3) 0.1905(3) 0.1788(3)
C15 C 1.1727(3) 0.1297(3) 0.1012(3)
C16 C 1.2683(3) 0.0802(3) 0.1206(4)
C17 C 1.3539(3) 0.0902(3) 0.2152(4)
C18 C 1.3488(3) 0.1508(3) 0.2908(3)
C19 C 1.2558(3) 0.2016(3) 0.2740(2)
C20 C 1.0785(4) 0.1181(6) -0.0029(5)
C21 C 1.2518(5) 0.2658(6) 0.3587(5)
C22 C 1.1044(3) -0.0336(3) 0.2977(4)
C23 C 1.0969(3) -0.1223(3) 0.3529(4)
C24 C 1.0089(3) -0.1061(3) 0.3805(4)
C25 C 0.9505(3) -0.0218(3) 0.3192(4)
loop_
_geom_bond_atom_site_label_1
_geom_bond_atom_site_label_2
_geom_bond_site_symmetry_1
_geom_bond_site_symmetry_2
Li1 O1 1_555 1_555
O1 C22 1_555 1_555
N1 Li1 1_555 1_555
N2 Li1 1_555 1_555
C1 N1 1_555 1_555
C2 C1 1_555 1_555
C3 N2 1_555 1_555
C4 C1 1_555 1_555
C5 C3 1_555 1_555
C6 N1 1_555 1_555
C7 C6 1_555 1_555
C8 C7 1_555 1_555
C9 C8 1_555 1_555
C10 C9 1_555 1_555
C11 C6 1_555 1_555
C12 C7 1_555 1_555
C13 C11 1_555 1_555
C14 N2 1_555 1_555
C15 C14 1_555 1_555
C16 C15 1_555 1_555
C17 C16 1_555 1_555
C18 C17 1_555 1_555
C19 C14 1_555 1_555
C20 C15 1_555 1_555
C21 C19 1_555 1_555
C22 C23 1_555 1_555
C23 C24 1_555 1_555
C24 C25 1_555 1_555
C25 O1 1_555 1_555
C2 C3 1_555 1_555
C10 C11 1_555 1_555
C18 C19 1_555 1_555

#END
