
#######################################################################
#
#                 Cambridge Crystallographic Data Centre
#                                CCDC 
#
#######################################################################
#
# If this CIF has been generated from an entry in the Cambridge 
# Structural Database, then it will include bibliographic, chemical, 
# crystal, experimental, refinement or atomic coordinate data resulting 
# from the CCDC's data processing and validation procedures.
#
#######################################################################

data_KODZAF
_chemical_formula_moiety         'C9 H12 Cl2 N4'
_chemical_name_systematic        
2,4-Dichloro-6-(3-methylpiperidin-1-yl)-1,3,5-triazine
_symmetry_cell_setting           monoclinic
_symmetry_space_group_name_H-M   'P 21/c'
_symmetry_Int_Tables_number      14
_space_group_name_Hall           '-P 2ybc'
loop_
_symmetry_equiv_pos_site_id
_symmetry_equiv_pos_as_xyz
1 x,y,z
2 -x,1/2+y,1/2-z
3 -x,-y,-z
4 x,1/2-y,1/2+z
_cell_length_a                   8.086(16)
_cell_length_b                   19.19(3)
_cell_length_c                   7.813(15)
_cell_angle_alpha                90
_cell_angle_beta                 106.18(3)
_cell_angle_gamma                90
_cell_volume                     1164.33
_exptl_crystal_colour            colorless
_exptl_crystal_description       block
_cell_formula_units_Z            4
_exptl_crystal_recrystallization_method ethanol
loop_
_atom_site_label
_atom_site_type_symbol
_atom_site_fract_x
_atom_site_fract_y
_atom_site_fract_z
Cl1 Cl 0.33512(12) 0.54293(6) 0.33576(14)
Cl2 Cl -0.24201(14) 0.64892(6) 0.38583(16)
N1 N -0.2234(3) 0.52641(15) 0.2549(4)
N2 N 0.0402(4) 0.59106(15) 0.3557(4)
N3 N 0.0437(4) 0.47725(15) 0.2313(4)
C1 C -0.1242(5) 0.35428(19) 0.0892(6)
H1 H -0.1644 0.3467 -0.0385
H2 H -0.0010 0.3627 0.1210
C2 C 0.1142(4) 0.53582(19) 0.3024(4)
N4 N -0.2137(4) 0.41552(15) 0.1395(4)
C3 C -0.1306(4) 0.47334(18) 0.2081(5)
C4 C -0.4391(5) 0.34335(18) 0.2078(5)
H3 H -0.3900 0.3513 0.3359
C5 C -0.4023(4) 0.4065(2) 0.1093(6)
H4 H -0.4575 0.4012 -0.0172
H5 H -0.4496 0.4477 0.1502
C6 C -0.1300(5) 0.58034(19) 0.3233(5)
C7 C -0.3548(5) 0.27924(19) 0.1560(5)
H6 H -0.3735 0.2397 0.2257
H7 H -0.4074 0.2688 0.0312
C8 C -0.1620(5) 0.2904(2) 0.1872(6)
H8 H -0.1078 0.2958 0.3139
H9 H -0.1127 0.2496 0.1470
C9 C -0.6342(6) 0.3354(2) 0.1702(7)
H10 H -0.6814 0.3769 0.2065
H11 H -0.6590 0.2962 0.2356
H12 H -0.6846 0.3279 0.0450
loop_
_geom_bond_atom_site_label_1
_geom_bond_atom_site_label_2
_geom_bond_site_symmetry_1
_geom_bond_site_symmetry_2
Cl1 C2 1_555 1_555
Cl2 C6 1_555 1_555
N1 C3 1_555 1_555
N2 C2 1_555 1_555
N3 C2 1_555 1_555
C1 H1 1_555 1_555
H2 C1 1_555 1_555
N4 C1 1_555 1_555
C3 N3 1_555 1_555
C4 H3 1_555 1_555
C5 N4 1_555 1_555
H4 C5 1_555 1_555
H5 C5 1_555 1_555
C6 N1 1_555 1_555
C7 C4 1_555 1_555
H6 C7 1_555 1_555
H7 C7 1_555 1_555
C8 C1 1_555 1_555
H8 C8 1_555 1_555
H9 C8 1_555 1_555
C9 C4 1_555 1_555
H10 C9 1_555 1_555
H11 C9 1_555 1_555
H12 C9 1_555 1_555
N2 C6 1_555 1_555
N4 C3 1_555 1_555
C4 C5 1_555 1_555
C7 C8 1_555 1_555

#END
