
#######################################################################
#
#                 Cambridge Crystallographic Data Centre
#                                CCDC 
#
#######################################################################
#
# If this CIF has been generated from an entry in the Cambridge 
# Structural Database, then it will include bibliographic, chemical, 
# crystal, experimental, refinement or atomic coordinate data resulting 
# from the CCDC's data processing and validation procedures.
#
#######################################################################

data_KODZIN
_chemical_formula_moiety         'C12 H14 N4 S1'
_chemical_name_systematic        
(E)-3-Ethyl-4-(2-methylbenzylideneamino)-1H-1,2,4-triazole-5(4H)-thione
_symmetry_cell_setting           monoclinic
_symmetry_space_group_name_H-M   'P 21/n'
_symmetry_Int_Tables_number      14
_space_group_name_Hall           '-P 2yn'
loop_
_symmetry_equiv_pos_site_id
_symmetry_equiv_pos_as_xyz
1 x,y,z
2 1/2-x,1/2+y,1/2-z
3 -x,-y,-z
4 1/2+x,1/2-y,1/2+z
_cell_length_a                   7.7255(15)
_cell_length_b                   15.411(3)
_cell_length_c                   10.685(2)
_cell_angle_alpha                90
_cell_angle_beta                 101.032(12)
_cell_angle_gamma                90
_cell_volume                     1248.62
_exptl_crystal_colour            yellow
_exptl_crystal_description       prism
_cell_formula_units_Z            4
_exptl_crystal_recrystallization_method ethanol
loop_
_atom_site_label
_atom_site_type_symbol
_atom_site_fract_x
_atom_site_fract_y
_atom_site_fract_z
S1 S 0.70986(7) -0.00644(3) 0.39484(6)
N1 N 0.9437(2) 0.12184(11) 0.47565(18)
H1 H 1.0320 0.0826 0.5095
N2 N 0.9697(2) 0.20996(11) 0.47450(18)
N3 N 0.70093(19) 0.17368(10) 0.37970(15)
N4 N 0.5343(2) 0.19429(11) 0.31007(17)
C1 C 0.7829(3) 0.09601(13) 0.4175(2)
C2 C 0.8200(3) 0.24045(13) 0.4152(2)
C3 C 0.7750(3) 0.33278(13) 0.3886(2)
H2 H 0.6760 0.3482 0.4279
H3 H 0.7391 0.3408 0.2973
C4 C 0.9288(3) 0.39305(14) 0.4383(3)
H4 H 0.9624 0.3868 0.5291
H5 H 0.8942 0.4520 0.4180
H6 H 1.0270 0.3784 0.3991
C5 C 0.4118(3) 0.13985(14) 0.3022(2)
H7 H 0.4330 0.0856 0.3402
C6 C 0.2346(3) 0.16241(14) 0.2325(2)
C7 C 0.1079(3) 0.09783(15) 0.1958(2)
C8 C -0.0589(3) 0.1238(2) 0.1313(2)
H8 H -0.1454 0.0820 0.1064
C9 C -0.0980(3) 0.2091(2) 0.1040(3)
H9 H -0.2105 0.2245 0.0618
C10 C 0.0279(3) 0.27235(18) 0.1386(2)
H10 H 0.0019 0.3302 0.1182
C11 C 0.1935(3) 0.24901(15) 0.2038(2)
H11 H 0.2783 0.2916 0.2288
C12 C 0.1452(3) 0.00349(16) 0.2212(3)
H12 H 0.2246 -0.0169 0.1687
H13 H 0.0369 -0.0287 0.2019
H14 H 0.1978 -0.0045 0.3094
loop_
_geom_bond_atom_site_label_1
_geom_bond_atom_site_label_2
_geom_bond_site_symmetry_1
_geom_bond_site_symmetry_2
S1 C1 1_555 1_555
N1 H1 1_555 1_555
N2 N1 1_555 1_555
N3 N4 1_555 1_555
N4 C5 1_555 1_555
C1 N1 1_555 1_555
C2 N2 1_555 1_555
C3 C2 1_555 1_555
H2 C3 1_555 1_555
H3 C3 1_555 1_555
C4 C3 1_555 1_555
H4 C4 1_555 1_555
H5 C4 1_555 1_555
H6 C4 1_555 1_555
C5 H7 1_555 1_555
C6 C5 1_555 1_555
C7 C6 1_555 1_555
C8 C7 1_555 1_555
H8 C8 1_555 1_555
C9 C8 1_555 1_555
H9 C9 1_555 1_555
C10 C9 1_555 1_555
H10 C10 1_555 1_555
C11 C6 1_555 1_555
H11 C11 1_555 1_555
C12 C7 1_555 1_555
H12 C12 1_555 1_555
H13 C12 1_555 1_555
H14 C12 1_555 1_555
N3 C1 1_555 1_555
N3 C2 1_555 1_555
C10 C11 1_555 1_555

#END
