
#######################################################################
#
#                 Cambridge Crystallographic Data Centre
#                                CCDC 
#
#######################################################################
#
# If this CIF has been generated from an entry in the Cambridge 
# Structural Database, then it will include bibliographic, chemical, 
# crystal, experimental, refinement or atomic coordinate data resulting 
# from the CCDC's data processing and validation procedures.
#
#######################################################################

data_KOGBEN
_chemical_formula_moiety         'C17 H18 I1 N1 O4'
_chemical_name_systematic        
'4-(2-Iodophenyl)-1,4-dihydro-2,6-dimethyl-3,5-pyridinedicarboxylic acid dimethyl ester'
_chemical_properties_biological  
'evaluated for vasorelaxant and receptor binding activity'
_symmetry_cell_setting           orthorhombic
_symmetry_space_group_name_H-M   'P b c n'
_symmetry_Int_Tables_number      60
_space_group_name_Hall           '-P 2n 2ab'
loop_
_symmetry_equiv_pos_site_id
_symmetry_equiv_pos_as_xyz
1 x,y,z
2 1/2-x,1/2+y,z
3 x,-y,1/2+z
4 1/2-x,1/2-y,1/2+z
5 -x,-y,-z
6 1/2+x,1/2-y,-z
7 -x,y,1/2-z
8 1/2+x,1/2+y,1/2-z
_cell_length_a                   31.462(8)
_cell_length_b                   11.709(4)
_cell_length_c                   9.720(3)
_cell_angle_alpha                90
_cell_angle_beta                 90
_cell_angle_gamma                90
_cell_volume                     3580.74
_chemical_melting_point          181.5-183.5deg.C
_cell_formula_units_Z            8
loop_
_atom_site_label
_atom_site_type_symbol
_atom_site_fract_x
_atom_site_fract_y
_atom_site_fract_z
N1 N 0.2133(5) 0.637(1) 0.506(1)
C1 C 0.1882(7) 0.594(2) 0.399(2)
C2 C 0.1585(6) 0.659(1) 0.340(2)
C3 C 0.1502(6) 0.781(2) 0.382(2)
C4 C 0.1854(6) 0.820(1) 0.483(2)
C5 C 0.2128(6) 0.752(1) 0.538(2)
C6 C 0.1068(6) 0.788(2) 0.449(2)
C7 C 0.0723(7) 0.851(1) 0.407(2)
I1 I 0.07618(5) 0.9645(1) 0.2331(2)
C8 C 0.0330(7) 0.851(2) 0.462(2)
C9 C 0.0278(8) 0.774(2) 0.574(2)
C10 C 0.0598(7) 0.711(2) 0.622(2)
C11 C 0.0990(7) 0.718(2) 0.560(2)
C12 C 0.1982(7) 0.470(2) 0.364(2)
C13 C 0.1340(7) 0.617(2) 0.226(2)
O1 O 0.1240(5) 0.515(1) 0.211(1)
O2 O 0.1110(5) 0.688(1) 0.160(1)
C14 C 0.0807(9) 0.653(2) 0.058(2)
C15 C 0.1881(6) 0.943(2) 0.505(2)
O3 O 0.1611(4) 1.002(1) 0.429(1)
O4 O 0.2128(5) 0.994(1) 0.583(1)
C16 C 0.1625(9) 1.128(2) 0.438(2)
C17 C 0.2461(7) 0.776(2) 0.643(2)
loop_
_geom_bond_atom_site_label_1
_geom_bond_atom_site_label_2
_geom_bond_site_symmetry_1
_geom_bond_site_symmetry_2
N1 C1 1_555 1_555
C1 C2 1_555 1_555
C2 C3 1_555 1_555
C3 C4 1_555 1_555
C4 C5 1_555 1_555
C5 N1 1_555 1_555
C6 C3 1_555 1_555
C7 C6 1_555 1_555
I1 C7 1_555 1_555
C8 C7 1_555 1_555
C9 C8 1_555 1_555
C10 C9 1_555 1_555
C11 C6 1_555 1_555
C12 C1 1_555 1_555
C13 C2 1_555 1_555
O1 C13 1_555 1_555
O2 C13 1_555 1_555
C14 O2 1_555 1_555
C15 C4 1_555 1_555
O3 C15 1_555 1_555
O4 C15 1_555 1_555
C16 O3 1_555 1_555
C17 C5 1_555 1_555
C10 C11 1_555 1_555

#END
