
#######################################################################
#
#                 Cambridge Crystallographic Data Centre
#                                CCDC 
#
#######################################################################
#
# If this CIF has been generated from an entry in the Cambridge 
# Structural Database, then it will include bibliographic, chemical, 
# crystal, experimental, refinement or atomic coordinate data resulting 
# from the CCDC's data processing and validation procedures.
#
#######################################################################

data_KOGGAP
_chemical_formula_moiety         'C30 H19 O1 P1 S2'
_chemical_name_systematic        
"4,5,6-Triphenyl-5H-isophosphindolo(5,4-b:6,7-b')dithiophene 5-oxide"
_symmetry_cell_setting           triclinic
_symmetry_space_group_name_H-M   'P -1'
_symmetry_Int_Tables_number      2
_space_group_name_Hall           '-P 1'
loop_
_symmetry_equiv_pos_site_id
_symmetry_equiv_pos_as_xyz
1 x,y,z
2 -x,-y,-z
_cell_length_a                   10.044(8)
_cell_length_b                   10.278(8)
_cell_length_c                   12.845(9)
_cell_angle_alpha                93.010(9)
_cell_angle_beta                 98.884(4)
_cell_angle_gamma                116.591(9)
_cell_volume                     1160.38
_exptl_crystal_colour            red
_exptl_crystal_description       platelet
_chemical_melting_point          '270 deg.C(dec.)'
_cell_formula_units_Z            2
_exptl_crystal_recrystallization_method dichloromethane/hexane
loop_
_atom_site_label
_atom_site_type_symbol
_atom_site_fract_x
_atom_site_fract_y
_atom_site_fract_z
S1 S 0.19655(14) -0.47833(12) 0.21161(9)
S2 S 0.17336(15) -0.36914(13) -0.03709(10)
P1 P 0.30895(14) 0.20210(13) 0.29417(10)
O1 O 0.2129(4) 0.2719(3) 0.3171(2)
C1 C 0.2736(5) 0.0333(5) 0.3479(3)
C2 C 0.2510(5) -0.0703(5) 0.2677(3)
C3 C 0.2280(5) -0.2224(5) 0.2755(4)
C4 C 0.2113(5) -0.3103(5) 0.1840(3)
C5 C 0.2084(5) -0.2639(5) 0.0822(4)
C6 C 0.2352(5) -0.1215(5) 0.0680(3)
C7 C 0.2599(5) -0.0175(5) 0.1607(3)
C8 C 0.2824(5) 0.1229(5) 0.1595(3)
C9 C 0.2295(5) -0.2930(5) 0.3672(4)
H1 H 0.2416 -0.2487 0.4371
C10 C 0.2116(5) -0.4312(5) 0.3442(4)
H2 H 0.2080 -0.4947 0.3960
C11 C 0.2281(5) -0.1011(5) -0.0413(4)
H3 H 0.2443 -0.0106 -0.0659
C12 C 0.1960(5) -0.2231(5) -0.1062(4)
H4 H 0.1869 -0.2282 -0.1812
C13 C 0.2605(5) 0.0204(5) 0.4592(3)
C14 C 0.1243(6) -0.0729(5) 0.4868(4)
H5 H 0.0395 -0.1343 0.4322
C15 C 0.1090(6) -0.0785(5) 0.5925(4)
H6 H 0.0150 -0.1441 0.6095
C16 C 0.2307(6) 0.0115(6) 0.6727(4)
H7 H 0.2203 0.0087 0.7449
C17 C 0.3679(6) 0.1056(5) 0.6474(4)
H8 H 0.4528 0.1668 0.7019
C18 C 0.3795(6) 0.1092(5) 0.5421(3)
H9 H 0.4733 0.1757 0.5255
C19 C 0.2934(5) 0.2038(5) 0.0668(4)
C20 C 0.1676(6) 0.2123(5) 0.0138(4)
H10 H 0.0764 0.1735 0.0407
C21 C 0.1738(6) 0.2773(5) -0.0785(4)
H11 H 0.0861 0.2811 -0.1150
C22 C 0.3051(6) 0.3361(5) -0.1175(4)
H12 H 0.3086 0.3802 -0.1808
C23 C 0.4318(6) 0.3305(6) -0.0639(4)
H13 H 0.5236 0.3720 -0.0899
C24 C 0.4259(6) 0.2651(6) 0.0274(4)
H14 H 0.5141 0.2620 0.0638
C25 C 0.5098(5) 0.3264(5) 0.3349(3)
C26 C 0.6202(5) 0.2815(5) 0.3291(4)
H15 H 0.5910 0.1822 0.3036
C27 C 0.7726(5) 0.3806(5) 0.3603(4)
H16 H 0.8476 0.3489 0.3574
C28 C 0.8156(6) 0.5261(5) 0.3958(4)
H17 H 0.9204 0.5946 0.4160
C29 C 0.7079(6) 0.5717(5) 0.4020(4)
H18 H 0.7382 0.6713 0.4272
C30 C 0.5542(5) 0.4728(5) 0.3716(3)
H19 H 0.4798 0.5049 0.3759
loop_
_geom_bond_atom_site_label_1
_geom_bond_atom_site_label_2
_geom_bond_site_symmetry_1
_geom_bond_site_symmetry_2
S1 C4 1_555 1_555
S2 C5 1_555 1_555
P1 O1 1_555 1_555
C1 P1 1_555 1_555
C2 C1 1_555 1_555
C3 C2 1_555 1_555
C4 C3 1_555 1_555
C5 C4 1_555 1_555
C6 C5 1_555 1_555
C7 C2 1_555 1_555
C8 P1 1_555 1_555
C9 C3 1_555 1_555
H1 C9 1_555 1_555
C10 S1 1_555 1_555
H2 C10 1_555 1_555
C11 C6 1_555 1_555
H3 C11 1_555 1_555
C12 S2 1_555 1_555
H4 C12 1_555 1_555
C13 C1 1_555 1_555
C14 C13 1_555 1_555
H5 C14 1_555 1_555
C15 C14 1_555 1_555
H6 C15 1_555 1_555
C16 C15 1_555 1_555
H7 C16 1_555 1_555
C17 C16 1_555 1_555
H8 C17 1_555 1_555
C18 C13 1_555 1_555
H9 C18 1_555 1_555
C19 C8 1_555 1_555
C20 C19 1_555 1_555
H10 C20 1_555 1_555
C21 C20 1_555 1_555
H11 C21 1_555 1_555
C22 C21 1_555 1_555
H12 C22 1_555 1_555
C23 C22 1_555 1_555
H13 C23 1_555 1_555
C24 C19 1_555 1_555
H14 C24 1_555 1_555
C25 P1 1_555 1_555
C26 C25 1_555 1_555
H15 C26 1_555 1_555
C27 C26 1_555 1_555
H16 C27 1_555 1_555
C28 C27 1_555 1_555
H17 C28 1_555 1_555
C29 C28 1_555 1_555
H18 C29 1_555 1_555
C30 C25 1_555 1_555
H19 C30 1_555 1_555
C6 C7 1_555 1_555
C7 C8 1_555 1_555
C9 C10 1_555 1_555
C11 C12 1_555 1_555
C17 C18 1_555 1_555
C23 C24 1_555 1_555
C29 C30 1_555 1_555

#END
