
#######################################################################
#
#                 Cambridge Crystallographic Data Centre
#                                CCDC 
#
#######################################################################
#
# If this CIF has been generated from an entry in the Cambridge 
# Structural Database, then it will include bibliographic, chemical, 
# crystal, experimental, refinement or atomic coordinate data resulting 
# from the CCDC's data processing and validation procedures.
#
#######################################################################

data_KOGXUZ
_chemical_compound_source        'wood of Xanthoceras sorbifolia'
_chemical_name_common            '3-Oxotirucalla-7,24-dien-2-oic acid'
_chemical_formula_moiety         'C30 H46 O3'
_chemical_name_systematic        
'(13\a,14\b,17\a,20S)-3-Oxolanosta-7,24-dien-21-oic acid'
_chemical_properties_biological  'inhibitory activity against HIV-1 protease'
_symmetry_cell_setting           orthorhombic
_symmetry_space_group_name_H-M   'P 21 21 21'
_symmetry_Int_Tables_number      19
_space_group_name_Hall           'P 2ac 2ab'
loop_
_symmetry_equiv_pos_site_id
_symmetry_equiv_pos_as_xyz
1 x,y,z
2 1/2-x,-y,1/2+z
3 1/2+x,1/2-y,-z
4 -x,1/2+y,1/2-z
_cell_length_a                   12.750(6)
_cell_length_b                   30.671(5)
_cell_length_c                   6.860(7)
_cell_angle_alpha                90
_cell_angle_beta                 90
_cell_angle_gamma                90
_cell_volume                     2682.64
_exptl_crystal_colour            colorless
_exptl_crystal_description       prismatic
_chemical_melting_point          523K
_cell_formula_units_Z            4
_exptl_crystal_recrystallization_method chloroform/methanol
loop_
_atom_site_label
_atom_site_type_symbol
_atom_site_fract_x
_atom_site_fract_y
_atom_site_fract_z
O1 O 0.2724(6) 1.0059(2) 0.204(1)
O2 O 0.3786(6) 0.9843(2) -0.033(1)
O3 O 0.2247(8) 0.6674(3) -0.264(1)
C1 C 0.1571(10) 0.7662(3) -0.063(2)
C2 C 0.1155(10) 0.7199(3) -0.119(2)
C3 C 0.205(1) 0.6898(4) -0.122(2)
C4 C 0.2709(8) 0.6851(3) 0.063(2)
C5 C 0.2963(8) 0.7321(3) 0.141(1)
C6 C 0.3483(9) 0.7310(3) 0.340(2)
C7 C 0.3696(9) 0.7760(3) 0.419(1)
C8 C 0.3333(7) 0.8130(3) 0.346(1)
C9 C 0.2664(7) 0.8121(3) 0.159(1)
C10 C 0.2088(8) 0.7671(3) 0.134(2)
C11 C 0.1950(8) 0.8515(3) 0.146(2)
C12 C 0.2536(8) 0.8968(3) 0.167(2)
C13 C 0.3604(9) 0.8925(3) 0.275(1)
C14 C 0.3510(7) 0.8569(3) 0.438(1)
C15 C 0.4532(8) 0.8639(3) 0.548(2)
C16 C 0.4751(8) 0.9128(3) 0.546(2)
C17 C 0.3939(8) 0.9327(3) 0.401(1)
C18 C 0.4495(8) 0.8825(4) 0.132(2)
C19 C 0.1271(9) 0.7616(4) 0.296(2)
C20 C 0.4376(8) 0.9733(3) 0.293(2)
C21 C 0.3555(9) 0.9903(3) 0.156(2)
C22 C 0.4626(9) 1.0095(3) 0.444(2)
C23 C 0.5025(10) 1.0524(3) 0.351(2)
C24 C 0.597(1) 1.0473(4) 0.225(2)
C25 C 0.614(1) 1.0622(4) 0.055(2)
C26 C 0.536(1) 1.0874(6) -0.066(2)
C27 C 0.716(1) 1.0536(5) -0.053(3)
C28 C 0.207(1) 0.6562(4) 0.205(2)
C29 C 0.3708(9) 0.6611(3) 0.016(2)
C30 C 0.2607(9) 0.8658(3) 0.586(2)
H1 H 0.2066 0.7737 -0.1612
H2 H 0.1006 0.7873 -0.0684
H3 H 0.0577 0.7115 -0.0235
H4 H 0.0768 0.7204 -0.2432
H5 H 0.3534 0.7428 0.0515
H6 H 0.2989 0.7158 0.4271
H7 H 0.4106 0.7134 0.3380
H8 H 0.4155 0.7769 0.5329
H9 H 0.3151 0.8143 0.0452
H10 H 0.1567 0.8514 0.0212
H11 H 0.1423 0.8492 0.2455
H12 H 0.2669 0.9091 0.0400
H13 H 0.2120 0.9170 0.2387
H14 H 0.4497 0.8522 0.6817
H15 H 0.5103 0.8468 0.4872
H16 H 0.4716 0.9260 0.6745
H17 H 0.5483 0.9194 0.5014
H18 H 0.3238 0.9445 0.5023
H19 H 0.5121 0.8731 0.2025
H20 H 0.4309 0.8577 0.0487
H21 H 0.4676 0.9059 0.0518
H22 H 0.0740 0.7844 0.2912
H23 H 0.0898 0.7342 0.2831
H24 H 0.1582 0.7624 0.4214
H25 H 0.5196 0.9652 0.2011
H26 H 0.3007 0.9909 -0.1396
H27 H 0.4027 1.0145 0.5263
H28 H 0.5188 0.9994 0.5343
H29 H 0.4440 1.0649 0.2711
H30 H 0.5164 1.0750 0.4473
H31 H 0.6483 1.0281 0.2753
H32 H 0.5164 1.1132 0.0109
H33 H 0.5623 1.0961 -0.1842
H34 H 0.4733 1.0705 -0.0808
H35 H 0.7279 1.0236 -0.0712
H36 H 0.7174 1.0677 -0.1807
H37 H 0.7732 1.0659 0.0201
H38 H 0.1398 0.6709 0.2356
H39 H 0.1886 0.6288 0.1491
H40 H 0.2404 0.6512 0.3274
H41 H 0.3598 0.6317 -0.0377
H42 H 0.4142 0.6760 -0.0796
H43 H 0.4183 0.6561 0.1281
H44 H 0.2664 0.8944 0.6458
H45 H 0.1924 0.8661 0.5181
H46 H 0.2564 0.8448 0.6850
loop_
_geom_bond_atom_site_label_1
_geom_bond_atom_site_label_2
_geom_bond_site_symmetry_1
_geom_bond_site_symmetry_2
O1 C21 1_555 1_555
O2 C21 1_555 1_555
O3 C3 1_555 1_555
C1 C2 1_555 1_555
C2 C3 1_555 1_555
C3 C4 1_555 1_555
C4 C5 1_555 1_555
C5 C6 1_555 1_555
C6 C7 1_555 1_555
C7 C8 1_555 1_555
C8 C9 1_555 1_555
C9 C10 1_555 1_555
C10 C1 1_555 1_555
C11 C9 1_555 1_555
C12 C11 1_555 1_555
C13 C12 1_555 1_555
C14 C8 1_555 1_555
C15 C14 1_555 1_555
C16 C15 1_555 1_555
C17 C13 1_555 1_555
C18 C13 1_555 1_555
C19 C10 1_555 1_555
C20 C17 1_555 1_555
C21 C20 1_555 1_555
C22 C20 1_555 1_555
C23 C22 1_555 1_555
C24 C23 1_555 1_555
C25 C24 1_555 1_555
C26 C25 1_555 1_555
C27 C25 1_555 1_555
C28 C4 1_555 1_555
C29 C4 1_555 1_555
C30 C14 1_555 1_555
H1 C1 1_555 1_555
H2 C1 1_555 1_555
H3 C2 1_555 1_555
H4 C2 1_555 1_555
H5 C5 1_555 1_555
H6 C6 1_555 1_555
H7 C6 1_555 1_555
H8 C7 1_555 1_555
H9 C9 1_555 1_555
H10 C11 1_555 1_555
H11 C11 1_555 1_555
H12 C12 1_555 1_555
H13 C12 1_555 1_555
H14 C15 1_555 1_555
H15 C15 1_555 1_555
H16 C16 1_555 1_555
H17 C16 1_555 1_555
H18 C17 1_555 1_555
H19 C18 1_555 1_555
H20 C18 1_555 1_555
H21 C18 1_555 1_555
H22 C19 1_555 1_555
H23 C19 1_555 1_555
H24 C19 1_555 1_555
H25 C20 1_555 1_555
H26 O2 1_555 1_555
H27 C22 1_555 1_555
H28 C22 1_555 1_555
H29 C23 1_555 1_555
H30 C23 1_555 1_555
H31 C24 1_555 1_555
H32 C26 1_555 1_555
H33 C26 1_555 1_555
H34 C26 1_555 1_555
H35 C27 1_555 1_555
H36 C27 1_555 1_555
H37 C27 1_555 1_555
H38 C28 1_555 1_555
H39 C28 1_555 1_555
H40 C28 1_555 1_555
H41 C29 1_555 1_555
H42 C29 1_555 1_555
H43 C29 1_555 1_555
H44 C30 1_555 1_555
H45 C30 1_555 1_555
H46 C30 1_555 1_555
C5 C10 1_555 1_555
C13 C14 1_555 1_555
C16 C17 1_555 1_555

#END
