
#######################################################################
#
#                 Cambridge Crystallographic Data Centre
#                                CCDC 
#
#######################################################################
#
# If this CIF has been generated from an entry in the Cambridge 
# Structural Database, then it will include bibliographic, chemical, 
# crystal, experimental, refinement or atomic coordinate data resulting 
# from the CCDC's data processing and validation procedures.
#
#######################################################################

data_KOHJAS
_chemical_formula_moiety         'C38 H36 N6 O6,2(C4 H8 O1),H2 O1'
_chemical_name_systematic        
'1,3,5,11,13,15-Tetra-aza-21,27-dioxabenzo(gh)dipyrido(bc,lm)naphtho(vwxy)dotriacontane-6,10,16,32-tetraone tetrahydrofuran clathrate monohydrate'
_chemical_properties_biological  'barbiturate receptor activity'
_symmetry_cell_setting           triclinic
_symmetry_space_group_name_H-M   'P -1'
_symmetry_Int_Tables_number      2
_space_group_name_Hall           '-P 1'
loop_
_symmetry_equiv_pos_site_id
_symmetry_equiv_pos_as_xyz
1 x,y,z
2 -x,-y,-z
_cell_length_a                   8.563(2)
_cell_length_b                   16.143(3)
_cell_length_c                   17.114(4)
_cell_angle_alpha                76.42(2)
_cell_angle_beta                 89.23(2)
_cell_angle_gamma                75.87(2)
_cell_volume                     2227.58
_chemical_melting_point          229.5-301deg.C
_cell_formula_units_Z            2
loop_
_atom_site_label
_atom_site_type_symbol
_atom_site_fract_x
_atom_site_fract_y
_atom_site_fract_z
O7 O -0.2770(6) 0.6778(3) 0.4481(3)
O8 O 0.2186(11) 0.0744(4) 0.8117(4)
C39 C 0.2098(21) 0.1546(8) 0.8268(9)
C40 C 0.1339(21) 0.2217(8) 0.7594(11)
C41 C 0.0925(26) 0.1710(10) 0.7028(9)
C42 C 0.1729(18) 0.0820(8) 0.7334(8)
C43 C -0.4588(22) 0.3284(11) 0.7033(8)
C44 C -0.3341(26) 0.2720(14) 0.7738(11)
C45 C -0.3581(38) 0.3283(15) 0.8377(15)
C46 C -0.4357(44) 0.4250(18) 0.7884(23)
C47 C -0.5688(35) 0.4016(22) 0.7405(25)
C1 C -0.0974(7) 0.2342(4) 0.4404(3)
N1 N 0.0242(5) 0.1607(3) 0.4322(3)
N2 N -0.0477(5) 0.2776(3) 0.4887(3)
C2 C -0.2494(7) 0.2633(4) 0.4007(4)
C3 C -0.3513(7) 0.3358(4) 0.4173(4)
C4 C -0.3070(7) 0.3807(4) 0.4683(4)
C5 C -0.1500(7) 0.3492(4) 0.5028(4)
N3 N -0.0786(7) 0.3871(3) 0.5533(3)
C6 C 0.0083(7) 0.0969(4) 0.3957(3)
O1 O -0.1140(5) 0.0971(3) 0.3604(3)
C7 C 0.1582(7) 0.0234(4) 0.4014(3)
C8 C 0.2613(7) -0.0123(4) 0.4693(3)
C9 C 0.1858(10) -0.0128(5) 0.3356(4)
C10 C 0.3173(12) -0.0837(6) 0.3386(5)
C11 C 0.4175(10) -0.1194(5) 0.4052(4)
C12 C 0.3921(7) -0.0835(4) 0.4723(3)
C13 C 0.5083(7) -0.1270(4) 0.5422(4)
O2 O 0.6416(5) -0.1732(3) 0.5337(2)
N4 N 0.4573(5) -0.1132(3) 0.6140(3)
C14 C 0.5340(7) -0.1526(4) 0.6914(4)
N5 N 0.4588(5) -0.1159(3) 0.7471(3)
C15 C 0.6699(8) -0.2220(4) 0.7066(4)
C16 C 0.7239(9) -0.2565(5) 0.7866(4)
C17 C 0.6445(9) -0.2213(5) 0.8464(4)
C18 C 0.5112(8) -0.1510(4) 0.8236(4)
N6 N 0.4197(7) -0.1069(4) 0.8770(3)
C19 C 0.4336(10) -0.1289(5) 0.9587(4)
O3 O 0.5440(7) -0.1873(4) 0.9974(3)
C20 C 0.2997(11) -0.0761(6) 0.9970(4)
C21 C 0.3353(13) -0.0767(6) 1.0794(5)
C22 C 0.1935(15) -0.0302(6) 1.1196(5)
C23 C 0.1470(10) 0.0644(5) 1.0846(5)
O4 O 0.0252(7) 0.1061(3) 1.1323(3)
C24 C -0.0410(10) 0.1946(5) 1.1045(4)
C25 C 0.0052(9) 0.2459(5) 1.0371(4)
C26 C -0.1639(9) 0.2302(5) 1.1512(4)
C27 C -0.2413(9) 0.3152(5) 1.1269(4)
C28 C -0.2030(8) 0.3704(5) 1.0560(4)
C29 C -0.0761(8) 0.3354(5) 1.0113(4)
C30 C -0.0305(8) 0.3891(5) 0.9418(4)
C31 C -0.2851(9) 0.4601(5) 1.0265(4)
C32 C -0.2432(9) 0.5101(5) 0.9583(4)
C33 C -0.1133(9) 0.4744(5) 0.9153(4)
O5 O -0.0861(6) 0.5312(3) 0.8459(3)
C34 C 0.0553(8) 0.5046(5) 0.8038(4)
C35 C 0.0428(9) 0.5690(4) 0.7236(5)
C36 C -0.0798(8) 0.5605(4) 0.6651(4)
C37 C -0.0235(9) 0.4792(4) 0.6347(4)
C38 C -0.1393(9) 0.4623(4) 0.5781(4)
O6 O -0.2732(6) 0.5106(3) 0.5570(3)
H1 H 0.1293 0.1552 0.4548
H2 H -0.2808 0.2335 0.3634
H3 H -0.4578 0.3559 0.3923
H4 H -0.3800 0.4314 0.4798
H5 H 0.0288 0.3556 0.5735
H6 H 0.2416 0.0127 0.5152
H7 H 0.1149 0.0106 0.2884
H8 H 0.3382 -0.1080 0.2923
H9 H 0.5059 -0.1694 0.4062
H10 H 0.3557 -0.0712 0.6127
H11 H 0.7243 -0.2451 0.6640
H12 H 0.8170 -0.3052 0.8003
H13 H 0.6804 -0.2447 0.9019
H14 H 0.3378 -0.0550 0.8530
H15 H 0.2069 -0.0993 0.9959
H16 H 0.2754 -0.0163 0.9660
H17 H 0.3695 -0.1368 1.1095
H18 H 0.4213 -0.0483 1.0801
H19 H 0.2221 -0.0400 1.1757
H20 H 0.1035 -0.0542 1.1139
H21 H 0.1042 0.0754 1.0305
H22 H 0.2396 0.0881 1.0840
H23 H 0.0929 0.2210 1.0075
H24 H -0.1918 0.1942 1.1998
H25 H -0.3257 0.3394 1.1586
H26 H 0.0598 0.3652 0.9130
H27 H -0.3728 0.4860 1.0557
H28 H -0.3024 0.5703 0.9391
H29 H 0.1490 0.5043 0.8341
H30 H 0.0633 0.4468 0.7961
H31 H 0.0126 0.6275 0.7320
H32 H 0.1464 0.5595 0.7004
H33 H -0.0987 0.6109 0.6203
H34 H -0.1786 0.5584 0.6919
H35 H 0.0736 0.4831 0.6069
H36 H -0.0002 0.4298 0.6804
C48? C -0.4632(41) 0.3674(34) 0.8414(21)
C49? C -0.5888(51) 0.3577(36) 0.7798(21)
C50? C -0.5175(41) 0.3960(23) 0.6979(20)
C51? C -0.3523(38) 0.3244(22) 0.7126(19)
C52? C -0.3086(40) 0.3525(27) 0.7902(21)
C53? C -0.5462(64) 0.4222(28) 0.8023(26)
C54? C -0.5191(75) 0.3201(27) 0.8363(32)
C55? C -0.4437(63) 0.2827(37) 0.7634(35)
C56? C -0.3201(15) 0.3425(8) 0.7489(39)
C57? C -0.4594(57) 0.4288(27) 0.7202(31)
loop_
_geom_bond_atom_site_label_1
_geom_bond_atom_site_label_2
_geom_bond_site_symmetry_1
_geom_bond_site_symmetry_2
C1 N1 1_555 1_555
N1 C6 1_555 1_555
N2 C1 1_555 1_555
C2 C1 1_555 1_555
C3 C2 1_555 1_555
C4 C3 1_555 1_555
C5 N2 1_555 1_555
N3 C5 1_555 1_555
C6 O1 1_555 1_555
C7 C6 1_555 1_555
C8 C7 1_555 1_555
C9 C7 1_555 1_555
C10 C9 1_555 1_555
C11 C10 1_555 1_555
C12 C8 1_555 1_555
C13 C12 1_555 1_555
O2 C13 1_555 1_555
N4 C13 1_555 1_555
C14 N4 1_555 1_555
N5 C14 1_555 1_555
C15 C14 1_555 1_555
C16 C15 1_555 1_555
C17 C16 1_555 1_555
C18 N5 1_555 1_555
N6 C18 1_555 1_555
C19 N6 1_555 1_555
O3 C19 1_555 1_555
C20 C19 1_555 1_555
C21 C20 1_555 1_555
C22 C21 1_555 1_555
C23 C22 1_555 1_555
O4 C23 1_555 1_555
C24 O4 1_555 1_555
C25 C24 1_555 1_555
C26 C24 1_555 1_555
C27 C26 1_555 1_555
C28 C27 1_555 1_555
C29 C25 1_555 1_555
C30 C29 1_555 1_555
C31 C28 1_555 1_555
C32 C31 1_555 1_555
C33 C30 1_555 1_555
O5 C33 1_555 1_555
C34 O5 1_555 1_555
C35 C34 1_555 1_555
C36 C35 1_555 1_555
C37 C36 1_555 1_555
C38 N3 1_555 1_555
O6 C38 1_555 1_555
O8 C39 1_555 1_555
C39 C40 1_555 1_555
C40 C41 1_555 1_555
C41 C42 1_555 1_555
C42 O8 1_555 1_555
C43 C44 1_555 1_555
C44 C45 1_555 1_555
C45 C46 1_555 1_555
C46 C47 1_555 1_555
C47 C43 1_555 1_555
H1 N1 1_555 1_555
H2 C2 1_555 1_555
H3 C3 1_555 1_555
H4 C4 1_555 1_555
H5 N3 1_555 1_555
H6 C8 1_555 1_555
H7 C9 1_555 1_555
H8 C10 1_555 1_555
H9 C11 1_555 1_555
H10 N4 1_555 1_555
H11 C15 1_555 1_555
H12 C16 1_555 1_555
H13 C17 1_555 1_555
H14 N6 1_555 1_555
H15 C20 1_555 1_555
H16 C20 1_555 1_555
H17 C21 1_555 1_555
H18 C21 1_555 1_555
H19 C22 1_555 1_555
H20 C22 1_555 1_555
H21 C23 1_555 1_555
H22 C23 1_555 1_555
H23 C25 1_555 1_555
H24 C26 1_555 1_555
H25 C27 1_555 1_555
H26 C30 1_555 1_555
H27 C31 1_555 1_555
H28 C32 1_555 1_555
H29 C34 1_555 1_555
H30 C34 1_555 1_555
H31 C35 1_555 1_555
H32 C35 1_555 1_555
H33 C36 1_555 1_555
H34 C36 1_555 1_555
H35 C37 1_555 1_555
H36 C37 1_555 1_555
C4 C5 1_555 1_555
C11 C12 1_555 1_555
C17 C18 1_555 1_555
C28 C29 1_555 1_555
C32 C33 1_555 1_555
C37 C38 1_555 1_555

#END
