
#######################################################################
#
#                 Cambridge Crystallographic Data Centre
#                                CCDC 
#
#######################################################################
#
# If this CIF has been generated from an entry in the Cambridge 
# Structural Database, then it will include bibliographic, chemical, 
# crystal, experimental, refinement or atomic coordinate data resulting 
# from the CCDC's data processing and validation procedures.
#
#######################################################################

data_KOHQOO
_chemical_formula_moiety         'C20 H27 N3 O4'
_chemical_name_systematic        
1,3-Dicyclohexyl-1-(4-nitrophenylcarbonyl)urea
_symmetry_cell_setting           monoclinic
_symmetry_space_group_name_H-M   'P 21/c'
_symmetry_Int_Tables_number      14
_space_group_name_Hall           '-P 2ybc'
loop_
_symmetry_equiv_pos_site_id
_symmetry_equiv_pos_as_xyz
1 x,y,z
2 -x,1/2+y,1/2-z
3 -x,-y,-z
4 x,1/2-y,1/2+z
_cell_length_a                   24.9660(8)
_cell_length_b                   9.4872(2)
_cell_length_c                   16.7156(6)
_cell_angle_alpha                90.00
_cell_angle_beta                 105.6980(10)
_cell_angle_gamma                90.00
_cell_volume                     3811.54
_chemical_melting_point          '196-197 deg.C'
_cell_formula_units_Z            8
_exptl_crystal_recrystallization_method ethanol
loop_
_atom_site_label
_atom_site_type_symbol
_atom_site_fract_x
_atom_site_fract_y
_atom_site_fract_z
O1 O -0.23869(9) 0.6105(2) -0.13022(15)
O2 O -0.23840(9) 0.3872(2) -0.15589(14)
O3 O 0.04634(7) 0.60685(17) -0.05480(11)
O4 O 0.01604(7) 0.27037(17) -0.25089(11)
N1 N -0.21494(10) 0.5012(3) -0.14006(15)
N2 N 0.04110(8) 0.46750(19) -0.16738(12)
N3 N -0.02472(8) 0.47999(19) -0.29549(13)
H1 H -0.0233 0.5686 -0.2833
C1 C -0.15461(11) 0.5082(3) -0.13313(16)
C2 C -0.12737(12) 0.3856(3) -0.14345(17)
H2 H -0.1466 0.2983 -0.1540
C3 C -0.07119(11) 0.3939(3) -0.13795(16)
H3 H -0.0515 0.3111 -0.1447
C4 C -0.04321(11) 0.5219(2) -0.12266(15)
C5 C -0.07175(12) 0.6422(3) -0.11076(16)
H4 H -0.0524 0.7290 -0.0981
C6 C -0.12794(12) 0.6371(3) -0.11711(17)
H5 H -0.1478 0.7198 -0.1106
C7 C 0.01807(11) 0.5361(2) -0.11251(16)
C8 C 0.10207(10) 0.4779(2) -0.15646(16)
H6 H 0.1159 0.5597 -0.1188
C9 C 0.13363(11) 0.3477(3) -0.11523(17)
H7 H 0.1201 0.2639 -0.1501
H8 H 0.1263 0.3327 -0.0605
C10 C 0.19616(12) 0.3644(3) -0.10345(18)
H9 H 0.2103 0.4424 -0.0640
H10 H 0.2154 0.2768 -0.0793
C11 C 0.20900(11) 0.3952(3) -0.18526(18)
H11 H 0.1982 0.3133 -0.2229
H12 H 0.2495 0.4104 -0.1754
C12 C 0.17764(11) 0.5255(3) -0.22601(18)
H13 H 0.1853 0.5415 -0.2804
H14 H 0.1910 0.6089 -0.1906
C13 C 0.11505(11) 0.5094(3) -0.23879(16)
H15 H 0.1009 0.4317 -0.2784
H16 H 0.0960 0.5973 -0.2628
C14 C 0.00902(10) 0.3969(2) -0.24103(15)
C15 C -0.06094(10) 0.4276(2) -0.37425(15)
H17 H -0.0465 0.3335 -0.3856
C16 C -0.12050(11) 0.4076(3) -0.36980(17)
H18 H -0.1350 0.4982 -0.3549
H19 H -0.1212 0.3383 -0.3258
C17 C -0.15792(12) 0.3558(3) -0.45292(17)
H20 H -0.1462 0.2600 -0.4645
H21 H -0.1968 0.3502 -0.4495
C18 C -0.15486(12) 0.4541(3) -0.52318(17)
H22 H -0.1775 0.4152 -0.5766
H23 H -0.1705 0.5471 -0.5148
C19 C -0.09519(12) 0.4725(3) -0.52685(16)
H24 H -0.0942 0.5403 -0.5715
H25 H -0.0808 0.3811 -0.5406
C20 C -0.05797(11) 0.5260(3) -0.44439(16)
H26 H -0.0191 0.5322 -0.4478
H27 H -0.0700 0.6216 -0.4330
O5 O -0.26286(9) 0.3180(2) -0.35162(14)
O6 O -0.23878(8) 0.5362(2) -0.32698(14)
O7 O -0.52312(8) 0.66937(17) -0.44175(11)
O8 O -0.51597(7) 0.32498(17) -0.25307(11)
N4 N -0.27359(10) 0.4419(2) -0.34243(15)
N5 N -0.53135(8) 0.52495(19) -0.33641(13)
N6 N -0.46808(8) 0.5260(2) -0.20596(12)
H28 H -0.4659 0.6152 -0.2128
C21 C -0.33229(11) 0.4800(3) -0.35081(16)
C22 C -0.37153(11) 0.3745(3) -0.36722(16)
H29 H -0.3610 0.2795 -0.3726
C23 C -0.42661(11) 0.4093(2) -0.37577(16)
H30 H -0.4543 0.3378 -0.3868
C24 C -0.44146(11) 0.5489(2) -0.36817(15)
C25 C -0.40065(12) 0.6538(3) -0.35228(17)
H31 H -0.4109 0.7494 -0.3482
C26 C -0.34547(12) 0.6194(3) -0.34247(18)
H32 H -0.3174 0.6899 -0.3303
C27 C -0.50186(11) 0.5893(2) -0.38450(16)
C28 C -0.59259(10) 0.5387(3) -0.35733(16)
H33 H -0.6030 0.6220 -0.3949
C29 C -0.61223(11) 0.5684(3) -0.28035(17)
H34 H -0.5960 0.6587 -0.2553
H35 H -0.5988 0.4928 -0.2390
C30 C -0.67551(11) 0.5767(3) -0.30108(19)
H36 H -0.6869 0.5894 -0.2492
H37 H -0.6887 0.6594 -0.3372
C31 C -0.70219(12) 0.4436(3) -0.34514(19)
H38 H -0.7432 0.4521 -0.3590
H39 H -0.6909 0.3615 -0.3078
C32 C -0.68442(12) 0.4204(3) -0.42447(19)
H40 H -0.7015 0.3326 -0.4518
H41 H -0.6978 0.4997 -0.4632
C33 C -0.62131(11) 0.4101(3) -0.40538(17)
H42 H -0.6107 0.4019 -0.4581
H43 H -0.6085 0.3240 -0.3723
C34 C -0.50399(10) 0.4485(2) -0.26165(16)
C35 C -0.43331(10) 0.4675(2) -0.12754(15)
C36 C -0.44480(11) 0.5472(3) -0.05450(16)
H44 H -0.4367 0.6486 -0.0588
H45 H -0.4846 0.5375 -0.0561
C37 C -0.40865(11) 0.4887(3) 0.02754(16)
H46 H -0.4155 0.5433 0.0743
H47 H -0.4190 0.3894 0.0338
C38 C -0.34730(12) 0.4964(3) 0.03111(17)
H48 H -0.3250 0.4543 0.0839
H49 H -0.3361 0.5963 0.0299
C39 C -0.33549(12) 0.4182(3) -0.04186(17)
H50 H -0.3429 0.3164 -0.0373
H51 H -0.2958 0.4294 -0.0401
C40 C -0.37183(11) 0.4745(3) -0.12470(16)
H52 H -0.3615 0.5734 -0.1321
H53 H -0.3651 0.4181 -0.1709
loop_
_geom_bond_atom_site_label_1
_geom_bond_atom_site_label_2
_geom_bond_site_symmetry_1
_geom_bond_site_symmetry_2
O1 N1 1_555 1_555
O2 N1 1_555 1_555
O3 C7 1_555 1_555
O4 C14 1_555 1_555
N1 C1 1_555 1_555
N2 C7 1_555 1_555
N3 H1 1_555 1_555
C1 C2 1_555 1_555
C2 H2 1_555 1_555
C3 C2 1_555 1_555
H3 C3 1_555 1_555
C4 C3 1_555 1_555
C5 C4 1_555 1_555
H4 C5 1_555 1_555
C6 C1 1_555 1_555
H5 C6 1_555 1_555
C7 C4 1_555 1_555
C8 N2 1_555 1_555
H6 C8 1_555 1_555
C9 C8 1_555 1_555
H7 C9 1_555 1_555
H8 C9 1_555 1_555
C10 C9 1_555 1_555
H9 C10 1_555 1_555
H10 C10 1_555 1_555
C11 C10 1_555 1_555
H11 C11 1_555 1_555
H12 C11 1_555 1_555
C12 C11 1_555 1_555
H13 C12 1_555 1_555
H14 C12 1_555 1_555
C13 C8 1_555 1_555
H15 C13 1_555 1_555
H16 C13 1_555 1_555
C14 N2 1_555 1_555
C15 N3 1_555 1_555
H17 C15 1_555 1_555
C16 C15 1_555 1_555
H18 C16 1_555 1_555
H19 C16 1_555 1_555
C17 C16 1_555 1_555
H20 C17 1_555 1_555
H21 C17 1_555 1_555
C18 C17 1_555 1_555
H22 C18 1_555 1_555
H23 C18 1_555 1_555
C19 C18 1_555 1_555
H24 C19 1_555 1_555
H25 C19 1_555 1_555
C20 C15 1_555 1_555
H26 C20 1_555 1_555
H27 C20 1_555 1_555
O5 N4 1_555 1_555
O6 N4 1_555 1_555
O7 C27 1_555 1_555
O8 C34 1_555 1_555
N4 C21 1_555 1_555
N5 C27 1_555 1_555
N6 H28 1_555 1_555
C21 C22 1_555 1_555
C22 H29 1_555 1_555
C23 C22 1_555 1_555
H30 C23 1_555 1_555
C24 C23 1_555 1_555
C25 C24 1_555 1_555
H31 C25 1_555 1_555
C26 C21 1_555 1_555
H32 C26 1_555 1_555
C27 C24 1_555 1_555
C28 N5 1_555 1_555
H33 C28 1_555 1_555
C29 C28 1_555 1_555
H34 C29 1_555 1_555
H35 C29 1_555 1_555
C30 C29 1_555 1_555
H36 C30 1_555 1_555
H37 C30 1_555 1_555
C31 C30 1_555 1_555
H38 C31 1_555 1_555
H39 C31 1_555 1_555
C32 C31 1_555 1_555
H40 C32 1_555 1_555
H41 C32 1_555 1_555
C33 C28 1_555 1_555
H42 C33 1_555 1_555
H43 C33 1_555 1_555
C34 N5 1_555 1_555
C35 N6 1_555 1_555
C36 C35 1_555 1_555
H44 C36 1_555 1_555
H45 C36 1_555 1_555
C37 C36 1_555 1_555
H46 C37 1_555 1_555
H47 C37 1_555 1_555
C38 C37 1_555 1_555
H48 C38 1_555 1_555
H49 C38 1_555 1_555
C39 C38 1_555 1_555
H50 C39 1_555 1_555
H51 C39 1_555 1_555
C40 C35 1_555 1_555
H52 C40 1_555 1_555
H53 C40 1_555 1_555
N3 C14 1_555 1_555
C5 C6 1_555 1_555
C12 C13 1_555 1_555
C19 C20 1_555 1_555
N6 C34 1_555 1_555
C25 C26 1_555 1_555
C32 C33 1_555 1_555
C39 C40 1_555 1_555

#END
