
#######################################################################
#
#                 Cambridge Crystallographic Data Centre
#                                CCDC 
#
#######################################################################
#
# If this CIF has been generated from an entry in the Cambridge 
# Structural Database, then it will include bibliographic, chemical, 
# crystal, experimental, refinement or atomic coordinate data resulting 
# from the CCDC's data processing and validation procedures.
#
#######################################################################

data_KOHZIR
_chemical_formula_moiety         'C22 H22 N2 P2 Se3'
_chemical_name_systematic        
2,5-Diphenyl-N-(3-phenylpropyl)-2,5-dihydro-1,3,2,5-selenazadiphosphol-4-amine-2,5-diselenide
_symmetry_cell_setting           orthorhombic
_symmetry_space_group_name_H-M   'P 21 21 2'
_symmetry_Int_Tables_number      18
_space_group_name_Hall           'P 2 2ab'
loop_
_symmetry_equiv_pos_site_id
_symmetry_equiv_pos_as_xyz
1 x,y,z
2 -x,-y,z
3 1/2-x,1/2+y,-z
4 1/2+x,1/2-y,-z
_cell_length_a                   14.813(3)
_cell_length_b                   16.104(2)
_cell_length_c                   9.7349(16)
_cell_angle_alpha                90
_cell_angle_beta                 90
_cell_angle_gamma                90
_cell_volume                     2322.25
_exptl_crystal_colour            colorless
_exptl_crystal_description       Prism
_cell_formula_units_Z            4
loop_
_atom_site_label
_atom_site_type_symbol
_atom_site_fract_x
_atom_site_fract_y
_atom_site_fract_z
Se1 Se 1.03487(3) 0.13201(3) -0.13845(6)
P1 P 0.92898(8) 0.12804(7) 0.00223(14)
Se2 Se 0.81858(3) 0.03579(3) -0.03132(6)
P2 P 0.71110(7) 0.13743(7) -0.00517(14)
Se3 Se 0.62360(3) 0.11888(3) 0.16099(6)
N1 N 0.7704(2) 0.2240(2) -0.0028(4)
C1 C 0.8569(3) 0.2254(3) -0.0093(5)
N2 N 0.9059(2) 0.2941(2) -0.0252(4)
H1 H 0.9715(5) 0.286(3) -0.022(7)
C2 C 0.8613(3) 0.3757(3) -0.0452(5)
H2 H 0.9064 0.4206 -0.0345
H3 H 0.8143 0.3834 0.0260
C3 C 0.8183(3) 0.3814(3) -0.1873(5)
H4 H 0.7837 0.4338 -0.1937
H5 H 0.7753 0.3348 -0.1987
C4 C 0.8876(3) 0.3786(3) -0.3047(5)
H6 H 0.9271 0.4282 -0.2991
H7 H 0.9261 0.3288 -0.2940
C5 C 0.8426(3) 0.3764(3) -0.4428(5)
C6 C 0.8391(3) 0.3035(3) -0.5196(6)
H8 H 0.8679 0.2550 -0.4856
C7 C 0.7945(3) 0.3003(3) -0.6441(6)
H9 H 0.7938 0.2501 -0.6953
C8 C 0.7510(3) 0.3698(3) -0.6944(5)
H10 H 0.7192 0.3675 -0.7791
C9 C 0.7541(3) 0.4426(3) -0.6203(6)
H11 H 0.7253 0.4909 -0.6550
C10 C 0.7991(3) 0.4459(3) -0.4952(6)
H12 H 0.8001 0.4964 -0.4448
C11 C 0.9629(3) 0.1212(2) 0.1795(5)
C12 C 1.0508(3) 0.1427(3) 0.2182(6)
H13 H 1.0926 0.1604 0.1504
C13 C 1.0772(4) 0.1385(3) 0.3536(6)
H14 H 1.1377 0.1513 0.3782
C14 C 1.0167(4) 0.1159(3) 0.4525(6)
H15 H 1.0350 0.1145 0.5460
C15 C 0.9278(4) 0.0947(3) 0.4174(6)
H16 H 0.8862 0.0786 0.4867
C16 C 0.9013(4) 0.0973(3) 0.2825(6)
H17 H 0.8411 0.0829 0.2584
C17 C 0.6563(3) 0.1367(3) -0.1701(5)
C18 C 0.5681(3) 0.1072(3) -0.1848(6)
H18 H 0.5367 0.0873 -0.1063
C19 C 0.5258(3) 0.1064(3) -0.3111(6)
H19 H 0.4654 0.0872 -0.3192
C20 C 0.5718(3) 0.1336(3) -0.4250(6)
H20 H 0.5430 0.1333 -0.5121
C21 C 0.6612(3) 0.1619(3) -0.4136(6)
H21 H 0.6932 0.1795 -0.4930
C22 C 0.7020(3) 0.1639(3) -0.2874(6)
H22 H 0.7620 0.1841 -0.2795
loop_
_geom_bond_atom_site_label_1
_geom_bond_atom_site_label_2
_geom_bond_site_symmetry_1
_geom_bond_site_symmetry_2
Se1 P1 1_555 1_555
P1 Se2 1_555 1_555
Se2 P2 1_555 1_555
P2 Se3 1_555 1_555
N1 P2 1_555 1_555
C1 P1 1_555 1_555
N2 C1 1_555 1_555
H1 N2 1_555 1_555
C2 N2 1_555 1_555
H2 C2 1_555 1_555
H3 C2 1_555 1_555
C3 C2 1_555 1_555
H4 C3 1_555 1_555
H5 C3 1_555 1_555
C4 C3 1_555 1_555
H6 C4 1_555 1_555
H7 C4 1_555 1_555
C5 C4 1_555 1_555
C6 C5 1_555 1_555
H8 C6 1_555 1_555
C7 C6 1_555 1_555
H9 C7 1_555 1_555
C8 C7 1_555 1_555
H10 C8 1_555 1_555
C9 C8 1_555 1_555
H11 C9 1_555 1_555
C10 C5 1_555 1_555
H12 C10 1_555 1_555
C11 P1 1_555 1_555
C12 C11 1_555 1_555
H13 C12 1_555 1_555
C13 C12 1_555 1_555
H14 C13 1_555 1_555
C14 C13 1_555 1_555
H15 C14 1_555 1_555
C15 C14 1_555 1_555
H16 C15 1_555 1_555
C16 C11 1_555 1_555
H17 C16 1_555 1_555
C17 P2 1_555 1_555
C18 C17 1_555 1_555
H18 C18 1_555 1_555
C19 C18 1_555 1_555
H19 C19 1_555 1_555
C20 C19 1_555 1_555
H20 C20 1_555 1_555
C21 C20 1_555 1_555
H21 C21 1_555 1_555
C22 C17 1_555 1_555
H22 C22 1_555 1_555
N1 C1 1_555 1_555
C9 C10 1_555 1_555
C15 C16 1_555 1_555
C21 C22 1_555 1_555

#END
