
#######################################################################
#
#                 Cambridge Crystallographic Data Centre
#                                CCDC 
#
#######################################################################
#
# If this CIF has been generated from an entry in the Cambridge 
# Structural Database, then it will include bibliographic, chemical, 
# crystal, experimental, refinement or atomic coordinate data resulting 
# from the CCDC's data processing and validation procedures.
#
#######################################################################

data_KOJNOO01
_chemical_formula_moiety         'C44 H50 S3 Si2'
_chemical_name_systematic        
(bisindeno[1',2':4,5]thieno[3,2-b:2',3'-d]thiene-5,8-diyldiethyne-2,1-diyl)bis(tri-isopropylsilane)
_symmetry_cell_setting           triclinic
_symmetry_space_group_name_H-M   'P -1'
_symmetry_Int_Tables_number      2
_space_group_name_Hall           '-P 1'
loop_
_symmetry_equiv_pos_site_id
_symmetry_equiv_pos_as_xyz
1 x,y,z
2 -x,-y,-z
_cell_length_a                   7.5100(3)
_cell_length_b                   14.0747(6)
_cell_length_c                   20.3192(9)
_cell_angle_alpha                73.205(2)
_cell_angle_beta                 81.761(2)
_cell_angle_gamma                82.646(2)
_cell_volume                     2026.41
_exptl_crystal_colour            black
_exptl_crystal_description       prism
_cell_formula_units_Z            2
_chemical_properties_physical    'Air-sensitive, Light-sensitive'
_exptl_crystal_recrystallization_method chloroform/acetonitrile
loop_
_atom_site_label
_atom_site_type_symbol
_atom_site_fract_x
_atom_site_fract_y
_atom_site_fract_z
S1 S 0.58390(15) 0.86357(7) 0.65468(6)
S2 S 0.66992(14) 0.78659(7) 0.48614(6)
S3 S 0.79473(14) 1.07795(7) 0.47524(6)
Si1 Si 0.4214(2) 0.78532(11) 0.94079(7)
Si2 Si 0.76627(17) 0.51411(8) 0.31537(6)
C1 C 0.6671(6) 0.9210(3) 0.5696(2)
C2 C 0.6980(6) 0.8935(3) 0.5099(2)
C3 C 0.7538(5) 0.8437(3) 0.4011(2)
C4 C 0.7890(6) 0.8168(3) 0.3404(2)
C5 C 0.8617(6) 0.9037(3) 0.2870(2)
C6 C 0.9203(6) 0.9161(3) 0.2180(3)
H1 H 0.9141 0.8651 0.1967
C7 C 0.9890(7) 1.0055(4) 0.1805(3)
H2 H 1.0304 1.0151 0.1328
C8 C 0.9986(6) 1.0809(4) 0.2106(3)
H3 H 1.0479 1.1407 0.1836
C9 C 0.9373(6) 1.0701(3) 0.2796(2)
H4 H 0.9418 1.1225 0.2999
C10 C 0.8683(5) 0.9804(3) 0.3191(2)
C11 C 0.8007(6) 0.9441(3) 0.3905(2)
C12 C 0.7696(5) 0.9709(3) 0.4511(2)
C13 C 0.7120(5) 1.0216(3) 0.5605(2)
C14 C 0.6814(6) 1.0489(3) 0.6207(2)
C15 C 0.6976(6) 1.1320(3) 0.6489(2)
C16 C 0.7646(6) 1.2240(3) 0.6190(3)
H5 H 0.8082 1.2441 0.5712
C17 C 0.7657(6) 1.2864(3) 0.6616(3)
H6 H 0.8104 1.3500 0.6425
C18 C 0.7025(7) 1.2567(3) 0.7308(3)
H7 H 0.7045 1.3007 0.7584
C19 C 0.6357(7) 1.1640(3) 0.7618(3)
H8 H 0.5917 1.1446 0.8095
C20 C 0.6360(6) 1.1013(3) 0.7200(2)
C21 C 0.5827(6) 0.9981(3) 0.7382(2)
C22 C 0.6103(6) 0.9707(3) 0.6781(2)
C23 C 0.5277(6) 0.9379(3) 0.8042(2)
C24 C 0.4857(7) 0.8810(4) 0.8609(3)
C25 C 0.6419(17) 0.7018(10) 0.9682(6)
H9 H 0.6063 0.6457 1.0092
C26 C 0.7651(15) 0.7620(11) 0.9910(5)
H10 H 0.8699 0.7184 1.0091
H11 H 0.6981 0.7900 1.0273
H12 H 0.8061 0.8163 0.9514
C27 C 0.7417(12) 0.6559(7) 0.9118(7)
H13 H 0.7730 0.7091 0.8699
H14 H 0.6635 0.6127 0.9013
H15 H 0.8522 0.6165 0.9280
C28 C 0.3373(19) 0.8391(9) 1.0113(6)
H16 H 0.4393 0.8708 1.0206
C29 C 0.1906(18) 0.9207(11) 0.9894(7)
H17 H 0.0786 0.8914 0.9900
H18 H 0.2263 0.9616 0.9425
H19 H 0.1711 0.9625 1.0214
C30 C 0.2708(19) 0.7666(11) 1.0790(7)
H20 H 0.2365 0.8022 1.1146
H21 H 0.3673 0.7139 1.0937
H22 H 0.1656 0.7369 1.0726
C31 C 0.2661(7) 0.7054(4) 0.9197(3)
H23 H 0.1421 0.7407 0.9226
C32 C 0.2558(8) 0.6025(4) 0.9727(3)
H24 H 0.1605 0.5685 0.9633
H25 H 0.2285 0.6109 1.0195
H26 H 0.3720 0.5627 0.9693
C33 C 0.3058(11) 0.6934(5) 0.8467(4)
H27 H 0.4245 0.6565 0.8417
H28 H 0.3055 0.7593 0.8131
H29 H 0.2129 0.6566 0.8383
C34 C 0.7742(6) 0.7218(3) 0.3308(2)
C35 C 0.7667(6) 0.6405(3) 0.3244(2)
C36 C 0.8347(9) 0.5192(4) 0.2220(3)
H30 H 0.8376 0.4498 0.2180
C37 C 0.6988(12) 0.5839(6) 0.1751(3)
H31 H 0.6862 0.6517 0.1800
H32 H 0.5816 0.5561 0.1881
H33 H 0.7413 0.5854 0.1269
C38 C 1.0277(10) 0.5525(6) 0.1976(4)
H34 H 1.0556 0.5595 0.1479
H35 H 1.1151 0.5023 0.2228
H36 H 1.0345 0.6166 0.2066
C39 C 0.9418(7) 0.4310(4) 0.3694(3)
H37 H 1.0588 0.4608 0.3505
C40 C 0.9696(10) 0.3262(5) 0.3607(5)
H38 H 1.0730 0.2895 0.3843
H39 H 0.9928 0.3299 0.3114
H40 H 0.8609 0.2918 0.3809
C41 C 0.9102(10) 0.4316(7) 0.4462(4)
H41 H 0.8030 0.3971 0.4688
H42 H 0.8918 0.5006 0.4490
H43 H 1.0157 0.3975 0.4694
C42 C 0.5281(6) 0.4780(3) 0.3423(2)
H44 H 0.4504 0.5301 0.3114
C43 C 0.4997(8) 0.3790(4) 0.3304(3)
H45 H 0.5672 0.3245 0.3617
H46 H 0.5430 0.3800 0.2824
H47 H 0.3708 0.3690 0.3395
C44 C 0.4559(7) 0.4799(4) 0.4162(3)
H48 H 0.3251 0.4752 0.4234
H49 H 0.4816 0.5423 0.4237
H50 H 0.5149 0.4233 0.4490
C45? C 0.601(4) 0.739(2) 0.9839(16)
H51? H 0.5551 0.6907 1.0278
C46? C 0.705(4) 0.814(3) 1.0057(15)
H52? H 0.7933 0.7760 1.0369
H53? H 0.6185 0.8546 1.0295
H54? H 0.7673 0.8569 0.9644
C47? C 0.715(4) 0.681(3) 0.944(2)
H55? H 0.7510 0.7238 0.8980
H56? H 0.6501 0.6272 0.9404
H57? H 0.8236 0.6524 0.9675
C48? C 0.251(3) 0.8640(13) 0.9947(10)
H58? H 0.1346 0.8787 0.9736
C49? C 0.317(3) 0.9655(12) 0.9911(10)
H59? H 0.2827 0.9803 1.0357
H60? H 0.2617 1.0181 0.9547
H61? H 0.4489 0.9622 0.9806
C50? C 0.209(3) 0.8080(16) 1.0695(11)
H62? H 0.3195 0.7941 1.0924
H63? H 0.1611 0.7451 1.0725
H64? H 0.1188 0.8484 1.0923
loop_
_geom_bond_atom_site_label_1
_geom_bond_atom_site_label_2
_geom_bond_site_symmetry_1
_geom_bond_site_symmetry_2
S1 C1 1_555 1_555
S2 C2 1_555 1_555
S3 C12 1_555 1_555
Si1 C24 1_555 1_555
Si2 C35 1_555 1_555
C1 C2 1_555 1_555
C2 C12 1_555 1_555
C3 S2 1_555 1_555
C4 C3 1_555 1_555
C5 C4 1_555 1_555
C6 C5 1_555 1_555
H1 C6 1_555 1_555
C7 C6 1_555 1_555
H2 C7 1_555 1_555
C8 C7 1_555 1_555
H3 C8 1_555 1_555
C9 C8 1_555 1_555
H4 C9 1_555 1_555
C10 C5 1_555 1_555
C11 C3 1_555 1_555
C12 C11 1_555 1_555
C13 S3 1_555 1_555
C14 C13 1_555 1_555
C15 C14 1_555 1_555
C16 C15 1_555 1_555
H5 C16 1_555 1_555
C17 C16 1_555 1_555
H6 C17 1_555 1_555
C18 C17 1_555 1_555
H7 C18 1_555 1_555
C19 C18 1_555 1_555
H8 C19 1_555 1_555
C20 C15 1_555 1_555
C21 C20 1_555 1_555
C22 S1 1_555 1_555
C23 C21 1_555 1_555
C24 C23 1_555 1_555
C25 Si1 1_555 1_555
H9 C25 1_555 1_555
C26 C25 1_555 1_555
H10 C26 1_555 1_555
H11 C26 1_555 1_555
H12 C26 1_555 1_555
C27 C25 1_555 1_555
H13 C27 1_555 1_555
H14 C27 1_555 1_555
H15 C27 1_555 1_555
C28 Si1 1_555 1_555
H16 C28 1_555 1_555
C29 C28 1_555 1_555
H17 C29 1_555 1_555
H18 C29 1_555 1_555
H19 C29 1_555 1_555
C30 C28 1_555 1_555
H20 C30 1_555 1_555
H21 C30 1_555 1_555
H22 C30 1_555 1_555
C31 Si1 1_555 1_555
H23 C31 1_555 1_555
C32 C31 1_555 1_555
H24 C32 1_555 1_555
H25 C32 1_555 1_555
H26 C32 1_555 1_555
C33 C31 1_555 1_555
H27 C33 1_555 1_555
H28 C33 1_555 1_555
H29 C33 1_555 1_555
C34 C4 1_555 1_555
C35 C34 1_555 1_555
C36 Si2 1_555 1_555
H30 C36 1_555 1_555
C37 C36 1_555 1_555
H31 C37 1_555 1_555
H32 C37 1_555 1_555
H33 C37 1_555 1_555
C38 C36 1_555 1_555
H34 C38 1_555 1_555
H35 C38 1_555 1_555
H36 C38 1_555 1_555
C39 Si2 1_555 1_555
H37 C39 1_555 1_555
C40 C39 1_555 1_555
H38 C40 1_555 1_555
H39 C40 1_555 1_555
H40 C40 1_555 1_555
C41 C39 1_555 1_555
H41 C41 1_555 1_555
H42 C41 1_555 1_555
H43 C41 1_555 1_555
C42 Si2 1_555 1_555
H44 C42 1_555 1_555
C43 C42 1_555 1_555
H45 C43 1_555 1_555
H46 C43 1_555 1_555
H47 C43 1_555 1_555
C44 C42 1_555 1_555
H48 C44 1_555 1_555
H49 C44 1_555 1_555
H50 C44 1_555 1_555
C1 C13 1_555 1_555
C9 C10 1_555 1_555
C10 C11 1_555 1_555
C14 C22 1_555 1_555
C19 C20 1_555 1_555
C21 C22 1_555 1_555

#END
