
#######################################################################
#
#                 Cambridge Crystallographic Data Centre
#                                CCDC 
#
#######################################################################
#
# If this CIF has been generated from an entry in the Cambridge 
# Structural Database, then it will include bibliographic, chemical, 
# crystal, experimental, refinement or atomic coordinate data resulting 
# from the CCDC's data processing and validation procedures.
#
#######################################################################

data_KOJTUA
_chemical_formula_moiety         'C24 H19 F3 N2 O4 S1,3(C2 H6 O1 S1)'
_chemical_name_systematic        
"4'-hydroxy-1-((4-methylphenyl)sulfonyl)-4'-(trifluoromethyl)-1,1',2,4'-tetrahydro-2'H-spiro[indole-3,3'-quinolin]-2'-one dimethyl sulfoxide solvate"
_symmetry_cell_setting           orthorhombic
_symmetry_space_group_name_H-M   'P c a 21'
_symmetry_Int_Tables_number      29
_space_group_name_Hall           'P 2c -2ac'
loop_
_symmetry_equiv_pos_site_id
_symmetry_equiv_pos_as_xyz
1 x,y,z
2 -x,-y,1/2+z
3 1/2+x,-y,z
4 1/2-x,y,1/2+z
_cell_length_a                   18.294(4)
_cell_length_b                   9.4322(19)
_cell_length_c                   19.282(4)
_cell_angle_alpha                90
_cell_angle_beta                 90
_cell_angle_gamma                90
_cell_volume                     3327.16
_exptl_crystal_colour            colorless
_cell_formula_units_Z            4
loop_
_atom_site_label
_atom_site_type_symbol
_atom_site_fract_x
_atom_site_fract_y
_atom_site_fract_z
S1 S 0.65390(3) -0.01275(6) 0.91080(3)
F1 F 0.94965(8) 0.26979(17) 0.90651(8)
F2 F 0.96600(8) 0.32091(15) 1.01468(8)
F3 F 0.90733(8) 0.13282(15) 0.98659(9)
O1 O 0.80953(10) 0.2745(2) 0.78777(9)
O2 O 0.81030(9) 0.32896(17) 1.03294(8)
O3 O 0.58267(10) -0.00524(19) 0.88001(10)
O4 O 0.70499(10) -0.12053(18) 0.88969(10)
N1 N 0.85467(11) 0.4759(2) 0.83353(10)
H1 H 0.8645(16) 0.508(3) 0.7910(8)
N2 N 0.69556(10) 0.1386(2) 0.89363(10)
C1 C 0.86984(12) 0.5642(2) 0.89057(11)
C2 C 0.88789(13) 0.7057(3) 0.87853(13)
H2 H 0.8916 0.7401 0.8324
C3 C 0.90042(13) 0.7957(2) 0.93366(13)
H3 H 0.9130 0.8919 0.9253
C4 C 0.89474(13) 0.7465(3) 1.00117(13)
H4 H 0.9030 0.8092 1.0389
C5 C 0.87699(12) 0.6052(2) 1.01379(11)
H5 H 0.8729 0.5719 1.0601
C6 C 0.86510(11) 0.5121(2) 0.95832(12)
C7 C 0.84517(12) 0.3561(2) 0.96991(11)
C8 C 0.79235(11) 0.3079(2) 0.91136(12)
C9 C 0.82069(13) 0.3502(3) 0.83799(12)
C10 C 0.91706(13) 0.2693(2) 0.96884(13)
C11 C 0.77445(11) 0.1485(2) 0.91337(13)
H6 H 0.8053 0.0956 0.8800
H7 H 0.7825 0.1095 0.9604
C12 C 0.66277(12) 0.2736(2) 0.90804(12)
C13 C 0.58837(12) 0.3061(2) 0.90917(13)
H8 H 0.5524 0.2358 0.9003
C14 C 0.56881(13) 0.4453(3) 0.92382(14)
H9 H 0.5186 0.4704 0.9258
C15 C 0.62181(13) 0.5488(3) 0.93562(13)
H10 H 0.6073 0.6431 0.9461
C16 C 0.69619(12) 0.5152(2) 0.93222(12)
H11 H 0.7322 0.5865 0.9387
C17 C 0.71650(11) 0.3752(2) 0.91922(11)
C18 C 0.64298(14) -0.0223(2) 1.00124(13)
C19 C 0.69974(15) -0.0806(3) 1.04117(14)
H12 H 0.7421 -0.1191 1.0198
C20 C 0.69211(16) -0.0805(3) 1.11270(15)
H13 H 0.7302 -0.1194 1.1403
C21 C 0.63061(17) -0.0254(3) 1.14537(14)
C22 C 0.57426(17) 0.0304(3) 1.10409(15)
H14 H 0.5316 0.0676 1.1254
C23 C 0.58047(14) 0.0314(3) 1.03218(14)
H15 H 0.5421 0.0687 1.0045
C24 C 0.6250(2) -0.0244(3) 1.22302(16)
H16 H 0.6690 -0.0673 1.2430
H17 H 0.5819 -0.0788 1.2374
H18 H 0.6204 0.0736 1.2394
S2 S 0.63597(4) 0.29291(6) 0.71582(3)
O5 O 0.62423(11) 0.3884(2) 0.65323(10)
C25 C 0.55400(16) 0.1954(3) 0.72518(17)
H19 H 0.5149 0.2587 0.7411
H20 H 0.5612 0.1196 0.7592
H21 H 0.5404 0.1539 0.6804
C26 C 0.69243(14) 0.1516(3) 0.68748(15)
H22 H 0.7420 0.1870 0.6793
H23 H 0.6727 0.1121 0.6443
H24 H 0.6937 0.0776 0.7231
S3 S 0.63043(7) 0.80454(9) 0.73618(4)
O6 O 0.6167(3) 0.8064(4) 0.65945(16)
C27 C 0.5540(6) 0.7165(9) 0.7735(5)
H25 H 0.5104 0.7758 0.7683
H26 H 0.5633 0.6994 0.8228
H27 H 0.5463 0.6258 0.7498
C28 C 0.6964(4) 0.6729(8) 0.7532(4)
H28 H 0.7440 0.7039 0.7355
H29 H 0.6821 0.5844 0.7303
H30 H 0.6998 0.6572 0.8034
S5 S 0.89547(4) 0.57530(7) 0.63275(3)
O8 O 0.89726(11) 0.6107(2) 0.70923(9)
C31 C 0.8124(2) 0.4837(6) 0.62029(17)
H37 H 0.7714 0.5499 0.6252
H38 H 0.8079 0.4083 0.6550
H39 H 0.8116 0.4419 0.5737
C32 C 0.9569(2) 0.4323(4) 0.62109(16)
H40 H 1.0072 0.4662 0.6266
H41 H 0.9507 0.3927 0.5745
H42 H 0.9468 0.3587 0.6557
S4? S 0.6062(2) 0.7146(4) 0.70072(16)
O7? O 0.6124(9) 0.8651(10) 0.6798(7)
C29? C 0.549(2) 0.685(4) 0.7739(15)
H31? H 0.4982 0.7070 0.7617
H32? H 0.5647 0.7452 0.8123
H33? H 0.5523 0.5848 0.7878
C30? C 0.6905(15) 0.666(5) 0.739(2)
H34? H 0.7292 0.6673 0.7043
H35? H 0.6864 0.5710 0.7593
H36? H 0.7025 0.7341 0.7763
loop_
_geom_bond_atom_site_label_1
_geom_bond_atom_site_label_2
_geom_bond_site_symmetry_1
_geom_bond_site_symmetry_2
S1 O3 1_555 1_555
F1 C10 1_555 1_555
F2 C10 1_555 1_555
F3 C10 1_555 1_555
O1 C9 1_555 1_555
O2 C7 1_555 1_555
O4 S1 1_555 1_555
N1 H1 1_555 1_555
N2 S1 1_555 1_555
C1 N1 1_555 1_555
C2 C1 1_555 1_555
H2 C2 1_555 1_555
C3 C2 1_555 1_555
H3 C3 1_555 1_555
C4 C3 1_555 1_555
H4 C4 1_555 1_555
C5 C4 1_555 1_555
H5 C5 1_555 1_555
C6 C1 1_555 1_555
C7 C6 1_555 1_555
C8 C7 1_555 1_555
C9 N1 1_555 1_555
C10 C7 1_555 1_555
C11 N2 1_555 1_555
H6 C11 1_555 1_555
H7 C11 1_555 1_555
C12 N2 1_555 1_555
C13 C12 1_555 1_555
H8 C13 1_555 1_555
C14 C13 1_555 1_555
H9 C14 1_555 1_555
C15 C14 1_555 1_555
H10 C15 1_555 1_555
C16 C15 1_555 1_555
H11 C16 1_555 1_555
C17 C8 1_555 1_555
C18 S1 1_555 1_555
C19 C18 1_555 1_555
H12 C19 1_555 1_555
C20 C19 1_555 1_555
H13 C20 1_555 1_555
C21 C20 1_555 1_555
C22 C21 1_555 1_555
H14 C22 1_555 1_555
C23 C18 1_555 1_555
H15 C23 1_555 1_555
C24 C21 1_555 1_555
H16 C24 1_555 1_555
H17 C24 1_555 1_555
H18 C24 1_555 1_555
S2 O5 1_555 1_555
C25 S2 1_555 1_555
H19 C25 1_555 1_555
H20 C25 1_555 1_555
H21 C25 1_555 1_555
C26 S2 1_555 1_555
H22 C26 1_555 1_555
H23 C26 1_555 1_555
H24 C26 1_555 1_555
S3 O6 1_555 1_555
C27 S3 1_555 1_555
H25 C27 1_555 1_555
H26 C27 1_555 1_555
H27 C27 1_555 1_555
C28 S3 1_555 1_555
H28 C28 1_555 1_555
H29 C28 1_555 1_555
H30 C28 1_555 1_555
S5 O8 1_555 1_555
C31 S5 1_555 1_555
H37 C31 1_555 1_555
H38 C31 1_555 1_555
H39 C31 1_555 1_555
C32 S5 1_555 1_555
H40 C32 1_555 1_555
H41 C32 1_555 1_555
H42 C32 1_555 1_555
C5 C6 1_555 1_555
C8 C9 1_555 1_555
C8 C11 1_555 1_555
C12 C17 1_555 1_555
C16 C17 1_555 1_555
C22 C23 1_555 1_555

#END
