
#######################################################################
#
#                 Cambridge Crystallographic Data Centre
#                                CCDC 
#
#######################################################################
#
# If this CIF has been generated from an entry in the Cambridge 
# Structural Database, then it will include bibliographic, chemical, 
# crystal, experimental, refinement or atomic coordinate data resulting 
# from the CCDC's data processing and validation procedures.
#
#######################################################################

data_KOKBUJ
_chemical_formula_moiety         'C54 H66 Si3,1.5(C7 H8)'
_chemical_name_systematic        'Hexamesityltrisilirane toluene solvate'
_symmetry_cell_setting           triclinic
_symmetry_space_group_name_H-M   'P -1'
_symmetry_Int_Tables_number      2
_space_group_name_Hall           '-P 1'
loop_
_symmetry_equiv_pos_site_id
_symmetry_equiv_pos_as_xyz
1 x,y,z
2 -x,-y,-z
_cell_length_a                   11.813(2)
_cell_length_b                   15.658(3)
_cell_length_c                   16.713(3)
_cell_angle_alpha                84.56(3)
_cell_angle_beta                 79.12(3)
_cell_angle_gamma                81.76(3)
_cell_volume                     2997.15
_exptl_crystal_colour            colorless
_exptl_crystal_description       prism
_cell_formula_units_Z            2
loop_
_atom_site_label
_atom_site_type_symbol
_atom_site_fract_x
_atom_site_fract_y
_atom_site_fract_z
C1 C 0.1353(3) -0.0030(2) 0.7710(2)
C2 C 0.1068(3) -0.0655(2) 0.7251(2)
C3 C 0.1408(4) -0.1525(3) 0.7423(3)
H1 H 0.1196 -0.1935 0.7113
C4 C 0.2045(4) -0.1820(3) 0.8032(3)
C5 C 0.2391(4) -0.1203(3) 0.8438(3)
H2 H 0.2869 -0.1389 0.8836
C6 C 0.2073(3) -0.0324(2) 0.8290(2)
C7 C 0.2507(3) 0.0286(2) 0.8764(2)
H3 H 0.1848 0.0595 0.9117
H4 H 0.2918 0.0704 0.8385
H5 H 0.3040 -0.0040 0.9100
C8 C 0.0409(4) -0.0437(3) 0.6553(3)
H6 H 0.0647 -0.0882 0.6159
H7 H 0.0578 0.0126 0.6284
H8 H -0.0427 -0.0412 0.6764
C9 C 0.2379(6) -0.2790(3) 0.8225(4)
H9 H 0.2034 -0.3121 0.7885
H10 H 0.2089 -0.2941 0.8803
H11 H 0.3227 -0.2929 0.8110
C10 C -0.0975(3) 0.0958(2) 0.7774(2)
C11 C -0.2510(3) 0.0310(3) 0.8730(3)
H12 H -0.2752 0.0022 0.9247
C12 C -0.3285(3) 0.0500(3) 0.8199(3)
C13 C -0.2914(3) 0.0934(3) 0.7462(3)
H13 H -0.3442 0.1088 0.7092
C14 C -0.1789(3) 0.1155(2) 0.7240(3)
C15 C -0.1383(3) 0.0525(2) 0.8535(2)
C16 C -0.0648(3) 0.0305(3) 0.9195(2)
H14 H -0.1139 0.0389 0.9731
H15 H -0.0036 0.0683 0.9109
H16 H -0.0293 -0.0300 0.9174
C17 C -0.4497(3) 0.0260(3) 0.8437(4)
H17 H -0.4460 -0.0356 0.8617
H18 H -0.4894 0.0374 0.7966
H19 H -0.4927 0.0604 0.8883
C18 C -0.1491(4) 0.1619(3) 0.6405(3)
H20 H -0.2036 0.1514 0.6061
H21 H -0.0697 0.1402 0.6152
H22 H -0.1548 0.2242 0.6462
C19 C 0.0121(3) 0.3422(2) 0.8449(2)
C20 C 0.0575(3) 0.4204(2) 0.8429(2)
C21 C -0.0095(4) 0.4908(3) 0.8827(3)
H23 H 0.0235 0.5429 0.8815
C22 C -0.1219(4) 0.4866(3) 0.9235(3)
C23 C -0.1665(4) 0.4105(3) 0.9229(3)
H24 H -0.2438 0.4065 0.9505
C24 C -0.1050(3) 0.3389(2) 0.8844(3)
C25 C -0.1652(4) 0.2604(3) 0.8882(3)
H25 H -0.1787 0.2518 0.8336
H26 H -0.2398 0.2683 0.9257
H27 H -0.1165 0.2096 0.9077
C26 C -0.1926(5) 0.5633(3) 0.9671(3)
H28 H -0.2076 0.5483 1.0261
H29 H -0.2666 0.5779 0.9476
H30 H -0.1490 0.6132 0.9558
C27 C 0.1789(4) 0.4355(2) 0.8002(3)
H31 H 0.1809 0.4975 0.7858
H32 H 0.1998 0.4040 0.7505
H33 H 0.2344 0.4148 0.8367
C28 C 0.2380(3) 0.2373(2) 0.8662(2)
C29 C 0.3563(3) 0.2472(2) 0.8360(2)
C30 C 0.4328(4) 0.2439(3) 0.8902(3)
H34 H 0.5110 0.2525 0.8687
C31 C 0.4017(4) 0.2290(3) 0.9731(3)
C32 C 0.2866(4) 0.2184(2) 1.0026(3)
H35 H 0.2623 0.2073 1.0597
C33 C 0.2051(3) 0.2234(2) 0.9515(2)
C34 C 0.0828(3) 0.2141(3) 0.9940(3)
H36 H 0.0846 0.1810 1.0466
H37 H 0.0448 0.1838 0.9599
H38 H 0.0393 0.2716 1.0031
C35 C 0.4044(3) 0.2610(3) 0.7468(3)
H39 H 0.4724 0.2921 0.7399
H40 H 0.3449 0.2952 0.7192
H41 H 0.4274 0.2049 0.7230
C36 C 0.4881(5) 0.2252(4) 1.0306(3)
H42 H 0.5196 0.2804 1.0253
H43 H 0.5515 0.1785 1.0166
H44 H 0.4487 0.2142 1.0870
C37 C 0.3062(3) 0.2063(2) 0.5960(2)
C38 C 0.3502(3) 0.2809(3) 0.5542(2)
C39 C 0.4646(4) 0.2743(3) 0.5115(3)
H45 H 0.4930 0.3254 0.4850
C40 C 0.5378(4) 0.1980(3) 0.5058(3)
C41 C 0.4950(3) 0.1250(3) 0.5455(3)
H46 H 0.5441 0.0713 0.5429
C42 C 0.3817(3) 0.1273(3) 0.5896(2)
C43 C 0.3470(4) 0.0432(3) 0.6310(3)
H47 H 0.4101 -0.0036 0.6162
H48 H 0.2766 0.0312 0.6134
H49 H 0.3318 0.0470 0.6903
C44 C 0.2819(4) 0.3699(3) 0.5574(3)
H50 H 0.3354 0.4136 0.5434
H51 H 0.2374 0.3773 0.6126
H52 H 0.2285 0.3767 0.5183
C45 C 0.6614(4) 0.1946(4) 0.4574(3)
H53 H 0.7004 0.1351 0.4603
H54 H 0.7044 0.2324 0.4806
H55 H 0.6588 0.2142 0.4002
C46 C 0.0604(3) 0.2757(2) 0.5768(2)
C47 C -0.0115(3) 0.3562(2) 0.5845(2)
C48 C -0.0712(4) 0.3900(3) 0.5215(3)
H56 H -0.1193 0.4439 0.5274
C49 C -0.0631(4) 0.3484(3) 0.4513(3)
C50 C 0.0064(4) 0.2694(3) 0.4433(3)
H57 H 0.0117 0.2394 0.3957
C51 C 0.0691(3) 0.2331(2) 0.5045(2)
C52 C 0.1420(4) 0.1465(3) 0.4888(3)
H58 H 0.1083 0.1160 0.4523
H59 H 0.1434 0.1118 0.5407
H60 H 0.2214 0.1558 0.4633
C53 C -0.1303(5) 0.3869(3) 0.3833(3)
H61 H -0.0760 0.4077 0.3361
H62 H -0.1877 0.4353 0.4034
H63 H -0.1702 0.3423 0.3671
C54 C -0.0282(4) 0.4062(3) 0.6588(3)
H64 H -0.0731 0.3754 0.7050
H65 H -0.0702 0.4636 0.6484
H66 H 0.0478 0.4123 0.6715
Si1 Si 0.06250(8) 0.11426(6) 0.75602(6)
Si2 Si 0.11791(8) 0.24508(6) 0.80073(6)
Si3 Si 0.15025(8) 0.21927(6) 0.65581(6)
C55 C 0.3107(7) 0.3060(5) 0.2890(4)
H67 H 0.3621 0.3361 0.3097
C56 C 0.2149(9) 0.3516(3) 0.2602(5)
H68 H 0.2008 0.4128 0.2612
C57 C 0.1396(6) 0.3076(7) 0.2299(4)
H69 H 0.0741 0.3387 0.2102
C58 C 0.1602(6) 0.2181(7) 0.2284(3)
H70 H 0.1088 0.1880 0.2077
C59 C 0.2561(8) 0.1725(3) 0.2572(4)
H71 H 0.2702 0.1113 0.2562
C60 C 0.3313(5) 0.2165(5) 0.2875(3)
C61 C 0.4277(9) 0.1665(10) 0.3134(6)
H72 H 0.4878 0.1524 0.2658
H73 H 0.4041 0.1129 0.3428
H74 H 0.4588 0.1991 0.3497
C62 C 0.4178(8) 0.5578(5) 0.3802(3)
H75 H 0.3998 0.5721 0.4355
C63 C 0.3477(5) 0.5961(3) 0.3251(5)
H76 H 0.2819 0.6366 0.3428
C64 C 0.3740(5) 0.5751(4) 0.2441(4)
H77 H 0.3261 0.6013 0.2065
C65 C 0.4703(5) 0.5158(4) 0.2182(4)
C66 C 0.5404(4) 0.4775(3) 0.2733(6)
H78 H 0.6062 0.4369 0.2556
C67 C 0.5141(7) 0.4985(4) 0.3542(5)
H79 H 0.5620 0.4723 0.3919
C68 C 0.4994(10) 0.4934(8) 0.1328(8)
H80 H 0.4826 0.4344 0.1293
H81 H 0.5821 0.4967 0.1122
H82 H 0.4527 0.5340 0.0997
loop_
_geom_bond_atom_site_label_1
_geom_bond_atom_site_label_2
_geom_bond_site_symmetry_1
_geom_bond_site_symmetry_2
C1 C2 1_555 1_555
C2 C3 1_555 1_555
C3 H1 1_555 1_555
C4 C3 1_555 1_555
C5 C4 1_555 1_555
H2 C5 1_555 1_555
C6 C1 1_555 1_555
C7 C6 1_555 1_555
H3 C7 1_555 1_555
H4 C7 1_555 1_555
H5 C7 1_555 1_555
C8 C2 1_555 1_555
H6 C8 1_555 1_555
H7 C8 1_555 1_555
H8 C8 1_555 1_555
C9 C4 1_555 1_555
H9 C9 1_555 1_555
H10 C9 1_555 1_555
H11 C9 1_555 1_555
C10 C14 1_555 1_555
C11 H12 1_555 1_555
C12 C11 1_555 1_555
C13 C12 1_555 1_555
H13 C13 1_555 1_555
C14 C13 1_555 1_555
C15 C10 1_555 1_555
C16 C15 1_555 1_555
H14 C16 1_555 1_555
H15 C16 1_555 1_555
H16 C16 1_555 1_555
C17 C12 1_555 1_555
H17 C17 1_555 1_555
H18 C17 1_555 1_555
H19 C17 1_555 1_555
C18 C14 1_555 1_555
H20 C18 1_555 1_555
H21 C18 1_555 1_555
H22 C18 1_555 1_555
C19 C20 1_555 1_555
C20 C21 1_555 1_555
C21 H23 1_555 1_555
C22 C21 1_555 1_555
C23 C22 1_555 1_555
H24 C23 1_555 1_555
C24 C19 1_555 1_555
C25 C24 1_555 1_555
H25 C25 1_555 1_555
H26 C25 1_555 1_555
H27 C25 1_555 1_555
C26 C22 1_555 1_555
H28 C26 1_555 1_555
H29 C26 1_555 1_555
H30 C26 1_555 1_555
C27 C20 1_555 1_555
H31 C27 1_555 1_555
H32 C27 1_555 1_555
H33 C27 1_555 1_555
C28 C29 1_555 1_555
C29 C30 1_555 1_555
C30 H34 1_555 1_555
C31 C30 1_555 1_555
C32 C31 1_555 1_555
H35 C32 1_555 1_555
C33 C28 1_555 1_555
C34 C33 1_555 1_555
H36 C34 1_555 1_555
H37 C34 1_555 1_555
H38 C34 1_555 1_555
C35 C29 1_555 1_555
H39 C35 1_555 1_555
H40 C35 1_555 1_555
H41 C35 1_555 1_555
C36 C31 1_555 1_555
H42 C36 1_555 1_555
H43 C36 1_555 1_555
H44 C36 1_555 1_555
C37 C38 1_555 1_555
C38 C39 1_555 1_555
C39 H45 1_555 1_555
C40 C39 1_555 1_555
C41 C40 1_555 1_555
H46 C41 1_555 1_555
C42 C37 1_555 1_555
C43 C42 1_555 1_555
H47 C43 1_555 1_555
H48 C43 1_555 1_555
H49 C43 1_555 1_555
C44 C38 1_555 1_555
H50 C44 1_555 1_555
H51 C44 1_555 1_555
H52 C44 1_555 1_555
C45 C40 1_555 1_555
H53 C45 1_555 1_555
H54 C45 1_555 1_555
H55 C45 1_555 1_555
C46 C47 1_555 1_555
C47 C48 1_555 1_555
C48 H56 1_555 1_555
C49 C48 1_555 1_555
C50 C49 1_555 1_555
H57 C50 1_555 1_555
C51 C46 1_555 1_555
C52 C51 1_555 1_555
H58 C52 1_555 1_555
H59 C52 1_555 1_555
H60 C52 1_555 1_555
C53 C49 1_555 1_555
H61 C53 1_555 1_555
H62 C53 1_555 1_555
H63 C53 1_555 1_555
C54 C47 1_555 1_555
H64 C54 1_555 1_555
H65 C54 1_555 1_555
H66 C54 1_555 1_555
Si1 C1 1_555 1_555
Si2 C19 1_555 1_555
Si3 C37 1_555 1_555
C55 H67 1_555 1_555
C56 C55 1_555 1_555
H68 C56 1_555 1_555
C57 C56 1_555 1_555
H69 C57 1_555 1_555
C58 C57 1_555 1_555
H70 C58 1_555 1_555
C59 C58 1_555 1_555
H71 C59 1_555 1_555
C60 C55 1_555 1_555
C61 C60 1_555 1_555
H72 C61 1_555 1_555
H73 C61 1_555 1_555
H74 C61 1_555 1_555
C62 H75 1_555 1_555
C63 C62 1_555 1_555
H76 C63 1_555 1_555
C64 C63 1_555 1_555
H77 C64 1_555 1_555
C65 C64 1_555 1_555
C66 C65 1_555 1_555
H78 C66 1_555 1_555
C67 C62 1_555 1_555
H79 C67 1_555 1_555
C68 C65 1_555 1_555
H80 C68 1_555 1_555
H81 C68 1_555 1_555
H82 C68 1_555 1_555
C5 C6 1_555 1_555
C10 Si1 1_555 1_555
C11 C15 1_555 1_555
C23 C24 1_555 1_555
C28 Si2 1_555 1_555
C32 C33 1_555 1_555
C41 C42 1_555 1_555
C46 Si3 1_555 1_555
C50 C51 1_555 1_555
Si1 Si2 1_555 1_555
Si1 Si3 1_555 1_555
Si2 Si3 1_555 1_555
C59 C60 1_555 1_555
C66 C67 1_555 1_555

#END
