
#######################################################################
#
#                 Cambridge Crystallographic Data Centre
#                                CCDC 
#
#######################################################################
#
# If this CIF has been generated from an entry in the Cambridge 
# Structural Database, then it will include bibliographic, chemical, 
# crystal, experimental, refinement or atomic coordinate data resulting 
# from the CCDC's data processing and validation procedures.
#
#######################################################################

data_KOKJOL
_chemical_name_common            TTF7-I
_chemical_formula_moiety         'C30 H12 F8 S8'
_chemical_name_systematic        
2-(4,5-bis((3,5-difluorophenyl)sulfanyl)-1,3-dithiol-2-ylidene)-4,5-bis((3,5-difluorophenyl)sulfanyl)-1,3-dithiole
_symmetry_cell_setting           triclinic
_symmetry_space_group_name_H-M   'P -1'
_symmetry_Int_Tables_number      2
_space_group_name_Hall           '-P 1'
loop_
_symmetry_equiv_pos_site_id
_symmetry_equiv_pos_as_xyz
1 x,y,z
2 -x,-y,-z
_cell_length_a                   7.935(3)
_cell_length_b                   9.5224(8)
_cell_length_c                   10.9475(9)
_cell_angle_alpha                103.237(8)
_cell_angle_beta                 107.182(17)
_cell_angle_gamma                94.933(14)
_cell_volume                     758.713
_exptl_crystal_colour            red
_exptl_crystal_description       platelet
_chemical_melting_point          '427 K'
_cell_formula_units_Z            1
loop_
_atom_site_label
_atom_site_type_symbol
_atom_site_fract_x
_atom_site_fract_y
_atom_site_fract_z
S1 S 0.95015(8) 0.12695(6) 1.17697(5)
S2 S 0.69999(9) 0.32215(7) 1.25185(6)
S3 S 0.72497(8) 0.02172(6) 0.89535(5)
S4 S 0.44755(8) 0.20972(8) 0.93125(6)
F1 F 1.0009(3) 0.68149(17) 1.07062(16)
C1 C 0.7535(3) 0.2004(2) 1.1278(2)
F2 F 1.0263(3) 0.83260(18) 1.51400(15)
F3 F 0.3367(3) 0.0671(3) 0.43471(18)
C2 C 0.9335(3) 0.0308(2) 1.01533(19)
C3 C 0.6520(3) 0.1544(2) 0.9990(2)
F4 F 0.6790(3) 0.5242(3) 0.6770(2)
C4 C 0.8751(3) 0.5178(2) 1.1609(2)
H1 H 0.8419 0.4470 1.0801
C5 C 1.0196(4) 0.7623(3) 1.2938(3)
H2 H 1.0810 0.8535 1.3020
C6 C 0.3960(4) 0.1388(3) 0.6643(2)
H3 H 0.3310 0.0508 0.6600
C7 C 0.9774(4) 0.7276(3) 1.3971(2)
C8 C 0.5704(3) 0.3756(3) 0.7896(3)
H4 H 0.6216 0.4474 0.8694
C9 C 0.8344(3) 0.4886(2) 1.2685(2)
C10 C 0.8875(3) 0.5947(3) 1.3896(2)
H5 H 0.8628 0.5760 1.4628
C11 C 0.4760(3) 0.2438(3) 0.7840(2)
C12 C 0.5095(5) 0.2948(4) 0.5526(3)
H6 H 0.5214 0.3112 0.4748
C13 C 0.9648(3) 0.6527(3) 1.1769(2)
C14 C 0.5857(4) 0.3965(4) 0.6725(3)
C15 C 0.4160(5) 0.1691(4) 0.5529(3)
S1A S 1.04985(8) -0.12695(6) 0.82303(5)
S2A S 1.30001(9) -0.32215(7) 0.74815(6)
S3A S 1.27503(8) -0.02172(6) 1.10465(5)
S4A S 1.55245(8) -0.20972(8) 1.06875(6)
F1A F 0.9991(3) -0.68149(17) 0.92938(16)
C1A C 1.2465(3) -0.2004(2) 0.8722(2)
F2A F 0.9737(3) -0.83260(18) 0.48600(15)
F3A F 1.6633(3) -0.0671(3) 1.56529(18)
C2A C 1.0665(3) -0.0308(2) 0.98467(19)
C3A C 1.3480(3) -0.1544(2) 1.0010(2)
F4A F 1.3210(3) -0.5242(3) 1.3230(2)
C4A C 1.1249(3) -0.5178(2) 0.8391(2)
H1A H 1.1581 -0.4470 0.9199
C5A C 0.9804(4) -0.7623(3) 0.7062(3)
H2A H 0.9190 -0.8535 0.6980
C6A C 1.6040(4) -0.1388(3) 1.3357(2)
H3A H 1.6690 -0.0508 1.3400
C7A C 1.0226(4) -0.7276(3) 0.6029(2)
C8A C 1.4296(3) -0.3756(3) 1.2104(3)
H4A H 1.3784 -0.4474 1.1306
C9A C 1.1656(3) -0.4886(2) 0.7315(2)
C10A C 1.1125(3) -0.5947(3) 0.6104(2)
H5A H 1.1372 -0.5760 0.5372
C11A C 1.5240(3) -0.2438(3) 1.2160(2)
C12A C 1.4905(5) -0.2948(4) 1.4474(3)
H6A H 1.4786 -0.3112 1.5252
C13A C 1.0352(3) -0.6527(3) 0.8231(2)
C14A C 1.4143(4) -0.3965(4) 1.3275(3)
C15A C 1.5840(5) -0.1691(4) 1.4471(3)
loop_
_geom_bond_atom_site_label_1
_geom_bond_atom_site_label_2
_geom_bond_site_symmetry_1
_geom_bond_site_symmetry_2
S1 C1 1_555 1_555
S2 C1 1_555 1_555
S3 C2 1_555 1_555
S4 C3 1_555 1_555
F1 C13 1_555 1_555
C1 C3 1_555 1_555
F2 C7 1_555 1_555
F3 C15 1_555 1_555
C2 S1 1_555 1_555
C3 S3 1_555 1_555
F4 C14 1_555 1_555
C4 H1 1_555 1_555
C5 H2 1_555 1_555
C6 H3 1_555 1_555
C7 C5 1_555 1_555
C8 H4 1_555 1_555
C9 S2 1_555 1_555
C10 C7 1_555 1_555
H5 C10 1_555 1_555
C11 S4 1_555 1_555
C12 H6 1_555 1_555
C13 C4 1_555 1_555
C14 C8 1_555 1_555
C15 C6 1_555 1_555
S1A C1A 1_555 1_555
S2A C1A 1_555 1_555
S3A C2A 1_555 1_555
S4A C3A 1_555 1_555
F1A C13A 1_555 1_555
C1A C3A 1_555 1_555
F2A C7A 1_555 1_555
F3A C15A 1_555 1_555
C2A C2 1_555 1_555
C3A S3A 1_555 1_555
F4A C14A 1_555 1_555
C4A H1A 1_555 1_555
C5A H2A 1_555 1_555
C6A H3A 1_555 1_555
C7A C5A 1_555 1_555
C8A H4A 1_555 1_555
C9A S2A 1_555 1_555
C10A C7A 1_555 1_555
H5A C10A 1_555 1_555
C11A S4A 1_555 1_555
C12A H6A 1_555 1_555
C13A C4A 1_555 1_555
C14A C8A 1_555 1_555
C15A C6A 1_555 1_555
C4 C9 1_555 1_555
C5 C13 1_555 1_555
C6 C11 1_555 1_555
C8 C11 1_555 1_555
C9 C10 1_555 1_555
C12 C14 1_555 1_555
C12 C15 1_555 1_555
S1A C2A 1_555 1_555
C4A C9A 1_555 1_555
C5A C13A 1_555 1_555
C6A C11A 1_555 1_555
C8A C11A 1_555 1_555
C9A C10A 1_555 1_555
C12A C14A 1_555 1_555
C12A C15A 1_555 1_555

#END
