
#######################################################################
#
#                 Cambridge Crystallographic Data Centre
#                                CCDC 
#
#######################################################################
#
# If this CIF has been generated from an entry in the Cambridge 
# Structural Database, then it will include bibliographic, chemical, 
# crystal, experimental, refinement or atomic coordinate data resulting 
# from the CCDC's data processing and validation procedures.
#
#######################################################################

data_KOKRIL
_chemical_formula_moiety         'C13 H18 N2 O4 S1'
_chemical_name_systematic        
(1S,4S,7S,10S)-12-Acetyl-4-carboxy-3,12-diaza-2-oxo-9-thiatricyclo(8.2.1.0^3,7^)tridecane
_symmetry_cell_setting           orthorhombic
_symmetry_space_group_name_H-M   'P 21 21 21'
_symmetry_Int_Tables_number      19
_space_group_name_Hall           'P 2ac 2ab'
loop_
_symmetry_equiv_pos_site_id
_symmetry_equiv_pos_as_xyz
1 x,y,z
2 1/2+x,1/2-y,-z
3 -x,1/2+y,1/2-z
4 1/2-x,-y,1/2+z
_cell_length_a                   6.7768(6)
_cell_length_b                   11.9949(9)
_cell_length_c                   17.132(1)
_cell_angle_alpha                90
_cell_angle_beta                 90
_cell_angle_gamma                90
_cell_volume                     1392.61
_exptl_crystal_colour            colorless
_chemical_melting_point          238-244deg.C
_cell_formula_units_Z            4
loop_
_atom_site_label
_atom_site_type_symbol
_atom_site_fract_x
_atom_site_fract_y
_atom_site_fract_z
S1 S 0.1618(2) 0.5777(1) 0.7634(7)
O1 O 0.3892(6) 0.1882(3) 0.6624(2)
O2 O 0.0519(5) 0.4376(2) 0.4428(2)
O3 O -0.2357(4) 0.4679(3) 0.5949(2)
O4 O -0.1298(7) 0.5811(3) 0.4058(2)
N1 N 0.1535(6) 0.3111(2) 0.6888(2)
N2 N 0.0838(5) 0.5136(3) 0.5896(2)
C1 C 0.2323(7) 0.2322(3) 0.6435(2)
C2 C -0.0666(6) 0.4527(3) 0.6185(2)
C3 C -0.0264(7) 0.5364(4) 0.4528(3)
C4 C 0.3420(7) 0.5760(4) 0.6867(2)
C5 C 0.1097(9) 0.4352(4) 0.7931(2)
C6 C -0.0913(8) 0.3996(4) 0.7621(3)
C7 C -0.0426(7) 0.3605(3) 0.6792(2)
C8 C 0.2459(8) 0.3449(4) 0.7628(3)
C9 C 0.0362(6) 0.5929(3) 0.5279(2)
C10 C 0.2249(7) 0.6593(3) 0.5178(2)
C11 C 0.3852(6) 0.5781(4) 0.5407(2)
C12 C 0.2966(6) 0.5157(3) 0.6100(2)
C13 C 0.1243(8) 0.2014(3) 0.5707(2)
loop_
_geom_bond_atom_site_label_1
_geom_bond_atom_site_label_2
_geom_bond_site_symmetry_1
_geom_bond_site_symmetry_2
S1 C4 1_555 1_555
O1 C1 1_555 1_555
O2 C3 1_555 1_555
O3 C2 1_555 1_555
O4 C3 1_555 1_555
N1 C1 1_555 1_555
N2 C2 1_555 1_555
C1 C13 1_555 1_555
C2 C7 1_555 1_555
C3 C9 1_555 1_555
C4 C12 1_555 1_555
C5 S1 1_555 1_555
C6 C5 1_555 1_555
C7 N1 1_555 1_555
C8 N1 1_555 1_555
C9 N2 1_555 1_555
C10 C9 1_555 1_555
C11 C10 1_555 1_555
C12 N2 1_555 1_555
C5 C8 1_555 1_555
C6 C7 1_555 1_555
C11 C12 1_555 1_555

#END
