
#######################################################################
#
#                 Cambridge Crystallographic Data Centre
#                                CCDC 
#
#######################################################################
#
# If this CIF has been generated from an entry in the Cambridge 
# Structural Database, then it will include bibliographic, chemical, 
# crystal, experimental, refinement or atomic coordinate data resulting 
# from the CCDC's data processing and validation procedures.
#
#######################################################################

data_KOKZUH
_chemical_formula_moiety         'C20 H23 B10 Br1'
_chemical_name_systematic        
1,2-(2-(phenyl(2-bromophenyl)methylene)cyclopent-4-ene-1,3-diyl)-1,2-dicarba-closo-dodecaborane
_symmetry_cell_setting           monoclinic
_symmetry_space_group_name_H-M   'P 21/c'
_symmetry_Int_Tables_number      14
_space_group_name_Hall           '-P 2ybc'
loop_
_symmetry_equiv_pos_site_id
_symmetry_equiv_pos_as_xyz
1 x,y,z
2 -x,1/2+y,1/2-z
3 -x,-y,-z
4 x,1/2-y,1/2+z
_cell_length_a                   7.4074(6)
_cell_length_b                   13.4208(12)
_cell_length_c                   22.7362(19)
_cell_angle_alpha                90
_cell_angle_beta                 97.451(2)
_cell_angle_gamma                90
_cell_volume                     2241.19
_cell_formula_units_Z            4
loop_
_atom_site_label
_atom_site_type_symbol
_atom_site_fract_x
_atom_site_fract_y
_atom_site_fract_z
Br1 Br 0.25674(8) -0.11711(5) 0.77908(3)
B1 B 0.8300(8) 0.1240(5) 0.9211(3)
H1 H 0.8888 0.0618 0.8985
B2 B 0.7670(9) 0.1094(5) 0.9945(3)
H2 H 0.7822 0.0380 1.0185
B3 B 0.5833(9) 0.1898(5) 1.0032(3)
H3 H 0.4804 0.1691 1.0318
B4 B 0.5274(9) 0.2562(5) 0.9365(3)
H4 H 0.3858 0.2798 0.9231
B5 B 0.8921(9) 0.2488(5) 0.9084(3)
H5 H 0.9889 0.2675 0.8773
B6 B 0.9527(9) 0.1870(5) 0.9793(3)
H6 H 1.0946 0.1667 0.9950
B7 B 0.8030(9) 0.2270(6) 1.0301(3)
H7 H 0.8467 0.2318 1.0781
B8 B 0.6583(9) 0.3157(5) 0.9939(3)
H8 H 0.6077 0.3784 1.0184
B9 B 0.7089(9) 0.3282(5) 0.9178(3)
H9 H 0.6876 0.3973 0.8918
B10 B 0.8797(9) 0.3128(6) 0.9776(3)
H10 H 0.9739 0.3741 0.9916
C1 C 0.6104(7) 0.1333(4) 0.9350(2)
C2 C 0.6779(7) 0.2109(4) 0.8877(2)
C3 C 0.4906(7) 0.0586(4) 0.8932(2)
H11 H 0.4654 -0.0060 0.9105
C4 C 0.3290(8) 0.1147(5) 0.8633(3)
H12 H 0.2093 0.1073 0.8708
C5 C 0.3871(7) 0.1774(4) 0.8236(2)
H13 H 0.3130 0.2200 0.7989
C6 C 0.5885(7) 0.1683(4) 0.8254(2)
H14 H 0.6407 0.1912 0.7903
C7 C 0.5942(7) 0.0558(4) 0.8377(2)
C8 C 0.6433(6) -0.0208(4) 0.8051(2)
C9 C 0.7410(6) -0.0044(4) 0.7509(2)
C10 C 0.6802(9) -0.0481(4) 0.6963(2)
H15 H 0.5770 -0.0882 0.6929
C11 C 0.7707(10) -0.0332(5) 0.6459(2)
H16 H 0.7248 -0.0622 0.6098
C12 C 0.9206(9) 0.0217(5) 0.6496(3)
H17 H 0.9812 0.0313 0.6167
C13 C 0.9850(7) 0.0647(5) 0.7040(2)
H18 H 1.0903 0.1031 0.7074
C14 C 0.8939(7) 0.0509(5) 0.7534(2)
H19 H 0.9400 0.0809 0.7891
C15 C 0.6229(6) -0.1260(4) 0.8254(2)
C16 C 0.7738(8) -0.1764(4) 0.8546(2)
H20 H 0.8876 -0.1460 0.8599
C17 C 0.7523(8) -0.2728(5) 0.8759(2)
H21 H 0.8520 -0.3038 0.8975
C18 C 0.5924(9) -0.3233(5) 0.8666(2)
H22 H 0.5832 -0.3883 0.8799
C19 C 0.4498(8) -0.2767(4) 0.8378(2)
H23 H 0.3385 -0.3094 0.8303
C20 C 0.4658(7) -0.1783(4) 0.8185(2)
loop_
_geom_bond_atom_site_label_1
_geom_bond_atom_site_label_2
_geom_bond_site_symmetry_1
_geom_bond_site_symmetry_2
Br1 C20 1_555 1_555
B1 H1 1_555 1_555
B2 B1 1_555 1_555
H2 B2 1_555 1_555
B3 B2 1_555 1_555
H3 B3 1_555 1_555
B4 B3 1_555 1_555
H4 B4 1_555 1_555
B5 B1 1_555 1_555
H5 B5 1_555 1_555
B6 B1 1_555 1_555
H6 B6 1_555 1_555
B7 B2 1_555 1_555
H7 B7 1_555 1_555
B8 B3 1_555 1_555
H8 B8 1_555 1_555
B9 B4 1_555 1_555
H9 B9 1_555 1_555
B10 B5 1_555 1_555
H10 B10 1_555 1_555
C1 B1 1_555 1_555
C2 B1 1_555 1_555
C3 C1 1_555 1_555
H11 C3 1_555 1_555
C4 C3 1_555 1_555
H12 C4 1_555 1_555
C5 C4 1_555 1_555
H13 C5 1_555 1_555
C6 C2 1_555 1_555
H14 C6 1_555 1_555
C7 C3 1_555 1_555
C8 C7 1_555 1_555
C9 C8 1_555 1_555
C10 C9 1_555 1_555
H15 C10 1_555 1_555
C11 C10 1_555 1_555
H16 C11 1_555 1_555
C12 C11 1_555 1_555
H17 C12 1_555 1_555
C13 C12 1_555 1_555
H18 C13 1_555 1_555
C14 C9 1_555 1_555
H19 C14 1_555 1_555
C15 C8 1_555 1_555
C16 C15 1_555 1_555
H20 C16 1_555 1_555
C17 C16 1_555 1_555
H21 C17 1_555 1_555
C18 C17 1_555 1_555
H22 C18 1_555 1_555
C19 C18 1_555 1_555
H23 C19 1_555 1_555
C20 C15 1_555 1_555
B2 B6 1_555 1_555
B2 C1 1_555 1_555
B3 B7 1_555 1_555
B3 C1 1_555 1_555
B4 B8 1_555 1_555
B4 C1 1_555 1_555
B4 C2 1_555 1_555
B5 B6 1_555 1_555
B5 B9 1_555 1_555
B5 C2 1_555 1_555
B6 B7 1_555 1_555
B6 B10 1_555 1_555
B7 B8 1_555 1_555
B7 B10 1_555 1_555
B8 B9 1_555 1_555
B8 B10 1_555 1_555
B9 B10 1_555 1_555
B9 C2 1_555 1_555
C1 C2 1_555 1_555
C5 C6 1_555 1_555
C6 C7 1_555 1_555
C13 C14 1_555 1_555
C19 C20 1_555 1_555

#END
