
#######################################################################
#
#                 Cambridge Crystallographic Data Centre
#                                CCDC 
#
#######################################################################
#
# If this CIF has been generated from an entry in the Cambridge 
# Structural Database, then it will include bibliographic, chemical, 
# crystal, experimental, refinement or atomic coordinate data resulting 
# from the CCDC's data processing and validation procedures.
#
#######################################################################

data_KOKZEQ
_chemical_formula_moiety         'C13 H21 N1 O4'
_chemical_name_systematic        
'(1R,6S)-6-(t-Butoxycarbonylamino)cyclohex-2-enyl acetate'
_symmetry_cell_setting           orthorhombic
_symmetry_space_group_name_H-M   'P 21 21 2'
_symmetry_Int_Tables_number      18
_space_group_name_Hall           'P 2 2ab'
loop_
_symmetry_equiv_pos_site_id
_symmetry_equiv_pos_as_xyz
1 x,y,z
2 -x,-y,z
3 1/2-x,1/2+y,-z
4 1/2+x,1/2-y,-z
_cell_length_a                   8.7476(6)
_cell_length_b                   30.920(2)
_cell_length_c                   5.2675(4)
_cell_angle_alpha                90
_cell_angle_beta                 90
_cell_angle_gamma                90
_cell_volume                     1424.73
_exptl_crystal_colour            colorless
_exptl_crystal_description       plate
_chemical_melting_point          '66-67 deg.C'
_cell_formula_units_Z            4
loop_
_atom_site_label
_atom_site_type_symbol
_atom_site_fract_x
_atom_site_fract_y
_atom_site_fract_z
O1 O 0.4559(4) 0.06085(12) 0.3611(7)
O2 O 0.6784(5) 0.07192(17) 0.5660(9)
O3 O 0.5008(4) 0.16222(14) 0.8693(7)
O4 O 0.6588(4) 0.18786(11) 0.5618(6)
N1 N 0.4499(5) 0.15254(13) 0.4539(8)
H1 H 0.4734 0.1598 0.3012
C1 C 0.3658(6) 0.07936(17) 0.5665(11)
H2 H 0.4253 0.0796 0.7241
C2 C 0.2282(7) 0.0507(2) 0.5951(13)
H3 H 0.2361 0.0252 0.6882
C3 C 0.0970(8) 0.0610(2) 0.4908(14)
H4 H 0.0148 0.0428 0.5221
C4 C 0.0683(6) 0.0987(2) 0.3294(13)
H5 H -0.0037 0.1178 0.4139
H6 H 0.0222 0.0892 0.1715
C5 C 0.2136(6) 0.12379(17) 0.2709(12)
H7 H 0.2654 0.1104 0.1283
H8 H 0.1871 0.1531 0.2227
C6 C 0.3195(6) 0.12494(16) 0.4952(9)
H9 H 0.2621 0.1369 0.6385
C7 C 0.6063(7) 0.05963(19) 0.3850(12)
C8 C 0.6800(7) 0.0416(2) 0.1524(12)
H10 H 0.6802 0.0632 0.0212
H11 H 0.6239 0.0168 0.0957
H12 H 0.7832 0.0334 0.1907
C9 C 0.5359(6) 0.16721(16) 0.6470(10)
C10 C 0.7740(5) 0.20514(17) 0.7401(10)
C11 C 0.7035(7) 0.24028(19) 0.8998(12)
H13 H 0.6457 0.2594 0.7931
H14 H 0.7828 0.2563 0.9838
H15 H 0.6371 0.2276 1.0242
C12 C 0.8931(7) 0.2224(2) 0.5622(12)
H16 H 0.9284 0.1995 0.4539
H17 H 0.9775 0.2336 0.6583
H18 H 0.8498 0.2450 0.4605
C13 C 0.8392(7) 0.1689(2) 0.8997(11)
H19 H 0.7654 0.1603 1.0246
H20 H 0.9304 0.1788 0.9832
H21 H 0.8633 0.1447 0.7927
loop_
_geom_bond_atom_site_label_1
_geom_bond_atom_site_label_2
_geom_bond_site_symmetry_1
_geom_bond_site_symmetry_2
O1 C1 1_555 1_555
O2 C7 1_555 1_555
O3 C9 1_555 1_555
O4 C9 1_555 1_555
N1 H1 1_555 1_555
C1 H2 1_555 1_555
C2 C1 1_555 1_555
H3 C2 1_555 1_555
C3 C2 1_555 1_555
H4 C3 1_555 1_555
C4 C3 1_555 1_555
H5 C4 1_555 1_555
H6 C4 1_555 1_555
C5 C4 1_555 1_555
H7 C5 1_555 1_555
H8 C5 1_555 1_555
C6 N1 1_555 1_555
H9 C6 1_555 1_555
C7 O1 1_555 1_555
C8 C7 1_555 1_555
H10 C8 1_555 1_555
H11 C8 1_555 1_555
H12 C8 1_555 1_555
C9 N1 1_555 1_555
C10 O4 1_555 1_555
C11 C10 1_555 1_555
H13 C11 1_555 1_555
H14 C11 1_555 1_555
H15 C11 1_555 1_555
C12 C10 1_555 1_555
H16 C12 1_555 1_555
H17 C12 1_555 1_555
H18 C12 1_555 1_555
C13 C10 1_555 1_555
H19 C13 1_555 1_555
H20 C13 1_555 1_555
H21 C13 1_555 1_555
C1 C6 1_555 1_555
C5 C6 1_555 1_555

#END
