
#######################################################################
#
#                 Cambridge Crystallographic Data Centre
#                                CCDC 
#
#######################################################################
#
# If this CIF has been generated from an entry in the Cambridge 
# Structural Database, then it will include bibliographic, chemical, 
# crystal, experimental, refinement or atomic coordinate data resulting 
# from the CCDC's data processing and validation procedures.
#
#######################################################################

data_KOLLII
_chemical_formula_moiety         'C14 H16 N2 O1'
_chemical_name_systematic        4-(1-t-butyl-4-oxoazetidin-2-yl)benzonitrile
_symmetry_cell_setting           orthorhombic
_symmetry_space_group_name_H-M   'P 21 21 21'
_symmetry_Int_Tables_number      19
_space_group_name_Hall           'P 2ac 2ab'
loop_
_symmetry_equiv_pos_site_id
_symmetry_equiv_pos_as_xyz
1 x,y,z
2 1/2-x,-y,1/2+z
3 -x,1/2+y,1/2-z
4 1/2+x,1/2-y,-z
_cell_length_a                   10.56370(13)
_cell_length_b                   10.66159(14)
_cell_length_c                   11.47312(16)
_cell_angle_alpha                90
_cell_angle_beta                 90
_cell_angle_gamma                90
_cell_volume                     1292.17
_exptl_crystal_colour            colorless
_exptl_crystal_description       plate
_cell_formula_units_Z            4
loop_
_atom_site_label
_atom_site_type_symbol
_atom_site_fract_x
_atom_site_fract_y
_atom_site_fract_z
O1 O 0.04741(9) 0.19491(9) 0.39534(8)
N1 N 0.18817(9) 0.35998(9) 0.35567(8)
N2 N 0.79232(11) 0.37320(12) 0.00067(10)
C1 C 0.31665(10) 0.35387(11) 0.40805(10)
H1 H 0.3286 0.4184 0.4704
C2 C 0.14857(11) 0.24925(11) 0.40082(10)
C3 C 0.27623(11) 0.22472(12) 0.45917(11)
H2 H 0.3232 0.1522 0.4270
H3 H 0.2730 0.2219 0.5454
C4 C 0.12007(11) 0.45809(11) 0.28993(11)
C5 C 0.20811(14) 0.56693(14) 0.26660(17)
H4 H 0.2424 0.5980 0.3406
H5 H 0.1613 0.6343 0.2277
H6 H 0.2777 0.5391 0.2164
C6 C 0.00728(16) 0.50100(17) 0.36134(16)
H7 H -0.0484 0.4293 0.3767
H8 H -0.0395 0.5652 0.3180
H9 H 0.0369 0.5361 0.4354
C7 C 0.07551(19) 0.40222(15) 0.17510(14)
H10 H 0.1489 0.3734 0.1302
H11 H 0.0298 0.4661 0.1304
H12 H 0.0192 0.3311 0.1906
C8 C 0.42392(10) 0.35417(11) 0.32185(10)
C9 C 0.41608(11) 0.28427(11) 0.21938(10)
H13 H 0.3434 0.2340 0.2053
C10 C 0.51216(11) 0.28697(11) 0.13823(10)
H14 H 0.5058 0.2391 0.0686
C11 C 0.61913(11) 0.36081(11) 0.15920(10)
C12 C 0.62954(11) 0.42909(11) 0.26216(10)
H15 H 0.7030 0.4779 0.2770
C13 C 0.53202(11) 0.42539(11) 0.34284(10)
H16 H 0.5390 0.4719 0.4132
C14 C 0.71673(11) 0.36733(12) 0.07191(10)
loop_
_geom_bond_atom_site_label_1
_geom_bond_atom_site_label_2
_geom_bond_site_symmetry_1
_geom_bond_site_symmetry_2
O1 C2 1_555 1_555
N1 C1 1_555 1_555
N2 C14 1_555 1_555
C1 H1 1_555 1_555
C2 N1 1_555 1_555
C3 C1 1_555 1_555
H2 C3 1_555 1_555
H3 C3 1_555 1_555
C4 N1 1_555 1_555
C5 C4 1_555 1_555
H4 C5 1_555 1_555
H5 C5 1_555 1_555
H6 C5 1_555 1_555
C6 C4 1_555 1_555
H7 C6 1_555 1_555
H8 C6 1_555 1_555
H9 C6 1_555 1_555
C7 C4 1_555 1_555
H10 C7 1_555 1_555
H11 C7 1_555 1_555
H12 C7 1_555 1_555
C8 C1 1_555 1_555
C9 C8 1_555 1_555
H13 C9 1_555 1_555
C10 C9 1_555 1_555
H14 C10 1_555 1_555
C11 C10 1_555 1_555
C12 C11 1_555 1_555
H15 C12 1_555 1_555
C13 C8 1_555 1_555
H16 C13 1_555 1_555
C14 C11 1_555 1_555
C2 C3 1_555 1_555
C12 C13 1_555 1_555

#END
