
#######################################################################
#
#                 Cambridge Crystallographic Data Centre
#                                CCDC 
#
#######################################################################
#
# If this CIF has been generated from an entry in the Cambridge 
# Structural Database, then it will include bibliographic, chemical, 
# crystal, experimental, refinement or atomic coordinate data resulting 
# from the CCDC's data processing and validation procedures.
#
#######################################################################

data_KOLLEE
_chemical_formula_moiety         'C30 H12 F8 S8'
_chemical_name_systematic        
2-(4,5-bis((2,5-difluorophenyl)sulfanyl)-1,3-dithiol-2-ylidene)-4,5-bis((2,5-difluorophenyl)sulfanyl)-1,3-dithiole
_symmetry_cell_setting           triclinic
_symmetry_space_group_name_H-M   'P -1'
_symmetry_Int_Tables_number      2
_space_group_name_Hall           '-P 1'
loop_
_symmetry_equiv_pos_site_id
_symmetry_equiv_pos_as_xyz
1 x,y,z
2 -x,-y,-z
_cell_length_a                   5.3905(9)
_cell_length_b                   11.550(2)
_cell_length_c                   12.658(2)
_cell_angle_alpha                78.495(15)
_cell_angle_beta                 85.092(13)
_cell_angle_gamma                83.723(14)
_cell_volume                     765.98
_exptl_crystal_colour            'light orange'
_exptl_crystal_description       block
_chemical_melting_point          '468 K'
_cell_formula_units_Z            1
loop_
_atom_site_label
_atom_site_type_symbol
_atom_site_fract_x
_atom_site_fract_y
_atom_site_fract_z
C1 C 0.8964(9) 0.0243(4) 0.0257(4)
C2 C 0.5520(10) 0.1667(5) 0.0973(4)
C3 C 0.5110(9) 0.0594(5) 0.1533(4)
C4 C 0.5273(9) 0.3753(5) 0.1682(4)
C5 C 0.4683(11) 0.4957(5) 0.1535(4)
C6 C 0.5887(14) 0.5686(6) 0.1995(5)
H1 H 0.5422 0.6498 0.1880
C7 C 0.7839(13) 0.5181(7) 0.2646(5)
H2 H 0.8730 0.5650 0.2965
C8 C 0.8404(12) 0.3990(6) 0.2801(4)
C9 C 0.7151(10) 0.3249(5) 0.2358(4)
H3 H 0.7553 0.2432 0.2507
C10 C 0.3708(10) -0.0970(5) 0.3342(4)
C11 C 0.5693(11) -0.0977(6) 0.3986(4)
C12 C 0.6451(11) -0.1950(6) 0.4722(5)
H4 H 0.7746 -0.1922 0.5155
C13 C 0.5315(13) -0.2962(6) 0.4825(5)
H5 H 0.5830 -0.3640 0.5317
C14 C 0.3365(12) -0.2959(6) 0.4176(5)
C15 C 0.2551(11) -0.1999(6) 0.3460(5)
H6 H 0.1221 -0.2029 0.3047
S1 S 0.8064(2) 0.17655(12) 0.00027(10)
S2 S 0.7061(2) -0.06254(12) 0.12157(10)
S3 S 0.3468(2) 0.29235(13) 0.10595(12)
S4 S 0.2527(3) 0.03263(14) 0.24615(11)
F1 F 0.2824(7) 0.5444(3) 0.0897(3)
F2 F 1.0267(7) 0.3485(4) 0.3461(3)
F3 F 0.6792(7) 0.0036(3) 0.3882(3)
F4 F 0.2241(8) -0.3981(4) 0.4298(3)
C1A C 1.1036(9) -0.0243(4) -0.0257(4)
C2A C 1.4480(10) -0.1667(5) -0.0973(4)
C3A C 1.4890(9) -0.0594(5) -0.1533(4)
C4A C 1.4727(9) -0.3753(5) -0.1682(4)
C5A C 1.5317(11) -0.4957(5) -0.1535(4)
C6A C 1.4113(14) -0.5686(6) -0.1995(5)
H1A H 1.4578 -0.6498 -0.1880
C7A C 1.2161(13) -0.5181(7) -0.2646(5)
H2A H 1.1270 -0.5650 -0.2965
C8A C 1.1596(12) -0.3990(6) -0.2801(4)
C9A C 1.2849(10) -0.3249(5) -0.2358(4)
H3A H 1.2447 -0.2432 -0.2507
C10A C 1.6292(10) 0.0970(5) -0.3342(4)
C11A C 1.4307(11) 0.0977(6) -0.3986(4)
C12A C 1.3549(11) 0.1950(6) -0.4722(5)
H4A H 1.2254 0.1922 -0.5155
C13A C 1.4685(13) 0.2962(6) -0.4825(5)
H5A H 1.4170 0.3640 -0.5317
C14A C 1.6635(12) 0.2959(6) -0.4176(5)
C15A C 1.7449(11) 0.1999(6) -0.3460(5)
H6A H 1.8779 0.2029 -0.3047
S1A S 1.1936(2) -0.17655(12) -0.00027(10)
S2A S 1.2939(2) 0.06254(12) -0.12157(10)
S3A S 1.6532(2) -0.29235(13) -0.10595(12)
S4A S 1.7473(3) -0.03263(14) -0.24615(11)
F1A F 1.7176(7) -0.5444(3) -0.0897(3)
F2A F 0.9733(7) -0.3485(4) -0.3461(3)
F3A F 1.3208(7) -0.0036(3) -0.3882(3)
F4A F 1.7759(8) 0.3981(4) -0.4298(3)
loop_
_geom_bond_atom_site_label_1
_geom_bond_atom_site_label_2
_geom_bond_site_symmetry_1
_geom_bond_site_symmetry_2
C1 S1 1_555 1_555
C2 C3 1_555 1_555
C3 S2 1_555 1_555
C4 C5 1_555 1_555
C5 C6 1_555 1_555
C6 H1 1_555 1_555
C7 C6 1_555 1_555
H2 C7 1_555 1_555
C8 C7 1_555 1_555
C9 C4 1_555 1_555
H3 C9 1_555 1_555
C10 C11 1_555 1_555
C11 C12 1_555 1_555
C12 H4 1_555 1_555
C13 C12 1_555 1_555
H5 C13 1_555 1_555
C14 C13 1_555 1_555
C15 C10 1_555 1_555
H6 C15 1_555 1_555
S1 C2 1_555 1_555
S2 C1 1_555 1_555
S3 C2 1_555 1_555
S4 C3 1_555 1_555
F1 C5 1_555 1_555
F2 C8 1_555 1_555
F3 C11 1_555 1_555
F4 C14 1_555 1_555
C1A C1 1_555 1_555
C2A C3A 1_555 1_555
C3A S2A 1_555 1_555
C4A C5A 1_555 1_555
C5A C6A 1_555 1_555
C6A H1A 1_555 1_555
C7A C6A 1_555 1_555
H2A C7A 1_555 1_555
C8A C7A 1_555 1_555
C9A C4A 1_555 1_555
H3A C9A 1_555 1_555
C10A C11A 1_555 1_555
C11A C12A 1_555 1_555
C12A H4A 1_555 1_555
C13A C12A 1_555 1_555
H5A C13A 1_555 1_555
C14A C13A 1_555 1_555
C15A C10A 1_555 1_555
H6A C15A 1_555 1_555
S1A C1A 1_555 1_555
S2A C1A 1_555 1_555
S3A C2A 1_555 1_555
S4A C3A 1_555 1_555
F1A C5A 1_555 1_555
F2A C8A 1_555 1_555
F3A C11A 1_555 1_555
F4A C14A 1_555 1_555
C4 S3 1_555 1_555
C8 C9 1_555 1_555
C10 S4 1_555 1_555
C14 C15 1_555 1_555
C2A S1A 1_555 1_555
C4A S3A 1_555 1_555
C8A C9A 1_555 1_555
C10A S4A 1_555 1_555
C14A C15A 1_555 1_555

#END
