
#######################################################################
#
#                 Cambridge Crystallographic Data Centre
#                                CCDC 
#
#######################################################################
#
# If this CIF has been generated from an entry in the Cambridge 
# Structural Database, then it will include bibliographic, chemical, 
# crystal, experimental, refinement or atomic coordinate data resulting 
# from the CCDC's data processing and validation procedures.
#
#######################################################################

data_KOLTAI
_chemical_formula_moiety         'C15 H18 F3 N1 O2'
_chemical_name_systematic        
2-t-butyl-4-(2,2,2-trifluoroethyl)-2-azaspiro[4.5]deca-6,9-diene-3,8-dione
_symmetry_cell_setting           monoclinic
_symmetry_space_group_name_H-M   'P 21/n'
_symmetry_Int_Tables_number      14
_space_group_name_Hall           '-P 2yn'
loop_
_symmetry_equiv_pos_site_id
_symmetry_equiv_pos_as_xyz
1 x,y,z
2 1/2-x,1/2+y,1/2-z
3 -x,-y,-z
4 1/2+x,1/2-y,1/2+z
_cell_length_a                   11.456(2)
_cell_length_b                   11.946(2)
_cell_length_c                   22.491(5)
_cell_angle_alpha                90
_cell_angle_beta                 104.27(3)
_cell_angle_gamma                90
_cell_volume                     2983
_cell_formula_units_Z            8
loop_
_atom_site_label
_atom_site_type_symbol
_atom_site_fract_x
_atom_site_fract_y
_atom_site_fract_z
F1 F -0.0744(2) 0.98769(18) 0.04256(10)
F2 F -0.23093(16) 0.98500(16) 0.07799(10)
F3 F -0.0611(2) 1.02577(15) 0.13753(11)
O1 O 0.05171(16) 0.77189(15) 0.22663(8)
O2 O -0.13731(16) 0.60916(13) -0.09567(8)
N1 N 0.17552(16) 0.67712(15) 0.17658(8)
C1 C 0.08799(19) 0.74996(18) 0.18093(10)
C2 C 0.03886(19) 0.80334(17) 0.11815(10)
H1 H 0.0883 0.8712 0.1154
C3 C 0.06754(18) 0.71339(17) 0.07414(9)
C4 C 0.19014(18) 0.67075(18) 0.11357(10)
H2 H 0.2057 0.5929 0.1026
H3 H 0.2571 0.7191 0.1084
C5 C 0.07880(18) 0.76262(18) 0.01494(10)
H4 H 0.1357 0.8209 0.0161
C6 C 0.0133(2) 0.72908(18) -0.03922(10)
H5 H 0.0255 0.7637 -0.0752
C7 C -0.0774(2) 0.64037(17) -0.04538(10)
C8 C -0.09224(19) 0.59030(17) 0.01178(11)
H6 H -0.1517 0.5341 0.0101
C9 C -0.02434(19) 0.62188(17) 0.06588(10)
H7 H -0.0347 0.5842 0.1014
C10 C -0.0930(2) 0.8395(2) 0.10635(12)
H8 H -0.1413 0.7947 0.0719
H9 H -0.1224 0.8224 0.1432
C11 C -0.1131(2) 0.9588(2) 0.09166(13)
C12 C 0.2538(2) 0.61629(18) 0.22962(10)
C13 C 0.1750(3) 0.5357(2) 0.25511(14)
H10 H 0.1120 0.5779 0.2680
H11 H 0.2246 0.4957 0.2905
H12 H 0.1377 0.4817 0.2233
C14 C 0.3489(2) 0.5496(2) 0.20834(13)
H13 H 0.3097 0.4924 0.1789
H14 H 0.4030 0.5134 0.2437
H15 H 0.3955 0.6000 0.1886
C15 C 0.3141(3) 0.7018(2) 0.27763(13)
H16 H 0.3636 0.7526 0.2599
H17 H 0.3652 0.6630 0.3130
H18 H 0.2523 0.7449 0.2909
F4 F 0.3620(2) 0.3090(3) -0.06073(11)
F5 F 0.48137(19) 0.25884(14) -0.11458(7)
F6 F 0.5025(3) 0.41367(15) -0.06976(10)
O3 O 0.74801(18) 0.39466(17) 0.06741(10)
O4 O 0.30823(17) -0.05488(16) 0.08112(10)
N2 N 0.66829(17) 0.35493(16) 0.14969(9)
C16 C 0.6678(2) 0.35993(19) 0.08968(12)
C17 C 0.5469(2) 0.31595(19) 0.05256(11)
H19 H 0.4914 0.3815 0.0419
C18 C 0.5016(2) 0.24352(18) 0.09959(11)
C19 C 0.5534(2) 0.31258(19) 0.15844(11)
H20 H 0.4988 0.3749 0.1623
H21 H 0.5663 0.2649 0.1955
C20 C 0.3676(2) 0.2372(2) 0.08570(13)
H22 H 0.3238 0.3055 0.0812
C21 C 0.3056(2) 0.1422(2) 0.07914(12)
H23 H 0.2201 0.1453 0.0697
C22 C 0.3649(2) 0.0328(2) 0.08598(12)
C23 C 0.4973(2) 0.0350(2) 0.10032(12)
H24 H 0.5401 -0.0338 0.1053
C24 C 0.5588(2) 0.12993(19) 0.10648(12)
H25 H 0.6442 0.1258 0.1158
C25 C 0.5541(3) 0.2597(2) -0.00766(12)
H26 H 0.6381 0.2644 -0.0116
H27 H 0.5338 0.1795 -0.0057
C26 C 0.4749(3) 0.3084(2) -0.06208(13)
C27 C 0.7650(2) 0.4021(2) 0.20037(12)
C28 C 0.8853(3) 0.3452(3) 0.20039(19)
H28 H 0.8772 0.2640 0.2042
H29 H 0.9482 0.3731 0.2350
H30 H 0.9072 0.3622 0.1619
C29 C 0.7737(3) 0.5276(3) 0.19063(18)
H31 H 0.7894 0.5415 0.1504
H32 H 0.8395 0.5587 0.2227
H33 H 0.6977 0.5634 0.1925
C30 C 0.7363(3) 0.3803(3) 0.26160(15)
H34 H 0.6576 0.4127 0.2614
H35 H 0.7983 0.4148 0.2944
H36 H 0.7344 0.2994 0.2686
loop_
_geom_bond_atom_site_label_1
_geom_bond_atom_site_label_2
_geom_bond_site_symmetry_1
_geom_bond_site_symmetry_2
F1 C11 1_555 1_555
F2 C11 1_555 1_555
F3 C11 1_555 1_555
O1 C1 1_555 1_555
O2 C7 1_555 1_555
N1 C1 1_555 1_555
C1 C2 1_555 1_555
C2 H1 1_555 1_555
C3 C2 1_555 1_555
C4 N1 1_555 1_555
H2 C4 1_555 1_555
H3 C4 1_555 1_555
C5 C3 1_555 1_555
H4 C5 1_555 1_555
C6 C5 1_555 1_555
H5 C6 1_555 1_555
C7 C6 1_555 1_555
C8 C7 1_555 1_555
H6 C8 1_555 1_555
C9 C3 1_555 1_555
H7 C9 1_555 1_555
C10 C2 1_555 1_555
H8 C10 1_555 1_555
H9 C10 1_555 1_555
C11 C10 1_555 1_555
C12 N1 1_555 1_555
C13 C12 1_555 1_555
H10 C13 1_555 1_555
H11 C13 1_555 1_555
H12 C13 1_555 1_555
C14 C12 1_555 1_555
H13 C14 1_555 1_555
H14 C14 1_555 1_555
H15 C14 1_555 1_555
C15 C12 1_555 1_555
H16 C15 1_555 1_555
H17 C15 1_555 1_555
H18 C15 1_555 1_555
F4 C26 1_555 1_555
F5 C26 1_555 1_555
F6 C26 1_555 1_555
O3 C16 1_555 1_555
O4 C22 1_555 1_555
N2 C16 1_555 1_555
C16 C17 1_555 1_555
C17 H19 1_555 1_555
C18 C17 1_555 1_555
C19 N2 1_555 1_555
H20 C19 1_555 1_555
H21 C19 1_555 1_555
C20 C18 1_555 1_555
H22 C20 1_555 1_555
C21 C20 1_555 1_555
H23 C21 1_555 1_555
C22 C21 1_555 1_555
C23 C22 1_555 1_555
H24 C23 1_555 1_555
C24 C18 1_555 1_555
H25 C24 1_555 1_555
C25 C17 1_555 1_555
H26 C25 1_555 1_555
H27 C25 1_555 1_555
C26 C25 1_555 1_555
C27 N2 1_555 1_555
C28 C27 1_555 1_555
H28 C28 1_555 1_555
H29 C28 1_555 1_555
H30 C28 1_555 1_555
C29 C27 1_555 1_555
H31 C29 1_555 1_555
H32 C29 1_555 1_555
H33 C29 1_555 1_555
C30 C27 1_555 1_555
H34 C30 1_555 1_555
H35 C30 1_555 1_555
H36 C30 1_555 1_555
C3 C4 1_555 1_555
C8 C9 1_555 1_555
C18 C19 1_555 1_555
C23 C24 1_555 1_555

#END
