
#######################################################################
#
#                 Cambridge Crystallographic Data Centre
#                                CCDC 
#
#######################################################################
#
# If this CIF has been generated from an entry in the Cambridge 
# Structural Database, then it will include bibliographic, chemical, 
# crystal, experimental, refinement or atomic coordinate data resulting 
# from the CCDC's data processing and validation procedures.
#
#######################################################################

data_KOMBAR
_chemical_formula_moiety         'C23 H18 N2 O4 S1'
_chemical_name_systematic        
1-((4-Methylphenyl)sulfonyl)-1,2-dihydro-2'H-spiro[indole-3,3'-quinoline]-2',4'(1'H)-dione
_symmetry_cell_setting           triclinic
_symmetry_space_group_name_H-M   'P -1'
_symmetry_Int_Tables_number      2
_space_group_name_Hall           '-P 1'
loop_
_symmetry_equiv_pos_site_id
_symmetry_equiv_pos_as_xyz
1 x,y,z
2 -x,-y,-z
_cell_length_a                   8.3769(17)
_cell_length_b                   11.337(2)
_cell_length_c                   11.432(2)
_cell_angle_alpha                75.03(3)
_cell_angle_beta                 70.31(3)
_cell_angle_gamma                78.24(3)
_cell_volume                     979.339
_exptl_crystal_colour            colorless
_chemical_melting_point          '307-309 deg.C'
_cell_formula_units_Z            2
_exptl_crystal_recrystallization_method acetone
loop_
_atom_site_label
_atom_site_type_symbol
_atom_site_fract_x
_atom_site_fract_y
_atom_site_fract_z
C1 C 0.9814(5) 0.2813(4) 0.6107(4)
H1 H 1.0898 0.2364 0.5964
C2 C 0.9408(6) 0.3752(4) 0.6747(4)
H2 H 1.0227 0.3953 0.7020
C3 C 0.7784(6) 0.4405(4) 0.6991(4)
H3 H 0.7508 0.5038 0.7433
C4 C 0.6585(5) 0.4115(3) 0.6578(4)
H4 H 0.5490 0.4547 0.6755
C5 C 0.6977(4) 0.3184(3) 0.5898(3)
C6 C 0.8608(4) 0.2529(3) 0.5670(3)
C7 C 0.5729(4) 0.2879(3) 0.5414(3)
C8 C 0.6480(4) 0.2169(3) 0.4331(3)
C9 C 0.8048(4) 0.1235(3) 0.4469(3)
C10 C 0.5151(4) 0.1570(3) 0.4117(3)
H5 H 0.5598 0.0733 0.4009
H6 H 0.4120 0.1552 0.4836
C11 C 0.7004(4) 0.3127(3) 0.3099(3)
C12 C 0.8238(4) 0.3908(3) 0.2714(3)
H7 H 0.8928 0.3873 0.3215
C13 C 0.8430(5) 0.4747(3) 0.1566(3)
H8 H 0.9239 0.5289 0.1302
C14 C 0.7432(5) 0.4780(3) 0.0818(3)
H9 H 0.7582 0.5344 0.0049
C15 C 0.6206(4) 0.3993(3) 0.1183(3)
H10 H 0.5541 0.4014 0.0669
C16 C 0.6005(4) 0.3173(3) 0.2339(3)
C17 C 0.5545(4) 0.0782(3) 0.1292(3)
C18 C 0.6369(5) 0.1209(4) 0.0024(4)
H11 H 0.6037 0.1998 -0.0384
C19 C 0.7699(5) 0.0450(4) -0.0635(4)
H12 H 0.8247 0.0741 -0.1488
C20 C 0.8229(5) -0.0719(4) -0.0064(4)
C21 C 0.7386(5) -0.1125(4) 0.1194(4)
H13 H 0.7720 -0.1914 0.1600
C22 C 0.6058(5) -0.0392(4) 0.1871(4)
H14 H 0.5507 -0.0692 0.2721
C23 C 0.9696(5) -0.1524(5) -0.0786(5)
H15 H 1.0421 -0.1929 -0.0266
H16 H 1.0342 -0.1027 -0.1547
H17 H 0.9257 -0.2130 -0.1004
N1 N 0.9032(3) 0.1559(3) 0.5031(3)
H18 H 1.0013 0.1126 0.4990
N2 N 0.4780(3) 0.2334(2) 0.2951(2)
O1 O 0.8401(3) 0.0291(2) 0.4058(2)
O2 O 0.4197(3) 0.3205(2) 0.5786(2)
O3 O 0.2766(3) 0.0944(2) 0.3164(2)
O4 O 0.3286(3) 0.2722(2) 0.1334(2)
S1 S 0.39080(11) 0.17201(9) 0.21854(9)
loop_
_geom_bond_atom_site_label_1
_geom_bond_atom_site_label_2
_geom_bond_site_symmetry_1
_geom_bond_site_symmetry_2
C1 H1 1_555 1_555
C2 C1 1_555 1_555
H2 C2 1_555 1_555
C3 C2 1_555 1_555
H3 C3 1_555 1_555
C4 C3 1_555 1_555
H4 C4 1_555 1_555
C5 C4 1_555 1_555
C6 C1 1_555 1_555
C7 C5 1_555 1_555
C8 C7 1_555 1_555
C9 C8 1_555 1_555
C10 C8 1_555 1_555
H5 C10 1_555 1_555
H6 C10 1_555 1_555
C11 C8 1_555 1_555
C12 C11 1_555 1_555
H7 C12 1_555 1_555
C13 C12 1_555 1_555
H8 C13 1_555 1_555
C14 C13 1_555 1_555
H9 C14 1_555 1_555
C15 C14 1_555 1_555
H10 C15 1_555 1_555
C16 C11 1_555 1_555
C17 C18 1_555 1_555
C18 H11 1_555 1_555
C19 C18 1_555 1_555
H12 C19 1_555 1_555
C20 C19 1_555 1_555
C21 C20 1_555 1_555
H13 C21 1_555 1_555
C22 C17 1_555 1_555
H14 C22 1_555 1_555
C23 C20 1_555 1_555
H15 C23 1_555 1_555
H16 C23 1_555 1_555
H17 C23 1_555 1_555
N1 C6 1_555 1_555
H18 N1 1_555 1_555
N2 C10 1_555 1_555
O1 C9 1_555 1_555
O2 C7 1_555 1_555
O3 S1 1_555 1_555
O4 S1 1_555 1_555
S1 C17 1_555 1_555
C5 C6 1_555 1_555
C9 N1 1_555 1_555
C15 C16 1_555 1_555
C16 N2 1_555 1_555
C21 C22 1_555 1_555
N2 S1 1_555 1_555

#END
