
#######################################################################
#
#                 Cambridge Crystallographic Data Centre
#                                CCDC 
#
#######################################################################
#
# If this CIF has been generated from an entry in the Cambridge 
# Structural Database, then it will include bibliographic, chemical, 
# crystal, experimental, refinement or atomic coordinate data resulting 
# from the CCDC's data processing and validation procedures.
#
#######################################################################

data_KOMDAR
_chemical_formula_moiety         'C24 H32 O2 S2 Si1'
_chemical_name_systematic        
6'-Trimethylsilyl-10',10'-dimethoxyspiro(1,3-dithiane)-2,1'-(2.2)metacyclophane
_symmetry_cell_setting           orthorhombic
_symmetry_space_group_name_H-M   'P b c a'
_symmetry_Int_Tables_number      61
_space_group_name_Hall           '-P 2ac 2ab'
loop_
_symmetry_equiv_pos_site_id
_symmetry_equiv_pos_as_xyz
1 x,y,z
2 1/2-x,-y,1/2+z
3 1/2+x,1/2-y,-z
4 -x,1/2+y,1/2-z
5 -x,-y,-z
6 1/2+x,y,1/2-z
7 1/2-x,1/2+y,z
8 x,1/2-y,1/2+z
_cell_length_a                   12.068(2)
_cell_length_b                   17.661(3)
_cell_length_c                   22.158(4)
_cell_angle_alpha                90
_cell_angle_beta                 90
_cell_angle_gamma                90
_cell_volume                     4722.6
_exptl_crystal_colour            colorless
_cell_formula_units_Z            8
loop_
_atom_site_label
_atom_site_type_symbol
_atom_site_fract_x
_atom_site_fract_y
_atom_site_fract_z
Si1 Si 0.0479(1) 0.5523(1) -0.1835(1)
S1 S -0.1804(1) 0.8628(1) 0.0877(1)
S2 S 0.0326(1) 0.7962(1) 0.0441(1)
O1 O 0.0647(1) 0.7658(1) -0.1798(1)
O2 O -0.0580(2) 0.8233(1) -0.2473(1)
C1 C -0.0462(2) 0.7853(1) -0.1912(1)
C2 C -0.1101(2) 0.7087(1) -0.1916(1)
C3 C -0.1006(2) 0.6667(1) -0.1321(1)
C4 C -0.0227(2) 0.6082(1) -0.1221(1)
C5 C -0.0030(3) 0.5882(2) -0.0620(1)
C6 C -0.0504(3) 0.6267(2) -0.0139(1)
C7 C -0.1305(2) 0.6812(2) -0.0240(1)
C8 C -0.1609(2) 0.6953(2) -0.0836(1)
C9 C -0.1720(3) 0.7333(2) 0.0253(1)
C10 C -0.1131(2) 0.8123(2) 0.0258(1)
C11 C -0.1284(2) 0.8511(2) -0.0357(1)
C12 C -0.2200(2) 0.8951(2) -0.0486(1)
C13 C -0.2460(3) 0.9132(2) -0.1082(1)
C14 C -0.1866(2) 0.8825(2) -0.1551(1)
C15 C -0.0948(2) 0.8387(1) -0.1437(1)
C16 C -0.0622(2) 0.8268(1) -0.0839(1)
C17 C 0.1427(3) 0.8266(2) -0.1793(1)
C18 C -0.0164(3) 0.7843(2) -0.2992(1)
C19 C -0.0582(2) 0.5127(2) -0.2360(1)
C20 C 0.1514(2) 0.6059(2) -0.2288(1)
C21 C 0.1200(3) 0.4706(2) -0.1478(1)
C22 C -0.1001(3) 0.9487(2) 0.0899(1)
C23 C 0.0223(3) 0.9379(2) 0.1006(2)
C24 C 0.0786(3) 0.8929(2) 0.0502(1)
H1 H -0.0814 0.6772 -0.2233
H2 H -0.1868 0.7183 -0.2000
H3 H 0.0450 0.5461 -0.0537
H4 H -0.0278 0.6156 0.0267
H5 H -0.2251 0.7259 -0.0914
H6 H -0.1605 0.7092 0.0636
H7 H -0.2502 0.7407 0.0202
H8 H -0.2659 0.9126 -0.0161
H9 H -0.3062 0.9473 -0.1164
H10 H -0.2085 0.8924 -0.1961
H11 H 0.0067 0.8018 -0.0756
H12 H 0.2154 0.8071 -0.1712
H13 H 0.1425 0.8514 -0.2179
H14 H 0.1224 0.8622 -0.1485
H15 H -0.0286 0.8144 -0.3347
H16 H 0.0616 0.7755 -0.2943
H17 H -0.0541 0.7367 -0.3034
H18 H -0.0224 0.4843 -0.2674
H19 H -0.1071 0.4801 -0.2138
H20 H -0.1001 0.5533 -0.2537
H21 H 0.1827 0.5731 -0.2589
H22 H 0.1153 0.6478 -0.2482
H23 H 0.2091 0.6244 -0.2030
H24 H 0.1566 0.4410 -0.1782
H25 H 0.1738 0.4893 -0.1196
H26 H 0.0671 0.4395 -0.1269
H27 H -0.1286 0.9809 0.1212
H28 H -0.1094 0.9747 0.0522
H29 H 0.0316 0.9105 0.1377
H30 H 0.0580 0.9862 0.1052
H31 H 0.0643 0.9181 0.0126
H32 H 0.1572 0.8935 0.0568
loop_
_geom_bond_atom_site_label_1
_geom_bond_atom_site_label_2
_geom_bond_site_symmetry_1
_geom_bond_site_symmetry_2
Si1 C4 1_555 1_555
S1 C10 1_555 1_555
S2 C10 1_555 1_555
O1 C1 1_555 1_555
O2 C1 1_555 1_555
C1 C2 1_555 1_555
C2 C3 1_555 1_555
C3 C4 1_555 1_555
C4 C5 1_555 1_555
C5 C6 1_555 1_555
C6 C7 1_555 1_555
C7 C8 1_555 1_555
C8 C3 1_555 1_555
C9 C7 1_555 1_555
C10 C9 1_555 1_555
C11 C10 1_555 1_555
C12 C11 1_555 1_555
C13 C12 1_555 1_555
C14 C13 1_555 1_555
C15 C1 1_555 1_555
C16 C11 1_555 1_555
C17 O1 1_555 1_555
C18 O2 1_555 1_555
C19 Si1 1_555 1_555
C20 Si1 1_555 1_555
C21 Si1 1_555 1_555
C22 S1 1_555 1_555
C23 C22 1_555 1_555
C24 S2 1_555 1_555
H1 C2 1_555 1_555
H2 C2 1_555 1_555
H3 C5 1_555 1_555
H4 C6 1_555 1_555
H5 C8 1_555 1_555
H6 C9 1_555 1_555
H7 C9 1_555 1_555
H8 C12 1_555 1_555
H9 C13 1_555 1_555
H10 C14 1_555 1_555
H11 C16 1_555 1_555
H12 C17 1_555 1_555
H13 C17 1_555 1_555
H14 C17 1_555 1_555
H15 C18 1_555 1_555
H16 C18 1_555 1_555
H17 C18 1_555 1_555
H18 C19 1_555 1_555
H19 C19 1_555 1_555
H20 C19 1_555 1_555
H21 C20 1_555 1_555
H22 C20 1_555 1_555
H23 C20 1_555 1_555
H24 C21 1_555 1_555
H25 C21 1_555 1_555
H26 C21 1_555 1_555
H27 C22 1_555 1_555
H28 C22 1_555 1_555
H29 C23 1_555 1_555
H30 C23 1_555 1_555
H31 C24 1_555 1_555
H32 C24 1_555 1_555
C14 C15 1_555 1_555
C15 C16 1_555 1_555
C23 C24 1_555 1_555

#END
