
#######################################################################
#
#                 Cambridge Crystallographic Data Centre
#                                CCDC 
#
#######################################################################
#
# If this CIF has been generated from an entry in the Cambridge 
# Structural Database, then it will include bibliographic, chemical, 
# crystal, experimental, refinement or atomic coordinate data resulting 
# from the CCDC's data processing and validation procedures.
#
#######################################################################

data_KOMDAR01
_chemical_formula_moiety         'C24 H32 O2 S2 Si1'
_chemical_name_systematic        
'4,4-Dimethoxy-6-trimethylsilyl-10,10-epithiopropanoepithio(2.2) metacyclophane'
_symmetry_cell_setting           orthorhombic
_symmetry_space_group_name_H-M   'P 21 21 21'
_symmetry_Int_Tables_number      19
_space_group_name_Hall           'P 2ac 2ab'
loop_
_symmetry_equiv_pos_site_id
_symmetry_equiv_pos_as_xyz
1 x,y,z
2 1/2+x,1/2-y,-z
3 -x,1/2+y,1/2-z
4 1/2-x,-y,1/2+z
_cell_length_a                   12.100(3)
_cell_length_b                   17.406(3)
_cell_length_c                   22.388(8)
_cell_angle_alpha                90
_cell_angle_beta                 90
_cell_angle_gamma                90
_cell_volume                     4715.19
_exptl_crystal_colour            colorless
_cell_formula_units_Z            8
loop_
_atom_site_label
_atom_site_type_symbol
_atom_site_fract_x
_atom_site_fract_y
_atom_site_fract_z
S1 S 0.32664(21) 0.49820(13) 0.16798(10)
S2 S 0.15217(22) 0.40293(15) 0.10944(11)
Si1 Si 0.26458(23) 0.71592(15) 0.39589(12)
O1 O 0.33061(52) 0.49668(32) 0.39053(25)
O2 O 0.20427(52) 0.42592(31) 0.44579(24)
C1 C 0.21996(76) 0.46876(48) 0.39266(39)
C2 C 0.14839(77) 0.54100(47) 0.39326(39)
H1 H 0.16971(77) 0.57291(47) 0.42628(39)
H2 H 0.07353(77) 0.52483(47) 0.39985(39)
C3 C 0.15022(71) 0.58903(49) 0.33732(35)
C4 C 0.20642(68) 0.65769(48) 0.33072(40)
C5 C 0.21764(74) 0.68926(48) 0.27341(39)
H3 H 0.24997(74) 0.73934(48) 0.26925(39)
C6 C 0.18514(76) 0.64869(49) 0.22369(42)
H4 H 0.20144(76) 0.66786(49) 0.18446(42)
C7 C 0.12659(65) 0.58045(49) 0.22938(40)
C8 C 0.10248(72) 0.55650(48) 0.28709(40)
H5 H 0.05056(72) 0.51537(48) 0.29243(40)
C9 C 0.10611(73) 0.52660(49) 0.17718(39)
H6 H 0.11317(73) 0.55469(49) 0.14048(39)
H7 H 0.03189(73) 0.50734(49) 0.17951(39)
C10 C 0.18815(73) 0.45753(49) 0.17598(41)
C11 C 0.17713(67) 0.41076(47) 0.23359(37)
C12 C 0.09300(78) 0.35546(51) 0.24016(41)
H8 H 0.05528(78) 0.33684(51) 0.20532(41)
C13 C 0.06675(85) 0.32931(54) 0.29622(47)
H9 H 0.01755(85) 0.28634(54) 0.30021(47)
C14 C 0.11026(76) 0.36126(49) 0.34651(39)
H10 H 0.08201(76) 0.34769(49) 0.38516(39)
C15 C 0.19306(70) 0.41632(47) 0.34253(35)
C16 C 0.22796(73) 0.43542(45) 0.28446(35)
H11 H 0.29162(73) 0.46779(45) 0.27982(35)
C17 C 0.41363(77) 0.43874(53) 0.39124(47)
H12 H 0.48581(77) 0.46152(53) 0.38948(47)
H13 H 0.40740(77) 0.40831(53) 0.42684(47)
H14 H 0.40266(77) 0.40664(53) 0.35688(47)
C18 C 0.2257(10) 0.46529(55) 0.50021(44)
H15 H 0.2123(10) 0.43180(55) 0.53349(44)
H16 H 0.3015(10) 0.48160(55) 0.50067(44)
H17 H 0.1784(10) 0.50938(55) 0.50302(44)
C19 C 0.15432(92) 0.74075(52) 0.45151(42)
H18 H 0.18667(92) 0.76903(52) 0.48390(42)
H19 H 0.09823(92) 0.77142(52) 0.43277(42)
H20 H 0.12193(92) 0.69428(52) 0.46657(42)
C20 C 0.31839(89) 0.80933(48) 0.36516(40)
H21 H 0.34873(89) 0.83951(48) 0.39708(40)
H22 H 0.37497(89) 0.79890(48) 0.33622(40)
H23 H 0.25922(89) 0.83714(48) 0.34649(40)
C21 C 0.38008(91) 0.66898(57) 0.43715(44)
H24 H 0.40316(91) 0.70189(57) 0.46922(44)
H25 H 0.35673(91) 0.62041(57) 0.45308(44)
H26 H 0.44069(91) 0.66113(57) 0.41016(44)
C22 C 0.40539(79) 0.41067(51) 0.16186(41)
H27 H 0.39131(79) 0.38064(51) 0.19701(41)
H28 H 0.48276(79) 0.42286(51) 0.16134(41)
C23 C 0.37765(83) 0.36168(55) 0.10920(43)
H29 H 0.42803(83) 0.31918(55) 0.10685(43)
H30 H 0.38673(83) 0.39228(55) 0.07387(43)
C24 C 0.26086(82) 0.32954(54) 0.11087(44)
H31 H 0.24927(82) 0.29536(54) 0.07780(44)
H32 H 0.25255(82) 0.30010(54) 0.14685(44)
S3 S 0.74718(26) 0.63014(15) 0.20172(11)
S4 S 0.57208(20) 0.54628(14) 0.26900(12)
Si2 Si 0.68029(26) 0.27996(17) 0.46646(13)
O3 O 0.67619(52) 0.49013(33) 0.48783(25)
O4 O 0.83471(56) 0.54221(33) 0.53013(25)
C25 C 0.78554(72) 0.51155(49) 0.47904(40)
C26 C 0.84400(75) 0.43525(47) 0.45875(37)
H33 H 0.83595(75) 0.39744(47) 0.48967(37)
H34 H 0.92148(75) 0.44523(47) 0.45373(37)
C27 C 0.79902(66) 0.40190(47) 0.40265(37)
C28 C 0.71510(77) 0.34451(52) 0.40205(42)
C29 C 0.66106(86) 0.33401(52) 0.34827(43)
H35 H 0.60736(86) 0.29354(52) 0.34574(43)
C30 C 0.68253(87) 0.37783(50) 0.29737(42)
H36 H 0.63862(87) 0.37197(50) 0.26195(42)
C31 C 0.76676(76) 0.43142(47) 0.29806(38)
C32 C 0.82756(76) 0.43765(47) 0.34890(38)
H37 H 0.89310(76) 0.46868(47) 0.34746(38)
C33 C 0.78033(83) 0.49199(52) 0.25013(39)
H38 H 0.75228(83) 0.47247(52) 0.21300(39)
H39 H 0.85749(83) 0.50298(52) 0.24495(39)
C34 C 0.71933(71) 0.56843(47) 0.26546(37)
C35 C 0.76227(72) 0.59984(48) 0.32534(36)
C36 C 0.85085(74) 0.65142(44) 0.32551(38)
H40 H 0.87170(74) 0.67722(44) 0.28933(38)
C37 C 0.90480(81) 0.66581(50) 0.37774(40)
H41 H 0.96195(81) 0.70406(50) 0.37850(40)
C38 C 0.88114(74) 0.62604(48) 0.43022(40)
H42 H 0.92361(74) 0.63523(48) 0.46573(40)
C39 C 0.79640(74) 0.57304(50) 0.42988(37)
C40 C 0.73329(70) 0.56572(43) 0.37857(34)
H43 H 0.66720(70) 0.53524(43) 0.37966(34)
C41 C 0.60601(84) 0.54942(61) 0.51219(46)
H44 H 0.53228(84) 0.52959(61) 0.51580(46)
H45 H 0.63271(84) 0.56421(61) 0.55090(46)
H46 H 0.60568(84) 0.59336(61) 0.48628(46)
C42 C 0.8399(10) 0.49214(55) 0.58044(38)
H47 H 0.8757(10) 0.51754(55) 0.61321(38)
H48 H 0.7664(10) 0.47760(55) 0.59201(38)
H49 H 0.8811(10) 0.44708(55) 0.56969(38)
C43 C 0.58634(86) 0.20341(53) 0.43855(45)
H50 H 0.51714(86) 0.22565(53) 0.42668(45)
H51 H 0.61964(86) 0.17820(53) 0.40493(45)
H52 H 0.57387(86) 0.16668(53) 0.46982(45)
C44 C 0.8138(11) 0.23655(74) 0.49359(75)
H53 H 0.8482(11) 0.21361(74) 0.45932(75)
H54 H 0.8618(11) 0.27507(74) 0.50997(75)
H55 H 0.8000(11) 0.19774(74) 0.52314(75)
C45 C 0.6101(11) 0.32618(69) 0.53160(44)
H56 H 0.5420(11) 0.34868(69) 0.51820(44)
H57 H 0.5947(11) 0.28808(69) 0.56147(44)
H58 H 0.6565(11) 0.36541(69) 0.54831(44)
C46 C 0.6617(11) 0.71266(59) 0.21939(46)
H59 H 0.6701(11) 0.74948(59) 0.18779(46)
H60 H 0.6886(11) 0.73587(59) 0.25546(46)
C47 C 0.54150(97) 0.69580(61) 0.22613(54)
H61 H 0.51425(97) 0.67194(61) 0.19039(54)
H62 H 0.50180(97) 0.74301(61) 0.23171(54)
C48 C 0.51762(88) 0.64227(58) 0.27816(47)
H63 H 0.55097(88) 0.66396(58) 0.31322(47)
H64 H 0.43939(88) 0.63939(58) 0.28494(47)
loop_
_geom_bond_atom_site_label_1
_geom_bond_atom_site_label_2
_geom_bond_site_symmetry_1
_geom_bond_site_symmetry_2
S1 C10 1_555 1_555
S2 C10 1_555 1_555
Si1 C4 1_555 1_555
O1 C1 1_555 1_555
O2 C1 1_555 1_555
C1 C2 1_555 1_555
C2 H1 1_555 1_555
H2 C2 1_555 1_555
C3 C2 1_555 1_555
C4 C3 1_555 1_555
C5 C4 1_555 1_555
H3 C5 1_555 1_555
C6 C5 1_555 1_555
H4 C6 1_555 1_555
C7 C6 1_555 1_555
C8 C3 1_555 1_555
H5 C8 1_555 1_555
C9 C7 1_555 1_555
H6 C9 1_555 1_555
H7 C9 1_555 1_555
C10 C9 1_555 1_555
C11 C10 1_555 1_555
C12 C11 1_555 1_555
H8 C12 1_555 1_555
C13 C12 1_555 1_555
H9 C13 1_555 1_555
C14 C13 1_555 1_555
H10 C14 1_555 1_555
C15 C1 1_555 1_555
C16 C11 1_555 1_555
H11 C16 1_555 1_555
C17 O1 1_555 1_555
H12 C17 1_555 1_555
H13 C17 1_555 1_555
H14 C17 1_555 1_555
C18 O2 1_555 1_555
H15 C18 1_555 1_555
H16 C18 1_555 1_555
H17 C18 1_555 1_555
C19 Si1 1_555 1_555
H18 C19 1_555 1_555
H19 C19 1_555 1_555
H20 C19 1_555 1_555
C20 Si1 1_555 1_555
H21 C20 1_555 1_555
H22 C20 1_555 1_555
H23 C20 1_555 1_555
C21 Si1 1_555 1_555
H24 C21 1_555 1_555
H25 C21 1_555 1_555
H26 C21 1_555 1_555
C22 S1 1_555 1_555
H27 C22 1_555 1_555
H28 C22 1_555 1_555
C23 C22 1_555 1_555
H29 C23 1_555 1_555
H30 C23 1_555 1_555
C24 S2 1_555 1_555
H31 C24 1_555 1_555
H32 C24 1_555 1_555
S3 C34 1_555 1_555
S4 C34 1_555 1_555
Si2 C28 1_555 1_555
O3 C25 1_555 1_555
O4 C25 1_555 1_555
C25 C26 1_555 1_555
C26 H33 1_555 1_555
H34 C26 1_555 1_555
C27 C26 1_555 1_555
C28 C27 1_555 1_555
C29 C28 1_555 1_555
H35 C29 1_555 1_555
C30 C29 1_555 1_555
H36 C30 1_555 1_555
C31 C30 1_555 1_555
C32 C27 1_555 1_555
H37 C32 1_555 1_555
C33 C31 1_555 1_555
H38 C33 1_555 1_555
H39 C33 1_555 1_555
C34 C33 1_555 1_555
C35 C34 1_555 1_555
C36 C35 1_555 1_555
H40 C36 1_555 1_555
C37 C36 1_555 1_555
H41 C37 1_555 1_555
C38 C37 1_555 1_555
H42 C38 1_555 1_555
C39 C25 1_555 1_555
C40 C35 1_555 1_555
H43 C40 1_555 1_555
C41 O3 1_555 1_555
H44 C41 1_555 1_555
H45 C41 1_555 1_555
H46 C41 1_555 1_555
C42 O4 1_555 1_555
H47 C42 1_555 1_555
H48 C42 1_555 1_555
H49 C42 1_555 1_555
C43 Si2 1_555 1_555
H50 C43 1_555 1_555
H51 C43 1_555 1_555
H52 C43 1_555 1_555
C44 Si2 1_555 1_555
H53 C44 1_555 1_555
H54 C44 1_555 1_555
H55 C44 1_555 1_555
C45 Si2 1_555 1_555
H56 C45 1_555 1_555
H57 C45 1_555 1_555
H58 C45 1_555 1_555
C46 S3 1_555 1_555
H59 C46 1_555 1_555
H60 C46 1_555 1_555
C47 C46 1_555 1_555
H61 C47 1_555 1_555
H62 C47 1_555 1_555
C48 S4 1_555 1_555
H63 C48 1_555 1_555
H64 C48 1_555 1_555
C7 C8 1_555 1_555
C14 C15 1_555 1_555
C15 C16 1_555 1_555
C23 C24 1_555 1_555
C31 C32 1_555 1_555
C38 C39 1_555 1_555
C39 C40 1_555 1_555
C47 C48 1_555 1_555

#END
