
#######################################################################
#
#                 Cambridge Crystallographic Data Centre
#                                CCDC 
#
#######################################################################
#
# If this CIF has been generated from an entry in the Cambridge 
# Structural Database, then it will include bibliographic, chemical, 
# crystal, experimental, refinement or atomic coordinate data resulting 
# from the CCDC's data processing and validation procedures.
#
#######################################################################

data_KOMSUB01
_chemical_formula_moiety         'C19 H15 N1 O1'
_chemical_name_systematic        4-(Diphenylamino)benzaldehyde
_symmetry_cell_setting           monoclinic
_symmetry_space_group_name_H-M   'P 21/c'
_symmetry_Int_Tables_number      14
_space_group_name_Hall           '-P 2ybc'
loop_
_symmetry_equiv_pos_site_id
_symmetry_equiv_pos_as_xyz
1 x,y,z
2 -x,1/2+y,1/2-z
3 -x,-y,-z
4 x,1/2-y,1/2+z
_cell_length_a                   12.028(2)
_cell_length_b                   11.352(2)
_cell_length_c                   10.730(2)
_cell_angle_alpha                90
_cell_angle_beta                 101.41(3)
_cell_angle_gamma                90
_cell_volume                     1436.14
_exptl_crystal_colour            'light yellow'
_exptl_crystal_description       block
_cell_formula_units_Z            4
_exptl_crystal_recrystallization_method hexane
loop_
_atom_site_label
_atom_site_type_symbol
_atom_site_fract_x
_atom_site_fract_y
_atom_site_fract_z
O1 O 0.98613(8) -0.22970(8) 1.10325(11)
N1 N 0.68978(9) 0.24215(9) 0.94851(11)
C1 C 0.58165(10) 0.22075(10) 0.86993(12)
C2 C 0.51145(11) 0.13306(11) 0.90175(14)
C3 C 0.40421(11) 0.11444(12) 0.82773(15)
C4 C 0.36628(11) 0.18385(13) 0.72165(14)
C5 C 0.43597(12) 0.27077(13) 0.68964(14)
C6 C 0.54385(11) 0.28971(12) 0.76316(13)
C7 C 0.71584(10) 0.35948(10) 0.99321(12)
C8 C 0.63769(10) 0.42456(11) 1.04481(13)
C9 C 0.66466(11) 0.53845(11) 1.08834(13)
C10 C 0.76925(11) 0.58755(11) 1.08220(13)
C11 C 0.84656(11) 0.52266(11) 1.03004(13)
C12 C 0.82058(10) 0.40888(11) 0.98515(13)
C13 C 0.76007(10) 0.14866(10) 0.99956(12)
C14 C 0.83061(10) 0.15776(10) 1.11982(13)
C15 C 0.90179(11) 0.06528(11) 1.16724(13)
C16 C 0.90296(10) -0.03868(10) 1.09822(13)
C17 C 0.83198(10) -0.04807(11) 0.97831(13)
C18 C 0.76192(10) 0.04390(11) 0.92909(13)
C19 C 0.98005(11) -0.13380(11) 1.15224(14)
H1 H 0.5383(14) 0.0828(16) 0.9800(18)
H2 H 0.3545(16) 0.0483(17) 0.8544(18)
H3 H 0.2910(16) 0.1707(17) 0.6693(19)
H4 H 0.4109(16) 0.3172(17) 0.6162(19)
H5 H 0.5937(15) 0.3504(16) 0.7419(19)
H6 H 0.5660(14) 0.3906(16) 1.0552(17)
H7 H 0.6068(15) 0.5843(16) 1.1233(18)
H8 H 0.7893(14) 0.6723(16) 1.1144(18)
H9 H 0.9216(15) 0.5569(16) 1.0219(18)
H10 H 0.8786(15) 0.3617(15) 0.9496(17)
H11 H 0.8298(15) 0.2301(16) 1.1726(17)
H12 H 0.9530(15) 0.0709(15) 1.2525(18)
H13 H 0.8336(14) -0.1205(15) 0.9267(17)
H14 H 0.7131(14) 0.0383(14) 0.8433(17)
H15 H 1.0296(15) -0.1125(16) 1.2363(19)
loop_
_geom_bond_atom_site_label_1
_geom_bond_atom_site_label_2
_geom_bond_site_symmetry_1
_geom_bond_site_symmetry_2
O1 C19 1_555 1_555
N1 C1 1_555 1_555
C1 C2 1_555 1_555
C2 C3 1_555 1_555
C3 C4 1_555 1_555
C4 C5 1_555 1_555
C5 C6 1_555 1_555
C6 C1 1_555 1_555
C7 N1 1_555 1_555
C8 C7 1_555 1_555
C9 C8 1_555 1_555
C10 C9 1_555 1_555
C11 C10 1_555 1_555
C12 C7 1_555 1_555
C13 N1 1_555 1_555
C14 C13 1_555 1_555
C15 C14 1_555 1_555
C16 C15 1_555 1_555
C17 C16 1_555 1_555
C18 C13 1_555 1_555
C19 C16 1_555 1_555
H1 C2 1_555 1_555
H2 C3 1_555 1_555
H3 C4 1_555 1_555
H4 C5 1_555 1_555
H5 C6 1_555 1_555
H6 C8 1_555 1_555
H7 C9 1_555 1_555
H8 C10 1_555 1_555
H9 C11 1_555 1_555
H10 C12 1_555 1_555
H11 C14 1_555 1_555
H12 C15 1_555 1_555
H13 C17 1_555 1_555
H14 C18 1_555 1_555
H15 C19 1_555 1_555
C11 C12 1_555 1_555
C17 C18 1_555 1_555

#END
