
#######################################################################
#
#                 Cambridge Crystallographic Data Centre
#                                CCDC 
#
#######################################################################
#
# If this CIF has been generated from an entry in the Cambridge 
# Structural Database, then it will include bibliographic, chemical, 
# crystal, experimental, refinement or atomic coordinate data resulting 
# from the CCDC's data processing and validation procedures.
#
#######################################################################

data_KOMTOW
_chemical_formula_moiety         'C37 H52 O4 S1'
_chemical_name_systematic        
'2,4-Di-t-butyl-6-(1-(3,5-di-t-butyl-2-hydroxyphenyl)ethyl)phenyl 4-methylbenzenesulfonate'
_symmetry_cell_setting           monoclinic
_symmetry_space_group_name_H-M   'P 21/n'
_symmetry_Int_Tables_number      14
_space_group_name_Hall           '-P 2yn'
loop_
_symmetry_equiv_pos_site_id
_symmetry_equiv_pos_as_xyz
1 x,y,z
2 1/2-x,1/2+y,1/2-z
3 -x,-y,-z
4 1/2+x,1/2-y,1/2+z
_cell_length_a                   13.893(2)
_cell_length_b                   15.760(2)
_cell_length_c                   17.525(3)
_cell_angle_alpha                90
_cell_angle_beta                 107.262(3)
_cell_angle_gamma                90
_cell_volume                     3664.33
_exptl_crystal_colour            colorless
_exptl_crystal_description       block
_cell_formula_units_Z            4
_exptl_crystal_recrystallization_method acetonitrile
loop_
_atom_site_label
_atom_site_type_symbol
_atom_site_fract_x
_atom_site_fract_y
_atom_site_fract_z
S1 S -0.12768(4) 0.86568(4) 0.82030(3)
O1 O -0.03328(10) 0.65695(9) 0.72763(9)
H1 H -0.0523 0.7046 0.7351
O2 O -0.08263(10) 0.92862(9) 0.76869(8)
O3 O -0.19479(13) 0.91394(13) 0.84952(9)
O4 O -0.16166(11) 0.79066(10) 0.77557(8)
C1 C 0.04851(14) 0.66320(13) 0.69863(11)
C2 C 0.08001(15) 0.58978(13) 0.66879(13)
C3 C 0.16357(16) 0.59769(14) 0.64116(13)
H2 H 0.1858 0.5496 0.6207
C4 C 0.21551(15) 0.67205(14) 0.64218(12)
C5 C 0.18127(15) 0.74257(13) 0.67293(11)
H3 H 0.2153 0.7937 0.6748
C6 C 0.09822(14) 0.73996(12) 0.70110(10)
C7 C 0.05885(14) 0.81936(12) 0.73091(11)
H4 H 0.0331 0.8020 0.7749
C8 C -0.02946(14) 0.85829(12) 0.66655(11)
C9 C -0.04110(15) 0.84412(12) 0.58635(11)
H5 H 0.0024 0.8065 0.5724
C10 C -0.11499(16) 0.88377(13) 0.52618(12)
C11 C -0.17554(16) 0.94102(14) 0.54969(12)
H6 H -0.2250 0.9687 0.5099
C12 C -0.16794(16) 0.96036(14) 0.62890(13)
C13 C -0.09589(14) 0.91427(12) 0.68549(11)
C14 C -0.02230(15) 0.84260(14) 0.90080(11)
C15 C 0.03200(17) 0.90683(15) 0.94664(13)
H7 H 0.0149 0.9632 0.9336
C16 C 0.11210(19) 0.88714(17) 1.01221(14)
H8 H 0.1497 0.9308 1.0425
C17 C 0.13759(18) 0.80494(18) 1.03374(13)
C18 C 0.08153(19) 0.74164(16) 0.98730(14)
H9 H 0.0976 0.6853 1.0012
C19 C 0.00230(17) 0.75959(15) 0.92091(13)
H10 H -0.0343 0.7159 0.8899
C20 C 0.02661(19) 0.50438(15) 0.66815(19)
C21 C 0.0425(2) 0.47584(19) 0.7540(2)
H11 H 0.0166 0.5182 0.7820
H12 H 0.1132 0.4681 0.7799
H13 H 0.0078 0.4232 0.7542
C22 C -0.0861(2) 0.51147(19) 0.6233(2)
H14 H -0.1164 0.5532 0.6488
H15 H -0.1179 0.4575 0.6239
H16 H -0.0944 0.5281 0.5690
C23 C 0.0693(2) 0.43513(19) 0.6248(3)
H17 H 0.1398 0.4277 0.6515
H18 H 0.0600 0.4520 0.5705
H19 H 0.0345 0.3827 0.6256
C24 C 0.30546(19) 0.67786(16) 0.60915(15)
C25 C 0.2779(13) 0.7341(10) 0.5397(10)
H20 H 0.2208 0.7110 0.4998
H21 H 0.3337 0.7391 0.5183
H22 H 0.2611 0.7891 0.5555
C26 C 0.3269(9) 0.5914(4) 0.5741(8)
H23 H 0.2690 0.5748 0.5312
H24 H 0.3409 0.5489 0.6152
H25 H 0.3840 0.5972 0.5543
C27 C 0.3962(6) 0.7038(15) 0.6763(8)
H26 H 0.4178 0.6571 0.7125
H27 H 0.3790 0.7510 0.7044
H28 H 0.4497 0.7200 0.6550
C28 C -0.12671(18) 0.86591(15) 0.43838(12)
C29 C -0.0325(5) 0.8900(7) 0.4209(3)
H29 H -0.0310 0.9504 0.4142
H30 H -0.0298 0.8625 0.3727
H31 H 0.0244 0.8729 0.4644
C30 C -0.2182(5) 0.9135(5) 0.3822(3)
H32 H -0.2298 0.8937 0.3284
H33 H -0.2045 0.9733 0.3845
H34 H -0.2769 0.9030 0.3990
C31 C -0.1505(8) 0.7724(4) 0.4254(4)
H35 H -0.2184 0.7621 0.4260
H36 H -0.1047 0.7402 0.4672
H37 H -0.1435 0.7554 0.3747
C32 C -0.2354(2) 1.02994(19) 0.64732(17)
C33 C -0.2761(3) 1.0877(3) 0.5742(2)
H38 H -0.3177 1.1311 0.5864
H39 H -0.3153 1.0546 0.5298
H40 H -0.2207 1.1135 0.5607
C34 C -0.3234(2) 0.9887(3) 0.6664(2)
H41 H -0.3659 1.0318 0.6780
H42 H -0.2991 0.9523 0.7119
H43 H -0.3614 0.9559 0.6213
C35 C -0.1797(3) 1.0870(2) 0.7152(2)
H44 H -0.2250 1.1293 0.7241
H45 H -0.1249 1.1142 0.7020
H46 H -0.1537 1.0538 0.7629
C36 C 0.13897(16) 0.88649(14) 0.76382(14)
H47 H 0.1091 0.9345 0.7818
H48 H 0.1673 0.9041 0.7226
H49 H 0.1912 0.8633 0.8078
C37 C 0.2241(2) 0.7836(2) 1.10578(17)
H50 H 0.2303 0.7231 1.1114
H51 H 0.2122 0.8074 1.1526
H52 H 0.2853 0.8067 1.0995
C38? C 0.2691(10) 0.6693(12) 0.5187(6)
H53? H 0.2003 0.6505 0.5022
H54? H 0.3103 0.6287 0.5020
H55? H 0.2738 0.7233 0.4947
C39? C 0.3858(8) 0.6148(10) 0.6495(12)
H56? H 0.3668 0.5594 0.6273
H57? H 0.3934 0.6138 0.7057
H58? H 0.4486 0.6310 0.6412
C40? C 0.3555(8) 0.7668(5) 0.6201(8)
H59? H 0.3206 0.8028 0.5764
H60? H 0.4247 0.7616 0.6213
H61? H 0.3520 0.7912 0.6694
C41? C -0.1198(11) 0.9495(6) 0.3951(5)
H62? H -0.1734 0.9866 0.3979
H63? H -0.1254 0.9379 0.3402
H64? H -0.0561 0.9762 0.4203
C42? C -0.2196(15) 0.8198(14) 0.3989(6)
H65? H -0.2764 0.8506 0.4052
H66? H -0.2172 0.7646 0.4226
H67? H -0.2262 0.8138 0.3431
C43? C -0.0357(13) 0.8070(12) 0.4275(5)
H68? H -0.0493 0.7486 0.4360
H69? H 0.0266 0.8237 0.4657
H70? H -0.0305 0.8139 0.3745
loop_
_geom_bond_atom_site_label_1
_geom_bond_atom_site_label_2
_geom_bond_site_symmetry_1
_geom_bond_site_symmetry_2
S1 O2 1_555 1_555
O1 H1 1_555 1_555
O2 C13 1_555 1_555
O3 S1 1_555 1_555
O4 S1 1_555 1_555
C1 O1 1_555 1_555
C2 C1 1_555 1_555
C3 C2 1_555 1_555
H2 C3 1_555 1_555
C4 C3 1_555 1_555
C5 C4 1_555 1_555
H3 C5 1_555 1_555
C6 C1 1_555 1_555
C7 C6 1_555 1_555
H4 C7 1_555 1_555
C8 C7 1_555 1_555
C9 C8 1_555 1_555
H5 C9 1_555 1_555
C10 C9 1_555 1_555
C11 C10 1_555 1_555
H6 C11 1_555 1_555
C12 C11 1_555 1_555
C13 C8 1_555 1_555
C14 S1 1_555 1_555
C15 C14 1_555 1_555
H7 C15 1_555 1_555
C16 C15 1_555 1_555
H8 C16 1_555 1_555
C17 C16 1_555 1_555
C18 C17 1_555 1_555
H9 C18 1_555 1_555
C19 C14 1_555 1_555
H10 C19 1_555 1_555
C20 C2 1_555 1_555
C21 C20 1_555 1_555
H11 C21 1_555 1_555
H12 C21 1_555 1_555
H13 C21 1_555 1_555
C22 C20 1_555 1_555
H14 C22 1_555 1_555
H15 C22 1_555 1_555
H16 C22 1_555 1_555
C23 C20 1_555 1_555
H17 C23 1_555 1_555
H18 C23 1_555 1_555
H19 C23 1_555 1_555
C24 C4 1_555 1_555
C25 C24 1_555 1_555
H20 C25 1_555 1_555
H21 C25 1_555 1_555
H22 C25 1_555 1_555
C26 C24 1_555 1_555
H23 C26 1_555 1_555
H24 C26 1_555 1_555
H25 C26 1_555 1_555
C27 C24 1_555 1_555
H26 C27 1_555 1_555
H27 C27 1_555 1_555
H28 C27 1_555 1_555
C28 C10 1_555 1_555
C29 C28 1_555 1_555
H29 C29 1_555 1_555
H30 C29 1_555 1_555
H31 C29 1_555 1_555
C30 C28 1_555 1_555
H32 C30 1_555 1_555
H33 C30 1_555 1_555
H34 C30 1_555 1_555
C31 C28 1_555 1_555
H35 C31 1_555 1_555
H36 C31 1_555 1_555
H37 C31 1_555 1_555
C32 C12 1_555 1_555
C33 C32 1_555 1_555
H38 C33 1_555 1_555
H39 C33 1_555 1_555
H40 C33 1_555 1_555
C34 C32 1_555 1_555
H41 C34 1_555 1_555
H42 C34 1_555 1_555
H43 C34 1_555 1_555
C35 C32 1_555 1_555
H44 C35 1_555 1_555
H45 C35 1_555 1_555
H46 C35 1_555 1_555
C36 C7 1_555 1_555
H47 C36 1_555 1_555
H48 C36 1_555 1_555
H49 C36 1_555 1_555
C37 C17 1_555 1_555
H50 C37 1_555 1_555
H51 C37 1_555 1_555
H52 C37 1_555 1_555
C5 C6 1_555 1_555
C12 C13 1_555 1_555
C18 C19 1_555 1_555

#END
