
#######################################################################
#
#                 Cambridge Crystallographic Data Centre
#                                CCDC 
#
#######################################################################
#
# If this CIF has been generated from an entry in the Cambridge 
# Structural Database, then it will include bibliographic, chemical, 
# crystal, experimental, refinement or atomic coordinate data resulting 
# from the CCDC's data processing and validation procedures.
#
#######################################################################

data_KOMVOZ
_chemical_formula_moiety         'C27 H25 N1 O2 S1'
_chemical_name_systematic        
'10a-butyl-7,9-diphenyl-10aH-pyrido[1,2-b][1,2]benzothiazole 5,5-dioxide'
_symmetry_cell_setting           monoclinic
_symmetry_space_group_name_H-M   'P 21/n'
_symmetry_Int_Tables_number      14
_space_group_name_Hall           '-P 2yn'
loop_
_symmetry_equiv_pos_site_id
_symmetry_equiv_pos_as_xyz
1 x,y,z
2 1/2-x,1/2+y,1/2-z
3 -x,-y,-z
4 1/2+x,1/2-y,1/2+z
_cell_length_a                   12.6891(12)
_cell_length_b                   13.1768(7)
_cell_length_c                   14.2163(10)
_cell_angle_alpha                90
_cell_angle_beta                 110.733(9)
_cell_angle_gamma                90
_cell_volume                     2223.06
_exptl_crystal_colour            colorless
_exptl_crystal_description       block
_cell_formula_units_Z            4
loop_
_atom_site_label
_atom_site_type_symbol
_atom_site_fract_x
_atom_site_fract_y
_atom_site_fract_z
S1 S 0.90213(6) 0.73526(4) 0.21493(4)
O1 O 0.8647(2) 0.67583(13) 0.28062(14)
O2 O 1.01025(16) 0.78183(13) 0.25848(14)
N1 N 0.89425(15) 0.66950(12) 0.11328(12)
C1 C 0.80172(19) 0.82296(15) 0.14789(16)
C2 C 0.7647(2) 0.90639(17) 0.1877(2)
H1 H 0.7938 0.9206 0.2562
C3 C 0.6836(2) 0.96703(18) 0.1220(2)
H2 H 0.6566 1.0231 0.1462
C4 C 0.6420(2) 0.94557(17) 0.0204(2)
H3 H 0.5882 0.9883 -0.0229
C5 C 0.67833(19) 0.86243(17) -0.01810(18)
H4 H 0.6494 0.8486 -0.0867
C6 C 0.75873(18) 0.79976(15) 0.04702(15)
C7 C 0.80400(18) 0.70287(15) 0.01848(14)
C8 C 0.71236(18) 0.62400(15) -0.01593(15)
H5 H 0.6393 0.6442 -0.0536
C9 C 0.73330(18) 0.52584(15) 0.00624(15)
C10 C 0.84734(19) 0.49785(16) 0.06917(16)
H6 H 0.8683 0.4300 0.0717
C11 C 0.92325(19) 0.56470(16) 0.12334(16)
C12 C 0.64655(18) 0.44559(15) -0.03044(15)
C13 C 0.54823(19) 0.46166(17) -0.11269(18)
H7 H 0.5365 0.5241 -0.1452
C14 C 0.4680(2) 0.38665(19) -0.1468(2)
H8 H 0.4024 0.3993 -0.2013
C15 C 0.4840(2) 0.29346(19) -0.1009(2)
H9 H 0.4307 0.2424 -0.1252
C16 C 0.5795(2) 0.27633(19) -0.0190(2)
H10 H 0.5904 0.2138 0.0134
C17 C 0.6597(2) 0.35171(17) 0.01542(19)
H11 H 0.7242 0.3389 0.0710
C18 C 1.03934(19) 0.53745(17) 0.18726(16)
C19 C 1.0596(2) 0.45042(19) 0.24557(17)
H12 H 0.9992 0.4138 0.2508
C20 C 1.1678(3) 0.4174(2) 0.2958(2)
H13 H 1.1803 0.3589 0.3349
C21 C 1.2570(3) 0.4705(3) 0.2885(2)
H14 H 1.3301 0.4470 0.3211
C22 C 1.2393(2) 0.5585(3) 0.2331(2)
H15 H 1.3002 0.5950 0.2291
C23 C 1.1302(2) 0.5928(2) 0.18314(19)
H16 H 1.1183 0.6531 0.1469
C24 C 0.85703(19) 0.72110(16) -0.06173(16)
H17 H 0.8923 0.6587 -0.0716
H18 H 0.7976 0.7375 -0.1248
C25 C 0.9443(2) 0.80537(18) -0.03625(18)
H19 H 0.9058 0.8703 -0.0459
H20 H 0.9913 0.8000 0.0342
C26 C 1.0184(2) 0.8032(2) -0.0984(2)
H21 H 1.0576 0.7386 -0.0880
H22 H 0.9712 0.8073 -0.1689
C27 C 1.1029(3) 0.8861(3) -0.0754(3)
H23 H 1.1541 0.8742 -0.1103
H24 H 1.1441 0.8881 -0.0043
H25 H 1.0652 0.9498 -0.0967
loop_
_geom_bond_atom_site_label_1
_geom_bond_atom_site_label_2
_geom_bond_site_symmetry_1
_geom_bond_site_symmetry_2
S1 O1 1_555 1_555
O2 S1 1_555 1_555
N1 S1 1_555 1_555
C1 S1 1_555 1_555
C2 C1 1_555 1_555
H1 C2 1_555 1_555
C3 C2 1_555 1_555
H2 C3 1_555 1_555
C4 C3 1_555 1_555
H3 C4 1_555 1_555
C5 C4 1_555 1_555
H4 C5 1_555 1_555
C6 C1 1_555 1_555
C7 N1 1_555 1_555
C8 C7 1_555 1_555
H5 C8 1_555 1_555
C9 C8 1_555 1_555
C10 C9 1_555 1_555
H6 C10 1_555 1_555
C11 N1 1_555 1_555
C12 C9 1_555 1_555
C13 C12 1_555 1_555
H7 C13 1_555 1_555
C14 C13 1_555 1_555
H8 C14 1_555 1_555
C15 C14 1_555 1_555
H9 C15 1_555 1_555
C16 C15 1_555 1_555
H10 C16 1_555 1_555
C17 C12 1_555 1_555
H11 C17 1_555 1_555
C18 C11 1_555 1_555
C19 C18 1_555 1_555
H12 C19 1_555 1_555
C20 C19 1_555 1_555
H13 C20 1_555 1_555
C21 C20 1_555 1_555
H14 C21 1_555 1_555
C22 C21 1_555 1_555
H15 C22 1_555 1_555
C23 C18 1_555 1_555
H16 C23 1_555 1_555
C24 C7 1_555 1_555
H17 C24 1_555 1_555
H18 C24 1_555 1_555
C25 C24 1_555 1_555
H19 C25 1_555 1_555
H20 C25 1_555 1_555
C26 C25 1_555 1_555
H21 C26 1_555 1_555
H22 C26 1_555 1_555
C27 C26 1_555 1_555
H23 C27 1_555 1_555
H24 C27 1_555 1_555
H25 C27 1_555 1_555
C5 C6 1_555 1_555
C6 C7 1_555 1_555
C10 C11 1_555 1_555
C16 C17 1_555 1_555
C22 C23 1_555 1_555

#END
