
#######################################################################
#
#                 Cambridge Crystallographic Data Centre
#                                CCDC 
#
#######################################################################
#
# If this CIF has been generated from an entry in the Cambridge 
# Structural Database, then it will include bibliographic, chemical, 
# crystal, experimental, refinement or atomic coordinate data resulting 
# from the CCDC's data processing and validation procedures.
#
#######################################################################

data_KONMUX
_chemical_formula_moiety         'C20 H20 N2'
_chemical_name_systematic        
8-(4-ethylbenzyl)-2-methyl-8H-pyrazolo[5,1-a]isoindole
_symmetry_cell_setting           monoclinic
_symmetry_space_group_name_H-M   'P 21/c'
_symmetry_Int_Tables_number      14
_space_group_name_Hall           '-P 2ybc'
loop_
_symmetry_equiv_pos_site_id
_symmetry_equiv_pos_as_xyz
1 x,y,z
2 -x,1/2+y,1/2-z
3 -x,-y,-z
4 x,1/2-y,1/2+z
_cell_length_a                   20.015(4)
_cell_length_b                   8.9603(16)
_cell_length_c                   21.471(3)
_cell_angle_alpha                90
_cell_angle_beta                 122.058(13)
_cell_angle_gamma                90
_cell_volume                     3263.44
_exptl_crystal_description       block
_cell_formula_units_Z            8
loop_
_atom_site_label
_atom_site_type_symbol
_atom_site_fract_x
_atom_site_fract_y
_atom_site_fract_z
C1 C 0.74765(15) 0.3791(3) 0.77418(16)
H1 H 0.7115 0.4099 0.7264
C2 C 0.76186(19) 0.2276(3) 0.7915(2)
H2 H 0.7345 0.1567 0.7548
C3 C 0.8155(2) 0.1822(3) 0.8616(2)
H3 H 0.8236 0.0807 0.8720
C4 C 0.85777(18) 0.2843(3) 0.91734(18)
H4 H 0.8947 0.2526 0.9647
C5 C 0.84393(14) 0.4344(3) 0.90109(14)
C6 C 0.78847(13) 0.4819(3) 0.82966(14)
C7 C 0.78352(13) 0.6499(3) 0.82571(12)
H5 H 0.7308 0.6823 0.8126
C8 C 0.87720(13) 0.5673(3) 0.94643(13)
C9 C 0.92069(14) 0.7791(3) 1.00649(14)
C10 C 0.92956(15) 0.6240(3) 1.01464(13)
H6 H 0.9637 0.5710 1.0572
C11 C 0.96226(17) 0.8962(4) 1.06426(16)
H7 H 0.9548 0.9918 1.0413
H8 H 1.0175 0.8737 1.0933
H9 H 0.9411 0.8984 1.0953
C12 C 0.80461(14) 0.7212(3) 0.77361(13)
H10 H 0.7632 0.6990 0.7234
H11 H 0.8066 0.8286 0.7798
C13 C 0.88189(14) 0.6687(3) 0.78564(12)
C14 C 0.95226(15) 0.7315(3) 0.83891(13)
H12 H 0.9520 0.8102 0.8670
C15 C 1.02334(16) 0.6793(3) 0.85124(14)
H13 H 1.0697 0.7259 0.8866
C16 C 1.02757(17) 0.5598(3) 0.81264(15)
C17 C 0.95648(18) 0.5005(4) 0.75801(16)
H14 H 0.9566 0.4232 0.7291
C18 C 0.88530(16) 0.5529(3) 0.74516(14)
H15 H 0.8387 0.5090 0.7084
C19 C 1.1094(2) 0.4892(4) 0.83191(18)
H16 H 1.1463 0.4899 0.8847
H17 H 1.1017 0.3867 0.8150
C20 C 1.1407(2) 0.5777(5) 0.7957(2)
H18 H 1.1036 0.5773 0.7435
H19 H 1.1897 0.5354 0.8062
H20 H 1.1493 0.6785 0.8135
N1 N 0.84081(11) 0.6848(2) 0.90268(10)
N2 N 0.86577(11) 0.8174(2) 0.93753(11)
C21 C 0.64400(17) 0.3059(3) 0.55036(15)
H21 H 0.6052 0.2751 0.5589
C22 C 0.6822(2) 0.2035(3) 0.53190(17)
H22 H 0.6695 0.1028 0.5287
C23 C 0.73853(18) 0.2484(3) 0.51829(16)
H23 H 0.7629 0.1780 0.5050
C24 C 0.75989(15) 0.3967(3) 0.52398(14)
H24 H 0.7984 0.4264 0.5148
C25 C 0.72316(13) 0.4995(3) 0.54343(11)
C26 C 0.66431(14) 0.4551(3) 0.55598(12)
C27 C 0.63544(14) 0.5878(3) 0.57281(12)
C28 C 0.59733(17) 0.8005(3) 0.59473(14)
C29 C 0.58279(16) 0.6481(3) 0.58880(14)
H25 H 0.5457 0.5976 0.5944
C30 C 0.5566(2) 0.9217(4) 0.6111(2)
H26 H 0.5046 0.9371 0.5689
H27 H 0.5862 1.0126 0.6225
H28 H 0.5529 0.8926 0.6522
C31 C 0.73338(13) 0.6672(3) 0.55017(12)
H29 H 0.7869 0.6926 0.5902
C32 C 0.71424(13) 0.7469(3) 0.47948(12)
H30 H 0.7084 0.8529 0.4845
H31 H 0.7579 0.7339 0.4724
C33 C 0.63988(12) 0.6889(2) 0.41288(12)
C34 C 0.64337(14) 0.5904(3) 0.36532(13)
H32 H 0.6920 0.5672 0.3719
C35 C 0.57589(15) 0.5257(3) 0.30803(13)
H33 H 0.5800 0.4590 0.2770
C36 C 0.50226(14) 0.5582(3) 0.29591(12)
C37 C 0.49902(13) 0.6609(3) 0.34224(12)
H34 H 0.4502 0.6875 0.3344
C38 C 0.56639(13) 0.7251(3) 0.39998(12)
H35 H 0.5623 0.7932 0.4304
C39 C 0.42890(16) 0.4857(3) 0.23456(14)
H36 H 0.3930 0.4669 0.2510
H37 H 0.4428 0.3901 0.2233
C40 C 0.38714(17) 0.5788(4) 0.16536(14)
H38 H 0.4216 0.5944 0.1475
H39 H 0.3729 0.6734 0.1760
H40 H 0.3405 0.5277 0.1286
N3 N 0.65501(12) 0.8369(2) 0.58353(11)
N4 N 0.67687(11) 0.7036(2) 0.57088(10)
loop_
_geom_bond_atom_site_label_1
_geom_bond_atom_site_label_2
_geom_bond_site_symmetry_1
_geom_bond_site_symmetry_2
C1 H1 1_555 1_555
C2 C1 1_555 1_555
H2 C2 1_555 1_555
C3 C2 1_555 1_555
H3 C3 1_555 1_555
C4 C3 1_555 1_555
H4 C4 1_555 1_555
C5 C4 1_555 1_555
C6 C1 1_555 1_555
C7 C6 1_555 1_555
H5 C7 1_555 1_555
C8 C5 1_555 1_555
C9 C10 1_555 1_555
C10 C8 1_555 1_555
H6 C10 1_555 1_555
C11 C9 1_555 1_555
H7 C11 1_555 1_555
H8 C11 1_555 1_555
H9 C11 1_555 1_555
C12 C7 1_555 1_555
H10 C12 1_555 1_555
H11 C12 1_555 1_555
C13 C12 1_555 1_555
C14 C13 1_555 1_555
H12 C14 1_555 1_555
C15 C14 1_555 1_555
H13 C15 1_555 1_555
C16 C15 1_555 1_555
C17 C16 1_555 1_555
H14 C17 1_555 1_555
C18 C13 1_555 1_555
H15 C18 1_555 1_555
C19 C16 1_555 1_555
H16 C19 1_555 1_555
H17 C19 1_555 1_555
C20 C19 1_555 1_555
H18 C20 1_555 1_555
H19 C20 1_555 1_555
H20 C20 1_555 1_555
N1 C7 1_555 1_555
N2 C9 1_555 1_555
C21 H21 1_555 1_555
C22 C21 1_555 1_555
H22 C22 1_555 1_555
C23 C22 1_555 1_555
H23 C23 1_555 1_555
C24 C23 1_555 1_555
H24 C24 1_555 1_555
C25 C24 1_555 1_555
C26 C21 1_555 1_555
C27 C26 1_555 1_555
C28 C29 1_555 1_555
C29 C27 1_555 1_555
H25 C29 1_555 1_555
C30 C28 1_555 1_555
H26 C30 1_555 1_555
H27 C30 1_555 1_555
H28 C30 1_555 1_555
C31 C25 1_555 1_555
H29 C31 1_555 1_555
C32 C31 1_555 1_555
H30 C32 1_555 1_555
H31 C32 1_555 1_555
C33 C32 1_555 1_555
C34 C33 1_555 1_555
H32 C34 1_555 1_555
C35 C34 1_555 1_555
H33 C35 1_555 1_555
C36 C35 1_555 1_555
C37 C36 1_555 1_555
H34 C37 1_555 1_555
C38 C33 1_555 1_555
H35 C38 1_555 1_555
C39 C36 1_555 1_555
H36 C39 1_555 1_555
H37 C39 1_555 1_555
C40 C39 1_555 1_555
H38 C40 1_555 1_555
H39 C40 1_555 1_555
H40 C40 1_555 1_555
N3 C28 1_555 1_555
N4 C27 1_555 1_555
C5 C6 1_555 1_555
C8 N1 1_555 1_555
C17 C18 1_555 1_555
N1 N2 1_555 1_555
C25 C26 1_555 1_555
C31 N4 1_555 1_555
C37 C38 1_555 1_555
N3 N4 1_555 1_555

#END
