
#######################################################################
#
#                 Cambridge Crystallographic Data Centre
#                                CCDC 
#
#######################################################################
#
# If this CIF has been generated from an entry in the Cambridge 
# Structural Database, then it will include bibliographic, chemical, 
# crystal, experimental, refinement or atomic coordinate data resulting 
# from the CCDC's data processing and validation procedures.
#
#######################################################################

data_KONYAN
_chemical_formula_moiety         'C25 H36 N1 O4 Si1 1+,Cl1 O4 1-'
_chemical_name_systematic        
"2-(2,3-Dimethoxy-6-(1'-trimethylsilyethyl)benzyl)-6,7-dimethoxy-3,4-dihydroisoquinolinium perchlorate"
_symmetry_cell_setting           triclinic
_symmetry_space_group_name_H-M   'P -1'
_symmetry_Int_Tables_number      2
_space_group_name_Hall           '-P 1'
loop_
_symmetry_equiv_pos_site_id
_symmetry_equiv_pos_as_xyz
1 x,y,z
2 -x,-y,-z
_cell_length_a                   10.692(2)
_cell_length_b                   11.702(1)
_cell_length_c                   13.154(2)
_cell_angle_alpha                101.02(1)
_cell_angle_beta                 100.42(1)
_cell_angle_gamma                106.16(1)
_cell_volume                     1503.04
_exptl_crystal_colour            white
_chemical_melting_point          '218-219 deg.C'
_cell_formula_units_Z            2
loop_
_atom_site_label
_atom_site_type_symbol
_atom_site_fract_x
_atom_site_fract_y
_atom_site_fract_z
Cl1 Cl 1.3879(1) 0.2120(2) 0.5651(1)
O1 O 1.2672(4) 0.1209(4) 0.5642(4)
O2 O 1.5045(4) 0.2062(6) 0.6247(4)
O3 O 1.3850(5) 0.1996(5) 0.4544(4)
O4 O 1.3895(5) 0.3434(4) 0.6254(4)
Si1 Si 0.7175(2) -0.0716(2) 0.8689(2)
O5 O 0.9309(4) 0.4453(4) 0.2744(3)
O6 O 1.1740(4) 0.4589(4) 0.3611(3)
O7 O 1.2382(4) 0.4604(4) 1.0204(3)
O8 O 1.1731(3) 0.2871(3) 0.8045(3)
N1 N 0.9076(4) 0.1605(4) 0.6111(3)
C1 C 1.0003(5) 0.1997(5) 0.5654(4)
C2 C 0.7814(5) 0.1901(7) 0.5944(5)
C3 C 0.7343(5) 0.1850(6) 0.4775(5)
C4 C 0.8495(5) 0.2600(5) 0.4465(4)
C5 C 0.8301(5) 0.3182(5) 0.3725(4)
C6 C 0.9406(5) 0.3835(5) 0.3444(4)
C7 C 1.0722(5) 0.3892(5) 0.3915(4)
C8 C 1.0919(5) 0.3289(5) 0.4629(4)
C9 C 0.9801(5) 0.2639(5) 0.4917(4)
C10 C 0.7974(6) 0.4407(6) 0.2237(5)
C11 C 1.3100(6) 0.4758(7) 0.4147(6)
C12 C 0.9282(5) 0.0947(5) 0.6884(4)
C13 C 0.9515(5) 0.1804(5) 0.8087(4)
C14 C 0.8504(5) 0.1676(5) 0.8649(4)
C15 C 0.8867(7) 0.2584(6) 0.9753(5)
C16 C 1.0128(7) 0.3550(6) 1.0293(5)
C17 C 1.1118(6) 0.3658(6) 0.9745(5)
C18 C 1.0788(5) 0.2777(5) 0.8650(4)
C19 C 1.280(1) 0.536(1) 1.1377(6)
C20 C 1.2981(8) 0.273(1) 0.8473(7)
C21 C 0.7128(6) 0.0570(6) 0.8156(5)
C22 C 0.5917(7) 0.1027(9) 0.8345(8)
C23 C 0.5532(8) -0.2139(9) 0.794(1)
C24 C 0.735(1) -0.010(1) 1.0226(8)
C25 C 0.8609(8) -0.1226(8) 0.839(1)
H1 H 1.0845 0.1832 0.5841
H2 H 0.7164 0.1363 0.6203
H3 H 0.7982 0.2731 0.6365
H4 H 0.7050 0.1000 0.4358
H5 H 0.6584 0.2134 0.4629
H6 H 0.7406 0.3149 0.3371
H7 H 1.1802 0.3275 0.4944
H8 H 0.7471 0.4781 0.2767
H9 H 0.7264 0.3447 0.1668
H10 H 0.8064 0.4925 0.1766
H11 H 1.3439 0.5241 0.4990
H12 H 1.3780 0.5470 0.4006
H13 H 1.3222 0.3958 0.3876
H14 H 0.8143 0.2484 1.0121
H15 H 0.8519 0.0206 0.6747
H16 H 1.0051 0.0672 0.6837
H17 H 1.0268 0.4084 1.0996
H18 H 1.3805 0.5970 1.1711
H19 H 1.2649 0.4835 1.1827
H20 H 1.2266 0.5897 1.1435
H21 H 1.3285 0.3016 0.9321
H22 H 1.3678 0.3185 0.8206
H23 H 1.2933 0.1878 0.8296
H24 H 0.7004 0.0308 0.7364
H25 H 0.5768 0.1541 0.7884
H26 H 0.5129 0.0339 0.8210
H27 H 0.5994 0.1603 0.9209
H28 H 0.4739 -0.1937 0.8037
H29 H 0.5474 -0.2340 0.7195
H30 H 0.5537 -0.2837 0.8216
H31 H 0.8119 0.0597 1.0664
H32 H 0.6585 0.0165 1.0308
H33 H 0.7338 -0.0743 1.0579
H34 H 0.8675 -0.1910 0.8663
H35 H 0.8522 -0.1452 0.7624
H36 H 0.9459 -0.0573 0.8677
loop_
_geom_bond_atom_site_label_1
_geom_bond_atom_site_label_2
_geom_bond_site_symmetry_1
_geom_bond_site_symmetry_2
Cl1 O1 1_555 1_555
O2 Cl1 1_555 1_555
O3 Cl1 1_555 1_555
O4 Cl1 1_555 1_555
Si1 C21 1_555 1_555
O5 C6 1_555 1_555
O6 C7 1_555 1_555
O7 C17 1_555 1_555
O8 C18 1_555 1_555
N1 C1 1_555 1_555
C1 C9 1_555 1_555
C2 N1 1_555 1_555
C3 C2 1_555 1_555
C4 C3 1_555 1_555
C5 C4 1_555 1_555
C6 C5 1_555 1_555
C7 C6 1_555 1_555
C8 C7 1_555 1_555
C9 C4 1_555 1_555
C10 O5 1_555 1_555
C11 O6 1_555 1_555
C12 N1 1_555 1_555
C13 C12 1_555 1_555
C14 C13 1_555 1_555
C15 C14 1_555 1_555
C16 C15 1_555 1_555
C17 C16 1_555 1_555
C18 C13 1_555 1_555
C19 O7 1_555 1_555
C20 O8 1_555 1_555
C21 C14 1_555 1_555
C22 C21 1_555 1_555
C23 Si1 1_555 1_555
C24 Si1 1_555 1_555
C25 Si1 1_555 1_555
H1 C1 1_555 1_555
H2 C2 1_555 1_555
H3 C2 1_555 1_555
H4 C3 1_555 1_555
H5 C3 1_555 1_555
H6 C5 1_555 1_555
H7 C8 1_555 1_555
H8 C10 1_555 1_555
H9 C10 1_555 1_555
H10 C10 1_555 1_555
H11 C11 1_555 1_555
H12 C11 1_555 1_555
H13 C11 1_555 1_555
H14 C15 1_555 1_555
H15 C12 1_555 1_555
H16 C12 1_555 1_555
H17 C16 1_555 1_555
H18 C19 1_555 1_555
H19 C19 1_555 1_555
H20 C19 1_555 1_555
H21 C20 1_555 1_555
H22 C20 1_555 1_555
H23 C20 1_555 1_555
H24 C21 1_555 1_555
H25 C22 1_555 1_555
H26 C22 1_555 1_555
H27 C22 1_555 1_555
H28 C23 1_555 1_555
H29 C23 1_555 1_555
H30 C23 1_555 1_555
H31 C24 1_555 1_555
H32 C24 1_555 1_555
H33 C24 1_555 1_555
H34 C25 1_555 1_555
H35 C25 1_555 1_555
H36 C25 1_555 1_555
C8 C9 1_555 1_555
C17 C18 1_555 1_555

#END
