
#######################################################################
#
#                 Cambridge Crystallographic Data Centre
#                                CCDC 
#
#######################################################################
#
# If this CIF has been generated from an entry in the Cambridge 
# Structural Database, then it will include bibliographic, chemical, 
# crystal, experimental, refinement or atomic coordinate data resulting 
# from the CCDC's data processing and validation procedures.
#
#######################################################################

data_KOPLEI
_chemical_formula_moiety         'C28 H23 Br1 N2 O5'
_chemical_name_systematic        
'dimethyl 1-(2-bromophenyl)-6-oxo-3-phenyl-2-(2-phenylvinyl)-1,2,3,6-tetrahydropyrimidine-4,5-dicarboxylate'
_symmetry_cell_setting           triclinic
_symmetry_space_group_name_H-M   'P -1'
_symmetry_Int_Tables_number      2
_space_group_name_Hall           '-P 1'
loop_
_symmetry_equiv_pos_site_id
_symmetry_equiv_pos_as_xyz
1 x,y,z
2 -x,-y,-z
_cell_length_a                   8.7422(5)
_cell_length_b                   11.1100(6)
_cell_length_c                   13.8224(8)
_cell_angle_alpha                74.676(5)
_cell_angle_beta                 85.842(5)
_cell_angle_gamma                89.741(4)
_cell_volume                     1291.22
_exptl_crystal_colour            yellow
_exptl_crystal_description       block
_cell_formula_units_Z            2
loop_
_atom_site_label
_atom_site_type_symbol
_atom_site_fract_x
_atom_site_fract_y
_atom_site_fract_z
Br1 Br 0.95261(6) 0.43340(4) 0.13351(3)
O1 O 1.1464(3) 0.6000(2) 0.32061(19)
O2 O 1.0104(3) 0.9656(3) 0.2521(3)
O3 O 1.2037(3) 0.8497(2) 0.2515(4)
O4 O 0.6628(3) 0.9512(2) 0.1964(2)
O5 O 0.8532(3) 0.9555(2) 0.0819(2)
N1 N 0.9002(3) 0.5395(2) 0.31776(18)
N2 N 0.7191(3) 0.6831(2) 0.23295(18)
C1 C 0.9704(4) 0.3485(3) 0.2699(2)
C2 C 1.0120(5) 0.2247(3) 0.2945(3)
H1 H 1.0300 0.1834 0.2445
C3 C 1.0265(6) 0.1632(4) 0.3930(3)
H2 H 1.0549 0.0799 0.4095
C4 C 0.9997(6) 0.2228(4) 0.4680(3)
H3 H 1.0116 0.1809 0.5348
C5 C 0.9545(5) 0.3464(3) 0.4423(3)
H4 H 0.9331 0.3865 0.4928
C6 C 0.9410(4) 0.4105(3) 0.3442(2)
C7 C 1.0151(4) 0.6287(3) 0.3032(2)
C8 C 0.9620(3) 0.7572(3) 0.2601(2)
C9 C 0.8249(4) 0.7772(3) 0.2188(2)
C10 C 0.7388(4) 0.5748(3) 0.3172(2)
H5 H 0.6787 0.5053 0.3073
C11 C 1.0612(4) 0.8676(3) 0.2530(3)
C12 C 1.3023(5) 0.9591(4) 0.2419(6)
H6 H 1.3104 1.0082 0.1732
H7 H 1.4025 0.9323 0.2621
H8 H 1.2588 1.0083 0.2842
C13 C 0.7704(4) 0.9042(3) 0.1648(3)
C14 C 0.8124(7) 1.0836(5) 0.0323(4)
H9 H 0.8671 1.1096 -0.0327
H10 H 0.8393 1.1378 0.0724
H11 H 0.7041 1.0875 0.0247
C15 C 0.6216(4) 0.6778(3) 0.1556(2)
C16 C 0.6810(4) 0.7003(3) 0.0572(3)
H12 H 0.7843 0.7213 0.0408
C17 C 0.5881(6) 0.6917(4) -0.0167(3)
H13 H 0.6276 0.7090 -0.0833
C18 C 0.4362(6) 0.6573(4) 0.0081(4)
H14 H 0.3739 0.6488 -0.0416
C19 C 0.3766(5) 0.6357(4) 0.1054(4)
H15 H 0.2736 0.6136 0.1216
C20 C 0.4688(4) 0.6465(3) 0.1800(3)
H16 H 0.4279 0.6327 0.2461
C21 C 0.6819(4) 0.5976(3) 0.4171(2)
H17 H 0.7031 0.5366 0.4749
C22 C 0.6067(4) 0.6938(3) 0.4298(3)
H18 H 0.5824 0.7525 0.3715
C23 C 0.5549(4) 0.7211(3) 0.5260(3)
C24 C 0.6022(5) 0.6549(3) 0.6174(3)
H19 H 0.6684 0.5885 0.6205
C25 C 0.5523(5) 0.6861(4) 0.7049(3)
H20 H 0.5852 0.6400 0.7660
C26 C 0.4568(5) 0.7823(4) 0.7029(3)
H21 H 0.4254 0.8032 0.7621
C27 C 0.4074(6) 0.8476(5) 0.6146(4)
H22 H 0.3397 0.9128 0.6129
C28 C 0.4570(6) 0.8182(5) 0.5260(3)
H23 H 0.4233 0.8653 0.4654
loop_
_geom_bond_atom_site_label_1
_geom_bond_atom_site_label_2
_geom_bond_site_symmetry_1
_geom_bond_site_symmetry_2
Br1 C1 1_555 1_555
O1 C7 1_555 1_555
O2 C11 1_555 1_555
O3 C11 1_555 1_555
O4 C13 1_555 1_555
O5 C13 1_555 1_555
N1 C6 1_555 1_555
N2 C9 1_555 1_555
C1 C2 1_555 1_555
C2 H1 1_555 1_555
C3 C2 1_555 1_555
H2 C3 1_555 1_555
C4 C3 1_555 1_555
H3 C4 1_555 1_555
C5 C4 1_555 1_555
H4 C5 1_555 1_555
C6 C1 1_555 1_555
C7 N1 1_555 1_555
C8 C7 1_555 1_555
C9 C8 1_555 1_555
C10 N1 1_555 1_555
H5 C10 1_555 1_555
C11 C8 1_555 1_555
C12 O3 1_555 1_555
H6 C12 1_555 1_555
H7 C12 1_555 1_555
H8 C12 1_555 1_555
C13 C9 1_555 1_555
C14 O5 1_555 1_555
H9 C14 1_555 1_555
H10 C14 1_555 1_555
H11 C14 1_555 1_555
C15 N2 1_555 1_555
C16 C15 1_555 1_555
H12 C16 1_555 1_555
C17 C16 1_555 1_555
H13 C17 1_555 1_555
C18 C17 1_555 1_555
H14 C18 1_555 1_555
C19 C18 1_555 1_555
H15 C19 1_555 1_555
C20 C15 1_555 1_555
H16 C20 1_555 1_555
C21 C10 1_555 1_555
H17 C21 1_555 1_555
C22 C21 1_555 1_555
H18 C22 1_555 1_555
C23 C22 1_555 1_555
C24 C23 1_555 1_555
H19 C24 1_555 1_555
C25 C24 1_555 1_555
H20 C25 1_555 1_555
C26 C25 1_555 1_555
H21 C26 1_555 1_555
C27 C26 1_555 1_555
H22 C27 1_555 1_555
C28 C23 1_555 1_555
H23 C28 1_555 1_555
N2 C10 1_555 1_555
C5 C6 1_555 1_555
C19 C20 1_555 1_555
C27 C28 1_555 1_555

#END
