
#######################################################################
#
#                 Cambridge Crystallographic Data Centre
#                                CCDC 
#
#######################################################################
#
# If this CIF has been generated from an entry in the Cambridge 
# Structural Database, then it will include bibliographic, chemical, 
# crystal, experimental, refinement or atomic coordinate data resulting 
# from the CCDC's data processing and validation procedures.
#
#######################################################################

data_KORTES
_chemical_formula_moiety         'C44 H30'
_chemical_name_systematic        
5,12-bis(diphenylmethylene)-5,12-dihydrotetracene
_symmetry_cell_setting           monoclinic
_symmetry_space_group_name_H-M   'P 21'
_symmetry_Int_Tables_number      4
_space_group_name_Hall           'P 2yb'
loop_
_symmetry_equiv_pos_site_id
_symmetry_equiv_pos_as_xyz
1 x,y,z
2 -x,1/2+y,-z
_cell_length_a                   9.2686(2)
_cell_length_b                   7.53440(10)
_cell_length_c                   22.0069(5)
_cell_angle_alpha                90
_cell_angle_beta                 91.349(2)
_cell_angle_gamma                90
_cell_volume                     1536.39
_exptl_crystal_colour            colorless
_exptl_crystal_description       plate
_cell_formula_units_Z            2
loop_
_atom_site_label
_atom_site_type_symbol
_atom_site_fract_x
_atom_site_fract_y
_atom_site_fract_z
C1 C 0.7609(3) 0.4411(4) 0.18522(12)
C2 C 0.6547(3) 0.5614(4) 0.21450(13)
C3 C 0.5634(3) 0.6709(4) 0.18242(12)
H1 H 0.5709 0.6782 0.1395
C4 C 0.4573(3) 0.7742(4) 0.21178(14)
C5 C 0.3558(3) 0.8790(5) 0.17884(15)
H2 H 0.3592 0.8840 0.1358
C6 C 0.2526(4) 0.9733(5) 0.20847(17)
H3 H 0.1862 1.0448 0.1859
C7 C 0.2445(3) 0.9649(5) 0.27191(16)
H4 H 0.1718 1.0298 0.2920
C8 C 0.3401(3) 0.8643(5) 0.30525(15)
H5 H 0.3338 0.8603 0.3483
C9 C 0.4494(3) 0.7651(4) 0.27576(13)
C10 C 0.5491(3) 0.6588(4) 0.30905(13)
H6 H 0.5475 0.6595 0.3522
C11 C 0.6491(3) 0.5537(4) 0.28001(12)
C12 C 0.7525(3) 0.4331(4) 0.31204(12)
C13 C 0.8960(3) 0.4291(4) 0.28356(12)
C14 C 1.0255(3) 0.4368(4) 0.31693(13)
H7 H 1.0237 0.4334 0.3601
C15 C 1.1556(3) 0.4492(5) 0.28862(14)
H8 H 1.2427 0.4536 0.3122
C16 C 1.1603(3) 0.4554(5) 0.22575(14)
H9 H 1.2503 0.4651 0.2063
C17 C 1.0336(3) 0.4476(5) 0.19149(13)
H10 H 1.0370 0.4515 0.1484
C18 C 0.9004(3) 0.4338(4) 0.21966(13)
C19 C 0.7323(3) 0.3437(4) 0.13535(12)
C20 C 0.8292(3) 0.1955(4) 0.11594(12)
C21 C 0.9226(3) 0.2096(5) 0.06712(13)
H11 H 0.9274 0.3177 0.0450
C22 C 1.0076(3) 0.0682(5) 0.05085(14)
H12 H 1.0712 0.0804 0.0179
C23 C 1.0016(3) -0.0921(5) 0.08199(14)
H13 H 1.0611 -0.1890 0.0709
C24 C 0.9070(4) -0.1076(5) 0.12953(16)
H14 H 0.9007 -0.2167 0.1510
C25 C 0.8213(4) 0.0347(5) 0.14612(14)
H15 H 0.7565 0.0216 0.1786
C26 C 0.5945(3) 0.3564(4) 0.09844(12)
C27 C 0.5932(3) 0.4341(5) 0.04073(14)
H16 H 0.6804 0.4786 0.0248
C28 C 0.4678(4) 0.4468(6) 0.00676(15)
H17 H 0.4692 0.4985 -0.0326
C29 C 0.3390(4) 0.3849(6) 0.02934(16)
H18 H 0.2515 0.3964 0.0063
C30 C 0.3404(3) 0.3057(6) 0.08622(15)
H19 H 0.2534 0.2594 0.1018
C31 C 0.4658(3) 0.2933(5) 0.12039(14)
H20 H 0.4641 0.2408 0.1596
C32 C 0.7218(3) 0.3304(4) 0.36015(11)
C33 C 0.8186(3) 0.1812(4) 0.37986(12)
C34 C 0.8424(4) 0.0414(5) 0.34002(15)
H21 H 0.7984 0.0430 0.3006
C35 C 0.9297(4) -0.1000(5) 0.35731(17)
H22 H 0.9439 -0.1953 0.3298
C36 C 0.9960(4) -0.1035(5) 0.41382(15)
H23 H 1.0575 -0.1994 0.4251
C37 C 0.9722(4) 0.0330(6) 0.45381(15)
H24 H 1.0174 0.0312 0.4930
C38 C 0.8826(4) 0.1736(5) 0.43727(14)
H25 H 0.8651 0.2655 0.4657
C39 C 0.5853(3) 0.3400(5) 0.39490(12)
C40 C 0.4667(3) 0.2406(5) 0.37701(13)
H26 H 0.4702 0.1701 0.3413
C41 C 0.3421(4) 0.2432(6) 0.41105(15)
H27 H 0.2614 0.1733 0.3985
C42 C 0.3344(4) 0.3451(6) 0.46230(16)
H28 H 0.2483 0.3480 0.4849
C43 C 0.4519(4) 0.4430(7) 0.48074(16)
H29 H 0.4477 0.5120 0.5168
C44 C 0.5767(4) 0.4425(6) 0.44749(14)
H30 H 0.6570 0.5122 0.4605
loop_
_geom_bond_atom_site_label_1
_geom_bond_atom_site_label_2
_geom_bond_site_symmetry_1
_geom_bond_site_symmetry_2
C1 C2 1_555 1_555
C2 C3 1_555 1_555
C3 H1 1_555 1_555
C4 C3 1_555 1_555
C5 C4 1_555 1_555
H2 C5 1_555 1_555
C6 C5 1_555 1_555
H3 C6 1_555 1_555
C7 C6 1_555 1_555
H4 C7 1_555 1_555
C8 C7 1_555 1_555
H5 C8 1_555 1_555
C9 C4 1_555 1_555
C10 C9 1_555 1_555
H6 C10 1_555 1_555
C11 C2 1_555 1_555
C12 C11 1_555 1_555
C13 C12 1_555 1_555
C14 C13 1_555 1_555
H7 C14 1_555 1_555
C15 C14 1_555 1_555
H8 C15 1_555 1_555
C16 C15 1_555 1_555
H9 C16 1_555 1_555
C17 C16 1_555 1_555
H10 C17 1_555 1_555
C18 C1 1_555 1_555
C19 C1 1_555 1_555
C20 C19 1_555 1_555
C21 C20 1_555 1_555
H11 C21 1_555 1_555
C22 C21 1_555 1_555
H12 C22 1_555 1_555
C23 C22 1_555 1_555
H13 C23 1_555 1_555
C24 C23 1_555 1_555
H14 C24 1_555 1_555
C25 C20 1_555 1_555
H15 C25 1_555 1_555
C26 C19 1_555 1_555
C27 C26 1_555 1_555
H16 C27 1_555 1_555
C28 C27 1_555 1_555
H17 C28 1_555 1_555
C29 C28 1_555 1_555
H18 C29 1_555 1_555
C30 C29 1_555 1_555
H19 C30 1_555 1_555
C31 C26 1_555 1_555
H20 C31 1_555 1_555
C32 C12 1_555 1_555
C33 C32 1_555 1_555
C34 C33 1_555 1_555
H21 C34 1_555 1_555
C35 C34 1_555 1_555
H22 C35 1_555 1_555
C36 C35 1_555 1_555
H23 C36 1_555 1_555
C37 C36 1_555 1_555
H24 C37 1_555 1_555
C38 C33 1_555 1_555
H25 C38 1_555 1_555
C39 C32 1_555 1_555
C40 C39 1_555 1_555
H26 C40 1_555 1_555
C41 C40 1_555 1_555
H27 C41 1_555 1_555
C42 C41 1_555 1_555
H28 C42 1_555 1_555
C43 C42 1_555 1_555
H29 C43 1_555 1_555
C44 C39 1_555 1_555
H30 C44 1_555 1_555
C8 C9 1_555 1_555
C10 C11 1_555 1_555
C13 C18 1_555 1_555
C17 C18 1_555 1_555
C24 C25 1_555 1_555
C30 C31 1_555 1_555
C37 C38 1_555 1_555
C43 C44 1_555 1_555

#END
