
#######################################################################
#
#                 Cambridge Crystallographic Data Centre
#                                CCDC 
#
#######################################################################
#
# If this CIF has been generated from an entry in the Cambridge 
# Structural Database, then it will include bibliographic, chemical, 
# crystal, experimental, refinement or atomic coordinate data resulting 
# from the CCDC's data processing and validation procedures.
#
#######################################################################

data_KORWUJ01
_chemical_compound_source        'Clinopodium polycephalum (Vaniot)'
_chemical_name_common            'Clinopodiside A-1'
_chemical_formula_moiety         'C30 H48 O4'
_chemical_name_systematic        Olean-11,13(18)-diene-3\b,16\b,23,30-tetraol
_chemical_properties_biological  'haemostatic activity'
_symmetry_cell_setting           monoclinic
_symmetry_space_group_name_H-M   'P 21'
_symmetry_Int_Tables_number      4
_space_group_name_Hall           'P 2yb'
loop_
_symmetry_equiv_pos_site_id
_symmetry_equiv_pos_as_xyz
1 x,y,z
2 -x,1/2+y,-z
_cell_length_a                   12.952(4)
_cell_length_b                   6.674(5)
_cell_length_c                   15.084(6)
_cell_angle_alpha                90
_cell_angle_beta                 101.94(3)
_cell_angle_gamma                90
_cell_volume                     1275.68
_cell_formula_units_Z            2
loop_
_atom_site_label
_atom_site_type_symbol
_atom_site_fract_x
_atom_site_fract_y
_atom_site_fract_z
O1 O 0.2991(4) 0.5721 0.2628(3)
O2 O 0.1367(4) 0.318(1) 0.2389(3)
O3 O 0.4533(4) 0.467(1) -0.4171(3)
O4 O 0.5326(3) 0.092(1) -0.4116(3)
C1 C 0.0849(5) 0.183(1) -0.0070(4)
C2 C 0.0813(6) 0.176(2) 0.0949(5)
C3 C 0.1486(5) 0.336(2) 0.1474(4)
C4 C 0.2666(5) 0.324(2) 0.1372(4)
C5 C 0.2671(5) 0.325(2) 0.0339(4)
C6 C 0.3758(5) 0.338(2) 0.0108(4)
C7 C 0.3680(5) 0.391(2) -0.0907(5)
C8 C 0.3020(5) 0.240(2) -0.1542(5)
C9 C 0.1944(5) 0.214(1) -0.1254(4)
C10 C 0.1968(5) 0.161(1) -0.0229(4)
C11 C 0.1239(5) 0.083(1) -0.1930(4)
C12 C 0.1365(5) 0.056(1) -0.2774(4)
C13 C 0.2212(5) 0.142(1) -0.3153(4)
C14 C 0.2761(5) 0.314(1) -0.2561(4)
C15 C 0.3777(5) 0.383(1) -0.2882(4)
C16 C 0.3647(5) 0.376(1) -0.3887(5)
C17 C 0.3407(5) 0.166(1) -0.4280(4)
C18 C 0.2461(5) 0.081(1) -0.3919(4)
C19 C 0.1929(5) -0.096(1) -0.4467(4)
C20 C 0.1631(5) -0.059(1) -0.5490(4)
C21 C 0.2619(5) 0.001(2) -0.5839(4)
C22 C 0.3162(5) 0.181(2) -0.5330(4)
C23 C 0.3226(6) 0.522(2) 0.1768(5)
C24 C 0.3252(6) 0.151(2) 0.1895(5)
C25 C 0.2345(6) -0.056(2) -0.0015(5)
C26 C 0.3630(6) 0.040(1) -0.1507(4)
C27 C 0.2010(6) 0.496(1) -0.2700(5)
C28 C 0.0797(6) 0.097(2) -0.5701(5)
C29 C 0.1214(7) -0.255(2) -0.5954(5)
C30 C 0.4342(5) 0.015(1) -0.3949(4)
loop_
_geom_bond_atom_site_label_1
_geom_bond_atom_site_label_2
_geom_bond_site_symmetry_1
_geom_bond_site_symmetry_2
O1 C23 1_555 1_555
O2 C3 1_555 1_555
O3 C16 1_555 1_555
O4 C30 1_555 1_555
C1 C2 1_555 1_555
C2 C3 1_555 1_555
C3 C4 1_555 1_555
C4 C5 1_555 1_555
C5 C6 1_555 1_555
C6 C7 1_555 1_555
C7 C8 1_555 1_555
C8 C9 1_555 1_555
C9 C10 1_555 1_555
C10 C1 1_555 1_555
C11 C9 1_555 1_555
C12 C11 1_555 1_555
C13 C12 1_555 1_555
C14 C8 1_555 1_555
C15 C14 1_555 1_555
C16 C15 1_555 1_555
C17 C16 1_555 1_555
C18 C13 1_555 1_555
C19 C18 1_555 1_555
C20 C19 1_555 1_555
C21 C20 1_555 1_555
C22 C17 1_555 1_555
C23 C4 1_555 1_555
C24 C4 1_555 1_555
C25 C10 1_555 1_555
C26 C8 1_555 1_555
C27 C14 1_555 1_555
C28 C20 1_555 1_555
C29 C20 1_555 1_555
C30 C17 1_555 1_555
C5 C10 1_555 1_555
C13 C14 1_555 1_555
C17 C18 1_555 1_555
C21 C22 1_555 1_555

#END
