
#######################################################################
#
#                 Cambridge Crystallographic Data Centre
#                                CCDC 
#
#######################################################################
#
# If this CIF has been generated from an entry in the Cambridge 
# Structural Database, then it will include bibliographic, chemical, 
# crystal, experimental, refinement or atomic coordinate data resulting 
# from the CCDC's data processing and validation procedures.
#
#######################################################################

data_KORZUM
_chemical_formula_moiety         'C26 H44 N1 O7 S1 1-,Na1 1+,2.5(H2 O1)'
_chemical_name_systematic        'Sodium taurocholate hydrate'
_symmetry_cell_setting           triclinic
_symmetry_space_group_name_H-M   'P 1'
_symmetry_Int_Tables_number      1
_space_group_name_Hall           'P 1'
loop_
_symmetry_equiv_pos_site_id
_symmetry_equiv_pos_as_xyz
1 x,y,z
_cell_length_a                   12.731(2)
_cell_length_b                   16.104(2)
_cell_length_c                   7.628(1)
_cell_angle_alpha                83.40(1)
_cell_angle_beta                 101.20(1)
_cell_angle_gamma                105.35(1)
_cell_volume                     1476.04
_exptl_crystal_colour            colorless
_chemical_melting_point          451-453K
_cell_formula_units_Z            2
loop_
_atom_site_label
_atom_site_type_symbol
_atom_site_fract_x
_atom_site_fract_y
_atom_site_fract_z
Na1 Na 1.2343(2) 0.6815(2) 0.7575(4)
Na2 Na 0.2994(2) 0.5819(2) 0.1932(4)
C1 C 1.1688(5) 0.2549(5) 1.2732(8)
C2 C 1.2332(5) 0.3477(5) 1.2477(8)
C3 C 1.3038(5) 0.3780(5) 1.4248(9)
C4 C 1.2343(5) 0.3626(4) 1.5722(8)
C5 C 1.1614(5) 0.2710(4) 1.5928(8)
C6 C 1.0910(6) 0.2635(5) 1.7370(8)
C7 C 0.9961(6) 0.3077(5) 1.6832(7)
C8 C 0.9264(5) 0.2814(4) 1.4993(7)
C9 C 1.0011(5) 0.2925(4) 1.3557(7)
C10 C 1.0902(5) 0.2403(4) 1.4108(8)
C11 C 0.9326(5) 0.2740(4) 1.1696(7)
C12 C 0.8451(5) 0.3245(4) 1.1131(7)
C13 C 0.7661(4) 0.3072(4) 1.2513(7)
C14 C 0.8374(5) 0.3307(4) 1.4353(7)
C15 C 0.7514(5) 0.3240(4) 1.5538(7)
C16 C 0.6621(6) 0.3613(4) 1.4289(8)
C17 C 0.6872(5) 0.3671(4) 1.2352(7)
C18 C 0.6999(5) 0.2121(4) 1.2518(8)
C19 C 1.0388(7) 0.1419(4) 1.4286(11)
C20 C 0.5809(5) 0.3520(4) 1.0925(8)
C21 C 0.5995(6) 0.3443(4) 0.9018(8)
C22 C 0.5193(5) 0.4221(5) 1.0922(8)
C23 C 0.5777(6) 0.5128(4) 1.0221(8)
C24 C 0.5463(5) 0.5299(4) 0.8213(8)
O1 O 1.3540(4) 0.4686(3) 1.4013(7)
O2 O 1.0422(4) 0.3993(4) 1.6873(7)
O3 O 0.8984(4) 0.4145(3) 1.0972(6)
O4 O 0.4489(4) 0.5162(3) 0.7482(6)
N1 N 0.6276(4) 0.5606(3) 0.7323(7)
C25 C 0.6102(5) 0.5876(4) 0.5419(8)
C26 C 0.5883(6) 0.6778(4) 0.5185(8)
S1 S 0.5746(1) 0.7210(1) 0.2928(2)
O5 O 0.4790(4) 0.6648(3) 0.1919(6)
O6 O 0.6746(4) 0.7230(4) 0.2304(8)
O7 O 0.5578(6) 0.8049(3) 0.3024(7)
C27 C 0.3389(6) 1.0100(5) -0.5646(8)
C28 C 0.2900(6) 0.9143(5) -0.5742(8)
C29 C 0.2048(5) 0.8817(5) -0.4509(8)
C30 C 0.2534(6) 0.9088(5) -0.2612(9)
C31 C 0.3101(6) 1.0046(5) -0.2481(8)
C32 C 0.3613(6) 1.0252(5) -0.0523(9)
C33 C 0.4635(5) 0.9911(4) 0.0208(7)
C34 C 0.5485(5) 1.0150(4) -0.1073(7)
C35 C 0.4926(5) 0.9918(4) -0.3012(7)
C36 C 0.3974(5) 1.0361(4) -0.3727(7)
C37 C 0.5793(5) 1.0088(4) -0.4267(7)
C38 C 0.6712(5) 0.9622(4) -0.3552(7)
C39 C 0.7294(5) 0.9888(3) -0.1681(7)
C40 C 0.6411(5) 0.9700(3) -0.0453(7)
C41 C 0.7115(5) 0.9850(4) 0.1423(7)
C42 C 0.8120(5) 0.9506(4) 0.1361(8)
C43 C 0.8084(5) 0.9340(4) -0.0618(7)
C44 C 0.7925(6) 1.0846(4) -0.1791(9)
C45 C 0.4362(7) 1.1349(5) -0.3840(10)
C46 C 0.9248(5) 0.9478(4) -0.1097(9)
C47 C 0.9223(7) 0.9302(6) -0.3042(10)
C48 C 0.9922(6) 0.8924(5) 0.0214(10)
C49 C 0.9480(6) 0.7951(5) -0.0021(8)
C50 C 0.9796(5) 0.7440(5) 0.1657(9)
O8 O 0.1694(5) 0.7897(4) -0.4395(7)
O9 O 0.4278(4) 0.9001(3) 0.0615(6)
O10 O 0.6256(4) 0.8702(3) -0.3500(6)
O11 O 1.0760(4) 0.7395(4) 0.2199(7)
N2 N 0.8991(9) 0.7052(7) 0.2549(14)
C51 C 0.9141 0.6333 0.3862
C52 C 0.9129(10) 0.6663(8) 0.5660(15)
S2 S 0.9344(1) 0.5869(1) 0.7474(2)
O12 O 1.0486(5) 0.6145(5) 0.8114(9)
O13 O 0.8630(8) 0.6129(6) 0.8453(13)
O14 O 0.8949(7) 0.4978(5) 0.7291(11)
O15 O 1.2545(4) 0.7249(3) 0.0634(7)
O16 O 0.2681(5) 0.5372(4) 0.8923(7)
O17 O 1.1009(5) 0.5394(4) 1.1751(9)
O18 O 0.4354(5) 0.7358(4) -0.1913(7)
O19 O 1.2289(10) 0.6202(8) 1.4794(17)
loop_
_geom_bond_atom_site_label_1
_geom_bond_atom_site_label_2
_geom_bond_site_symmetry_1
_geom_bond_site_symmetry_2
C1 C2 1_555 1_555
C2 C3 1_555 1_555
C3 C4 1_555 1_555
C4 C5 1_555 1_555
C5 C6 1_555 1_555
C6 C7 1_555 1_555
C7 C8 1_555 1_555
C8 C9 1_555 1_555
C9 C10 1_555 1_555
C10 C1 1_555 1_555
C11 C9 1_555 1_555
C12 C11 1_555 1_555
C13 C12 1_555 1_555
C14 C8 1_555 1_555
C15 C14 1_555 1_555
C16 C15 1_555 1_555
C17 C13 1_555 1_555
C18 C13 1_555 1_555
C19 C10 1_555 1_555
C20 C17 1_555 1_555
C21 C20 1_555 1_555
C22 C20 1_555 1_555
C23 C22 1_555 1_555
C24 C23 1_555 1_555
O1 C3 1_555 1_555
O2 C7 1_555 1_555
O3 C12 1_555 1_555
O4 C24 1_555 1_555
N1 C24 1_555 1_555
C25 N1 1_555 1_555
C26 C25 1_555 1_555
S1 C26 1_555 1_555
O5 S1 1_555 1_555
O6 S1 1_555 1_555
O7 S1 1_555 1_555
C27 C28 1_555 1_555
C28 C29 1_555 1_555
C29 C30 1_555 1_555
C30 C31 1_555 1_555
C31 C32 1_555 1_555
C32 C33 1_555 1_555
C33 C34 1_555 1_555
C34 C35 1_555 1_555
C35 C36 1_555 1_555
C36 C27 1_555 1_555
C37 C35 1_555 1_555
C38 C37 1_555 1_555
C39 C38 1_555 1_555
C40 C34 1_555 1_555
C41 C40 1_555 1_555
C42 C41 1_555 1_555
C43 C39 1_555 1_555
C44 C39 1_555 1_555
C45 C36 1_555 1_555
C46 C43 1_555 1_555
C47 C46 1_555 1_555
C48 C46 1_555 1_555
C49 C48 1_555 1_555
C50 C49 1_555 1_555
O8 C29 1_555 1_555
O9 C33 1_555 1_555
O10 C38 1_555 1_555
O11 C50 1_555 1_555
N2 C50 1_555 1_555
C51 N2 1_555 1_555
C52 C51 1_555 1_555
S2 C52 1_555 1_555
O12 S2 1_555 1_555
O13 S2 1_555 1_555
O14 S2 1_555 1_555
C5 C10 1_555 1_555
C13 C14 1_555 1_555
C16 C17 1_555 1_555
C31 C36 1_555 1_555
C39 C40 1_555 1_555
C42 C43 1_555 1_555

#END
