
#######################################################################
#
#                 Cambridge Crystallographic Data Centre
#                                CCDC 
#
#######################################################################
#
# If this CIF has been generated from an entry in the Cambridge 
# Structural Database, then it will include bibliographic, chemical, 
# crystal, experimental, refinement or atomic coordinate data resulting 
# from the CCDC's data processing and validation procedures.
#
#######################################################################

data_KOSWOG
_chemical_formula_moiety         'C10 H16 B10,C10 H16 B10'
_chemical_name_systematic        
'1,3-(2-ethen-1,2-diylphenyl)-1,2-dicarba-closo-dodecborane(10) 1,6-(2-ethen-1,2-diylphenyl)-1,2-dicarba-closo-dodecborane(10)'
_symmetry_cell_setting           monoclinic
_symmetry_space_group_name_H-M   'P 21/c'
_symmetry_Int_Tables_number      14
_space_group_name_Hall           '-P 2ybc'
loop_
_symmetry_equiv_pos_site_id
_symmetry_equiv_pos_as_xyz
1 x,y,z
2 -x,1/2+y,1/2-z
3 -x,-y,-z
4 x,1/2-y,1/2+z
_cell_length_a                   24.5147(17)
_cell_length_b                   7.0276(5)
_cell_length_c                   17.2539(14)
_cell_angle_alpha                90
_cell_angle_beta                 110.603(5)
_cell_angle_gamma                90
_cell_volume                     2782.38
_exptl_crystal_colour            colorless
_exptl_crystal_description       block
_cell_formula_units_Z            4
loop_
_atom_site_label
_atom_site_type_symbol
_atom_site_fract_x
_atom_site_fract_y
_atom_site_fract_z
C1 C 0.33508(18) 0.7696(7) 0.2918(3)
C2 C 0.4009(2) 0.6868(8) 0.3409(3)
H1 H 0.4279 0.6372 0.3058
C3 C 0.3142(2) 0.7845(8) 0.2009(3)
H2 H 0.2849 0.7026 0.1696
C4 C 0.33582(18) 0.9114(7) 0.1617(3)
H3 H 0.3198 0.9106 0.1042
C5 C 0.38182(17) 1.0519(6) 0.1988(3)
C6 C 0.3982(2) 1.1759(7) 0.1486(3)
H4 H 0.3791 1.1717 0.0915
C7 C 0.4424(2) 1.3054(7) 0.1821(4)
H5 H 0.4523 1.3903 0.1479
C8 C 0.4721(2) 1.3090(8) 0.2670(3)
H6 H 0.5031 1.3923 0.2894
C9 C 0.4558(2) 1.1904(7) 0.3174(3)
H7 H 0.4752 1.1970 0.3743
C10 C 0.41041(17) 1.0588(6) 0.2855(3)
B1 B 0.3909(2) 0.9265(8) 0.3430(3)
B2 B 0.3205(2) 0.9460(8) 0.3496(4)
H8 H 0.2926 1.0697 0.3233
B3 B 0.2900(3) 0.7187(9) 0.3452(4)
H9 H 0.2428 0.6946 0.3164
B4 B 0.3425(3) 0.5479(8) 0.3370(4)
H10 H 0.3302 0.4133 0.3027
B5 B 0.4348(2) 0.7967(8) 0.4309(4)
H11 H 0.4821 0.8204 0.4579
B6 B 0.3834(2) 0.9636(8) 0.4395(4)
H12 H 0.3971 1.0983 0.4731
B7 B 0.3210(2) 0.8380(8) 0.4407(4)
H13 H 0.2940 0.8910 0.4753
B8 B 0.3340(3) 0.5887(9) 0.4325(4)
H14 H 0.3152 0.4789 0.4612
B9 B 0.4048(3) 0.5674(8) 0.4277(4)
H15 H 0.4327 0.4433 0.4532
B10 B 0.3918(3) 0.7440(8) 0.4922(5)
H16 H 0.4106 0.7353 0.5601
C11 C 0.1670(2) 0.2909(8) 0.9598(4)
C12 C 0.1027(2) 0.1972(7) 0.9421(4)
H17 H 0.0765 0.1439 0.8802
C13 C 0.1878(2) 0.3092(8) 0.8896(4)
H18 H 0.2176 0.2296 0.8880
C14 C 0.1661(2) 0.4330(7) 0.8289(3)
H19 H 0.1825 0.4351 0.7878
C15 C 0.11864(17) 0.5674(6) 0.8203(3)
C16 C 0.1019(2) 0.6909(7) 0.7529(3)
H20 H 0.1219 0.6895 0.7161
C17 C 0.0564(2) 0.8144(7) 0.7403(4)
H21 H 0.0452 0.8947 0.6945
C18 C 0.0273(2) 0.8196(7) 0.7956(4)
H22 H -0.0034 0.9041 0.7875
C19 C 0.0436(2) 0.6999(7) 0.8626(3)
H23 H 0.0237 0.7038 0.8995
C20 C 0.08980(17) 0.5720(6) 0.8765(3)
B11 B 0.1627(3) 0.0668(8) 0.9974(5)
H24 H 0.1772 -0.0647 0.9760
B12 B 0.2117(3) 0.2419(9) 1.0572(5)
H25 H 0.2591 0.2235 1.0755
B13 B 0.1794(2) 0.4660(8) 1.0314(4)
H26 H 0.2059 0.5934 1.0334
B14 B 0.1105(2) 0.4396(7) 0.9536(3)
B15 B 0.0995(3) 0.0747(9) 1.0256(5)
H27 H 0.0733 -0.0535 1.0233
B16 B 0.1694(3) 0.1071(10) 1.1017(4)
H28 H 0.1893 0.0004 1.1500
B17 B 0.1792(3) 0.3523(9) 1.1218(4)
H29 H 0.2053 0.4050 1.1839
B18 B 0.1168(2) 0.4750(8) 1.0585(4)
H30 H 0.1021 0.6076 1.0788
B19 B 0.0672(2) 0.3036(8) 0.9976(4)
H31 H 0.0197 0.3237 0.9765
B20 B 0.1092(3) 0.2508(8) 1.1014(4)
H32 H 0.0892 0.2373 1.1491
loop_
_geom_bond_atom_site_label_1
_geom_bond_atom_site_label_2
_geom_bond_site_symmetry_1
_geom_bond_site_symmetry_2
C1 C2 1_555 1_555
C2 H1 1_555 1_555
C3 C1 1_555 1_555
H2 C3 1_555 1_555
C4 C3 1_555 1_555
H3 C4 1_555 1_555
C5 C4 1_555 1_555
C6 C5 1_555 1_555
H4 C6 1_555 1_555
C7 C6 1_555 1_555
H5 C7 1_555 1_555
C8 C7 1_555 1_555
H6 C8 1_555 1_555
C9 C8 1_555 1_555
H7 C9 1_555 1_555
C10 C5 1_555 1_555
B1 C1 1_555 1_555
B2 C1 1_555 1_555
H8 B2 1_555 1_555
B3 C1 1_555 1_555
H9 B3 1_555 1_555
B4 C1 1_555 1_555
H10 B4 1_555 1_555
B5 C2 1_555 1_555
H11 B5 1_555 1_555
B6 B1 1_555 1_555
H12 B6 1_555 1_555
B7 B2 1_555 1_555
H13 B7 1_555 1_555
B8 B3 1_555 1_555
H14 B8 1_555 1_555
B9 C2 1_555 1_555
H15 B9 1_555 1_555
B10 B5 1_555 1_555
H16 B10 1_555 1_555
C11 C12 1_555 1_555
C12 H17 1_555 1_555
C13 C11 1_555 1_555
H18 C13 1_555 1_555
C14 C13 1_555 1_555
H19 C14 1_555 1_555
C15 C14 1_555 1_555
C16 C15 1_555 1_555
H20 C16 1_555 1_555
C17 C16 1_555 1_555
H21 C17 1_555 1_555
C18 C17 1_555 1_555
H22 C18 1_555 1_555
C19 C18 1_555 1_555
H23 C19 1_555 1_555
C20 C15 1_555 1_555
B11 C11 1_555 1_555
H24 B11 1_555 1_555
B12 C11 1_555 1_555
H25 B12 1_555 1_555
B13 C11 1_555 1_555
H26 B13 1_555 1_555
B14 C11 1_555 1_555
B15 C12 1_555 1_555
H27 B15 1_555 1_555
B16 B11 1_555 1_555
H28 B16 1_555 1_555
B17 B12 1_555 1_555
H29 B17 1_555 1_555
B18 B13 1_555 1_555
H30 B18 1_555 1_555
B19 C12 1_555 1_555
H31 B19 1_555 1_555
B20 B15 1_555 1_555
H32 B20 1_555 1_555
C2 B1 1_555 1_555
C2 B4 1_555 1_555
C9 C10 1_555 1_555
C10 B1 1_555 1_555
B1 B2 1_555 1_555
B1 B5 1_555 1_555
B2 B3 1_555 1_555
B2 B6 1_555 1_555
B3 B4 1_555 1_555
B3 B7 1_555 1_555
B4 B8 1_555 1_555
B4 B9 1_555 1_555
B5 B6 1_555 1_555
B5 B9 1_555 1_555
B6 B7 1_555 1_555
B6 B10 1_555 1_555
B7 B8 1_555 1_555
B7 B10 1_555 1_555
B8 B9 1_555 1_555
B8 B10 1_555 1_555
B9 B10 1_555 1_555
C12 B11 1_555 1_555
C12 B14 1_555 1_555
C19 C20 1_555 1_555
C20 B14 1_555 1_555
B11 B12 1_555 1_555
B11 B15 1_555 1_555
B12 B13 1_555 1_555
B12 B16 1_555 1_555
B13 B14 1_555 1_555
B13 B17 1_555 1_555
B14 B18 1_555 1_555
B14 B19 1_555 1_555
B15 B16 1_555 1_555
B15 B19 1_555 1_555
B16 B17 1_555 1_555
B16 B20 1_555 1_555
B17 B18 1_555 1_555
B17 B20 1_555 1_555
B18 B19 1_555 1_555
B18 B20 1_555 1_555
B19 B20 1_555 1_555

#END
