
#######################################################################
#
#                 Cambridge Crystallographic Data Centre
#                                CCDC 
#
#######################################################################
#
# If this CIF has been generated from an entry in the Cambridge 
# Structural Database, then it will include bibliographic, chemical, 
# crystal, experimental, refinement or atomic coordinate data resulting 
# from the CCDC's data processing and validation procedures.
#
#######################################################################

data_KOTVIA
_chemical_formula_moiety         'C24 H21 Br1 N2 O1'
_chemical_name_systematic        
5-bromo-3-(diphenylmethyl)-N,N-dimethyl-1H-indole-1-carboxamide
_symmetry_cell_setting           monoclinic
_symmetry_space_group_name_H-M   'P 21/c'
_symmetry_Int_Tables_number      14
_space_group_name_Hall           '-P 2ybc'
loop_
_symmetry_equiv_pos_site_id
_symmetry_equiv_pos_as_xyz
1 x,y,z
2 -x,1/2+y,1/2-z
3 -x,-y,-z
4 x,1/2-y,1/2+z
_cell_length_a                   16.981(10)
_cell_length_b                   9.876(6)
_cell_length_c                   12.868(7)
_cell_angle_alpha                90
_cell_angle_beta                 104.683(6)
_cell_angle_gamma                90
_cell_volume                     2087.55
_exptl_crystal_colour            colorless
_exptl_crystal_description       block
_cell_formula_units_Z            4
_chemical_properties_physical    Heat-sensitive
_exptl_crystal_recrystallization_method 'Vapour Deposition'
loop_
_atom_site_label
_atom_site_type_symbol
_atom_site_fract_x
_atom_site_fract_y
_atom_site_fract_z
Br1 Br 0.42910(4) 0.09008(6) 1.11788(5)
N1 N 0.2114(2) 0.3185(3) 0.7161(3)
C1 C 0.2234(2) 0.5623(4) 0.9391(3)
H1 H 0.1996 0.5235 0.9943
C2 C 0.2761(2) 0.3274(4) 0.8915(3)
C3 C 0.3060(3) 0.6180(4) 0.9965(3)
C4 C 0.3014(3) 0.1232(4) 0.7998(4)
H2 H 0.2933 0.0717 0.7374
C5 C 0.1873(3) 0.7662(4) 0.8170(3)
H3 H 0.2408 0.7686 0.8113
C6 C 0.1648(3) 0.6709(4) 0.8817(3)
C7 C 0.2640(3) 0.2471(4) 0.7994(3)
C8 C 0.2292(2) 0.4497(4) 0.8633(3)
C9 C 0.3272(3) 0.2799(4) 0.9876(3)
H4 H 0.3369 0.3313 1.0501
C10 C 0.3621(2) 0.1565(5) 0.9869(4)
C11 C 0.1316(4) 0.8589(5) 0.7602(4)
H5 H 0.1476 0.9221 0.7161
C12 C 0.0857(3) 0.6713(5) 0.8888(4)
H6 H 0.0688 0.6081 0.9322
C13 C 0.3719(3) 0.6141(4) 0.9524(4)
H7 H 0.3659 0.5792 0.8837
C14 C 0.3505(3) 0.0784(4) 0.8944(4)
H8 H 0.3764 -0.0050 0.8971
C15 C 0.3168(3) 0.6727(5) 1.0977(4)
H9 H 0.2728 0.6784 1.1281
C16 C 0.4567(4) 0.7149(6) 1.1098(6)
H10 H 0.5072 0.7481 1.1475
C17 C 0.1913(2) 0.4390(4) 0.7593(3)
H11 H 0.1560 0.5037 0.7206
C18 C 0.0540(4) 0.8577(5) 0.7688(4)
H12 H 0.0166 0.9205 0.7313
C19 C 0.3921(5) 0.7191(6) 1.1544(5)
H13 H 0.3987 0.7534 1.2234
C20 C 0.0310(3) 0.7648(6) 0.8323(5)
H14 H -0.0225 0.7638 0.8379
C21 C 0.4470(3) 0.6619(5) 1.0098(6)
H15 H 0.4913 0.6576 0.9797
O1 O 0.15775(19) 0.1424(3) 0.6075(2)
N2 N 0.1454(2) 0.3534(4) 0.5366(3)
C22 C 0.1705(3) 0.2633(5) 0.6155(4)
C23 C 0.1834(3) 0.4832(5) 0.5273(4)
H16 H 0.2324 0.4918 0.5838
H17 H 0.1466 0.5550 0.5330
H18 H 0.1963 0.4886 0.4590
C24 C 0.0886(3) 0.3053(6) 0.4384(4)
H19 H 0.1184 0.2777 0.3877
H20 H 0.0517 0.3769 0.4079
H21 H 0.0584 0.2297 0.4550
loop_
_geom_bond_atom_site_label_1
_geom_bond_atom_site_label_2
_geom_bond_site_symmetry_1
_geom_bond_site_symmetry_2
Br1 C10 1_555 1_555
N1 C7 1_555 1_555
C1 H1 1_555 1_555
C2 C7 1_555 1_555
C3 C1 1_555 1_555
C4 H2 1_555 1_555
C5 H3 1_555 1_555
C6 C1 1_555 1_555
C7 C4 1_555 1_555
C8 C1 1_555 1_555
C9 C2 1_555 1_555
H4 C9 1_555 1_555
C10 C9 1_555 1_555
C11 C5 1_555 1_555
H5 C11 1_555 1_555
C12 C6 1_555 1_555
H6 C12 1_555 1_555
C13 C3 1_555 1_555
H7 C13 1_555 1_555
C14 C4 1_555 1_555
H8 C14 1_555 1_555
C15 C3 1_555 1_555
H9 C15 1_555 1_555
C16 H10 1_555 1_555
C17 N1 1_555 1_555
H11 C17 1_555 1_555
C18 C11 1_555 1_555
H12 C18 1_555 1_555
C19 C15 1_555 1_555
H13 C19 1_555 1_555
C20 C12 1_555 1_555
H14 C20 1_555 1_555
C21 C13 1_555 1_555
H15 C21 1_555 1_555
O1 C22 1_555 1_555
N2 C22 1_555 1_555
C22 N1 1_555 1_555
C23 N2 1_555 1_555
H16 C23 1_555 1_555
H17 C23 1_555 1_555
H18 C23 1_555 1_555
C24 N2 1_555 1_555
H19 C24 1_555 1_555
H20 C24 1_555 1_555
H21 C24 1_555 1_555
C2 C8 1_555 1_555
C5 C6 1_555 1_555
C8 C17 1_555 1_555
C10 C14 1_555 1_555
C16 C19 1_555 1_555
C16 C21 1_555 1_555
C18 C20 1_555 1_555

#END
