
#######################################################################
#
#                 Cambridge Crystallographic Data Centre
#                                CCDC 
#
#######################################################################
#
# If this CIF has been generated from an entry in the Cambridge 
# Structural Database, then it will include bibliographic, chemical, 
# crystal, experimental, refinement or atomic coordinate data resulting 
# from the CCDC's data processing and validation procedures.
#
#######################################################################

data_KOVCAB
_chemical_name_common            
3,8-bis(thiophenyl)-4,4'-difluoroboradiazaindacene
_chemical_formula_moiety         'C21 H15 B1 F2 N2 S2'
_chemical_name_systematic        
5,5-difluoro-3,10-bis(phenylsulfanyl)-5H-4,5-dipyrrolo[1,2-c:2',1'-f][1,3,2]diazaborinine
_symmetry_cell_setting           triclinic
_symmetry_space_group_name_H-M   'P -1'
_symmetry_Int_Tables_number      2
_space_group_name_Hall           '-P 1'
loop_
_symmetry_equiv_pos_site_id
_symmetry_equiv_pos_as_xyz
1 x,y,z
2 -x,-y,-z
_cell_length_a                   9.144(4)
_cell_length_b                   9.856(4)
_cell_length_c                   11.616(4)
_cell_angle_alpha                83.242(6)
_cell_angle_beta                 75.289(6)
_cell_angle_gamma                68.965(7)
_cell_volume                     944.671
_cell_formula_units_Z            2
loop_
_atom_site_label
_atom_site_type_symbol
_atom_site_fract_x
_atom_site_fract_y
_atom_site_fract_z
S1 S 0.70675(9) -0.16441(8) 0.10871(6)
S2 S 0.83855(12) 0.45147(9) -0.03484(8)
B1 B 0.8968(4) 0.2059(3) 0.1693(3)
N1 N 0.8235(2) 0.1969(2) 0.06346(17)
N2 N 0.9187(3) 0.0612(2) 0.23892(18)
F1 F 1.04176(19) 0.22642(19) 0.12661(14)
F2 F 0.7907(2) 0.32042(16) 0.24012(13)
C1 C 1.0027(4) 0.0121(4) 0.3247(2)
H1 H 1.058(4) 0.065(3) 0.344(3)
C2 C 0.9965(4) -0.1213(4) 0.3680(3)
H2 H 1.048(4) -0.177(3) 0.425(3)
C3 C 0.9064(3) -0.1581(3) 0.3072(2)
H3 H 0.882(3) -0.245(3) 0.316(2)
C4 C 0.8585(3) -0.0444(3) 0.2255(2)
C5 C 0.7779(3) -0.0289(3) 0.1332(2)
C6 C 0.7643(3) 0.0870(3) 0.0527(2)
C7 C 0.6995(3) 0.1213(3) -0.0496(2)
H4 H 0.654(3) 0.063(3) -0.079(2)
C8 C 0.7188(3) 0.2462(3) -0.0992(2)
H5 H 0.693(3) 0.297(3) -0.165(3)
C9 C 0.7937(3) 0.2938(3) -0.0265(2)
C10 C 0.5848(3) -0.1884(3) 0.2500(2)
C11 C 0.5821(4) -0.3264(3) 0.2802(3)
H6 H 0.644(4) -0.399(4) 0.237(3)
C12 C 0.4811(5) -0.3507(4) 0.3836(3)
H7 H 0.466(5) -0.435(4) 0.398(4)
C13 C 0.3873(5) -0.2396(5) 0.4587(3)
H8 H 0.319(4) -0.258(4) 0.524(3)
C14 C 0.3926(4) -0.1034(4) 0.4295(3)
H9 H 0.330(4) -0.031(4) 0.476(3)
C15 C 0.4886(4) -0.0766(3) 0.3248(3)
H10 H 0.495(4) 0.016(4) 0.307(3)
C16 C 0.7897(3) 0.5341(3) -0.1703(2)
C17 C 0.9125(4) 0.5459(3) -0.2630(3)
H11 H 1.024(4) 0.503(3) -0.251(3)
C18 C 0.8763(5) 0.6166(4) -0.3684(3)
H12 H 0.968(5) 0.618(4) -0.430(3)
C19 C 0.7213(5) 0.6726(4) -0.3803(3)
H13 H 0.685(5) 0.724(4) -0.454(4)
C20 C 0.5999(5) 0.6631(4) -0.2881(4)
H14 H 0.489(5) 0.702(4) -0.294(4)
C21 C 0.6318(4) 0.5958(3) -0.1821(3)
H15 H 0.558(4) 0.589(4) -0.119(3)
loop_
_geom_bond_atom_site_label_1
_geom_bond_atom_site_label_2
_geom_bond_site_symmetry_1
_geom_bond_site_symmetry_2
S1 C5 1_555 1_555
S2 C9 1_555 1_555
B1 N1 1_555 1_555
N1 C6 1_555 1_555
N2 B1 1_555 1_555
F1 B1 1_555 1_555
F2 B1 1_555 1_555
C1 N2 1_555 1_555
H1 C1 1_555 1_555
C2 C1 1_555 1_555
H2 C2 1_555 1_555
C3 C2 1_555 1_555
H3 C3 1_555 1_555
C4 N2 1_555 1_555
C5 C4 1_555 1_555
C6 C5 1_555 1_555
C7 C6 1_555 1_555
H4 C7 1_555 1_555
C8 C7 1_555 1_555
H5 C8 1_555 1_555
C9 N1 1_555 1_555
C10 S1 1_555 1_555
C11 C10 1_555 1_555
H6 C11 1_555 1_555
C12 C11 1_555 1_555
H7 C12 1_555 1_555
C13 C12 1_555 1_555
H8 C13 1_555 1_555
C14 C13 1_555 1_555
H9 C14 1_555 1_555
C15 C10 1_555 1_555
H10 C15 1_555 1_555
C16 S2 1_555 1_555
C17 C16 1_555 1_555
H11 C17 1_555 1_555
C18 C17 1_555 1_555
H12 C18 1_555 1_555
C19 C18 1_555 1_555
H13 C19 1_555 1_555
C20 C19 1_555 1_555
H14 C20 1_555 1_555
C21 C16 1_555 1_555
H15 C21 1_555 1_555
C3 C4 1_555 1_555
C8 C9 1_555 1_555
C14 C15 1_555 1_555
C20 C21 1_555 1_555

#END
