
#######################################################################
#
#                 Cambridge Crystallographic Data Centre
#                                CCDC 
#
#######################################################################
#
# If this CIF has been generated from an entry in the Cambridge 
# Structural Database, then it will include bibliographic, chemical, 
# crystal, experimental, refinement or atomic coordinate data resulting 
# from the CCDC's data processing and validation procedures.
#
#######################################################################

data_KOVLEO
_chemical_formula_moiety         '2(C19 H18 N1 1+),C12 H8 O8 S2 2-,2(C5 H12 O1)'
_chemical_name_systematic        
"bis(triphenylmethanaminium) 4,4'-dihydroxybiphenyl-3,3'-disulfonate pentan-1-ol solvate"
_symmetry_cell_setting           monoclinic
_symmetry_space_group_name_H-M   'C 2'
_symmetry_Int_Tables_number      5
_space_group_name_Hall           'C 2y'
loop_
_symmetry_equiv_pos_site_id
_symmetry_equiv_pos_as_xyz
1 x,y,z
2 -x,y,-z
3 1/2+x,1/2+y,z
4 1/2-x,1/2+y,-z
_cell_length_a                   25.6094(14)
_cell_length_b                   8.1885(3)
_cell_length_c                   15.2041(7)
_cell_angle_alpha                90
_cell_angle_beta                 118.790(4)
_cell_angle_gamma                90
_cell_volume                     2794.23
_exptl_crystal_colour            colorless
_exptl_crystal_description       prism
_cell_formula_units_Z            2
loop_
_atom_site_label
_atom_site_type_symbol
_atom_site_fract_x
_atom_site_fract_y
_atom_site_fract_z
S1 S 0.35439(4) 0.90552(14) 0.59580(7)
O1 O 0.3126(2) 0.8595(9) 0.4883(4)
O2 O 0.3446(3) 1.0738(9) 0.6073(6)
O3 O 0.3499(3) 0.7953(11) 0.6654(6)
O4 O 0.46865(13) 0.8380(6) 0.7954(2)
H1 H 0.4316(7) 0.829(9) 0.774(5)
C1 C 0.42806(15) 0.8796(5) 0.6151(3)
C2 C 0.47502(18) 0.8500(6) 0.7116(3)
C3 C 0.5314(2) 0.8269(8) 0.7222(3)
H2 H 0.5634 0.8073 0.7856
C4 C 0.54095(18) 0.8324(7) 0.6414(3)
H3 H 0.5793 0.8154 0.6512
C5 C 0.49479(15) 0.8629(5) 0.5440(3)
C6 C 0.43823(15) 0.8875(6) 0.5342(3)
H4 H 0.4065 0.9099 0.4710
S1A S 0.64561(4) 0.90552(14) 0.40420(7)
O1A O 0.6874(2) 0.8595(9) 0.5117(4)
O2A O 0.6554(3) 1.0738(9) 0.3927(6)
O3A O 0.6501(3) 0.7953(11) 0.3346(6)
O4A O 0.53135(13) 0.8380(6) 0.2046(2)
H1A H 0.5684(7) 0.829(9) 0.226(5)
C1A C 0.57194(15) 0.8796(5) 0.3849(3)
C2A C 0.52498(18) 0.8500(6) 0.2884(3)
C3A C 0.4686(2) 0.8269(8) 0.2778(3)
H2A H 0.4366 0.8073 0.2144
C4A C 0.45905(18) 0.8324(7) 0.3586(3)
H3A H 0.4207 0.8154 0.3488
C5A C 0.50521(15) 0.8629(5) 0.4560(3)
C6A C 0.56177(15) 0.8875(6) 0.4658(3)
H4A H 0.5935 0.9099 0.5290
O8 O 0.3559(2) 0.3122(6) 0.7363(4)
H5 H 0.343(4) 0.218(5) 0.710(6)
C7 C 0.4048(6) 0.369(2) 0.7279(12)
H6 H 0.4056 0.4871 0.7268
H7 H 0.4042 0.3267 0.6678
C8 C 0.4565(7) 0.302(3) 0.8204(17)
H8 H 0.4524 0.1856 0.8255
H9 H 0.4594 0.3546 0.8799
C9 C 0.5109(10) 0.340(3) 0.809(3)
H10 H 0.5072 0.2836 0.7506
H11 H 0.5113 0.4565 0.7972
C10 C 0.5686(14) 0.295(5) 0.896(2)
H12 H 0.5722 0.1775 0.9013
H13 H 0.5702 0.3364 0.9575
C11 C 0.6191(16) 0.365(6) 0.885(3)
H14 H 0.6561 0.3234 0.9379
H15 H 0.6188 0.4819 0.8901
H16 H 0.6149 0.3345 0.8214
N1 N 0.27134(15) 0.5586(5) 0.6673(3)
H28 H 0.2866(15) 0.636(4) 0.648(3)
H29 H 0.2968(13) 0.480(3) 0.691(3)
H30 H 0.2407(11) 0.522(4) 0.6142(19)
C17 C 0.24985(16) 0.6330(5) 0.7369(3)
C18 C 0.23275(17) 0.4917(6) 0.7843(3)
C19 C 0.21448(19) 0.3410(6) 0.7418(4)
H31 H 0.2144 0.3154 0.6822
C20 C 0.1958(2) 0.2252(7) 0.7887(5)
H32 H 0.1832 0.1232 0.7590
C21 C 0.1956(2) 0.2570(8) 0.8757(5)
H33 H 0.1833 0.1781 0.9059
C22 C 0.2134(2) 0.4053(10) 0.9179(4)
H34 H 0.2134 0.4281 0.9777
C23 C 0.2319(2) 0.5250(7) 0.8742(3)
H35 H 0.2437 0.6270 0.9044
C24 C 0.19601(17) 0.7389(5) 0.6702(3)
C25 C 0.1998(2) 0.8592(7) 0.6080(3)
H36 H 0.2361 0.8759 0.6092
C26 C 0.1516(3) 0.9535(7) 0.5453(4)
H37 H 0.1553 1.0327 0.5047
C27 C 0.0969(2) 0.9282(8) 0.5434(4)
H38 H 0.0639 0.9910 0.5015
C28 C 0.0923(2) 0.8130(8) 0.6024(4)
H39 H 0.0558 0.7962 0.6004
C29 C 0.14083(19) 0.7189(6) 0.6660(4)
H40 H 0.1365 0.6409 0.7065
C30 C 0.30312(18) 0.7288(6) 0.8164(3)
C31 C 0.3559(2) 0.6454(7) 0.8763(4)
H41 H 0.3580 0.5335 0.8682
C32 C 0.4057(2) 0.7284(9) 0.9484(4)
H42 H 0.4406 0.6711 0.9880
C33 C 0.4037(2) 0.8915(10) 0.9614(4)
H43 H 0.4372 0.9469 1.0087
C34 C 0.3517(3) 0.9728(8) 0.9038(4)
H44 H 0.3496 1.0845 0.9130
C35 C 0.3020(2) 0.8921(7) 0.8320(3)
H45 H 0.2671 0.9505 0.7935
O5? O 0.3274(3) 1.0175(11) 0.5200(5)
O6? O 0.3621(4) 0.9836(11) 0.6913(7)
O7? O 0.3308(4) 0.7481(12) 0.5877(7)
C12? C 0.4158(4) 0.298(2) 0.8053(10)
H17? H 0.4236 0.1857 0.8277
H18? H 0.4235 0.3648 0.8632
C13? C 0.4586(9) 0.345(3) 0.771(2)
H19? H 0.4355 0.4199 0.7167
H20? H 0.4616 0.2463 0.7390
C14? C 0.5203(10) 0.415(4) 0.814(4)
H21? H 0.5222 0.4922 0.7676
H22? H 0.5308 0.4714 0.8766
C15? C 0.5620(14) 0.279(4) 0.832(2)
H23? H 0.5596 0.2487 0.7688
H24? H 0.5485 0.1853 0.8554
C16? C 0.6258(16) 0.309(6) 0.906(3)
H25? H 0.6476 0.2086 0.9212
H26? H 0.6286 0.3539 0.9668
H27? H 0.6424 0.3855 0.8784
loop_
_geom_bond_atom_site_label_1
_geom_bond_atom_site_label_2
_geom_bond_site_symmetry_1
_geom_bond_site_symmetry_2
S1 O1 1_555 1_555
O2 S1 1_555 1_555
O3 S1 1_555 1_555
O4 H1 1_555 1_555
C1 S1 1_555 1_555
C2 O4 1_555 1_555
C3 C2 1_555 1_555
H2 C3 1_555 1_555
C4 C3 1_555 1_555
H3 C4 1_555 1_555
C5 C4 1_555 1_555
C6 C1 1_555 1_555
H4 C6 1_555 1_555
O8 H5 1_555 1_555
C7 O8 1_555 1_555
H6 C7 1_555 1_555
H7 C7 1_555 1_555
C8 C7 1_555 1_555
H8 C8 1_555 1_555
H9 C8 1_555 1_555
C9 C8 1_555 1_555
H10 C9 1_555 1_555
H11 C9 1_555 1_555
C10 C9 1_555 1_555
H12 C10 1_555 1_555
H13 C10 1_555 1_555
C11 C10 1_555 1_555
H14 C11 1_555 1_555
H15 C11 1_555 1_555
H16 C11 1_555 1_555
N1 H28 1_555 1_555
H29 N1 1_555 1_555
H30 N1 1_555 1_555
C17 N1 1_555 1_555
C18 C17 1_555 1_555
C19 C18 1_555 1_555
H31 C19 1_555 1_555
C20 C19 1_555 1_555
H32 C20 1_555 1_555
C21 C20 1_555 1_555
H33 C21 1_555 1_555
C22 C21 1_555 1_555
H34 C22 1_555 1_555
C23 C18 1_555 1_555
H35 C23 1_555 1_555
C24 C17 1_555 1_555
C25 C24 1_555 1_555
H36 C25 1_555 1_555
C26 C25 1_555 1_555
H37 C26 1_555 1_555
C27 C26 1_555 1_555
H38 C27 1_555 1_555
C28 C27 1_555 1_555
H39 C28 1_555 1_555
C29 C24 1_555 1_555
H40 C29 1_555 1_555
C30 C17 1_555 1_555
C31 C30 1_555 1_555
H41 C31 1_555 1_555
C32 C31 1_555 1_555
H42 C32 1_555 1_555
C33 C32 1_555 1_555
H43 C33 1_555 1_555
C34 C33 1_555 1_555
H44 C34 1_555 1_555
C35 C30 1_555 1_555
H45 C35 1_555 1_555
S1A O1A 1_555 1_555
O2A S1A 1_555 1_555
O3A S1A 1_555 1_555
O4A H1A 1_555 1_555
C1A S1A 1_555 1_555
C2A O4A 1_555 1_555
C3A C2A 1_555 1_555
H2A C3A 1_555 1_555
C4A C3A 1_555 1_555
H3A C4A 1_555 1_555
C5A C5 1_555 1_555
C6A C1A 1_555 1_555
H4A C6A 1_555 1_555
C1 C2 1_555 1_555
C5 C6 1_555 1_555
C22 C23 1_555 1_555
C28 C29 1_555 1_555
C34 C35 1_555 1_555
C1A C2A 1_555 1_555
C4A C5A 1_555 1_555
C5A C6A 1_555 1_555

#END
