
#######################################################################
#
#                 Cambridge Crystallographic Data Centre
#                                CCDC 
#
#######################################################################
#
# If this CIF has been generated from an entry in the Cambridge 
# Structural Database, then it will include bibliographic, chemical, 
# crystal, experimental, refinement or atomic coordinate data resulting 
# from the CCDC's data processing and validation procedures.
#
#######################################################################

data_KOVNIU
_chemical_formula_moiety         'C38 H34 N10 4+,2(C10 H6 O6 S2 2-),6(H2 O1)'
_chemical_name_systematic        
'6,15,25,34,42,47-hexaaza-3,12,22,31-tetraazonianonacyclo[34.2.2.2^17,20^.1^3,6^.1^7,11^.1^12,15^.1^22,25^.1^26,30^.1^31,34^]octatetraconta-1(38),3(48),4,7(47),8,10,12(46),13,17,19,22(43),23,26(42),27,29,31(41),32,36,39,44-icosaene bis(naphthalene-1,5-disulfonate) hexahydrate'
_symmetry_cell_setting           triclinic
_symmetry_space_group_name_H-M   'P -1'
_symmetry_Int_Tables_number      2
_space_group_name_Hall           '-P 1'
loop_
_symmetry_equiv_pos_site_id
_symmetry_equiv_pos_as_xyz
1 x,y,z
2 -x,-y,-z
_cell_length_a                   7.8554(16)
_cell_length_b                   13.428(3)
_cell_length_c                   14.296(3)
_cell_angle_alpha                74.64(3)
_cell_angle_beta                 83.39(3)
_cell_angle_gamma                82.18(3)
_cell_volume                     1435.65
_exptl_crystal_colour            colorless
_exptl_crystal_description       neddle
_cell_formula_units_Z            1
loop_
_atom_site_label
_atom_site_type_symbol
_atom_site_fract_x
_atom_site_fract_y
_atom_site_fract_z
S1 S -0.1517(2) 0.38472(12) -0.26509(11)
O1 O -0.0847(6) 0.3903(3) -0.1760(3)
O2 O -0.3261(5) 0.4372(3) -0.2790(3)
O3 O -0.1390(6) 0.2802(3) -0.2767(3)
C1 C 0.1230(8) 0.4917(5) -0.3411(5)
H1 H 0.1448 0.4809 -0.2764
C2 C -0.0170(8) 0.4551(4) -0.3633(4)
C3 C -0.0578(8) 0.4721(4) -0.4612(4)
C4 C -0.2019(8) 0.4354(4) -0.4881(4)
H2 H -0.2755 0.3980 -0.4400
C5 C -0.2341(8) 0.4544(5) -0.5842(4)
H3 H -0.3308 0.4312 -0.5999
S1A S 0.1517(2) 0.61528(12) -0.73491(11)
O1A O 0.0847(6) 0.6097(3) -0.8240(3)
O2A O 0.3261(5) 0.5628(3) -0.7210(3)
O3A O 0.1390(6) 0.7198(3) -0.7233(3)
C1A C -0.1230(8) 0.5083(5) -0.6589(5)
H1A H -0.1448 0.5191 -0.7236
C2A C 0.0170(8) 0.5449(4) -0.6367(4)
C3A C 0.0578(8) 0.5279(4) -0.5388(4)
C4A C 0.2019(8) 0.5646(4) -0.5119(4)
H2A H 0.2755 0.6020 -0.5600
C5A C 0.2341(8) 0.5456(5) -0.4158(4)
H3A H 0.3308 0.5688 -0.4001
S2 S 0.0656(2) -0.14457(13) -0.26589(12)
O4 O -0.1026(7) -0.1108(4) -0.2200(4)
O5 O 0.1097(6) -0.2563(3) -0.2371(3)
O6 O 0.1990(6) -0.0868(3) -0.2515(3)
C6 C 0.0167(8) -0.1766(5) -0.5336(5)
H4 H 0.0184 -0.2322 -0.5611
C7 C 0.0404(8) -0.1951(5) -0.4344(4)
H5 H 0.0575 -0.2631 -0.3969
C8 C 0.0388(8) -0.1142(5) -0.3915(4)
C9 C 0.0109(7) -0.0092(5) -0.4485(4)
C10 C 0.0088(8) 0.0775(5) -0.4104(5)
H6 H 0.0254 0.0668 -0.3449
S2A S -0.0656(2) 0.14457(13) -0.73411(12)
O4A O 0.1026(7) 0.1108(4) -0.7800(4)
O5A O -0.1097(6) 0.2563(3) -0.7629(3)
O6A O -0.1990(6) 0.0868(3) -0.7485(3)
C6A C -0.0167(8) 0.1766(5) -0.4664(5)
H4A H -0.0184 0.2322 -0.4389
C7A C -0.0404(8) 0.1951(5) -0.5656(4)
H5A H -0.0575 0.2631 -0.6031
C8A C -0.0388(8) 0.1142(5) -0.6085(4)
C9A C -0.0109(7) 0.0092(5) -0.5515(4)
C10A C -0.0088(8) -0.0775(5) -0.5896(5)
H6A H -0.0254 -0.0668 -0.6551
O7 O 0.0791(8) -0.0818(4) -0.0402(3)
H7 H 0.086(13) -0.0088(17) -0.050(5)
H8 H 0.067(10) -0.094(5) -0.102(2)
O8 O -0.3195(12) 0.1619(7) -0.1008(7)
H9 H -0.318(16) 0.090(3) -0.065(8)
O9 O -0.1716(14) 0.0752(8) -0.1608(7)
H10 H -0.127(15) 0.127(7) -0.215(5)
H11 H -0.21(3) 0.024(10) -0.187(8)
O10 O -0.3815(12) -0.0287(7) -0.1253(8)
H12 H -0.325(11) -0.063(6) -0.173(5)
H13 H -0.43(2) -0.080(5) -0.071(6)
N1 N -0.4755(7) 0.6887(4) -0.1952(4)
N2 N -0.6313(6) 0.5766(4) -0.0987(3)
N3 N -0.6822(6) 0.4172(4) -0.1176(3)
N4 N -0.7130(7) 0.2601(4) -0.1485(3)
N5 N -0.5776(7) 0.1884(4) -0.2591(4)
C11 C -0.3439(8) 0.7321(5) -0.2714(4)
H14 H -0.2420 0.6821 -0.2685
H15 H -0.3116 0.7942 -0.2586
C12 C -0.5288(8) 0.5956(4) -0.1805(5)
H16 H -0.4991 0.5509 -0.2211
C13 C -0.5486(8) 0.7314(5) -0.1200(5)
H17 H -0.5333 0.7963 -0.1126
C14 C -0.6461(9) 0.6623(5) -0.0592(5)
H18 H -0.7104 0.6702 -0.0022
C15 C -0.7078(8) 0.4824(5) -0.0594(4)
C16 C -0.8012(7) 0.4617(5) 0.0302(4)
H19 H -0.8179 0.5093 0.0682
C17 C -0.8689(8) 0.3675(5) 0.0613(5)
H20 H -0.9322 0.3511 0.1214
C18 C -0.8437(8) 0.2977(5) 0.0042(4)
H21 H -0.8882 0.2340 0.0238
C19 C -0.7486(8) 0.3279(5) -0.0838(4)
C20 C -0.5836(8) 0.2675(5) -0.2185(4)
H22 H -0.5100 0.3193 -0.2360
C21 C -0.7918(9) 0.1723(5) -0.1446(5)
H23 H -0.8852 0.1488 -0.1022
C22 C -0.7088(8) 0.1277(5) -0.2132(5)
H24 H -0.7339 0.0678 -0.2273
C23 C -0.4445(8) 0.1656(5) -0.3340(4)
H25 H -0.4032 0.0922 -0.3159
H26 H -0.3479 0.2042 -0.3357
C24 C -0.5059(8) 0.1921(4) -0.4339(4)
C25 C -0.4533(8) 0.1244(5) -0.4945(5)
H27 H -0.3867 0.0619 -0.4707
C26 C -0.4992(9) 0.1497(5) -0.5882(5)
H28 H -0.4634 0.1035 -0.6267
C27 C -0.5955(8) 0.2405(5) -0.6267(4)
C28 C -0.6466(8) 0.3095(5) -0.5688(5)
H29 H -0.7107 0.3725 -0.5945
C29 C -0.6029(9) 0.2858(5) -0.4725(5)
H30 H -0.6386 0.3325 -0.4345
N1A N -0.5245(7) 0.3113(4) -0.8048(4)
N2A N -0.3687(6) 0.4234(4) -0.9013(3)
N3A N -0.3178(6) 0.5828(4) -0.8824(3)
N4A N -0.2870(7) 0.7399(4) -0.8515(3)
N5A N -0.4224(7) 0.8116(4) -0.7409(4)
C11A C -0.6561(8) 0.2679(5) -0.7286(4)
H14A H -0.7580 0.3179 -0.7315
H15A H -0.6884 0.2058 -0.7414
C12A C -0.4712(8) 0.4044(4) -0.8195(5)
H16A H -0.5009 0.4491 -0.7789
C13A C -0.4514(8) 0.2686(5) -0.8800(5)
H17A H -0.4667 0.2037 -0.8874
C14A C -0.3539(9) 0.3377(5) -0.9408(5)
H18A H -0.2896 0.3298 -0.9978
C15A C -0.2922(8) 0.5176(5) -0.9406(4)
C16A C -0.1988(7) 0.5383(5) -1.0302(4)
H19A H -0.1821 0.4907 -1.0682
C17A C -0.1311(8) 0.6325(5) -1.0613(5)
H20A H -0.0678 0.6489 -1.1214
C18A C -0.1563(8) 0.7023(5) -1.0042(4)
H21A H -0.1118 0.7660 -1.0238
C19A C -0.2514(8) 0.6721(5) -0.9162(4)
C20A C -0.4164(8) 0.7325(5) -0.7815(4)
H22A H -0.4900 0.6807 -0.7640
C21A C -0.2082(9) 0.8277(5) -0.8554(5)
H23A H -0.1148 0.8512 -0.8978
C22A C -0.2912(8) 0.8723(5) -0.7868(5)
H24A H -0.2661 0.9322 -0.7727
C23A C -0.5555(8) 0.8344(5) -0.6660(4)
H25A H -0.5968 0.9078 -0.6841
H26A H -0.6521 0.7958 -0.6643
C24A C -0.4941(8) 0.8079(4) -0.5661(4)
C25A C -0.5467(8) 0.8756(5) -0.5055(5)
H27A H -0.6133 0.9381 -0.5293
C26A C -0.5008(9) 0.8503(5) -0.4118(5)
H28A H -0.5366 0.8965 -0.3733
C27A C -0.4045(8) 0.7595(5) -0.3733(4)
C28A C -0.3534(8) 0.6905(5) -0.4312(5)
H29A H -0.2893 0.6275 -0.4055
C29A C -0.3971(9) 0.7142(5) -0.5275(5)
H30A H -0.3614 0.6675 -0.5655
O11? O -0.3915(15) 0.1345(8) -0.0212(8)
H31? H -0.273(8) 0.109(14) -0.011(17)
H32? H -0.45(2) 0.076(9) -0.01(2)
H33? H -0.226(12) 0.167(9) -0.151(7)
loop_
_geom_bond_atom_site_label_1
_geom_bond_atom_site_label_2
_geom_bond_site_symmetry_1
_geom_bond_site_symmetry_2
S1 O1 1_555 1_555
O2 S1 1_555 1_555
O3 S1 1_555 1_555
C1 H1 1_555 1_555
C2 S1 1_555 1_555
C3 C2 1_555 1_555
C4 C3 1_555 1_555
H2 C4 1_555 1_555
C5 C4 1_555 1_555
H3 C5 1_555 1_555
S2 O4 1_555 1_555
O5 S2 1_555 1_555
O6 S2 1_555 1_555
C6 H4 1_555 1_555
C7 C6 1_555 1_555
H5 C7 1_555 1_555
C8 S2 1_555 1_555
C9 C8 1_555 1_555
C10 C9 1_555 1_555
H6 C10 1_555 1_555
O7 H7 1_555 1_555
H8 O7 1_555 1_555
O8 H9 1_555 1_555
O9 H10 1_555 1_555
H11 O9 1_555 1_555
O10 H12 1_555 1_555
H13 O10 1_555 1_555
N1 C11 1_555 1_555
N2 C12 1_555 1_555
N3 C15 1_555 1_555
N4 C19 1_555 1_555
N5 C20 1_555 1_555
C11 H14 1_555 1_555
H15 C11 1_555 1_555
C12 N1 1_555 1_555
H16 C12 1_555 1_555
C13 N1 1_555 1_555
H17 C13 1_555 1_555
C14 N2 1_555 1_555
H18 C14 1_555 1_555
C15 N2 1_555 1_555
C16 C15 1_555 1_555
H19 C16 1_555 1_555
C17 C16 1_555 1_555
H20 C17 1_555 1_555
C18 C17 1_555 1_555
H21 C18 1_555 1_555
C19 N3 1_555 1_555
C20 N4 1_555 1_555
H22 C20 1_555 1_555
C21 N4 1_555 1_555
H23 C21 1_555 1_555
C22 N5 1_555 1_555
H24 C22 1_555 1_555
C23 N5 1_555 1_555
H25 C23 1_555 1_555
H26 C23 1_555 1_555
C24 C23 1_555 1_555
C25 C24 1_555 1_555
H27 C25 1_555 1_555
C26 C25 1_555 1_555
H28 C26 1_555 1_555
C27 C26 1_555 1_555
C28 C27 1_555 1_555
H29 C28 1_555 1_555
C29 C24 1_555 1_555
H30 C29 1_555 1_555
S1A O1A 1_555 1_555
O2A S1A 1_555 1_555
O3A S1A 1_555 1_555
C1A C5 1_555 1_555
H1A C1A 1_555 1_555
C2A S1A 1_555 1_555
C3A C3 1_555 1_555
C4A C3A 1_555 1_555
H2A C4A 1_555 1_555
C5A C1 1_555 1_555
H3A C5A 1_555 1_555
S2A O4A 1_555 1_555
O5A S2A 1_555 1_555
O6A S2A 1_555 1_555
C6A C10 1_555 1_555
H4A C6A 1_555 1_555
C7A C6A 1_555 1_555
H5A C7A 1_555 1_555
C8A S2A 1_555 1_555
C9A C9 1_555 1_555
C10A C6 1_555 1_555
H6A C10A 1_555 1_555
N1A C11A 1_555 1_555
N2A C12A 1_555 1_555
N3A C15A 1_555 1_555
N4A C19A 1_555 1_555
N5A C20A 1_555 1_555
C11A C27 1_555 1_555
H14A C11A 1_555 1_555
H15A C11A 1_555 1_555
C12A N1A 1_555 1_555
H16A C12A 1_555 1_555
C13A N1A 1_555 1_555
H17A C13A 1_555 1_555
C14A N2A 1_555 1_555
H18A C14A 1_555 1_555
C15A N2A 1_555 1_555
C16A C15A 1_555 1_555
H19A C16A 1_555 1_555
C17A C16A 1_555 1_555
H20A C17A 1_555 1_555
C18A C17A 1_555 1_555
H21A C18A 1_555 1_555
C19A N3A 1_555 1_555
C20A N4A 1_555 1_555
H22A C20A 1_555 1_555
C21A N4A 1_555 1_555
H23A C21A 1_555 1_555
C22A N5A 1_555 1_555
H24A C22A 1_555 1_555
C23A N5A 1_555 1_555
H25A C23A 1_555 1_555
H26A C23A 1_555 1_555
C24A C23A 1_555 1_555
C25A C24A 1_555 1_555
H27A C25A 1_555 1_555
C26A C25A 1_555 1_555
H28A C26A 1_555 1_555
C27A C11 1_555 1_555
C28A C27A 1_555 1_555
H29A C28A 1_555 1_555
C29A C24A 1_555 1_555
H30A C29A 1_555 1_555
C1 C2 1_555 1_555
C7 C8 1_555 1_555
C13 C14 1_555 1_555
C18 C19 1_555 1_555
C21 C22 1_555 1_555
C28 C29 1_555 1_555
C1A C2A 1_555 1_555
C2A C3A 1_555 1_555
C4A C5A 1_555 1_555
C7A C8A 1_555 1_555
C8A C9A 1_555 1_555
C9A C10A 1_555 1_555
C13A C14A 1_555 1_555
C18A C19A 1_555 1_555
C21A C22A 1_555 1_555
C26A C27A 1_555 1_555
C28A C29A 1_555 1_555

#END
