
#######################################################################
#
#                 Cambridge Crystallographic Data Centre
#                                CCDC 
#
#######################################################################
#
# If this CIF has been generated from an entry in the Cambridge 
# Structural Database, then it will include bibliographic, chemical, 
# crystal, experimental, refinement or atomic coordinate data resulting 
# from the CCDC's data processing and validation procedures.
#
#######################################################################

data_KOVNOA
_chemical_formula_moiety         
'C38 H34 N10 4+,2(C12 H8 O6 S2 2-),C3 H7 N1 O1,5.5(H2 O1)'
_chemical_name_systematic        
"6,12,25,31,42,47-hexaaza-3,15,22,34-tetraazonianonacyclo[34.2.2.2^17,20^.1^3,6^.1^7,11^.1^12,15^.1^22,25^.1^26,30^.1^31,34^]octatetraconta-1(38),3(48),4,7(47),8,10,13,15(46),17,19,22(43),23,26(42),27,29,32,34(41),36,39,44-icosaene bis(biphenyl-4,4'-disulfonate) N,N-dimethylformamide solvate hydrate"
_symmetry_cell_setting           triclinic
_symmetry_space_group_name_H-M   'P -1'
_symmetry_Int_Tables_number      2
_space_group_name_Hall           '-P 1'
loop_
_symmetry_equiv_pos_site_id
_symmetry_equiv_pos_as_xyz
1 x,y,z
2 -x,-y,-z
_cell_length_a                   14.085(3)
_cell_length_b                   16.457(3)
_cell_length_c                   16.585(3)
_cell_angle_alpha                80.08(3)
_cell_angle_beta                 66.96(3)
_cell_angle_gamma                72.44(3)
_cell_volume                     3366.4
_exptl_crystal_colour            colorless
_exptl_crystal_description       Prism
_cell_formula_units_Z            2
loop_
_atom_site_label
_atom_site_type_symbol
_atom_site_fract_x
_atom_site_fract_y
_atom_site_fract_z
S1 S 1.74068(12) -0.09286(10) 0.54555(11)
S2 S 1.27596(12) 0.55513(9) 0.66163(10)
O1 O 1.7026(3) -0.1192(3) 0.4854(3)
O2 O 1.8511(3) -0.0858(3) 0.5043(3)
O3 O 1.7206(4) -0.1465(3) 0.6291(3)
O4 O 1.3038(3) 0.5842(2) 0.5682(3)
O5 O 1.3170(3) 0.5954(3) 0.7088(3)
O6 O 1.1611(3) 0.5597(2) 0.7058(3)
C1 C 1.6594(4) 0.0129(3) 0.5761(4)
C2 C 1.6949(5) 0.0681(4) 0.6072(4)
H1 H 1.7618 0.0505 0.6121
C3 C 1.6290(5) 0.1498(4) 0.6309(4)
H2 H 1.6528 0.1855 0.6522
C4 C 1.5290(4) 0.1790(4) 0.6233(4)
C5 C 1.4936(4) 0.1233(3) 0.5936(4)
H3 H 1.4264 0.1411 0.5893
C6 C 1.5579(5) 0.0407(4) 0.5703(4)
H4 H 1.5328 0.0044 0.5510
C7 C 1.4627(4) 0.2700(4) 0.6415(4)
C8 C 1.5124(5) 0.3355(4) 0.6310(4)
H5 H 1.5861 0.3216 0.6160
C9 C 1.4545(4) 0.4211(4) 0.6424(4)
H6 H 1.4889 0.4626 0.6381
C10 C 1.3440(4) 0.4436(3) 0.6604(3)
C11 C 1.2930(4) 0.3791(3) 0.6726(4)
H7 H 1.2194 0.3933 0.6872
C12 C 1.3512(4) 0.2936(4) 0.6631(4)
H8 H 1.3158 0.2517 0.6711
S3 S 1.61727(12) -0.41889(10) 0.82170(10)
S4 S 1.11159(14) 0.21599(10) 0.91785(11)
O7 O 1.6068(4) -0.4693(3) 0.9052(3)
O8 O 1.7232(3) -0.4020(3) 0.7770(3)
O9 O 1.5842(3) -0.4538(3) 0.7645(3)
O10 O 1.1553(4) 0.2651(3) 0.9538(3)
O11 O 1.1186(4) 0.2470(3) 0.8282(3)
O12 O 1.0030(4) 0.2109(3) 0.9767(3)
C13 C 1.5255(5) -0.3165(4) 0.8486(4)
C14 C 1.5498(6) -0.2596(4) 0.8846(5)
H9 H 1.6117 -0.2758 0.8976
C15 C 1.4818(6) -0.1773(5) 0.9020(5)
H10 H 1.5005 -0.1387 0.9241
C16 C 1.3870(5) -0.1530(4) 0.8864(4)
C17 C 1.3601(5) -0.2118(4) 0.8545(4)
H11 H 1.2954 -0.1970 0.8460
C18 C 1.4296(5) -0.2944(4) 0.8346(4)
H12 H 1.4112 -0.3333 0.8125
C19 C 1.3186(6) -0.0620(4) 0.8971(4)
C20 C 1.3659(6) 0.0066(4) 0.8664(5)
H13 H 1.4399 -0.0039 0.8416
C21 C 1.3025(5) 0.0907(4) 0.8729(5)
H14 H 1.3346 0.1356 0.8513
C22 C 1.1915(5) 0.1079(4) 0.9113(4)
C23 C 1.1447(6) 0.0403(4) 0.9422(5)
H15 H 1.0708 0.0512 0.9682
C24 C 1.2075(6) -0.0446(4) 0.9347(5)
H16 H 1.1749 -0.0894 0.9550
N1 N 1.3097(3) 0.3695(3) 0.4269(3)
N2 N 1.4688(3) 0.2832(3) 0.4021(3)
N3 N 1.6410(4) 0.2124(3) 0.3967(3)
N4 N 1.8121(4) 0.1504(3) 0.3984(3)
N5 N 1.9034(4) 0.2008(3) 0.4491(3)
N6 N 1.5453(4) 0.3142(3) 0.8763(3)
N7 N 1.3865(3) 0.3986(3) 0.8944(3)
N8 N 1.2152(3) 0.4657(3) 0.8936(3)
N9 N 1.0413(3) 0.5232(3) 0.8933(3)
N10 N 0.9474(3) 0.4683(3) 0.8492(3)
C25 C 1.3711(4) 0.2922(4) 0.3995(4)
H17 H 1.3502 0.2519 0.3818
C26 C 1.3693(4) 0.4112(4) 0.4481(4)
H18 H 1.3457 0.4656 0.4688
C27 C 1.4683(4) 0.3573(4) 0.4326(4)
H19 H 1.5251 0.3678 0.4409
C28 C 1.5567(4) 0.2081(3) 0.3798(3)
C29 C 1.5518(5) 0.1390(4) 0.3455(4)
H20 H 1.4911 0.1392 0.3356
C30 C 1.6416(5) 0.0689(4) 0.3264(4)
H21 H 1.6411 0.0211 0.3039
C31 C 1.7317(5) 0.0711(4) 0.3410(4)
H22 H 1.7932 0.0262 0.3272
C32 C 1.7254(4) 0.1436(4) 0.3772(4)
C33 C 1.8140(4) 0.2181(4) 0.4323(4)
H23 H 1.7610 0.2692 0.4424
C34 C 1.9065(5) 0.0869(4) 0.3935(4)
H24 H 1.9267 0.0332 0.3721
C35 C 1.9629(5) 0.1178(4) 0.4254(4)
H25 H 2.0284 0.0894 0.4305
C36 C 1.9330(5) 0.2601(4) 0.4897(4)
H26 H 1.9227 0.3164 0.4600
H27 H 2.0078 0.2391 0.4828
C37 C 1.8648(4) 0.2660(4) 0.5863(4)
C38 C 1.8783(5) 0.1983(4) 0.6473(4)
H28 H 1.9324 0.1489 0.6288
C39 C 1.8124(5) 0.2030(4) 0.7355(5)
H29 H 1.8219 0.1562 0.7746
C40 C 1.7316(5) 0.2775(4) 0.7661(4)
C41 C 1.7211(4) 0.3462(4) 0.7054(4)
H30 H 1.6708 0.3972 0.7246
C42 C 1.7843(5) 0.3403(4) 0.6167(4)
H31 H 1.7729 0.3862 0.5771
C43 C 1.6615(4) 0.2838(4) 0.8637(4)
H32 H 1.6751 0.2282 0.8942
H33 H 1.6800 0.3231 0.8890
C44 C 1.4861(4) 0.3940(4) 0.8906(4)
H34 H 1.5090 0.4391 0.8969
C45 C 1.4837(5) 0.2650(4) 0.8708(4)
H35 H 1.5060 0.2070 0.8616
C46 C 1.3840(5) 0.3177(4) 0.8816(4)
H36 H 1.3260 0.3025 0.8806
C47 C 1.2986(4) 0.4742(4) 0.9089(4)
C48 C 1.3027(5) 0.5474(4) 0.9392(3)
H37 H 1.3616 0.5492 0.9506
C49 C 1.2135(5) 0.6173(4) 0.9511(4)
H38 H 1.2123 0.6678 0.9699
C50 C 1.1262(5) 0.6108(4) 0.9345(4)
H39 H 1.0664 0.6568 0.9414
C51 C 1.1313(4) 0.5340(4) 0.9074(3)
C52 C 1.0424(4) 0.4549(4) 0.8577(3)
H40 H 1.0992 0.4067 0.8418
C53 C 0.9427(4) 0.5818(4) 0.9068(4)
H41 H 0.9207 0.6346 0.9304
C54 C 0.8844(5) 0.5481(4) 0.8793(4)
H42 H 0.8154 0.5736 0.8804
C55 C 0.9182(5) 0.4116(4) 0.8062(4)
H43 H 0.8431 0.4324 0.8143
H44 H 0.9301 0.3542 0.8333
C56 C 0.9857(4) 0.4100(4) 0.7080(4)
C57 C 1.0334(4) 0.3330(4) 0.6672(4)
H45 H 1.0209 0.2825 0.6990
C58 C 1.0995(5) 0.3313(4) 0.5790(4)
H46 H 1.1308 0.2793 0.5528
C59 C 1.1198(4) 0.4061(4) 0.5292(4)
C60 C 1.0702(4) 0.4830(4) 0.5698(4)
H47 H 1.0815 0.5336 0.5375
C61 C 1.0040(4) 0.4855(4) 0.6577(4)
H48 H 0.9716 0.5377 0.6835
C62 C 1.1963(4) 0.4027(4) 0.4341(4)
H49 H 1.1800 0.3663 0.4038
H50 H 1.1861 0.4595 0.4056
N11 N 1.7182(6) -0.0562(4) 0.8673(4)
O13 O 1.5979(7) 0.0727(4) 0.8952(5)
C63 C 1.6329(10) -0.0013(8) 0.9166(7)
H51 H 1.5964 -0.0213 0.9729
C64 C 1.7820(12) -0.0363(8) 0.7830(7)
H52 H 1.7541 0.0221 0.7663
H53 H 1.7827 -0.0729 0.7434
H54 H 1.8534 -0.0444 0.7807
C65 C 1.7546(9) -0.1457(6) 0.9001(7)
H55 H 1.7067 -0.1550 0.9587
H56 H 1.8253 -0.1554 0.9002
H57 H 1.7553 -0.1843 0.8625
O14 O 1.0265(4) 0.7276(3) 0.7546(3)
O15 O 0.8684(6) 0.1973(5) 0.9026(5)
O16 O 0.9371(5) 0.1466(3) 1.1619(4)
O17 O 0.9986(4) 0.0389(4) 0.7916(4)
O18 O 1.1697(5) 0.1233(3) 0.7050(3)
O19 O 1.8461(4) -0.2774(3) 0.7083(3)
loop_
_geom_bond_atom_site_label_1
_geom_bond_atom_site_label_2
_geom_bond_site_symmetry_1
_geom_bond_site_symmetry_2
S1 O1 1_555 1_555
S2 O4 1_555 1_555
O2 S1 1_555 1_555
O3 S1 1_555 1_555
O5 S2 1_555 1_555
O6 S2 1_555 1_555
C1 S1 1_555 1_555
C2 C1 1_555 1_555
H1 C2 1_555 1_555
C3 C2 1_555 1_555
H2 C3 1_555 1_555
C4 C3 1_555 1_555
C5 C4 1_555 1_555
H3 C5 1_555 1_555
C6 C1 1_555 1_555
H4 C6 1_555 1_555
C7 C4 1_555 1_555
C8 C7 1_555 1_555
H5 C8 1_555 1_555
C9 C8 1_555 1_555
H6 C9 1_555 1_555
C10 S2 1_555 1_555
C11 C10 1_555 1_555
H7 C11 1_555 1_555
C12 C7 1_555 1_555
H8 C12 1_555 1_555
S3 O7 1_555 1_555
S4 O10 1_555 1_555
O8 S3 1_555 1_555
O9 S3 1_555 1_555
O11 S4 1_555 1_555
O12 S4 1_555 1_555
C13 S3 1_555 1_555
C14 C13 1_555 1_555
H9 C14 1_555 1_555
C15 C14 1_555 1_555
H10 C15 1_555 1_555
C16 C15 1_555 1_555
C17 C16 1_555 1_555
H11 C17 1_555 1_555
C18 C13 1_555 1_555
H12 C18 1_555 1_555
C19 C16 1_555 1_555
C20 C19 1_555 1_555
H13 C20 1_555 1_555
C21 C20 1_555 1_555
H14 C21 1_555 1_555
C22 S4 1_555 1_555
C23 C22 1_555 1_555
H15 C23 1_555 1_555
C24 C19 1_555 1_555
H16 C24 1_555 1_555
N1 C25 1_555 1_555
N2 C25 1_555 1_555
N3 C28 1_555 1_555
N4 C32 1_555 1_555
N5 C33 1_555 1_555
N6 C43 1_555 1_555
N7 C44 1_555 1_555
N8 C47 1_555 1_555
N9 C51 1_555 1_555
N10 C52 1_555 1_555
C25 H17 1_555 1_555
C26 N1 1_555 1_555
H18 C26 1_555 1_555
C27 N2 1_555 1_555
H19 C27 1_555 1_555
C28 N2 1_555 1_555
C29 C28 1_555 1_555
H20 C29 1_555 1_555
C30 C29 1_555 1_555
H21 C30 1_555 1_555
C31 C30 1_555 1_555
H22 C31 1_555 1_555
C32 N3 1_555 1_555
C33 N4 1_555 1_555
H23 C33 1_555 1_555
C34 N4 1_555 1_555
H24 C34 1_555 1_555
C35 N5 1_555 1_555
H25 C35 1_555 1_555
C36 N5 1_555 1_555
H26 C36 1_555 1_555
H27 C36 1_555 1_555
C37 C36 1_555 1_555
C38 C37 1_555 1_555
H28 C38 1_555 1_555
C39 C38 1_555 1_555
H29 C39 1_555 1_555
C40 C39 1_555 1_555
C41 C40 1_555 1_555
H30 C41 1_555 1_555
C42 C37 1_555 1_555
H31 C42 1_555 1_555
C43 C40 1_555 1_555
H32 C43 1_555 1_555
H33 C43 1_555 1_555
C44 N6 1_555 1_555
H34 C44 1_555 1_555
C45 N6 1_555 1_555
H35 C45 1_555 1_555
C46 N7 1_555 1_555
H36 C46 1_555 1_555
C47 N7 1_555 1_555
C48 C47 1_555 1_555
H37 C48 1_555 1_555
C49 C48 1_555 1_555
H38 C49 1_555 1_555
C50 C49 1_555 1_555
H39 C50 1_555 1_555
C51 N8 1_555 1_555
C52 N9 1_555 1_555
H40 C52 1_555 1_555
C53 N9 1_555 1_555
H41 C53 1_555 1_555
C54 N10 1_555 1_555
H42 C54 1_555 1_555
C55 N10 1_555 1_555
H43 C55 1_555 1_555
H44 C55 1_555 1_555
C56 C55 1_555 1_555
C57 C56 1_555 1_555
H45 C57 1_555 1_555
C58 C57 1_555 1_555
H46 C58 1_555 1_555
C59 C58 1_555 1_555
C60 C59 1_555 1_555
H47 C60 1_555 1_555
C61 C56 1_555 1_555
H48 C61 1_555 1_555
C62 N1 1_555 1_555
H49 C62 1_555 1_555
H50 C62 1_555 1_555
N11 C63 1_555 1_555
O13 C63 1_555 1_555
C63 H51 1_555 1_555
C64 N11 1_555 1_555
H52 C64 1_555 1_555
H53 C64 1_555 1_555
H54 C64 1_555 1_555
C65 N11 1_555 1_555
H55 C65 1_555 1_555
H56 C65 1_555 1_555
H57 C65 1_555 1_555
C5 C6 1_555 1_555
C9 C10 1_555 1_555
C11 C12 1_555 1_555
C17 C18 1_555 1_555
C21 C22 1_555 1_555
C23 C24 1_555 1_555
C26 C27 1_555 1_555
C31 C32 1_555 1_555
C34 C35 1_555 1_555
C41 C42 1_555 1_555
C45 C46 1_555 1_555
C50 C51 1_555 1_555
C53 C54 1_555 1_555
C59 C62 1_555 1_555
C60 C61 1_555 1_555

#END
