
#######################################################################
#
#                 Cambridge Crystallographic Data Centre
#                                CCDC 
#
#######################################################################
#
# If this CIF has been generated from an entry in the Cambridge 
# Structural Database, then it will include bibliographic, chemical, 
# crystal, experimental, refinement or atomic coordinate data resulting 
# from the CCDC's data processing and validation procedures.
#
#######################################################################

data_KOVRES
_chemical_formula_moiety         'C15 H24 O2 S1'
_chemical_name_systematic        't-Butyl 1-hydroxy-1-phenyl-2-pentyl sulfoxide'
_symmetry_cell_setting           monoclinic
_symmetry_space_group_name_H-M   'P 21/c'
_symmetry_Int_Tables_number      14
_space_group_name_Hall           '-P 2ybc'
loop_
_symmetry_equiv_pos_site_id
_symmetry_equiv_pos_as_xyz
1 x,y,z
2 -x,1/2+y,1/2-z
3 -x,-y,-z
4 x,1/2-y,1/2+z
_cell_length_a                   17.949(3)
_cell_length_b                   5.7248(11)
_cell_length_c                   17.173(3)
_cell_angle_alpha                90
_cell_angle_beta                 117.701(11)
_cell_angle_gamma                90
_cell_volume                     1562.35
_exptl_crystal_colour            colorless
_cell_formula_units_Z            4
loop_
_atom_site_label
_atom_site_type_symbol
_atom_site_fract_x
_atom_site_fract_y
_atom_site_fract_z
S1 S 0.1831(1) 0.0256(1) 0.5092(1)
O1 O 0.1347(1) -0.1439(3) 0.5354(1)
O2 O 0.1469(1) 0.1220(3) 0.6679(1)
C1 C 0.0622(2) 0.0175(4) 0.3437(2)
C2 C 0.1050(1) 0.1983(3) 0.4164(1)
C3 C 0.0413(2) 0.3135(4) 0.4391(2)
C4 C 0.1536(2) 0.3747(4) 0.3911(1)
C5 C 0.2308(1) 0.2478(4) 0.5974(1)
C6 C 0.3236(5) 0.2685(10) 0.6119(5)
C8 C 0.3539(2) 0.5260(7) 0.6313(3)
C10 C 0.4424(3) 0.5434(10) 0.6404(3)
C12 C 0.2300(1) 0.1524(3) 0.6807(1)
C13 C 0.2738(1) 0.3123(4) 0.7585(1)
C14 C 0.3499(2) 0.2516(5) 0.8287(2)
C15 C 0.3886(2) 0.3952(6) 0.9010(2)
C16 C 0.3517(2) 0.6027(6) 0.9037(2)
C17 C 0.2766(2) 0.6663(5) 0.8346(2)
C18 C 0.2373(2) 0.5225(4) 0.7618(2)
H1 H 0.1203 0.0331 0.6239
H2 H 0.0199 0.0914 0.2917
H3 H 0.1037 -0.0528 0.3307
H4 H 0.0366 -0.1006 0.3631
H5 H 0.0016 0.4017 0.3895
H6 H 0.0120 0.1961 0.4541
H7 H 0.0703 0.4162 0.4883
H8 H 0.1152 0.4688 0.3427
H9 H 0.1860 0.4733 0.4407
H10 H 0.1906 0.2929 0.3744
H11 H 0.1997 0.3915 0.5801
H13 H 0.3126 0.2978 0.5525
H16 H 0.3235 0.6595 0.5978
H17 H 0.3593 0.5455 0.6892
H20 H 0.4671 0.6899 0.6672
H21 H 0.4762 0.4177 0.6765
H22 H 0.4398 0.5338 0.5833
H26 H 0.2584 0.0043 0.6944
H27 H 0.3760 0.1074 0.8261
H28 H 0.4408 0.3482 0.9497
H29 H 0.3794 0.7039 0.9536
H30 H 0.2508 0.8112 0.8368
H31 H 0.1846 0.5674 0.7133
C7? C 0.3092(10) 0.3612(23) 0.6042(8)
C9? C 0.3800(6) 0.2024(22) 0.6345(8)
C11? C 0.4603(8) 0.3389(26) 0.6377(10)
H12? H 0.3386 0.4186 0.6399
H14? H 0.2940 0.3790 0.5430
H15? H 0.3491 0.2353 0.6240
H18? H 0.3754 0.0679 0.5991
H19? H 0.3950 0.1473 0.6927
H23? H 0.5111 0.2481 0.6617
H24? H 0.4478 0.3911 0.5798
H25? H 0.4677 0.4716 0.6747
loop_
_geom_bond_atom_site_label_1
_geom_bond_atom_site_label_2
_geom_bond_site_symmetry_1
_geom_bond_site_symmetry_2
S1 O1 1_555 1_555
O2 C12 1_555 1_555
C1 C2 1_555 1_555
C2 S1 1_555 1_555
C3 C2 1_555 1_555
C4 C2 1_555 1_555
C5 S1 1_555 1_555
C6 C5 1_555 1_555
C8 C6 1_555 1_555
C10 C8 1_555 1_555
C12 C5 1_555 1_555
C13 C12 1_555 1_555
C14 C13 1_555 1_555
C15 C14 1_555 1_555
C16 C15 1_555 1_555
C17 C16 1_555 1_555
C18 C13 1_555 1_555
H1 O2 1_555 1_555
H2 C1 1_555 1_555
H3 C1 1_555 1_555
H4 C1 1_555 1_555
H5 C3 1_555 1_555
H6 C3 1_555 1_555
H7 C3 1_555 1_555
H8 C4 1_555 1_555
H9 C4 1_555 1_555
H10 C4 1_555 1_555
H11 C5 1_555 1_555
H13 C6 1_555 1_555
H16 C8 1_555 1_555
H17 C8 1_555 1_555
H20 C10 1_555 1_555
H21 C10 1_555 1_555
H22 C10 1_555 1_555
H26 C12 1_555 1_555
H27 C14 1_555 1_555
H28 C15 1_555 1_555
H29 C16 1_555 1_555
H30 C17 1_555 1_555
H31 C18 1_555 1_555
C17 C18 1_555 1_555

#END
