
#######################################################################
#
#                 Cambridge Crystallographic Data Centre
#                                CCDC 
#
#######################################################################
#
# If this CIF has been generated from an entry in the Cambridge 
# Structural Database, then it will include bibliographic, chemical, 
# crystal, experimental, refinement or atomic coordinate data resulting 
# from the CCDC's data processing and validation procedures.
#
#######################################################################

data_KOVRAO
_chemical_formula_moiety         'C18 H22 O2 S1'
_chemical_name_systematic        '1-Hydroxy-1-phenyl-2-pentyl p-tolyl sulfoxide'
_symmetry_cell_setting           monoclinic
_symmetry_space_group_name_H-M   'P 21/n'
_symmetry_Int_Tables_number      14
_space_group_name_Hall           '-P 2yn'
loop_
_symmetry_equiv_pos_site_id
_symmetry_equiv_pos_as_xyz
1 x,y,z
2 1/2-x,1/2+y,1/2-z
3 -x,-y,-z
4 1/2+x,1/2-y,1/2+z
_cell_length_a                   12.880(7)
_cell_length_b                   7.903(3)
_cell_length_c                   17.559(9)
_cell_angle_alpha                90
_cell_angle_beta                 102.79(4)
_cell_angle_gamma                90
_cell_volume                     1742.99
_exptl_crystal_colour            colorless
_cell_formula_units_Z            4
loop_
_atom_site_label
_atom_site_type_symbol
_atom_site_fract_x
_atom_site_fract_y
_atom_site_fract_z
S1 S 0.3550(1) 0.2405(1) 0.4141(1)
O1 O 0.3775(2) -0.0455(3) 0.5264(1)
O2 O 0.4707(2) 0.2846(3) 0.4267(1)
C1 C 0.3999(3) 0.1137(5) 0.5614(2)
C2 C 0.3246(3) 0.2392(5) 0.5106(2)
C3 C 0.2051(3) 0.1910(5) 0.5009(2)
C4 C 0.1450(4) 0.3116(8) 0.5372(3)
C5 C 0.0303(4) 0.2586(8) 0.5308(3)
C6 C 0.3890(3) 0.1206(5) 0.6450(2)
C7 C 0.4285(3) 0.2559(5) 0.6918(2)
C8 C 0.4178(3) 0.2640(6) 0.7685(2)
C9 C 0.3683(3) 0.1368(7) 0.7992(3)
C10 C 0.3298(3) 0.0006(6) 0.7534(3)
C11 C 0.3402(3) -0.0080(5) 0.6767(2)
C12 C 0.2830(3) 0.4268(5) 0.3778(2)
C13 C 0.1935(3) 0.4103(5) 0.3184(2)
C14 C 0.1353(3) 0.5533(5) 0.2907(2)
C15 C 0.1652(3) 0.7106(5) 0.3203(2)
C16 C 0.2566(3) 0.7239(5) 0.3785(2)
C17 C 0.3155(3) 0.5845(5) 0.4071(2)
C18 C 0.0990(3) 0.8637(5) 0.2921(2)
H1 H 0.4286 -0.1129 0.5440
H2 H 0.4718 0.1436 0.5601
H3 H 0.3354 0.3503 0.5330
H4 H 0.2013 0.0834 0.5256
H5 H 0.1728 0.1795 0.4464
H6 H 0.1452 0.4176 0.5105
H7 H 0.1797 0.3280 0.5910
H8 H -0.0071 0.3424 0.5539
H9 H -0.0044 0.2436 0.4769
H10 H 0.0304 0.1532 0.5580
H11 H 0.4636 0.3458 0.6706
H12 H 0.4453 0.3591 0.8007
H13 H 0.3607 0.1420 0.8524
H14 H 0.2945 -0.0888 0.7747
H15 H 0.3140 -0.1046 0.6451
H16 H 0.1730 0.3010 0.2964
H17 H 0.0725 0.5418 0.2498
H18 H 0.2793 0.8340 0.3986
H19 H 0.3784 0.5953 0.4480
H20 H 0.0387 0.8319 0.2519
H21 H 0.0749 0.9135 0.3350
H22 H 0.1415 0.9442 0.2716
loop_
_geom_bond_atom_site_label_1
_geom_bond_atom_site_label_2
_geom_bond_site_symmetry_1
_geom_bond_site_symmetry_2
S1 O2 1_555 1_555
O1 C1 1_555 1_555
C1 C2 1_555 1_555
C2 S1 1_555 1_555
C3 C2 1_555 1_555
C4 C3 1_555 1_555
C5 C4 1_555 1_555
C6 C1 1_555 1_555
C7 C6 1_555 1_555
C8 C7 1_555 1_555
C9 C8 1_555 1_555
C10 C9 1_555 1_555
C11 C6 1_555 1_555
C12 S1 1_555 1_555
C13 C12 1_555 1_555
C14 C13 1_555 1_555
C15 C14 1_555 1_555
C16 C15 1_555 1_555
C17 C12 1_555 1_555
C18 C15 1_555 1_555
H1 O1 1_555 1_555
H2 C1 1_555 1_555
H3 C2 1_555 1_555
H4 C3 1_555 1_555
H5 C3 1_555 1_555
H6 C4 1_555 1_555
H7 C4 1_555 1_555
H8 C5 1_555 1_555
H9 C5 1_555 1_555
H10 C5 1_555 1_555
H11 C7 1_555 1_555
H12 C8 1_555 1_555
H13 C9 1_555 1_555
H14 C10 1_555 1_555
H15 C11 1_555 1_555
H16 C13 1_555 1_555
H17 C14 1_555 1_555
H18 C16 1_555 1_555
H19 C17 1_555 1_555
H20 C18 1_555 1_555
H21 C18 1_555 1_555
H22 C18 1_555 1_555
C10 C11 1_555 1_555
C16 C17 1_555 1_555

#END
