
#######################################################################
#
#                 Cambridge Crystallographic Data Centre
#                                CCDC 
#
#######################################################################
#
# If this CIF has been generated from an entry in the Cambridge 
# Structural Database, then it will include bibliographic, chemical, 
# crystal, experimental, refinement or atomic coordinate data resulting 
# from the CCDC's data processing and validation procedures.
#
#######################################################################

data_KOVTIA
_chemical_formula_moiety         
'2(C19 H18 N1 1+),C12 H8 O8 S2 2-,2(C1 H4 O1),H2 O1'
_chemical_name_systematic        
"bis(triphenylmethanaminium) 4,4'-dihydroxybiphenyl-3,3'-disulfonate methanol solvate monohydrate"
_symmetry_cell_setting           triclinic
_symmetry_space_group_name_H-M   'P -1'
_symmetry_Int_Tables_number      2
_space_group_name_Hall           '-P 1'
loop_
_symmetry_equiv_pos_site_id
_symmetry_equiv_pos_as_xyz
1 x,y,z
2 -x,-y,-z
_cell_length_a                   13.0823(9)
_cell_length_b                   13.6545(8)
_cell_length_c                   14.8789(7)
_cell_angle_alpha                98.884(5)
_cell_angle_beta                 94.355(5)
_cell_angle_gamma                110.469(6)
_cell_volume                     2435.8
_exptl_crystal_colour            colorless
_exptl_crystal_description       prism
_cell_formula_units_Z            2
loop_
_atom_site_label
_atom_site_type_symbol
_atom_site_fract_x
_atom_site_fract_y
_atom_site_fract_z
S1 S 0.50919(5) 1.42870(4) 0.19352(4)
S2 S 0.37529(5) 0.73169(4) 0.20857(4)
O1 O 0.45914(14) 1.42272(13) 0.27745(11)
O2 O 0.43694(17) 1.43671(16) 0.11948(12)
O3 O 0.61815(15) 1.50984(13) 0.20831(13)
O4 O 0.61097(18) 1.36303(14) 0.03379(12)
H1 H 0.633(3) 1.341(2) -0.0151(14)
O5 O 0.30853(15) 0.71260(14) 0.12144(12)
O6 O 0.48155(15) 0.72687(15) 0.19756(16)
O7 O 0.31732(16) 0.66455(13) 0.26994(12)
O8 O 0.35672(19) 0.81984(14) 0.41356(12)
H2 H 0.341(3) 0.7584(14) 0.3803(19)
C1 C 0.52810(17) 1.30617(16) 0.16218(14)
C2 C 0.57875(19) 1.28698(17) 0.08544(15)
C3 C 0.5972(2) 1.19219(18) 0.06622(16)
H3 H 0.6322 1.1792 0.0161
C4 C 0.5641(2) 1.11731(18) 0.12109(16)
H4 H 0.5786 1.0550 0.1080
C5 C 0.50919(18) 1.13270(17) 0.19568(15)
C6 C 0.49275(17) 1.22916(16) 0.21534(14)
H5 H 0.4573 1.2419 0.2652
C7 C 0.46762(18) 1.05003(17) 0.25176(15)
C8 C 0.43736(18) 0.94281(17) 0.21359(15)
H6 H 0.4424 0.9234 0.1518
C9 C 0.39972(18) 0.86341(17) 0.26464(15)
C10 C 0.3906(2) 0.89122(18) 0.35723(16)
C11 C 0.4181(2) 0.99804(19) 0.39548(16)
H7 H 0.4104 1.0174 0.4566
C12 C 0.4566(2) 1.07545(18) 0.34449(15)
H8 H 0.4759 1.1465 0.3721
O9 O 0.32266(17) 1.39500(15) -0.05125(12)
H9 H 0.344(2) 1.4448(19) -0.0811(18)
H10 H 0.3717(19) 1.406(2) -0.0058(15)
O10 O 0.6790(2) 0.67276(16) 0.36906(15)
H11 H 0.661(3) 0.6085(12) 0.342(2)
C13 C 0.5926(3) 0.6888(3) 0.4095(3)
H12 H 0.5258 0.6556 0.3669
H13 H 0.6080 0.7638 0.4260
H14 H 0.5843 0.6581 0.4636
O11 O 0.1587(2) 1.3734(2) 0.06184(15)
H15 H 0.212(2) 1.376(4) 0.031(3)
C14 C 0.0993(4) 1.4300(5) 0.0238(3)
H16 H 0.1238 1.5012 0.0588
H17 H 0.0221 1.3947 0.0254
H18 H 0.1120 1.4323 -0.0387
N1 N 0.25080(15) 1.44069(15) 0.24932(13)
H19 H 0.2208(16) 1.4154(15) 0.1926(8)
H20 H 0.3127(12) 1.4305(16) 0.2549(15)
H21 H 0.2679(17) 1.5092(8) 0.2580(14)
C15 C 0.17430(18) 1.39052(17) 0.31518(15)
C16 C 0.18267(18) 1.28183(18) 0.31782(18)
C17 C 0.1782(2) 1.2138(2) 0.2368(2)
H22 H 0.1721 1.2351 0.1809
C18 C 0.1828(3) 1.1137(2) 0.2388(3)
H23 H 0.1800 1.0687 0.1842
C19 C 0.1914(3) 1.0813(3) 0.3206(4)
H24 H 0.1943 1.0144 0.3217
C20 C 0.1957(3) 1.1469(3) 0.3994(3)
H25 H 0.2013 1.1246 0.4549
C21 C 0.1918(2) 1.2470(2) 0.3994(2)
H26 H 0.1953 1.2911 0.4547
C22 C 0.21458(19) 1.46573(18) 0.40914(15)
C23 C 0.3242(2) 1.5041(2) 0.44606(17)
H27 H 0.3743 1.4859 0.4126
C24 C 0.3609(2) 1.5694(2) 0.53230(19)
H28 H 0.4353 1.5945 0.5558
C25 C 0.2908(3) 1.5964(4) 0.5818(2)
H29 H 0.3158 1.6400 0.6396
C26 C 0.1827(3) 1.5595(5) 0.5469(3)
H30 H 0.1333 1.5777 0.5813
C27 C 0.1446(3) 1.4948(4) 0.4606(2)
H31 H 0.0701 1.4710 0.4375
C28 C 0.05790(19) 1.38005(19) 0.27795(15)
C29 C -0.0324(2) 1.2897(2) 0.27772(19)
H32 H -0.0229 1.2324 0.2989
C30 C -0.1373(2) 1.2835(3) 0.2461(2)
H33 H -0.1974 1.2218 0.2459
C31 C -0.1533(2) 1.3662(3) 0.2154(2)
H34 H -0.2239 1.3612 0.1940
C32 C -0.0648(3) 1.4568(3) 0.2163(2)
H35 H -0.0753 1.5141 0.1958
C33 C 0.0404(2) 1.4640(2) 0.2476(2)
H36 H 0.1001 1.5263 0.2481
N2 N 0.70458(16) 0.76113(16) 0.21011(14)
H37 H 0.703(2) 0.7330(18) 0.2586(9)
H38 H 0.6439(14) 0.7735(19) 0.2031(14)
H39 H 0.701(2) 0.7135(16) 0.1635(10)
C34 C 0.80700(17) 0.85954(18) 0.21929(15)
C35 C 0.90339(19) 0.82089(19) 0.22510(17)
C36 C 0.9734(2) 0.8288(2) 0.1597(2)
H40 H 0.9625 0.8582 0.1091
C37 C 1.0604(3) 0.7933(3) 0.1688(3)
H41 H 1.1074 0.7994 0.1244
C38 C 1.0773(3) 0.7500(3) 0.2415(4)
H42 H 1.1364 0.7273 0.2472
C39 C 1.0084(3) 0.7392(3) 0.3066(3)
H43 H 1.0195 0.7082 0.3561
C40 C 0.9212(2) 0.7747(2) 0.2986(2)
H44 H 0.8743 0.7675 0.3431
C41 C 0.80920(18) 0.93820(18) 0.30668(15)
C42 C 0.9036(2) 0.9928(2) 0.36875(17)
H45 H 0.9670 0.9781 0.3608
C43 C 0.9057(2) 1.0689(2) 0.44257(19)
H46 H 0.9700 1.1046 0.4838
C44 C 0.8132(3) 1.0919(2) 0.45514(19)
H47 H 0.8142 1.1424 0.5052
C45 C 0.7192(2) 1.0399(2) 0.39326(19)
H48 H 0.6566 1.0560 0.4008
C46 C 0.7173(2) 0.9635(2) 0.31961(18)
H49 H 0.6531 0.9287 0.2781
C47 C 0.79930(19) 0.91312(19) 0.13723(16)
C48 C 0.7183(2) 0.8691(2) 0.06292(18)
H50 H 0.6662 0.8012 0.0593
C49 C 0.7127(3) 0.9240(3) -0.0065(2)
H51 H 0.6566 0.8928 -0.0559
C50 C 0.7880(3) 1.0230(3) -0.0037(2)
H52 H 0.7832 1.0598 -0.0505
C51 C 0.8712(3) 1.0680(3) 0.0690(2)
H53 H 0.9240 1.1351 0.0710
C52 C 0.8767(3) 1.0138(2) 0.13926(19)
H54 H 0.9331 1.0453 0.1885
loop_
_geom_bond_atom_site_label_1
_geom_bond_atom_site_label_2
_geom_bond_site_symmetry_1
_geom_bond_site_symmetry_2
S1 O1 1_555 1_555
S2 O5 1_555 1_555
O2 S1 1_555 1_555
O3 S1 1_555 1_555
O4 H1 1_555 1_555
O6 S2 1_555 1_555
O7 S2 1_555 1_555
O8 H2 1_555 1_555
C1 S1 1_555 1_555
C2 O4 1_555 1_555
C3 C2 1_555 1_555
H3 C3 1_555 1_555
C4 C3 1_555 1_555
H4 C4 1_555 1_555
C5 C4 1_555 1_555
C6 C1 1_555 1_555
H5 C6 1_555 1_555
C7 C5 1_555 1_555
C8 C7 1_555 1_555
H6 C8 1_555 1_555
C9 S2 1_555 1_555
C10 O8 1_555 1_555
C11 C10 1_555 1_555
H7 C11 1_555 1_555
C12 C7 1_555 1_555
H8 C12 1_555 1_555
O9 H9 1_555 1_555
H10 O9 1_555 1_555
O10 H11 1_555 1_555
C13 O10 1_555 1_555
H12 C13 1_555 1_555
H13 C13 1_555 1_555
H14 C13 1_555 1_555
O11 H15 1_555 1_555
C14 O11 1_555 1_555
H16 C14 1_555 1_555
H17 C14 1_555 1_555
H18 C14 1_555 1_555
N1 H19 1_555 1_555
H20 N1 1_555 1_555
H21 N1 1_555 1_555
C15 N1 1_555 1_555
C16 C15 1_555 1_555
C17 C16 1_555 1_555
H22 C17 1_555 1_555
C18 C17 1_555 1_555
H23 C18 1_555 1_555
C19 C18 1_555 1_555
H24 C19 1_555 1_555
C20 C19 1_555 1_555
H25 C20 1_555 1_555
C21 C16 1_555 1_555
H26 C21 1_555 1_555
C22 C15 1_555 1_555
C23 C22 1_555 1_555
H27 C23 1_555 1_555
C24 C23 1_555 1_555
H28 C24 1_555 1_555
C25 C24 1_555 1_555
H29 C25 1_555 1_555
C26 C25 1_555 1_555
H30 C26 1_555 1_555
C27 C22 1_555 1_555
H31 C27 1_555 1_555
C28 C15 1_555 1_555
C29 C28 1_555 1_555
H32 C29 1_555 1_555
C30 C29 1_555 1_555
H33 C30 1_555 1_555
C31 C30 1_555 1_555
H34 C31 1_555 1_555
C32 C31 1_555 1_555
H35 C32 1_555 1_555
C33 C28 1_555 1_555
H36 C33 1_555 1_555
N2 H37 1_555 1_555
H38 N2 1_555 1_555
H39 N2 1_555 1_555
C34 N2 1_555 1_555
C35 C34 1_555 1_555
C36 C35 1_555 1_555
H40 C36 1_555 1_555
C37 C36 1_555 1_555
H41 C37 1_555 1_555
C38 C37 1_555 1_555
H42 C38 1_555 1_555
C39 C38 1_555 1_555
H43 C39 1_555 1_555
C40 C35 1_555 1_555
H44 C40 1_555 1_555
C41 C34 1_555 1_555
C42 C41 1_555 1_555
H45 C42 1_555 1_555
C43 C42 1_555 1_555
H46 C43 1_555 1_555
C44 C43 1_555 1_555
H47 C44 1_555 1_555
C45 C44 1_555 1_555
H48 C45 1_555 1_555
C46 C41 1_555 1_555
H49 C46 1_555 1_555
C47 C34 1_555 1_555
C48 C47 1_555 1_555
H50 C48 1_555 1_555
C49 C48 1_555 1_555
H51 C49 1_555 1_555
C50 C49 1_555 1_555
H52 C50 1_555 1_555
C51 C50 1_555 1_555
H53 C51 1_555 1_555
C52 C47 1_555 1_555
H54 C52 1_555 1_555
C1 C2 1_555 1_555
C5 C6 1_555 1_555
C8 C9 1_555 1_555
C9 C10 1_555 1_555
C11 C12 1_555 1_555
C20 C21 1_555 1_555
C26 C27 1_555 1_555
C32 C33 1_555 1_555
C39 C40 1_555 1_555
C45 C46 1_555 1_555
C51 C52 1_555 1_555

#END
