
#######################################################################
#
#                 Cambridge Crystallographic Data Centre
#                                CCDC 
#
#######################################################################
#
# If this CIF has been generated from an entry in the Cambridge 
# Structural Database, then it will include bibliographic, chemical, 
# crystal, experimental, refinement or atomic coordinate data resulting 
# from the CCDC's data processing and validation procedures.
#
#######################################################################

data_KOVXUQ
_chemical_formula_moiety         'C34 H58 B4 O8'
_chemical_name_systematic        
2,2',2'',2'''-(5,6-diethylbenzene-1,2,3,4-tetrayl)tetrakis(4,4,5,5-tetramethyl-1,3,2-dioxaborolane)
_symmetry_cell_setting           orthorhombic
_symmetry_space_group_name_H-M   'P b c a'
_symmetry_Int_Tables_number      61
_space_group_name_Hall           '-P 2ac 2ab'
loop_
_symmetry_equiv_pos_site_id
_symmetry_equiv_pos_as_xyz
1 x,y,z
2 1/2+x,1/2-y,-z
3 -x,1/2+y,1/2-z
4 1/2-x,-y,1/2+z
5 -x,-y,-z
6 1/2-x,1/2+y,z
7 x,1/2-y,1/2+z
8 1/2+x,y,1/2-z
_cell_length_a                   21.9452(4)
_cell_length_b                   15.4476(3)
_cell_length_c                   22.5330(5)
_cell_angle_alpha                90
_cell_angle_beta                 90
_cell_angle_gamma                90
_cell_volume                     7638.7
_exptl_crystal_colour            colorless
_exptl_crystal_description       prism
_cell_formula_units_Z            8
loop_
_atom_site_label
_atom_site_type_symbol
_atom_site_fract_x
_atom_site_fract_y
_atom_site_fract_z
B1 B 0.24043(8) 0.52358(11) 0.24334(8)
B2 B 0.18104(8) 0.59098(12) 0.13318(8)
B3 B 0.06235(8) 0.68790(11) 0.14296(7)
B4 B 0.01537(7) 0.73909(10) 0.26252(7)
C1 C 0.10403(6) 0.65135(8) 0.30767(6)
C2 C 0.15664(6) 0.60132(8) 0.30328(6)
C3 C 0.18119(6) 0.58098(8) 0.24697(6)
C4 C 0.15174(6) 0.61011(8) 0.19525(6)
C5 C 0.09768(6) 0.65947(8) 0.19985(6)
C6 C 0.07430(6) 0.68097(8) 0.25596(6)
C7 C 0.07565(7) 0.67096(9) 0.36760(6)
H1 H 0.0540 0.7271 0.3657
H2 H 0.1081 0.6757 0.3979
C8 C 0.03090(8) 0.59993(12) 0.38558(8)
H3 H -0.0004 0.5938 0.3549
H4 H 0.0116 0.6154 0.4233
H5 H 0.0528 0.5450 0.3901
C9 C 0.19050(7) 0.57233(10) 0.35865(7)
H6 H 0.2100 0.5156 0.3510
H7 H 0.1610 0.5647 0.3915
C10 C 0.23903(8) 0.63754(12) 0.37722(8)
H8 H 0.2676 0.6466 0.3443
H9 H 0.2612 0.6153 0.4118
H10 H 0.2195 0.6926 0.3875
C11 C 0.30027(7) 0.40276(10) 0.24892(9)
C12 C 0.34074(7) 0.48471(10) 0.23891(8)
C13 C 0.31902(10) 0.34866(14) 0.30200(12)
H11 H 0.3162 0.3837 0.3381
H12 H 0.3611 0.3288 0.2967
H13 H 0.2919 0.2985 0.3054
C14 C 0.29251(9) 0.34712(13) 0.19408(12)
H14 H 0.2637 0.3003 0.2025
H15 H 0.3320 0.3224 0.1828
H16 H 0.2769 0.3827 0.1614
C15 C 0.37413(9) 0.51544(13) 0.29362(9)
H17 H 0.3929 0.5718 0.2856
H18 H 0.4058 0.4735 0.3041
H19 H 0.3453 0.5210 0.3266
C16 C 0.38473(8) 0.47681(12) 0.18758(9)
H20 H 0.3619 0.4681 0.1507
H21 H 0.4118 0.4273 0.1942
H22 H 0.4090 0.5299 0.1845
C17 C 0.21629(8) 0.51669(14) 0.05361(8)
C18 C 0.22872(9) 0.61417(15) 0.04527(8)
C19 C 0.26999(10) 0.45759(19) 0.04002(10)
H23 H 0.3047 0.4736 0.0651
H24 H 0.2814 0.4637 -0.0018
H25 H 0.2585 0.3974 0.0480
C20 C 0.15958(9) 0.48400(17) 0.02158(10)
H26 H 0.1506 0.4248 0.0345
H27 H 0.1668 0.4845 -0.0213
H28 H 0.1250 0.5217 0.0310
C21 C 0.29361(10) 0.6403(2) 0.06108(10)
H29 H 0.2965 0.7035 0.0628
H30 H 0.3217 0.6182 0.0308
H31 H 0.3044 0.6159 0.0998
C22 C 0.21130(12) 0.6510(2) -0.01469(9)
H32 H 0.1680 0.6400 -0.0222
H33 H 0.2358 0.6231 -0.0457
H34 H 0.2189 0.7135 -0.0150
C23 C 0.00741(8) 0.67931(12) 0.05810(7)
C24 C 0.02142(8) 0.77493(12) 0.07264(7)
C25 C 0.01925(11) 0.65422(16) -0.00604(8)
H35 H 0.0622 0.6645 -0.0156
H36 H -0.0065 0.6892 -0.0322
H37 H 0.0097 0.5928 -0.0116
C26 C -0.05575(10) 0.65096(16) 0.07773(10)
H38 H -0.0588 0.5878 0.0754
H39 H -0.0864 0.6772 0.0518
H40 H -0.0628 0.6696 0.1187
C27 C 0.07714(10) 0.81034(14) 0.04053(8)
H41 H 0.0880 0.8669 0.0571
H42 H 0.0680 0.8166 -0.0018
H43 H 0.1114 0.7703 0.0456
C28 C -0.03206(10) 0.83627(15) 0.06601(9)
H44 H -0.0655 0.8171 0.0916
H45 H -0.0457 0.8366 0.0246
H46 H -0.0195 0.8948 0.0775
C29 C -0.08538(7) 0.77478(10) 0.27082(8)
C30 C -0.04507(7) 0.85734(10) 0.28008(7)
C31 C -0.13416(8) 0.78293(14) 0.22352(11)
H47 H -0.1150 0.7956 0.1852
H48 H -0.1621 0.8299 0.2341
H49 H -0.1569 0.7285 0.2207
C32 C -0.11297(9) 0.73976(13) 0.32733(10)
H50 H -0.1321 0.6837 0.3193
H51 H -0.1437 0.7804 0.3421
H52 H -0.0810 0.7325 0.3572
C33 C -0.04615(8) 0.91942(12) 0.22817(8)
H53 H -0.0177 0.9671 0.2356
H54 H -0.0874 0.9426 0.2233
H55 H -0.0341 0.8888 0.1920
C34 C -0.05745(9) 0.90694(12) 0.33681(8)
H56 H -0.0503 0.8691 0.3710
H57 H -0.0999 0.9267 0.3371
H58 H -0.0302 0.9571 0.3390
O1 O 0.24048(5) 0.43995(7) 0.26163(6)
O2 O 0.29562(4) 0.55181(6) 0.22456(5)
O3 O 0.20213(5) 0.51130(8) 0.11694(5)
O4 O 0.18963(6) 0.65268(8) 0.09059(5)
O5 O 0.05039(5) 0.63380(7) 0.09648(5)
O6 O 0.03905(5) 0.76920(7) 0.13513(4)
O7 O -0.04153(5) 0.70962(7) 0.25066(5)
O8 O 0.01659(5) 0.82175(6) 0.28321(5)
loop_
_geom_bond_atom_site_label_1
_geom_bond_atom_site_label_2
_geom_bond_site_symmetry_1
_geom_bond_site_symmetry_2
B1 C3 1_555 1_555
B2 C4 1_555 1_555
B3 C5 1_555 1_555
B4 C6 1_555 1_555
C1 C2 1_555 1_555
C2 C3 1_555 1_555
C3 C4 1_555 1_555
C4 C5 1_555 1_555
C5 C6 1_555 1_555
C6 C1 1_555 1_555
C7 C1 1_555 1_555
H1 C7 1_555 1_555
H2 C7 1_555 1_555
C8 C7 1_555 1_555
H3 C8 1_555 1_555
H4 C8 1_555 1_555
H5 C8 1_555 1_555
C9 C2 1_555 1_555
H6 C9 1_555 1_555
H7 C9 1_555 1_555
C10 C9 1_555 1_555
H8 C10 1_555 1_555
H9 C10 1_555 1_555
H10 C10 1_555 1_555
C11 C12 1_555 1_555
C12 C15 1_555 1_555
C13 C11 1_555 1_555
H11 C13 1_555 1_555
H12 C13 1_555 1_555
H13 C13 1_555 1_555
C14 C11 1_555 1_555
H14 C14 1_555 1_555
H15 C14 1_555 1_555
H16 C14 1_555 1_555
C15 H17 1_555 1_555
H18 C15 1_555 1_555
H19 C15 1_555 1_555
C16 C12 1_555 1_555
H20 C16 1_555 1_555
H21 C16 1_555 1_555
H22 C16 1_555 1_555
C17 C18 1_555 1_555
C18 C21 1_555 1_555
C19 C17 1_555 1_555
H23 C19 1_555 1_555
H24 C19 1_555 1_555
H25 C19 1_555 1_555
C20 C17 1_555 1_555
H26 C20 1_555 1_555
H27 C20 1_555 1_555
H28 C20 1_555 1_555
C21 H29 1_555 1_555
H30 C21 1_555 1_555
H31 C21 1_555 1_555
C22 C18 1_555 1_555
H32 C22 1_555 1_555
H33 C22 1_555 1_555
H34 C22 1_555 1_555
C23 C24 1_555 1_555
C24 C27 1_555 1_555
C25 C23 1_555 1_555
H35 C25 1_555 1_555
H36 C25 1_555 1_555
H37 C25 1_555 1_555
C26 C23 1_555 1_555
H38 C26 1_555 1_555
H39 C26 1_555 1_555
H40 C26 1_555 1_555
C27 H41 1_555 1_555
H42 C27 1_555 1_555
H43 C27 1_555 1_555
C28 C24 1_555 1_555
H44 C28 1_555 1_555
H45 C28 1_555 1_555
H46 C28 1_555 1_555
C29 C30 1_555 1_555
C30 C33 1_555 1_555
C31 C29 1_555 1_555
H47 C31 1_555 1_555
H48 C31 1_555 1_555
H49 C31 1_555 1_555
C32 C29 1_555 1_555
H50 C32 1_555 1_555
H51 C32 1_555 1_555
H52 C32 1_555 1_555
C33 H53 1_555 1_555
H54 C33 1_555 1_555
H55 C33 1_555 1_555
C34 C30 1_555 1_555
H56 C34 1_555 1_555
H57 C34 1_555 1_555
H58 C34 1_555 1_555
O1 B1 1_555 1_555
O2 B1 1_555 1_555
O3 B2 1_555 1_555
O4 B2 1_555 1_555
O5 B3 1_555 1_555
O6 B3 1_555 1_555
O7 B4 1_555 1_555
O8 B4 1_555 1_555
C11 O1 1_555 1_555
C12 O2 1_555 1_555
C17 O3 1_555 1_555
C18 O4 1_555 1_555
C23 O5 1_555 1_555
C24 O6 1_555 1_555
C29 O7 1_555 1_555
C30 O8 1_555 1_555

#END
