
#######################################################################
#
#                 Cambridge Crystallographic Data Centre
#                                CCDC 
#
#######################################################################
#
# If this CIF has been generated from an entry in the Cambridge 
# Structural Database, then it will include bibliographic, chemical, 
# crystal, experimental, refinement or atomic coordinate data resulting 
# from the CCDC's data processing and validation procedures.
#
#######################################################################

data_KOXKEP
_chemical_formula_moiety         'C13 H11 Cl1 O3'
_chemical_name_systematic        
'ethyl 3-chloro-6-oxo-1,1a,6,6a-tetrahydrocyclopropa[a]indene-1-carboxylate'
_symmetry_cell_setting           triclinic
_symmetry_space_group_name_H-M   'P 1'
_symmetry_Int_Tables_number      1
_space_group_name_Hall           'P 1'
loop_
_symmetry_equiv_pos_site_id
_symmetry_equiv_pos_as_xyz
1 x,y,z
_cell_length_a                   5.055(4)
_cell_length_b                   5.156(4)
_cell_length_c                   21.373(14)
_cell_angle_alpha                90.216(18)
_cell_angle_beta                 92.496(16)
_cell_angle_gamma                95.125(18)
_cell_volume                     554.287
_cell_formula_units_Z            2
loop_
_atom_site_label
_atom_site_type_symbol
_atom_site_fract_x
_atom_site_fract_y
_atom_site_fract_z
Cl1 Cl -0.0700(8) 0.7938(8) 0.3852(3)
O1 O 0.744(2) 0.117(2) 0.2209(7)
O2 O -0.038(3) 0.184(3) 0.0548(6)
O3 O 0.267(3) 0.508(3) 0.0343(7)
C1 C 0.437(3) 0.382(3) 0.2630(9)
C2 C 0.597(4) 0.280(3) 0.2148(9)
C3 C 0.134(3) 0.695(4) 0.2763(10)
H1 H 0.0217 0.8188 0.2598
C4 C 0.273(4) 0.442(3) 0.3627(10)
H2 H 0.2597 0.3981 0.4056
C5 C 0.133(3) 0.638(4) 0.3370(9)
C6 C 0.292(3) 0.578(3) 0.2381(9)
C7 C 0.519(4) 0.403(5) 0.1573(10)
H3 H 0.6547 0.4477 0.1254
C8 C 0.227(3) 0.344(3) 0.1360(9)
H4 H 0.1236 0.2087 0.1607
C9 C 0.158(4) 0.349(4) 0.0706(10)
C10 C 0.323(3) 0.591(3) 0.1707(9)
H5 H 0.3283 0.7619 0.1487
C11 C 0.428(4) 0.316(4) 0.3256(10)
H6 H 0.5292 0.1840 0.3421
C12 C -0.124(4) 0.181(4) -0.0079(10)
H7 H 0.0245 0.1494 -0.0348
H8 H -0.1905 0.3497 -0.0196
C13 C -0.350(4) -0.041(4) -0.0165(11)
H9 H -0.2763 -0.2093 -0.0104
H10 H -0.4308 -0.0344 -0.0589
H11 H -0.4845 -0.0203 0.0142
Cl2 Cl -0.5389(7) 0.9792(7) 0.4802(2)
O4 O 0.156(2) 0.740(3) 0.8057(6)
O5 O -0.148(3) 0.993(2) 0.8368(7)
O6 O 0.521(2) 1.431(2) 0.6651(7)
C14 C 0.051(4) 0.884(4) 0.6823(9)
H12 H 0.0419 0.6909 0.6868
C15 C 0.001(4) 0.935(3) 0.7981(9)
C16 C -0.030(4) 1.003(3) 0.6222(9)
C17 C 0.129(4) 1.237(4) 0.6119(9)
C18 C 0.293(4) 1.055(3) 0.7074(9)
H13 H 0.4452 0.9777 0.7294
C19 C 0.080(3) 1.382(3) 0.5620(10)
H14 H 0.1903 1.5372 0.5551
C20 C -0.122(4) 1.310(4) 0.5217(10)
H15 H -0.1607 1.4161 0.4868
C21 C 0.337(4) 1.267(3) 0.6628(9)
C22 C 0.148(4) 0.608(4) 0.8630(9)
H16 H -0.0138 0.4855 0.8639
H17 H 0.1468 0.7332 0.8982
C23 C 0.023(3) 1.054(3) 0.7376(9)
H18 H -0.0771 1.2108 0.7303
C24 C -0.280(3) 1.071(4) 0.5318(9)
C25 C -0.239(4) 0.936(4) 0.5825(10)
H19 H -0.3583 0.7895 0.5913
C26 C 0.393(4) 0.461(4) 0.8690(10)
H20 H 0.4014 0.3490 0.8320
H21 H 0.3857 0.3531 0.9067
H22 H 0.5522 0.5847 0.8721
loop_
_geom_bond_atom_site_label_1
_geom_bond_atom_site_label_2
_geom_bond_site_symmetry_1
_geom_bond_site_symmetry_2
Cl1 C5 1_555 1_555
O1 C2 1_555 1_555
O2 C9 1_555 1_555
O3 C9 1_555 1_555
C1 C2 1_555 1_555
C2 C7 1_555 1_555
C3 H1 1_555 1_555
C4 H2 1_555 1_555
C5 C3 1_555 1_555
C6 C1 1_555 1_555
C7 H3 1_555 1_555
C8 C7 1_555 1_555
H4 C8 1_555 1_555
C9 C8 1_555 1_555
C10 C6 1_555 1_555
H5 C10 1_555 1_555
C11 C1 1_555 1_555
H6 C11 1_555 1_555
C12 O2 1_555 1_555
H7 C12 1_555 1_555
H8 C12 1_555 1_555
C13 C12 1_555 1_555
H9 C13 1_555 1_555
H10 C13 1_555 1_555
H11 C13 1_555 1_555
Cl2 C24 1_555 1_555
O4 C15 1_555 1_555
O5 C15 1_555 1_555
O6 C21 1_555 1_555
C14 H12 1_555 1_555
C15 C23 1_555 1_555
C16 C14 1_555 1_555
C17 C16 1_555 1_555
C18 C14 1_555 1_555
H13 C18 1_555 1_555
C19 C17 1_555 1_555
H14 C19 1_555 1_555
C20 C19 1_555 1_555
H15 C20 1_555 1_555
C21 C17 1_555 1_555
C22 O4 1_555 1_555
H16 C22 1_555 1_555
H17 C22 1_555 1_555
C23 C14 1_555 1_555
H18 C23 1_555 1_555
C24 C20 1_555 1_555
C25 C16 1_555 1_555
H19 C25 1_555 1_555
C26 C22 1_555 1_555
H20 C26 1_555 1_555
H21 C26 1_555 1_555
H22 C26 1_555 1_555
C3 C6 1_555 1_555
C4 C5 1_555 1_555
C4 C11 1_555 1_555
C7 C10 1_555 1_555
C8 C10 1_555 1_555
C18 C21 1_555 1_555
C18 C23 1_555 1_555
C24 C25 1_555 1_555

#END
