
#######################################################################
#
#                 Cambridge Crystallographic Data Centre
#                                CCDC 
#
#######################################################################
#
# If this CIF has been generated from an entry in the Cambridge 
# Structural Database, then it will include bibliographic, chemical, 
# crystal, experimental, refinement or atomic coordinate data resulting 
# from the CCDC's data processing and validation procedures.
#
#######################################################################

data_KOXLAM
_chemical_formula_moiety         'C17 H17 N1 O3'
_chemical_name_systematic        
(3-(t-butylamino)-1-benzofuran-2-yl)(2-furyl)methanone
_symmetry_cell_setting           orthorhombic
_symmetry_space_group_name_H-M   'P c a 21'
_symmetry_Int_Tables_number      29
_space_group_name_Hall           'P 2c -2ac'
loop_
_symmetry_equiv_pos_site_id
_symmetry_equiv_pos_as_xyz
1 x,y,z
2 -x,-y,1/2+z
3 1/2+x,-y,z
4 1/2-x,y,1/2+z
_cell_length_a                   11.3143(3)
_cell_length_b                   16.4449(5)
_cell_length_c                   15.5419(5)
_cell_angle_alpha                90
_cell_angle_beta                 90
_cell_angle_gamma                90
_cell_volume                     2891.77
_exptl_crystal_colour            yellow
_exptl_crystal_description       parallelepiped
_cell_formula_units_Z            8
loop_
_atom_site_label
_atom_site_type_symbol
_atom_site_fract_x
_atom_site_fract_y
_atom_site_fract_z
O1 O 0.09464(11) 0.24959(7) 0.07875(9)
O2 O 0.11512(12) 0.45262(7) 0.16221(9)
O3 O 0.25952(13) 0.38209(8) 0.27766(10)
N1 N -0.04324(15) 0.43998(9) 0.02940(11)
H1 H -0.008(2) 0.4677(13) 0.0678(16)
C1 C 0.02037(16) 0.22535(11) 0.01486(12)
C2 C 0.01196(17) 0.14519(11) -0.01355(13)
H2 H 0.0600 0.1032 0.0098
C3 C -0.06989(18) 0.13004(11) -0.07746(13)
H3 H -0.0796 0.0761 -0.0983
C4 C -0.13905(18) 0.19294(12) -0.11224(13)
H4 H -0.1946 0.1807 -0.1562
C5 C -0.12809(17) 0.27202(12) -0.08392(13)
H5 H -0.1748 0.3140 -0.1085
C6 C -0.04717(15) 0.28960(10) -0.01833(12)
C7 C -0.00967(16) 0.36103(11) 0.03049(12)
C8 C 0.07602(16) 0.33340(10) 0.08779(12)
C9 C 0.13612(16) 0.37861(11) 0.15248(13)
C10 C 0.22293(17) 0.33813(11) 0.20782(13)
C11 C 0.2800(2) 0.26598(13) 0.20733(17)
H6 H 0.2713 0.2239 0.1660
C12 C 0.3555(2) 0.26493(14) 0.28042(18)
H7 H 0.4070 0.2222 0.2975
C13 C 0.33979(19) 0.33561(13) 0.32009(16)
H8 H 0.3794 0.3515 0.3713
C14 C -0.11641(16) 0.48630(11) -0.03228(13)
C15 C -0.07156(18) 0.47569(12) -0.12461(13)
H9 H 0.0121 0.4909 -0.1275
H10 H -0.1174 0.5106 -0.1633
H11 H -0.0807 0.4188 -0.1421
C16 C -0.24692(17) 0.46317(12) -0.02398(16)
H12 H -0.2724 0.4705 0.0358
H13 H -0.2575 0.4062 -0.0407
H14 H -0.2944 0.4980 -0.0617
C17 C -0.1012(2) 0.57539(12) -0.00564(16)
H15 H -0.1297 0.5827 0.0534
H16 H -0.1467 0.6102 -0.0446
H17 H -0.0174 0.5902 -0.0087
O4 O 0.17450(12) 0.75373(7) 0.10214(9)
O5 O 0.17631(12) 0.96308(7) 0.03553(9)
O6 O -0.04460(12) 0.92739(8) -0.01775(10)
N2 N 0.35160(15) 0.92815(9) 0.15396(11)
H18 H 0.318(2) 0.9616(13) 0.1145(15)
C18 C 0.24843(17) 0.72052(11) 0.16188(13)
C19 C 0.24275(19) 0.63958(11) 0.18741(13)
H19 H 0.1846 0.6035 0.1653
C20 C 0.3260(2) 0.61430(12) 0.24666(14)
H20 H 0.3261 0.5593 0.2654
C21 C 0.4099(2) 0.66819(13) 0.27941(14)
H21 H 0.4661 0.6489 0.3200
C22 C 0.41343(19) 0.74884(12) 0.25446(13)
H22 H 0.4709 0.7848 0.2777
C23 C 0.33000(16) 0.77666(10) 0.19389(12)
C24 C 0.30328(17) 0.85276(11) 0.14969(12)
C25 C 0.20907(17) 0.83515(11) 0.09542(12)
C26 C 0.14216(17) 0.89122(11) 0.04441(12)
C27 C 0.02832(17) 0.86516(12) 0.00720(12)
C28 C -0.0271(2) 0.79343(13) -0.00536(17)
H23 H 0.0036 0.7409 0.0069
C29 C -0.1403(2) 0.81143(15) -0.0404(2)
H24 H -0.1996 0.7735 -0.0566
C30 C -0.14665(19) 0.89244(14) -0.04586(15)
H25 H -0.2133 0.9217 -0.0666
C31 C 0.42089(17) 0.96659(11) 0.22378(13)
C32 C 0.36695(18) 0.94803(12) 0.31220(13)
H26 H 0.2840 0.9651 0.3128
H27 H 0.4106 0.9777 0.3567
H28 H 0.3719 0.8895 0.3235
C33 C 0.55092(18) 0.94161(13) 0.21821(15)
H29 H 0.5580 0.8830 0.2286
H30 H 0.5965 0.9713 0.2617
H31 H 0.5816 0.9545 0.1608
C34 C 0.4099(2) 1.05798(12) 0.20806(14)
H32 H 0.3266 1.0740 0.2118
H33 H 0.4403 1.0711 0.1507
H34 H 0.4556 1.0875 0.2516
loop_
_geom_bond_atom_site_label_1
_geom_bond_atom_site_label_2
_geom_bond_site_symmetry_1
_geom_bond_site_symmetry_2
O1 C1 1_555 1_555
O2 C9 1_555 1_555
O3 C10 1_555 1_555
N1 H1 1_555 1_555
C1 C2 1_555 1_555
C2 H2 1_555 1_555
C3 C2 1_555 1_555
H3 C3 1_555 1_555
C4 C3 1_555 1_555
H4 C4 1_555 1_555
C5 C4 1_555 1_555
H5 C5 1_555 1_555
C6 C1 1_555 1_555
C7 N1 1_555 1_555
C8 O1 1_555 1_555
C9 C8 1_555 1_555
C10 C9 1_555 1_555
C11 C10 1_555 1_555
H6 C11 1_555 1_555
C12 C11 1_555 1_555
H7 C12 1_555 1_555
C13 O3 1_555 1_555
H8 C13 1_555 1_555
C14 N1 1_555 1_555
C15 C14 1_555 1_555
H9 C15 1_555 1_555
H10 C15 1_555 1_555
H11 C15 1_555 1_555
C16 C14 1_555 1_555
H12 C16 1_555 1_555
H13 C16 1_555 1_555
H14 C16 1_555 1_555
C17 C14 1_555 1_555
H15 C17 1_555 1_555
H16 C17 1_555 1_555
H17 C17 1_555 1_555
O4 C18 1_555 1_555
O5 C26 1_555 1_555
O6 C27 1_555 1_555
N2 H18 1_555 1_555
C18 C19 1_555 1_555
C19 H19 1_555 1_555
C20 C19 1_555 1_555
H20 C20 1_555 1_555
C21 C20 1_555 1_555
H21 C21 1_555 1_555
C22 C21 1_555 1_555
H22 C22 1_555 1_555
C23 C18 1_555 1_555
C24 N2 1_555 1_555
C25 O4 1_555 1_555
C26 C25 1_555 1_555
C27 C26 1_555 1_555
C28 C27 1_555 1_555
H23 C28 1_555 1_555
C29 C28 1_555 1_555
H24 C29 1_555 1_555
C30 O6 1_555 1_555
H25 C30 1_555 1_555
C31 N2 1_555 1_555
C32 C31 1_555 1_555
H26 C32 1_555 1_555
H27 C32 1_555 1_555
H28 C32 1_555 1_555
C33 C31 1_555 1_555
H29 C33 1_555 1_555
H30 C33 1_555 1_555
H31 C33 1_555 1_555
C34 C31 1_555 1_555
H32 C34 1_555 1_555
H33 C34 1_555 1_555
H34 C34 1_555 1_555
C5 C6 1_555 1_555
C6 C7 1_555 1_555
C7 C8 1_555 1_555
C12 C13 1_555 1_555
C22 C23 1_555 1_555
C23 C24 1_555 1_555
C24 C25 1_555 1_555
C29 C30 1_555 1_555

#END
