
#######################################################################
#
#                 Cambridge Crystallographic Data Centre
#                                CCDC 
#
#######################################################################
#
# If this CIF has been generated from an entry in the Cambridge 
# Structural Database, then it will include bibliographic, chemical, 
# crystal, experimental, refinement or atomic coordinate data resulting 
# from the CCDC's data processing and validation procedures.
#
#######################################################################

data_KOXPHY11
_chemical_formula_moiety         'C2 O4 2-,2(K1 1+),H2 O2'
_chemical_name_systematic        'Dipotassium oxalate monoperhydrate'
_symmetry_cell_setting           monoclinic
_symmetry_space_group_name_H-M   'C 2/c'
_symmetry_Int_Tables_number      15
_space_group_name_Hall           '-C 2yn'
loop_
_symmetry_equiv_pos_site_id
_symmetry_equiv_pos_as_xyz
1 x,y,z
2 1/2+x,1/2+y,z
3 -x,y,1/2-z
4 1/2-x,1/2+y,1/2-z
5 -x,-y,-z
6 1/2-x,1/2-y,-z
7 x,-y,1/2+z
8 1/2+x,1/2-y,1/2+z
_cell_length_a                   8.858(2)
_cell_length_b                   6.505(2)
_cell_length_c                   10.872(2)
_cell_angle_alpha                90
_cell_angle_beta                 108.38(1)
_cell_angle_gamma                90
_cell_volume                     594.501
_cell_formula_units_Z            4
loop_
_atom_site_label
_atom_site_type_symbol
_atom_site_fract_x
_atom_site_fract_y
_atom_site_fract_z
K1 K 0.36031(4) 0.34225(5) 0.36376(3)
O1 O 0.11238(2) 0.25033(3) 0.08563(2)
O2 O 0.30350(2) 0.47766(3) 0.09066(2)
C1 C 0.22641(2) 0.31753(3) 0.05079(1)
C1E C 0.27359(2) 0.18247(3) -0.05079(1)
O1E O 0.38762(2) 0.24967(3) -0.08563(2)
O2E O 0.19650(2) 0.02234(3) -0.09066(2)
O3 O 0.45276(2) 0.00255(4) 0.18163(2)
H1 H 0.51568(5) -0.09729(7) 0.14561(4)
O3B O 0.54724(2) 0.00255(4) 0.31837(2)
H1B H 0.48432(5) -0.09729(7) 0.35439(4)
loop_
_geom_bond_atom_site_label_1
_geom_bond_atom_site_label_2
_geom_bond_site_symmetry_1
_geom_bond_site_symmetry_2
O1 C1 1_555 1_555
O2 C1 1_555 1_555
C1 C1E 1_555 1_555
O3 H1 1_555 1_555
C1E O1E 1_555 1_555
O2E C1E 1_555 1_555
O3B O3 1_555 1_555
H1B O3B 1_555 1_555

#END
