
#######################################################################
#
#                 Cambridge Crystallographic Data Centre
#                                CCDC 
#
#######################################################################
#
# If this CIF has been generated from an entry in the Cambridge 
# Structural Database, then it will include bibliographic, chemical, 
# crystal, experimental, refinement or atomic coordinate data resulting 
# from the CCDC's data processing and validation procedures.
#
#######################################################################

data_KUBVEI
_chemical_formula_moiety         'C23 H38 B2 N2 O1'
_chemical_name_systematic        
'B-(4-Dimethylaminopyridine)-bis(1,5-cyclo-octanediylboryl) oxide'
_symmetry_cell_setting           monoclinic
_symmetry_space_group_name_H-M   'C 2/c'
_symmetry_Int_Tables_number      15
_space_group_name_Hall           '-C 2yn'
loop_
_symmetry_equiv_pos_site_id
_symmetry_equiv_pos_as_xyz
1 x,y,z
2 1/2+x,1/2+y,z
3 -x,y,1/2-z
4 1/2-x,1/2+y,1/2-z
5 -x,-y,-z
6 1/2-x,1/2-y,-z
7 x,-y,1/2+z
8 1/2+x,1/2-y,1/2+z
_cell_length_a                   20.346(4)
_cell_length_b                   11.628(3)
_cell_length_c                   18.268(4)
_cell_angle_alpha                90
_cell_angle_beta                 91.48(2)
_cell_angle_gamma                90
_cell_volume                     4320.46
_cell_formula_units_Z            8
loop_
_atom_site_label
_atom_site_type_symbol
_atom_site_fract_x
_atom_site_fract_y
_atom_site_fract_z
O1 O 0.3633(1) 0.2693(1) 0.4877(1)
N1 N 0.3400(1) 0.0624(1) 0.4776(1)
N2 N 0.2744(1) -0.2155(1) 0.6010(1)
B1 B 0.3641(1) 0.1751(2) 0.4320(1)
B2 B 0.3990(1) 0.2846(2) 0.5492(1)
C1 C 0.4334(1) 0.1521(2) 0.3928(1)
C2 C 0.4554(1) 0.2682(2) 0.3609(1)
C3 C 0.4064(1) 0.3227(2) 0.3068(1)
C4 C 0.3348(1) 0.3200(2) 0.3321(1)
C5 C 0.3122(1) 0.2060(2) 0.3667(1)
C6 C 0.3057(1) 0.1072(2) 0.3116(1)
C7 C 0.3702(1) 0.0695(2) 0.2781(1)
C8 C 0.4274(1) 0.0575(2) 0.3337(1)
C9 C 0.3892(1) 0.3941(1) 0.5994(1)
C10 C 0.3792(1) 0.3588(2) 0.6800(1)
C11 C 0.3848(1) 0.2311(2) 0.6924(1)
C12 C 0.4452(1) 0.1740(2) 0.6602(1)
C13 C 0.4580(1) 0.2081(2) 0.5806(1)
C14 C 0.5201(1) 0.2841(2) 0.5743(1)
C15 C 0.5146(1) 0.3999(2) 0.6129(1)
C16 C 0.4523(1) 0.4664(2) 0.5918(1)
C17 C 0.3800(1) -0.0254(1) 0.4970(1)
C18 C 0.3610(1) -0.1170(2) 0.5381(1)
C19 C 0.2958(1) -0.1242(2) 0.5623(1)
C20 C 0.2547(1) -0.0304(2) 0.5432(1)
C21 C 0.2780(1) 0.0584(2) 0.5027(1)
C22 C 0.3177(1) -0.3121(2) 0.6158(1)
C23 C 0.2071(1) -0.2205(2) 0.6259(1)
loop_
_geom_bond_atom_site_label_1
_geom_bond_atom_site_label_2
_geom_bond_site_symmetry_1
_geom_bond_site_symmetry_2
O1 B1 1_555 1_555
N1 B1 1_555 1_555
N2 C19 1_555 1_555
B1 C1 1_555 1_555
B2 O1 1_555 1_555
C1 C2 1_555 1_555
C2 C3 1_555 1_555
C3 C4 1_555 1_555
C4 C5 1_555 1_555
C5 B1 1_555 1_555
C6 C5 1_555 1_555
C7 C6 1_555 1_555
C8 C1 1_555 1_555
C9 B2 1_555 1_555
C10 C9 1_555 1_555
C11 C10 1_555 1_555
C12 C11 1_555 1_555
C13 B2 1_555 1_555
C14 C13 1_555 1_555
C15 C14 1_555 1_555
C16 C9 1_555 1_555
C17 N1 1_555 1_555
C18 C17 1_555 1_555
C19 C18 1_555 1_555
C20 C19 1_555 1_555
C21 N1 1_555 1_555
C22 N2 1_555 1_555
C23 N2 1_555 1_555
C7 C8 1_555 1_555
C12 C13 1_555 1_555
C15 C16 1_555 1_555
C20 C21 1_555 1_555

#END
