
#######################################################################
#
#                 Cambridge Crystallographic Data Centre
#                                CCDC 
#
#######################################################################
#
# If this CIF has been generated from an entry in the Cambridge 
# Structural Database, then it will include bibliographic, chemical, 
# crystal, experimental, refinement or atomic coordinate data resulting 
# from the CCDC's data processing and validation procedures.
#
#######################################################################

data_KUBVUY01
_chemical_formula_moiety         'C40 H26'
_chemical_name_systematic        10,10'-diphenyl-9,9'-bianthracene
_symmetry_cell_setting           monoclinic
_symmetry_space_group_name_H-M   'P 21/c'
_symmetry_Int_Tables_number      14
_space_group_name_Hall           '-P 2ybc'
loop_
_symmetry_equiv_pos_site_id
_symmetry_equiv_pos_as_xyz
1 x,y,z
2 -x,1/2+y,1/2-z
3 -x,-y,-z
4 x,1/2-y,1/2+z
_cell_length_a                   9.1800(5)
_cell_length_b                   24.6758(12)
_cell_length_c                   12.5032(6)
_cell_angle_alpha                90
_cell_angle_beta                 102.3851(18)
_cell_angle_gamma                90
_cell_volume                     2766.36
_exptl_crystal_colour            colorless
_exptl_crystal_description       Prism
_cell_formula_units_Z            4
loop_
_atom_site_label
_atom_site_type_symbol
_atom_site_fract_x
_atom_site_fract_y
_atom_site_fract_z
C1 C 0.24487(13) 0.53560(5) 0.35890(9)
H1 H 0.3119 0.5647 0.3828
C2 C 0.10729(13) 0.53631(5) 0.38346(9)
H2 H 0.0795 0.5657 0.4239
C3 C 0.00514(13) 0.49328(5) 0.34892(10)
H3 H -0.0910 0.4943 0.3656
C4 C 0.04443(12) 0.45068(5) 0.29206(9)
H4 H -0.0248 0.4221 0.2701
C5 C 0.22906(12) 0.40450(4) 0.20466(9)
C6 C 0.41189(13) 0.36102(5) 0.11218(10)
H5 H 0.3468 0.3310 0.0924
C7 C 0.54462(13) 0.36193(5) 0.08041(10)
H6 H 0.5710 0.3328 0.0387
C8 C 0.64387(13) 0.40624(5) 0.10937(10)
H7 H 0.7358 0.4067 0.0861
C9 C 0.60847(13) 0.44794(5) 0.17006(9)
H8 H 0.6770 0.4770 0.1897
C10 C 0.42998(12) 0.49221(4) 0.26712(9)
C11 C 0.29086(12) 0.49205(4) 0.29793(9)
C12 C 0.18825(12) 0.44805(5) 0.26463(9)
C13 C 0.36825(12) 0.40434(5) 0.17480(9)
C14 C 0.46928(12) 0.44897(5) 0.20505(9)
C15 C -0.18644(12) 0.32935(5) -0.07679(9)
H9 H -0.2571 0.3018 -0.1035
C16 C -0.18529(13) 0.37542(5) -0.13668(9)
H10 H -0.2544 0.3795 -0.2046
C17 C -0.08138(13) 0.41751(5) -0.09830(10)
H11 H -0.0805 0.4493 -0.1411
C18 C 0.01669(13) 0.41248(5) -0.00053(9)
H12 H 0.0847 0.4411 0.0246
C19 C 0.12109(12) 0.35954(4) 0.16641(9)
C20 C 0.22604(13) 0.30543(5) 0.33169(9)
H13 H 0.2928 0.3340 0.3593
C21 C 0.22965(13) 0.25881(5) 0.39066(10)
H14 H 0.2980 0.2554 0.4591
C22 C 0.13200(13) 0.21540(5) 0.35050(10)
H15 H 0.1358 0.1830 0.3920
C23 C 0.03272(12) 0.21988(5) 0.25275(9)
H16 H -0.0313 0.1903 0.2269
C24 C 0.02286(12) 0.26823(5) 0.18827(9)
C25 C 0.12322(12) 0.31202(5) 0.22877(9)
C26 C 0.01935(12) 0.36481(4) 0.06529(9)
C27 C -0.08319(12) 0.32157(4) 0.02575(9)
C28 C 0.53510(12) 0.53873(5) 0.29745(9)
C29 C 0.62017(13) 0.54397(5) 0.40370(9)
H17 H 0.6092 0.5182 0.4579
C30 C 0.72090(13) 0.58649(5) 0.43112(10)
H18 H 0.7787 0.5895 0.5036
C31 C 0.73690(13) 0.62438(5) 0.35280(11)
H19 H 0.8054 0.6535 0.3714
C32 C 0.65246(15) 0.61970(5) 0.24705(11)
H20 H 0.6629 0.6458 0.1933
C33 C 0.55271(14) 0.57705(5) 0.21913(10)
H21 H 0.4961 0.5740 0.1463
C34 C -0.18253(12) 0.22787(5) 0.04311(9)
C35 C -0.30346(13) 0.21521(5) 0.08975(10)
H22 H -0.3190 0.2351 0.1515
C36 C -0.40151(14) 0.17380(5) 0.04672(11)
H23 H -0.4835 0.1655 0.0791
C37 C -0.37988(14) 0.14461(5) -0.04328(11)
H24 H -0.4473 0.1165 -0.0729
C38 C -0.25992(15) 0.15643(5) -0.08997(11)
H25 H -0.2448 0.1363 -0.1514
C39 C -0.16131(14) 0.19781(5) -0.04696(10)
H26 H -0.0789 0.2056 -0.0792
C40 C -0.07942(12) 0.27344(4) 0.08677(9)
loop_
_geom_bond_atom_site_label_1
_geom_bond_atom_site_label_2
_geom_bond_site_symmetry_1
_geom_bond_site_symmetry_2
C1 H1 1_555 1_555
C2 C1 1_555 1_555
H2 C2 1_555 1_555
C3 C2 1_555 1_555
H3 C3 1_555 1_555
C4 C3 1_555 1_555
H4 C4 1_555 1_555
C5 C12 1_555 1_555
C6 H5 1_555 1_555
C7 C6 1_555 1_555
H6 C7 1_555 1_555
C8 C7 1_555 1_555
H7 C8 1_555 1_555
C9 C8 1_555 1_555
H8 C9 1_555 1_555
C10 C11 1_555 1_555
C11 C1 1_555 1_555
C12 C4 1_555 1_555
C13 C5 1_555 1_555
C14 C9 1_555 1_555
C15 H9 1_555 1_555
C16 C15 1_555 1_555
H10 C16 1_555 1_555
C17 C16 1_555 1_555
H11 C17 1_555 1_555
C18 C17 1_555 1_555
H12 C18 1_555 1_555
C19 C5 1_555 1_555
C20 H13 1_555 1_555
C21 C20 1_555 1_555
H14 C21 1_555 1_555
C22 C21 1_555 1_555
H15 C22 1_555 1_555
C23 C22 1_555 1_555
H16 C23 1_555 1_555
C24 C23 1_555 1_555
C25 C19 1_555 1_555
C26 C18 1_555 1_555
C27 C15 1_555 1_555
C28 C10 1_555 1_555
C29 C28 1_555 1_555
H17 C29 1_555 1_555
C30 C29 1_555 1_555
H18 C30 1_555 1_555
C31 C30 1_555 1_555
H19 C31 1_555 1_555
C32 C31 1_555 1_555
H20 C32 1_555 1_555
C33 C28 1_555 1_555
H21 C33 1_555 1_555
C34 C35 1_555 1_555
C35 H22 1_555 1_555
C36 C35 1_555 1_555
H23 C36 1_555 1_555
C37 C36 1_555 1_555
H24 C37 1_555 1_555
C38 C37 1_555 1_555
H25 C38 1_555 1_555
C39 C34 1_555 1_555
H26 C39 1_555 1_555
C40 C24 1_555 1_555
C6 C13 1_555 1_555
C10 C14 1_555 1_555
C11 C12 1_555 1_555
C13 C14 1_555 1_555
C19 C26 1_555 1_555
C20 C25 1_555 1_555
C24 C25 1_555 1_555
C26 C27 1_555 1_555
C27 C40 1_555 1_555
C32 C33 1_555 1_555
C34 C40 1_555 1_555
C38 C39 1_555 1_555

#END
